data_POSCAR
  _audit_creation_date              2014-09-24
  _audit_creation_method            'ToBaCCo'
  _symmetry_space_group_name_H-M    'P1'
  _symmetry_Int_Tables_number       1
  _symmetry_cell_setting            triclinic
  loop_
  _symmetry_equiv_pos_as_xyz
 x,y,z
_cell_length_a 64.9075
_cell_length_b 64.8521
_cell_length_c 66.0107
_cell_angle_alpha 89.995300
_cell_angle_beta 90.080800
_cell_angle_gamma 89.901100
loop_
  _atom_site_label
  _atom_site_type_symbol
  _atom_site_fract_x
  _atom_site_fract_y
  _atom_site_fract_z
N1 N 0.37023 0.31532 0.33382
 N2 N 0.37014 0.32932 0.31946
 C3 C 0.38629 0.32608 0.30712
 C4 C 0.39697 0.30891 0.31384
 C5 C 0.38634 0.30252 0.33095
 H6 H 0.38984 0.33544 0.29407
 H7 H 0.38980 0.28937 0.34041
 Cu8 Cu 0.34860 0.34997 0.31716
 Cu9 Cu 0.34912 0.31465 0.35474
 Cu10 Cu 0.31192 0.35301 0.35320
 N11 N 0.32835 0.37201 0.31756
 N12 N 0.31407 0.37324 0.33158
 C13 C 0.30192 0.38963 0.32769
 C14 C 0.30898 0.39917 0.31025
 C15 C 0.32584 0.38759 0.30433
 H16 H 0.28866 0.39395 0.33662
 H17 H 0.33548 0.39023 0.29126
 N18 N 0.31230 0.33117 0.37389
 N19 N 0.32650 0.31660 0.37455
 C20 C 0.32231 0.30382 0.39009
 C21 C 0.30456 0.31061 0.39959
 C22 C 0.29867 0.32800 0.38892
 H23 H 0.33123 0.29028 0.39391
 H24 H 0.28536 0.33756 0.39187
 H25 H 0.32606 0.32880 0.33823
 H26 H 0.34317 0.34604 0.35348
 N27 N 0.37373 0.81514 -0.16745
 N28 N 0.37420 0.82967 -0.18129
 C29 C 0.38788 0.82440 -0.19570
 C30 C 0.39653 0.80546 -0.19067
 C31 C 0.38714 0.80014 -0.17252
 H32 H 0.39064 0.83334 -0.20924
 H33 H 0.38935 0.78614 -0.16390
 Cu34 Cu 0.35657 0.85396 -0.17983
 Cu35 Cu 0.35431 0.81578 -0.14505
 Cu36 Cu 0.31987 0.85658 -0.14377
 N37 N 0.33570 0.87559 -0.17971
 N38 N 0.32180 0.87683 -0.16533
 C39 C 0.30932 0.89296 -0.16903
 C40 C 0.31552 0.90239 -0.18687
 C41 C 0.33250 0.89093 -0.19312
 H42 H 0.29661 0.89739 -0.15944
 H43 H 0.34149 0.89308 -0.20672
 N44 N 0.32024 0.83462 -0.12322
 N45 N 0.33344 0.81913 -0.12359
 C46 C 0.32909 0.80618 -0.10822
 C47 C 0.31227 0.81384 -0.09776
 C48 C 0.30711 0.83190 -0.10767
 H49 H 0.33703 0.79181 -0.10535
 H50 H 0.29444 0.84208 -0.10404
 H51 H 0.33249 0.83279 -0.16055
 H52 H 0.35037 0.84733 -0.14370
 N53 N 0.87113 0.31737 -0.16742
 N54 N 0.86967 0.32979 -0.18309
 C55 C 0.88509 0.32567 -0.19607
 C56 C 0.89677 0.30969 -0.18819
 C57 C 0.88745 0.30481 -0.16997
 H58 H 0.88729 0.33338 -0.21043
 H59 H 0.89208 0.29289 -0.15945
 Cu60 Cu 0.84729 0.34946 -0.18579
 Cu61 Cu 0.85119 0.31786 -0.14550
 Cu62 Cu 0.81559 0.35759 -0.14616
 N63 N 0.82958 0.37353 -0.18427
 N64 N 0.81764 0.37699 -0.16860
 C65 C 0.80678 0.39437 -0.17186
 C66 C 0.81197 0.40215 -0.19079
 C67 C 0.82669 0.38849 -0.19810
 H68 H 0.79564 0.40055 -0.16135
 H69 H 0.83445 0.38900 -0.21255
 N70 N 0.81607 0.33619 -0.12495
 N71 N 0.82969 0.32106 -0.12479
 C72 C 0.82469 0.30762 -0.11011
 C73 C 0.80699 0.31445 -0.10057
 C74 C 0.80202 0.33271 -0.11034
 H75 H 0.83248 0.29311 -0.10757
 H76 H 0.78843 0.34205 -0.10794
 H77 H 0.82657 0.33147 -0.16061
 H78 H 0.84614 0.34919 -0.14908
 N79 N 0.86940 0.81549 0.33325
 N80 N 0.86973 0.82920 0.31861
 C81 C 0.88566 0.82498 0.30620
 C82 C 0.89575 0.80763 0.31344
 C83 C 0.88498 0.80204 0.33064
 H84 H 0.88938 0.83360 0.29268
 H85 H 0.88822 0.78912 0.34048
 Cu86 Cu 0.84901 0.85091 0.31684
 Cu87 Cu 0.84856 0.81570 0.35437
 Cu88 Cu 0.81225 0.85479 0.35262
 N89 N 0.82876 0.87315 0.31648
 N90 N 0.81482 0.87475 0.33078
 C91 C 0.80293 0.89132 0.32714
 C92 C 0.80948 0.90062 0.30936
 C93 C 0.82608 0.88865 0.30308
 H94 H 0.79038 0.89610 0.33677
 H95 H 0.83539 0.89084 0.28971
 N96 N 0.81220 0.83314 0.37355
 N97 N 0.82625 0.81843 0.37436
 C98 C 0.82205 0.80595 0.39011
 C99 C 0.80442 0.81302 0.39961
 C100 C 0.79860 0.83030 0.38870
 H101 H 0.83084 0.79236 0.39405
 H102 H 0.78536 0.83999 0.39156
 H103 H 0.82581 0.83030 0.33767
 H104 H 0.84311 0.84714 0.35312
 N105 N 0.62869 0.68529 0.33324
 N106 N 0.63015 0.67264 0.31777
 C107 C 0.61485 0.67668 0.30459
 C108 C 0.60319 0.69283 0.31215
 C109 C 0.61246 0.69792 0.33038
 H110 H 0.61260 0.66866 0.29040
 H111 H 0.60773 0.70989 0.34078
 Cu112 Cu 0.65214 0.65240 0.31578
 Cu113 Cu 0.64816 0.68456 0.35568
 Cu114 Cu 0.68331 0.64439 0.35587
 N115 N 0.66964 0.62816 0.31768
 N116 N 0.68152 0.62489 0.33349
 C117 C 0.69226 0.60738 0.33060
 C118 C 0.68699 0.59927 0.31187
 C119 C 0.67248 0.61289 0.30416
 H120 H 0.70338 0.60124 0.34121
 H121 H 0.66490 0.61206 0.28959
 N122 N 0.68263 0.66582 0.37704
 N123 N 0.66916 0.68109 0.37697
 C124 C 0.67311 0.69364 0.39273
 C125 C 0.68996 0.68601 0.40320
 C126 C 0.69558 0.66833 0.39282
 H127 H 0.66483 0.70774 0.39590
 H128 H 0.70840 0.65828 0.39631
 H129 H 0.67271 0.67050 0.34110
 H130 H 0.65284 0.65315 0.35254
 N131 N 0.62275 0.17752 -0.16285
 N132 N 0.62320 0.16395 -0.17763
 C133 C 0.60955 0.16961 -0.19195
 C134 C 0.59997 0.18768 -0.18583
 C135 C 0.60871 0.19216 -0.16720
 H136 H 0.60775 0.16200 -0.20641
 H137 H 0.60612 0.20575 -0.15809
 Cu138 Cu 0.64383 0.14219 -0.17819
 Cu139 Cu 0.64252 0.17703 -0.14068
 Cu140 Cu 0.67972 0.13859 -0.14160
 N141 N 0.66454 0.12051 -0.17856
 N142 N 0.67862 0.11930 -0.16427
 C143 C 0.69249 0.10478 -0.16937
 C144 C 0.68706 0.09658 -0.18805
 C145 C 0.66905 0.10686 -0.19328
 H146 H 0.70635 0.10160 -0.16083
 H147 H 0.66053 0.10549 -0.20730
 N148 N 0.67815 0.15963 -0.12001
 N149 N 0.66385 0.17410 -0.11966
 C150 C 0.66826 0.18758 -0.10481
 C151 C 0.68631 0.18149 -0.09535
 C152 C 0.69207 0.16357 -0.10533
 H153 H 0.65992 0.20175 -0.10217
 H154 H 0.70611 0.15489 -0.10309
 H155 H 0.66652 0.16327 -0.15706
 H156 H 0.64924 0.14611 -0.14208
 N157 N 0.12511 0.68280 -0.16529
 N158 N 0.12463 0.66840 -0.17928
 C159 C 0.11111 0.67392 -0.19378
 C160 C 0.10247 0.69275 -0.18852
 C161 C 0.11176 0.69786 -0.17030
 H162 H 0.10842 0.66520 -0.20747
 H163 H 0.10993 0.71207 -0.16193
 Cu164 Cu 0.14273 0.64454 -0.17792
 Cu165 Cu 0.14504 0.68242 -0.14321
 Cu166 Cu 0.18186 0.64375 -0.14449
 N167 N 0.16548 0.62523 -0.18070
 N168 N 0.18044 0.62468 -0.16728
 C169 C 0.19459 0.61077 -0.17316
 C170 C 0.18829 0.60216 -0.19133
 C171 C 0.16969 0.61174 -0.19568
 H172 H 0.20899 0.60795 -0.16538
 H173 H 0.16024 0.60961 -0.20902
 N174 N 0.18062 0.66464 -0.12280
 N175 N 0.16662 0.67940 -0.12240
 C176 C 0.17145 0.69285 -0.10763
 C177 C 0.18943 0.68635 -0.09825
 C178 C 0.19468 0.66829 -0.10820
 H179 H 0.16338 0.70715 -0.10496
 H180 H 0.20862 0.65940 -0.10612
 H181 H 0.16690 0.66688 -0.16036
 H182 H 0.15111 0.65114 -0.14247
 N183 N 0.12973 0.18638 0.33279
 N184 N 0.13050 0.17343 0.31750
 C185 C 0.11504 0.17773 0.30455
 C186 C 0.10409 0.19440 0.31200
 C187 C 0.11388 0.19951 0.32996
 H188 H 0.11221 0.16964 0.29051
 H189 H 0.10975 0.21186 0.34019
 Cu190 Cu 0.15194 0.15255 0.31547
 Cu191 Cu 0.14947 0.18526 0.35505
 Cu192 Cu 0.18714 0.14739 0.35270
 N193 N 0.17279 0.13101 0.31479
 N194 N 0.18652 0.12909 0.32932
 C195 C 0.19913 0.11323 0.32492
 C196 C 0.19300 0.10471 0.30664
 C197 C 0.17617 0.11638 0.30070
 H198 H 0.21180 0.10824 0.33437
 H199 H 0.16720 0.11450 0.28702
 N200 N 0.18518 0.16734 0.37517
 N201 N 0.17077 0.18168 0.37612
 C202 C 0.17389 0.19320 0.39283
 C203 C 0.19116 0.18585 0.40285
 C204 C 0.19787 0.16940 0.39122
 H205 H 0.16470 0.20643 0.39702
 H206 H 0.21122 0.15986 0.39409
 H207 H 0.17344 0.17235 0.33877
 H208 H 0.15600 0.15403 0.35221
 N209 N 0.62329 0.32073 0.66430
 N210 N 0.62442 0.33350 0.67974
 C211 C 0.60977 0.32856 0.69325
 C212 C 0.59885 0.31173 0.68604
 C213 C 0.60787 0.30723 0.66753
 H214 H 0.60810 0.33577 0.70791
 H215 H 0.60449 0.29428 0.65777
 Cu216 Cu 0.64662 0.35352 0.68176
 Cu217 Cu 0.64378 0.32064 0.64275
 Cu218 Cu 0.68382 0.35587 0.64652
 N219 N 0.66876 0.37361 0.68365
 N220 N 0.68327 0.37445 0.66976
 C221 C 0.69682 0.38931 0.67478
 C222 C 0.69049 0.39823 0.69279
 C223 C 0.67263 0.38787 0.69795
 H224 H 0.71043 0.39307 0.66611
 H225 H 0.66318 0.39059 0.71116
 N226 N 0.68146 0.33579 0.62416
 N227 N 0.66592 0.32280 0.62251
 C228 C 0.66896 0.31075 0.60620
 C229 C 0.68744 0.31614 0.59725
 C230 C 0.69487 0.33221 0.60898
 H231 H 0.65875 0.29851 0.60152
 H232 H 0.70931 0.34021 0.60704
 H233 H 0.66815 0.33190 0.66019
 H234 H 0.65268 0.35113 0.64556
 N235 N 0.62928 0.81448 1.16828
 N236 N 0.62911 0.82822 1.18291
 C237 C 0.61334 0.82411 1.19551
 C238 C 0.60314 0.80682 1.18841
 C239 C 0.61369 0.80115 1.17109
 H240 H 0.60977 0.83276 1.20906
 H241 H 0.61034 0.78823 1.16131
 Cu242 Cu 0.64980 0.84985 1.18427
 Cu243 Cu 0.65000 0.81451 1.14699
 Cu244 Cu 0.68698 0.85287 1.14903
 N245 N 0.67068 0.87134 1.18526
 N246 N 0.68493 0.87249 1.17119
 C247 C 0.69745 0.88841 1.17529
 C248 C 0.69092 0.89772 1.19301
 C249 C 0.67378 0.88651 1.19890
 H250 H 0.71045 0.89276 1.16608
 H251 H 0.66450 0.88903 1.21227
 N252 N 0.68646 0.83159 1.12778
 N253 N 0.67225 0.81710 1.12687
 C254 C 0.67621 0.80480 1.11090
 C255 C 0.69383 0.81182 1.10135
 C256 C 0.69988 0.82884 1.11247
 H257 H 0.66725 0.79140 1.10683
 H258 H 0.71316 0.83843 1.10964
 H259 H 0.67281 0.82874 1.16388
 H260 H 0.65600 0.84587 1.14812
 N261 N 0.12644 0.31708 1.16568
 N262 N 0.12821 0.32952 1.18130
 C263 C 0.11334 0.32513 1.19481
 C264 C 0.10166 0.30897 1.18736
 C265 C 0.11045 0.30424 1.16881
 H266 H 0.11143 0.33285 1.20920
 H267 H 0.10562 0.29230 1.15843
 Cu268 Cu 0.15018 0.34976 1.18324
 Cu269 Cu 0.14553 0.31810 1.14293
 Cu270 Cu 0.18215 0.35688 1.14369
 N271 N 0.16897 0.37302 1.18197
 N272 N 0.18130 0.37591 1.16648
 C273 C 0.19350 0.39224 1.17027
 C274 C 0.18862 0.39999 1.18925
 C275 C 0.17293 0.38737 1.19616
 H276 H 0.20574 0.39733 1.16040
 H277 H 0.16564 0.38796 1.21085
 N278 N 0.18054 0.33614 1.12194
 N279 N 0.16630 0.32167 1.12142
 C280 C 0.16970 0.30949 1.10525
 C281 C 0.18714 0.31637 1.09524
 C282 C 0.19350 0.33341 1.10624
 H283 H 0.16049 0.29620 1.10144
 H284 H 0.20696 0.34274 1.10345
 H285 H 0.17032 0.33102 1.15797
 H286 H 0.15129 0.34926 1.14642
 N287 N 0.12684 0.81775 0.66562
 N288 N 0.12721 0.83137 0.68036
 C289 C 0.11090 0.82821 0.69255
 C290 C 0.09976 0.81161 0.68511
 C291 C 0.11034 0.80545 0.66792
 H292 H 0.10791 0.83679 0.70627
 H293 H 0.10670 0.79264 0.65807
 Cu294 Cu 0.15003 0.85064 0.68313
 Cu295 Cu 0.14894 0.81569 0.64581
 Cu296 Cu 0.17919 0.85960 0.64224
 N297 N 0.17173 0.87136 0.68342
 N298 N 0.18318 0.87469 0.66737
 C299 C 0.19693 0.88960 0.67153
 C300 C 0.19407 0.89595 0.69138
 C301 C 0.17794 0.88394 0.69845
 H302 H 0.20855 0.89485 0.66102
 H303 H 0.17146 0.88411 0.71353
 N304 N 0.17921 0.83767 0.62163
 N305 N 0.16759 0.82105 0.62295
 C306 C 0.17163 0.80863 0.60713
 C307 C 0.18673 0.81774 0.59539
 C308 C 0.19120 0.83612 0.60506
 H309 H 0.16461 0.79371 0.60472
 H310 H 0.20279 0.84721 0.60072
 H311 H 0.17264 0.83372 0.65865
 H312 H 0.15012 0.84656 0.64637
 N313 N 0.37400 0.68444 0.66363
 N314 N 0.37371 0.67100 0.67851
 C315 C 0.39002 0.67433 0.69069
 C316 C 0.40110 0.69084 0.68312
 C317 C 0.39045 0.69686 0.66590
 H318 H 0.39325 0.66571 0.70435
 H319 H 0.39424 0.70950 0.65591
 Cu320 Cu 0.35170 0.65096 0.68145
 Cu321 Cu 0.35252 0.68530 0.64305
 Cu322 Cu 0.31583 0.64672 0.64459
 N323 N 0.33212 0.62834 0.68076
 N324 N 0.31850 0.62649 0.66615
 C325 C 0.30665 0.60991 0.66979
 C326 C 0.31304 0.60094 0.68779
 C327 C 0.32935 0.61303 0.69425
 H328 H 0.29401 0.60509 0.66027
 H329 H 0.33824 0.61115 0.70798
 N330 N 0.31567 0.66870 0.62402
 N331 N 0.32955 0.68352 0.62359
 C332 C 0.32416 0.69733 0.60931
 C333 C 0.30599 0.69097 0.60026
 C334 C 0.30112 0.67267 0.60996
 H335 H 0.33227 0.71157 0.60651
 H336 H 0.28734 0.66359 0.60785
 H337 H 0.32921 0.67135 0.65950
 H338 H 0.34685 0.65392 0.64500
 N339 N 0.37293 0.18258 1.16651
 N340 N 0.37351 0.16759 1.17988
 C341 C 0.38798 0.17190 1.19387
 C342 C 0.39706 0.19057 1.18899
 C343 C 0.38709 0.19685 1.17146
 H344 H 0.39098 0.16263 1.20715
 H345 H 0.38910 0.21128 1.16353
 Cu346 Cu 0.35412 0.14477 1.17893
 Cu347 Cu 0.35221 0.18377 1.14523
 Cu348 Cu 0.31653 0.14421 1.14359
 N349 N 0.33339 0.12316 1.17819
 N350 N 0.31901 0.12286 1.16416
 C351 C 0.30624 0.10698 1.16772
 C352 C 0.31277 0.09683 1.18504
 C353 C 0.33016 0.10750 1.19122
 H354 H 0.29283 0.10346 1.15866
 H355 H 0.33928 0.10458 1.20462
 N356 N 0.31654 0.16724 1.12410
 N357 N 0.33012 0.18233 1.12480
 C358 C 0.32508 0.19659 1.11083
 C359 C 0.30744 0.19026 1.10080
 C360 C 0.30252 0.17151 1.10960
 H361 H 0.33301 0.21108 1.10885
 H362 H 0.28915 0.16216 1.10642
 H363 H 0.33002 0.16713 1.16089
 H364 H 0.34713 0.15239 1.14333
 N365 N 0.87403 0.68121 1.16484
 N366 N 0.87333 0.66779 1.17974
 C367 C 0.88787 0.67255 1.19347
 C368 C 0.89836 0.68987 1.18690
 C369 C 0.88916 0.69491 1.16858
 H370 H 0.88980 0.66479 1.20779
 H371 H 0.89227 0.70830 1.15934
 Cu372 Cu 0.85191 0.64699 1.18127
 Cu373 Cu 0.85343 0.68157 1.14328
 Cu374 Cu 0.81498 0.64452 1.14579
 N375 N 0.83036 0.62627 1.18251
 N376 N 0.81608 0.62528 1.16842
 C377 C 0.80232 0.61068 1.17347
 C378 C 0.80816 0.60209 1.19183
 C379 C 0.82607 0.61240 1.19708
 H380 H 0.78858 0.60731 1.16485
 H381 H 0.83471 0.61062 1.21096
 N382 N 0.81649 0.66526 1.12408
 N383 N 0.83114 0.67931 1.12302
 C384 C 0.82727 0.69178 1.10713
 C385 C 0.80927 0.68535 1.09782
 C386 C 0.80294 0.66845 1.10894
 H387 H 0.83643 0.70507 1.10310
 H388 H 0.78920 0.65942 1.10641
 H389 H 0.82994 0.66874 1.16020
 H390 H 0.84621 0.65070 1.14495
 N391 N 0.87221 0.18587 0.66705
 N392 N 0.87094 0.17337 0.68265
 C393 C 0.88635 0.17752 0.69565
 C394 C 0.89783 0.19361 0.68786
 C395 C 0.88841 0.19853 0.66966
 H396 H 0.88863 0.16979 0.70999
 H397 H 0.89288 0.21057 0.65923
 Cu398 Cu 0.84873 0.15366 0.68542
 Cu399 Cu 0.85218 0.18531 0.64513
 Cu400 Cu 0.81641 0.14582 0.64619
 N401 N 0.83063 0.12997 0.68432
 N402 N 0.81831 0.12669 0.66886
 C403 C 0.80703 0.10972 0.67250
 C404 C 0.81246 0.10200 0.69136
 C405 C 0.82759 0.11524 0.69835
 H406 H 0.79539 0.10375 0.66238
 H407 H 0.83541 0.11460 0.71279
 N408 N 0.81701 0.16691 0.62469
 N409 N 0.83059 0.18201 0.62442
 C410 C 0.82564 0.19524 0.60949
 C411 C 0.80801 0.18825 0.59988
 C412 C 0.80305 0.17014 0.60989
 H413 H 0.83343 0.20967 0.60677
 H414 H 0.78951 0.16079 0.60754
 H415 H 0.82773 0.17186 0.66045
 H416 H 0.84704 0.15402 0.64870
 N417 N 0.31728 0.37299 0.66976
 N418 N 0.33102 0.37268 0.68439
 C419 C 0.32658 0.38770 0.69777
 C420 C 0.30910 0.39799 0.69120
 C421 C 0.30361 0.38820 0.67335
 H422 H 0.33518 0.39070 0.71147
 H423 H 0.29065 0.39188 0.66371
 Cu424 Cu 0.35285 0.35215 0.68501
 Cu425 Cu 0.31793 0.35335 0.64740
 Cu426 Cu 0.35695 0.31667 0.64813
 N427 N 0.37458 0.33149 0.68537
 N428 N 0.37608 0.31766 0.67091
 C429 C 0.39111 0.30419 0.67568
 C430 C 0.39948 0.30978 0.69420
 C431 C 0.38862 0.32726 0.69985
 H432 H 0.39482 0.29062 0.66691
 H433 H 0.39010 0.33566 0.71390
 N434 N 0.33609 0.31827 0.62643
 N435 N 0.32124 0.33220 0.62617
 C436 C 0.30896 0.32865 0.61008
 C437 C 0.31636 0.31160 0.59975
 C438 C 0.33362 0.30549 0.61053
 H439 H 0.29521 0.33736 0.60656
 H440 H 0.34340 0.29242 0.60724
 H441 H 0.33232 0.32974 0.66330
 H442 H 0.34928 0.34755 0.64858
 N443 N 0.31377 0.87152 0.16758
 N444 N 0.32713 0.87088 0.18253
 C445 C 0.32222 0.88547 0.19618
 C446 C 0.30486 0.89590 0.18946
 C447 C 0.29997 0.88661 0.17118
 H448 H 0.33014 0.88770 0.21041
 H449 H 0.28670 0.88973 0.16176
 Cu450 Cu 0.34885 0.85019 0.18360
 Cu451 Cu 0.31376 0.85114 0.14595
 Cu452 Cu 0.35280 0.81469 0.14658
 N453 N 0.37127 0.83024 0.18304
 N454 N 0.37287 0.81669 0.16833
 C455 C 0.38934 0.80458 0.17176
 C456 C 0.39854 0.81070 0.18969
 C457 C 0.38668 0.82712 0.19640
 H458 H 0.39405 0.79203 0.16205
 H459 H 0.38881 0.83581 0.21021
 N460 N 0.33104 0.81521 0.12584
 N461 N 0.31629 0.82922 0.12545
 C462 C 0.30337 0.82495 0.11003
 C463 C 0.31027 0.80734 0.10034
 C464 C 0.32787 0.80162 0.11074
 H465 H 0.28953 0.83356 0.10658
 H466 H 0.33745 0.78833 0.10771
 H467 H 0.32827 0.82775 0.16194
 H468 H 0.34515 0.84559 0.14716
 N469 N 0.81723 0.37457 0.16224
 N470 N 0.83073 0.37500 0.17709
 C471 C 0.82644 0.39108 0.18930
 C472 C 0.80927 0.40121 0.18175
 C473 C 0.80383 0.39027 0.16456
 H474 H 0.83482 0.39483 0.20297
 H475 H 0.79101 0.39344 0.15455
 Cu476 Cu 0.85213 0.35405 0.17951
 Cu477 Cu 0.81788 0.35353 0.14121
 Cu478 Cu 0.85547 0.31569 0.14534
 N479 N 0.87275 0.33233 0.18198
 N480 N 0.87410 0.31751 0.16846
 C481 C 0.88951 0.30464 0.17370
 C482 C 0.89828 0.31170 0.19152
 C483 C 0.88723 0.32931 0.19635
 H484 H 0.89377 0.29097 0.16532
 H485 H 0.88965 0.33919 0.20932
 N486 N 0.83522 0.31650 0.12303
 N487 N 0.82101 0.33099 0.12141
 C488 C 0.80933 0.32712 0.10497
 C489 C 0.81643 0.30929 0.09583
 C490 C 0.83289 0.30300 0.10768
 H491 H 0.79620 0.33626 0.10034
 H492 H 0.84230 0.28944 0.10538
 H493 H 0.83116 0.33086 0.15902
 H494 H 0.84898 0.34683 0.14335
 N495 N 0.82024 0.87589 0.66539
 N496 N 0.83355 0.87571 0.68042
 C497 C 0.82914 0.89135 0.69313
 C498 C 0.81208 0.90176 0.68569
 C499 C 0.80690 0.89154 0.66805
 H500 H 0.83714 0.89443 0.70718
 H501 H 0.79408 0.89495 0.65813
 Cu502 Cu 0.85413 0.85397 0.68272
 Cu503 Cu 0.82014 0.85509 0.64426
 Cu504 Cu 0.85629 0.81596 0.64811
 N505 N 0.87454 0.83202 0.68459
 N506 N 0.87526 0.81725 0.67098
 C507 C 0.88957 0.80333 0.67654
 C508 C 0.89831 0.80959 0.69467
 C509 C 0.88839 0.82794 0.69931
 H510 H 0.89261 0.78914 0.66851
 H511 H 0.89047 0.83716 0.71279
 N512 N 0.83581 0.81743 0.62604
 N513 N 0.82243 0.83266 0.62439
 C514 C 0.81025 0.82921 0.60827
 C515 C 0.81592 0.81072 0.59944
 C516 C 0.83231 0.80373 0.61108
 H517 H 0.79782 0.83922 0.60361
 H518 H 0.84070 0.78947 0.60915
 H519 H 0.83244 0.83176 0.66195
 H520 H 0.85089 0.84731 0.64656
 N521 N 0.67790 0.62451 0.66307
 N522 N 0.66397 0.62409 0.67751
 C523 C 0.66813 0.60823 0.69006
 C524 C 0.68570 0.59831 0.68315
 C525 C 0.69138 0.60903 0.66594
 H526 H 0.65964 0.60478 0.70372
 H527 H 0.70474 0.60619 0.65659
 Cu528 Cu 0.64317 0.64566 0.67894
 Cu529 Cu 0.67903 0.64631 0.64278
 Cu530 Cu 0.64269 0.68548 0.64669
 N531 N 0.62343 0.66803 0.68216
 N532 N 0.62322 0.68338 0.66915
 C533 C 0.60952 0.69761 0.67531
 C534 C 0.60069 0.69097 0.69323
 C535 C 0.60988 0.67205 0.69710
 H536 H 0.60712 0.71231 0.66796
 H537 H 0.60757 0.66239 0.71025
 N538 N 0.66382 0.68462 0.62515
 N539 N 0.67762 0.66971 0.62378
 C540 C 0.69114 0.67445 0.60909
 C541 C 0.68573 0.69328 0.60074
 C542 C 0.66822 0.69920 0.61126
 H543 H 0.70466 0.66544 0.60555
 H544 H 0.66003 0.71364 0.60977
 H545 H 0.66591 0.66904 0.66081
 H546 H 0.64836 0.65458 0.64353
 N547 N 0.68127 0.12694 0.16286
 N548 N 0.66698 0.12668 0.17694
 C549 C 0.67075 0.11087 0.18966
 C550 C 0.68839 0.10077 0.18321
 C551 C 0.69462 0.11141 0.16615
 H552 H 0.66166 0.10729 0.20289
 H553 H 0.70797 0.10818 0.15690
 Cu554 Cu 0.64525 0.14743 0.17756
 Cu555 Cu 0.68197 0.14768 0.14164
 Cu556 Cu 0.64319 0.18438 0.14181
 N557 N 0.62375 0.16844 0.17766
 N558 N 0.62290 0.18257 0.16341
 C559 C 0.60714 0.19545 0.16724
 C560 C 0.59758 0.18922 0.18493
 C561 C 0.60850 0.17193 0.19109
 H562 H 0.60318 0.20864 0.15801
 H563 H 0.60592 0.16294 0.20464
 N564 N 0.66515 0.18372 0.12125
 N565 N 0.68003 0.16984 0.12141
 C566 C 0.69381 0.17461 0.10697
 C567 C 0.68739 0.19236 0.09718
 C568 C 0.66908 0.19766 0.10662
 H569 H 0.70808 0.16642 0.10456
 H570 H 0.66001 0.21138 0.10395
 H571 H 0.66697 0.17049 0.15774
 H572 H 0.65075 0.15338 0.14151
 N573 N 0.18114 0.62678 0.16448
 N574 N 0.16824 0.62789 0.17977
 C575 C 0.17295 0.61309 0.19327
 C576 C 0.18981 0.60212 0.18625
 C577 C 0.19454 0.61124 0.16782
 H578 H 0.16548 0.61129 0.20777
 H579 H 0.20757 0.60779 0.15821
 Cu580 Cu 0.14805 0.64998 0.18230
 Cu581 Cu 0.18148 0.64785 0.14342
 Cu582 Cu 0.14292 0.68452 0.14467
 N583 N 0.12490 0.66909 0.18115
 N584 N 0.12259 0.68224 0.16617
 C585 C 0.10646 0.69466 0.17018
 C586 C 0.09823 0.68908 0.18876
 C587 C 0.11034 0.67272 0.19519
 H588 H 0.10206 0.70769 0.16093
 H589 H 0.10938 0.66485 0.20958
 N590 N 0.16299 0.68267 0.12237
 N591 N 0.17769 0.66858 0.12180
 C592 C 0.18992 0.67234 0.10575
 C593 C 0.18270 0.68975 0.09586
 C594 C 0.16553 0.69577 0.10675
 H595 H 0.20375 0.66377 0.10218
 H596 H 0.15606 0.70919 0.10391
 H597 H 0.16804 0.67175 0.15914
 H598 H 0.15033 0.65363 0.14580
 N599 N 0.18005 0.12480 0.66580
 N600 N 0.16628 0.12537 0.68034
 C601 C 0.16902 0.10908 0.69263
 C602 C 0.18567 0.09776 0.68573
 C603 C 0.19223 0.10817 0.66852
 H604 H 0.15986 0.10603 0.70593
 H605 H 0.20525 0.10435 0.65904
 Cu606 Cu 0.14746 0.14832 0.68347
 Cu607 Cu 0.18144 0.14631 0.64515
 Cu608 Cu 0.14379 0.18436 0.64696
 N609 N 0.12532 0.16833 0.68312
 N610 N 0.12376 0.18238 0.66886
 C611 C 0.10772 0.19485 0.67313
 C612 C 0.09888 0.18827 0.69110
 C613 C 0.11040 0.17134 0.69690
 H614 H 0.10337 0.20819 0.66427
 H615 H 0.10829 0.16212 0.71038
 N616 N 0.16554 0.18365 0.62613
 N617 N 0.18004 0.16937 0.62566
 C618 C 0.19384 0.17435 0.61127
 C619 C 0.18781 0.19267 0.60220
 C620 C 0.16972 0.19803 0.61200
 H621 H 0.20788 0.16588 0.60840
 H622 H 0.16094 0.21204 0.60991
 H623 H 0.16827 0.17022 0.66144
 H624 H 0.15031 0.15311 0.64706
 N625 N 0.31579 0.62859 0.33315
 N626 N 0.32682 0.63150 0.31672
 C627 C 0.32242 0.61664 0.30320
 C628 C 0.30772 0.60377 0.31155
 C629 C 0.30384 0.61185 0.33057
 H630 H 0.32914 0.61554 0.28826
 H631 H 0.29310 0.60600 0.34167
 Cu632 Cu 0.34543 0.65468 0.31407
 Cu633 Cu 0.31737 0.64711 0.35625
 Cu634 Cu 0.35503 0.68476 0.35457
 N635 N 0.36908 0.67284 0.31505
 N636 N 0.37286 0.68449 0.33090
 C637 C 0.38988 0.69571 0.32735
 C638 C 0.39715 0.69087 0.30821
 C639 C 0.38356 0.67623 0.30087
 H640 H 0.39642 0.70665 0.33790
 H641 H 0.38392 0.66883 0.28621
 N642 N 0.33534 0.68225 0.37708
 N643 N 0.32143 0.66748 0.37797
 C644 C 0.30976 0.67028 0.39454
 C645 C 0.31627 0.68795 0.40441
 C646 C 0.33267 0.69503 0.39295
 H647 H 0.29691 0.66060 0.39860
 H648 H 0.34150 0.70891 0.39547
 H649 H 0.32845 0.67314 0.34157
 H650 H 0.34801 0.65398 0.35069
 N651 N 0.31635 0.12569 0.83105
 N652 N 0.33059 0.12601 0.81693
 C653 C 0.32556 0.11245 0.80232
 C654 C 0.30719 0.10304 0.80755
 C655 C 0.30182 0.11184 0.82594
 H656 H 0.33412 0.11021 0.78847
 H657 H 0.28804 0.10898 0.83466
 Cu658 Cu 0.35348 0.14519 0.81828
 Cu659 Cu 0.31683 0.14446 0.85414
 Cu660 Cu 0.35792 0.17856 0.85687
 N661 N 0.37650 0.16422 0.81994
 N662 N 0.37819 0.17716 0.83516
 C663 C 0.39472 0.18925 0.83217
 C664 C 0.40386 0.18369 0.81403
 C665 C 0.39189 0.16769 0.80671
 H666 H 0.39943 0.20153 0.84222
 H667 H 0.39377 0.15976 0.79243
 N668 N 0.33584 0.17758 0.87732
 N669 N 0.32018 0.16467 0.87626
 C670 C 0.30723 0.16854 0.89174
 C671 C 0.31507 0.18471 0.90306
 C672 C 0.33326 0.18998 0.89349
 H673 H 0.29279 0.16066 0.89418
 H674 H 0.34363 0.20224 0.89778
 H675 H 0.33314 0.16774 0.84009
 H676 H 0.34827 0.14829 0.85470
 N677 N 0.81832 0.62472 0.83388
 N678 N 0.83232 0.62482 0.81953
 C679 C 0.82711 0.61084 0.80534
 C680 C 0.80888 0.60141 0.81113
 C681 C 0.80385 0.61061 0.82940
 H682 H 0.83537 0.60850 0.79134
 H683 H 0.78995 0.60830 0.83810
 Cu684 Cu 0.85484 0.64463 0.81988
 Cu685 Cu 0.81797 0.64511 0.85549
 Cu686 Cu 0.85749 0.68101 0.85617
 N687 N 0.87718 0.66459 0.82062
 N688 N 0.87840 0.67840 0.83513
 C689 C 0.89486 0.69050 0.83183
 C690 C 0.90439 0.68418 0.81409
 C691 C 0.89274 0.66760 0.80746
 H692 H 0.89921 0.70328 0.84139
 H693 H 0.89506 0.65873 0.79380
 N694 N 0.83483 0.68099 0.87609
 N695 N 0.82011 0.66698 0.87605
 C696 C 0.80654 0.67146 0.89079
 C697 C 0.81276 0.68931 0.90049
 C698 C 0.83087 0.69485 0.89082
 H699 H 0.79280 0.66265 0.89389
 H700 H 0.84015 0.70832 0.89387
 H701 H 0.83362 0.66807 0.83986
 H702 H 0.84940 0.65042 0.85599
 N703 N 0.81597 0.12689 0.33458
 N704 N 0.83027 0.12624 0.32053
 C705 C 0.82499 0.11212 0.30654
 C706 C 0.80641 0.10329 0.31211
 C707 C 0.80119 0.11306 0.33007
 H708 H 0.83363 0.10917 0.29287
 H709 H 0.78709 0.11120 0.33856
 Cu710 Cu 0.85377 0.14483 0.32065
 Cu711 Cu 0.81643 0.14724 0.35624
 Cu712 Cu 0.85552 0.18341 0.35484
 N713 N 0.87429 0.16663 0.31912
 N714 N 0.87509 0.18146 0.33265
 C715 C 0.89054 0.19440 0.32794
 C716 C 0.89993 0.18740 0.31042
 C717 C 0.88918 0.16972 0.30524
 H718 H 0.89430 0.20818 0.33636
 H719 H 0.89196 0.15989 0.29229
 N720 N 0.83435 0.18296 0.37614
 N721 N 0.81953 0.16908 0.37677
 C722 C 0.80709 0.17330 0.39255
 C723 C 0.81436 0.19075 0.40228
 C724 C 0.83169 0.19641 0.39147
 H725 H 0.79332 0.16476 0.39627
 H726 H 0.84145 0.20956 0.39442
 H727 H 0.83188 0.16897 0.33902
 H728 H 0.84772 0.15253 0.35639
 N729 N 0.68474 0.37213 0.33126
 N730 N 0.67069 0.37214 0.31692
 C731 C 0.67545 0.38662 0.30314
 C732 C 0.69341 0.39638 0.30913
 C733 C 0.69884 0.38677 0.32713
 H734 H 0.66700 0.38916 0.28926
 H735 H 0.71267 0.38930 0.33591
 Cu736 Cu 0.64848 0.35211 0.31626
 Cu737 Cu 0.68499 0.35146 0.35269
 Cu738 Cu 0.64679 0.31418 0.35104
 N739 N 0.62759 0.33069 0.31541
 N740 N 0.62690 0.31595 0.32904
 C741 C 0.61132 0.30306 0.32453
 C742 C 0.60179 0.31004 0.30704
 C743 C 0.61253 0.32763 0.30171
 H744 H 0.60756 0.28935 0.33307
 H745 H 0.60965 0.33736 0.28872
 N746 N 0.66821 0.31493 0.37216
 N747 N 0.68263 0.32924 0.37295
 C748 C 0.69519 0.32522 0.38873
 C749 C 0.68843 0.30747 0.39825
 C750 C 0.67127 0.30142 0.38736
 H751 H 0.70866 0.33416 0.39263
 H752 H 0.66185 0.28800 0.39021
 H753 H 0.67052 0.32889 0.33571
 H754 H 0.65386 0.34526 0.35226
 N755 N 0.68230 0.87655 0.83501
 N756 N 0.66684 0.87859 0.82229
 C757 C 0.67159 0.89313 0.80849
 C758 C 0.69105 0.90076 0.81289
 C759 C 0.69731 0.88984 0.82987
 H760 H 0.66192 0.89722 0.79576
 H761 H 0.71213 0.89061 0.83729
 Cu762 Cu 0.64270 0.86089 0.82398
 Cu763 Cu 0.68277 0.85538 0.85595
 Cu764 Cu 0.64091 0.82223 0.85756
 N765 N 0.62302 0.83842 0.82102
 N766 N 0.62245 0.82333 0.83429
 C767 C 0.60725 0.81022 0.82928
 C768 C 0.59770 0.81741 0.81186
 C769 C 0.60819 0.83537 0.80700
 H770 H 0.60351 0.79647 0.83773
 H771 H 0.60507 0.84560 0.79442
 N772 N 0.66437 0.82021 0.87646
 N773 N 0.68018 0.83299 0.87603
 C774 C 0.69354 0.82768 0.89077
 C775 C 0.68590 0.81060 0.90080
 C776 C 0.66741 0.80626 0.89130
 H777 H 0.70799 0.83538 0.89373
 H778 H 0.65695 0.79386 0.89496
 H779 H 0.66393 0.83490 0.84038
 H780 H 0.65165 0.85243 0.85921
 N781 N 0.18502 0.37323 0.83318
 N782 N 0.17107 0.37346 0.81875
 C783 C 0.17465 0.38958 0.80644
 C784 C 0.19197 0.39990 0.81328
 C785 C 0.19809 0.38909 0.83039
 H786 H 0.16545 0.39336 0.79332
 H787 H 0.21126 0.39227 0.83991
 Cu788 Cu 0.15000 0.35232 0.81656
 Cu789 Cu 0.18540 0.35195 0.85396
 Cu790 Cu 0.14647 0.31557 0.85259
 N791 N 0.12794 0.33211 0.81659
 N792 N 0.12637 0.31804 0.83083
 C793 C 0.11005 0.30593 0.82680
 C794 C 0.10091 0.31276 0.80905
 C795 C 0.11265 0.32945 0.80305
 H796 H 0.10555 0.29276 0.83579
 H797 H 0.11032 0.33879 0.78969
 N798 N 0.16829 0.31557 0.87334
 N799 N 0.18324 0.32931 0.87370
 C800 C 0.19689 0.32402 0.88817
 C801 C 0.19029 0.30603 0.89740
 C802 C 0.17202 0.30120 0.88763
 H803 H 0.21120 0.33200 0.89096
 H804 H 0.16275 0.28758 0.88990
 H805 H 0.17065 0.32909 0.83738
 H806 H 0.15386 0.34655 0.85277
 N807 N 0.18170 0.87377 0.33463
 N808 N 0.16760 0.87436 0.32034
 C809 C 0.17128 0.89063 0.30818
 C810 C 0.18866 0.90072 0.31524
 C811 C 0.19482 0.88958 0.33206
 H812 H 0.16231 0.89458 0.29491
 H813 H 0.20794 0.89265 0.34166
 Cu814 Cu 0.14621 0.85344 0.31875
 Cu815 Cu 0.18251 0.85213 0.35495
 Cu816 Cu 0.14443 0.81483 0.35276
 N817 N 0.12500 0.83232 0.31753
 N818 N 0.12424 0.81746 0.33105
 C819 C 0.10837 0.80493 0.32666
 C820 C 0.09865 0.81226 0.30942
 C821 C 0.10962 0.82970 0.30404
 H822 H 0.10450 0.79127 0.33518
 H823 H 0.10659 0.83966 0.29122
 N824 N 0.16631 0.81487 0.37353
 N825 N 0.18084 0.82905 0.37420
 C826 C 0.19449 0.82401 0.38873
 C827 C 0.18837 0.80575 0.39770
 C828 C 0.17035 0.80044 0.38770
 H829 H 0.20846 0.83245 0.39182
 H830 H 0.16142 0.78657 0.38985
 H831 H 0.16780 0.82988 0.33800
 H832 H 0.15105 0.84603 0.35466
 C833 C 0.25169 1.05426 0.24614
 C834 C 0.26476 1.04211 0.23430
 C835 C 0.26376 1.02053 0.23564
 C836 C 0.24863 1.01078 0.24773
 C837 C 0.23484 1.02357 0.25860
 C838 C 0.23690 1.04504 0.25844
 C839 C 0.24730 0.98761 0.24932
 C840 C 0.23664 0.97816 0.26557
 C841 C 0.23511 0.95669 0.26702
 C842 C 0.24513 0.94425 0.25294
 C843 C 0.25635 0.95306 0.23715
 C844 C 0.25689 0.97456 0.23491
 H845 H 0.25294 1.07093 0.24567
 H846 H 0.27489 1.01171 0.22712
 H847 H 0.22243 1.01720 0.26745
 H848 H 0.22957 0.98712 0.27746
 H849 H 0.24415 0.92760 0.25419
 H850 H 0.26508 0.98072 0.22205
 C851 C 0.25210 0.55658 0.74719
 C852 C 0.26655 0.54488 0.73664
 C853 C 0.26699 0.52345 0.73893
 C854 C 0.25200 0.51310 0.75070
 C855 C 0.23728 0.52536 0.76106
 C856 C 0.23768 0.54696 0.75965
 C857 C 0.25175 0.48985 0.75188
 C858 C 0.24047 0.47931 0.76702
 C859 C 0.23981 0.45769 0.76748
 C860 C 0.25151 0.44623 0.75373
 C861 C 0.26293 0.45623 0.73882
 C862 C 0.26258 0.47776 0.73755
 H863 H 0.25222 0.57325 0.74588
 H864 H 0.27919 0.51524 0.73132
 H865 H 0.22531 0.51852 0.77015
 H866 H 0.23193 0.48753 0.77847
 H867 H 0.25147 0.42953 0.75446
 H868 H 0.27071 0.48466 0.72503
 C869 C 0.75134 -0.05243 0.25188
 C870 C 0.76455 -0.04060 0.26385
 C871 C 0.76328 -0.01900 0.26336
 C872 C 0.74802 -0.00890 0.25160
 C873 C 0.73414 -0.02141 0.24052
 C874 C 0.73627 -0.04289 0.24009
 C875 C 0.74680 0.01434 0.25042
 C876 C 0.73587 0.02411 0.23449
 C877 C 0.73463 0.04559 0.23318
 C878 C 0.74513 0.05781 0.24713
 C879 C 0.75658 0.04871 0.26266
 C880 C 0.75690 0.02715 0.26473
 H881 H 0.75257 -0.06910 0.25204
 H882 H 0.77443 -0.01043 0.27208
 H883 H 0.72157 -0.01484 0.23197
 H884 H 0.72846 0.01538 0.22264
 H885 H 0.74433 0.07447 0.24599
 H886 H 0.76530 0.02075 0.27737
 C887 C 0.75233 0.44723 0.75175
 C888 C 0.76593 0.45928 0.76309
 C889 C 0.76458 0.48084 0.76236
 C890 C 0.74900 0.49075 0.75091
 C891 C 0.73487 0.47810 0.74031
 C892 C 0.73685 0.45660 0.74031
 C893 C 0.74770 0.51394 0.74961
 C894 C 0.73636 0.52362 0.73392
 C895 C 0.73514 0.54511 0.73254
 C896 C 0.74608 0.55737 0.74615
 C897 C 0.75784 0.54829 0.76146
 C898 C 0.75810 0.52678 0.76364
 H899 H 0.75377 0.43058 0.75192
 H900 H 0.77605 0.48950 0.77058
 H901 H 0.72208 0.48456 0.73198
 H902 H 0.72856 0.51484 0.72235
 H903 H 0.74527 0.57402 0.74501
 H904 H 0.76667 0.52046 0.77622
 C905 C 0.24926 0.44653 0.25102
 C906 C 0.26352 0.45742 0.26256
 C907 C 0.26414 0.47892 0.26145
 C908 C 0.24980 0.49012 0.24950
 C909 C 0.23565 0.47861 0.23766
 C910 C 0.23570 0.45697 0.23819
 C911 C 0.24974 0.51343 0.24962
 C912 C 0.23892 0.52512 0.23485
 C913 C 0.23881 0.54677 0.23558
 C914 C 0.25036 0.55706 0.25027
 C915 C 0.26141 0.54596 0.26469
 C916 C 0.26055 0.52445 0.26482
 H917 H 0.24894 0.42983 0.25176
 H918 H 0.27618 0.48646 0.26991
 H919 H 0.22431 0.48604 0.22815
 H920 H 0.23039 0.51783 0.22279
 H921 H 0.25071 0.57378 0.25051
 H922 H 0.26848 0.51676 0.27704
 C923 C 0.75219 1.05534 0.75129
 C924 C 0.76671 1.04467 0.73984
 C925 C 0.76724 1.02314 0.74039
 C926 C 0.75232 1.01173 0.75127
 C927 C 0.73757 1.02293 0.76263
 C928 C 0.73787 1.04458 0.76297
 C929 C 0.75205 0.98849 0.75028
 C930 C 0.74114 0.97641 0.76458
 C931 C 0.74070 0.95481 0.76292
 C932 C 0.75207 0.94497 0.74780
 C933 C 0.76322 0.95650 0.73382
 C934 C 0.76268 0.97801 0.73465
 H935 H 0.75201 1.07207 0.75110
 H936 H 0.77949 1.01570 0.73211
 H937 H 0.72564 1.01523 0.77112
 H938 H 0.73288 0.98340 0.77700
 H939 H 0.75241 0.92828 0.74708
 H940 H 0.77059 0.98618 0.72274
 C941 C 0.74661 0.55407 0.25410
 C942 C 0.76164 0.54533 0.24171
 C943 C 0.76377 0.52384 0.24073
 C944 C 0.75002 0.51070 0.25126
 C945 C 0.73471 0.52006 0.26350
 C946 C 0.73340 0.54156 0.26527
 C947 C 0.75118 0.48756 0.24901
 C948 C 0.74145 0.47424 0.26308
 C949 C 0.74135 0.45283 0.26009
 C950 C 0.75209 0.44430 0.24383
 C951 C 0.76241 0.45694 0.23012
 C952 C 0.76162 0.47841 0.23244
 H953 H 0.74514 0.57072 0.25501
 H954 H 0.77611 0.51778 0.23153
 H955 H 0.72342 0.51101 0.27152
 H956 H 0.73368 0.48014 0.27632
 H957 H 0.75273 0.42769 0.24212
 H958 H 0.76906 0.48763 0.22098
 C959 C 0.25686 -0.05550 0.75280
 C960 C 0.26851 -0.04269 0.76523
 C961 C 0.26645 -0.02124 0.76370
 C962 C 0.25308 -0.01210 0.74917
 C963 C 0.24188 -0.02568 0.73636
 C964 C 0.24346 -0.04712 0.73850
 C965 C 0.25071 0.01115 0.74751
 C966 C 0.23587 0.02022 0.73438
 C967 C 0.23381 0.04167 0.73278
 C968 C 0.24614 0.05453 0.74452
 C969 C 0.26046 0.04620 0.75793
 C970 C 0.26302 0.02479 0.75921
 H971 H 0.25829 -0.07211 0.75417
 H972 H 0.27547 -0.01220 0.77411
 H973 H 0.23164 -0.02019 0.72470
 H974 H 0.22548 0.01114 0.72533
 H975 H 0.24453 0.07113 0.74328
 H976 H 0.27468 0.01937 0.76954
 C977 C 0.24774 0.25574 1.05307
 C978 C 0.23629 0.26874 1.04055
 C979 C 0.23761 0.26670 1.01946
 C980 C 0.24946 0.25074 1.01051
 C981 C 0.26011 0.23712 1.02372
 C982 C 0.25966 0.23998 1.04477
 C983 C 0.25064 0.24825 0.98774
 C984 C 0.26603 0.23576 0.97868
 C985 C 0.26689 0.23310 0.95763
 C986 C 0.25312 0.24367 0.94515
 C987 C 0.23822 0.25659 0.95353
 C988 C 0.23659 0.25846 0.97463
 H989 H 0.24699 0.25759 1.06939
 H990 H 0.22922 0.27775 1.01043
 H991 H 0.26880 0.22414 1.01810
 H992 H 0.27768 0.22807 0.98758
 H993 H 0.25414 0.24198 0.92883
 H994 H 0.22429 0.26801 0.98036
 C995 C 0.24431 0.75567 0.55339
 C996 C 0.23383 0.76931 0.54068
 C997 C 0.23547 0.76725 0.51964
 C998 C 0.24687 0.75087 0.51094
 C999 C 0.25676 0.73682 0.52422
 C1000 C 0.25601 0.73965 0.54525
 C1001 C 0.24883 0.74884 0.48831
 C1002 C 0.26512 0.73738 0.47956
 C1003 C 0.26703 0.73567 0.45851
 C1004 C 0.25354 0.74637 0.44585
 C1005 C 0.23744 0.75790 0.45405
 C1006 C 0.23469 0.75865 0.47508
 H1007 H 0.24324 0.75744 0.56969
 H1008 H 0.22796 0.77875 0.51037
 H1009 H 0.26532 0.72374 0.51858
 H1010 H 0.27658 0.72975 0.48878
 H1011 H 0.25539 0.74548 0.42955
 H1012 H 0.22154 0.76706 0.48075
 C1013 C 0.25237 0.75143 -0.05499
 C1014 C 0.26345 0.76555 -0.04341
 C1015 C 0.26208 0.76504 -0.02227
 C1016 C 0.25049 0.74964 -0.01224
 C1017 C 0.23990 0.73508 -0.02438
 C1018 C 0.24038 0.73639 -0.04557
 C1019 C 0.24935 0.74903 0.01056
 C1020 C 0.23357 0.73812 0.02070
 C1021 C 0.23265 0.73762 0.04193
 C1022 C 0.24699 0.74871 0.05337
 C1023 C 0.26247 0.75991 0.04371
 C1024 C 0.26398 0.75959 0.02258
 H1025 H 0.25309 0.75209 -0.07139
 H1026 H 0.26999 0.77703 -0.01402
 H1027 H 0.23105 0.72273 -0.01773
 H1028 H 0.22167 0.73009 0.01244
 H1029 H 0.24618 0.74855 0.06976
 H1030 H 0.27684 0.76760 0.01588
 C1031 C 0.24663 0.24855 0.44859
 C1032 C 0.25813 0.26402 0.45795
 C1033 C 0.25863 0.26536 0.47910
 C1034 C 0.24854 0.25063 0.49137
 C1035 C 0.23733 0.23481 0.48150
 C1036 C 0.23613 0.23399 0.46027
 C1037 C 0.25000 0.25173 0.51416
 C1038 C 0.23567 0.24141 0.52675
 C1039 C 0.23758 0.24208 0.54791
 C1040 C 0.25307 0.25392 0.55684
 C1041 C 0.26713 0.26457 0.54482
 C1042 C 0.26593 0.26308 0.52370
 H1043 H 0.24595 0.24778 0.43221
 H1044 H 0.26693 0.27816 0.48563
 H1045 H 0.22969 0.22282 0.48999
 H1046 H 0.22302 0.23271 0.52045
 H1047 H 0.25415 0.25485 0.57320
 H1048 H 0.27779 0.27071 0.51505
 C1049 C 0.75113 0.74965 1.05338
 C1050 C 0.73979 0.76475 1.04319
 C1051 C 0.73966 0.76518 1.02195
 C1052 C 0.75020 0.75001 1.01051
 C1053 C 0.76114 0.73462 1.02129
 C1054 C 0.76196 0.73471 1.04250
 C1055 C 0.74974 0.75016 0.98766
 C1056 C 0.76446 0.73902 0.97623
 C1057 C 0.76348 0.73840 0.95503
 C1058 C 0.74860 0.74998 0.94479
 C1059 C 0.73422 0.76157 0.95564
 C1060 C 0.73449 0.76129 0.97688
 H1061 H 0.75147 0.74948 1.06979
 H1062 H 0.73139 0.77762 1.01471
 H1063 H 0.76894 0.72220 1.01355
 H1064 H 0.77682 0.73063 0.98345
 H1065 H 0.74837 0.75013 0.92838
 H1066 H 0.72251 0.76972 0.98464
 C1067 C 0.74601 0.25197 0.55449
 C1068 C 0.73502 0.26621 0.54293
 C1069 C 0.73663 0.26594 0.52181
 C1070 C 0.74819 0.25051 0.51174
 C1071 C 0.75874 0.23583 0.52384
 C1072 C 0.75807 0.23696 0.54505
 C1073 C 0.74926 0.24995 0.48894
 C1074 C 0.76498 0.23899 0.47872
 C1075 C 0.76580 0.23853 0.45749
 C1076 C 0.75140 0.24966 0.44612
 C1077 C 0.73592 0.26085 0.45584
 C1078 C 0.73454 0.26054 0.47699
 H1079 H 0.74529 0.25263 0.57089
 H1080 H 0.72879 0.27802 0.51359
 H1081 H 0.76763 0.22350 0.51716
 H1082 H 0.77689 0.23086 0.48692
 H1083 H 0.75216 0.24951 0.42973
 H1084 H 0.72166 0.26852 0.48375
 C1085 C 0.74602 0.24938 -0.05602
 C1086 C 0.75753 0.26474 -0.04661
 C1087 C 0.75809 0.26598 -0.02546
 C1088 C 0.74804 0.25104 -0.01335
 C1089 C 0.73677 0.23531 -0.02332
 C1090 C 0.73540 0.23487 -0.04451
 C1091 C 0.74968 0.25166 0.00938
 C1092 C 0.73512 0.24147 0.02179
 C1093 C 0.73736 0.24131 0.04290
 C1094 C 0.75337 0.25228 0.05198
 C1095 C 0.76765 0.26284 0.04016
 C1096 C 0.76607 0.26221 0.01901
 H1097 H 0.74540 0.24864 -0.07243
 H1098 H 0.76653 0.27862 -0.01879
 H1099 H 0.72915 0.22322 -0.01496
 H1100 H 0.72209 0.23344 0.01536
 H1101 H 0.75449 0.25278 0.06835
 H1102 H 0.77797 0.26981 0.01038
 C1103 C 0.74731 0.74978 0.44749
 C1104 C 0.75849 0.76525 0.45727
 C1105 C 0.75876 0.76613 0.47847
 C1106 C 0.74874 0.75099 0.49032
 C1107 C 0.73782 0.73531 0.48003
 C1108 C 0.73676 0.73497 0.45881
 C1109 C 0.74988 0.75152 0.51311
 C1110 C 0.73522 0.74112 0.52527
 C1111 C 0.73681 0.74130 0.54647
 C1112 C 0.75240 0.75264 0.55584
 C1113 C 0.76661 0.76354 0.54425
 C1114 C 0.76577 0.76250 0.52309
 H1115 H 0.74687 0.74923 0.43108
 H1116 H 0.76677 0.77890 0.48540
 H1117 H 0.73020 0.72309 0.48821
 H1118 H 0.72249 0.73282 0.51859
 H1119 H 0.75336 0.75311 0.57224
 H1120 H 0.77771 0.77034 0.51473
 C1121 C 1.05562 0.25155 0.25012
 C1122 C 1.04527 0.24022 0.26492
 C1123 C 1.02368 0.24032 0.26549
 C1124 C 1.01198 0.25101 0.25071
 C1125 C 1.02292 0.26195 0.23558
 C1126 C 1.04451 0.26261 0.23560
 C1127 C 0.98870 0.25081 0.25112
 C1128 C 0.97705 0.26566 0.24031
 C1129 C 0.95546 0.26525 0.24031
 C1130 C 0.94507 0.25049 0.25181
 C1131 C 0.95612 0.23584 0.26292
 C1132 C 0.97773 0.23577 0.26228
 H1133 H 1.07232 0.25173 0.24986
 H1134 H 1.01637 0.23209 0.27774
 H1135 H 1.01502 0.27003 0.22356
 H1136 H 0.98440 0.27785 0.23187
 H1137 H 0.92839 0.25030 0.25201
 H1138 H 0.98560 0.22364 0.27040
 C1139 C 0.55676 0.24985 0.74907
 C1140 C 0.54702 0.23820 0.76391
 C1141 C 0.52552 0.23783 0.76495
 C1142 C 0.51328 0.24809 0.75026
 C1143 C 0.52363 0.25949 0.73499
 C1144 C 0.54522 0.26084 0.73486
 C1145 C 0.49007 0.24705 0.75119
 C1146 C 0.47751 0.26138 0.74065
 C1147 C 0.45596 0.26035 0.74185
 C1148 C 0.44663 0.24572 0.75430
 C1149 C 0.45861 0.23174 0.76521
 C1150 C 0.48005 0.23185 0.76304
 H1151 H 0.57346 0.25043 0.74862
 H1152 H 0.51879 0.22943 0.77739
 H1153 H 0.51530 0.26753 0.72324
 H1154 H 0.48410 0.27357 0.73161
 H1155 H 0.42998 0.24514 0.75539
 H1156 H 0.48855 0.21996 0.77087
 C1157 C -0.05627 0.25187 0.75017
 C1158 C -0.04556 0.26293 0.76495
 C1159 C -0.02401 0.26216 0.76560
 C1160 C -0.01269 0.25125 0.75077
 C1161 C -0.02391 0.24064 0.73566
 C1162 C -0.04546 0.24049 0.73571
 C1163 C 0.01049 0.25101 0.75099
 C1164 C 0.02171 0.23591 0.74015
 C1165 C 0.04327 0.23611 0.73977
 C1166 C 0.05405 0.25080 0.75101
 C1167 C 0.04337 0.26559 0.76224
 C1168 C 0.02181 0.26595 0.76191
 H1169 H -0.07297 0.25208 0.74996
 H1170 H -0.01645 0.27015 0.77788
 H1171 H -0.01626 0.23242 0.72360
 H1172 H 0.01405 0.22369 0.73200
 H1173 H 0.07073 0.25077 0.75096
 H1174 H 0.01423 0.27824 0.77004
 C1175 C 0.44314 0.24964 0.25453
 C1176 C 0.45488 0.26193 0.26738
 C1177 C 0.47640 0.26171 0.26594
 C1178 C 0.48664 0.24995 0.25085
 C1179 C 0.47412 0.23829 0.23741
 C1180 C 0.45263 0.23785 0.23956
 C1181 C 0.50995 0.25003 0.24906
 C1182 C 0.52048 0.23620 0.23601
 C1183 C 0.54201 0.23666 0.23415
 C1184 C 0.55355 0.25017 0.24606
 C1185 C 0.54372 0.26380 0.25920
 C1186 C 0.52217 0.26396 0.26045
 H1187 H 0.42648 0.24968 0.25582
 H1188 H 0.48461 0.27100 0.27677
 H1189 H 0.48056 0.22948 0.22511
 H1190 H 0.51241 0.22489 0.22707
 H1191 H 0.57022 0.24983 0.24530
 H1192 H 0.51548 0.27531 0.27036
 C1193 C 1.05628 0.75429 0.74633
 C1194 C 1.04784 0.74265 0.76202
 C1195 C 1.02642 0.74198 0.76459
 C1196 C 1.01301 0.75181 0.75060
 C1197 C 1.02207 0.76323 0.73464
 C1198 C 1.04351 0.76489 0.73289
 C1199 C 0.98991 0.74992 0.75243
 C1200 C 0.97648 0.76367 0.74216
 C1201 C 0.95505 0.76125 0.74319
 C1202 C 0.94664 0.74578 0.75527
 C1203 C 0.95946 0.73250 0.76613
 C1204 C 0.98089 0.73414 0.76430
 H1205 H 1.07287 0.75527 0.74472
 H1206 H 1.02060 0.73353 0.77745
 H1207 H 1.01283 0.77082 0.72325
 H1208 H 0.98227 0.77639 0.73331
 H1209 H 0.93005 0.74415 0.75633
 H1210 H 0.99015 0.72286 0.77218
 C1211 C 0.55573 0.74932 0.25002
 C1212 C 0.54485 0.73848 0.26479
 C1213 C 0.52328 0.73921 0.26507
 C1214 C 0.51214 0.74985 0.24986
 C1215 C 0.52357 0.76023 0.23477
 C1216 C 0.54513 0.76043 0.23518
 C1217 C 0.48892 0.75001 0.24965
 C1218 C 0.47778 0.76471 0.23815
 C1219 C 0.45623 0.76423 0.23726
 C1220 C 0.44534 0.75000 0.24891
 C1221 C 0.45592 0.73581 0.26093
 C1222 C 0.47748 0.73538 0.26084
 H1223 H 0.57244 0.74918 0.25014
 H1224 H 0.51558 0.73139 0.27734
 H1225 H 0.51609 0.76818 0.22242
 H1226 H 0.48547 0.77667 0.22969
 H1227 H 0.42863 0.75003 0.24869
 H1228 H 0.48493 0.72343 0.26957
 C1229 C -0.05766 0.74984 0.25245
 C1230 C -0.04647 0.76069 0.26693
 C1231 C -0.02494 0.76029 0.26646
 C1232 C -0.01415 0.75007 0.25075
 C1233 C -0.02592 0.73954 0.23592
 C1234 C -0.04750 0.73898 0.23717
 C1235 C 0.00907 0.75043 0.25009
 C1236 C 0.02050 0.73596 0.23857
 C1237 C 0.04212 0.73646 0.23846
 C1238 C 0.05262 0.75072 0.25048
 C1239 C 0.04173 0.76515 0.26187
 C1240 C 0.02021 0.76537 0.26125
 H1241 H -0.07435 0.74998 0.25293
 H1242 H -0.01700 0.76798 0.27867
 H1243 H -0.01870 0.73159 0.22342
 H1244 H 0.01298 0.72411 0.22976
 H1245 H 0.06932 0.75072 0.25078
 H1246 H 0.01253 0.77751 0.26949
 C1247 C 0.44449 0.74664 0.74528
 C1248 C 0.45280 0.75852 0.76087
 C1249 C 0.47423 0.75972 0.76333
 C1250 C 0.48772 0.74984 0.74951
 C1251 C 0.47879 0.73838 0.73347
 C1252 C 0.45737 0.73647 0.73166
 C1253 C 0.51081 0.75155 0.75166
 C1254 C 0.52409 0.73731 0.74194
 C1255 C 0.54552 0.73940 0.74318
 C1256 C 0.55410 0.75498 0.75502
 C1257 C 0.54146 0.76907 0.76506
 C1258 C 0.51997 0.76758 0.76317
 H1259 H 0.42791 0.74535 0.74373
 H1260 H 0.48001 0.76842 0.77606
 H1261 H 0.48812 0.73101 0.72203
 H1262 H 0.51817 0.72449 0.73329
 H1263 H 0.57070 0.75623 0.75629
 H1264 H 0.51074 0.77923 0.77054
 C1265 C 0.42265 0.30627 0.28550
 C1266 C 0.41507 0.29907 0.30409
 C1267 C 0.42483 0.28156 0.31255
 C1268 C 0.43931 0.27010 0.30122
 C1269 C 0.44438 0.27611 0.28137
 C1270 C 0.43692 0.29505 0.27444
 C1271 C 0.42738 0.30079 0.25465
 C1272 C 0.41164 0.31303 0.26669
 H1273 H 0.42031 0.27580 0.32726
 H1274 H 0.44525 0.25577 0.30731
 H1275 H 0.42055 0.28744 0.24650
 H1276 H 0.43769 0.31067 0.24537
 H1277 H 0.39577 0.30666 0.26560
 H1278 H 0.41285 0.32993 0.26417
 C1279 C 0.41706 0.80050 0.77863
 C1280 C 0.41032 0.79359 0.79767
 C1281 C 0.41697 0.77371 0.80385
 C1282 C 0.43094 0.76223 0.79199
 C1283 C 0.43872 0.77039 0.77383
 C1284 C 0.43068 0.78906 0.76693
 C1285 C 0.44188 0.80773 0.75981
 C1286 C 0.42714 0.82032 0.77270
 H1287 H 0.41188 0.76707 0.81800
 H1288 H 0.43599 0.74720 0.79719
 H1289 H 0.43983 0.81030 0.74328
 H1290 H 0.45810 0.80828 0.76525
 H1291 H 0.41679 0.83029 0.76350
 H1292 H 0.43476 0.82812 0.78570
 C1293 C -0.07891 0.27975 0.80855
 C1294 C -0.08539 0.29938 0.80229
 C1295 C -0.07491 0.30846 0.78583
 C1296 C -0.06073 0.29690 0.77437
 C1297 C -0.05684 0.27613 0.77918
 C1298 C -0.06499 0.26835 0.79718
 C1299 C -0.07586 0.24856 0.80129
 C1300 C -0.09115 0.26100 0.81376
 H1301 H -0.07856 0.32398 0.78099
 H1302 H -0.05399 0.30369 0.76093
 H1303 H -0.06636 0.23786 0.81058
 H1304 H -0.08278 0.24165 0.78746
 H1305 H -0.09045 0.25738 0.83021
 H1306 H -0.10692 0.26131 0.80716
 C1307 C -0.08132 0.77660 0.30976
 C1308 C -0.08634 0.79693 0.30441
 C1309 C -0.07412 0.80646 0.28942
 C1310 C -0.05969 0.79489 0.27824
 C1311 C -0.05735 0.77362 0.28177
 C1312 C -0.06728 0.76517 0.29859
 C1313 C -0.07926 0.74572 0.30101
 C1314 C -0.09473 0.75823 0.31321
 H1315 H -0.07659 0.82245 0.28539
 H1316 H -0.05170 0.80215 0.26574
 H1317 H -0.07085 0.73412 0.31027
 H1318 H -0.08568 0.73982 0.28653
 H1319 H -0.09525 0.75370 0.32944
 H1320 H -0.11002 0.75967 0.30570
 C1321 C 0.57813 0.72224 0.30879
 C1322 C 0.58515 0.70281 0.30251
 C1323 C 0.57491 0.69352 0.28598
 C1324 C 0.56048 0.70476 0.27446
 C1325 C 0.55603 0.72541 0.27929
 C1326 C 0.56394 0.73333 0.29737
 C1327 C 0.57424 0.75339 0.30166
 C1328 C 0.58984 0.74131 0.31415
 H1329 H 0.57893 0.67811 0.28112
 H1330 H 0.55402 0.69786 0.26093
 H1331 H 0.56441 0.76376 0.31095
 H1332 H 0.58100 0.76057 0.28790
 H1333 H 0.58900 0.74482 0.33061
 H1334 H 0.60562 0.74146 0.30763
 C1335 C 0.58041 0.19478 0.78232
 C1336 C 0.58621 0.20092 0.80184
 C1337 C 0.57984 0.22070 0.80839
 C1338 C 0.56674 0.23292 0.79624
 C1339 C 0.55969 0.22550 0.77746
 C1340 C 0.56754 0.20683 0.77041
 C1341 C 0.55624 0.18856 0.76242
 C1342 C 0.57032 0.17532 0.77541
 H1343 H 0.58463 0.22666 0.82295
 H1344 H 0.56191 0.24796 0.80159
 H1345 H 0.55873 0.18640 0.74590
 H1346 H 0.53986 0.18819 0.76735
 H1347 H 0.58090 0.16554 0.76631
 H1348 H 0.56217 0.16719 0.78787
 C1349 C 1.08545 0.70169 0.77849
 C1350 C 1.08867 0.70592 0.79906
 C1351 C 1.07943 0.72396 0.80703
 C1352 C 1.06599 0.73604 0.79510
 C1353 C 1.06173 0.73044 0.77495
 C1354 C 1.07246 0.71379 0.76670
 C1355 C 1.06415 0.69565 0.75552
 C1356 C 1.07827 0.68234 0.76842
 H1357 H 1.08198 0.72841 0.82262
 H1358 H 1.05869 0.74949 0.80168
 H1359 H 1.06852 0.69587 0.73925
 H1360 H 1.04751 0.69302 0.75855
 H1361 H 1.09069 0.67480 0.75950
 H1362 H 1.06982 0.67198 0.77894
 C1363 C 1.08062 0.22493 0.30782
 C1364 C 1.08622 0.20478 0.30248
 C1365 C 1.07468 0.19511 0.28702
 C1366 C 1.06017 0.20639 0.27559
 C1367 C 1.05705 0.22752 0.27934
 C1368 C 1.06648 0.23609 0.29642
 C1369 C 1.07813 0.25572 0.29893
 C1370 C 1.09366 0.24354 0.31142
 H1371 H 1.07764 0.17922 0.28294
 H1372 H 1.05255 0.19902 0.26291
 H1373 H 1.06942 0.26724 0.30800
 H1374 H 1.08461 0.26162 0.28448
 H1375 H 1.09388 0.24811 0.32765
 H1376 H 1.10906 0.24232 0.30416
 C1377 C 0.57933 0.30395 0.71771
 C1378 C 0.58383 0.29910 0.69752
 C1379 C 0.57531 0.28072 0.68959
 C1380 C 0.56175 0.26858 0.70130
 C1381 C 0.55633 0.27470 0.72104
 C1382 C 0.56608 0.29197 0.72918
 C1383 C 0.55664 0.31031 0.73914
 C1384 C 0.57117 0.32349 0.72665
 H1385 H 0.57902 0.27566 0.67441
 H1386 H 0.55571 0.25438 0.69506
 H1387 H 0.56001 0.31078 0.75564
 H1388 H 0.54014 0.31241 0.73502
 H1389 H 0.58288 0.33154 0.73605
 H1390 H 0.56315 0.33334 0.71531
 C1391 C 0.57988 0.77613 0.19222
 C1392 C 0.58530 0.79630 0.19770
 C1393 C 0.57359 0.80585 0.21308
 C1394 C 0.55929 0.79441 0.22447
 C1395 C 0.55654 0.77325 0.22072
 C1396 C 0.56590 0.76483 0.20356
 C1397 C 0.57758 0.74522 0.20077
 C1398 C 0.59296 0.75756 0.18836
 H1399 H 0.57633 0.82176 0.21720
 H1400 H 0.55159 0.80168 0.23716
 H1401 H 0.56882 0.73383 0.19160
 H1402 H 0.58416 0.73914 0.21513
 H1403 H 0.59308 0.75317 0.17208
 H1404 H 0.60842 0.75868 0.19556
 C1405 C 1.07733 0.27909 0.19133
 C1406 C 1.08407 0.29867 0.19741
 C1407 C 1.07396 0.30782 0.21408
 C1408 C 1.05982 0.29645 0.22578
 C1409 C 1.05554 0.27575 0.22103
 C1410 C 1.06347 0.26785 0.20294
 C1411 C 1.07415 0.24794 0.19871
 C1412 C 1.08936 0.26019 0.18600
 H1413 H 1.07782 0.32329 0.21888
 H1414 H 1.05343 0.30332 0.23935
 H1415 H 1.06444 0.23733 0.18957
 H1416 H 1.08122 0.24098 0.21246
 H1417 H 1.08840 0.25655 0.16957
 H1418 H 1.10522 0.26035 0.19239
 C1419 C 1.07486 0.78200 0.68819
 C1420 C 1.08164 0.80152 0.69449
 C1421 C 1.07118 0.81067 0.71097
 C1422 C 1.05694 0.79922 0.72247
 C1423 C 1.05283 0.77849 0.71765
 C1424 C 1.06087 0.77073 0.69957
 C1425 C 1.07127 0.75074 0.69506
 C1426 C 1.08668 0.76301 0.68264
 H1427 H 1.07502 0.82608 0.71595
 H1428 H 1.05061 0.80593 0.73614
 H1429 H 1.06144 0.74043 0.68571
 H1430 H 1.07823 0.74340 0.70867
 H1431 H 1.08575 0.75960 0.66616
 H1432 H 1.10250 0.76286 0.68913
 C1433 C 0.42571 0.72056 0.68665
 C1434 C 0.41946 0.70068 0.69228
 C1435 C 0.43051 0.69100 0.70810
 C1436 C 0.44472 0.70224 0.71988
 C1437 C 0.44819 0.72328 0.71595
 C1438 C 0.43966 0.73163 0.69830
 C1439 C 0.42874 0.75155 0.69473
 C1440 C 0.41336 0.73947 0.68205
 H1441 H 0.42709 0.67530 0.71246
 H1442 H 0.45146 0.69506 0.73314
 H1443 H 0.43817 0.76244 0.68566
 H1444 H 0.42188 0.75818 0.70871
 H1445 H 0.41386 0.74356 0.66571
 H1446 H 0.39767 0.73899 0.68879
 C1447 C 0.41678 0.19630 0.22118
 C1448 C 0.41170 0.20264 0.20149
 C1449 C 0.41965 0.22176 0.19483
 C1450 C 0.43346 0.23306 0.20699
 C1451 C 0.43959 0.22548 0.22603
 C1452 C 0.43021 0.20759 0.23324
 C1453 C 0.44007 0.18866 0.24167
 C1454 C 0.42549 0.17627 0.22844
 H1455 H 0.41557 0.22788 0.18012
 H1456 H 0.43942 0.24761 0.20151
 H1457 H 0.43700 0.18684 0.25813
 H1458 H 0.45651 0.18711 0.23720
 H1459 H 0.41413 0.16722 0.23734
 H1460 H 0.43344 0.16755 0.21622
 C1461 C -0.08293 0.69716 0.21921
 C1462 C -0.08688 0.70228 0.19894
 C1463 C -0.07807 0.72069 0.19143
 C1464 C -0.06466 0.73254 0.20358
 C1465 C -0.05988 0.72620 0.22342
 C1466 C -0.06996 0.70897 0.23118
 C1467 C -0.06085 0.69053 0.24129
 C1468 C -0.07493 0.67752 0.22813
 H1469 H -0.08129 0.72585 0.17617
 H1470 H -0.05803 0.74656 0.19753
 H1471 H -0.06480 0.68987 0.25765
 H1472 H -0.04422 0.68847 0.23775
 H1473 H -0.08685 0.66922 0.23704
 H1474 H -0.06651 0.66790 0.21691
 C1475 C -0.07829 0.22379 0.69159
 C1476 C -0.08452 0.20402 0.69757
 C1477 C -0.07404 0.19490 0.71406
 C1478 C -0.06018 0.20652 0.72583
 C1479 C -0.05663 0.22739 0.72131
 C1480 C -0.06471 0.23526 0.70328
 C1481 C -0.07582 0.25496 0.69914
 C1482 C -0.09075 0.24244 0.68632
 H1483 H -0.07745 0.17927 0.71870
 H1484 H -0.05344 0.19966 0.73926
 H1485 H -0.06635 0.26585 0.69010
 H1486 H -0.08305 0.26166 0.71291
 H1487 H -0.08986 0.24620 0.66991
 H1488 H -0.10661 0.24189 0.69266
 C1489 C 0.30613 0.42219 0.27982
 C1490 C 0.29999 0.41711 0.29956
 C1491 C 0.28432 0.42928 0.30840
 C1492 C 0.27330 0.44375 0.29666
 C1493 C 0.27777 0.44622 0.27594
 C1494 C 0.29519 0.43631 0.26827
 C1495 C 0.29827 0.42438 0.24920
 C1496 C 0.31022 0.40881 0.26181
 H1497 H 0.27964 0.42675 0.32392
 H1498 H 0.26032 0.45176 0.30332
 H1499 H 0.30806 0.43279 0.23816
 H1500 H 0.28372 0.41804 0.24289
 H1501 H 0.32686 0.40823 0.25790
 H1502 H 0.30251 0.39354 0.26289
 C1503 C 0.28771 -0.07199 0.81055
 C1504 C 0.30615 -0.08072 0.80332
 C1505 C 0.31432 -0.07227 0.78524
 C1506 C 0.30273 -0.05820 0.77354
 C1507 C 0.28294 -0.05207 0.77977
 C1508 C 0.27638 -0.05810 0.79899
 C1509 C 0.25623 -0.06671 0.80565
 C1510 C 0.26847 -0.08197 0.81831
 H1511 H 0.32896 -0.07744 0.77931
 H1512 H 0.30851 -0.05344 0.75889
 H1513 H 0.24750 -0.07411 0.79310
 H1514 H 0.24727 -0.05557 0.81492
 H1515 H 0.26679 -0.09818 0.81309
 H1516 H 0.26641 -0.07961 0.83487
 C1517 C 0.78755 0.43113 0.80789
 C1518 C 0.80350 0.41939 0.79922
 C1519 C 0.81007 0.42527 0.77956
 C1520 C 0.79880 0.43978 0.76814
 C1521 C 0.78110 0.44909 0.77626
 C1522 C 0.77671 0.44567 0.79667
 C1523 C 0.75673 0.44065 0.80659
 C1524 C 0.76843 0.42463 0.81883
 H1525 H 0.82291 0.41769 0.77226
 H1526 H 0.80297 0.44249 0.75248
 H1527 H 0.74532 0.43384 0.79595
 H1528 H 0.75089 0.45366 0.81593
 H1529 H 0.76379 0.40853 0.81523
 H1530 H 0.76909 0.42838 0.83525
 C1531 C 0.78329 -0.07209 0.30771
 C1532 C 0.80081 -0.08198 0.29976
 C1533 C 0.80887 -0.07391 0.28146
 C1534 C 0.79796 -0.05881 0.27037
 C1535 C 0.77902 -0.05118 0.27751
 C1536 C 0.77274 -0.05708 0.29686
 C1537 C 0.75221 -0.06427 0.30406
 C1538 C 0.76361 -0.08083 0.31583
 H1539 H 0.82278 -0.08014 0.27485
 H1540 H 0.80348 -0.05432 0.25553
 H1541 H 0.74241 -0.07058 0.29171
 H1542 H 0.74456 -0.05273 0.31398
 H1543 H 0.76052 -0.09669 0.31018
 H1544 H 0.76227 -0.07889 0.33251
 C1545 C 0.28528 0.57423 0.69133
 C1546 C 0.30352 0.58325 0.69846
 C1547 C 0.31181 0.57542 0.71675
 C1548 C 0.30043 0.56151 0.72875
 C1549 C 0.28072 0.55511 0.72255
 C1550 C 0.27418 0.56050 0.70311
 C1551 C 0.25394 0.56856 0.69587
 C1552 C 0.26602 0.58375 0.68304
 H1553 H 0.32633 0.58106 0.72257
 H1554 H 0.30630 0.55705 0.74348
 H1555 H 0.24481 0.57613 0.70802
 H1556 H 0.24541 0.55698 0.68674
 H1557 H 0.26398 0.60005 0.68788
 H1558 H 0.26424 0.58097 0.66651
 C1559 C 0.28246 1.07340 0.18974
 C1560 C 0.30230 1.07956 0.19551
 C1561 C 0.31131 1.06929 0.21224
 C1562 C 0.29956 1.05566 0.22427
 C1563 C 0.27866 1.05213 0.21974
 C1564 C 0.27094 1.06011 0.20160
 C1565 C 0.25128 1.07118 0.19712
 C1566 C 0.26388 1.08585 0.18419
 H1567 H 0.32694 1.07271 0.21684
 H1568 H 0.30630 1.04922 0.23790
 H1569 H 0.24442 1.07880 0.21061
 H1570 H 0.24046 1.06156 0.18813
 H1571 H 0.26445 1.10181 0.19034
 H1572 H 0.26013 1.08473 0.16779
 C1573 C 0.80352 0.58113 0.22355
 C1574 C 0.79627 0.58748 0.20450
 C1575 C 0.77650 0.58066 0.19859
 C1576 C 0.76542 0.56666 0.21062
 C1577 C 0.77390 0.55900 0.22872
 C1578 C 0.79251 0.56732 0.23547
 C1579 C 0.81158 0.55649 0.24229
 C1580 C 0.82365 0.57155 0.22929
 H1581 H 0.76961 0.58578 0.18454
 H1582 H 0.75037 0.56153 0.20563
 H1583 H 0.81243 0.54030 0.23679
 H1584 H 0.81438 0.55852 0.25879
 H1585 H 0.83153 0.56413 0.21623
 H1586 H 0.83343 0.58218 0.23835
 C1587 C 0.78540 1.07464 0.69480
 C1588 C 0.80311 1.08440 0.70225
 C1589 C 0.81102 1.07739 0.72101
 C1590 C 0.79978 1.06333 0.73297
 C1591 C 0.78058 1.05599 0.72627
 C1592 C 0.77443 1.06076 0.70655
 C1593 C 0.75415 1.06825 0.69883
 C1594 C 0.76610 1.08355 0.68600
 H1595 H 0.82515 1.08366 0.72711
 H1596 H 0.80539 1.05931 0.74791
 H1597 H 0.74465 1.07572 0.71077
 H1598 H 0.74607 1.05634 0.68970
 H1599 H 0.76358 1.09987 0.69055
 H1600 H 0.76474 1.08049 0.66948
 C1601 C 0.71304 0.57060 0.31002
 C1602 C 0.69595 0.58089 0.30179
 C1603 C 0.68846 0.57377 0.28292
 C1604 C 0.69972 0.55919 0.27155
 C1605 C 0.71845 0.55128 0.27899
 C1606 C 0.72403 0.55616 0.29886
 C1607 C 0.74422 0.56312 0.30719
 C1608 C 0.73228 0.57898 0.31938
 H1609 H 0.67484 0.58051 0.27616
 H1610 H 0.69474 0.55549 0.25631
 H1611 H 0.75438 0.57013 0.29553
 H1612 H 0.75163 0.55111 0.31676
 H1613 H 0.73548 0.59514 0.31471
 H1614 H 0.73295 0.57612 0.33596
 C1615 C 0.71769 1.07520 0.80700
 C1616 C 0.69887 1.08312 0.79991
 C1617 C 0.69335 1.07840 0.77965
 C1618 C 0.70576 1.06538 0.76770
 C1619 C 0.72367 1.05639 0.77580
 C1620 C 0.72983 1.06230 0.79519
 C1621 C 0.73554 1.04903 0.81275
 C1622 C 0.72229 1.06307 0.82575
 H1623 H 0.67955 1.08465 0.77285
 H1624 H 0.70128 1.06220 0.75221
 H1625 H 0.75224 1.05004 0.81639
 H1626 H 0.72937 1.03310 0.81140
 H1627 H 0.73142 1.07207 0.83692
 H1628 H 0.70843 1.05530 0.83201
 C1629 C 0.21823 0.57848 0.80340
 C1630 C 0.20040 0.58790 0.79579
 C1631 C 0.19556 0.58453 0.77517
 C1632 C 0.20741 0.57081 0.76335
 C1633 C 0.22401 0.55993 0.77203
 C1634 C 0.22978 0.56491 0.79179
 C1635 C 0.23384 0.55104 0.80937
 C1636 C 0.22118 0.56587 0.82211
 H1637 H 0.18260 0.59229 0.76819
 H1638 H 0.20344 0.56844 0.74758
 H1639 H 0.25042 0.55077 0.81361
 H1640 H 0.22658 0.53562 0.80760
 H1641 H 0.23048 0.57407 0.83373
 H1642 H 0.20653 0.55911 0.82773
 C1643 C 0.22163 1.07916 0.30199
 C1644 C 0.20256 1.08714 0.29581
 C1645 C 0.19313 1.07796 0.27871
 C1646 C 0.20388 1.06334 0.26690
 C1647 C 0.22419 1.05777 0.27197
 C1648 C 0.23218 1.06490 0.29031
 C1649 C 0.25262 1.07417 0.29511
 C1650 C 0.24109 1.08990 0.30788
 H1651 H 0.17795 1.08276 0.27382
 H1652 H 0.19684 1.05741 0.25320
 H1653 H 0.26026 1.08108 0.28167
 H1654 H 0.26243 1.06360 0.30422
 H1655 H 0.24198 1.10586 0.30179
 H1656 H 0.24441 1.08842 0.32434
 C1657 C 0.69539 0.41925 0.72435
 C1658 C 0.70050 0.41517 0.70411
 C1659 C 0.71546 0.42791 0.69499
 C1660 C 0.72661 0.44230 0.70663
 C1661 C 0.72315 0.44401 0.72760
 C1662 C 0.70654 0.43325 0.73585
 C1663 C 0.70507 0.42039 0.75451
 C1664 C 0.69286 0.40498 0.74195
 H1665 H 0.71926 0.42617 0.67912
 H1666 H 0.73880 0.45110 0.69954
 H1667 H 0.69572 0.42799 0.76647
 H1668 H 0.72021 0.41429 0.75965
 H1669 H 0.67651 0.40370 0.74678
 H1670 H 0.70098 0.39003 0.73975
 C1671 C 0.71988 -0.07711 0.19699
 C1672 C 0.70076 -0.08464 0.20346
 C1673 C 0.69171 -0.07507 0.22051
 C1674 C 0.70282 -0.06047 0.23199
 C1675 C 0.72317 -0.05535 0.22668
 C1676 C 0.73082 -0.06289 0.20835
 C1677 C 0.75104 -0.07261 0.20336
 C1678 C 0.73907 -0.08825 0.19092
 H1679 H 0.67656 -0.07960 0.22565
 H1680 H 0.69607 -0.05424 0.24570
 H1681 H 0.75883 -0.07956 0.21672
 H1682 H 0.76086 -0.06237 0.19395
 H1683 H 0.73984 -0.10417 0.19716
 H1684 H 0.74212 -0.08702 0.17440
 C1685 C 0.19530 0.41908 0.22158
 C1686 C 0.19993 0.41578 0.20109
 C1687 C 0.21703 0.42638 0.19297
 C1688 C 0.22810 0.44065 0.20480
 C1689 C 0.22228 0.44470 0.22493
 C1690 C 0.20641 0.43300 0.23330
 C1691 C 0.18753 0.44047 0.24387
 C1692 C 0.17537 0.42534 0.23107
 H1693 H 0.22188 0.42380 0.17752
 H1694 H 0.24133 0.44837 0.19832
 H1695 H 0.18396 0.45689 0.24044
 H1696 H 0.18767 0.43648 0.26025
 H1697 H 0.16473 0.43293 0.22015
 H1698 H 0.16843 0.41270 0.24015
 C1699 C 0.20318 -0.08615 0.72382
 C1700 C 0.20676 -0.08927 0.70311
 C1701 C 0.22371 -0.07895 0.69431
 C1702 C 0.23557 -0.06494 0.70570
 C1703 C 0.23090 -0.06117 0.72615
 C1704 C 0.21515 -0.07259 0.73514
 C1705 C 0.19697 -0.06469 0.74658
 C1706 C 0.18386 -0.07931 0.73413
 H1707 H 0.22757 -0.08121 0.67855
 H1708 H 0.24814 -0.05682 0.69849
 H1709 H 0.19369 -0.04815 0.74345
 H1710 H 0.19767 -0.06888 0.76291
 H1711 H 0.17312 -0.07126 0.72361
 H1712 H 0.17680 -0.09175 0.74337
 C1713 C 0.27335 0.30622 0.42160
 C1714 C 0.29379 0.30106 0.41696
 C1715 C 0.30345 0.28599 0.42917
 C1716 C 0.29200 0.27468 0.44348
 C1717 C 0.27071 0.27813 0.44570
 C1718 C 0.26204 0.29493 0.43553
 C1719 C 0.24271 0.29667 0.42342
 C1720 C 0.25506 0.30906 0.40811
 H1721 H 0.31951 0.28212 0.42697
 H1722 H 0.29945 0.26233 0.45178
 H1723 H 0.23078 0.30597 0.43132
 H1724 H 0.23731 0.28163 0.41737
 H1725 H 0.25016 0.32547 0.40720
 H1726 H 0.25685 0.30116 0.39326
 C1727 C 0.28111 0.81002 -0.07561
 C1728 C 0.30125 0.80411 -0.08066
 C1729 C 0.31016 0.78784 -0.06944
 C1730 C 0.29814 0.77613 -0.05591
 C1731 C 0.27704 0.78048 -0.05346
 C1732 C 0.26925 0.79840 -0.06240
 C1733 C 0.25001 0.80195 -0.07427
 C1734 C 0.26296 0.81463 -0.08883
 H1735 H 0.32598 0.78326 -0.07202
 H1736 H 0.30488 0.76273 -0.04868
 H1737 H 0.23861 0.81134 -0.06572
 H1738 H 0.24377 0.78766 -0.08122
 H1739 H 0.25888 0.83128 -0.08875
 H1740 H 0.26432 0.80759 -0.10414
 C1741 C 0.80073 0.28298 -0.07968
 C1742 C 0.79423 0.30251 -0.08616
 C1743 C 0.77438 0.30911 -0.08018
 C1744 C 0.76238 0.29706 -0.06690
 C1745 C 0.77013 0.27835 -0.05925
 C1746 C 0.78889 0.27114 -0.06668
 C1747 C 0.80724 0.26369 -0.05520
 C1748 C 0.82027 0.27669 -0.06937
 H1749 H 0.76812 0.32359 -0.08551
 H1750 H 0.74723 0.30239 -0.06246
 H1751 H 0.80973 0.24684 -0.05713
 H1752 H 0.80744 0.26922 -0.03925
 H1753 H 0.83034 0.26726 -0.07935
 H1754 H 0.82805 0.28980 -0.06169
 C1755 C 0.77313 0.80825 0.42150
 C1756 C 0.79374 0.80360 0.41709
 C1757 C 0.80364 0.78884 0.42948
 C1758 C 0.79230 0.77715 0.44358
 C1759 C 0.77087 0.77992 0.44542
 C1760 C 0.76193 0.79657 0.43522
 C1761 C 0.74269 0.79803 0.42292
 C1762 C 0.75493 0.81085 0.40785
 H1763 H 0.81984 0.78543 0.42752
 H1764 H 0.79998 0.76498 0.45193
 H1765 H 0.73048 0.80700 0.43080
 H1766 H 0.73767 0.78295 0.41667
 H1767 H 0.74969 0.82716 0.40707
 H1768 H 0.75703 0.80315 0.39294
 C1769 C 0.69003 0.28712 0.57218
 C1770 C 0.69776 0.30563 0.58008
 C1771 C 0.71636 0.31315 0.57173
 C1772 C 0.72805 0.30088 0.55832
 C1773 C 0.72128 0.28101 0.55302
 C1774 C 0.70155 0.27510 0.55903
 C1775 C 0.69409 0.25541 0.56806
 C1776 C 0.68146 0.26850 0.58255
 H1777 H 0.72262 0.32780 0.57652
 H1778 H 0.74300 0.30626 0.55334
 H1779 H 0.70647 0.24650 0.57577
 H1780 H 0.68448 0.24642 0.55729
 H1781 H 0.68657 0.26719 0.59859
 H1782 H 0.66458 0.26691 0.58011
 C1783 C 0.72483 0.80760 1.07895
 C1784 C 0.70437 0.80262 1.08365
 C1785 C 0.69454 0.78781 1.07129
 C1786 C 0.70587 0.77640 1.05692
 C1787 C 0.72721 0.77952 1.05476
 C1788 C 0.73602 0.79619 1.06499
 C1789 C 0.75543 0.79786 1.07699
 C1790 C 0.74320 0.81037 1.09233
 H1791 H 0.67846 0.78410 1.07351
 H1792 H 0.69832 0.76410 1.04868
 H1793 H 0.76735 0.80706 1.06900
 H1794 H 0.76085 0.78283 1.08310
 H1795 H 0.74817 0.82675 1.09316
 H1796 H 0.74148 0.80253 1.10722
 C1797 C 0.19039 0.28812 1.06925
 C1798 C 0.19764 0.30659 1.07769
 C1799 C 0.21601 0.31483 1.06947
 C1800 C 0.22806 0.30323 1.05577
 C1801 C 0.22176 0.28340 1.04981
 C1802 C 0.20217 0.27685 1.05565
 C1803 C 0.19524 0.25668 1.06407
 C1804 C 0.18241 0.26894 1.07906
 H1805 H 0.22197 0.32945 1.07469
 H1806 H 0.24298 0.30903 1.05119
 H1807 H 0.20788 0.24779 1.07139
 H1808 H 0.18578 0.24785 1.05304
 H1809 H 0.18773 0.26719 1.09500
 H1810 H 0.16556 0.26698 1.07672
 C1811 C 0.21688 0.81484 0.57165
 C1812 C 0.19699 0.80882 0.57744
 C1813 C 0.18771 0.79268 0.56637
 C1814 C 0.19932 0.78096 0.55249
 C1815 C 0.22038 0.78509 0.54963
 C1816 C 0.22836 0.80309 0.55821
 C1817 C 0.24806 0.80706 0.56917
 C1818 C 0.23554 0.81997 0.58399
 H1819 H 0.17200 0.78810 0.56948
 H1820 H 0.19238 0.76755 0.54550
 H1821 H 0.25896 0.81634 0.55996
 H1822 H 0.25483 0.79299 0.57614
 H1823 H 0.23935 0.83666 0.58331
 H1824 H 0.23505 0.81332 0.59950
 C1825 C 0.29819 0.72327 0.58091
 C1826 C 0.29296 0.70297 0.58601
 C1827 C 0.27405 0.69526 0.57849
 C1828 C 0.26190 0.70706 0.56506
 C1829 C 0.26839 0.72678 0.55897
 C1830 C 0.28609 0.73494 0.56788
 C1831 C 0.30433 0.74441 0.55786
 C1832 C 0.31764 0.73159 0.57200
 H1833 H 0.26881 0.67999 0.58254
 H1834 H 0.24768 0.70070 0.55918
 H1835 H 0.30536 0.76124 0.56083
 H1836 H 0.30579 0.73988 0.54167
 H1837 H 0.32645 0.74112 0.58298
 H1838 H 0.32681 0.71956 0.56405
 C1839 C 0.30136 0.22232 1.08048
 C1840 C 0.29499 0.20254 1.08629
 C1841 C 0.27564 0.19569 1.07911
 C1842 C 0.26412 0.20772 1.06533
 C1843 C 0.27174 0.22675 1.05845
 C1844 C 0.28993 0.23419 1.06702
 C1845 C 0.30870 0.24208 1.05662
 C1846 C 0.32126 0.22908 1.07127
 H1847 H 0.26949 0.18095 1.08376
 H1848 H 0.24945 0.20205 1.05985
 H1849 H 0.31077 0.25893 1.05890
 H1850 H 0.30981 0.23678 1.04064
 H1851 H 0.33063 0.23850 1.08190
 H1852 H 0.32968 0.21621 1.06382
 C1853 C 0.77761 0.69067 1.07649
 C1854 C 0.79830 0.69523 1.08070
 C1855 C 0.80790 0.71030 1.06850
 C1856 C 0.79622 0.72231 1.05485
 C1857 C 0.77477 0.71953 1.05328
 C1858 C 0.76611 0.70262 1.06321
 C1859 C 0.74705 0.70077 1.07567
 C1860 C 0.75963 0.68770 1.09031
 H1861 H 0.82410 0.71373 1.07033
 H1862 H 0.80364 0.73475 1.04672
 H1863 H 0.73482 0.69190 1.06774
 H1864 H 0.74195 0.71565 1.08234
 H1865 H 0.75451 0.67137 1.09083
 H1866 H 0.76190 0.69511 1.10534
 C1867 C 0.80117 0.21969 0.57902
 C1868 C 0.79526 0.19987 0.58512
 C1869 C 0.77588 0.19262 0.57841
 C1870 C 0.76380 0.20440 0.56488
 C1871 C 0.77095 0.22352 0.55774
 C1872 C 0.78922 0.23127 0.56580
 C1873 C 0.80758 0.23949 0.55495
 C1874 C 0.82072 0.22678 0.56935
 H1875 H 0.77006 0.17785 0.58336
 H1876 H 0.74902 0.19855 0.55990
 H1877 H 0.80936 0.25638 0.55714
 H1878 H 0.80843 0.23417 0.53895
 H1879 H 0.83014 0.23644 0.57973
 H1880 H 0.82921 0.21405 0.56175
 C1881 C 0.72075 0.69019 0.42597
 C1882 C 0.70050 0.69556 0.42073
 C1883 C 0.69101 0.71140 0.43209
 C1884 C 0.70257 0.72334 0.44583
 C1885 C 0.72379 0.71968 0.44841
 C1886 C 0.73217 0.70208 0.43938
 C1887 C 0.75161 0.69908 0.42772
 C1888 C 0.73914 0.68605 0.41299
 H1889 H 0.67507 0.71550 0.42944
 H1890 H 0.69535 0.73642 0.45316
 H1891 H 0.76319 0.68999 0.43637
 H1892 H 0.75748 0.71357 0.42087
 H1893 H 0.74362 0.66950 0.41316
 H1894 H 0.73775 0.69304 0.39766
 C1895 C 0.69149 0.21335 -0.07468
 C1896 C 0.69870 0.19403 -0.08106
 C1897 C 0.71899 0.18846 -0.07544
 C1898 C 0.73078 0.20133 -0.06269
 C1899 C 0.72245 0.21984 -0.05516
 C1900 C 0.70316 0.22602 -0.06224
 C1901 C 0.68481 0.23285 -0.05045
 C1902 C 0.67199 0.21893 -0.06399
 H1903 H 0.72584 0.17428 -0.08084
 H1904 H 0.74637 0.19688 -0.05876
 H1905 H 0.68148 0.24951 -0.05269
 H1906 H 0.68534 0.22772 -0.03438
 H1907 H 0.66119 0.22764 -0.07389
 H1908 H 0.66508 0.20564 -0.05581
 C1909 C 0.19753 0.71910 -0.07987
 C1910 C 0.20243 0.69850 -0.08415
 C1911 C 0.22124 0.69075 -0.07639
 C1912 C 0.23364 0.70290 -0.06351
 C1913 C 0.22747 0.72298 -0.05822
 C1914 C 0.20986 0.73107 -0.06736
 C1915 C 0.19182 0.74130 -0.05766
 C1916 C 0.17825 0.72819 -0.07126
 H1917 H 0.22626 0.67526 -0.07989
 H1918 H 0.24785 0.69656 -0.05753
 H1919 H 0.19108 0.75802 -0.06128
 H1920 H 0.19036 0.73745 -0.04131
 H1921 H 0.16961 0.73747 -0.08261
 H1922 H 0.16889 0.71671 -0.06283
 C1923 C 0.22154 0.18971 0.42627
 C1924 C 0.20116 0.19467 0.42110
 C1925 C 0.19106 0.20949 0.43326
 C1926 C 0.20217 0.22116 0.44763
 C1927 C 0.22352 0.21821 0.45007
 C1928 C 0.23249 0.20132 0.44027
 C1929 C 0.25215 0.19925 0.42876
 C1930 C 0.24018 0.18657 0.41336
 H1931 H 0.17500 0.21317 0.43072
 H1932 H 0.19447 0.23367 0.45545
 H1933 H 0.26383 0.19008 0.43719
 H1934 H 0.25782 0.21409 0.42249
 H1935 H 0.24508 0.17015 0.41292
 H1936 H 0.23880 0.19418 0.39832
 C1937 C 0.27851 0.42137 0.69572
 C1938 C 0.29851 0.41541 0.70128
 C1939 C 0.30797 0.42642 0.71724
 C1940 C 0.29664 0.44070 0.72883
 C1941 C 0.27567 0.44419 0.72470
 C1942 C 0.26734 0.43539 0.70721
 C1943 C 0.24761 0.42412 0.70403
 C1944 C 0.25980 0.40868 0.69149
 H1945 H 0.32375 0.42326 0.72153
 H1946 H 0.30388 0.44795 0.74179
 H1947 H 0.23644 0.43323 0.69490
 H1948 H 0.24132 0.41744 0.71824
 H1949 H 0.25554 0.40887 0.67518
 H1950 H 0.26063 0.39310 0.69848
 C1951 C 0.29695 0.91505 0.22137
 C1952 C 0.29246 0.91109 0.20098
 C1953 C 0.27468 0.92054 0.19269
 C1954 C 0.26295 0.93465 0.20419
 C1955 C 0.26872 0.93941 0.22420
 C1956 C 0.28523 0.92869 0.23272
 C1957 C 0.30361 0.93711 0.24343
 C1958 C 0.31653 0.92231 0.23096
 H1959 H 0.27003 0.91744 0.17725
 H1960 H 0.24954 0.94191 0.19748
 H1961 H 0.30347 0.93333 0.25985
 H1962 H 0.30648 0.95361 0.23979
 H1963 H 0.32397 0.91012 0.24029
 H1964 H 0.32690 0.93017 0.22002
 C1965 C 0.77800 0.42374 0.18589
 C1966 C 0.79854 0.41917 0.19071
 C1967 C 0.80821 0.43167 0.20541
 C1968 C 0.79662 0.44576 0.21703
 C1969 C 0.77518 0.44746 0.21423
 C1970 C 0.76653 0.43738 0.19752
 C1971 C 0.74731 0.42499 0.19521
 C1972 C 0.75989 0.40995 0.18257
 H1973 H 0.82435 0.42957 0.20900
 H1974 H 0.80404 0.45379 0.22943
 H1975 H 0.73538 0.43328 0.18627
 H1976 H 0.74175 0.41814 0.20961
 H1977 H 0.75505 0.40952 0.16642
 H1978 H 0.76183 0.39459 0.18985
 C1979 C 0.78025 0.92320 0.69020
 C1980 C 0.80080 0.91895 0.69528
 C1981 C 0.80991 0.93105 0.71062
 C1982 C 0.79782 0.94462 0.72231
 C1983 C 0.77645 0.94609 0.71897
 C1984 C 0.76831 0.93635 0.70188
 C1985 C 0.74943 0.92355 0.69921
 C1986 C 0.76250 0.90903 0.68647
 H1987 H 0.82602 0.92915 0.71444
 H1988 H 0.80483 0.95265 0.73494
 H1989 H 0.73738 0.93169 0.69028
 H1990 H 0.74396 0.91640 0.71352
 H1991 H 0.75784 0.90877 0.67026
 H1992 H 0.76473 0.89361 0.69352
 C1993 C 0.71782 0.57733 0.68819
 C1994 C 0.69714 0.58129 0.69297
 C1995 C 0.68811 0.56916 0.70833
 C1996 C 0.70034 0.55593 0.72032
 C1997 C 0.72177 0.55481 0.71726
 C1998 C 0.72988 0.56454 0.70016
 C1999 C 0.74858 0.57761 0.69751
 C2000 C 0.73538 0.59171 0.68443
 H2001 H 0.67194 0.57084 0.71198
 H2002 H 0.69336 0.54795 0.73298
 H2003 H 0.76084 0.56953 0.68883
 H2004 H 0.75381 0.58508 0.71174
 H2005 H 0.74017 0.59180 0.66826
 H2006 H 0.73285 0.60721 0.69122
 C2007 C 0.71944 0.07821 0.18844
 C2008 C 0.69891 0.08313 0.19298
 C2009 C 0.68905 0.07121 0.20801
 C2010 C 0.70047 0.05741 0.22014
 C2011 C 0.72189 0.05540 0.21746
 C2012 C 0.73069 0.06479 0.20051
 C2013 C 0.75006 0.07687 0.19813
 C2014 C 0.73776 0.09168 0.18494
 H2015 H 0.67290 0.07352 0.21136
 H2016 H 0.69292 0.04973 0.23266
 H2017 H 0.76199 0.06818 0.18958
 H2018 H 0.75550 0.08399 0.21247
 H2019 H 0.74275 0.09155 0.16883
 H2020 H 0.73597 0.10726 0.19174
 C2021 C 0.19657 0.58202 0.21788
 C2022 C 0.20215 0.58697 0.19796
 C2023 C 0.22092 0.57878 0.19062
 C2024 C 0.23270 0.56503 0.20253
 C2025 C 0.22587 0.55913 0.22190
 C2026 C 0.20825 0.56862 0.22960
 C2027 C 0.18968 0.55884 0.23870
 C2028 C 0.17683 0.57342 0.22585
 H2029 H 0.22650 0.58284 0.17572
 H2030 H 0.24708 0.55903 0.19666
 H2031 H 0.18848 0.56198 0.25521
 H2032 H 0.18798 0.54237 0.23432
 H2033 H 0.16814 0.58485 0.23504
 H2034 H 0.16766 0.56545 0.21397
 C2035 C 0.18868 0.07295 0.71489
 C2036 C 0.19527 0.07964 0.69574
 C2037 C 0.21217 0.06911 0.68703
 C2038 C 0.22381 0.05492 0.69857
 C2039 C 0.21866 0.05095 0.71891
 C2040 C 0.20012 0.05901 0.72619
 C2041 C 0.19506 0.06936 0.74574
 C2042 C 0.18263 0.08477 0.73342
 H2043 H 0.21741 0.07291 0.67195
 H2044 H 0.23781 0.04854 0.69222
 H2045 H 0.20863 0.07640 0.75330
 H2046 H 0.18536 0.05950 0.75565
 H2047 H 0.18920 0.10060 0.73371
 H2048 H 0.16581 0.08387 0.73646
 C2049 C 0.27902 0.57799 0.30896
 C2050 C 0.29784 0.58577 0.30191
 C2051 C 0.30649 0.57642 0.28458
 C2052 C 0.29508 0.56210 0.27317
 C2053 C 0.27491 0.55688 0.27893
 C2054 C 0.26776 0.56390 0.29765
 C2055 C 0.24770 0.57358 0.30319
 C2056 C 0.25997 0.58907 0.31557
 H2057 H 0.32146 0.58110 0.27906
 H2058 H 0.30138 0.55635 0.25907
 H2059 H 0.23807 0.56321 0.31266
 H2060 H 0.23966 0.58059 0.28999
 H2061 H 0.25733 0.58763 0.33215
 H2062 H 0.25907 0.60506 0.30954
 C2063 C 0.30255 0.08146 0.77636
 C2064 C 0.29494 0.08870 0.79493
 C2065 C 0.27472 0.08289 0.80035
 C2066 C 0.26350 0.06890 0.78834
 C2067 C 0.27235 0.06027 0.77084
 C2068 C 0.29146 0.06765 0.76455
 C2069 C 0.31030 0.05593 0.75868
 C2070 C 0.32249 0.07098 0.77162
 H2071 H 0.26765 0.08875 0.81401
 H2072 H 0.24814 0.06443 0.79296
 H2073 H 0.31365 0.05732 0.74223
 H2074 H 0.31039 0.03992 0.76470
 H2075 H 0.33293 0.08093 0.76257
 H2076 H 0.32966 0.06371 0.78517
 C2077 C 0.80012 0.58406 0.77830
 C2078 C 0.79575 0.58753 0.79881
 C2079 C 0.77737 0.57895 0.80661
 C2080 C 0.76492 0.56603 0.79456
 C2081 C 0.77053 0.56157 0.77448
 C2082 C 0.78768 0.57156 0.76639
 C2083 C 0.80561 0.56243 0.75550
 C2084 C 0.81929 0.57593 0.76860
 H2085 H 0.77280 0.58172 0.82211
 H2086 H 0.75113 0.55931 0.80098
 H2087 H 0.80581 0.56683 0.73923
 H2088 H 0.80749 0.54566 0.75854
 H2089 H 0.82753 0.58796 0.75978
 H2090 H 0.82909 0.56701 0.77933
 C2091 C 0.79779 0.08575 0.27939
 C2092 C 0.79347 0.08912 0.29991
 C2093 C 0.77544 0.07994 0.30784
 C2094 C 0.76343 0.06645 0.29591
 C2095 C 0.76908 0.06211 0.27580
 C2096 C 0.78572 0.07283 0.26757
 C2097 C 0.80388 0.06456 0.25638
 C2098 C 0.81716 0.07849 0.26944
 H2099 H 0.77090 0.08265 0.32337
 H2100 H 0.74992 0.05927 0.30242
 H2101 H 0.80370 0.06916 0.24015
 H2102 H 0.80651 0.04786 0.25921
 H2103 H 0.82482 0.09092 0.26064
 H2104 H 0.82740 0.06988 0.28001
 C2105 C 0.70123 0.41462 0.27662
 C2106 C 0.70576 0.41119 0.29712
 C2107 C 0.72347 0.42090 0.30515
 C2108 C 0.73507 0.43480 0.29331
 C2109 C 0.72929 0.43903 0.27319
 C2110 C 0.71286 0.42801 0.26492
 C2111 C 0.69444 0.43608 0.25399
 C2112 C 0.68161 0.42158 0.26684
 H2113 H 0.72811 0.41822 0.32067
 H2114 H 0.74837 0.44232 0.29988
 H2115 H 0.69458 0.43186 0.23767
 H2116 H 0.69145 0.45266 0.25719
 H2117 H 0.67422 0.40914 0.25782
 H2118 H 0.67120 0.42973 0.27757
 C2119 C 0.69823 0.91975 0.78052
 C2120 C 0.70372 0.91504 0.80054
 C2121 C 0.72269 0.92287 0.80776
 C2122 C 0.73465 0.93630 0.79577
 C2123 C 0.72790 0.94209 0.77635
 C2124 C 0.71018 0.93276 0.76867
 C2125 C 0.69183 0.94266 0.75918
 C2126 C 0.67868 0.92856 0.77218
 H2127 H 0.72814 0.91909 0.82280
 H2128 H 0.74902 0.94224 0.80170
 H2129 H 0.69074 0.93921 0.74272
 H2130 H 0.69035 0.95925 0.76321
 H2131 H 0.66989 0.91710 0.76313
 H2132 H 0.66954 0.93696 0.78378
 C2133 C 0.19530 0.42545 0.78489
 C2134 C 0.20211 0.41787 0.80364
 C2135 C 0.21947 0.42760 0.81243
 C2136 C 0.23117 0.44200 0.80124
 C2137 C 0.22562 0.44692 0.78120
 C2138 C 0.20680 0.43954 0.77397
 C2139 C 0.20124 0.43005 0.75412
 C2140 C 0.18866 0.41449 0.76604
 H2141 H 0.22485 0.42316 0.82732
 H2142 H 0.24529 0.44802 0.80766
 H2143 H 0.21458 0.42296 0.74621
 H2144 H 0.19163 0.44050 0.74467
 H2145 H 0.19485 0.39852 0.76509
 H2146 H 0.17183 0.41596 0.76329
 C2147 C 0.21944 0.92377 0.31126
 C2148 C 0.19908 0.91875 0.30617
 C2149 C 0.18939 0.93078 0.29107
 C2150 C 0.20089 0.94484 0.27941
 C2151 C 0.22220 0.94708 0.28266
 C2152 C 0.23078 0.93752 0.29968
 C2153 C 0.25022 0.92549 0.30227
 C2154 C 0.23781 0.91031 0.31486
 H2155 H 0.17339 0.92827 0.28722
 H2156 H 0.19357 0.95248 0.26669
 H2157 H 0.26185 0.93404 0.31132
 H2158 H 0.25607 0.91874 0.28792
 H2159 H 0.24248 0.91004 0.33107
 H2160 H 0.23629 0.89490 0.30764
 C2161 C 0.42298 0.27951 0.69897
 C2162 C 0.41425 0.29769 0.70658
 C2163 C 0.41866 0.30286 0.72694
 C2164 C 0.43264 0.29098 0.73843
 C2165 C 0.44272 0.27395 0.72969
 C2166 C 0.43676 0.26788 0.71029
 C2167 C 0.44979 0.26313 0.69231
 C2168 C 0.43476 0.27592 0.67987
 H2169 H 0.41160 0.31613 0.73401
 H2170 H 0.43580 0.29525 0.75399
 H2171 H 0.44947 0.24646 0.68843
 H2172 H 0.46542 0.27005 0.69335
 H2173 H 0.42590 0.26657 0.66877
 H2174 H 0.44162 0.29030 0.67370
 C2175 C 0.42425 0.78201 0.19314
 C2176 C 0.41634 0.80091 0.19994
 C2177 C 0.42548 0.80965 0.21739
 C2178 C 0.43974 0.79824 0.22907
 C2179 C 0.44504 0.77801 0.22342
 C2180 C 0.43820 0.77083 0.20465
 C2181 C 0.42892 0.75066 0.19882
 C2182 C 0.41355 0.76286 0.18621
 H2183 H 0.42074 0.82467 0.22279
 H2184 H 0.44539 0.80462 0.24318
 H2185 H 0.42168 0.74246 0.21176
 H2186 H 0.43960 0.74118 0.18952
 H2187 H 0.39747 0.76177 0.19192
 H2188 H 0.41536 0.76024 0.16967
 C2189 C 0.91934 0.30763 0.22328
 C2190 C 0.91552 0.30233 0.20303
 C2191 C 0.92846 0.28727 0.19424
 C2192 C 0.94254 0.27605 0.20624
 C2193 C 0.94378 0.27953 0.22726
 C2194 C 0.93299 0.29638 0.23514
 C2195 C 0.91992 0.29850 0.25360
 C2196 C 0.90492 0.31083 0.24061
 H2197 H 0.92698 0.28332 0.17838
 H2198 H 0.95133 0.26367 0.19939
 H2199 H 0.92752 0.30793 0.26551
 H2200 H 0.91342 0.28362 0.25891
 H2201 H 0.90389 0.32731 0.24514
 H2202 H 0.88986 0.30300 0.23833
 C2203 C 0.92104 0.77895 0.70042
 C2204 C 0.91283 0.79762 0.70744
 C2205 C 0.91766 0.80350 0.72752
 C2206 C 0.93162 0.79181 0.73925
 C2207 C 0.94113 0.77419 0.73105
 C2208 C 0.93474 0.76747 0.71199
 C2209 C 0.94743 0.76176 0.69403
 C2210 C 0.93250 0.77439 0.68132
 H2211 H 0.91099 0.81723 0.73411
 H2212 H 0.93528 0.79672 0.75452
 H2213 H 0.94671 0.74496 0.69075
 H2214 H 0.96322 0.76837 0.69462
 H2215 H 0.92333 0.76482 0.67065
 H2216 H 0.93960 0.78838 0.67455
 C2217 C 0.57980 0.30611 0.27598
 C2218 C 0.58443 0.30046 0.29597
 C2219 C 0.57223 0.28488 0.30485
 C2220 C 0.55802 0.27362 0.29307
 C2221 C 0.55595 0.27760 0.27220
 C2222 C 0.56604 0.29484 0.26434
 C2223 C 0.57845 0.29761 0.24552
 C2224 C 0.59356 0.30998 0.25826
 H2225 H 0.57438 0.28062 0.32056
 H2226 H 0.54975 0.26093 0.29993
 H2227 H 0.57024 0.30709 0.23403
 H2228 H 0.58517 0.28300 0.23974
 H2229 H 0.59403 0.32656 0.25404
 H2230 H 0.60888 0.30244 0.25990
 C2231 C 0.57470 0.81365 0.78128
 C2232 C 0.57992 0.80803 0.80115
 C2233 C 0.56789 0.79250 0.81037
 C2234 C 0.55357 0.78101 0.79894
 C2235 C 0.55101 0.78483 0.77810
 C2236 C 0.56072 0.80222 0.76999
 C2237 C 0.57249 0.80524 0.75082
 C2238 C 0.58790 0.81766 0.76319
 H2239 H 0.57045 0.78822 0.82601
 H2240 H 0.54595 0.76799 0.80593
 H2241 H 0.56380 0.81475 0.73969
 H2242 H 0.57908 0.79072 0.74466
 H2243 H 0.58815 0.83426 0.75900
 H2244 H 0.60329 0.81019 0.76434
 C2245 C 0.07920 0.30839 0.77786
 C2246 C 0.08321 0.30360 0.79820
 C2247 C 0.07021 0.28900 0.80758
 C2248 C 0.05601 0.27753 0.79601
 C2249 C 0.05474 0.28035 0.77490
 C2250 C 0.06543 0.29692 0.76645
 C2251 C 0.07823 0.29851 0.74777
 C2252 C 0.09341 0.31106 0.76026
 H2253 H 0.07184 0.28550 0.82353
 H2254 H 0.04723 0.26541 0.80326
 H2255 H 0.07046 0.30768 0.73575
 H2256 H 0.08466 0.28350 0.74271
 H2257 H 0.09441 0.32741 0.75531
 H2258 H 0.10848 0.30320 0.76253
 C2259 C 0.07605 0.80869 0.27871
 C2260 C 0.08097 0.80297 0.29862
 C2261 C 0.06902 0.78723 0.30757
 C2262 C 0.05502 0.77571 0.29583
 C2263 C 0.05283 0.77969 0.27498
 C2264 C 0.06242 0.79721 0.26713
 C2265 C 0.07456 0.80026 0.24821
 C2266 C 0.08957 0.81284 0.26087
 H2267 H 0.07139 0.78288 0.32323
 H2268 H 0.04713 0.76274 0.30264
 H2269 H 0.06605 0.80965 0.23686
 H2270 H 0.08138 0.78573 0.24229
 H2271 H 0.08972 0.82945 0.25670
 H2272 H 0.10501 0.80555 0.26232
 C2273 C 0.57885 0.72201 0.69992
 C2274 C 0.58679 0.70305 0.70650
 C2275 C 0.58227 0.69693 0.72656
 C2276 C 0.56864 0.70861 0.73865
 C2277 C 0.55925 0.72649 0.73084
 C2278 C 0.56550 0.73347 0.71183
 C2279 C 0.55273 0.73981 0.69410
 C2280 C 0.56731 0.72724 0.68100
 H2281 H 0.58888 0.68301 0.73285
 H2282 H 0.56510 0.70347 0.75387
 H2283 H 0.55368 0.75666 0.69119
 H2284 H 0.53684 0.73344 0.69464
 H2285 H 0.57656 0.73689 0.67050
 H2286 H 0.55992 0.71354 0.67395
 C2287 C 0.57406 0.21954 0.18972
 C2288 C 0.58033 0.19968 0.19544
 C2289 C 0.57002 0.19054 0.21201
 C2290 C 0.55620 0.20217 0.22395
 C2291 C 0.55259 0.22312 0.21958
 C2292 C 0.56065 0.23100 0.20156
 C2293 C 0.57159 0.25072 0.19718
 C2294 C 0.58640 0.23818 0.18428
 H2295 H 0.57350 0.17488 0.21652
 H2296 H 0.54960 0.19529 0.23740
 H2297 H 0.57911 0.25759 0.21070
 H2298 H 0.56196 0.26154 0.18815
 H2299 H 0.60232 0.23764 0.19051
 H2300 H 0.58533 0.24193 0.16788
 C2301 C 0.07936 0.69551 0.22129
 C2302 C 0.08274 0.70050 0.20089
 C2303 C 0.07251 0.71804 0.19312
 C2304 C 0.05846 0.72916 0.20513
 C2305 C 0.05423 0.72298 0.22511
 C2306 C 0.06559 0.70663 0.23320
 C2307 C 0.05784 0.68762 0.24336
 C2308 C 0.07288 0.67548 0.23042
 H2309 H 0.07517 0.72319 0.17777
 H2310 H 0.05099 0.74270 0.19888
 H2311 H 0.04143 0.68435 0.23974
 H2312 H 0.06173 0.68732 0.25976
 H2313 H 0.06525 0.66512 0.21929
 H2314 H 0.08542 0.66821 0.23943
 C2315 C 0.07867 0.19327 0.72306
 C2316 C 0.08188 0.19794 0.70257
 C2317 C 0.06874 0.21274 0.69363
 C2318 C 0.05504 0.22434 0.70566
 C2319 C 0.05446 0.22149 0.72680
 C2320 C 0.06540 0.20486 0.73492
 C2321 C 0.07898 0.20330 0.75311
 C2322 C 0.09362 0.19064 0.74012
 H2323 H 0.06984 0.21621 0.67763
 H2324 H 0.04607 0.23653 0.69870
 H2325 H 0.07173 0.19420 0.76546
 H2326 H 0.08563 0.21830 0.75787
 H2327 H 0.09486 0.17432 0.74512
 H2328 H 0.10858 0.19845 0.73723
 C2329 C 0.42463 0.71776 0.30524
 C2330 C 0.41503 0.70002 0.29768
 C2331 C 0.42255 0.69182 0.27927
 C2332 C 0.43708 0.70282 0.26766
 C2333 C 0.44436 0.72204 0.27438
 C2334 C 0.43894 0.72853 0.29382
 C2335 C 0.43120 0.74896 0.30088
 C2336 C 0.41546 0.73724 0.31338
 H2337 H 0.41638 0.67763 0.27319
 H2338 H 0.44151 0.69702 0.25291
 H2339 H 0.42415 0.75825 0.28851
 H2340 H 0.44277 0.75723 0.31025
 H2341 H 0.39932 0.73970 0.30823
 H2342 H 0.41795 0.73888 0.32996
 C2343 C 0.42817 0.21340 0.81009
 C2344 C 0.42137 0.19393 0.80383
 C2345 C 0.43111 0.18514 0.78672
 C2346 C 0.44470 0.19695 0.77473
 C2347 C 0.44863 0.21769 0.77966
 C2348 C 0.44134 0.22502 0.79822
 C2349 C 0.43093 0.24479 0.80366
 C2350 C 0.41639 0.23207 0.81664
 H2351 H 0.42727 0.16969 0.78182
 H2352 H 0.45078 0.19043 0.76086
 H2353 H 0.42306 0.25230 0.79065
 H2354 H 0.44109 0.25507 0.81268
 H2355 H 0.40024 0.23211 0.81099
 H2356 H 0.41815 0.23516 0.83311
 C2357 C 0.93111 0.71211 0.81128
 C2358 C 0.92214 0.69400 0.80373
 C2359 C 0.93001 0.68621 0.78526
 C2360 C 0.94381 0.69799 0.77351
 C2361 C 0.95021 0.71756 0.78017
 C2362 C 0.94480 0.72357 0.79976
 C2363 C 0.93663 0.74361 0.80739
 C2364 C 0.92154 0.73116 0.81996
 H2365 H 0.92440 0.67185 0.77906
 H2366 H 0.94811 0.69258 0.75857
 H2367 H 0.92902 0.75297 0.79541
 H2368 H 0.94816 0.75202 0.81671
 H2369 H 0.90523 0.73326 0.81516
 H2370 H 0.92433 0.73256 0.83652
 C2371 C 0.92149 0.19212 0.27913
 C2372 C 0.91718 0.19716 0.29934
 C2373 C 0.92950 0.21253 0.30846
 C2374 C 0.94336 0.22428 0.29679
 C2375 C 0.94507 0.22096 0.27579
 C2376 C 0.93496 0.20385 0.26761
 C2377 C 0.92223 0.20157 0.24891
 C2378 C 0.90741 0.18875 0.26153
 H2379 H 0.92762 0.21633 0.32431
 H2380 H 0.95156 0.23691 0.30386
 H2381 H 0.93029 0.19246 0.23705
 H2382 H 0.91539 0.21634 0.24362
 H2383 H 0.90692 0.17230 0.25683
 H2384 H 0.89210 0.19618 0.26362
 C2385 C 0.31235 0.28098 0.57670
 C2386 C 0.30686 0.30117 0.58208
 C2387 C 0.29091 0.31062 0.57080
 C2388 C 0.27893 0.29901 0.55711
 C2389 C 0.28270 0.27780 0.55448
 C2390 C 0.30045 0.26953 0.56334
 C2391 C 0.30377 0.25000 0.57481
 C2392 C 0.31680 0.26249 0.58951
 H2393 H 0.28668 0.32652 0.57355
 H2394 H 0.26569 0.30615 0.54996
 H2395 H 0.31287 0.23859 0.56599
 H2396 H 0.28945 0.24389 0.58178
 H2397 H 0.33337 0.25815 0.58916
 H2398 H 0.30996 0.26366 0.60490
 C2399 C 0.30541 0.77576 0.07892
 C2400 C 0.30038 0.79630 0.08332
 C2401 C 0.28501 0.80577 0.07134
 C2402 C 0.27332 0.79406 0.05751
 C2403 C 0.27670 0.77271 0.05559
 C2404 C 0.29376 0.76421 0.06544
 C2405 C 0.29572 0.74510 0.07785
 C2406 C 0.30848 0.75771 0.09268
 H2407 H 0.28123 0.82189 0.07338
 H2408 H 0.26080 0.80138 0.04936
 H2409 H 0.30480 0.73297 0.06997
 H2410 H 0.28080 0.73987 0.08428
 H2411 H 0.32487 0.75276 0.09335
 H2412 H 0.30092 0.75983 0.10765
 C2413 C 0.81194 0.27783 0.07399
 C2414 C 0.80748 0.29858 0.07807
 C2415 C 0.79304 0.30846 0.06527
 C2416 C 0.78125 0.29696 0.05133
 C2417 C 0.78360 0.27541 0.05007
 C2418 C 0.80013 0.26648 0.06050
 C2419 C 0.80171 0.24734 0.07297
 C2420 C 0.81460 0.25979 0.08783
 H2421 H 0.78975 0.32472 0.06697
 H2422 H 0.76905 0.30458 0.04297
 H2423 H 0.81063 0.23506 0.06516
 H2424 H 0.78680 0.24228 0.07949
 H2425 H 0.83089 0.25453 0.08862
 H2426 H 0.80697 0.26209 0.10274
 C2427 C 0.78776 0.80841 0.57340
 C2428 C 0.80567 0.80021 0.58221
 C2429 C 0.81290 0.78116 0.57456
 C2430 C 0.80087 0.76960 0.56083
 C2431 C 0.78157 0.77703 0.55439
 C2432 C 0.77602 0.79707 0.55986
 C2433 C 0.75619 0.80522 0.56798
 C2434 C 0.76896 0.81765 0.58288
 H2435 H 0.82707 0.77444 0.58015
 H2436 H 0.80590 0.75430 0.55647
 H2437 H 0.74665 0.79318 0.57542
 H2438 H 0.74792 0.81496 0.55675
 H2439 H 0.76681 0.81278 0.59890
 H2440 H 0.76789 0.83455 0.58021
 C2441 C 0.28827 0.69020 0.43061
 C2442 C 0.30633 0.69816 0.42198
 C2443 C 0.31378 0.71702 0.42985
 C2444 C 0.30172 0.72879 0.44337
 C2445 C 0.28226 0.72168 0.44951
 C2446 C 0.27657 0.70169 0.44406
 C2447 C 0.25669 0.69375 0.43584
 C2448 C 0.26940 0.68122 0.42099
 H2449 H 0.32806 0.72356 0.42443
 H2450 H 0.30681 0.74408 0.44764
 H2451 H 0.24722 0.70586 0.42837
 H2452 H 0.24835 0.68407 0.44703
 H2453 H 0.26732 0.68621 0.40499
 H2454 H 0.26819 0.66433 0.42358
 C2455 C 0.31222 0.21443 0.92737
 C2456 C 0.30538 0.19510 0.92064
 C2457 C 0.28810 0.18654 0.93053
 C2458 C 0.27645 0.19841 0.94427
 C2459 C 0.28194 0.21896 0.94843
 C2460 C 0.30070 0.22612 0.94087
 C2461 C 0.30585 0.24587 0.93048
 C2462 C 0.31846 0.23313 0.91565
 H2463 H 0.28265 0.17129 0.92663
 H2464 H 0.26223 0.19216 0.95024
 H2465 H 0.31543 0.25610 0.94016
 H2466 H 0.29224 0.25339 0.92338
 H2467 H 0.33528 0.23615 0.91677
 H2468 H 0.31212 0.23325 0.89999
 C2469 C 0.78224 0.69390 0.92344
 C2470 C 0.80168 0.70046 0.91682
 C2471 C 0.80996 0.71829 0.92612
 C2472 C 0.79790 0.73031 0.93946
 C2473 C 0.77739 0.72476 0.94363
 C2474 C 0.77043 0.70576 0.93646
 C2475 C 0.75076 0.70006 0.92624
 C2476 C 0.76364 0.68707 0.91186
 H2477 H 0.82525 0.72361 0.92233
 H2478 H 0.80413 0.74454 0.94546
 H2479 H 0.74311 0.71332 0.91864
 H2480 H 0.74062 0.69072 0.93620
 H2481 H 0.76349 0.69288 0.89601
 H2482 H 0.76073 0.67027 0.91353
 C2483 C 0.80996 0.22224 0.42405
 C2484 C 0.80489 0.20173 0.41958
 C2485 C 0.78959 0.19233 0.43164
 C2486 C 0.77781 0.20412 0.44533
 C2487 C 0.78106 0.22550 0.44711
 C2488 C 0.79821 0.23388 0.43736
 C2489 C 0.80068 0.25307 0.42515
 C2490 C 0.81354 0.24034 0.41049
 H2491 H 0.78578 0.17622 0.42961
 H2492 H 0.76512 0.19690 0.45324
 H2493 H 0.80978 0.26496 0.43331
 H2494 H 0.78603 0.25867 0.41838
 H2495 H 0.83000 0.24503 0.41019
 H2496 H 0.80623 0.23847 0.39535
 C2497 C 0.69333 0.27601 0.41988
 C2498 C 0.69801 0.29665 0.41560
 C2499 C 0.71276 0.30642 0.42807
 C2500 C 0.72434 0.29491 0.44221
 C2501 C 0.72147 0.27348 0.44396
 C2502 C 0.70488 0.26467 0.43363
 C2503 C 0.70352 0.24549 0.42126
 C2504 C 0.69087 0.25788 0.40612
 H2505 H 0.71619 0.32262 0.42618
 H2506 H 0.73647 0.30246 0.45069
 H2507 H 0.69449 0.23327 0.42899
 H2508 H 0.71865 0.24043 0.41513
 H2509 H 0.67459 0.25269 0.40512
 H2510 H 0.69872 0.26006 0.39131
 C2511 C 0.69038 0.77869 0.92193
 C2512 C 0.69567 0.79918 0.91767
 C2513 C 0.71129 0.80823 0.92962
 C2514 C 0.72300 0.79615 0.94316
 C2515 C 0.71945 0.77482 0.94480
 C2516 C 0.70215 0.76674 0.93501
 C2517 C 0.69956 0.74783 0.92239
 C2518 C 0.68663 0.76090 0.90804
 H2519 H 0.71529 0.82430 0.92771
 H2520 H 0.73579 0.80314 0.95115
 H2521 H 0.69049 0.73576 0.93031
 H2522 H 0.71418 0.74239 0.91547
 H2523 H 0.67014 0.75630 0.90774
 H2524 H 0.69381 0.76305 0.89290
 C2525 C 0.22171 0.29923 0.91844
 C2526 C 0.20207 0.29315 0.91194
 C2527 C 0.19496 0.27362 0.91840
 C2528 C 0.20655 0.26166 0.93218
 C2529 C 0.22535 0.26906 0.93986
 C2530 C 0.23310 0.28741 0.93193
 C2531 C 0.24103 0.30589 0.94285
 C2532 C 0.22852 0.31889 0.92814
 H2533 H 0.18034 0.26767 0.91316
 H2534 H 0.20069 0.24685 0.93708
 H2535 H 0.25793 0.30776 0.94096
 H2536 H 0.23542 0.30682 0.95874
 H2537 H 0.23830 0.32831 0.91790
 H2538 H 0.21562 0.32737 0.93546
 C2539 C 0.21999 0.79973 0.41859
 C2540 C 0.20039 0.79325 0.41236
 C2541 C 0.19355 0.77377 0.41921
 C2542 C 0.20540 0.76222 0.43311
 C2543 C 0.22426 0.76993 0.44034
 C2544 C 0.23170 0.78824 0.43210
 C2545 C 0.23934 0.80695 0.44285
 C2546 C 0.22649 0.81959 0.42816
 H2547 H 0.17896 0.76756 0.41422
 H2548 H 0.19975 0.74747 0.43840
 H2549 H 0.25619 0.80914 0.44084
 H2550 H 0.23382 0.80786 0.45878
 H2551 H 0.23602 0.82915 0.41782
 H2552 H 0.21346 0.82783 0.43552
 C2553 C 0.71769 0.69891 0.58032
 C2554 C 0.69816 0.70575 0.58644
 C2555 C 0.69190 0.72558 0.57995
 C2556 C 0.70420 0.73713 0.56648
 C2557 C 0.72293 0.72905 0.55925
 C2558 C 0.72984 0.71038 0.56724
 C2559 C 0.73727 0.69170 0.55630
 C2560 C 0.72392 0.67909 0.57051
 H2561 H 0.67742 0.73209 0.58493
 H2562 H 0.69902 0.75221 0.56157
 H2563 H 0.75404 0.68908 0.55860
 H2564 H 0.73201 0.69123 0.54026
 H2565 H 0.73307 0.66911 0.58086
 H2566 H 0.71084 0.67131 0.56277
 C2567 C 0.72013 0.19989 0.07876
 C2568 C 0.69950 0.20485 0.08269
 C2569 C 0.69161 0.22316 0.07398
 C2570 C 0.70370 0.23502 0.06061
 C2571 C 0.72388 0.22882 0.05582
 C2572 C 0.73206 0.21171 0.06581
 C2573 C 0.74242 0.19329 0.05693
 C2574 C 0.72935 0.18027 0.07102
 H2575 H 0.67604 0.22818 0.07712
 H2576 H 0.69730 0.24888 0.05395
 H2577 H 0.75912 0.19279 0.06067
 H2578 H 0.73865 0.19105 0.04064
 H2579 H 0.73862 0.17217 0.08276
 H2580 H 0.71796 0.17046 0.06294
 C2581 C 0.18793 0.72157 0.07475
 C2582 C 0.19253 0.70084 0.07884
 C2583 C 0.20786 0.69139 0.06683
 C2584 C 0.22006 0.70323 0.05355
 C2585 C 0.21723 0.72471 0.05217
 C2586 C 0.20009 0.73325 0.06187
 C2587 C 0.19781 0.75220 0.07447
 C2588 C 0.18453 0.73943 0.08868
 H2589 H 0.21137 0.67517 0.06860
 H2590 H 0.23271 0.69590 0.04563
 H2591 H 0.18903 0.76448 0.06646
 H2592 H 0.21247 0.75732 0.08156
 H2593 H 0.16816 0.74449 0.08888
 H2594 H 0.19161 0.73705 0.10385
 C2595 C 0.22008 0.19961 0.58259
 C2596 C 0.20000 0.20542 0.58793
 C2597 C 0.19281 0.22470 0.58076
 C2598 C 0.20485 0.23668 0.56744
 C2599 C 0.22426 0.22960 0.56105
 C2600 C 0.23197 0.21152 0.56964
 C2601 C 0.24083 0.19311 0.55931
 C2602 C 0.22776 0.18001 0.57334
 H2603 H 0.17778 0.23043 0.58505
 H2604 H 0.19893 0.25127 0.56196
 H2605 H 0.25764 0.19152 0.56217
 H2606 H 0.23615 0.19203 0.54312
 H2607 H 0.23712 0.17074 0.58414
 H2608 H 0.21542 0.17134 0.56533
   
