data_POSCAR
  _audit_creation_date              2014-09-24
  _audit_creation_method            'ToBaCCo'
  _symmetry_space_group_name_H-M    'P1'
  _symmetry_Int_Tables_number       1
  _symmetry_cell_setting            triclinic
  loop_
  _symmetry_equiv_pos_as_xyz
 x,y,z
_cell_length_a 74.8321
_cell_length_b 74.7470
_cell_length_c 74.7206
_cell_angle_alpha 90.001700
_cell_angle_beta 90.008300
_cell_angle_gamma 90.021100
loop_
  _atom_site_label
  _atom_site_type_symbol
  _atom_site_fract_x
  _atom_site_fract_y
  _atom_site_fract_z
C1 C 0.36425 1.35162 0.33794
 C2 C 0.36426 1.33834 0.35120
 C3 C 0.35124 1.33837 0.36432
 C4 C 0.33801 1.35165 0.36433
 C5 C 0.33799 1.36466 0.35127
 C6 C 0.35123 1.36465 0.33796
 C7 C 0.37498 1.35466 0.32332
 N8 N 0.36888 1.36932 0.31425
 C9 C 0.35425 1.37542 0.32336
 C10 C 0.32344 1.37545 0.35434
 N11 N 0.31441 1.36939 0.36905
 C12 C 0.32348 1.35473 0.37514
 C13 C 0.35430 1.32379 0.37513
 N14 N 0.36885 1.31486 0.36889
 C15 C 0.37501 1.32372 0.35423
 H16 H 0.38621 1.34636 0.31969
 H17 H 0.34610 1.38682 0.31988
 H18 H 0.31996 1.38687 0.34621
 H19 H 0.31986 1.34643 0.38640
 H20 H 0.34622 1.31976 0.38645
 H21 H 0.38652 1.31989 0.34634
 C22 C 0.36358 0.85139 0.83821
 C23 C 0.36356 0.83814 0.85150
 C24 C 0.35059 0.83828 0.86466
 C25 C 0.33749 0.85170 0.86476
 C26 C 0.33749 0.86470 0.85169
 C27 C 0.35062 0.86457 0.83830
 C28 C 0.37427 0.85435 0.82352
 N29 N 0.36811 0.86900 0.81465
 C30 C 0.35363 0.87531 0.82365
 C31 C 0.32302 0.87559 0.85484
 N32 N 0.31403 0.86959 0.86959
 C33 C 0.32304 0.85488 0.87565
 C34 C 0.35355 0.82368 0.87546
 N35 N 0.36802 0.81463 0.86919
 C36 C 0.37422 0.82344 0.85452
 H37 H 0.38546 0.84616 0.81939
 H38 H 0.34585 0.88693 0.81991
 H39 H 0.31957 0.88701 0.84670
 H40 H 0.31941 0.84660 0.88692
 H41 H 0.34575 0.81999 0.88708
 H42 H 0.38541 0.81927 0.84635
 C43 C 0.86395 1.35154 0.83789
 C44 C 0.86395 1.33823 0.85112
 C45 C 0.85092 1.33822 0.86422
 C46 C 0.83768 1.35150 0.86424
 C47 C 0.83770 1.36457 0.85124
 C48 C 0.85094 1.36458 0.83793
 C49 C 0.87472 1.35463 0.82331
 N50 N 0.86864 1.36932 0.81427
 C51 C 0.85400 1.37539 0.82337
 C52 C 0.82317 1.37537 0.85434
 N53 N 0.81410 1.36925 0.86900
 C54 C 0.82313 1.35454 0.87504
 C55 C 0.85397 1.32361 0.87500
 N56 N 0.86853 1.31471 0.86874
 C57 C 0.87471 1.32361 0.85411
 H58 H 0.88594 1.34633 0.81965
 H59 H 0.84588 1.38683 0.81992
 H60 H 0.81953 1.38664 0.84607
 H61 H 0.81967 1.34640 0.88647
 H62 H 0.84589 1.31955 0.88630
 H63 H 0.88623 1.31980 0.84623
 C64 C 0.86413 0.85134 0.33801
 C65 C 0.86422 0.83803 0.35126
 C66 C 0.85121 0.83796 0.36439
 C67 C 0.83789 0.85115 0.36443
 C68 C 0.83783 0.86425 0.35138
 C69 C 0.85105 0.86431 0.33806
 C70 C 0.87484 0.85447 0.32341
 N71 N 0.86867 0.86912 0.31436
 C72 C 0.85402 0.87513 0.32348
 C73 C 0.82322 0.87498 0.35449
 N74 N 0.81438 0.86870 0.36910
 C75 C 0.82332 0.85410 0.37525
 C76 C 0.85435 0.82337 0.37516
 N77 N 0.86896 0.81454 0.36889
 C78 C 0.87506 0.82347 0.35425
 H79 H 0.88611 0.84623 0.31974
 H80 H 0.84582 0.88650 0.32004
 H81 H 0.81912 0.88628 0.34641
 H82 H 0.81958 0.84621 0.38680
 H83 H 0.84630 0.81926 0.38647
 H84 H 0.88659 0.81972 0.34635
 C85 C 0.63591 0.64846 0.33808
 C86 C 0.63604 0.66179 0.35129
 C87 C 0.64917 0.66179 0.36431
 C88 C 0.66232 0.64843 0.36433
 C89 C 0.66217 0.63532 0.35128
 C90 C 0.64885 0.63536 0.33807
 C91 C 0.62505 0.64540 0.32355
 N92 N 0.63102 0.63068 0.31449
 C93 C 0.64568 0.62455 0.32353
 C94 C 0.67671 0.62446 0.35427
 N95 N 0.68570 0.63065 0.36884
 C96 C 0.67693 0.64532 0.37506
 C97 C 0.64626 0.67646 0.37504
 N98 N 0.63166 0.68538 0.36888
 C99 C 0.62535 0.67645 0.35434
 H100 H 0.61385 0.65375 0.31993
 H101 H 0.65373 0.61308 0.32006
 H102 H 0.68040 0.61287 0.34642
 H103 H 0.68110 0.65344 0.38630
 H104 H 0.65417 0.68027 0.38655
 H105 H 0.61404 0.68051 0.34627
 C106 C 0.63608 0.14867 0.83753
 C107 C 0.63611 0.16204 0.85070
 C108 C 0.64917 0.16211 0.86378
 C109 C 0.66241 0.14883 0.86383
 C110 C 0.66237 0.13572 0.85087
 C111 C 0.64910 0.13565 0.83760
 C112 C 0.62527 0.14551 0.82300
 N113 N 0.63134 0.13079 0.81400
 C114 C 0.64602 0.12477 0.82308
 C115 C 0.67692 0.12494 0.85398
 N116 N 0.68601 0.13110 0.86861
 C117 C 0.67698 0.14582 0.87462
 C118 C 0.64613 0.17676 0.87450
 N119 N 0.63154 0.18563 0.86824
 C120 C 0.62534 0.17667 0.85366
 H121 H 0.61404 0.15380 0.81931
 H122 H 0.65411 0.11331 0.81968
 H123 H 0.68049 0.11361 0.84576
 H124 H 0.68048 0.15403 0.88598
 H125 H 0.65422 0.18087 0.88578
 H126 H 0.61380 0.18043 0.84579
 C127 C 1.13565 0.64854 0.83878
 C128 C 1.13579 0.66178 0.85207
 C129 C 1.14895 0.66174 0.86504
 C130 C 1.16219 0.64845 0.86488
 C131 C 1.16207 0.63544 0.85182
 C132 C 1.14868 0.63544 0.83867
 C133 C 1.12477 0.64558 0.82424
 N134 N 1.13086 0.63098 0.81526
 C135 C 1.14549 0.62470 0.82405
 C136 C 1.17665 0.62465 0.85473
 N137 N 1.18585 0.63070 0.86934
 C138 C 1.17685 0.64536 0.87554
 C139 C 1.14603 0.67634 0.87586
 N140 N 1.13142 0.68529 0.86975
 C141 C 1.12509 0.67641 0.85518
 H142 H 1.11324 0.65349 0.82054
 H143 H 1.15355 0.61342 0.81988
 H144 H 1.18004 0.61324 0.84654
 H145 H 1.18057 0.65363 0.88678
 H146 H 1.15424 0.68039 0.88709
 H147 H 1.11351 0.68025 0.84740
 C148 C 1.13565 0.14807 0.33809
 C149 C 1.13567 0.16143 0.35127
 C150 C 1.14875 0.16152 0.36433
 C151 C 1.16202 0.14827 0.36435
 C152 C 1.16198 0.13515 0.35139
 C153 C 1.14869 0.13507 0.33813
 C154 C 1.12484 0.14491 0.32356
 N155 N 1.13093 0.13023 0.31454
 C156 C 1.14563 0.12421 0.32359
 C157 C 1.17655 0.12439 0.35448
 N158 N 1.18565 0.13058 0.36909
 C159 C 1.17661 0.14529 0.37511
 C160 C 1.14570 0.17617 0.37504
 N161 N 1.13110 0.18502 0.36879
 C162 C 1.12490 0.17604 0.35423
 H163 H 1.11362 0.15321 0.31986
 H164 H 1.15371 0.11275 0.32017
 H165 H 1.18018 0.11311 0.34623
 H166 H 1.18010 0.15347 0.38650
 H167 H 1.15382 0.18031 0.38630
 H168 H 1.11334 0.17978 0.34637
 C169 C 0.63577 1.35159 0.66217
 C170 C 0.63578 1.33823 0.64899
 C171 C 0.64888 1.33810 0.63595
 C172 C 0.66219 1.35132 0.63594
 C173 C 0.66217 1.36446 0.64896
 C174 C 0.64883 1.36459 0.66215
 C175 C 0.62496 1.35475 0.67670
 N176 N 0.63105 1.36945 0.68571
 C177 C 0.64575 1.37546 0.67666
 C178 C 0.67680 1.37518 0.64593
 N179 N 0.68573 1.36889 0.63138
 C180 C 0.67682 1.35428 0.62519
 C181 C 0.64580 1.32344 0.62524
 N182 N 0.63116 1.31464 0.63146
 C183 C 0.62497 1.32364 0.64601
 H184 H 0.61352 1.34666 0.68017
 H185 H 0.65407 1.38670 0.68028
 H186 H 0.68060 1.38677 0.65374
 H187 H 0.68089 1.34611 0.61395
 H188 H 0.65392 1.31929 0.61399
 H189 H 0.61338 1.31994 0.65385
 C190 C 0.63474 0.85241 1.16138
 C191 C 0.63482 0.83901 1.14823
 C192 C 0.64796 0.83887 1.13524
 C193 C 0.66124 0.85211 1.13524
 C194 C 0.66116 0.86528 1.14823
 C195 C 0.64778 0.86542 1.16137
 C196 C 0.62390 0.85556 1.17588
 N197 N 0.62995 0.87027 1.18491
 C198 C 0.64466 0.87630 1.17587
 C199 C 0.67580 0.87601 1.14524
 N200 N 0.68479 0.86970 1.13074
 C201 C 0.67592 0.85507 1.12454
 C202 C 0.64496 0.82417 1.12457
 N203 N 0.63032 0.81535 1.13078
 C204 C 0.62405 0.82439 1.14528
 H205 H 0.61250 0.84741 1.17936
 H206 H 0.65294 0.88757 1.17947
 H207 H 0.67955 0.88762 1.15305
 H208 H 0.68005 0.84688 1.11334
 H209 H 0.65312 0.81999 1.11337
 H210 H 0.61246 0.82069 1.15310
 C211 C 1.13553 1.35203 1.16126
 C212 C 1.13541 1.33879 1.14798
 C213 C 1.14846 1.33870 1.13489
 C214 C 1.16186 1.35184 1.13495
 C215 C 1.16197 1.36487 1.14799
 C216 C 1.14870 1.36500 1.16127
 C217 C 1.12481 1.35510 1.17588
 N218 N 1.13113 1.36965 1.18481
 C219 C 1.14575 1.37578 1.17590
 C220 C 1.17664 1.37552 1.14495
 N221 N 1.18566 1.36934 1.13029
 C222 C 1.17646 1.35476 1.12418
 C223 C 1.14530 1.32411 1.12411
 N224 N 1.13066 1.31531 1.13035
 C225 C 1.12454 1.32426 1.14497
 H226 H 1.11322 1.34732 1.17968
 H227 H 1.15395 1.38699 1.17999
 H228 H 1.18035 1.38675 1.15325
 H229 H 1.17987 1.34658 1.11278
 H230 H 1.15337 1.31997 1.11283
 H231 H 1.11300 1.32053 1.15285
 C232 C 1.13478 0.85254 0.66116
 C233 C 1.13481 0.83912 0.64804
 C234 C 1.14791 0.83897 0.63499
 C235 C 1.16120 0.85221 0.63491
 C236 C 1.16120 0.86539 0.64788
 C237 C 1.14790 0.86556 0.66110
 C238 C 1.12401 0.85571 0.67574
 N239 N 1.13028 0.87034 0.68456
 C240 C 1.14491 0.87643 0.67564
 C241 C 1.17587 0.87606 0.64486
 N242 N 1.18480 0.86970 0.63034
 C243 C 1.17587 0.85510 0.62418
 C244 C 1.14487 0.82426 0.62435
 N245 N 1.13026 0.81544 0.63063
 C246 C 1.12404 0.82449 0.64514
 H247 H 1.11273 0.84764 0.67986
 H248 H 1.15283 0.88795 0.67941
 H249 H 1.17969 0.88765 0.65266
 H250 H 1.17995 0.84686 0.61299
 H251 H 1.15300 0.82006 0.61313
 H252 H 1.11248 0.82079 0.65301
 C253 C 0.36487 0.64782 0.66129
 C254 C 0.36493 0.66109 0.64804
 C255 C 0.35183 0.66120 0.63500
 C256 C 0.33845 0.64805 0.63507
 C257 C 0.33838 0.63501 0.64811
 C258 C 0.35170 0.63485 0.66132
 C259 C 0.37563 0.64473 0.67588
 N260 N 0.36934 0.63018 0.68481
 C261 C 0.35469 0.62406 0.67594
 C262 C 0.32369 0.62438 0.64513
 N263 N 0.31461 0.63056 0.63050
 C264 C 0.32379 0.64514 0.62436
 C265 C 0.35495 0.67581 0.62423
 N266 N 0.36962 0.68460 0.63044
 C267 C 0.37579 0.67563 0.64501
 H268 H 0.38722 0.65252 0.67967
 H269 H 0.34649 0.61285 0.68004
 H270 H 0.32013 0.61302 0.65331
 H271 H 0.32021 0.65346 0.61311
 H272 H 0.34684 0.67996 0.61298
 H273 H 0.38737 0.67934 0.65286
 C274 C 0.36460 0.14786 1.16096
 C275 C 0.36465 0.16110 1.14768
 C276 C 0.35155 0.16117 1.13464
 C277 C 0.33818 0.14800 1.13473
 C278 C 0.33812 0.13500 1.14780
 C279 C 0.35144 0.13488 1.16102
 C280 C 0.37535 0.14482 1.17557
 N281 N 0.36907 0.13028 1.18453
 C282 C 0.35443 0.12413 1.17567
 C283 C 0.32343 0.12436 1.14485
 N284 N 0.31435 0.13050 1.13020
 C285 C 0.32354 0.14506 1.12402
 C286 C 0.35465 0.17575 1.12383
 N287 N 0.36930 0.18458 1.13002
 C288 C 0.37549 0.17565 1.14462
 H289 H 0.38694 0.15263 1.17934
 H290 H 0.34624 0.11293 1.17979
 H291 H 0.31989 0.11299 1.15303
 H292 H 0.31992 0.15338 1.11277
 H293 H 0.34654 0.17987 1.11258
 H294 H 0.38706 0.17940 1.15247
 C295 C 0.86550 0.64744 1.16101
 C296 C 0.86547 0.66078 1.14782
 C297 C 0.85228 0.66096 1.13487
 C298 C 0.83890 0.64781 1.13495
 C299 C 0.83892 0.63467 1.14798
 C300 C 0.85234 0.63446 1.16108
 C301 C 0.87635 0.64432 1.17554
 N302 N 0.87011 0.62974 1.18446
 C303 C 0.85541 0.62364 1.17566
 C304 C 0.82417 0.62407 1.14509
 N305 N 0.81517 0.63043 1.13062
 C306 C 0.82414 0.64497 1.12434
 C307 C 0.85531 0.67564 1.12417
 N308 N 0.87001 0.68440 1.13033
 C309 C 0.87629 0.67534 1.14481
 H310 H 0.88795 0.65211 1.17928
 H311 H 0.84723 0.61244 1.17979
 H312 H 0.82035 0.61253 1.15295
 H313 H 0.82003 0.65317 1.11314
 H314 H 0.84711 0.67986 1.11302
 H315 H 0.88792 0.67902 1.15260
 C316 C 0.86480 0.14771 0.66155
 C317 C 0.86484 0.16111 0.64842
 C318 C 0.85171 0.16135 0.63540
 C319 C 0.83833 0.14820 0.63538
 C320 C 0.83830 0.13504 0.64837
 C321 C 0.85165 0.13481 0.66154
 C322 C 0.87562 0.14446 0.67606
 N323 N 0.86942 0.12981 0.68509
 C324 C 0.85466 0.12392 0.67606
 C325 C 0.82357 0.12443 0.64537
 N326 N 0.81465 0.13081 0.63086
 C327 C 0.82364 0.14536 0.62467
 C328 C 0.85484 0.17602 0.62472
 N329 N 0.86955 0.18473 0.63096
 C330 C 0.87573 0.17564 0.64546
 H331 H 0.88692 0.15266 0.67972
 H332 H 0.84645 0.11255 0.67950
 H333 H 0.81972 0.11286 0.65319
 H334 H 0.81958 0.15359 0.61346
 H335 H 0.84673 0.18025 0.61351
 H336 H 0.88734 0.17926 0.65329
 C337 C 1.35227 0.36475 0.66122
 C338 C 1.33894 0.36480 0.64802
 C339 C 1.33886 0.35175 0.63492
 C340 C 1.35212 0.33849 0.63480
 C341 C 1.36521 0.33844 0.64777
 C342 C 1.36530 0.35165 0.66111
 C343 C 1.35539 0.37547 0.67586
 N344 N 1.36999 0.36918 0.68468
 C345 C 1.37612 0.35460 0.67570
 C346 C 1.37590 0.32382 0.64465
 N347 N 1.36971 0.31478 0.63000
 C348 C 1.35506 0.32391 0.62399
 C349 C 1.32419 0.35480 0.62424
 N350 N 1.31535 0.36940 0.63054
 C351 C 1.32434 0.37559 0.64510
 H352 H 1.34732 0.38674 0.68001
 H353 H 1.38765 0.34670 0.67943
 H354 H 1.38729 0.32026 0.65277
 H355 H 1.34670 0.32032 0.61277
 H356 H 1.32031 0.34696 0.61270
 H357 H 1.32034 0.38686 0.65327
 C358 C 1.35111 0.86423 1.16177
 C359 C 1.33787 0.86426 1.14848
 C360 C 1.33785 0.85115 1.13543
 C361 C 1.35110 0.83788 1.13547
 C362 C 1.36409 0.83788 1.14853
 C363 C 1.36411 0.85118 1.16179
 C364 C 1.35416 0.87502 1.17635
 N365 N 1.36879 0.86893 1.18545
 C366 C 1.37487 0.85425 1.17639
 C367 C 1.37483 0.82326 1.14551
 N368 N 1.36874 0.81419 1.13083
 C369 C 1.35413 0.82329 1.12470
 C370 C 1.32328 0.85418 1.12463
 N371 N 1.31443 0.86883 1.13079
 C372 C 1.32332 0.87507 1.14539
 H373 H 1.34605 0.88647 1.17979
 H374 H 1.38609 0.84594 1.18005
 H375 H 1.38622 0.81978 1.15366
 H376 H 1.34583 0.81965 1.11345
 H377 H 1.31947 0.84630 1.11309
 H378 H 1.31928 0.88638 1.15347
 C379 C 0.85152 0.36444 1.16202
 C380 C 0.83817 0.36453 1.14884
 C381 C 0.83798 0.35144 1.13578
 C382 C 0.85111 0.33805 1.13575
 C383 C 0.86422 0.33798 1.14871
 C384 C 0.86441 0.35128 1.16197
 C385 C 0.85475 0.37522 1.17656
 N386 N 0.86940 0.36903 1.18557
 C387 C 0.87530 0.35428 1.17649
 C388 C 0.87485 0.32331 1.14560
 N389 N 0.86859 0.31425 1.13098
 C390 C 0.85397 0.32343 1.12498
 C391 C 0.82337 0.35460 1.12506
 N392 N 0.81465 0.36929 1.13131
 C393 C 0.82366 0.37543 1.14588
 H394 H 0.84659 0.38656 1.18020
 H395 H 0.88664 0.34605 1.17993
 H396 H 0.88611 0.31960 1.15383
 H397 H 0.84575 0.32001 1.11360
 H398 H 0.81919 0.34651 1.11380
 H399 H 0.82001 0.38702 1.15374
 C400 C 0.85135 0.86474 0.66127
 C401 C 0.83816 0.86482 0.64794
 C402 C 0.83809 0.85169 0.63492
 C403 C 0.85123 0.83832 0.63500
 C404 C 0.86429 0.83828 0.64810
 C405 C 0.86434 0.85159 0.66134
 C406 C 0.85438 0.87551 0.67589
 N407 N 0.86889 0.86924 0.68486
 C408 C 0.87507 0.85460 0.67600
 C409 C 0.87495 0.82359 0.64511
 N410 N 0.86867 0.81467 0.63054
 C411 C 0.85415 0.82364 0.62429
 C412 C 0.82352 0.85477 0.62411
 N413 N 0.81474 0.86947 0.63024
 C414 C 0.82366 0.87569 0.64483
 H415 H 0.84657 0.88710 0.67965
 H416 H 0.88628 0.84643 0.68012
 H417 H 0.88619 0.81947 0.65324
 H418 H 0.84627 0.81984 0.61275
 H419 H 0.81967 0.84687 0.61260
 H420 H 0.81966 0.88702 0.65291
 C421 C 0.64871 0.63513 0.66142
 C422 C 0.66197 0.63516 0.64816
 C423 C 0.66201 0.64828 0.63513
 C424 C 0.64879 0.66157 0.63517
 C425 C 0.63573 0.66156 0.64826
 C426 C 0.63566 0.64822 0.66145
 C427 C 0.64567 0.62432 0.67600
 N428 N 0.63109 0.63051 0.68492
 C429 C 0.62489 0.64514 0.67606
 C430 C 0.62501 0.67621 0.64527
 N431 N 0.63122 0.68513 0.63068
 C432 C 0.64578 0.67622 0.62443
 C433 C 0.67661 0.64525 0.62435
 N434 N 0.68547 0.63062 0.63055
 C435 C 0.67656 0.62439 0.64513
 H436 H 0.65352 0.61276 0.67978
 H437 H 0.61365 0.65327 0.68016
 H438 H 0.61348 0.68001 0.65314
 H439 H 0.65389 0.68029 0.61315
 H440 H 0.68070 0.65340 0.61310
 H441 H 0.68033 0.61281 0.65297
 C442 C 0.64843 1.13575 1.16201
 C443 C 0.66171 1.13570 1.14876
 C444 C 0.66176 1.14877 1.13568
 C445 C 0.64858 1.16211 1.13571
 C446 C 0.63555 1.16213 1.14873
 C447 C 0.63549 1.14885 1.16201
 C448 C 0.64531 1.12497 1.17658
 N449 N 0.63070 1.13114 1.18566
 C450 C 0.62470 1.14585 1.17660
 C451 C 0.62485 1.17676 1.14569
 N452 N 0.63098 1.18584 1.13104
 C453 C 0.64560 1.17671 1.12494
 C454 C 0.67634 1.14567 1.12489
 N455 N 0.68516 1.13103 1.13111
 C456 C 0.67625 1.12486 1.14573
 H457 H 0.65356 1.11370 1.18024
 H458 H 0.61332 1.15402 1.18007
 H459 H 0.61361 1.18041 1.15398
 H460 H 0.65376 1.18018 1.11354
 H461 H 0.68043 1.15377 1.11361
 H462 H 0.68000 1.11330 1.15359
 C463 C 0.14898 0.63621 1.16242
 C464 C 0.16226 0.63611 1.14918
 C465 C 0.16235 0.64915 1.13606
 C466 C 0.14918 0.66250 1.13606
 C467 C 0.13614 0.66258 1.14907
 C468 C 0.13605 0.64932 1.16238
 C469 C 0.14583 0.62546 1.17701
 N470 N 0.13120 0.63164 1.18605
 C471 C 0.12523 0.64633 1.17694
 C472 C 0.12544 0.67719 1.14596
 N473 N 0.13159 0.68621 1.13128
 C474 C 0.14621 0.67707 1.12524
 C475 C 0.17690 0.64597 1.12527
 N476 N 0.18569 0.63133 1.13152
 C477 C 0.17678 0.62523 1.14616
 H478 H 0.15397 0.61408 1.18058
 H479 H 0.11394 0.65462 1.18045
 H480 H 0.11420 0.68088 1.15424
 H481 H 0.15436 0.68048 1.11381
 H482 H 0.18100 0.65403 1.11396
 H483 H 0.18050 0.61367 1.15405
 C484 C 0.14851 1.13558 0.66215
 C485 C 0.16180 1.13542 0.64891
 C486 C 0.16192 1.14845 0.63578
 C487 C 0.14880 1.16185 0.63575
 C488 C 0.13576 1.16198 0.64877
 C489 C 0.13563 1.14874 0.66209
 C490 C 0.14533 1.12487 0.67676
 N491 N 0.13073 1.13113 0.68580
 C492 C 0.12481 1.14583 0.67667
 C493 C 0.12512 1.17664 0.64565
 N494 N 0.13131 1.18563 0.63098
 C495 C 0.14590 1.17643 0.62494
 C496 C 0.17647 1.14524 0.62500
 N497 N 0.18523 1.13058 0.63126
 C498 C 0.17629 1.12451 0.64591
 H499 H 0.15350 1.11354 0.68042
 H500 H 0.11350 1.15410 0.68012
 H501 H 0.11392 1.18041 0.65395
 H502 H 0.15405 1.17979 0.61349
 H503 H 0.18060 1.15328 0.61368
 H504 H 0.17999 1.11295 0.65381
 C505 C 1.35169 0.63535 0.33807
 C506 C 1.33838 0.63542 0.35128
 C507 C 1.33838 0.64852 0.36433
 C508 C 1.35166 0.66177 0.36430
 C509 C 1.36469 0.66171 0.35128
 C510 C 1.36471 0.64838 0.33805
 C511 C 1.35477 0.62451 0.32353
 N512 N 1.36943 0.63058 0.31446
 C513 C 1.37550 0.64528 0.32349
 C514 C 1.37547 0.67630 0.35429
 N515 N 1.36939 0.68542 0.36893
 C516 C 1.35473 0.67638 0.37504
 C517 C 1.32377 0.64551 0.37510
 N518 N 1.31488 0.63090 0.36890
 C519 C 1.32377 0.62466 0.35431
 H520 H 1.34646 0.61327 0.31990
 H521 H 1.38692 0.65339 0.32001
 H522 H 1.38692 0.67971 0.34618
 H523 H 1.34641 0.68009 0.38626
 H524 H 1.31972 0.65365 0.38637
 H525 H 1.31998 0.61309 0.34647
 C526 C 1.35130 1.13533 0.83857
 C527 C 1.33813 1.13544 0.85191
 C528 C 1.33828 1.14855 0.86495
 C529 C 1.35159 1.16178 0.86479
 C530 C 1.36455 1.16166 0.85170
 C531 C 1.36444 1.14833 0.83847
 C532 C 1.35417 1.12449 0.82398
 N533 N 1.36876 1.13057 0.81499
 C534 C 1.37512 1.14516 0.82381
 C535 C 1.37540 1.17621 0.85464
 N536 N 1.36940 1.18540 0.86928
 C537 C 1.35474 1.17641 0.87548
 C538 C 1.32372 1.14562 0.87581
 N539 N 1.31471 1.13106 0.86966
 C540 C 1.32348 1.12477 0.85503
 H541 H 1.34622 1.11298 0.82026
 H542 H 1.38642 1.15319 0.81966
 H543 H 1.38660 1.17979 0.84626
 H544 H 1.34669 1.17996 0.88694
 H545 H 1.31976 1.15380 0.88709
 H546 H 1.31956 1.11323 0.84720
 C547 C 0.85201 0.63468 0.83895
 C548 C 0.83878 0.63483 0.85225
 C549 C 0.83897 0.64792 0.86533
 C550 C 0.85240 0.66100 0.86533
 C551 C 0.86542 0.66087 0.85220
 C552 C 0.86522 0.64761 0.83892
 C553 C 0.85487 0.62389 0.82431
 N554 N 0.86948 0.62998 0.81535
 C555 C 0.87588 0.64450 0.82426
 C556 C 0.87632 0.67538 0.85517
 N557 N 0.87026 0.68436 0.86980
 C558 C 0.85562 0.67559 0.87608
 C559 C 0.82435 0.64509 0.87612
 N560 N 0.81527 0.63059 0.86993
 C561 C 0.82406 0.62424 0.85532
 H562 H 0.84662 0.61271 0.82025
 H563 H 0.88747 0.65226 0.82041
 H564 H 0.88785 0.67909 0.84725
 H565 H 0.84757 0.67977 0.88737
 H566 H 0.82067 0.65300 0.88767
 H567 H 0.81984 0.61301 0.84721
 C568 C 0.85206 1.13425 0.33942
 C569 C 0.83880 1.13452 0.35268
 C570 C 0.83891 1.14774 0.36562
 C571 C 0.85227 1.16090 0.36546
 C572 C 0.86532 1.16065 0.35237
 C573 C 0.86524 1.14721 0.33928
 C574 C 0.85494 1.12333 0.32489
 N575 N 0.86956 1.12933 0.31590
 C576 C 0.87594 1.14394 0.32467
 C577 C 0.87618 1.17524 0.35521
 N578 N 0.87005 1.18436 0.36971
 C579 C 0.85541 1.17563 0.37606
 C580 C 0.82425 1.14496 0.37639
 N581 N 0.81522 1.13039 0.37028
 C582 C 0.82408 1.12394 0.35577
 H583 H 0.84694 1.11185 0.32118
 H584 H 0.88725 1.15195 0.32048
 H585 H 0.88773 1.17887 0.34729
 H586 H 0.84734 1.17989 0.38729
 H587 H 0.82024 1.15324 0.38757
 H588 H 0.82017 1.11236 0.34800
 C589 C 0.64844 0.36488 0.33814
 C590 C 0.66185 0.36482 0.35126
 C591 C 0.66198 0.35172 0.36432
 C592 C 0.64870 0.33847 0.36442
 C593 C 0.63551 0.33854 0.35146
 C594 C 0.63538 0.35188 0.33826
 C595 C 0.64527 0.37567 0.32360
 N596 N 0.63051 0.36963 0.31466
 C597 C 0.62447 0.35498 0.32379
 C598 C 0.62475 0.32394 0.35454
 N599 N 0.63107 0.31498 0.36906
 C600 C 0.64573 0.32383 0.37518
 C601 C 0.67669 0.35472 0.37495
 N602 N 0.68554 0.36932 0.36865
 C603 C 0.67651 0.37556 0.35414
 H604 H 0.65338 0.38709 0.32006
 H605 H 0.61321 0.34667 0.32022
 H606 H 0.61313 0.32019 0.34678
 H607 H 0.65393 0.31971 0.38638
 H608 H 0.68086 0.34658 0.38617
 H609 H 0.68024 0.38711 0.34626
 C610 C 0.64748 0.86574 0.83908
 C611 C 0.66085 0.86567 0.85223
 C612 C 0.66095 0.85255 0.86527
 C613 C 0.64768 0.83929 0.86533
 C614 C 0.63452 0.83935 0.85234
 C615 C 0.63439 0.85269 0.83915
 C616 C 0.64441 0.87652 0.82448
 N617 N 0.62976 0.87035 0.81565
 C618 C 0.62355 0.85576 0.82459
 C619 C 0.62379 0.82471 0.85536
 N620 N 0.63010 0.81574 0.86988
 C621 C 0.64473 0.82462 0.87605
 C622 C 0.67567 0.85552 0.87591
 N623 N 0.68454 0.87011 0.86962
 C624 C 0.67552 0.87638 0.85512
 H625 H 0.65230 0.88803 0.82062
 H626 H 0.61227 0.84764 0.82056
 H627 H 0.61220 0.82094 0.84756
 H628 H 0.65292 0.82050 0.88725
 H629 H 0.67983 0.84736 0.88711
 H630 H 0.67928 0.88793 0.84724
 C631 C 0.14798 0.36508 0.83870
 C632 C 0.16131 0.36519 0.85191
 C633 C 0.16137 0.35222 0.86509
 C634 C 0.14814 0.33893 0.86522
 C635 C 0.13502 0.33884 0.85219
 C636 C 0.13498 0.35202 0.83882
 C637 C 0.14488 0.37574 0.82404
 N638 N 0.13022 0.36956 0.81504
 C639 C 0.12418 0.35494 0.82424
 C640 C 0.12429 0.32424 0.85536
 N641 N 0.13058 0.31542 0.86999
 C642 C 0.14519 0.32437 0.87608
 C643 C 0.17600 0.35534 0.87579
 N644 N 0.18488 0.36988 0.86942
 C645 C 0.17593 0.37598 0.85479
 H646 H 0.15316 0.38697 0.82028
 H647 H 0.11277 0.34677 0.82085
 H648 H 0.11300 0.32010 0.84731
 H649 H 0.15311 0.32063 0.88761
 H650 H 0.18011 0.34729 0.88710
 H651 H 0.17972 0.38746 0.84681
 C652 C 0.14772 0.86513 0.33846
 C653 C 0.16110 0.86529 0.35162
 C654 C 0.16127 0.85231 0.36479
 C655 C 0.14812 0.83895 0.36495
 C656 C 0.13495 0.83881 0.35197
 C657 C 0.13480 0.85200 0.33861
 C658 C 0.14451 0.87581 0.32384
 N659 N 0.12985 0.86956 0.31489
 C660 C 0.12392 0.85490 0.32407
 C661 C 0.12428 0.82416 0.35518
 N662 N 0.13066 0.81537 0.36978
 C663 C 0.14526 0.82437 0.37582
 C664 C 0.17592 0.85551 0.37545
 N665 N 0.18468 0.87012 0.36907
 C666 C 0.17565 0.87617 0.35447
 H667 H 0.15274 0.88706 0.32006
 H668 H 0.11251 0.84670 0.32073
 H669 H 0.11297 0.81999 0.34717
 H670 H 0.15322 0.82067 0.38733
 H671 H 0.18011 0.84749 0.38675
 H672 H 0.17934 0.88769 0.34650
 O673 O 1.06401 1.01773 1.08933
 O674 O 1.08471 1.01783 1.11034
 C675 C 1.07017 1.02386 1.10393
 C676 C 1.06052 1.03841 1.11329
 C677 C 1.06624 1.04442 1.13016
 H678 H 1.07763 1.03813 1.13653
 O679 O 0.93506 0.98233 1.08901
 O680 O 0.91424 0.98223 1.10989
 C681 C 0.92881 0.97619 1.10357
 C682 C 0.93839 0.96162 1.11298
 C683 C 0.93255 0.95557 1.12980
 H684 H 0.92112 0.96183 1.13610
 O685 O 1.01673 1.08925 1.06466
 O686 O 1.01662 1.11016 1.08548
 C687 C 1.02276 1.10385 1.07093
 C688 C 1.03735 1.11329 1.06142
 C689 C 1.04323 1.13017 1.06722
 H690 H 1.03654 1.13668 1.07830
 O691 O 0.98253 0.91084 1.06461
 O692 O 0.98252 0.88991 1.08540
 C693 C 0.97646 0.89624 1.07083
 C694 C 0.96194 0.88681 1.06120
 C695 C 0.95595 0.86996 1.06697
 H696 H 0.96224 0.86362 1.07838
 O697 O 1.08858 1.06502 1.01778
 O698 O 1.10941 1.08590 1.01788
 C699 C 1.10310 1.07132 1.02394
 C700 C 1.11248 1.06176 1.03855
 C701 C 1.12929 1.06757 1.04457
 H702 H 1.13562 1.07898 1.03826
 O703 O 0.91098 0.93519 1.01725
 O704 O 0.89015 0.91430 1.01720
 C705 C 0.89642 0.92888 1.02331
 C706 C 0.88696 0.93840 1.03789
 C707 C 0.87013 0.93254 1.04380
 H708 H 0.86367 0.92141 1.03713
 O709 O 0.98191 1.06458 1.08905
 O710 O 0.98178 1.08537 1.11000
 C711 C 0.97577 1.07079 1.10363
 C712 C 0.96123 1.06115 1.11301
 C713 C 0.95530 1.06686 1.12990
 H714 H 0.96192 1.07796 1.13645
 O715 O 1.01720 0.93549 1.08923
 O716 O 1.01723 0.91470 1.11016
 C717 C 1.02328 0.92927 1.10383
 C718 C 1.03779 0.93891 1.11327
 C719 C 1.04376 0.93313 1.13012
 H720 H 1.03748 0.92170 1.13644
 O721 O 1.08871 0.98294 1.06492
 O722 O 1.10953 0.98301 1.08581
 C723 C 1.10327 0.97690 1.07123
 C724 C 1.11274 0.96234 1.06170
 C725 C 1.12957 0.95644 1.06756
 H726 H 1.13603 0.96311 1.07869
 O727 O 0.91056 1.01719 1.06446
 O728 O 0.88963 1.01714 1.08524
 C729 C 0.89598 1.02325 1.07070
 C730 C 0.88658 1.03785 1.06114
 C731 C 0.86978 1.04383 1.06698
 H732 H 0.86329 1.03721 1.07812
 O733 O 0.93481 1.08898 1.01735
 O734 O 0.91396 1.10983 1.01732
 C735 C 0.92851 1.10353 1.02345
 C736 C 0.93801 1.11295 1.03807
 C737 C 0.93212 1.12974 1.04412
 H738 H 0.92070 1.13603 1.03781
 O739 O 1.06468 0.91118 1.01776
 O740 O 1.08552 0.89033 1.01783
 C741 C 1.07095 0.89663 1.02388
 C742 C 1.06139 0.88720 1.03846
 C743 C 1.06727 0.87041 1.04453
 H744 H 1.07872 0.86414 1.03827
 O745 O 0.93498 1.01723 1.08903
 O746 O 0.91418 1.01717 1.10993
 C747 C 0.92871 1.02330 1.10360
 C748 C 0.93823 1.03791 1.11303
 C749 C 0.93248 1.04381 1.12992
 H750 H 0.92115 1.03742 1.13627
 O751 O 1.06414 0.98283 1.08933
 O752 O 1.08485 0.98290 1.11034
 C753 C 1.07036 0.97675 1.10393
 C754 C 1.06084 0.96210 1.11330
 C755 C 1.06662 0.95614 1.13015
 H756 H 1.07768 0.96280 1.13671
 O757 O 1.01739 0.91099 1.06473
 O758 O 1.01742 0.89007 1.08555
 C759 C 1.02354 0.89645 1.07102
 C760 C 1.03822 0.88713 1.06153
 C761 C 1.04428 0.87034 1.06740
 H762 H 1.03766 0.86381 1.07851
 O763 O 0.98186 1.08911 1.06457
 O764 O 0.98172 1.11001 1.08540
 C765 C 0.97569 1.10365 1.07082
 C766 C 0.96107 1.11298 1.06125
 C767 C 0.95500 1.12977 1.06710
 H768 H 0.96158 1.13629 1.07825
 O769 O 0.91045 1.06436 1.01730
 O770 O 0.88948 1.08508 1.01727
 C771 C 0.89586 1.07056 1.02338
 C772 C 0.88650 1.06096 1.03798
 C773 C 0.86969 1.06676 1.04403
 H774 H 0.86336 1.07817 1.03773
 O775 O 1.08905 0.93578 1.01781
 O776 O 1.11003 0.91507 1.01787
 C777 C 1.10362 0.92959 1.02395
 C778 C 1.11294 0.93922 1.03856
 C779 C 1.12977 0.93350 1.04461
 H780 H 1.13615 0.92212 1.03832
 O781 O 0.98235 0.93534 1.08911
 O782 O 0.98233 0.91454 1.11003
 C783 C 0.97622 0.92906 1.10366
 C784 C 0.96155 0.93856 1.11301
 C785 C 0.95553 0.93270 1.12982
 H786 H 0.96217 0.92161 1.13635
 O787 O 1.01676 1.06474 1.08915
 O788 O 1.01666 1.08554 1.11009
 C789 C 1.02280 1.07101 1.10375
 C790 C 1.03739 1.06149 1.11319
 C791 C 1.04329 1.06731 1.13006
 H792 H 1.03663 1.07841 1.13657
 O793 O 0.91065 0.98229 1.06444
 O794 O 0.88970 0.98219 1.08520
 C795 C 0.89609 0.97614 1.07065
 C796 C 0.88678 0.96153 1.06103
 C797 C 0.86995 0.95547 1.06676
 H798 H 0.86357 0.96176 1.07815
 O799 O 1.08856 1.01783 1.06491
 O800 O 1.10939 1.01794 1.08580
 C801 C 1.10308 1.02400 1.07122
 C802 C 1.11244 1.03863 1.06169
 C803 C 1.12926 1.04462 1.06751
 H804 H 1.13578 1.03798 1.07862
 O805 O 0.93555 0.91081 1.01732
 O806 O 0.91484 0.88981 1.01727
 C807 C 0.92934 0.89621 1.02340
 C808 C 0.93888 0.88683 1.03802
 C809 C 0.93309 0.86998 1.04397
 H810 H 0.92202 0.86344 1.03730
 O811 O 1.06402 1.08941 1.01770
 O812 O 1.08471 1.11043 1.01778
 C813 C 1.07018 1.10402 1.02382
 C814 C 1.06052 1.11338 1.03836
 C815 C 1.06622 1.13026 1.04436
 H816 H 1.07761 1.13663 1.03807
 Cu817 Cu 1.07428 1.00032 1.07503
 Cu818 Cu 1.09920 1.00043 1.10018
 Cu819 Cu 0.92490 0.99977 1.07466
 Cu820 Cu 0.89984 0.99967 1.09966
 Cu821 Cu 0.99933 1.07484 1.07477
 Cu822 Cu 0.99918 1.09987 1.09984
 Cu823 Cu 0.99987 0.92525 1.07483
 Cu824 Cu 0.99987 0.90021 1.09988
 C825 C 1.04598 1.04693 1.10500
 H826 H 1.04165 1.04252 1.09189
 C827 C 1.05770 1.05884 1.13866
 C828 C 0.95300 0.95313 1.10479
 H829 H 0.95742 0.95756 1.09172
 C830 C 0.94105 0.94113 1.13833
 C831 C 1.04597 1.10510 1.04688
 H832 H 1.04166 1.09197 1.04248
 C833 C 1.05764 1.13877 1.05876
 C834 C 0.95341 0.89505 1.04662
 H835 H 0.95779 0.90816 1.04225
 C836 C 0.94154 0.86143 1.05842
 C837 C 1.10425 1.04718 1.04710
 H838 H 1.09118 1.04278 1.04268
 C839 C 1.13780 1.05907 1.05902
 C840 C 0.89508 0.95300 1.04648
 H841 H 0.90816 0.95745 1.04214
 C842 C 0.86151 0.94099 1.05821
 C843 C 0.95272 1.04656 1.10477
 H844 H 0.95707 1.04224 1.09164
 C845 C 0.94095 1.05827 1.13847
 C846 C 1.04631 0.95350 1.10505
 H847 H 1.04194 0.95788 1.09194
 C848 C 1.05816 0.94167 1.13868
 C849 C 1.10462 0.95375 1.04709
 H850 H 1.09154 0.95808 1.04265
 C851 C 1.13820 0.94205 1.05909
 C852 C 0.89474 1.04639 1.04652
 H853 H 0.90781 1.04200 1.04209
 C854 C 0.86122 1.05827 1.05851
 C855 C 0.95260 1.10477 1.04663
 H856 H 0.95706 1.09172 1.04219
 C857 C 0.94054 1.13826 1.05862
 C858 C 1.04676 0.89536 1.04695
 H859 H 1.04230 0.90841 1.04250
 C860 C 1.05879 0.86187 1.05898
 O861 O 1.06461 0.98294 0.91120
 O862 O 1.08543 0.98300 0.89031
 C863 C 1.07089 0.97687 0.89662
 C864 C 1.06138 0.96228 0.88717
 C865 C 1.06717 0.95642 0.87028
 H866 H 1.07823 0.96312 0.86377
 O867 O 0.93543 1.01728 0.91073
 O868 O 0.91473 1.01722 0.88972
 C869 C 0.92923 1.02335 0.89612
 C870 C 0.93880 1.03795 0.88674
 C871 C 0.93309 1.04390 0.86985
 H872 H 0.92175 1.03753 0.86346
 O873 O 0.98219 1.08909 0.93544
 O874 O 0.98216 1.11001 0.91463
 C875 C 0.97605 1.10364 0.92917
 C876 C 0.96139 1.11296 0.93867
 C877 C 0.95535 1.12976 0.93281
 H878 H 0.96197 1.13629 0.92171
 O879 O 1.01775 0.91112 0.93551
 O880 O 1.01792 0.89020 0.91470
 C881 C 1.02393 0.89657 0.92927
 C882 C 1.03851 0.88723 0.93889
 C883 C 1.04453 0.87039 0.93312
 H884 H 1.03795 0.86384 0.92199
 O885 O 1.08913 0.93578 0.98291
 O886 O 1.11010 0.91506 0.98293
 C887 C 1.10372 0.92959 0.97683
 C888 C 1.11310 0.93921 0.96226
 C889 C 1.12994 0.93347 0.95627
 H890 H 1.13629 0.92209 0.96258
 O891 O 0.91053 1.06437 0.98238
 O892 O 0.88955 1.08509 0.98230
 C893 C 0.89596 1.07056 0.97622
 C894 C 0.88667 1.06097 0.96157
 C895 C 0.86988 1.06674 0.95547
 H896 H 0.86350 1.07813 0.96176
 O897 O 1.01724 1.06477 0.91104
 O898 O 1.01725 1.08557 0.89011
 C899 C 1.02337 1.07105 0.89648
 C900 C 1.03802 1.06155 0.88713
 C901 C 1.04407 1.06739 0.87032
 H902 H 1.03774 1.07877 0.86397
 O903 O 0.98281 0.93544 0.91094
 O904 O 0.98293 0.91463 0.89002
 C905 C 0.97676 0.92914 0.89635
 C906 C 0.96212 0.93860 0.88694
 C907 C 0.95613 0.93267 0.87014
 H908 H 0.96279 0.92156 0.86366
 O909 O 1.08896 1.01787 0.93578
 O910 O 1.10991 1.01796 0.91502
 C911 C 1.10352 1.02402 0.92956
 C912 C 1.11284 1.03865 0.93915
 C913 C 1.12967 1.04466 0.93341
 H914 H 1.13624 1.03803 0.92232
 O915 O 0.91098 0.98236 0.93519
 O916 O 0.89013 0.98226 0.91433
 C917 C 0.89645 0.97621 0.92891
 C918 C 0.88709 0.96160 0.93849
 C919 C 0.87026 0.95559 0.93271
 H920 H 0.86390 0.96191 0.92133
 O921 O 1.06413 1.08941 0.98280
 O922 O 1.08482 1.11042 0.98284
 C923 C 1.07032 1.10401 0.97671
 C924 C 1.06074 1.11337 0.96210
 C925 C 1.06649 1.13023 0.95610
 H926 H 1.07786 1.13660 0.96243
 O927 O 0.93563 0.91079 0.98242
 O928 O 0.91493 0.88977 0.98233
 C929 C 0.92947 0.89618 0.97630
 C930 C 0.93914 0.88680 0.96176
 C931 C 0.93346 0.86991 0.95578
 H932 H 0.92208 0.86353 0.96207
 O933 O 0.93551 0.98238 0.91076
 O934 O 0.91479 0.98227 0.88977
 C935 C 0.92932 0.97623 0.89617
 C936 C 0.93893 0.96163 0.88683
 C937 C 0.93313 0.95551 0.87003
 H938 H 0.92169 0.96173 0.86369
 O939 O 1.06454 1.01783 0.91123
 O940 O 1.08536 1.01792 0.89035
 C941 C 1.07080 1.02396 0.89667
 C942 C 1.06124 1.03854 0.88725
 C943 C 1.06709 1.04457 0.87044
 H944 H 1.07825 1.03800 0.86396
 O945 O 0.98290 0.91096 0.93544
 O946 O 0.98303 0.89003 0.91464
 C947 C 0.97688 0.89635 0.92918
 C948 C 0.96231 0.88690 0.93871
 C949 C 0.95646 0.87001 0.93293
 H950 H 0.96317 0.86350 0.92186
 O951 O 1.01706 1.08923 0.93557
 O952 O 1.01706 1.11015 0.91477
 C953 C 1.02313 1.10383 0.92934
 C954 C 1.03767 1.11326 0.93893
 C955 C 1.04359 1.13013 0.93313
 H956 H 1.03696 1.13663 0.92201
 O957 O 0.91110 0.93521 0.98235
 O958 O 0.89027 0.91433 0.98226
 C959 C 0.89657 0.92891 0.97620
 C960 C 0.88718 0.93845 0.96159
 C961 C 0.87035 0.93263 0.95564
 H962 H 0.86385 0.92152 0.96229
 O963 O 1.08871 1.06503 0.98288
 O964 O 1.10954 1.08592 0.98293
 C965 C 1.10327 1.07134 0.97683
 C966 C 1.11274 1.06178 0.96228
 C967 C 1.12956 1.06762 0.95633
 H968 H 1.13583 1.07905 0.96266
 O969 O 1.01767 0.93562 0.91100
 O970 O 1.01782 0.91483 0.89006
 C971 C 1.02381 0.92942 0.89642
 C972 C 1.03834 0.93909 0.88705
 C973 C 1.04431 0.93341 0.87016
 H974 H 1.03802 0.92203 0.86377
 O975 O 0.98238 1.06459 0.91093
 O976 O 0.98236 1.08540 0.89000
 C977 C 0.97631 1.07082 0.89632
 C978 C 0.96181 1.06119 0.88686
 C979 C 0.95591 1.06693 0.86997
 H980 H 0.96254 1.07806 0.86346
 O981 O 0.91089 1.01725 0.93516
 O982 O 0.89006 1.01720 0.91428
 C983 C 0.89634 1.02331 0.92886
 C984 C 0.88688 1.03789 0.93838
 C985 C 0.87009 1.04384 0.93248
 H986 H 0.86365 1.03722 0.92132
 O987 O 1.08903 0.98298 0.93577
 O988 O 1.10996 0.98303 0.91500
 C989 C 1.10361 0.97691 0.92954
 C990 C 1.11301 0.96233 0.93911
 C991 C 1.12986 0.95641 0.93332
 H992 H 1.13636 0.96307 0.92222
 O993 O 1.06472 0.91122 0.98285
 O994 O 1.08556 0.89037 0.98287
 C995 C 1.07102 0.89667 0.97675
 C996 C 1.06151 0.88726 0.96213
 C997 C 1.06734 0.87042 0.95617
 H998 H 1.07871 0.86411 0.96255
 O999 O 0.93492 1.08894 0.98245
 O1000 O 0.91408 1.10979 0.98237
 C1001 C 0.92865 1.10349 0.97632
 C1002 C 0.93822 1.11291 0.96174
 C1003 C 0.93237 1.12971 0.95569
 H1004 H 0.92093 1.13600 0.96196
 Cu1005 Cu 1.07470 1.00040 0.92558
 Cu1006 Cu 1.09977 1.00048 0.90058
 Cu1007 Cu 0.92528 0.99983 0.92505
 Cu1008 Cu 0.90034 0.99973 0.89992
 Cu1009 Cu 1.07429 1.07512 1.00028
 Cu1010 Cu 1.09921 1.10027 1.00036
 Cu1011 Cu 1.07481 0.92557 1.00033
 Cu1012 Cu 1.09991 0.90062 1.00038
 Cu1013 Cu 0.92476 1.07459 0.99988
 Cu1014 Cu 0.89966 1.09953 0.99981
 Cu1015 Cu 0.92539 0.92509 0.99984
 Cu1016 Cu 0.90046 0.89995 0.99975
 Cu1017 Cu 0.99972 1.07483 0.92533
 Cu1018 Cu 0.99970 1.09988 0.90028
 Cu1019 Cu 1.00028 0.92537 0.92531
 Cu1020 Cu 1.00044 0.90032 0.90025
 C1021 C 1.04686 0.95364 0.89536
 H1022 H 1.04248 0.95794 0.90849
 C1023 C 1.05871 0.94200 0.86166
 C1024 C 0.95328 1.04658 0.89505
 H1025 H 0.95760 1.04223 0.90818
 C1026 C 0.94157 1.05837 0.86135
 C1027 C 0.95284 1.10474 0.95325
 H1028 H 0.95728 1.09167 0.95769
 C1029 C 0.94086 1.13825 0.94124
 C1030 C 1.04699 0.89547 0.95351
 H1031 H 1.04257 0.90855 0.95788
 C1032 C 1.05892 0.86187 0.94170
 C1033 C 1.10483 0.95375 0.95369
 H1034 H 1.09174 0.95810 0.95808
 C1035 C 1.13843 0.94200 0.94182
 C1036 C 0.89498 1.04643 0.95304
 H1037 H 0.90804 1.04206 0.95751
 C1038 C 0.86147 1.05825 0.94095
 C1039 C 1.04659 1.04701 0.89540
 H1040 H 1.04216 1.04258 0.90847
 C1041 C 1.05858 1.05898 0.86186
 C1042 C 0.95354 0.95319 0.89509
 H1043 H 0.95793 0.95768 0.90815
 C1044 C 0.94165 0.94105 0.86157
 C1045 C 1.10457 1.04718 0.95370
 H1046 H 1.09149 1.04276 0.95806
 C1047 C 1.13815 1.05913 0.94192
 C1048 C 0.89535 0.95304 0.95304
 H1049 H 0.90843 0.95745 0.95741
 C1050 C 0.86178 0.94112 0.94123
 C1051 C 1.04622 1.10508 0.95353
 H1052 H 1.04188 1.09198 0.95792
 C1053 C 1.05798 1.13872 0.94164
 C1054 C 0.95367 0.89510 0.95324
 H1055 H 0.95797 0.90823 0.95762
 C1056 C 0.94206 0.86140 0.94139
 O1057 O 1.06458 0.51738 0.58934
 O1058 O 1.08531 0.51745 0.61032
 C1059 C 1.07077 0.52349 0.60394
 C1060 C 1.06117 0.53805 0.61334
 C1061 C 1.06699 0.54408 0.63015
 H1062 H 1.07814 0.53752 0.63666
 O1063 O 0.93554 0.48193 0.58892
 O1064 O 0.91470 0.48180 0.60979
 C1065 C 0.92928 0.47578 0.60348
 C1066 C 0.93888 0.46124 0.61290
 C1067 C 0.93308 0.45522 0.62974
 H1068 H 0.92165 0.46149 0.63604
 O1069 O 1.01723 0.58887 0.56492
 O1070 O 1.01710 0.60973 0.58579
 C1071 C 1.02325 0.60346 0.57123
 C1072 C 1.03780 0.61295 0.56173
 C1073 C 1.04368 0.62981 0.56758
 H1074 H 1.03701 0.63627 0.57870
 O1075 O 0.98302 0.41054 0.56451
 O1076 O 0.98303 0.38959 0.58529
 C1077 C 0.97696 0.39593 0.57072
 C1078 C 0.96244 0.38649 0.56109
 C1079 C 0.95641 0.36967 0.56691
 H1080 H 0.96266 0.36337 0.57837
 O1081 O 1.08899 0.56488 0.51789
 O1082 O 1.10980 0.58577 0.51802
 C1083 C 1.10351 0.57117 0.52405
 C1084 C 1.11290 0.56159 0.53863
 C1085 C 1.12970 0.56742 0.54467
 H1086 H 1.13600 0.57886 0.53840
 O1087 O 0.91152 0.43480 0.51711
 O1088 O 0.89072 0.41389 0.51702
 C1089 C 0.89697 0.42846 0.52316
 C1090 C 0.88750 0.43794 0.53776
 C1091 C 0.87070 0.43202 0.54370
 H1092 H 0.86427 0.42088 0.53704
 O1093 O 0.98242 0.56411 0.58924
 O1094 O 0.98226 0.58486 0.61023
 C1095 C 0.97625 0.57030 0.60382
 C1096 C 0.96165 0.56067 0.61313
 C1097 C 0.95560 0.56643 0.62995
 H1098 H 0.96217 0.57754 0.63653
 O1099 O 1.01771 0.43516 0.58914
 O1100 O 1.01776 0.41435 0.61005
 C1101 C 1.02380 0.42893 0.60373
 C1102 C 1.03833 0.43855 0.61316
 C1103 C 1.04432 0.43276 0.63002
 H1104 H 1.03803 0.42133 0.63633
 O1105 O 1.08927 0.48264 0.56485
 O1106 O 1.11012 0.48267 0.58571
 C1107 C 1.10384 0.47658 0.57113
 C1108 C 1.11330 0.46204 0.56156
 C1109 C 1.13012 0.45608 0.56741
 H1110 H 1.13639 0.46240 0.57885
 O1111 O 0.91103 0.51677 0.56438
 O1112 O 0.89007 0.51668 0.58512
 C1113 C 0.89644 0.52282 0.57060
 C1114 C 0.88705 0.53743 0.56105
 C1115 C 0.87022 0.54337 0.56684
 H1116 H 0.86369 0.53670 0.57793
 O1117 O 0.93541 0.58870 0.51749
 O1118 O 0.91456 0.60955 0.51750
 C1119 C 0.92910 0.60324 0.52362
 C1120 C 0.93859 0.61262 0.53829
 C1121 C 0.93272 0.62941 0.54434
 H1122 H 0.92133 0.63573 0.53801
 O1123 O 1.06514 0.41094 0.51756
 O1124 O 1.08598 0.39008 0.51761
 C1125 C 1.07142 0.39638 0.52367
 C1126 C 1.06185 0.38694 0.53824
 C1127 C 1.06771 0.37013 0.54428
 H1128 H 1.07916 0.36386 0.53801
 O1129 O 0.93541 0.51682 0.58897
 O1130 O 0.91458 0.51673 0.60984
 C1131 C 0.92911 0.52287 0.60355
 C1132 C 0.93861 0.53747 0.61301
 C1133 C 0.93273 0.54343 0.62984
 H1134 H 0.92133 0.53708 0.63611
 O1135 O 1.06468 0.48249 0.58925
 O1136 O 1.08541 0.48252 0.61023
 C1137 C 1.07091 0.47638 0.60384
 C1138 C 1.06139 0.46173 0.61319
 C1139 C 1.06717 0.45577 0.63005
 H1140 H 1.07823 0.46243 0.63660
 O1141 O 1.01788 0.41072 0.56458
 O1142 O 1.01793 0.38978 0.58537
 C1143 C 1.02402 0.39617 0.57084
 C1144 C 1.03869 0.38686 0.56132
 C1145 C 1.04473 0.37006 0.56716
 H1146 H 1.03811 0.36351 0.57826
 O1147 O 0.98238 0.58869 0.56482
 O1148 O 0.98221 0.60955 0.58569
 C1149 C 0.97620 0.60322 0.57110
 C1150 C 0.96160 0.61258 0.56152
 C1151 C 0.95555 0.62937 0.56738
 H1152 H 0.96211 0.63587 0.57855
 O1153 O 0.91103 0.56410 0.51735
 O1154 O 0.89006 0.58482 0.51736
 C1155 C 0.89643 0.57027 0.52343
 C1156 C 0.88703 0.56062 0.53797
 C1157 C 0.87020 0.56637 0.54396
 H1158 H 0.86388 0.57779 0.53767
 O1159 O 1.08951 0.43555 0.51765
 O1160 O 1.11047 0.41482 0.51769
 C1161 C 1.10407 0.42935 0.52378
 C1162 C 1.11339 0.43893 0.53842
 C1163 C 1.13021 0.43317 0.54444
 H1164 H 1.13677 0.42208 0.53781
 O1165 O 0.98285 0.43502 0.58903
 O1166 O 0.98285 0.41419 0.60994
 C1167 C 0.97673 0.42872 0.60358
 C1168 C 0.96207 0.43821 0.61294
 C1169 C 0.95609 0.43238 0.62978
 H1170 H 0.96275 0.42130 0.63632
 O1171 O 1.01729 0.56432 0.58939
 O1172 O 1.01716 0.58507 0.61038
 C1173 C 1.02333 0.57057 0.60400
 C1174 C 1.03796 0.56106 0.61339
 C1175 C 1.04399 0.56692 0.63021
 H1176 H 1.03766 0.57832 0.63654
 O1177 O 0.91113 0.48187 0.56434
 O1178 O 0.89016 0.48173 0.58508
 C1179 C 0.89658 0.47569 0.57054
 C1180 C 0.88729 0.46106 0.56091
 C1181 C 0.87049 0.45495 0.56667
 H1182 H 0.86411 0.46121 0.57807
 O1183 O 1.08908 0.51754 0.56488
 O1184 O 1.10993 0.51760 0.58574
 C1185 C 1.10360 0.52370 0.57119
 C1186 C 1.11293 0.53838 0.56169
 C1187 C 1.12973 0.54440 0.56753
 H1188 H 1.13626 0.53774 0.57863
 O1189 O 0.93611 0.41044 0.51715
 O1190 O 0.91543 0.38942 0.51705
 C1191 C 0.92991 0.39582 0.52321
 C1192 C 0.93942 0.38646 0.53786
 C1193 C 0.93360 0.36964 0.54386
 H1194 H 0.92252 0.36310 0.53719
 O1195 O 1.06441 0.58926 0.51786
 O1196 O 1.08510 0.61028 0.51800
 C1197 C 1.07057 0.60385 0.52402
 C1198 C 1.06093 0.61316 0.53862
 C1199 C 1.06662 0.63002 0.54467
 H1200 H 1.07800 0.63642 0.53839
 Cu1201 Cu 1.07483 0.50000 0.57499
 Cu1202 Cu 1.09978 0.50006 0.60010
 Cu1203 Cu 0.92536 0.49936 0.57457
 Cu1204 Cu 0.90027 0.49922 0.59955
 Cu1205 Cu 0.99985 0.57442 0.57501
 Cu1206 Cu 0.99967 0.59939 0.60013
 Cu1207 Cu 1.00036 0.42495 0.57473
 Cu1208 Cu 1.00039 0.39988 0.59976
 C1209 C 1.04654 0.54651 0.60516
 H1210 H 1.04212 0.54208 0.59208
 C1211 C 1.05849 0.55851 0.63870
 C1212 C 0.95349 0.45275 0.60470
 H1213 H 0.95788 0.45716 0.59162
 C1214 C 0.94161 0.44082 0.63830
 C1215 C 1.04641 0.60483 0.54713
 H1216 H 1.04209 0.59172 0.54269
 C1217 C 1.05807 0.63846 0.55913
 C1218 C 0.95396 0.39469 0.54646
 H1219 H 0.95837 0.40778 0.54205
 C1220 C 0.94200 0.36113 0.55837
 C1221 C 1.10472 0.54696 0.54713
 H1222 H 1.09166 0.54254 0.54270
 C1223 C 1.13823 0.55889 0.55910
 C1224 C 0.89560 0.45257 0.54635
 H1225 H 0.90866 0.45706 0.54199
 C1226 C 0.86208 0.44045 0.55813
 C1227 C 0.95318 0.54608 0.60485
 H1228 H 0.95763 0.54172 0.59176
 C1229 C 0.94115 0.55789 0.63842
 C1230 C 1.04686 0.45315 0.60495
 H1231 H 1.04247 0.45753 0.59185
 C1232 C 1.05871 0.44130 0.63857
 C1233 C 1.10513 0.45348 0.54695
 H1234 H 1.09206 0.45784 0.54253
 C1235 C 1.13868 0.44166 0.55892
 C1236 C 0.89527 0.54604 0.54650
 H1237 H 0.90836 0.54168 0.54211
 C1238 C 0.86168 0.55782 0.55838
 C1239 C 0.95314 0.60440 0.54686
 H1240 H 0.95759 0.59135 0.54242
 C1241 C 0.94112 0.63790 0.55887
 C1242 C 1.04723 0.39510 0.54675
 H1243 H 1.04279 0.40816 0.54232
 C1244 C 1.05923 0.36158 0.55873
 O1245 O 1.06520 0.48290 0.41119
 O1246 O 1.08603 0.48302 0.39032
 C1247 C 1.07150 0.47686 0.39661
 C1248 C 1.06202 0.46226 0.38714
 C1249 C 1.06788 0.45639 0.37028
 H1250 H 1.07896 0.46311 0.36381
 O1251 O 0.93594 0.51710 0.41080
 O1252 O 0.91524 0.51708 0.38979
 C1253 C 0.92974 0.52320 0.39620
 C1254 C 0.93932 0.53780 0.38683
 C1255 C 0.93363 0.54372 0.36993
 H1256 H 0.92231 0.53733 0.36352
 O1257 O 0.98271 0.58896 0.43552
 O1258 O 0.98265 0.60990 0.41473
 C1259 C 0.97657 0.60351 0.42926
 C1260 C 0.96192 0.61284 0.43879
 C1261 C 0.95589 0.62965 0.43297
 H1262 H 0.96251 0.63619 0.42186
 O1263 O 1.01831 0.41096 0.43527
 O1264 O 1.01848 0.39008 0.41441
 C1265 C 1.02448 0.39642 0.42901
 C1266 C 1.03904 0.38705 0.43863
 C1267 C 1.04510 0.37023 0.43283
 H1268 H 1.03886 0.36390 0.42139
 O1269 O 1.08962 0.43557 0.48275
 O1270 O 1.11059 0.41485 0.48275
 C1271 C 1.10421 0.42938 0.47667
 C1272 C 1.11360 0.43902 0.46210
 C1273 C 1.13039 0.43321 0.45603
 H1274 H 1.13670 0.42176 0.46227
 O1275 O 0.91114 0.56418 0.48244
 O1276 O 0.89016 0.58490 0.48240
 C1277 C 0.89657 0.57038 0.47630
 C1278 C 0.88726 0.56079 0.46165
 C1279 C 0.87046 0.56657 0.45558
 H1280 H 0.86409 0.57796 0.46188
 O1281 O 1.01775 0.56467 0.41110
 O1282 O 1.01774 0.58548 0.39018
 C1283 C 1.02387 0.57096 0.39654
 C1284 C 1.03853 0.56148 0.38719
 C1285 C 1.04457 0.56734 0.37038
 H1286 H 1.03823 0.57871 0.36403
 O1287 O 0.98341 0.43536 0.41075
 O1288 O 0.98354 0.41461 0.38977
 C1289 C 0.97736 0.42910 0.39614
 C1290 C 0.96272 0.43858 0.38676
 C1291 C 0.95676 0.43272 0.36992
 H1292 H 0.96344 0.42165 0.36340
 O1293 O 1.08951 0.51782 0.43583
 O1294 O 1.11048 0.51796 0.41509
 C1295 C 1.10407 0.52400 0.42964
 C1296 C 1.11336 0.53862 0.43926
 C1297 C 1.13017 0.54471 0.43353
 H1298 H 1.13657 0.53842 0.42214
 O1299 O 0.91147 0.48212 0.43517
 O1300 O 0.89062 0.48207 0.41431
 C1301 C 0.89694 0.47598 0.42887
 C1302 C 0.88759 0.46132 0.43840
 C1303 C 0.87080 0.45526 0.43256
 H1304 H 0.86447 0.46158 0.42116
 O1305 O 1.06452 0.58933 0.48295
 O1306 O 1.08520 0.61036 0.48304
 C1307 C 1.07072 0.60395 0.47689
 C1308 C 1.06116 0.61330 0.46226
 C1309 C 1.06692 0.63015 0.45625
 H1310 H 1.07828 0.63653 0.46259
 O1311 O 0.93621 0.41050 0.48223
 O1312 O 0.91554 0.38947 0.48210
 C1313 C 0.93006 0.39590 0.47607
 C1314 C 0.93972 0.38659 0.46148
 C1315 C 0.93401 0.36973 0.45543
 H1316 H 0.92263 0.36334 0.46170
 O1317 O 0.93602 0.48222 0.41074
 O1318 O 0.91530 0.48215 0.38975
 C1319 C 0.92983 0.47611 0.39613
 C1320 C 0.93948 0.46157 0.38674
 C1321 C 0.93370 0.45551 0.36990
 H1322 H 0.92226 0.46173 0.36358
 O1323 O 1.06510 0.51779 0.41126
 O1324 O 1.08595 0.51794 0.39040
 C1325 C 1.07137 0.52395 0.39671
 C1326 C 1.06179 0.53852 0.38730
 C1327 C 1.06763 0.54456 0.37049
 H1328 H 1.07880 0.53800 0.36401
 O1329 O 0.98346 0.41083 0.43520
 O1330 O 0.98359 0.38995 0.41435
 C1331 C 0.97745 0.39624 0.42890
 C1332 C 0.96287 0.38677 0.43840
 C1333 C 0.95698 0.36991 0.43255
 H1334 H 0.96367 0.36344 0.42144
 O1335 O 1.01756 0.58911 0.43566
 O1336 O 1.01755 0.61004 0.41486
 C1337 C 1.02361 0.60371 0.42943
 C1338 C 1.03814 0.61317 0.43904
 C1339 C 1.04408 0.63002 0.43323
 H1340 H 1.03746 0.63650 0.42208
 O1341 O 0.91162 0.43487 0.48221
 O1342 O 0.89082 0.41396 0.48208
 C1343 C 0.89710 0.42856 0.47605
 C1344 C 0.88770 0.43811 0.46145
 C1345 C 0.87091 0.43225 0.45543
 H1346 H 0.86443 0.42109 0.46203
 O1347 O 1.08909 0.56495 0.48299
 O1348 O 1.10990 0.58585 0.48308
 C1349 C 1.10365 0.57127 0.47695
 C1350 C 1.11313 0.56177 0.46238
 C1351 C 1.12994 0.56766 0.45646
 H1352 H 1.13638 0.57880 0.46312
 O1353 O 1.01827 0.43554 0.41084
 O1354 O 1.01845 0.41480 0.38985
 C1355 C 1.02444 0.42937 0.39626
 C1356 C 1.03900 0.43905 0.38694
 C1357 C 1.04505 0.43336 0.37008
 H1358 H 1.03881 0.42196 0.36367
 O1359 O 0.98289 0.56445 0.41102
 O1360 O 0.98284 0.58526 0.39010
 C1361 C 0.97682 0.57068 0.39642
 C1362 C 0.96232 0.56104 0.38696
 C1363 C 0.95645 0.56676 0.37005
 H1364 H 0.96308 0.57788 0.36354
 O1365 O 0.91140 0.51703 0.43523
 O1366 O 0.89057 0.51702 0.41435
 C1367 C 0.89686 0.52311 0.42894
 C1368 C 0.88742 0.53770 0.43848
 C1369 C 0.87062 0.54366 0.43260
 H1370 H 0.86415 0.53703 0.42145
 O1371 O 1.08960 0.48291 0.43576
 O1372 O 1.11055 0.48301 0.41501
 C1373 C 1.10418 0.47686 0.42952
 C1374 C 1.11356 0.46222 0.43904
 C1375 C 1.13035 0.45623 0.43317
 H1376 H 1.13685 0.46288 0.42205
 O1377 O 1.06520 0.41102 0.48265
 O1378 O 1.08605 0.39017 0.48265
 C1379 C 1.07151 0.39648 0.47653
 C1380 C 1.06205 0.38709 0.46187
 C1381 C 1.06791 0.37028 0.45589
 H1382 H 1.07898 0.36377 0.46258
 O1383 O 0.93550 0.58879 0.48258
 O1384 O 0.91466 0.60963 0.48254
 C1385 C 0.92923 0.60335 0.47648
 C1386 C 0.93880 0.61279 0.46191
 C1387 C 0.93295 0.62961 0.45588
 H1388 H 0.92152 0.63589 0.46217
 Cu1389 Cu 1.07527 0.50035 0.42560
 Cu1390 Cu 1.10036 0.50049 0.40062
 Cu1391 Cu 0.92578 0.49962 0.42508
 Cu1392 Cu 0.90084 0.49958 0.39995
 Cu1393 Cu 1.07468 0.57501 0.50041
 Cu1394 Cu 1.09958 0.60018 0.50054
 Cu1395 Cu 1.07528 0.42534 0.50015
 Cu1396 Cu 1.10037 0.40039 0.50018
 Cu1397 Cu 0.92536 0.57437 0.49997
 Cu1398 Cu 0.90026 0.59931 0.49995
 Cu1399 Cu 0.92594 0.42475 0.49968
 Cu1400 Cu 0.90104 0.39957 0.49955
 Cu1401 Cu 1.00023 0.57471 0.42541
 Cu1402 Cu 1.00019 0.59977 0.40037
 Cu1403 Cu 1.00086 0.42525 0.42510
 Cu1404 Cu 1.00103 0.40027 0.39999
 C1405 C 1.04747 0.45361 0.39527
 H1406 H 1.04303 0.45792 0.40838
 C1407 C 1.05948 0.44196 0.36164
 C1408 C 0.95378 0.54644 0.39516
 H1409 H 0.95808 0.54211 0.40830
 C1410 C 0.94213 0.55817 0.36142
 C1411 C 0.95339 0.60461 0.45338
 H1412 H 0.95782 0.59154 0.45779
 C1413 C 0.94142 0.63815 0.44142
 C1414 C 1.04750 0.39528 0.45326
 H1415 H 1.04307 0.40836 0.45765
 C1416 C 1.05951 0.36173 0.44140
 C1417 C 1.10538 0.45364 0.45362
 H1418 H 1.09232 0.45804 0.45806
 C1419 C 1.13887 0.44174 0.44157
 C1420 C 0.89555 0.54625 0.45311
 H1421 H 0.90861 0.54187 0.45757
 C1422 C 0.86202 0.55807 0.44108
 C1423 C 1.04713 0.54696 0.39545
 H1424 H 1.04270 0.54252 0.40852
 C1425 C 1.05910 0.55895 0.36192
 C1426 C 0.95409 0.45311 0.39496
 H1427 H 0.95847 0.45755 0.40805
 C1428 C 0.94226 0.44110 0.36138
 C1429 C 1.10504 0.54714 0.45380
 H1430 H 1.09196 0.54267 0.45814
 C1431 C 1.13858 0.55920 0.44206
 C1432 C 0.89584 0.45276 0.45295
 H1433 H 0.90890 0.45720 0.45737
 C1434 C 0.86235 0.44075 0.44101
 C1435 C 1.04665 0.60501 0.45367
 H1436 H 1.04229 0.59191 0.45807
 C1437 C 1.05845 0.63862 0.44175
 C1438 C 0.95425 0.39491 0.45299
 H1439 H 0.95857 0.40801 0.45742
 C1440 C 0.94258 0.36128 0.44098
 O1441 O 0.56420 1.01750 0.58908
 O1442 O 0.58494 1.01754 0.61006
 C1443 C 0.57039 1.02359 0.60369
 C1444 C 0.56077 1.03813 0.61310
 C1445 C 0.56656 1.04417 0.62993
 H1446 H 0.57799 1.03791 0.63626
 O1447 O 0.43526 0.98206 0.58893
 O1448 O 0.41445 0.98189 0.60983
 C1449 C 0.42902 0.97588 0.60348
 C1450 C 0.43862 0.96129 0.61284
 C1451 C 0.43281 0.95519 0.62965
 H1452 H 0.42138 0.96144 0.63598
 O1453 O 0.51684 1.08904 0.56467
 O1454 O 0.51675 1.10991 0.58553
 C1455 C 0.52288 1.10363 0.57097
 C1456 C 0.53745 1.11310 0.56147
 C1457 C 0.54340 1.12993 0.56738
 H1458 H 0.53675 1.13638 0.57852
 O1459 O 0.48263 0.91062 0.56422
 O1460 O 0.48267 0.88964 0.58497
 C1461 C 0.47658 0.89600 0.57043
 C1462 C 0.46205 0.88658 0.56080
 C1463 C 0.45606 0.86972 0.56656
 H1464 H 0.46234 0.86339 0.57798
 O1465 O 0.58860 1.06499 0.51763
 O1466 O 0.60943 1.08587 0.51772
 C1467 C 0.60313 1.07128 0.52377
 C1468 C 0.61253 1.06170 0.53835
 C1469 C 0.62933 1.06754 0.54439
 H1470 H 0.63562 1.07898 0.53812
 O1471 O 0.41112 0.93503 0.51699
 O1472 O 0.39027 0.91416 0.51693
 C1473 C 0.39657 0.92872 0.52306
 C1474 C 0.38714 0.93820 0.53769
 C1475 C 0.37032 0.93234 0.54359
 H1476 H 0.36384 0.92124 0.53689
 O1477 O 0.48206 1.06431 0.58907
 O1478 O 0.48193 1.08507 0.61003
 C1479 C 0.47592 1.07051 0.60365
 C1480 C 0.46136 1.06087 0.61302
 C1481 C 0.45533 1.06667 0.62984
 H1482 H 0.46190 1.07782 0.63637
 O1483 O 0.51735 0.93523 0.58881
 O1484 O 0.51742 0.91440 0.60971
 C1485 C 0.52345 0.92899 0.60339
 C1486 C 0.53796 0.93864 0.61283
 C1487 C 0.54388 0.93291 0.62973
 H1488 H 0.53756 0.92150 0.63606
 O1489 O 0.58884 0.98279 0.56452
 O1490 O 0.60972 0.98278 0.58535
 C1491 C 0.60342 0.97672 0.57076
 C1492 C 0.61287 0.96221 0.56113
 C1493 C 0.62974 0.95630 0.56688
 H1494 H 0.63606 0.96262 0.57830
 O1495 O 0.41071 1.01693 0.56446
 O1496 O 0.38979 1.01681 0.58524
 C1497 C 0.39612 1.02296 0.57071
 C1498 C 0.38669 1.03755 0.56117
 C1499 C 0.36987 1.04348 0.56702
 H1500 H 0.36339 1.03682 0.57815
 O1501 O 0.43485 1.08874 0.51742
 O1502 O 0.41400 1.10959 0.51746
 C1503 C 0.42856 1.10329 0.52354
 C1504 C 0.43811 1.11270 0.53814
 C1505 C 0.43232 1.12955 0.54412
 H1506 H 0.42093 1.13588 0.53778
 O1507 O 0.56467 0.91106 0.51719
 O1508 O 0.58553 0.89024 0.51720
 C1509 C 0.57097 0.89651 0.52328
 C1510 C 0.56143 0.88705 0.53786
 C1511 C 0.56733 0.87025 0.54389
 H1512 H 0.57878 0.86400 0.53760
 O1513 O 0.43514 1.01696 0.58902
 O1514 O 0.41434 1.01684 0.60992
 C1515 C 0.42886 1.02301 0.60360
 C1516 C 0.43836 1.03764 0.61303
 C1517 C 0.43250 1.04364 0.62986
 H1518 H 0.42112 1.03729 0.63617
 O1519 O 0.56430 0.98260 0.58895
 O1520 O 0.58504 0.98260 0.60992
 C1521 C 0.57053 0.97648 0.60352
 C1522 C 0.56100 0.96183 0.61287
 C1523 C 0.56673 0.95592 0.62976
 H1524 H 0.57776 0.96261 0.63634
 O1525 O 0.51749 0.91078 0.56427
 O1526 O 0.51758 0.88982 0.58504
 C1527 C 0.52365 0.89622 0.57051
 C1528 C 0.53831 0.88693 0.56097
 C1529 C 0.54438 0.87013 0.56679
 H1530 H 0.53778 0.86357 0.57790
 O1531 O 0.48198 1.08883 0.56458
 O1532 O 0.48185 1.10972 0.58544
 C1533 C 0.47581 1.10337 0.57086
 C1534 C 0.46120 1.11272 0.56129
 C1535 C 0.45523 1.12957 0.56707
 H1536 H 0.46187 1.13612 0.57817
 O1537 O 0.41047 1.06415 0.51734
 O1538 O 0.38949 1.08486 0.51739
 C1539 C 0.39588 1.07032 0.52346
 C1540 C 0.38654 1.06069 0.53804
 C1541 C 0.36972 1.06643 0.54409
 H1542 H 0.36336 1.07783 0.53781
 O1543 O 0.58899 0.93573 0.51724
 O1544 O 0.60998 0.91502 0.51724
 C1545 C 0.60357 0.92954 0.52334
 C1546 C 0.61292 0.93913 0.53795
 C1547 C 0.62979 0.93342 0.54387
 H1548 H 0.63636 0.92237 0.53719
 O1549 O 0.48249 0.93506 0.58879
 O1550 O 0.48253 0.91420 0.60966
 C1551 C 0.47640 0.92875 0.60334
 C1552 C 0.46177 0.93822 0.61275
 C1553 C 0.45578 0.93232 0.62956
 H1554 H 0.46242 0.92120 0.63605
 O1555 O 0.51692 1.06445 0.58909
 O1556 O 0.51682 1.08521 0.61006
 C1557 C 0.52298 1.07070 0.60369
 C1558 C 0.53760 1.06119 0.61307
 C1559 C 0.54358 1.06703 0.62991
 H1560 H 0.53693 1.07813 0.63643
 O1561 O 0.41086 0.98204 0.56436
 O1562 O 0.38992 0.98187 0.58512
 C1563 C 0.39631 0.97585 0.57056
 C1564 C 0.38699 0.96126 0.56090
 C1565 C 0.37017 0.95519 0.56662
 H1566 H 0.36379 0.96145 0.57803
 O1567 O 0.58869 1.01768 0.56462
 O1568 O 0.60956 1.01772 0.58546
 C1569 C 0.60322 1.02383 0.57092
 C1570 C 0.61255 1.03851 0.56143
 C1571 C 0.62935 1.04453 0.56727
 H1572 H 0.63588 1.03789 0.57837
 O1573 O 0.43565 0.91061 0.51695
 O1574 O 0.41493 0.88962 0.51690
 C1575 C 0.42944 0.89600 0.52301
 C1576 C 0.43898 0.88661 0.53762
 C1577 C 0.43320 0.86975 0.54356
 H1578 H 0.42212 0.86322 0.53688
 O1579 O 0.56403 1.08938 0.51763
 O1580 O 0.58473 1.11038 0.51772
 C1581 C 0.57021 1.10397 0.52377
 C1582 C 0.56059 1.11329 0.53838
 C1583 C 0.56635 1.13010 0.54448
 H1584 H 0.57776 1.13647 0.53822
 Cu1585 Cu 0.57443 1.00014 0.57470
 Cu1586 Cu 0.59940 1.00016 0.59980
 Cu1587 Cu 0.42508 0.99951 0.57461
 Cu1588 Cu 0.40003 0.99934 0.59962
 Cu1589 Cu 0.49946 1.07458 0.57476
 Cu1590 Cu 0.49932 1.09957 0.59987
 Cu1591 Cu 0.49998 0.92501 0.57444
 Cu1592 Cu 0.50006 0.89991 0.59944
 C1593 C 0.54618 1.04663 0.60487
 H1594 H 0.54179 1.04221 0.59178
 C1595 C 0.55804 1.05860 0.63845
 C1596 C 0.45321 0.95282 0.60459
 H1597 H 0.45761 0.95729 0.59152
 C1598 C 0.44132 0.94073 0.63812
 C1599 C 0.54603 1.10499 0.54686
 H1600 H 0.54167 1.09191 0.54239
 C1601 C 0.55783 1.13854 0.55896
 C1602 C 0.45352 0.89483 0.54621
 H1603 H 0.45791 0.90793 0.54185
 C1604 C 0.44164 0.86120 0.55802
 C1605 C 0.60434 1.04708 0.54685
 H1606 H 0.59129 1.04265 0.54242
 C1607 C 0.63785 1.05903 0.55883
 C1608 C 0.39529 0.95278 0.54632
 H1609 H 0.40837 0.95722 0.54198
 C1610 C 0.36172 0.94075 0.55804
 C1611 C 0.45289 1.04624 0.60481
 H1612 H 0.45732 1.04185 0.59173
 C1613 C 0.44092 1.05814 0.63837
 C1614 C 0.54650 0.95321 0.60460
 H1615 H 0.54217 0.95756 0.59147
 C1616 C 0.55824 0.94148 0.63831
 C1617 C 0.60466 0.95364 0.54656
 H1618 H 0.59155 0.95796 0.54220
 C1619 C 0.63831 0.94192 0.55833
 C1620 C 0.39483 1.04613 0.54657
 H1621 H 0.40791 1.04178 0.54214
 C1622 C 0.36127 1.05790 0.55857
 C1623 C 0.45266 1.10449 0.54672
 H1624 H 0.45705 1.09139 0.54234
 C1625 C 0.44081 1.13810 0.55856
 C1626 C 0.54681 0.89519 0.54638
 H1627 H 0.54235 0.90824 0.54197
 C1628 C 0.55888 0.86168 0.55834
 O1629 O 0.56449 0.98305 0.41087
 O1630 O 0.58528 0.98318 0.38995
 C1631 C 0.57076 0.97702 0.39627
 C1632 C 0.56127 0.96241 0.38682
 C1633 C 0.56706 0.95658 0.36993
 H1634 H 0.57811 0.96331 0.36342
 O1635 O 0.43539 1.01734 0.41062
 O1636 O 0.41466 1.01732 0.38964
 C1637 C 0.42916 1.02345 0.39604
 C1638 C 0.43870 1.03810 0.38670
 C1639 C 0.43295 1.04408 0.36984
 H1640 H 0.42162 1.03771 0.36345
 O1641 O 0.48212 1.08915 0.43550
 O1642 O 0.48205 1.11012 0.41474
 C1643 C 0.47597 1.10371 0.42927
 C1644 C 0.46131 1.11300 0.43881
 C1645 C 0.45526 1.12981 0.43300
 H1646 H 0.46188 1.13638 0.42191
 O1647 O 0.51767 0.91102 0.43501
 O1648 O 0.51781 0.89016 0.41414
 C1649 C 0.52384 0.89649 0.42873
 C1650 C 0.53843 0.88713 0.43832
 C1651 C 0.54453 0.87034 0.43248
 H1652 H 0.53829 0.86401 0.42103
 O1653 O 0.58906 0.93573 0.48234
 O1654 O 0.61005 0.91502 0.48230
 C1655 C 0.60365 0.92955 0.47623
 C1656 C 0.61301 0.93919 0.46166
 C1657 C 0.62981 0.93340 0.45558
 H1658 H 0.63613 0.92196 0.46183
 O1659 O 0.41052 1.06422 0.48242
 O1660 O 0.38953 1.08492 0.48242
 C1661 C 0.39595 1.07042 0.47630
 C1662 C 0.38665 1.06085 0.46164
 C1663 C 0.36983 1.06661 0.45558
 H1664 H 0.36344 1.07796 0.46191
 O1665 O 0.51713 1.06489 0.41099
 O1666 O 0.51709 1.08574 0.39011
 C1667 C 0.52322 1.07120 0.39644
 C1668 C 0.53787 1.06174 0.38705
 C1669 C 0.54385 1.06762 0.37023
 H1670 H 0.53719 1.07872 0.36373
 O1671 O 0.48274 0.93546 0.41054
 O1672 O 0.48284 0.91471 0.38955
 C1673 C 0.47668 0.92921 0.39594
 C1674 C 0.46204 0.93871 0.38656
 C1675 C 0.45604 0.93283 0.36975
 H1676 H 0.46267 0.92172 0.36324
 O1677 O 0.58884 1.01796 0.43549
 O1678 O 0.60976 1.01811 0.41471
 C1679 C 0.60338 1.02413 0.42927
 C1680 C 0.61271 1.03873 0.43890
 C1681 C 0.62956 1.04473 0.43318
 H1682 H 0.63613 1.03812 0.42209
 O1683 O 0.41099 0.98233 0.43501
 O1684 O 0.39011 0.98228 0.41418
 C1685 C 0.39645 0.97619 0.42873
 C1686 C 0.38709 0.96158 0.43830
 C1687 C 0.37024 0.95560 0.43253
 H1688 H 0.36389 0.96195 0.42116
 O1689 O 0.56409 1.08944 0.48273
 O1690 O 0.58479 1.11044 0.48277
 C1691 C 0.57029 1.10405 0.47665
 C1692 C 0.56071 1.11343 0.46205
 C1693 C 0.56652 1.13025 0.45601
 H1694 H 0.57793 1.13658 0.46231
 O1695 O 0.43565 0.91066 0.48204
 O1696 O 0.41493 0.88967 0.48195
 C1697 C 0.42946 0.89608 0.47589
 C1698 C 0.43906 0.88674 0.46129
 C1699 C 0.43330 0.86991 0.45521
 H1700 H 0.42190 0.86354 0.46148
 O1701 O 0.43547 0.98244 0.41052
 O1702 O 0.41472 0.98238 0.38957
 C1703 C 0.42926 0.97632 0.39593
 C1704 C 0.43887 0.96176 0.38653
 C1705 C 0.43305 0.95568 0.36972
 H1706 H 0.42161 0.96193 0.36341
 O1707 O 0.56442 1.01795 0.41092
 O1708 O 0.58522 1.01811 0.39002
 C1709 C 0.57066 1.02412 0.39636
 C1710 C 0.56105 1.03870 0.38699
 C1711 C 0.56685 1.04478 0.37018
 H1712 H 0.57827 1.03854 0.36384
 O1713 O 0.48281 0.91092 0.43499
 O1714 O 0.48291 0.89005 0.41412
 C1715 C 0.47678 0.89634 0.42868
 C1716 C 0.46219 0.88688 0.43818
 C1717 C 0.45625 0.87006 0.43230
 H1718 H 0.46289 0.86359 0.42117
 O1719 O 0.51699 1.08934 0.43554
 O1720 O 0.51695 1.11031 0.41477
 C1721 C 0.52305 1.10395 0.42932
 C1722 C 0.53763 1.11336 0.43889
 C1723 C 0.54362 1.13019 0.43305
 H1724 H 0.53702 1.13668 0.42190
 O1725 O 0.41112 0.93510 0.48207
 O1726 O 0.39028 0.91423 0.48199
 C1727 C 0.39658 0.92881 0.47594
 C1728 C 0.38717 0.93839 0.46137
 C1729 C 0.37033 0.93260 0.45542
 H1730 H 0.36382 0.92148 0.46206
 O1731 O 0.58864 1.06504 0.48273
 O1732 O 0.60947 1.08591 0.48278
 C1733 C 0.60319 1.07134 0.47667
 C1734 C 0.61264 1.06180 0.46209
 C1735 C 0.62948 1.06762 0.45619
 H1736 H 0.63578 1.07901 0.46256
 O1737 O 0.51760 0.93565 0.41063
 O1738 O 0.51774 0.91492 0.38963
 C1739 C 0.52374 0.92948 0.39603
 C1740 C 0.53827 0.93918 0.38669
 C1741 C 0.54426 0.93352 0.36979
 H1742 H 0.53799 0.92212 0.36340
 O1743 O 0.48227 1.06474 0.41091
 O1744 O 0.48220 1.08559 0.39003
 C1745 C 0.47618 1.07099 0.39633
 C1746 C 0.46167 1.06137 0.38686
 C1747 C 0.45573 1.06716 0.37000
 H1748 H 0.46232 1.07832 0.36351
 O1749 O 0.41088 1.01722 0.43508
 O1750 O 0.39002 1.01721 0.41422
 C1751 C 0.39631 1.02329 0.42881
 C1752 C 0.38685 1.03783 0.43839
 C1753 C 0.37004 1.04377 0.43254
 H1754 H 0.36359 1.03716 0.42136
 O1755 O 0.58897 0.98306 0.43536
 O1756 O 0.60988 0.98318 0.41457
 C1757 C 0.60354 0.97702 0.42909
 C1758 C 0.61294 0.96239 0.43860
 C1759 C 0.62974 0.95642 0.43272
 H1760 H 0.63623 0.96309 0.42161
 O1761 O 0.56465 0.91116 0.48227
 O1762 O 0.58552 0.89033 0.48225
 C1763 C 0.57097 0.89663 0.47615
 C1764 C 0.56149 0.88722 0.46150
 C1765 C 0.56739 0.87043 0.45548
 H1766 H 0.57851 0.86396 0.46213
 O1767 O 0.43487 1.08884 0.48252
 O1768 O 0.41402 1.10967 0.48252
 C1769 C 0.42859 1.10340 0.47644
 C1770 C 0.43815 1.11287 0.46189
 C1771 C 0.43228 1.12968 0.45588
 H1772 H 0.42083 1.13594 0.46216
 Cu1773 Cu 0.57459 1.00050 0.42525
 Cu1774 Cu 0.59963 1.00066 0.40022
 Cu1775 Cu 0.42526 0.99983 0.42489
 Cu1776 Cu 0.40029 0.99980 0.39980
 Cu1777 Cu 0.57426 1.07512 0.50017
 Cu1778 Cu 0.59919 1.10026 0.50026
 Cu1779 Cu 0.57475 0.92549 0.49976
 Cu1780 Cu 0.59987 0.90056 0.49975
 Cu1781 Cu 0.42476 1.07441 0.49992
 Cu1782 Cu 0.39965 1.09935 0.49995
 Cu1783 Cu 0.42546 0.92494 0.49951
 Cu1784 Cu 0.40051 0.89982 0.49944
 Cu1785 Cu 0.49963 1.07494 0.42532
 Cu1786 Cu 0.49956 1.10005 0.40032
 Cu1787 Cu 0.50020 0.92534 0.42489
 Cu1788 Cu 0.50034 0.90037 0.39976
 C1789 C 0.54676 0.95374 0.39500
 H1790 H 0.54237 0.95803 0.40814
 C1791 C 0.55863 0.94215 0.36130
 C1792 C 0.45317 1.04673 0.39502
 H1793 H 0.45752 1.04234 0.40813
 C1794 C 0.44140 1.05859 0.36137
 C1795 C 0.45277 1.10473 0.45337
 H1796 H 0.45722 1.09166 0.45777
 C1797 C 0.44076 1.13826 0.44145
 C1798 C 0.54690 0.89537 0.45294
 H1799 H 0.54243 0.90843 0.45736
 C1800 C 0.55900 0.86188 0.44099
 C1801 C 0.60478 0.95380 0.45318
 H1802 H 0.59172 0.95818 0.45763
 C1803 C 0.63829 0.94194 0.44113
 C1804 C 0.39496 1.04634 0.45305
 H1805 H 0.40803 1.04198 0.45749
 C1806 C 0.36141 1.05814 0.44105
 C1807 C 0.54645 1.04717 0.39523
 H1808 H 0.54206 1.04271 0.40830
 C1809 C 0.55831 1.05922 0.36168
 C1810 C 0.45348 0.95328 0.39475
 H1811 H 0.45789 0.95773 0.40783
 C1812 C 0.44155 0.94123 0.36122
 C1813 C 0.60445 1.04725 0.45347
 H1814 H 0.59135 1.04285 0.45779
 C1815 C 0.63806 1.05915 0.44175
 C1816 C 0.39536 0.95299 0.45282
 H1817 H 0.40845 0.95737 0.45718
 C1818 C 0.36175 0.94114 0.44103
 C1819 C 0.54615 1.10518 0.45350
 H1820 H 0.54175 1.09210 0.45793
 C1821 C 0.55806 1.13874 0.44153
 C1822 C 0.45362 0.89502 0.45279
 H1823 H 0.45798 0.90811 0.45725
 C1824 C 0.44182 0.86146 0.44074
 O1825 O 0.48332 0.43547 0.91084
 O1826 O 0.48349 0.41473 0.88984
 C1827 C 0.47730 0.42922 0.89622
 C1828 C 0.46266 0.43871 0.88683
 C1829 C 0.45673 0.43286 0.86998
 H1830 H 0.46341 0.42179 0.86346
 O1831 O 0.51740 0.56494 0.91121
 O1832 O 0.51734 0.58576 0.89030
 C1833 C 0.52350 0.57125 0.89665
 C1834 C 0.53816 0.56179 0.88727
 C1835 C 0.54409 0.56763 0.87043
 H1836 H 0.53739 0.57870 0.86390
 O1837 O 0.41132 0.48215 0.93520
 O1838 O 0.39051 0.48206 0.91430
 C1839 C 0.39682 0.47598 0.92887
 C1840 C 0.38749 0.46130 0.93835
 C1841 C 0.37068 0.45531 0.93253
 H1842 H 0.36414 0.46198 0.92145
 O1843 O 0.58920 0.51816 0.93576
 O1844 O 0.61014 0.51836 0.91500
 C1845 C 0.60374 0.52437 0.92956
 C1846 C 0.61303 0.53898 0.93921
 C1847 C 0.62986 0.54504 0.93351
 H1848 H 0.63627 0.53876 0.92213
 O1849 O 0.43606 0.41048 0.98213
 O1850 O 0.41540 0.38943 0.98200
 C1851 C 0.42991 0.39588 0.97597
 C1852 C 0.43958 0.38658 0.96137
 C1853 C 0.43385 0.36976 0.95525
 H1854 H 0.42243 0.36338 0.96147
 O1855 O 0.56420 0.58958 0.98297
 O1856 O 0.58485 0.61063 0.98307
 C1857 C 0.57037 0.60421 0.97692
 C1858 C 0.56079 0.61357 0.96232
 C1859 C 0.56655 0.63042 0.95631
 H1860 H 0.57792 0.63679 0.96264
 O1861 O 0.43571 0.51723 0.91086
 O1862 O 0.41503 0.51716 0.88983
 C1863 C 0.42951 0.52331 0.89626
 C1864 C 0.43904 0.53796 0.88692
 C1865 C 0.43329 0.54392 0.87004
 H1866 H 0.42196 0.53753 0.86366
 O1867 O 0.56496 0.48318 0.91114
 O1868 O 0.58577 0.48335 0.89024
 C1869 C 0.57127 0.47715 0.89655
 C1870 C 0.56183 0.46251 0.88711
 C1871 C 0.56769 0.45662 0.87025
 H1872 H 0.57875 0.46335 0.86377
 O1873 O 0.51825 0.41109 0.93534
 O1874 O 0.51847 0.39023 0.91447
 C1875 C 0.52446 0.39657 0.92906
 C1876 C 0.53908 0.38725 0.93866
 C1877 C 0.54520 0.37047 0.93284
 H1878 H 0.53895 0.36411 0.92140
 O1879 O 0.48230 0.58918 0.93563
 O1880 O 0.48222 0.61012 0.91483
 C1881 C 0.47613 0.60372 0.92935
 C1882 C 0.46142 0.61300 0.93884
 C1883 C 0.45533 0.62977 0.93297
 H1884 H 0.46195 0.63632 0.92187
 O1885 O 0.41067 0.56420 0.98245
 O1886 O 0.38964 0.58487 0.98239
 C1887 C 0.39609 0.57036 0.97630
 C1888 C 0.38682 0.56074 0.96165
 C1889 C 0.37001 0.56647 0.95556
 H1890 H 0.36361 0.57785 0.96184
 O1891 O 0.58959 0.43601 0.98269
 O1892 O 0.61061 0.41534 0.98270
 C1893 C 0.60420 0.42985 0.97661
 C1894 C 0.61355 0.43949 0.96202
 C1895 C 0.63034 0.43370 0.95594
 H1896 H 0.63668 0.42227 0.96220
 O1897 O 0.48255 0.56469 0.91112
 O1898 O 0.48246 0.58551 0.89021
 C1899 C 0.47646 0.57091 0.89652
 C1900 C 0.46198 0.56125 0.88706
 C1901 C 0.45605 0.56701 0.87018
 H1902 H 0.46263 0.57817 0.86369
 O1903 O 0.51818 0.43566 0.91090
 O1904 O 0.51838 0.41493 0.88990
 C1905 C 0.52435 0.42951 0.89631
 C1906 C 0.53887 0.43922 0.88697
 C1907 C 0.54493 0.43353 0.87012
 H1908 H 0.53871 0.42210 0.86373
 O1909 O 0.58941 0.48327 0.93566
 O1910 O 0.61034 0.48342 0.91488
 C1911 C 0.60401 0.47725 0.92941
 C1912 C 0.61343 0.46265 0.93893
 C1913 C 0.63023 0.45669 0.93304
 H1914 H 0.63670 0.46334 0.92191
 O1915 O 0.41113 0.51706 0.93526
 O1916 O 0.39033 0.51700 0.91435
 C1917 C 0.39657 0.52310 0.92895
 C1918 C 0.38708 0.53765 0.93848
 C1919 C 0.37026 0.54356 0.93259
 H1920 H 0.36384 0.53690 0.92143
 O1921 O 0.43497 0.58886 0.98256
 O1922 O 0.41408 0.60966 0.98250
 C1923 C 0.42867 0.60341 0.97645
 C1924 C 0.43823 0.61287 0.96188
 C1925 C 0.43231 0.62964 0.95581
 H1926 H 0.42083 0.63588 0.96205
 O1927 O 0.56526 0.41136 0.98258
 O1928 O 0.58616 0.39057 0.98260
 C1929 C 0.57160 0.39684 0.97648
 C1930 C 0.56215 0.38740 0.96183
 C1931 C 0.56807 0.37062 0.95583
 H1932 H 0.57920 0.36416 0.96247
 O1933 O 0.56480 0.51808 0.91119
 O1934 O 0.58561 0.51828 0.89030
 C1935 C 0.57103 0.52426 0.89663
 C1936 C 0.56138 0.53880 0.88724
 C1937 C 0.56713 0.54484 0.87039
 H1938 H 0.57855 0.53859 0.86406
 O1939 O 0.43590 0.48233 0.91080
 O1940 O 0.41521 0.48223 0.88978
 C1941 C 0.42975 0.47622 0.89618
 C1942 C 0.43943 0.46170 0.88679
 C1943 C 0.43368 0.45566 0.86994
 H1944 H 0.42225 0.46189 0.86360
 O1945 O 0.51717 0.58940 0.93576
 O1946 O 0.51713 0.61034 0.91496
 C1947 C 0.52321 0.60401 0.92953
 C1948 C 0.53774 0.61346 0.93913
 C1949 C 0.54368 0.63032 0.93332
 H1950 H 0.53706 0.63681 0.92218
 O1951 O 0.48339 0.41086 0.93522
 O1952 O 0.48356 0.39001 0.91434
 C1953 C 0.47738 0.39628 0.92889
 C1954 C 0.46278 0.38679 0.93834
 C1955 C 0.45686 0.36997 0.93241
 H1956 H 0.46354 0.36353 0.92128
 O1957 O 0.58879 0.56522 0.98300
 O1958 O 0.60957 0.58615 0.98309
 C1959 C 0.60334 0.57157 0.97695
 C1960 C 0.61281 0.56209 0.96236
 C1961 C 0.62965 0.56796 0.95648
 H1962 H 0.63610 0.57908 0.96316
 O1963 O 0.41143 0.43482 0.98213
 O1964 O 0.39064 0.41390 0.98201
 C1965 C 0.39692 0.42851 0.97598
 C1966 C 0.38751 0.43809 0.96141
 C1967 C 0.37069 0.43228 0.95539
 H1968 H 0.36439 0.42085 0.96167
 Cu1969 Cu 0.50077 0.42534 0.92517
 Cu1970 Cu 0.50099 0.40039 0.90003
 Cu1971 Cu 0.49986 0.57497 0.92552
 Cu1972 Cu 0.49978 0.60003 0.90048
 Cu1973 Cu 0.42559 0.49970 0.92513
 Cu1974 Cu 0.40068 0.49960 0.89996
 Cu1975 Cu 0.57501 0.50066 0.92552
 Cu1976 Cu 0.60007 0.50087 0.90051
 C1977 C 0.45403 0.45324 0.89504
 H1978 H 0.45838 0.45766 0.90814
 C1979 C 0.44225 0.44126 0.86142
 C1980 C 0.54679 0.54727 0.89549
 H1981 H 0.54243 0.54284 0.90858
 C1982 C 0.55855 0.55923 0.86187
 C1983 C 0.39571 0.45271 0.95290
 H1984 H 0.40878 0.45712 0.95731
 C1985 C 0.36216 0.44082 0.94097
 C1986 C 0.60471 0.54748 0.95375
 H1987 H 0.59162 0.54303 0.95807
 C1988 C 0.63829 0.55950 0.94208
 C1989 C 0.45415 0.39490 0.95293
 H1990 H 0.45849 0.40798 0.95742
 C1991 C 0.44241 0.36134 0.94079
 C1992 C 0.54627 0.60529 0.95374
 H1993 H 0.54192 0.59219 0.95814
 C1994 C 0.55807 0.63891 0.94184
 C1995 C 0.45349 0.54661 0.89523
 H1996 H 0.45784 0.54224 0.90835
 C1997 C 0.44173 0.55842 0.86156
 C1998 C 0.54731 0.45383 0.89527
 H1999 H 0.54286 0.45814 0.90838
 C2000 C 0.55931 0.44216 0.86164
 C2001 C 0.54754 0.39552 0.95326
 H2002 H 0.54305 0.40857 0.95767
 C2003 C 0.55967 0.36203 0.94135
 C2004 C 0.45289 0.60475 0.95341
 H2005 H 0.45737 0.59170 0.95786
 C2006 C 0.44079 0.63820 0.94137
 C2007 C 0.39516 0.54622 0.95313
 H2008 H 0.40823 0.54188 0.95760
 C2009 C 0.36161 0.55795 0.94104
 C2010 C 0.60529 0.45407 0.95353
 H2011 H 0.59223 0.45845 0.95798
 C2012 C 0.63880 0.44223 0.94147
 O2013 O 0.51759 0.43533 1.08903
 O2014 O 0.51766 0.41450 1.10993
 C2015 C 0.52367 0.42910 1.10362
 C2016 C 0.53814 0.43877 1.11310
 C2017 C 0.54410 0.43300 1.12997
 H2018 H 0.53784 0.42154 1.13626
 O2019 O 0.48198 0.56431 1.08916
 O2020 O 0.48177 0.58505 1.11016
 C2021 C 0.47580 0.57048 1.10375
 C2022 C 0.46127 0.56077 1.11308
 C2023 C 0.45523 0.56645 1.12995
 H2024 H 0.46147 0.57787 1.13634
 O2025 O 0.41069 0.51681 1.06432
 O2026 O 0.38976 0.51665 1.08509
 C2027 C 0.39610 0.52283 1.07058
 C2028 C 0.38669 0.53745 1.06107
 C2029 C 0.36989 0.54343 1.06696
 H2030 H 0.36342 0.53677 1.07808
 O2031 O 0.58898 0.48301 1.06488
 O2032 O 0.60979 0.48307 1.08577
 C2033 C 0.60355 0.47698 1.07118
 C2034 C 0.61305 0.46246 1.06162
 C2035 C 0.62987 0.45656 1.06750
 H2036 H 0.63630 0.46319 1.07867
 O2037 O 0.56514 0.41132 1.01749
 O2038 O 0.58605 0.39053 1.01755
 C2039 C 0.57145 0.39678 1.02360
 C2040 C 0.56190 0.38730 1.03816
 C2041 C 0.56778 0.37049 1.04413
 H2042 H 0.57894 0.36405 1.03752
 O2043 O 0.43489 0.58880 1.01746
 O2044 O 0.41400 0.60961 1.01746
 C2045 C 0.42856 0.60333 1.02358
 C2046 C 0.43804 0.61274 1.03823
 C2047 C 0.43216 0.62953 1.04427
 H2048 H 0.42076 0.63583 1.03794
 O2049 O 0.43531 0.48198 1.08878
 O2050 O 0.41449 0.48178 1.10967
 C2051 C 0.42907 0.47580 1.10334
 C2052 C 0.43871 0.46126 1.11274
 C2053 C 0.43294 0.45523 1.12958
 H2054 H 0.42150 0.46147 1.13590
 O2055 O 0.56422 0.51771 1.08938
 O2056 O 0.58492 0.51781 1.11039
 C2057 C 0.57038 0.52382 1.10400
 C2058 C 0.56071 0.53835 1.11338
 C2059 C 0.56646 0.54441 1.13022
 H2060 H 0.57790 0.53818 1.13656
 O2061 O 0.48298 0.41065 1.06433
 O2062 O 0.48301 0.38970 1.08511
 C2063 C 0.47694 0.39603 1.07054
 C2064 C 0.46243 0.38656 1.06092
 C2065 C 0.45652 0.36969 1.06670
 H2066 H 0.46314 0.36319 1.07783
 O2067 O 0.51676 0.58910 1.06484
 O2068 O 0.51659 0.60997 1.08570
 C2069 C 0.52276 0.60369 1.07115
 C2070 C 0.53734 0.61318 1.06166
 C2071 C 0.54320 0.63005 1.06752
 H2072 H 0.53651 0.63652 1.07863
 O2073 O 0.41136 0.43476 1.01703
 O2074 O 0.39058 0.41383 1.01695
 C2075 C 0.39682 0.42841 1.02308
 C2076 C 0.38733 0.43791 1.03766
 C2077 C 0.37050 0.43202 1.04356
 H2078 H 0.36407 0.42088 1.03689
 O2079 O 0.58870 0.56516 1.01790
 O2080 O 0.60948 0.58608 1.01804
 C2081 C 0.60320 0.57148 1.02407
 C2082 C 0.61259 0.56191 1.03867
 C2083 C 0.62938 0.56776 1.04471
 H2084 H 0.63568 0.57920 1.03843
 O2085 O 0.51683 0.56455 1.08929
 O2086 O 0.51666 0.58531 1.11027
 C2087 C 0.52285 0.57081 1.10391
 C2088 C 0.53748 0.56134 1.11332
 C2089 C 0.54342 0.56720 1.13016
 H2090 H 0.53673 0.57828 1.13667
 O2091 O 0.48273 0.43513 1.08886
 O2092 O 0.48277 0.41429 1.10976
 C2093 C 0.47662 0.42882 1.10340
 C2094 C 0.46194 0.43827 1.11276
 C2095 C 0.45598 0.43243 1.12960
 H2096 H 0.46266 0.42136 1.13613
 O2097 O 0.58876 0.51790 1.06494
 O2098 O 0.60958 0.51800 1.08583
 C2099 C 0.60326 0.52408 1.07126
 C2100 C 0.61260 0.53875 1.06176
 C2101 C 0.62939 0.54478 1.06761
 H2102 H 0.63591 0.53814 1.07872
 O2103 O 0.41090 0.48190 1.06421
 O2104 O 0.38995 0.48170 1.08497
 C2105 C 0.39636 0.47569 1.07041
 C2106 C 0.38709 0.46106 1.06078
 C2107 C 0.37026 0.45498 1.06650
 H2108 H 0.36386 0.46126 1.07787
 O2109 O 0.56406 0.58947 1.01787
 O2110 O 0.58471 0.61053 1.01801
 C2111 C 0.57019 0.60407 1.02403
 C2112 C 0.56051 0.61338 1.03861
 C2113 C 0.56619 0.63024 1.04466
 H2114 H 0.57758 0.63664 1.03840
 O2115 O 0.43597 0.41042 1.01704
 O2116 O 0.41533 0.38936 1.01696
 C2117 C 0.42981 0.39579 1.02310
 C2118 C 0.43940 0.38643 1.03770
 C2119 C 0.43367 0.36956 1.04368
 H2120 H 0.42232 0.36318 1.03733
 O2121 O 0.56439 0.48281 1.08927
 O2122 O 0.58509 0.48287 1.11028
 C2123 C 0.57061 0.47671 1.10386
 C2124 C 0.56111 0.46204 1.11319
 C2125 C 0.56687 0.45608 1.13006
 H2126 H 0.57790 0.46279 1.13664
 O2127 O 0.43513 0.51688 1.08887
 O2128 O 0.41431 0.51670 1.10976
 C2129 C 0.42883 0.52290 1.10346
 C2130 C 0.43828 0.53752 1.11292
 C2131 C 0.43244 0.54339 1.12979
 H2132 H 0.42137 0.53666 1.13628
 O2133 O 0.48190 0.58889 1.06473
 O2134 O 0.48169 0.60975 1.08560
 C2135 C 0.47569 0.60341 1.07101
 C2136 C 0.46108 0.61274 1.06143
 C2137 C 0.45502 0.62954 1.06727
 H2138 H 0.46160 0.63606 1.07842
 O2139 O 0.51784 0.41089 1.06446
 O2140 O 0.51792 0.38993 1.08524
 C2141 C 0.52401 0.39635 1.07071
 C2142 C 0.53869 0.38707 1.06118
 C2143 C 0.54477 0.37026 1.06697
 H2144 H 0.53845 0.36386 1.07834
 O2145 O 0.58947 0.43597 1.01760
 O2146 O 0.61050 0.41531 1.01766
 C2147 C 0.60405 0.42981 1.02375
 C2148 C 0.61332 0.43941 1.03840
 C2149 C 0.63013 0.43369 1.04448
 H2150 H 0.63654 0.42233 1.03817
 O2151 O 0.41056 0.56416 1.01735
 O2152 O 0.38954 0.58483 1.01736
 C2153 C 0.39595 0.57031 1.02344
 C2154 C 0.38659 0.56066 1.03801
 C2155 C 0.36980 0.56644 1.04409
 H2156 H 0.36347 0.57789 1.03785
 Cu2157 Cu 0.50028 0.42508 1.07459
 Cu2158 Cu 0.50035 0.40000 1.09960
 Cu2159 Cu 0.49938 0.57463 1.07491
 Cu2160 Cu 0.49916 0.59961 1.10003
 Cu2161 Cu 0.42577 0.42471 0.99959
 Cu2162 Cu 0.40091 0.39952 0.99947
 Cu2163 Cu 0.57527 0.42574 1.00009
 Cu2164 Cu 0.60044 0.40085 1.00014
 Cu2165 Cu 0.42487 0.57444 0.99996
 Cu2166 Cu 0.39971 0.59933 0.99992
 Cu2167 Cu 0.57437 0.57526 1.00042
 Cu2168 Cu 0.59924 0.60046 1.00057
 Cu2169 Cu 0.42509 0.49941 1.07446
 Cu2170 Cu 0.40003 0.49919 1.09946
 Cu2171 Cu 0.57451 0.50035 1.07503
 Cu2172 Cu 0.59943 0.50045 1.10018
 C2173 C 0.54663 0.45340 1.10491
 H2174 H 0.54227 0.45777 1.09180
 C2175 C 0.55845 0.44158 1.13856
 C2176 C 0.45281 0.54619 1.10476
 H2177 H 0.45724 0.54189 1.09165
 C2178 C 0.44084 0.55783 1.13842
 C2179 C 0.39484 0.54605 1.04648
 H2180 H 0.40790 0.54167 1.04202
 C2181 C 0.36134 0.55791 1.05856
 C2182 C 0.60497 0.45391 1.04696
 H2183 H 0.59189 0.45824 1.04250
 C2184 C 0.63853 0.44219 1.05901
 C2185 C 0.54725 0.39539 1.04666
 H2186 H 0.54279 0.40846 1.04228
 C2187 C 0.55929 0.36185 1.05851
 C2188 C 0.45261 0.60454 1.04680
 H2189 H 0.45706 0.59148 1.04237
 C2190 C 0.44058 0.63804 1.05878
 C2191 C 0.45333 0.45280 1.10453
 H2192 H 0.45771 0.45723 1.09144
 C2193 C 0.44150 0.44083 1.13813
 C2194 C 0.54611 0.54680 1.10513
 H2195 H 0.54176 0.54236 1.09204
 C2196 C 0.55789 0.55882 1.13873
 C2197 C 0.45389 0.39474 1.04631
 H2198 H 0.45822 0.40786 1.04193
 C2199 C 0.44216 0.36107 1.05815
 C2200 C 0.54597 0.60505 1.04709
 H2201 H 0.54168 0.59194 1.04265
 C2202 C 0.55761 0.63869 1.05909
 C2203 C 0.39542 0.45254 1.04625
 H2204 H 0.40850 0.45700 1.04193
 C2205 C 0.36185 0.44049 1.05795
 C2206 C 0.60440 0.54730 1.04718
 H2207 H 0.59135 0.54287 1.04274
 C2208 C 0.63790 0.55926 1.05916
 C2209 C 1.10060 1.12258 1.27597
 C2210 C 1.10942 1.10874 1.26708
 C2211 C 1.12528 1.10189 1.27411
 C2212 C 1.13241 1.10890 1.28993
 C2213 C 1.12380 1.12306 1.29912
 C2214 C 1.10764 1.12967 1.29178
 C2215 C 1.10230 1.10175 1.25061
 C2216 C 1.09639 1.09604 1.23673
 C2217 C 1.08954 1.08952 1.22039
 C2218 C 1.08376 1.08407 1.20635
 C2219 C 1.07695 1.07771 1.18949
 C2220 C 1.07553 1.05932 1.18624
 C2221 C 1.06917 1.05317 1.16975
 C2222 C 1.06414 1.06535 1.15630
 C2223 C 1.06555 1.08380 1.15974
 C2224 C 1.07192 1.08992 1.17623
 H2225 H 1.08824 1.12796 1.27066
 H2226 H 1.13226 1.09117 1.26729
 H2227 H 1.14483 1.10323 1.29455
 H2228 H 1.10012 1.14022 1.29812
 H2229 H 1.07938 1.04975 1.19642
 H2230 H 1.06805 1.03889 1.16757
 H2231 H 1.06203 1.09350 1.14958
 H2232 H 1.07303 1.10418 1.17859
 C2233 C 1.10717 0.62785 0.77104
 C2234 C 1.10917 0.60967 0.76706
 C2235 C 1.11822 0.59848 0.77903
 C2236 C 1.12529 0.60545 0.79490
 C2237 C 1.12340 0.62373 0.79900
 C2238 C 1.11421 0.63484 0.78689
 C2239 C 1.10214 0.60259 0.75059
 C2240 C 1.09633 0.59677 0.73671
 C2241 C 1.08966 0.59007 0.72036
 C2242 C 1.08409 0.58443 0.70631
 C2243 C 1.07761 0.57778 0.68944
 C2244 C 1.08973 0.57284 0.67607
 C2245 C 1.08352 0.56653 0.65960
 C2246 C 1.06507 0.56508 0.65627
 C2247 C 1.05298 0.57007 0.66980
 C2248 C 1.05923 0.57637 0.68628
 H2249 H 1.10025 0.63665 0.76183
 H2250 H 1.11982 0.58438 0.77610
 H2251 H 1.13208 0.59649 0.80402
 H2252 H 1.11274 0.64900 0.78950
 H2253 H 1.10399 0.57395 0.67834
 H2254 H 1.09315 0.56306 0.64936
 H2255 H 1.03870 0.56892 0.66771
 H2256 H 1.04972 0.58014 0.69655
 C2257 C 0.60118 1.12328 0.77526
 C2258 C 0.60979 1.10915 0.76662
 C2259 C 0.62546 1.10207 0.77388
 C2260 C 0.63259 1.10914 0.78966
 C2261 C 0.62419 1.12359 0.79860
 C2262 C 0.60823 1.13042 0.79104
 C2263 C 0.60267 1.10208 0.75018
 C2264 C 0.59678 1.09628 0.73633
 C2265 C 0.58996 1.08965 0.72002
 C2266 C 0.58419 1.08411 0.70600
 C2267 C 0.57740 1.07767 0.68917
 C2268 C 0.57601 1.05927 0.68598
 C2269 C 0.56964 1.05305 0.66952
 C2270 C 0.56456 1.06517 0.65604
 C2271 C 0.56595 1.08364 0.65942
 C2272 C 0.57233 1.08983 0.67587
 H2273 H 0.58898 1.12884 0.76977
 H2274 H 0.63226 1.09112 0.76726
 H2275 H 0.64483 1.10325 0.79448
 H2276 H 0.60090 1.14124 0.79714
 H2277 H 0.57988 1.04974 0.69619
 H2278 H 0.56854 1.03876 0.66739
 H2279 H 0.56239 1.09330 0.64922
 H2280 H 0.57342 1.10410 0.67817
 C2281 C 0.62485 0.60199 1.27439
 C2282 C 0.60934 0.60931 1.26705
 C2283 C 0.60092 0.62360 1.27561
 C2284 C 0.60802 0.63066 1.29142
 C2285 C 0.62383 0.62357 1.29907
 C2286 C 0.63202 0.60897 1.29019
 C2287 C 0.60220 0.60231 1.25058
 C2288 C 0.59631 0.59656 1.23671
 C2289 C 0.58952 0.58994 1.22038
 C2290 C 0.58380 0.58441 1.20635
 C2291 C 0.57708 0.57795 1.18949
 C2292 C 0.57197 0.59009 1.17619
 C2293 C 0.56565 0.58388 1.15972
 C2294 C 0.56436 0.56540 1.15633
 C2295 C 0.56949 0.55330 1.16981
 C2296 C 0.57580 0.55954 1.18628
 H2297 H 0.63150 0.59090 1.26783
 H2298 H 0.58885 0.62936 1.27004
 H2299 H 0.60085 0.64162 1.29745
 H2300 H 0.64412 0.60285 1.29509
 H2301 H 0.57298 0.60437 1.17851
 H2302 H 0.56206 0.59353 1.14953
 H2303 H 0.56847 0.53901 1.16766
 H2304 H 0.57970 0.55003 1.19649
 C2305 C 0.87441 0.89791 1.27426
 C2306 C 0.88987 0.89064 1.26676
 C2307 C 0.89839 0.87634 1.27521
 C2308 C 0.89145 0.86923 1.29107
 C2309 C 0.87570 0.87628 1.29888
 C2310 C 0.86740 0.89088 1.29011
 C2311 C 0.89686 0.89768 1.25025
 C2312 C 0.90265 0.90347 1.23635
 C2313 C 0.90936 0.91010 1.21999
 C2314 C 0.91503 0.91564 1.20594
 C2315 C 0.92174 0.92208 1.18907
 C2316 C 0.92681 0.90992 1.17578
 C2317 C 0.93317 0.91610 1.15931
 C2318 C 0.93452 0.93457 1.15592
 C2319 C 0.92941 0.94670 1.16938
 C2320 C 0.92307 0.94048 1.18586
 H2321 H 0.86769 0.90900 1.26779
 H2322 H 0.91041 0.87061 1.26952
 H2323 H 0.89869 0.85826 1.29699
 H2324 H 0.85535 0.89698 1.29514
 H2325 H 0.92577 0.89564 1.17810
 H2326 H 0.93674 0.90644 1.14913
 H2327 H 0.93049 0.96098 1.16724
 H2328 H 0.91920 0.95001 1.19607
 C2329 C 0.87457 0.39805 0.77415
 C2330 C 0.89006 0.39076 0.76674
 C2331 C 0.89854 0.37648 0.77526
 C2332 C 0.89153 0.36940 0.79109
 C2333 C 0.87574 0.37645 0.79882
 C2334 C 0.86748 0.39105 0.78998
 C2335 C 0.89713 0.39776 0.75024
 C2336 C 0.90300 0.40349 0.73636
 C2337 C 0.90980 0.41006 0.72001
 C2338 C 0.91555 0.41554 0.70597
 C2339 C 0.92232 0.42192 0.68910
 C2340 C 0.92741 0.40971 0.67585
 C2341 C 0.93377 0.41585 0.65937
 C2342 C 0.93512 0.43431 0.65591
 C2343 C 0.93002 0.44648 0.66935
 C2344 C 0.92367 0.44031 0.68583
 H2345 H 0.86788 0.40913 0.76763
 H2346 H 0.91059 0.37074 0.76963
 H2347 H 0.89875 0.35844 0.79708
 H2348 H 0.85540 0.39714 0.79494
 H2349 H 0.92636 0.39545 0.67822
 H2350 H 0.93734 0.40615 0.64921
 H2351 H 0.93110 0.46076 0.66716
 H2352 H 0.91980 0.44987 0.69601
 C2353 C 0.37148 0.89253 0.77035
 C2354 C 0.38961 0.89028 0.76636
 C2355 C 0.40068 0.88112 0.77834
 C2356 C 0.39365 0.87418 0.79424
 C2357 C 0.37542 0.87632 0.79836
 C2358 C 0.36443 0.88561 0.78623
 C2359 C 0.39678 0.89720 0.74987
 C2360 C 0.40269 0.90292 0.73600
 C2361 C 0.40951 0.90952 0.71967
 C2362 C 0.41526 0.91506 0.70566
 C2363 C 0.42202 0.92154 0.68883
 C2364 C 0.42711 0.90941 0.67550
 C2365 C 0.43347 0.91564 0.65905
 C2366 C 0.43481 0.93412 0.65570
 C2367 C 0.42971 0.94621 0.66920
 C2368 C 0.42336 0.93994 0.68566
 H2369 H 0.36277 0.89954 0.76113
 H2370 H 0.41475 0.87933 0.77541
 H2371 H 0.40253 0.86731 0.80337
 H2372 H 0.35031 0.88728 0.78885
 H2373 H 0.42607 0.89513 0.67779
 H2374 H 0.43704 0.90600 0.64884
 H2375 H 0.43078 0.96050 0.66709
 H2376 H 0.41948 0.94945 0.69589
 C2377 C 0.37485 0.39809 1.27416
 C2378 C 0.39020 0.39064 1.26661
 C2379 C 0.39856 0.37623 1.27503
 C2380 C 0.39159 0.36919 1.29088
 C2381 C 0.37595 0.37641 1.29875
 C2382 C 0.36779 0.39112 1.29002
 C2383 C 0.39724 0.39764 1.25010
 C2384 C 0.40308 0.40338 1.23621
 C2385 C 0.40984 0.40996 1.21985
 C2386 C 0.41555 0.41546 1.20580
 C2387 C 0.42228 0.42187 1.18894
 C2388 C 0.42739 0.40968 1.17567
 C2389 C 0.43372 0.41584 1.15919
 C2390 C 0.43502 0.43430 1.15574
 C2391 C 0.42990 0.44645 1.16918
 C2392 C 0.42358 0.44026 1.18567
 H2393 H 0.36824 0.40927 1.26773
 H2394 H 0.41051 0.37037 1.26929
 H2395 H 0.39871 0.35811 1.29677
 H2396 H 0.35583 0.39736 1.29510
 H2397 H 0.42637 0.39541 1.17803
 H2398 H 0.43731 0.40616 1.14903
 H2399 H 0.43094 0.46074 1.16700
 H2400 H 0.41968 0.44981 1.19586
 C2401 C 0.89953 1.12212 0.72383
 C2402 C 0.89074 1.10816 0.73256
 C2403 C 0.87497 1.10123 0.72536
 C2404 C 0.86792 1.10830 0.70954
 C2405 C 0.87650 1.12259 0.70051
 C2406 C 0.89256 1.12926 0.70801
 C2407 C 0.89774 1.10113 0.74906
 C2408 C 0.90354 1.09539 0.76297
 C2409 C 0.91024 1.08885 0.77937
 C2410 C 0.91590 1.08340 0.79345
 C2411 C 0.92256 1.07708 0.81038
 C2412 C 0.92401 1.05870 0.81367
 C2413 C 0.93027 1.05259 0.83021
 C2414 C 0.93516 1.06481 0.84368
 C2415 C 0.93370 1.08326 0.84021
 C2416 C 0.92743 1.08933 0.82367
 H2417 H 0.91180 1.12757 0.72929
 H2418 H 0.86802 1.09041 0.73205
 H2419 H 0.85559 1.10254 0.70478
 H2420 H 0.90003 1.13994 0.70183
 H2421 H 0.92030 1.04910 0.80346
 H2422 H 0.93143 1.03832 0.83242
 H2423 H 0.93711 1.09298 0.85039
 H2424 H 0.92629 1.10358 0.82129
 C2425 C 0.89367 0.62629 0.22871
 C2426 C 0.89146 0.60813 0.23266
 C2427 C 0.88231 0.59705 0.22066
 C2428 C 0.87535 0.60412 0.20479
 C2429 C 0.87746 0.62238 0.20071
 C2430 C 0.88674 0.63338 0.21286
 C2431 C 0.89839 0.60097 0.24913
 C2432 C 0.90415 0.59516 0.26302
 C2433 C 0.91083 0.58856 0.27940
 C2434 C 0.91648 0.58311 0.29349
 C2435 C 0.92315 0.57680 0.31042
 C2436 C 0.92464 0.55843 0.31372
 C2437 C 0.93089 0.55235 0.33027
 C2438 C 0.93574 0.56459 0.34373
 C2439 C 0.93424 0.58303 0.34025
 C2440 C 0.92798 0.58907 0.32370
 H2441 H 0.90066 0.63501 0.23795
 H2442 H 0.88055 0.58296 0.22357
 H2443 H 0.86849 0.59525 0.19564
 H2444 H 0.88837 0.64753 0.21028
 H2445 H 0.92095 0.54882 0.30351
 H2446 H 0.93209 0.53808 0.33249
 H2447 H 0.93762 0.59277 0.35043
 H2448 H 0.92681 0.60332 0.32131
 C2449 C 0.38123 1.09768 0.22082
 C2450 C 0.39031 1.10880 0.23284
 C2451 C 0.39248 1.12697 0.22888
 C2452 C 0.38557 1.13402 0.21300
 C2453 C 0.37636 1.12297 0.20083
 C2454 C 0.37429 1.10471 0.20493
 C2455 C 0.39726 1.10167 0.24932
 C2456 C 0.40305 1.09586 0.26320
 C2457 C 0.40978 1.08925 0.27956
 C2458 C 0.41547 1.08377 0.29362
 C2459 C 0.42220 1.07741 0.31051
 C2460 C 0.42708 1.08963 0.32382
 C2461 C 0.43341 1.08353 0.34032
 C2462 C 0.43494 1.06507 0.34373
 C2463 C 0.43004 1.05288 0.33024
 C2464 C 0.42372 1.05903 0.31373
 H2465 H 0.37951 1.08359 0.22374
 H2466 H 0.39942 1.13572 0.23812
 H2467 H 0.38717 1.14816 0.21040
 H2468 H 0.36748 1.09581 0.19576
 H2469 H 0.42589 1.10389 0.32149
 H2470 H 0.43683 1.09323 0.35053
 H2471 H 0.43125 1.03861 0.33240
 H2472 H 0.42000 1.04945 0.30350
 C2473 C 0.39276 0.62677 0.72914
 C2474 C 0.39059 0.60859 0.73306
 C2475 C 0.38150 0.59750 0.72102
 C2476 C 0.37456 0.60456 0.70515
 C2477 C 0.37663 0.62283 0.70109
 C2478 C 0.38584 0.63385 0.71327
 C2479 C 0.39754 0.60142 0.74952
 C2480 C 0.40334 0.59560 0.76339
 C2481 C 0.41008 0.58900 0.77974
 C2482 C 0.41578 0.58352 0.79380
 C2483 C 0.42251 0.57718 0.81069
 C2484 C 0.42403 0.55880 0.81393
 C2485 C 0.43036 0.55268 0.83044
 C2486 C 0.43526 0.56488 0.84392
 C2487 C 0.43374 0.58333 0.84049
 C2488 C 0.42741 0.58942 0.82398
 H2489 H 0.39970 0.63549 0.73840
 H2490 H 0.37977 0.58340 0.72391
 H2491 H 0.36774 0.59568 0.69596
 H2492 H 0.38745 0.64800 0.71071
 H2493 H 0.42030 0.54921 0.80372
 H2494 H 0.43157 0.53841 0.83262
 H2495 H 0.43716 0.59305 0.85068
 H2496 H 0.42622 0.60367 0.82164
 C2497 C 1.09773 0.88281 0.72075
 C2498 C 1.10888 0.89180 0.73280
 C2499 C 1.12704 0.89385 0.72887
 C2500 C 1.13406 0.88690 0.71300
 C2501 C 1.12299 0.87776 0.70082
 C2502 C 1.10472 0.87583 0.70486
 C2503 C 1.10178 0.89871 0.74930
 C2504 C 1.09598 0.90443 0.76322
 C2505 C 1.08937 0.91104 0.77962
 C2506 C 1.08388 0.91662 0.79372
 C2507 C 1.07752 0.92319 0.81066
 C2508 C 1.08972 0.92810 0.82398
 C2509 C 1.08361 0.93429 0.84053
 C2510 C 1.06518 0.93564 0.84399
 C2511 C 1.05301 0.93071 0.83051
 C2512 C 1.05915 0.92453 0.81395
 H2513 H 1.08363 0.88117 0.72364
 H2514 H 1.13581 0.90072 0.73815
 H2515 H 1.14821 0.88839 0.71044
 H2516 H 1.09580 0.86908 0.69568
 H2517 H 1.10397 0.92704 0.82160
 H2518 H 1.09331 0.93773 0.85073
 H2519 H 1.03875 0.93179 0.83271
 H2520 H 1.04959 0.92078 0.80372
 C2521 C 1.10772 0.37308 0.22914
 C2522 C 1.10993 0.39124 0.23307
 C2523 C 1.11903 0.40233 0.22105
 C2524 C 1.12596 0.39527 0.20517
 C2525 C 1.12385 0.37700 0.20110
 C2526 C 1.11461 0.36600 0.21327
 C2527 C 1.10300 0.39842 0.24954
 C2528 C 1.09726 0.40428 0.26343
 C2529 C 1.09063 0.41099 0.27978
 C2530 C 1.08508 0.41660 0.29384
 C2531 C 1.07860 0.42318 0.31074
 C2532 C 1.09073 0.42814 0.32411
 C2533 C 1.08451 0.43431 0.34063
 C2534 C 1.06606 0.43559 0.34401
 C2535 C 1.05397 0.43061 0.33046
 C2536 C 1.06022 0.42445 0.31394
 H2537 H 1.10076 0.36436 0.23840
 H2538 H 1.12079 0.41642 0.22395
 H2539 H 1.13279 0.40414 0.19599
 H2540 H 1.11298 0.35185 0.21069
 H2541 H 1.10499 0.42714 0.32180
 H2542 H 1.09415 0.43779 0.35087
 H2543 H 1.03970 0.43164 0.33260
 H2544 H 1.05072 0.42066 0.30367
 C2545 C 0.62300 0.90011 0.22403
 C2546 C 0.60854 0.89180 0.23239
 C2547 C 0.60103 0.87648 0.22481
 C2548 C 0.60802 0.86936 0.20899
 C2549 C 0.62281 0.87744 0.20032
 C2550 C 0.63006 0.89308 0.20820
 C2551 C 0.60157 0.89883 0.24890
 C2552 C 0.59585 0.90460 0.26283
 C2553 C 0.58929 0.91125 0.27924
 C2554 C 0.58382 0.91684 0.29334
 C2555 C 0.57746 0.92341 0.31028
 C2556 C 0.55909 0.92468 0.31358
 C2557 C 0.55294 0.93084 0.33014
 C2558 C 0.56511 0.93582 0.34362
 C2559 C 0.58355 0.93454 0.34013
 C2560 C 0.58966 0.92837 0.32357
 H2561 H 0.62891 0.91203 0.22979
 H2562 H 0.58980 0.86991 0.23120
 H2563 H 0.60173 0.85743 0.20390
 H2564 H 0.64120 0.90014 0.20236
 H2565 H 0.54953 0.92089 0.30337
 H2566 H 0.53868 0.93187 0.33236
 H2567 H 0.59324 0.93802 0.35031
 H2568 H 0.60391 0.92736 0.32118
 C2569 C 0.62387 0.39962 0.72454
 C2570 C 0.60966 0.39112 0.73314
 C2571 C 0.60242 0.37554 0.72584
 C2572 C 0.60941 0.36837 0.71004
 C2573 C 0.62393 0.37665 0.70113
 C2574 C 0.63094 0.39254 0.70874
 C2575 C 0.60268 0.39824 0.74962
 C2576 C 0.59694 0.40410 0.76350
 C2577 C 0.59034 0.41085 0.77986
 C2578 C 0.58482 0.41652 0.79391
 C2579 C 0.57838 0.42319 0.81079
 C2580 C 0.56000 0.42447 0.81400
 C2581 C 0.55377 0.43071 0.83051
 C2582 C 0.56588 0.43576 0.84401
 C2583 C 0.58433 0.43448 0.84061
 C2584 C 0.59052 0.42823 0.82411
 H2585 H 0.62957 0.41175 0.73007
 H2586 H 0.59140 0.36882 0.73243
 H2587 H 0.60336 0.35621 0.70519
 H2588 H 0.64183 0.39977 0.70267
 H2589 H 0.55048 0.42063 0.80377
 H2590 H 0.53950 0.43174 0.83266
 H2591 H 0.59398 0.43802 0.85082
 H2592 H 0.60478 0.42722 0.82179
 C2593 C 1.27521 1.12365 1.10042
 C2594 C 1.26653 1.10956 1.10905
 C2595 C 1.27387 1.10230 1.12462
 C2596 C 1.28979 1.10915 1.13162
 C2597 C 1.29880 1.12354 1.12319
 C2598 C 1.29114 1.13057 1.10734
 C2599 C 1.24997 1.10267 1.10208
 C2600 C 1.23602 1.09697 1.09635
 C2601 C 1.21962 1.09036 1.08978
 C2602 C 1.20554 1.08477 1.08429
 C2603 C 1.18863 1.07816 1.07791
 C2604 C 1.17535 1.07319 1.09012
 C2605 C 1.15885 1.06693 1.08399
 C2606 C 1.15541 1.06555 1.06553
 C2607 C 1.16885 1.07055 1.05335
 C2608 C 1.18536 1.07681 1.05952
 H2609 H 1.26965 1.12935 1.08830
 H2610 H 1.26722 1.09138 1.13144
 H2611 H 1.29467 1.10310 1.14377
 H2612 H 1.29726 1.14137 1.10000
 H2613 H 1.17772 1.07425 1.10439
 H2614 H 1.14868 1.06343 1.09369
 H2615 H 1.16666 1.06946 1.03906
 H2616 H 1.19556 1.08059 1.04994
 C2617 C 1.27530 0.62397 0.60088
 C2618 C 1.26681 0.60962 0.60928
 C2619 C 1.27434 0.60211 0.62463
 C2620 C 1.29024 0.60896 0.63165
 C2621 C 1.29906 0.62361 0.62346
 C2622 C 1.29121 0.63090 0.60782
 C2623 C 1.25026 0.60272 0.60228
 C2624 C 1.23634 0.59700 0.59653
 C2625 C 1.21995 0.59036 0.58995
 C2626 C 1.20588 0.58474 0.58446
 C2627 C 1.18900 0.57809 0.57805
 C2628 C 1.17573 0.57305 0.59025
 C2629 C 1.15925 0.56674 0.58410
 C2630 C 1.15582 0.56540 0.56563
 C2631 C 1.16925 0.57048 0.55347
 C2632 C 1.18574 0.57677 0.55966
 H2633 H 1.26958 0.62988 0.58893
 H2634 H 1.26785 0.59097 0.63126
 H2635 H 1.29530 0.60267 0.64361
 H2636 H 1.29715 0.64194 0.60068
 H2637 H 1.17809 0.57408 0.60452
 H2638 H 1.14909 0.56319 0.59378
 H2639 H 1.16707 0.56941 0.53918
 H2640 H 1.19593 0.58061 0.55010
 C2641 C 0.77018 1.10769 0.62757
 C2642 C 0.76622 1.10990 0.60940
 C2643 C 0.77827 1.11892 0.59828
 C2644 C 0.79420 1.12575 0.60529
 C2645 C 0.79830 1.12364 0.62356
 C2646 C 0.78610 1.11450 0.63461
 C2647 C 0.74972 1.10304 0.60225
 C2648 C 0.73583 1.09732 0.59642
 C2649 C 0.71947 1.09067 0.58977
 C2650 C 0.70543 1.08502 0.58424
 C2651 C 0.68857 1.07832 0.57782
 C2652 C 0.68533 1.07698 0.55942
 C2653 C 0.66887 1.07065 0.55322
 C2654 C 0.65543 1.06556 0.56537
 C2655 C 0.65884 1.06692 0.58384
 C2656 C 0.67530 1.07326 0.59000
 H2657 H 0.76091 1.10079 0.63631
 H2658 H 0.77536 1.12068 0.58418
 H2659 H 0.80339 1.13251 0.59639
 H2660 H 0.78870 1.11286 0.64875
 H2661 H 0.69552 1.08084 0.54987
 H2662 H 0.66670 1.06956 0.53893
 H2663 H 0.64868 1.06335 0.59352
 H2664 H 0.67764 1.07431 0.60427
 C2665 C 0.77061 0.60745 1.12763
 C2666 C 0.76656 0.60965 1.10948
 C2667 C 0.77857 0.61859 1.09827
 C2668 C 0.79457 0.62538 1.10518
 C2669 C 0.79876 0.62328 1.12343
 C2670 C 0.78660 0.61421 1.13456
 C2671 C 0.74998 0.60285 1.10244
 C2672 C 0.73604 0.59720 1.09667
 C2673 C 0.71963 0.59063 1.09007
 C2674 C 0.70555 0.58505 1.08456
 C2675 C 0.68866 0.57844 1.07815
 C2676 C 0.68541 0.57712 1.05974
 C2677 C 0.66893 0.57083 1.05355
 C2678 C 0.65548 0.56578 1.06570
 C2679 C 0.65890 0.56713 1.08417
 C2680 C 0.67538 0.57342 1.09033
 H2681 H 0.76137 0.60060 1.13645
 H2682 H 0.77558 0.62033 1.08419
 H2683 H 0.80373 0.63208 1.09621
 H2684 H 0.78928 0.61259 1.14870
 H2685 H 0.69562 0.58094 1.05019
 H2686 H 0.66676 0.56976 1.03926
 H2687 H 0.64873 0.56359 1.09385
 H2688 H 0.67772 0.57445 1.10460
 C2689 C 1.27401 0.89832 0.87562
 C2690 C 1.26675 0.89116 0.89127
 C2691 C 1.27536 0.87698 0.89983
 C2692 C 1.29111 0.86987 0.89274
 C2693 C 1.29867 0.87678 0.87679
 C2694 C 1.28976 0.89128 0.86845
 C2695 C 1.25032 0.89819 0.89838
 C2696 C 1.23646 0.90399 0.90422
 C2697 C 1.22014 0.91068 0.91089
 C2698 C 1.20610 0.91631 0.91644
 C2699 C 1.18923 0.92296 0.92286
 C2700 C 1.18600 0.92433 0.94126
 C2701 C 1.16951 0.93058 0.94745
 C2702 C 1.15604 0.93555 0.93529
 C2703 C 1.15944 0.93416 0.91683
 C2704 C 1.17592 0.92790 0.91067
 H2705 H 1.26742 0.90931 0.86886
 H2706 H 1.26985 0.87135 0.91201
 H2707 H 1.29718 0.85900 0.90003
 H2708 H 1.29459 0.89725 0.85624
 H2709 H 1.19622 0.92056 0.95081
 H2710 H 1.16735 0.93169 0.96174
 H2711 H 1.14925 0.93763 0.90714
 H2712 H 1.17825 0.92682 0.89640
 C2713 C 1.27565 0.37665 0.39920
 C2714 C 1.26697 0.39074 0.39058
 C2715 C 1.27419 0.39787 0.37490
 C2716 C 1.28999 0.39090 0.36777
 C2717 C 1.29899 0.37649 0.37618
 C2718 C 1.29145 0.36960 0.39216
 C2719 C 1.25051 0.39773 0.39768
 C2720 C 1.23665 0.40351 0.40352
 C2721 C 1.22034 0.41019 0.41023
 C2722 C 1.20632 0.41583 0.41583
 C2723 C 1.18949 0.42249 0.42234
 C2724 C 1.17616 0.42755 0.41022
 C2725 C 1.15973 0.43387 0.41647
 C2726 C 1.15641 0.43521 0.43496
 C2727 C 1.16991 0.43012 0.44704
 C2728 C 1.18634 0.42381 0.44076
 H2729 H 1.27018 0.37104 0.41140
 H2730 H 1.26754 0.40880 0.36809
 H2731 H 1.29479 0.39684 0.35553
 H2732 H 1.29760 0.35881 0.39950
 H2733 H 1.17843 0.42652 0.39594
 H2734 H 1.14953 0.43744 0.40684
 H2735 H 1.16781 0.43118 0.46134
 H2736 H 1.19658 0.41995 0.45026
 C2737 C 0.77016 0.87199 0.39267
 C2738 C 0.76627 0.89018 0.39062
 C2739 C 0.77829 0.90132 0.38160
 C2740 C 0.79413 0.89430 0.37459
 C2741 C 0.79816 0.87601 0.37652
 C2742 C 0.78600 0.86494 0.38569
 C2743 C 0.74983 0.89734 0.39759
 C2744 C 0.73598 0.90326 0.40333
 C2745 C 0.71969 0.91009 0.40994
 C2746 C 0.70570 0.91585 0.41548
 C2747 C 0.68890 0.92263 0.42196
 C2748 C 0.67561 0.92774 0.40982
 C2749 C 0.65919 0.93410 0.41605
 C2750 C 0.65584 0.93543 0.43453
 C2751 C 0.66931 0.93031 0.44663
 C2752 C 0.68574 0.92395 0.44037
 H2753 H 0.76091 0.86323 0.39957
 H2754 H 0.77542 0.91544 0.37997
 H2755 H 0.80330 0.90322 0.36783
 H2756 H 0.78855 0.85078 0.38719
 H2757 H 0.67789 0.92670 0.39554
 H2758 H 0.64900 0.93769 0.40640
 H2759 H 0.66720 0.93136 0.46093
 H2760 H 0.69595 0.92005 0.44988
 C2761 C 0.77392 0.37503 0.89758
 C2762 C 0.76672 0.39074 0.89053
 C2763 C 0.77538 0.39940 0.87644
 C2764 C 0.79116 0.39236 0.86932
 C2765 C 0.79869 0.37637 0.87615
 C2766 C 0.78970 0.36791 0.89054
 C2767 C 0.75029 0.39785 0.89760
 C2768 C 0.73647 0.40372 0.90342
 C2769 C 0.72019 0.41050 0.91011
 C2770 C 0.70620 0.41621 0.91570
 C2771 C 0.68940 0.42295 0.92222
 C2772 C 0.67607 0.42801 0.91010
 C2773 C 0.65965 0.43435 0.91635
 C2774 C 0.65634 0.43572 0.93484
 C2775 C 0.66985 0.43064 0.94692
 C2776 C 0.68627 0.42430 0.94063
 H2777 H 0.76728 0.36818 0.90850
 H2778 H 0.76992 0.41163 0.87089
 H2779 H 0.79730 0.39973 0.85854
 H2780 H 0.79448 0.35564 0.89642
 H2781 H 0.67832 0.42695 0.89582
 H2782 H 0.64943 0.43791 0.90673
 H2783 H 0.66776 0.43172 0.96122
 H2784 H 0.69651 0.42044 0.95013
 C2785 C 0.72108 0.88183 1.09818
 C2786 C 0.73309 0.89088 1.10932
 C2787 C 0.72912 0.89306 1.12749
 C2788 C 0.71323 0.88618 1.13451
 C2789 C 0.70108 0.87699 1.12345
 C2790 C 0.70519 0.87492 1.10518
 C2791 C 0.74958 0.89776 1.10219
 C2792 C 0.76347 0.90345 1.09632
 C2793 C 0.77982 0.91000 1.08956
 C2794 C 0.79386 0.91550 1.08388
 C2795 C 0.81072 0.92193 1.07721
 C2796 C 0.81392 0.94033 1.07584
 C2797 C 0.83041 0.94655 1.06959
 C2798 C 0.84391 0.93443 1.06463
 C2799 C 0.84053 0.91596 1.06601
 C2800 C 0.82405 0.90977 1.07226
 H2801 H 0.72401 0.88009 1.08409
 H2802 H 0.73836 0.89998 1.13625
 H2803 H 0.71062 0.88779 1.14866
 H2804 H 0.69603 0.86813 1.09627
 H2805 H 0.80369 0.94986 1.07961
 H2806 H 0.83255 0.96084 1.06849
 H2807 H 0.85074 0.90630 1.06254
 H2808 H 0.82174 0.89550 1.07334
 C2809 C 0.73005 0.39227 0.62796
 C2810 C 0.73395 0.39009 0.60978
 C2811 C 0.72190 0.38104 0.59868
 C2812 C 0.70603 0.37413 0.60575
 C2813 C 0.70199 0.37619 0.62403
 C2814 C 0.71418 0.38539 0.63505
 C2815 C 0.75042 0.39698 0.60258
 C2816 C 0.76428 0.40267 0.59665
 C2817 C 0.78059 0.40924 0.58981
 C2818 C 0.79460 0.41476 0.58407
 C2819 C 0.81141 0.42123 0.57732
 C2820 C 0.82475 0.40911 0.57232
 C2821 C 0.84119 0.41535 0.56599
 C2822 C 0.84451 0.43383 0.56459
 C2823 C 0.83099 0.44591 0.56961
 C2824 C 0.81455 0.43964 0.57592
 H2825 H 0.73932 0.39920 0.63669
 H2826 H 0.72478 0.37931 0.58458
 H2827 H 0.69684 0.36734 0.59686
 H2828 H 0.71162 0.38700 0.64920
 H2829 H 0.82249 0.39484 0.57342
 H2830 H 0.85142 0.40572 0.56249
 H2831 H 0.83308 0.46021 0.56849
 H2832 H 0.80431 0.44914 0.57974
 C2833 C 0.22119 0.88159 0.59780
 C2834 C 0.23320 0.89066 0.60892
 C2835 C 0.22921 0.89291 0.62707
 C2836 C 0.21330 0.88610 0.63410
 C2837 C 0.20114 0.87690 0.62305
 C2838 C 0.20527 0.87475 0.60480
 C2839 C 0.24971 0.89750 0.60179
 C2840 C 0.26362 0.90317 0.59594
 C2841 C 0.27998 0.90972 0.58923
 C2842 C 0.29404 0.91522 0.58359
 C2843 C 0.31091 0.92166 0.57696
 C2844 C 0.31413 0.94006 0.57565
 C2845 C 0.33062 0.94629 0.56944
 C2846 C 0.34411 0.93418 0.56444
 C2847 C 0.34072 0.91570 0.56577
 C2848 C 0.32424 0.90950 0.57199
 H2849 H 0.22414 0.87980 0.58371
 H2850 H 0.23845 0.89985 0.63582
 H2851 H 0.21068 0.88776 0.64824
 H2852 H 0.19611 0.86795 0.59590
 H2853 H 0.30390 0.94958 0.57945
 H2854 H 0.33276 0.96058 0.56838
 H2855 H 0.35093 0.90605 0.56227
 H2856 H 0.32192 0.89523 0.57302
 C2857 C 0.22570 0.37505 1.10148
 C2858 C 0.23336 0.39036 1.10893
 C2859 C 0.22505 0.39878 1.12337
 C2860 C 0.20917 0.39191 1.13043
 C2861 C 0.20118 0.37631 1.12320
 C2862 C 0.20982 0.36809 1.10846
 C2863 C 0.24988 0.39729 1.10189
 C2864 C 0.26379 0.40298 1.09607
 C2865 C 0.28015 0.40953 1.08934
 C2866 C 0.29420 0.41502 1.08366
 C2867 C 0.31106 0.42144 1.07697
 C2868 C 0.31426 0.43984 1.07557
 C2869 C 0.33074 0.44605 1.06931
 C2870 C 0.34424 0.43392 1.06435
 C2871 C 0.34085 0.41545 1.06575
 C2872 C 0.32437 0.40927 1.07202
 H2873 H 0.23205 0.36839 1.09027
 H2874 H 0.23088 0.41069 1.12924
 H2875 H 0.20337 0.39906 1.14153
 H2876 H 0.20465 0.35617 1.10221
 H2877 H 0.30403 0.44937 1.07934
 H2878 H 0.33288 0.46034 1.06819
 H2879 H 0.35106 0.40579 1.06228
 H2880 H 0.32206 0.39500 1.07311
 C2881 C 0.72601 1.12515 0.89743
 C2882 C 0.73346 1.10968 0.89012
 C2883 C 0.72501 1.10123 0.87577
 C2884 C 0.70921 1.10824 0.86866
 C2885 C 0.70144 1.12400 0.87575
 C2886 C 0.71022 1.13225 0.89040
 C2887 C 0.74990 1.10260 0.89718
 C2888 C 0.76374 1.09674 0.90299
 C2889 C 0.78003 1.08996 0.90965
 C2890 C 0.79403 1.08424 0.91522
 C2891 C 0.81084 1.07750 0.92172
 C2892 C 0.82419 1.07251 0.90960
 C2893 C 0.84061 1.06617 0.91584
 C2894 C 0.84391 1.06474 0.93433
 C2895 C 0.83039 1.06975 0.94641
 C2896 C 0.81396 1.07608 0.94013
 H2897 H 0.73247 1.13183 0.90856
 H2898 H 0.73066 1.08919 0.87000
 H2899 H 0.70330 1.10105 0.85763
 H2900 H 0.70522 1.14430 0.89654
 H2901 H 0.82194 1.07362 0.89531
 H2902 H 0.85084 1.06267 0.90621
 H2903 H 0.83246 1.06861 0.96071
 H2904 H 0.80370 1.07988 0.94963
 C2905 C 0.72986 0.60697 0.37211
 C2906 C 0.73384 0.60912 0.39028
 C2907 C 0.72189 0.61824 0.40142
 C2908 C 0.70604 0.62525 0.39441
 C2909 C 0.70193 0.62322 0.37614
 C2910 C 0.71402 0.61395 0.36508
 C2911 C 0.75030 0.60214 0.39741
 C2912 C 0.76415 0.59635 0.40325
 C2913 C 0.78047 0.58964 0.40993
 C2914 C 0.79449 0.58397 0.41549
 C2915 C 0.81133 0.57727 0.42195
 C2916 C 0.81449 0.57586 0.44036
 C2917 C 0.83094 0.56955 0.44660
 C2918 C 0.84445 0.56456 0.43449
 C2919 C 0.84111 0.56599 0.41601
 C2920 C 0.82467 0.57230 0.40980
 H2921 H 0.73905 0.59999 0.36335
 H2922 H 0.72483 0.61995 0.41552
 H2923 H 0.69694 0.63210 0.40332
 H2924 H 0.71141 0.61237 0.35093
 H2925 H 0.80425 0.57964 0.44988
 H2926 H 0.83305 0.56842 0.46090
 H2927 H 0.85133 0.56250 0.40636
 H2928 H 0.82239 0.57341 0.39552
 C2929 C 0.22443 1.10050 0.37651
 C2930 C 0.23316 1.10924 0.39051
 C2931 C 0.22597 1.12498 0.39751
 C2932 C 0.21016 1.13205 0.39051
 C2933 C 0.20111 1.12351 0.37621
 C2934 C 0.20861 1.10749 0.36943
 C2935 C 0.24963 1.10219 0.39754
 C2936 C 0.26349 1.09636 0.40332
 C2937 C 0.27982 1.08964 0.40996
 C2938 C 0.29385 1.08397 0.41550
 C2939 C 0.31069 1.07728 0.42196
 C2940 C 0.31385 1.07582 0.44036
 C2941 C 0.33031 1.06953 0.44660
 C2942 C 0.34383 1.06460 0.43448
 C2943 C 0.34050 1.06608 0.41600
 C2944 C 0.32404 1.07238 0.40980
 H2945 H 0.22988 1.08825 0.37099
 H2946 H 0.23266 1.13190 0.40836
 H2947 H 0.20540 1.14435 0.39635
 H2948 H 0.20243 1.10006 0.35872
 H2949 H 0.30359 1.07956 0.44989
 H2950 H 0.33241 1.06836 0.46089
 H2951 H 0.35073 1.06264 0.40634
 H2952 H 0.32177 1.07353 0.39553
 C2953 C 0.22505 0.62353 0.89896
 C2954 C 0.23343 0.60919 0.89044
 C2955 C 0.22588 0.60189 0.87500
 C2956 C 0.21004 0.60893 0.86800
 C2957 C 0.20133 0.62356 0.87633
 C2958 C 0.20921 0.63064 0.89205
 C2959 C 0.24990 0.60210 0.89742
 C2960 C 0.26377 0.59624 0.90317
 C2961 C 0.28008 0.58947 0.90979
 C2962 C 0.29410 0.58377 0.91534
 C2963 C 0.31092 0.57706 0.92183
 C2964 C 0.32427 0.57208 0.90970
 C2965 C 0.34072 0.56578 0.91594
 C2966 C 0.34404 0.56439 0.93443
 C2967 C 0.33051 0.56938 0.94652
 C2968 C 0.31406 0.57566 0.94024
 H2969 H 0.23079 0.62928 0.91097
 H2970 H 0.23229 0.59077 0.86826
 H2971 H 0.20497 0.60282 0.85596
 H2972 H 0.20334 0.64164 0.89930
 H2973 H 0.32201 0.57317 0.89542
 H2974 H 0.35095 0.56230 0.90630
 H2975 H 0.33260 0.56826 0.96081
 H2976 H 0.30381 0.57946 0.94975
 C2977 C 1.10700 1.27111 1.12713
 C2978 C 1.10900 1.26717 1.10894
 C2979 C 1.11805 1.27916 1.09777
 C2980 C 1.12512 1.29500 1.10477
 C2981 C 1.12322 1.29907 1.12306
 C2982 C 1.11403 1.28694 1.13415
 C2983 C 1.10194 1.25073 1.10183
 C2984 C 1.09607 1.23687 1.09605
 C2985 C 1.08927 1.22054 1.08946
 C2986 C 1.08352 1.20650 1.08398
 C2987 C 1.07676 1.18964 1.07761
 C2988 C 1.07536 1.18637 1.05922
 C2989 C 1.06905 1.16987 1.05307
 C2990 C 1.06405 1.15642 1.06525
 C2991 C 1.06543 1.15987 1.08372
 C2992 C 1.07175 1.17637 1.08983
 H2993 H 1.10008 1.26188 1.13592
 H2994 H 1.11965 1.27625 1.08365
 H2995 H 1.13190 1.30415 1.09583
 H2996 H 1.11256 1.28952 1.14832
 H2997 H 1.07918 1.19656 1.04964
 H2998 H 1.06795 1.16767 1.03878
 H2999 H 1.06193 1.14970 1.09342
 H3000 H 1.07284 1.17873 1.10410
 C3001 C 1.10677 0.77111 0.62763
 C3002 C 1.10890 0.76704 0.60947
 C3003 C 1.11796 0.77898 0.59826
 C3004 C 1.12493 0.79491 0.60518
 C3005 C 1.12291 0.79911 0.62343
 C3006 C 1.11371 0.78703 0.63457
 C3007 C 1.10194 0.75053 0.60243
 C3008 C 1.09616 0.73662 0.59667
 C3009 C 1.08945 0.72025 0.59008
 C3010 C 1.08379 0.70619 0.58457
 C3011 C 1.07711 0.68931 0.57815
 C3012 C 1.07573 0.68609 0.55975
 C3013 C 1.06946 0.66959 0.55354
 C3014 C 1.06447 0.65609 0.56569
 C3015 C 1.06585 0.65949 0.58416
 C3016 C 1.07213 0.67599 0.59033
 H3017 H 1.09984 0.76193 0.63644
 H3018 H 1.11965 0.77598 0.58418
 H3019 H 1.13172 0.80401 0.59621
 H3020 H 1.11214 0.78971 0.64871
 H3021 H 1.07952 0.69632 0.55021
 H3022 H 1.06836 0.66744 0.53926
 H3023 H 1.06236 0.64928 0.59384
 H3024 H 1.07320 0.67831 0.60461
 C3025 C 0.60745 1.27045 0.62818
 C3026 C 0.60954 1.26649 0.61000
 C3027 C 0.61866 1.27846 0.59886
 C3028 C 0.62573 1.29430 0.60588
 C3029 C 0.62374 1.29839 0.62416
 C3030 C 0.61449 1.28628 0.63522
 C3031 C 0.60246 1.25008 0.60284
 C3032 C 0.59657 1.23625 0.59699
 C3033 C 0.58973 1.21997 0.59030
 C3034 C 0.58396 1.20599 0.58472
 C3035 C 0.57715 1.18919 0.57821
 C3036 C 0.57576 1.18606 0.55980
 C3037 C 0.56939 1.16963 0.55351
 C3038 C 0.56432 1.15611 0.56559
 C3039 C 0.56570 1.15942 0.58408
 C3040 C 0.57208 1.17585 0.59033
 H3041 H 0.60047 1.26125 0.63694
 H3042 H 0.62032 1.27554 0.58475
 H3043 H 0.63256 1.30342 0.59697
 H3044 H 0.61294 1.28888 0.64938
 H3045 H 0.57963 1.19631 0.55030
 H3046 H 0.56830 1.16755 0.53921
 H3047 H 0.56215 1.14919 0.59371
 H3048 H 0.57316 1.17810 0.60461
 C3049 C 0.60674 0.77109 1.12765
 C3050 C 0.60890 0.76704 1.10950
 C3051 C 0.61803 0.77897 1.09833
 C3052 C 0.62503 0.79486 1.10529
 C3053 C 0.62297 0.79904 1.12354
 C3054 C 0.61372 0.78697 1.13464
 C3055 C 0.60187 0.75058 1.10242
 C3056 C 0.59602 0.73671 1.09663
 C3057 C 0.58923 0.72038 1.09003
 C3058 C 0.58349 0.70635 1.08452
 C3059 C 0.57673 0.68950 1.07810
 C3060 C 0.57533 0.68629 1.05970
 C3061 C 0.56902 0.66981 1.05350
 C3062 C 0.56400 0.65632 1.06564
 C3063 C 0.56538 0.65972 1.08411
 C3064 C 0.57171 0.67620 1.09029
 H3065 H 0.59976 0.76192 1.13644
 H3066 H 0.61974 0.77598 1.08424
 H3067 H 0.63187 0.80396 1.09635
 H3068 H 0.61212 0.78963 1.14878
 H3069 H 0.57916 0.69651 1.05016
 H3070 H 0.56792 0.66766 1.03921
 H3071 H 0.56187 0.64952 1.09379
 H3072 H 0.57280 0.67852 1.10456
 C3073 C 0.89187 1.27035 0.87211
 C3074 C 0.88981 1.26647 0.89031
 C3075 C 0.88086 1.27857 0.90144
 C3076 C 0.87393 1.29445 0.89439
 C3077 C 0.87587 1.29845 0.87608
 C3078 C 0.88497 1.28621 0.86503
 C3079 C 0.89673 1.25001 0.89750
 C3080 C 0.90248 1.23614 0.90337
 C3081 C 0.90916 1.21981 0.91009
 C3082 C 0.91482 1.20578 0.91567
 C3083 C 0.92151 1.18893 0.92214
 C3084 C 0.92285 1.18574 0.94055
 C3085 C 0.92919 1.16928 0.94679
 C3086 C 0.93430 1.15581 0.93467
 C3087 C 0.93294 1.15917 0.91619
 C3088 C 0.92658 1.17562 0.90998
 H3089 H 0.89872 1.26104 0.86336
 H3090 H 0.87923 1.27572 0.91557
 H3091 H 0.86722 1.30367 0.90330
 H3092 H 0.88648 1.28874 0.85086
 H3093 H 0.91898 1.19595 0.95007
 H3094 H 0.93027 1.16715 0.96108
 H3095 H 0.93651 1.14898 0.90653
 H3096 H 0.92554 1.17793 0.89571
 C3097 C 0.88144 0.77846 0.40160
 C3098 C 0.89043 0.76640 0.39047
 C3099 C 0.89249 0.77028 0.37227
 C3100 C 0.88553 0.78612 0.36519
 C3101 C 0.87639 0.79832 0.37623
 C3102 C 0.87446 0.79432 0.39454
 C3103 C 0.89737 0.74994 0.39766
 C3104 C 0.90313 0.73607 0.40355
 C3105 C 0.90979 0.71975 0.41028
 C3106 C 0.91544 0.70571 0.41587
 C3107 C 0.92211 0.68885 0.42234
 C3108 C 0.92714 0.67554 0.41018
 C3109 C 0.93348 0.65908 0.41638
 C3110 C 0.93486 0.65571 0.43486
 C3111 C 0.92979 0.66920 0.44698
 C3112 C 0.92346 0.68566 0.44075
 H3113 H 0.87981 0.77561 0.41572
 H3114 H 0.89936 0.76099 0.36352
 H3115 H 0.88704 0.78866 0.35102
 H3116 H 0.86772 0.80351 0.40345
 H3117 H 0.92608 0.67784 0.39590
 H3118 H 0.93702 0.64888 0.40672
 H3119 H 0.93089 0.66707 0.46128
 H3120 H 0.91963 0.69589 0.45027
 C3121 C 0.39211 1.27047 0.37234
 C3122 C 0.39004 1.26663 0.39055
 C3123 C 0.38111 1.27876 0.40165
 C3124 C 0.37422 1.29465 0.39457
 C3125 C 0.37618 1.29861 0.37626
 C3126 C 0.38525 1.28634 0.36523
 C3127 C 0.39690 1.25015 0.39775
 C3128 C 0.40259 1.23626 0.40365
 C3129 C 0.40920 1.21991 0.41038
 C3130 C 0.41480 1.20587 0.41597
 C3131 C 0.42145 1.18899 0.42242
 C3132 C 0.42275 1.18576 0.44083
 C3133 C 0.42907 1.16928 0.44705
 C3134 C 0.43418 1.15583 0.43491
 C3135 C 0.43284 1.15923 0.41643
 C3136 C 0.42651 1.17570 0.41025
 H3137 H 0.39894 1.26113 0.36360
 H3138 H 0.37946 1.27594 0.41578
 H3139 H 0.36753 1.30389 0.40346
 H3140 H 0.38677 1.28884 0.35106
 H3141 H 0.41888 1.19596 0.45037
 H3142 H 0.43013 1.16712 0.46134
 H3143 H 0.43642 1.14906 0.40676
 H3144 H 0.42549 1.17803 0.39598
 C3145 C 0.40044 0.77828 0.88149
 C3146 C 0.38930 0.76636 0.89066
 C3147 C 0.37118 0.77040 0.89284
 C3148 C 0.36420 0.78627 0.88586
 C3149 C 0.37526 0.79834 0.87656
 C3150 C 0.39349 0.79417 0.87448
 C3151 C 0.39640 0.74989 0.89766
 C3152 C 0.40224 0.73602 0.90345
 C3153 C 0.40897 0.71969 0.91011
 C3154 C 0.41465 0.70567 0.91569
 C3155 C 0.42137 0.68883 0.92218
 C3156 C 0.42264 0.68564 0.94059
 C3157 C 0.42900 0.66920 0.94686
 C3158 C 0.43418 0.65574 0.93476
 C3159 C 0.43287 0.65910 0.91628
 C3160 C 0.42650 0.67553 0.91005
 H3161 H 0.41450 0.77530 0.87975
 H3162 H 0.36242 0.76123 0.89985
 H3163 H 0.35008 0.78894 0.88748
 H3164 H 0.40240 0.80326 0.86761
 H3165 H 0.41872 0.69585 0.95010
 H3166 H 0.43004 0.66708 0.96116
 H3167 H 0.43650 0.64891 0.90664
 H3168 H 0.42550 0.67783 0.89576
 C3169 C 1.10810 0.72964 0.87328
 C3170 C 1.11032 0.73354 0.89146
 C3171 C 1.11942 0.72149 0.90252
 C3172 C 1.12632 0.70561 0.89542
 C3173 C 1.12419 0.70157 0.87714
 C3174 C 1.11497 0.71378 0.86616
 C3175 C 1.10338 0.74998 0.89867
 C3176 C 1.09759 0.76385 0.90451
 C3177 C 1.09083 0.78018 0.91114
 C3178 C 1.08510 0.79421 0.91663
 C3179 C 1.07833 0.81108 0.92296
 C3180 C 1.07680 0.81434 0.94135
 C3181 C 1.07042 0.83082 0.94746
 C3182 C 1.06546 0.84426 0.93524
 C3183 C 1.06698 0.84082 0.91679
 C3184 C 1.07338 0.82434 0.91071
 H3185 H 1.10114 0.73891 0.86458
 H3186 H 1.12118 0.72436 0.91662
 H3187 H 1.13313 0.69642 0.90428
 H3188 H 1.11332 0.71123 0.85201
 H3189 H 1.08057 0.80415 0.95095
 H3190 H 1.06920 0.83300 0.96174
 H3191 H 1.06352 0.85098 0.90707
 H3192 H 1.07457 0.82199 0.89645
 C3193 C 1.11877 0.22129 0.40134
 C3194 C 1.10976 0.23330 0.39018
 C3195 C 1.10767 0.22935 0.37200
 C3196 C 1.11460 0.21346 0.36498
 C3197 C 1.12376 0.20131 0.37607
 C3198 C 1.12574 0.20540 0.39435
 C3199 C 1.10283 0.24979 0.39730
 C3200 C 1.09712 0.26368 0.40316
 C3201 C 1.09054 0.28004 0.40991
 C3202 C 1.08502 0.29408 0.41559
 C3203 C 1.07858 0.31095 0.42227
 C3204 C 1.06020 0.31416 0.42355
 C3205 C 1.05397 0.33065 0.42983
 C3206 C 1.06608 0.34413 0.43492
 C3207 C 1.08453 0.34074 0.43362
 C3208 C 1.09072 0.32426 0.42734
 H3209 H 1.12044 0.22421 0.41545
 H3210 H 1.10078 0.23859 0.36322
 H3211 H 1.11307 0.21087 0.35082
 H3212 H 1.13250 0.19624 0.40328
 H3213 H 1.05069 0.30394 0.41968
 H3214 H 1.03970 0.33279 0.43086
 H3215 H 1.09417 0.35094 0.43719
 H3216 H 1.10498 0.32194 0.42633
 C3217 C 0.62840 0.72978 0.39222
 C3218 C 0.61023 0.73367 0.39018
 C3219 C 0.59909 0.72157 0.38124
 C3220 C 0.60610 0.70568 0.37430
 C3221 C 0.62438 0.70166 0.37622
 C3222 C 0.63544 0.71390 0.38531
 C3223 C 0.60307 0.75015 0.39710
 C3224 C 0.59719 0.76402 0.40284
 C3225 C 0.59044 0.78035 0.40948
 C3226 C 0.58482 0.79437 0.41510
 C3227 C 0.57829 0.81122 0.42175
 C3228 C 0.55989 0.81435 0.42305
 C3229 C 0.55359 0.83080 0.42935
 C3230 C 0.56563 0.84433 0.43445
 C3231 C 0.58410 0.84103 0.43313
 C3232 C 0.59036 0.82459 0.42682
 H3233 H 0.63717 0.73909 0.39906
 H3234 H 0.58499 0.72443 0.37962
 H3235 H 0.59718 0.69646 0.36761
 H3236 H 0.64959 0.71136 0.38680
 H3237 H 0.55042 0.80408 0.41919
 H3238 H 0.53931 0.83287 0.43040
 H3239 H 0.59370 0.85127 0.43670
 H3240 H 0.60463 0.82234 0.42581
 C3241 C 0.60816 0.22998 0.87151
 C3242 C 0.61020 0.23388 0.88970
 C3243 C 0.61917 0.22182 0.90086
 C3244 C 0.62612 0.20594 0.89384
 C3245 C 0.62419 0.20190 0.87554
 C3246 C 0.61508 0.21410 0.86446
 C3247 C 0.60328 0.25035 0.89687
 C3248 C 0.59755 0.26422 0.90277
 C3249 C 0.59095 0.28054 0.90959
 C3250 C 0.58541 0.29455 0.91532
 C3251 C 0.57891 0.31137 0.92207
 C3252 C 0.59101 0.32473 0.92712
 C3253 C 0.58476 0.34117 0.93346
 C3254 C 0.56630 0.34447 0.93484
 C3255 C 0.55424 0.33094 0.92977
 C3256 C 0.56052 0.31449 0.92343
 H3257 H 0.60131 0.23926 0.86273
 H3258 H 0.62080 0.22469 0.91498
 H3259 H 0.63284 0.19674 0.90276
 H3260 H 0.61358 0.21154 0.85029
 H3261 H 0.60527 0.32248 0.92605
 H3262 H 0.59437 0.35141 0.93701
 H3263 H 0.53996 0.33301 0.93086
 H3264 H 0.55104 0.30423 0.91958
 C3265 C 0.89364 0.72864 1.12719
 C3266 C 0.89141 0.73272 1.10906
 C3267 C 0.88222 0.72083 1.09790
 C3268 C 0.87523 0.70493 1.10486
 C3269 C 0.87736 0.70070 1.12309
 C3270 C 0.88669 0.71274 1.13417
 C3271 C 0.89835 0.74923 1.10200
 C3272 C 0.90409 0.76314 1.09621
 C3273 C 0.91068 0.77953 1.08955
 C3274 C 0.91619 0.79362 1.08396
 C3275 C 0.92260 0.81054 1.07739
 C3276 C 0.91043 0.82386 1.07244
 C3277 C 0.91659 0.84038 1.06622
 C3278 C 0.93503 0.84380 1.06488
 C3279 C 0.94717 0.83032 1.06987
 C3280 C 0.94097 0.81379 1.07607
 H3281 H 0.90067 0.73779 1.13597
 H3282 H 0.88043 0.72385 1.08383
 H3283 H 0.86833 0.69586 1.09593
 H3284 H 0.88834 0.71005 1.14830
 H3285 H 0.89618 0.82151 1.07348
 H3286 H 0.90692 0.85058 1.06274
 H3287 H 0.96143 0.83250 1.06879
 H3288 H 0.95051 0.80356 1.07985
 C3289 C 0.89341 0.22884 0.62781
 C3290 C 0.89129 0.23288 0.60965
 C3291 C 0.88211 0.22099 0.59848
 C3292 C 0.87501 0.20515 0.60545
 C3293 C 0.87702 0.20097 0.62371
 C3294 C 0.88634 0.21300 0.63480
 C3295 C 0.89834 0.24934 0.60256
 C3296 C 0.90414 0.26320 0.59672
 C3297 C 0.91082 0.27953 0.58998
 C3298 C 0.91639 0.29356 0.58431
 C3299 C 0.92286 0.31041 0.57762
 C3300 C 0.91075 0.32373 0.57254
 C3301 C 0.91696 0.34019 0.56622
 C3302 C 0.93542 0.34356 0.56490
 C3303 C 0.94750 0.33008 0.57003
 C3304 C 0.94125 0.31361 0.57634
 H3305 H 0.90042 0.23799 0.63659
 H3306 H 0.88041 0.22398 0.58439
 H3307 H 0.86812 0.19608 0.59651
 H3308 H 0.88790 0.21034 0.64894
 H3309 H 0.89649 0.32142 0.57355
 H3310 H 0.90733 0.35039 0.56263
 H3311 H 0.96178 0.33221 0.56899
 H3312 H 0.95075 0.30339 0.58023
 C3313 C 0.39331 0.72878 0.62715
 C3314 C 0.39123 0.73273 0.60897
 C3315 C 0.38213 0.72075 0.59782
 C3316 C 0.37507 0.70491 0.60484
 C3317 C 0.37704 0.70083 0.62313
 C3318 C 0.38628 0.71295 0.63419
 C3319 C 0.39824 0.74918 0.60184
 C3320 C 0.40402 0.76305 0.59599
 C3321 C 0.41066 0.77940 0.58928
 C3322 C 0.41621 0.79345 0.58365
 C3323 C 0.42264 0.81035 0.57703
 C3324 C 0.41049 0.82367 0.57204
 C3325 C 0.41666 0.84017 0.56580
 C3326 C 0.43511 0.84359 0.56448
 C3327 C 0.44723 0.83010 0.56950
 C3328 C 0.44102 0.81359 0.57573
 H3329 H 0.40026 0.73800 0.63592
 H3330 H 0.38047 0.72367 0.58372
 H3331 H 0.36824 0.69578 0.59593
 H3332 H 0.38781 0.71037 0.64835
 H3333 H 0.39623 0.82133 0.57307
 H3334 H 0.40700 0.85037 0.56229
 H3335 H 0.46150 0.83227 0.56845
 H3336 H 0.45054 0.80336 0.57954
 C3337 C 0.39291 0.22881 1.12665
 C3338 C 0.39082 0.23272 1.10846
 C3339 C 0.38174 0.22070 1.09734
 C3340 C 0.37472 0.20486 1.10439
 C3341 C 0.37670 0.20082 1.12268
 C3342 C 0.38591 0.21298 1.13373
 C3343 C 0.39784 0.24915 1.10130
 C3344 C 0.40367 0.26301 1.09548
 C3345 C 0.41044 0.27934 1.08886
 C3346 C 0.41617 0.29338 1.08336
 C3347 C 0.42293 0.31024 1.07699
 C3348 C 0.42442 0.31347 1.05861
 C3349 C 0.43076 0.32996 1.05245
 C3350 C 0.43570 0.34344 1.06464
 C3351 C 0.43421 0.34003 1.08310
 C3352 C 0.42787 0.32354 1.08922
 H3353 H 0.39985 0.23805 1.13540
 H3354 H 0.38007 0.22358 1.08323
 H3355 H 0.36790 0.19570 1.09550
 H3356 H 0.38745 0.21042 1.14789
 H3357 H 0.42067 0.30326 1.04903
 H3358 H 0.43195 0.33213 1.03817
 H3359 H 0.43766 0.35022 1.09281
 H3360 H 0.42670 0.32120 1.10348
 C3361 C 1.12344 1.10150 0.72503
 C3362 C 1.10912 1.11004 0.73341
 C3363 C 1.10186 1.12548 0.72583
 C3364 C 1.10892 1.13246 0.70998
 C3365 C 1.12355 1.12413 0.70128
 C3366 C 1.13058 1.10840 0.70917
 C3367 C 1.10205 1.10309 0.74992
 C3368 C 1.09625 1.09732 0.76382
 C3369 C 1.08961 1.09063 0.78019
 C3370 C 1.08407 1.08497 0.79424
 C3371 C 1.07763 1.07828 0.81111
 C3372 C 1.05925 1.07681 0.81427
 C3373 C 1.05303 1.07048 0.83075
 C3374 C 1.06514 1.06552 0.84428
 C3375 C 1.08359 1.06702 0.84095
 C3376 C 1.08977 1.07336 0.82448
 H3377 H 1.12916 1.08949 0.73078
 H3378 H 1.09075 1.13222 0.73223
 H3379 H 1.10282 1.14449 0.70488
 H3380 H 1.14158 1.10116 0.70332
 H3381 H 1.04974 1.08056 0.80401
 H3382 H 1.03877 1.06929 0.83285
 H3383 H 1.09324 1.06356 0.85118
 H3384 H 1.10403 1.07451 0.82220
 C3385 C 1.10180 0.62532 0.22560
 C3386 C 1.10959 0.61036 0.23358
 C3387 C 1.12444 0.60235 0.22563
 C3388 C 1.13159 0.60931 0.20981
 C3389 C 1.12402 0.62457 0.20151
 C3390 C 1.10886 0.63236 0.20978
 C3391 C 1.10250 0.60335 0.25006
 C3392 C 1.09670 0.59753 0.26394
 C3393 C 1.09006 0.59079 0.28029
 C3394 C 1.08453 0.58508 0.29432
 C3395 C 1.07811 0.57834 0.31118
 C3396 C 1.09026 0.57341 0.32453
 C3397 C 1.08409 0.56704 0.34100
 C3398 C 1.06565 0.56551 0.34433
 C3399 C 1.05353 0.57047 0.33081
 C3400 C 1.05973 0.57683 0.31434
 H3401 H 1.09025 0.63164 0.23166
 H3402 H 1.13059 0.59072 0.23171
 H3403 H 1.14308 0.60253 0.20436
 H3404 H 1.10227 0.64396 0.20430
 H3405 H 1.10451 0.57459 0.32226
 H3406 H 1.09375 0.56358 0.35122
 H3407 H 1.03926 0.56926 0.33291
 H3408 H 1.05021 0.58058 0.30409
 C3409 C 0.62328 1.10106 0.22451
 C3410 C 0.60929 1.10979 0.23323
 C3411 C 0.60228 1.12552 0.22600
 C3412 C 0.60928 1.13258 0.21016
 C3413 C 0.62358 1.12406 0.20113
 C3414 C 0.63035 1.10804 0.20866
 C3415 C 0.60228 1.10276 0.24973
 C3416 C 0.59649 1.09698 0.26363
 C3417 C 0.58980 1.09035 0.27999
 C3418 C 0.58414 1.08481 0.29404
 C3419 C 0.57747 1.07834 0.31091
 C3420 C 0.57244 1.09049 0.32424
 C3421 C 0.56614 1.08428 0.34072
 C3422 C 0.56480 1.06581 0.34409
 C3423 C 0.56985 1.05370 0.33059
 C3424 C 0.57614 1.05994 0.31411
 H3425 H 0.62879 1.08882 0.22998
 H3426 H 0.59144 1.13242 0.23269
 H3427 H 0.60344 1.14487 0.20538
 H3428 H 0.64105 1.10062 0.20248
 H3429 H 0.57349 1.10476 0.32194
 H3430 H 0.56260 1.09393 0.35093
 H3431 H 0.56878 1.03941 0.33272
 H3432 H 0.57997 1.05042 0.30387
 C3433 C 0.59850 0.61818 0.72113
 C3434 C 0.60962 0.60918 0.73320
 C3435 C 0.62777 0.60708 0.72928
 C3436 C 0.63482 0.61400 0.71339
 C3437 C 0.62378 0.62315 0.70120
 C3438 C 0.60552 0.62513 0.70524
 C3439 C 0.60248 0.60230 0.74971
 C3440 C 0.59662 0.59662 0.76362
 C3441 C 0.58988 0.59008 0.78001
 C3442 C 0.58422 0.58460 0.79408
 C3443 C 0.57756 0.57820 0.81098
 C3444 C 0.57630 0.55981 0.81426
 C3445 C 0.57005 0.55361 0.83077
 C3446 C 0.56498 0.56576 0.84423
 C3447 C 0.56625 0.58423 0.84078
 C3448 C 0.57251 0.59039 0.82426
 H3449 H 0.58441 0.61986 0.72402
 H3450 H 0.63652 0.60019 0.73855
 H3451 H 0.64896 0.61246 0.71083
 H3452 H 0.59662 0.63189 0.69605
 H3453 H 0.58015 0.55026 0.80406
 H3454 H 0.56903 0.53933 0.83297
 H3455 H 0.56270 0.59391 0.85095
 H3456 H 0.57350 0.60465 0.82190
 C3457 C 0.90143 0.88145 0.72118
 C3458 C 0.89031 0.89049 0.73321
 C3459 C 0.87216 0.89263 0.72924
 C3460 C 0.86514 0.88573 0.71334
 C3461 C 0.87618 0.87655 0.70117
 C3462 C 0.89443 0.87452 0.70527
 C3463 C 0.89744 0.89740 0.74972
 C3464 C 0.90330 0.90311 0.76362
 C3465 C 0.91006 0.90971 0.77997
 C3466 C 0.91575 0.91526 0.79401
 C3467 C 0.92244 0.92176 0.81086
 C3468 C 0.92374 0.94017 0.81402
 C3469 C 0.93004 0.94647 0.83047
 C3470 C 0.93515 0.93441 0.84400
 C3471 C 0.93384 0.91592 0.84067
 C3472 C 0.92752 0.90966 0.82421
 H3473 H 0.91551 0.87974 0.72410
 H3474 H 0.86341 0.89955 0.73850
 H3475 H 0.85101 0.88731 0.71074
 H3476 H 0.90333 0.86773 0.69610
 H3477 H 0.91986 0.94966 0.80377
 H3478 H 0.93109 0.96077 0.83257
 H3479 H 0.93741 0.90630 0.85090
 H3480 H 0.92650 0.89538 0.82194
 C3481 C 0.87683 0.39890 0.22458
 C3482 C 0.89112 0.39037 0.23302
 C3483 C 0.89833 0.37486 0.22554
 C3484 C 0.89124 0.36780 0.20973
 C3485 C 0.87663 0.37611 0.20099
 C3486 C 0.86966 0.39193 0.20878
 C3487 C 0.89822 0.39740 0.24949
 C3488 C 0.90406 0.40319 0.26337
 C3489 C 0.91078 0.40986 0.27971
 C3490 C 0.91645 0.41543 0.29375
 C3491 C 0.92312 0.42192 0.31061
 C3492 C 0.92822 0.40980 0.32393
 C3493 C 0.93451 0.41602 0.34041
 C3494 C 0.93578 0.43450 0.34379
 C3495 C 0.93066 0.44660 0.33030
 C3496 C 0.92438 0.44033 0.31382
 H3497 H 0.87115 0.41097 0.23026
 H3498 H 0.90942 0.36813 0.23199
 H3499 H 0.89729 0.35571 0.20471
 H3500 H 0.85869 0.39918 0.20287
 H3501 H 0.92723 0.39552 0.32162
 H3502 H 0.93810 0.40638 0.35061
 H3503 H 0.93167 0.46089 0.33244
 H3504 H 0.92049 0.44984 0.30359
 C3505 C 0.37463 0.89758 0.22564
 C3506 C 0.39019 0.89038 0.23299
 C3507 C 0.39874 0.87617 0.22441
 C3508 C 0.39174 0.86908 0.20858
 C3509 C 0.37589 0.87606 0.20091
 C3510 C 0.36754 0.89056 0.20981
 C3511 C 0.39726 0.89743 0.24947
 C3512 C 0.40309 0.90324 0.26334
 C3513 C 0.40983 0.90992 0.27967
 C3514 C 0.41551 0.91550 0.29370
 C3515 C 0.42223 0.92200 0.31054
 C3516 C 0.42731 0.90989 0.32388
 C3517 C 0.43366 0.91613 0.34032
 C3518 C 0.43501 0.93461 0.34366
 C3519 C 0.42989 0.94669 0.33015
 C3520 C 0.42355 0.94041 0.31370
 H3521 H 0.36787 0.90859 0.23220
 H3522 H 0.41085 0.87051 0.22999
 H3523 H 0.39901 0.85820 0.20253
 H3524 H 0.35540 0.89658 0.20491
 H3525 H 0.42627 0.89561 0.32160
 H3526 H 0.43724 0.90650 0.35054
 H3527 H 0.43096 0.96099 0.33225
 H3528 H 0.41968 0.94991 0.30346
 C3529 C 0.39351 0.37237 0.72899
 C3530 C 0.39142 0.39054 0.73297
 C3531 C 0.38240 0.40171 0.72097
 C3532 C 0.37542 0.39473 0.70507
 C3533 C 0.37739 0.37645 0.70096
 C3534 C 0.38656 0.36536 0.71310
 C3535 C 0.39836 0.39765 0.74947
 C3536 C 0.40412 0.40347 0.76336
 C3537 C 0.41079 0.41014 0.77972
 C3538 C 0.41643 0.41570 0.79377
 C3539 C 0.42310 0.42216 0.81064
 C3540 C 0.42442 0.44056 0.81385
 C3541 C 0.43071 0.44680 0.83033
 C3542 C 0.43579 0.43469 0.84382
 C3543 C 0.43446 0.41621 0.84044
 C3544 C 0.42815 0.41001 0.82396
 H3545 H 0.40041 0.36359 0.73823
 H3546 H 0.38073 0.41580 0.72390
 H3547 H 0.36866 0.40366 0.69592
 H3548 H 0.38809 0.35121 0.71049
 H3549 H 0.42057 0.45008 0.80362
 H3550 H 0.43177 0.46109 0.83248
 H3551 H 0.43801 0.40656 0.85064
 H3552 H 0.42712 0.39574 0.82165
 C3553 C 1.10134 0.87481 1.27455
 C3554 C 1.10817 0.89061 1.26732
 C3555 C 1.12206 0.89952 1.27604
 C3556 C 1.12922 0.89263 1.29188
 C3557 C 1.12263 0.87654 1.29943
 C3558 C 1.10842 0.86784 1.29040
 C3559 C 1.10111 0.89756 1.25080
 C3560 C 1.09535 0.90333 1.23689
 C3561 C 1.08878 0.91004 1.22051
 C3562 C 1.08331 0.91572 1.20644
 C3563 C 1.07696 0.92244 1.18954
 C3564 C 1.08917 0.92748 1.17629
 C3565 C 1.08306 0.93382 1.15979
 C3566 C 1.06463 0.93518 1.15632
 C3567 C 1.05246 0.93012 1.16975
 C3568 C 1.05859 0.92379 1.18625
 H3569 H 1.09058 0.86777 1.26787
 H3570 H 1.12743 0.91182 1.27056
 H3571 H 1.13982 0.90020 1.29807
 H3572 H 1.10275 0.85547 1.29520
 H3573 H 1.10341 0.92642 1.17867
 H3574 H 1.09276 0.93737 1.14963
 H3575 H 1.03820 0.93121 1.16754
 H3576 H 1.04903 0.91995 1.19643
 C3577 C 1.10159 0.37504 0.77481
 C3578 C 1.10876 0.39058 0.76734
 C3579 C 1.12293 0.39924 0.77586
 C3580 C 1.13002 0.39236 0.79175
 C3581 C 1.12308 0.37653 0.79953
 C3582 C 1.10860 0.36808 0.79069
 C3583 C 1.10175 0.39751 0.75080
 C3584 C 1.09600 0.40325 0.73686
 C3585 C 1.08942 0.40990 0.72046
 C3586 C 1.08394 0.41552 0.70637
 C3587 C 1.07756 0.42217 0.68946
 C3588 C 1.08976 0.42721 0.67619
 C3589 C 1.08364 0.43349 0.65967
 C3590 C 1.06520 0.43482 0.65620
 C3591 C 1.05304 0.42975 0.66965
 C3592 C 1.05920 0.42347 0.68617
 H3593 H 1.09060 0.36820 0.76829
 H3594 H 1.12858 0.41133 0.77020
 H3595 H 1.14088 0.39972 0.79774
 H3596 H 1.10261 0.35595 0.79568
 H3597 H 1.10400 0.42618 0.67857
 H3598 H 1.09333 0.43704 0.64951
 H3599 H 1.03878 0.43081 0.66744
 H3600 H 1.04964 0.41963 0.69636
 C3601 C 0.62636 0.89354 0.77119
 C3602 C 0.60819 0.89145 0.76733
 C3603 C 0.59708 0.88254 0.77948
 C3604 C 0.60412 0.87567 0.79539
 C3605 C 0.62241 0.87764 0.79937
 C3606 C 0.63343 0.88670 0.78709
 C3607 C 0.60103 0.89826 0.75080
 C3608 C 0.59522 0.90391 0.73687
 C3609 C 0.58862 0.91046 0.72044
 C3610 C 0.58316 0.91601 0.70632
 C3611 C 0.57685 0.92258 0.68935
 C3612 C 0.55850 0.92392 0.68599
 C3613 C 0.55242 0.93012 0.66941
 C3614 C 0.56464 0.93507 0.65599
 C3615 C 0.58306 0.93371 0.65952
 C3616 C 0.58911 0.92750 0.67609
 H3617 H 0.63510 0.90035 0.76185
 H3618 H 0.58297 0.88087 0.77663
 H3619 H 0.59524 0.86898 0.80465
 H3620 H 0.64759 0.88823 0.78960
 H3621 H 0.54890 0.92017 0.69617
 H3622 H 0.53817 0.93121 0.66715
 H3623 H 0.59280 0.93718 0.64938
 H3624 H 0.60334 0.92645 0.67853
 C3625 C 0.62453 0.39800 1.27432
 C3626 C 0.60878 0.39094 1.26723
 C3627 C 0.60014 0.37695 1.27606
 C3628 C 0.60725 0.36991 1.29186
 C3629 C 0.62330 0.37673 1.29925
 C3630 C 0.63172 0.39105 1.29012
 C3631 C 0.60165 0.39789 1.25074
 C3632 C 0.59582 0.40363 1.23684
 C3633 C 0.58917 0.41026 1.22047
 C3634 C 0.58366 0.41587 1.20639
 C3635 C 0.57728 0.42250 1.18947
 C3636 C 0.55891 0.42374 1.18615
 C3637 C 0.55276 0.43000 1.16962
 C3638 C 0.56492 0.43511 1.15620
 C3639 C 0.58336 0.43384 1.15970
 C3640 C 0.58947 0.42758 1.17622
 H3641 H 0.63137 0.40885 1.26756
 H3642 H 0.58788 0.37140 1.27069
 H3643 H 0.59989 0.35920 1.29812
 H3644 H 0.64403 0.39692 1.29480
 H3645 H 0.54935 0.41986 1.19633
 H3646 H 0.53849 0.43101 1.16739
 H3647 H 0.59305 0.43743 1.14955
 H3648 H 0.60372 0.42660 1.17862
 C3649 C 0.90187 1.11663 1.27958
 C3650 C 0.89062 1.10769 1.26759
 C3651 C 0.87246 1.10573 1.27160
 C3652 C 0.86556 1.11274 1.28751
 C3653 C 0.87673 1.12184 1.29963
 C3654 C 0.89499 1.12367 1.29549
 C3655 C 0.89761 1.10077 1.25103
 C3656 C 0.90335 1.09509 1.23708
 C3657 C 0.90996 1.08858 1.22064
 C3658 C 0.91553 1.08316 1.20651
 C3659 C 0.92208 1.07686 1.18953
 C3660 C 0.92349 1.05850 1.18619
 C3661 C 0.92967 1.05242 1.16960
 C3662 C 0.93453 1.06467 1.15615
 C3663 C 0.93309 1.08310 1.15967
 C3664 C 0.92690 1.08914 1.17625
 H3665 H 0.91596 1.11821 1.27661
 H3666 H 0.86361 1.09890 1.26238
 H3667 H 0.85141 1.11132 1.29014
 H3668 H 0.90399 1.13038 1.30462
 H3669 H 0.91981 1.04887 1.19639
 H3670 H 0.93082 1.03815 1.16736
 H3671 H 0.93648 1.09286 1.14950
 H3672 H 0.92579 1.10339 1.17867
 C3673 C 0.89262 0.62647 0.77089
 C3674 C 0.89034 0.60831 0.76697
 C3675 C 0.88129 0.59726 0.77906
 C3676 C 0.87448 0.60434 0.79498
 C3677 C 0.87666 0.62260 0.79903
 C3678 C 0.88585 0.63358 0.78680
 C3679 C 0.89716 0.60111 0.75046
 C3680 C 0.90285 0.59526 0.73656
 C3681 C 0.90947 0.58860 0.72018
 C3682 C 0.91509 0.58308 0.70611
 C3683 C 0.92177 0.57671 0.68921
 C3684 C 0.92318 0.55832 0.68595
 C3685 C 0.92953 0.55217 0.66946
 C3686 C 0.93457 0.56436 0.65602
 C3687 C 0.93312 0.58282 0.65945
 C3688 C 0.92676 0.58893 0.67594
 H3689 H 0.89955 0.63517 0.76159
 H3690 H 0.87948 0.58316 0.77617
 H3691 H 0.86769 0.59549 0.80420
 H3692 H 0.88753 0.64772 0.78936
 H3693 H 0.91937 0.54875 0.69615
 H3694 H 0.93068 0.53790 0.66727
 H3695 H 0.93664 0.59252 0.64929
 H3696 H 0.92566 0.60319 0.67830
 C3697 C 0.40116 1.11780 0.77876
 C3698 C 0.38993 1.10882 0.76677
 C3699 C 0.37176 1.10692 0.77073
 C3700 C 0.36481 1.11399 0.78658
 C3701 C 0.37596 1.12310 0.79872
 C3702 C 0.39424 1.12490 0.79463
 C3703 C 0.39698 1.10175 0.75030
 C3704 C 0.40278 1.09593 0.73643
 C3705 C 0.40946 1.08923 0.72008
 C3706 C 0.41508 1.08366 0.70603
 C3707 C 0.42171 1.07720 0.68915
 C3708 C 0.42312 1.05879 0.68597
 C3709 C 0.42940 1.05257 0.66947
 C3710 C 0.43436 1.06469 0.65595
 C3711 C 0.43291 1.08316 0.65930
 C3712 C 0.42663 1.08935 0.67579
 H3713 H 0.41526 1.11933 0.77584
 H3714 H 0.36293 1.10006 0.76150
 H3715 H 0.35066 1.11259 0.78918
 H3716 H 0.40321 1.13163 0.80377
 H3717 H 0.41937 1.04927 0.69623
 H3718 H 0.43054 1.03828 0.66736
 H3719 H 0.43637 1.09282 0.64907
 H3720 H 0.42552 1.10362 0.67808
 C3721 C 0.39798 0.62460 1.27425
 C3722 C 0.39076 0.60900 1.26696
 C3723 C 0.37660 0.60046 1.27560
 C3724 C 0.36956 0.60752 1.29142
 C3725 C 0.37654 0.62342 1.29902
 C3726 C 0.39101 0.63174 1.29007
 C3727 C 0.39772 0.60190 1.25047
 C3728 C 0.40343 0.59602 1.23658
 C3729 C 0.40999 0.58924 1.22023
 C3730 C 0.41547 0.58353 1.20617
 C3731 C 0.42187 0.57683 1.18930
 C3732 C 0.40970 0.57179 1.17600
 C3733 C 0.41586 0.56552 1.15949
 C3734 C 0.43431 0.56421 1.15607
 C3735 C 0.44644 0.56926 1.16955
 C3736 C 0.44024 0.57552 1.18605
 H3737 H 0.40896 0.63136 1.26764
 H3738 H 0.37092 0.58832 1.27007
 H3739 H 0.35870 0.60024 1.29751
 H3740 H 0.39704 0.64392 1.29493
 H3741 H 0.39545 0.57282 1.17834
 H3742 H 0.40620 0.56198 1.14930
 H3743 H 0.46070 0.56822 1.16737
 H3744 H 0.44978 0.57937 1.19627
 C3745 C 1.09804 1.27926 0.88257
 C3746 C 1.10920 1.26723 0.89156
 C3747 C 1.12737 1.27116 0.89358
 C3748 C 1.13438 1.28701 0.88658
 C3749 C 1.12330 1.29918 0.87744
 C3750 C 1.10503 1.29513 0.87555
 C3751 C 1.10208 1.25075 0.89852
 C3752 C 1.09621 1.23686 0.90424
 C3753 C 1.08945 1.22050 0.91081
 C3754 C 1.08377 1.20645 0.91630
 C3755 C 1.07708 1.18957 0.92270
 C3756 C 1.07568 1.18634 0.94110
 C3757 C 1.06940 1.16983 0.94729
 C3758 C 1.06443 1.15635 0.93512
 C3759 C 1.06584 1.15976 0.91665
 C3760 C 1.07212 1.17626 0.91050
 H3761 H 1.08394 1.27637 0.88096
 H3762 H 1.13614 1.26190 0.90045
 H3763 H 1.14853 1.28958 0.88805
 H3764 H 1.09610 1.30429 0.86880
 H3765 H 1.07946 1.19656 0.95066
 H3766 H 1.06828 1.16767 0.96157
 H3767 H 1.06237 1.14956 0.90696
 H3768 H 1.07322 1.17859 0.89624
 C3769 C 1.09826 0.77914 0.38253
 C3770 C 1.10948 0.76714 0.39148
 C3771 C 1.12765 0.77111 0.39341
 C3772 C 1.13460 0.78698 0.38637
 C3773 C 1.12345 0.79911 0.37727
 C3774 C 1.10518 0.79502 0.37547
 C3775 C 1.10243 0.75064 0.39847
 C3776 C 1.09661 0.73675 0.40422
 C3777 C 1.08989 0.72039 0.41082
 C3778 C 1.08423 0.70633 0.41634
 C3779 C 1.07756 0.68945 0.42276
 C3780 C 1.07615 0.68624 0.44116
 C3781 C 1.06988 0.66974 0.44736
 C3782 C 1.06492 0.65624 0.43521
 C3783 C 1.06635 0.65962 0.41674
 C3784 C 1.07263 0.67611 0.41057
 H3785 H 1.08416 0.77621 0.38099
 H3786 H 1.13648 0.76187 0.40024
 H3787 H 1.14875 0.78959 0.38778
 H3788 H 1.09620 0.80416 0.36875
 H3789 H 1.07991 0.69648 0.45071
 H3790 H 1.06874 0.66760 0.46165
 H3791 H 1.06289 0.64941 0.40706
 H3792 H 1.07374 0.67843 0.39630
 C3793 C 0.61886 1.27880 0.40178
 C3794 C 0.60972 1.26679 0.39070
 C3795 C 0.60753 1.27071 0.37252
 C3796 C 0.61448 1.28655 0.36542
 C3797 C 0.62375 1.29871 0.37642
 C3798 C 0.62584 1.29465 0.39470
 C3799 C 0.60271 1.25036 0.39790
 C3800 C 0.59687 1.23652 0.40377
 C3801 C 0.59008 1.22023 0.41045
 C3802 C 0.58432 1.20622 0.41601
 C3803 C 0.57751 1.18941 0.42246
 C3804 C 0.57247 1.17609 0.41029
 C3805 C 0.56606 1.15966 0.41648
 C3806 C 0.56461 1.15631 0.43496
 C3807 C 0.56966 1.16980 0.44709
 C3808 C 0.57607 1.18624 0.44086
 H3809 H 0.62060 1.27591 0.41588
 H3810 H 0.60054 1.26147 0.36381
 H3811 H 0.61286 1.28913 0.35127
 H3812 H 0.63269 1.30381 0.40357
 H3813 H 0.57360 1.17838 0.39602
 H3814 H 0.56252 1.14945 0.40682
 H3815 H 0.56851 1.16769 0.46138
 H3816 H 0.57990 1.19647 0.45039
 C3817 C 0.60676 0.77137 0.87319
 C3818 C 0.60897 0.76739 0.89135
 C3819 C 0.61805 0.77940 0.90247
 C3820 C 0.62494 0.79532 0.89545
 C3821 C 0.62284 0.79943 0.87719
 C3822 C 0.61362 0.78727 0.86615
 C3823 C 0.60206 0.75090 0.89849
 C3824 C 0.59631 0.73700 0.90432
 C3825 C 0.58963 0.72065 0.91097
 C3826 C 0.58397 0.70659 0.91649
 C3827 C 0.57727 0.68972 0.92289
 C3828 C 0.57584 0.68650 0.94129
 C3829 C 0.56953 0.67001 0.94748
 C3830 C 0.56455 0.65652 0.93531
 C3831 C 0.56599 0.65992 0.91685
 C3832 C 0.57231 0.67641 0.91070
 H3833 H 0.59981 0.76213 0.86444
 H3834 H 0.61980 0.77647 0.91656
 H3835 H 0.63175 0.80448 0.90435
 H3836 H 0.61199 0.78988 0.85200
 H3837 H 0.57962 0.69673 0.95085
 H3838 H 0.56838 0.66786 0.96176
 H3839 H 0.56252 0.64972 0.90716
 H3840 H 0.57343 0.67873 0.89643
 C3841 C 0.87396 1.27401 1.10234
 C3842 C 0.88952 1.26657 1.10944
 C3843 C 0.89821 1.27510 1.12360
 C3844 C 0.89136 1.29097 1.13073
 C3845 C 0.87552 1.29874 1.12384
 C3846 C 0.86702 1.28988 1.10938
 C3847 C 0.89645 1.25006 1.10235
 C3848 C 0.90218 1.23617 1.09651
 C3849 C 0.90884 1.21982 1.08982
 C3850 C 0.91447 1.20578 1.08423
 C3851 C 0.92115 1.18893 1.07776
 C3852 C 0.92618 1.17559 1.08990
 C3853 C 0.93253 1.15915 1.08369
 C3854 C 0.93395 1.15581 1.06521
 C3855 C 0.92888 1.16931 1.05309
 C3856 C 0.92253 1.18576 1.05934
 H3857 H 0.86709 1.26749 1.09136
 H3858 H 0.91032 1.26945 1.12920
 H3859 H 0.89874 1.29697 1.14157
 H3860 H 0.85487 1.29485 1.10344
 H3861 H 0.92510 1.17788 1.10418
 H3862 H 0.93607 1.14894 1.09334
 H3863 H 0.93000 1.16720 1.03880
 H3864 H 0.91871 1.19600 1.04983
 C3865 C 0.90111 0.77838 0.61814
 C3866 C 0.88990 0.76629 0.60927
 C3867 C 0.87173 0.77020 0.60732
 C3868 C 0.86476 0.78611 0.61424
 C3869 C 0.87589 0.79834 0.62324
 C3870 C 0.89417 0.79429 0.62509
 C3871 C 0.89699 0.74979 0.60233
 C3872 C 0.90281 0.73589 0.59659
 C3873 C 0.90952 0.71953 0.58998
 C3874 C 0.91517 0.70548 0.58444
 C3875 C 0.92184 0.68861 0.57799
 C3876 C 0.92326 0.68545 0.55958
 C3877 C 0.92957 0.66898 0.55333
 C3878 C 0.93456 0.65546 0.56545
 C3879 C 0.93311 0.65880 0.58393
 C3880 C 0.92678 0.67526 0.59014
 H3881 H 0.91522 0.77550 0.61970
 H3882 H 0.86291 0.76090 0.60055
 H3883 H 0.85060 0.78868 0.61281
 H3884 H 0.90313 0.80351 0.63173
 H3885 H 0.91949 0.69571 0.55005
 H3886 H 0.93072 0.66688 0.53904
 H3887 H 0.93659 0.64857 0.59358
 H3888 H 0.92566 0.67753 0.60441
 C3889 C 0.39818 1.27456 0.62388
 C3890 C 0.39064 1.26706 0.60853
 C3891 C 0.37628 1.27556 0.60019
 C3892 C 0.36937 1.29146 0.60721
 C3893 C 0.37668 1.29927 0.62287
 C3894 C 0.39136 1.29045 0.63097
 C3895 C 0.39748 1.25049 0.60150
 C3896 C 0.40315 1.23654 0.59574
 C3897 C 0.40971 1.22011 0.58916
 C3898 C 0.41526 1.20599 0.58369
 C3899 C 0.42182 1.18904 0.57734
 C3900 C 0.42315 1.18573 0.55895
 C3901 C 0.42937 1.16919 0.55282
 C3902 C 0.43435 1.15574 0.56502
 C3903 C 0.43299 1.15923 0.58348
 C3904 C 0.42676 1.17577 0.58958
 H3905 H 0.40933 1.26806 0.63046
 H3906 H 0.37034 1.26987 0.58825
 H3907 H 0.35832 1.29742 0.60012
 H3908 H 0.39767 1.29549 0.64293
 H3909 H 0.41938 1.19592 0.54936
 H3910 H 0.43046 1.16697 0.53854
 H3911 H 0.43647 1.14907 0.59320
 H3912 H 0.42571 1.17817 0.60384
 C3913 C 0.39715 0.77387 1.12504
 C3914 C 0.38994 0.76655 1.10945
 C3915 C 0.37582 0.77521 1.10085
 C3916 C 0.36882 0.79107 1.10785
 C3917 C 0.37580 0.79870 1.12374
 C3918 C 0.39023 0.78974 1.13212
 C3919 C 0.39687 0.75003 1.10239
 C3920 C 0.40259 0.73612 1.09658
 C3921 C 0.40919 0.71975 1.08990
 C3922 C 0.41477 0.70568 1.08433
 C3923 C 0.42137 0.68879 1.07787
 C3924 C 0.42274 0.68560 1.05946
 C3925 C 0.42902 0.66912 1.05322
 C3926 C 0.43402 0.65561 1.06534
 C3927 C 0.43260 0.65896 1.08382
 C3928 C 0.42631 0.67544 1.09002
 H3929 H 0.40810 0.76725 1.13184
 H3930 H 0.37015 0.76966 1.08871
 H3931 H 0.35800 0.79717 1.10053
 H3932 H 0.39624 0.79461 1.14430
 H3933 H 0.41897 0.69586 1.04993
 H3934 H 0.43015 0.66700 1.03893
 H3935 H 0.43609 0.64874 1.09348
 H3936 H 0.42523 0.67773 1.10430
 C3937 C 0.89385 0.72861 0.87297
 C3938 C 0.89181 0.73257 0.89115
 C3939 C 0.88283 0.72056 0.90234
 C3940 C 0.87582 0.70468 0.89536
 C3941 C 0.87773 0.70059 0.87707
 C3942 C 0.88688 0.71274 0.86596
 C3943 C 0.89873 0.74908 0.89824
 C3944 C 0.90445 0.76300 0.90404
 C3945 C 0.91107 0.77940 0.91066
 C3946 C 0.91665 0.79349 0.91616
 C3947 C 0.92323 0.81042 0.92254
 C3948 C 0.92452 0.81372 0.94093
 C3949 C 0.93071 0.83027 0.94709
 C3950 C 0.93569 0.84373 0.93490
 C3951 C 0.93438 0.84025 0.91644
 C3952 C 0.92819 0.82371 0.91032
 H3953 H 0.90072 0.73786 0.86417
 H3954 H 0.88120 0.72348 0.91645
 H3955 H 0.86907 0.69552 0.90431
 H3956 H 0.88836 0.71015 0.85180
 H3957 H 0.92074 0.80352 0.95050
 H3958 H 0.93176 0.83249 0.96137
 H3959 H 0.93786 0.85043 0.90673
 H3960 H 0.92716 0.82132 0.89605
 C3961 C 0.88260 0.22081 0.40197
 C3962 C 0.89165 0.23271 0.39071
 C3963 C 0.89370 0.22861 0.37255
 C3964 C 0.88669 0.21270 0.36566
 C3965 C 0.87749 0.20066 0.37685
 C3966 C 0.87556 0.20490 0.39511
 C3967 C 0.89867 0.24923 0.39770
 C3968 C 0.90447 0.26313 0.40344
 C3969 C 0.91120 0.27950 0.41002
 C3970 C 0.91687 0.29356 0.41552
 C3971 C 0.92355 0.31044 0.42194
 C3972 C 0.92856 0.32375 0.40977
 C3973 C 0.93483 0.34024 0.41595
 C3974 C 0.93617 0.34365 0.43442
 C3975 C 0.93115 0.33016 0.44656
 C3976 C 0.92488 0.31366 0.44035
 H3977 H 0.88097 0.22385 0.41606
 H3978 H 0.90062 0.23776 0.36370
 H3979 H 0.88819 0.20998 0.35152
 H3980 H 0.86878 0.19583 0.40412
 H3981 H 0.92751 0.32142 0.39550
 H3982 H 0.93835 0.35044 0.40628
 H3983 H 0.93221 0.33232 0.46085
 H3984 H 0.92106 0.30344 0.44989
 C3985 C 0.37673 0.72435 0.39892
 C3986 C 0.39076 0.73303 0.39021
 C3987 C 0.39782 0.72576 0.37452
 C3988 C 0.39083 0.70991 0.36748
 C3989 C 0.37649 0.70091 0.37598
 C3990 C 0.36966 0.70850 0.39195
 C3991 C 0.39779 0.74953 0.39723
 C3992 C 0.40360 0.76343 0.40300
 C3993 C 0.41032 0.77978 0.40962
 C3994 C 0.41599 0.79383 0.41516
 C3995 C 0.42268 0.81069 0.42162
 C3996 C 0.42767 0.82403 0.40947
 C3997 C 0.43397 0.84051 0.41567
 C3998 C 0.43536 0.84386 0.43415
 C3999 C 0.43035 0.83034 0.44627
 C4000 C 0.42406 0.81387 0.44002
 H4001 H 0.37118 0.72986 0.41113
 H4002 H 0.40870 0.73241 0.36764
 H4003 H 0.39671 0.70509 0.35522
 H4004 H 0.35893 0.70234 0.39936
 H4005 H 0.42659 0.82174 0.39519
 H4006 H 0.43747 0.85073 0.40602
 H4007 H 0.43145 0.83246 0.46056
 H4008 H 0.42025 0.80362 0.44955
 C4009 C 0.37539 0.22585 0.89749
 C4010 C 0.39105 0.23301 0.89029
 C4011 C 0.39961 0.22420 0.87623
 C4012 C 0.39252 0.20835 0.86929
 C4013 C 0.37658 0.20088 0.87627
 C4014 C 0.36822 0.21000 0.89063
 C4015 C 0.39820 0.24951 0.89719
 C4016 C 0.40409 0.26339 0.90289
 C4017 C 0.41089 0.27974 0.90948
 C4018 C 0.41660 0.29377 0.91501
 C4019 C 0.42331 0.31061 0.92151
 C4020 C 0.42836 0.32396 0.90940
 C4021 C 0.43465 0.34042 0.91566
 C4022 C 0.43598 0.34375 0.93415
 C4023 C 0.43091 0.33022 0.94622
 C4024 C 0.42463 0.31376 0.93993
 H4025 H 0.36862 0.23260 0.90839
 H4026 H 0.41180 0.22962 0.87057
 H4027 H 0.39982 0.20210 0.85852
 H4028 H 0.35600 0.20528 0.89662
 H4029 H 0.42732 0.32169 0.89511
 H4030 H 0.43819 0.35066 0.90603
 H4031 H 0.43196 0.33232 0.96052
 H4032 H 0.42078 0.30350 0.94942
 C4033 C 1.10180 0.72526 1.12398
 C4034 C 1.11035 0.73375 1.10972
 C4035 C 1.12586 0.72631 1.10250
 C4036 C 1.13290 0.71049 1.10956
 C4037 C 1.12455 0.70168 1.12412
 C4038 C 1.10875 0.70944 1.13111
 C4039 C 1.10333 0.75022 1.10263
 C4040 C 1.09750 0.76409 1.09682
 C4041 C 1.09075 0.78041 1.09015
 C4042 C 1.08503 0.79442 1.08459
 C4043 C 1.07826 0.81124 1.07812
 C4044 C 1.07693 0.81443 1.05971
 C4045 C 1.07054 0.83086 1.05346
 C4046 C 1.06537 0.84432 1.06557
 C4047 C 1.06672 0.84096 1.08405
 C4048 C 1.07313 0.82453 1.09027
 H4049 H 1.08973 0.73091 1.12966
 H4050 H 1.13262 0.73281 1.09144
 H4051 H 1.14500 0.70551 1.10352
 H4052 H 1.10148 0.70347 1.14205
 H4053 H 1.08084 0.80422 1.05019
 H4054 H 1.06946 0.83298 1.03916
 H4055 H 1.06311 0.85114 1.09370
 H4056 H 1.07417 0.82223 1.10455
 C4057 C 1.12595 0.22593 0.60242
 C4058 C 1.11029 0.23326 0.60942
 C4059 C 1.10153 0.22464 0.62347
 C4060 C 1.10841 0.20878 0.63060
 C4061 C 1.12435 0.20113 0.62382
 C4062 C 1.13292 0.21007 0.60947
 C4063 C 1.10334 0.24976 0.60234
 C4064 C 1.09758 0.26365 0.59652
 C4065 C 1.09090 0.28000 0.58985
 C4066 C 1.08526 0.29404 0.58428
 C4067 C 1.07857 0.31089 0.57782
 C4068 C 1.07349 0.32419 0.58998
 C4069 C 1.06714 0.34065 0.58378
 C4070 C 1.06579 0.34402 0.56530
 C4071 C 1.07091 0.33056 0.55317
 C4072 C 1.07725 0.31410 0.55941
 H4073 H 1.13288 0.23253 0.59153
 H4074 H 1.08934 0.23019 0.62898
 H4075 H 1.10096 0.20268 0.64134
 H4076 H 1.14516 0.20520 0.60363
 H4077 H 1.07453 0.32188 0.60425
 H4078 H 1.06356 0.35083 0.59343
 H4079 H 1.06984 0.33269 0.53888
 H4080 H 1.08112 0.30388 0.54989
 C4081 C 0.61901 0.72136 0.59803
 C4082 C 0.61003 0.73343 0.60916
 C4083 C 0.60793 0.72952 0.62735
 C4084 C 0.61480 0.71363 0.63441
 C4085 C 0.62392 0.70142 0.62336
 C4086 C 0.62591 0.70546 0.60506
 C4087 C 0.60313 0.74991 0.60198
 C4088 C 0.59739 0.76379 0.59611
 C4089 C 0.59071 0.78013 0.58941
 C4090 C 0.58505 0.79416 0.58383
 C4091 C 0.57834 0.81101 0.57738
 C4092 C 0.57324 0.82429 0.58955
 C4093 C 0.56685 0.84074 0.58336
 C4094 C 0.56549 0.84413 0.56489
 C4095 C 0.57063 0.83068 0.55275
 C4096 C 0.57700 0.81423 0.55898
 H4097 H 0.62068 0.72423 0.58391
 H4098 H 0.60106 0.73881 0.63610
 H4099 H 0.61326 0.71108 0.64857
 H4100 H 0.63264 0.69626 0.59615
 H4101 H 0.57428 0.82197 0.60382
 H4102 H 0.56326 0.85091 0.59303
 H4103 H 0.56955 0.83283 0.53846
 H4104 H 0.58089 0.80403 0.54944
 C4105 C 0.60131 0.22503 1.12403
 C4106 C 0.60975 0.23347 1.10968
 C4107 C 0.62515 0.22595 1.10230
 C4108 C 0.63218 0.21010 1.10929
 C4109 C 0.62394 0.20133 1.12394
 C4110 C 0.60825 0.20917 1.13109
 C4111 C 0.60275 0.24997 1.10264
 C4112 C 0.59699 0.26386 1.09682
 C4113 C 0.59037 0.28021 1.09009
 C4114 C 0.58484 0.29425 1.08441
 C4115 C 0.57839 0.31110 1.07771
 C4116 C 0.59052 0.32448 1.07279
 C4117 C 0.58432 0.34094 1.06647
 C4118 C 0.56587 0.34426 1.06500
 C4119 C 0.55378 0.33071 1.06995
 C4120 C 0.56001 0.31424 1.07625
 H4121 H 0.58933 0.23074 1.12984
 H4122 H 0.63182 0.23240 1.09117
 H4123 H 0.64418 0.20505 1.10311
 H4124 H 0.60107 0.20326 1.14212
 H4125 H 0.60478 0.32221 1.07393
 H4126 H 0.59396 0.35119 1.06302
 H4127 H 0.53950 0.33280 1.06878
 H4128 H 0.55050 0.30397 1.08000
 C4129 C 1.27025 1.10800 0.87324
 C4130 C 1.26650 1.11006 0.89147
 C4131 C 1.27869 1.11896 0.90254
 C4132 C 1.29455 1.12582 0.89541
 C4133 C 1.29844 1.12385 0.87708
 C4134 C 1.28611 1.11482 0.86609
 C4135 C 1.25005 1.10320 0.89871
 C4136 C 1.23618 1.09747 0.90460
 C4137 C 1.21985 1.09080 0.91127
 C4138 C 1.20580 1.08514 0.91678
 C4139 C 1.18893 1.07844 0.92315
 C4140 C 1.18562 1.07711 0.94153
 C4141 C 1.16914 1.07077 0.94767
 C4142 C 1.15575 1.06567 0.93546
 C4143 C 1.15923 1.06702 0.91700
 C4144 C 1.17571 1.07337 0.91091
 H4145 H 1.26087 1.10119 0.86453
 H4146 H 1.27593 1.12060 0.91668
 H4147 H 1.30385 1.13248 0.90427
 H4148 H 1.28855 1.11330 0.85190
 H4149 H 1.19577 1.08098 0.95112
 H4150 H 1.16692 1.06970 0.96195
 H4151 H 1.14911 1.06345 0.90728
 H4152 H 1.17811 1.07441 0.89664
 C4153 C 1.27059 0.60747 0.37234
 C4154 C 1.26672 0.60960 0.39053
 C4155 C 1.27878 0.61863 0.40163
 C4156 C 1.29463 0.62558 0.39455
 C4157 C 1.29863 0.62357 0.37626
 C4158 C 1.28643 0.61439 0.36524
 C4159 C 1.25027 0.60268 0.39773
 C4160 C 1.23642 0.59696 0.40366
 C4161 C 1.22012 0.59037 0.41049
 C4162 C 1.20611 0.58484 0.41622
 C4163 C 1.18929 0.57837 0.42295
 C4164 C 1.17596 0.59050 0.42793
 C4165 C 1.15950 0.58428 0.43423
 C4166 C 1.15617 0.56580 0.43562
 C4167 C 1.16968 0.55370 0.43064
 C4168 C 1.18614 0.55996 0.42435
 H4169 H 1.26131 0.60056 0.36361
 H4170 H 1.27593 0.62033 0.41574
 H4171 H 1.30383 0.63236 0.40344
 H4172 H 1.28896 0.61283 0.35107
 H4173 H 1.17823 0.60478 0.42684
 H4174 H 1.14928 0.59392 0.43772
 H4175 H 1.16758 0.53941 0.43175
 H4176 H 1.19638 0.55045 0.42055
 C4177 C 0.77883 1.11877 0.40293
 C4178 C 0.76674 1.10975 0.39184
 C4179 C 0.77068 1.10745 0.37369
 C4180 C 0.78661 1.11417 0.36661
 C4181 C 0.79885 1.12331 0.37762
 C4182 C 0.79478 1.12552 0.39588
 C4183 C 0.75023 1.10296 0.39901
 C4184 C 0.73631 1.09729 0.40482
 C4185 C 0.71992 1.09068 0.41142
 C4186 C 0.70584 1.08506 0.41687
 C4187 C 0.68893 1.07839 0.42316
 C4188 C 0.67570 1.07346 0.41088
 C4189 C 0.65919 1.06713 0.41691
 C4190 C 0.65569 1.06566 0.43536
 C4191 C 0.66908 1.07063 0.44761
 C4192 C 0.68560 1.07694 0.44154
 H4193 H 0.77593 1.12059 0.41702
 H4194 H 0.76138 1.10055 0.36497
 H4195 H 0.78919 1.11247 0.35247
 H4196 H 0.80400 1.13228 0.40475
 H4197 H 0.67811 1.07459 0.39662
 H4198 H 0.64906 1.06367 0.40716
 H4199 H 0.66685 1.06946 0.46188
 H4200 H 0.69576 1.08069 0.45116
 C4201 C 0.77876 0.59835 0.88231
 C4202 C 0.76686 0.60962 0.89134
 C4203 C 0.77097 0.62776 0.89342
 C4204 C 0.78690 0.63464 0.88647
 C4205 C 0.79894 0.62345 0.87730
 C4206 C 0.79469 0.60521 0.87533
 C4207 C 0.75034 0.60264 0.89831
 C4208 C 0.73643 0.59692 0.90409
 C4209 C 0.72006 0.59037 0.91079
 C4210 C 0.70600 0.58489 0.91645
 C4211 C 0.68912 0.57849 0.92311
 C4212 C 0.67581 0.59067 0.92803
 C4213 C 0.65932 0.58451 0.93429
 C4214 C 0.65591 0.56605 0.93569
 C4215 C 0.66941 0.55390 0.93076
 C4216 C 0.68590 0.56009 0.92451
 H4217 H 0.77572 0.58428 0.88065
 H4218 H 0.76182 0.63662 0.90033
 H4219 H 0.78961 0.64877 0.88800
 H4220 H 0.80376 0.59620 0.86857
 H4221 H 0.67814 0.60494 0.92693
 H4222 H 0.64912 0.59418 0.93774
 H4223 H 0.66725 0.53962 0.93188
 H4224 H 0.69613 0.55055 0.92076
 C4225 C 1.27016 0.87230 1.10732
 C4226 C 1.26635 0.89050 1.10936
 C4227 C 1.27845 0.90160 1.11834
 C4228 C 1.29428 0.89452 1.12532
 C4229 C 1.29822 0.87620 1.12340
 C4230 C 1.28598 0.86518 1.11427
 C4231 C 1.24992 0.89773 1.10244
 C4232 C 1.23608 0.90367 1.09672
 C4233 C 1.21978 0.91050 1.09014
 C4234 C 1.20577 0.91624 1.08462
 C4235 C 1.18894 0.92298 1.07818
 C4236 C 1.17562 0.92794 1.09034
 C4237 C 1.15916 0.93423 1.08414
 C4238 C 1.15580 0.93563 1.06566
 C4239 C 1.16930 0.93066 1.05354
 C4240 C 1.18577 0.92438 1.05977
 H4241 H 1.26085 0.86357 1.10046
 H4242 H 1.27565 0.91573 1.11997
 H4243 H 1.30351 0.90340 1.13205
 H4244 H 1.28846 0.85101 1.11277
 H4245 H 1.17791 0.92684 1.10461
 H4246 H 1.14895 0.93770 1.09380
 H4247 H 1.16717 0.93177 1.03925
 H4248 H 1.19600 0.92059 1.05024
 C4249 C 1.27090 0.37287 0.60744
 C4250 C 1.26706 0.39106 0.60958
 C4251 C 1.27920 0.40215 0.61852
 C4252 C 1.29510 0.39507 0.62535
 C4253 C 1.29907 0.37677 0.62331
 C4254 C 1.28679 0.36576 0.61423
 C4255 C 1.25059 0.39827 0.60276
 C4256 C 1.23670 0.40415 0.59708
 C4257 C 1.22035 0.41084 0.59047
 C4258 C 1.20630 0.41639 0.58487
 C4259 C 1.18942 0.42279 0.57822
 C4260 C 1.18616 0.44118 0.57689
 C4261 C 1.16968 0.44735 0.57057
 C4262 C 1.15626 0.43517 0.56547
 C4263 C 1.15970 0.41672 0.56683
 C4264 C 1.17617 0.41058 0.57316
 H4265 H 1.26156 0.36415 0.60060
 H4266 H 1.27638 0.41626 0.62023
 H4267 H 1.30436 0.40394 0.63206
 H4268 H 1.28929 0.35160 0.61266
 H4269 H 1.19634 0.45074 0.58075
 H4270 H 1.16750 0.46163 0.56949
 H4271 H 1.14956 0.40702 0.56327
 H4272 H 1.17853 0.39632 0.57420
 C4273 C 0.77044 0.87306 0.60688
 C4274 C 0.76672 0.89130 0.60886
 C4275 C 0.77890 0.90237 0.61776
 C4276 C 0.79472 0.89524 0.62472
 C4277 C 0.79856 0.87689 0.62286
 C4278 C 0.78624 0.86590 0.61381
 C4279 C 0.75030 0.89855 0.60195
 C4280 C 0.73645 0.90447 0.59623
 C4281 C 0.72012 0.91119 0.58959
 C4282 C 0.70607 0.91674 0.58398
 C4283 C 0.68918 0.92313 0.57736
 C4284 C 0.68587 0.94151 0.57607
 C4285 C 0.66936 0.94766 0.56983
 C4286 C 0.65594 0.93546 0.56478
 C4287 C 0.65943 0.91701 0.56609
 C4288 C 0.67593 0.91090 0.57234
 H4289 H 0.76106 0.86435 0.60008
 H4290 H 0.77617 0.91652 0.61934
 H4291 H 0.80401 0.90410 0.63139
 H4292 H 0.78865 0.85170 0.61237
 H4293 H 0.69605 0.95109 0.57990
 H4294 H 0.66713 0.96193 0.56878
 H4295 H 0.64929 0.90729 0.56256
 H4296 H 0.67833 0.89664 0.57335
 C4297 C 0.77851 0.38188 1.09874
 C4298 C 0.76657 0.39098 1.10991
 C4299 C 0.77054 0.39305 1.12809
 C4300 C 0.78636 0.38601 1.13511
 C4301 C 0.79844 0.37676 1.12402
 C4302 C 0.79434 0.37481 1.10574
 C4303 C 0.75014 0.39802 1.10278
 C4304 C 0.73631 0.40386 1.09694
 C4305 C 0.72002 0.41061 1.09025
 C4306 C 0.70602 0.41632 1.08468
 C4307 C 0.68920 0.42304 1.07819
 C4308 C 0.67585 0.42798 1.09032
 C4309 C 0.65940 0.43429 1.08410
 C4310 C 0.65610 0.43574 1.06561
 C4311 C 0.66963 0.43078 1.05351
 C4312 C 0.68608 0.42448 1.05978
 H4313 H 0.77559 0.38023 1.08464
 H4314 H 0.76135 0.40000 1.13687
 H4315 H 0.78896 0.38753 1.14927
 H4316 H 0.80344 0.36798 1.09681
 H4317 H 0.67810 0.42684 1.10460
 H4318 H 0.64917 0.43774 1.09373
 H4319 H 0.66755 0.43194 1.03922
 H4320 H 0.69634 0.42072 1.05027
 C4321 C 0.72119 1.11857 1.09838
 C4322 C 0.73323 1.10952 1.10949
 C4323 C 0.72935 1.10744 1.12769
 C4324 C 0.71354 1.11442 1.13479
 C4325 C 0.70137 1.12362 1.12376
 C4326 C 0.70537 1.12558 1.10545
 C4327 C 0.74964 1.10253 1.10230
 C4328 C 0.76347 1.09673 1.09641
 C4329 C 0.77976 1.09000 1.08970
 C4330 C 0.79376 1.08431 1.08411
 C4331 C 0.81058 1.07759 1.07764
 C4332 C 0.82390 1.07256 1.08978
 C4333 C 0.84033 1.06621 1.08357
 C4334 C 0.84367 1.06479 1.06509
 C4335 C 0.83018 1.06984 1.05298
 C4336 C 0.81374 1.07619 1.05923
 H4337 H 0.72404 1.12022 1.08426
 H4338 H 0.73861 1.10052 1.13643
 H4339 H 0.71101 1.11289 1.14896
 H4340 H 0.69619 1.13236 1.09656
 H4341 H 0.82162 1.07365 1.10406
 H4342 H 0.85053 1.06268 1.09323
 H4343 H 0.83228 1.06873 1.03869
 H4344 H 0.80352 1.08002 1.04971
 C4345 C 0.72969 0.60710 0.62715
 C4346 C 0.73360 0.60922 0.60896
 C4347 C 0.72158 0.61830 0.59786
 C4348 C 0.70575 0.62529 0.60491
 C4349 C 0.70171 0.62327 0.62320
 C4350 C 0.71387 0.61406 0.63423
 C4351 C 0.75001 0.60222 0.60178
 C4352 C 0.76384 0.59639 0.59593
 C4353 C 0.78014 0.58962 0.58927
 C4354 C 0.79414 0.58389 0.58373
 C4355 C 0.81097 0.57712 0.57732
 C4356 C 0.81420 0.57575 0.55893
 C4357 C 0.83065 0.56939 0.55274
 C4358 C 0.84409 0.56431 0.56490
 C4359 C 0.84067 0.56568 0.58337
 C4360 C 0.82422 0.57205 0.58952
 H4361 H 0.73894 0.60015 0.63589
 H4362 H 0.72445 0.61999 0.58374
 H4363 H 0.69658 0.63210 0.59602
 H4364 H 0.71132 0.61250 0.64840
 H4365 H 0.80402 0.57962 0.54937
 H4366 H 0.83282 0.56830 0.53845
 H4367 H 0.85082 0.56212 0.59306
 H4368 H 0.82189 0.57312 0.60379
 C4369 C 0.22934 1.10684 0.62786
 C4370 C 0.23321 1.10887 0.60966
 C4371 C 0.22118 1.11791 0.59853
 C4372 C 0.20538 1.12496 0.60560
 C4373 C 0.20139 1.12307 0.62391
 C4374 C 0.21355 1.11387 0.63495
 C4375 C 0.24963 1.10188 0.60247
 C4376 C 0.26346 1.09609 0.59657
 C4377 C 0.27975 1.08939 0.58984
 C4378 C 0.29376 1.08373 0.58423
 C4379 C 0.31059 1.07706 0.57774
 C4380 C 0.31374 1.07568 0.55933
 C4381 C 0.33019 1.06939 0.55306
 C4382 C 0.34371 1.06438 0.56516
 C4383 C 0.34038 1.06577 0.58365
 C4384 C 0.32394 1.07207 0.58987
 H4385 H 0.23860 1.09993 0.63661
 H4386 H 0.22402 1.11953 0.58441
 H4387 H 0.19621 1.13175 0.59669
 H4388 H 0.21102 1.11238 0.64913
 H4389 H 0.30349 1.07948 0.54982
 H4390 H 0.33229 1.06828 0.53877
 H4391 H 0.35060 1.06227 0.59329
 H4392 H 0.32167 1.07315 0.60416
 C4393 C 0.22161 0.61866 1.09875
 C4394 C 0.23363 0.60959 1.10985
 C4395 C 0.22979 0.60756 1.12806
 C4396 C 0.21401 0.61462 1.13517
 C4397 C 0.20186 0.62384 1.12415
 C4398 C 0.20583 0.62575 1.10583
 C4399 C 0.25001 0.60252 1.10264
 C4400 C 0.26380 0.59665 1.09673
 C4401 C 0.28005 0.58985 1.08998
 C4402 C 0.29401 0.58409 1.08436
 C4403 C 0.31079 0.57731 1.07783
 C4404 C 0.32411 0.57220 1.08994
 C4405 C 0.34051 0.56580 1.08368
 C4406 C 0.34381 0.56444 1.06519
 C4407 C 0.33031 0.56956 1.05312
 C4408 C 0.31391 0.57595 1.05942
 H4409 H 0.22444 0.62028 1.08462
 H4410 H 0.23903 0.60062 1.13680
 H4411 H 0.21150 0.61313 1.14935
 H4412 H 0.19667 0.63255 1.09694
 H4413 H 0.32186 0.57326 1.10423
 H4414 H 0.35071 0.56222 1.09330
 H4415 H 0.33238 0.56848 1.03882
 H4416 H 0.30367 0.57984 1.04992
 C4417 C 0.72894 0.89340 0.87255
 C4418 C 0.73303 0.89125 0.89069
 C4419 C 0.72108 0.88223 0.90192
 C4420 C 0.70513 0.87533 0.89504
 C4421 C 0.70090 0.87738 0.87679
 C4422 C 0.71300 0.88653 0.86564
 C4423 C 0.74958 0.89812 0.89770
 C4424 C 0.76351 0.90380 0.90347
 C4425 C 0.77992 0.91035 0.91010
 C4426 C 0.79400 0.91582 0.91569
 C4427 C 0.81091 0.92221 0.92227
 C4428 C 0.82423 0.91001 0.92716
 C4429 C 0.84074 0.91615 0.93338
 C4430 C 0.84416 0.93461 0.93479
 C4431 C 0.83068 0.94678 0.92986
 C4432 C 0.81416 0.94060 0.92366
 H4433 H 0.73813 0.90029 0.86371
 H4434 H 0.72411 0.88052 0.91600
 H4435 H 0.69602 0.86857 0.90402
 H4436 H 0.71030 0.88811 0.85150
 H4437 H 0.82188 0.89575 0.92607
 H4438 H 0.85093 0.90647 0.93682
 H4439 H 0.83286 0.96106 0.93099
 H4440 H 0.80394 0.95016 0.91993
 C4441 C 0.72989 0.39271 0.37164
 C4442 C 0.73394 0.39058 0.38980
 C4443 C 0.72198 0.38156 0.40102
 C4444 C 0.70605 0.37463 0.39410
 C4445 C 0.70187 0.37664 0.37584
 C4446 C 0.71397 0.38580 0.36470
 C4447 C 0.75046 0.39749 0.39685
 C4448 C 0.76437 0.40319 0.40267
 C4449 C 0.78073 0.40975 0.40940
 C4450 C 0.79477 0.41526 0.41507
 C4451 C 0.81163 0.42169 0.42176
 C4452 C 0.82495 0.40953 0.42673
 C4453 C 0.84141 0.41571 0.43305
 C4454 C 0.84478 0.43418 0.43448
 C4455 C 0.83128 0.44631 0.42949
 C4456 C 0.81482 0.44009 0.42318
 H4457 H 0.73909 0.39961 0.36282
 H4458 H 0.72497 0.37987 0.41510
 H4459 H 0.69694 0.36787 0.40308
 H4460 H 0.71129 0.38736 0.35056
 H4461 H 0.82265 0.39526 0.42562
 H4462 H 0.85161 0.40605 0.43654
 H4463 H 0.83341 0.46059 0.43064
 H4464 H 0.80459 0.44962 0.41940
 C4465 C 0.22896 0.89363 0.37198
 C4466 C 0.23297 0.89166 0.39016
 C4467 C 0.22098 0.88275 0.40143
 C4468 C 0.20507 0.87576 0.39454
 C4469 C 0.20094 0.87759 0.37625
 C4470 C 0.21306 0.88667 0.36506
 C4471 C 0.24951 0.89854 0.39719
 C4472 C 0.26345 0.90419 0.40299
 C4473 C 0.27985 0.91067 0.40969
 C4474 C 0.29393 0.91609 0.41534
 C4475 C 0.31084 0.92241 0.42199
 C4476 C 0.32411 0.91016 0.42688
 C4477 C 0.34063 0.91624 0.43315
 C4478 C 0.34411 0.93468 0.43460
 C4479 C 0.33067 0.94690 0.42969
 C4480 C 0.31414 0.94079 0.42344
 H4481 H 0.23819 0.90044 0.36312
 H4482 H 0.22394 0.88118 0.41554
 H4483 H 0.19594 0.86907 0.40355
 H4484 H 0.21042 0.88810 0.35090
 H4485 H 0.32172 0.89591 0.42576
 H4486 H 0.35079 0.90651 0.43658
 H4487 H 0.33288 0.96117 0.43085
 H4488 H 0.30395 0.95038 0.41971
 C4489 C 0.22933 0.39307 0.87244
 C4490 C 0.23329 0.39104 0.89063
 C4491 C 0.22121 0.38222 0.90187
 C4492 C 0.20526 0.37535 0.89494
 C4493 C 0.20117 0.37723 0.87664
 C4494 C 0.21338 0.38623 0.86548
 C4495 C 0.24986 0.39782 0.89769
 C4496 C 0.26382 0.40342 0.90348
 C4497 C 0.28025 0.40991 0.91011
 C4498 C 0.29436 0.41539 0.91563
 C4499 C 0.31130 0.42189 0.92204
 C4500 C 0.31457 0.42317 0.94044
 C4501 C 0.33110 0.42935 0.94662
 C4502 C 0.34456 0.43436 0.93446
 C4503 C 0.34111 0.43304 0.91599
 C4504 C 0.32459 0.42684 0.90984
 H4505 H 0.23862 0.39982 0.86361
 H4506 H 0.22413 0.38061 0.91598
 H4507 H 0.19606 0.36872 0.90392
 H4508 H 0.21078 0.38769 0.85132
 H4509 H 0.30436 0.41939 0.95000
 H4510 H 0.33329 0.43041 0.96091
 H4511 H 0.35129 0.43653 0.90630
 H4512 H 0.32222 0.42583 0.89557
   
