data_POSCAR
  _audit_creation_date              2014-09-24
  _audit_creation_method            'ToBaCCo'
  _symmetry_space_group_name_H-M    'P1'
  _symmetry_Int_Tables_number       1
  _symmetry_cell_setting            triclinic
  loop_
  _symmetry_equiv_pos_as_xyz
 x,y,z
_cell_length_a 53.1892
_cell_length_b 53.0715
_cell_length_c 54.0038
_cell_angle_alpha 90.052000
_cell_angle_beta 89.991500
_cell_angle_gamma 90.033800
loop_
  _atom_site_label
  _atom_site_type_symbol
  _atom_site_fract_x
  _atom_site_fract_y
  _atom_site_fract_z
C1 C 0.30157 0.39542 -0.00079
 C2 C 0.31084 0.38611 0.02155
 C3 C 0.33167 0.37010 0.02135
 C4 C 0.34423 0.36413 -0.00101
 C5 C 0.33546 0.37536 -0.02321
 C6 C 0.31319 0.38978 -0.02351
 C7 C 0.36448 0.34430 -0.00128
 C8 C 0.36931 0.32988 -0.02289
 C9 C 0.38492 0.30843 -0.02220
 C10 C 0.39553 0.30144 0.00060
 C11 C 0.39157 0.31564 0.02201
 C12 C 0.37710 0.33757 0.02081
 H13 H 0.28559 0.40807 -0.00026
 H14 H 0.33701 0.36163 0.03873
 H15 H 0.34488 0.37159 -0.04052
 H16 H 0.35942 0.33384 -0.03989
 H17 H 0.40787 0.28525 0.00184
 H18 H 0.37496 0.34850 0.03757
 C19 C 0.69623 0.60123 -0.00403
 C20 C 0.68446 0.60640 0.01852
 C21 C 0.66386 0.62285 0.01909
 C22 C 0.65632 0.63612 -0.00244
 C23 C 0.66884 0.63059 -0.02498
 C24 C 0.68842 0.61295 -0.02584
 C25 C 0.63730 0.65714 -0.00097
 C26 C 0.62529 0.66651 -0.02254
 C27 C 0.61100 0.68890 -0.02191
 C28 C 0.60644 0.70014 0.00123
 C29 C 0.61669 0.69043 0.02300
 C30 C 0.63248 0.66942 0.02182
 H31 H 0.71179 0.58803 -0.00454
 H32 H 0.65465 0.62577 0.03668
 H33 H 0.66456 0.64061 -0.04185
 H34 H 0.62818 0.65730 -0.04010
 H35 H 0.59383 0.71611 0.00266
 H36 H 0.64150 0.66361 0.03877
 C37 C 0.69466 0.39658 1.00221
 C38 C 0.68312 0.39078 0.97968
 C39 C 0.66242 0.37439 0.97934
 C40 C 0.65449 0.36191 1.00120
 C41 C 0.66688 0.36799 1.02367
 C42 C 0.68657 0.38551 1.02425
 C43 C 0.63529 0.34103 1.00031
 C44 C 0.62314 0.33258 1.02217
 C45 C 0.60924 0.30997 1.02246
 C46 C 0.60487 0.29764 0.99985
 C47 C 0.61490 0.30661 0.97765
 C48 C 0.63052 0.32783 0.97800
 H49 H 0.71030 0.40971 1.00252
 H50 H 0.65342 0.37089 0.96174
 H51 H 0.66243 0.35845 1.04076
 H52 H 0.62572 0.34260 1.03937
 H53 H 0.59252 0.28140 0.99925
 H54 H 0.63947 0.33311 0.96083
 C55 C 0.30803 0.59981 1.00309
 C56 C 0.32064 0.60452 0.98092
 C57 C 0.34128 0.62088 0.98075
 C58 C 0.34800 0.63473 1.00221
 C59 C 0.33481 0.62955 1.02447
 C60 C 0.31517 0.61189 1.02499
 C61 C 0.36666 0.65609 1.00073
 C62 C 0.37780 0.66645 1.02232
 C63 C 0.39163 0.68916 1.02139
 C64 C 0.39649 0.69987 0.99806
 C65 C 0.38728 0.68904 0.97633
 C66 C 0.37196 0.66771 0.97774
 H67 H 0.29231 0.58678 1.00319
 H68 H 0.35107 0.62339 0.96341
 H69 H 0.33857 0.63989 1.04128
 H70 H 0.37459 0.65777 1.04009
 H71 H 0.40865 0.71619 0.99649
 H72 H 0.36365 0.66114 0.96069
 C73 C 0.00169 0.30759 0.39960
 C74 C 0.02407 0.31999 0.39382
 C75 C 0.02385 0.33981 0.37673
 C76 C 0.00165 0.34597 0.36353
 C77 C -0.02076 0.33297 0.36974
 C78 C -0.02085 0.31413 0.38795
 C79 C 0.00239 0.36387 0.34191
 C80 C -0.01987 0.37510 0.33249
 C81 C -0.01975 0.38833 0.30983
 C82 C 0.00350 0.39269 0.29825
 C83 C 0.02589 0.38311 0.30782
 C84 C 0.02523 0.36831 0.32919
 H85 H 0.00194 0.29252 0.41315
 H86 H 0.04137 0.34948 0.37325
 H87 H -0.03806 0.33627 0.35981
 H88 H -0.03754 0.37241 0.34194
 H89 H 0.00449 0.40471 0.28207
 H90 H 0.04263 0.35972 0.33503
 C91 C -0.00460 0.69267 0.60105
 C92 C 0.01864 0.68162 0.60602
 C93 C 0.01995 0.66117 0.62234
 C94 C -0.00153 0.65320 0.63584
 C95 C -0.02480 0.66513 0.63059
 C96 C -0.02638 0.68451 0.61304
 C97 C 0.00080 0.63452 0.65677
 C98 C -0.02065 0.62245 0.66700
 C99 C -0.01908 0.60845 0.68918
 C100 C 0.00486 0.60433 0.69945
 C101 C 0.02647 0.61462 0.68889
 C102 C 0.02438 0.63005 0.66808
 H103 H -0.00563 0.70810 0.58793
 H104 H 0.03809 0.65249 0.62500
 H105 H -0.04168 0.66060 0.64075
 H106 H -0.03884 0.62503 0.65860
 H107 H 0.00707 0.59202 0.71530
 H108 H 0.04135 0.63908 0.66166
 C109 C 0.99725 0.69939 0.39265
 C110 C 0.97522 0.68574 0.38855
 C111 C 0.97591 0.66423 0.37361
 C112 C 0.99811 0.65744 0.36074
 C113 C 1.02037 0.67123 0.36583
 C114 C 1.02019 0.69221 0.38187
 C115 C 0.99729 0.63821 0.34018
 C116 C 1.01954 0.62702 0.33068
 C117 C 1.01918 0.61307 0.30840
 C118 C 0.99579 0.60792 0.29740
 C119 C 0.97343 0.61722 0.30729
 C120 C 0.97426 0.63274 0.32816
 H121 H 0.99641 0.71522 0.40531
 H122 H 0.95868 0.65368 0.37142
 H123 H 1.03753 0.66719 0.35595
 H124 H 1.03738 0.63037 0.33962
 H125 H 0.99471 0.59557 0.28144
 H126 H 0.95678 0.64117 0.33403
 C127 C 1.00358 0.30388 0.60406
 C128 C 0.98074 0.31547 0.60969
 C129 C 0.98028 0.33564 0.62643
 C130 C 1.00224 0.34287 0.63953
 C131 C 1.02509 0.33054 0.63356
 C132 C 1.02587 0.31143 0.61561
 C133 C 1.00087 0.36139 0.66067
 C134 C 1.02273 0.37356 0.66987
 C135 C 1.02212 0.38771 0.69203
 C136 C 0.99866 0.39177 0.70335
 C137 C 0.97661 0.38127 0.69388
 C138 C 0.97783 0.36570 0.67305
 H139 H 1.00393 0.28873 0.59057
 H140 H 0.96244 0.34477 0.62968
 H141 H 1.04228 0.33466 0.64340
 H142 H 1.04051 0.37098 0.66061
 H143 H 0.99714 0.40430 0.71914
 H144 H 0.96068 0.35649 0.66736
 C145 C 0.39288 0.00209 0.30127
 C146 C 0.38382 0.02421 0.31197
 C147 C 0.36880 0.02285 0.33309
 C148 C 0.36366 -0.00048 0.34466
 C149 C 0.37450 -0.02256 0.33431
 C150 C 0.38808 -0.02165 0.31182
 C151 C 0.34544 -0.00167 0.36602
 C152 C 0.33188 -0.02404 0.37127
 C153 C 0.31252 -0.02418 0.38894
 C154 C 0.30609 -0.00176 0.40099
 C155 C 0.31906 0.02054 0.39618
 C156 C 0.33943 0.02029 0.37978
 H157 H 0.40491 0.00370 0.28514
 H158 H 0.36059 0.04023 0.33959
 H159 H 0.37128 -0.04063 0.34290
 H160 H 0.33516 -0.04117 0.36097
 H161 H 0.29063 -0.00151 0.41409
 H162 H 0.34957 0.03772 0.37720
 C163 C 0.60696 0.00285 0.70069
 C164 C 0.61658 0.02546 0.69150
 C165 C 0.63171 0.02515 0.67034
 C166 C 0.63645 0.00242 0.65744
 C167 C 0.62474 -0.01993 0.66616
 C168 C 0.61128 -0.02021 0.68867
 C169 C 0.65524 0.00172 0.63653
 C170 C 0.66767 -0.02103 0.63031
 C171 C 0.68707 -0.02145 0.61278
 C172 C 0.69488 0.00106 0.60185
 C173 C 0.68328 0.02388 0.60776
 C174 C 0.66283 0.02405 0.62416
 H175 H 0.59494 0.00352 0.71689
 H176 H 0.64032 0.04270 0.66489
 H177 H 0.62729 -0.03748 0.65641
 H178 H 0.66348 -0.03846 0.63972
 H179 H 0.71030 0.00092 0.58870
 H180 H 0.65377 0.04189 0.62772
 C181 C 0.39887 0.99932 0.69358
 C182 C 0.39394 0.97684 0.68107
 C183 C 0.37770 0.97687 0.66069
 C184 C 0.36431 0.99892 0.65403
 C185 C 0.36953 1.02145 0.66728
 C186 C 0.38699 1.02171 0.68676
 C187 C 0.34345 0.99782 0.63518
 C188 C 0.33415 1.02003 0.62385
 C189 C 0.31194 1.01969 0.60956
 C190 C 0.30073 0.99625 0.60447
 C191 C 0.31041 0.97388 0.61405
 C192 C 0.33129 0.97472 0.62974
 H193 H 0.41184 0.99922 0.70908
 H194 H 0.37496 0.95929 0.65097
 H195 H 0.35935 1.03864 0.66365
 H196 H 0.34329 1.03784 0.62726
 H197 H 0.28483 0.99507 0.59197
 H198 H 0.33708 0.95725 0.63821
 C199 C 0.60634 0.99845 0.30207
 C200 C 0.61653 0.97630 0.31163
 C201 C 0.63193 0.97739 0.33252
 C202 C 0.63647 1.00049 0.34482
 C203 C 0.62465 1.02253 0.33551
 C204 C 0.61070 1.02197 0.31326
 C205 C 0.65513 1.00173 0.36577
 C206 C 0.66798 1.02444 0.37127
 C207 C 0.68746 1.02501 0.38874
 C208 C 0.69480 1.00268 0.40036
 C209 C 0.68265 0.97994 0.39523
 C210 C 0.66216 0.97971 0.37893
 H211 H 0.59395 0.99702 0.28620
 H212 H 0.64093 0.96013 0.33825
 H213 H 0.62744 1.04037 0.34469
 H214 H 0.66404 1.04163 0.36132
 H215 H 0.71028 1.00290 0.41343
 H216 H 0.65263 0.96198 0.37600
 O217 O 0.86489 0.83144 0.47489
 O218 O 0.83470 0.86874 0.52334
 O219 O 0.86807 0.83357 0.52281
 O220 O 0.83134 0.86642 0.47568
 O221 O 0.80103 0.83817 0.47880
 O222 O 0.83859 0.80451 0.52628
 O223 O 0.80451 0.84040 0.52674
 O224 O 0.83557 0.80214 0.47808
 Cu225 Cu 0.85274 0.85283 0.49885
 Cu226 Cu 0.81691 0.81833 0.50276
 C227 C 0.85564 0.81047 0.46823
 C228 C 0.81437 0.86125 0.53318
 C229 C 0.85980 0.81350 0.53264
 C230 C 0.80986 0.85826 0.46934
 O231 O 0.16792 0.13257 0.51797
 O232 O 0.13757 0.17164 0.47114
 O233 O 0.17164 0.13713 0.47057
 O234 O 0.13371 0.16696 0.51877
 O235 O 0.16265 0.19627 0.52411
 O236 O 0.20149 0.16561 0.47563
 O237 O 0.16632 0.20123 0.47616
 O238 O 0.19762 0.16113 0.52326
 Cu239 Cu 0.14978 0.14926 0.49411
 Cu240 Cu 0.18497 0.18409 0.50024
 C241 C 0.18802 0.13982 0.52843
 C242 C 0.14647 0.19310 0.46571
 C243 C 0.19314 0.14584 0.46511
 C244 C 0.14146 0.18668 0.52966
 O245 O 0.12502 0.83656 0.52480
 O246 O 0.15824 0.87444 0.47862
 O247 O 0.12318 0.84078 0.47723
 O248 O 0.15924 0.87085 0.52645
 O249 O 0.18867 0.84171 0.52357
 O250 O 0.15169 0.81085 0.47350
 O251 O 0.18748 0.84518 0.47526
 O252 O 0.15349 0.80650 0.52149
 Cu253 Cu 0.13860 0.85859 0.50207
 Cu254 Cu 0.17333 0.82308 0.49814
 C255 C 0.13329 0.81502 0.53089
 C256 C 0.17857 0.86650 0.46911
 C257 C 0.13084 0.82064 0.46707
 C258 C 0.18004 0.86168 0.53350
 O259 O 0.86972 0.16608 0.52677
 O260 O 0.83808 0.12978 0.47843
 O261 O 0.87289 0.16367 0.47906
 O262 O 0.83490 0.13222 0.52622
 O263 O 0.80562 0.16150 0.52307
 O264 O 0.84445 0.19370 0.47554
 O265 O 0.80894 0.15915 0.47501
 O266 O 0.84145 0.19634 0.52356
 Cu267 Cu 0.85672 0.14499 0.50296
 Cu268 Cu 0.82216 0.18070 0.49901
 C269 C 0.86135 0.18747 0.53327
 C270 C 0.81807 0.13800 0.46854
 C271 C 0.86544 0.18410 0.46934
 C272 C 0.81376 0.14117 0.53261
 O273 O 0.47338 0.86731 0.82911
 O274 O 0.52060 0.83602 0.86731
 O275 O 0.52187 0.86925 0.83229
 O276 O 0.47220 0.83530 0.86461
 O277 O 0.47455 0.80411 0.83764
 O278 O 0.52480 0.83913 0.80424
 O279 O 0.52351 0.80502 0.84022
 O280 O 0.47607 0.83708 0.80110
 Cu281 Cu 0.49686 0.85502 0.85101
 Cu282 Cu 0.50007 0.81818 0.81801
 C283 C 0.46668 0.85772 0.80862
 C284 C 0.52987 0.81504 0.86068
 C285 C 0.53163 0.86047 0.81268
 C286 C 0.46487 0.81395 0.85693
 O287 O 0.52008 0.16585 0.13386
 O288 O 0.46989 0.13443 0.16771
 O289 O 0.47164 0.16945 0.13521
 O290 O 0.51836 0.13142 0.16766
 O291 O 0.52116 0.15990 0.19732
 O292 O 0.47420 0.19892 0.16401
 O293 O 0.47210 0.16287 0.19748
 O294 O 0.52290 0.19531 0.16260
 Cu295 Cu 0.49486 0.14744 0.14822
 Cu296 Cu 0.49793 0.18217 0.18339
 C297 C 0.52984 0.18604 0.14196
 C298 C 0.46232 0.14306 0.18828
 C299 C 0.46493 0.19062 0.14389
 C300 C 0.52757 0.13880 0.18811
 O301 O 0.52274 0.12161 0.84192
 O302 O 0.47371 0.15337 0.87740
 O303 O 0.47398 0.12024 0.84207
 O304 O 0.52220 0.15451 0.87671
 O305 O 0.52129 0.18537 0.84937
 O306 O 0.47279 0.15030 0.81392
 O307 O 0.47225 0.18413 0.85003
 O308 O 0.52195 0.15173 0.81378
 Cu309 Cu 0.49813 0.13439 0.86222
 Cu310 Cu 0.49684 0.17096 0.82892
 C311 C 0.53095 0.13115 0.82197
 C312 C 0.46486 0.17433 0.87025
 C313 C 0.46528 0.12908 0.82200
 C314 C 0.53005 0.17574 0.86913
 O315 O 0.47945 0.84059 0.12776
 O316 O 0.52823 0.87355 0.16252
 O317 O 0.52795 0.84006 0.12839
 O318 O 0.47960 0.87445 0.16241
 O319 O 0.47849 0.84503 0.19121
 O320 O 0.52739 0.80971 0.15630
 O321 O 0.52763 0.84405 0.19130
 O322 O 0.47839 0.81024 0.15563
 Cu323 Cu 0.50373 0.86013 0.14251
 Cu324 Cu 0.50276 0.82422 0.17653
 C325 C 0.47088 0.81963 0.13526
 C326 C 0.53642 0.86455 0.18272
 C327 C 0.53603 0.81910 0.13636
 C328 C 0.47096 0.86606 0.18269
 O329 O 0.87362 0.51905 0.83910
 O330 O 0.83523 0.47353 0.87288
 O331 O 0.87043 0.47055 0.84040
 O332 O 0.83878 0.52221 0.87238
 O333 O 0.80985 0.52390 0.84316
 O334 O 0.84227 0.47170 0.81042
 O335 O 0.80613 0.47494 0.84376
 O336 O 0.84553 0.52069 0.80910
 Cu337 Cu 0.85730 0.49627 0.85913
 Cu338 Cu 0.82302 0.49800 0.82359
 C339 C 0.86651 0.52745 0.81824
 C340 C 0.81418 0.46643 0.86429
 C341 C 0.86206 0.46234 0.81994
 C342 C 0.81883 0.53175 0.86359
 O343 O 0.16041 0.47665 0.12523
 O344 O 0.12562 0.52440 0.15964
 O345 O 0.15987 0.52537 0.12558
 O346 O 0.12660 0.47566 0.15909
 O347 O 0.15572 0.47579 0.18819
 O348 O 0.18961 0.52595 0.15404
 O349 O 0.15451 0.52496 0.18893
 O350 O 0.19034 0.47676 0.15353
 Cu351 Cu 0.14021 0.50060 0.13957
 Cu352 Cu 0.17555 0.50099 0.17411
 C353 C 0.18123 0.46844 0.13331
 C354 C 0.13368 0.53269 0.18019
 C355 C 0.18055 0.53396 0.13372
 C356 C 0.13533 0.46715 0.17927
 O357 O 0.87117 0.47663 0.16235
 O358 O 0.83401 0.52277 0.12820
 O359 O 0.86868 0.52527 0.16122
 O360 O 0.83695 0.47414 0.12850
 O361 O 0.80756 0.47261 0.15731
 O362 O 0.84002 0.52433 0.19076
 O363 O 0.80440 0.52153 0.15684
 O364 O 0.84266 0.47521 0.19198
 Cu365 Cu 0.85557 0.49976 0.14221
 Cu366 Cu 0.82071 0.49826 0.17722
 C367 C 0.86361 0.46814 0.18301
 C368 C 0.81288 0.53000 0.13645
 C369 C 0.86001 0.53357 0.18153
 C370 C 0.81674 0.46480 0.13694
 O371 O 0.17168 0.52946 0.86719
 O372 O 0.13303 0.48285 0.83523
 O373 O 0.16800 0.48099 0.86834
 O374 O 0.13672 0.53140 0.83449
 O375 O 0.16486 0.52880 0.80455
 O376 O 0.19699 0.47770 0.83927
 O377 O 0.16107 0.47968 0.80528
 O378 O 0.20088 0.52646 0.83825
 Cu379 Cu 0.14953 0.50640 0.85420
 Cu380 Cu 0.18383 0.50285 0.81877
 C381 C 0.19289 0.53580 0.85847
 C382 C 0.14009 0.47342 0.81478
 C383 C 0.18792 0.47093 0.86002
 C384 C 0.14520 0.53875 0.81377
 C385 C 0.27189 0.39227 0.04649
 C386 C 0.25923 0.40350 0.06636
 C387 C 0.27304 0.41556 0.08535
 C388 C 0.29943 0.41499 0.08466
 C389 C 0.31193 0.40399 0.06455
 C390 C 0.29820 0.39333 0.04494
 C391 C 0.26023 0.42889 0.10400
 C392 C 0.23387 0.43077 0.10344
 C393 C 0.22021 0.41784 0.08486
 C394 C 0.23294 0.40401 0.06671
 C395 C 0.19401 0.41983 0.08399
 C396 C 0.18146 0.43560 0.10047
 C397 C 0.19478 0.44944 0.11840
 C398 C 0.22097 0.44630 0.12036
 H399 H 0.26124 0.38377 0.03152
 H400 H 0.31037 0.42396 0.09912
 H401 H 0.33225 0.40498 0.06366
 H402 H 0.27080 0.43868 0.11825
 H403 H 0.22241 0.39463 0.05217
 H404 H 0.18328 0.40989 0.06999
 H405 H 0.16125 0.43741 0.09879
 H406 H 0.23141 0.45692 0.13410
 C407 C 0.72144 0.60013 0.04575
 C408 C 0.73353 0.58854 0.06570
 C409 C 0.71971 0.57299 0.08201
 C410 C 0.69366 0.57020 0.07846
 C411 C 0.68171 0.58182 0.05832
 C412 C 0.69571 0.59630 0.04151
 C413 C 0.73234 0.55996 0.10098
 C414 C 0.75862 0.56197 0.10339
 C415 C 0.77211 0.57817 0.08734
 C416 C 0.75945 0.59156 0.06888
 C417 C 0.79827 0.57999 0.08927
 C418 C 0.81123 0.56493 0.10604
 C419 C 0.79829 0.54812 0.12155
 C420 C 0.77185 0.54727 0.12075
 H421 H 0.73221 0.61162 0.03296
 H422 H 0.68268 0.55850 0.09084
 H423 H 0.66181 0.57877 0.05535
 H424 H 0.72189 0.54762 0.11324
 H425 H 0.76995 0.60359 0.05635
 H426 H 0.80881 0.59240 0.07719
 H427 H 0.83157 0.56602 0.10652
 H428 H 0.76177 0.53419 0.13254
 C429 C 0.72048 0.39623 0.95280
 C430 C 0.73303 0.40774 0.93307
 C431 C 0.71963 0.42330 0.91647
 C432 C 0.69351 0.42616 0.91947
 C433 C 0.68111 0.41469 0.93945
 C434 C 0.69471 0.40025 0.95659
 C435 C 0.73273 0.43636 0.89780
 C436 C 0.75907 0.43440 0.89604
 C437 C 0.77215 0.41819 0.91239
 C438 C 0.75902 0.40473 0.93049
 C439 C 0.79836 0.41644 0.91112
 C440 C 0.81175 0.43157 0.89473
 C441 C 0.79920 0.44838 0.87892
 C442 C 0.77275 0.44917 0.87905
 H443 H 0.73095 0.38481 0.96587
 H444 H 0.68284 0.43788 0.90686
 H445 H 0.66119 0.41791 0.94209
 H446 H 0.72260 0.44871 0.88532
 H447 H 0.76920 0.39270 0.94327
 H448 H 0.80859 0.40402 0.92344
 H449 H 0.83209 0.43050 0.89476
 H450 H 0.76297 0.46223 0.86702
 C451 C 0.28496 0.60080 0.95176
 C452 C 0.27309 0.58989 0.93129
 C453 C 0.28631 0.57256 0.91626
 C454 C 0.31167 0.56735 0.92153
 C455 C 0.32341 0.57839 0.94211
 C456 C 0.30987 0.59466 0.95765
 C457 C 0.27368 0.56021 0.89683
 C458 C 0.24794 0.56467 0.89272
 C459 C 0.23514 0.58267 0.90742
 C460 C 0.24787 0.59537 0.92633
 C461 C 0.20944 0.58688 0.90381
 C462 C 0.19608 0.57234 0.88685
 C463 C 0.20825 0.55373 0.87280
 C464 C 0.23440 0.55055 0.87510
 H465 H 0.27460 0.61362 0.96364
 H466 H 0.32220 0.55426 0.91014
 H467 H 0.34271 0.57360 0.94640
 H468 H 0.28359 0.54649 0.88559
 H469 H 0.23785 0.60876 0.93788
 H470 H 0.19943 0.60069 0.91484
 H471 H 0.17596 0.57512 0.88522
 H472 H 0.24381 0.53601 0.86447
 C473 C 0.05444 0.28493 0.39765
 C474 C 0.07488 0.27321 0.40917
 C475 C 0.08920 0.28654 0.42693
 C476 C 0.08335 0.31189 0.43194
 C477 C 0.06277 0.32344 0.42034
 C478 C 0.04786 0.30976 0.40365
 C479 C 0.10839 0.27400 0.43996
 C480 C 0.11293 0.24822 0.43576
 C481 C 0.09901 0.23533 0.41732
 C482 C 0.08038 0.24799 0.40395
 C483 C 0.10305 0.20960 0.41330
 C484 C 0.11955 0.19629 0.42840
 C485 C 0.13277 0.20851 0.44745
 C486 C 0.13013 0.23472 0.45050
 H487 H 0.04295 0.27443 0.38462
 H488 H 0.09418 0.32250 0.44536
 H489 H 0.05788 0.34265 0.42510
 H490 H 0.11903 0.28399 0.45401
 H491 H 0.06939 0.23788 0.39023
 H492 H 0.09263 0.19953 0.39916
 H493 H 0.12146 0.17615 0.42568
 H494 H 0.14011 0.24419 0.46534
 C495 C 0.04492 0.71967 0.59995
 C496 C 0.06461 0.73262 0.58847
 C497 C 0.08159 0.71949 0.57302
 C498 C 0.07898 0.69327 0.57018
 C499 C 0.05905 0.68046 0.58166
 C500 C 0.04155 0.69375 0.59606
 C501 C 0.10027 0.73295 0.56014
 C502 C 0.10170 0.75936 0.56220
 C503 C 0.08499 0.77218 0.57826
 C504 C 0.06684 0.75871 0.59151
 C505 C 0.08596 0.79846 0.58012
 C506 C 0.10244 0.81216 0.56530
 C507 C 0.11859 0.79985 0.54865
 C508 C 0.11873 0.77334 0.54771
 H509 H 0.03161 0.72991 0.61138
 H510 H 0.09188 0.68281 0.55855
 H511 H 0.05676 0.66043 0.57857
 H512 H 0.11304 0.72302 0.54790
 H513 H 0.05379 0.76867 0.60345
 H514 H 0.07337 0.80850 0.59244
 H515 H 0.10217 0.83253 0.56647
 H516 H 0.13102 0.76372 0.53478
 C517 C 0.94491 0.72080 0.39391
 C518 C 0.92483 0.73222 0.40629
 C519 C 0.91053 0.71823 0.42354
 C520 C 0.91603 0.69258 0.42716
 C521 C 0.93638 0.68136 0.41484
 C522 C 0.95136 0.69566 0.39872
 C523 C 0.89178 0.73041 0.43752
 C524 C 0.88776 0.75648 0.43485
 C525 C 0.90170 0.77009 0.41695
 C526 C 0.91978 0.75780 0.40255
 C527 C 0.89828 0.79611 0.41454
 C528 C 0.88234 0.80891 0.43066
 C529 C 0.86906 0.79588 0.44911
 C530 C 0.87110 0.76949 0.45060
 H531 H 0.95634 0.73180 0.38126
 H532 H 0.90520 0.68146 0.44018
 H533 H 0.94110 0.66191 0.41871
 H534 H 0.88115 0.71987 0.45117
 H535 H 0.93078 0.76843 0.38924
 H536 H 0.90873 0.80675 0.40085
 H537 H 0.88086 0.82921 0.42914
 H538 H 0.86106 0.75939 0.46497
 C539 C 0.95260 0.27875 0.60371
 C540 C 0.93232 0.26676 0.59216
 C541 C 0.91625 0.28061 0.57640
 C542 C 0.92028 0.30663 0.57340
 C543 C 0.94070 0.31848 0.58502
 C544 C 0.95733 0.30442 0.59970
 C545 C 0.89709 0.26804 0.56333
 C546 C 0.89425 0.24176 0.56554
 C547 C 0.90994 0.22825 0.58201
 C548 C 0.92860 0.24087 0.59542
 C549 C 0.90754 0.20208 0.58405
 C550 C 0.89077 0.18910 0.56890
 C551 C 0.87574 0.20205 0.55174
 C552 C 0.87688 0.22853 0.55072
 H553 H 0.96529 0.26794 0.61529
 H554 H 0.90809 0.31764 0.56153
 H555 H 0.94409 0.33833 0.58183
 H556 H 0.88507 0.27850 0.55080
 H557 H 0.94093 0.23034 0.60763
 H558 H 0.91933 0.19152 0.59669
 H559 H 0.89004 0.16874 0.57011
 H560 H 0.86547 0.23862 0.53738
 C561 C 0.38770 0.05242 0.27534
 C562 C 0.39846 0.07340 0.26373
 C563 C 0.41213 0.09118 0.27788
 C564 C 0.41346 0.08836 0.30369
 C565 C 0.40281 0.06723 0.31511
 C566 C 0.39065 0.04873 0.30087
 C567 C 0.42522 0.11065 0.26586
 C568 C 0.42529 0.11209 0.23988
 C569 C 0.41058 0.09492 0.22597
 C570 C 0.39697 0.07597 0.23800
 C571 C 0.41076 0.09605 0.20010
 C572 C 0.42671 0.11280 0.18800
 C573 C 0.44250 0.12901 0.20151
 C574 C 0.44094 0.12936 0.22750
 H575 H 0.37810 0.03825 0.26436
 H576 H 0.42367 0.10188 0.31489
 H577 H 0.40524 0.06465 0.33486
 H578 H 0.43634 0.12385 0.27662
 H579 H 0.38632 0.06241 0.22721
 H580 H 0.39942 0.08320 0.18920
 H581 H 0.42734 0.11246 0.16795
 H582 H 0.45311 0.14177 0.23804
 C583 C 0.61173 0.05035 0.73029
 C584 C 0.59996 0.06980 0.74339
 C585 C 0.58707 0.08898 0.73042
 C586 C 0.58748 0.08903 0.70442
 C587 C 0.59883 0.06918 0.69147
 C588 C 0.61012 0.04922 0.70439
 C589 C 0.57291 0.10687 0.74364
 C590 C 0.57085 0.10517 0.76954
 C591 C 0.58460 0.08646 0.78239
 C592 C 0.59943 0.06926 0.76928
 C593 C 0.58232 0.08436 0.80810
 C594 C 0.56546 0.09962 0.82090
 C595 C 0.55085 0.11757 0.80833
 C596 C 0.55427 0.12092 0.78271
 H597 H 0.62069 0.03509 0.74030
 H598 H 0.57789 0.10367 0.69412
 H599 H 0.59740 0.06861 0.67148
 H600 H 0.56247 0.12120 0.73370
 H601 H 0.60940 0.05454 0.77917
 H602 H 0.59286 0.07024 0.81821
 H603 H 0.56344 0.09695 0.84069
 H604 H 0.54307 0.13471 0.77286
 C605 C 0.39761 0.94752 0.71639
 C606 C 0.40903 0.92726 0.72845
 C607 C 0.42642 0.91196 0.71558
 C608 C 0.43117 0.91671 0.69038
 C609 C 0.41977 0.93723 0.67851
 C610 C 0.40352 0.95312 0.69171
 C611 C 0.43943 0.89294 0.72840
 C612 C 0.43569 0.88968 0.75399
 C613 C 0.41766 0.90465 0.76648
 C614 C 0.40417 0.92299 0.75354
 C615 C 0.41426 0.90199 0.79204
 C616 C 0.42962 0.88576 0.80547
 C617 C 0.44819 0.87145 0.79352
 C618 C 0.45058 0.87273 0.76762
 H619 H 0.38482 0.95969 0.72650
 H620 H 0.44431 0.90510 0.68014
 H621 H 0.42440 0.94131 0.65940
 H622 H 0.45320 0.88152 0.71874
 H623 H 0.39075 0.93477 0.76330
 H624 H 0.40046 0.91325 0.80181
 H625 H 0.42743 0.88487 0.82540
 H626 H 0.46508 0.86189 0.75838
 C627 C 0.61279 0.95033 0.27345
 C628 C 0.60196 0.93010 0.26070
 C629 C 0.58934 0.91093 0.27398
 C630 C 0.58911 0.91170 0.29997
 C631 C 0.59962 0.93225 0.31254
 C632 C 0.61064 0.95213 0.29927
 C633 C 0.57607 0.89219 0.26102
 C634 C 0.57465 0.89297 0.23504
 C635 C 0.58821 0.91164 0.22191
 C636 C 0.60213 0.92976 0.23481
 C637 C 0.58657 0.91279 0.19609
 C638 C 0.57044 0.89666 0.18341
 C639 C 0.55593 0.87878 0.19624
 C640 C 0.55883 0.87634 0.22201
 H641 H 0.62152 0.96557 0.26319
 H642 H 0.57972 0.89710 0.31050
 H643 H 0.59781 0.93336 0.33249
 H644 H 0.56580 0.87786 0.27116
 H645 H 0.61192 0.94445 0.22469
 H646 H 0.59699 0.92686 0.18578
 H647 H 0.56880 0.89864 0.16351
 H648 H 0.54769 0.86262 0.23205
 C649 C 0.39362 0.26761 0.95839
 C650 C 0.40248 0.25345 0.93837
 C651 C 0.40780 0.26539 0.91562
 C652 C 0.40222 0.29109 0.91285
 C653 C 0.39306 0.30513 0.93294
 C654 C 0.38992 0.29383 0.95638
 C655 C 0.41930 0.25159 0.89644
 C656 C 0.42556 0.22608 0.89997
 C657 C 0.41867 0.21398 0.92231
 C658 C 0.40705 0.22767 0.94124
 C659 C 0.42447 0.18856 0.92590
 C660 C 0.43835 0.17550 0.90823
 C661 C 0.44673 0.18755 0.88655
 C662 C 0.43950 0.21269 0.88210
 H663 H 0.38976 0.25804 0.97571
 H664 H 0.40578 0.30054 0.89543
 H665 H 0.39033 0.32519 0.93047
 H666 H 0.42416 0.26089 0.87922
 H667 H 0.40254 0.21848 0.95862
 H668 H 0.41904 0.17898 0.94279
 H669 H 0.44330 0.15610 0.91205
 H670 H 0.44572 0.22216 0.86541
 C671 C 0.59988 0.72712 0.95521
 C672 C 0.58945 0.73926 0.93469
 C673 C 0.58059 0.72499 0.91444
 C674 C 0.58354 0.69870 0.91472
 C675 C 0.59430 0.68664 0.93526
 C676 C 0.60184 0.70062 0.95625
 C677 C 0.56859 0.73726 0.89459
 C678 C 0.56536 0.76360 0.89497
 C679 C 0.57526 0.77775 0.91494
 C680 C 0.58735 0.76553 0.93451
 C681 C 0.57220 0.80391 0.91552
 C682 C 0.55836 0.81596 0.89717
 C683 C 0.54744 0.80217 0.87772
 C684 C 0.55165 0.77599 0.87628
 H685 H 0.60695 0.73863 0.97028
 H686 H 0.57707 0.68740 0.89927
 H687 H 0.59527 0.66628 0.93512
 H688 H 0.56127 0.72632 0.87923
 H689 H 0.59444 0.77645 0.95001
 H690 H 0.57987 0.81499 0.93060
 H691 H 0.55564 0.83614 0.89859
 H692 H 0.54327 0.76516 0.86138
 C693 C 0.40139 0.72814 0.04369
 C694 C 0.41150 0.74096 0.06401
 C695 C 0.42093 0.72732 0.08440
 C696 C 0.41866 0.70096 0.08458
 C697 C 0.40811 0.68822 0.06430
 C698 C 0.40020 0.70158 0.04309
 C699 C 0.43287 0.74028 0.10390
 C700 C 0.43543 0.76668 0.10305
 C701 C 0.42477 0.78019 0.08305
 C702 C 0.41279 0.76728 0.06381
 C703 C 0.42704 0.80642 0.08206
 C704 C 0.44098 0.81917 0.09990
 C705 C 0.45284 0.80603 0.11923
 C706 C 0.44928 0.77978 0.12121
 H707 H 0.39404 0.73911 0.02839
 H708 H 0.42553 0.69013 0.10017
 H709 H 0.40767 0.66784 0.06475
 H710 H 0.44073 0.72983 0.11930
 H711 H 0.40520 0.77771 0.04824
 H712 H 0.41874 0.81701 0.06698
 H713 H 0.44315 0.83938 0.09808
 H714 H 0.45836 0.76945 0.13603
 C715 C 0.59997 0.27255 0.04713
 C716 C 0.58990 0.26095 0.06812
 C717 C 0.57966 0.27574 0.08735
 C718 C 0.58120 0.30211 0.08577
 C719 C 0.59183 0.31365 0.06486
 C720 C 0.60044 0.29900 0.04476
 C721 C 0.56762 0.26385 0.10743
 C722 C 0.56579 0.23739 0.10828
 C723 C 0.57738 0.22281 0.08951
 C724 C 0.58945 0.23466 0.06972
 C725 C 0.57581 0.19653 0.09017
 C726 C 0.56149 0.18469 0.10829
 C727 C 0.54864 0.19885 0.12628
 C728 C 0.55164 0.22522 0.12681
 H729 H 0.60787 0.26074 0.03270
 H730 H 0.57372 0.31383 0.10047
 H731 H 0.59179 0.33402 0.06392
 H732 H 0.55907 0.27514 0.12190
 H733 H 0.59770 0.22338 0.05505
 H734 H 0.58483 0.18514 0.07607
 H735 H 0.55971 0.16436 0.10769
 H736 H 0.54172 0.23628 0.14057
 C737 C 0.27405 0.04331 0.59860
 C738 C 0.26217 0.06434 0.58839
 C739 C 0.27660 0.08497 0.58007
 C740 C 0.30279 0.08456 0.58335
 C741 C 0.31459 0.06348 0.59385
 C742 C 0.30045 0.04210 0.60081
 C743 C 0.26462 0.10529 0.56821
 C744 C 0.23842 0.10496 0.56452
 C745 C 0.22408 0.08461 0.57387
 C746 C 0.23599 0.06461 0.58589
 C747 C 0.19805 0.08404 0.57028
 C748 C 0.18636 0.10273 0.55640
 C749 C 0.20039 0.12253 0.54605
 C750 C 0.22638 0.12403 0.55084
 H751 H 0.26242 0.02794 0.60523
 H752 H 0.31421 0.10030 0.57729
 H753 H 0.33489 0.06351 0.59505
 H754 H 0.27571 0.12093 0.56129
 H755 H 0.22495 0.04881 0.59255
 H756 H 0.18682 0.06867 0.57751
 H757 H 0.16630 0.10131 0.55321
 H758 H 0.23737 0.13919 0.54286
 C759 C 0.72742 0.04859 0.39515
 C760 C 0.74061 0.06901 0.40518
 C761 C 0.72731 0.09009 0.41439
 C762 C 0.70101 0.09081 0.41220
 C763 C 0.68795 0.07015 0.40243
 C764 C 0.70105 0.04859 0.39465
 C765 C 0.74042 0.10944 0.42661
 C766 C 0.76652 0.10755 0.43026
 C767 C 0.77978 0.08684 0.42015
 C768 C 0.76681 0.06794 0.40735
 C769 C 0.80571 0.08468 0.42398
 C770 C 0.81822 0.10203 0.43891
 C771 C 0.80516 0.12210 0.45001
 C772 C 0.77941 0.12529 0.44489
 H773 H 0.73760 0.03208 0.38883
 H774 H 0.69049 0.10687 0.41898
 H775 H 0.66760 0.07046 0.40215
 H776 H 0.73020 0.12533 0.43424
 H777 H 0.77696 0.05179 0.40016
 H778 H 0.81614 0.06903 0.41621
 H779 H 0.83811 0.09934 0.44232
 H780 H 0.76916 0.14067 0.45340
 C781 C 0.72638 0.95411 0.60551
 C782 C 0.73894 0.93329 0.59551
 C783 C 0.72501 0.91259 0.58636
 C784 C 0.69870 0.91265 0.58852
 C785 C 0.68629 0.93366 0.59835
 C786 C 0.70002 0.95481 0.60617
 C787 C 0.73752 0.89275 0.57433
 C788 C 0.76369 0.89374 0.57085
 C789 C 0.77758 0.91409 0.58088
 C790 C 0.76517 0.93351 0.59343
 C791 C 0.80359 0.91532 0.57723
 C792 C 0.81561 0.89740 0.56256
 C793 C 0.80193 0.87769 0.55155
 C794 C 0.77606 0.87544 0.55648
 H795 H 0.73707 0.97028 0.61189
 H796 H 0.68769 0.89689 0.58179
 H797 H 0.66593 0.93387 0.59876
 H798 H 0.72681 0.87713 0.56676
 H799 H 0.77582 0.94937 0.60058
 H800 H 0.81451 0.93069 0.58494
 H801 H 0.83561 0.89938 0.55927
 H802 H 0.76533 0.86034 0.54802
 C803 C 0.27170 0.95387 0.39586
 C804 C 0.25786 0.93395 0.40598
 C805 C 0.27041 0.91210 0.41440
 C806 C 0.29658 0.91019 0.41140
 C807 C 0.31031 0.93041 0.40163
 C808 C 0.29803 0.95270 0.39461
 C809 C 0.25675 0.89315 0.42663
 C810 C 0.23088 0.89618 0.43107
 C811 C 0.21835 0.91772 0.42183
 C812 C 0.23183 0.93624 0.40903
 C813 C 0.19267 0.92101 0.42645
 C814 C 0.17969 0.90381 0.44114
 C815 C 0.19203 0.88279 0.45127
 C816 C 0.21752 0.87865 0.44553
 H817 H 0.26210 0.97092 0.39011
 H818 H 0.30653 0.89354 0.41757
 H819 H 0.33062 0.92916 0.40078
 H820 H 0.26642 0.87663 0.43361
 H821 H 0.22225 0.95300 0.40247
 H822 H 0.18279 0.93734 0.41936
 H823 H 0.16002 0.90729 0.44502
 H824 H 0.22723 0.86252 0.45325
 C825 C 0.04551 0.39963 0.72932
 C826 C 0.06609 0.41091 0.74100
 C827 C 0.08624 0.42032 0.72676
 C828 C 0.08582 0.41707 0.70095
 C829 C 0.06519 0.40552 0.68934
 C830 C 0.04423 0.39744 0.70330
 C831 C 0.10610 0.43316 0.73858
 C832 C 0.10580 0.43669 0.76444
 C833 C 0.08591 0.42629 0.77855
 C834 C 0.06638 0.41336 0.76679
 C835 C 0.08535 0.42963 0.80422
 C836 C 0.10364 0.44416 0.81585
 C837 C 0.12303 0.45551 0.80213
 C838 C 0.12446 0.45112 0.77642
 H839 H 0.03056 0.39215 0.74081
 H840 H 0.10120 0.42396 0.68966
 H841 H 0.06517 0.40440 0.66934
 H842 H 0.12137 0.44088 0.72765
 H843 H 0.05095 0.40586 0.77768
 H844 H 0.07034 0.42159 0.81525
 H845 H 0.10225 0.44698 0.83567
 H846 H 0.13931 0.45983 0.76566
 C847 C 0.04239 0.60400 0.27039
 C848 C 0.06290 0.59358 0.25790
 C849 C 0.08323 0.58347 0.27137
 C850 C 0.08325 0.58558 0.29733
 C851 C 0.06272 0.59645 0.30977
 C852 C 0.04145 0.60475 0.29648
 C853 C 0.10275 0.57100 0.25865
 C854 C 0.10191 0.56860 0.23266
 C855 C 0.08202 0.58002 0.21937
 C856 C 0.06281 0.59253 0.23203
 C857 C 0.08099 0.57799 0.19359
 C858 C 0.09865 0.56354 0.18101
 C859 C 0.11785 0.55093 0.19388
 C860 C 0.11994 0.55421 0.21971
 H861 H 0.02709 0.61176 0.25955
 H862 H 0.09883 0.57827 0.30805
 H863 H 0.06294 0.59673 0.32981
 H864 H 0.11809 0.56260 0.26895
 H865 H 0.04728 0.60066 0.22175
 H866 H 0.06599 0.58688 0.18320
 H867 H 0.09680 0.56165 0.16112
 H868 H 0.13468 0.54458 0.22981
 C869 C 0.95653 0.39742 0.27209
 C870 C 0.93596 0.40800 0.25986
 C871 C 0.91587 0.41827 0.27359
 C872 C 0.91624 0.41635 0.29954
 C873 C 0.93689 0.40547 0.31173
 C874 C 0.95788 0.39684 0.29818
 C875 C 0.89619 0.43068 0.26110
 C876 C 0.89666 0.43297 0.23510
 C877 C 0.91642 0.42158 0.22157
 C878 C 0.93574 0.40904 0.23399
 C879 C 0.91717 0.42366 0.19578
 C880 C 0.89926 0.43798 0.18342
 C881 C 0.88007 0.45038 0.19652
 C882 C 0.87837 0.44718 0.22238
 H883 H 0.97154 0.38939 0.26103
 H884 H 0.90086 0.42383 0.31046
 H885 H 0.93696 0.40540 0.33177
 H886 H 0.88099 0.43913 0.27159
 H887 H 0.95113 0.40085 0.22352
 H888 H 0.93208 0.41483 0.18520
 H889 H 0.90082 0.43985 0.16350
 H890 H 0.86366 0.45669 0.23266
 C891 C 0.95919 0.59722 0.72764
 C892 C 0.93894 0.58653 0.74037
 C893 C 0.91797 0.57734 0.72716
 C894 C 0.91729 0.58015 0.70131
 C895 C 0.93757 0.59114 0.68865
 C896 C 0.95928 0.59907 0.70156
 C897 C 0.89838 0.56518 0.74002
 C898 C 0.89971 0.56214 0.76589
 C899 C 0.92042 0.57232 0.77898
 C900 C 0.93974 0.58454 0.76618
 C901 C 0.92196 0.56950 0.80467
 C902 C 0.90379 0.55573 0.81732
 C903 C 0.88356 0.54460 0.80461
 C904 C 0.88122 0.54845 0.77889
 H905 H 0.97478 0.60458 0.73836
 H906 H 0.90128 0.57341 0.69081
 H907 H 0.93668 0.59198 0.66866
 H908 H 0.88246 0.55763 0.72988
 H909 H 0.95579 0.59188 0.77629
 H910 H 0.93762 0.57738 0.81493
 H911 H 0.90593 0.55331 0.83712
 H912 H 0.86572 0.53994 0.76889
 C913 C 0.72795 0.60739 0.95008
 C914 C 0.74098 0.59701 0.92999
 C915 C 0.72750 0.58630 0.91001
 C916 C 0.70112 0.58751 0.90995
 C917 C 0.68824 0.59772 0.93023
 C918 C 0.70159 0.60690 0.95077
 C919 C 0.74055 0.57355 0.89115
 C920 C 0.76682 0.57089 0.89244
 C921 C 0.78023 0.58261 0.91194
 C922 C 0.76727 0.59589 0.93034
 C923 C 0.80634 0.57981 0.91349
 C924 C 0.81894 0.56420 0.89688
 C925 C 0.80576 0.55138 0.87815
 C926 C 0.77979 0.55557 0.87540
 H927 H 0.73829 0.61471 0.96583
 H928 H 0.69044 0.57960 0.89472
 H929 H 0.66788 0.59721 0.93048
 H930 H 0.73021 0.56471 0.87617
 H931 H 0.77757 0.60426 0.94563
 H932 H 0.81689 0.58884 0.92820
 H933 H 0.83899 0.56153 0.89919
 H934 H 0.76945 0.54571 0.86106
 C935 C 0.27535 0.39894 0.95255
 C936 C 0.26337 0.40903 0.93180
 C937 C 0.27776 0.41862 0.91199
 C938 C 0.30406 0.41628 0.91273
 C939 C 0.31598 0.40569 0.93347
 C940 C 0.30179 0.39794 0.95418
 C941 C 0.26556 0.43087 0.89222
 C942 C 0.23922 0.43361 0.89230
 C943 C 0.22499 0.42263 0.91165
 C944 C 0.23713 0.41029 0.93110
 C945 C 0.19883 0.42510 0.91193
 C946 C 0.18683 0.43970 0.89415
 C947 C 0.20070 0.45195 0.87556
 C948 C 0.22686 0.44806 0.87412
 H949 H 0.26384 0.39161 0.96748
 H950 H 0.31546 0.42320 0.89756
 H951 H 0.33632 0.40520 0.93382
 H952 H 0.27657 0.43894 0.87730
 H953 H 0.22615 0.40254 0.94623
 H954 H 0.18771 0.41655 0.92650
 H955 H 0.16666 0.44214 0.89546
 H956 H 0.23771 0.45748 0.85987
 C957 C 0.27475 0.60659 0.04773
 C958 C 0.26101 0.59662 0.06756
 C959 C 0.27378 0.58654 0.08826
 C960 C 0.30014 0.58793 0.08926
 C961 C 0.31373 0.59772 0.06923
 C962 C 0.30114 0.60629 0.04801
 C963 C 0.26006 0.57428 0.10698
 C964 C 0.23385 0.57152 0.10487
 C965 C 0.22115 0.58259 0.08459
 C966 C 0.23476 0.59534 0.06628
 C967 C 0.19510 0.57975 0.08227
 C968 C 0.18186 0.56483 0.09902
 C969 C 0.19433 0.55269 0.11861
 C970 C 0.22026 0.55684 0.12197
 H971 H 0.26497 0.61347 0.03146
 H972 H 0.31027 0.58050 0.10505
 H973 H 0.33408 0.59735 0.06974
 H974 H 0.26987 0.56595 0.12256
 H975 H 0.22500 0.60322 0.05044
 H976 H 0.18508 0.58828 0.06695
 H977 H 0.16188 0.56221 0.09617
 H978 H 0.23007 0.54755 0.13699
 C979 C 0.72594 0.39125 0.04856
 C980 C 0.73885 0.40143 0.06883
 C981 C 0.72525 0.41220 0.08869
 C982 C 0.69886 0.41133 0.08843
 C983 C 0.68611 0.40127 0.06799
 C984 C 0.69960 0.39195 0.04761
 C985 C 0.73822 0.42461 0.10782
 C986 C 0.76455 0.42683 0.10695
 C987 C 0.77805 0.41506 0.08755
 C988 C 0.76515 0.40215 0.06884
 C989 C 0.80423 0.41742 0.08642
 C990 C 0.81684 0.43263 0.10339
 C991 C 0.80359 0.44550 0.12204
 C992 C 0.77750 0.44174 0.12433
 H993 H 0.73639 0.38378 0.03294
 H994 H 0.68809 0.41931 0.10355
 H995 H 0.66576 0.40192 0.06755
 H996 H 0.72780 0.43348 0.12272
 H997 H 0.77554 0.39373 0.05365
 H998 H 0.81485 0.40834 0.07180
 H999 H 0.83697 0.43499 0.10141
 H1000 H 0.76711 0.45165 0.13860
 C1001 C 0.94892 0.72386 0.60744
 C1002 C 0.92851 0.73668 0.59706
 C1003 C 0.90805 0.72294 0.58718
 C1004 C 0.90791 0.69654 0.58910
 C1005 C 0.92864 0.68385 0.59913
 C1006 C 0.94963 0.69744 0.60751
 C1007 C 0.88882 0.73575 0.57453
 C1008 C 0.89029 0.76198 0.57106
 C1009 C 0.91040 0.77563 0.58180
 C1010 C 0.92910 0.76295 0.59507
 C1011 C 0.91222 0.80165 0.57813
 C1012 C 0.89512 0.81394 0.56283
 C1013 C 0.87561 0.80055 0.55119
 C1014 C 0.87276 0.77465 0.55604
 H1015 H 0.96502 0.73440 0.61416
 H1016 H 0.89233 0.68567 0.58182
 H1017 H 0.92889 0.66345 0.59906
 H1018 H 0.87341 0.72521 0.56640
 H1019 H 0.94480 0.77343 0.60275
 H1020 H 0.92742 0.81237 0.58637
 H1021 H 0.89752 0.83395 0.55964
 H1022 H 0.85780 0.76416 0.54711
 C1023 C 0.95625 0.27401 0.39622
 C1024 C 0.93588 0.26092 0.40642
 C1025 C 0.91451 0.27431 0.41475
 C1026 C 0.91351 0.30055 0.41159
 C1027 C 0.93408 0.31351 0.40158
 C1028 C 0.95587 0.30040 0.39456
 C1029 C 0.89505 0.26136 0.42695
 C1030 C 0.89704 0.23533 0.43133
 C1031 C 0.91808 0.22196 0.42213
 C1032 C 0.93717 0.23477 0.40949
 C1033 C 0.92028 0.19609 0.42661
 C1034 C 0.90253 0.18374 0.44117
 C1035 C 0.88205 0.19691 0.45133
 C1036 C 0.87896 0.22261 0.44568
 H1037 H 0.97291 0.26377 0.39048
 H1038 H 0.89724 0.31114 0.41769
 H1039 H 0.93345 0.33388 0.40042
 H1040 H 0.87891 0.27168 0.43386
 H1041 H 0.95354 0.22453 0.40296
 H1042 H 0.93620 0.18557 0.41954
 H1043 H 0.90521 0.16389 0.44499
 H1044 H 0.86326 0.23297 0.45343
 C1045 C 0.05016 0.27222 0.60702
 C1046 C 0.07072 0.25996 0.59621
 C1047 C 0.09146 0.27417 0.58765
 C1048 C 0.09168 0.30039 0.59122
 C1049 C 0.07087 0.31253 0.60173
 C1050 C 0.04965 0.29859 0.60893
 C1051 C 0.11100 0.26206 0.57476
 C1052 C 0.10963 0.23608 0.56981
 C1053 C 0.08921 0.22189 0.57920
 C1054 C 0.07013 0.23384 0.59264
 C1055 C 0.08754 0.19610 0.57408
 C1056 C 0.10517 0.18463 0.55870
 C1057 C 0.12504 0.19860 0.54840
 C1058 C 0.12765 0.22422 0.55468
 H1059 H 0.03396 0.26134 0.61289
 H1060 H 0.10747 0.31160 0.58495
 H1061 H 0.07082 0.33289 0.60306
 H1062 H 0.12665 0.27301 0.56767
 H1063 H 0.05422 0.22299 0.59931
 H1064 H 0.07210 0.18496 0.58127
 H1065 H 0.10290 0.16482 0.55439
 H1066 H 0.14287 0.23518 0.54679
 C1067 C 0.04084 0.73223 0.39171
 C1068 C 0.06136 0.74556 0.40122
 C1069 C 0.08406 0.73288 0.40639
 C1070 C 0.08635 0.70732 0.40000
 C1071 C 0.06576 0.69411 0.39022
 C1072 C 0.04227 0.70610 0.38727
 C1073 C 0.10362 0.74577 0.41859
 C1074 C 0.10049 0.77110 0.42571
 C1075 C 0.07822 0.78398 0.41898
 C1076 C 0.05895 0.77121 0.40664
 C1077 C 0.07499 0.80922 0.42564
 C1078 C 0.09288 0.82129 0.44021
 C1079 C 0.11445 0.80844 0.44841
 C1080 C 0.11862 0.78352 0.44034
 H1081 H 0.02353 0.74234 0.38804
 H1082 H 0.10375 0.69732 0.40342
 H1083 H 0.06779 0.67410 0.38689
 H1084 H 0.12079 0.73587 0.42334
 H1085 H 0.04160 0.78098 0.40225
 H1086 H 0.05817 0.81939 0.42034
 H1087 H 0.08931 0.84057 0.44578
 H1088 H 0.13522 0.77345 0.44642
 C1089 C 0.60244 0.95500 0.72580
 C1090 C 0.59216 0.93391 0.73753
 C1091 C 0.58160 0.91427 0.72332
 C1092 C 0.58305 0.91552 0.69736
 C1093 C 0.59381 0.93657 0.68568
 C1094 C 0.60269 0.95714 0.69977
 C1095 C 0.56933 0.89417 0.73534
 C1096 C 0.56756 0.89371 0.76138
 C1097 C 0.57945 0.91288 0.77537
 C1098 C 0.59177 0.93268 0.76339
 C1099 C 0.57797 0.91265 0.80122
 C1100 C 0.56350 0.89455 0.81319
 C1101 C 0.55040 0.87614 0.79964
 C1102 C 0.55324 0.87518 0.77370
 H1103 H 0.61056 0.96974 0.73719
 H1104 H 0.57534 0.90050 0.68607
 H1105 H 0.59363 0.93729 0.66566
 H1106 H 0.56054 0.87939 0.72449
 H1107 H 0.60026 0.94766 0.77424
 H1108 H 0.58721 0.92707 0.81215
 H1109 H 0.56184 0.89550 0.83317
 H1110 H 0.54313 0.86110 0.76310
 C1111 C 0.39791 0.95587 0.27340
 C1112 C 0.40874 0.93565 0.26068
 C1113 C 0.41874 0.91508 0.27394
 C1114 C 0.41624 0.91458 0.29985
 C1115 C 0.40505 0.93483 0.31250
 C1116 C 0.39672 0.95633 0.29951
 C1117 C 0.43149 0.89581 0.26107
 C1118 C 0.43431 0.89710 0.23514
 C1119 C 0.42309 0.91725 0.22204
 C1120 C 0.41028 0.93621 0.23483
 C1121 C 0.42559 0.91875 0.19631
 C1122 C 0.44023 0.90127 0.18365
 C1123 C 0.45258 0.88177 0.19637
 C1124 C 0.44890 0.87926 0.22212
 H1125 H 0.39017 0.97131 0.26271
 H1126 H 0.42350 0.89883 0.31039
 H1127 H 0.40455 0.93421 0.33252
 H1128 H 0.43978 0.88029 0.27124
 H1129 H 0.40226 0.95192 0.22470
 H1130 H 0.41687 0.93395 0.18604
 H1131 H 0.44245 0.90347 0.16384
 H1132 H 0.45834 0.86431 0.23212
 C1133 C 0.59985 0.04518 0.27559
 C1134 C 0.58894 0.06573 0.26352
 C1135 C 0.57946 0.08614 0.27740
 C1136 C 0.58236 0.08604 0.30327
 C1137 C 0.59354 0.06542 0.31527
 C1138 C 0.60156 0.04416 0.30166
 C1139 C 0.56690 0.10591 0.26517
 C1140 C 0.56369 0.10525 0.23927
 C1141 C 0.57420 0.08511 0.22554
 C1142 C 0.58688 0.06567 0.23770
 C1143 C 0.57118 0.08418 0.19984
 C1144 C 0.55683 0.10232 0.18780
 C1145 C 0.54535 0.12195 0.20114
 C1146 C 0.54945 0.12377 0.22688
 H1147 H 0.60735 0.02999 0.26437
 H1148 H 0.57546 0.10164 0.31428
 H1149 H 0.59440 0.06562 0.33529
 H1150 H 0.55911 0.12139 0.27581
 H1151 H 0.59444 0.05004 0.22709
 H1152 H 0.57931 0.06897 0.18910
 H1153 H 0.55424 0.10063 0.16798
 H1154 H 0.54065 0.13879 0.23735
 C1155 C 0.39229 0.04405 0.72701
 C1156 C 0.40252 0.06379 0.74099
 C1157 C 0.41275 0.08507 0.72890
 C1158 C 0.41130 0.08671 0.70297
 C1159 C 0.40133 0.06671 0.68912
 C1160 C 0.39259 0.04490 0.70103
 C1161 C 0.42520 0.10369 0.74285
 C1162 C 0.42802 0.10088 0.76861
 C1163 C 0.41688 0.07997 0.78061
 C1164 C 0.40392 0.06180 0.76680
 C1165 C 0.41981 0.07689 0.80618
 C1166 C 0.43476 0.09355 0.81963
 C1167 C 0.44687 0.11384 0.80788
 C1168 C 0.44275 0.11790 0.78243
 H1169 H 0.38529 0.02734 0.73629
 H1170 H 0.41886 0.10294 0.69335
 H1171 H 0.40172 0.06768 0.66909
 H1172 H 0.43360 0.11972 0.73356
 H1173 H 0.39595 0.04549 0.77602
 H1174 H 0.41124 0.06107 0.81566
 H1175 H 0.43736 0.09015 0.83923
 H1176 H 0.45202 0.13345 0.77316
 C1177 C 0.61190 0.72900 0.04887
 C1178 C 0.60097 0.74149 0.06901
 C1179 C 0.58884 0.72749 0.08780
 C1180 C 0.58913 0.70105 0.08670
 C1181 C 0.59979 0.68872 0.06630
 C1182 C 0.61041 0.70268 0.04685
 C1183 C 0.57561 0.74017 0.10661
 C1184 C 0.57387 0.76661 0.10636
 C1185 C 0.58693 0.78046 0.08803
 C1186 C 0.60070 0.76784 0.06975
 C1187 C 0.58507 0.80673 0.08747
 C1188 C 0.56924 0.81919 0.10395
 C1189 C 0.55522 0.80568 0.12158
 C1190 C 0.55829 0.77940 0.12330
 H1191 H 0.62032 0.73981 0.03399
 H1192 H 0.58011 0.68996 0.10101
 H1193 H 0.59847 0.66840 0.06503
 H1194 H 0.56573 0.72947 0.12067
 H1195 H 0.61013 0.77853 0.05536
 H1196 H 0.59512 0.81760 0.07366
 H1197 H 0.56748 0.83946 0.10247
 H1198 H 0.54753 0.76882 0.13681
 C1199 C 0.39519 0.28091 0.05240
 C1200 C 0.40678 0.26945 0.07270
 C1201 C 0.42430 0.28314 0.08708
 C1202 C 0.42899 0.30857 0.08138
 C1203 C 0.41746 0.31982 0.06082
 C1204 C 0.40108 0.30577 0.04582
 C1205 C 0.43749 0.27086 0.10615
 C1206 C 0.43382 0.24496 0.11040
 C1207 C 0.41568 0.23166 0.09632
 C1208 C 0.40200 0.24409 0.07792
 C1209 C 0.41232 0.20578 0.09996
 C1210 C 0.42779 0.19277 0.11633
 C1211 C 0.44646 0.20548 0.12981
 C1212 C 0.44884 0.23177 0.12749
 H1213 H 0.38229 0.27014 0.04097
 H1214 H 0.44223 0.31945 0.09227
 H1215 H 0.42213 0.33906 0.05600
 H1216 H 0.45135 0.28114 0.11689
 H1217 H 0.38850 0.23369 0.06683
 H1218 H 0.39844 0.19539 0.08939
 H1219 H 0.42560 0.17255 0.11803
 H1220 H 0.46341 0.24160 0.13770
 C1221 C 0.60883 0.26703 0.95343
 C1222 C 0.59731 0.25401 0.93393
 C1223 C 0.58580 0.26756 0.91447
 C1224 C 0.58722 0.29399 0.91432
 C1225 C 0.59834 0.30686 0.93416
 C1226 C 0.60837 0.29346 0.95428
 C1227 C 0.57207 0.25453 0.89625
 C1228 C 0.56918 0.22823 0.89774
 C1229 C 0.58152 0.21477 0.91681
 C1230 C 0.59582 0.22769 0.93449
 C1231 C 0.57848 0.18866 0.91861
 C1232 C 0.56236 0.17604 0.90251
 C1233 C 0.54916 0.18921 0.88404
 C1234 C 0.55325 0.21526 0.88125
 H1235 H 0.61684 0.25659 0.96878
 H1236 H 0.57868 0.30472 0.89948
 H1237 H 0.59778 0.32726 0.93448
 H1238 H 0.56272 0.26493 0.88163
 H1239 H 0.60474 0.21734 0.94942
 H1240 H 0.58794 0.17808 0.93301
 H1241 H 0.55981 0.15594 0.90487
 H1242 H 0.54318 0.22560 0.86708
 C1243 C 0.39166 0.72629 0.94854
 C1244 C 0.40234 0.73791 0.92776
 C1245 C 0.41561 0.72330 0.91018
 C1246 C 0.41667 0.69703 0.91305
 C1247 C 0.40604 0.68559 0.93393
 C1248 C 0.39422 0.70025 0.95219
 C1249 C 0.42851 0.73530 0.89075
 C1250 C 0.42869 0.76173 0.88908
 C1251 C 0.41438 0.77610 0.90610
 C1252 C 0.40107 0.76410 0.92509
 C1253 C 0.41460 0.80241 0.90468
 C1254 C 0.43011 0.81452 0.88767
 C1255 C 0.44548 0.80059 0.87150
 C1256 C 0.44396 0.77412 0.87160
 H1257 H 0.38233 0.73762 0.96251
 H1258 H 0.42656 0.68546 0.89969
 H1259 H 0.40820 0.66546 0.93648
 H1260 H 0.43929 0.72417 0.87767
 H1261 H 0.39072 0.77525 0.93850
 H1262 H 0.40356 0.81367 0.91742
 H1263 H 0.43070 0.83492 0.88773
 H1264 H 0.45579 0.76323 0.85924
 C1265 C 0.71901 0.95129 0.40074
 C1266 C 0.73086 0.93082 0.41212
 C1267 C 0.71705 0.91489 0.42806
 C1268 C 0.69119 0.91926 0.43145
 C1269 C 0.67948 0.93988 0.42000
 C1270 C 0.69352 0.95636 0.40512
 C1271 C 0.72951 0.89549 0.44090
 C1272 C 0.75565 0.89227 0.43826
 C1273 C 0.76911 0.90787 0.42163
 C1274 C 0.75659 0.92677 0.40847
 C1275 C 0.79514 0.90510 0.41915
 C1276 C 0.80807 0.88804 0.43400
 C1277 C 0.79520 0.87306 0.45128
 C1278 C 0.76882 0.87460 0.45277
 H1279 H 0.72981 0.96385 0.38899
 H1280 H 0.68020 0.90718 0.44346
 H1281 H 0.65976 0.94351 0.42349
 H1282 H 0.71908 0.88356 0.45356
 H1283 H 0.76709 0.93900 0.39613
 H1284 H 0.80566 0.91681 0.40639
 H1285 H 0.82835 0.88701 0.43243
 H1286 H 0.75879 0.86324 0.46621
 C1287 C 0.27209 0.94728 0.60950
 C1288 C 0.25944 0.92716 0.59822
 C1289 C 0.27313 0.90896 0.58465
 C1290 C 0.29949 0.91049 0.58392
 C1291 C 0.31196 0.93081 0.59508
 C1292 C 0.29824 0.94978 0.60716
 C1293 C 0.26018 0.89038 0.57110
 C1294 C 0.23373 0.89023 0.57057
 C1295 C 0.22026 0.90784 0.58514
 C1296 C 0.23319 0.92590 0.59910
 C1297 C 0.19398 0.90798 0.58459
 C1298 C 0.18108 0.89198 0.56858
 C1299 C 0.19413 0.87525 0.55302
 C1300 C 0.22050 0.87374 0.55476
 H1301 H 0.26148 0.96184 0.61896
 H1302 H 0.31036 0.89663 0.57380
 H1303 H 0.33215 0.93249 0.59305
 H1304 H 0.27062 0.87685 0.56011
 H1305 H 0.22274 0.93980 0.60967
 H1306 H 0.18340 0.92119 0.59581
 H1307 H 0.16076 0.89325 0.56785
 H1308 H 0.23073 0.86094 0.54280
 C1309 C 0.28426 0.05127 0.39958
 C1310 C 0.27269 0.07209 0.41066
 C1311 C 0.28591 0.08649 0.42844
 C1312 C 0.31100 0.08029 0.43394
 C1313 C 0.32243 0.05936 0.42275
 C1314 C 0.30885 0.04441 0.40600
 C1315 C 0.27351 0.10615 0.44097
 C1316 C 0.24796 0.11111 0.43623
 C1317 C 0.23519 0.09712 0.41778
 C1318 C 0.24772 0.07799 0.40491
 C1319 C 0.20967 0.10158 0.41327
 C1320 C 0.19640 0.11858 0.42794
 C1321 C 0.20851 0.13187 0.44700
 C1322 C 0.23455 0.12882 0.45050
 H1323 H 0.27386 0.03980 0.38645
 H1324 H 0.32153 0.09117 0.44739
 H1325 H 0.34147 0.05429 0.42780
 H1326 H 0.28340 0.11685 0.45504
 H1327 H 0.23770 0.06694 0.39117
 H1328 H 0.19969 0.09110 0.39912
 H1329 H 0.17639 0.12077 0.42492
 H1330 H 0.24392 0.13881 0.46539
 C1331 C 0.72022 0.05191 0.60272
 C1332 C 0.73265 0.07197 0.59120
 C1333 C 0.71927 0.08819 0.57518
 C1334 C 0.69327 0.08455 0.57192
 C1335 C 0.68101 0.06429 0.58345
 C1336 C 0.69460 0.04747 0.59834
 C1337 C 0.73230 0.10705 0.56208
 C1338 C 0.75856 0.10940 0.56448
 C1339 C 0.77159 0.09354 0.58119
 C1340 C 0.75852 0.07523 0.59465
 C1341 C 0.79773 0.09542 0.58342
 C1342 C 0.81114 0.11182 0.56826
 C1343 C 0.79869 0.12704 0.55091
 C1344 C 0.77225 0.12642 0.54965
 H1345 H 0.73069 0.03904 0.61442
 H1346 H 0.68262 0.09686 0.55986
 H1347 H 0.66121 0.06112 0.57993
 H1348 H 0.72220 0.11917 0.54936
 H1349 H 0.76868 0.06278 0.60703
 H1350 H 0.80792 0.08349 0.59623
 H1351 H 0.83146 0.11216 0.56966
 H1352 H 0.76253 0.13798 0.53616
 C1353 C 0.94698 0.61199 0.26955
 C1354 C 0.92667 0.60065 0.25737
 C1355 C 0.90805 0.58788 0.27121
 C1356 C 0.90943 0.58795 0.29718
 C1357 C 0.92999 0.59904 0.30918
 C1358 C 0.94933 0.61030 0.29537
 C1359 C 0.88918 0.57423 0.25883
 C1360 C 0.88924 0.57268 0.23284
 C1361 C 0.90734 0.58640 0.21915
 C1362 C 0.92564 0.60061 0.23148
 C1363 C 0.90772 0.58468 0.19330
 C1364 C 0.89142 0.56828 0.18113
 C1365 C 0.87414 0.55358 0.19451
 C1366 C 0.87245 0.55658 0.22035
 H1367 H 0.96176 0.62093 0.25885
 H1368 H 0.89524 0.57844 0.30814
 H1369 H 0.93150 0.59757 0.32913
 H1370 H 0.87529 0.56385 0.26941
 H1371 H 0.93989 0.61054 0.22091
 H1372 H 0.92134 0.59522 0.18255
 H1373 H 0.89286 0.56655 0.16120
 H1374 H 0.85921 0.54527 0.23082
 C1375 C 0.95025 0.38568 0.73179
 C1376 C 0.92968 0.39642 0.74406
 C1377 C 0.91061 0.40857 0.73029
 C1378 C 0.91181 0.40841 0.70431
 C1379 C 0.93260 0.39790 0.69222
 C1380 C 0.95237 0.38732 0.70594
 C1381 C 0.89147 0.42175 0.74273
 C1382 C 0.89166 0.42344 0.76870
 C1383 C 0.91017 0.41025 0.78235
 C1384 C 0.92878 0.39652 0.76996
 C1385 C 0.91063 0.41208 0.80819
 C1386 C 0.89402 0.42813 0.82038
 C1387 C 0.87638 0.44240 0.80703
 C1388 C 0.87459 0.43922 0.78122
 H1389 H 0.96539 0.37730 0.74241
 H1390 H 0.89728 0.41744 0.69341
 H1391 H 0.93394 0.39935 0.67226
 H1392 H 0.87725 0.43170 0.73219
 H1393 H 0.94335 0.38704 0.78048
 H1394 H 0.92454 0.40192 0.81891
 H1395 H 0.89554 0.43000 0.84030
 H1396 H 0.86108 0.45017 0.77076
 C1397 C 0.05467 0.61197 0.72556
 C1398 C 0.07567 0.60161 0.73740
 C1399 C 0.09371 0.58810 0.72346
 C1400 C 0.09110 0.58658 0.69762
 C1401 C 0.06992 0.59682 0.68598
 C1402 C 0.05117 0.60874 0.70002
 C1403 C 0.11319 0.57527 0.73571
 C1404 C 0.11437 0.57531 0.76171
 C1405 C 0.09696 0.58991 0.77541
 C1406 C 0.07800 0.60325 0.76315
 C1407 C 0.09785 0.58985 0.80129
 C1408 C 0.11462 0.57412 0.81362
 C1409 C 0.13109 0.55842 0.80034
 C1410 C 0.13165 0.55988 0.77433
 H1411 H 0.04026 0.62134 0.73640
 H1412 H 0.10482 0.57650 0.68658
 H1413 H 0.06747 0.59415 0.66624
 H1414 H 0.12658 0.56426 0.72512
 H1415 H 0.06424 0.61379 0.77377
 H1416 H 0.08480 0.60111 0.81203
 H1417 H 0.11409 0.57358 0.83367
 H1418 H 0.14426 0.54779 0.76394
 C1419 C 0.05118 0.38788 0.26927
 C1420 C 0.07103 0.39927 0.25647
 C1421 C 0.09038 0.41157 0.26975
 C1422 C 0.09013 0.41102 0.29576
 C1423 C 0.06989 0.40008 0.30839
 C1424 C 0.04982 0.38932 0.29519
 C1425 C 0.10879 0.42531 0.25686
 C1426 C 0.10749 0.42755 0.23095
 C1427 C 0.08857 0.41442 0.21777
 C1428 C 0.07081 0.39998 0.23057
 C1429 C 0.08687 0.41693 0.19204
 C1430 C 0.10278 0.43344 0.17955
 C1431 C 0.12100 0.44744 0.19247
 C1432 C 0.12387 0.44375 0.21811
 H1433 H 0.03587 0.37930 0.25902
 H1434 H 0.10488 0.42017 0.30628
 H1435 H 0.06917 0.40137 0.32840
 H1436 H 0.12329 0.43529 0.26704
 H1437 H 0.05595 0.39047 0.22043
 H1438 H 0.07259 0.40687 0.18167
 H1439 H 0.10043 0.43570 0.15975
 H1440 H 0.13784 0.45449 0.22823
   
