data_POSCAR
  _audit_creation_date              2014-09-24
  _audit_creation_method            'ToBaCCo'
  _symmetry_space_group_name_H-M    'P1'
  _symmetry_Int_Tables_number       1
  _symmetry_cell_setting            triclinic
  loop_
  _symmetry_equiv_pos_as_xyz
 x,y,z
_cell_length_a 75.8722
_cell_length_b 77.2354
_cell_length_c 75.3233
_cell_angle_alpha 89.964800
_cell_angle_beta 90.055100
_cell_angle_gamma 89.986800
loop_
  _atom_site_label
  _atom_site_type_symbol
  _atom_site_fract_x
  _atom_site_fract_y
  _atom_site_fract_z
C1 C 0.30446 0.44080 0.92146
 C2 C 0.31998 0.44737 0.92914
 C3 C 0.32749 0.43972 0.94443
 C4 C 0.31872 0.42536 0.95197
 C5 C 0.30339 0.41844 0.94431
 C6 C 0.29628 0.42634 0.92915
 H7 H 0.32671 0.45777 0.92234
 H8 H 0.32336 0.41973 0.96425
 H9 H 0.28448 0.42106 0.92314
 C10 C 0.44637 0.83221 0.44405
 C11 C 0.43093 0.82523 0.45166
 C12 C 0.42217 0.81105 0.44402
 C13 C 0.42914 0.80345 0.42865
 C14 C 0.44465 0.80985 0.42091
 C15 C 0.45319 0.82409 0.42871
 H16 H 0.42594 0.83032 0.46404
 H17 H 0.42214 0.79292 0.42231
 H18 H 0.46480 0.82916 0.42224
 C19 C 0.94531 0.91986 0.80832
 C20 C 0.95232 0.92681 0.82402
 C21 C 0.94425 0.94094 0.83274
 C22 C 0.92870 0.94790 0.82517
 C23 C 0.92151 0.94106 0.80946
 C24 C 0.93008 0.92725 0.80103
 H25 H 0.96342 0.92025 0.83001
 H26 H 0.92213 0.95880 0.83124
 H27 H 0.92487 0.92222 0.78867
 C28 C 0.44417 -0.08430 0.30555
 C29 C 0.45193 -0.07782 0.32113
 C30 C 0.44461 -0.06359 0.33010
 C31 C 0.42939 -0.05572 0.32316
 C32 C 0.42150 -0.06190 0.30749
 C33 C 0.42902 -0.07620 0.29878
 H34 H 0.46360 -0.08404 0.32642
 H35 H 0.42330 -0.04514 0.33031
 H36 H 0.42323 -0.08090 0.28655
 C37 C 0.80493 0.30974 0.32716
 C38 C 0.82054 0.30191 0.32123
 C39 C 0.82943 0.30815 0.30614
 C40 C 0.82229 0.32228 0.29678
 C41 C 0.80655 0.33016 0.30240
 C42 C 0.79795 0.32371 0.31753
 H43 H 0.82603 0.29116 0.32862
 H44 H 0.82914 0.32736 0.28530
 H45 H 0.78597 0.32989 0.32209
 C46 C -0.19204 0.83575 0.80678
 C47 C -0.17630 0.82840 0.80018
 C48 C -0.16964 0.81283 0.80711
 C49 C -0.17898 0.80429 0.82058
 C50 C -0.19464 0.81116 0.82769
 C51 C -0.20112 0.82674 0.82035
 H52 H -0.16844 0.83525 0.79049
 H53 H -0.17416 0.79184 0.82503
 H54 H -0.21322 0.83206 0.82545
 C55 C 0.94365 0.33182 0.44818
 C56 C 0.95181 0.32434 0.43330
 C57 C 0.94513 0.30910 0.42566
 C58 C 0.92999 0.30143 0.43297
 C59 C 0.92162 0.30866 0.44784
 C60 C 0.92876 0.32368 0.45552
 H61 H 0.96322 0.33051 0.42744
 H62 H 0.92428 0.29020 0.42656
 H63 H 0.92270 0.32904 0.46730
 C64 C 0.44069 0.43755 0.82961
 C65 C 0.44777 0.42215 0.82235
 C66 C 0.44049 0.41461 0.80702
 C67 C 0.42620 0.42272 0.79866
 C68 C 0.41849 0.43763 0.80580
 C69 C 0.42589 0.44503 0.82110
 H70 H 0.45908 0.41597 0.82835
 H71 H 0.42095 0.41727 0.78651
 H72 H 0.41918 0.45595 0.82701
 C73 C 0.80608 0.91712 0.94185
 C74 C 0.82084 0.92413 0.95053
 C75 C 0.83012 0.93818 0.94327
 C76 C 0.82407 0.94563 0.92739
 C77 C 0.80921 0.93896 0.91855
 C78 C 0.80032 0.92469 0.92589
 H79 H 0.82512 0.91864 0.96305
 H80 H 0.83114 0.95645 0.92169
 H81 H 0.78935 0.91900 0.91877
 C82 C 0.31026 0.83368 0.30875
 C83 C 0.32511 0.82562 0.30104
 C84 C 0.33248 0.81052 0.30845
 C85 C 0.32496 0.80338 0.32382
 C86 C 0.31019 0.81104 0.33173
 C87 C 0.30272 0.82577 0.32384
 H88 H 0.33181 0.83156 0.28994
 H89 H 0.33079 0.79198 0.32980
 H90 H 0.29059 0.83071 0.32939
 C91 C 0.80670 0.42328 0.44406
 C92 C 0.82034 0.43211 0.45287
 C93 C 0.82802 0.44720 0.44566
 C94 C 0.82092 0.45370 0.42967
 C95 C 0.80730 0.44507 0.42063
 C96 C 0.80019 0.42990 0.42798
 H97 H 0.82551 0.42649 0.46493
 H98 H 0.82561 0.46583 0.42430
 H99 H 0.79015 0.42281 0.42078
 C100 C 0.94136 0.83215 -0.05503
 C101 C 0.92567 0.82441 -0.04881
 C102 C 0.91817 0.80998 -0.05723
 C103 C 0.92695 0.80251 -0.07166
 C104 C 0.94292 0.80945 -0.07784
 C105 C 0.95001 0.82420 -0.06951
 H106 H 0.91933 0.82921 -0.03695
 H107 H 0.92102 0.79167 -0.07855
 H108 H 0.96193 0.82971 -0.07493
 C109 C 0.30484 0.32922 0.80254
 C110 C 0.29719 0.32232 0.81796
 C111 C 0.30478 0.30810 0.82676
 C112 C 0.32010 0.30055 0.81972
 C113 C 0.32793 0.30717 0.80423
 C114 C 0.32019 0.32152 0.79574
 H115 H 0.28544 0.32826 0.82335
 H116 H 0.32609 0.28963 0.82644
 H117 H 0.32625 0.32685 0.78393
 C118 C 0.16876 0.56319 0.55631
 C119 C 0.17584 0.55535 0.57156
 C120 C 0.19131 0.56172 0.57947
 C121 C 0.19963 0.57627 0.57202
 C122 C 0.19270 0.58440 0.55684
 C123 C 0.17742 0.57758 0.54895
 H124 H 0.16892 0.54466 0.57771
 H125 H 0.21140 0.58142 0.57821
 H126 H 0.17230 0.58345 0.53695
 C127 C 0.57723 0.68989 0.05405
 C128 C 0.56998 0.69665 0.06977
 C129 C 0.55477 0.68930 0.07730
 C130 C 0.54662 0.67530 0.06866
 C131 C 0.55382 0.66817 0.05314
 C132 C 0.56910 0.67560 0.04592
 H133 H 0.57635 0.70743 0.07631
 H134 H 0.53459 0.66992 0.07407
 H135 H 0.57512 0.66977 0.03435
 C136 C 0.69380 0.19403 0.67165
 C137 C 0.67843 0.20050 0.67952
 C138 C 0.67147 0.19291 0.69491
 C139 C 0.68007 0.17855 0.70242
 C140 C 0.69558 0.17162 0.69479
 C141 C 0.70230 0.17974 0.67938
 H142 H 0.67150 0.21115 0.67327
 H143 H 0.67493 0.17336 0.71471
 H144 H 0.71384 0.17465 0.67279
 C145 C 1.08062 0.05788 0.19653
 C146 C 1.07204 0.05133 0.18143
 C147 C 1.05686 0.05943 0.17436
 C148 C 1.05056 0.07449 0.18297
 C149 C 1.05905 0.08125 0.19804
 C150 C 1.07384 0.07265 0.20487
 H151 H 1.07811 0.04058 0.17458
 H152 H 1.03892 0.08105 0.17819
 H153 H 1.08014 0.07751 0.21678
 C154 C 0.05688 0.16550 1.06116
 C155 C 0.04963 0.17309 1.07641
 C156 C 0.05718 0.18785 1.08441
 C157 C 0.07173 0.19561 1.07583
 C158 C 0.07897 0.18842 1.06029
 C159 C 0.07152 0.17331 1.05313
 H160 H 0.03763 0.16760 1.08169
 H161 H 0.07802 0.20688 1.08148
 H162 H 0.07754 0.16725 1.04168
 C163 C 0.16995 0.69034 0.69467
 C164 C 0.17747 0.67536 0.70211
 C165 C 0.19253 0.66775 0.69454
 C166 C 0.20014 0.67541 0.67943
 C167 C 0.19284 0.69039 0.67185
 C168 C 0.17773 0.69771 0.67954
 H169 H 0.17176 0.66978 0.71398
 H170 H 0.21168 0.66960 0.67346
 H171 H 0.17164 0.70886 0.67333
 C172 C 1.19353 0.16759 0.19271
 C173 C 1.19998 0.17524 0.17708
 C174 C 1.19142 0.18954 0.16940
 C175 C 1.17616 0.19615 0.17751
 C176 C 1.16952 0.18876 0.19319
 C177 C 1.17845 0.17462 0.20078
 H178 H 1.21158 0.16991 0.17075
 H179 H 1.16907 0.20666 0.17122
 H180 H 1.17371 0.16913 0.21311
 C181 C 0.67429 1.06096 0.55429
 C182 C 0.68260 1.05454 0.56971
 C183 C 0.69723 1.06290 0.57718
 C184 C 0.70380 1.07790 0.56903
 C185 C 0.69575 1.08503 0.55382
 C186 C 0.68115 1.07619 0.54650
 H187 H 0.67702 1.04366 0.57678
 H188 H 0.71567 1.08362 0.57439
 H189 H 0.67490 1.08132 0.53478
 C190 C 0.55750 0.55850 0.17000
 C191 C 0.55048 0.57308 0.17868
 C192 C 0.55825 0.57957 0.19425
 C193 C 0.57306 0.57105 0.20131
 C194 C 0.58033 0.55650 0.19284
 C195 C 0.57241 0.55029 0.17723
 H196 H 0.53913 0.57959 0.17309
 H197 H 0.57919 0.57598 0.21326
 H198 H 0.57805 0.53920 0.17053
 C199 C 0.66943 0.68849 0.19107
 C200 C 0.67581 0.69511 0.17491
 C201 C 0.69080 0.68787 0.16681
 C202 C 0.69941 0.67394 0.17513
 C203 C 0.69316 0.66710 0.19118
 C204 C 0.67839 0.67468 0.19920
 H205 H 0.66868 0.70537 0.16823
 H206 H 0.71080 0.66813 0.16886
 H207 H 0.67382 0.66973 0.21184
 C208 C 0.16994 0.05715 1.05654
 C209 C 0.17932 0.04983 1.07092
 C210 C 0.19439 0.05786 1.07800
 C211 C 0.20023 0.07354 1.07065
 C212 C 0.19124 0.08116 1.05634
 C213 C 0.17637 0.07276 1.04927
 H214 H 0.17433 0.03844 1.07759
 H215 H 0.21164 0.07994 1.07624
 H216 H 0.17027 0.07827 1.03759
 C217 C 0.57877 0.19321 0.55592
 C218 C 0.56963 0.19925 0.57090
 C219 C 0.55463 0.19058 0.57724
 C220 C 0.54863 0.17580 0.56820
 C221 C 0.55753 0.16952 0.55317
 C222 C 0.57250 0.17844 0.54704
 H223 H 0.57448 0.21051 0.57791
 H224 H 0.53723 0.16891 0.57317
 H225 H 0.57956 0.17362 0.53558
 C226 C 0.08000 0.56142 0.69368
 C227 C 0.07235 0.57625 0.70125
 C228 C 0.05750 0.58408 0.69344
 C229 C 0.05029 0.57683 0.67793
 C230 C 0.05774 0.56201 0.67020
 C231 C 0.07260 0.55443 0.67816
 H232 H 0.07776 0.58152 0.71340
 H233 H 0.03892 0.58282 0.67178
 H234 H 0.07880 0.54338 0.67190
 C235 C 0.66851 0.55878 0.05353
 C236 C 0.67620 0.57371 0.04618
 C237 C 0.69134 0.58115 0.05378
 C238 C 0.69886 0.57338 0.06888
 C239 C 0.69140 0.55843 0.07644
 C240 C 0.67627 0.55122 0.06861
 H241 H 0.67027 0.57966 0.03461
 H242 H 0.71045 0.57908 0.07489
 H243 H 0.67038 0.53978 0.07440
 C244 C 0.06107 0.68958 0.58265
 C245 C 0.07614 0.69706 0.57501
 C246 C 0.08397 0.68977 0.55983
 C247 C 0.07656 0.67473 0.55235
 C248 C 0.06145 0.66711 0.55974
 C249 C 0.05364 0.67487 0.57465
 H250 H 0.08194 0.70843 0.58104
 H251 H 0.08299 0.66858 0.54118
 H252 H 0.04165 0.66942 0.58007
 C253 C 0.55790 1.05779 0.67136
 C254 C 0.57356 1.05128 0.67897
 C255 C 0.58111 1.05894 0.69405
 C256 C 0.57282 1.07328 0.70185
 C257 C 0.55705 1.08013 0.69486
 C258 C 0.54979 1.07215 0.67964
 H259 H 0.57968 1.03973 0.67369
 H260 H 0.57867 1.07882 0.71362
 H261 H 0.53869 1.07824 0.67319
 C262 C 0.43761 0.33269 0.94148
 C263 C 0.42315 0.32401 0.94901
 C264 C 0.41620 0.30900 0.94116
 C265 C 0.42429 0.30235 0.92583
 C266 C 0.43891 0.31068 0.91817
 C267 C 0.44543 0.32588 0.92608
 H268 H 0.41735 0.32889 0.96114
 H269 H 0.41904 0.29077 0.91970
 H270 H 0.45619 0.33277 0.91984
 C271 C 0.94392 0.44074 0.32867
 C272 C 0.95091 0.42566 0.32063
 C273 C 0.94387 0.41899 0.30479
 C274 C 0.92989 0.42773 0.29657
 C275 C 0.92247 0.44255 0.30424
 C276 C 0.92960 0.44901 0.32013
 H277 H 0.96199 0.41898 0.32649
 H278 H 0.92471 0.42295 0.28410
 H279 H 0.92301 0.45984 0.32635
 C280 C 0.31207 0.93991 0.41880
 C281 C 0.30521 0.92487 0.42676
 C282 C 0.31298 0.91784 0.44212
 C283 C 0.32778 0.92612 0.44949
 C284 C 0.33496 0.94103 0.44164
 C285 C 0.32692 0.94791 0.42639
 H286 H 0.29421 0.91826 0.42062
 H287 H 0.33392 0.92079 0.46126
 H288 H 0.33210 0.95967 0.42057
 O289 O 0.29654 0.49620 0.77031
 O290 O 0.29083 0.52680 0.76934
 O291 O 0.25063 0.47625 0.79582
 O292 O 0.22147 0.47683 0.79155
 O293 O 0.27067 0.45228 0.74853
 O294 O 0.26833 0.45918 0.71756
 O295 O 0.20349 0.52241 0.74878
 O296 O 0.20921 0.51869 0.77959
 O297 O 0.24838 0.54465 0.72703
 O298 O 0.27999 0.53763 0.72717
 O299 O 0.22537 0.50139 0.70300
 O300 O 0.22611 0.46991 0.70890
 O301 O 0.20246 0.50171 0.72739
 O302 O 0.20806 0.47001 0.72840
 O303 O 0.24672 0.52200 0.70292
 O304 O 0.27919 0.51921 0.70836
 O305 O 0.22723 0.54464 0.74835
 O306 O 0.23025 0.53848 0.78036
 O307 O 0.29552 0.47601 0.74838
 O308 O 0.28825 0.47819 0.71729
 O309 O 0.24993 0.45227 0.77030
 O310 O 0.21850 0.45972 0.76847
 O311 O 0.27220 0.49670 0.79566
 O312 O 0.27165 0.52715 0.78941
 Zr313 Zr 0.27118 0.50741 0.76999
 O314 O 0.25570 0.52465 0.75495
 Zr315 Zr 0.23958 0.47761 0.77022
 O316 O 0.22257 0.49369 0.75539
 Zr317 Zr 0.26976 0.47760 0.73826
 O318 O 0.25408 0.49342 0.72187
 Zr319 Zr 0.22886 0.51982 0.75973
 O320 O 0.24439 0.50383 0.77643
 Zr321 Zr 0.25905 0.51953 0.72780
 O322 O 0.27632 0.50370 0.74279
 Zr323 Zr 0.22736 0.48980 0.72819
 O324 O 0.24299 0.47228 0.74304
 O325 O 0.26621 0.48138 0.76531
 O326 O 0.23227 0.51597 0.73259
 C327 C 0.30354 0.48411 0.76091
 C328 C 0.26321 0.48471 0.80330
 C329 C 0.26192 0.44480 0.76097
 C330 C 0.19561 0.51427 0.73619
 C331 C 0.23589 0.55196 0.73577
 C332 C 0.23383 0.51389 0.69563
 H333 H 0.25903 0.53667 0.75790
 H334 H 0.25654 0.49072 0.70929
 H335 H 0.27372 0.47373 0.77267
 H336 H 0.21018 0.49131 0.75861
 H337 H 0.21458 0.51287 0.78999
 H338 H 0.21126 0.48409 0.78819
 H339 H 0.27677 0.50952 0.70014
 H340 H 0.29430 0.48952 0.71804
 H341 H 0.24071 0.54584 0.77833
 H342 H 0.25998 0.52695 0.79528
 H343 H 0.23657 0.47103 0.70117
 H344 H 0.25653 0.45377 0.71838
 H345 H 0.29630 0.52621 0.75743
 H346 H 0.27947 0.54451 0.73823
 H347 H 0.21994 0.45337 0.75714
 H348 H 0.20063 0.47166 0.73904
 O349 O 0.25280 0.04622 0.22665
 O350 O 0.28359 0.03943 0.22828
 O351 O 0.23175 0.00109 0.20106
 O352 O 0.23089 -0.02734 0.20592
 O353 O 0.20634 0.02236 0.24733
 O354 O 0.21247 0.02081 0.27848
 O355 O 0.27547 -0.04567 0.25037
 O356 O 0.27287 -0.04042 0.21936
 O357 O 0.29888 -0.00197 0.27222
 O358 O 0.29285 0.02929 0.27131
 O359 O 0.25339 -0.02277 0.29504
 O360 O 0.22167 -0.02107 0.28821
 O361 O 0.25380 -0.04549 0.27115
 O362 O 0.22160 -0.03895 0.26882
 O363 O 0.27512 -0.00256 0.29551
 O364 O 0.27338 0.02948 0.28945
 O365 O 0.29887 -0.02304 0.25119
 O366 O 0.29379 -0.02048 0.21902
 O367 O 0.23118 0.04625 0.24754
 O368 O 0.23246 0.03973 0.27885
 O369 O 0.20638 0.00172 0.22582
 O370 O 0.21297 -0.02935 0.22848
 O371 O 0.25261 0.02223 0.20165
 O372 O 0.28364 0.02007 0.20859
 Zr373 Zr 0.26311 0.02089 0.22752
 O374 O 0.27966 0.00543 0.24345
 Zr375 Zr 0.23182 -0.00918 0.22692
 O376 O 0.24714 -0.02612 0.24255
 Zr377 Zr 0.23180 0.02111 0.25830
 O378 O 0.24683 0.00547 0.27550
 Zr379 Zr 0.27405 -0.02085 0.23895
 O380 O 0.25881 -0.00542 0.22145
 Zr381 Zr 0.27374 0.00935 0.27038
 O382 O 0.25872 0.02655 0.25451
 Zr383 Zr 0.24246 -0.02074 0.26949
 O384 O 0.22564 -0.00509 0.25382
 O385 O 0.23633 0.01694 0.23146
 O386 O 0.26936 -0.01689 0.26588
 C387 C 0.24032 0.05366 0.23534
 C388 C 0.24055 0.01341 0.19375
 C389 C 0.19884 0.01377 0.23482
 C390 C 0.26659 -0.05283 0.26290
 C391 C 0.30617 -0.01462 0.26394
 C392 C 0.26623 -0.01489 0.30267
 H393 H 0.29209 0.00826 0.24086
 H394 H 0.24377 0.00817 0.28794
 H395 H 0.22898 0.02444 0.22379
 H396 H 0.24441 -0.03826 0.23946
 H397 H 0.26755 -0.03510 0.20866
 H398 H 0.23814 -0.03739 0.20952
 H399 H 0.26332 0.02741 0.29752
 H400 H 0.24422 0.04524 0.27833
 H401 H 0.30131 -0.01019 0.22090
 H402 H 0.28284 0.00864 0.20270
 H403 H 0.22288 -0.01068 0.29579
 H404 H 0.20671 0.00932 0.27788
 H405 H 0.28306 0.04490 0.24015
 H406 H 0.30021 0.02834 0.26052
 H407 H 0.20612 -0.02747 0.23950
 H408 H 0.22362 -0.04676 0.25863
 O409 O 0.54687 0.72524 0.25066
 O410 O 0.54012 0.72805 0.28176
 O411 O 0.50100 0.70031 0.23013
 O412 O 0.47174 0.70537 0.23022
 O413 O 0.52272 0.74427 0.20316
 O414 O 0.52152 0.77498 0.20849
 O415 O 0.45406 0.75076 0.27304
 O416 O 0.45860 0.72016 0.27095
 O417 O 0.49842 0.77183 0.29575
 O418 O 0.53089 0.76938 0.28956
 O419 O 0.47793 0.79307 0.24968
 O420 O 0.47987 0.78530 0.21750
 O421 O 0.45430 0.77017 0.25037
 O422 O 0.46072 0.76727 0.21840
 O423 O 0.49932 0.79385 0.27077
 O424 O 0.53091 0.78736 0.27032
 O425 O 0.47734 0.75097 0.29663
 O426 O 0.47866 0.71997 0.29225
 O427 O 0.54728 0.74493 0.22820
 O428 O 0.54117 0.77548 0.22830
 O429 O 0.50149 0.72353 0.20425
 O430 O 0.47017 0.72672 0.21054
 O431 O 0.52219 0.70134 0.25147
 O432 O 0.52046 0.70891 0.28236
 Zr433 Zr 0.52123 0.72683 0.26115
 O434 O 0.50577 0.74294 0.27736
 Zr435 Zr 0.49052 0.72562 0.22977
 O436 O 0.47361 0.74174 0.24461
 Zr437 Zr 0.52182 0.75580 0.22852
 O438 O 0.50635 0.77324 0.24332
 Zr439 Zr 0.47895 0.73885 0.27178
 O440 O 0.49438 0.72106 0.25710
 Zr441 Zr 0.51028 0.76891 0.27059
 O442 O 0.52744 0.75287 0.25576
 Zr443 Zr 0.47953 0.76782 0.23917
 O444 O 0.49502 0.75164 0.22269
 O445 O 0.51718 0.72988 0.23407
 O446 O 0.48346 0.76493 0.26637
 C447 C 0.55458 0.73315 0.23779
 C448 C 0.51344 0.69338 0.23935
 C449 C 0.51379 0.73184 0.19619
 C450 C 0.44686 0.76274 0.26365
 C451 C 0.48582 0.76368 0.30354
 C452 C 0.48670 0.80082 0.26193
 H453 H 0.50861 0.74067 0.28995
 H454 H 0.50938 0.78522 0.23987
 H455 H 0.52469 0.72210 0.22690
 H456 H 0.46117 0.73891 0.24197
 H457 H 0.46383 0.70944 0.26602
 H458 H 0.46113 0.70977 0.23635
 H459 H 0.53018 0.79377 0.25897
 H460 H 0.54689 0.77525 0.24011
 H461 H 0.48977 0.72096 0.29904
 H462 H 0.50880 0.70319 0.28179
 H463 H 0.49011 0.79308 0.21904
 H464 H 0.50984 0.77424 0.20268
 H465 H 0.54598 0.73946 0.28068
 H466 H 0.52874 0.75996 0.29820
 H467 H 0.47195 0.73749 0.20364
 H468 H 0.45316 0.75699 0.22020
 O469 O -0.04586 0.75406 0.77431
 O470 O -0.04029 0.72344 0.77304
 O471 O 0.00074 0.77391 0.79834
 O472 O 0.02984 0.77297 0.79309
 O473 O -0.02071 0.79817 0.75193
 O474 O -0.01973 0.79142 0.72087
 O475 O 0.04618 0.72796 0.74952
 O476 O 0.04158 0.73138 0.78044
 O477 O 0.00052 0.70590 0.72907
 O478 O -0.03125 0.71306 0.73060
 O479 O 0.02294 0.74889 0.70460
 O480 O 0.02209 0.78050 0.71042
 O481 O 0.04654 0.74881 0.72822
 O482 O 0.04078 0.78054 0.72942
 O483 O 0.00127 0.72862 0.70519
 O484 O -0.03089 0.73135 0.71161
 O485 O 0.02246 0.70577 0.74961
 O486 O 0.02052 0.71165 0.78181
 O487 O -0.04585 0.77457 0.75264
 O488 O -0.03973 0.77242 0.72127
 O489 O 0.00079 0.79791 0.77298
 O490 O 0.03200 0.79047 0.77005
 O491 O -0.02071 0.75335 0.79877
 O492 O -0.02045 0.72297 0.79239
 Zr493 Zr -0.02061 0.74282 0.77306
 O494 O -0.00577 0.72565 0.75740
 Zr495 Zr 0.01098 0.77257 0.77238
 O496 O 0.02739 0.75660 0.75681
 Zr497 Zr -0.02043 0.77289 0.74152
 O498 O -0.00537 0.75714 0.72446
 Zr499 Zr 0.02122 0.73045 0.76127
 O500 O 0.00637 0.74633 0.77862
 Zr501 Zr -0.01016 0.73100 0.73044
 O502 O -0.02682 0.74675 0.74612
 Zr503 Zr 0.02160 0.76063 0.72980
 O504 O 0.00655 0.77807 0.74535
 O505 O -0.01582 0.76888 0.76839
 O506 O 0.01679 0.73447 0.73430
 C507 C -0.05331 0.76625 0.76538
 C508 C -0.01158 0.76537 0.80617
 C509 C -0.01148 0.80550 0.76412
 C510 C 0.05367 0.73620 0.73676
 C511 C 0.01337 0.69856 0.73726
 C512 C 0.01414 0.73643 0.69755
 H513 H -0.00900 0.71362 0.76039
 H514 H -0.00827 0.75989 0.71199
 H515 H -0.02304 0.77650 0.77603
 H516 H 0.03989 0.75896 0.75960
 H517 H 0.03661 0.73714 0.79106
 H518 H 0.04001 0.76593 0.78918
 H519 H -0.02891 0.74126 0.70353
 H520 H -0.04575 0.76108 0.72220
 H521 H 0.01009 0.70419 0.77999
 H522 H -0.00856 0.72306 0.79781
 H523 H 0.01149 0.77920 0.70289
 H524 H -0.00779 0.79659 0.72111
 H525 H -0.04620 0.72409 0.76133
 H526 H -0.03005 0.70581 0.74136
 H527 H 0.03022 0.79682 0.75876
 H528 H 0.04864 0.77882 0.73975
 O529 O 0.04476 0.02085 0.00587
 O530 O 0.03846 0.01849 -0.02531
 O531 O -0.00222 0.04474 0.02572
 O532 O -0.03123 0.03927 0.02542
 O533 O 0.02026 0.00130 0.05259
 O534 O 0.01930 -0.02944 0.04730
 O535 O -0.04751 -0.00558 -0.01840
 O536 O -0.04319 0.02499 -0.01623
 O537 O -0.00184 -0.02572 -0.04065
 O538 O 0.03000 -0.02358 -0.03367
 O539 O -0.02319 -0.04785 0.00508
 O540 O -0.02231 -0.04057 0.03706
 O541 O -0.04709 -0.02554 0.00375
 O542 O -0.04132 -0.02239 0.03619
 O543 O -0.00209 -0.04811 -0.01627
 O544 O 0.03005 -0.04127 -0.01407
 O545 O -0.02380 -0.00574 -0.04161
 O546 O -0.02277 0.02542 -0.03711
 O547 O 0.04509 0.00057 0.02777
 O548 O 0.03910 -0.02990 0.02779
 O549 O -0.00151 0.02150 0.05142
 O550 O -0.03283 0.01761 0.04444
 O551 O 0.01959 0.04457 0.00503
 O552 O 0.01834 0.03725 -0.02605
 Zr553 Zr 0.01923 0.01911 -0.00504
 O554 O 0.00434 0.00282 -0.02170
 Zr555 Zr -0.01209 0.01934 0.02571
 O556 O -0.02849 0.00325 0.01031
 Zr557 Zr 0.01968 -0.01029 0.02724
 O558 O 0.00471 -0.02782 0.01204
 Zr559 Zr -0.02267 0.00645 -0.01672
 O560 O -0.00782 0.02431 -0.00148
 Zr561 Zr 0.00909 -0.02319 -0.01509
 O562 O 0.02570 -0.00694 0.00017
 Zr563 Zr -0.02223 -0.02274 0.01570
 O564 O -0.00725 -0.00661 0.03268
 O565 O 0.01475 0.01562 0.02190
 O566 O -0.01786 -0.01958 -0.01139
 C567 C 0.05246 0.01252 0.01849
 C568 C 0.01029 0.05211 0.01703
 C569 C 0.01101 0.01352 0.05952
 C570 C -0.05456 -0.01794 -0.00943
 C571 C -0.01466 -0.01800 -0.04853
 C572 C -0.01465 -0.05528 -0.00751
 H573 H 0.00741 0.00523 -0.03420
 H574 H 0.00781 -0.03981 0.01542
 H575 H 0.02208 0.02344 0.02923
 H576 H -0.04101 0.00589 0.01273
 H577 H -0.03816 0.03570 -0.01107
 H578 H -0.04145 0.03500 0.01855
 H579 H 0.02816 -0.04884 -0.00365
 H580 H 0.04472 -0.02989 0.01593
 H581 H -0.01163 0.02444 -0.04381
 H582 H 0.00653 0.04270 -0.02560
 H583 H -0.01150 -0.04768 0.03617
 H584 H 0.00753 -0.02880 0.05294
 H585 H 0.04446 0.00715 -0.02432
 H586 H 0.02852 -0.01353 -0.04167
 H587 H -0.03075 0.00699 0.05151
 H588 H -0.04941 -0.01260 0.03389
 O589 O -0.02241 0.45604 0.50097
 O590 O -0.02066 0.46331 0.53159
 O591 O -0.04794 0.50024 0.47844
 O592 O -0.04317 0.52844 0.47582
 O593 O -0.00173 0.47811 0.45357
 O594 O 0.02893 0.47988 0.45941
 O595 O 0.00075 0.54811 0.52118
 O596 O -0.02978 0.54305 0.51890
 O597 O 0.02286 0.50539 0.54567
 O598 O 0.02285 0.47447 0.54075
 O599 O 0.04507 0.52548 0.49910
 O600 O 0.03833 0.52314 0.46746
 O601 O 0.02153 0.54793 0.49950
 O602 O 0.01821 0.54043 0.46678
 O603 O 0.04603 0.50576 0.52145
 O604 O 0.04009 0.47338 0.52045
 O605 O 0.00171 0.52622 0.54528
 O606 O -0.03055 0.52302 0.53984
 O607 O -0.00145 0.45505 0.47944
 O608 O 0.02989 0.46218 0.48063
 O609 O -0.02349 0.49833 0.45278
 O610 O -0.02049 0.53008 0.45839
 O611 O -0.04725 0.48014 0.50050
 O612 O -0.03980 0.48284 0.53164
 Zr613 Zr -0.02141 0.48151 0.51062
 O614 O -0.00557 0.49737 0.52672
 Zr615 Zr -0.02227 0.51043 0.47794
 O616 O -0.00708 0.52801 0.49301
 Zr617 Zr 0.00910 0.48036 0.47909
 O618 O 0.02604 0.49683 0.49345
 Zr619 Zr -0.01044 0.52337 0.52028
 O620 O -0.02768 0.50755 0.50529
 Zr621 Zr 0.02118 0.49356 0.52066
 O622 O 0.00541 0.47578 0.50635
 Zr623 Zr 0.01971 0.52290 0.48836
 O624 O 0.00448 0.50636 0.47196
 O625 O -0.01759 0.48452 0.48351
 O626 O 0.01631 0.51961 0.51556
 C627 C -0.01373 0.44807 0.48881
 C628 C -0.05520 0.48848 0.48807
 C629 C -0.01438 0.48607 0.44569
 C630 C 0.01329 0.55525 0.51240
 C631 C 0.01443 0.51800 0.55281
 C632 C 0.05286 0.51801 0.51215
 H633 H -0.00807 0.49483 0.53933
 H634 H 0.03840 0.49419 0.49036
 H635 H -0.02525 0.47677 0.47645
 H636 H -0.01030 0.54006 0.49000
 H637 H -0.04025 0.53785 0.51313
 H638 H -0.04014 0.53840 0.48346
 H639 H 0.04842 0.47563 0.51062
 H640 H 0.02891 0.45649 0.49236
 H641 H -0.02795 0.51362 0.54836
 H642 H -0.04605 0.49403 0.53036
 H643 H 0.04554 0.51253 0.46851
 H644 H 0.02861 0.49134 0.45351
 H645 H -0.00880 0.45798 0.53129
 H646 H 0.01162 0.47465 0.54741
 H647 H -0.00993 0.52752 0.45114
 H648 H 0.00873 0.54886 0.46934
 O649 O 0.55228 0.02127 0.49936
 O650 O 0.54628 0.01832 0.46812
 O651 O 0.50579 0.04637 0.51840
 O652 O 0.47664 0.04130 0.51797
 O653 O 0.52701 0.00245 0.54617
 O654 O 0.52573 -0.02818 0.54112
 O655 O 0.45973 -0.00375 0.47477
 O656 O 0.46468 0.02660 0.47633
 O657 O 0.50481 -0.02563 0.45339
 O658 O 0.53706 -0.02308 0.46016
 O659 O 0.48308 -0.04638 0.49855
 O660 O 0.48416 -0.03867 0.53079
 O661 O 0.45945 -0.02324 0.49737
 O662 O 0.46523 -0.02049 0.52947
 O663 O 0.50507 -0.04726 0.47815
 O664 O 0.53684 -0.04072 0.47981
 O665 O 0.48345 -0.00508 0.45177
 O666 O 0.48543 0.02644 0.45580
 O667 O 0.55204 0.00143 0.52168
 O668 O 0.54569 -0.02907 0.52179
 O669 O 0.50576 0.02315 0.54465
 O670 O 0.47451 0.02004 0.53736
 O671 O 0.52753 0.04524 0.49766
 O672 O 0.52662 0.03749 0.46687
 Zr673 Zr 0.52687 0.01968 0.48819
 O674 O 0.51179 0.00351 0.47160
 Zr675 Zr 0.49541 0.02104 0.51877
 O676 O 0.47884 0.00496 0.50345
 Zr677 Zr 0.52654 -0.00920 0.52091
 O678 O 0.51140 -0.02666 0.50582
 Zr679 Zr 0.48484 0.00768 0.47639
 O680 O 0.49992 0.02546 0.49151
 Zr681 Zr 0.51610 -0.02240 0.47869
 O682 O 0.53290 -0.00634 0.49387
 Zr683 Zr 0.48448 -0.02114 0.50916
 O684 O 0.49962 -0.00498 0.52603
 O685 O 0.52216 0.01674 0.51518
 O686 O 0.48917 -0.01836 0.48210
 C687 C 0.55967 0.01316 0.51231
 C688 C 0.51839 0.05329 0.50942
 C689 C 0.51791 0.01483 0.55298
 C690 C 0.45223 -0.01561 0.48406
 C691 C 0.49211 -0.01791 0.44531
 C692 C 0.49213 -0.05416 0.48652
 H693 H 0.51495 0.00566 0.45908
 H694 H 0.51430 -0.03864 0.50938
 H695 H 0.52951 0.02455 0.52250
 H696 H 0.46637 0.00788 0.50578
 H697 H 0.46983 0.03726 0.48149
 H698 H 0.46640 0.03710 0.51108
 H699 H 0.53540 -0.04754 0.49083
 H700 H 0.55174 -0.02894 0.51015
 H701 H 0.49612 0.02451 0.44857
 H702 H 0.51477 0.04286 0.46681
 H703 H 0.49447 -0.04643 0.52960
 H704 H 0.51383 -0.02752 0.54645
 H705 H 0.55200 0.00686 0.46935
 H706 H 0.53515 -0.01368 0.45144
 H707 H 0.47618 0.00938 0.54447
 H708 H 0.45782 -0.01012 0.52752
 O709 O 0.49831 0.54636 0.01945
 O710 O 0.46745 0.53962 0.01908
 O711 O 0.52050 0.50263 0.04618
 O712 O 0.52098 0.47383 0.04251
 O713 O 0.54398 0.52187 -0.00196
 O714 O 0.53670 0.51881 -0.03278
 O715 O 0.47468 0.45392 0.00056
 O716 O 0.47893 0.46005 0.03123
 O717 O 0.45066 0.49599 -0.02227
 O718 O 0.45649 0.52776 -0.02236
 O719 O 0.49509 0.47488 -0.04597
 O720 O 0.52723 0.47678 -0.04015
 O721 O 0.49532 0.45296 -0.02125
 O722 O 0.52761 0.45926 -0.02025
 O723 O 0.47374 0.49548 -0.04643
 O724 O 0.47477 0.52716 -0.04163
 O725 O 0.45145 0.47643 0.00025
 O726 O 0.45814 0.48013 0.03197
 O727 O 0.51886 0.54573 -0.00251
 O728 O 0.51673 0.53768 -0.03338
 O729 O 0.54470 0.50242 0.02070
 O730 O 0.53850 0.47122 0.01929
 O731 O 0.49929 0.52344 0.04532
 O732 O 0.46815 0.52126 0.03970
 Zr733 Zr 0.48796 0.52111 0.01998
 O734 O 0.47082 0.50499 0.00557
 Zr735 Zr 0.51940 0.49117 0.02081
 O736 O 0.50353 0.47355 0.00653
 Zr737 Zr 0.51811 0.52006 -0.01194
 O738 O 0.50237 0.50372 -0.02775
 Zr739 Zr 0.47682 0.47899 0.01105
 O740 O 0.49264 0.49514 0.02719
 Zr741 Zr 0.47567 0.50784 -0.02170
 O742 O 0.49134 0.52567 -0.00736
 Zr743 Zr 0.50699 0.47772 -0.02085
 O744 O 0.52441 0.49404 -0.00654
 O745 O 0.51458 0.51705 0.01520
 O746 O 0.48028 0.48181 -0.01623
 C747 C 0.51027 0.55353 0.00985
 C748 C 0.51176 0.51517 0.05320
 C749 C 0.55188 0.51409 0.01089
 C750 C 0.48273 0.44619 -0.01218
 C751 C 0.44369 0.48393 -0.01283
 C752 C 0.48226 0.48290 -0.05352
 H753 H 0.45850 0.50788 0.00857
 H754 H 0.50494 0.50597 -0.04040
 H755 H 0.52213 0.52492 0.02225
 H756 H 0.50635 0.46153 0.01001
 H757 H 0.48486 0.46568 0.04143
 H758 H 0.51424 0.46333 0.03929
 H759 H 0.48517 0.52558 -0.04937
 H760 H 0.50506 0.54337 -0.03261
 H761 H 0.45044 0.49028 0.02999
 H762 H 0.46915 0.51012 0.04613
 H763 H 0.52559 0.48676 -0.04822
 H764 H 0.54258 0.50740 -0.03176
 H765 H 0.46751 0.54451 0.00693
 H766 H 0.44898 0.52653 -0.01172
 H767 H 0.54464 0.47259 0.00779
 H768 H 0.52609 0.45208 -0.00949
 O769 O 0.77123 0.30069 0.50016
 O770 O 0.77025 0.29347 0.53113
 O771 O 0.79461 0.25543 0.47741
 O772 O 0.78874 0.22723 0.47570
 O773 O 0.74831 0.27871 0.45371
 O774 O 0.71764 0.27785 0.46080
 O775 O 0.74593 0.20912 0.52158
 O776 O 0.77659 0.21366 0.51848
 O777 O 0.72613 0.25299 0.54706
 O778 O 0.72769 0.28428 0.54165
 O779 O 0.70134 0.23365 0.50176
 O780 O 0.70696 0.23601 0.46956
 O781 O 0.72456 0.21016 0.50047
 O782 O 0.72573 0.21767 0.46829
 O783 O 0.70221 0.25365 0.52383
 O784 O 0.70909 0.28542 0.52268
 O785 O 0.74625 0.23124 0.54590
 O786 O 0.77818 0.23313 0.53978
 O787 O 0.74966 0.30202 0.47923
 O788 O 0.71840 0.29623 0.48147
 O789 O 0.76927 0.25770 0.45258
 O790 O 0.76570 0.22644 0.45843
 O791 O 0.79523 0.27597 0.49903
 O792 O 0.78918 0.27361 0.53030
 Zr793 Zr 0.76983 0.27529 0.51016
 O794 O 0.75418 0.25993 0.52699
 Zr795 Zr 0.76856 0.24602 0.47790
 O796 O 0.75310 0.22918 0.49347
 Zr797 Zr 0.73829 0.27714 0.47964
 O798 O 0.72130 0.26158 0.49495
 Zr799 Zr 0.75770 0.23370 0.52058
 O800 O 0.77498 0.24896 0.50500
 Zr801 Zr 0.72742 0.26475 0.52194
 O802 O 0.74312 0.28186 0.50672
 Zr803 Zr 0.72633 0.23530 0.48980
 O804 O 0.74175 0.25095 0.47271
 O805 O 0.76495 0.27213 0.48324
 O806 O 0.73094 0.23847 0.51686
 C807 C 0.76243 0.30874 0.48811
 C808 C 0.80250 0.26722 0.48649
 C809 C 0.76038 0.27015 0.44557
 C810 C 0.73316 0.20233 0.51280
 C811 C 0.73418 0.23994 0.55388
 C812 C 0.69444 0.24163 0.51501
 H813 H 0.75725 0.26241 0.53948
 H814 H 0.70893 0.26470 0.49235
 H815 H 0.77260 0.27955 0.47581
 H816 H 0.75576 0.21703 0.49032
 H817 H 0.78708 0.21875 0.51266
 H818 H 0.78520 0.21720 0.48303
 H819 H 0.70078 0.28391 0.51268
 H820 H 0.71963 0.30160 0.49333
 H821 H 0.77662 0.24306 0.54790
 H822 H 0.79456 0.26198 0.52924
 H823 H 0.69974 0.24653 0.47136
 H824 H 0.71760 0.26642 0.45486
 H825 H 0.75867 0.29937 0.53096
 H826 H 0.73868 0.28295 0.54859
 H827 H 0.75470 0.22897 0.45183
 H828 H 0.73589 0.20974 0.46959
 O829 O 0.79358 0.75292 -0.02657
 O830 O 0.78834 0.72225 -0.02608
 O831 O 0.74620 0.77225 -0.05057
 O832 O 0.71725 0.77135 -0.04521
 O833 O 0.76749 0.79614 -0.00365
 O834 O 0.76621 0.78892 0.02734
 O835 O 0.70150 0.72526 -0.00311
 O836 O 0.70660 0.72891 -0.03389
 O837 O 0.74763 0.70320 0.01748
 O838 O 0.77913 0.71072 0.01629
 O839 O 0.72451 0.74551 0.04268
 O840 O 0.72466 0.77714 0.03730
 O841 O 0.70103 0.74510 0.01915
 O842 O 0.70592 0.77701 0.01826
 O843 O 0.74637 0.72544 0.04173
 O844 O 0.77867 0.72896 0.03533
 O845 O 0.72561 0.70316 -0.00297
 O846 O 0.72780 0.70948 -0.03515
 O847 O 0.79278 0.77289 -0.00441
 O848 O 0.78650 0.77031 0.02684
 O849 O 0.74623 0.79601 -0.02494
 O850 O 0.71491 0.78809 -0.02185
 O851 O 0.76855 0.75263 -0.05124
 O852 O 0.76847 0.72198 -0.04559
 Zr853 Zr 0.76839 0.74136 -0.02579
 O854 O 0.75374 0.72363 -0.01052
 Zr855 Zr 0.73619 0.77055 -0.02459
 O856 O 0.72002 0.75397 -0.00946
 Zr857 Zr 0.76737 0.77073 0.00641
 O858 O 0.75258 0.75439 0.02308
 Zr859 Zr 0.72667 0.72803 -0.01440
 O860 O 0.74133 0.74452 -0.03134
 Zr861 Zr 0.75788 0.72848 0.01657
 O862 O 0.77432 0.74482 0.00130
 Zr863 Zr 0.72560 0.75758 0.01765
 O864 O 0.74037 0.77560 0.00255
 O865 O 0.76304 0.76721 -0.02056
 O866 O 0.73089 0.73159 0.01266
 C867 C 0.80062 0.76502 -0.01720
 C868 C 0.75893 0.76440 -0.05848
 C869 C 0.75842 0.80355 -0.01592
 C870 C 0.69399 0.73285 0.01005
 C871 C 0.73481 0.69586 0.00927
 C872 C 0.73344 0.73303 0.04951
 H873 H 0.75718 0.71170 -0.01371
 H874 H 0.75539 0.75695 0.03561
 H875 H 0.77021 0.77504 -0.02804
 H876 H 0.70749 0.75619 -0.01228
 H877 H 0.71159 0.73503 -0.04429
 H878 H 0.70740 0.76371 -0.04169
 H879 H 0.77623 0.73835 0.04390
 H880 H 0.79272 0.75908 0.02583
 H881 H 0.73831 0.70213 -0.03332
 H882 H 0.75656 0.72204 -0.05098
 H883 H 0.73535 0.77603 0.04473
 H884 H 0.75427 0.79408 0.02694
 H885 H 0.79410 0.72266 -0.01429
 H886 H 0.77827 0.70386 0.00524
 H887 H 0.71674 0.79440 -0.01056
 H888 H 0.69815 0.77529 0.00786
 O889 O 1.00032 0.27346 0.30062
 O890 O 1.03119 0.27241 0.29395
 O891 O 0.97861 0.29453 0.25272
 O892 O 0.97810 0.28791 0.22389
 O893 O 0.95488 0.25040 0.27770
 O894 O 0.96166 0.22013 0.27775
 O895 O 1.02414 0.24536 0.20818
 O896 O 1.02091 0.27561 0.21169
 O897 O 1.04793 0.22711 0.25436
 O898 O 1.04206 0.23028 0.28637
 O899 O 1.00377 0.20241 0.23450
 O900 O 0.97189 0.20785 0.23562
 O901 O 1.00325 0.22434 0.20964
 O902 O 0.97096 0.22581 0.21627
 O903 O 1.02505 0.20400 0.25565
 O904 O 1.02303 0.21215 0.28798
 O905 O 1.04760 0.24628 0.23149
 O906 O 1.04148 0.27789 0.23230
 O907 O 0.97998 0.25187 0.30210
 O908 O 0.98157 0.22117 0.29706
 O909 O 0.95421 0.26993 0.25512
 O910 O 0.96092 0.26519 0.22338
 O911 O 0.99960 0.29624 0.27421
 O912 O 1.03077 0.29030 0.27284
 Zr913 Zr 1.01084 0.27128 0.27481
 O914 O 1.02802 0.25531 0.26016
 Zr915 Zr 0.97966 0.26876 0.24392
 O916 O 0.99566 0.25303 0.22771
 Zr917 Zr 0.98057 0.24021 0.27692
 O918 O 0.99623 0.22299 0.26214
 Zr919 Zr 1.02243 0.25777 0.23295
 O920 O 1.00645 0.27527 0.24747
 Zr921 Zr 1.02288 0.22921 0.26595
 O922 O 1.00728 0.24524 0.28239
 Zr923 Zr 0.99184 0.22699 0.23490
 O924 O 0.97438 0.24264 0.24981
 O925 O 0.98424 0.26622 0.27097
 O926 O 1.01857 0.23170 0.23877
 C927 C 0.98851 0.26464 0.30889
 C928 C 0.98719 0.30285 0.26472
 C929 C 0.94702 0.26189 0.26821
 C930 C 1.01566 0.23248 0.20158
 C931 C 1.05506 0.23442 0.24084
 C932 C 1.01669 0.19595 0.24333
 H933 H 1.04036 0.25839 0.26292
 H934 H 0.99359 0.21096 0.26574
 H935 H 0.97670 0.27394 0.27818
 H936 H 0.99286 0.25518 0.21508
 H937 H 1.01498 0.28609 0.21636
 H938 H 0.98559 0.28403 0.21392
 H939 H 1.01342 0.20366 0.28629
 H940 H 0.99327 0.22225 0.30278
 H941 H 1.04951 0.27643 0.24254
 H942 H 1.03004 0.29506 0.26065
 H943 H 0.97304 0.20151 0.24697
 H944 H 0.95597 0.21987 0.26592
 H945 H 1.03113 0.26113 0.30018
 H946 H 1.04924 0.24081 0.28448
 H947 H 0.95425 0.25454 0.22624
 H948 H 0.97262 0.23534 0.20765
 O949 O 0.75454 1.05060 0.72764
 O950 O 0.78537 1.04310 0.72905
 O951 O 0.73215 1.00675 0.70140
 O952 O 0.73128 0.97798 0.70572
 O953 O 0.70773 1.02719 0.74858
 O954 O 0.71448 1.02505 0.77966
 O955 O 0.77551 0.95787 0.74950
 O956 O 0.77227 0.96359 0.71851
 O957 O 0.80018 1.00039 0.77169
 O958 O 0.79474 1.03233 0.77070
 O959 O 0.75495 0.98042 0.79475
 O960 O 0.72270 0.98346 0.78833
 O961 O 0.75405 0.95816 0.77050
 O962 O 0.72226 0.96529 0.76914
 O963 O 0.77682 1.00049 0.79513
 O964 O 0.77623 1.03215 0.78990
 O965 O 0.79928 0.97990 0.75009
 O966 O 0.79378 0.98298 0.71808
 O967 O 0.73316 1.05074 0.74879
 O968 O 0.73464 1.04375 0.77988
 O969 O 0.70731 1.00737 0.72627
 O970 O 0.71283 0.97627 0.72839
 O971 O 0.75383 1.02706 0.70231
 O972 O 0.78465 1.02448 0.70873
 Zr973 Zr 0.76441 1.02510 0.72799
 O974 O 0.78082 1.00889 0.74321
 Zr975 Zr 0.73241 0.99578 0.72705
 O976 O 0.74742 0.97821 0.74230
 Zr977 Zr 0.73342 1.02541 0.75909
 O978 O 0.74845 1.00923 0.77578
 Zr979 Zr 0.77438 0.98285 0.73835
 O980 O 0.75941 0.99903 0.72135
 Zr981 Zr 0.77538 1.01259 0.77024
 O982 O 0.76041 1.03039 0.75508
 Zr983 Zr 0.74336 0.98322 0.76945
 O984 O 0.72670 0.99943 0.75416
 O985 O 0.73759 1.02168 0.73213
 O986 O 0.77027 0.98654 0.76539
 C987 C 0.74229 1.05815 0.73657
 C988 C 0.74136 1.01894 0.69431
 C989 C 0.70002 1.01920 0.73576
 C990 C 0.76664 0.95071 0.76205
 C991 C 0.80696 0.98771 0.76300
 C992 C 0.76804 0.98808 0.80223
 H993 H 0.79328 1.01144 0.74046
 H994 H 0.74569 1.01181 0.78832
 H995 H 0.73032 1.02948 0.72470
 H996 H 0.74434 0.96617 0.73909
 H997 H 0.76698 0.96922 0.70796
 H998 H 0.73749 0.96735 0.70952
 H999 H 0.76562 1.03092 0.79741
 H1000 H 0.74657 1.04892 0.77941
 H1001 H 0.80160 0.99305 0.71996
 H1002 H 0.78385 1.01306 0.70284
 H1003 H 0.72493 0.99310 0.79668
 H1004 H 0.70847 1.01370 0.77892
 H1005 H 0.78485 1.04856 0.74092
 H1006 H 0.80264 1.03055 0.76043
 H1007 H 0.70649 0.97790 0.73975
 H1008 H 0.72344 0.95815 0.75831
 O1009 O 0.79935 0.49873 0.26804
 O1010 O 0.79272 0.52887 0.26711
 O1011 O 0.75380 0.47756 0.29379
 O1012 O 0.72471 0.47738 0.28930
 O1013 O 0.77475 0.45336 0.24696
 O1014 O 0.77279 0.45976 0.21600
 O1015 O 0.70582 0.52162 0.24608
 O1016 O 0.71161 0.51905 0.27669
 O1017 O 0.75054 0.54489 0.22391
 O1018 O 0.78231 0.53838 0.22422
 O1019 O 0.72860 0.50065 0.20032
 O1020 O 0.72985 0.46947 0.20674
 O1021 O 0.70551 0.50114 0.22444
 O1022 O 0.71192 0.46932 0.22641
 O1023 O 0.74930 0.52188 0.20007
 O1024 O 0.78176 0.51984 0.20556
 O1025 O 0.72924 0.54474 0.24509
 O1026 O 0.73209 0.53916 0.27712
 O1027 O 0.79919 0.47773 0.24689
 O1028 O 0.79207 0.47945 0.21556
 O1029 O 0.75374 0.45322 0.26848
 O1030 O 0.72220 0.46002 0.26645
 O1031 O 0.77505 0.49832 0.29326
 O1032 O 0.77321 0.52888 0.28675
 Zr1033 Zr 0.77367 0.50891 0.26757
 O1034 O 0.75799 0.52550 0.25207
 Zr1035 Zr 0.74292 0.47834 0.26807
 O1036 O 0.72564 0.49379 0.25288
 Zr1037 Zr 0.77343 0.47855 0.23638
 O1038 O 0.75737 0.49367 0.21959
 Zr1039 Zr 0.73128 0.52012 0.25684
 O1040 O 0.74698 0.50474 0.27394
 Zr1041 Zr 0.76164 0.51999 0.22503
 O1042 O 0.77918 0.50490 0.24049
 Zr1043 Zr 0.73067 0.48961 0.22577
 O1044 O 0.74671 0.47272 0.24099
 O1045 O 0.76949 0.48267 0.26332
 O1046 O 0.73490 0.51596 0.22976
 C1047 C 0.80685 0.48662 0.25912
 C1048 C 0.76632 0.48627 0.30110
 C1049 C 0.76593 0.44585 0.25933
 C1050 C 0.69823 0.51337 0.23340
 C1051 C 0.73792 0.55210 0.23253
 C1052 C 0.73669 0.51330 0.19282
 H1053 H 0.76105 0.53763 0.25484
 H1054 H 0.75995 0.49081 0.20707
 H1055 H 0.77717 0.47529 0.27080
 H1056 H 0.71329 0.49116 0.25608
 H1057 H 0.71700 0.51336 0.28716
 H1058 H 0.71443 0.48451 0.28586
 H1059 H 0.77968 0.50987 0.19761
 H1060 H 0.79787 0.49090 0.21631
 H1061 H 0.74256 0.54655 0.27520
 H1062 H 0.76170 0.52805 0.29286
 H1063 H 0.74052 0.47045 0.19928
 H1064 H 0.76101 0.45427 0.21657
 H1065 H 0.79813 0.52860 0.25515
 H1066 H 0.78144 0.54561 0.23502
 H1067 H 0.72382 0.45358 0.25521
 H1068 H 0.70400 0.47136 0.23662
 O1069 O 0.49860 0.20040 0.72945
 O1070 O 0.46787 0.20719 0.73099
 O1071 O 0.51976 0.24416 0.70192
 O1072 O 0.52052 0.27286 0.70552
 O1073 O 0.54529 0.22478 0.74904
 O1074 O 0.53913 0.22774 0.78018
 O1075 O 0.47611 0.29286 0.74937
 O1076 O 0.47902 0.28672 0.71847
 O1077 O 0.45269 0.25071 0.77287
 O1078 O 0.45884 0.21890 0.77294
 O1079 O 0.49823 0.27193 0.79491
 O1080 O 0.53006 0.26982 0.78801
 O1081 O 0.49772 0.29377 0.77023
 O1082 O 0.52992 0.28718 0.76797
 O1083 O 0.47648 0.25178 0.79614
 O1084 O 0.47770 0.21995 0.79178
 O1085 O 0.45262 0.27022 0.75028
 O1086 O 0.45804 0.26689 0.71866
 O1087 O 0.52033 0.20097 0.75025
 O1088 O 0.51909 0.20875 0.78130
 O1089 O 0.54512 0.24464 0.72674
 O1090 O 0.53875 0.27565 0.72795
 O1091 O 0.49859 0.22338 0.70355
 O1092 O 0.46769 0.22560 0.71047
 Zr1093 Zr 0.48834 0.22568 0.72934
 O1094 O 0.47185 0.24181 0.74446
 Zr1095 Zr 0.51973 0.25558 0.72731
 O1096 O 0.50452 0.27320 0.74222
 Zr1097 Zr 0.51979 0.22657 0.75999
 O1098 O 0.50474 0.24295 0.77648
 Zr1099 Zr 0.47764 0.26780 0.73874
 O1100 O 0.49274 0.25164 0.72197
 Zr1101 Zr 0.47777 0.23899 0.77154
 O1102 O 0.49281 0.22110 0.75653
 Zr1103 Zr 0.50914 0.26894 0.76941
 O1104 O 0.52590 0.25260 0.75440
 O1105 O 0.51516 0.22968 0.73302
 O1106 O 0.48223 0.26499 0.76585
 C1107 C 0.51110 0.19320 0.73833
 C1108 C 0.51070 0.23169 0.69519
 C1109 C 0.55275 0.23296 0.73619
 C1110 C 0.48479 0.30059 0.76168
 C1111 C 0.44531 0.26263 0.76354
 C1112 C 0.48537 0.26435 0.80282
 H1113 H 0.45942 0.23891 0.74193
 H1114 H 0.50779 0.24074 0.78903
 H1115 H 0.52247 0.22188 0.72565
 H1116 H 0.50724 0.28522 0.73864
 H1117 H 0.48435 0.28101 0.70800
 H1118 H 0.51373 0.28329 0.70887
 H1119 H 0.48840 0.22162 0.79908
 H1120 H 0.50729 0.20330 0.78102
 H1121 H 0.45085 0.25637 0.72050
 H1122 H 0.46857 0.23664 0.70386
 H1123 H 0.52871 0.25985 0.79614
 H1124 H 0.54496 0.23914 0.77898
 H1125 H 0.46840 0.20226 0.74311
 H1126 H 0.45085 0.22011 0.76263
 H1127 H 0.54535 0.27440 0.73923
 H1128 H 0.52786 0.29458 0.75744
 O1129 O 0.29976 0.75472 0.48100
 O1130 O 0.29394 0.72423 0.48144
 O1131 O 0.25335 0.77505 0.45630
 O1132 O 0.22440 0.77548 0.46113
 O1133 O 0.27468 0.79838 0.50351
 O1134 O 0.27250 0.79131 0.53448
 O1135 O 0.20681 0.72897 0.50266
 O1136 O 0.21239 0.73272 0.47208
 O1137 O 0.25178 0.70604 0.52417
 O1138 O 0.28323 0.71265 0.52403
 O1139 O 0.22939 0.74935 0.54898
 O1140 O 0.22962 0.78032 0.54367
 O1141 O 0.20623 0.74875 0.52496
 O1142 O 0.21203 0.78105 0.52355
 O1143 O 0.25040 0.72841 0.54859
 O1144 O 0.28306 0.73125 0.54274
 O1145 O 0.23041 0.70649 0.50303
 O1146 O 0.23342 0.71309 0.47089
 O1147 O 0.29917 0.77462 0.50325
 O1148 O 0.29211 0.77191 0.53451
 O1149 O 0.25395 0.79889 0.48171
 O1150 O 0.22206 0.79179 0.48466
 O1151 O 0.27522 0.75491 0.45589
 O1152 O 0.27425 0.72418 0.46173
 Zr1153 Zr 0.27434 0.74369 0.48140
 O1154 O 0.25899 0.72634 0.49640
 Zr1155 Zr 0.24293 0.77377 0.48206
 O1156 O 0.22599 0.75748 0.49665
 Zr1157 Zr 0.27351 0.77303 0.51363
 O1158 O 0.25781 0.75715 0.52991
 Zr1159 Zr 0.23216 0.73140 0.49185
 O1160 O 0.24751 0.74762 0.47529
 Zr1161 Zr 0.26258 0.73108 0.52362
 O1162 O 0.27981 0.74694 0.50863
 Zr1163 Zr 0.23104 0.76097 0.52385
 O1164 O 0.24672 0.77866 0.50927
 O1165 O 0.26958 0.76964 0.48658
 O1166 O 0.23579 0.73485 0.51902
 C1167 C 0.30695 0.76666 0.49047
 C1168 C 0.26599 0.76693 0.44857
 C1169 C 0.26627 0.80602 0.49092
 C1170 C 0.19919 0.73657 0.51573
 C1171 C 0.23912 0.69895 0.51547
 C1172 C 0.23774 0.73667 0.55612
 H1173 H 0.26221 0.71434 0.49327
 H1174 H 0.26040 0.75970 0.54250
 H1175 H 0.27709 0.77725 0.47921
 H1176 H 0.21358 0.75996 0.49356
 H1177 H 0.21759 0.73896 0.46186
 H1178 H 0.21446 0.76775 0.46416
 H1179 H 0.28051 0.74057 0.55138
 H1180 H 0.29829 0.76068 0.53334
 H1181 H 0.24357 0.70534 0.47303
 H1182 H 0.26262 0.72482 0.45579
 H1183 H 0.24081 0.78003 0.55040
 H1184 H 0.26082 0.79697 0.53370
 H1185 H 0.29943 0.72447 0.49337
 H1186 H 0.28292 0.70631 0.51263
 H1187 H 0.22423 0.79841 0.49571
 H1188 H 0.20379 0.77881 0.51363
 O1189 O 0.24661 0.27269 0.95112
 O1190 O 0.21574 0.27103 0.95761
 O1191 O 0.26794 0.29570 0.99780
 O1192 O 0.26847 0.29004 1.02698
 O1193 O 0.29267 0.25084 0.97481
 O1194 O 0.28609 0.22061 0.97537
 O1195 O 0.22356 0.24736 1.04432
 O1196 O 0.22607 0.27738 1.03972
 O1197 O 0.19970 0.22728 0.99871
 O1198 O 0.20587 0.22923 0.96660
 O1199 O 0.24455 0.20366 1.01954
 O1200 O 0.27643 0.20982 1.01815
 O1201 O 0.24440 0.22624 1.04364
 O1202 O 0.27676 0.22830 1.03708
 O1203 O 0.22310 0.20429 0.99850
 O1204 O 0.22488 0.21109 0.96604
 O1205 O 0.20006 0.24691 1.02115
 O1206 O 0.20555 0.27864 1.01906
 O1207 O 0.26773 0.25181 0.95018
 O1208 O 0.26600 0.22101 0.95605
 O1209 O 0.29274 0.27148 0.99632
 O1210 O 0.28634 0.26768 1.02817
 O1211 O 0.24648 0.29620 0.97670
 O1212 O 0.21559 0.28954 0.97797
 Zr1213 Zr 0.23605 0.27098 0.97685
 O1214 O 0.21923 0.25528 0.99209
 Zr1215 Zr 0.26739 0.27020 1.00766
 O1216 O 0.25176 0.25470 1.02450
 Zr1217 Zr 0.26700 0.24054 0.97568
 O1218 O 0.25167 0.22355 0.99119
 Zr1219 Zr 0.22493 0.25882 1.01913
 O1220 O 0.24048 0.27609 1.00395
 Zr1221 Zr 0.22486 0.22911 0.98722
 O1222 O 0.24015 0.24483 0.97014
 Zr1223 Zr 0.25597 0.22847 1.01831
 O1224 O 0.27309 0.24395 1.00273
 O1225 O 0.26278 0.26664 0.98076
 O1226 O 0.22917 0.23261 1.01429
 C1227 C 0.25887 0.26425 0.94312
 C1228 C 0.25885 0.30342 0.98573
 C1229 C 0.30023 0.26291 0.98377
 C1230 C 0.23196 0.23466 1.05138
 C1231 C 0.19258 0.23491 1.01206
 C1232 C 0.23167 0.19674 1.01102
 H1233 H 0.20684 0.25808 0.98925
 H1234 H 0.25453 0.21145 0.98804
 H1235 H 0.27020 0.27429 0.97334
 H1236 H 0.25452 0.25731 1.03704
 H1237 H 0.23191 0.28776 1.03472
 H1238 H 0.26135 0.28619 1.03723
 H1239 H 0.23502 0.20320 0.96774
 H1240 H 0.25434 0.22203 0.95024
 H1241 H 0.19731 0.27652 1.00912
 H1242 H 0.21609 0.29471 0.98998
 H1243 H 0.27515 0.20283 1.00723
 H1244 H 0.29166 0.22059 0.98726
 H1245 H 0.21625 0.25965 0.95159
 H1246 H 0.19850 0.23969 0.96806
 H1247 H 0.29298 0.25689 1.02583
 H1248 H 0.27486 0.23805 1.04535
 C1249 C 0.28324 0.37607 0.78121
 C1250 C 0.27185 0.36279 0.78672
 C1251 C 0.27887 0.34732 0.79319
 C1252 C 0.29720 0.34498 0.79419
 C1253 C 0.30811 0.35833 0.78791
 N1254 N 0.30096 0.37332 0.78174
 C1255 C 0.27663 0.39316 0.77528
 N1256 N 0.28686 0.40293 0.76434
 C1257 C 0.28217 0.41915 0.75914
 C1258 C 0.26647 0.42665 0.76538
 C1259 C 0.25570 0.41678 0.77664
 C1260 C 0.26069 0.40006 0.78158
 H1261 H 0.26995 0.33721 0.79748
 H1262 H 0.32231 0.35716 0.78849
 H1263 H 0.29097 0.42633 0.75056
 H1264 H 0.24353 0.42205 0.78185
 H1265 H 0.25769 0.36424 0.78601
 H1266 H 0.25242 0.39295 0.79072
 C1267 C 0.28959 -0.11916 0.28880
 C1268 C 0.28701 -0.12362 0.30662
 C1269 C 0.29382 -0.13908 0.31312
 C1270 C 0.30334 -0.15046 0.30202
 C1271 C 0.30589 -0.14519 0.28423
 N1272 N 0.29907 -0.12996 0.27822
 C1273 C 0.28273 -0.10268 0.28154
 N1274 N 0.29160 -0.09459 0.26819
 C1275 C 0.28645 -0.07896 0.26163
 C1276 C 0.27160 -0.07051 0.26866
 C1277 C 0.26197 -0.07895 0.28201
 C1278 C 0.26743 -0.09499 0.28841
 H1279 H 0.29221 -0.14152 0.32716
 H1280 H 0.31270 -0.15331 0.27479
 H1281 H 0.29421 -0.07300 0.25124
 H1282 H 0.25032 -0.07309 0.28772
 H1283 H 0.28026 -0.11502 0.31569
 H1284 H 0.25970 -0.10125 0.29862
 C1285 C 0.78873 0.88383 0.78757
 C1286 C 0.78481 0.87857 0.80491
 C1287 C 0.79119 0.86284 0.81123
 C1288 C 0.80165 0.85200 0.80042
 C1289 C 0.80566 0.85814 0.78319
 N1290 N 0.79918 0.87357 0.77734
 C1291 C 0.78218 0.90052 0.78041
 N1292 N 0.79164 0.90895 0.76771
 C1293 C 0.78671 0.92468 0.76121
 C1294 C 0.77145 0.93290 0.76762
 C1295 C 0.76124 0.92413 0.78029
 C1296 C 0.76648 0.90798 0.78662
 H1297 H 0.78848 0.85976 0.82495
 H1298 H 0.81331 0.85048 0.77400
 H1299 H 0.79495 0.93091 0.75138
 H1300 H 0.74926 0.92980 0.78549
 H1301 H 0.77729 0.88671 0.81380
 H1302 H 0.75824 0.90147 0.79625
 C1303 C 0.46520 0.86925 0.28296
 C1304 C 0.47672 0.88243 0.28849
 C1305 C 0.46988 0.89775 0.29545
 C1306 C 0.45159 0.90008 0.29681
 C1307 C 0.44052 0.88691 0.29042
 N1308 N 0.44749 0.87202 0.28385
 C1309 C 0.47169 0.85221 0.27677
 N1310 N 0.46123 0.84237 0.26608
 C1311 C 0.46593 0.82620 0.26072
 C1312 C 0.48189 0.81886 0.26648
 C1313 C 0.49287 0.82882 0.27748
 C1314 C 0.48786 0.84543 0.28262
 H1315 H 0.47889 0.90775 0.29980
 H1316 H 0.42633 0.88815 0.29125
 H1317 H 0.45698 0.81895 0.25235
 H1318 H 0.50526 0.82369 0.28234
 H1319 H 0.49087 0.88101 0.28747
 H1320 H 0.49633 0.85253 0.29159
 C1321 C -0.03238 0.87361 0.78645
 C1322 C -0.02115 0.88665 0.79284
 C1323 C -0.02837 0.90188 0.79969
 C1324 C -0.04672 0.90419 0.80015
 C1325 C -0.05743 0.89101 0.79319
 N1326 N -0.05011 0.87629 0.78666
 C1327 C -0.02570 0.85682 0.77984
 N1328 N -0.03598 0.84746 0.76855
 C1329 C -0.03139 0.83141 0.76283
 C1330 C -0.01577 0.82362 0.76886
 C1331 C -0.00487 0.83310 0.78038
 C1332 C -0.00976 0.84967 0.78587
 H1333 H -0.01960 0.91186 0.80458
 H1334 H -0.07165 0.89212 0.79341
 H1335 H -0.04026 0.82456 0.75402
 H1336 H 0.00726 0.82759 0.78545
 H1337 H -0.00697 0.88525 0.79247
 H1338 H -0.00144 0.85643 0.79525
 C1339 C -0.03953 -0.12147 -0.03185
 C1340 C -0.05742 -0.12566 -0.03058
 C1341 C -0.06364 -0.14089 -0.03817
 C1342 C -0.05217 -0.15232 -0.04716
 C1343 C -0.03426 -0.14736 -0.04828
 N1344 N -0.02855 -0.13234 -0.04076
 C1345 C -0.03256 -0.10510 -0.02443
 N1346 N -0.01851 -0.09733 -0.03235
 C1347 C -0.01214 -0.08176 -0.02683
 C1348 C -0.02013 -0.07302 -0.01258
 C1349 C -0.03422 -0.08115 -0.00385
 C1350 C -0.04041 -0.09714 -0.00967
 H1351 H -0.07770 -0.14307 -0.03762
 H1352 H -0.02454 -0.15554 -0.05453
 H1353 H -0.00116 -0.07607 -0.03388
 H1354 H -0.04072 -0.07502 0.00730
 H1355 H -0.06675 -0.11699 -0.02434
 H1356 H -0.05125 -0.10314 -0.00266
 C1357 C -0.03783 0.38031 0.46866
 C1358 C -0.05596 0.37675 0.46840
 C1359 C -0.06192 0.36095 0.46182
 C1360 C -0.04992 0.34855 0.45556
 C1361 C -0.03186 0.35266 0.45600
 N1362 N -0.02636 0.36825 0.46234
 C1363 C -0.03109 0.39717 0.47500
 N1364 N -0.01652 0.40419 0.46729
 C1365 C -0.01034 0.42013 0.47184
 C1366 C -0.01902 0.43000 0.48485
 C1367 C -0.03367 0.42265 0.49339
 C1368 C -0.03971 0.40631 0.48853
 H1369 H -0.07599 0.35866 0.46125
 H1370 H -0.02210 0.34348 0.45142
 H1371 H 0.00110 0.42521 0.46502
 H1372 H -0.04075 0.42965 0.50359
 H1373 H -0.06553 0.38624 0.47273
 H1374 H -0.05105 0.40094 0.49529
 C1375 C 0.46962 -0.12196 0.46427
 C1376 C 0.48013 -0.13409 0.45533
 C1377 C 0.47257 -0.14928 0.44884
 C1378 C 0.45448 -0.15276 0.45132
 C1379 C 0.44464 -0.14043 0.46102
 N1380 N 0.45231 -0.12563 0.46696
 C1381 C 0.47655 -0.10510 0.47053
 N1382 N 0.46737 -0.09619 0.48310
 C1383 C 0.47231 -0.08020 0.48881
 C1384 C 0.48721 -0.07209 0.48155
 C1385 C 0.49693 -0.08110 0.46865
 C1386 C 0.49166 -0.09750 0.46310
 H1387 H 0.48120 -0.15849 0.44241
 H1388 H 0.43063 -0.14187 0.46309
 H1389 H 0.46435 -0.07373 0.49871
 H1390 H 0.50843 -0.07534 0.46253
 H1391 H 0.49411 -0.13210 0.45349
 H1392 H 0.49906 -0.10377 0.45267
 C1393 C 0.45635 0.38028 -0.03600
 C1394 C 0.43821 0.37673 -0.03622
 C1395 C 0.43215 0.36125 -0.04353
 C1396 C 0.44407 0.34919 -0.05062
 C1397 C 0.46212 0.35331 -0.05027
 N1398 N 0.46770 0.36854 -0.04315
 C1399 C 0.46333 0.39676 -0.02882
 N1400 N 0.47850 0.40341 -0.03565
 C1401 C 0.48524 0.41885 -0.03022
 C1402 C 0.47656 0.42862 -0.01713
 C1403 C 0.46120 0.42170 -0.00954
 C1404 C 0.45458 0.40583 -0.01530
 H1405 H 0.41809 0.35892 -0.04396
 H1406 H 0.47180 0.34438 -0.05549
 H1407 H 0.49718 0.42360 -0.03637
 H1408 H 0.45406 0.42869 0.00064
 H1409 H 0.42868 0.38597 -0.03128
 H1410 H 0.44277 0.40077 -0.00917
 C1411 C 0.78772 0.37527 0.46520
 C1412 C 0.80583 0.37893 0.46551
 C1413 C 0.81196 0.39448 0.45851
 C1414 C 0.80014 0.40653 0.45120
 C1415 C 0.78215 0.40223 0.45078
 N1416 N 0.77647 0.38691 0.45766
 C1417 C 0.78076 0.35876 0.47227
 N1418 N 0.76606 0.35169 0.46485
 C1419 C 0.75957 0.33608 0.47010
 C1420 C 0.76807 0.32657 0.48353
 C1421 C 0.78286 0.33397 0.49178
 C1422 C 0.78919 0.35002 0.48624
 H1423 H 0.82601 0.39694 0.45856
 H1424 H 0.77259 0.41112 0.44524
 H1425 H 0.74804 0.33096 0.46345
 H1426 H 0.78979 0.32723 0.50229
 H1427 H 0.81528 0.36973 0.47072
 H1428 H 0.80058 0.35545 0.49285
 C1429 C 0.78149 0.87101 -0.03833
 C1430 C 0.77097 0.88414 -0.04574
 C1431 C 0.77892 0.89927 -0.05206
 C1432 C 0.79728 0.90138 -0.05100
 C1433 C 0.80723 0.88802 -0.04326
 N1434 N 0.79922 0.87346 -0.03723
 C1435 C 0.77411 0.85445 -0.03181
 N1436 N 0.78357 0.84517 -0.01976
 C1437 C 0.77842 0.82931 -0.01395
 C1438 C 0.76302 0.82162 -0.02065
 C1439 C 0.75291 0.83105 -0.03295
 C1440 C 0.75837 0.84745 -0.03852
 H1441 H 0.77068 0.90936 -0.05761
 H1442 H 0.82144 0.88893 -0.04236
 H1443 H 0.78672 0.82253 -0.00454
 H1444 H 0.74100 0.82560 -0.03857
 H1445 H 0.75679 0.88293 -0.04647
 H1446 H 0.75068 0.85416 -0.04848
 C1447 C 0.78199 0.29323 0.37631
 C1448 C 0.78223 0.31090 0.37196
 C1449 C 0.78949 0.31622 0.35587
 C1450 C 0.79650 0.30402 0.34399
 C1451 C 0.79593 0.28645 0.34883
 N1452 N 0.78890 0.28159 0.36468
 C1453 C 0.77530 0.28708 0.39364
 N1454 N 0.78228 0.27245 0.40089
 C1455 C 0.77742 0.26653 0.41717
 C1456 C 0.76482 0.27555 0.42723
 C1457 C 0.75705 0.29035 0.41972
 C1458 C 0.76221 0.29612 0.40298
 H1459 H 0.79009 0.32994 0.35298
 H1460 H 0.80104 0.27657 0.34005
 H1461 H 0.78363 0.25496 0.42233
 H1462 H 0.74718 0.29768 0.42688
 H1463 H 0.77746 0.32064 0.38109
 H1464 H 0.75598 0.30752 0.39747
 C1465 C 0.78098 0.78878 -0.12716
 C1466 C 0.77072 0.79816 -0.13931
 C1467 C 0.77860 0.80525 -0.15439
 C1468 C 0.79679 0.80302 -0.15769
 C1469 C 0.80633 0.79283 -0.14539
 N1470 N 0.79834 0.78627 -0.13074
 C1471 C 0.77381 0.78186 -0.11030
 N1472 N 0.78295 0.76918 -0.10175
 C1473 C 0.77808 0.76296 -0.08560
 C1474 C 0.76332 0.76982 -0.07683
 C1475 C 0.75353 0.78275 -0.08551
 C1476 C 0.75871 0.78880 -0.10218
 H1477 H 0.77015 0.81200 -0.16365
 H1478 H 0.82036 0.79085 -0.14665
 H1479 H 0.78607 0.75301 -0.07946
 H1480 H 0.74212 0.78853 -0.07923
 H1481 H 0.75671 0.79993 -0.13739
 H1482 H 0.75131 0.79924 -0.10818
 C1483 C 0.28504 0.46278 0.87297
 C1484 C 0.29133 0.47374 0.88644
 C1485 C 0.29746 0.46661 0.90232
 C1486 C 0.29732 0.44860 0.90489
 C1487 C 0.29056 0.43815 0.89123
 N1488 N 0.28470 0.44539 0.87588
 C1489 C 0.27891 0.46947 0.85561
 N1490 N 0.26740 0.45979 0.84593
 C1491 C 0.26182 0.46463 0.82950
 C1492 C 0.26816 0.47992 0.82170
 C1493 C 0.28001 0.49013 0.83148
 C1494 C 0.28538 0.48499 0.84839
 H1495 H 0.30220 0.47519 0.91264
 H1496 H 0.29034 0.42420 0.89253
 H1497 H 0.25277 0.45628 0.82242
 H1498 H 0.28532 0.50198 0.82597
 H1499 H 0.29135 0.48767 0.88489
 H1500 H 0.29494 0.49282 0.85540
 C1501 C 0.28937 -0.03995 0.37086
 C1502 C 0.27830 -0.04650 0.38422
 C1503 C 0.28566 -0.05300 0.39986
 C1504 C 0.30401 -0.05298 0.40231
 C1505 C 0.31458 -0.04609 0.38872
 N1506 N 0.30710 -0.03985 0.37361
 C1507 C 0.28243 -0.03312 0.35385
 N1508 N 0.29237 -0.02162 0.34450
 C1509 C 0.28726 -0.01527 0.32846
 C1510 C 0.27136 -0.02072 0.32071
 C1511 C 0.26090 -0.03259 0.33012
 C1512 C 0.26635 -0.03878 0.34665
 H1513 H 0.27698 -0.05782 0.41014
 H1514 H 0.32879 -0.04596 0.38991
 H1515 H 0.29585 -0.00627 0.32164
 H1516 H 0.24860 -0.03728 0.32462
 H1517 H 0.26411 -0.04637 0.38282
 H1518 H 0.25828 -0.04829 0.35335
 C1519 C -0.03531 -0.04092 -0.11828
 C1520 C -0.02400 -0.04872 -0.13061
 C1521 C -0.03067 -0.05448 -0.14681
 C1522 C -0.04870 -0.05252 -0.15107
 C1523 C -0.05940 -0.04405 -0.13841
 N1524 N -0.05255 -0.03869 -0.12267
 C1525 C -0.02914 -0.03501 -0.10064
 N1526 N -0.03863 -0.02271 -0.09193
 C1527 C -0.03415 -0.01693 -0.07550
 C1528 C -0.01936 -0.02376 -0.06670
 C1529 C -0.00943 -0.03654 -0.07540
 C1530 C -0.01427 -0.04220 -0.09230
 H1531 H -0.02140 -0.05992 -0.15617
 H1532 H -0.07339 -0.04242 -0.14040
 H1533 H -0.04229 -0.00716 -0.06928
 H1534 H 0.00198 -0.04231 -0.06908
 H1535 H -0.01005 -0.05011 -0.12801
 H1536 H -0.00665 -0.05239 -0.09846
 C1537 C -0.03612 0.45980 0.37756
 C1538 C -0.03392 0.44231 0.37318
 C1539 C -0.04041 0.43605 0.35712
 C1540 C -0.04928 0.44707 0.34510
 C1541 C -0.05130 0.46458 0.35026
 N1542 N -0.04483 0.47033 0.36604
 C1543 C -0.02968 0.46690 0.39463
 N1544 N -0.03824 0.48054 0.40219
 C1545 C -0.03338 0.48721 0.41820
 C1546 C -0.01912 0.48005 0.42760
 C1547 C -0.00982 0.46634 0.41973
 C1548 C -0.01499 0.45979 0.40331
 H1549 H -0.03913 0.42231 0.35476
 H1550 H -0.05742 0.47399 0.34161
 H1551 H -0.04087 0.49787 0.42368
 H1552 H 0.00138 0.46047 0.42633
 H1553 H -0.02772 0.43333 0.38229
 H1554 H -0.00749 0.44932 0.39751
 C1555 C 0.46739 -0.04525 0.37870
 C1556 C 0.46678 -0.06311 0.37528
 C1557 C 0.45938 -0.06906 0.35947
 C1558 C 0.45257 -0.05732 0.34697
 C1559 C 0.45331 -0.03957 0.35098
 N1560 N 0.46052 -0.03408 0.36653
 C1561 C 0.47465 -0.03828 0.39549
 N1562 N 0.46844 -0.02292 0.40176
 C1563 C 0.47407 -0.01598 0.41736
 C1564 C 0.48677 -0.02462 0.42768
 C1565 C 0.49369 -0.04025 0.42120
 C1566 C 0.48771 -0.04709 0.40516
 H1567 H 0.45866 -0.08288 0.35721
 H1568 H 0.44833 -0.03004 0.34171
 H1569 H 0.46844 -0.00385 0.42175
 H1570 H 0.50354 -0.04735 0.42864
 H1571 H 0.47151 -0.07246 0.38486
 H1572 H 0.49336 -0.05908 0.40040
 C1573 C 0.45992 0.45940 -0.12256
 C1574 C 0.45178 0.47003 -0.13523
 C1575 C 0.44569 0.46288 -0.15106
 C1576 C 0.44772 0.44506 -0.15464
 C1577 C 0.45672 0.43507 -0.14178
 N1578 N 0.46233 0.44236 -0.12634
 C1579 C 0.46577 0.46614 -0.10511
 N1580 N 0.47855 0.45751 -0.09598
 C1581 C 0.48421 0.46268 -0.07967
 C1582 C 0.47674 0.47729 -0.07150
 C1583 C 0.46346 0.48629 -0.08066
 C1584 C 0.45794 0.48077 -0.09736
 H1585 H 0.43991 0.47161 -0.16067
 H1586 H 0.45852 0.42128 -0.14333
 H1587 H 0.49438 0.45525 -0.07307
 H1588 H 0.45717 0.49753 -0.07486
 H1589 H 0.45028 0.48381 -0.13315
 H1590 H 0.44732 0.48769 -0.10381
 C1591 C 0.46352 0.78760 0.37239
 C1592 C 0.45738 0.77674 0.38602
 C1593 C 0.45138 0.78397 0.40187
 C1594 C 0.45155 0.80199 0.40429
 C1595 C 0.45816 0.81236 0.39048
 N1596 N 0.46388 0.80502 0.37513
 C1597 C 0.46951 0.78070 0.35507
 N1598 N 0.48105 0.79015 0.34516
 C1599 C 0.48670 0.78488 0.32890
 C1600 C 0.48047 0.76932 0.32155
 C1601 C 0.46850 0.75944 0.33152
 C1602 C 0.46301 0.76505 0.34821
 H1603 H 0.44676 0.77547 0.41230
 H1604 H 0.45840 0.82632 0.39169
 H1605 H 0.49582 0.79300 0.32163
 H1606 H 0.46322 0.74742 0.32638
 H1607 H 0.45738 0.76280 0.38462
 H1608 H 0.45341 0.75740 0.35536
 C1609 C -0.03391 0.78745 0.87551
 C1610 C -0.04023 0.77650 0.88898
 C1611 C -0.04748 0.78367 0.90432
 C1612 C -0.04835 0.80171 0.90640
 C1613 C -0.04130 0.81218 0.89291
 N1614 N -0.03444 0.80490 0.87801
 C1615 C -0.02724 0.78064 0.85841
 N1616 N -0.01610 0.79059 0.84856
 C1617 C -0.01035 0.78570 0.83221
 C1618 C -0.01619 0.77010 0.82465
 C1619 C -0.02755 0.75958 0.83466
 C1620 C -0.03307 0.76477 0.85148
 H1621 H -0.05241 0.77512 0.91457
 H1622 H -0.04177 0.82615 0.89390
 H1623 H -0.00170 0.79428 0.82493
 H1624 H -0.03247 0.74748 0.82936
 H1625 H -0.03958 0.76256 0.88779
 H1626 H -0.04234 0.75670 0.85857
 C1627 C 0.37941 0.78865 0.28619
 C1628 C 0.36602 0.79465 0.27485
 C1629 C 0.35068 0.80168 0.28209
 C1630 C 0.34857 0.80270 0.30057
 C1631 C 0.36215 0.79628 0.31142
 N1632 N 0.37697 0.78952 0.30406
 C1633 C 0.39617 0.78147 0.27939
 N1634 N 0.40557 0.77047 0.28990
 C1635 C 0.42146 0.76394 0.28496
 C1636 C 0.42899 0.76871 0.26865
 C1637 C 0.41951 0.78002 0.25759
 C1638 C 0.40314 0.78639 0.26288
 H1639 H 0.34039 0.80615 0.27323
 H1640 H 0.36120 0.79695 0.32573
 H1641 H 0.42835 0.75538 0.29399
 H1642 H 0.42484 0.78415 0.24495
 H1643 H 0.36720 0.79374 0.26057
 H1644 H 0.39638 0.79550 0.25434
 C1645 C -0.12062 0.79134 0.78940
 C1646 C -0.12487 0.79111 0.80753
 C1647 C -0.14072 0.79828 0.81323
 C1648 C -0.15248 0.80569 0.80098
 C1649 C -0.14754 0.80606 0.78300
 N1650 N -0.13195 0.79899 0.77774
 C1651 C -0.10386 0.78389 0.78286
 N1652 N -0.09606 0.79081 0.76821
 C1653 C -0.08025 0.78507 0.76204
 C1654 C -0.07130 0.77159 0.77080
 C1655 C -0.07945 0.76391 0.78556
 C1656 C -0.09568 0.76997 0.79158
 H1657 H -0.14369 0.79819 0.82729
 H1658 H -0.15618 0.81165 0.77311
 H1659 H -0.07454 0.79129 0.75052
 H1660 H -0.07318 0.75340 0.79269
 H1661 H -0.11594 0.78578 0.81731
 H1662 H -0.10171 0.76376 0.80293
 C1663 C 0.87263 0.28745 0.46610
 C1664 C 0.88609 0.27623 0.46050
 C1665 C 0.90218 0.28307 0.45485
 C1666 C 0.90494 0.30106 0.45473
 C1667 C 0.89123 0.31178 0.46077
 N1668 N 0.87571 0.30481 0.46621
 C1669 C 0.85513 0.28113 0.47182
 N1670 N 0.84540 0.29116 0.48297
 C1671 C 0.82887 0.28673 0.48818
 C1672 C 0.82096 0.27151 0.48181
 C1673 C 0.83075 0.26094 0.47030
 C1674 C 0.84782 0.26566 0.46532
 H1675 H 0.91248 0.27428 0.45067
 H1676 H 0.89262 0.32572 0.46073
 H1677 H 0.82179 0.29537 0.49696
 H1678 H 0.82516 0.24913 0.46497
 H1679 H 0.88436 0.26233 0.46067
 H1680 H 0.85491 0.25755 0.45604
 C1681 C 0.86834 0.79078 -0.03910
 C1682 C 0.87146 0.80867 -0.03961
 C1683 C 0.88759 0.81484 -0.04567
 C1684 C 0.90077 0.80329 -0.05121
 C1685 C 0.89698 0.78547 -0.05091
 N1686 N 0.88106 0.77974 -0.04496
 C1687 C 0.85138 0.78383 -0.03258
 N1688 N 0.84464 0.76911 -0.03986
 C1689 C 0.82871 0.76257 -0.03491
 C1690 C 0.81860 0.77098 -0.02187
 C1691 C 0.82564 0.78586 -0.01383
 C1692 C 0.84195 0.79228 -0.01912
 H1693 H 0.88967 0.82870 -0.04622
 H1694 H 0.90673 0.77610 -0.05506
 H1695 H 0.82388 0.75099 -0.04135
 H1696 H 0.81843 0.79276 -0.00365
 H1697 H 0.86144 0.81788 -0.03566
 H1698 H 0.84711 0.80373 -0.01268
 C1699 C -0.12165 -0.04377 -0.03348
 C1700 C -0.12560 -0.06153 -0.03334
 C1701 C -0.14139 -0.06733 -0.04070
 C1702 C -0.15335 -0.05555 -0.04822
 C1703 C -0.14890 -0.03788 -0.04808
 N1704 N -0.13336 -0.03254 -0.04092
 C1705 C -0.10475 -0.03708 -0.02646
 N1706 N -0.09777 -0.02238 -0.03355
 C1707 C -0.08199 -0.01584 -0.02817
 C1708 C -0.07224 -0.02421 -0.01481
 C1709 C -0.07944 -0.03915 -0.00703
 C1710 C -0.09563 -0.04558 -0.01277
 H1711 H -0.14398 -0.08112 -0.04094
 H1712 H -0.15776 -0.02831 -0.05360
 H1713 H -0.07703 -0.00422 -0.03446
 H1714 H -0.07248 -0.04603 0.00336
 H1715 H -0.11640 -0.07096 -0.02813
 H1716 H -0.10094 -0.05702 -0.00644
 C1717 C -0.12537 0.46775 0.46836
 C1718 C -0.13755 0.45920 0.47926
 C1719 C -0.15317 0.45284 0.47195
 C1720 C -0.15694 0.45496 0.45370
 C1721 C -0.14461 0.46444 0.44355
 N1722 N -0.12943 0.47029 0.45098
 C1723 C -0.10798 0.47369 0.47488
 N1724 N -0.09917 0.48590 0.46534
 C1725 C -0.08263 0.49120 0.46962
 C1726 C -0.07375 0.48382 0.48413
 C1727 C -0.08263 0.47131 0.49428
 C1728 C -0.09969 0.46621 0.48971
 H1729 H -0.16238 0.44664 0.48086
 H1730 H -0.14625 0.46633 0.42943
 H1731 H -0.07633 0.50086 0.46137
 H1732 H -0.07628 0.46518 0.50553
 H1733 H -0.13521 0.45750 0.49332
 H1734 H -0.10593 0.45608 0.49737
 C1735 C 0.38305 -0.03813 0.46250
 C1736 C 0.36973 -0.04350 0.47422
 C1737 C 0.35392 -0.04995 0.46745
 C1738 C 0.35123 -0.05101 0.44904
 C1739 C 0.36465 -0.04496 0.43780
 N1740 N 0.37999 -0.03882 0.44470
 C1741 C 0.40043 -0.03198 0.46888
 N1742 N 0.41018 -0.02140 0.45827
 C1743 C 0.42652 -0.01575 0.46293
 C1744 C 0.43414 -0.02101 0.47907
 C1745 C 0.42434 -0.03200 0.49017
 C1746 C 0.40755 -0.03749 0.48515
 H1747 H 0.34376 -0.05406 0.47663
 H1748 H 0.36321 -0.04561 0.42352
 H1749 H 0.43364 -0.00742 0.45388
 H1750 H 0.42969 -0.03649 0.50268
 H1751 H 0.37137 -0.04265 0.48846
 H1752 H 0.40052 -0.04633 0.49375
 C1753 C 0.37580 0.45816 -0.03447
 C1754 C 0.37072 0.44097 -0.03149
 C1755 C 0.35478 0.43496 -0.03829
 C1756 C 0.34363 0.44592 -0.04828
 C1757 C 0.34945 0.46311 -0.05099
 N1758 N 0.36507 0.46862 -0.04418
 C1759 C 0.39286 0.46500 -0.02799
 N1760 N 0.40056 0.47842 -0.03678
 C1761 C 0.41651 0.48496 -0.03198
 C1762 C 0.42575 0.47788 -0.01752
 C1763 C 0.41781 0.46433 -0.00799
 C1764 C 0.40141 0.45793 -0.01312
 H1765 H 0.35184 0.42139 -0.03639
 H1766 H 0.34145 0.47247 -0.05799
 H1767 H 0.42205 0.49548 -0.03966
 H1768 H 0.42433 0.45852 0.00334
 H1769 H 0.37917 0.43197 -0.02450
 H1770 H 0.39554 0.44762 -0.00540
 C1771 C 0.37086 0.45803 0.78339
 C1772 C 0.37363 0.44008 0.78382
 C1773 C 0.38912 0.43352 0.79108
 C1774 C 0.40203 0.44474 0.79786
 C1775 C 0.39869 0.46265 0.79731
 N1776 N 0.38336 0.46875 0.79028
 C1777 C 0.35429 0.46536 0.77632
 N1778 N 0.34740 0.47989 0.78383
 C1779 C 0.33157 0.48654 0.77871
 C1780 C 0.32166 0.47837 0.76534
 C1781 C 0.32893 0.46377 0.75699
 C1782 C 0.34518 0.45727 0.76240
 H1783 H 0.39078 0.41961 0.79174
 H1784 H 0.40828 0.47179 0.80232
 H1785 H 0.32657 0.49792 0.78540
 H1786 H 0.32188 0.45708 0.74653
 H1787 H 0.36372 0.43112 0.77907
 H1788 H 0.35047 0.44596 0.75581
 C1789 C 0.37388 -0.03872 0.28813
 C1790 C 0.38730 -0.02814 0.29501
 C1791 C 0.40286 -0.03566 0.30120
 C1792 C 0.40518 -0.05369 0.30052
 C1793 C 0.39156 -0.06376 0.29325
 N1794 N 0.37651 -0.05614 0.28733
 C1795 C 0.35694 -0.03160 0.28165
 N1796 N 0.34743 -0.04091 0.26966
 C1797 C 0.33148 -0.03557 0.26352
 C1798 C 0.32400 -0.02007 0.26972
 C1799 C 0.33356 -0.01028 0.28214
 C1800 C 0.34998 -0.01596 0.28811
 H1801 H 0.41317 -0.02735 0.30632
 H1802 H 0.39268 -0.07771 0.29259
 H1803 H 0.32454 -0.04364 0.25408
 H1804 H 0.32826 0.00168 0.28741
 H1805 H 0.38599 -0.01420 0.29539
 H1806 H 0.35683 -0.00841 0.29804
 C1807 C 0.12715 0.53861 0.71452
 C1808 C 0.11340 0.52790 0.70858
 C1809 C 0.09791 0.53533 0.70213
 C1810 C 0.09597 0.55340 0.70163
 C1811 C 0.10978 0.56363 0.70829
 N1812 N 0.12481 0.55609 0.71441
 C1813 C 0.14426 0.53148 0.72057
 N1814 N 0.15442 0.54100 0.73183
 C1815 C 0.17060 0.53561 0.73735
 C1816 C 0.17759 0.51987 0.73121
 C1817 C 0.16733 0.50988 0.71956
 C1818 C 0.15072 0.51561 0.71423
 H1819 H 0.08743 0.52693 0.69755
 H1820 H 0.10888 0.57761 0.70813
 H1821 H 0.17810 0.54381 0.74621
 H1822 H 0.17222 0.49772 0.71437
 H1823 H 0.11447 0.51394 0.70898
 H1824 H 0.14336 0.50789 0.70482
 C1825 C 0.12930 0.03555 0.21413
 C1826 C 0.11563 0.02464 0.20837
 C1827 C 0.09967 0.03185 0.20282
 C1828 C 0.09726 0.04988 0.20299
 C1829 C 0.11120 0.06027 0.20910
 N1830 N 0.12658 0.05295 0.21444
 C1831 C 0.14664 0.02885 0.21989
 N1832 N 0.15655 0.03866 0.23110
 C1833 C 0.17296 0.03389 0.23638
 C1834 C 0.18053 0.01851 0.23002
 C1835 C 0.17055 0.00816 0.21846
 C1836 C 0.15361 0.01324 0.21340
 H1837 H 0.08917 0.02333 0.19854
 H1838 H 0.11006 0.07424 0.20926
 H1839 H 0.18020 0.04236 0.24521
 H1840 H 0.17589 -0.00377 0.21316
 H1841 H 0.11709 0.01070 0.20837
 H1842 H 0.14638 0.00530 0.20408
 C1843 C 0.62180 0.70790 0.21419
 C1844 C 0.62544 0.69010 0.21472
 C1845 C 0.64090 0.68385 0.20715
 C1846 C 0.65289 0.69523 0.19907
 C1847 C 0.64866 0.71294 0.19862
 N1848 N 0.63340 0.71874 0.20602
 C1849 C 0.60523 0.71494 0.22155
 N1850 N 0.59783 0.72917 0.21390
 C1851 C 0.58205 0.73564 0.21929
 C1852 C 0.57267 0.72759 0.23311
 C1853 C 0.58044 0.71332 0.24162
 C1854 C 0.59667 0.70701 0.23593
 H1855 H 0.64328 0.67003 0.20731
 H1856 H 0.65752 0.72219 0.19257
 H1857 H 0.57666 0.74678 0.21245
 H1858 H 0.57381 0.70676 0.25242
 H1859 H 0.61624 0.68097 0.22045
 H1860 H 0.60238 0.69598 0.24269
 C1861 C 0.12214 0.71246 0.71463
 C1862 C 0.13588 0.72338 0.70910
 C1863 C 0.15158 0.71617 0.70295
 C1864 C 0.15372 0.69812 0.70231
 C1865 C 0.13988 0.68768 0.70851
 N1866 N 0.12466 0.69501 0.71439
 C1867 C 0.10493 0.71936 0.72058
 N1868 N 0.09490 0.70970 0.73181
 C1869 C 0.07871 0.71493 0.73739
 C1870 C 0.07158 0.73067 0.73139
 C1871 C 0.08166 0.74078 0.71971
 C1872 C 0.09830 0.73521 0.71430
 H1873 H 0.16208 0.72473 0.69873
 H1874 H 0.14090 0.67371 0.70820
 H1875 H 0.07134 0.70662 0.74626
 H1876 H 0.07666 0.75295 0.71463
 H1877 H 0.13465 0.73732 0.70963
 H1878 H 0.10559 0.74304 0.70494
 C1879 C 0.62708 0.21699 0.53931
 C1880 C 0.62328 0.21546 0.55748
 C1881 C 0.60752 0.20785 0.56284
 C1882 C 0.59540 0.20175 0.55020
 C1883 C 0.59972 0.20349 0.53215
 N1884 N 0.61526 0.21086 0.52724
 C1885 C 0.64397 0.22431 0.53301
 N1886 N 0.65083 0.21865 0.51736
 C1887 C 0.66665 0.22426 0.51114
 C1888 C 0.67660 0.23633 0.52087
 C1889 C 0.66949 0.24271 0.53679
 C1890 C 0.65323 0.23677 0.54287
 H1891 H 0.60504 0.20633 0.57691
 H1892 H 0.59075 0.19907 0.52194
 H1893 H 0.67153 0.21909 0.49873
 H1894 H 0.67661 0.25208 0.54472
 H1895 H 0.63259 0.21959 0.56751
 H1896 H 0.64801 0.24196 0.55512
 C1897 C 0.62560 0.70933 0.03255
 C1898 C 0.61193 0.70445 0.02102
 C1899 C 0.59607 0.69839 0.02803
 C1900 C 0.59374 0.69716 0.04648
 C1901 C 0.60762 0.70253 0.05753
 N1902 N 0.62295 0.70839 0.05039
 C1903 C 0.64283 0.71552 0.02593
 N1904 N 0.65259 0.72620 0.03641
 C1905 C 0.66874 0.73208 0.03150
 C1906 C 0.67614 0.72699 0.01523
 C1907 C 0.66636 0.71586 0.00427
 C1908 C 0.64972 0.71014 0.00954
 H1909 H 0.58559 0.69477 0.01900
 H1910 H 0.60652 0.70166 0.07182
 H1911 H 0.67587 0.74049 0.04047
 H1912 H 0.67159 0.71150 -0.00833
 H1913 H 0.61331 0.70550 0.00677
 H1914 H 0.64262 0.70125 0.00105
 C1915 C 0.12216 0.03465 0.03860
 C1916 C 0.13503 0.02415 0.04652
 C1917 C 0.15087 0.03147 0.05222
 C1918 C 0.15420 0.04934 0.05003
 C1919 C 0.14102 0.05920 0.04142
 N1920 N 0.12566 0.05174 0.03616
 C1921 C 0.10475 0.02788 0.03303
 N1922 N 0.09530 0.03684 0.02069
 C1923 C 0.07886 0.03197 0.01551
 C1924 C 0.07080 0.01738 0.02312
 C1925 C 0.08033 0.00791 0.03584
 C1926 C 0.09723 0.01309 0.04082
 H1927 H 0.16064 0.02285 0.05779
 H1928 H 0.14228 0.07302 0.03964
 H1929 H 0.07201 0.03973 0.00573
 H1930 H 0.07463 -0.00337 0.04217
 H1931 H 0.13311 0.01037 0.04811
 H1932 H 0.10399 0.00587 0.05107
 C1933 C 0.12007 0.54459 0.53466
 C1934 C 0.12355 0.56245 0.53485
 C1935 C 0.13944 0.56847 0.54178
 C1936 C 0.15197 0.55680 0.54850
 C1937 C 0.14795 0.53903 0.54809
 N1938 N 0.13230 0.53348 0.54138
 C1939 C 0.10316 0.53766 0.52798
 N1940 N 0.09663 0.52276 0.53508
 C1941 C 0.08085 0.51601 0.53001
 C1942 C 0.07063 0.52437 0.51701
 C1943 C 0.07739 0.53949 0.50920
 C1944 C 0.09359 0.54614 0.51461
 H1945 H 0.14171 0.58230 0.54226
 H1946 H 0.15726 0.52955 0.55300
 H1947 H 0.07623 0.50426 0.53631
 H1948 H 0.07005 0.54638 0.49908
 H1949 H 0.11392 0.57175 0.53021
 H1950 H 0.09855 0.55774 0.50830
 C1951 C 0.62807 0.03681 0.53464
 C1952 C 0.64070 0.02690 0.54366
 C1953 C 0.65601 0.03480 0.54997
 C1954 C 0.65905 0.05265 0.54729
 C1955 C 0.64614 0.06189 0.53761
 N1956 N 0.63129 0.05389 0.53178
 C1957 C 0.61115 0.02946 0.52838
 N1958 N 0.60214 0.03792 0.51536
 C1959 C 0.58603 0.03264 0.50960
 C1960 C 0.57785 0.01816 0.51731
 C1961 C 0.58698 0.00915 0.53065
 C1962 C 0.60357 0.01473 0.53622
 H1963 H 0.66566 0.02663 0.55643
 H1964 H 0.64715 0.07568 0.53544
 H1965 H 0.57948 0.04005 0.49934
 H1966 H 0.58117 -0.00202 0.53708
 H1967 H 0.63902 0.01313 0.54566
 H1968 H 0.60997 0.00790 0.54697
 C1969 C 0.62062 0.53825 0.03176
 C1970 C 0.63380 0.54435 0.02026
 C1971 C 0.64947 0.55091 0.02732
 C1972 C 0.65210 0.55140 0.04577
 C1973 C 0.63868 0.54492 0.05675
 N1974 N 0.62356 0.53860 0.04958
 C1975 C 0.60356 0.53146 0.02521
 N1976 N 0.59430 0.52041 0.03575
 C1977 C 0.57814 0.51426 0.03118
 C1978 C 0.57013 0.51951 0.01524
 C1979 C 0.57948 0.53083 0.00409
 C1980 C 0.59616 0.53680 0.00900
 H1981 H 0.65961 0.55542 0.01832
 H1982 H 0.64001 0.54519 0.07105
 H1983 H 0.57141 0.50566 0.04027
 H1984 H 0.57379 0.53532 -0.00827
 H1985 H 0.63223 0.54387 0.00600
 H1986 H 0.60283 0.54594 0.00044
 C1987 C 0.03338 0.04001 0.12728
 C1988 C 0.03116 0.05746 0.13183
 C1989 C 0.03868 0.06383 0.14741
 C1990 C 0.04862 0.05295 0.15870
 C1991 C 0.05034 0.03543 0.15352
 N1992 N 0.04290 0.02960 0.13823
 C1993 C 0.02648 0.03283 0.11043
 N1994 N 0.03477 0.01898 0.10298
 C1995 C 0.02974 0.01221 0.08709
 C1996 C 0.01560 0.01952 0.07764
 C1997 C 0.00651 0.03343 0.08540
 C1998 C 0.01185 0.04006 0.10175
 H1999 H 0.03739 0.07755 0.14987
 H2000 H 0.05712 0.02610 0.16175
 H2001 H 0.03707 0.00140 0.08171
 H2002 H -0.00457 0.03942 0.07872
 H2003 H 0.02428 0.06637 0.12317
 H2004 H 0.00454 0.05072 0.10745
 C2005 C 0.03749 0.54090 0.62173
 C2006 C 0.04282 0.52971 0.63543
 C2007 C 0.04922 0.53659 0.65128
 C2008 C 0.05028 0.55459 0.65362
 C2009 C 0.04437 0.56533 0.63978
 N2010 N 0.03824 0.55832 0.62441
 C2011 C 0.03125 0.53431 0.60439
 N2012 N 0.02023 0.54428 0.59441
 C2013 C 0.01441 0.53925 0.57811
 C2014 C 0.01995 0.52342 0.57083
 C2015 C 0.03140 0.51302 0.58087
 C2016 C 0.03706 0.51838 0.59759
 H2017 H 0.05322 0.52783 0.66177
 H2018 H 0.04503 0.57927 0.64096
 H2019 H 0.00573 0.54778 0.57077
 H2020 H 0.03612 0.50076 0.57577
 H2021 H 0.04190 0.51580 0.63408
 H2022 H 0.04625 0.51031 0.60481
 C2023 C 0.53744 0.03786 0.62308
 C2024 C 0.52606 0.04587 0.63521
 C2025 C 0.53271 0.05218 0.65123
 C2026 C 0.55078 0.05055 0.65549
 C2027 C 0.56151 0.04177 0.64308
 N2028 N 0.55470 0.03590 0.62751
 C2029 C 0.53136 0.03163 0.60549
 N2030 N 0.54103 0.01936 0.59692
 C2031 C 0.53678 0.01352 0.58043
 C2032 C 0.52211 0.02030 0.57138
 C2033 C 0.51194 0.03296 0.57999
 C2034 C 0.51650 0.03865 0.59696
 H2035 H 0.52342 0.05783 0.66043
 H2036 H 0.57553 0.04032 0.64510
 H2037 H 0.54508 0.00382 0.57431
 H2038 H 0.50059 0.03867 0.57351
 H2039 H 0.51210 0.04709 0.63259
 H2040 H 0.50874 0.04880 0.60299
 C2041 C 0.53547 0.54055 0.12093
 C2042 C 0.53639 0.55839 0.12435
 C2043 C 0.54351 0.56420 0.14033
 C2044 C 0.54970 0.55234 0.15301
 C2045 C 0.54865 0.53459 0.14901
 N2046 N 0.54175 0.52923 0.13327
 C2047 C 0.52844 0.53385 0.10396
 N2048 N 0.53499 0.51882 0.09719
 C2049 C 0.52960 0.51235 0.08128
 C2050 C 0.51684 0.52115 0.07119
 C2051 C 0.50955 0.53638 0.07824
 C2052 C 0.51528 0.54274 0.09455
 H2053 H 0.54452 0.57801 0.14256
 H2054 H 0.55316 0.52496 0.15842
 H2055 H 0.53549 0.50049 0.07645
 H2056 H 0.49961 0.54360 0.07102
 H2057 H 0.53211 0.56782 0.11463
 H2058 H 0.50939 0.55446 0.09972
 C2059 C 0.21045 0.53843 0.62740
 C2060 C 0.20401 0.52786 0.61369
 C2061 C 0.19797 0.53543 0.59799
 C2062 C 0.19834 0.55349 0.59585
 C2063 C 0.20523 0.56355 0.60975
 N2064 N 0.21101 0.55588 0.62492
 C2065 C 0.21667 0.53123 0.64449
 N2066 N 0.22848 0.54049 0.65424
 C2067 C 0.23439 0.53505 0.67034
 C2068 C 0.22815 0.51951 0.67772
 C2069 C 0.21591 0.50978 0.66792
 C2070 C 0.21016 0.51556 0.65134
 H2071 H 0.19315 0.52714 0.58747
 H2072 H 0.20564 0.57752 0.60878
 H2073 H 0.24371 0.54306 0.67748
 H2074 H 0.21063 0.49778 0.67312
 H2075 H 0.20383 0.51391 0.61489
 H2076 H 0.20037 0.50806 0.64428
 C2077 C 0.21801 0.03591 0.12455
 C2078 C 0.21274 0.02501 0.11061
 C2079 C 0.20543 0.03218 0.09528
 C2080 C 0.20338 0.05019 0.09371
 C2081 C 0.20943 0.06066 0.10769
 N2082 N 0.21642 0.05336 0.12255
 C2083 C 0.22477 0.02902 0.14160
 N2084 N 0.23534 0.03922 0.15181
 C2085 C 0.24111 0.03423 0.16812
 C2086 C 0.23588 0.01824 0.17530
 C2087 C 0.22509 0.00747 0.16494
 C2088 C 0.21956 0.01277 0.14812
 H2089 H 0.20134 0.02364 0.08465
 H2090 H 0.20805 0.07459 0.10712
 H2091 H 0.24931 0.04302 0.17568
 H2092 H 0.22064 -0.00492 0.16996
 H2093 H 0.21426 0.01110 0.11145
 H2094 H 0.21074 0.00447 0.14070
 C2095 C 0.71229 0.21634 0.62299
 C2096 C 0.70639 0.22720 0.63672
 C2097 C 0.70054 0.21994 0.65263
 C2098 C 0.70061 0.20191 0.65500
 C2099 C 0.70698 0.19155 0.64109
 N2100 N 0.71255 0.19891 0.62569
 C2101 C 0.71818 0.22323 0.60563
 N2102 N 0.72938 0.21358 0.59556
 C2103 C 0.73493 0.21876 0.57924
 C2104 C 0.72895 0.23447 0.57199
 C2105 C 0.71733 0.24458 0.58212
 C2106 C 0.71194 0.23904 0.59889
 H2107 H 0.69610 0.22844 0.66314
 H2108 H 0.70713 0.17758 0.64225
 H2109 H 0.74377 0.21046 0.57186
 H2110 H 0.71224 0.25672 0.57705
 H2111 H 0.70647 0.24114 0.63536
 H2112 H 0.70260 0.24687 0.60617
 C2113 C 0.70989 0.70638 0.11678
 C2114 C 0.70959 0.68853 0.12024
 C2115 C 0.70318 0.68254 0.13643
 C2116 C 0.69708 0.69424 0.14930
 C2117 C 0.69719 0.71198 0.14515
 N2118 N 0.70349 0.71753 0.12922
 C2119 C 0.71669 0.71328 0.09980
 N2120 N 0.70989 0.72826 0.09316
 C2121 C 0.71524 0.73501 0.07737
 C2122 C 0.72824 0.72659 0.06728
 C2123 C 0.73574 0.71137 0.07416
 C2124 C 0.73004 0.70471 0.09036
 H2125 H 0.70282 0.66872 0.13879
 H2126 H 0.69260 0.72145 0.15466
 H2127 H 0.70917 0.74684 0.07265
 H2128 H 0.74585 0.70444 0.06693
 H2129 H 0.71393 0.67922 0.11045
 H2130 H 0.73614 0.69305 0.09543
 C2131 C 0.53512 0.70726 0.12736
 C2132 C 0.53496 0.68950 0.12345
 C2133 C 0.54132 0.68373 0.10716
 C2134 C 0.54786 0.69556 0.09463
 C2135 C 0.54799 0.71322 0.09914
 N2136 N 0.54177 0.71854 0.11518
 C2137 C 0.52874 0.71385 0.14463
 N2138 N 0.53618 0.72831 0.15175
 C2139 C 0.53139 0.73456 0.16794
 C2140 C 0.51838 0.72609 0.17799
 C2141 C 0.51019 0.71147 0.17059
 C2142 C 0.51529 0.70535 0.15398
 H2143 H 0.54146 0.66995 0.10455
 H2144 H 0.55285 0.72281 0.08988
 H2145 H 0.53795 0.74597 0.17304
 H2146 H 0.49999 0.70456 0.17772
 H2147 H 0.53039 0.68006 0.13301
 H2148 H 0.50869 0.69412 0.14855
 C2149 C 0.03900 0.70951 0.63090
 C2150 C 0.03963 0.69157 0.62803
 C2151 C 0.04686 0.68517 0.61237
 C2152 C 0.05344 0.69652 0.59941
 C2153 C 0.05280 0.71440 0.60291
 N2154 N 0.04576 0.72035 0.61837
 C2155 C 0.03163 0.71675 0.64749
 N2156 N 0.03842 0.73166 0.65427
 C2157 C 0.03276 0.73849 0.66992
 C2158 C 0.01948 0.73017 0.67974
 C2159 C 0.01193 0.71508 0.67264
 C2160 C 0.01793 0.70837 0.65658
 H2161 H 0.04757 0.67128 0.61058
 H2162 H 0.05767 0.72364 0.59330
 H2163 H 0.03887 0.75022 0.67481
 H2164 H 0.00159 0.70823 0.67963
 H2165 H 0.03500 0.68251 0.63794
 H2166 H 0.01185 0.69675 0.65138
 C2167 C 0.53874 0.62658 0.21734
 C2168 C 0.55692 0.62324 0.21722
 C2169 C 0.56322 0.60791 0.20985
 C2170 C 0.55149 0.59573 0.20262
 C2171 C 0.53337 0.59957 0.20302
 N2172 N 0.52755 0.61472 0.21014
 C2173 C 0.53163 0.64307 0.22431
 N2174 N 0.51693 0.65006 0.21678
 C2175 C 0.51042 0.66574 0.22181
 C2176 C 0.51891 0.67540 0.23511
 C2177 C 0.53368 0.66805 0.24350
 C2178 C 0.54003 0.65195 0.23817
 H2179 H 0.57732 0.60583 0.20938
 H2180 H 0.52381 0.59054 0.19774
 H2181 H 0.49892 0.67081 0.21507
 H2182 H 0.54063 0.67491 0.25391
 H2183 H 0.56629 0.63261 0.22224
 H2184 H 0.55146 0.64661 0.24481
 C2185 C 0.03556 0.63102 0.71407
 C2186 C 0.02426 0.61793 0.70790
 C2187 C 0.03139 0.60252 0.70146
 C2188 C 0.04972 0.60003 0.70117
 C2189 C 0.06051 0.61325 0.70793
 N2190 N 0.05327 0.62817 0.71408
 C2191 C 0.02886 0.64790 0.72044
 N2192 N 0.03893 0.65727 0.73190
 C2193 C 0.03406 0.67320 0.73777
 C2194 C 0.01828 0.68077 0.73184
 C2195 C 0.00769 0.67134 0.72000
 C2196 C 0.01291 0.65494 0.71430
 H2197 H 0.02254 0.59250 0.69679
 H2198 H 0.07471 0.61195 0.70788
 H2199 H 0.04273 0.68004 0.74677
 H2200 H -0.00451 0.67671 0.71495
 H2201 H 0.01009 0.61943 0.70818
 H2202 H 0.00476 0.64817 0.70477
 C2203 C 0.03458 0.11833 0.04138
 C2204 C 0.03574 0.12112 0.05973
 C2205 C 0.04319 0.13636 0.06608
 C2206 C 0.04942 0.14901 0.05424
 C2207 C 0.04835 0.14555 0.03594
 N2208 N 0.04112 0.13047 0.03005
 C2209 C 0.02695 0.10214 0.03432
 N2210 N 0.03394 0.09482 0.01947
 C2211 C 0.02832 0.07925 0.01319
 C2212 C 0.01497 0.07007 0.02209
 C2213 C 0.00709 0.07783 0.03694
 C2214 C 0.01301 0.09381 0.04306
 H2215 H 0.04427 0.13812 0.08029
 H2216 H 0.05298 0.15492 0.02633
 H2217 H 0.03465 0.07384 0.00158
 H2218 H -0.00332 0.07136 0.04420
 H2219 H 0.03128 0.11148 0.06915
 H2220 H 0.00685 0.09947 0.05465
 C2221 C 0.03971 0.62004 0.53899
 C2222 C 0.04015 0.62282 0.55739
 C2223 C 0.04738 0.63804 0.56407
 C2224 C 0.05416 0.65066 0.55253
 C2225 C 0.05386 0.64720 0.53419
 N2226 N 0.04677 0.63217 0.52797
 C2227 C 0.03193 0.60406 0.53154
 N2228 N 0.03901 0.59676 0.51671
 C2229 C 0.03294 0.58154 0.50991
 C2230 C 0.01896 0.57274 0.51821
 C2231 C 0.01112 0.58045 0.53313
 C2232 C 0.01752 0.59603 0.53978
 H2233 H 0.04785 0.63980 0.57832
 H2234 H 0.05895 0.65654 0.52479
 H2235 H 0.03933 0.57614 0.49833
 H2236 H 0.00024 0.57429 0.53995
 H2237 H 0.03523 0.61320 0.56660
 H2238 H 0.01125 0.60168 0.55130
 C2239 C 0.54097 0.12143 0.53014
 C2240 C 0.55900 0.12539 0.53114
 C2241 C 0.56435 0.14114 0.53838
 C2242 C 0.55183 0.15308 0.54459
 C2243 C 0.53390 0.14866 0.54319
 N2244 N 0.52901 0.13312 0.53626
 C2245 C 0.53478 0.10445 0.52354
 N2246 N 0.51980 0.09744 0.53043
 C2247 C 0.51396 0.08142 0.52573
 C2248 C 0.52344 0.07142 0.51343
 C2249 C 0.53857 0.07871 0.50571
 C2250 C 0.54425 0.09516 0.51070
 H2251 H 0.57832 0.14370 0.53963
 H2252 H 0.52377 0.15750 0.54764
 H2253 H 0.50213 0.07641 0.53190
 H2254 H 0.54628 0.07158 0.49608
 H2255 H 0.56895 0.11621 0.52700
 H2256 H 0.55595 0.10048 0.50458
 C2257 C 0.53272 0.62165 0.03056
 C2258 C 0.53897 0.63475 0.01926
 C2259 C 0.54558 0.65006 0.02656
 C2260 C 0.54598 0.65237 0.04506
 C2261 C 0.53925 0.63907 0.05582
 N2262 N 0.53291 0.62432 0.04841
 C2263 C 0.52612 0.60487 0.02383
 N2264 N 0.51487 0.59561 0.03419
 C2265 C 0.50911 0.57957 0.02964
 C2266 C 0.51505 0.57168 0.01395
 C2267 C 0.52654 0.58107 0.00294
 C2268 C 0.53206 0.59766 0.00780
 H2269 H 0.55029 0.66011 0.01773
 H2270 H 0.53947 0.64015 0.07014
 H2271 H 0.50034 0.57281 0.03861
 H2272 H 0.53154 0.57547 -0.00923
 H2273 H 0.53862 0.63334 0.00498
 H2274 H 0.54139 0.60438 -0.00059
 C2275 C 0.71233 0.13333 0.53289
 C2276 C 0.70429 0.12122 0.52165
 C2277 C 0.69906 0.10520 0.52840
 C2278 C 0.70182 0.10094 0.54644
 C2279 C 0.71047 0.11343 0.55703
 N2280 N 0.71530 0.12896 0.55011
 C2281 C 0.71773 0.15076 0.52675
 N2282 N 0.73018 0.15948 0.53620
 C2283 C 0.73546 0.17575 0.53188
 C2284 C 0.72791 0.18438 0.51731
 C2285 C 0.71497 0.17566 0.50741
 C2286 C 0.70985 0.15891 0.51207
 H2287 H 0.69344 0.09603 0.51916
 H2288 H 0.71264 0.11144 0.57106
 H2289 H 0.74539 0.18198 0.53999
 H2290 H 0.70868 0.18183 0.49615
 H2291 H 0.70230 0.12387 0.50769
 H2292 H 0.69951 0.15271 0.50450
 C2293 C 0.71302 0.62830 0.03307
 C2294 C 0.72440 0.61512 0.03891
 C2295 C 0.71736 0.59970 0.04549
 C2296 C 0.69903 0.59729 0.04626
 C2297 C 0.68815 0.61068 0.03995
 N2298 N 0.69530 0.62558 0.03363
 C2299 C 0.71964 0.64514 0.02642
 N2300 N 0.70930 0.65458 0.01523
 C2301 C 0.71409 0.67048 0.00916
 C2302 C 0.73005 0.67799 0.01464
 C2303 C 0.74093 0.66848 0.02617
 C2304 C 0.73581 0.65209 0.03205
 H2305 H 0.72628 0.58959 0.04982
 H2306 H 0.67395 0.60950 0.04042
 H2307 H 0.70519 0.67739 0.00043
 H2308 H 0.75329 0.67378 0.03087
 H2309 H 0.73856 0.61653 0.03822
 H2310 H 0.74419 0.64529 0.04134
 C2311 C 0.21396 0.62018 0.71434
 C2312 C 0.22540 0.63343 0.70883
 C2313 C 0.21844 0.64905 0.70270
 C2314 C 0.20013 0.65158 0.70205
 C2315 C 0.18917 0.63820 0.70819
 N2316 N 0.19626 0.62307 0.71405
 C2317 C 0.22053 0.60309 0.72026
 N2318 N 0.21038 0.59342 0.73138
 C2319 C 0.21519 0.57731 0.73683
 C2320 C 0.23096 0.56986 0.73076
 C2321 C 0.24160 0.57959 0.71923
 C2322 C 0.23647 0.59616 0.71398
 H2323 H 0.22741 0.65917 0.69854
 H2324 H 0.17498 0.63953 0.70786
 H2325 H 0.20648 0.57023 0.74560
 H2326 H 0.25381 0.57434 0.71410
 H2327 H 0.23956 0.63187 0.70938
 H2328 H 0.24466 0.60318 0.70470
 C2329 C 0.21739 0.12123 0.21288
 C2330 C 0.22816 0.13450 0.20620
 C2331 C 0.22046 0.14974 0.19986
 C2332 C 0.20207 0.15183 0.20017
 C2333 C 0.19183 0.13837 0.20730
 N2334 N 0.19963 0.12368 0.21337
 C2335 C 0.22458 0.10454 0.21931
 N2336 N 0.21483 0.09508 0.23096
 C2337 C 0.21991 0.07917 0.23672
 C2338 C 0.23555 0.07164 0.23039
 C2339 C 0.24589 0.08122 0.21845
 C2340 C 0.24049 0.09765 0.21292
 H2341 H 0.22890 0.15992 0.19484
 H2342 H 0.17761 0.13928 0.20766
 H2343 H 0.21143 0.07226 0.24584
 H2344 H 0.25799 0.07590 0.21313
 H2345 H 0.24236 0.13329 0.20602
 H2346 H 0.24840 0.10451 0.20327
 C2347 C 0.71969 1.12609 0.71484
 C2348 C 0.72990 1.13826 0.70565
 C2349 C 0.72206 1.15339 0.69930
 C2350 C 0.70396 1.15672 0.70208
 C2351 C 0.69447 1.14436 0.71207
 N2352 N 0.70241 1.12964 0.71792
 C2353 C 0.72692 1.10930 0.72103
 N2354 N 0.71823 1.10058 0.73406
 C2355 C 0.72329 1.08461 0.73970
 C2356 C 0.73778 1.07626 0.73184
 C2357 C 0.74707 1.08510 0.71852
 C2358 C 0.74170 1.10156 0.71307
 H2359 H 0.73051 1.16265 0.69272
 H2360 H 0.68050 1.14570 0.71446
 H2361 H 0.71567 1.07831 0.74997
 H2362 H 0.75822 1.07915 0.71196
 H2363 H 0.74385 1.13633 0.70351
 H2364 H 0.74871 1.10774 0.70230
 C2365 C 0.71582 0.62026 0.21127
 C2366 C 0.72694 0.63331 0.20467
 C2367 C 0.71964 0.64877 0.19849
 C2368 C 0.70133 0.65132 0.19892
 C2369 C 0.69076 0.63816 0.20613
 N2370 N 0.69816 0.62320 0.21198
 C2371 C 0.72257 0.60325 0.21719
 N2372 N 0.71273 0.59377 0.22875
 C2373 C 0.71753 0.57765 0.23412
 C2374 C 0.73297 0.56998 0.22750
 C2375 C 0.74331 0.57953 0.21555
 C2376 C 0.73819 0.59613 0.21038
 H2377 H 0.72831 0.65873 0.19338
 H2378 H 0.67657 0.63948 0.20659
 H2379 H 0.70908 0.57074 0.24328
 H2380 H 0.75528 0.57412 0.21002
 H2381 H 0.74110 0.63171 0.20436
 H2382 H 0.74612 0.60298 0.20074
 C2383 C 0.53353 0.12538 0.71618
 C2384 C 0.52300 0.11306 0.70754
 C2385 C 0.53069 0.09808 0.70070
 C2386 C 0.54895 0.09501 0.70250
 C2387 C 0.55882 0.10749 0.71195
 N2388 N 0.55101 0.12208 0.71826
 C2389 C 0.52642 0.14209 0.72270
 N2390 N 0.53584 0.15118 0.73496
 C2391 C 0.53085 0.16714 0.74071
 C2392 C 0.51568 0.17508 0.73376
 C2393 C 0.50565 0.16584 0.72128
 C2394 C 0.51095 0.14943 0.71572
 H2395 H 0.52207 0.08870 0.69451
 H2396 H 0.57292 0.10635 0.71355
 H2397 H 0.53906 0.17378 0.75029
 H2398 H 0.49392 0.17146 0.71544
 H2399 H 0.50892 0.11475 0.70619
 H2400 H 0.50331 0.14301 0.70555
 C2401 C 1.04173 0.12919 0.22076
 C2402 C 1.05982 0.12563 0.21948
 C2403 C 1.06539 0.10997 0.21221
 C2404 C 1.05304 0.09776 0.20622
 C2405 C 1.03505 0.10184 0.20773
 N2406 N 1.02993 0.11726 0.21475
 C2407 C 1.03522 0.14595 0.22765
 N2408 N 1.01964 0.15232 0.22147
 C2409 C 1.01324 0.16798 0.22660
 C2410 C 1.02271 0.17828 0.23868
 C2411 C 1.03854 0.17170 0.24560
 C2412 C 1.04481 0.15558 0.24016
 H2413 H 1.07940 0.10763 0.21088
 H2414 H 1.02506 0.09277 0.20342
 H2415 H 1.00090 0.17246 0.22102
 H2416 H 1.04628 0.17911 0.25499
 H2417 H 1.06964 0.13500 0.22350
 H2418 H 1.05700 0.15077 0.24576
 C2419 C 0.21589 0.63130 0.53734
 C2420 C 0.22686 0.61782 0.54325
 C2421 C 0.21937 0.60243 0.54939
 C2422 C 0.20098 0.60038 0.54965
 C2423 C 0.19052 0.61407 0.54329
 N2424 N 0.19812 0.62892 0.53740
 C2425 C 0.22293 0.64813 0.53118
 N2426 N 0.21296 0.65793 0.51999
 C2427 C 0.21807 0.67389 0.51440
 C2428 C 0.23399 0.68108 0.52042
 C2429 C 0.24450 0.67119 0.53197
 C2430 C 0.23906 0.65475 0.53734
 H2431 H 0.22796 0.59209 0.55380
 H2432 H 0.17629 0.61317 0.54339
 H2433 H 0.20947 0.68109 0.50562
 H2434 H 0.25683 0.67624 0.53705
 H2435 H 0.24107 0.61899 0.54295
 H2436 H 0.24715 0.64762 0.54665
 C2437 C 0.20775 0.13005 1.03512
 C2438 C 0.18971 0.12633 1.03670
 C2439 C 0.18440 0.11045 1.04364
 C2440 C 0.19695 0.09815 1.04901
 C2441 C 0.21488 0.10247 1.04743
 N2442 N 0.21975 0.11811 1.04068
 C2443 C 0.21394 0.14686 1.02806
 N2444 N 0.22944 0.15357 1.03405
 C2445 C 0.23557 0.16924 1.02856
 C2446 C 0.22592 0.17913 1.01626
 C2447 C 0.21015 0.17218 1.00956
 C2448 C 0.20415 0.15611 1.01540
 H2449 H 0.17044 0.10794 1.04510
 H2450 H 0.22503 0.09338 1.05131
 H2451 H 0.24785 0.17402 1.03398
 H2452 H 0.20228 0.17927 1.00001
 H2453 H 0.17976 0.13571 1.03303
 H2454 H 0.19202 0.15100 1.00995
 C2455 C 0.21400 0.71271 0.62437
 C2456 C 0.20827 0.72356 0.63816
 C2457 C 0.20160 0.71629 0.65372
 C2458 C 0.20067 0.69823 0.65566
 C2459 C 0.20699 0.68785 0.64175
 N2460 N 0.21337 0.69524 0.62668
 C2461 C 0.22051 0.71969 0.60730
 N2462 N 0.23179 0.70997 0.59739
 C2463 C 0.23779 0.71527 0.58127
 C2464 C 0.23216 0.73112 0.57407
 C2465 C 0.22049 0.74130 0.58406
 C2466 C 0.21466 0.73567 0.60063
 H2467 H 0.19728 0.72479 0.66428
 H2468 H 0.20644 0.67387 0.64261
 H2469 H 0.24665 0.70692 0.57397
 H2470 H 0.21569 0.75356 0.57901
 H2471 H 0.20906 0.73751 0.63710
 H2472 H 0.20528 0.74355 0.60780
 C2473 C 0.20983 0.21147 1.12054
 C2474 C 0.20375 0.22242 1.13410
 C2475 C 0.19787 0.21529 1.15005
 C2476 C 0.19808 0.19729 1.15263
 C2477 C 0.20460 0.18683 1.13886
 N2478 N 0.21022 0.19408 1.12342
 C2479 C 0.21579 0.21825 1.10316
 N2480 N 0.22727 0.20867 1.09332
 C2481 C 0.23290 0.21378 1.07700
 C2482 C 0.22671 0.22930 1.06951
 C2483 C 0.21481 0.23932 1.07942
 C2484 C 0.20935 0.23388 1.09618
 H2485 H 0.19333 0.22387 1.16046
 H2486 H 0.20489 0.17288 1.14018
 H2487 H 0.24195 0.20555 1.06980
 H2488 H 0.20956 0.25131 1.07415
 H2489 H 0.20373 0.23635 1.13260
 H2490 H 0.19980 0.24162 1.10328
 C2491 C 0.71220 0.53633 0.12434
 C2492 C 0.70625 0.52539 0.11071
 C2493 C 0.69970 0.53257 0.09501
 C2494 C 0.69906 0.55061 0.09279
 C2495 C 0.70551 0.56107 0.10660
 N2496 N 0.71181 0.55378 0.12177
 C2497 C 0.71883 0.52952 0.14148
 N2498 N 0.73022 0.53934 0.15116
 C2499 C 0.73640 0.53427 0.16730
 C2500 C 0.73086 0.51852 0.17480
 C2501 C 0.71907 0.50821 0.16507
 C2502 C 0.71306 0.51362 0.14844
 H2503 H 0.69527 0.52398 0.08456
 H2504 H 0.70516 0.57503 0.10557
 H2505 H 0.74534 0.54273 0.17438
 H2506 H 0.71433 0.49603 0.17036
 H2507 H 0.70682 0.51145 0.11198
 H2508 H 0.70362 0.50565 0.14145
 C2509 C 0.71920 1.04424 0.62605
 C2510 C 0.71824 1.06212 0.62288
 C2511 C 0.71120 1.06815 0.60695
 C2512 C 0.70516 1.05646 0.59403
 C2513 C 0.70634 1.03865 0.59775
 N2514 N 0.71312 1.03307 0.61348
 C2515 C 0.72599 1.03737 0.64305
 N2516 N 0.71903 1.02253 0.64985
 C2517 C 0.72405 1.01607 0.66589
 C2518 C 0.73681 1.02472 0.67611
 C2519 C 0.74456 1.03971 0.66900
 C2520 C 0.73921 1.04605 0.65255
 H2521 H 0.71009 1.08199 0.60495
 H2522 H 0.70197 1.02915 0.58816
 H2523 H 0.71783 1.00439 0.67076
 H2524 H 0.75453 1.04680 0.67630
 H2525 H 0.72238 1.07141 0.63279
 H2526 H 0.74538 1.05763 0.64736
 C2527 C 0.53152 0.20748 0.62614
 C2528 C 0.53261 0.18970 0.62241
 C2529 C 0.53984 0.18423 0.60636
 C2530 C 0.54596 0.19636 0.59392
 C2531 C 0.54443 0.21404 0.59810
 N2532 N 0.53750 0.21906 0.61393
 C2533 C 0.52503 0.21386 0.64344
 N2534 N 0.53165 0.22891 0.65009
 C2535 C 0.52697 0.23511 0.66631
 C2536 C 0.51493 0.22595 0.67692
 C2537 C 0.50753 0.21069 0.67004
 C2538 C 0.51252 0.20463 0.65336
 H2539 H 0.54118 0.17047 0.60397
 H2540 H 0.54879 0.22387 0.58886
 H2541 H 0.53287 0.24702 0.67098
 H2542 H 0.49812 0.20323 0.67766
 H2543 H 0.52857 0.18007 0.63200
 H2544 H 0.50661 0.19286 0.64834
 C2545 C 1.03759 0.20663 0.13343
 C2546 C 1.03526 0.18922 0.12887
 C2547 C 1.04166 0.18312 0.11275
 C2548 C 1.05056 0.19422 0.10084
 C2549 C 1.05288 0.21160 0.10624
 N2550 N 1.04644 0.21722 0.12209
 C2551 C 1.03115 0.21354 0.15056
 N2552 N 1.03965 0.22714 0.15823
 C2553 C 1.03478 0.23365 0.17428
 C2554 C 1.02059 0.22633 0.18363
 C2555 C 1.01138 0.21260 0.17569
 C2556 C 1.01654 0.20624 0.15921
 H2557 H 1.04029 0.16941 0.11022
 H2558 H 1.05919 0.22100 0.09774
 H2559 H 1.04220 0.24433 0.17981
 H2560 H 1.00022 0.20665 0.18226
 H2561 H 1.02904 0.18016 0.13785
 H2562 H 1.00905 0.19580 0.15332
 C2563 C 0.62285 0.21264 0.71556
 C2564 C 0.63596 0.22421 0.70986
 C2565 C 0.65192 0.21779 0.70349
 C2566 C 0.65499 0.19988 0.70284
 C2567 C 0.64180 0.18877 0.70931
 N2568 N 0.62628 0.19533 0.71534
 C2569 C 0.60525 0.21871 0.72138
 N2570 N 0.59559 0.20869 0.73264
 C2571 C 0.57905 0.21314 0.73792
 C2572 C 0.57113 0.22836 0.73150
 C2573 C 0.58086 0.23884 0.71986
 C2574 C 0.59785 0.23410 0.71480
 H2575 H 0.66189 0.22685 0.69907
 H2576 H 0.64358 0.17487 0.70903
 H2577 H 0.57198 0.20458 0.74679
 H2578 H 0.57529 0.25065 0.71449
 H2579 H 0.63401 0.23807 0.71036
 H2580 H 0.60481 0.24217 0.70539
 C2581 C 1.12149 0.20784 0.21598
 C2582 C 1.12508 0.19000 0.21621
 C2583 C 1.14072 0.18384 0.20885
 C2584 C 1.15291 0.19534 0.20127
 C2585 C 1.14875 0.21309 0.20120
 N2586 N 1.13335 0.21879 0.20838
 C2587 C 1.10487 0.21489 0.22327
 N2588 N 1.09778 0.22947 0.21600
 C2589 C 1.08219 0.23623 0.22163
 C2590 C 1.07275 0.22821 0.23542
 C2591 C 1.08012 0.21344 0.24341
 C2592 C 1.09611 0.20679 0.23742
 H2593 H 1.14306 0.17001 0.20876
 H2594 H 1.15778 0.22245 0.19561
 H2595 H 1.07708 0.24769 0.21515
 H2596 H 1.07340 0.20681 0.25412
 H2597 H 1.11573 0.18081 0.22157
 H2598 H 1.10153 0.19545 0.24387
 C2599 C 0.13143 0.71106 0.53802
 C2600 C 0.11821 0.70491 0.52656
 C2601 C 0.10270 0.69811 0.53366
 C2602 C 0.10023 0.69744 0.55212
 C2603 C 0.11364 0.70402 0.56308
 N2604 N 0.12864 0.71056 0.55586
 C2605 C 0.14835 0.71802 0.53134
 N2606 N 0.15758 0.72928 0.54167
 C2607 C 0.17353 0.73572 0.53678
 C2608 C 0.18131 0.73059 0.52070
 C2609 C 0.17202 0.71896 0.50985
 C2610 C 0.15559 0.71268 0.51508
 H2611 H 0.09256 0.69354 0.52469
 H2612 H 0.11241 0.70364 0.57738
 H2613 H 0.18027 0.74453 0.54566
 H2614 H 0.17753 0.71452 0.49740
 H2615 H 0.11965 0.70554 0.51229
 H2616 H 0.14897 0.70335 0.50670
 C2617 C 0.12546 0.20986 1.03663
 C2618 C 0.11173 0.20390 1.02570
 C2619 C 0.09652 0.19708 1.03340
 C2620 C 0.09486 0.19621 1.05194
 C2621 C 0.10877 0.20261 1.06237
 N2622 N 0.12346 0.20917 1.05457
 C2623 C 0.14213 0.21679 1.02931
 N2624 N 0.15185 0.22786 1.03940
 C2625 C 0.16767 0.23419 1.03397
 C2626 C 0.17479 0.22913 1.01756
 C2627 C 0.16497 0.21773 1.00693
 C2628 C 0.14867 0.21156 1.01272
 H2629 H 0.08597 0.19262 1.02485
 H2630 H 0.10818 0.20204 1.07671
 H2631 H 0.17483 0.24283 1.04269
 H2632 H 0.16997 0.21336 0.99424
 H2633 H 0.11256 0.20467 1.01139
 H2634 H 0.14164 0.20239 1.00451
 C2635 C 0.62862 0.53532 0.21285
 C2636 C 0.61525 0.54009 0.22477
 C2637 C 0.59937 0.54662 0.21826
 C2638 C 0.59668 0.54840 0.19990
 C2639 C 0.61017 0.54293 0.18843
 N2640 N 0.62556 0.53667 0.19509
 C2641 C 0.64607 0.52919 0.21900
 N2642 N 0.65580 0.51878 0.20820
 C2643 C 0.67225 0.51325 0.21266
 C2644 C 0.67999 0.51850 0.22872
 C2645 C 0.67020 0.52929 0.24001
 C2646 C 0.65329 0.53462 0.23524
 H2647 H 0.58917 0.55028 0.22759
 H2648 H 0.60874 0.54415 0.17419
 H2649 H 0.67937 0.50507 0.20346
 H2650 H 0.67566 0.53375 0.25249
 H2651 H 0.61694 0.53872 0.23897
 H2652 H 0.64624 0.54331 0.24397
 C2653 C 0.63032 1.04073 0.71499
 C2654 C 0.61685 1.04566 0.72672
 C2655 C 0.60072 1.05135 0.71994
 C2656 C 0.59793 1.05217 0.70152
 C2657 C 0.61163 1.04677 0.69028
 N2658 N 0.62721 1.04127 0.69720
 C2659 C 0.64781 1.03489 0.72130
 N2660 N 0.65755 1.02435 0.71067
 C2661 C 0.67399 1.01891 0.71519
 C2662 C 0.68175 1.02436 0.73118
 C2663 C 0.67197 1.03528 0.74234
 C2664 C 0.65502 1.04054 0.73749
 H2665 H 0.59039 1.05497 0.72912
 H2666 H 0.61015 1.04729 0.67600
 H2667 H 0.68107 1.01060 0.70608
 H2668 H 0.67746 1.03990 0.75474
 H2669 H 0.61858 1.04493 0.74095
 H2670 H 0.64793 1.04932 0.74609
 C2671 C 0.87572 0.46514 0.28218
 C2672 C 0.88904 0.47598 0.28888
 C2673 C 0.90438 0.46868 0.29590
 C2674 C 0.90656 0.45063 0.29619
 C2675 C 0.89309 0.44030 0.28900
 N2676 N 0.87827 0.44770 0.28231
 C2677 C 0.85878 0.47192 0.27532
 N2678 N 0.84918 0.46191 0.26401
 C2679 C 0.83295 0.46664 0.25809
 C2680 C 0.82523 0.48215 0.26392
 C2681 C 0.83499 0.49277 0.27543
 C2682 C 0.85173 0.48774 0.28113
 H2683 H 0.91458 0.47714 0.30098
 H2684 H 0.89410 0.42633 0.28910
 H2685 H 0.82588 0.45798 0.24931
 H2686 H 0.82956 0.50481 0.28035
 H2687 H 0.88777 0.48993 0.28859
 H2688 H 0.85865 0.49587 0.29051
 C2689 C 0.87312 0.96053 0.78793
 C2690 C 0.87638 0.94265 0.78801
 C2691 C 0.89210 0.93638 0.79508
 C2692 C 0.90468 0.94782 0.80209
 C2693 C 0.90079 0.96561 0.80203
 N2694 N 0.88531 0.97143 0.79509
 C2695 C 0.85653 0.96769 0.78067
 N2696 N 0.84978 0.98252 0.78766
 C2697 C 0.83424 0.98941 0.78201
 C2698 C 0.82453 0.98125 0.76849
 C2699 C 0.83156 0.96621 0.76078
 C2700 C 0.84750 0.95944 0.76678
 H2701 H 0.89428 0.92252 0.79531
 H2702 H 0.91012 0.97491 0.80724
 H2703 H 0.82940 1.00108 0.78826
 H2704 H 0.82464 0.95949 0.75026
 H2705 H 0.86677 0.93351 0.78304
 H2706 H 0.85268 0.94791 0.76052
 C2707 C 0.37639 0.28631 0.78435
 C2708 C 0.36302 0.29111 0.77240
 C2709 C 0.34717 0.29772 0.77887
 C2710 C 0.34449 0.29951 0.79721
 C2711 C 0.35803 0.29415 0.80872
 N2712 N 0.37339 0.28780 0.80210
 C2713 C 0.39371 0.27984 0.77823
 N2714 N 0.40338 0.26948 0.78918
 C2715 C 0.41966 0.26353 0.78468
 C2716 C 0.42727 0.26825 0.76838
 C2717 C 0.41754 0.27899 0.75695
 C2718 C 0.40083 0.28478 0.76180
 H2719 H 0.33694 0.30129 0.76952
 H2720 H 0.35661 0.29540 0.82295
 H2721 H 0.42674 0.25541 0.79398
 H2722 H 0.42289 0.28307 0.74430
 H2723 H 0.36464 0.28962 0.75821
 H2724 H 0.39385 0.29343 0.75294
 C2725 C 0.87873 0.28579 0.29044
 C2726 C 0.87482 0.28773 0.30854
 C2727 C 0.85881 0.29503 0.31360
 C2728 C 0.84655 0.30038 0.30074
 C2729 C 0.85106 0.29838 0.28275
 N2730 N 0.86683 0.29131 0.27813
 C2731 C 0.89578 0.27854 0.28451
 N2732 N 0.90295 0.28416 0.26899
 C2733 C 0.91899 0.27866 0.26322
 C2734 C 0.92884 0.26680 0.27334
 C2735 C 0.92136 0.26041 0.28908
 C2736 C 0.90489 0.26621 0.29468
 H2737 H 0.85620 0.29681 0.32761
 H2738 H 0.84200 0.30224 0.27238
 H2739 H 0.92415 0.28383 0.25092
 H2740 H 0.92837 0.25117 0.29729
 H2741 H 0.88418 0.28410 0.31872
 H2742 H 0.89940 0.26107 0.30685
 C2743 C 0.37408 0.79223 0.46677
 C2744 C 0.37750 0.81008 0.46652
 C2745 C 0.39312 0.81617 0.45908
 C2746 C 0.40545 0.80456 0.45191
 C2747 C 0.40144 0.78680 0.45227
 N2748 N 0.38604 0.78117 0.45951
 C2749 C 0.35743 0.78527 0.47406
 N2750 N 0.35047 0.77056 0.46700
 C2751 C 0.33473 0.76400 0.47243
 C2752 C 0.32497 0.77242 0.48572
 C2753 C 0.33226 0.78725 0.49362
 C2754 C 0.34843 0.79368 0.48786
 H2755 H 0.39538 0.83000 0.45865
 H2756 H 0.41058 0.77736 0.44699
 H2757 H 0.32970 0.75245 0.46607
 H2758 H 0.32531 0.79416 0.50397
 H2759 H 0.36805 0.81934 0.47156
 H2760 H 0.35377 0.80513 0.49416
 C2761 C 0.36888 0.28577 0.96125
 C2762 C 0.38252 0.27511 0.95496
 C2763 C 0.39805 0.28261 0.94863
 C2764 C 0.40008 0.30069 0.94855
 C2765 C 0.38624 0.31083 0.95529
 N2766 N 0.37126 0.30323 0.96136
 C2767 C 0.35188 0.27873 0.96765
 N2768 N 0.34211 0.28839 0.97913
 C2769 C 0.32594 0.28333 0.98489
 C2770 C 0.31845 0.26781 0.97876
 C2771 C 0.32832 0.25759 0.96698
 C2772 C 0.34501 0.26296 0.96144
 H2773 H 0.40851 0.27426 0.94394
 H2774 H 0.38709 0.32481 0.95533
 H2775 H 0.31878 0.29170 0.99386
 H2776 H 0.32305 0.24558 0.96182
 H2777 H 0.38137 0.26116 0.95510
 H2778 H 0.35210 0.25512 0.95193
 C2779 C 0.78987 0.46439 0.37022
 C2780 C 0.80785 0.46481 0.37459
 C2781 C 0.81345 0.45842 0.39093
 C2782 C 0.80125 0.45159 0.40306
 C2783 C 0.78341 0.45105 0.39803
 N2784 N 0.77825 0.45734 0.38195
 C2785 C 0.78345 0.47097 0.35293
 N2786 N 0.76902 0.46360 0.34528
 C2787 C 0.76298 0.46856 0.32902
 C2788 C 0.77166 0.48166 0.31945
 C2789 C 0.78620 0.48979 0.32742
 C2790 C 0.79209 0.48453 0.34409
 H2791 H 0.82740 0.45860 0.39395
 H2792 H 0.77355 0.44589 0.40695
 H2793 H 0.75162 0.46203 0.32349
 H2794 H 0.79325 0.50005 0.32068
 H2795 H 0.81759 0.46968 0.36537
 H2796 H 0.80327 0.49108 0.34996
 C2797 C 0.79242 0.96106 0.86913
 C2798 C 0.81049 0.95936 0.87277
 C2799 C 0.81592 0.95209 0.88879
 C2800 C 0.80346 0.94650 0.90130
 C2801 C 0.78550 0.94814 0.89700
 N2802 N 0.78051 0.95524 0.88124
 C2803 C 0.78611 0.96872 0.85227
 N2804 N 0.77056 0.96325 0.84517
 C2805 C 0.76431 0.96944 0.82945
 C2806 C 0.77387 0.98197 0.81995
 C2807 C 0.78969 0.98809 0.82733
 C2808 C 0.79582 0.98154 0.84342
 H2809 H 0.82990 0.95060 0.89124
 H2810 H 0.77542 0.94405 0.90626
 H2811 H 0.75199 0.96442 0.82433
 H2812 H 0.79752 0.99777 0.82056
 H2813 H 0.82037 0.96326 0.86322
 H2814 H 0.80798 0.98658 0.84887
 C2815 C 0.28895 0.79177 0.38055
 C2816 C 0.28977 0.80967 0.37752
 C2817 C 0.29676 0.81584 0.36168
 C2818 C 0.30288 0.80429 0.34868
 C2819 C 0.30209 0.78645 0.35235
 N2820 N 0.29530 0.78072 0.36801
 C2821 C 0.28189 0.78485 0.39737
 N2822 N 0.28906 0.77027 0.40454
 C2823 C 0.28383 0.76394 0.42055
 C2824 C 0.27067 0.77247 0.43035
 C2825 C 0.26268 0.78714 0.42281
 C2826 C 0.26822 0.79333 0.40639
 H2827 H 0.29763 0.82971 0.35974
 H2828 H 0.30663 0.77708 0.34272
 H2829 H 0.29023 0.75248 0.42576
 H2830 H 0.25240 0.79411 0.42976
 H2831 H 0.28545 0.81886 0.38744
 H2832 H 0.26190 0.80469 0.40087
 C2833 C 0.28245 0.28945 0.87537
 C2834 C 0.28289 0.30730 0.87194
 C2835 C 0.29019 0.31333 0.85615
 C2836 C 0.29703 0.30166 0.84364
 C2837 C 0.29651 0.28389 0.84767
 N2838 N 0.28941 0.27832 0.86324
 C2839 C 0.27523 0.28258 0.89218
 N2840 N 0.28219 0.26786 0.89925
 C2841 C 0.27680 0.26140 0.91516
 C2842 C 0.26367 0.26995 0.92497
 C2843 C 0.25589 0.28479 0.91755
 C2844 C 0.26160 0.29111 0.90122
 H2845 H 0.29079 0.32716 0.85391
 H2846 H 0.30156 0.27442 0.83840
 H2847 H 0.28306 0.24984 0.92027
 H2848 H 0.24563 0.29177 0.92451
 H2849 H 0.27809 0.31660 0.88153
 H2850 H 0.25539 0.30256 0.89578
 C2851 C 0.46187 0.29092 0.87024
 C2852 C 0.47284 0.29781 0.88351
 C2853 C 0.46539 0.30422 0.89913
 C2854 C 0.44705 0.30379 0.90163
 C2855 C 0.43659 0.29667 0.88807
 N2856 N 0.44415 0.29049 0.87301
 C2857 C 0.46890 0.28390 0.85336
 N2858 N 0.45911 0.27206 0.84431
 C2859 C 0.46430 0.26537 0.82847
 C2860 C 0.48016 0.27077 0.82061
 C2861 C 0.49046 0.28301 0.82969
 C2862 C 0.48492 0.28957 0.84604
 H2863 H 0.47400 0.30925 0.90937
 H2864 H 0.42239 0.29626 0.88927
 H2865 H 0.45582 0.25609 0.82190
 H2866 H 0.50271 0.28767 0.82408
 H2867 H 0.48702 0.29796 0.88208
 H2868 H 0.49288 0.29931 0.85252
 C2869 C 0.96704 0.28743 0.37828
 C2870 C 0.96188 0.27642 0.39219
 C2871 C 0.95503 0.28351 0.40775
 C2872 C 0.95341 0.30151 0.40959
 C2873 C 0.95931 0.31208 0.39563
 N2874 N 0.96582 0.30487 0.38053
 C2875 C 0.97333 0.28063 0.36104
 N2876 N 0.98376 0.29080 0.35066
 C2877 C 0.98924 0.28579 0.33426
 C2878 C 0.98387 0.26979 0.32724
 C2879 C 0.97316 0.25910 0.33776
 C2880 C 0.96789 0.26443 0.35460
 H2881 H 0.95102 0.27490 0.41836
 H2882 H 0.95825 0.32603 0.39645
 H2883 H 0.99738 0.29451 0.32657
 H2884 H 0.96861 0.24669 0.33288
 H2885 H 0.96315 0.26251 0.39118
 H2886 H 0.95915 0.25617 0.36214
 C2887 C 0.45949 0.36662 0.78596
 C2888 C 0.44132 0.36985 0.78667
 C2889 C 0.43523 0.38539 0.79369
 C2890 C 0.44715 0.39785 0.80001
 C2891 C 0.46523 0.39397 0.79946
 N2892 N 0.47088 0.37864 0.79257
 C2893 C 0.46639 0.35021 0.77864
 N2894 N 0.48145 0.34328 0.78544
 C2895 C 0.48792 0.32777 0.77988
 C2896 C 0.47903 0.31825 0.76673
 C2897 C 0.46382 0.32550 0.75913
 C2898 C 0.45750 0.34142 0.76500
 H2899 H 0.42115 0.38756 0.79436
 H2900 H 0.47488 0.40319 0.80419
 H2901 H 0.49977 0.32276 0.78601
 H2902 H 0.45655 0.31873 0.74888
 H2903 H 0.43182 0.36035 0.78218
 H2904 H 0.44577 0.34675 0.75890
 C2905 C 0.96268 0.37077 0.28392
 C2906 C 0.94462 0.37464 0.28331
 C2907 C 0.93859 0.39038 0.28997
 C2908 C 0.95045 0.40240 0.29723
 C2909 C 0.96844 0.39802 0.29761
 N2910 N 0.97400 0.38249 0.29115
 C2911 C 0.96949 0.35387 0.27773
 N2912 N 0.98393 0.34689 0.28575
 C2913 C 0.99022 0.33094 0.28143
 C2914 C 0.98175 0.32095 0.26836
 C2915 C 0.96724 0.32821 0.25949
 C2916 C 0.96111 0.34462 0.26409
 H2917 H 0.92456 0.39293 0.28986
 H2918 H 0.97809 0.40691 0.30296
 H2919 H 1.00155 0.32594 0.28851
 H2920 H 0.96035 0.32111 0.24922
 H2921 H 0.93511 0.36543 0.27828
 H2922 H 0.94991 0.34992 0.25704
 C2923 C 0.29289 0.87126 0.46569
 C2924 C 0.31115 0.87417 0.46517
 C2925 C 0.31764 0.88926 0.45742
 C2926 C 0.30607 0.90159 0.45019
 C2927 C 0.28789 0.89806 0.45077
 N2928 N 0.28186 0.88317 0.45832
 C2929 C 0.28552 0.85520 0.47345
 N2930 N 0.27046 0.84836 0.46655
 C2931 C 0.26361 0.83309 0.47239
 C2932 C 0.27209 0.82371 0.48593
 C2933 C 0.28724 0.83094 0.49368
 C2934 C 0.29396 0.84662 0.48751
 H2935 H 0.33177 0.89109 0.45680
 H2936 H 0.27845 0.90720 0.44545
 H2937 H 0.25183 0.82810 0.46611
 H2938 H 0.29423 0.82427 0.50420
 H2939 H 0.32039 0.86473 0.47029
 H2940 H 0.30569 0.85188 0.49367
 C2941 C 0.28063 0.37168 0.96463
 C2942 C 0.26951 0.38508 0.95879
 C2943 C 0.27686 0.40043 0.95237
 C2944 C 0.29524 0.40252 0.95180
 C2945 C 0.30584 0.38893 0.95813
 N2946 N 0.29839 0.37412 0.96427
 C2947 C 0.27378 0.35482 0.97091
 N2948 N 0.28405 0.34504 0.98185
 C2949 C 0.27926 0.32894 0.98729
 C2950 C 0.26341 0.32156 0.98133
 C2951 C 0.25254 0.33148 0.97015
 C2952 C 0.25764 0.34808 0.96495
 H2953 H 0.26817 0.41071 0.94799
 H2954 H 0.32007 0.38987 0.95779
 H2955 H 0.28812 0.32174 0.99581
 H2956 H 0.24024 0.32629 0.96515
 H2957 H 0.25532 0.38386 0.95930
 H2958 H 0.24931 0.35519 0.95585
 C2959 C 0.78645 0.37690 0.27957
 C2960 C 0.77473 0.36358 0.28420
 C2961 C 0.78131 0.34810 0.29106
 C2962 C 0.79953 0.34578 0.29329
 C2963 C 0.81084 0.35911 0.28771
 N2964 N 0.80410 0.37414 0.28118
 C2965 C 0.78017 0.39409 0.27359
 N2966 N 0.79088 0.40401 0.26326
 C2967 C 0.78641 0.42032 0.25812
 C2968 C 0.77045 0.42772 0.26379
 C2969 C 0.75922 0.41770 0.27444
 C2970 C 0.76399 0.40092 0.27932
 H2971 H 0.77214 0.33800 0.29478
 H2972 H 0.82497 0.35792 0.28922
 H2973 H 0.79554 0.42762 0.25002
 H2974 H 0.74683 0.42289 0.27918
 H2975 H 0.76064 0.36506 0.28260
 H2976 H 0.75534 0.39369 0.28800
   
