data_POSCAR
  _audit_creation_date              2014-09-24
  _audit_creation_method            'ToBaCCo'
  _symmetry_space_group_name_H-M    'P1'
  _symmetry_Int_Tables_number       1
  _symmetry_cell_setting            triclinic
  loop_
  _symmetry_equiv_pos_as_xyz
 x,y,z
_cell_length_a 59.5718
_cell_length_b 59.3032
_cell_length_c 59.4321
_cell_angle_alpha 90.311100
_cell_angle_beta 90.113900
_cell_angle_gamma 90.083700
loop_
  _atom_site_label
  _atom_site_type_symbol
  _atom_site_fract_x
  _atom_site_fract_y
  _atom_site_fract_z
C1 C 0.73126 0.66286 0.97178
 H2 H 0.74846 0.66322 0.96599
 C3 C 0.71463 0.67448 0.95989
 H4 H 0.71903 0.68395 0.94500
 C5 C 0.70412 0.64885 0.99731
 H6 H 0.69985 0.63824 1.01136
 C7 C 0.68706 0.66023 0.98600
 H8 H 0.66985 0.65851 0.99159
 N9 N 0.72571 0.65018 0.98998
 C10 C 0.78608 0.63549 1.02882
 H11 H 0.78370 0.61746 1.03022
 C12 C 0.80451 0.64576 1.03909
 H13 H 0.81639 0.63562 1.04843
 C14 C 0.77360 0.67067 1.01469
 H15 H 0.76148 0.68024 1.00516
 C16 C 0.79193 0.68166 1.02472
 H17 H 0.79398 0.69970 1.02283
 Zn18 Zn 0.74778 0.63129 1.00299
 N19 N 0.77127 0.64792 1.01666
 C20 C 0.78196 0.61364 0.97494
 N21 N 0.75960 0.61306 0.97959
 C22 C 0.74515 0.60063 0.96678
 C23 C 0.75312 0.58788 0.94864
 C24 C 0.79061 0.60115 0.95698
 C25 C 0.72754 0.62441 1.04458
 C26 C 0.71751 0.61253 1.06210
 C27 C 0.72285 0.57802 1.04090
 C28 C 0.73280 0.59059 1.02375
 N29 N 0.73466 0.61340 1.02576
 H30 H 0.79313 0.62404 0.98487
 H31 H 0.72739 0.60082 0.97057
 H32 H 0.74152 0.57809 0.93846
 H33 H 0.80841 0.60181 0.95334
 H34 H 0.72952 0.64251 1.04584
 H35 H 0.71172 0.62158 1.07689
 H36 H 0.72128 0.55989 1.03904
 H37 H 0.73897 0.58211 1.00888
 C38 C 0.80758 0.66900 1.03689
 C39 C 0.69229 0.67288 0.96694
 C40 C 0.71502 0.58912 1.06021
 C41 C 0.77607 0.58820 0.94370
 C42 C 0.73470 0.34044 0.52288
 H43 H 0.75184 0.33943 0.52881
 C44 C 0.71769 0.32870 0.53407
 H45 H 0.72174 0.31850 0.54858
 C46 C 0.70811 0.35611 0.49767
 H47 H 0.70423 0.36739 0.48402
 C48 C 0.69069 0.34464 0.50829
 H49 H 0.67357 0.34698 0.50259
 N50 N 0.72961 0.35398 0.50515
 C51 C 0.79095 0.36828 0.46783
 H52 H 0.78942 0.38645 0.46733
 C53 C 0.80888 0.35771 0.45712
 H54 H 0.82126 0.36776 0.44835
 C55 C 0.77666 0.33302 0.47995
 H56 H 0.76397 0.32352 0.48878
 C57 C 0.79444 0.32172 0.46941
 H58 H 0.79552 0.30351 0.47025
 Zn59 Zn 0.75231 0.37273 0.49305
 N60 N 0.77545 0.35593 0.47918
 C61 C 0.78655 0.38918 0.52211
 N62 N 0.76425 0.39006 0.51713
 C63 C 0.74981 0.40244 0.52991
 C64 C 0.75775 0.41493 0.54829
 C65 C 0.79517 0.40140 0.54032
 C66 C 0.73250 0.38143 0.45149
 C67 C 0.72281 0.39414 0.43434
 C68 C 0.72916 0.42778 0.45662
 C69 C 0.73875 0.41442 0.47338
 N70 N 0.73991 0.39164 0.47068
 H71 H 0.79768 0.37882 0.51216
 H72 H 0.73210 0.40251 0.52584
 H73 H 0.74617 0.42475 0.55837
 H74 H 0.81293 0.40059 0.54417
 H75 H 0.73391 0.36332 0.44967
 H76 H 0.71669 0.38583 0.41925
 H77 H 0.72806 0.44587 0.45896
 H78 H 0.74517 0.42228 0.48852
 C79 C 0.81073 0.33425 0.45799
 C80 C 0.69545 0.33108 0.52684
 C81 C 0.72100 0.41749 0.43700
 C82 C 0.78065 0.41439 0.55350
 C83 C 0.23569 -0.15752 0.02363
 H84 H 0.25297 -0.15826 0.02922
 C85 C 0.21913 -0.16965 0.03505
 H86 H 0.22364 -0.17991 0.04939
 C87 C 0.20836 -0.14218 -0.00098
 H88 H 0.20402 -0.13091 -0.01449
 C89 C 0.19135 -0.15405 0.00990
 H90 H 0.17409 -0.15203 0.00451
 N91 N 0.23003 -0.14399 0.00607
 C92 C 0.29051 -0.12882 -0.03227
 H93 H 0.28870 -0.11068 -0.03278
 C94 C 0.30847 -0.13913 -0.04320
 H95 H 0.32058 -0.12891 -0.05215
 C96 C 0.27695 -0.16428 -0.01989
 H97 H 0.26454 -0.17395 -0.01085
 C98 C 0.29476 -0.17532 -0.03063
 H99 H 0.29614 -0.19350 -0.02975
 Zn100 Zn 0.25222 -0.12491 -0.00644
 N101 N 0.27538 -0.14139 -0.02068
 C102 C 0.28669 -0.10807 0.02207
 N103 N 0.26431 -0.10739 0.01742
 C104 C 0.24995 -0.09516 0.03041
 C105 C 0.25803 -0.08265 0.04871
 C106 C 0.29545 -0.09582 0.04019
 C107 C 0.23158 -0.11666 -0.04765
 C108 C 0.22154 -0.10417 -0.06475
 C109 C 0.22786 -0.07031 -0.04275
 C110 C 0.23780 -0.08348 -0.02604
 N111 N 0.23917 -0.10626 -0.02864
 H112 H 0.29777 -0.11831 0.01196
 H113 H 0.23218 -0.09526 0.02660
 H114 H 0.24650 -0.07297 0.05899
 H115 H 0.31327 -0.09649 0.04380
 H116 H 0.23318 -0.13476 -0.04938
 H117 H 0.21535 -0.11274 -0.07969
 H118 H 0.22667 -0.05220 -0.04041
 H119 H 0.24437 -0.07547 -0.01104
 C120 C 0.31071 -0.16256 -0.04228
 C121 C 0.19672 -0.16767 0.02824
 C122 C 0.21953 -0.08078 -0.06223
 C123 C 0.28100 -0.08301 0.05362
 C124 C 0.23188 0.16120 0.47208
 H125 H 0.24911 0.16191 0.46640
 C126 C 0.21511 0.17255 0.46014
 H127 H 0.21943 0.18216 0.44531
 C128 C 0.20485 0.14659 0.49739
 H129 H 0.20070 0.13586 0.51138
 C130 C 0.18765 0.15770 0.48602
 H131 H 0.17044 0.15564 0.49151
 N132 N 0.22646 0.14835 0.49020
 C133 C 0.28698 0.13464 0.52921
 H134 H 0.28503 0.11654 0.53040
 C135 C 0.30504 0.14526 0.53977
 H136 H 0.31709 0.13532 0.54912
 C137 C 0.27369 0.16966 0.51542
 H138 H 0.26137 0.17903 0.50594
 C139 C 0.29163 0.18100 0.52576
 H140 H 0.29319 0.19912 0.52416
 Zn141 Zn 0.24879 0.12983 0.50330
 N142 N 0.27193 0.14683 0.51710
 C143 C 0.28334 0.11277 0.47532
 N144 N 0.26098 0.11181 0.47994
 C145 C 0.24676 0.09913 0.46712
 C146 C 0.25497 0.08653 0.44897
 C147 C 0.29222 0.10045 0.45737
 C148 C 0.22849 0.12267 0.54478
 C149 C 0.21850 0.11068 0.56224
 C150 C 0.22439 0.07624 0.54113
 C151 C 0.23429 0.08891 0.52402
 N152 N 0.23584 0.11174 0.52601
 H153 H 0.29430 0.12338 0.48526
 H154 H 0.22900 0.09901 0.47087
 H155 H 0.24355 0.07655 0.43878
 H156 H 0.31001 0.10142 0.45374
 H157 H 0.23021 0.14080 0.54603
 H158 H 0.21248 0.11957 0.57701
 H159 H 0.22300 0.05810 0.53938
 H160 H 0.24064 0.08048 0.50919
 C161 C 0.30750 0.16860 0.53793
 C162 C 0.19276 0.17051 0.46705
 C163 C 0.21632 0.08728 0.56034
 C164 C 0.27791 0.08726 0.44406
 C165 C 0.16399 0.46953 0.23276
 H166 H 0.16466 0.46385 0.25002
 C167 C 0.17552 0.45765 0.21598
 H168 H 0.18521 0.44285 0.22031
 C169 C 0.14934 0.49481 0.20567
 H170 H 0.13853 0.50876 0.20149
 C171 C 0.16062 0.48350 0.18847
 H172 H 0.15861 0.48899 0.17122
 N173 N 0.15104 0.48761 0.22731
 C174 C 0.13676 0.52668 0.28799
 H175 H 0.11874 0.52772 0.28600
 C176 C 0.14718 0.53742 0.30611
 H177 H 0.13716 0.54676 0.31816
 C178 C 0.17181 0.51311 0.27473
 H179 H 0.18128 0.50367 0.26239
 C180 C 0.18295 0.52364 0.29273
 H181 H 0.20101 0.52222 0.29431
 Zn182 Zn 0.13237 0.50065 0.24963
 N183 N 0.14907 0.51460 0.27292
 C184 C 0.11536 0.47263 0.28411
 N185 N 0.11456 0.47718 0.26170
 C186 C 0.10207 0.46430 0.24734
 C187 C 0.08946 0.44621 0.25548
 C188 C 0.10302 0.45473 0.29293
 C189 C 0.12492 0.54216 0.22932
 C190 C 0.11284 0.55956 0.21927
 C191 C 0.07875 0.53821 0.22504
 C192 C 0.09150 0.52117 0.23500
 N193 N 0.11420 0.52330 0.23663
 H194 H 0.12581 0.48262 0.29519
 H195 H 0.10207 0.46801 0.22954
 H196 H 0.07959 0.43600 0.24396
 H197 H 0.10382 0.45119 0.31077
 H198 H 0.14295 0.54353 0.23111
 H199 H 0.12155 0.57439 0.21326
 H200 H 0.06072 0.53633 0.22357
 H201 H 0.08323 0.50629 0.24133
 C202 C 0.17044 0.53579 0.30860
 C203 C 0.17355 0.46457 0.19359
 C204 C 0.08957 0.55750 0.21699
 C205 C 0.08997 0.44140 0.27849
 C206 C -0.15759 0.02247 0.23381
 H207 H -0.15866 0.02827 0.25107
 C208 C -0.16937 0.03376 0.21688
 H209 H -0.17967 0.04821 0.22115
 C210 C -0.14176 -0.00253 0.20692
 H211 H -0.13043 -0.01613 0.20289
 C212 C -0.15327 0.00818 0.18955
 H213 H -0.15087 0.00253 0.17235
 N214 N -0.14396 0.00480 0.22854
 C215 C -0.12968 -0.03314 0.28961
 H216 H -0.11158 -0.03354 0.28820
 C217 C -0.14023 -0.04417 0.30733
 H218 H -0.13023 -0.05307 0.31967
 C219 C -0.16481 -0.02105 0.27520
 H220 H -0.17426 -0.01212 0.26254
 C221 C -0.17607 -0.03190 0.29276
 H222 H -0.19422 -0.03121 0.29368
 Zn223 Zn -0.12527 -0.00753 0.25118
 N224 N -0.14198 -0.02168 0.27415
 C225 C -0.10921 0.02131 0.28592
 N226 N -0.10815 0.01649 0.26352
 C227 C -0.09579 0.02943 0.24929
 C228 C -0.08353 0.04781 0.25755
 C229 C -0.09721 0.03951 0.29485
 C230 C -0.11657 -0.04902 0.23090
 C231 C -0.10396 -0.06615 0.22093
 C232 C -0.07046 -0.04396 0.22735
 C233 C -0.08373 -0.02719 0.23723
 N234 N -0.10639 -0.02986 0.23848
 H235 H -0.11955 0.01124 0.29688
 H236 H -0.09558 0.02550 0.23149
 H237 H -0.07373 0.05803 0.24613
 H238 H -0.09818 0.04324 0.31269
 H239 H -0.13458 -0.05080 0.23239
 H240 H -0.11225 -0.08121 0.21468
 H241 H -0.05246 -0.04165 0.22616
 H242 H -0.07589 -0.01209 0.24377
 C243 C -0.16360 -0.04348 0.30900
 C244 C -0.16696 0.02668 0.19450
 C245 C -0.08072 -0.06353 0.21900
 C246 C -0.08426 0.05287 0.28055
 C247 C 0.34096 0.52517 0.73650
 H248 H 0.33983 0.53097 0.75375
 C249 C 0.32909 0.53634 0.71955
 H250 H 0.31868 0.55072 0.72374
 C251 C 0.35700 0.50029 0.70962
 H252 H 0.36845 0.48678 0.70561
 C253 C 0.34541 0.51090 0.69225
 H254 H 0.34783 0.50532 0.67504
 N255 N 0.35473 0.50761 0.73124
 C256 C 0.36925 0.47000 0.79245
 H257 H 0.38737 0.46988 0.79116
 C258 C 0.35875 0.45875 0.81006
 H259 H 0.36879 0.44996 0.82244
 C260 C 0.33404 0.48152 0.77777
 H261 H 0.32454 0.49027 0.76502
 C262 C 0.32282 0.47043 0.79520
 H263 H 0.30465 0.47076 0.79596
 Zn264 Zn 0.37350 0.49546 0.75391
 N265 N 0.35688 0.48126 0.77689
 C266 C 0.38949 0.52454 0.78850
 N267 N 0.39051 0.51962 0.76612
 C268 C 0.40279 0.53251 0.75179
 C269 C 0.41503 0.55096 0.75992
 C270 C 0.40147 0.54283 0.79731
 C271 C 0.38242 0.45399 0.73372
 C272 C 0.39514 0.43685 0.72388
 C273 C 0.42853 0.45918 0.73038
 C274 C 0.41517 0.47594 0.74012
 N275 N 0.39250 0.47320 0.74128
 H276 H 0.37921 0.51451 0.79955
 H277 H 0.40296 0.52848 0.73402
 H278 H 0.42478 0.56113 0.74842
 H279 H 0.40056 0.54664 0.81513
 H280 H 0.36441 0.45214 0.73514
 H281 H 0.38693 0.42174 0.71766
 H282 H 0.44653 0.46154 0.72927
 H283 H 0.42292 0.49109 0.74665
 C284 C 0.33535 0.45900 0.81151
 C285 C 0.33158 0.52926 0.69719
 C286 C 0.41837 0.43954 0.72207
 C287 C 0.41436 0.55613 0.78290
 C288 C 0.66445 0.97291 0.73182
 H289 H 0.66506 0.96717 0.74905
 C290 C 0.67600 0.96105 0.71503
 H291 H 0.68565 0.94622 0.71935
 C292 C 0.64992 0.99830 0.70476
 H293 H 0.63915 1.01227 0.70059
 C294 C 0.66123 0.98702 0.68755
 H295 H 0.65928 0.99255 0.67031
 N296 N 0.65155 0.99103 0.72639
 C297 C 0.63704 1.03002 0.78707
 H298 H 0.61904 1.03118 0.78492
 C299 C 0.64734 1.04059 0.80536
 H300 H 0.63721 1.04991 0.81734
 C301 C 0.67212 1.01627 0.77410
 H302 H 0.68163 1.00679 0.76182
 C303 C 0.68316 1.02661 0.79227
 H304 H 0.70120 1.02498 0.79399
 Zn305 Zn 0.63281 1.00401 0.74868
 N306 N 0.64941 1.01792 0.77208
 C307 C 0.61574 0.97594 0.78308
 N308 N 0.61499 0.98049 0.76066
 C309 C 0.60256 0.96759 0.74627
 C310 C 0.58995 0.94948 0.75438
 C311 C 0.60339 0.95803 0.79186
 C312 C 0.62531 1.04557 0.72841
 C313 C 0.61319 1.06295 0.71837
 C314 C 0.57916 1.04148 0.72402
 C315 C 0.59193 1.02446 0.73397
 N316 N 0.61463 1.02666 0.73567
 H317 H 0.62613 0.98595 0.79419
 H318 H 0.60261 0.97130 0.72847
 H319 H 0.58013 0.93925 0.74284
 H320 H 0.60415 0.95450 0.80972
 H321 H 0.64333 1.04699 0.73024
 H322 H 0.62187 1.07782 0.71241
 H323 H 0.56113 1.03956 0.72252
 H324 H 0.58370 1.00954 0.74026
 C325 C 0.67058 1.03876 0.80811
 C326 C 0.67411 0.96804 0.69266
 C327 C 0.58993 1.06082 0.71604
 C328 C 0.59041 0.94468 0.77740
 C329 C 0.02207 0.23559 -0.15756
 H330 H 0.02790 0.25284 -0.15861
 C331 C 0.03323 0.21853 -0.16943
 H332 H 0.04761 0.22263 -0.17977
 C333 C -0.00284 0.20882 -0.14170
 H334 H -0.01636 0.20489 -0.13032
 C335 C 0.00775 0.19134 -0.15330
 H336 H 0.00214 0.17412 -0.15095
 N337 N 0.00451 0.23044 -0.14388
 C338 C -0.03279 0.29207 -0.12934
 H339 H -0.03301 0.29081 -0.11119
 C340 C -0.04385 0.30981 -0.13989
 H341 H -0.05259 0.32231 -0.12985
 C342 C -0.02121 0.27722 -0.16460
 H343 H -0.01250 0.26436 -0.17410
 C344 C -0.03211 0.29477 -0.17588
 H345 H -0.03167 0.29550 -0.19408
 Zn346 Zn -0.00757 0.25325 -0.12505
 N347 N -0.02158 0.27637 -0.14171
 C348 C 0.02145 0.28772 -0.10882
 N349 N 0.01647 0.26533 -0.10790
 C350 C 0.02927 0.25086 -0.09567
 C351 C 0.04769 0.25885 -0.08339
 C352 C 0.03970 0.29640 -0.09680
 C353 C -0.04893 0.23328 -0.11625
 C354 C -0.06599 0.22346 -0.10358
 C355 C -0.04375 0.22983 -0.07003
 C356 C -0.02708 0.23956 -0.08338
 N357 N -0.02980 0.24076 -0.10609
 H358 H 0.01148 0.29888 -0.11907
 H359 H 0.02520 0.23308 -0.09558
 H360 H 0.05780 0.24724 -0.07370
 H361 H 0.04357 0.31423 -0.09765
 H362 H -0.05075 0.23473 -0.13430
 H363 H -0.08100 0.21731 -0.11196
 H364 H -0.04130 0.22873 -0.05199
 H365 H -0.01199 0.24603 -0.07557
 C366 C -0.04346 0.31123 -0.16335
 C367 C 0.02612 0.19617 -0.16703
 C368 C -0.06333 0.22156 -0.08026
 C369 C 0.05293 0.28184 -0.08398
 C370 C 0.47135 0.23278 0.16160
 H371 H 0.46563 0.25008 0.16198
 C372 C 0.45952 0.21618 0.17334
 H373 H 0.44472 0.22070 0.18290
 C374 C 0.49670 0.20535 0.14748
 H375 H 0.51066 0.20097 0.13679
 C376 C 0.48544 0.18833 0.15897
 H377 H 0.49097 0.17101 0.15725
 N378 N 0.48944 0.22708 0.14882
 C379 C 0.52819 0.28764 0.13393
 H380 H 0.52935 0.28533 0.11590
 C381 C 0.53873 0.30599 0.14419
 H382 H 0.54804 0.31789 0.13405
 C383 C 0.51451 0.27496 0.16914
 H384 H 0.50511 0.26275 0.17874
 C385 C 0.52484 0.29319 0.18013
 H386 H 0.52330 0.29509 0.19820
 Zn387 Zn 0.50247 0.24910 0.12988
 N388 N 0.51615 0.27275 0.14639
 C389 C 0.47451 0.28337 0.11225
 N390 N 0.47917 0.26090 0.11169
 C391 C 0.46648 0.24632 0.09926
 C392 C 0.44845 0.25428 0.08648
 C393 C 0.45667 0.29200 0.09973
 C394 C 0.54393 0.22866 0.12306
 C395 C 0.56145 0.21851 0.11124
 C396 C 0.54049 0.22369 0.07679
 C397 C 0.52331 0.23377 0.08928
 N398 N 0.52521 0.23577 0.11204
 H399 H 0.48434 0.29463 0.12266
 H400 H 0.47027 0.22849 0.09946
 H401 H 0.43837 0.24258 0.07669
 H402 H 0.45302 0.30988 0.10037
 H403 H 0.54511 0.23074 0.14112
 H404 H 0.57620 0.21271 0.12020
 H405 H 0.53884 0.22198 0.05871
 H406 H 0.50853 0.23994 0.08078
 C407 C 0.53695 0.30889 0.16746
 C408 C 0.46651 0.19370 0.17174
 C409 C 0.55967 0.21590 0.08792
 C410 C 0.44351 0.27733 0.08677
 C411 C 0.96959 0.73186 0.66203
 H412 H 0.96398 0.74919 0.66256
 C413 C 0.95761 0.71522 0.67357
 H414 H 0.94281 0.71975 0.68313
 C415 C 0.99482 0.70440 0.64776
 H416 H 1.00881 0.70003 0.63709
 C417 C 0.98341 0.68734 0.65906
 H418 H 0.98885 0.67000 0.65720
 N419 N 0.98770 0.72616 0.64928
 C420 C 1.02689 0.78663 0.63519
 H421 H 1.02815 0.78446 0.61715
 C422 C 1.03748 0.80483 0.64567
 H423 H 1.04692 0.81676 0.63568
 C424 C 1.01292 0.77374 0.67021
 H425 H 1.00338 0.76150 0.67964
 C426 C 1.02329 0.79182 0.68141
 H427 H 1.02164 0.79358 0.69948
 Zn428 Zn 1.00098 0.74829 0.63064
 N429 N 1.01469 0.77170 0.64745
 C430 C 0.97335 0.78289 0.61314
 N431 N 0.97788 0.76040 0.61240
 C432 C 0.96521 0.74603 0.59971
 C433 C 0.94735 0.75421 0.58685
 C434 C 0.95567 0.79175 0.60055
 C435 C 1.04237 0.72766 0.62390
 C436 C 1.05994 0.71758 0.61209
 C437 C 1.03927 0.72331 0.57755
 C438 C 1.02204 0.73331 0.59003
 N439 N 1.02378 0.73501 0.61283
 H440 H 0.98316 0.79399 0.62374
 H441 H 0.96890 0.72817 0.59977
 H442 H 0.93729 0.74267 0.57685
 H443 H 0.95213 0.80965 0.60133
 H444 H 1.04342 0.72951 0.64199
 H445 H 1.07458 0.71159 0.62108
 H446 H 1.03774 0.72184 0.55944
 H447 H 1.00737 0.73967 0.58149
 C448 C 1.03556 0.80755 0.66895
 C449 C 0.96447 0.69272 0.67181
 C450 C 1.05832 0.71528 0.58872
 C451 C 0.94255 0.77729 0.58732
 C452 C 0.52330 0.73676 0.34206
 H453 H 0.52909 0.75402 0.34094
 C454 C 0.53448 0.71968 0.33025
 H455 H 0.54885 0.72377 0.31990
 C456 C 0.49841 0.71001 0.35800
 H457 H 0.48489 0.70610 0.36939
 C458 C 0.50904 0.69251 0.34647
 H459 H 0.50346 0.67529 0.34887
 N460 N 0.50573 0.73164 0.35574
 C461 C 0.46828 0.79326 0.36990
 H462 H 0.46798 0.79203 0.38805
 C463 C 0.45726 0.81097 0.35927
 H464 H 0.44849 0.82347 0.36930
 C465 C 0.48004 0.77834 0.33473
 H466 H 0.48881 0.76547 0.32530
 C467 C 0.46920 0.79587 0.32336
 H468 H 0.46977 0.79653 0.30515
 Zn469 Zn 0.49354 0.75451 0.37443
 N470 N 0.47956 0.77754 0.35761
 C471 C 0.52243 0.78912 0.39057
 N472 N 0.51750 0.76673 0.39161
 C473 C 0.53025 0.75237 0.40401
 C474 C 0.54858 0.76048 0.41636
 C475 C 0.54058 0.79792 0.40265
 C476 C 0.45218 0.73451 0.38318
 C477 C 0.43506 0.72482 0.39588
 C478 C 0.45710 0.73151 0.42945
 C479 C 0.47386 0.74110 0.41611
 N480 N 0.47125 0.74209 0.39337
 H481 H 0.51250 0.80019 0.38019
 H482 H 0.52622 0.73457 0.40420
 H483 H 0.55865 0.74896 0.42619
 H484 H 0.54441 0.81576 0.40171
 H485 H 0.45044 0.73579 0.36511
 H486 H 0.42006 0.71856 0.38759
 H487 H 0.45936 0.73054 0.44751
 H488 H 0.48890 0.74765 0.42394
 C489 C 0.45777 0.81237 0.33580
 C490 C 0.52741 0.69732 0.33272
 C491 C 0.43761 0.72318 0.41919
 C492 C 0.55376 0.78348 0.41566
 C493 C 0.35513 -0.00308 0.21958
 C494 C 0.36460 0.00827 0.23805
 C495 C 0.37434 0.02960 0.23505
 C496 C 0.37502 0.03947 0.21362
 C497 C 0.36514 0.02802 0.19533
 C498 C 0.35511 0.00677 0.19815
 C499 C 0.36442 -0.00228 0.26049
 C500 C 0.37352 -0.02387 0.26349
 C501 C 0.37333 -0.03409 0.28475
 C502 C 0.36347 -0.02259 0.30294
 C503 C 0.35407 -0.00106 0.30015
 C504 C 0.35487 0.00909 0.27886
 H505 H 0.34727 -0.01937 0.22208
 H506 H 0.38210 0.03808 0.24927
 H507 H 0.38082 -0.03264 0.24924
 H508 H 0.34744 0.02556 0.27635
 H509 H 0.36543 0.03559 0.17879
 H510 H 0.36367 -0.03014 0.31950
 C511 C 0.13376 1.01031 0.72211
 C512 C 0.12454 0.99903 0.74058
 C513 C 0.11555 0.97733 0.73768
 C514 C 0.11558 0.96688 0.71641
 C515 C 0.12513 0.97830 0.69809
 C516 C 0.13440 0.99996 0.70081
 C517 C 0.12485 1.00970 0.76307
 C518 C 0.11490 1.03086 0.76651
 C519 C 0.11492 1.04091 0.78798
 C520 C 0.12564 1.02977 0.80585
 C521 C 0.13591 1.00870 0.80256
 C522 C 0.13518 0.99867 0.78112
 H523 H 0.14066 1.02708 0.72444
 H524 H 0.10859 0.96859 0.75204
 H525 H 0.10654 1.03911 0.75261
 H526 H 0.14274 0.98228 0.77838
 H527 H 0.12542 0.97028 0.68168
 H528 H 0.12643 1.03777 0.82226
 C529 C 0.63446 0.51220 0.22045
 C530 C 0.62542 0.50073 0.23889
 C531 C 0.61648 0.47903 0.23586
 C532 C 0.61638 0.46876 0.21451
 C533 C 0.62575 0.48038 0.19621
 C534 C 0.63497 0.50204 0.19905
 C535 C 0.62585 0.51120 0.26147
 C536 C 0.61597 0.53236 0.26515
 C537 C 0.61608 0.54221 0.28671
 C538 C 0.62683 0.53088 0.30444
 C539 C 0.63703 0.50981 0.30092
 C540 C 0.63622 0.49999 0.27939
 H541 H 0.64133 0.52897 0.22287
 H542 H 0.60965 0.47014 0.25019
 H543 H 0.60757 0.54075 0.25134
 H544 H 0.64372 0.48359 0.27648
 H545 H 0.62594 0.47250 0.17973
 H546 H 0.62768 0.53872 0.32092
 C547 C 0.85290 0.49597 0.71956
 C548 C 0.86215 0.50753 0.73801
 C549 C 0.87181 0.52888 0.73491
 C550 C 0.87261 0.53858 0.71341
 C551 C 0.86295 0.52691 0.69513
 C552 C 0.85301 0.50563 0.69804
 C553 C 0.86191 0.49713 0.76053
 C554 C 0.87107 0.47560 0.76371
 C555 C 0.87090 0.46556 0.78506
 C556 C 0.86099 0.47718 0.80315
 C557 C 0.85153 0.49866 0.80017
 C558 C 0.85231 0.50862 0.77880
 H559 H 0.84511 0.47966 0.72212
 H560 H 0.87942 0.53750 0.74912
 H561 H 0.87841 0.46674 0.74954
 H562 H 0.84485 0.52506 0.77615
 H563 H 0.86335 0.53434 0.67853
 H564 H 0.86121 0.46977 0.81977
 C565 C 0.21965 0.35353 -0.00423
 C566 C 0.23817 0.36273 0.00717
 C567 C 0.23525 0.37234 0.02859
 C568 C 0.21389 0.37314 0.03853
 C569 C 0.19555 0.36353 0.02701
 C570 C 0.19827 0.35364 0.00566
 C571 C 0.26056 0.36251 -0.00345
 C572 C 0.26358 0.37181 -0.02489
 C573 C 0.28485 0.37186 -0.03505
 C574 C 0.30304 0.36204 -0.02364
 C575 C 0.30023 0.35249 -0.00224
 C576 C 0.27892 0.35300 0.00783
 H577 H 0.22207 0.34579 -0.02061
 H578 H 0.24950 0.37993 0.03711
 H579 H 0.24936 0.37911 -0.03357
 H580 H 0.27654 0.34597 0.02445
 H581 H 0.17905 0.36393 0.03462
 H582 H 0.31947 0.36191 -0.03141
 C583 C 0.72218 0.13393 1.01117
 C584 C 0.74072 0.12499 0.99974
 C585 C 0.73796 0.11625 0.97792
 C586 C 0.71677 0.11628 0.96750
 C587 C 0.69838 0.12554 0.97909
 C588 C 0.70095 0.13456 1.00087
 C589 C 0.76314 0.12541 1.01035
 C590 C 0.76663 0.11534 1.03138
 C591 C 0.78803 0.11551 1.04137
 C592 C 0.80578 0.12650 1.03033
 C593 C 0.80244 0.13688 1.00940
 C594 C 0.78107 0.13601 0.99942
 H595 H 0.72439 0.14066 1.02802
 H596 H 0.75236 0.10951 0.96906
 H597 H 0.75282 0.10678 1.03955
 H598 H 0.77831 0.14367 0.98314
 H599 H 0.68203 0.12584 0.97109
 H600 H 0.82213 0.12740 1.03829
 C601 C 0.22082 0.63479 0.51137
 C602 C 0.23962 0.62610 0.50016
 C603 C 0.23722 0.61717 0.47838
 C604 C 0.21613 0.61675 0.46777
 C605 C 0.19748 0.62574 0.47913
 C606 C 0.19968 0.63495 0.50087
 C607 C 0.26194 0.62695 0.51099
 C608 C 0.26533 0.61720 0.53218
 C609 C 0.28665 0.61764 0.54234
 C610 C 0.30441 0.62859 0.53129
 C611 C 0.30117 0.63866 0.51019
 C612 C 0.27989 0.63752 0.50006
 H613 H 0.22288 0.64217 0.52797
 H614 H 0.25182 0.61061 0.46970
 H615 H 0.25152 0.60863 0.54035
 H616 H 0.27721 0.64492 0.48363
 H617 H 0.18108 0.62512 0.47124
 H618 H 0.32070 0.62970 0.53936
 C619 C 0.72006 0.85584 0.49536
 C620 C 0.73865 0.86502 0.50667
 C621 C 0.73577 0.87497 0.52794
 C622 C 0.71440 0.87611 0.53783
 C623 C 0.69599 0.86652 0.52640
 C624 C 0.69865 0.85631 0.50519
 C625 C 0.76105 0.86444 0.49608
 C626 C 0.76420 0.87339 0.47451
 C627 C 0.78545 0.87299 0.46434
 C628 C 0.80351 0.86309 0.47590
 C629 C 0.80057 0.85390 0.49744
 C630 C 0.77928 0.85486 0.50750
 H631 H 0.72233 0.84833 0.47885
 H632 H 0.75008 0.88253 0.53638
 H633 H 0.75007 0.88074 0.46571
 H634 H 0.77680 0.84809 0.52422
 H635 H 0.67960 0.86664 0.53425
 H636 H 0.81993 0.86260 0.46813
 C637 C -0.00372 0.21849 0.35575
 C638 C 0.00792 0.23682 0.36518
 C639 C 0.02916 0.23345 0.37480
 C640 C 0.03873 0.21183 0.37536
 C641 C 0.02702 0.19368 0.36552
 C642 C 0.00583 0.19685 0.35559
 C643 C -0.00219 0.25953 0.36505
 C644 C -0.02328 0.26319 0.37486
 C645 C -0.03269 0.28489 0.37539
 C646 C -0.02101 0.30279 0.36530
 C647 C 0.00002 0.29932 0.35520
 C648 C 0.00941 0.27762 0.35537
 H649 H -0.01995 0.22127 0.34799
 H650 H 0.03783 0.24758 0.38254
 H651 H -0.03195 0.24926 0.38277
 H652 H 0.02578 0.27473 0.34798
 H653 H 0.03437 0.17698 0.36571
 H654 H -0.02853 0.31940 0.36493
 C655 C 1.01164 0.71810 0.13336
 C656 C 1.00058 0.73667 0.12397
 C657 C 0.97919 0.73384 0.11445
 C658 C 0.96892 0.71250 0.11395
 C659 C 0.98010 0.69410 0.12369
 C660 C 1.00140 0.69676 0.13355
 C661 C 1.01136 0.75911 0.12436
 C662 C 1.03299 0.76202 0.11554
 C663 C 1.04339 0.78329 0.11597
 C664 C 1.03201 0.80160 0.12583
 C665 C 1.01043 0.79888 0.13494
 C666 C 1.00014 0.77758 0.13390
 H667 H 1.02793 0.72049 0.14117
 H668 H 0.97087 0.74815 0.10685
 H669 H 1.04165 0.74768 0.10826
 H670 H 0.98365 0.77512 0.14116
 H671 H 0.97219 0.67764 0.12360
 H672 H 1.03970 0.81816 0.12585
 C673 C 0.51034 0.22144 0.63400
 C674 C 0.49896 0.24011 0.62522
 C675 C 0.47717 0.23742 0.61661
 C676 C 0.46672 0.21618 0.61658
 C677 C 0.47826 0.19766 0.62566
 C678 C 0.50000 0.20014 0.63456
 C679 C 0.50965 0.26259 0.62567
 C680 C 0.53071 0.26592 0.61571
 C681 C 0.54081 0.28735 0.61587
 C682 C 0.52980 0.30531 0.62674
 C683 C 0.50882 0.30214 0.63702
 C684 C 0.49876 0.28073 0.63616
 H685 H 0.52694 0.22373 0.64115
 H686 H 0.46837 0.25193 0.60998
 H687 H 0.53886 0.25194 0.60722
 H688 H 0.48244 0.27810 0.64374
 H689 H 0.47049 0.18113 0.62535
 H690 H 0.53782 0.32169 0.62764
 C691 C 0.49616 0.72219 0.85579
 C692 C 0.50794 0.74054 0.86499
 C693 C 0.52917 0.73713 0.87461
 C694 C 0.53859 0.71544 0.87539
 C695 C 0.52672 0.69727 0.86577
 C696 C 0.50554 0.70048 0.85586
 C697 C 0.49793 0.76329 0.86472
 C698 C 0.47682 0.76707 0.87445
 C699 C 0.46744 0.78878 0.87480
 C700 C 0.47919 0.80659 0.86464
 C701 C 0.50024 0.80302 0.85462
 C702 C 0.50960 0.78130 0.85496
 H703 H 0.47992 0.72500 0.84804
 H704 H 0.53796 0.75127 0.88219
 H705 H 0.46810 0.75320 0.88242
 H706 H 0.52598 0.77833 0.84763
 H707 H 0.53394 0.68052 0.86615
 H708 H 0.47170 0.82321 0.86413
 C709 C 0.41532 -0.08216 0.28276
 C710 C 0.40514 -0.09789 0.29696
 C711 C 0.38414 -0.09317 0.30639
 C712 C 0.37356 -0.07263 0.30203
 C713 C 0.44725 -0.17012 0.32546
 C714 C 0.40474 -0.06161 0.27834
 C715 C 0.41675 -0.11824 0.30307
 C716 C 0.42647 -0.13497 0.30911
 C717 C 0.43775 -0.15415 0.31735
 C718 C 0.38387 -0.05650 0.28818
 H719 H 0.43164 -0.08557 0.27551
 H720 H 0.37613 -0.10520 0.31745
 H721 H 0.35737 -0.06930 0.30960
 H722 H 0.41321 -0.04943 0.26782
 C723 C 0.91306 0.41762 0.78335
 C724 C 0.90295 0.40195 0.79766
 C725 C 0.88197 0.40668 0.80713
 C726 C 0.87132 0.42716 0.80266
 C727 C 0.94533 0.32974 0.82584
 C728 C 0.90241 0.43812 0.77883
 C729 C 0.91461 0.38163 0.80377
 C730 C 0.92437 0.36491 0.80977
 C731 C 0.93574 0.34572 0.81788
 C732 C 0.88154 0.44323 0.78867
 H733 H 0.92937 0.41421 0.77606
 H734 H 0.87402 0.39469 0.81827
 H735 H 0.85514 0.43049 0.81024
 H736 H 0.91082 0.45025 0.76821
 C737 C 0.07971 1.08653 0.81547
 C738 C 0.08138 1.10402 0.79986
 C739 C 0.09399 1.10093 0.78023
 C740 C 0.10491 1.08040 0.77627
 C741 C 0.03857 1.17785 0.82308
 C742 C 0.09060 1.06606 0.81157
 C743 C 0.07016 1.12505 0.80433
 C744 C 0.06047 1.14225 0.80913
 C745 C 0.04879 1.16178 0.81602
 C746 C 0.10339 1.06276 0.79195
 H747 H 0.06994 1.08871 0.83068
 H748 H 0.09544 1.11438 0.76805
 H749 H 0.11480 1.07843 0.76112
 H750 H 0.08879 1.05270 0.82378
 C751 C 0.58103 0.58766 0.31469
 C752 C 0.58266 0.60527 0.29921
 C753 C 0.59520 0.60232 0.27952
 C754 C 0.60610 0.58182 0.27536
 C755 C 0.53985 0.67900 0.32283
 C756 C 0.59189 0.56721 0.31059
 C757 C 0.57144 0.62627 0.30386
 C758 C 0.56174 0.64343 0.30876
 C759 C 0.55007 0.66294 0.31574
 C760 C 0.60461 0.56405 0.29091
 H761 H 0.57130 0.58972 0.32995
 H762 H 0.59662 0.61587 0.26744
 H763 H 0.61594 0.57996 0.26016
 H764 H 0.59011 0.55375 0.32270
 C765 C 0.60711 0.40892 0.19348
 C766 C 0.58654 0.40357 0.20347
 C767 C 0.57604 0.41924 0.21763
 C768 C 0.58593 0.44032 0.22154
 C769 C 0.54730 0.32828 0.17785
 C770 C 0.61700 0.42998 0.19734
 C771 C 0.57571 0.38248 0.19813
 C772 C 0.56666 0.36506 0.19277
 C773 C 0.55615 0.34501 0.18533
 C774 C 0.60641 0.44601 0.21124
 H775 H 0.61536 0.39693 0.18246
 H776 H 0.56004 0.41534 0.22532
 H777 H 0.57726 0.45239 0.23213
 H778 H 0.63292 0.43374 0.18943
 C779 C 0.10620 0.90694 0.69576
 C780 C 0.08550 0.90177 0.70557
 C781 C 0.07497 0.91759 0.71954
 C782 C 0.08494 0.93863 0.72341
 C783 C 0.04595 0.82680 0.67955
 C784 C 0.11618 0.92796 0.69957
 C785 C 0.07457 0.88075 0.70019
 C786 C 0.06545 0.86340 0.69475
 C787 C 0.05486 0.84344 0.68717
 C788 C 0.10555 0.94414 0.71326
 H789 H 0.11449 0.89483 0.68487
 H790 H 0.05886 0.91384 0.72709
 H791 H 0.07624 0.95083 0.73383
 H792 H 0.13219 0.93158 0.69179
 C793 C 0.89294 0.59890 0.72172
 C794 C 0.90661 0.60166 0.70280
 C795 C 0.90913 0.58388 0.68745
 C796 C 0.89805 0.56344 0.69091
 C797 C 0.95125 0.67479 0.68127
 C798 C 0.88181 0.57839 0.72524
 C799 C 0.91816 0.62260 0.69880
 C800 C 0.92824 0.63966 0.69440
 C801 C 0.94047 0.65897 0.68795
 C802 C 0.88421 0.56046 0.70982
 H803 H 0.89084 0.61257 0.73369
 H804 H 0.91974 0.58579 0.67279
 H805 H 0.90057 0.54985 0.67895
 H806 H 0.87114 0.57665 0.73986
 C807 C 0.39555 0.09969 0.22218
 C808 C 0.40906 0.10255 0.20315
 C809 C 0.41143 0.08486 0.18768
 C810 C 0.40036 0.06442 0.19111
 C811 C 0.45341 0.17577 0.18136
 C812 C 0.38444 0.07918 0.22567
 C813 C 0.42055 0.12353 0.19914
 C814 C 0.43056 0.14061 0.19469
 C815 C 0.44271 0.15994 0.18815
 C816 C 0.38667 0.06133 0.21011
 H817 H 0.39356 0.11329 0.23425
 H818 H 0.42191 0.08686 0.17293
 H819 H 0.40275 0.05089 0.17904
 H820 H 0.37388 0.07736 0.24036
 C821 C 0.28267 0.41440 -0.08250
 C822 C 0.29689 0.40438 -0.09837
 C823 C 0.30643 0.38331 -0.09393
 C824 C 0.30214 0.37249 -0.07355
 C825 C 0.32460 0.44757 -0.17012
 C826 C 0.27832 0.40359 -0.06210
 C827 C 0.30284 0.41624 -0.11857
 C828 C 0.30872 0.42619 -0.13519
 C829 C 0.31672 0.43779 -0.15425
 C830 C 0.28825 0.38263 -0.05729
 H831 H 0.27532 0.43078 -0.08568
 H832 H 0.31750 0.37541 -0.10608
 H833 H 0.30978 0.35624 -0.07045
 H834 H 0.26778 0.41194 -0.04981
 C835 C 0.78373 0.91461 0.41606
 C836 C 0.79776 0.90408 0.40035
 C837 C 0.80705 0.88299 0.40519
 C838 C 0.80269 0.87264 0.42580
 C839 C 0.82562 0.94549 0.32761
 C840 C 0.77931 0.90427 0.43669
 C841 C 0.80377 0.91543 0.37987
 C842 C 0.80969 0.92496 0.36302
 C843 C 0.81772 0.93609 0.34370
 C844 C 0.78898 0.88329 0.44190
 H845 H 0.77658 0.93101 0.41257
 H846 H 0.81798 0.87470 0.39317
 H847 H 0.81012 0.85636 0.42920
 H848 H 0.76891 0.91301 0.44884
 C849 C 0.78042 0.09418 1.10113
 C850 C 0.80013 0.08171 1.10408
 C851 C 0.81574 0.08024 1.08659
 C852 C 0.81176 0.09121 1.06624
 C853 C 0.82371 0.03857 1.17731
 C854 C 0.77638 0.10518 1.08072
 C855 C 0.80469 0.07042 1.12498
 C856 C 0.80957 0.06065 1.14204
 C857 C 0.81657 0.04888 1.16141
 C858 C 0.79207 0.10387 1.06308
 H859 H 0.76824 0.09548 1.11458
 H860 H 0.83102 0.07057 1.08866
 H861 H 0.82398 0.08956 1.05287
 H862 H 0.76116 0.11497 1.07886
 C863 C 0.27870 0.59676 0.60221
 C864 C 0.29846 0.58443 0.60541
 C865 C 0.31422 0.58293 0.58806
 C866 C 0.31035 0.59373 0.56761
 C867 C 0.32166 0.54173 0.67900
 C868 C 0.27476 0.60760 0.58169
 C869 C 0.30290 0.57327 0.62640
 C870 C 0.30769 0.56360 0.64355
 C871 C 0.31459 0.55194 0.66301
 C872 C 0.29060 0.60624 0.56418
 H873 H 0.26640 0.59807 0.61555
 H874 H 0.32954 0.57337 0.59032
 H875 H 0.32269 0.59205 0.55435
 H876 H 0.25950 0.61727 0.57962
 C877 C 0.22063 0.57626 0.41826
 C878 C 0.20643 0.58650 0.40257
 C879 C 0.19607 0.60701 0.40787
 C880 C 0.19956 0.61707 0.42891
 C881 C 0.18099 0.54635 0.32777
 C882 C 0.22418 0.58632 0.43933
 C883 C 0.20129 0.57540 0.38158
 C884 C 0.19600 0.56614 0.36425
 C885 C 0.18854 0.55539 0.34435
 C886 C 0.21345 0.60670 0.44498
 H887 H 0.22860 0.56030 0.41440
 H888 H 0.18500 0.61506 0.39587
 H889 H 0.19132 0.63291 0.43266
 H890 H 0.23477 0.57782 0.45143
 C891 C 0.69639 0.10777 0.90752
 C892 C 0.70632 0.08712 0.90192
 C893 C 0.72030 0.07636 0.91747
 C894 C 0.72406 0.08604 0.93866
 C895 C 0.68048 0.04845 0.82646
 C896 C 0.70010 0.11745 0.92869
 C897 C 0.70102 0.07645 0.88075
 C898 C 0.69563 0.06754 0.86327
 C899 C 0.68809 0.05718 0.84319
 C900 C 0.71378 0.10658 0.94460
 H901 H 0.68550 0.11622 0.89564
 H902 H 0.72794 0.06029 0.91338
 H903 H 0.73449 0.07716 0.95063
 H904 H 0.69221 0.13343 0.93265
 C905 C 0.68904 0.91293 0.58347
 C906 C 0.70449 0.91033 0.60102
 C907 C 0.72330 0.89653 0.59798
 C908 C 0.72661 0.88535 0.57744
 C909 C 0.68351 0.95489 0.67456
 C910 C 0.69229 0.90179 0.56299
 C911 C 0.70068 0.92188 0.62204
 C912 C 0.69642 0.93194 0.63919
 C913 C 0.69010 0.94415 0.65862
 C914 C 0.71108 0.88782 0.55973
 H915 H 0.67446 0.92363 0.58561
 H916 H 0.73535 0.89436 0.61148
 H917 H 0.74113 0.87456 0.57549
 H918 H 0.68024 0.90435 0.54958
 C919 C 0.18844 0.40964 0.08437
 C920 C 0.20389 0.40696 0.10191
 C921 C 0.22271 0.39318 0.09881
 C922 C 0.22603 0.38211 0.07820
 C923 C 0.18295 0.45140 0.17552
 C924 C 0.19171 0.39861 0.06383
 C925 C 0.20010 0.41844 0.12297
 C926 C 0.19584 0.42847 0.14013
 C927 C 0.18954 0.44066 0.15958
 C928 C 0.21051 0.38467 0.06051
 H929 H 0.17386 0.42033 0.08656
 H930 H 0.23475 0.39095 0.11229
 H931 H 0.24057 0.37135 0.07620
 H932 H 0.17967 0.40126 0.05043
 C933 C -0.07766 0.31274 0.41095
 C934 C -0.09560 0.29768 0.40842
 C935 C -0.09297 0.27821 0.39526
 C936 C -0.07247 0.27389 0.38458
 C937 C -0.17033 0.32350 0.44745
 C938 C -0.05723 0.30849 0.40028
 C939 C -0.11673 0.30276 0.41900
 C940 C -0.13407 0.30813 0.42796
 C941 C -0.15389 0.31577 0.43849
 C942 C -0.05442 0.28909 0.38687
 H943 H -0.07950 0.32784 0.42111
 H944 H -0.10678 0.26648 0.39312
 H945 H -0.07086 0.25891 0.37421
 H946 H -0.04355 0.32031 0.40268
 C947 C 0.42236 0.81682 0.91008
 C948 C 0.40447 0.80169 0.90766
 C949 C 0.40714 0.78215 0.89462
 C950 C 0.42764 0.77783 0.88395
 C951 C 0.32970 0.82697 0.94702
 C952 C 0.44280 0.81256 0.89945
 C953 C 0.38335 0.80671 0.91830
 C954 C 0.36601 0.81198 0.92733
 C955 C 0.34618 0.81943 0.93796
 C956 C 0.44567 0.79307 0.88617
 H957 H 0.42049 0.83198 0.92017
 H958 H 0.39337 0.77037 0.89256
 H959 H 0.42929 0.76278 0.87369
 H960 H 0.45646 0.82442 0.90178
 C961 C 1.09163 0.78072 0.07441
 C962 C 1.10735 0.79498 0.08472
 C963 C 1.10255 0.80470 0.10567
 C964 C 1.08194 0.80053 0.11608
 C965 C 1.17892 0.82197 0.04087
 C966 C 1.07101 0.77651 0.08480
 C967 C 1.12774 0.80087 0.07316
 C968 C 1.14439 0.80661 0.06321
 C969 C 1.16333 0.81437 0.05128
 C970 C 1.06583 0.78660 0.10563
 H971 H 1.09509 0.77326 0.05810
 H972 H 1.11457 0.81583 0.11378
 H973 H 1.07856 0.80831 0.13225
 H974 H 1.05886 0.76594 0.07620
 C975 C 0.58633 0.31461 0.58075
 C976 C 0.60366 0.29880 0.58229
 C977 C 0.60049 0.27911 0.59480
 C978 C 0.58005 0.27529 0.60574
 C979 C 0.67719 0.32136 0.53933
 C980 C 0.56595 0.31086 0.59166
 C981 C 0.62459 0.30311 0.57103
 C982 C 0.64171 0.30775 0.56130
 C983 C 0.66117 0.31447 0.54958
 C984 C 0.56257 0.29119 0.60433
 H985 H 0.58857 0.32988 0.57106
 H986 H 0.61382 0.26677 0.59615
 H987 H 0.57802 0.26009 0.61554
 H988 H 0.55271 0.32323 0.58994
 C989 C 0.40702 0.19553 0.60777
 C990 C 0.40149 0.20561 0.58726
 C991 C 0.41698 0.21980 0.57671
 C992 C 0.43806 0.22362 0.58645
 C993 C 0.32665 0.17934 0.54823
 C994 C 0.42807 0.19929 0.61752
 C995 C 0.38048 0.20022 0.57649
 C996 C 0.36314 0.19472 0.56749
 C997 C 0.34323 0.18706 0.55704
 C998 C 0.44393 0.21318 0.60684
 H999 H 0.39518 0.18447 0.61606
 H1000 H 0.41295 0.22755 0.56074
 H1001 H 0.44999 0.23420 0.57771
 H1002 H 0.43198 0.19127 0.63337
 C1003 C 0.90832 0.72159 0.09602
 C1004 C 0.90449 0.70241 0.08271
 C1005 C 0.92176 0.68680 0.07936
 C1006 C 0.94271 0.69018 0.08940
 C1007 C 0.82726 0.67928 0.04663
 C1008 C 0.92934 0.72504 0.10607
 C1009 C 0.88276 0.69815 0.07291
 C1010 C 0.86486 0.69344 0.06462
 C1011 C 0.84433 0.68650 0.05490
 C1012 C 0.94671 0.70927 0.10298
 H1013 H 0.89504 0.73374 0.09880
 H1014 H 0.91899 0.67191 0.06908
 H1015 H 0.95585 0.67793 0.08641
 H1016 H 0.93187 0.73979 0.11659
 C1017 C 0.59879 0.72308 0.89548
 C1018 C 0.60143 0.70417 0.90924
 C1019 C 0.58363 0.68901 0.91184
 C1020 C 0.56327 0.69267 0.90079
 C1021 C 0.67435 0.68236 0.95379
 C1022 C 0.57838 0.72680 0.88439
 C1023 C 0.62229 0.70003 0.92078
 C1024 C 0.63928 0.69555 0.93084
 C1025 C 0.65855 0.68906 0.94305
 C1026 C 0.56039 0.71158 0.88691
 H1027 H 0.61249 0.73491 0.89331
 H1028 H 0.58546 0.67436 0.92251
 H1029 H 0.54964 0.68087 0.90339
 H1030 H 0.57672 0.74140 0.87367
 C1031 C 0.09884 0.21984 0.39559
 C1032 C 0.10166 0.20082 0.40914
 C1033 C 0.08402 0.18543 0.41153
 C1034 C 0.06364 0.18899 0.40049
 C1035 C 0.17472 0.17974 0.45384
 C1036 C 0.07841 0.22346 0.38450
 C1037 C 0.12252 0.19682 0.42072
 C1038 C 0.13954 0.19251 0.43082
 C1039 C 0.15886 0.18624 0.44306
 C1040 C 0.06058 0.20804 0.38682
 H1041 H 0.11241 0.23184 0.39358
 H1042 H 0.08599 0.17068 0.42204
 H1043 H 0.05013 0.17701 0.40293
 H1044 H 0.07662 0.23817 0.37394
 C1045 C 0.54586 0.15918 0.65150
 C1046 C 0.53403 0.14436 0.66539
 C1047 C 0.51104 0.14754 0.66892
 C1048 C 0.49993 0.16556 0.65872
 C1049 C 0.57729 0.07843 0.70532
 C1050 C 0.53479 0.17722 0.64130
 C1051 C 0.54556 0.12610 0.67628
 C1052 C 0.55534 0.11093 0.68546
 C1053 C 0.56703 0.09333 0.69621
 C1054 C 0.51170 0.18065 0.64486
 H1055 H 0.56367 0.15684 0.64863
 H1056 H 0.50173 0.13622 0.67971
 H1057 H 0.48222 0.16794 0.66204
 H1058 H 0.54425 0.18839 0.63051
 C1059 C 1.01141 0.64428 0.16843
 C1060 C 1.03451 0.64113 0.16563
 C1061 C 1.04676 0.65598 0.15214
 C1062 C 1.03599 0.67399 0.14157
 C1063 C 1.07698 0.57511 0.20623
 C1064 C 1.00060 0.66227 0.15786
 C1065 C 1.04572 0.62284 0.17679
 C1066 C 1.05530 0.60765 0.18614
 C1067 C 1.06682 0.59002 0.19704
 C1068 C 1.01279 0.67737 0.14436
 H1069 H 1.00178 0.63293 0.17890
 H1070 H 1.06465 0.65367 0.14983
 H1071 H 1.04577 0.68517 0.13108
 H1072 H 0.98279 0.66461 0.16059
 C1073 C 0.96456 0.83939 0.15308
 C1074 C 0.97644 0.85411 0.16724
 C1075 C 0.99949 0.85102 0.17057
 C1076 C 1.01060 0.83318 0.15991
 C1077 C 0.93239 0.91917 0.20823
 C1078 C 0.97562 0.82154 0.14242
 C1079 C 0.96488 0.87218 0.17854
 C1080 C 0.95495 0.88716 0.18800
 C1081 C 0.94297 0.90451 0.19899
 C1082 C 0.99876 0.81818 0.14578
 H1083 H 0.94672 0.84167 0.15035
 H1084 H 1.00883 0.86227 0.18155
 H1085 H 1.02835 0.83086 0.16305
 H1086 H 0.96612 0.81045 0.13142
 C1087 C 0.47585 0.33537 0.68050
 C1088 C 0.47579 0.35693 0.67105
 C1089 C 0.48663 0.36065 0.65052
 C1090 C 0.49744 0.34287 0.63946
 C1091 C 0.43159 0.42222 0.71147
 C1092 C 0.48663 0.31757 0.66947
 C1093 C 0.46425 0.37508 0.68222
 C1094 C 0.45429 0.39012 0.69155
 C1095 C 0.44225 0.40753 0.70238
 C1096 C 0.49750 0.32111 0.64879
 H1097 H 0.46753 0.33231 0.69639
 H1098 H 0.48660 0.37725 0.64301
 H1099 H 0.50545 0.34605 0.62344
 H1100 H 0.48665 0.30109 0.67723
 C1101 C 0.49321 0.64682 0.82295
 C1102 C 0.47007 0.64449 0.82624
 C1103 C 0.45849 0.66048 0.83915
 C1104 C 0.46999 0.67872 0.84876
 C1105 C 0.42657 0.57519 0.79170
 C1106 C 0.50474 0.66504 0.83256
 C1107 C 0.45825 0.62561 0.81653
 C1108 C 0.44834 0.60975 0.80853
 C1109 C 0.43666 0.59113 0.79934
 C1110 C 0.49326 0.68118 0.84560
 H1111 H 0.50233 0.63457 0.81296
 H1112 H 0.44058 0.65879 0.84186
 H1113 H 0.46074 0.69071 0.85893
 H1114 H 0.52260 0.66664 0.82957
 C1115 C -0.00596 0.14356 0.32189
 C1116 C -0.02909 0.14101 0.32504
 C1117 C -0.04085 0.15672 0.33812
 C1118 C -0.02953 0.17490 0.34804
 C1119 C -0.07209 0.07189 0.28951
 C1120 C 0.00540 0.16172 0.33181
 C1121 C -0.04073 0.12218 0.31502
 C1122 C -0.05052 0.10636 0.30676
 C1123 C -0.06207 0.08779 0.29732
 C1124 C -0.00625 0.17759 0.34503
 H1125 H 0.00330 0.13152 0.31176
 H1126 H -0.05875 0.15486 0.34073
 H1127 H -0.03891 0.18669 0.35834
 H1128 H 0.02326 0.16350 0.32892
 C1129 C 0.02358 0.35775 0.34438
 C1130 C 0.03451 0.35452 0.32380
 C1131 C 0.03430 0.33323 0.31352
 C1132 C 0.02316 0.31524 0.32375
 C1133 C 0.07757 0.42261 0.28736
 C1134 C 0.01242 0.33980 0.35464
 C1135 C 0.04607 0.37303 0.31336
 C1136 C 0.05584 0.38860 0.30484
 C1137 C 0.06744 0.40692 0.29522
 C1138 C 0.01207 0.31834 0.34442
 H1139 H 0.02373 0.37414 0.35253
 H1140 H 0.04269 0.33056 0.29757
 H1141 H 0.02294 0.29900 0.31535
 H1142 H 0.00429 0.34264 0.37068
 C1143 C 0.52390 0.86135 0.84347
 C1144 C 0.53487 0.85797 0.82293
 C1145 C 0.53467 0.83661 0.81280
 C1146 C 0.52350 0.81870 0.82313
 C1147 C 0.57799 0.92589 0.78625
 C1148 C 0.51271 0.84347 0.85383
 C1149 C 0.54646 0.87640 0.81239
 C1150 C 0.55624 0.89193 0.80381
 C1151 C 0.56786 0.91021 0.79413
 C1152 C 0.51236 0.82194 0.84376
 H1153 H 0.52405 0.87779 0.85151
 H1154 H 0.54310 0.83382 0.79689
 H1155 H 0.52328 0.80240 0.81484
 H1156 H 0.50455 0.84643 0.86983
 C1157 C 0.64598 0.52400 0.14017
 C1158 C 0.66625 0.53556 0.14331
 C1159 C 0.67619 0.53633 0.16465
 C1160 C 0.66595 0.52554 0.18279
 C1161 C 0.70538 0.57783 0.07637
 C1162 C 0.63570 0.51317 0.15830
 C1163 C 0.67686 0.54674 0.12470
 C1164 C 0.68585 0.55628 0.10929
 C1165 C 0.69640 0.56773 0.09144
 C1166 C 0.64560 0.51381 0.17982
 H1167 H 0.63810 0.52337 0.12373
 H1168 H 0.69190 0.54520 0.16726
 H1169 H 0.67414 0.52606 0.19907
 H1170 H 0.61992 0.50450 0.15554
 C1171 C 0.14590 1.02137 0.64182
 C1172 C 0.16618 1.03290 0.64501
 C1173 C 0.17597 1.03381 0.66641
 C1174 C 0.16557 1.02321 0.68457
 C1175 C 0.20570 1.07478 0.57808
 C1176 C 0.13546 1.01073 0.65997
 C1177 C 0.17693 1.04393 0.62640
 C1178 C 0.18601 1.05337 0.61098
 C1179 C 0.19666 1.06473 0.59313
 C1180 C 0.14520 1.01153 0.68155
 H1181 H 0.13813 1.02064 0.62534
 H1182 H 0.19169 1.04267 0.66906
 H1183 H 0.17364 1.02385 0.70090
 H1184 H 0.11967 1.00208 0.65717
 C1185 C 0.14904 0.98620 0.86080
 C1186 C 0.16954 0.97533 0.85705
 C1187 C 0.17909 0.97545 0.83557
 C1188 C 0.16818 0.98633 0.81787
 C1189 C 0.20981 0.93108 0.92205
 C1190 C 0.13809 0.99712 0.84311
 C1191 C 0.18062 0.96372 0.87513
 C1192 C 0.18990 0.95373 0.89009
 C1193 C 0.20070 0.94170 0.90742
 C1194 C 0.14753 0.99725 0.82142
 H1195 H 0.14144 0.98612 0.87735
 H1196 H 0.19497 0.96710 0.83250
 H1197 H 0.17602 0.98641 0.80144
 H1198 H 0.12209 1.00516 0.84630
 C1199 C 0.65016 0.48666 0.35890
 C1200 C 0.67060 0.47573 0.35501
 C1201 C 0.68013 0.47603 0.33352
 C1202 C 0.66925 0.48715 0.31594
 C1203 C 0.71053 0.43074 0.41971
 C1204 C 0.63924 0.49782 0.34134
 C1205 C 0.68165 0.46388 0.37295
 C1206 C 0.69087 0.45371 0.38783
 C1207 C 0.70155 0.44149 0.40509
 C1208 C 0.64864 0.49813 0.31965
 H1209 H 0.64259 0.48645 0.37546
 H1210 H 0.69597 0.46765 0.33034
 H1211 H 0.67705 0.48737 0.29951
 H1212 H 0.62328 0.50589 0.34465
 C1213 C 0.82025 0.49374 0.64441
 C1214 C 0.82353 0.47051 0.64180
 C1215 C 0.83640 0.45874 0.65756
 C1216 C 0.84597 0.47014 0.67587
 C1217 C 0.78928 0.42683 0.57250
 C1218 C 0.82983 0.50518 0.66269
 C1219 C 0.81384 0.45876 0.62287
 C1220 C 0.80588 0.44883 0.60701
 C1221 C 0.79679 0.43705 0.58841
 C1222 C 0.84281 0.49350 0.67863
 H1223 H 0.81029 0.50301 0.63232
 H1224 H 0.83911 0.44077 0.65566
 H1225 H 0.85611 0.46074 0.68769
 H1226 H 0.82685 0.52310 0.66452
 C1227 C 0.33780 -0.03965 0.15742
 C1228 C 0.32485 -0.02765 0.14190
 C1229 C 0.32175 -0.00443 0.14475
 C1230 C 0.33157 0.00678 0.16304
 C1231 C 0.28977 -0.07065 0.07260
 C1232 C 0.34763 -0.02848 0.17573
 C1233 C 0.31491 -0.03917 0.12297
 C1234 C 0.30675 -0.04893 0.10710
 C1235 C 0.29745 -0.06054 0.08850
 C1236 C 0.34465 -0.00513 0.17873
 H1237 H 0.34038 -0.05762 0.15533
 H1238 H 0.31172 0.00501 0.13285
 H1239 H 0.32873 0.02470 0.16506
 H1240 H 0.35783 -0.03805 0.18737
 C1241 C 0.33640 0.04498 0.34106
 C1242 C 0.32291 0.03289 0.35602
 C1243 C 0.31955 0.00975 0.35272
 C1244 C 0.32968 -0.00128 0.33455
 C1245 C 0.28682 0.07502 0.42511
 C1246 C 0.34654 0.03398 0.32287
 C1247 C 0.31266 0.04419 0.37486
 C1248 C 0.30425 0.05373 0.39068
 C1249 C 0.29467 0.06508 0.40924
 C1250 C 0.34332 0.01070 0.31943
 H1251 H 0.33917 0.06288 0.34351
 H1252 H 0.30910 0.00024 0.36417
 H1253 H 0.32663 -0.01915 0.33217
 H1254 H 0.35715 0.04361 0.31168
 C1255 C 0.83386 0.54503 0.84071
 C1256 C 0.82041 0.53305 0.85580
 C1257 C 0.81709 0.50988 0.85271
 C1258 C 0.82719 0.49870 0.83462
 C1259 C 0.78475 0.57578 0.92476
 C1260 C 0.84397 0.53388 0.82259
 C1261 C 0.81023 0.54450 0.87459
 C1262 C 0.80190 0.55418 0.89038
 C1263 C 0.79246 0.56570 0.90891
 C1264 C 0.84078 0.51058 0.81936
 H1265 H 0.83661 0.56296 0.84300
 H1266 H 0.80668 0.50045 0.86427
 H1267 H 0.82417 0.48082 0.83241
 H1268 H 0.85455 0.54343 0.81129
 C1269 C 0.14657 0.66869 0.51118
 C1270 C 0.14325 0.66535 0.53422
 C1271 C 0.15820 0.65184 0.54634
 C1272 C 0.17647 0.64180 0.53550
 C1273 C 0.07621 0.70465 0.57638
 C1274 C 0.16481 0.65866 0.50030
 C1275 C 0.12470 0.67603 0.54548
 C1276 C 0.10927 0.68505 0.55502
 C1277 C 0.09136 0.69565 0.56639
 C1278 C 0.18001 0.64515 0.51236
 H1279 H 0.13515 0.67918 0.50165
 H1280 H 0.15576 0.64912 0.56418
 H1281 H 0.18773 0.63129 0.54517
 H1282 H 0.16727 0.66182 0.48255
 C1283 C 0.66619 0.17572 1.03522
 C1284 C 0.64489 0.16580 1.03406
 C1285 C 0.64191 0.14552 1.02227
 C1286 C 0.66015 0.13524 1.01158
 C1287 C 0.57751 0.20519 1.07559
 C1288 C 0.68444 0.16547 1.02456
 C1289 C 0.62616 0.17646 1.04504
 C1290 C 0.61064 0.18549 1.05441
 C1291 C 0.59267 0.19613 1.06566
 C1292 C 0.68162 0.14513 1.01258
 H1293 H 0.66867 0.19144 1.04427
 H1294 H 0.62551 0.13765 1.02134
 H1295 H 0.65751 0.11946 1.00270
 H1296 H 0.70068 0.17367 1.02536
 C1297 C 0.83503 0.18067 0.97649
 C1298 C 0.85654 0.17123 0.97622
 C1299 C 0.86045 0.15064 0.98692
 C1300 C 0.84289 0.13947 0.99779
 C1301 C 0.92105 0.21189 0.93174
 C1302 C 0.81745 0.16953 0.98732
 C1303 C 0.87446 0.18250 0.96460
 C1304 C 0.88932 0.19190 0.95457
 C1305 C 0.90652 0.20277 0.94246
 C1306 C 0.82117 0.14877 0.99804
 H1307 H 0.83183 0.19662 0.96827
 H1308 H 0.87702 0.14313 0.98672
 H1309 H 0.84620 0.12339 1.00567
 H1310 H 0.80100 0.17727 0.98751
 C1311 C 0.33389 0.68199 0.47678
 C1312 C 0.35543 0.67261 0.47685
 C1313 C 0.35931 0.65221 0.48791
 C1314 C 0.34170 0.64118 0.49883
 C1315 C 0.42031 0.71271 0.43240
 C1316 C 0.31626 0.67098 0.48767
 C1317 C 0.37343 0.68374 0.46520
 C1318 C 0.38836 0.69301 0.45517
 C1319 C 0.40567 0.70372 0.44308
 C1320 C 0.31995 0.65042 0.49877
 H1321 H 0.33071 0.69778 0.46828
 H1322 H 0.37590 0.64476 0.48797
 H1323 H 0.34500 0.62524 0.50701
 H1324 H 0.29979 0.67867 0.48760
 C1325 C 0.66277 0.81586 0.47082
 C1326 C 0.64202 0.82688 0.47096
 C1327 C 0.63975 0.84752 0.48225
 C1328 C 0.65816 0.85711 0.49339
 C1329 C 0.57273 0.79227 0.42791
 C1330 C 0.68120 0.82542 0.48193
 C1331 C 0.62309 0.81713 0.45937
 C1332 C 0.60722 0.80910 0.44958
 C1333 C 0.58862 0.79990 0.43798
 C1334 C 0.67910 0.84617 0.49334
 H1335 H 0.66470 0.79986 0.46215
 H1336 H 0.62378 0.85624 0.48239
 H1337 H 0.65608 0.87322 0.50178
 H1338 H 0.69703 0.81646 0.48183
 C1339 C 0.14455 0.32101 -0.00585
 C1340 C 0.14174 0.32445 -0.02895
 C1341 C 0.15741 0.33736 -0.04078
 C1342 C 0.17582 0.34683 -0.02956
 C1343 C 0.07202 0.29049 -0.07181
 C1344 C 0.16294 0.33047 0.00542
 C1345 C 0.12269 0.31488 -0.04051
 C1346 C 0.10672 0.30701 -0.05026
 C1347 C 0.08801 0.29798 -0.06180
 C1348 C 0.17878 0.34351 -0.00631
 H1349 H 0.13254 0.31100 0.00346
 H1350 H 0.15535 0.34019 -0.05866
 H1351 H 0.18757 0.35701 -0.03899
 H1352 H 0.16492 0.32737 0.02325
 C1353 C 0.35902 0.34207 0.02013
 C1354 C 0.35613 0.32170 0.03155
 C1355 C 0.33497 0.31142 0.03202
 C1356 C 0.31677 0.32146 0.02110
 C1357 C 0.42470 0.28600 0.07431
 C1358 C 0.34085 0.35213 0.00919
 C1359 C 0.37483 0.31148 0.04295
 C1360 C 0.39053 0.30314 0.05263
 C1361 C 0.40895 0.29370 0.06418
 C1362 C 0.31951 0.34193 0.00954
 H1363 H 0.37530 0.35022 0.01976
 H1364 H 0.33256 0.29564 0.04079
 H1365 H 0.30062 0.31307 0.02143
 H1366 H 0.34342 0.36803 0.00070
 C1367 C 0.85921 0.84282 0.51991
 C1368 C 0.85600 0.82264 0.53159
 C1369 C 0.83468 0.81273 0.53221
 C1370 C 0.81663 0.82292 0.52117
 C1371 C 0.92393 0.78620 0.57475
 C1372 C 0.84119 0.85304 0.50885
 C1373 C 0.87454 0.81226 0.54310
 C1374 C 0.89009 0.80375 0.55287
 C1375 C 0.90833 0.79410 0.56453
 C1376 C 0.81969 0.84319 0.50935
 H1377 H 0.87562 0.85070 0.51942
 H1378 H 0.83201 0.79710 0.54118
 H1379 H 0.80035 0.81479 0.52162
 H1380 H 0.84401 0.86878 0.50015
   
