data_POSCAR
  _audit_creation_date              2014-09-24
  _audit_creation_method            'ToBaCCo'
  _symmetry_space_group_name_H-M    'P1'
  _symmetry_Int_Tables_number       1
  _symmetry_cell_setting            triclinic
  loop_
  _symmetry_equiv_pos_as_xyz
 x,y,z
_cell_length_a 34.8384
_cell_length_b 35.2920
_cell_length_c 38.1501
_cell_angle_alpha 90.062600
_cell_angle_beta 89.901800
_cell_angle_gamma 88.320500
loop_
  _atom_site_label
  _atom_site_type_symbol
  _atom_site_fract_x
  _atom_site_fract_y
  _atom_site_fract_z
C1 C 0.40177 -0.00705 0.24846
 C2 C 0.09237 0.00338 0.75290
 C3 C 0.60312 0.51251 0.25004
 C4 C 0.90084 0.49360 0.75163
 C5 C 0.25664 0.34081 0.99663
 C6 C 0.74031 0.15371 0.99884
 C7 C 0.25132 0.65244 0.50223
 C8 C 0.74880 0.84963 0.50206
 C9 C 0.00373 0.24838 0.37430
 C10 C 0.00513 0.74525 0.12615
 C11 C 0.49382 0.25052 0.61946
 C12 C 0.49233 0.74357 0.87399
 C13 C -0.25467 0.65306 1.00105
 C14 C -0.23898 0.34476 0.49882
 C15 C 0.25145 -0.15477 -0.00138
 C16 C 0.23922 1.15980 0.49914
 C17 C 0.10346 0.50234 0.24964
 C18 C -0.09771 1.00666 0.25195
 C19 C 0.39969 0.49764 -0.25025
 C20 C 0.59510 0.00434 -0.25185
 C21 C -0.00631 0.24572 0.87913
 C22 C 0.50559 0.24144 0.12204
 C23 C -0.00777 0.75009 0.61898
 C24 C 0.50482 0.74794 0.38153
 Zr25 Zr 0.03026 -0.03028 1.05295
 O26 O 0.07173 -0.01330 1.08980
 O27 O 0.02184 -0.08578 1.06867
 O28 O 0.00780 -0.02397 1.10506
 O29 O 0.09741 -0.04924 0.98678
 O30 O -0.04897 0.00867 1.09662
 O31 O 0.08528 -0.05838 1.04488
 O32 O -0.02359 -0.10722 1.03104
 O33 O -0.02914 -0.03652 1.04583
 O34 O 0.02288 -0.05850 1.00524
 O35 O 0.00584 0.02502 1.05272
 O36 O 0.05688 0.00335 1.01477
 Zr37 Zr -0.03672 0.02427 0.95682
 Zr38 Zr -0.05277 0.01854 1.04293
 Zr39 Zr 0.04639 -0.02435 0.96733
 Zr40 Zr -0.03595 -0.06253 0.99702
 O41 O 0.09423 0.00469 0.94773
 O42 O -0.08838 -0.07737 1.02098
 O43 O -0.01210 -0.03109 0.95635
 O44 O -0.06271 -0.00899 0.99532
 O45 O -0.02965 0.05299 1.00446
 O46 O 0.02247 0.03026 0.96475
 C47 C 0.00038 -0.11144 1.05623
 C48 C 0.10703 -0.06166 1.01723
 C49 C -0.02310 -0.00653 1.11636
 O50 O -0.10331 -0.00851 1.05884
 O51 O -0.10057 0.05006 1.02487
 O52 O -0.09058 0.05507 0.96592
 C53 C -0.11055 0.06202 0.99437
 O54 O 0.07367 0.06387 1.05024
 Zr55 Zr 0.02933 0.05699 1.01274
 O56 O -0.02978 0.07958 0.94171
 O57 O -0.05872 0.07050 1.07047
 O58 O 0.01231 0.10237 1.04640
 O59 O 0.07931 0.07553 0.98680
 O60 O 0.01177 0.10322 0.98194
 C61 C -0.01067 0.10614 0.95543
 O62 O -0.07821 0.00633 0.92051
 O63 O 0.05707 -0.07736 0.94244
 O64 O -0.01217 0.02024 0.90467
 O65 O 0.03893 -0.02019 0.91368
 O66 O -0.01771 -0.10991 0.96634
 O67 O -0.07554 -0.07176 0.95575
 C68 C 0.01786 0.00071 0.89369
 H69 H 0.03597 -0.08376 1.00437
 H70 H -0.09049 -0.01152 0.99077
 H71 H 0.03469 0.04501 0.94594
 H72 H 0.01049 0.03831 1.07510
 H73 H -0.09136 -0.10497 1.01758
 H74 H -0.11640 0.00850 1.07606
 H75 H -0.08234 0.06927 1.08488
 H76 H 0.02758 0.12459 1.03999
 H77 H -0.03369 -0.13156 0.97300
 H78 H 0.08127 -0.07544 0.92892
 H79 H 0.10810 -0.01290 0.93152
 H80 H 0.08064 0.10323 0.99065
 H81 H -0.08771 -0.09649 0.95914
 H82 H -0.08397 0.02837 0.90509
 H83 H 0.07743 -0.03547 1.10511
 H84 H 0.08238 0.09032 1.04961
 Zr85 Zr 0.53702 0.46653 0.54953
 O86 O 0.57566 0.47779 0.59071
 O87 O 0.52728 0.40946 0.55787
 O88 O 0.50983 0.46878 0.60096
 O89 O 0.60664 0.45030 0.48508
 O90 O 0.45468 0.50363 0.59131
 O91 O 0.59249 0.43854 0.54244
 O92 O 0.48437 0.39398 0.51510
 O93 O 0.47820 0.46259 0.53758
 O94 O 0.53266 0.44434 0.49855
 O95 O 0.51367 0.52210 0.55280
 O96 O 0.56714 0.50310 0.51608
 Zr97 Zr 0.47858 0.53361 0.45486
 Zr98 Zr 0.45581 0.51825 0.53847
 Zr99 Zr 0.55955 0.48140 0.46532
 Zr100 Zr 0.47473 0.44264 0.48591
 O101 O 0.61073 0.50933 0.45275
 O102 O 0.42058 0.42637 0.50538
 O103 O 0.50184 0.47795 0.45034
 O104 O 0.44929 0.49657 0.48784
 O105 O 0.48252 0.55685 0.50537
 O106 O 0.53728 0.53630 0.46689
 C107 C 0.50586 0.38656 0.54140
 C108 C 0.61442 0.43508 0.51488
 C109 C 0.47828 0.48607 0.61174
 O110 O 0.40479 0.48940 0.54974
 O111 O 0.40793 0.54900 0.51983
 O112 O 0.42460 0.56406 0.46375
 C113 C 0.40105 0.56511 0.49037
 O114 O 0.58011 0.55997 0.56043
 Zr115 Zr 0.54110 0.55736 0.51774
 O116 O 0.49288 0.58888 0.44342
 O117 O 0.44776 0.56804 0.56891
 O118 O 0.51998 0.60077 0.55178
 O119 O 0.59560 0.57433 0.49968
 O120 O 0.53278 0.60610 0.48789
 C121 C 0.51485 0.61189 0.45912
 O122 O 0.43760 0.52455 0.41507
 O123 O 0.56742 0.43151 0.43517
 O124 O 0.50324 0.52896 0.40312
 O125 O 0.55775 0.49278 0.41152
 O126 O 0.49399 0.39883 0.45144
 O127 O 0.43801 0.43913 0.44163
 C128 C 0.53391 0.51095 0.39167
 H129 H 0.54514 0.41897 0.49576
 H130 H 0.42198 0.49478 0.48110
 H131 H 0.55203 0.55138 0.44996
 H132 H 0.51659 0.53298 0.57653
 H133 H 0.41755 0.39926 0.49951
 H134 H 0.38968 0.50523 0.56660
 H135 H 0.42240 0.56646 0.58056
 H136 H 0.53638 0.62302 0.54877
 H137 H 0.47695 0.37707 0.45457
 H138 H 0.59343 0.43261 0.42487
 H139 H 0.62488 0.49304 0.43562
 H140 H 0.59858 0.60121 0.50643
 H141 H 0.42433 0.41494 0.44236
 H142 H 0.43500 0.54854 0.40161
 H143 H 0.57911 0.45390 0.60419
 H144 H 0.58807 0.58645 0.56369
 Zr145 Zr 0.45974 1.02893 0.54830
 O146 O 0.41983 1.01472 0.58764
 O147 O 0.47248 1.08335 0.56222
 O148 O 0.48676 1.02556 0.59914
 O149 O 0.39330 1.05339 0.48356
 O150 O 0.54115 0.98963 0.58878
 O151 O 0.40587 1.06021 0.54194
 O152 O 0.51715 1.10199 0.52232
 O153 O 0.51895 1.03136 0.53816
 O154 O 0.46685 1.05517 0.49943
 O155 O 0.48108 0.97272 0.54926
 O156 O 0.42911 0.99667 0.51188
 Zr157 Zr 0.51935 0.96694 0.45193
 Zr158 Zr 0.53950 0.97525 0.53622
 Zr159 Zr 0.43987 1.02156 0.46300
 Zr160 Zr 0.52533 1.05569 0.48870
 O161 O 0.38841 0.99619 0.44714
 O162 O 0.57965 1.06943 0.50939
 O163 O 0.49840 1.02374 0.45021
 O164 O 0.54880 1.00061 0.48766
 O165 O 0.51212 0.94047 0.50053
 O166 O 0.46004 0.96561 0.46188
 C167 C 0.49509 1.10732 0.54890
 C168 C 0.38498 1.06667 0.51414
 C169 C 0.51896 1.00924 0.60898
 O170 O 0.59133 1.00274 0.54713
 O171 O 0.58522 0.94125 0.51725
 O172 O 0.57351 0.93608 0.45878
 C173 C 0.59487 0.93026 0.48638
 O174 O 0.41146 0.93973 0.55212
 Zr175 Zr 0.45295 0.94164 0.51130
 O176 O 0.50618 0.91139 0.44022
 O177 O 0.54545 0.92542 0.56683
 O178 O 0.47007 0.89581 0.54425
 O179 O 0.39915 0.92721 0.48983
 O180 O 0.46089 0.89405 0.48023
 C181 C 0.48331 0.88801 0.45432
 O182 O 0.56055 0.97746 0.41252
 O183 O 0.43422 1.07350 0.43564
 O184 O 0.49604 0.97405 0.40042
 O185 O 0.44398 1.01370 0.40882
 O186 O 0.50759 1.10242 0.45714
 O187 O 0.56352 1.06099 0.44557
 C188 C 0.46724 0.99460 0.38902
 H189 H 0.45557 1.08122 0.49842
 H190 H 0.57642 1.00174 0.48178
 H191 H 0.44596 0.95155 0.44373
 H192 H 0.47731 0.96100 0.57253
 H193 H 0.58354 1.09668 0.50476
 H194 H 0.60887 0.98413 0.55870
 H195 H 0.57063 0.92631 0.57886
 H196 H 0.45222 0.87491 0.54014
 H197 H 0.52447 1.12372 0.46273
 H198 H 0.40871 1.07376 0.42423
 H199 H 0.37518 1.01434 0.43111
 H200 H 0.39434 0.90055 0.49626
 H201 H 0.57607 1.08577 0.44682
 H202 H 0.56325 0.95412 0.39806
 H203 H 0.41639 1.03744 0.60278
 H204 H 0.40196 0.91366 0.55415
 Zr205 Zr -0.03213 0.52144 1.05090
 O206 O -0.07265 0.50463 1.08877
 O207 O -0.02358 0.57691 1.06553
 O208 O -0.00761 0.51781 1.10254
 O209 O -0.10117 0.53808 0.98621
 O210 O 0.04891 0.48456 1.09423
 O211 O -0.08683 0.55011 1.04344
 O212 O 0.01800 0.59968 1.02483
 O213 O 0.02674 0.52882 1.04195
 O214 O -0.02693 0.54820 1.00221
 O215 O -0.00663 0.46678 1.05172
 O216 O -0.05930 0.48621 1.01445
 Zr217 Zr 0.03324 0.46560 0.95421
 Zr218 Zr 0.05144 0.47411 1.04014
 Zr219 Zr -0.05093 0.51234 0.96587
 Zr220 Zr 0.03135 0.55356 0.99228
 O221 O -0.09964 0.48200 0.95035
 O222 O 0.08359 0.57086 1.01489
 O223 O 0.00704 0.52028 0.95306
 O224 O 0.05934 0.50051 0.99150
 O225 O 0.02809 0.43825 1.00292
 O226 O -0.02550 0.45839 0.96413
 C227 C -0.00366 0.60299 1.05188
 C228 C -0.10922 0.55262 1.01625
 C229 C 0.02370 0.50113 1.11398
 O230 O 0.10177 0.50270 1.05387
 O231 O 0.09826 0.44195 1.02066
 O232 O 0.08839 0.43725 0.96165
 C233 C 0.10832 0.43040 0.98993
 O234 O -0.07326 0.42618 1.05215
 Zr235 Zr -0.03042 0.43333 1.01314
 O236 O 0.02759 0.40925 0.94063
 O237 O 0.05964 0.42341 1.06914
 O238 O -0.01069 0.38921 1.04692
 O239 O -0.08094 0.41286 0.98963
 O240 O -0.01345 0.38727 0.98242
 C241 C 0.00801 0.38365 0.95534
 O242 O 0.07342 0.48369 0.91661
 O243 O -0.06176 0.56384 0.93867
 O244 O 0.00778 0.46930 0.90235
 O245 O -0.04769 0.50373 0.91216
 O246 O 0.01157 0.59928 0.96041
 O247 O 0.06987 0.56177 0.94986
 C248 C -0.02435 0.48552 0.89186
 H249 H -0.04030 0.57329 1.00096
 H250 H 0.08691 0.50358 0.98625
 H251 H -0.03795 0.44279 0.94607
 H252 H -0.01045 0.45419 1.07458
 H253 H 0.08555 0.59845 1.01072
 H254 H 0.11644 0.48570 1.06996
 H255 H 0.08385 0.42567 1.08250
 H256 H -0.02541 0.36635 1.04140
 H257 H 0.02778 0.62124 0.96546
 H258 H -0.08680 0.56162 0.92663
 H259 H -0.11493 0.49879 0.93453
 H260 H -0.08148 0.38523 0.99412
 H261 H 0.08218 0.58654 0.95253
 H262 H 0.07896 0.46168 0.90103
 H263 H -0.07808 0.52698 1.10396
 H264 H -0.08058 0.39929 1.05289
 Zr265 Zr -0.02292 0.46942 0.45227
 O266 O -0.06366 0.48565 0.41365
 O267 O -0.00934 0.41505 0.43615
 O268 O 0.00286 0.47650 0.40106
 O269 O -0.09160 0.44829 0.51597
 O270 O 0.05787 0.50696 0.41369
 O271 O -0.07583 0.43995 0.45823
 O272 O 0.03495 0.39262 0.47556
 O273 O 0.03630 0.46410 0.46224
 O274 O -0.01598 0.44093 0.50026
 O275 O -0.00307 0.52486 0.45368
 O276 O -0.05452 0.50127 0.48987
 Zr277 Zr 0.03419 0.52455 0.55205
 Zr278 Zr 0.05514 0.51952 0.46683
 Zr279 Zr -0.04402 0.47402 0.53798
 Zr280 Zr 0.04257 0.43750 0.51084
 O281 O -0.09562 0.50129 0.55528
 O282 O 0.09715 0.42461 0.48843
 O283 O 0.01448 0.46848 0.55091
 O284 O 0.06469 0.49177 0.51457
 O285 O 0.02691 0.55294 0.50413
 O286 O -0.02496 0.52909 0.54152
 C287 C 0.01273 0.38911 0.44899
 C288 C -0.09834 0.43576 0.48515
 C289 C 0.03474 0.49225 0.39188
 O290 O 0.11021 0.49615 0.45458
 O291 O 0.09747 0.55418 0.48680
 O292 O 0.08681 0.55565 0.54582
 C293 C 0.10626 0.56471 0.51787
 O294 O -0.07526 0.55880 0.45379
 Zr295 Zr -0.03185 0.55518 0.49284
 O296 O 0.01971 0.57988 0.56654
 O297 O 0.05505 0.57152 0.43929
 O298 O -0.01990 0.60129 0.45926
 O299 O -0.08381 0.57277 0.51788
 O300 O -0.01859 0.60220 0.52199
 C301 C 0.00018 0.60576 0.55037
 O302 O 0.07551 0.50947 0.59052
 O303 O -0.04908 0.42035 0.56207
 O304 O 0.00873 0.51665 0.60337
 O305 O -0.04194 0.47896 0.59247
 O306 O 0.02677 0.38949 0.54037
 O307 O 0.08113 0.42801 0.55327
 C308 C -0.02042 0.49698 0.61356
 H309 H -0.02695 0.41538 0.50026
 H310 H 0.09239 0.48990 0.52028
 H311 H -0.03926 0.54327 0.56003
 H312 H -0.00729 0.53789 0.43099
 H313 H 0.10195 0.39690 0.49067
 H314 H 0.12344 0.51496 0.43998
 H315 H 0.07722 0.57041 0.42309
 H316 H -0.03881 0.62209 0.46449
 H317 H 0.04451 0.36815 0.53385
 H318 H -0.07540 0.41938 0.57181
 H319 H -0.10935 0.48287 0.56993
 H320 H -0.08762 0.60027 0.51335
 H321 H 0.09565 0.40380 0.54953
 H322 H 0.07763 0.53177 0.60618
 H323 H -0.06638 0.46346 0.39795
 H324 H -0.08865 0.58390 0.45506
 Zr325 Zr 0.46839 -0.03079 -0.05288
 O326 O 0.42721 -0.01058 -0.08960
 O327 O 0.47879 -0.08565 -0.07062
 O328 O 0.49206 -0.02347 -0.10427
 O329 O 0.40146 -0.05272 0.01144
 O330 O 0.54822 0.00630 -0.09374
 O331 O 0.41399 -0.05802 -0.04703
 O332 O 0.52377 -0.11019 -0.03284
 O333 O 0.52782 -0.03944 -0.04485
 O334 O 0.47539 -0.06082 -0.00592
 O335 O 0.49170 0.02355 -0.05042
 O336 O 0.44000 0.00242 -0.01421
 Zr337 Zr 0.53184 0.01740 0.04624
 Zr338 Zr 0.55032 0.01458 -0.03975
 Zr339 Zr 0.44984 -0.02720 0.03255
 Zr340 Zr 0.53412 -0.06744 0.00316
 O341 O 0.39985 0.00417 0.04776
 O342 O 0.58759 -0.08323 -0.02005
 O343 O 0.50825 -0.03686 0.04442
 O344 O 0.55980 -0.01506 0.00712
 O345 O 0.52527 0.04806 -0.00057
 O346 O 0.47281 0.02630 0.03744
 C347 C 0.50044 -0.11255 -0.05860
 C348 C 0.39234 -0.06296 -0.01964
 C349 C 0.52306 -0.00715 -0.11444
 O350 O 0.60223 -0.01353 -0.05486
 O351 O 0.59605 0.04522 -0.01957
 O352 O 0.58446 0.04729 0.03942
 C353 C 0.60432 0.05570 0.01166
 O354 O 0.42190 0.06421 -0.04699
 Zr355 Zr 0.46653 0.05486 -0.00980
 O356 O 0.52409 0.07244 0.06342
 O357 O 0.55572 0.06686 -0.06627
 O358 O 0.48274 0.10041 -0.04236
 O359 O 0.41666 0.07617 0.01642
 O360 O 0.48454 0.09912 0.02205
 C361 C 0.50659 0.10061 0.04892
 O362 O 0.57347 -0.00369 0.08204
 O363 O 0.44125 -0.07954 0.05810
 O364 O 0.50715 0.01084 0.09781
 O365 O 0.45244 -0.02104 0.08656
 O366 O 0.51666 -0.11586 0.03126
 O367 O 0.57240 -0.07940 0.04532
 C368 C 0.47556 -0.00499 0.10759
 H369 H 0.46314 -0.08578 -0.00605
 H370 H 0.58754 -0.01862 0.01217
 H371 H 0.46008 0.04114 0.05642
 H372 H 0.48724 0.03775 -0.07246
 H373 H 0.59105 -0.11108 -0.01763
 H374 H 0.61575 0.00395 -0.07066
 H375 H 0.58042 0.06561 -0.07924
 H376 H 0.46718 0.12311 -0.03524
 H377 H 0.53387 -0.13746 0.02433
 H378 H 0.41593 -0.07760 0.06997
 H379 H 0.38267 -0.01366 0.05956
 H380 H 0.41554 0.10400 0.01294
 H381 H 0.58607 -0.10398 0.04107
 H382 H 0.57852 0.01735 0.09850
 H383 H 0.42243 -0.03178 -0.10598
 H384 H 0.41311 0.09114 -0.04626
 Zr385 Zr 0.53149 0.52203 -0.04684
 O386 O 0.57238 0.50334 -0.08453
 O387 O 0.51968 0.57671 -0.06284
 O388 O 0.50532 0.51781 -0.09825
 O389 O 0.59796 0.54252 0.01820
 O390 O 0.44848 0.48969 -0.08685
 O391 O 0.58533 0.55100 -0.03992
 O392 O 0.47645 0.60079 -0.02280
 O393 O 0.47231 0.53028 -0.03708
 O394 O 0.52465 0.55030 0.00131
 O395 O 0.50818 0.46774 -0.04609
 O396 O 0.56034 0.48764 -0.00948
 Zr397 Zr 0.46929 0.46909 0.05192
 Zr398 Zr 0.44993 0.47631 -0.03379
 Zr399 Zr 0.55042 0.51538 0.03840
 Zr400 Zr 0.46627 0.55643 0.01189
 O401 O 0.60110 0.48526 0.05363
 O402 O 0.41267 0.57397 -0.00986
 O403 O 0.49228 0.52381 0.05158
 O404 O 0.44102 0.50357 0.01445
 O405 O 0.47542 0.44080 0.00365
 O406 O 0.52829 0.46143 0.04174
 C407 C 0.49792 0.60301 -0.05002
 C408 C 0.60617 0.55614 -0.01192
 C409 C 0.47223 0.50483 -0.10791
 O410 O 0.39792 0.50643 -0.04480
 O411 O 0.40499 0.44453 -0.01471
 O412 O 0.41667 0.43916 0.04401
 C413 C 0.39653 0.43278 0.01593
 O414 O 0.57707 0.42622 -0.04573
 Zr415 Zr 0.53402 0.43499 -0.00677
 O416 O 0.47802 0.41321 0.06737
 O417 O 0.44367 0.42653 -0.06407
 O418 O 0.51610 0.39044 -0.03976
 O419 O 0.58542 0.41408 0.01694
 O420 O 0.51859 0.38982 0.02502
 C421 C 0.49735 0.38644 0.05231
 O422 O 0.42765 0.48784 0.08890
 O423 O 0.55833 0.56734 0.06499
 O424 O 0.49460 0.47490 0.10356
 O425 O 0.54751 0.50935 0.09217
 O426 O 0.48515 0.60256 0.04239
 O427 O 0.42771 0.56689 0.05430
 C428 C 0.52563 0.49192 0.11324
 H429 H 0.53649 0.57543 0.00191
 H430 H 0.41335 0.50682 0.02005
 H431 H 0.54168 0.44632 0.06011
 H432 H 0.51179 0.45480 -0.06895
 H433 H 0.40967 0.60173 -0.00640
 H434 H 0.38093 0.48879 -0.05707
 H435 H 0.41857 0.42886 -0.07625
 H436 H 0.53159 0.36740 -0.03364
 H437 H 0.46886 0.62505 0.03624
 H438 H 0.58294 0.56508 0.07797
 H439 H 0.61563 0.50239 0.06896
 H440 H 0.58693 0.38632 0.01296
 H441 H 0.41587 0.59262 0.05201
 H442 H 0.42331 0.46602 0.10463
 H443 H 0.57650 0.52517 -0.10030
 H444 H 0.58545 0.39917 -0.04607
 Zr445 Zr 0.02484 1.03175 0.45723
 O446 O 0.06702 1.01412 0.42025
 O447 O 0.01055 1.08502 0.43907
 O448 O 0.00056 1.02612 0.40571
 O449 O 0.09080 1.05511 0.52234
 O450 O -0.05385 0.99321 0.41559
 O451 O 0.07699 1.06197 0.46406
 O452 O -0.03611 1.10759 0.47652
 O453 O -0.03478 1.03606 0.46503
 O454 O 0.01531 1.06150 0.50429
 O455 O 0.00575 0.97601 0.45816
 O456 O 0.05536 1.00149 0.49629
 Zr457 Zr -0.03556 0.97749 0.55428
 Zr458 Zr -0.05334 0.98050 0.46892
 Zr459 Zr 0.04218 1.02974 0.54357
 Zr460 Zr -0.04374 1.06382 0.51278
 O461 O 0.09250 1.00362 0.56467
 O462 O -0.09789 1.07675 0.48974
 O463 O -0.01704 1.03396 0.55391
 O464 O -0.06521 1.00915 0.51589
 O465 O -0.02566 0.94807 0.50731
 O466 O 0.02410 0.97410 0.54667
 C467 C -0.01365 1.11019 0.44999
 C468 C 0.09871 1.06672 0.49132
 C469 C -0.03099 1.01082 0.39537
 O470 O -0.10690 1.00607 0.45555
 O471 O -0.09735 0.94664 0.48842
 O472 O -0.08683 0.94550 0.54741
 C473 C -0.10638 0.93672 0.51967
 O474 O 0.07830 0.94357 0.46054
 Zr475 Zr 0.03379 0.94709 0.49867
 O476 O -0.02165 0.92220 0.56923
 O477 O -0.05477 0.92930 0.44005
 O478 O 0.02251 0.90002 0.46598
 O479 O 0.08578 0.93158 0.52451
 O480 O 0.02293 0.90055 0.52950
 C481 C -0.00010 0.89627 0.55511
 O482 O -0.07899 0.99236 0.59108
 O483 O 0.04701 1.08423 0.56619
 O484 O -0.01387 0.98640 0.60593
 O485 O 0.03495 1.02740 0.59820
 O486 O -0.02915 1.11258 0.54184
 O487 O -0.08366 1.07272 0.55440
 C488 C 0.01275 1.00798 0.61769
 H489 H 0.02578 1.08728 0.50388
 H490 H -0.09309 1.01074 0.52096
 H491 H 0.03751 0.96041 0.56594
 H492 H 0.01102 0.96298 0.43559
 H493 H -0.10299 1.10437 0.49244
 H494 H -0.12061 0.98719 0.44152
 H495 H -0.07944 0.92962 0.42710
 H496 H 0.04147 0.87950 0.47177
 H497 H -0.04689 1.13357 0.53455
 H498 H 0.07144 1.08405 0.57948
 H499 H 0.10429 1.02254 0.58021
 H500 H 0.09131 0.90440 0.51951
 H501 H -0.09732 1.09747 0.55123
 H502 H -0.08163 0.97034 0.60698
 H503 H 0.07060 1.03581 0.40418
 H504 H 0.09066 0.91797 0.46110
 Zr505 Zr 0.73043 0.29807 0.19437
 O506 O 0.75258 0.33516 0.15638
 O507 O 0.67318 0.29625 0.17898
 O508 O 0.73004 0.27244 0.14320
 O509 O 0.72310 0.36851 0.25938
 O510 O 0.75582 0.21278 0.15169
 O511 O 0.70772 0.35488 0.20266
 O512 O 0.64592 0.25898 0.22064
 O513 O 0.71592 0.24157 0.20394
 O514 O 0.70334 0.29697 0.24335
 O515 O 0.78242 0.26595 0.19329
 O516 O 0.77017 0.32024 0.23014
 Zr517 Zr 0.77947 0.22835 0.29032
 Zr518 Zr 0.76789 0.21013 0.20533
 Zr519 Zr 0.74320 0.31625 0.27911
 Zr520 Zr 0.69063 0.24097 0.25368
 O521 O 0.78090 0.35959 0.29339
 O522 O 0.66638 0.19164 0.23228
 O523 O 0.72780 0.26088 0.29213
 O524 O 0.74053 0.20659 0.25413
 O525 O 0.80765 0.22896 0.24173
 O526 O 0.79428 0.28457 0.28048
 C527 C 0.64488 0.27919 0.19273
 C528 C 0.70804 0.37734 0.22981
 C529 C 0.74141 0.23907 0.13215
 O530 O 0.73240 0.16436 0.19308
 O531 O 0.79379 0.15985 0.22504
 O532 O 0.80567 0.17337 0.28247
 C533 C 0.80788 0.15135 0.25524
 O534 O 0.83277 0.32510 0.19147
 Zr535 Zr 0.82007 0.28527 0.23129
 O536 O 0.83614 0.22953 0.30578
 O537 O 0.81736 0.19536 0.17541
 O538 O 0.86151 0.25925 0.19755
 O539 O 0.84744 0.33243 0.25365
 O540 O 0.86488 0.26356 0.26268
 C541 C 0.86526 0.24399 0.29104
 O542 O 0.75710 0.18922 0.32643
 O543 O 0.69318 0.33393 0.30703
 O544 O 0.77635 0.25147 0.34228
 O545 O 0.75209 0.31135 0.33293
 O546 O 0.64681 0.26658 0.28516
 O547 O 0.67781 0.20578 0.29707
 C548 C 0.76481 0.28477 0.35310
 H549 H 0.67954 0.31291 0.24465
 H550 H 0.73427 0.18013 0.25994
 H551 H 0.81141 0.29494 0.29858
 H552 H 0.79516 0.26764 0.17016
 H553 H 0.63832 0.19342 0.23659
 H554 H 0.74724 0.14759 0.17682
 H555 H 0.81234 0.17102 0.16349
 H556 H 0.88667 0.27024 0.20299
 H557 H 0.62256 0.25372 0.27991
 H558 H 0.69901 0.35796 0.31910
 H559 H 0.76616 0.37756 0.30857
 H560 H 0.87532 0.32928 0.24886
 H561 H 0.65134 0.19661 0.29471
 H562 H 0.77858 0.18133 0.34209
 H563 H 0.73061 0.34321 0.14137
 H564 H 0.86088 0.32831 0.19022
 Zr565 Zr 0.77551 0.71718 0.70492
 O566 O 0.75992 0.67692 0.66681
 O567 O 0.83063 0.72807 0.68953
 O568 O 0.77016 0.74243 0.65277
 O569 O 0.79995 0.65292 0.77196
 O570 O 0.73570 0.79709 0.66327
 O571 O 0.80461 0.66248 0.71287
 O572 O 0.85045 0.77455 0.72658
 O573 O 0.77987 0.77578 0.71357
 O574 O 0.80343 0.72494 0.75314
 O575 O 0.71921 0.73990 0.70491
 O576 O 0.74262 0.68950 0.74314
 Zr577 Zr 0.71692 0.78173 0.80137
 Zr578 Zr 0.72377 0.79771 0.71616
 Zr579 Zr 0.76927 0.70071 0.79124
 Zr580 Zr 0.80584 0.78292 0.76240
 O581 O 0.74246 0.65100 0.80847
 O582 O 0.81993 0.83629 0.74119
 O583 O 0.77373 0.75872 0.80247
 O584 O 0.75093 0.80817 0.76376
 O585 O 0.68900 0.77344 0.75349
 O586 O 0.71322 0.72290 0.79310
 C587 C 0.85452 0.75228 0.70023
 C588 C 0.81137 0.64254 0.74120
 C589 C 0.75315 0.77407 0.64242
 O590 O 0.75059 0.84865 0.70232
 O591 O 0.68933 0.84302 0.73422
 O592 O 0.68719 0.83594 0.79345
 C593 C 0.67886 0.85437 0.76473
 O594 O 0.68360 0.67147 0.70618
 Zr595 Zr 0.68777 0.71496 0.74449
 O596 O 0.65974 0.77408 0.81428
 O597 O 0.67185 0.80104 0.68736
 O598 O 0.64125 0.72921 0.71073
 O599 O 0.67120 0.66474 0.77019
 O600 O 0.64034 0.73020 0.77449
 C601 C 0.63467 0.75317 0.80005
 O602 O 0.73268 0.82271 0.83882
 O603 O 0.82220 0.69477 0.81812
 O604 O 0.72246 0.75902 0.85329
 O605 O 0.76094 0.70614 0.84532
 O606 O 0.85463 0.76456 0.79166
 O607 O 0.81380 0.82027 0.80536
 C608 C 0.74217 0.72987 0.86486
 H609 H 0.82956 0.71314 0.75364
 H610 H 0.75291 0.83562 0.76853
 H611 H 0.69831 0.71044 0.81172
 H612 H 0.70645 0.73552 0.68216
 H613 H 0.84773 0.83977 0.74510
 H614 H 0.73127 0.86493 0.69010
 H615 H 0.67066 0.82593 0.67540
 H616 H 0.62008 0.71203 0.71624
 H617 H 0.87604 0.78108 0.78520
 H618 H 0.82105 0.67129 0.83226
 H619 H 0.76023 0.63845 0.82541
 H620 H 0.64346 0.66179 0.76573
 H621 H 0.83909 0.83216 0.80324
 H622 H 0.70984 0.82783 0.85386
 H623 H 0.78271 0.67273 0.65152
 H624 H 0.65793 0.66023 0.70746
 Zr625 Zr 0.21903 0.21746 0.79534
 O626 O 0.23905 0.17354 0.82890
 O627 O 0.16498 0.22810 0.81573
 O628 O 0.22761 0.23757 0.84803
 O629 O 0.19365 0.15742 0.72647
 O630 O 0.25994 0.29230 0.84013
 O631 O 0.18962 0.16521 0.78570
 O632 O 0.14091 0.27687 0.78237
 O633 O 0.21278 0.27684 0.79136
 O634 O 0.18727 0.22951 0.74987
 O635 O 0.27484 0.23843 0.79343
 O636 O 0.24975 0.19147 0.75373
 Zr637 Zr 0.26830 0.28625 0.69951
 Zr638 Zr 0.26826 0.29720 0.78636
 Zr639 Zr 0.21899 0.20680 0.70844
 Zr640 Zr 0.18298 0.28823 0.74501
 O641 O 0.24571 0.15808 0.68552
 O642 O 0.17065 0.33967 0.77209
 O643 O 0.21205 0.26560 0.70119
 O644 O 0.23720 0.31152 0.74115
 O645 O 0.30015 0.27430 0.74507
 O646 O 0.27426 0.22704 0.70425
 C647 C 0.13864 0.25214 0.80688
 C648 C 0.18322 0.14633 0.75692
 C649 C 0.24499 0.26718 0.85968
 O650 O 0.24364 0.34870 0.80558
 O651 O 0.30060 0.34249 0.76830
 O652 O 0.29948 0.33779 0.70866
 C653 C 0.30955 0.35456 0.73765
 O654 O 0.31111 0.16826 0.78482
 Zr655 Zr 0.30384 0.21535 0.75052
 O656 O 0.32345 0.27570 0.68115
 O657 O 0.32229 0.29686 0.81162
 O658 O 0.35195 0.22497 0.78306
 O659 O 0.32137 0.16754 0.72008
 O660 O 0.34924 0.23291 0.72019
 C661 C 0.35091 0.25531 0.69403
 O662 O 0.24892 0.33055 0.66609
 O663 O 0.16342 0.20547 0.68610
 O664 O 0.25885 0.26615 0.64662
 O665 O 0.22177 0.21467 0.65449
 O666 O 0.13187 0.27550 0.71782
 O667 O 0.17047 0.32955 0.70584
 C668 C 0.23903 0.23806 0.63478
 H669 H 0.16148 0.21846 0.75019
 H670 H 0.23452 0.33932 0.73810
 H671 H 0.28787 0.21528 0.68400
 H672 H 0.28940 0.23186 0.81494
 H673 H 0.14247 0.34430 0.77132
 H674 H 0.26270 0.35977 0.82159
 H675 H 0.32222 0.31920 0.82738
 H676 H 0.37340 0.20811 0.77486
 H677 H 0.11105 0.29247 0.72707
 H678 H 0.16074 0.18021 0.67520
 H679 H 0.22642 0.14617 0.67031
 H680 H 0.34953 0.16414 0.72289
 H681 H 0.14657 0.34387 0.71211
 H682 H 0.27021 0.33522 0.64948
 H683 H 0.21767 0.16823 0.84522
 H684 H 0.33707 0.15660 0.78160
 Zr685 Zr 0.28567 0.77302 0.29944
 O686 O 0.26862 0.81312 0.33814
 O687 O 0.34156 0.75932 0.31487
 O688 O 0.27944 0.74809 0.35045
 O689 O 0.31054 0.83805 0.23530
 O690 O 0.24635 0.69468 0.33879
 O691 O 0.31481 0.82597 0.29391
 O692 O 0.36120 0.71116 0.27812
 O693 O 0.29031 0.71428 0.28981
 O694 O 0.31486 0.76494 0.25179
 O695 O 0.22912 0.75354 0.29778
 O696 O 0.25317 0.80360 0.26171
 Zr697 Zr 0.23064 0.71552 0.19988
 Zr698 Zr 0.23419 0.69569 0.28547
 Zr699 Zr 0.28157 0.79254 0.21420
 Zr700 Zr 0.31753 0.70697 0.24134
 O701 O 0.25458 0.84422 0.19828
 O702 O 0.32990 0.65204 0.26170
 O703 O 0.28729 0.73488 0.20109
 O704 O 0.26272 0.68538 0.23790
 O705 O 0.20101 0.72312 0.24749
 O706 O 0.22565 0.77394 0.21001
 C707 C 0.36589 0.73428 0.30345
 C708 C 0.32173 0.84631 0.26627
 C709 C 0.26340 0.71693 0.35985
 O710 O 0.25869 0.64190 0.29831
 O711 O 0.19962 0.65342 0.26509
 O712 O 0.20002 0.66367 0.20595
 C713 C 0.19015 0.64475 0.23368
 O714 O 0.19277 0.82464 0.29656
 Zr715 Zr 0.19825 0.78117 0.25813
 O716 O 0.17410 0.72634 0.18596
 O717 O 0.18206 0.69381 0.31396
 O718 O 0.15171 0.76771 0.29137
 O719 O 0.18040 0.83239 0.23318
 O720 O 0.15104 0.76790 0.22729
 C721 C 0.14717 0.74582 0.20090
 O722 O 0.24760 0.67506 0.16152
 O723 O 0.33530 0.79728 0.18870
 O724 O 0.23761 0.74067 0.14853
 O725 O 0.27559 0.79047 0.16031
 O726 O 0.36773 0.72253 0.21398
 O727 O 0.32655 0.67055 0.19749
 C728 C 0.25687 0.77007 0.13900
 H729 H 0.34094 0.77535 0.25186
 H730 H 0.26469 0.65799 0.23231
 H731 H 0.21120 0.78779 0.19147
 H732 H 0.21585 0.75799 0.32045
 H733 H 0.35773 0.64655 0.25840
 H734 H 0.24043 0.62949 0.31427
 H735 H 0.18221 0.66928 0.32662
 H736 H 0.12982 0.78511 0.28546
 H737 H 0.38851 0.70399 0.22022
 H738 H 0.33503 0.82208 0.17649
 H739 H 0.27278 0.85702 0.18253
 H740 H 0.15241 0.83580 0.23724
 H741 H 0.35120 0.65620 0.20028
 H742 H 0.22521 0.67203 0.14583
 H743 H 0.29100 0.81629 0.35382
 H744 H 0.16632 0.83570 0.29615
 Zr745 Zr 0.21290 0.78166 0.70152
 O746 O 0.23140 0.82105 0.66373
 O747 O 0.15596 0.77579 0.68678
 O748 O 0.21890 0.75807 0.64950
 O749 O 0.19235 0.84858 0.76730
 O750 O 0.25042 0.70142 0.65909
 O751 O 0.18687 0.83710 0.70861
 O752 O 0.13406 0.73103 0.72470
 O753 O 0.20510 0.72332 0.70972
 O754 O 0.18428 0.77586 0.74958
 O755 O 0.26822 0.75613 0.70220
 O756 O 0.24707 0.80802 0.73957
 Zr757 Zr 0.26653 0.71609 0.79857
 Zr758 Zr 0.26031 0.69856 0.71290
 Zr759 Zr 0.21895 0.79914 0.78742
 Zr760 Zr 0.17876 0.71816 0.75879
 O761 O 0.24876 0.84699 0.80496
 O762 O 0.16250 0.66641 0.73560
 O763 O 0.21110 0.74167 0.79894
 O764 O 0.23227 0.69034 0.76071
 O765 O 0.29574 0.72170 0.75084
 O766 O 0.27365 0.77428 0.79010
 C767 C 0.13028 0.75430 0.69922
 C768 C 0.18135 0.85797 0.73635
 C769 C 0.23587 0.72685 0.63868
 O770 O 0.23129 0.64939 0.69758
 O771 O 0.29038 0.65041 0.73199
 O772 O 0.29833 0.66323 0.79019
 C773 C 0.30378 0.64208 0.76244
 O774 O 0.30820 0.82208 0.70298
 Zr775 Zr 0.30069 0.77976 0.74182
 O776 O 0.32208 0.72385 0.81479
 O777 O 0.31293 0.69063 0.68566
 O778 O 0.34695 0.76129 0.70920
 O779 O 0.31988 0.82965 0.76639
 O780 O 0.34667 0.76318 0.77355
 C781 C 0.34931 0.74201 0.80075
 O782 O 0.24868 0.67447 0.83443
 O783 O 0.16537 0.80795 0.81296
 O784 O 0.25918 0.73911 0.85062
 O785 O 0.22449 0.79405 0.84159
 O786 O 0.13063 0.73707 0.78886
 O787 O 0.16870 0.68052 0.80108
 C788 C 0.24098 0.76958 0.86177
 H789 H 0.15891 0.78920 0.75034
 H790 H 0.22910 0.66311 0.76583
 H791 H 0.28848 0.78638 0.80896
 H792 H 0.28188 0.75992 0.67977
 H793 H 0.13438 0.66443 0.73865
 H794 H 0.24857 0.63512 0.68128
 H795 H 0.31149 0.66646 0.67252
 H796 H 0.36947 0.77651 0.71524
 H797 H 0.10874 0.72107 0.78259
 H798 H 0.16511 0.83374 0.82323
 H799 H 0.23084 0.86189 0.82014
 H800 H 0.34763 0.83139 0.76119
 H801 H 0.14416 0.66768 0.79726
 H802 H 0.27077 0.66916 0.85023
 H803 H 0.20909 0.82700 0.64834
 H804 H 0.33521 0.83005 0.70294
 Zr805 Zr 0.27850 0.21067 0.19632
 O806 O 0.25696 0.17358 0.15799
 O807 O 0.33558 0.21296 0.18207
 O808 O 0.28060 0.23607 0.14525
 O809 O 0.28904 0.14104 0.26100
 O810 O 0.25373 0.29471 0.15531
 O811 O 0.30258 0.15467 0.20383
 O812 O 0.36143 0.25206 0.22300
 O813 O 0.29103 0.26758 0.20622
 O814 O 0.30511 0.21288 0.24550
 O815 O 0.22562 0.24083 0.19467
 O816 O 0.23964 0.18687 0.23192
 Zr817 Zr 0.22517 0.27920 0.29213
 Zr818 Zr 0.23801 0.29680 0.20756
 Zr819 Zr 0.26583 0.19237 0.28105
 Zr820 Zr 0.31570 0.26935 0.25596
 O821 O 0.23094 0.14684 0.29560
 O822 O 0.33819 0.31925 0.23406
 O823 O 0.27835 0.24861 0.29415
 O824 O 0.26438 0.30174 0.25645
 O825 O 0.19801 0.27691 0.24319
 O826 O 0.21349 0.22209 0.28176
 C827 C 0.36348 0.23026 0.19597
 C828 C 0.30344 0.13238 0.23092
 C829 C 0.26974 0.26985 0.13526
 O830 O 0.27109 0.34468 0.19623
 O831 O 0.20942 0.34593 0.22522
 O832 O 0.20002 0.33524 0.28341
 C833 C 0.19667 0.35619 0.25535
 O834 O 0.17774 0.18057 0.19154
 Zr835 Zr 0.18856 0.21989 0.23235
 O836 O 0.16759 0.27655 0.30579
 O837 O 0.18926 0.30898 0.17597
 O838 O 0.14613 0.24505 0.19926
 O839 O 0.16419 0.17050 0.25357
 O840 O 0.14277 0.23738 0.26420
 C841 C 0.14050 0.25818 0.29166
 O842 O 0.24503 0.31809 0.32972
 O843 O 0.31609 0.17748 0.30964
 O844 O 0.22693 0.25524 0.34399
 O845 O 0.25546 0.19703 0.33465
 O846 O 0.35935 0.24521 0.28835
 O847 O 0.32767 0.30591 0.29863
 C848 C 0.23993 0.22235 0.35473
 H849 H 0.32931 0.19759 0.24707
 H850 H 0.26965 0.32847 0.26213
 H851 H 0.19658 0.21078 0.29955
 H852 H 0.21357 0.23896 0.17127
 H853 H 0.36632 0.31827 0.23795
 H854 H 0.25643 0.36027 0.17896
 H855 H 0.19406 0.33287 0.16324
 H856 H 0.12152 0.23275 0.20429
 H857 H 0.38362 0.25781 0.28258
 H858 H 0.31122 0.15324 0.32174
 H859 H 0.24599 0.13106 0.31244
 H860 H 0.13625 0.17182 0.24864
 H861 H 0.35416 0.31505 0.29634
 H862 H 0.22257 0.32553 0.34447
 H863 H 0.27906 0.16577 0.14294
 H864 H 0.14983 0.17619 0.19020
 Zr865 Zr 0.72251 0.73072 0.29687
 O866 O 0.73835 0.68737 0.33274
 O867 O 0.66894 0.74678 0.31583
 O868 O 0.73152 0.75240 0.34939
 O869 O 0.69359 0.67109 0.22920
 O870 O 0.76626 0.80502 0.33963
 O871 O 0.69171 0.67907 0.28861
 O872 O 0.64820 0.79554 0.28053
 O873 O 0.71960 0.78988 0.29047
 O874 O 0.69229 0.74270 0.25031
 O875 O 0.77955 0.74815 0.29531
 O876 O 0.75248 0.70176 0.25632
 Zr877 Zr 0.77816 0.79305 0.19996
 Zr878 Zr 0.77622 0.80664 0.28615
 Zr879 Zr 0.72369 0.71708 0.20988
 Zr880 Zr 0.69144 0.80115 0.24311
 O881 O 0.74799 0.66572 0.18996
 O882 O 0.68070 0.85485 0.26678
 O883 O 0.72053 0.77570 0.20062
 O884 O 0.74709 0.82113 0.24002
 O885 O 0.80810 0.78079 0.24643
 O886 O 0.78044 0.73385 0.20650
 C887 C 0.64482 0.77288 0.30650
 C888 C 0.68352 0.66067 0.26004
 C889 C 0.74950 0.78216 0.36019
 O890 O 0.75288 0.85981 0.30255
 O891 O 0.81150 0.84889 0.26756
 O892 O 0.80897 0.84472 0.20802
 C893 C 0.81963 0.86113 0.23689
 O894 O 0.81180 0.67596 0.28930
 Zr895 Zr 0.80815 0.72208 0.25354
 O896 O 0.83495 0.78227 0.18528
 O897 O 0.82931 0.80483 0.31309
 O898 O 0.85603 0.73125 0.28642
 O899 O 0.82355 0.67186 0.22562
 O900 O 0.85483 0.73493 0.22237
 C901 C 0.86027 0.75904 0.19792
 O902 O 0.76110 0.83546 0.16360
 O903 O 0.66914 0.71680 0.18550
 O904 O 0.77185 0.77015 0.14808
 O905 O 0.72933 0.72264 0.15557
 O906 O 0.64066 0.78838 0.21545
 O907 O 0.68255 0.84105 0.20199
 C908 C 0.75102 0.74287 0.13645
 H909 H 0.66583 0.73323 0.25075
 H910 H 0.74573 0.84888 0.23622
 H911 H 0.79434 0.72053 0.18725
 H912 H 0.79322 0.74175 0.31734
 H913 H 0.65291 0.86112 0.26435
 H914 H 0.77327 0.87280 0.31555
 H915 H 0.82989 0.82774 0.32807
 H916 H 0.87660 0.71272 0.27956
 H917 H 0.62023 0.80661 0.22330
 H918 H 0.66801 0.69296 0.17181
 H919 H 0.72894 0.65510 0.17367
 H920 H 0.85139 0.66686 0.22933
 H921 H 0.65781 0.85502 0.20567
 H922 H 0.78334 0.83911 0.14782
 H923 H 0.71626 0.68455 0.34889
 H924 H 0.83780 0.66392 0.28820
 Zr925 Zr 0.77197 0.27889 0.79569
 O926 O 0.75347 0.31956 0.83329
 O927 O 0.82632 0.26503 0.81397
 O928 O 0.76416 0.25358 0.84698
 O929 O 0.79503 0.34609 0.73140
 O930 O 0.73080 0.20047 0.83515
 O931 O 0.80167 0.33161 0.78953
 O932 O 0.85028 0.22091 0.77510
 O933 O 0.77825 0.22030 0.78657
 O934 O 0.80272 0.27139 0.74869
 O935 O 0.71603 0.25848 0.79276
 O936 O 0.74031 0.30861 0.75677
 Zr937 Zr 0.72079 0.21895 0.69592
 Zr938 Zr 0.72269 0.20055 0.78130
 Zr939 Zr 0.77017 0.29792 0.70978
 Zr940 Zr 0.80697 0.21340 0.73871
 O941 O 0.74235 0.34779 0.69050
 O942 O 0.82114 0.15965 0.76076
 O943 O 0.77690 0.23993 0.69785
 O944 O 0.75283 0.19030 0.73463
 O945 O 0.68949 0.22680 0.74246
 O946 O 0.71497 0.27769 0.70470
 C947 C 0.85237 0.24213 0.80215
 C948 C 0.80662 0.35364 0.76248
 C949 C 0.74692 0.22289 0.85660
 O950 O 0.74985 0.14882 0.79685
 O951 O 0.69291 0.15494 0.76103
 O952 O 0.68976 0.16710 0.70239
 C953 C 0.68259 0.14657 0.72991
 O954 O 0.67766 0.32760 0.79125
 Zr955 Zr 0.68605 0.28525 0.75208
 O956 O 0.66565 0.23124 0.67852
 O957 O 0.66856 0.19821 0.80635
 O958 O 0.63770 0.27071 0.78260
 O959 O 0.67024 0.33721 0.72741
 O960 O 0.64101 0.27376 0.71837
 C961 C 0.63854 0.25210 0.69159
 O962 O 0.73847 0.17671 0.65944
 O963 O 0.82519 0.30439 0.68720
 O964 O 0.73148 0.24101 0.64454
 O965 O 0.76757 0.29272 0.65533
 O966 O 0.85656 0.22975 0.71086
 O967 O 0.81768 0.17585 0.69596
 C968 C 0.75162 0.26941 0.63444
 H969 H 0.82850 0.28245 0.74945
 H970 H 0.75574 0.16288 0.72938
 H971 H 0.70136 0.29103 0.68534
 H972 H 0.70183 0.26299 0.81495
 H973 H 0.84920 0.15519 0.75802
 H974 H 0.73075 0.13436 0.81020
 H975 H 0.66751 0.17331 0.81820
 H976 H 0.61599 0.28795 0.77583
 H977 H 0.87797 0.21213 0.71758
 H978 H 0.82443 0.32871 0.67420
 H979 H 0.76080 0.36015 0.67470
 H980 H 0.64216 0.34115 0.73047
 H981 H 0.84258 0.16215 0.69949
 H982 H 0.71667 0.17334 0.64313
 H983 H 0.77531 0.32279 0.84956
 H984 H 0.65124 0.33858 0.78958
 C985 C 0.42320 1.02965 0.30394
 C986 C 0.42741 0.99859 0.28102
 C987 C 0.45390 0.96946 0.29207
 C988 C 0.46962 0.96897 0.32643
 C989 C 0.45938 0.99768 0.35074
 C990 C 0.43854 1.02906 0.33735
 C991 C 0.40669 1.05360 0.35186
 C992 C 0.38980 1.05444 0.31529
 H993 H 0.45974 0.94527 0.27520
 H994 H 0.48692 0.94462 0.33473
 H995 H 0.41676 1.08168 0.36052
 H996 H 0.38818 1.03862 0.37076
 H997 H 0.39014 1.08313 0.30334
 H998 H 0.36183 1.04033 0.31383
 C999 C -0.03605 0.49468 0.79153
 C1000 C -0.07647 0.49319 0.78711
 C1001 C -0.09766 0.48948 0.81853
 C1002 C -0.07978 0.48379 0.85104
 C1003 C -0.03939 0.48322 0.85502
 C1004 C -0.01816 0.49065 0.82457
 C1005 C 0.01535 0.46926 0.80920
 C1006 C -0.00348 0.47428 0.77346
 H1007 H -0.12874 0.48952 0.81780
 H1008 H -0.09821 0.48002 0.87356
 H1009 H 0.01710 0.43925 0.81808
 H1010 H 0.04240 0.48495 0.81183
 H1011 H -0.01168 0.44718 0.76124
 H1012 H 0.01267 0.49331 0.75596
 C1013 C 0.03465 0.02213 0.79515
 C1014 C 0.06940 0.00145 0.78809
 C1015 C 0.08739 -0.01511 0.81767
 C1016 C 0.06987 -0.01528 0.85052
 C1017 C 0.03339 0.00227 0.85687
 C1018 C 0.01723 0.02266 0.82864
 C1019 C -0.02213 0.02132 0.81373
 C1020 C -0.00361 0.02048 0.77760
 H1021 H 0.11594 -0.02789 0.81580
 H1022 H 0.08593 -0.02954 0.87112
 H1023 H -0.03915 0.04785 0.81894
 H1024 H -0.03679 -0.00528 0.82047
 H1025 H -0.01031 0.04640 0.76199
 H1026 H -0.00766 -0.00669 0.76350
 C1027 C 0.58053 0.47722 0.30636
 C1028 C 0.57769 0.50850 0.28356
 C1029 C 0.55249 0.53861 0.29526
 C1030 C 0.53547 0.53884 0.32935
 C1031 C 0.54341 0.50912 0.35325
 C1032 C 0.56424 0.47773 0.33961
 C1033 C 0.59560 0.45301 0.35451
 C1034 C 0.61356 0.45240 0.31840
 H1035 H 0.54842 0.56359 0.27914
 H1036 H 0.51891 0.56362 0.33784
 H1037 H 0.58521 0.42486 0.36261
 H1038 H 0.61364 0.46779 0.37391
 H1039 H 0.61370 0.42370 0.30642
 H1040 H 0.64154 0.46668 0.31768
 C1041 C 0.53899 0.50294 0.21348
 C1042 C 0.57891 0.51000 0.21545
 C1043 C 0.59952 0.50499 0.18370
 C1044 C 0.58191 0.49392 0.15267
 C1045 C 0.54168 0.49093 0.14978
 C1046 C 0.52086 0.49442 0.18127
 C1047 C 0.48631 0.51849 0.18918
 C1048 C 0.50557 0.52842 0.22352
 H1049 H 0.63032 0.50841 0.18317
 H1050 H 0.60023 0.49015 0.12992
 H1051 H 0.46029 0.50141 0.19271
 H1052 H 0.48289 0.54297 0.17102
 H1053 H 0.49005 0.51771 0.24681
 H1054 H 0.51327 0.55873 0.22503
 C1055 C 0.04440 0.97411 0.70662
 C1056 C 0.06347 1.00585 0.72106
 C1057 C 0.05299 1.04104 0.70496
 C1058 C 0.03346 1.04264 0.67236
 C1059 C 0.02046 1.00948 0.65604
 C1060 C 0.02269 0.97644 0.67584
 C1061 C 0.03212 0.93721 0.66428
 C1062 C 0.05659 0.93406 0.69682
 H1063 H 0.06213 1.06750 0.71600
 H1064 H 0.03066 1.06959 0.65893
 H1065 H 0.04903 0.93593 0.63952
 H1066 H 0.00666 0.91896 0.66496
 H1067 H 0.08753 0.93085 0.68995
 H1068 H 0.04558 0.91264 0.71535
 C1069 C -0.07069 0.46057 0.69551
 C1070 C -0.07159 0.49115 0.71918
 C1071 C -0.04728 0.52148 0.70985
 C1072 C -0.02755 0.52257 0.67691
 C1073 C -0.03171 0.49356 0.65170
 C1074 C -0.05187 0.46190 0.66336
 C1075 C -0.08065 0.43747 0.64614
 C1076 C -0.10124 0.43608 0.68112
 H1077 H -0.04540 0.54565 0.72716
 H1078 H -0.01169 0.54745 0.67027
 H1079 H -0.06799 0.40955 0.63801
 H1080 H -0.09818 0.45260 0.62600
 H1081 H -0.10051 0.40721 0.69273
 H1082 H -0.13001 0.45055 0.68053
 C1083 C 0.40588 -0.01222 0.18241
 C1084 C 0.42555 -0.00854 0.21391
 C1085 C 0.46583 -0.00217 0.20980
 C1086 C 0.48346 -0.00022 0.17559
 C1087 C 0.46134 -0.00450 0.14463
 C1088 C 0.42243 -0.01042 0.15045
 C1089 C 0.38503 -0.01409 0.13190
 C1090 C 0.36636 -0.01585 0.16818
 H1091 H 0.48363 0.00231 0.23251
 H1092 H 0.51393 0.00453 0.17355
 H1093 H 0.38334 -0.04115 0.11717
 H1094 H 0.37663 0.01206 0.11727
 H1095 H 0.35387 -0.04373 0.17411
 H1096 H 0.34742 0.00927 0.17385
 C1097 C 0.33015 0.35070 0.00590
 C1098 C 0.29327 0.36630 -0.00204
 C1099 C 0.29176 0.40685 -0.00039
 C1100 C 0.32474 0.42840 0.00798
 C1101 C 0.36064 0.41088 0.01682
 C1102 C 0.36124 0.37151 0.01520
 C1103 C 0.38753 0.33783 0.01859
 C1104 C 0.35253 0.31407 0.00964
 H1105 H 0.26521 0.42259 -0.00486
 H1106 H 0.32221 0.45904 0.00703
 H1107 H 0.39792 0.33350 0.04581
 H1108 H 0.41015 0.33702 -0.00200
 H1109 H 0.34281 0.29689 0.03216
 H1110 H 0.35586 0.29834 -0.01546
 C1111 C -0.21288 0.91476 0.51307
 C1112 C -0.21419 0.87457 0.50896
 C1113 C -0.17770 0.85571 0.51447
 C1114 C -0.14317 0.87527 0.52113
 C1115 C -0.14281 0.91514 0.52293
 C1116 C -0.17870 0.93360 0.51976
 C1117 C -0.19010 0.96826 0.50018
 C1118 C -0.22728 0.94888 0.49224
 H1119 H -0.17515 0.82529 0.51192
 H1120 H -0.11631 0.85913 0.52268
 H1121 H -0.17245 0.97256 0.47642
 H1122 H -0.19375 0.99334 0.51765
 H1123 H -0.23091 0.94384 0.46391
 H1124 H -0.25165 0.96510 0.50433
 C1125 C -0.20326 0.11299 1.02549
 C1126 C -0.22055 0.13042 0.99642
 C1127 C -0.19888 0.12451 0.96455
 C1128 C -0.16356 0.10251 0.96323
 C1129 C -0.14771 0.08523 0.99362
 C1130 C -0.16949 0.09196 1.02416
 C1131 C -0.17055 0.08343 1.06242
 C1132 C -0.20837 0.10701 1.06382
 H1133 H -0.20869 0.13667 0.94010
 H1134 H -0.14878 0.09922 0.93837
 H1135 H -0.14679 0.09669 1.07691
 H1136 H -0.17435 0.05281 1.06769
 H1137 H -0.20618 0.13366 1.07912
 H1138 H -0.23378 0.08991 1.06997
 C1139 C 0.32479 0.64398 0.49027
 C1140 C 0.28977 0.62770 0.50013
 C1141 C 0.29260 0.58737 0.50296
 C1142 C 0.32839 0.56683 0.49815
 C1143 C 0.36272 0.58512 0.48842
 C1144 C 0.35853 0.62401 0.48420
 C1145 C 0.38139 0.65835 0.47928
 C1146 C 0.34351 0.68103 0.48470
 H1147 H 0.26763 0.57119 0.50892
 H1148 H 0.32927 0.53649 0.50246
 H1149 H 0.39328 0.66034 0.45234
 H1150 H 0.40211 0.66209 0.50099
 H1151 H 0.33336 0.69554 0.46045
 H1152 H 0.34353 0.69879 0.50877
 C1153 C 0.18243 0.63079 0.48496
 C1154 C 0.21432 0.62837 0.50747
 C1155 C 0.20759 0.60543 0.53786
 C1156 C 0.17223 0.58562 0.54316
 C1157 C 0.14133 0.58894 0.51889
 C1158 C 0.14869 0.61278 0.49063
 C1159 C 0.12886 0.63089 0.46029
 C1160 C 0.16612 0.65184 0.45405
 H1161 H 0.22982 0.60262 0.55755
 H1162 H 0.16958 0.56732 0.56572
 H1163 H 0.10435 0.64980 0.46840
 H1164 H 0.12292 0.61041 0.43912
 H1165 H 0.16312 0.68285 0.45884
 H1166 H 0.17989 0.64362 0.42880
 C1167 C 0.70808 0.08884 0.01453
 C1168 C 0.70524 0.12645 0.00168
 C1169 C 0.66694 0.14101 -0.00290
 C1170 C 0.63438 0.11871 0.00290
 C1171 C 0.63801 0.08084 0.01434
 C1172 C 0.67557 0.06689 0.02034
 C1173 C 0.69487 0.03160 0.00699
 C1174 C 0.73003 0.05500 0.00038
 H1175 H 0.66206 0.17020 -0.01080
 H1176 H 0.60614 0.13090 -0.00263
 H1177 H 0.68157 0.02095 -0.01746
 H1178 H 0.69924 0.01011 0.02800
 H1179 H 0.73720 0.05771 -0.02787
 H1180 H 0.75463 0.04624 0.01730
 C1181 C 0.68009 0.85944 0.47162
 C1182 C 0.70925 0.87255 0.49469
 C1183 C 0.69939 0.90777 0.51067
 C1184 C 0.66399 0.92741 0.50514
 C1185 C 0.63480 0.91272 0.48397
 C1186 C 0.64440 0.87891 0.46647
 C1187 C 0.62238 0.84363 0.46550
 C1188 C 0.66014 0.82227 0.47100
 H1189 H 0.71776 0.92004 0.52966
 H1190 H 0.65858 0.95348 0.51955
 H1191 H 0.60955 0.83862 0.43930
 H1192 H 0.60249 0.84124 0.48816
 H1193 H 0.66775 0.80474 0.44770
 H1194 H 0.66179 0.80716 0.49654
 C1195 C 0.19217 0.36871 1.02251
 C1196 C 0.21880 0.36592 0.99477
 C1197 C 0.20871 0.38772 0.96441
 C1198 C 0.17272 0.40809 0.96159
 C1199 C 0.14563 0.40784 0.98923
 C1200 C 0.15759 0.38912 1.01988
 C1201 C 0.13682 0.36192 1.04235
 C1202 C 0.17448 0.33945 1.04534
 H1203 H 0.22825 0.38792 0.94231
 H1204 H 0.16616 0.42374 0.93785
 H1205 H 0.11431 0.34673 1.02778
 H1206 H 0.12746 0.37470 1.06767
 H1207 H 0.17354 0.31118 1.03279
 H1208 H 0.18612 0.33942 1.07245
 C1209 C -0.02747 0.30979 0.39830
 C1210 C 0.00293 0.28289 0.39790
 C1211 C 0.03518 0.28979 0.41940
 C1212 C 0.03820 0.32395 0.43741
 C1213 C 0.00950 0.35214 0.43343
 C1214 C -0.02418 0.34341 0.41581
 C1215 C -0.04717 0.36532 0.38931
 C1216 C -0.05097 0.32829 0.36976
 H1217 H 0.05886 0.26936 0.42093
 H1218 H 0.06387 0.32909 0.45246
 H1219 H -0.02999 0.38625 0.37478
 H1220 H -0.07483 0.37653 0.40028
 H1221 H -0.03643 0.32814 0.34384
 H1222 H -0.08106 0.31871 0.36931
 C1223 C 0.51612 -0.21467 -0.07673
 C1224 C 0.48770 -0.22249 -0.10168
 C1225 C 0.45848 -0.19417 -0.10645
 C1226 C 0.46337 -0.15767 -0.09344
 C1227 C 0.49564 -0.14973 -0.07299
 C1228 C 0.51905 -0.17990 -0.06212
 C1229 C 0.56074 -0.18544 -0.05420
 C1230 C 0.55736 -0.22523 -0.06944
 H1231 H 0.43368 -0.19849 -0.12276
 H1232 H 0.44268 -0.13552 -0.10045
 H1233 H 0.56662 -0.18541 -0.02557
 H1234 H 0.57900 -0.16678 -0.07023
 H1235 H 0.56041 -0.24767 -0.04912
 H1236 H 0.57564 -0.23013 -0.09286
 C1237 C -0.01756 -0.21195 1.07595
 C1238 C 0.01051 -0.22159 1.10118
 C1239 C 0.04106 -0.19602 1.10448
 C1240 C 0.03765 -0.15960 1.09020
 C1241 C 0.00543 -0.14922 1.06991
 C1242 C -0.01923 -0.17755 1.06040
 C1243 C -0.06018 -0.18048 1.04988
 C1244 C -0.05830 -0.22004 1.06623
 H1245 H 0.06629 -0.20229 1.12003
 H1246 H 0.05938 -0.13931 1.09618
 H1247 H -0.06383 -0.18089 1.02095
 H1248 H -0.07938 -0.16018 1.06439
 H1249 H -0.06020 -0.24285 1.04627
 H1250 H -0.07848 -0.22293 1.08843
 C1251 C 0.46503 0.31062 0.59119
 C1252 C 0.49653 0.28535 0.59645
 C1253 C 0.53097 0.29215 0.57786
 C1254 C 0.53427 0.32473 0.55773
 C1255 C 0.50271 0.34974 0.55503
 C1256 C 0.46773 0.34121 0.56950
 C1257 C 0.44282 0.36652 0.59155
 C1258 C 0.44084 0.33377 0.61672
 H1259 H 0.55568 0.27297 0.58003
 H1260 H 0.56151 0.33120 0.54572
 H1261 H 0.41500 0.37361 0.57853
 H1262 H 0.45828 0.39123 0.60179
 H1263 H 0.41093 0.32423 0.61940
 H1264 H 0.45569 0.33890 0.64194
 C1265 C 0.47785 1.18177 0.61441
 C1266 C 0.49007 1.21481 0.59780
 C1267 C 0.49814 1.21224 0.56140
 C1268 C 0.50056 1.17679 0.54506
 C1269 C 0.49337 1.14404 0.56453
 C1270 C 0.47850 1.14791 0.59803
 C1271 C 0.48370 1.12609 0.63127
 C1272 C 0.48194 1.16431 0.65000
 H1273 H 0.50427 1.23657 0.54554
 H1274 H 0.50855 1.17499 0.51764
 H1275 H 0.51230 1.11134 0.63288
 H1276 H 0.45873 1.10826 0.63718
 H1277 H 0.50904 1.17073 0.66366
 H1278 H 0.45551 1.16859 0.66607
 C1279 C -0.00172 0.70692 1.06789
 C1280 C -0.00091 0.70873 1.10498
 C1281 C -0.00590 0.67407 1.12289
 C1282 C -0.01050 0.64037 1.10513
 C1283 C -0.00623 0.63914 1.06891
 C1284 C -0.00387 0.67288 1.05055
 C1285 C 0.02111 0.68421 1.02099
 C1286 C 0.02328 0.72227 1.03918
 H1287 H -0.00278 0.67166 1.15072
 H1288 H -0.01374 0.61464 1.11997
 H1289 H 0.00533 0.68559 0.99571
 H1290 H 0.04912 0.66829 1.02042
 H1291 H 0.00870 0.74503 1.02361
 H1292 H 0.05262 0.72920 1.04753
 C1293 C 0.49829 0.70618 -0.06752
 C1294 C 0.49945 0.70730 -0.10459
 C1295 C 0.50131 0.67204 -0.12219
 C1296 C 0.50239 0.63820 -0.10424
 C1297 C 0.49885 0.63830 -0.06793
 C1298 C 0.49842 0.67227 -0.04965
 C1299 C 0.47070 0.68624 -0.02251
 C1300 C 0.47009 0.72364 -0.04174
 H1301 H 0.49727 0.66993 -0.14987
 H1302 H 0.50262 0.61190 -0.11899
 H1303 H 0.48408 0.68775 0.00386
 H1304 H 0.44277 0.67180 -0.02350
 H1305 H 0.48257 0.74648 -0.02568
 H1306 H 0.44172 0.73118 -0.05345
 C1307 C 0.00465 1.21038 0.43249
 C1308 C 0.00350 1.21198 0.39555
 C1309 C -0.00078 1.17740 0.37725
 C1310 C -0.00897 1.14444 0.39510
 C1311 C -0.01273 1.14516 0.43159
 C1312 C -0.00282 1.17736 0.44987
 C1313 C -0.02208 1.19688 0.47993
 C1314 C -0.01354 1.23369 0.46141
 H1315 H 0.00005 1.17644 0.34888
 H1316 H -0.01287 1.11851 0.38043
 H1317 H -0.00580 1.19284 0.50475
 H1318 H -0.05325 1.19112 0.48150
 H1319 H 0.00772 1.25051 0.47595
 H1320 H -0.03975 1.24995 0.45345
 C1321 C 0.71522 0.70537 0.95868
 C1322 C 0.74660 0.68128 0.96931
 C1323 C 0.77978 0.68386 0.94766
 C1324 C 0.77902 0.70348 0.91557
 C1325 C 0.74522 0.72166 0.90304
 C1326 C 0.71482 0.72497 0.92688
 C1327 C 0.67251 0.72343 0.92280
 C1328 C 0.67219 0.70269 0.95785
 H1329 H 0.80626 0.66861 0.95338
 H1330 H 0.80436 0.70156 0.89909
 H1331 H 0.66406 0.70547 0.90029
 H1332 H 0.65832 0.75203 0.92391
 H1333 H 0.66138 0.67370 0.95518
 H1334 H 0.65763 0.71984 0.97866
 C1335 C 0.24303 0.21861 0.45565
 C1336 C 0.24066 0.17929 0.46248
 C1337 C 0.23969 0.15569 0.43248
 C1338 C 0.23752 0.17045 0.39857
 C1339 C 0.23722 0.20984 0.39207
 C1340 C 0.24171 0.23336 0.42140
 C1341 C 0.21916 0.26774 0.43274
 C1342 C 0.22118 0.25225 0.46997
 H1343 H 0.23948 0.12516 0.43536
 H1344 H 0.23573 0.15039 0.37718
 H1345 H 0.18959 0.26873 0.42177
 H1346 H 0.23549 0.29406 0.42923
 H1347 H 0.19275 0.24528 0.48089
 H1348 H 0.23911 0.26955 0.48754
 C1349 C 0.76344 0.34779 0.43225
 C1350 C 0.76108 0.32518 0.46225
 C1351 C 0.76271 0.28527 0.45523
 C1352 C 0.76502 0.27078 0.41995
 C1353 C 0.76612 0.29573 0.39078
 C1354 C 0.76567 0.33407 0.39922
 C1355 C 0.76666 0.37242 0.38303
 C1356 C 0.76483 0.38811 0.42043
 H1357 H 0.76244 0.26512 0.47650
 H1358 H 0.76534 0.24046 0.41566
 H1359 H 0.74036 0.37945 0.36767
 H1360 H 0.79439 0.37744 0.36960
 H1361 H 0.73796 0.40473 0.42602
 H1362 H 0.79174 0.40198 0.42813
 C1363 C 0.21206 0.82373 0.94394
 C1364 C 0.24340 0.81856 0.96678
 C1365 C 0.26793 0.78680 0.95811
 C1366 C 0.26600 0.76795 0.92505
 C1367 C 0.23819 0.77921 0.90002
 C1368 C 0.20935 0.80459 0.91237
 C1369 C 0.18566 0.83575 0.89608
 C1370 C 0.18910 0.85699 0.93040
 H1371 H 0.29042 0.77791 0.97601
 H1372 H 0.28802 0.74692 0.91826
 H1373 H 0.15587 0.82711 0.89044
 H1374 H 0.20043 0.85051 0.87450
 H1375 H 0.16119 0.86116 0.94426
 H1376 H 0.20630 0.88268 0.92692
 C1377 C 0.24638 0.78378 0.03891
 C1378 C 0.25902 0.82117 0.03261
 C1379 C 0.27377 0.83869 0.06302
 C1380 C 0.27368 0.82123 0.09624
 C1381 C 0.25819 0.78492 0.10210
 C1382 C 0.24545 0.76720 0.07179
 C1383 C 0.22525 0.73315 0.06003
 C1384 C 0.22631 0.75072 0.02317
 H1385 H 0.28431 0.86692 0.06239
 H1386 H 0.28480 0.83763 0.11774
 H1387 H 0.19583 0.73194 0.07121
 H1388 H 0.24333 0.70686 0.06274
 H1389 H 0.19739 0.75798 0.01272
 H1390 H 0.24495 0.73387 0.00495
 C1391 C 0.73372 0.29032 0.53796
 C1392 C 0.76327 0.31588 0.52986
 C1393 C 0.79380 0.31598 0.55454
 C1394 C 0.79149 0.29697 0.58686
 C1395 C 0.75847 0.27721 0.59660
 C1396 C 0.73171 0.27147 0.57008
 C1397 C 0.68908 0.27165 0.57033
 C1398 C 0.69076 0.29164 0.53502
 H1399 H 0.81847 0.33333 0.55105
 H1400 H 0.81435 0.30083 0.60564
 H1401 H 0.67648 0.28971 0.59158
 H1402 H 0.67778 0.24258 0.56860
 H1403 H 0.67745 0.32053 0.53609
 H1404 H 0.68056 0.27349 0.51334
 C1405 C 0.20257 0.19162 0.55186
 C1406 C 0.23493 0.18903 0.52977
 C1407 C 0.26543 0.21305 0.53941
 C1408 C 0.26546 0.23313 0.57195
 C1409 C 0.23516 0.22968 0.59627
 C1410 C 0.20288 0.21081 0.58367
 C1411 C 0.17577 0.18401 0.60015
 C1412 C 0.17534 0.16309 0.56554
 H1413 H 0.29075 0.21404 0.52308
 H1414 H 0.29067 0.24831 0.57924
 H1415 H 0.14768 0.19792 0.60690
 H1416 H 0.18898 0.16601 0.62091
 H1417 H 0.14677 0.16498 0.55267
 H1418 H 0.18840 0.13406 0.56749
 C1419 C 0.76728 0.66486 0.06441
 C1420 C 0.74385 0.67583 0.03652
 C1421 C 0.72142 0.70965 0.04358
 C1422 C 0.72502 0.73303 0.07459
 C1423 C 0.75482 0.72880 0.10002
 C1424 C 0.77890 0.69788 0.09488
 C1425 C 0.82628 0.67445 0.11462
 C1426 C 0.81657 0.62929 0.07349
 H1427 H 0.69939 0.71820 0.02529
 H1428 H 0.70363 0.75550 0.07860
 H1429 H 0.82286 0.66492 0.14239
 H1430 H 0.85225 0.69240 0.11347
 H1431 H 0.81289 0.59933 0.08223
 H1432 H 0.86410 0.66683 0.02442
 C1433 C 0.16145 0.54134 0.22392
 C1434 C 0.12781 0.53939 0.24495
 C1435 C 0.11316 0.57529 0.25710
 C1436 C 0.13159 0.60965 0.25035
 C1437 C 0.16578 0.61071 0.23083
 C1438 C 0.17979 0.57595 0.21751
 C1439 C 0.21905 0.55926 0.22175
 C1440 C 0.20018 0.52214 0.22932
 H1441 H 0.08637 0.57741 0.27138
 H1442 H 0.11969 0.63555 0.26179
 H1443 H 0.23443 0.57087 0.24472
 H1444 H 0.23543 0.55913 0.19672
 H1445 H 0.20452 0.51218 0.25673
 H1446 H 0.20748 0.50069 0.20887
 C1447 C 0.65950 0.04290 0.74265
 C1448 C 0.61926 0.04128 0.74450
 C1449 C 0.60022 0.07713 0.73731
 C1450 C 0.62046 0.11080 0.72949
 C1451 C 0.66100 0.11065 0.72761
 C1452 C 0.67875 0.07537 0.73451
 C1453 C 0.71736 0.05700 0.73812
 C1454 C 0.69625 0.02039 0.74651
 H1455 H 0.56915 0.07915 0.73785
 H1456 H 0.60430 0.13722 0.72614
 H1457 H 0.73348 0.06840 0.76073
 H1458 H 0.73323 0.05586 0.71282
 H1459 H 0.70138 0.01064 0.77380
 H1460 H 0.69978 -0.00181 0.72597
 C1461 C 0.88918 0.07851 0.26448
 C1462 C 0.87556 0.04350 0.25245
 C1463 C 0.83566 0.04519 0.24359
 C1464 C 0.81326 0.07987 0.24529
 C1465 C 0.82891 0.11406 0.25770
 C1466 C 0.86716 0.11109 0.26774
 C1467 C 0.89993 0.13457 0.27825
 C1468 C 0.92482 0.09790 0.27539
 H1469 H 0.82118 0.02029 0.23501
 H1470 H 0.78363 0.07988 0.23675
 H1471 H 0.89688 0.14550 0.30548
 H1472 H 0.90684 0.15607 0.25811
 H1473 H 0.93588 0.08776 0.30113
 H1474 H 0.94650 0.09867 0.25403
 C1475 C 0.33355 0.53782 0.74964
 C1476 C 0.37393 0.53536 0.75158
 C1477 C 0.39057 0.57102 0.76012
 C1478 C 0.36803 0.60516 0.76600
 C1479 C 0.32742 0.60577 0.76395
 C1480 C 0.31212 0.57078 0.75538
 C1481 C 0.27475 0.55272 0.74975
 C1482 C 0.29820 0.51566 0.74373
 H1483 H 0.42146 0.57250 0.76242
 H1484 H 0.38259 0.63126 0.77119
 H1485 H 0.25990 0.56359 0.72587
 H1486 H 0.25700 0.55251 0.77398
 H1487 H 0.29586 0.50516 0.71638
 H1488 H 0.29391 0.49410 0.76449
 C1489 C 0.37117 0.43417 0.77320
 C1490 C 0.37466 0.46119 0.74629
 C1491 C 0.35458 0.45208 0.71480
 C1492 C 0.33393 0.41767 0.71079
 C1493 C 0.33256 0.39054 0.73809
 C1494 C 0.35076 0.40099 0.76933
 C1495 C 0.37796 0.37866 0.79188
 C1496 C 0.40036 0.41459 0.79619
 H1497 H 0.35552 0.47139 0.69281
 H1498 H 0.31931 0.41238 0.68634
 H1499 H 0.39392 0.35598 0.77715
 H1500 H 0.36440 0.36952 0.81670
 H1501 H 0.42942 0.41267 0.78427
 H1502 H 0.39961 0.42517 0.82363
 C1503 C 0.87634 0.94211 0.27415
 C1504 C 0.87859 0.96976 0.24772
 C1505 C 0.85946 0.96049 0.21577
 C1506 C 0.84105 0.92511 0.21083
 C1507 C 0.84153 0.89730 0.23749
 C1508 C 0.85848 0.90794 0.26917
 C1509 C 0.88613 0.88667 0.29210
 C1510 C 0.90577 0.92393 0.29791
 H1511 H 0.85970 0.98031 0.19414
 H1512 H 0.82677 0.91961 0.18625
 H1513 H 0.90409 0.86547 0.27739
 H1514 H 0.87238 0.87603 0.31628
 H1515 H 0.93536 0.92417 0.28722
 H1516 H 0.90301 0.93382 0.32548
 C1517 C 0.64555 0.95846 0.77963
 C1518 C 0.62005 0.96644 0.75142
 C1519 C 0.61466 0.93498 0.72870
 C1520 C 0.63223 0.89898 0.73471
 C1521 C 0.65599 0.89132 0.76405
 C1522 C 0.66383 0.92283 0.78507
 C1523 C 0.66272 0.92744 0.82388
 C1524 C 0.64307 0.96608 0.81811
 H1525 H 0.59492 0.93671 0.70696
 H1526 H 0.62642 0.87650 0.71627
 H1527 H 0.69195 0.92932 0.83525
 H1528 H 0.64394 0.90666 0.83682
 H1529 H 0.66101 0.99008 0.82619
 H1530 H 0.61326 0.96717 0.82840
 C1531 C 0.13473 0.44287 0.28356
 C1532 C 0.13037 0.46537 0.25268
 C1533 C 0.15259 0.45186 0.22387
 C1534 C 0.17544 0.41795 0.22553
 C1535 C 0.17720 0.39499 0.25610
 C1536 C 0.15799 0.40977 0.28538
 C1537 C 0.13214 0.39048 0.31002
 C1538 C 0.10607 0.42549 0.30776
 H1539 H 0.15091 0.46675 0.19910
 H1540 H 0.19033 0.40889 0.20190
 H1541 H 0.14540 0.38632 0.33626
 H1542 H 0.11957 0.36493 0.29830
 H1543 H 0.10361 0.44037 0.33332
 H1544 H 0.07842 0.41961 0.29464
 C1545 C 0.03722 0.27133 0.83176
 C1546 C 0.03010 0.24366 0.85723
 C1547 C 0.06023 0.21692 0.86435
 C1548 C 0.09571 0.21955 0.84792
 C1549 C 0.10225 0.24927 0.82442
 C1550 C 0.07171 0.27317 0.81500
 C1551 C 0.06871 0.31515 0.81096
 C1552 C 0.03001 0.31325 0.82918
 H1553 H 0.05769 0.19511 0.88401
 H1554 H 0.11826 0.19907 0.85466
 H1555 H 0.06646 0.32386 0.78303
 H1556 H 0.09061 0.33005 0.82657
 H1557 H 0.00581 0.32060 0.81126
 H1558 H 0.02965 0.32816 0.85481
 C1559 C 0.54143 0.76739 0.32528
 C1560 C 0.54163 0.75574 0.36064
 C1561 C 0.57770 0.75372 0.37780
 C1562 C 0.61084 0.76505 0.36145
 C1563 C 0.60988 0.77537 0.32623
 C1564 C 0.57503 0.77737 0.30856
 C1565 C 0.56569 0.75738 0.27540
 C1566 C 0.52960 0.74526 0.29341
 H1567 H 0.58115 0.74144 0.40354
 H1568 H 0.63790 0.76198 0.37533
 H1569 H 0.58593 0.73330 0.26927
 H1570 H 0.56022 0.77749 0.25345
 H1571 H 0.52905 0.71422 0.29832
 H1572 H 0.50363 0.75724 0.28016
 C1573 C 0.54156 0.27060 0.17422
 C1574 C 0.54212 0.25026 0.14260
 C1575 C 0.57872 0.24438 0.12669
 C1576 C 0.61162 0.25912 0.14128
 C1577 C 0.60975 0.27843 0.17318
 C1578 C 0.57466 0.28204 0.19056
 C1579 C 0.55462 0.31751 0.20328
 C1580 C 0.51870 0.30467 0.18556
 H1581 H 0.58228 0.22961 0.10202
 H1582 H 0.63899 0.25397 0.12836
 H1583 H 0.56511 0.34331 0.19055
 H1584 H 0.55230 0.31866 0.23233
 H1585 H 0.51069 0.32375 0.16356
 H1586 H 0.49549 0.29819 0.20444
 C1587 C 0.05109 0.71880 0.64791
 C1588 C 0.02852 0.75159 0.64078
 C1589 C 0.03836 0.78578 0.65771
 C1590 C 0.07165 0.78730 0.67780
 C1591 C 0.09405 0.75426 0.68248
 C1592 C 0.08198 0.71990 0.66992
 C1593 C 0.10528 0.69144 0.64981
 C1594 C 0.07263 0.69159 0.62391
 H1595 H 0.02098 0.81146 0.65445
 H1596 H 0.08027 0.81401 0.68889
 H1597 H 0.10889 0.66431 0.66439
 H1598 H 0.13227 0.70304 0.63963
 H1599 H 0.05999 0.66320 0.62213
 H1600 H 0.08000 0.70455 0.59829
 C1601 C 0.95663 0.76343 0.67683
 C1602 C 0.95702 0.74958 0.64225
 C1603 C 0.92152 0.74194 0.62604
 C1604 C 0.88774 0.74505 0.64462
 C1605 C 0.88864 0.75500 0.68001
 C1606 C 0.92268 0.76610 0.69533
 C1607 C 0.94036 0.75271 0.72874
 C1608 C 0.97781 0.74928 0.70874
 H1609 H 0.91996 0.73432 0.59857
 H1610 H 0.86115 0.73835 0.63161
 H1611 H 0.92942 0.72498 0.73752
 H1612 H 0.94017 0.77532 0.74905
 H1613 H 0.98883 0.71959 0.70615
 H1614 H 0.99924 0.76955 0.71831
 C1615 C 0.43661 0.22001 0.12635
 C1616 C 0.47041 0.23091 0.14349
 C1617 C 0.46973 0.22774 0.18061
 C1618 C 0.43466 0.22637 0.19853
 C1619 C 0.40039 0.22431 0.17952
 C1620 C 0.40294 0.21619 0.14400
 C1621 C 0.37861 0.22522 0.11287
 C1622 C 0.41609 0.22823 0.09248
 H1623 H 0.49527 0.22716 0.19638
 H1624 H 0.43428 0.22814 0.22688
 H1625 H 0.36238 0.25267 0.11554
 H1626 H 0.36130 0.20081 0.10463
 H1627 H 0.42027 0.25687 0.08157
 H1628 H 0.42007 0.20482 0.07319
 C1629 C 0.45047 0.70688 0.35690
 C1630 C 0.47103 0.74077 0.35692
 C1631 C 0.45832 0.76980 0.33364
 C1632 C 0.42489 0.76650 0.31449
 C1633 C 0.40319 0.73429 0.31837
 C1634 C 0.41744 0.70355 0.33735
 C1635 C 0.39764 0.68106 0.36456
 C1636 C 0.43349 0.68481 0.38648
 H1637 H 0.47284 0.79645 0.33209
 H1638 H 0.41461 0.79015 0.29862
 H1639 H 0.39283 0.65153 0.35580
 H1640 H 0.37202 0.69621 0.37585
 H1641 H 0.44865 0.65711 0.39095
 H1642 H 0.42843 0.70216 0.41035
 C1643 C 0.92177 0.24584 0.87361
 C1644 C 0.95764 0.24657 0.85693
 C1645 C 0.95742 0.24233 0.81984
 C1646 C 0.92274 0.24038 0.80161
 C1647 C 0.88788 0.24154 0.82008
 C1648 C 0.88879 0.24407 0.85599
 C1649 C 0.86419 0.24239 0.88774
 C1650 C 0.90191 0.24387 0.90844
 H1651 H 0.98322 0.23876 0.80446
 H1652 H 0.92322 0.23793 0.77330
 H1653 H 0.84963 0.21489 0.89013
 H1654 H 0.84541 0.26819 0.89080
 H1655 H 0.90887 0.21707 0.92266
 H1656 H 0.90422 0.27007 0.92433
 C1657 C 0.59114 1.00535 0.68176
 C1658 C 0.57146 1.00506 0.71360
 C1659 C 0.53062 1.01064 0.71028
 C1660 C 0.51234 1.01392 0.67657
 C1661 C 0.53432 1.01220 0.64525
 C1662 C 0.57390 1.00843 0.65013
 C1663 C 0.61096 1.00372 0.63076
 C1664 C 0.63054 1.00166 0.66663
 H1665 H 0.51255 1.01291 0.73326
 H1666 H 0.48137 1.01680 0.67514
 H1667 H 0.61809 1.02929 0.61534
 H1668 H 0.61321 0.97621 0.61668
 H1669 H 0.64816 1.02669 0.67212
 H1670 H 0.64485 0.97373 0.67192
 C1671 C 0.05248 0.53175 1.20505
 C1672 C 0.07524 0.50031 1.21743
 C1673 C 0.06874 0.46591 1.19919
 C1674 C 0.04902 0.46556 1.16672
 C1675 C 0.03217 0.49897 1.15231
 C1676 C 0.03064 0.53051 1.17429
 C1677 C 0.03481 0.57114 1.16614
 C1678 C 0.05985 0.57293 1.19837
 H1679 H 0.08075 0.43923 1.20851
 H1680 H 0.04900 0.43941 1.15182
 H1681 H 0.00722 0.58724 1.16959
 H1682 H 0.05042 0.57610 1.14118
 H1683 H 0.04718 0.59194 1.21885
 H1684 H 0.09008 0.57829 1.19101
 C1685 C -0.04286 -0.02361 1.21266
 C1686 C -0.06864 0.00717 1.22088
 C1687 C -0.06810 0.03774 1.19678
 C1688 C -0.04905 0.03433 1.16439
 C1689 C -0.02993 0.00023 1.15425
 C1690 C -0.02393 -0.02668 1.18052
 C1691 C -0.02343 -0.06875 1.18045
 C1692 C -0.04340 -0.06599 1.21598
 H1693 H -0.08492 0.06351 1.20083
 H1694 H -0.05248 0.05741 1.14586
 H1695 H 0.00621 -0.08116 1.18195
 H1696 H -0.04174 -0.08049 1.15945
 H1697 H -0.02469 -0.07660 1.23761
 H1698 H -0.07231 -0.07817 1.21525
 C1699 C 0.45413 0.46749 0.70911
 C1700 C 0.42766 0.49767 0.71734
 C1701 C 0.42657 0.52719 0.69210
 C1702 C 0.44626 0.52395 0.65980
 C1703 C 0.46760 0.49076 0.64993
 C1704 C 0.47343 0.46427 0.67690
 C1705 C 0.47463 0.42215 0.67817
 C1706 C 0.45449 0.42541 0.71365
 H1707 H 0.40845 0.55222 0.69549
 H1708 H 0.44227 0.54698 0.64131
 H1709 H 0.50441 0.41011 0.67988
 H1710 H 0.45620 0.40949 0.65795
 H1711 H 0.47325 0.41595 0.73567
 H1712 H 0.42559 0.41305 0.71331
 C1713 C 0.40181 0.50255 -0.18319
 C1714 C 0.42215 0.49810 -0.21464
 C1715 C 0.46308 0.49924 -0.21017
 C1716 C 0.48058 0.50299 -0.17604
 C1717 C 0.45789 0.50630 -0.14511
 C1718 C 0.41836 0.50617 -0.15112
 C1719 C 0.38071 0.50828 -0.13254
 C1720 C 0.36199 0.50547 -0.16875
 H1721 H 0.48193 0.49759 -0.23264
 H1722 H 0.51157 0.50249 -0.17398
 H1723 H 0.37533 0.53604 -0.11937
 H1724 H 0.37599 0.48275 -0.11631
 H1725 H 0.34651 0.53207 -0.17661
 H1726 H 0.34567 0.47920 -0.17232
 C1727 C -0.09857 1.01123 0.31862
 C1728 C -0.07682 1.00728 0.28798
 C1729 C -0.03614 1.00787 0.29363
 C1730 C -0.02013 1.01065 0.32825
 C1731 C -0.04419 1.01311 0.35828
 C1732 C -0.08342 1.01365 0.35122
 C1733 C -0.12187 1.01525 0.36844
 C1734 C -0.13900 1.01368 0.33148
 H1735 H -0.01642 1.00644 0.27178
 H1736 H 0.01075 1.00990 0.33143
 H1737 H -0.12779 1.04254 0.38226
 H1738 H -0.12743 0.98915 0.38355
 H1739 H -0.15409 1.04052 0.32366
 H1740 H -0.15502 0.98749 0.32646
 C1741 C 0.09602 0.52051 0.31458
 C1742 C 0.07970 0.50537 0.28433
 C1743 C 0.04303 0.48894 0.28974
 C1744 C 0.02704 0.48464 0.32424
 C1745 C 0.04714 0.49677 0.35433
 C1746 C 0.08042 0.51702 0.34737
 C1747 C 0.11880 0.52017 0.36458
 C1748 C 0.13582 0.52490 0.32810
 H1749 H 0.02795 0.47679 0.26787
 H1750 H 0.00016 0.47039 0.32729
 H1751 H 0.12853 0.49334 0.37749
 H1752 H 0.12090 0.54619 0.38076
 H1753 H 0.15615 0.50148 0.32071
 H1754 H 0.14659 0.55382 0.32352
 C1755 C 0.54200 -0.02298 -0.21134
 C1756 C 0.56826 0.00590 -0.21925
 C1757 C 0.57025 0.03507 -0.19382
 C1758 C 0.55177 0.03222 -0.16120
 C1759 C 0.53088 -0.00004 -0.15208
 C1760 C 0.52324 -0.02533 -0.17911
 C1761 C 0.52247 -0.06739 -0.17995
 C1762 C 0.54306 -0.06531 -0.21510
 H1763 H 0.58871 0.05883 -0.19711
 H1764 H 0.55680 0.05403 -0.14190
 H1765 H 0.49277 -0.07782 -0.18212
 H1766 H 0.54025 -0.08082 -0.15892
 H1767 H 0.52535 -0.07492 -0.23744
 H1768 H 0.57223 -0.07855 -0.21351
 C1769 C 0.69817 0.61041 -0.03462
 C1770 C 0.70949 0.62759 -0.00287
 C1771 C 0.68469 0.61980 0.02566
 C1772 C 0.65165 0.59744 0.02173
 C1773 C 0.64079 0.58109 -0.01091
 C1774 C 0.66563 0.58922 -0.03853
 C1775 C 0.67239 0.58268 -0.07655
 C1776 C 0.70846 0.60664 -0.07247
 H1777 H 0.69047 0.63068 0.05156
 H1778 H 0.63444 0.59316 0.04492
 H1779 H 0.64968 0.59646 -0.09299
 H1780 H 0.67899 0.55237 -0.08258
 H1781 H 0.70635 0.63413 -0.08660
 H1782 H 0.73576 0.59019 -0.07663
 C1783 C 0.16777 1.14712 0.48343
 C1784 C 0.20347 1.13358 0.49666
 C1785 C 0.20411 1.09383 0.50402
 C1786 C 0.17053 1.07166 0.50089
 C1787 C 0.13526 1.08734 0.48820
 C1788 C 0.13622 1.12530 0.47886
 C1789 C 0.11039 1.15788 0.46949
 C1790 C 0.14583 1.18254 0.47362
 H1791 H 0.22991 1.07929 0.51286
 H1792 H 0.17210 1.04223 0.50892
 H1793 H 0.08796 1.16357 0.48974
 H1794 H 0.09978 1.15592 0.44215
 H1795 H 0.14298 1.20291 0.49574
 H1796 H 0.15584 1.19466 0.44843
 C1797 C 0.18574 -0.13797 1.03066
 C1798 C 0.21489 -0.12820 1.00656
 C1799 C 0.20937 -0.09171 0.99116
 C1800 C 0.17585 -0.06895 0.99711
 C1801 C 0.14590 -0.08098 1.01908
 C1802 C 0.15289 -0.11495 1.03715
 C1803 C 0.12771 -0.14797 1.04097
 C1804 C 0.16275 -0.17299 1.03309
 H1805 H 0.22993 -0.08130 0.97251
 H1806 H 0.17239 -0.04269 0.98263
 H1807 H 0.10510 -0.14902 1.02047
 H1808 H 0.11752 -0.15113 1.06833
 H1809 H 0.16050 -0.18775 1.00748
 H1810 H 0.17123 -0.19112 1.05574
 C1811 C 0.69491 0.37297 0.47782
 C1812 C 0.72334 0.36954 0.50392
 C1813 C 0.71435 0.38888 0.53596
 C1814 C 0.67873 0.40945 0.54108
 C1815 C 0.65054 0.41085 0.51448
 C1816 C 0.66049 0.39291 0.48290
 C1817 C 0.63832 0.36564 0.46166
 C1818 C 0.67590 0.34407 0.45541
 H1819 H 0.73475 0.38757 0.55733
 H1820 H 0.67345 0.42415 0.56560
 H1821 H 0.62657 0.37824 0.43721
 H1822 H 0.61753 0.34970 0.47767
 H1823 H 0.68506 0.34530 0.42754
 H1824 H 0.67660 0.31521 0.46677
 C1825 C -0.20134 0.40897 0.50015
 C1826 C -0.20211 0.36930 0.49705
 C1827 C -0.16594 0.35226 0.48650
 C1828 C -0.13280 0.37394 0.47956
 C1829 C -0.13398 0.41384 0.48264
 C1830 C -0.16935 0.42955 0.49322
 C1831 C -0.18852 0.46668 0.50093
 C1832 C -0.22479 0.44413 0.50813
 H1833 H -0.16341 0.32180 0.48331
 H1834 H -0.10598 0.35928 0.47302
 H1835 H -0.19083 0.48499 0.47730
 H1836 H -0.17659 0.48029 0.52466
 H1837 H -0.24797 0.44940 0.48859
 H1838 H -0.23390 0.44587 0.53601
 C1839 C 0.31595 -0.13744 -0.03608
 C1840 C 0.28781 -0.12953 -0.00962
 C1841 C 0.29293 -0.09429 0.00791
 C1842 C 0.32477 -0.07126 0.00187
 C1843 C 0.35409 -0.08162 -0.02212
 C1844 C 0.34756 -0.11401 -0.04220
 C1845 C 0.37459 -0.14602 -0.04993
 C1846 C 0.34175 -0.17176 -0.04227
 H1847 H 0.27259 -0.08437 0.02754
 H1848 H 0.32753 -0.04609 0.01784
 H1849 H 0.39857 -0.14871 -0.03080
 H1850 H 0.38299 -0.14652 -0.07797
 H1851 H 0.34662 -0.18889 -0.01814
 H1852 H 0.33382 -0.18805 -0.06598
 C1853 C 0.30695 1.13377 0.47955
 C1854 C 0.27789 1.13626 0.50526
 C1855 C 0.28633 1.11584 0.53680
 C1856 C 0.32129 1.09391 0.54125
 C1857 C 0.34960 1.09229 0.51459
 C1858 C 0.34078 1.11237 0.48388
 C1859 C 0.36434 1.14087 0.46552
 C1860 C 0.32772 1.16442 0.46086
 H1861 H 0.26555 1.11652 0.55794
 H1862 H 0.32585 1.07804 0.56522
 H1863 H 0.37617 1.13016 0.44025
 H1864 H 0.38550 1.15422 0.48312
 H1865 H 0.31921 1.16714 0.43290
 H1866 H 0.32777 1.19155 0.47562
 C1867 C -0.18273 0.64364 1.01581
 C1868 C -0.21640 0.62808 1.00233
 C1869 C -0.21266 0.58890 0.99320
 C1870 C -0.17890 0.56525 0.99880
 C1871 C -0.14542 0.57615 1.01717
 C1872 C -0.14460 0.61376 1.02654
 C1873 C -0.12169 0.64237 1.06554
 C1874 C -0.17174 0.68334 1.05668
 H1875 H -0.23667 0.57515 0.98142
 H1876 H -0.17960 0.53644 0.98904
 H1877 H -0.09297 0.65383 1.05892
 H1878 H -0.11870 0.62654 1.09086
 H1879 H -0.16573 0.71346 1.04995
 H1880 H -0.21668 0.64569 1.10801
 C1881 C -0.01500 0.67946 0.61597
 C1882 C -0.00804 0.71347 0.59829
 C1883 C -0.00184 0.71062 0.56157
 C1884 C 0.00135 0.67499 0.54549
 C1885 C -0.00225 0.64206 0.56571
 C1886 C -0.01181 0.64565 0.60041
 C1887 C -0.01880 0.62345 0.63266
 C1888 C -0.02243 0.66206 0.65111
 H1889 H 0.00080 0.73488 0.54482
 H1890 H 0.00700 0.67315 0.51759
 H1891 H 0.00700 0.60638 0.64071
 H1892 H -0.04612 0.60799 0.63147
 H1893 H 0.00103 0.66632 0.67022
 H1894 H -0.05186 0.66881 0.66105
 C1895 C 0.53177 0.17449 0.11292
 C1896 C 0.51333 0.20696 0.09900
 C1897 C 0.49957 0.20478 0.06416
 C1898 C 0.49963 0.17027 0.04663
 C1899 C 0.51305 0.13735 0.06370
 C1900 C 0.53258 0.14076 0.09529
 C1901 C 0.53116 0.11816 0.12834
 C1902 C 0.53027 0.15567 0.14795
 H1903 H 0.48526 0.22855 0.05136
 H1904 H 0.48634 0.16906 0.02103
 H1905 H 0.55805 0.10108 0.13267
 H1906 H 0.50418 0.10231 0.13103
 H1907 H 0.55662 0.16023 0.16361
 H1908 H 0.50277 0.16072 0.16210
 C1909 C -0.02055 0.17656 0.88546
 C1910 C -0.01005 0.21051 0.90160
 C1911 C -0.00789 0.21033 0.93877
 C1912 C -0.00908 0.17613 0.95713
 C1913 C -0.01457 0.14227 0.93878
 C1914 C -0.02407 0.14397 0.90360
 C1915 C -0.01439 0.11969 0.87255
 C1916 C -0.01140 0.15641 0.85182
 H1917 H -0.00400 0.23566 0.95401
 H1918 H -0.00456 0.17602 0.98521
 H1919 H -0.03891 0.10233 0.86431
 H1920 H 0.01352 0.10388 0.87550
 H1921 H -0.03468 0.16024 0.83213
 H1922 H 0.01799 0.16077 0.84173
 C1923 C 0.51282 0.71339 0.44073
 C1924 C 0.51343 0.71324 0.40377
 C1925 C 0.52649 0.67958 0.38686
 C1926 C 0.53001 0.64603 0.40567
 C1927 C 0.52211 0.64641 0.44162
 C1928 C 0.51841 0.68054 0.45935
 C1929 C 0.49145 0.69234 0.48786
 C1930 C 0.48467 0.72871 0.46744
 H1931 H 0.53040 0.67865 0.35870
 H1932 H 0.53566 0.61961 0.39182
 H1933 H 0.50651 0.69656 0.51316
 H1934 H 0.46597 0.67428 0.48921
 H1935 H 0.49520 0.75386 0.48165
 H1936 H 0.45493 0.73170 0.45758
 C1937 C 0.46160 0.80474 0.40110
 C1938 C 0.49584 0.78265 0.40452
 C1939 C 0.52398 0.79616 0.42778
 C1940 C 0.51861 0.83001 0.44525
 C1941 C 0.48483 0.85100 0.44067
 C1942 C 0.45659 0.83895 0.41818
 C1943 C 0.41549 0.83230 0.42636
 C1944 C 0.42061 0.79474 0.40753
 H1945 H 0.54979 0.78046 0.43417
 H1946 H 0.54069 0.83986 0.46264
 H1947 H 0.39587 0.85267 0.41252
 H1948 H 0.40997 0.82934 0.45494
 H1949 H 0.40344 0.79367 0.38307
 H1950 H 0.41730 0.77003 0.42501
 C1951 C -0.03361 0.30884 0.90340
 C1952 C -0.00373 0.28120 0.90126
 C1953 C 0.03010 0.28720 0.92107
 C1954 C 0.03472 0.32094 0.93930
 C1955 C 0.00552 0.34866 0.93790
 C1956 C -0.02903 0.34146 0.92193
 C1957 C -0.05175 0.36564 0.89714
 C1958 C -0.05740 0.32980 0.87625
 H1959 H 0.05332 0.26616 0.92159
 H1960 H 0.06105 0.32574 0.95349
 H1961 H -0.03405 0.38670 0.88331
 H1962 H -0.07865 0.37727 0.90925
 H1963 H -0.04402 0.33040 0.84994
 H1964 H -0.08798 0.32172 0.87618
 C1965 C 0.46942 0.30455 0.10775
 C1966 C 0.49796 0.27681 0.10029
 C1967 C 0.52422 0.28574 0.07320
 C1968 C 0.52291 0.32086 0.05667
 C1969 C 0.49589 0.34895 0.06715
 C1970 C 0.46905 0.33910 0.09224
 C1971 C 0.43835 0.35558 0.11518
 C1972 C 0.43772 0.31635 0.13255
 H1973 H 0.54663 0.26585 0.06505
 H1974 H 0.54432 0.32634 0.03684
 H1975 H 0.41172 0.36331 0.10057
 H1976 H 0.44922 0.37799 0.13276
 H1977 H 0.41054 0.30172 0.12752
 H1978 H 0.44613 0.31675 0.16052
 C1979 C 0.01968 0.79429 0.57272
 C1980 C -0.01022 0.78526 0.59576
 C1981 C -0.04041 0.81315 0.59953
 C1982 C -0.03725 0.84903 0.58560
 C1983 C -0.00409 0.85834 0.56744
 C1984 C 0.02192 0.82941 0.55807
 C1985 C 0.06462 0.82698 0.55534
 C1986 C 0.06229 0.78742 0.57109
 H1987 H -0.06534 0.80982 0.61581
 H1988 H -0.06000 0.86992 0.59074
 H1989 H 0.07878 0.84759 0.57279
 H1990 H 0.07463 0.82675 0.52766
 H1991 H 0.07680 0.78534 0.59687
 H1992 H 0.07055 0.76455 0.55224
 C1993 C 0.26561 0.27898 0.03551
 C1994 C 0.25939 0.31873 0.03194
 C1995 C 0.26575 0.34037 0.06256
 C1996 C 0.27522 0.32359 0.09451
 C1997 C 0.27527 0.28396 0.09897
 C1998 C 0.27266 0.26215 0.06841
 C1999 C 0.24924 0.22871 0.06090
 C2000 C 0.24095 0.24658 0.02542
 H2001 H 0.26369 0.37104 0.06172
 H2002 H 0.27910 0.34227 0.11669
 H2003 H 0.22348 0.22731 0.07805
 H2004 H 0.26709 0.20215 0.05920
 H2005 H 0.21026 0.25500 0.02231
 H2006 H 0.25346 0.22981 0.00329
 C2007 C 0.72505 0.83793 0.56539
 C2008 C 0.74507 0.82431 0.53581
 C2009 C 0.76604 0.78910 0.54141
 C2010 C 0.76831 0.77085 0.57501
 C2011 C 0.75034 0.78744 0.60469
 C2012 C 0.72768 0.82031 0.59791
 C2013 C 0.72634 0.85713 0.61715
 C2014 C 0.72348 0.87631 0.58217
 H2015 H 0.78272 0.77636 0.52034
 H2016 H 0.78572 0.74514 0.57793
 H2017 H 0.75373 0.86292 0.63081
 H2018 H 0.69981 0.86133 0.63298
 H2019 H 0.74909 0.89332 0.57647
 H2020 H 0.69510 0.89113 0.57902
 C2021 C 0.22210 0.70786 0.54082
 C2022 C 0.25205 0.68085 0.53354
 C2023 C 0.28116 0.67867 0.55947
 C2024 C 0.27702 0.69741 0.59191
 C2025 C 0.24340 0.71886 0.60070
 C2026 C 0.21839 0.72688 0.57283
 C2027 C 0.17591 0.73063 0.56976
 C2028 C 0.17973 0.71002 0.53472
 H2029 H 0.30603 0.65995 0.55672
 H2030 H 0.29911 0.69219 0.61140
 H2031 H 0.16573 0.76064 0.56714
 H2032 H 0.16090 0.71385 0.58970
 H2033 H 0.17189 0.72827 0.51196
 H2034 H 0.16583 0.68218 0.53548
 C2035 C 0.70646 0.18444 0.05459
 C2036 C 0.73915 0.18030 0.03228
 C2037 C 0.77079 0.20251 0.04214
 C2038 C 0.76993 0.22585 0.07255
 C2039 C 0.73742 0.22828 0.09469
 C2040 C 0.70573 0.20777 0.08437
 C2041 C 0.68370 0.18078 0.10587
 C2042 C 0.68497 0.15485 0.07457
 H2043 H 0.79746 0.19996 0.02766
 H2044 H 0.79599 0.23957 0.08032
 H2045 H 0.65422 0.19154 0.11205
 H2046 H 0.69999 0.16902 0.12855
 H2047 H 0.65559 0.15034 0.06458
 H2048 H 0.70245 0.12848 0.07924
 C2049 C 0.71545 0.16555 0.93565
 C2050 C 0.73644 0.17833 0.96455
 C2051 C 0.75821 0.21139 0.95762
 C2052 C 0.76099 0.22758 0.92333
 C2053 C 0.74272 0.21100 0.89436
 C2054 C 0.71849 0.18102 0.90246
 C2055 C 0.71308 0.14346 0.88525
 C2056 C 0.70910 0.12669 0.92154
 H2057 H 0.77516 0.22400 0.97777
 H2058 H 0.77911 0.25159 0.91933
 H2059 H 0.73939 0.13276 0.87152
 H2060 H 0.68606 0.14253 0.86995
 H2061 H 0.73250 0.10590 0.92801
 H2062 H 0.67964 0.11687 0.92688
 C2063 C 0.24742 0.71185 0.45911
 C2064 C 0.24998 0.67236 0.46585
 C2065 C 0.25483 0.64905 0.43578
 C2066 C 0.26175 0.66414 0.40255
 C2067 C 0.26296 0.70358 0.39685
 C2068 C 0.25318 0.72680 0.42555
 C2069 C 0.27103 0.76149 0.43955
 C2070 C 0.26383 0.74592 0.47618
 H2071 H 0.25512 0.61848 0.43833
 H2072 H 0.26643 0.64446 0.38105
 H2073 H 0.25358 0.78756 0.43366
 H2074 H 0.30203 0.76285 0.43278
 H2075 H 0.24167 0.76294 0.49071
 H2076 H 0.29046 0.73974 0.49119
 C2077 C 0.77537 0.84081 0.43975
 C2078 C 0.75674 0.82502 0.46848
 C2079 C 0.74068 0.78879 0.46186
 C2080 C 0.73894 0.77304 0.42726
 C2081 C 0.75359 0.79284 0.39825
 C2082 C 0.77433 0.82526 0.40647
 C2083 C 0.77431 0.86346 0.38961
 C2084 C 0.77490 0.88028 0.42601
 H2085 H 0.72595 0.77418 0.48257
 H2086 H 0.72403 0.74693 0.42314
 H2087 H 0.74717 0.87035 0.37538
 H2088 H 0.80119 0.86832 0.37478
 H2089 H 0.74769 0.89604 0.43225
 H2090 H 0.80197 0.89495 0.43185
 C2091 C 0.22547 0.29001 0.95558
 C2092 C 0.25668 0.31351 0.96425
 C2093 C 0.28749 0.31192 0.93992
 C2094 C 0.28505 0.29215 0.90797
 C2095 C 0.25124 0.27395 0.89779
 C2096 C 0.22316 0.27065 0.92364
 C2097 C 0.18064 0.27409 0.92199
 C2098 C 0.18243 0.29490 0.95688
 H2099 H 0.31277 0.32833 0.94345
 H2100 H 0.30859 0.29445 0.88958
 H2101 H 0.16698 0.24609 0.92394
 H2102 H 0.17035 0.29232 0.89997
 H2103 H 0.16925 0.27862 0.97840
 H2104 H 0.17149 0.32455 0.95458
 C2105 C 0.88906 0.42197 0.76536
 C2106 C 0.87449 0.45781 0.75426
 C2107 C 0.83368 0.45856 0.74983
 C2108 C 0.81127 0.42531 0.75429
 C2109 C 0.82780 0.39000 0.76550
 C2110 C 0.86718 0.39075 0.77136
 C2111 C 0.90092 0.36513 0.77810
 C2112 C 0.92558 0.40008 0.77231
 H2113 H 0.81853 0.48436 0.74231
 H2114 H 0.78089 0.42717 0.74835
 H2115 H 0.90479 0.34317 0.75738
 H2116 H 0.90150 0.35442 0.80548
 H2117 H 0.94412 0.39753 0.74866
 H2118 H 0.94014 0.40960 0.79655
 C2119 C 0.35798 0.94622 0.28375
 C2120 C 0.38155 0.95414 0.25456
 C2121 C 0.38974 0.92139 0.23346
 C2122 C 0.37187 0.88632 0.23911
 C2123 C 0.34597 0.88066 0.26715
 C2124 C 0.34144 0.91165 0.28971
 C2125 C 0.32060 0.92491 0.32158
 C2126 C 0.33974 0.96324 0.31580
 H2127 H 0.41011 0.92194 0.21215
 H2128 H 0.37803 0.86347 0.22077
 H2129 H 0.33070 0.90981 0.34555
 H2130 H 0.28898 0.92616 0.31768
 H2131 H 0.36131 0.96986 0.33620
 H2132 H 0.31861 0.98654 0.31006
 C2133 C 0.15190 0.96319 0.72801
 C2134 C 0.11761 0.96582 0.74808
 C2135 C 0.10328 0.93038 0.75933
 C2136 C 0.12272 0.89557 0.75272
 C2137 C 0.15769 0.89374 0.73441
 C2138 C 0.17142 0.92814 0.72182
 C2139 C 0.20996 0.94407 0.72712
 C2140 C 0.18951 0.98178 0.73426
 H2141 H 0.07593 0.92916 0.77270
 H2142 H 0.11087 0.86987 0.76318
 H2143 H 0.22714 0.94386 0.70255
 H2144 H 0.22501 0.93207 0.75047
 H2145 H 0.19609 1.00319 0.71397
 H2146 H 0.19269 0.99172 0.76176
 C2147 C 0.62149 0.44234 0.23626
 C2148 C 0.63329 0.47855 0.24650
 C2149 C 0.67424 0.48129 0.24798
 C2150 C 0.69960 0.44913 0.24117
 C2151 C 0.68537 0.41380 0.22981
 C2152 C 0.64593 0.41291 0.22762
 C2153 C 0.61538 0.38611 0.22051
 C2154 C 0.58709 0.41906 0.22928
 H2155 H 0.68714 0.50780 0.25448
 H2156 H 0.73018 0.45198 0.24486
 H2157 H 0.61529 0.36253 0.23981
 H2158 H 0.61611 0.37792 0.19241
 H2159 H 0.56984 0.41414 0.25328
 H2160 H 0.57037 0.42881 0.20609
 C2161 C 0.64326 0.56333 0.28303
 C2162 C 0.62305 0.55175 0.25298
 C2163 C 0.62016 0.58045 0.22674
 C2164 C 0.63860 0.61576 0.23013
 C2165 C 0.66020 0.62540 0.26030
 C2166 C 0.66030 0.59795 0.28662
 C2167 C 0.67677 0.58848 0.32153
 C2168 C 0.65728 0.54999 0.31796
 H2169 H 0.60388 0.57630 0.20308
 H2170 H 0.63605 0.63556 0.20853
 H2171 H 0.66431 0.60676 0.34265
 H2172 H 0.70865 0.58616 0.32090
 H2173 H 0.63339 0.54619 0.33687
 H2174 H 0.67816 0.52570 0.31601
 C2175 C 0.12027 0.06366 0.78524
 C2176 C 0.11811 0.03976 0.75512
 C2177 C 0.13668 0.05414 0.72503
 C2178 C 0.15750 0.08815 0.72586
 C2179 C 0.16119 0.11004 0.75692
 C2180 C 0.14066 0.09744 0.78585
 C2181 C 0.15364 0.09247 0.82255
 C2182 C 0.13244 0.05559 0.82235
 H2183 H 0.13502 0.03896 0.70043
 H2184 H 0.17125 0.09692 0.70185
 H2185 H 0.14051 0.11426 0.84029
 H2186 H 0.18533 0.08846 0.82476
 H2187 H 0.10779 0.05627 0.84090
 H2188 H 0.15214 0.03033 0.82448
 C2189 C 0.38708 0.06265 0.23057
 C2190 C 0.37340 0.02769 0.24250
 C2191 C 0.33251 0.02704 0.24482
 C2192 C 0.30899 0.06060 0.23963
 C2193 C 0.32497 0.09539 0.22909
 C2194 C 0.36431 0.09388 0.22326
 C2195 C 0.39725 0.11958 0.22041
 C2196 C 0.42311 0.08434 0.22750
 H2197 H 0.31831 0.00116 0.25103
 H2198 H 0.27840 0.05942 0.24439
 H2199 H 0.39753 0.14077 0.24199
 H2200 H 0.40044 0.13123 0.19354
 H2201 H 0.43904 0.08605 0.25261
 H2202 H 0.44069 0.07552 0.20441
 C2203 C 0.87432 0.55964 0.77484
 C2204 C 0.87638 0.53204 0.74806
 C2205 C 0.85527 0.54221 0.71713
 C2206 C 0.83473 0.57795 0.71359
 C2207 C 0.83445 0.60530 0.74083
 C2208 C 0.85388 0.59411 0.77149
 C2209 C 0.88276 0.61519 0.79194
 C2210 C 0.90534 0.57803 0.79538
 H2211 H 0.85507 0.52258 0.69532
 H2212 H 0.81915 0.58400 0.68963
 H2213 H 0.87112 0.62566 0.81739
 H2214 H 0.89761 0.63665 0.77593
 H2215 H 0.90690 0.56794 0.82294
 H2216 H 0.93329 0.57794 0.78129
 C2217 C 0.95816 0.72519 0.17337
 C2218 C 0.97004 0.75317 0.14990
 C2219 C 0.94831 0.78778 0.14959
 C2220 C 0.91190 0.78997 0.16469
 C2221 C 0.89836 0.75898 0.18332
 C2222 C 0.92244 0.72749 0.18894
 C2223 C 0.93714 0.71431 0.22366
 C2224 C 0.97648 0.71310 0.20750
 H2225 H 0.95806 0.81277 0.13637
 H2226 H 0.89460 0.81581 0.16200
 H2227 H 0.92664 0.68582 0.23056
 H2228 H 0.93367 0.73612 0.24459
 H2229 H 0.98941 0.68398 0.20716
 H2230 H 0.99517 0.73472 0.21910
 C2231 C 0.42203 0.25032 0.62446
 C2232 C 0.45753 0.25293 0.64141
 C2233 C 0.45637 0.25479 0.67864
 C2234 C 0.42115 0.25701 0.69629
 C2235 C 0.38681 0.25668 0.67715
 C2236 C 0.38862 0.25333 0.64142
 C2237 C 0.36474 0.24720 0.60989
 C2238 C 0.40294 0.24374 0.58987
 H2239 H 0.48163 0.25308 0.69479
 H2240 H 0.42072 0.25813 0.72468
 H2241 H 0.34730 0.27298 0.60302
 H2242 H 0.34908 0.22024 0.61121
 H2243 H 0.40687 0.26700 0.57075
 H2244 H 0.40894 0.21475 0.57942
 C2245 C 0.45212 0.75483 0.81938
 C2246 C 0.45631 0.73877 0.85278
 C2247 C 0.42494 0.71915 0.86669
 C2248 C 0.39047 0.71832 0.84871
 C2249 C 0.38622 0.73817 0.81706
 C2250 C 0.41819 0.75406 0.80173
 C2251 C 0.42405 0.79187 0.78526
 C2252 C 0.46228 0.79236 0.80423
 H2253 H 0.42621 0.70569 0.89209
 H2254 H 0.36662 0.70426 0.86083
 H2255 H 0.40330 0.81401 0.79496
 H2256 H 0.42712 0.78998 0.75631
 H2257 H 0.46389 0.81558 0.82371
 H2258 H 0.48723 0.79015 0.78608
 C2259 C 0.93247 0.24015 0.36517
 C2260 C 0.96851 0.24687 0.35064
 C2261 C 0.97009 0.24727 0.31323
 C2262 C 0.93651 0.24506 0.29309
 C2263 C 0.90095 0.24029 0.30963
 C2264 C 0.90082 0.23608 0.34562
 C2265 C 0.87447 0.23404 0.37622
 C2266 C 0.91059 0.23767 0.39880
 H2267 H 0.99662 0.24929 0.29887
 H2268 H 0.93836 0.24744 0.26483
 H2269 H 0.86095 0.20601 0.37838
 H2270 H 0.85449 0.25913 0.37795
 H2271 H 0.91811 0.21149 0.41375
 H2272 H 0.91031 0.26444 0.41411
 C2273 C 0.06626 0.22006 0.34875
 C2274 C 0.04006 0.25079 0.35245
 C2275 C 0.04681 0.28420 0.33300
 C2276 C 0.07914 0.28672 0.31178
 C2277 C 0.10552 0.25637 0.31054
 C2278 C 0.09813 0.22282 0.32781
 C2279 C 0.12355 0.20100 0.35240
 C2280 C 0.08874 0.19810 0.37590
 H2281 H 0.02691 0.30823 0.33416
 H2282 H 0.08379 0.31226 0.29698
 H2283 H 0.14656 0.21835 0.36385
 H2284 H 0.13346 0.17333 0.34117
 H2285 H 0.09161 0.21370 0.40102
 H2286 H 0.07918 0.16848 0.37859
 C2287 C 0.53990 0.71973 0.82729
 C2288 C 0.52599 0.74967 0.84868
 C2289 C 0.54549 0.78440 0.84702
 C2290 C 0.58148 0.78590 0.83153
 C2291 C 0.59683 0.75386 0.81459
 C2292 C 0.57532 0.72155 0.81136
 C2293 C 0.56236 0.70479 0.77776
 C2294 C 0.52317 0.70397 0.79383
 H2295 H 0.53443 0.81006 0.85930
 H2296 H 0.59714 0.81195 0.83264
 H2297 H 0.57533 0.67609 0.77313
 H2298 H 0.56400 0.72466 0.75523
 H2299 H 0.51311 0.67452 0.79579
 H2300 H 0.50294 0.72349 0.77996
 C2301 C 0.53859 0.27643 0.66561
 C2302 C 0.53001 0.24785 0.64151
 C2303 C 0.55824 0.21847 0.63658
 C2304 C 0.59334 0.21944 0.65358
 C2305 C 0.60156 0.25002 0.67543
 C2306 C 0.57263 0.27665 0.68316
 C2307 C 0.57225 0.31889 0.68541
 C2308 C 0.53394 0.31866 0.66627
 H2309 H 0.55475 0.19542 0.61832
 H2310 H 0.61448 0.19697 0.64844
 H2311 H 0.59567 0.33149 0.66982
 H2312 H 0.56965 0.32916 0.71289
 H2313 H 0.53537 0.33219 0.64008
 H2314 H 0.50943 0.32841 0.68301
 C2315 C 0.06730 0.71135 0.14647
 C2316 C 0.03947 0.74057 0.15038
 C2317 C 0.04495 0.76724 0.17760
 C2318 C 0.07932 0.76756 0.19606
 C2319 C 0.10896 0.74154 0.18733
 C2320 C 0.10101 0.71151 0.16496
 C2321 C 0.12377 0.69425 0.13550
 C2322 C 0.08679 0.69480 0.11476
 H2323 H 0.02397 0.78986 0.18256
 H2324 H 0.08372 0.79013 0.21477
 H2325 H 0.13469 0.66514 0.14183
 H2326 H 0.14546 0.71349 0.12452
 H2327 H 0.07688 0.66600 0.10820
 H2328 H 0.08774 0.71508 0.09273
   
