data_POSCAR
  _audit_creation_date              2014-09-24
  _audit_creation_method            'ToBaCCo'
  _symmetry_space_group_name_H-M    'P1'
  _symmetry_Int_Tables_number       1
  _symmetry_cell_setting            triclinic
  loop_
  _symmetry_equiv_pos_as_xyz
 x,y,z
_cell_length_a 97.0648
_cell_length_b 97.6297
_cell_length_c 96.6215
_cell_angle_alpha 90.052400
_cell_angle_beta 90.064600
_cell_angle_gamma 90.073600
loop_
  _atom_site_label
  _atom_site_type_symbol
  _atom_site_fract_x
  _atom_site_fract_y
  _atom_site_fract_z
C1 C 0.30942 0.44009 0.92493
 N2 N 0.30386 0.42887 0.93108
 C3 C 0.30981 0.42328 0.94249
 N4 N 0.32148 0.42901 0.94770
 C5 C 0.32722 0.44024 0.94168
 N6 N 0.32109 0.44569 0.93028
 C7 C 0.44182 0.82768 0.44186
 N8 N 0.43050 0.82174 0.44757
 C9 C 0.42469 0.81042 0.44181
 N10 N 0.43032 0.80501 0.43016
 C11 C 0.44166 0.81077 0.42431
 N12 N 0.44732 0.82210 0.43021
 C13 C 0.93968 0.92103 0.81047
 N14 N 0.92847 0.92701 0.80463
 C15 C 0.92278 0.93842 0.81029
 N16 N 0.92843 0.94383 0.82195
 C17 C 0.93967 0.93800 0.82796
 N18 N 0.94520 0.92658 0.82212
 C19 C 0.43977 -0.07894 0.30912
 N20 N 0.44556 -0.07292 0.32043
 C21 C 0.44006 -0.06138 0.32601
 N22 N 0.42860 -0.05586 0.32019
 C23 C 0.42267 -0.06170 0.30890
 N24 N 0.42831 -0.07322 0.30345
 C25 C 0.81203 0.31262 0.32907
 N26 N 0.82346 0.30697 0.32332
 C27 C 0.82930 0.31253 0.31185
 N28 N 0.82359 0.32391 0.30614
 C29 C 0.81215 0.32969 0.31175
 N30 N 0.80646 0.32398 0.32322
 C31 C -0.18950 0.82764 0.81020
 N32 N -0.19519 0.82224 0.82182
 C33 C -0.18953 0.81111 0.82809
 N34 N -0.17801 0.80542 0.82253
 C35 C -0.17217 0.81069 0.81092
 N36 N -0.17798 0.82181 0.80483
 C37 C 0.93852 0.33001 0.43840
 N38 N 0.92717 0.32418 0.44419
 C39 C 0.92134 0.31279 0.43859
 N40 N 0.92698 0.30720 0.42704
 C41 C 0.93832 0.31284 0.42110
 N42 N 0.94401 0.32424 0.42683
 C43 C 0.44026 0.43866 0.82740
 N44 N 0.44580 0.42725 0.82155
 C45 C 0.44025 0.42168 0.80991
 N46 N 0.42901 0.42764 0.80411
 C47 C 0.42333 0.43905 0.80977
 N48 N 0.42900 0.44447 0.82142
 C49 C 0.81107 0.92096 0.94022
 N50 N 0.80515 0.92695 0.92900
 C51 C 0.81070 0.93836 0.92321
 N52 N 0.82235 0.94380 0.92874
 C53 C 0.82846 0.93801 0.93998
 N54 N 0.82272 0.92658 0.94563
 C55 C 0.31151 0.82927 0.30990
 N56 N 0.30551 0.82358 0.32124
 C57 C 0.31088 0.81220 0.32725
 N58 N 0.32243 0.80649 0.32182
 C59 C 0.32858 0.81200 0.31049
 N60 N 0.32306 0.82339 0.30461
 C61 C 0.81249 0.42021 0.43900
 N62 N 0.82400 0.42609 0.44443
 C63 C 0.82963 0.43742 0.43855
 N64 N 0.82364 0.44286 0.42709
 C65 C 0.81214 0.43712 0.42152
 N66 N 0.80665 0.42579 0.42753
 C67 C 0.93840 0.82983 -0.06132
 N68 N 0.92696 0.82397 -0.05577
 C69 C 0.92123 0.81262 -0.06154
 N70 N 0.92706 0.80711 -0.07304
 C71 C 0.93851 0.81277 -0.07878
 N72 N 0.94409 0.82414 -0.07282
 C73 C 0.30943 0.32700 0.80871
 N74 N 0.30371 0.32139 0.82021
 C75 C 0.30940 0.31020 0.82630
 N76 N 0.32099 0.30464 0.82077
 C77 C 0.32685 0.31012 0.80926
 N78 N 0.32101 0.32130 0.80332
 C79 C 0.17416 0.56136 0.55957
 N80 N 0.17976 0.55600 0.57126
 C81 C 0.19092 0.56192 0.57732
 N82 N 0.19645 0.57338 0.57157
 C83 C 0.19097 0.57888 0.55988
 N84 N 0.17982 0.57281 0.55397
 C85 C 0.57477 0.69232 0.05748
 N86 N 0.56910 0.68098 0.05161
 C87 C 0.55765 0.67509 0.05709
 N88 N 0.55190 0.68064 0.06862
 C89 C 0.55743 0.69197 0.07463
 N90 N 0.56888 0.69773 0.06900
 C91 C 0.69117 0.18981 0.67529
 N92 N 0.67982 0.19551 0.68115
 C93 C 0.67398 0.18988 0.69259
 N94 N 0.67959 0.17837 0.69812
 C95 C 0.69092 0.17252 0.69239
 N96 N 0.69664 0.17830 0.68097
 C97 C 1.07619 0.05840 0.19175
 N98 N 1.07019 0.05297 0.18025
 C99 C 1.05869 0.05865 0.17463
 N100 N 1.05318 0.06996 0.18070
 C101 C 1.05899 0.07554 0.19220
 N102 N 1.07049 0.06971 0.19763
 C103 C 0.05948 0.17251 1.05822
 N104 N 0.05368 0.17817 1.06968
 C105 C 0.05924 0.18947 1.07577
 N106 N 0.07079 0.19510 1.07020
 C107 C 0.07674 0.18962 1.05875
 N108 N 0.07103 0.17833 1.05284
 C109 C 0.17320 0.68920 0.69073
 N110 N 0.17888 0.67780 0.69641
 C111 C 0.19016 0.67186 0.69067
 N112 N 0.19575 0.67744 0.67908
 C113 C 0.19021 0.68885 0.67326
 N114 N 0.17892 0.69464 0.67914
 C115 C 1.19109 0.17274 0.19125
 N116 N 1.17977 0.17862 0.19699
 C117 C 1.17389 0.18984 0.19117
 N118 N 1.17944 0.19516 0.17944
 C119 C 1.19076 0.18943 0.17352
 N120 N 1.19649 0.17820 0.17952
 C121 C 0.67194 1.06163 0.56006
 N122 N 0.67765 1.05600 0.57158
 C123 C 0.68926 1.06135 0.57729
 N124 N 0.69518 1.07251 0.57137
 C125 C 0.68967 1.07834 0.55986
 N126 N 0.67804 1.07281 0.55429
 C127 C 0.55733 0.55868 0.17568
 N128 N 0.55187 0.57001 0.18173
 C129 C 0.55770 0.57552 0.19326
 N130 N 0.56915 0.56959 0.19870
 C131 C 0.57474 0.55826 0.19278
 N132 N 0.56877 0.55290 0.18126
 C133 C 0.67534 0.69149 0.19296
 N134 N 0.68108 0.68014 0.19867
 C135 C 0.69249 0.67434 0.19305
 N136 N 0.69815 0.68000 0.18154
 C137 C 0.69256 0.69136 0.17568
 N138 N 0.68113 0.69702 0.18144
 C139 C 0.17339 0.05997 1.05847
 N140 N 0.17951 0.05435 1.06978
 C141 C 0.19094 0.06009 1.07554
 N142 N 0.19624 0.07165 1.06979
 C143 C 0.19030 0.07744 1.05848
 N144 N 0.17888 0.07155 1.05291
 C145 C 0.57591 0.19103 0.55848
 N146 N 0.57008 0.19666 0.56994
 C147 C 0.55866 0.19099 0.57572
 N148 N 0.55313 0.17954 0.56996
 C149 C 0.55883 0.17376 0.55853
 N150 N 0.57023 0.17956 0.55288
 C151 C 0.07678 0.55967 0.69140
 N152 N 0.07101 0.55394 0.67996
 C153 C 0.05942 0.55928 0.67423
 N154 N 0.05359 0.57052 0.68008
 C155 C 0.05919 0.57639 0.69154
 N156 N 0.07081 0.57092 0.69712
 C157 C 0.67539 0.55862 0.05712
 N158 N 0.68116 0.56996 0.05140
 C159 C 0.69262 0.57574 0.05700
 N160 N 0.69830 0.57006 0.06850
 C161 C 0.69267 0.55871 0.07437
 N162 N 0.68119 0.55308 0.06863
 C163 C 0.05982 0.69000 0.57599
 N164 N 0.05433 0.67871 0.56988
 C165 C 0.06027 0.67310 0.55848
 N166 N 0.07188 0.67889 0.55324
 C167 C 0.07752 0.69018 0.55922
 N168 N 0.07144 0.69566 0.57061
 C169 C 0.56077 1.06124 0.67200
 N170 N 0.57228 1.05564 0.67769
 C171 C 0.57795 1.06097 0.68939
 N172 N 0.57198 1.07205 0.69541
 C173 C 0.56048 1.07778 0.68991
 N174 N 0.55496 1.07233 0.67820
 C175 C 0.43977 0.32927 0.94066
 N176 N 0.44525 0.32350 0.92909
 C177 C 0.43967 0.31201 0.92345
 N178 N 0.42844 0.30626 0.92950
 C179 C 0.42283 0.31183 0.94108
 N180 N 0.42854 0.32334 0.94657
 C181 C 0.93844 0.43669 0.32833
 N182 N 0.92698 0.44244 0.32270
 C183 C 0.92099 0.43701 0.31122
 N184 N 0.92657 0.42565 0.30535
 C185 C 0.93803 0.41975 0.31081
 N186 N 0.94388 0.42533 0.32229
 C187 C 0.30980 0.94023 0.42290
 N188 N 0.30418 0.92905 0.42908
 C189 C 0.30978 0.92376 0.44080
 N190 N 0.32118 0.92976 0.44631
 C191 C 0.32699 0.94095 0.44029
 N192 N 0.32120 0.94610 0.42857
 O193 O 0.28695 0.49851 0.76813
 O194 O 0.28209 0.52252 0.76768
 O195 O 0.25061 0.48199 0.78720
 O196 O 0.22794 0.48197 0.78309
 O197 O 0.26751 0.46338 0.75051
 O198 O 0.26642 0.46903 0.72639
 O199 O 0.21418 0.51765 0.74996
 O200 O 0.21859 0.51470 0.77427
 O201 O 0.24926 0.53617 0.73370
 O202 O 0.27413 0.53137 0.73487
 O203 O 0.23258 0.50198 0.71443
 O204 O 0.23362 0.47694 0.71881
 O205 O 0.21420 0.50167 0.73287
 O206 O 0.21899 0.47668 0.73356
 O207 O 0.24924 0.51832 0.71485
 O208 O 0.27445 0.51679 0.72003
 O209 O 0.23241 0.53577 0.74999
 O210 O 0.23470 0.53243 0.77324
 O211 O 0.28688 0.48248 0.75105
 O212 O 0.28178 0.48424 0.72676
 O213 O 0.25108 0.46311 0.76725
 O214 O 0.22640 0.46861 0.76517
 O215 O 0.26772 0.49789 0.78745
 O216 O 0.26719 0.52272 0.78266
 Zr217 Zr 0.26698 0.50691 0.76766
 O218 O 0.25488 0.52036 0.75575
 Zr219 Zr 0.24265 0.48299 0.76698
 O220 O 0.22945 0.49546 0.75509
 Zr221 Zr 0.26688 0.48347 0.74269
 O222 O 0.25478 0.49588 0.72968
 Zr223 Zr 0.23391 0.51617 0.75877
 O224 O 0.24594 0.50378 0.77217
 Zr225 Zr 0.25817 0.51657 0.73460
 O226 O 0.27156 0.50419 0.74653
 Zr227 Zr 0.23382 0.49259 0.73398
 O228 O 0.24593 0.47891 0.74584
 O229 O 0.26352 0.48629 0.76372
 O230 O 0.23719 0.51333 0.73769
 C231 C 0.29282 0.48911 0.76090
 C232 C 0.26046 0.48848 0.79324
 C233 C 0.26062 0.45734 0.76009
 C234 C 0.20842 0.51130 0.73983
 C235 C 0.23922 0.54172 0.74030
 C236 C 0.23932 0.51189 0.70888
 H237 H 0.25703 0.52993 0.75835
 H238 H 0.25703 0.49385 0.71992
 H239 H 0.26937 0.48028 0.76951
 H240 H 0.21974 0.49336 0.75734
 H241 H 0.22323 0.51137 0.78276
 H242 H 0.22040 0.48831 0.78063
 H243 H 0.27301 0.50905 0.71358
 H244 H 0.28635 0.49328 0.72752
 H245 H 0.23992 0.52901 0.78130
 H246 H 0.25965 0.52083 0.78928
 H247 H 0.24179 0.47821 0.71284
 H248 H 0.25722 0.46465 0.72669
 H249 H 0.28642 0.52237 0.75841
 H250 H 0.27316 0.53682 0.74345
 H251 H 0.22784 0.46361 0.75637
 H252 H 0.21300 0.47776 0.74176
 O253 O 0.24933 0.03629 0.23194
 O254 O 0.27346 0.03128 0.23290
 O255 O 0.23294 0.00078 0.21168
 O256 O 0.23271 -0.02184 0.21513
 O257 O 0.21346 0.01683 0.24825
 O258 O 0.21857 0.01518 0.27245
 O259 O 0.26814 -0.03633 0.24900
 O260 O 0.26566 -0.03193 0.22495
 O261 O 0.28626 -0.00204 0.26644
 O262 O 0.28132 0.02288 0.26589
 O263 O 0.25126 -0.01891 0.28446
 O264 O 0.22631 -0.01787 0.27941
 O265 O 0.25159 -0.03673 0.26559
 O266 O 0.22636 -0.03196 0.26418
 O267 O 0.26782 -0.00247 0.28487
 O268 O 0.26655 0.02261 0.28043
 O269 O 0.28626 -0.01818 0.24950
 O270 O 0.28176 -0.01595 0.22459
 O271 O 0.23284 0.03596 0.24863
 O272 O 0.23399 0.03032 0.27288
 O273 O 0.21349 0.00081 0.23117
 O274 O 0.21878 -0.02373 0.23291
 O275 O 0.24933 0.01744 0.21216
 O276 O 0.27355 0.01629 0.21731
 Zr277 Zr 0.25765 0.01638 0.23225
 O278 O 0.27091 0.00414 0.24422
 Zr279 Zr 0.23343 -0.00768 0.23170
 O280 O 0.24573 -0.02111 0.24350
 Zr281 Zr 0.23350 0.01590 0.25656
 O282 O 0.24562 0.00349 0.26957
 Zr283 Zr 0.26665 -0.01662 0.24043
 O284 O 0.25442 -0.00437 0.22717
 Zr285 Zr 0.26656 0.00690 0.26532
 O286 O 0.25445 0.02052 0.25339
 Zr287 Zr 0.24240 -0.01725 0.26465
 O288 O 0.22891 -0.00485 0.25282
 O289 O 0.23679 0.01298 0.23554
 O290 O 0.26334 -0.01386 0.26154
 C291 C 0.23975 0.04203 0.23907
 C292 C 0.23983 0.01053 0.20600
 C293 C 0.20756 0.01017 0.23839
 C294 C 0.26154 -0.04227 0.25884
 C295 C 0.29202 -0.01175 0.25957
 C296 C 0.26113 -0.01239 0.29043
 H297 H 0.28057 0.00652 0.24208
 H298 H 0.24334 0.00549 0.27933
 H299 H 0.23094 0.01895 0.22971
 H300 H 0.24368 -0.03071 0.24098
 H301 H 0.26122 -0.02770 0.21677
 H302 H 0.23826 -0.02989 0.21787
 H303 H 0.25845 0.02119 0.28648
 H304 H 0.24311 0.03486 0.27244
 H305 H 0.28761 -0.00778 0.22608
 H306 H 0.27308 0.00729 0.21260
 H307 H 0.22727 -0.00973 0.28545
 H308 H 0.21415 0.00605 0.27184
 H309 H 0.27316 0.03539 0.24226
 H310 H 0.28725 0.02197 0.25762
 H311 H 0.21365 -0.02246 0.24166
 H312 H 0.22783 -0.03790 0.25602
 O313 O 0.53738 0.73239 0.24998
 O314 O 0.53244 0.73380 0.27419
 O315 O 0.50121 0.71270 0.23399
 O316 O 0.47855 0.71653 0.23379
 O317 O 0.51794 0.74823 0.21365
 O318 O 0.51690 0.77226 0.21834
 O319 O 0.46476 0.75100 0.26874
 O320 O 0.46871 0.72710 0.26679
 O321 O 0.49976 0.76791 0.28650
 O322 O 0.52472 0.76688 0.28140
 O323 O 0.48285 0.78537 0.25110
 O324 O 0.48378 0.77995 0.22611
 O325 O 0.46461 0.76707 0.25176
 O326 O 0.46935 0.76511 0.22644
 O327 O 0.49944 0.78580 0.26768
 O328 O 0.52464 0.78096 0.26624
 O329 O 0.48313 0.75154 0.28692
 O330 O 0.48484 0.72676 0.28289
 O331 O 0.53733 0.74852 0.23303
 O332 O 0.53216 0.77266 0.23380
 O333 O 0.50151 0.73163 0.21408
 O334 O 0.47689 0.73389 0.21950
 O335 O 0.51803 0.71314 0.25038
 O336 O 0.51704 0.71872 0.27463
 Zr337 Zr 0.51739 0.73319 0.25837
 O338 O 0.50539 0.74556 0.27149
 Zr339 Zr 0.49311 0.73267 0.23414
 O340 O 0.47989 0.74484 0.24632
 Zr341 Zr 0.51732 0.75679 0.23364
 O342 O 0.50513 0.77016 0.24558
 Zr343 Zr 0.48441 0.74213 0.26739
 O344 O 0.49640 0.72853 0.25531
 Zr345 Zr 0.50856 0.76629 0.26668
 O346 O 0.52197 0.75397 0.25472
 Zr347 Zr 0.48417 0.76561 0.24253
 O348 O 0.49636 0.75341 0.22918
 O349 O 0.51397 0.73612 0.23736
 O350 O 0.48760 0.76289 0.26362
 C351 C 0.54327 0.73912 0.24019
 C352 C 0.51093 0.70701 0.24098
 C353 C 0.51100 0.73852 0.20793
 C354 C 0.45894 0.76069 0.26190
 C355 C 0.48988 0.76144 0.29248
 C356 C 0.48950 0.79133 0.26091
 H357 H 0.50779 0.74359 0.28122
 H358 H 0.50731 0.77973 0.24310
 H359 H 0.51983 0.73013 0.23156
 H360 H 0.47017 0.74249 0.24434
 H361 H 0.47278 0.71884 0.26247
 H362 H 0.47056 0.71946 0.23940
 H363 H 0.52319 0.78690 0.25808
 H364 H 0.53673 0.77229 0.24295
 H365 H 0.49313 0.72817 0.28868
 H366 H 0.50790 0.71422 0.27425
 H367 H 0.49203 0.78584 0.22698
 H368 H 0.50765 0.77185 0.21403
 H369 H 0.53675 0.74298 0.27373
 H370 H 0.52375 0.75878 0.28748
 H371 H 0.47833 0.74240 0.21413
 H372 H 0.46320 0.75719 0.22810
 O373 O 0.03660 0.73185 0.74942
 O374 O 0.03172 0.73305 0.77362
 O375 O 0.00026 0.71245 0.73336
 O376 O -0.02236 0.71642 0.73312
 O377 O 0.01724 0.74800 0.71325
 O378 O 0.01625 0.77201 0.71807
 O379 O -0.03589 0.75059 0.76844
 O380 O -0.03201 0.72672 0.76639
 O381 O -0.00082 0.76736 0.78621
 O382 O 0.02414 0.76618 0.78114
 O383 O -0.01767 0.78507 0.75102
 O384 O -0.01691 0.77988 0.72605
 O385 O -0.03602 0.76681 0.75161
 O386 O -0.03129 0.76499 0.72621
 O387 O -0.00102 0.78531 0.76754
 O388 O 0.02418 0.78031 0.76600
 O389 O -0.01754 0.75107 0.78656
 O390 O -0.01579 0.72621 0.78239
 O391 O 0.03660 0.74810 0.73258
 O392 O 0.03152 0.77228 0.73355
 O393 O 0.00071 0.73148 0.71357
 O394 O -0.02394 0.73391 0.71905
 O395 O 0.01720 0.71268 0.74964
 O396 O 0.01618 0.71807 0.77398
 Zr397 Zr 0.01663 0.73266 0.75783
 O398 O 0.00474 0.74501 0.77108
 Zr399 Zr -0.00770 0.73247 0.73364
 O400 O -0.02083 0.74458 0.74597
 Zr401 Zr 0.01662 0.75646 0.73328
 O402 O 0.00452 0.76979 0.74534
 Zr403 Zr -0.01626 0.74170 0.76700
 O404 O -0.00438 0.72814 0.75477
 Zr405 Zr 0.00799 0.76576 0.76640
 O406 O 0.02130 0.75345 0.75433
 Zr407 Zr -0.01647 0.76536 0.74231
 O408 O -0.00436 0.75322 0.72883
 O409 O 0.01318 0.73578 0.73686
 O410 O -0.01300 0.76247 0.76336
 C411 C 0.04250 0.73861 0.73966
 C412 C 0.01002 0.70667 0.74022
 C413 C 0.01028 0.73833 0.70748
 C414 C -0.04169 0.76034 0.76170
 C415 C -0.01076 0.76095 0.79215
 C416 C -0.01096 0.79094 0.76084
 H417 H 0.00714 0.74297 0.78080
 H418 H 0.00674 0.77937 0.74292
 H419 H 0.01901 0.72981 0.73102
 H420 H -0.03056 0.74228 0.74399
 H421 H -0.02801 0.71849 0.76195
 H422 H -0.03026 0.71929 0.73888
 H423 H 0.02270 0.78635 0.75793
 H424 H 0.03616 0.77179 0.74266
 H425 H -0.00761 0.72769 0.78830
 H426 H 0.00703 0.71361 0.77355
 H427 H -0.00852 0.78559 0.72682
 H428 H 0.00699 0.77166 0.71376
 H429 H 0.03601 0.74224 0.77329
 H430 H 0.02312 0.75806 0.78717
 H431 H -0.02239 0.74240 0.71367
 H432 H -0.03753 0.75714 0.72788
 O433 O 0.00113 0.03685 0.01693
 O434 O -0.02300 0.03187 0.01592
 O435 O 0.01741 0.00126 0.03720
 O436 O 0.01749 -0.02137 0.03362
 O437 O 0.03692 0.01738 0.00067
 O438 O 0.03178 0.01570 -0.02360
 O439 O -0.01752 -0.03596 -0.00021
 O440 O -0.01506 -0.03110 0.02411
 O441 O -0.03587 -0.00163 -0.01762
 O442 O -0.03112 0.02321 -0.01685
 O443 O -0.00093 -0.01833 -0.03566
 O444 O 0.02416 -0.01703 -0.03061
 O445 O -0.00108 -0.03618 -0.01692
 O446 O 0.02404 -0.03134 -0.01559
 O447 O -0.01748 -0.00192 -0.03602
 O448 O -0.01617 0.02324 -0.03139
 O449 O -0.03575 -0.01800 -0.00094
 O450 O -0.03292 -0.01522 0.02233
 O451 O 0.01766 0.03651 0.00028
 O452 O 0.01646 0.03094 -0.02391
 O453 O 0.03683 0.00133 0.01770
 O454 O 0.03141 -0.02323 0.01610
 O455 O 0.00129 0.01812 0.03668
 O456 O -0.02354 0.01740 0.03123
 Zr457 Zr -0.00727 0.01694 0.01666
 O458 O -0.02048 0.00457 0.00468
 Zr459 Zr 0.01686 -0.00713 0.01715
 O460 O 0.00466 -0.02058 0.00522
 Zr461 Zr 0.01689 0.01646 -0.00767
 O462 O 0.00474 0.00408 -0.02073
 Zr463 Zr -0.01625 -0.01618 0.00828
 O464 O -0.00417 -0.00386 0.02173
 Zr465 Zr -0.01620 0.00741 -0.01643
 O466 O -0.00406 0.02105 -0.00449
 Zr467 Zr 0.00802 -0.01664 -0.01590
 O468 O 0.02146 -0.00428 -0.00394
 O469 O 0.01357 0.01354 0.01335
 O470 O -0.01292 -0.01335 -0.01279
 C471 C 0.01075 0.04258 0.00984
 C472 C 0.01067 0.01112 0.04286
 C473 C 0.04278 0.01071 0.01052
 C474 C -0.01094 -0.04182 -0.01012
 C475 C -0.04155 -0.01150 -0.01093
 C476 C -0.01082 -0.01185 -0.04160
 H477 H -0.03017 0.00669 0.00700
 H478 H 0.00700 0.00612 -0.03049
 H479 H 0.01946 0.01950 0.01917
 H480 H 0.00674 -0.03017 0.00772
 H481 H -0.01194 -0.02631 0.03259
 H482 H 0.01130 -0.02903 0.03110
 H483 H -0.00818 0.02177 -0.03756
 H484 H 0.00732 0.03540 -0.02352
 H485 H -0.02968 -0.00987 0.03037
 H486 H -0.02181 0.01004 0.03804
 H487 H 0.02296 -0.00907 -0.03682
 H488 H 0.03626 0.00662 -0.02293
 H489 H -0.02263 0.03599 0.00657
 H490 H -0.03683 0.02233 -0.00843
 H491 H 0.03657 -0.02203 0.00735
 H492 H 0.02272 -0.03717 -0.00733
 O493 O 0.03842 0.51718 0.49960
 O494 O 0.03339 0.51587 0.47542
 O495 O 0.00238 0.53685 0.51584
 O496 O -0.02034 0.53295 0.51597
 O497 O 0.01911 0.50119 0.53588
 O498 O 0.01801 0.47715 0.53103
 O499 O -0.03452 0.49877 0.48130
 O500 O -0.03002 0.52291 0.48332
 O501 O 0.00036 0.48183 0.46307
 O502 O 0.02527 0.48303 0.46781
 O503 O -0.01623 0.46423 0.49839
 O504 O -0.01496 0.46954 0.52353
 O505 O -0.03447 0.48247 0.49805
 O506 O -0.02953 0.48423 0.52328
 O507 O 0.00027 0.46390 0.48176
 O508 O 0.02556 0.46890 0.48310
 O509 O -0.01645 0.49799 0.46294
 O510 O -0.01399 0.52114 0.46542
 O511 O 0.03841 0.50103 0.51653
 O512 O 0.03324 0.47692 0.51555
 O513 O 0.00275 0.51783 0.53560
 O514 O -0.02195 0.51575 0.53017
 O515 O 0.01932 0.53640 0.49963
 O516 O 0.01851 0.53070 0.47472
 Zr517 Zr 0.01839 0.51648 0.49125
 O518 O 0.00617 0.50421 0.47817
 Zr519 Zr -0.00576 0.51688 0.51554
 O520 O -0.01910 0.50469 0.50345
 Zr521 Zr 0.01839 0.49273 0.51586
 O522 O 0.00612 0.47941 0.50390
 Zr523 Zr -0.01475 0.50748 0.48239
 O524 O -0.00260 0.52118 0.49434
 Zr525 Zr 0.00939 0.48344 0.48280
 O526 O 0.02292 0.49568 0.49477
 Zr527 Zr -0.01480 0.48391 0.50714
 O528 O -0.00252 0.49612 0.52044
 O529 O 0.01507 0.51342 0.51224
 O530 O -0.01155 0.48674 0.48605
 C531 C 0.04432 0.51047 0.50940
 C532 C 0.01221 0.54252 0.50901
 C533 C 0.01226 0.51089 0.54167
 C534 C -0.04026 0.48899 0.48807
 C535 C -0.00971 0.48815 0.45727
 C536 C -0.00966 0.45833 0.48851
 H537 H 0.00826 0.50639 0.46840
 H538 H 0.00832 0.46983 0.50630
 H539 H 0.02098 0.51935 0.51808
 H540 H -0.02878 0.50703 0.50552
 H541 H -0.02534 0.53142 0.48635
 H542 H -0.02797 0.53029 0.50973
 H543 H 0.02410 0.46282 0.49114
 H544 H 0.03776 0.47734 0.50638
 H545 H -0.00876 0.52924 0.46856
 H546 H 0.01106 0.53738 0.47646
 H547 H -0.00687 0.46349 0.52238
 H548 H 0.00882 0.47757 0.53543
 H549 H 0.03767 0.50668 0.47586
 H550 H 0.02430 0.49129 0.46198
 H551 H -0.02057 0.50721 0.53550
 H552 H -0.03557 0.49224 0.52181
 O553 O 0.46337 -0.00035 0.48175
 O554 O 0.46830 0.02360 0.48246
 O555 O 0.49953 -0.01685 0.46249
 O556 O 0.52224 -0.01675 0.46652
 O557 O 0.48270 -0.03576 0.49894
 O558 O 0.48368 -0.03036 0.52309
 O559 O 0.53614 0.01852 0.50020
 O560 O 0.53179 0.01584 0.47588
 O561 O 0.50109 0.03684 0.51664
 O562 O 0.47624 0.03201 0.51553
 O563 O 0.51776 0.00238 0.53548
 O564 O 0.51666 -0.02258 0.53076
 O565 O 0.53611 0.00235 0.51708
 O566 O 0.53124 -0.02269 0.51594
 O567 O 0.50118 0.01877 0.53530
 O568 O 0.47595 0.01726 0.53016
 O569 O 0.51796 0.03664 0.50037
 O570 O 0.51566 0.03351 0.47707
 O571 O 0.46333 -0.01666 0.49853
 O572 O 0.46843 -0.01507 0.52290
 O573 O 0.49914 -0.03586 0.48221
 O574 O 0.52382 -0.03036 0.48429
 O575 O 0.48257 -0.00083 0.46244
 O576 O 0.48327 0.02399 0.46757
 Zr577 Zr 0.48337 0.00798 0.48234
 O578 O 0.49548 0.02128 0.49445
 Zr579 Zr 0.50759 -0.01597 0.48268
 O580 O 0.52083 -0.00364 0.49473
 Zr581 Zr 0.48333 -0.01574 0.50697
 O582 O 0.49551 -0.00352 0.52016
 Zr583 Zr 0.51643 0.01712 0.49134
 O584 O 0.50438 0.00488 0.47777
 Zr585 Zr 0.49218 0.01723 0.51554
 O586 O 0.47875 0.00503 0.50342
 Zr587 Zr 0.51647 -0.00675 0.51580
 O588 O 0.50428 -0.02028 0.50377
 O589 O 0.48673 -0.01269 0.48600
 O590 O 0.51315 0.01403 0.51239
 C591 C 0.45745 -0.00986 0.48878
 C592 C 0.48971 -0.01026 0.45655
 C593 C 0.48960 -0.04171 0.48931
 C594 C 0.54188 0.01209 0.51026
 C595 C 0.51112 0.04249 0.51010
 C596 C 0.51108 0.01225 0.54117
 H597 H 0.49335 0.03088 0.49199
 H598 H 0.49327 -0.00566 0.52990
 H599 H 0.48087 -0.01864 0.48014
 H600 H 0.53054 -0.00571 0.49246
 H601 H 0.52719 0.01256 0.46734
 H602 H 0.52986 -0.01052 0.46910
 H603 H 0.47738 0.00944 0.53650
 H604 H 0.46386 -0.00604 0.52219
 H605 H 0.51054 0.03013 0.46891
 H606 H 0.49073 0.02210 0.46086
 H607 H 0.50848 -0.02140 0.53674
 H608 H 0.49289 -0.03468 0.52283
 H609 H 0.46398 0.02340 0.49173
 H610 H 0.47717 0.03751 0.50700
 H611 H 0.52240 -0.03542 0.49305
 H612 H 0.53734 -0.02140 0.50785
 O613 O 0.53688 0.51816 0.00054
 O614 O 0.53198 0.51676 -0.02368
 O615 O 0.50063 0.53780 0.01646
 O616 O 0.47791 0.53380 0.01639
 O617 O 0.51736 0.50230 0.03678
 O618 O 0.51633 0.47822 0.03202
 O619 O 0.46410 0.49947 -0.01815
 O620 O 0.46855 0.52364 -0.01619
 O621 O 0.49921 0.48262 -0.03613
 O622 O 0.52413 0.48397 -0.03117
 O623 O 0.48246 0.46499 -0.00089
 O624 O 0.48355 0.47039 0.02425
 O625 O 0.46411 0.48322 -0.00134
 O626 O 0.46890 0.48498 0.02387
 O627 O 0.49912 0.46473 -0.01736
 O628 O 0.52430 0.46982 -0.01594
 O629 O 0.48235 0.49871 -0.03643
 O630 O 0.48460 0.52181 -0.03401
 O631 O 0.53681 0.50205 0.01752
 O632 O 0.53171 0.47797 0.01671
 O633 O 0.50089 0.51883 0.03629
 O634 O 0.47629 0.51669 0.03070
 O635 O 0.51768 0.53734 0.00037
 O636 O 0.51714 0.53158 -0.02447
 Zr637 Zr 0.51690 0.51740 -0.00792
 O638 O 0.50481 0.50505 -0.02105
 Zr639 Zr 0.49257 0.51779 0.01617
 O640 O 0.47937 0.50548 0.00405
 Zr641 Zr 0.51680 0.49374 0.01679
 O642 O 0.50470 0.48033 0.00476
 Zr643 Zr 0.48384 0.50823 -0.01699
 O644 O 0.49587 0.52202 -0.00502
 Zr645 Zr 0.50809 0.48431 -0.01633
 O646 O 0.52148 0.49663 -0.00428
 Zr647 Zr 0.48373 0.48472 0.00782
 O648 O 0.49584 0.49705 0.02118
 O649 O 0.51345 0.51441 0.01306
 O650 O 0.48711 0.48750 -0.01325
 C651 C 0.54276 0.51144 0.01036
 C652 C 0.51047 0.54348 0.00965
 C653 C 0.51038 0.51197 0.04247
 C654 C 0.45833 0.48972 -0.01135
 C655 C 0.48918 0.48891 -0.04203
 C656 C 0.48918 0.45911 -0.01067
 H657 H 0.50696 0.50721 -0.03081
 H658 H 0.50693 0.47077 0.00720
 H659 H 0.51930 0.52037 0.01892
 H660 H 0.46966 0.50779 0.00606
 H661 H 0.47320 0.53218 -0.01321
 H662 H 0.47032 0.53105 0.01016
 H663 H 0.52290 0.46383 -0.00781
 H664 H 0.53624 0.47830 0.00754
 H665 H 0.48991 0.52989 -0.03093
 H666 H 0.50958 0.53819 -0.02287
 H667 H 0.49167 0.46438 0.02317
 H668 H 0.50711 0.47866 0.03636
 H669 H 0.53633 0.50761 -0.02315
 H670 H 0.52308 0.49215 -0.03711
 H671 H 0.47762 0.50814 0.03604
 H672 H 0.46289 0.49303 0.02240
 O673 O 0.71379 0.23238 0.50151
 O674 O 0.71894 0.23360 0.47734
 O675 O 0.74994 0.21302 0.51788
 O676 O 0.77259 0.21699 0.51825
 O677 O 0.73286 0.24850 0.53791
 O678 O 0.73393 0.27253 0.53316
 O679 O 0.78647 0.25134 0.48317
 O680 O 0.78262 0.22741 0.48523
 O681 O 0.75155 0.26791 0.46514
 O682 O 0.72655 0.26673 0.47004
 O683 O 0.76816 0.28565 0.50054
 O684 O 0.76706 0.28044 0.52554
 O685 O 0.78644 0.26749 0.50011
 O686 O 0.78151 0.26563 0.52543
 O687 O 0.75168 0.28587 0.48385
 O688 O 0.72644 0.28088 0.48517
 O689 O 0.76825 0.25165 0.46490
 O690 O 0.76657 0.22684 0.46902
 O691 O 0.71366 0.24862 0.51838
 O692 O 0.71878 0.27278 0.51758
 O693 O 0.74939 0.23203 0.53768
 O694 O 0.77407 0.23446 0.53244
 O695 O 0.73315 0.21323 0.50145
 O696 O 0.73443 0.21861 0.47714
 Zr697 Zr 0.73385 0.23322 0.49329
 O698 O 0.74588 0.24559 0.48019
 Zr699 Zr 0.75797 0.23303 0.51769
 O700 O 0.77122 0.24520 0.50554
 Zr701 Zr 0.73366 0.25699 0.51791
 O702 O 0.74587 0.27036 0.50600
 Zr703 Zr 0.76685 0.24232 0.48445
 O704 O 0.75484 0.22872 0.49652
 Zr705 Zr 0.74260 0.26633 0.48489
 O706 O 0.72916 0.25399 0.49681
 Zr707 Zr 0.76682 0.26596 0.50922
 O708 O 0.75459 0.25378 0.52254
 O709 O 0.73711 0.23632 0.51430
 O710 O 0.76355 0.26308 0.48812
 C711 C 0.70781 0.23914 0.51122
 C712 C 0.74022 0.20723 0.51093
 C713 C 0.73978 0.23886 0.54371
 C714 C 0.79219 0.26111 0.49001
 C715 C 0.76151 0.26150 0.45927
 C716 C 0.76158 0.29150 0.49063
 H717 H 0.74357 0.24354 0.47045
 H718 H 0.74364 0.27994 0.50841
 H719 H 0.73122 0.23034 0.52008
 H720 H 0.78093 0.24292 0.50760
 H721 H 0.77856 0.21915 0.48956
 H722 H 0.78059 0.21992 0.51265
 H723 H 0.72788 0.28694 0.49325
 H724 H 0.71427 0.27235 0.50839
 H725 H 0.75833 0.22819 0.46316
 H726 H 0.74357 0.21415 0.47765
 H727 H 0.75876 0.28623 0.52461
 H728 H 0.74314 0.27218 0.53755
 H729 H 0.71460 0.24276 0.47769
 H730 H 0.72761 0.25861 0.46400
 H731 H 0.77252 0.24297 0.53780
 H732 H 0.78773 0.25778 0.52382
 O733 O 0.71306 0.73300 0.00130
 O734 O 0.71785 0.73432 -0.02294
 O735 O 0.74935 0.71336 0.01717
 O736 O 0.77205 0.71731 0.01713
 O737 O 0.73270 0.74897 0.03741
 O738 O 0.73387 0.77304 0.03262
 O739 O 0.78581 0.75151 -0.01764
 O740 O 0.78138 0.72734 -0.01551
 O741 O 0.75072 0.76831 -0.03556
 O742 O 0.72585 0.76709 -0.03058
 O743 O 0.76766 0.78602 -0.00034
 O744 O 0.76662 0.78074 0.02480
 O745 O 0.78590 0.76777 -0.00081
 O746 O 0.78123 0.76609 0.02442
 O747 O 0.75096 0.78628 -0.01682
 O748 O 0.72572 0.78126 -0.01534
 O749 O 0.76752 0.75214 -0.03583
 O750 O 0.76519 0.72903 -0.03330
 O751 O 0.71324 0.74927 0.01814
 O752 O 0.71844 0.77331 0.01734
 O753 O 0.74913 0.73241 0.03696
 O754 O 0.77375 0.73450 0.03136
 O755 O 0.73224 0.71378 0.00110
 O756 O 0.73267 0.71948 -0.02377
 Zr757 Zr 0.73301 0.73370 -0.00722
 O758 O 0.74510 0.74596 -0.02039
 Zr759 Zr 0.75743 0.73335 0.01684
 O760 O 0.77063 0.74556 0.00468
 Zr761 Zr 0.73328 0.75748 0.01741
 O762 O 0.74538 0.77079 0.00534
 Zr763 Zr 0.76608 0.74273 -0.01635
 O764 O 0.75404 0.72904 -0.00433
 Zr765 Zr 0.74190 0.76673 -0.01574
 O766 O 0.72852 0.75451 -0.00364
 Zr767 Zr 0.76634 0.76634 0.00840
 O768 O 0.75423 0.75411 0.02181
 O769 O 0.73655 0.73678 0.01374
 O770 O 0.76287 0.76348 -0.01266
 C771 C 0.70723 0.73983 0.01106
 C772 C 0.73948 0.70767 0.01038
 C773 C 0.73965 0.73929 0.04312
 C774 C 0.79160 0.76129 -0.01087
 C775 C 0.76071 0.76195 -0.04145
 C776 C 0.76094 0.79189 -0.01015
 H777 H 0.74291 0.74376 -0.03015
 H778 H 0.74318 0.78038 0.00776
 H779 H 0.73070 0.73085 0.01961
 H780 H 0.78034 0.74324 0.00667
 H781 H 0.77675 0.71882 -0.01246
 H782 H 0.77964 0.72000 0.01088
 H783 H 0.72723 0.78734 -0.00729
 H784 H 0.71389 0.77299 0.00817
 H785 H 0.76000 0.72092 -0.03012
 H786 H 0.74021 0.71285 -0.02217
 H787 H 0.75850 0.78676 0.02373
 H788 H 0.74309 0.77255 0.03699
 H789 H 0.71355 0.74349 -0.02242
 H790 H 0.72679 0.75883 -0.03645
 H791 H 0.77243 0.74306 0.03670
 H792 H 0.78723 0.75804 0.02294
 O793 O 1.00107 0.21213 0.23281
 O794 O 0.97692 0.21698 0.23366
 O795 O 1.01729 0.24775 0.21249
 O796 O 1.01727 0.27040 0.21600
 O797 O 1.03676 0.23192 0.24920
 O798 O 1.03156 0.23355 0.27340
 O799 O 0.98213 0.28489 0.24960
 O800 O 0.98462 0.27994 0.22532
 O801 O 0.96391 0.25047 0.26709
 O802 O 0.96872 0.22567 0.26640
 O803 O 0.99866 0.26750 0.28519
 O804 O 1.02379 0.26630 0.28029
 O805 O 0.99853 0.28527 0.26638
 O806 O 1.02367 0.28056 0.26520
 O807 O 0.98223 0.25092 0.28552
 O808 O 0.98368 0.22574 0.28096
 O809 O 0.96397 0.26685 0.25042
 O810 O 0.96681 0.26393 0.22713
 O811 O 1.01757 0.21262 0.24951
 O812 O 1.01628 0.21827 0.27370
 O813 O 1.03666 0.24784 0.23205
 O814 O 1.03115 0.27239 0.23359
 O815 O 1.00124 0.23079 0.21300
 O816 O 0.97639 0.23140 0.21830
 Zr817 Zr 0.99261 0.23199 0.23296
 O818 O 0.97932 0.24431 0.24484
 Zr819 Zr 1.01666 0.25620 0.23251
 O820 O 1.00437 0.26961 0.24434
 Zr821 Zr 1.01671 0.23270 0.25740
 O822 O 1.00450 0.24504 0.27038
 Zr823 Zr 0.98347 0.26508 0.24121
 O824 O 0.99565 0.25279 0.22785
 Zr825 Zr 0.98359 0.24155 0.26597
 O826 O 0.99580 0.22795 0.25413
 Zr827 Zr 1.00770 0.26577 0.26549
 O828 O 1.02122 0.25345 0.25363
 O829 O 1.01343 0.23553 0.23637
 O830 O 0.98679 0.26231 0.26230
 C831 C 1.01070 0.20648 0.23996
 C832 C 1.01060 0.23783 0.20683
 C833 C 1.04263 0.23855 0.23933
 C834 C 0.98867 0.29082 0.25951
 C835 C 0.95821 0.26034 0.26042
 C836 C 0.98879 0.26095 0.29110
 H837 H 0.96964 0.24212 0.24251
 H838 H 1.00674 0.24305 0.28015
 H839 H 1.01936 0.22958 0.23060
 H840 H 1.00642 0.27921 0.24182
 H841 H 0.98777 0.27513 0.21687
 H842 H 1.01101 0.27800 0.21845
 H843 H 0.99161 0.22732 0.28720
 H844 H 1.00718 0.21371 0.27325
 H845 H 0.97009 0.25859 0.21910
 H846 H 0.97812 0.23876 0.21148
 H847 H 1.02257 0.25839 0.28656
 H848 H 1.03595 0.24269 0.27280
 H849 H 0.97727 0.21289 0.24302
 H850 H 0.96301 0.22648 0.25795
 H851 H 1.03631 0.27123 0.24235
 H852 H 1.02236 0.28635 0.25691
 O853 O 0.78691 0.99826 0.76746
 O854 O 0.78188 1.02227 0.76688
 O855 O 0.75080 0.98165 0.78663
 O856 O 0.72815 0.98135 0.78268
 O857 O 0.76769 0.96293 0.75000
 O858 O 0.76649 0.96842 0.72588
 O859 O 0.71417 1.01721 0.74929
 O860 O 0.71818 1.01438 0.77336
 O861 O 0.74901 1.03558 0.73292
 O862 O 0.77397 1.03071 0.73378
 O863 O 0.73228 1.00113 0.71389
 O864 O 0.73332 0.97624 0.71837
 O865 O 0.71407 1.00103 0.73238
 O866 O 0.71894 0.97592 0.73339
 O867 O 0.74883 1.01759 0.71412
 O868 O 0.77406 1.01617 0.71905
 O869 O 0.73245 1.03529 0.74950
 O870 O 0.73421 1.03038 0.77435
 O871 O 0.78690 0.98218 0.75043
 O872 O 0.78167 0.98381 0.72607
 O873 O 0.75132 0.96264 0.76680
 O874 O 0.72661 0.96789 0.76457
 O875 O 0.76761 0.99789 0.78683
 O876 O 0.76648 1.02209 0.78215
 Zr877 Zr 0.76689 1.00654 0.76690
 O878 O 0.75480 1.01993 0.75493
 Zr879 Zr 0.74271 0.98244 0.76644
 O880 O 0.72941 0.99488 0.75463
 Zr881 Zr 0.76688 0.98299 0.74208
 O882 O 0.75461 0.99524 0.72906
 Zr883 Zr 0.73384 1.01563 0.75821
 O884 O 0.74592 1.00323 0.77147
 Zr885 Zr 0.75795 1.01597 0.73381
 O886 O 0.77144 1.00375 0.74578
 Zr887 Zr 0.73367 0.99193 0.73351
 O888 O 0.74595 0.97833 0.74530
 O889 O 0.76355 0.98588 0.76311
 O890 O 0.73700 1.01270 0.73710
 C891 C 0.79281 0.98886 0.76027
 C892 C 0.76053 0.98836 0.79265
 C893 C 0.76088 0.95690 0.75964
 C894 C 0.70837 1.01079 0.73923
 C895 C 0.73913 1.04119 0.73970
 C896 C 0.73891 1.01106 0.70825
 H897 H 0.75714 1.02949 0.75731
 H898 H 0.75679 0.99315 0.71930
 H899 H 0.76945 0.97996 0.76894
 H900 H 0.71971 0.99278 0.75692
 H901 H 0.72229 1.00979 0.78152
 H902 H 0.72014 0.98698 0.77994
 H903 H 0.77263 1.00833 0.71271
 H904 H 0.78625 0.99285 0.72683
 H905 H 0.74248 1.03618 0.77318
 H906 H 0.75736 1.02148 0.78668
 H907 H 0.74161 0.97732 0.71253
 H908 H 0.75729 0.96405 0.72617
 H909 H 0.78621 1.02213 0.75761
 H910 H 0.77305 1.03631 0.74226
 H911 H 0.72814 0.96286 0.75580
 H912 H 0.71280 0.97724 0.74145
 O913 O 0.71291 0.51715 0.24888
 O914 O 0.71772 0.51583 0.27313
 O915 O 0.74920 0.53684 0.23306
 O916 O 0.77190 0.53294 0.23317
 O917 O 0.73253 0.50121 0.21279
 O918 O 0.73365 0.47714 0.21759
 O919 O 0.78565 0.49878 0.26790
 O920 O 0.78121 0.52294 0.26583
 O921 O 0.75056 0.48187 0.28578
 O922 O 0.72566 0.48310 0.28077
 O923 O 0.76747 0.46422 0.25065
 O924 O 0.76639 0.46948 0.22548
 O925 O 0.78572 0.48248 0.25112
 O926 O 0.78103 0.48416 0.22587
 O927 O 0.75076 0.46394 0.26708
 O928 O 0.72553 0.46891 0.26553
 O929 O 0.76740 0.49804 0.28608
 O930 O 0.76505 0.52116 0.28361
 O931 O 0.71306 0.50090 0.23202
 O932 O 0.71823 0.47686 0.23285
 O933 O 0.74899 0.51779 0.21328
 O934 O 0.77359 0.51576 0.21894
 O935 O 0.73210 0.53640 0.24911
 O936 O 0.73255 0.53071 0.27397
 Zr937 Zr 0.73286 0.51648 0.25744
 O938 O 0.74494 0.50424 0.27063
 Zr939 Zr 0.75727 0.51687 0.23342
 O940 O 0.77046 0.50467 0.24561
 Zr941 Zr 0.73309 0.49271 0.23280
 O942 O 0.74518 0.47940 0.24489
 Zr943 Zr 0.76592 0.50750 0.26663
 O944 O 0.75389 0.52118 0.25458
 Zr945 Zr 0.74171 0.48346 0.26596
 O946 O 0.72834 0.49567 0.25384
 Zr947 Zr 0.76615 0.48388 0.24187
 O948 O 0.75405 0.49610 0.22845
 O949 O 0.73639 0.51341 0.23648
 O950 O 0.76269 0.48675 0.26292
 C951 C 0.70707 0.51033 0.23910
 C952 C 0.73933 0.54252 0.23983
 C953 C 0.73950 0.51089 0.20710
 C954 C 0.79143 0.48900 0.26117
 C955 C 0.76059 0.48821 0.29168
 C956 C 0.76077 0.45835 0.26046
 H957 H 0.74276 0.50643 0.28038
 H958 H 0.74298 0.46981 0.24247
 H959 H 0.73055 0.51933 0.23060
 H960 H 0.78017 0.50702 0.24363
 H961 H 0.77656 0.53146 0.26280
 H962 H 0.77948 0.53025 0.23945
 H963 H 0.72703 0.46282 0.25748
 H964 H 0.71369 0.47718 0.24201
 H965 H 0.75982 0.52924 0.28045
 H966 H 0.74010 0.53735 0.27238
 H967 H 0.75830 0.46341 0.22658
 H968 H 0.74288 0.47762 0.21326
 H969 H 0.71340 0.50665 0.27260
 H970 H 0.72665 0.49132 0.28667
 H971 H 0.77227 0.50719 0.21361
 H972 H 0.78705 0.49221 0.22737
 O973 O 0.53674 0.23207 0.75034
 O974 O 0.53161 0.23335 0.77451
 O975 O 0.50064 0.21260 0.73381
 O976 O 0.47793 0.21656 0.73368
 O977 O 0.51768 0.24816 0.71397
 O978 O 0.51669 0.27221 0.71882
 O979 O 0.46385 0.25080 0.76826
 O980 O 0.46819 0.22663 0.76621
 O981 O 0.49882 0.26751 0.78671
 O982 O 0.52373 0.26621 0.78209
 O983 O 0.48252 0.28529 0.75126
 O984 O 0.48377 0.27998 0.72617
 O985 O 0.46409 0.26708 0.75150
 O986 O 0.46911 0.26537 0.72631
 O987 O 0.49897 0.28550 0.76799
 O988 O 0.52418 0.28035 0.76686
 O989 O 0.48191 0.25142 0.78674
 O990 O 0.48414 0.22830 0.78422
 O991 O 0.53690 0.24826 0.73345
 O992 O 0.53188 0.27237 0.73437
 O993 O 0.50113 0.23167 0.71414
 O994 O 0.47645 0.23378 0.71946
 O995 O 0.51750 0.21293 0.75014
 O996 O 0.51664 0.21856 0.77505
 Zr997 Zr 0.51668 0.23283 0.75856
 O998 O 0.50450 0.24514 0.77159
 Zr999 Zr 0.49260 0.23258 0.73416
 O1000 O 0.47932 0.24483 0.74618
 Zr1001 Zr 0.51693 0.25661 0.73399
 O1002 O 0.50473 0.26997 0.74590
 Zr1003 Zr 0.48356 0.24199 0.76727
 O1004 O 0.49566 0.22825 0.75537
 Zr1005 Zr 0.50789 0.26590 0.76702
 O1006 O 0.52137 0.25361 0.75510
 Zr1007 Zr 0.48378 0.26559 0.74255
 O1008 O 0.49600 0.25333 0.72929
 O1009 O 0.51345 0.23594 0.73756
 O1010 O 0.48694 0.26273 0.76365
 C1011 C 0.54273 0.23880 0.74061
 C1012 C 0.51041 0.20688 0.74068
 C1013 C 0.51073 0.23853 0.70813
 C1014 C 0.45820 0.26058 0.76143
 C1015 C 0.48872 0.26120 0.79247
 C1016 C 0.48914 0.29115 0.76116
 H1017 H 0.50655 0.24294 0.78137
 H1018 H 0.50702 0.27954 0.74352
 H1019 H 0.51934 0.23001 0.73174
 H1020 H 0.46962 0.24253 0.74405
 H1021 H 0.47283 0.21809 0.76322
 H1022 H 0.47027 0.21928 0.73983
 H1023 H 0.52284 0.28642 0.75878
 H1024 H 0.53636 0.27194 0.74357
 H1025 H 0.48939 0.22021 0.78112
 H1026 H 0.50913 0.21193 0.77326
 H1027 H 0.49195 0.28593 0.72731
 H1028 H 0.50752 0.27179 0.71434
 H1029 H 0.53598 0.24251 0.77409
 H1030 H 0.52269 0.25795 0.78790
 H1031 H 0.47788 0.24233 0.71415
 H1032 H 0.46301 0.25738 0.72773
 O1033 O 0.26800 0.78786 0.50037
 O1034 O 0.26716 0.78246 0.52449
 O1035 O 0.28739 0.75226 0.48309
 O1036 O 0.28342 0.72970 0.48255
 O1037 O 0.25113 0.76934 0.46409
 O1038 O 0.22703 0.76807 0.46938
 O1039 O 0.24982 0.71504 0.51766
 O1040 O 0.27405 0.71952 0.51516
 O1041 O 0.23323 0.74937 0.53690
 O1042 O 0.23438 0.77423 0.53264
 O1043 O 0.21468 0.73357 0.50160
 O1044 O 0.21949 0.73522 0.47642
 O1045 O 0.23309 0.71537 0.50121
 O1046 O 0.23423 0.72072 0.47608
 O1047 O 0.21475 0.74973 0.51852
 O1048 O 0.21982 0.77480 0.51771
 O1049 O 0.24953 0.73271 0.53637
 O1050 O 0.27272 0.73514 0.53342
 O1051 O 0.25134 0.78813 0.48382
 O1052 O 0.22713 0.78297 0.48513
 O1053 O 0.26785 0.75306 0.46372
 O1054 O 0.26581 0.72841 0.46865
 O1055 O 0.28731 0.76881 0.49964
 O1056 O 0.28208 0.76768 0.52462
 Zr1057 Zr 0.26745 0.76781 0.50836
 O1058 O 0.25540 0.75542 0.52145
 Zr1059 Zr 0.26730 0.74421 0.48361
 O1060 O 0.25529 0.73075 0.49567
 Zr1061 Zr 0.24302 0.76822 0.48424
 O1062 O 0.22990 0.75584 0.49625
 Zr1063 Zr 0.25858 0.73470 0.51675
 O1064 O 0.27209 0.74700 0.50477
 Zr1065 Zr 0.23442 0.75871 0.51733
 O1066 O 0.24646 0.77236 0.50536
 Zr1067 Zr 0.23431 0.73509 0.49251
 O1068 O 0.24631 0.74751 0.47919
 O1069 O 0.26391 0.76487 0.48738
 O1070 O 0.23763 0.73795 0.51360
 C1071 C 0.26100 0.79389 0.49085
 C1072 C 0.29325 0.76190 0.49003
 C1073 C 0.26078 0.76265 0.45799
 C1074 C 0.23985 0.70944 0.51095
 C1075 C 0.23977 0.73929 0.54239
 C1076 C 0.20896 0.74001 0.51167
 H1077 H 0.25782 0.75733 0.53121
 H1078 H 0.22021 0.75808 0.49409
 H1079 H 0.26976 0.77083 0.48155
 H1080 H 0.25759 0.72116 0.49336
 H1081 H 0.28254 0.72421 0.51203
 H1082 H 0.28084 0.72198 0.48864
 H1083 H 0.21361 0.77360 0.50968
 H1084 H 0.22775 0.78731 0.49437
 H1085 H 0.28082 0.74036 0.53019
 H1086 H 0.28874 0.76027 0.52265
 H1087 H 0.21350 0.74329 0.47780
 H1088 H 0.22743 0.75903 0.46474
 H1089 H 0.25792 0.78673 0.52429
 H1090 H 0.24280 0.77314 0.53829
 H1091 H 0.25710 0.72989 0.46352
 H1092 H 0.24237 0.71474 0.47722
 O1093 O 0.28698 0.25174 0.98345
 O1094 O 0.28194 0.22772 0.98387
 O1095 O 0.25088 0.26843 0.96414
 O1096 O 0.22818 0.26854 0.96807
 O1097 O 0.26771 0.28691 1.00100
 O1098 O 0.26643 0.28120 1.02512
 O1099 O 0.21396 0.23289 1.00107
 O1100 O 0.21852 0.23589 0.97678
 O1101 O 0.24881 0.21414 1.01751
 O1102 O 0.27372 0.21884 1.01657
 O1103 O 0.23231 0.24844 1.03675
 O1104 O 0.23357 0.27348 1.03239
 O1105 O 0.21402 0.24885 1.01819
 O1106 O 0.21898 0.27380 1.01757
 O1107 O 0.24883 0.23200 1.03643
 O1108 O 0.27406 0.23337 1.03144
 O1109 O 0.23206 0.21467 1.00109
 O1110 O 0.23446 0.21807 0.97788
 O1111 O 0.28692 0.26775 1.00056
 O1112 O 0.28170 0.26593 1.02480
 O1113 O 0.25136 0.28728 0.98413
 O1114 O 0.22664 0.28190 0.98600
 O1115 O 0.26786 0.25243 0.96400
 O1116 O 0.26714 0.22761 0.96875
 Zr1117 Zr 0.26695 0.24341 0.98378
 O1118 O 0.25467 0.22999 0.99556
 Zr1119 Zr 0.24278 0.26743 0.98429
 O1120 O 0.22943 0.25502 0.99607
 Zr1121 Zr 0.26688 0.26680 1.00877
 O1122 O 0.25462 0.25443 1.02167
 Zr1123 Zr 0.23375 0.23430 0.99238
 O1124 O 0.24595 0.24664 0.97910
 Zr1125 Zr 0.25787 0.23372 1.01674
 O1126 O 0.27142 0.24606 1.00494
 Zr1127 Zr 0.23371 0.25783 1.01722
 O1128 O 0.24599 0.27147 1.00547
 O1129 O 0.26361 0.26403 0.98772
 O1130 O 0.23693 0.23708 1.01350
 C1131 C 0.29286 0.26113 0.99072
 C1132 C 0.26071 0.26189 0.95816
 C1133 C 0.26091 0.29300 0.99138
 C1134 C 0.20821 0.23925 1.01118
 C1135 C 0.23877 0.20866 1.01080
 C1136 C 0.23894 0.23849 1.04234
 H1137 H 0.25676 0.22042 0.99296
 H1138 H 0.25683 0.25642 1.03145
 H1139 H 0.26953 0.27002 0.98198
 H1140 H 0.21975 0.25718 0.99376
 H1141 H 0.22322 0.23920 0.96833
 H1142 H 0.22055 0.26227 0.97048
 H1143 H 0.27268 0.24115 1.03786
 H1144 H 0.28621 0.25687 1.02406
 H1145 H 0.23977 0.22147 0.96988
 H1146 H 0.25963 0.22953 0.96209
 H1147 H 0.24169 0.27215 1.03843
 H1148 H 0.25728 0.28566 1.02472
 H1149 H 0.28626 0.22788 0.99316
 H1150 H 0.27277 0.21344 1.00795
 H1151 H 0.22805 0.28686 0.99483
 H1152 H 0.21304 0.27277 1.00931
 C1153 C 0.29271 0.36398 0.79109
 C1154 C 0.30408 0.35747 0.78496
 C1155 C 0.30937 0.34537 0.79055
 C1156 C 0.30342 0.33949 0.80240
 C1157 C 0.29188 0.34587 0.80837
 C1158 C 0.28659 0.35797 0.80278
 C1159 C 0.28751 0.37720 0.78556
 C1160 C 0.27330 0.37990 0.78493
 C1161 C 0.26849 0.39253 0.78014
 C1162 C 0.27779 0.40274 0.77586
 C1163 C 0.29198 0.39998 0.77637
 C1164 C 0.29679 0.38736 0.78116
 C1165 C 0.27277 0.41636 0.77125
 C1166 C 0.27908 0.42311 0.76008
 C1167 C 0.27491 0.43627 0.75625
 C1168 C 0.26433 0.44299 0.76350
 C1169 C 0.25780 0.43609 0.77446
 C1170 C 0.26197 0.42293 0.77828
 H1171 H 0.30889 0.36173 0.77582
 H1172 H 0.31821 0.34070 0.78562
 H1173 H 0.28703 0.34165 0.81752
 H1174 H 0.27792 0.36282 0.80784
 H1175 H 0.26589 0.37221 0.78806
 H1176 H 0.25749 0.39429 0.77969
 H1177 H 0.29942 0.40771 0.77340
 H1178 H 0.30780 0.38570 0.78175
 H1179 H 0.28729 0.41823 0.75433
 H1180 H 0.28014 0.44123 0.74772
 H1181 H 0.24964 0.44096 0.78030
 H1182 H 0.25701 0.41806 0.78702
 C1183 C 0.29547 -0.13421 0.29239
 C1184 C 0.28903 -0.14034 0.30383
 C1185 C 0.29422 -0.15244 0.30952
 C1186 C 0.30603 -0.15875 0.30392
 C1187 C 0.31233 -0.15265 0.29231
 C1188 C 0.30713 -0.14054 0.28665
 C1189 C 0.29022 -0.12109 0.28667
 C1190 C 0.29943 -0.11073 0.28258
 C1191 C 0.29451 -0.09824 0.27755
 C1192 C 0.28028 -0.09582 0.27648
 C1193 C 0.27107 -0.10622 0.28044
 C1194 C 0.27599 -0.11872 0.28548
 C1195 C 0.27509 -0.08237 0.27154
 C1196 C 0.26380 -0.07609 0.27803
 C1197 C 0.25925 -0.06319 0.27375
 C1198 C 0.26588 -0.05627 0.26287
 C1199 C 0.27705 -0.06267 0.25624
 C1200 C 0.28160 -0.07556 0.26053
 H1201 H 0.28013 -0.13562 0.30859
 H1202 H 0.28900 -0.15672 0.31843
 H1203 H 0.32138 -0.15714 0.28758
 H1204 H 0.31220 -0.13617 0.27771
 H1205 H 0.31044 -0.11216 0.28359
 H1206 H 0.30187 -0.09036 0.27481
 H1207 H 0.26006 -0.10474 0.27955
 H1208 H 0.26864 -0.12658 0.28834
 H1209 H 0.25868 -0.08099 0.28666
 H1210 H 0.25065 -0.05856 0.27915
 H1211 H 0.28241 -0.05766 0.24782
 H1212 H 0.29022 -0.08022 0.25521
 C1213 C 0.79367 0.86425 0.79190
 C1214 C 0.80511 0.85771 0.78595
 C1215 C 0.81045 0.84574 0.79176
 C1216 C 0.80448 0.84002 0.80369
 C1217 C 0.79288 0.84644 0.80951
 C1218 C 0.78755 0.85841 0.80368
 C1219 C 0.78840 0.87731 0.78610
 C1220 C 0.77416 0.87986 0.78533
 C1221 C 0.76926 0.89237 0.78031
 C1222 C 0.77849 0.90260 0.77595
 C1223 C 0.79271 0.89999 0.77658
 C1224 C 0.79760 0.88749 0.78160
 C1225 C 0.77337 0.91613 0.77117
 C1226 C 0.77967 0.92285 0.75999
 C1227 C 0.77539 0.93593 0.75602
 C1228 C 0.76471 0.94261 0.76316
 C1229 C 0.75818 0.93573 0.77413
 C1230 C 0.76246 0.92265 0.77809
 H1231 H 0.80994 0.86185 0.77675
 H1232 H 0.81934 0.84104 0.78695
 H1233 H 0.78802 0.84234 0.81870
 H1234 H 0.77882 0.86329 0.80861
 H1235 H 0.76681 0.87214 0.78853
 H1236 H 0.75825 0.89401 0.77977
 H1237 H 0.80008 0.90775 0.77354
 H1238 H 0.80863 0.88594 0.78228
 H1239 H 0.78796 0.91801 0.75432
 H1240 H 0.78063 0.94089 0.74749
 H1241 H 0.74994 0.94056 0.77989
 H1242 H 0.75750 0.91780 0.78685
 C1243 C 0.45595 0.88400 0.29295
 C1244 C 0.46222 0.89042 0.30435
 C1245 C 0.45700 0.90271 0.30960
 C1246 C 0.44534 0.90891 0.30358
 C1247 C 0.43923 0.90253 0.29200
 C1248 C 0.44446 0.89025 0.28678
 C1249 C 0.46119 0.87069 0.28769
 C1250 C 0.45195 0.86032 0.28365
 C1251 C 0.45682 0.84771 0.27891
 C1252 C 0.47104 0.84515 0.27809
 C1253 C 0.48029 0.85552 0.28208
 C1254 C 0.47541 0.86815 0.28682
 C1255 C 0.47616 0.83162 0.27331
 C1256 C 0.48732 0.82527 0.27998
 C1257 C 0.49180 0.81230 0.27582
 C1258 C 0.48523 0.80539 0.26487
 C1259 C 0.47420 0.81185 0.25806
 C1260 C 0.46972 0.82481 0.26223
 H1261 H 0.47100 0.88578 0.30943
 H1262 H 0.46207 0.90722 0.31850
 H1263 H 0.43030 0.90693 0.28695
 H1264 H 0.43953 0.88566 0.27785
 H1265 H 0.44093 0.86186 0.28442
 H1266 H 0.44943 0.83984 0.27615
 H1267 H 0.49130 0.85393 0.28139
 H1268 H 0.48279 0.87600 0.28968
 H1269 H 0.49239 0.83018 0.28866
 H1270 H 0.50028 0.80762 0.28135
 H1271 H 0.46890 0.80685 0.24957
 H1272 H 0.46122 0.82951 0.25676
 C1273 C -0.04396 0.88356 0.79353
 C1274 C -0.05517 0.89014 0.78719
 C1275 C -0.06036 0.90238 0.79257
 C1276 C -0.05446 0.90833 0.80444
 C1277 C -0.04310 0.90184 0.81067
 C1278 C -0.03791 0.88961 0.80527
 C1279 C -0.03879 0.87029 0.78812
 C1280 C -0.02458 0.86755 0.78758
 C1281 C -0.01978 0.85493 0.78274
 C1282 C -0.02907 0.84477 0.77833
 C1283 C -0.04327 0.84754 0.77880
 C1284 C -0.04807 0.86015 0.78363
 C1285 C -0.02403 0.83123 0.77348
 C1286 C -0.03030 0.82466 0.76216
 C1287 C -0.02591 0.81169 0.75791
 C1288 C -0.01513 0.80499 0.76489
 C1289 C -0.00873 0.81167 0.77609
 C1290 C -0.01312 0.82463 0.78033
 H1291 H -0.05992 0.88584 0.77801
 H1292 H -0.06907 0.90711 0.78746
 H1293 H -0.03831 0.90612 0.81983
 H1294 H -0.02936 0.88471 0.81048
 H1295 H -0.01718 0.87523 0.79078
 H1296 H -0.00877 0.85318 0.78232
 H1297 H -0.05070 0.83984 0.77571
 H1298 H -0.05908 0.86184 0.78414
 H1299 H -0.03860 0.82956 0.75655
 H1300 H -0.03107 0.80689 0.74923
 H1301 H -0.00044 0.80679 0.78176
 H1302 H -0.00820 0.82935 0.78920
 C1303 C -0.04510 -0.13369 -0.04402
 C1304 C -0.03893 -0.13978 -0.05564
 C1305 C -0.04425 -0.15187 -0.06126
 C1306 C -0.05593 -0.15822 -0.05541
 C1307 C -0.06195 -0.15217 -0.04362
 C1308 C -0.05661 -0.14008 -0.03803
 C1309 C -0.03975 -0.12057 -0.03835
 C1310 C -0.04890 -0.11028 -0.03400
 C1311 C -0.04392 -0.09782 -0.02892
 C1312 C -0.02967 -0.09535 -0.02807
 C1313 C -0.02052 -0.10566 -0.03234
 C1314 C -0.02550 -0.11814 -0.03743
 C1315 C -0.02443 -0.08194 -0.02302
 C1316 C -0.01327 -0.07551 -0.02961
 C1317 C -0.00872 -0.06262 -0.02525
 C1318 C -0.01522 -0.05585 -0.01419
 C1319 C -0.02624 -0.06241 -0.00745
 C1320 C -0.03079 -0.07529 -0.01181
 H1321 H -0.03014 -0.13502 -0.06058
 H1322 H -0.03926 -0.15612 -0.07032
 H1323 H -0.07088 -0.15669 -0.03869
 H1324 H -0.06147 -0.13575 -0.02894
 H1325 H -0.05993 -0.11175 -0.03480
 H1326 H -0.05124 -0.08999 -0.02595
 H1327 H -0.00949 -0.10413 -0.03163
 H1328 H -0.01820 -0.12593 -0.04051
 H1329 H -0.00827 -0.08029 -0.03838
 H1330 H -0.00025 -0.05786 -0.03073
 H1331 H -0.03149 -0.05752 0.00112
 H1332 H -0.03930 -0.08007 -0.00641
 C1333 C -0.04462 0.36657 0.45516
 C1334 C -0.05603 0.36023 0.46140
 C1335 C -0.06149 0.34812 0.45598
 C1336 C -0.05570 0.34199 0.44412
 C1337 C -0.04412 0.34828 0.43801
 C1338 C -0.03867 0.36040 0.44347
 C1339 C -0.03914 0.37970 0.46066
 C1340 C -0.02487 0.38210 0.46130
 C1341 C -0.01976 0.39458 0.46626
 C1342 C -0.02881 0.40492 0.47068
 C1343 C -0.04307 0.40249 0.47009
 C1344 C -0.04817 0.39003 0.46514
 C1345 C -0.02345 0.41831 0.47567
 C1346 C -0.02960 0.42492 0.48701
 C1347 C -0.02495 0.43778 0.49134
 C1348 C -0.01403 0.44433 0.48444
 C1349 C -0.00773 0.43760 0.47323
 C1350 C -0.01239 0.42473 0.46891
 H1351 H -0.06071 0.36463 0.47055
 H1352 H -0.07034 0.34364 0.46110
 H1353 H -0.03930 0.34397 0.42889
 H1354 H -0.02997 0.36512 0.43833
 H1355 H -0.01764 0.37428 0.45811
 H1356 H -0.00872 0.39608 0.46677
 H1357 H -0.05032 0.41034 0.47318
 H1358 H -0.05922 0.38858 0.46454
 H1359 H -0.03801 0.42014 0.49255
 H1360 H -0.03003 0.44263 0.50002
 H1361 H 0.00065 0.44236 0.46762
 H1362 H -0.00755 0.41998 0.46003
 C1363 C 0.45813 -0.13555 0.45868
 C1364 C 0.46418 -0.14161 0.44699
 C1365 C 0.45895 -0.15384 0.44156
 C1366 C 0.44750 -0.16033 0.44768
 C1367 C 0.44166 -0.15435 0.45959
 C1368 C 0.44691 -0.14213 0.46500
 C1369 C 0.46323 -0.12220 0.46403
 C1370 C 0.45388 -0.11212 0.46842
 C1371 C 0.45859 -0.09941 0.47309
 C1372 C 0.47276 -0.09646 0.47348
 C1373 C 0.48213 -0.10657 0.46918
 C1374 C 0.47741 -0.11931 0.46451
 C1375 C 0.47766 -0.08277 0.47805
 C1376 C 0.48835 -0.07608 0.47095
 C1377 C 0.49244 -0.06287 0.47479
 C1378 C 0.48593 -0.05606 0.48582
 C1379 C 0.47546 -0.06290 0.49312
 C1380 C 0.47137 -0.07610 0.48928
 H1381 H 0.47275 -0.13671 0.44181
 H1382 H 0.46381 -0.15804 0.43241
 H1383 H 0.43292 -0.15900 0.46474
 H1384 H 0.44216 -0.13783 0.47416
 H1385 H 0.44288 -0.11394 0.46794
 H1386 H 0.45110 -0.09175 0.47609
 H1387 H 0.49311 -0.10467 0.46953
 H1388 H 0.48488 -0.12693 0.46137
 H1389 H 0.49329 -0.08089 0.46217
 H1390 H 0.50051 -0.05791 0.46891
 H1391 H 0.47025 -0.05801 0.50171
 H1392 H 0.46325 -0.08107 0.49508
 C1393 C 0.45619 0.36634 -0.04331
 C1394 C 0.46223 0.35998 -0.05484
 C1395 C 0.45693 0.34769 -0.06003
 C1396 C 0.44542 0.34140 -0.05381
 C1397 C 0.43955 0.34770 -0.04208
 C1398 C 0.44486 0.36001 -0.03692
 C1399 C 0.46151 0.37969 -0.03817
 C1400 C 0.46242 0.38238 -0.02390
 C1401 C 0.46725 0.39503 -0.01912
 C1402 C 0.47128 0.40527 -0.02851
 C1403 C 0.47039 0.40256 -0.04277
 C1404 C 0.46556 0.38993 -0.04754
 C1405 C 0.47624 0.41879 -0.02351
 C1406 C 0.48737 0.42534 -0.03003
 C1407 C 0.49172 0.43830 -0.02571
 C1408 C 0.48503 0.44504 -0.01474
 C1409 C 0.47402 0.43839 -0.00807
 C1410 C 0.46969 0.42540 -0.01239
 H1411 H 0.47111 0.36449 -0.05986
 H1412 H 0.46187 0.34320 -0.06900
 H1413 H 0.43070 0.34327 -0.03693
 H1414 H 0.43989 0.36473 -0.02810
 H1415 H 0.45955 0.37463 -0.01641
 H1416 H 0.46798 0.39676 -0.00807
 H1417 H 0.47318 0.41032 -0.05026
 H1418 H 0.46474 0.38827 -0.05859
 H1419 H 0.49275 0.42042 -0.03850
 H1420 H 0.50024 0.44308 -0.03108
 H1421 H 0.46860 0.44329 0.00038
 H1422 H 0.46099 0.42069 -0.00726
 C1423 C 0.79589 0.38322 0.45678
 C1424 C 0.80745 0.38964 0.46270
 C1425 C 0.81275 0.40171 0.45703
 C1426 C 0.80661 0.40765 0.44529
 C1427 C 0.79494 0.40131 0.43948
 C1428 C 0.78965 0.38924 0.44516
 C1429 C 0.79054 0.37015 0.46252
 C1430 C 0.77629 0.36774 0.46345
 C1431 C 0.77129 0.35529 0.46851
 C1432 C 0.78043 0.34496 0.47277
 C1433 C 0.79468 0.34741 0.47195
 C1434 C 0.79968 0.35986 0.46688
 C1435 C 0.77517 0.33156 0.47778
 C1436 C 0.78150 0.32492 0.48900
 C1437 C 0.77692 0.31205 0.49335
 C1438 C 0.76590 0.30551 0.48656
 C1439 C 0.75942 0.31227 0.47547
 C1440 C 0.76401 0.32514 0.47114
 H1441 H 0.81237 0.38536 0.47178
 H1442 H 0.82171 0.40634 0.46183
 H1443 H 0.78996 0.40557 0.43042
 H1444 H 0.78083 0.38446 0.44025
 H1445 H 0.76899 0.37555 0.46036
 H1446 H 0.76026 0.35378 0.46921
 H1447 H 0.80199 0.33957 0.47492
 H1448 H 0.81071 0.36131 0.46608
 H1449 H 0.79001 0.32968 0.49444
 H1450 H 0.78215 0.30717 0.50193
 H1451 H 0.75095 0.30752 0.46996
 H1452 H 0.75903 0.32992 0.46235
 C1453 C 0.79456 0.88415 -0.04334
 C1454 C 0.78814 0.89073 -0.05454
 C1455 C 0.79347 0.90294 -0.05984
 C1456 C 0.80541 0.90891 -0.05409
 C1457 C 0.81167 0.90239 -0.04269
 C1458 C 0.80631 0.89018 -0.03740
 C1459 C 0.78916 0.87089 -0.03809
 C1460 C 0.78875 0.86815 -0.02382
 C1461 C 0.78382 0.85558 -0.01895
 C1462 C 0.77919 0.84548 -0.02825
 C1463 C 0.77960 0.84825 -0.04251
 C1464 C 0.78452 0.86080 -0.04738
 C1465 C 0.77414 0.83204 -0.02316
 C1466 C 0.76268 0.82571 -0.02937
 C1467 C 0.75825 0.81281 -0.02498
 C1468 C 0.76517 0.80592 -0.01426
 C1469 C 0.77650 0.81236 -0.00788
 C1470 C 0.78092 0.82527 -0.01228
 H1471 H 0.77893 0.88646 -0.05919
 H1472 H 0.78823 0.90760 -0.06854
 H1473 H 0.82085 0.90659 -0.03791
 H1474 H 0.81156 0.88527 -0.02885
 H1475 H 0.79208 0.87579 -0.01640
 H1476 H 0.78347 0.85382 -0.00789
 H1477 H 0.77635 0.84059 -0.04995
 H1478 H 0.78495 0.86249 -0.05844
 H1479 H 0.75712 0.83075 -0.03763
 H1480 H 0.74948 0.80819 -0.03011
 H1481 H 0.78212 0.80733 0.00036
 H1482 H 0.78988 0.82981 -0.00740
 C1483 C 0.79488 0.29596 0.36661
 C1484 C 0.80648 0.28991 0.36044
 C1485 C 0.81195 0.29521 0.34818
 C1486 C 0.80595 0.30670 0.34181
 C1487 C 0.79423 0.31264 0.34790
 C1488 C 0.78877 0.30733 0.36015
 C1489 C 0.78935 0.29062 0.37988
 C1490 C 0.78497 0.29969 0.39029
 C1491 C 0.78004 0.29470 0.40290
 C1492 C 0.77939 0.28054 0.40541
 C1493 C 0.78369 0.27147 0.39497
 C1494 C 0.78862 0.27645 0.38235
 C1495 C 0.77445 0.27530 0.41895
 C1496 C 0.78115 0.26428 0.42544
 C1497 C 0.77682 0.25966 0.43842
 C1498 C 0.76568 0.26595 0.44521
 C1499 C 0.75887 0.27685 0.43861
 C1500 C 0.76321 0.28146 0.42564
 H1501 H 0.81152 0.28124 0.36525
 H1502 H 0.82099 0.29038 0.34381
 H1503 H 0.78930 0.32145 0.34326
 H1504 H 0.77971 0.31210 0.36455
 H1505 H 0.78563 0.31066 0.38880
 H1506 H 0.77703 0.30196 0.41082
 H1507 H 0.78312 0.26050 0.39652
 H1508 H 0.79173 0.26921 0.37446
 H1509 H 0.78995 0.25943 0.42063
 H1510 H 0.78235 0.25128 0.44321
 H1511 H 0.75024 0.28193 0.44351
 H1512 H 0.75772 0.28986 0.42082
 C1513 C 0.79352 0.79545 -0.13468
 C1514 C 0.80514 0.78930 -0.14069
 C1515 C 0.81065 0.79437 -0.15302
 C1516 C 0.80468 0.80575 -0.15969
 C1517 C 0.79290 0.81176 -0.15370
 C1518 C 0.78742 0.80668 -0.14136
 C1519 C 0.78796 0.79031 -0.12134
 C1520 C 0.78358 0.79952 -0.11106
 C1521 C 0.77871 0.79472 -0.09835
 C1522 C 0.77812 0.78059 -0.09562
 C1523 C 0.78237 0.77137 -0.10595
 C1524 C 0.78723 0.77618 -0.11866
 C1525 C 0.77334 0.77552 -0.08195
 C1526 C 0.78013 0.76460 -0.07540
 C1527 C 0.77592 0.76008 -0.06236
 C1528 C 0.76480 0.76638 -0.05555
 C1529 C 0.75791 0.77721 -0.06218
 C1530 C 0.76214 0.78173 -0.07522
 H1531 H 0.81017 0.78073 -0.13570
 H1532 H 0.81971 0.78939 -0.15720
 H1533 H 0.78790 0.82048 -0.15847
 H1534 H 0.77834 0.81151 -0.13708
 H1535 H 0.78422 0.81047 -0.11273
 H1536 H 0.77573 0.80209 -0.09053
 H1537 H 0.78183 0.76043 -0.10424
 H1538 H 0.79033 0.76882 -0.12645
 H1539 H 0.78892 0.75973 -0.08023
 H1540 H 0.78152 0.75176 -0.05754
 H1541 H 0.74930 0.78230 -0.05725
 H1542 H 0.75659 0.79006 -0.08008
 C1543 C 0.29169 0.45629 0.88743
 C1544 C 0.30341 0.46240 0.89336
 C1545 C 0.30905 0.45727 0.90561
 C1546 C 0.30310 0.44589 0.91224
 C1547 C 0.29124 0.43992 0.90642
 C1548 C 0.28561 0.44505 0.89416
 C1549 C 0.28608 0.46138 0.87409
 C1550 C 0.28161 0.45212 0.86388
 C1551 C 0.27682 0.45686 0.85111
 C1552 C 0.27637 0.47096 0.84826
 C1553 C 0.28067 0.48024 0.85854
 C1554 C 0.28547 0.47550 0.87131
 C1555 C 0.27181 0.47593 0.83447
 C1556 C 0.27885 0.48667 0.82787
 C1557 C 0.27501 0.49092 0.81461
 C1558 C 0.26401 0.48452 0.80763
 C1559 C 0.25681 0.47394 0.81436
 C1560 C 0.26067 0.46970 0.82761
 H1561 H 0.30844 0.47097 0.88834
 H1562 H 0.31820 0.46213 0.90978
 H1563 H 0.28634 0.43118 0.91126
 H1564 H 0.27646 0.44024 0.88995
 H1565 H 0.28217 0.44118 0.86561
 H1566 H 0.27380 0.44944 0.84333
 H1567 H 0.28025 0.49117 0.85672
 H1568 H 0.28864 0.48289 0.87904
 H1569 H 0.28759 0.49156 0.83280
 H1570 H 0.28082 0.49907 0.80974
 H1571 H 0.24827 0.46880 0.80933
 H1572 H 0.25492 0.46152 0.83251
 C1573 C 0.29308 -0.04448 0.38455
 C1574 C 0.30448 -0.03806 0.39078
 C1575 C 0.30981 -0.04292 0.40329
 C1576 C 0.30385 -0.05431 0.40988
 C1577 C 0.29233 -0.06061 0.40374
 C1578 C 0.28702 -0.05576 0.39122
 C1579 C 0.28772 -0.03959 0.37103
 C1580 C 0.28367 -0.04899 0.36077
 C1581 C 0.27896 -0.04442 0.34791
 C1582 C 0.27818 -0.03033 0.34500
 C1583 C 0.28211 -0.02093 0.35530
 C1584 C 0.28683 -0.02550 0.36817
 C1585 C 0.27353 -0.02550 0.33119
 C1586 C 0.28022 -0.01449 0.32466
 C1587 C 0.27610 -0.01015 0.31152
 C1588 C 0.26518 -0.01671 0.30458
 C1589 C 0.25841 -0.02765 0.31118
 C1590 C 0.26255 -0.03199 0.32432
 H1591 H 0.30949 -0.02945 0.38581
 H1592 H 0.31870 -0.03782 0.40769
 H1593 H 0.28744 -0.06937 0.40854
 H1594 H 0.27810 -0.06080 0.38678
 H1595 H 0.28444 -0.05991 0.36257
 H1596 H 0.27622 -0.05192 0.34012
 H1597 H 0.28143 -0.01001 0.35346
 H1598 H 0.28967 -0.01800 0.37593
 H1599 H 0.28884 -0.00940 0.32959
 H1600 H 0.28160 -0.00174 0.30674
 H1601 H 0.24996 -0.03294 0.30616
 H1602 H 0.25708 -0.04040 0.32915
 C1603 C -0.04386 -0.04593 -0.13469
 C1604 C -0.05520 -0.03966 -0.14110
 C1605 C -0.06056 -0.04485 -0.15347
 C1606 C -0.05470 -0.05650 -0.15978
 C1607 C -0.04319 -0.06263 -0.15339
 C1608 C -0.03787 -0.05742 -0.14102
 C1609 C -0.03845 -0.04067 -0.12131
 C1610 C -0.03439 -0.04980 -0.11083
 C1611 C -0.02953 -0.04489 -0.09814
 C1612 C -0.02861 -0.03074 -0.09563
 C1613 C -0.03259 -0.02160 -0.10613
 C1614 C -0.03746 -0.02651 -0.11883
 C1615 C -0.02370 -0.02556 -0.08203
 C1616 C -0.03023 -0.01439 -0.07563
 C1617 C -0.02592 -0.00981 -0.06261
 C1618 C -0.01497 -0.01629 -0.05569
 C1619 C -0.00833 -0.02736 -0.06219
 C1620 C -0.01265 -0.03193 -0.07520
 H1621 H -0.06015 -0.03088 -0.13639
 H1622 H -0.06941 -0.03978 -0.15797
 H1623 H -0.03828 -0.07155 -0.15787
 H1624 H -0.02898 -0.06235 -0.13644
 H1625 H -0.03525 -0.06076 -0.11233
 H1626 H -0.02676 -0.05219 -0.09018
 H1627 H -0.03182 -0.01064 -0.10458
 H1628 H -0.04031 -0.01922 -0.12677
 H1629 H -0.03889 -0.00937 -0.08055
 H1630 H -0.03132 -0.00130 -0.05790
 H1631 H 0.00015 -0.03259 -0.05718
 H1632 H -0.00730 -0.04045 -0.07994
 C1633 C -0.04408 0.45306 0.36509
 C1634 C -0.05568 0.45919 0.35901
 C1635 C -0.06137 0.45388 0.34684
 C1636 C -0.05560 0.44226 0.34040
 C1637 C -0.04385 0.43626 0.34645
 C1638 C -0.03819 0.44158 0.35863
 C1639 C -0.03833 0.45846 0.37826
 C1640 C -0.03390 0.44946 0.38869
 C1641 C -0.02883 0.45452 0.40124
 C1642 C -0.02807 0.46870 0.40365
 C1643 C -0.03239 0.47771 0.39317
 C1644 C -0.03746 0.47265 0.38062
 C1645 C -0.02302 0.47403 0.41713
 C1646 C -0.02963 0.48513 0.42358
 C1647 C -0.02519 0.48985 0.43650
 C1648 C -0.01401 0.48359 0.44326
 C1649 C -0.00729 0.47261 0.43671
 C1650 C -0.01175 0.46788 0.42380
 H1651 H -0.06057 0.46794 0.36383
 H1652 H -0.07040 0.45887 0.34260
 H1653 H -0.03900 0.42736 0.34185
 H1654 H -0.02912 0.43675 0.36296
 H1655 H -0.03466 0.43848 0.38728
 H1656 H -0.02580 0.44731 0.40918
 H1657 H -0.03174 0.48869 0.39464
 H1658 H -0.04059 0.47985 0.37270
 H1659 H -0.03846 0.48997 0.41879
 H1660 H -0.03066 0.49829 0.44126
 H1661 H 0.00136 0.46754 0.44160
 H1662 H -0.00634 0.45943 0.41901
 C1663 C 0.45711 -0.04376 0.36322
 C1664 C 0.44585 -0.03760 0.35654
 C1665 C 0.44046 -0.04320 0.34438
 C1666 C 0.44619 -0.05512 0.33859
 C1667 C 0.45762 -0.06115 0.34514
 C1668 C 0.46302 -0.05553 0.35732
 C1669 C 0.46240 -0.03815 0.37649
 C1670 C 0.47663 -0.03760 0.37920
 C1671 C 0.48152 -0.03253 0.39183
 C1672 C 0.47230 -0.02791 0.40202
 C1673 C 0.45809 -0.02842 0.39927
 C1674 C 0.45320 -0.03347 0.38667
 C1675 C 0.47739 -0.02285 0.41560
 C1676 C 0.47114 -0.01154 0.42202
 C1677 C 0.47536 -0.00725 0.43515
 C1678 C 0.48596 -0.01417 0.44219
 C1679 C 0.49246 -0.02528 0.43561
 C1680 C 0.48822 -0.02956 0.42246
 H1681 H 0.44121 -0.02840 0.36071
 H1682 H 0.43171 -0.03823 0.33958
 H1683 H 0.46230 -0.07034 0.34099
 H1684 H 0.47161 -0.06060 0.36230
 H1685 H 0.48398 -0.04096 0.37150
 H1686 H 0.49254 -0.03211 0.39358
 H1687 H 0.45071 -0.02519 0.40701
 H1688 H 0.44218 -0.03400 0.38500
 H1689 H 0.46292 -0.00601 0.41690
 H1690 H 0.47017 0.00138 0.43986
 H1691 H 0.50062 -0.03088 0.44073
 H1692 H 0.49315 -0.03840 0.41785
 C1693 C 0.45670 0.45473 -0.13525
 C1694 C 0.44534 0.46098 -0.14165
 C1695 C 0.44001 0.45579 -0.15403
 C1696 C 0.44589 0.44417 -0.16035
 C1697 C 0.45742 0.43806 -0.15398
 C1698 C 0.46273 0.44327 -0.14160
 C1699 C 0.46207 0.45998 -0.12185
 C1700 C 0.46612 0.45084 -0.11138
 C1701 C 0.47090 0.45575 -0.09866
 C1702 C 0.47174 0.46990 -0.09612
 C1703 C 0.46777 0.47904 -0.10661
 C1704 C 0.46299 0.47413 -0.11934
 C1705 C 0.47652 0.47507 -0.08247
 C1706 C 0.46986 0.48617 -0.07609
 C1707 C 0.47407 0.49077 -0.06305
 C1708 C 0.48507 0.48439 -0.05611
 C1709 C 0.49183 0.47338 -0.06258
 C1710 C 0.48759 0.46878 -0.07561
 H1711 H 0.44037 0.46974 -0.13693
 H1712 H 0.43114 0.46085 -0.15852
 H1713 H 0.46236 0.42916 -0.15847
 H1714 H 0.47163 0.43835 -0.13702
 H1715 H 0.46532 0.43988 -0.11291
 H1716 H 0.47366 0.44844 -0.09070
 H1717 H 0.46849 0.49000 -0.10503
 H1718 H 0.46015 0.48143 -0.12728
 H1719 H 0.46118 0.49111 -0.08104
 H1720 H 0.46859 0.49923 -0.05836
 H1721 H 0.50034 0.46823 -0.05755
 H1722 H 0.49304 0.46031 -0.08034
 C1723 C 0.45812 0.79473 0.38618
 C1724 C 0.44668 0.78850 0.39250
 C1725 C 0.44144 0.79360 0.40495
 C1726 C 0.44752 0.80504 0.41137
 C1727 C 0.45908 0.81114 0.40514
 C1728 C 0.46431 0.80605 0.39269
 C1729 C 0.46339 0.78961 0.37271
 C1730 C 0.46750 0.79884 0.36235
 C1731 C 0.47217 0.79407 0.34956
 C1732 C 0.47286 0.77995 0.34683
 C1733 C 0.46884 0.77070 0.35722
 C1734 C 0.46416 0.77548 0.37002
 C1735 C 0.47753 0.77491 0.33311
 C1736 C 0.47077 0.76390 0.32663
 C1737 C 0.47488 0.75942 0.31353
 C1738 C 0.48587 0.76584 0.30661
 C1739 C 0.49273 0.77676 0.31317
 C1740 C 0.48860 0.78124 0.32627
 H1741 H 0.44158 0.77986 0.38766
 H1742 H 0.43251 0.78865 0.40943
 H1743 H 0.46407 0.81993 0.40981
 H1744 H 0.47326 0.81094 0.38818
 H1745 H 0.46681 0.80979 0.36403
 H1746 H 0.47497 0.80145 0.34170
 H1747 H 0.46944 0.75976 0.35550
 H1748 H 0.46126 0.76811 0.37786
 H1749 H 0.46209 0.75893 0.33155
 H1750 H 0.46932 0.75102 0.30877
 H1751 H 0.50124 0.78195 0.30817
 H1752 H 0.49412 0.78964 0.33107
 C1753 C -0.04438 0.79621 0.88444
 C1754 C -0.05597 0.79014 0.89060
 C1755 C -0.06154 0.79551 0.90278
 C1756 C -0.05566 0.80713 0.90915
 C1757 C -0.04391 0.81307 0.90301
 C1758 C -0.03837 0.80768 0.89083
 C1759 C -0.03874 0.79074 0.87126
 C1760 C -0.03433 0.79971 0.86078
 C1761 C -0.02934 0.79461 0.84824
 C1762 C -0.02863 0.78042 0.84588
 C1763 C -0.03295 0.77144 0.85639
 C1764 C -0.03794 0.77655 0.86894
 C1765 C -0.02367 0.77504 0.83239
 C1766 C -0.03033 0.76392 0.82600
 C1767 C -0.02600 0.75919 0.81306
 C1768 C -0.01488 0.76547 0.80621
 C1769 C -0.00809 0.77646 0.81272
 C1770 C -0.01243 0.78119 0.82565
 H1771 H -0.06094 0.78138 0.88584
 H1772 H -0.07057 0.79057 0.90708
 H1773 H -0.03897 0.82196 0.90755
 H1774 H -0.02930 0.81247 0.88644
 H1775 H -0.03503 0.81070 0.86216
 H1776 H -0.02632 0.80179 0.84026
 H1777 H -0.03234 0.76046 0.85496
 H1778 H -0.04106 0.76938 0.87689
 H1779 H -0.03913 0.75907 0.83085
 H1780 H -0.03152 0.75074 0.80834
 H1781 H 0.00052 0.78154 0.80777
 H1782 H -0.00697 0.78966 0.83039
 C1783 C 0.36626 0.79471 0.29466
 C1784 C 0.35961 0.78880 0.30610
 C1785 C 0.34731 0.79431 0.31113
 C1786 C 0.34138 0.80588 0.30485
 C1787 C 0.34796 0.81169 0.29329
 C1788 C 0.36026 0.80617 0.28826
 C1789 C 0.37956 0.78912 0.28959
 C1790 C 0.38975 0.78489 0.29900
 C1791 C 0.40237 0.77988 0.29427
 C1792 C 0.40510 0.77896 0.28002
 C1793 C 0.39488 0.78310 0.27060
 C1794 C 0.38225 0.78813 0.27533
 C1795 C 0.41866 0.77393 0.27503
 C1796 C 0.42528 0.78033 0.26384
 C1797 C 0.43825 0.77590 0.25944
 C1798 C 0.44490 0.76496 0.26613
 C1799 C 0.43818 0.75844 0.27722
 C1800 C 0.42522 0.76288 0.28161
 H1801 H 0.36388 0.77986 0.31113
 H1802 H 0.34251 0.78953 0.32001
 H1803 H 0.34371 0.82062 0.28820
 H1804 H 0.36522 0.81105 0.27952
 H1805 H 0.38808 0.78574 0.31004
 H1806 H 0.41012 0.77700 0.30179
 H1807 H 0.39659 0.78234 0.25955
 H1808 H 0.37453 0.79111 0.26782
 H1809 H 0.42058 0.78899 0.25868
 H1810 H 0.44313 0.78121 0.25092
 H1811 H 0.44298 0.74998 0.28261
 H1812 H 0.42030 0.75762 0.29014
 C1813 C -0.13446 0.79365 0.79488
 C1814 C -0.14072 0.80491 0.78837
 C1815 C -0.15302 0.81034 0.79347
 C1816 C -0.15937 0.80463 0.80521
 C1817 C -0.15321 0.79324 0.81159
 C1818 C -0.14090 0.78782 0.80649
 C1819 C -0.12114 0.78819 0.78975
 C1820 C -0.11856 0.78709 0.77548
 C1821 C -0.10589 0.78221 0.77068
 C1822 C -0.09553 0.77832 0.78006
 C1823 C -0.09814 0.77935 0.79432
 C1824 C -0.11080 0.78423 0.79911
 C1825 C -0.08197 0.77339 0.77501
 C1826 C -0.07528 0.76244 0.78162
 C1827 C -0.06231 0.75808 0.77717
 C1828 C -0.05572 0.76456 0.76600
 C1829 C -0.06250 0.77541 0.75928
 C1830 C -0.07548 0.77976 0.76373
 H1831 H -0.13593 0.80974 0.77951
 H1832 H -0.15746 0.81913 0.78830
 H1833 H -0.15783 0.78853 0.82061
 H1834 H -0.13644 0.77901 0.81161
 H1835 H -0.12639 0.78987 0.76801
 H1836 H -0.10426 0.78134 0.75963
 H1837 H -0.09029 0.77666 0.80180
 H1838 H -0.11237 0.78518 0.81016
 H1839 H -0.08009 0.75720 0.79023
 H1840 H -0.05742 0.74968 0.78259
 H1841 H -0.05772 0.78069 0.75068
 H1842 H -0.08029 0.78834 0.75853
 C1843 C 0.88419 0.29588 0.45608
 C1844 C 0.89066 0.30724 0.46224
 C1845 C 0.90279 0.31262 0.45667
 C1846 C 0.90874 0.30678 0.44479
 C1847 C 0.90236 0.29529 0.43874
 C1848 C 0.89023 0.28991 0.44432
 C1849 C 0.87104 0.29045 0.46171
 C1850 C 0.86860 0.27627 0.46235
 C1851 C 0.85608 0.27122 0.46736
 C1852 C 0.84573 0.28023 0.47187
 C1853 C 0.84821 0.29441 0.47131
 C1854 C 0.86071 0.29946 0.46629
 C1855 C 0.83230 0.27492 0.47690
 C1856 C 0.82575 0.28100 0.48832
 C1857 C 0.81286 0.27635 0.49273
 C1858 C 0.80620 0.26552 0.48581
 C1859 C 0.81286 0.25931 0.47451
 C1860 C 0.82576 0.26395 0.47011
 H1861 H 0.88636 0.31194 0.47142
 H1862 H 0.90744 0.32143 0.46165
 H1863 H 0.90664 0.29053 0.42958
 H1864 H 0.88541 0.28125 0.43924
 H1865 H 0.87642 0.26907 0.45908
 H1866 H 0.85455 0.26024 0.46785
 H1867 H 0.84036 0.30162 0.47448
 H1868 H 0.86218 0.31044 0.46572
 H1869 H 0.83061 0.28934 0.49387
 H1870 H 0.80806 0.28137 0.50148
 H1871 H 0.80802 0.25099 0.46889
 H1872 H 0.83046 0.25918 0.46118
 C1873 C 0.88381 0.79566 -0.04468
 C1874 C 0.88994 0.78981 -0.05646
 C1875 C 0.90216 0.79520 -0.06184
 C1876 C 0.90853 0.80657 -0.05557
 C1877 C 0.90249 0.81229 -0.04367
 C1878 C 0.89028 0.80689 -0.03830
 C1879 C 0.87057 0.79025 -0.03924
 C1880 C 0.86029 0.79928 -0.03460
 C1881 C 0.84776 0.79426 -0.02964
 C1882 C 0.84519 0.78009 -0.02920
 C1883 C 0.85548 0.77106 -0.03381
 C1884 C 0.86803 0.77608 -0.03877
 C1885 C 0.83176 0.77483 -0.02412
 C1886 C 0.82510 0.76395 -0.03093
 C1887 C 0.81218 0.75938 -0.02649
 C1888 C 0.80564 0.76558 -0.01512
 C1889 C 0.81243 0.77632 -0.00817
 C1890 C 0.82533 0.78088 -0.01262
 H1891 H 0.88512 0.78124 -0.06170
 H1892 H 0.90650 0.79055 -0.07103
 H1893 H 0.90714 0.82100 -0.03852
 H1894 H 0.88593 0.81149 -0.02909
 H1895 H 0.86183 0.81025 -0.03506
 H1896 H 0.83995 0.80149 -0.02640
 H1897 H 0.85388 0.76008 -0.03343
 H1898 H 0.87582 0.76886 -0.04209
 H1899 H 0.82972 0.75919 -0.03993
 H1900 H 0.80724 0.75114 -0.03213
 H1901 H 0.80772 0.78132 0.00064
 H1902 H 0.83028 0.78915 -0.00704
 C1903 C -0.13423 -0.04576 -0.04393
 C1904 C -0.14045 -0.05725 -0.03779
 C1905 C -0.15281 -0.06252 -0.04299
 C1906 C -0.15930 -0.05644 -0.05451
 C1907 C -0.15311 -0.04480 -0.06051
 C1908 C -0.14075 -0.03955 -0.05528
 C1909 C -0.12087 -0.04044 -0.03865
 C1910 C -0.11841 -0.02628 -0.03777
 C1911 C -0.10575 -0.02132 -0.03298
 C1912 C -0.09527 -0.03042 -0.02897
 C1913 C -0.09775 -0.04458 -0.02983
 C1914 C -0.11039 -0.04953 -0.03461
 C1915 C -0.08175 -0.02521 -0.02402
 C1916 C -0.07501 -0.03153 -0.01286
 C1917 C -0.06209 -0.02695 -0.00848
 C1918 C -0.05557 -0.01591 -0.01516
 C1919 C -0.06240 -0.00946 -0.02622
 C1920 C -0.07535 -0.01405 -0.03059
 H1921 H -0.13579 -0.06213 -0.02889
 H1922 H -0.15719 -0.07142 -0.03796
 H1923 H -0.15769 -0.03977 -0.06937
 H1924 H -0.13613 -0.03079 -0.06034
 H1925 H -0.12634 -0.01901 -0.04062
 H1926 H -0.10421 -0.01035 -0.03226
 H1927 H -0.08980 -0.05185 -0.02704
 H1928 H -0.11187 -0.06050 -0.03541
 H1929 H -0.07976 -0.04003 -0.00747
 H1930 H -0.05716 -0.03216 0.00008
 H1931 H -0.05767 -0.00097 -0.03165
 H1932 H -0.08021 -0.00906 -0.03933
 C1933 C -0.13283 0.45480 0.45481
 C1934 C -0.13887 0.44330 0.46111
 C1935 C -0.15111 0.43775 0.45593
 C1936 C -0.15762 0.44357 0.44433
 C1937 C -0.15166 0.45519 0.43816
 C1938 C -0.13942 0.46073 0.44333
 C1939 C -0.11957 0.46042 0.46001
 C1940 C -0.10935 0.46475 0.45070
 C1941 C -0.09676 0.46980 0.45554
 C1942 C -0.09410 0.47065 0.46982
 C1943 C -0.10434 0.46638 0.47915
 C1944 C -0.11694 0.46133 0.47430
 C1945 C -0.08058 0.47574 0.47491
 C1946 C -0.07393 0.46929 0.48606
 C1947 C -0.06097 0.47373 0.49049
 C1948 C -0.05434 0.48475 0.48389
 C1949 C -0.06111 0.49134 0.47287
 C1950 C -0.07407 0.48689 0.46844
 H1951 H -0.13396 0.43840 0.46987
 H1952 H -0.15539 0.42878 0.46094
 H1953 H -0.15641 0.45999 0.42925
 H1954 H -0.13513 0.46972 0.43838
 H1955 H -0.11096 0.46396 0.43964
 H1956 H -0.08899 0.47277 0.44809
 H1957 H -0.10267 0.46709 0.49020
 H1958 H -0.12469 0.45826 0.48173
 H1959 H -0.07861 0.46056 0.49114
 H1960 H -0.05604 0.46837 0.49896
 H1961 H -0.05634 0.49987 0.46755
 H1962 H -0.07902 0.49219 0.45995
 C1963 C 0.36381 -0.04188 0.45650
 C1964 C 0.35755 -0.05315 0.46298
 C1965 C 0.34532 -0.05870 0.45776
 C1966 C 0.33902 -0.05314 0.44588
 C1967 C 0.34521 -0.04166 0.43957
 C1968 C 0.35743 -0.03613 0.44482
 C1969 C 0.37714 -0.03638 0.46168
 C1970 C 0.38747 -0.03236 0.45234
 C1971 C 0.40014 -0.02752 0.45715
 C1972 C 0.40282 -0.02659 0.47142
 C1973 C 0.39248 -0.03053 0.48078
 C1974 C 0.37977 -0.03536 0.47596
 C1975 C 0.41646 -0.02179 0.47644
 C1976 C 0.42305 -0.02838 0.48754
 C1977 C 0.43622 -0.02433 0.49176
 C1978 C 0.44310 -0.01357 0.48499
 C1979 C 0.43634 -0.00677 0.47410
 C1980 C 0.42319 -0.01083 0.46988
 H1981 H 0.36229 -0.05792 0.47190
 H1982 H 0.34096 -0.06751 0.46298
 H1983 H 0.34071 -0.03695 0.43049
 H1984 H 0.36188 -0.02729 0.43973
 H1985 H 0.38587 -0.03326 0.44128
 H1986 H 0.40799 -0.02480 0.44967
 H1987 H 0.39417 -0.02977 0.49183
 H1988 H 0.37196 -0.03820 0.48342
 H1989 H 0.41818 -0.03695 0.49272
 H1990 H 0.44112 -0.02983 0.50016
 H1991 H 0.44129 0.00160 0.46866
 H1992 H 0.41829 -0.00541 0.46143
 C1993 C 0.36474 0.45679 -0.04308
 C1994 C 0.35809 0.46272 -0.05451
 C1995 C 0.34566 0.45738 -0.05944
 C1996 C 0.33952 0.44592 -0.05307
 C1997 C 0.34613 0.44013 -0.04146
 C1998 C 0.35856 0.44550 -0.03655
 C1999 C 0.37820 0.46218 -0.03816
 C2000 C 0.38108 0.46320 -0.02394
 C2001 C 0.39386 0.46803 -0.01936
 C2002 C 0.40405 0.47196 -0.02890
 C2003 C 0.40114 0.47101 -0.04312
 C2004 C 0.38837 0.46618 -0.04770
 C2005 C 0.41775 0.47683 -0.02408
 C2006 C 0.42438 0.48778 -0.03076
 C2007 C 0.43745 0.49208 -0.02652
 C2008 C 0.44421 0.48554 -0.01547
 C2009 C 0.43749 0.47468 -0.00868
 C2010 C 0.42441 0.47039 -0.01293
 H2011 H 0.36249 0.47157 -0.05964
 H2012 H 0.34094 0.46225 -0.06833
 H2013 H 0.34182 0.43132 -0.03620
 H2014 H 0.36351 0.44061 -0.02781
 H2015 H 0.37339 0.46039 -0.01634
 H2016 H 0.39573 0.46884 -0.00834
 H2017 H 0.40885 0.47372 -0.05073
 H2018 H 0.38655 0.46529 -0.05872
 H2019 H 0.41943 0.49306 -0.03927
 H2020 H 0.44230 0.50048 -0.03198
 H2021 H 0.44240 0.46936 -0.00018
 H2022 H 0.41965 0.46181 -0.00768
 C2023 C 0.38622 0.45618 0.79245
 C2024 C 0.39223 0.46196 0.80434
 C2025 C 0.40438 0.45654 0.80985
 C2026 C 0.41079 0.44521 0.80359
 C2027 C 0.40491 0.43960 0.79155
 C2028 C 0.39277 0.44503 0.78605
 C2029 C 0.37296 0.46151 0.78698
 C2030 C 0.36275 0.45241 0.78226
 C2031 C 0.35012 0.45733 0.77745
 C2032 C 0.34739 0.47147 0.77725
 C2033 C 0.35764 0.48058 0.78188
 C2034 C 0.37029 0.47565 0.78669
 C2035 C 0.33378 0.47659 0.77254
 C2036 C 0.32710 0.48720 0.77971
 C2037 C 0.31394 0.49148 0.77575
 C2038 C 0.30716 0.48526 0.76451
 C2039 C 0.31400 0.47487 0.75713
 C2040 C 0.32714 0.47059 0.76110
 H2041 H 0.38735 0.47046 0.80961
 H2042 H 0.40861 0.46111 0.81915
 H2043 H 0.40960 0.43093 0.78640
 H2044 H 0.38851 0.44049 0.77675
 H2045 H 0.36439 0.44145 0.78259
 H2046 H 0.34235 0.45004 0.77420
 H2047 H 0.35590 0.49153 0.78168
 H2048 H 0.37802 0.48292 0.79008
 H2049 H 0.33188 0.49192 0.78866
 H2050 H 0.30898 0.49949 0.78170
 H2051 H 0.30912 0.46988 0.74839
 H2052 H 0.33211 0.46254 0.75524
 C2053 C 0.38500 -0.04526 0.29209
 C2054 C 0.39134 -0.03907 0.30359
 C2055 C 0.40365 -0.04429 0.30893
 C2056 C 0.40990 -0.05583 0.30289
 C2057 C 0.40366 -0.06188 0.29126
 C2058 C 0.39135 -0.05666 0.28593
 C2059 C 0.37165 -0.04003 0.28675
 C2060 C 0.36127 -0.04919 0.28256
 C2061 C 0.34859 -0.04433 0.27781
 C2062 C 0.34599 -0.03019 0.27713
 C2063 C 0.35638 -0.02101 0.28127
 C2064 C 0.36907 -0.02588 0.28602
 C2065 C 0.33241 -0.02508 0.27230
 C2066 C 0.32591 -0.01410 0.27906
 C2067 C 0.31290 -0.00963 0.27482
 C2068 C 0.30610 -0.01602 0.26369
 C2069 C 0.31271 -0.02688 0.25680
 C2070 C 0.32570 -0.03135 0.26106
 H2071 H 0.38663 -0.03038 0.30868
 H2072 H 0.40815 -0.03937 0.31791
 H2073 H 0.40821 -0.07073 0.28630
 H2074 H 0.38682 -0.06152 0.27693
 H2075 H 0.36283 -0.06015 0.28324
 H2076 H 0.34071 -0.05166 0.27492
 H2077 H 0.35474 -0.01006 0.28069
 H2078 H 0.37693 -0.01856 0.28899
 H2079 H 0.33075 -0.00917 0.28786
 H2080 H 0.30810 -0.00128 0.28040
 H2081 H 0.30780 -0.03204 0.24818
 H2082 H 0.33052 -0.03971 0.25553
 C2083 C 0.11494 0.54375 0.70760
 C2084 C 0.10863 0.55517 0.71378
 C2085 C 0.09616 0.56024 0.70866
 C2086 C 0.08970 0.55399 0.69724
 C2087 C 0.09591 0.54242 0.69122
 C2088 C 0.10837 0.53737 0.69634
 C2089 C 0.12845 0.53867 0.71266
 C2090 C 0.13862 0.53448 0.70322
 C2091 C 0.15138 0.52979 0.70790
 C2092 C 0.15428 0.52916 0.72214
 C2093 C 0.14412 0.53335 0.73159
 C2094 C 0.13134 0.53806 0.72690
 C2095 C 0.16792 0.52426 0.72705
 C2096 C 0.17469 0.53086 0.73807
 C2097 C 0.18774 0.52653 0.74236
 C2098 C 0.19432 0.51550 0.73573
 C2099 C 0.18744 0.50879 0.72484
 C2100 C 0.17441 0.51312 0.72056
 H2101 H 0.11351 0.56040 0.72238
 H2102 H 0.09169 0.56918 0.71354
 H2103 H 0.09120 0.53729 0.68247
 H2104 H 0.11285 0.52842 0.69149
 H2105 H 0.13680 0.53508 0.69218
 H2106 H 0.15908 0.52688 0.70035
 H2107 H 0.14599 0.53282 0.74263
 H2108 H 0.12365 0.54104 0.73443
 H2109 H 0.17004 0.53958 0.74317
 H2110 H 0.19275 0.53199 0.75073
 H2111 H 0.19217 0.50023 0.71952
 H2112 H 0.16937 0.50770 0.71218
 C2113 C 0.11338 0.04170 0.20749
 C2114 C 0.10722 0.05306 0.21392
 C2115 C 0.09487 0.05846 0.20886
 C2116 C 0.08834 0.05264 0.19721
 C2117 C 0.09442 0.04108 0.19098
 C2118 C 0.10677 0.03570 0.19605
 C2119 C 0.12683 0.03636 0.21245
 C2120 C 0.13698 0.03229 0.20294
 C2121 C 0.14975 0.02754 0.20753
 C2122 C 0.15270 0.02675 0.22175
 C2123 C 0.14254 0.03076 0.23128
 C2124 C 0.12974 0.03550 0.22668
 C2125 C 0.16644 0.02202 0.22655
 C2126 C 0.17319 0.02866 0.23755
 C2127 C 0.18642 0.02465 0.24159
 C2128 C 0.19320 0.01388 0.23473
 C2129 C 0.18630 0.00705 0.22392
 C2130 C 0.17309 0.01107 0.21989
 H2131 H 0.11214 0.05800 0.22266
 H2132 H 0.09059 0.06734 0.21402
 H2133 H 0.08975 0.03617 0.18207
 H2134 H 0.11114 0.02680 0.19101
 H2135 H 0.13515 0.03306 0.19191
 H2136 H 0.15745 0.02478 0.19992
 H2137 H 0.14444 0.03009 0.24231
 H2138 H 0.12207 0.03839 0.23427
 H2139 H 0.16840 0.03723 0.24278
 H2140 H 0.19142 0.03017 0.24992
 H2141 H 0.19116 -0.00132 0.21844
 H2142 H 0.16807 0.00561 0.21153
 C2143 C 0.63758 0.70788 0.20956
 C2144 C 0.64370 0.71380 0.19782
 C2145 C 0.65606 0.70863 0.19255
 C2146 C 0.66258 0.69742 0.19891
 C2147 C 0.65659 0.69168 0.21081
 C2148 C 0.64424 0.69685 0.21607
 C2149 C 0.62411 0.71292 0.21477
 C2150 C 0.61402 0.70361 0.21928
 C2151 C 0.60122 0.70827 0.22390
 C2152 C 0.59821 0.72234 0.22413
 C2153 C 0.60832 0.73167 0.21970
 C2154 C 0.62114 0.72701 0.21507
 C2155 C 0.58445 0.72719 0.22872
 C2156 C 0.57765 0.73773 0.22156
 C2157 C 0.56440 0.74180 0.22545
 C2158 C 0.55765 0.73542 0.23660
 C2159 C 0.56459 0.72508 0.24393
 C2160 C 0.57783 0.72101 0.24004
 H2161 H 0.63875 0.72221 0.19248
 H2162 H 0.66037 0.71330 0.18336
 H2163 H 0.66136 0.68310 0.21603
 H2164 H 0.63990 0.69221 0.22526
 H2165 H 0.61589 0.69269 0.21894
 H2166 H 0.59356 0.70081 0.22700
 H2167 H 0.60637 0.74258 0.21992
 H2168 H 0.62877 0.73444 0.21184
 H2169 H 0.58242 0.74257 0.21270
 H2170 H 0.55936 0.74977 0.21953
 H2171 H 0.55974 0.71998 0.25261
 H2172 H 0.58288 0.71301 0.24589
 C2173 C 0.13596 0.70617 0.70788
 C2174 C 0.14198 0.71197 0.69603
 C2175 C 0.15417 0.70660 0.69057
 C2176 C 0.16062 0.69531 0.69685
 C2177 C 0.15473 0.68969 0.70886
 C2178 C 0.14255 0.69505 0.71431
 C2179 C 0.12266 0.71143 0.71330
 C2180 C 0.11249 0.70228 0.71797
 C2181 C 0.09985 0.70713 0.72278
 C2182 C 0.09706 0.72125 0.72305
 C2183 C 0.10725 0.73042 0.71845
 C2184 C 0.11992 0.72556 0.71363
 C2185 C 0.08345 0.72630 0.72782
 C2186 C 0.07669 0.73691 0.72072
 C2187 C 0.06353 0.74112 0.72475
 C2188 C 0.05683 0.73483 0.73597
 C2189 C 0.06375 0.72444 0.74327
 C2190 C 0.07689 0.72023 0.73924
 H2191 H 0.13707 0.72044 0.69075
 H2192 H 0.15840 0.71119 0.68130
 H2193 H 0.15945 0.68104 0.71403
 H2194 H 0.13829 0.69050 0.72358
 H2195 H 0.11419 0.69132 0.71761
 H2196 H 0.09212 0.69979 0.72600
 H2197 H 0.10547 0.74136 0.71869
 H2198 H 0.12762 0.73287 0.71028
 H2199 H 0.08141 0.74168 0.71179
 H2200 H 0.05851 0.74913 0.71886
 H2201 H 0.05894 0.71940 0.75200
 H2202 H 0.08192 0.71218 0.74504
 C2203 C 0.61357 0.20753 0.54172
 C2204 C 0.60741 0.21354 0.55340
 C2205 C 0.59509 0.20833 0.55872
 C2206 C 0.58864 0.19699 0.55248
 C2207 C 0.59467 0.19115 0.54064
 C2208 C 0.60698 0.19636 0.53532
 C2209 C 0.62700 0.21262 0.53645
 C2210 C 0.63716 0.20335 0.53207
 C2211 C 0.64994 0.20805 0.52743
 C2212 C 0.65286 0.22215 0.52706
 C2213 C 0.64267 0.23144 0.53135
 C2214 C 0.62988 0.22673 0.53600
 C2215 C 0.66661 0.22706 0.52250
 C2216 C 0.67331 0.23772 0.52960
 C2217 C 0.68656 0.24184 0.52577
 C2218 C 0.69342 0.23539 0.51473
 C2219 C 0.68657 0.22493 0.50743
 C2220 C 0.67333 0.22081 0.51127
 H2221 H 0.61232 0.22205 0.55864
 H2222 H 0.59075 0.21307 0.56786
 H2223 H 0.58995 0.18247 0.53551
 H2224 H 0.61135 0.19165 0.52618
 H2225 H 0.63536 0.19241 0.53254
 H2226 H 0.65765 0.20062 0.52444
 H2227 H 0.64456 0.24237 0.53101
 H2228 H 0.62219 0.23414 0.53912
 H2229 H 0.66846 0.24263 0.53839
 H2230 H 0.69152 0.24991 0.53165
 H2231 H 0.69150 0.21977 0.49884
 H2232 H 0.66835 0.21271 0.50546
 C2233 C 0.61262 0.70923 0.04160
 C2234 C 0.60594 0.71534 0.05292
 C2235 C 0.59356 0.70999 0.05793
 C2236 C 0.58756 0.69839 0.05173
 C2237 C 0.59411 0.69244 0.04023
 C2238 C 0.60650 0.69780 0.03523
 C2239 C 0.62612 0.71452 0.03671
 C2240 C 0.62913 0.71524 0.02250
 C2241 C 0.64199 0.71988 0.01797
 C2242 C 0.65213 0.72390 0.02756
 C2243 C 0.64908 0.72327 0.04176
 C2244 C 0.63623 0.71864 0.04628
 C2245 C 0.66595 0.72844 0.02283
 C2246 C 0.67271 0.73938 0.02944
 C2247 C 0.68599 0.74324 0.02544
 C2248 C 0.69284 0.73625 0.01474
 C2249 C 0.68596 0.72547 0.00795
 C2250 C 0.67267 0.72162 0.01195
 H2251 H 0.61030 0.72429 0.05792
 H2252 H 0.58877 0.71490 0.06675
 H2253 H 0.58979 0.68349 0.03521
 H2254 H 0.61147 0.69277 0.02658
 H2255 H 0.62149 0.71232 0.01487
 H2256 H 0.64397 0.72042 0.00696
 H2257 H 0.65675 0.72605 0.04941
 H2258 H 0.63432 0.71798 0.05730
 H2259 H 0.66773 0.74497 0.03771
 H2260 H 0.69094 0.75163 0.03087
 H2261 H 0.69092 0.71983 -0.00030
 H2262 H 0.66780 0.71305 0.00677
 C2263 C 0.13652 0.04291 0.04226
 C2264 C 0.14323 0.03677 0.05354
 C2265 C 0.15547 0.04227 0.05877
 C2266 C 0.16135 0.05411 0.05285
 C2267 C 0.15471 0.06008 0.04136
 C2268 C 0.14247 0.05455 0.03614
 C2269 C 0.12318 0.03741 0.03713
 C2270 C 0.12033 0.03679 0.02288
 C2271 C 0.10762 0.03191 0.01813
 C2272 C 0.09749 0.02754 0.02754
 C2273 C 0.10039 0.02809 0.04179
 C2274 C 0.11308 0.03296 0.04652
 C2275 C 0.08382 0.02271 0.02260
 C2276 C 0.07726 0.01157 0.02902
 C2277 C 0.06408 0.00749 0.02490
 C2278 C 0.05714 0.01445 0.01423
 C2279 C 0.06384 0.02540 0.00759
 C2280 C 0.07703 0.02948 0.01173
 H2281 H 0.13901 0.02767 0.05833
 H2282 H 0.16022 0.03725 0.06755
 H2283 H 0.15883 0.06917 0.03644
 H2284 H 0.13747 0.05959 0.02752
 H2285 H 0.12797 0.03997 0.01538
 H2286 H 0.10575 0.03144 0.00709
 H2287 H 0.09271 0.02505 0.04931
 H2288 H 0.11486 0.03355 0.05757
 H2289 H 0.08231 0.00601 0.03729
 H2290 H 0.05927 -0.00103 0.03021
 H2291 H 0.05880 0.03102 -0.00063
 H2292 H 0.08175 0.03820 0.00668
 C2293 C 0.13733 0.54388 0.54185
 C2294 C 0.14389 0.55507 0.53551
 C2295 C 0.15594 0.56061 0.54114
 C2296 C 0.16172 0.55508 0.55326
 C2297 C 0.15529 0.54372 0.55946
 C2298 C 0.14324 0.53819 0.55382
 C2299 C 0.12416 0.53845 0.53624
 C2300 C 0.12155 0.52428 0.53593
 C2301 C 0.10898 0.51925 0.53098
 C2302 C 0.09875 0.52828 0.52621
 C2303 C 0.10141 0.54243 0.52643
 C2304 C 0.11396 0.54745 0.53138
 C2305 C 0.08521 0.52305 0.52134
 C2306 C 0.07868 0.52899 0.50983
 C2307 C 0.06557 0.52466 0.50575
 C2308 C 0.05866 0.51429 0.51307
 C2309 C 0.06536 0.50809 0.52437
 C2310 C 0.07848 0.51243 0.52845
 H2311 H 0.13971 0.55955 0.52615
 H2312 H 0.16064 0.56930 0.53603
 H2313 H 0.15944 0.53921 0.56880
 H2314 H 0.13834 0.52967 0.55904
 H2315 H 0.12927 0.51707 0.53943
 H2316 H 0.10729 0.50829 0.53077
 H2317 H 0.09365 0.54966 0.52307
 H2318 H 0.11555 0.55843 0.53172
 H2319 H 0.08370 0.53705 0.50401
 H2320 H 0.06077 0.52963 0.49696
 H2321 H 0.06034 0.50010 0.53028
 H2322 H 0.08318 0.50775 0.53744
 C2323 C 0.63476 0.04565 0.54342
 C2324 C 0.64131 0.05690 0.53718
 C2325 C 0.65363 0.06209 0.54256
 C2326 C 0.65974 0.05617 0.55437
 C2327 C 0.65321 0.04476 0.56047
 C2328 C 0.64090 0.03959 0.55506
 C2329 C 0.62143 0.04043 0.53796
 C2330 C 0.61877 0.02628 0.53733
 C2331 C 0.60610 0.02141 0.53247
 C2332 C 0.59582 0.03057 0.52811
 C2333 C 0.59852 0.04471 0.52866
 C2334 C 0.61117 0.04958 0.53353
 C2335 C 0.58225 0.02545 0.52319
 C2336 C 0.57566 0.03164 0.51185
 C2337 C 0.56268 0.02715 0.50752
 C2338 C 0.55596 0.01637 0.51443
 C2339 C 0.56266 0.01006 0.52565
 C2340 C 0.57565 0.01454 0.52997
 H2341 H 0.63693 0.06167 0.52807
 H2342 H 0.65828 0.07081 0.53746
 H2343 H 0.65750 0.03985 0.56955
 H2344 H 0.63602 0.03101 0.56020
 H2345 H 0.62654 0.01897 0.54048
 H2346 H 0.60441 0.01046 0.53198
 H2347 H 0.59073 0.05204 0.52560
 H2348 H 0.61282 0.06054 0.53410
 H2349 H 0.58056 0.03994 0.50630
 H2350 H 0.55785 0.03225 0.49883
 H2351 H 0.55778 0.00177 0.53126
 H2352 H 0.58039 0.00968 0.53885
 C2353 C 0.63743 0.54237 0.04067
 C2354 C 0.64358 0.53643 0.05238
 C2355 C 0.65601 0.54154 0.05760
 C2356 C 0.66257 0.55273 0.05121
 C2357 C 0.65654 0.55849 0.03933
 C2358 C 0.64412 0.55337 0.03412
 C2359 C 0.62389 0.53739 0.03552
 C2360 C 0.61383 0.54674 0.03107
 C2361 C 0.60097 0.54215 0.02652
 C2362 C 0.59786 0.52809 0.02630
 C2363 C 0.60794 0.51872 0.03067
 C2364 C 0.62082 0.52332 0.03523
 C2365 C 0.58404 0.52330 0.02177
 C2366 C 0.57721 0.51279 0.02895
 C2367 C 0.56393 0.50875 0.02509
 C2368 C 0.55716 0.51514 0.01395
 C2369 C 0.56412 0.52547 0.00660
 C2370 C 0.57739 0.52950 0.01047
 H2371 H 0.63861 0.52804 0.05774
 H2372 H 0.66035 0.53686 0.06677
 H2373 H 0.66133 0.56706 0.03409
 H2374 H 0.63975 0.55803 0.02495
 H2375 H 0.61578 0.55766 0.03141
 H2376 H 0.59334 0.54964 0.02346
 H2377 H 0.60591 0.50781 0.03045
 H2378 H 0.62843 0.51585 0.03842
 H2379 H 0.58200 0.50792 0.03779
 H2380 H 0.55888 0.50079 0.03101
 H2381 H 0.55926 0.53058 -0.00206
 H2382 H 0.58246 0.53749 0.00460
 C2383 C 0.04171 0.04281 0.13742
 C2384 C 0.03565 0.05411 0.14404
 C2385 C 0.04111 0.05921 0.15640
 C2386 C 0.05283 0.05317 0.16248
 C2387 C 0.05871 0.04166 0.15592
 C2388 C 0.05322 0.03657 0.14357
 C2389 C 0.03628 0.03778 0.12396
 C2390 C 0.03549 0.02367 0.12113
 C2391 C 0.03077 0.01900 0.10829
 C2392 C 0.02675 0.02833 0.09798
 C2393 C 0.02743 0.04243 0.10086
 C2394 C 0.03214 0.04710 0.11369
 C2395 C 0.02216 0.02344 0.08416
 C2396 C 0.01119 0.02989 0.07726
 C2397 C 0.00730 0.02572 0.06398
 C2398 C 0.01428 0.01499 0.05727
 C2399 C 0.02508 0.00836 0.06429
 C2400 C 0.02897 0.01254 0.07757
 H2401 H 0.02664 0.05900 0.13966
 H2402 H 0.03616 0.06801 0.16108
 H2403 H 0.06771 0.03665 0.16019
 H2404 H 0.05821 0.02794 0.13864
 H2405 H 0.03842 0.01624 0.12890
 H2406 H 0.03018 0.00807 0.10645
 H2407 H 0.02464 0.04989 0.09306
 H2408 H 0.03285 0.05803 0.11546
 H2409 H 0.00561 0.03818 0.08214
 H2410 H -0.00111 0.03103 0.05893
 H2411 H 0.03072 0.00010 0.05943
 H2412 H 0.03757 0.00747 0.08254
 C2413 C 0.04319 0.54239 0.63632
 C2414 C 0.05442 0.53619 0.64303
 C2415 C 0.05953 0.54154 0.65543
 C2416 C 0.05354 0.55322 0.66143
 C2417 C 0.04213 0.55926 0.65486
 C2418 C 0.03702 0.55390 0.64245
 C2419 C 0.03821 0.53709 0.62279
 C2420 C 0.02405 0.53652 0.61978
 C2421 C 0.01944 0.53180 0.60690
 C2422 C 0.02890 0.52754 0.59678
 C2423 C 0.04305 0.52805 0.59983
 C2424 C 0.04765 0.53277 0.61268
 C2425 C 0.02411 0.52282 0.58297
 C2426 C 0.03050 0.51166 0.57640
 C2427 C 0.02647 0.50763 0.56312
 C2428 C 0.01594 0.51466 0.55608
 C2429 C 0.00936 0.52564 0.56278
 C2430 C 0.01339 0.52967 0.57607
 H2431 H 0.05926 0.52717 0.63869
 H2432 H 0.06828 0.53656 0.66024
 H2433 H 0.03726 0.56828 0.65918
 H2434 H 0.02845 0.55900 0.63746
 H2435 H 0.01652 0.53960 0.62742
 H2436 H 0.00847 0.53136 0.60492
 H2437 H 0.05061 0.52508 0.59216
 H2438 H 0.05863 0.53332 0.61458
 H2439 H 0.03865 0.50605 0.58153
 H2440 H 0.03174 0.49909 0.55832
 H2441 H 0.00124 0.53132 0.55767
 H2442 H 0.00837 0.53839 0.58080
 C2443 C 0.54422 0.04549 0.63454
 C2444 C 0.55584 0.03942 0.64065
 C2445 C 0.56123 0.04451 0.65306
 C2446 C 0.55513 0.05584 0.65970
 C2447 C 0.54335 0.06177 0.65361
 C2448 C 0.53800 0.05666 0.64121
 C2449 C 0.53877 0.04034 0.62113
 C2450 C 0.53436 0.04956 0.61088
 C2451 C 0.52948 0.04477 0.59816
 C2452 C 0.52889 0.03064 0.59538
 C2453 C 0.53323 0.02142 0.60566
 C2454 C 0.53812 0.02621 0.61839
 C2455 C 0.52400 0.02559 0.58172
 C2456 C 0.53071 0.01467 0.57509
 C2457 C 0.52639 0.01020 0.56203
 C2458 C 0.51525 0.01656 0.55530
 C2459 C 0.50843 0.02738 0.56203
 C2460 C 0.51275 0.03184 0.57508
 H2461 H 0.56097 0.03088 0.63568
 H2462 H 0.57029 0.03960 0.65732
 H2463 H 0.53824 0.07044 0.65835
 H2464 H 0.52891 0.06143 0.63686
 H2465 H 0.53495 0.06051 0.61259
 H2466 H 0.52644 0.05214 0.59037
 H2467 H 0.53271 0.01047 0.60391
 H2468 H 0.54125 0.01886 0.62616
 H2469 H 0.53951 0.00976 0.57985
 H2470 H 0.53194 0.00189 0.55714
 H2471 H 0.49981 0.03251 0.55717
 H2472 H 0.50726 0.04016 0.58000
 C2473 C 0.54025 0.54296 0.13763
 C2474 C 0.55169 0.53662 0.14382
 C2475 C 0.55710 0.54159 0.15626
 C2476 C 0.55119 0.55303 0.16281
 C2477 C 0.53960 0.55922 0.15674
 C2478 C 0.53420 0.55425 0.14429
 C2479 C 0.53493 0.53807 0.12408
 C2480 C 0.53092 0.54748 0.11385
 C2481 C 0.52637 0.54293 0.10091
 C2482 C 0.52572 0.52886 0.09790
 C2483 C 0.52957 0.51943 0.10818
 C2484 C 0.53413 0.52398 0.12113
 C2485 C 0.52134 0.52409 0.08397
 C2486 C 0.52827 0.51326 0.07740
 C2487 C 0.52457 0.50917 0.06404
 C2488 C 0.51384 0.51581 0.05693
 C2489 C 0.50675 0.52649 0.06361
 C2490 C 0.51046 0.53057 0.07697
 H2491 H 0.55669 0.52801 0.13886
 H2492 H 0.56604 0.53656 0.16062
 H2493 H 0.53474 0.56800 0.16152
 H2494 H 0.52526 0.55923 0.13988
 H2495 H 0.53164 0.55840 0.11571
 H2496 H 0.52370 0.55046 0.09314
 H2497 H 0.52899 0.50852 0.10624
 H2498 H 0.53695 0.51648 0.12887
 H2499 H 0.53681 0.50817 0.08245
 H2500 H 0.53029 0.50094 0.05920
 H2501 H 0.49840 0.53181 0.05849
 H2502 H 0.50480 0.53882 0.08184
 C2503 C 0.20729 0.54577 0.61546
 C2504 C 0.21338 0.55723 0.60913
 C2505 C 0.20818 0.56238 0.59669
 C2506 C 0.19674 0.55619 0.59028
 C2507 C 0.19075 0.54462 0.59653
 C2508 C 0.19597 0.53948 0.60897
 C2509 C 0.21255 0.54056 0.62890
 C2510 C 0.21344 0.52641 0.63143
 C2511 C 0.21813 0.52155 0.64419
 C2512 C 0.22204 0.53072 0.65471
 C2513 C 0.22123 0.54486 0.65215
 C2514 C 0.21654 0.54973 0.63940
 C2515 C 0.22677 0.52559 0.66838
 C2516 C 0.23780 0.53195 0.67530
 C2517 C 0.24199 0.52738 0.68834
 C2518 C 0.23525 0.51634 0.69478
 C2519 C 0.22430 0.50989 0.68778
 C2520 C 0.22013 0.51445 0.67473
 H2521 H 0.22224 0.56219 0.61378
 H2522 H 0.21309 0.57127 0.59215
 H2523 H 0.18192 0.53960 0.59191
 H2524 H 0.19094 0.53073 0.61366
 H2525 H 0.21064 0.51910 0.62348
 H2526 H 0.21883 0.51059 0.64578
 H2527 H 0.22395 0.55219 0.66012
 H2528 H 0.21576 0.56068 0.63786
 H2529 H 0.24324 0.54044 0.67059
 H2530 H 0.25046 0.53260 0.69340
 H2531 H 0.21883 0.50140 0.69245
 H2532 H 0.21148 0.50945 0.66974
 C2533 C 0.20830 0.04352 0.11220
 C2534 C 0.21421 0.05506 0.10586
 C2535 C 0.20862 0.06042 0.09368
 C2536 C 0.19693 0.05437 0.08750
 C2537 C 0.19122 0.04262 0.09375
 C2538 C 0.19683 0.03729 0.10594
 C2539 C 0.21384 0.03825 0.12550
 C2540 C 0.21471 0.02409 0.12800
 C2541 C 0.21951 0.01918 0.14071
 C2542 C 0.22357 0.02833 0.15120
 C2543 C 0.22281 0.04248 0.14865
 C2544 C 0.21800 0.04738 0.13596
 C2545 C 0.22827 0.02320 0.16488
 C2546 C 0.23929 0.02956 0.17180
 C2547 C 0.24324 0.02525 0.18500
 C2548 C 0.23625 0.01446 0.19161
 C2549 C 0.22541 0.00789 0.18455
 C2550 C 0.22147 0.01221 0.17133
 H2551 H 0.22319 0.05996 0.11031
 H2552 H 0.21344 0.06939 0.08921
 H2553 H 0.18225 0.03760 0.08940
 H2554 H 0.19195 0.02848 0.11065
 H2555 H 0.21176 0.01679 0.12008
 H2556 H 0.22015 0.00823 0.14230
 H2557 H 0.22562 0.04979 0.15660
 H2558 H 0.21722 0.05834 0.13446
 H2559 H 0.24486 0.03792 0.16701
 H2560 H 0.25167 0.03051 0.19008
 H2561 H 0.21977 -0.00042 0.18933
 H2562 H 0.21284 0.00720 0.16633
 C2563 C 0.70819 0.20641 0.63767
 C2564 C 0.71437 0.19510 0.64418
 C2565 C 0.70897 0.18984 0.65647
 C2566 C 0.69725 0.19577 0.66257
 C2567 C 0.69121 0.20723 0.65618
 C2568 C 0.69662 0.21248 0.64387
 C2569 C 0.71358 0.21159 0.62427
 C2570 C 0.71424 0.22573 0.62159
 C2571 C 0.71901 0.23054 0.60883
 C2572 C 0.72323 0.22132 0.59849
 C2573 C 0.72265 0.20720 0.60122
 C2574 C 0.71788 0.20239 0.61396
 C2575 C 0.72796 0.22635 0.58479
 C2576 C 0.73911 0.22006 0.57804
 C2577 C 0.74312 0.22431 0.56485
 C2578 C 0.73608 0.23496 0.55807
 C2579 C 0.72512 0.24144 0.56496
 C2580 C 0.72111 0.23719 0.57816
 H2581 H 0.72342 0.19032 0.63976
 H2582 H 0.71394 0.18106 0.66113
 H2583 H 0.68217 0.21205 0.66057
 H2584 H 0.69154 0.22111 0.63903
 H2585 H 0.71118 0.23308 0.62940
 H2586 H 0.71952 0.24149 0.60710
 H2587 H 0.72558 0.19983 0.59339
 H2588 H 0.71726 0.19144 0.61561
 H2589 H 0.74472 0.21182 0.58297
 H2590 H 0.75164 0.21911 0.55990
 H2591 H 0.71943 0.24965 0.56005
 H2592 H 0.71239 0.24214 0.58303
 C2593 C 0.70931 0.70757 0.13777
 C2594 C 0.69779 0.71372 0.14399
 C2595 C 0.69247 0.70859 0.15639
 C2596 C 0.69855 0.69719 0.16285
 C2597 C 0.71023 0.69121 0.15674
 C2598 C 0.71554 0.69634 0.14434
 C2599 C 0.71458 0.71263 0.12427
 C2600 C 0.71876 0.70333 0.11400
 C2601 C 0.72337 0.70801 0.10115
 C2602 C 0.72392 0.72211 0.09828
 C2603 C 0.71984 0.73143 0.10859
 C2604 C 0.71522 0.72674 0.12145
 C2605 C 0.72843 0.72701 0.08445
 C2606 C 0.72149 0.73782 0.07786
 C2607 C 0.72530 0.74199 0.06456
 C2608 C 0.73614 0.73544 0.05755
 C2609 C 0.74325 0.72481 0.06427
 C2610 C 0.73944 0.72065 0.07756
 H2611 H 0.69266 0.72229 0.13910
 H2612 H 0.68346 0.71345 0.16079
 H2613 H 0.71523 0.68247 0.16145
 H2614 H 0.72455 0.69151 0.13991
 H2615 H 0.71816 0.69239 0.11576
 H2616 H 0.72620 0.70057 0.09335
 H2617 H 0.72033 0.74236 0.10675
 H2618 H 0.71226 0.73416 0.12922
 H2619 H 0.71286 0.74282 0.08283
 H2620 H 0.71956 0.75019 0.05970
 H2621 H 0.75169 0.71956 0.05922
 H2622 H 0.74512 0.71243 0.08245
 C2623 C 0.54065 0.70772 0.11274
 C2624 C 0.55210 0.71402 0.10653
 C2625 C 0.55742 0.70905 0.09407
 C2626 C 0.55140 0.69765 0.08751
 C2627 C 0.53978 0.69151 0.09359
 C2628 C 0.53448 0.69648 0.10606
 C2629 C 0.53543 0.71259 0.12632
 C2630 C 0.53141 0.70316 0.13652
 C2631 C 0.52692 0.70768 0.14947
 C2632 C 0.52634 0.72174 0.15252
 C2633 C 0.53024 0.73119 0.14228
 C2634 C 0.53473 0.72667 0.12932
 C2635 C 0.52198 0.72648 0.16646
 C2636 C 0.52896 0.73728 0.17308
 C2637 C 0.52526 0.74134 0.18645
 C2638 C 0.51448 0.73470 0.19349
 C2639 C 0.50735 0.72406 0.18675
 C2640 C 0.51106 0.72000 0.17340
 H2641 H 0.55719 0.72260 0.11150
 H2642 H 0.56638 0.71404 0.08970
 H2643 H 0.53483 0.68276 0.08880
 H2644 H 0.52552 0.69153 0.11048
 H2645 H 0.53205 0.69224 0.13462
 H2646 H 0.52421 0.70014 0.15722
 H2647 H 0.52972 0.74210 0.14425
 H2648 H 0.53758 0.73419 0.12160
 H2649 H 0.53753 0.74236 0.16808
 H2650 H 0.53100 0.74955 0.19132
 H2651 H 0.49897 0.71874 0.19183
 H2652 H 0.50536 0.71178 0.16849
 C2653 C 0.04206 0.70623 0.61345
 C2654 C 0.05372 0.71241 0.60751
 C2655 C 0.05938 0.70726 0.59527
 C2656 C 0.05349 0.69581 0.58867
 C2657 C 0.04169 0.68978 0.59450
 C2658 C 0.03604 0.69493 0.60675
 C2659 C 0.03643 0.71134 0.62678
 C2660 C 0.03203 0.70208 0.63700
 C2661 C 0.02716 0.70682 0.64973
 C2662 C 0.02657 0.72094 0.65255
 C2663 C 0.03082 0.73021 0.64227
 C2664 C 0.03569 0.72546 0.62953
 C2665 C 0.02188 0.72591 0.66629
 C2666 C 0.02876 0.73677 0.67293
 C2667 C 0.02481 0.74099 0.68617
 C2668 C 0.01389 0.73445 0.69309
 C2669 C 0.00683 0.72378 0.68632
 C2670 C 0.01078 0.71957 0.67308
 H2671 H 0.05870 0.72103 0.61252
 H2672 H 0.06848 0.71216 0.59110
 H2673 H 0.03684 0.68099 0.58968
 H2674 H 0.02694 0.69007 0.61096
 H2675 H 0.03268 0.69114 0.63529
 H2676 H 0.02420 0.69941 0.65751
 H2677 H 0.03030 0.74114 0.64406
 H2678 H 0.03881 0.73285 0.62179
 H2679 H 0.03745 0.74175 0.66805
 H2680 H 0.03051 0.74921 0.69107
 H2681 H -0.00166 0.71854 0.69130
 H2682 H 0.00516 0.71131 0.66816
 C2683 C 0.54172 0.61293 0.21069
 C2684 C 0.55308 0.60634 0.21676
 C2685 C 0.55813 0.59410 0.21125
 C2686 C 0.55195 0.58817 0.19951
 C2687 C 0.54043 0.59465 0.19359
 C2688 C 0.53538 0.60688 0.19911
 C2689 C 0.53677 0.62628 0.21613
 C2690 C 0.52261 0.62916 0.21689
 C2691 C 0.51801 0.64192 0.22157
 C2692 C 0.52748 0.65208 0.22560
 C2693 C 0.54164 0.64914 0.22497
 C2694 C 0.54623 0.63640 0.22030
 C2695 C 0.52268 0.66582 0.23008
 C2696 C 0.52922 0.67269 0.24107
 C2697 C 0.52520 0.68592 0.24480
 C2698 C 0.51455 0.69262 0.23763
 C2699 C 0.50780 0.68563 0.22684
 C2700 C 0.51182 0.67239 0.22311
 H2701 H 0.55806 0.61064 0.22581
 H2702 H 0.56697 0.58936 0.21613
 H2703 H 0.53541 0.59039 0.18454
 H2704 H 0.52672 0.61180 0.19410
 H2705 H 0.51506 0.62151 0.21394
 H2706 H 0.50703 0.64381 0.22212
 H2707 H 0.54920 0.65682 0.22776
 H2708 H 0.55721 0.63459 0.21961
 H2709 H 0.53748 0.66782 0.24678
 H2710 H 0.53060 0.69096 0.25321
 H2711 H 0.49959 0.69047 0.22105
 H2712 H 0.50669 0.66744 0.21450
 C2713 C 0.04174 0.61344 0.70833
 C2714 C 0.05359 0.60763 0.71427
 C2715 C 0.05915 0.59551 0.70896
 C2716 C 0.05298 0.58892 0.69758
 C2717 C 0.04097 0.59461 0.69181
 C2718 C 0.03543 0.60672 0.69712
 C2719 C 0.03621 0.62665 0.71354
 C2720 C 0.03147 0.63664 0.70422
 C2721 C 0.02661 0.64923 0.70902
 C2722 C 0.02637 0.65215 0.72326
 C2723 C 0.03101 0.64213 0.73261
 C2724 C 0.03588 0.62952 0.72779
 C2725 C 0.02162 0.66574 0.72826
 C2726 C 0.02871 0.67257 0.73892
 C2727 C 0.02475 0.68571 0.74304
 C2728 C 0.01358 0.69233 0.73661
 C2729 C 0.00627 0.68533 0.72619
 C2730 C 0.01025 0.67220 0.72208
 H2731 H 0.05879 0.61264 0.72281
 H2732 H 0.06841 0.59143 0.71366
 H2733 H 0.03589 0.58978 0.68310
 H2734 H 0.02617 0.61082 0.69246
 H2735 H 0.03183 0.63485 0.69316
 H2736 H 0.02335 0.65682 0.70154
 H2737 H 0.03079 0.64401 0.74365
 H2738 H 0.03928 0.62196 0.73524
 H2739 H 0.03761 0.66793 0.74378
 H2740 H 0.03064 0.69080 0.75107
 H2741 H -0.00241 0.69007 0.72104
 H2742 H 0.00444 0.66711 0.71399
 C2743 C 0.04311 0.13598 0.04091
 C2744 C 0.03684 0.14212 0.05243
 C2745 C 0.04210 0.15426 0.05803
 C2746 C 0.05383 0.16058 0.05225
 C2747 C 0.05992 0.15450 0.04052
 C2748 C 0.05464 0.14237 0.03494
 C2749 C 0.03791 0.12273 0.03538
 C2750 C 0.04717 0.11248 0.03120
 C2751 C 0.04235 0.09986 0.02642
 C2752 C 0.02814 0.09716 0.02570
 C2753 C 0.01886 0.10745 0.02975
 C2754 C 0.02369 0.12010 0.03454
 C2755 C 0.02309 0.08354 0.02107
 C2756 C 0.01213 0.07706 0.02797
 C2757 C 0.00791 0.06390 0.02412
 C2758 C 0.01454 0.05691 0.01328
 C2759 C 0.02528 0.06355 0.00617
 C2760 C 0.02950 0.07669 0.01002
 H2761 H 0.02804 0.13736 0.05736
 H2762 H 0.03703 0.15853 0.06703
 H2763 H 0.06889 0.15902 0.03564
 H2764 H 0.05957 0.13800 0.02592
 H2765 H 0.05819 0.11410 0.03196
 H2766 H 0.04976 0.09206 0.02361
 H2767 H 0.00785 0.10574 0.02914
 H2768 H 0.01629 0.12786 0.03749
 H2769 H 0.00709 0.08201 0.03662
 H2770 H -0.00037 0.05910 0.02986
 H2771 H 0.03059 0.05851 -0.00227
 H2772 H 0.03783 0.08150 0.00437
 C2773 C 0.04402 0.63591 0.54069
 C2774 C 0.03763 0.64197 0.55221
 C2775 C 0.04278 0.65413 0.55787
 C2776 C 0.05444 0.66051 0.55213
 C2777 C 0.06069 0.65456 0.54046
 C2778 C 0.05553 0.64240 0.53481
 C2779 C 0.03893 0.62266 0.53509
 C2780 C 0.04828 0.61247 0.53096
 C2781 C 0.04356 0.59983 0.52609
 C2782 C 0.02936 0.59708 0.52523
 C2783 C 0.02000 0.60731 0.52922
 C2784 C 0.02473 0.61996 0.53410
 C2785 C 0.02441 0.58344 0.52051
 C2786 C 0.01338 0.57694 0.52726
 C2787 C 0.00921 0.56379 0.52333
 C2788 C 0.01598 0.55683 0.51255
 C2789 C 0.02682 0.56348 0.50560
 C2790 C 0.03098 0.57662 0.50954
 H2791 H 0.02884 0.63714 0.55708
 H2792 H 0.03771 0.65841 0.56686
 H2793 H 0.06964 0.65922 0.53572
 H2794 H 0.06056 0.63809 0.52581
 H2795 H 0.05928 0.61413 0.53182
 H2796 H 0.05103 0.59208 0.52333
 H2797 H 0.00900 0.60556 0.52850
 H2798 H 0.01727 0.62768 0.53701
 H2799 H 0.00822 0.58185 0.53585
 H2800 H 0.00086 0.55898 0.52894
 H2801 H 0.03223 0.55847 0.49722
 H2802 H 0.03937 0.58145 0.50401
 C2803 C 0.54264 0.13588 0.54230
 C2804 C 0.53617 0.14248 0.55347
 C2805 C 0.54129 0.15486 0.55859
 C2806 C 0.55302 0.16096 0.55266
 C2807 C 0.55934 0.15448 0.54133
 C2808 C 0.55421 0.14208 0.53621
 C2809 C 0.53754 0.12242 0.53726
 C2810 C 0.53714 0.11945 0.52303
 C2811 C 0.53256 0.10667 0.51835
 C2812 C 0.52829 0.09659 0.52781
 C2813 C 0.52866 0.09959 0.54203
 C2814 C 0.53324 0.11235 0.54670
 C2815 C 0.52360 0.08294 0.52292
 C2816 C 0.51231 0.07643 0.52919
 C2817 C 0.50815 0.06340 0.52490
 C2818 C 0.51519 0.05655 0.51423
 C2819 C 0.52640 0.06314 0.50785
 C2820 C 0.53055 0.07619 0.51214
 H2821 H 0.52711 0.13806 0.55824
 H2822 H 0.53611 0.15959 0.56728
 H2823 H 0.56840 0.15886 0.53652
 H2824 H 0.55952 0.13718 0.52769
 H2825 H 0.54021 0.12706 0.51549
 H2826 H 0.53221 0.10472 0.50732
 H2827 H 0.52567 0.09196 0.54959
 H2828 H 0.53367 0.11424 0.55774
 H2829 H 0.50663 0.08145 0.53739
 H2830 H 0.49946 0.05866 0.53004
 H2831 H 0.53211 0.05816 0.49964
 H2832 H 0.53940 0.08088 0.50722
 C2833 C 0.54149 0.63760 0.03989
 C2834 C 0.53522 0.64371 0.05145
 C2835 C 0.54032 0.65597 0.05690
 C2836 C 0.55182 0.66243 0.05091
 C2837 C 0.55792 0.65645 0.03918
 C2838 C 0.55281 0.64418 0.03374
 C2839 C 0.53649 0.62422 0.03454
 C2840 C 0.54592 0.61410 0.03041
 C2841 C 0.54130 0.60134 0.02579
 C2842 C 0.52714 0.59838 0.02519
 C2843 C 0.51769 0.60853 0.02921
 C2844 C 0.52232 0.62131 0.03383
 C2845 C 0.52231 0.58463 0.02069
 C2846 C 0.51147 0.57804 0.02765
 C2847 C 0.50742 0.56480 0.02389
 C2848 C 0.51413 0.55784 0.01307
 C2849 C 0.52478 0.56458 0.00592
 C2850 C 0.52881 0.57780 0.00969
 H2851 H 0.52657 0.63881 0.05652
 H2852 H 0.53536 0.66027 0.06594
 H2853 H 0.56674 0.66116 0.03425
 H2854 H 0.55774 0.63984 0.02470
 H2855 H 0.55691 0.61593 0.03106
 H2856 H 0.54885 0.59366 0.02301
 H2857 H 0.50671 0.60662 0.02868
 H2858 H 0.51480 0.62896 0.03676
 H2859 H 0.50636 0.58296 0.03628
 H2860 H 0.49921 0.55992 0.02966
 H2861 H 0.53014 0.55957 -0.00250
 H2862 H 0.53706 0.58269 0.00399
 C2863 C 0.70726 0.11451 0.54309
 C2864 C 0.69553 0.10859 0.53701
 C2865 C 0.68982 0.09656 0.54238
 C2866 C 0.69571 0.09013 0.55404
 C2867 C 0.70765 0.09597 0.55992
 C2868 C 0.71333 0.10798 0.55452
 C2869 C 0.71293 0.12765 0.53782
 C2870 C 0.71754 0.13775 0.54711
 C2871 C 0.72260 0.15024 0.54225
 C2872 C 0.72317 0.15295 0.52798
 C2873 C 0.71863 0.14283 0.51867
 C2874 C 0.71357 0.13031 0.52354
 C2875 C 0.72815 0.16644 0.52292
 C2876 C 0.72132 0.17320 0.51208
 C2877 C 0.72546 0.18628 0.50793
 C2878 C 0.73654 0.19291 0.51453
 C2879 C 0.74361 0.18597 0.52512
 C2880 C 0.73946 0.17290 0.52926
 H2881 H 0.69053 0.11345 0.52828
 H2882 H 0.68066 0.09246 0.53749
 H2883 H 0.71263 0.09137 0.56881
 H2884 H 0.72252 0.11216 0.55929
 H2885 H 0.71695 0.13613 0.55818
 H2886 H 0.72577 0.15792 0.54970
 H2887 H 0.71909 0.14456 0.50761
 H2888 H 0.71026 0.12266 0.51612
 H2889 H 0.71248 0.16855 0.50708
 H2890 H 0.71975 0.19132 0.49976
 H2891 H 0.75223 0.19072 0.53041
 H2892 H 0.74507 0.16786 0.53751
 C2893 C 0.70882 0.61337 0.04027
 C2894 C 0.69758 0.60678 0.03394
 C2895 C 0.69248 0.59446 0.03922
 C2896 C 0.69850 0.58843 0.05097
 C2897 C 0.70993 0.59489 0.05713
 C2898 C 0.71503 0.60721 0.05184
 C2899 C 0.71376 0.62682 0.03508
 C2900 C 0.72792 0.62982 0.03449
 C2901 C 0.73249 0.64263 0.02994
 C2902 C 0.72300 0.65273 0.02589
 C2903 C 0.70885 0.64970 0.02640
 C2904 C 0.70429 0.63690 0.03094
 C2905 C 0.72776 0.66650 0.02142
 C2906 C 0.72124 0.67328 0.01039
 C2907 C 0.72523 0.68652 0.00664
 C2908 C 0.73584 0.69331 0.01382
 C2909 C 0.74257 0.68640 0.02466
 C2910 C 0.73857 0.67316 0.02842
 H2911 H 0.69271 0.61116 0.02488
 H2912 H 0.68372 0.58974 0.03415
 H2913 H 0.71482 0.59055 0.06620
 H2914 H 0.72361 0.61211 0.05704
 H2915 H 0.73547 0.62220 0.03744
 H2916 H 0.74346 0.64460 0.02949
 H2917 H 0.70127 0.65734 0.02360
 H2918 H 0.69331 0.63500 0.03151
 H2919 H 0.71302 0.66835 0.00466
 H2920 H 0.71986 0.69148 -0.00181
 H2921 H 0.75075 0.69132 0.03045
 H2922 H 0.74369 0.66827 0.03706
 C2923 C 0.20642 0.63438 0.70765
 C2924 C 0.19512 0.64092 0.71387
 C2925 C 0.18997 0.65317 0.70848
 C2926 C 0.19600 0.65916 0.69671
 C2927 C 0.20744 0.65272 0.69061
 C2928 C 0.21259 0.64048 0.69603
 C2929 C 0.21154 0.62110 0.71307
 C2930 C 0.22574 0.61840 0.71383
 C2931 C 0.23051 0.60578 0.71868
 C2932 C 0.22117 0.59558 0.72287
 C2933 C 0.20698 0.59831 0.72218
 C2934 C 0.20222 0.61093 0.71734
 C2935 C 0.22618 0.58203 0.72772
 C2936 C 0.21975 0.57537 0.73887
 C2937 C 0.22412 0.56240 0.74310
 C2938 C 0.23503 0.55577 0.73627
 C2939 C 0.24159 0.56253 0.72523
 C2940 C 0.23721 0.57550 0.72101
 H2941 H 0.19027 0.63658 0.72295
 H2942 H 0.18119 0.65786 0.71349
 H2943 H 0.21233 0.65703 0.68154
 H2944 H 0.22121 0.63561 0.69091
 H2945 H 0.23318 0.62611 0.71080
 H2946 H 0.24151 0.60405 0.71928
 H2947 H 0.19952 0.59058 0.72509
 H2948 H 0.19121 0.61260 0.71665
 H2949 H 0.21135 0.58021 0.74437
 H2950 H 0.21885 0.55752 0.75165
 H2951 H 0.24997 0.55772 0.71968
 H2952 H 0.24225 0.58028 0.71227
 C2953 C 0.20784 0.13561 0.20851
 C2954 C 0.19668 0.14223 0.21489
 C2955 C 0.19139 0.15438 0.20942
 C2956 C 0.19713 0.16020 0.19743
 C2957 C 0.20847 0.15370 0.19120
 C2958 C 0.21376 0.14155 0.19669
 C2959 C 0.21301 0.12233 0.21393
 C2960 C 0.22720 0.11951 0.21431
 C2961 C 0.23198 0.10684 0.21903
 C2962 C 0.22267 0.09671 0.22346
 C2963 C 0.20849 0.09959 0.22319
 C2964 C 0.20372 0.11225 0.21849
 C2965 C 0.22765 0.08305 0.22801
 C2966 C 0.22144 0.07633 0.23925
 C2967 C 0.22558 0.06316 0.24304
 C2968 C 0.23604 0.05637 0.23567
 C2969 C 0.24247 0.06323 0.22463
 C2970 C 0.23832 0.07642 0.22085
 H2971 H 0.19202 0.13802 0.22414
 H2972 H 0.18270 0.15913 0.21454
 H2973 H 0.21315 0.15788 0.18195
 H2974 H 0.22227 0.13661 0.19144
 H2975 H 0.23462 0.12714 0.21105
 H2976 H 0.24298 0.10499 0.21929
 H2977 H 0.20104 0.09193 0.22630
 H2978 H 0.19272 0.11402 0.21809
 H2979 H 0.21333 0.08126 0.24511
 H2980 H 0.22043 0.05823 0.25164
 H2981 H 0.25053 0.05832 0.21869
 H2982 H 0.24320 0.08125 0.21204
 C2983 C 0.70691 1.13463 0.70867
 C2984 C 0.71314 1.14091 0.69719
 C2985 C 0.70808 1.15329 0.69203
 C2986 C 0.69667 1.15968 0.69823
 C2987 C 0.69058 1.15350 0.70985
 C2988 C 0.69564 1.14112 0.71501
 C2989 C 0.71193 1.12119 0.71381
 C2990 C 0.70253 1.11101 0.71790
 C2991 C 0.70720 1.09826 0.72246
 C2992 C 0.72137 1.09539 0.72305
 C2993 C 0.73078 1.10559 0.71904
 C2994 C 0.72611 1.11836 0.71447
 C2995 C 0.72627 1.08172 0.72764
 C2996 C 0.73721 1.07520 0.72078
 C2997 C 0.74152 1.06213 0.72481
 C2998 C 0.73499 1.05529 0.73581
 C2999 C 0.72416 1.06192 0.74278
 C3000 C 0.71986 1.07497 0.73874
 H3001 H 0.72174 1.13609 0.69199
 H3002 H 0.71302 1.15775 0.68305
 H3003 H 0.68182 1.15815 0.71494
 H3004 H 0.69075 1.13663 0.72399
 H3005 H 0.69154 1.11279 0.71728
 H3006 H 0.69968 1.09053 0.72524
 H3007 H 0.74177 1.10376 0.71956
 H3008 H 0.73360 1.12606 0.71158
 H3009 H 0.74224 1.08006 0.71208
 H3010 H 0.74984 1.05733 0.71916
 H3011 H 0.71890 1.05698 0.75131
 H3012 H 0.71153 1.07980 0.74436
 C3013 C 0.70864 0.63671 0.20979
 C3014 C 0.69742 0.64329 0.21611
 C3015 C 0.69233 0.65560 0.21082
 C3016 C 0.69835 0.66163 0.19908
 C3017 C 0.70975 0.65519 0.19292
 C3018 C 0.71484 0.64287 0.19822
 C3019 C 0.71359 0.62327 0.21500
 C3020 C 0.72775 0.62031 0.21560
 C3021 C 0.73232 0.60751 0.22017
 C3022 C 0.72284 0.59739 0.22423
 C3023 C 0.70869 0.60040 0.22370
 C3024 C 0.70412 0.61318 0.21915
 C3025 C 0.72760 0.58364 0.22872
 C3026 C 0.72110 0.57686 0.23975
 C3027 C 0.72509 0.56364 0.24353
 C3028 C 0.73570 0.55687 0.23637
 C3029 C 0.74241 0.56378 0.22553
 C3030 C 0.73841 0.57701 0.22175
 H3031 H 0.69255 0.63891 0.22517
 H3032 H 0.68359 0.66031 0.21588
 H3033 H 0.71464 0.65953 0.18386
 H3034 H 0.72341 0.63798 0.19303
 H3035 H 0.73529 0.62794 0.21265
 H3036 H 0.74329 0.60557 0.22064
 H3037 H 0.70111 0.59274 0.22651
 H3038 H 0.69314 0.61505 0.21856
 H3039 H 0.71288 0.58178 0.24547
 H3040 H 0.71973 0.55867 0.25198
 H3041 H 0.75059 0.55887 0.21975
 H3042 H 0.74352 0.58190 0.21311
 C3043 C 0.54331 0.11436 0.70799
 C3044 C 0.53734 0.10850 0.69611
 C3045 C 0.54278 0.09653 0.69035
 C3046 C 0.55431 0.09014 0.69634
 C3047 C 0.56011 0.09587 0.70837
 C3048 C 0.55467 0.10784 0.71412
 C3049 C 0.53797 0.12744 0.71371
 C3050 C 0.54713 0.13760 0.71837
 C3051 C 0.54219 0.15007 0.72340
 C3052 C 0.52797 0.15269 0.72390
 C3053 C 0.51878 0.14248 0.71935
 C3054 C 0.52373 0.12999 0.71431
 C3055 C 0.52282 0.16617 0.72881
 C3056 C 0.51194 0.17276 0.72190
 C3057 C 0.50767 0.18582 0.72597
 C3058 C 0.51418 0.19260 0.73705
 C3059 C 0.52482 0.18583 0.74419
 C3060 C 0.52908 0.17278 0.74011
 H3061 H 0.52867 0.11336 0.69106
 H3062 H 0.53805 0.09241 0.68108
 H3063 H 0.56894 0.09120 0.71332
 H3064 H 0.55937 0.11198 0.72339
 H3065 H 0.55816 0.13605 0.71781
 H3066 H 0.54955 0.15781 0.72658
 H3067 H 0.50776 0.14413 0.71978
 H3068 H 0.51641 0.12229 0.71098
 H3069 H 0.50702 0.16801 0.71305
 H3070 H 0.49948 0.19073 0.72021
 H3071 H 0.53002 0.19070 0.75281
 H3072 H 0.53733 0.16787 0.74578
 C3073 C 1.04265 0.11280 0.20963
 C3074 C 1.05407 0.10631 0.21571
 C3075 C 1.05924 0.09412 0.21019
 C3076 C 1.05313 0.08814 0.19844
 C3077 C 1.04156 0.09452 0.19251
 C3078 C 1.03638 0.10670 0.19804
 C3079 C 1.03754 0.12608 0.21510
 C3080 C 1.02334 0.12881 0.21582
 C3081 C 1.01858 0.14150 0.22050
 C3082 C 1.02793 0.15176 0.22457
 C3083 C 1.04212 0.14897 0.22400
 C3084 C 1.04687 0.13629 0.21932
 C3085 C 1.02296 0.16545 0.22905
 C3086 C 1.02936 0.17236 0.24009
 C3087 C 1.02518 0.18554 0.24383
 C3088 C 1.01449 0.19214 0.23661
 C3089 C 1.00789 0.18509 0.22576
 C3090 C 1.01207 0.17190 0.22203
 H3091 H 1.05900 0.11065 0.22477
 H3092 H 1.06812 0.08947 0.21507
 H3093 H 1.03659 0.09022 0.18346
 H3094 H 1.02768 0.11153 0.19302
 H3095 H 1.01589 0.12108 0.21283
 H3096 H 1.00759 0.14328 0.22101
 H3097 H 1.04959 0.15673 0.22683
 H3098 H 1.05787 0.13460 0.21867
 H3099 H 1.03765 0.16758 0.24583
 H3100 H 1.03047 0.19062 0.25227
 H3101 H 0.99965 0.18986 0.21994
 H3102 H 1.00704 0.16691 0.21338
 C3103 C 0.20720 0.61648 0.54309
 C3104 C 0.21324 0.61047 0.55482
 C3105 C 0.20810 0.59819 0.56018
 C3106 C 0.19679 0.59163 0.55391
 C3107 C 0.19089 0.59754 0.54204
 C3108 C 0.19603 0.60982 0.53670
 C3109 C 0.21231 0.62980 0.53771
 C3110 C 0.20299 0.63988 0.53325
 C3111 C 0.20774 0.65253 0.52847
 C3112 C 0.22193 0.65540 0.52803
 C3113 C 0.23126 0.64529 0.53241
 C3114 C 0.22650 0.63263 0.53720
 C3115 C 0.22691 0.66899 0.52327
 C3116 C 0.23779 0.67562 0.53018
 C3117 C 0.24214 0.68864 0.52604
 C3118 C 0.23572 0.69534 0.51488
 C3119 C 0.22496 0.68861 0.50785
 C3120 C 0.22062 0.67559 0.51200
 H3121 H 0.22176 0.61543 0.56007
 H3122 H 0.21290 0.59395 0.56934
 H3123 H 0.18222 0.59275 0.53689
 H3124 H 0.19128 0.61410 0.52753
 H3125 H 0.19199 0.63810 0.53375
 H3126 H 0.20028 0.66019 0.52541
 H3127 H 0.24226 0.64712 0.53200
 H3128 H 0.23394 0.62499 0.54038
 H3129 H 0.24273 0.67089 0.53901
 H3130 H 0.25040 0.69353 0.53175
 H3131 H 0.21979 0.69344 0.49921
 H3132 H 0.21234 0.67067 0.50635
 C3133 C 0.20610 0.11535 1.04198
 C3134 C 0.19463 0.10893 1.03589
 C3135 C 0.18961 0.09655 1.04112
 C3136 C 0.19594 0.09030 1.05259
 C3137 C 0.20754 0.09664 1.05856
 C3138 C 0.21256 0.10901 1.05332
 C3139 C 0.21114 0.12875 1.03674
 C3140 C 0.22533 0.13148 1.03580
 C3141 C 0.23004 0.14422 1.03119
 C3142 C 0.22065 0.15452 1.02742
 C3143 C 0.20647 0.15176 1.02826
 C3144 C 0.20177 0.13902 1.03287
 C3145 C 0.22561 0.16819 1.02283
 C3146 C 0.21905 0.17509 1.01191
 C3147 C 0.22344 0.18812 1.00788
 C3148 C 0.23450 0.19458 1.01468
 C3149 C 0.24117 0.18760 1.02551
 C3150 C 0.23677 0.17456 1.02953
 H3151 H 0.18956 0.11347 1.02702
 H3152 H 0.18070 0.09195 1.03622
 H3153 H 0.21267 0.09214 1.06741
 H3154 H 0.22131 0.11378 1.05834
 H3155 H 0.23281 0.12371 1.03852
 H3156 H 0.24103 0.14597 1.03046
 H3157 H 0.19898 0.15955 1.02565
 H3158 H 0.19077 0.13732 1.03369
 H3159 H 0.21054 0.17038 1.00642
 H3160 H 0.21807 0.19317 0.99948
 H3161 H 0.24967 0.19227 1.03103
 H3162 H 0.24193 0.16958 1.03810
 C3163 C 0.20696 0.70517 0.63539
 C3164 C 0.21298 0.69369 0.64174
 C3165 C 0.20766 0.68850 0.65410
 C3166 C 0.19616 0.69465 0.66040
 C3167 C 0.19025 0.70623 0.65413
 C3168 C 0.19559 0.71143 0.64177
 C3169 C 0.21235 0.71042 0.62202
 C3170 C 0.21332 0.72457 0.61956
 C3171 C 0.21814 0.72948 0.60686
 C3172 C 0.22208 0.72033 0.59635
 C3173 C 0.22117 0.70618 0.59884
 C3174 C 0.21636 0.70128 0.61153
 C3175 C 0.22693 0.72550 0.58274
 C3176 C 0.23794 0.71911 0.57588
 C3177 C 0.24223 0.72370 0.56288
 C3178 C 0.23561 0.73481 0.55644
 C3179 C 0.22469 0.74130 0.56339
 C3180 C 0.22041 0.73670 0.57639
 H3181 H 0.22188 0.68876 0.63718
 H3182 H 0.21252 0.67960 0.65866
 H3183 H 0.18138 0.71122 0.65866
 H3184 H 0.19062 0.72018 0.63705
 H3185 H 0.21050 0.73186 0.62751
 H3186 H 0.21891 0.74044 0.60533
 H3187 H 0.22390 0.69888 0.59087
 H3188 H 0.21551 0.69032 0.61302
 H3189 H 0.24329 0.71058 0.58059
 H3190 H 0.25068 0.71846 0.55785
 H3191 H 0.21930 0.74983 0.55872
 H3192 H 0.21178 0.74173 0.58133
 C3193 C 0.20678 0.20515 1.13589
 C3194 C 0.19538 0.21136 1.14225
 C3195 C 0.19018 0.20628 1.15472
 C3196 C 0.19625 0.19483 1.16117
 C3197 C 0.20782 0.18877 1.15484
 C3198 C 0.21299 0.19386 1.14237
 C3199 C 0.21201 0.21028 1.12241
 C3200 C 0.21610 0.20105 1.11203
 C3201 C 0.22078 0.20582 1.09925
 C3202 C 0.22149 0.21995 1.09654
 C3203 C 0.21747 0.22919 1.10694
 C3204 C 0.21279 0.22441 1.11973
 C3205 C 0.22624 0.22499 1.08285
 C3206 C 0.21957 0.23602 1.07635
 C3207 C 0.22379 0.24051 1.06330
 C3208 C 0.23480 0.23408 1.05642
 C3209 C 0.24156 0.22314 1.06300
 C3210 C 0.23733 0.21865 1.07606
 H3211 H 0.19027 0.21998 1.13744
 H3212 H 0.18127 0.21129 1.15918
 H3213 H 0.21290 0.18000 1.15943
 H3214 H 0.22192 0.18899 1.13782
 H3215 H 0.21540 0.19010 1.11369
 H3216 H 0.22358 0.19844 1.09137
 H3217 H 0.21810 0.24013 1.10524
 H3218 H 0.20990 0.23178 1.12759
 H3219 H 0.21088 0.24100 1.08124
 H3220 H 0.21829 0.24892 1.05852
 H3221 H 0.25009 0.21795 1.05804
 H3222 H 0.24280 0.21025 1.08087
 C3223 C 0.70941 0.54250 0.11230
 C3224 C 0.71568 0.55372 0.10572
 C3225 C 0.71038 0.55885 0.09332
 C3226 C 0.69867 0.55287 0.08719
 C3227 C 0.69255 0.54149 0.09365
 C3228 C 0.69787 0.53636 0.10606
 C3229 C 0.71466 0.53745 0.12581
 C3230 C 0.71525 0.52335 0.12866
 C3231 C 0.71983 0.51867 0.14155
 C3232 C 0.72392 0.52800 0.15186
 C3233 C 0.72343 0.54210 0.14896
 C3234 C 0.71886 0.54676 0.13609
 C3235 C 0.72838 0.52311 0.16571
 C3236 C 0.73941 0.52947 0.17263
 C3237 C 0.74319 0.52533 0.18594
 C3238 C 0.73602 0.51472 0.19266
 C3239 C 0.72516 0.50818 0.18561
 C3240 C 0.72139 0.51233 0.17229
 H3241 H 0.72471 0.55854 0.11017
 H3242 H 0.71541 0.56758 0.08861
 H3243 H 0.68352 0.53664 0.08925
 H3244 H 0.69271 0.52780 0.11095
 H3245 H 0.71226 0.51592 0.12089
 H3246 H 0.72026 0.50775 0.14341
 H3247 H 0.72628 0.54955 0.15676
 H3248 H 0.71831 0.55770 0.13430
 H3249 H 0.74513 0.53768 0.16775
 H3250 H 0.75164 0.53057 0.19101
 H3251 H 0.71938 0.50000 0.19047
 H3252 H 0.71274 0.50733 0.16730
 C3253 C 0.70588 1.04476 0.61512
 C3254 C 0.71231 1.05587 0.60853
 C3255 C 0.70703 1.06113 0.59618
 C3256 C 0.69517 1.05540 0.59011
 C3257 C 0.68885 1.04414 0.59660
 C3258 C 0.69415 1.03888 0.60896
 C3259 C 0.71121 1.03951 0.62852
 C3260 C 0.71165 1.02537 0.63121
 C3261 C 0.71649 1.02049 0.64391
 C3262 C 0.72099 1.02965 0.65421
 C3263 C 0.72059 1.04378 0.65149
 C3264 C 0.71576 1.04865 0.63880
 C3265 C 0.72590 1.02453 0.66782
 C3266 C 0.73727 1.03066 0.67440
 C3267 C 0.74161 1.02616 0.68742
 C3268 C 0.73469 1.01541 0.69417
 C3269 C 0.72343 1.00916 0.68749
 C3270 C 0.71910 1.01367 0.67447
 H3271 H 0.72148 1.06049 0.61291
 H3272 H 0.71221 1.06976 0.59145
 H3273 H 0.67970 1.03948 0.59224
 H3274 H 0.68887 1.03040 0.61386
 H3275 H 0.70839 1.01807 0.62342
 H3276 H 0.71685 1.00954 0.64563
 H3277 H 0.72375 1.05111 0.65930
 H3278 H 0.71532 1.05961 0.63714
 H3279 H 0.74285 1.03893 0.66946
 H3280 H 0.75034 1.03120 0.69222
 H3281 H 0.71781 1.00090 0.69240
 H3282 H 0.71020 1.00885 0.66975
 C3283 C 0.54177 0.20726 0.61355
 C3284 C 0.55337 0.21338 0.60741
 C3285 C 0.55873 0.20825 0.59502
 C3286 C 0.55261 0.19688 0.58849
 C3287 C 0.54085 0.19095 0.59451
 C3288 C 0.53550 0.19607 0.60689
 C3289 C 0.53647 0.21226 0.62705
 C3290 C 0.53219 0.20292 0.63723
 C3291 C 0.52749 0.20754 0.65006
 C3292 C 0.52696 0.22162 0.65303
 C3293 C 0.53115 0.23099 0.64282
 C3294 C 0.53586 0.22636 0.62997
 C3295 C 0.52233 0.22645 0.66684
 C3296 C 0.52924 0.23722 0.67358
 C3297 C 0.52531 0.24132 0.68686
 C3298 C 0.51438 0.23474 0.69372
 C3299 C 0.50729 0.22415 0.68685
 C3300 C 0.51122 0.22006 0.67357
 H3301 H 0.55851 0.22192 0.61237
 H3302 H 0.56780 0.21308 0.59070
 H3303 H 0.53582 0.18224 0.58974
 H3304 H 0.52643 0.19128 0.61125
 H3305 H 0.53277 0.19199 0.63540
 H3306 H 0.52458 0.20006 0.65780
 H3307 H 0.53069 0.24191 0.64473
 H3308 H 0.53891 0.23381 0.62226
 H3309 H 0.53794 0.24224 0.66873
 H3310 H 0.53103 0.24948 0.69184
 H3311 H 0.49879 0.21889 0.69178
 H3312 H 0.50557 0.21187 0.66856
 C3313 C 1.04215 0.20555 0.11276
 C3314 C 1.05373 0.21171 0.10668
 C3315 C 1.05927 0.20654 0.09440
 C3316 C 1.05336 0.19502 0.08786
 C3317 C 1.04157 0.18904 0.09387
 C3318 C 1.03607 0.19423 0.10616
 C3319 C 1.03666 0.21068 0.12614
 C3320 C 1.03239 0.20144 0.13643
 C3321 C 1.02762 0.20620 0.14918
 C3322 C 1.02698 0.22032 0.15196
 C3323 C 1.03113 0.22957 0.14163
 C3324 C 1.03591 0.22481 0.12886
 C3325 C 1.02231 0.22530 0.16570
 C3326 C 1.02912 0.23623 0.17229
 C3327 C 1.02515 0.24048 0.18552
 C3328 C 1.01427 0.23390 0.19247
 C3329 C 1.00729 0.22315 0.18574
 C3330 C 1.01126 0.21891 0.17252
 H3331 H 1.05874 0.22035 0.11160
 H3332 H 1.06832 0.21150 0.09018
 H3333 H 1.03660 0.18024 0.08919
 H3334 H 1.02700 0.18939 0.11048
 H3335 H 1.03307 0.19049 0.13474
 H3336 H 1.02474 0.19880 0.15701
 H3337 H 1.03058 0.24051 0.14339
 H3338 H 1.03894 0.23218 0.12107
 H3339 H 1.03777 0.24125 0.16738
 H3340 H 1.03080 0.24876 0.19039
 H3341 H 0.99883 0.21789 0.19075
 H3342 H 1.00567 0.21061 0.16764
 C3343 C 0.63655 0.20660 0.70960
 C3344 C 0.64270 0.21258 0.69791
 C3345 C 0.65495 0.20729 0.69250
 C3346 C 0.66133 0.19589 0.69867
 C3347 C 0.65530 0.19008 0.71052
 C3348 C 0.64306 0.19537 0.71591
 C3349 C 0.62320 0.21179 0.71496
 C3350 C 0.61297 0.20259 0.71939
 C3351 C 0.60027 0.20739 0.72412
 C3352 C 0.59749 0.22151 0.72453
 C3353 C 0.60775 0.23073 0.72019
 C3354 C 0.62047 0.22592 0.71546
 C3355 C 0.58381 0.22652 0.72918
 C3356 C 0.57717 0.23722 0.72212
 C3357 C 0.56397 0.24142 0.72601
 C3358 C 0.55710 0.23501 0.73707
 C3359 C 0.56390 0.22452 0.74433
 C3360 C 0.57709 0.22032 0.74042
 H3361 H 0.63786 0.22114 0.69272
 H3362 H 0.65929 0.21202 0.68336
 H3363 H 0.65996 0.18135 0.71559
 H3364 H 0.63870 0.19067 0.72506
 H3365 H 0.61466 0.19164 0.71889
 H3366 H 0.59250 0.20002 0.72714
 H3367 H 0.60597 0.24167 0.72056
 H3368 H 0.62821 0.23327 0.71230
 H3369 H 0.58202 0.24209 0.71331
 H3370 H 0.55905 0.24951 0.72016
 H3371 H 0.55896 0.21938 0.75293
 H3372 H 0.58202 0.21219 0.74620
 C3373 C 1.13652 0.20661 0.20825
 C3374 C 1.14244 0.21233 0.19631
 C3375 C 1.15467 0.20704 0.19088
 C3376 C 1.16126 0.19589 0.19727
 C3377 C 1.15547 0.19034 0.20937
 C3378 C 1.14324 0.19564 0.21479
 C3379 C 1.12317 0.21179 0.21364
 C3380 C 1.11310 0.20260 0.21843
 C3381 C 1.10040 0.20738 0.22316
 C3382 C 1.09745 0.22147 0.22322
 C3383 C 1.10755 0.23068 0.21852
 C3384 C 1.12028 0.22590 0.21379
 C3385 C 1.08375 0.22644 0.22786
 C3386 C 1.07693 0.23689 0.22059
 C3387 C 1.06371 0.24104 0.22449
 C3388 C 1.05701 0.23484 0.23577
 C3389 C 1.06399 0.22461 0.24323
 C3390 C 1.07720 0.22047 0.23932
 H3391 H 1.13742 0.22069 0.19095
 H3392 H 1.15882 0.21157 0.18155
 H3393 H 1.16030 0.18180 0.21461
 H3394 H 1.13905 0.19114 0.22412
 H3395 H 1.11492 0.19166 0.21822
 H3396 H 1.09274 0.20000 0.22647
 H3397 H 1.10565 0.24161 0.21861
 H3398 H 1.12790 0.23324 0.21034
 H3399 H 1.08165 0.24159 0.21162
 H3400 H 1.05865 0.24892 0.21847
 H3401 H 1.05918 0.21964 0.25201
 H3402 H 1.08227 0.21254 0.24526
 C3403 C 0.11555 0.70705 0.54366
 C3404 C 0.10939 0.69569 0.53718
 C3405 C 0.09699 0.69032 0.54212
 C3406 C 0.09043 0.69619 0.55366
 C3407 C 0.09650 0.70767 0.56002
 C3408 C 0.10891 0.71303 0.55508
 C3409 C 0.12898 0.71246 0.53871
 C3410 C 0.13916 0.71654 0.54821
 C3411 C 0.15191 0.72136 0.54360
 C3412 C 0.15478 0.72221 0.52937
 C3413 C 0.14457 0.71820 0.51986
 C3414 C 0.13181 0.71338 0.52448
 C3415 C 0.16845 0.72708 0.52451
 C3416 C 0.17510 0.72059 0.51338
 C3417 C 0.18815 0.72490 0.50909
 C3418 C 0.19486 0.73581 0.51582
 C3419 C 0.18812 0.74240 0.52685
 C3420 C 0.17508 0.73809 0.53114
 H3421 H 0.11434 0.69075 0.52846
 H3422 H 0.09263 0.68146 0.53697
 H3423 H 0.09172 0.71250 0.56889
 H3424 H 0.11329 0.72191 0.56017
 H3425 H 0.13738 0.71573 0.55924
 H3426 H 0.15964 0.72414 0.55119
 H3427 H 0.14640 0.71893 0.50883
 H3428 H 0.12411 0.71050 0.51690
 H3429 H 0.17033 0.71197 0.50818
 H3430 H 0.19305 0.71953 0.50061
 H3431 H 0.19296 0.75085 0.53227
 H3432 H 0.17015 0.74341 0.53962
 C3433 C 0.11469 0.20640 1.04292
 C3434 C 0.10853 0.19499 1.03654
 C3435 C 0.09613 0.18965 1.04155
 C3436 C 0.08960 0.19561 1.05306
 C3437 C 0.09567 0.20716 1.05930
 C3438 C 0.10806 0.21248 1.05429
 C3439 C 0.12814 0.21174 1.03795
 C3440 C 0.13830 0.21590 1.04744
 C3441 C 0.15105 0.22071 1.04282
 C3442 C 0.15395 0.22147 1.02860
 C3443 C 0.14378 0.21736 1.01909
 C3444 C 0.13101 0.21255 1.02371
 C3445 C 0.16761 0.22637 1.02375
 C3446 C 0.17434 0.21984 1.01270
 C3447 C 0.18741 0.22414 1.00847
 C3448 C 0.19406 0.23510 1.01519
 C3449 C 0.18723 0.24175 1.02612
 C3450 C 0.17417 0.23744 1.03034
 H3451 H 0.11346 0.18998 1.02786
 H3452 H 0.09177 0.18074 1.03650
 H3453 H 0.09090 0.21206 1.06814
 H3454 H 0.11245 0.22141 1.05930
 H3455 H 0.13650 0.21517 1.05848
 H3456 H 0.15875 0.22356 1.05041
 H3457 H 0.14563 0.21801 1.00806
 H3458 H 0.12333 0.20960 1.01614
 H3459 H 0.16963 0.21117 1.00752
 H3460 H 0.19239 0.21872 1.00007
 H3461 H 0.19201 0.25024 1.03152
 H3462 H 0.16917 0.24281 1.03876
 C3463 C 0.61255 0.54117 0.20856
 C3464 C 0.60650 0.55259 0.21499
 C3465 C 0.59413 0.55801 0.21001
 C3466 C 0.58752 0.55214 0.19848
 C3467 C 0.59346 0.54055 0.19222
 C3468 C 0.60582 0.53514 0.19720
 C3469 C 0.62603 0.53581 0.21343
 C3470 C 0.63610 0.53172 0.20386
 C3471 C 0.64893 0.52703 0.20837
 C3472 C 0.65200 0.52632 0.22257
 C3473 C 0.64188 0.53030 0.23216
 C3474 C 0.62904 0.53500 0.22764
 C3475 C 0.66581 0.52175 0.22729
 C3476 C 0.67255 0.52851 0.23822
 C3477 C 0.68582 0.52465 0.24223
 C3478 C 0.69268 0.51391 0.23540
 C3479 C 0.68582 0.50697 0.22464
 C3480 C 0.67255 0.51085 0.22064
 H3481 H 0.61151 0.55756 0.22367
 H3482 H 0.58987 0.56695 0.21509
 H3483 H 0.58862 0.53571 0.18337
 H3484 H 0.61012 0.52621 0.19216
 H3485 H 0.63419 0.53245 0.19284
 H3486 H 0.65658 0.52427 0.20071
 H3487 H 0.64387 0.52969 0.24317
 H3488 H 0.62142 0.53790 0.23528
 H3489 H 0.66770 0.53706 0.24344
 H3490 H 0.69079 0.53025 0.25053
 H3491 H 0.69075 0.49862 0.21918
 H3492 H 0.66755 0.50530 0.21232
 C3493 C 0.61564 1.04443 0.70606
 C3494 C 0.60955 1.03859 0.69424
 C3495 C 0.59725 1.04385 0.68891
 C3496 C 0.59073 1.05505 0.69530
 C3497 C 0.59673 1.06074 0.70725
 C3498 C 0.60903 1.05549 0.71256
 C3499 C 0.62896 1.03918 0.71145
 C3500 C 0.63916 1.04831 0.71612
 C3501 C 0.65179 1.04344 0.72100
 C3502 C 0.65451 1.02931 0.72133
 C3503 C 0.64429 1.02016 0.71672
 C3504 C 0.63166 1.02504 0.71183
 C3505 C 0.66806 1.02418 0.72627
 C3506 C 0.67471 1.01338 0.71938
 C3507 C 0.68768 1.00888 0.72371
 C3508 C 0.69431 1.01509 0.73506
 C3509 C 0.68756 1.02578 0.74207
 C3510 C 0.67459 1.03026 0.73772
 H3511 H 0.61447 1.03015 0.68891
 H3512 H 0.59294 1.03921 0.67968
 H3513 H 0.59198 1.06933 0.71249
 H3514 H 0.61336 1.06008 0.72181
 H3515 H 0.63749 1.05927 0.71573
 H3516 H 0.65954 1.05076 0.72424
 H3517 H 0.64601 1.00921 0.71704
 H3518 H 0.62393 1.01774 0.70849
 H3519 H 0.67003 1.00860 0.71041
 H3520 H 0.69259 1.00068 0.71802
 H3521 H 0.69234 1.03079 0.75085
 H3522 H 0.66965 1.03849 0.74337
 C3523 C 0.88363 0.45456 0.29486
 C3524 C 0.89020 0.46044 0.30640
 C3525 C 0.90239 0.45484 0.31161
 C3526 C 0.90830 0.44321 0.30541
 C3527 C 0.90181 0.43743 0.29375
 C3528 C 0.88962 0.44305 0.28854
 C3529 C 0.87044 0.46026 0.28962
 C3530 C 0.86791 0.46124 0.27533
 C3531 C 0.85537 0.46636 0.27043
 C3532 C 0.84509 0.47061 0.27972
 C3533 C 0.84767 0.46970 0.29401
 C3534 C 0.86019 0.46459 0.29890
 C3535 C 0.83163 0.47572 0.27457
 C3536 C 0.82509 0.48684 0.28106
 C3537 C 0.81217 0.49131 0.27656
 C3538 C 0.80547 0.48476 0.26545
 C3539 C 0.81212 0.47376 0.25884
 C3540 C 0.82504 0.46930 0.26334
 H3541 H 0.88595 0.46943 0.31137
 H3542 H 0.90712 0.45960 0.32055
 H3543 H 0.90605 0.42847 0.28872
 H3544 H 0.88472 0.43820 0.27974
 H3545 H 0.87568 0.45817 0.26792
 H3546 H 0.85377 0.46711 0.25937
 H3547 H 0.83987 0.47266 0.30143
 H3548 H 0.86174 0.46375 0.30996
 H3549 H 0.82999 0.49211 0.28962
 H3550 H 0.80738 0.49981 0.28189
 H3551 H 0.80725 0.46842 0.25030
 H3552 H 0.82973 0.46060 0.25825
 C3553 C 0.88583 0.95567 0.79272
 C3554 C 0.89239 0.94450 0.78636
 C3555 C 0.90447 0.93903 0.79195
 C3556 C 0.91029 0.94461 0.80404
 C3557 C 0.90386 0.95596 0.81026
 C3558 C 0.89177 0.96142 0.80466
 C3559 C 0.87264 0.96106 0.78713
 C3560 C 0.87003 0.97522 0.78681
 C3561 C 0.85745 0.98020 0.78185
 C3562 C 0.84723 0.97113 0.77709
 C3563 C 0.84989 0.95698 0.77733
 C3564 C 0.86244 0.95201 0.78229
 C3565 C 0.83368 0.97631 0.77222
 C3566 C 0.82713 0.97032 0.76074
 C3567 C 0.81402 0.97462 0.75665
 C3568 C 0.80714 0.98504 0.76395
 C3569 C 0.81386 0.99127 0.77523
 C3570 C 0.82698 0.98696 0.77931
 H3571 H 0.88819 0.93998 0.77703
 H3572 H 0.90917 0.93035 0.78683
 H3573 H 0.90804 0.96051 0.81959
 H3574 H 0.88688 0.96994 0.80989
 H3575 H 0.87776 0.98245 0.79029
 H3576 H 0.85577 0.99116 0.78163
 H3577 H 0.84213 0.94972 0.77399
 H3578 H 0.86403 0.94104 0.78263
 H3579 H 0.83212 0.96224 0.75494
 H3580 H 0.80920 0.96962 0.74788
 H3581 H 0.80887 0.99929 0.78112
 H3582 H 0.83169 0.99168 0.78829
 C3583 C 0.36484 0.29376 0.79315
 C3584 C 0.35857 0.28783 0.80480
 C3585 C 0.34616 0.29302 0.80993
 C3586 C 0.33973 0.30426 0.80353
 C3587 C 0.34592 0.31004 0.79174
 C3588 C 0.35832 0.30486 0.78662
 C3589 C 0.37827 0.28858 0.78798
 C3590 C 0.38852 0.29777 0.78357
 C3591 C 0.40125 0.29297 0.77892
 C3592 C 0.40404 0.27885 0.77856
 C3593 C 0.39378 0.26964 0.78292
 C3594 C 0.38104 0.27446 0.78758
 C3595 C 0.41768 0.27380 0.77384
 C3596 C 0.42428 0.26300 0.78079
 C3597 C 0.43733 0.25857 0.77665
 C3598 C 0.44408 0.26483 0.76543
 C3599 C 0.43738 0.27551 0.75836
 C3600 C 0.42434 0.27993 0.76251
 H3601 H 0.36341 0.27937 0.81015
 H3602 H 0.34171 0.28832 0.81904
 H3603 H 0.34124 0.31866 0.78649
 H3604 H 0.36278 0.30951 0.77750
 H3605 H 0.38680 0.30872 0.78399
 H3606 H 0.40902 0.30033 0.77587
 H3607 H 0.39555 0.25870 0.78258
 H3608 H 0.37328 0.26711 0.79073
 H3609 H 0.41950 0.25819 0.78966
 H3610 H 0.44220 0.25038 0.78238
 H3611 H 0.44224 0.28055 0.74966
 H3612 H 0.41944 0.28814 0.75682
 C3613 C 0.86656 0.29526 0.29501
 C3614 C 0.86006 0.28920 0.30646
 C3615 C 0.84792 0.29472 0.31183
 C3616 C 0.84196 0.30644 0.30587
 C3617 C 0.84838 0.31241 0.29429
 C3618 C 0.86053 0.30688 0.28893
 C3619 C 0.87971 0.28963 0.28959
 C3620 C 0.88215 0.28888 0.27527
 C3621 C 0.89461 0.28374 0.27023
 C3622 C 0.90491 0.27923 0.27940
 C3623 C 0.90244 0.27994 0.29371
 C3624 C 0.88999 0.28508 0.29875
 C3625 C 0.91826 0.27400 0.27410
 C3626 C 0.92465 0.26268 0.28037
 C3627 C 0.93748 0.25808 0.27576
 C3628 C 0.94423 0.26470 0.26476
 C3629 C 0.93773 0.27590 0.25835
 C3630 C 0.92489 0.28048 0.26296
 H3631 H 0.86434 0.28012 0.31124
 H3632 H 0.84324 0.28980 0.32070
 H3633 H 0.84410 0.32145 0.28945
 H3634 H 0.86537 0.31187 0.28019
 H3635 H 0.87435 0.29213 0.26796
 H3636 H 0.89614 0.28315 0.25915
 H3637 H 0.91025 0.27679 0.30104
 H3638 H 0.88852 0.28575 0.30983
 H3639 H 0.91971 0.25734 0.28884
 H3640 H 0.94216 0.24942 0.28093
 H3641 H 0.94265 0.28130 0.24990
 H3642 H 0.92032 0.28934 0.25803
 C3643 C 0.38720 0.79372 0.45875
 C3644 C 0.39323 0.78786 0.44693
 C3645 C 0.40550 0.79313 0.44155
 C3646 C 0.41203 0.80438 0.44788
 C3647 C 0.40613 0.81006 0.45986
 C3648 C 0.39386 0.80479 0.46523
 C3649 C 0.37380 0.78858 0.46407
 C3650 C 0.36369 0.79781 0.46865
 C3651 C 0.35096 0.79307 0.47337
 C3652 C 0.34803 0.77897 0.47363
 C3653 C 0.35816 0.76972 0.46912
 C3654 C 0.37091 0.77447 0.46439
 C3655 C 0.33433 0.77403 0.47832
 C3656 C 0.32754 0.76341 0.47122
 C3657 C 0.31433 0.75926 0.47520
 C3658 C 0.30761 0.76564 0.48636
 C3659 C 0.31455 0.77606 0.49364
 C3660 C 0.32774 0.78020 0.48966
 H3661 H 0.38827 0.77941 0.44162
 H3662 H 0.40974 0.78850 0.43231
 H3663 H 0.41090 0.81868 0.46506
 H3664 H 0.38959 0.80939 0.47447
 H3665 H 0.36550 0.80875 0.46829
 H3666 H 0.34328 0.80048 0.47652
 H3667 H 0.35627 0.75879 0.46936
 H3668 H 0.37856 0.76709 0.46110
 H3669 H 0.33227 0.75856 0.46234
 H3670 H 0.30929 0.75124 0.46932
 H3671 H 0.30973 0.78117 0.50233
 H3672 H 0.33280 0.78826 0.49547
 C3673 C 0.38593 0.29463 0.95883
 C3674 C 0.39244 0.30594 0.96503
 C3675 C 0.40450 0.31141 0.95939
 C3676 C 0.41034 0.30569 0.94740
 C3677 C 0.40395 0.29422 0.94133
 C3678 C 0.39189 0.28876 0.94697
 C3679 C 0.37277 0.28921 0.96445
 C3680 C 0.37022 0.27504 0.96490
 C3681 C 0.35764 0.27002 0.96979
 C3682 C 0.34734 0.27906 0.97437
 C3683 C 0.34996 0.29322 0.97405
 C3684 C 0.36251 0.29823 0.96915
 C3685 C 0.33378 0.27382 0.97912
 C3686 C 0.32713 0.27983 0.99052
 C3687 C 0.31401 0.27547 0.99450
 C3688 C 0.30721 0.26500 0.98716
 C3689 C 0.31402 0.25876 0.97597
 C3690 C 0.32716 0.26312 0.97201
 H3691 H 0.38822 0.31056 0.97429
 H3692 H 0.40918 0.32019 0.96439
 H3693 H 0.40814 0.28956 0.93207
 H3694 H 0.38703 0.28015 0.94185
 H3695 H 0.37799 0.26782 0.96154
 H3696 H 0.35600 0.25905 0.97009
 H3697 H 0.34214 0.30046 0.97726
 H3698 H 0.36406 0.30921 0.96871
 H3699 H 0.33206 0.28796 0.99634
 H3700 H 0.30911 0.28048 1.00320
 H3701 H 0.30909 0.25069 0.97006
 H3702 H 0.33195 0.25839 0.96309
 C3703 C 0.79444 0.45357 0.38412
 C3704 C 0.80606 0.45973 0.39018
 C3705 C 0.81172 0.45449 0.40238
 C3706 C 0.80588 0.44294 0.40881
 C3707 C 0.79415 0.43688 0.40282
 C3708 C 0.78850 0.44213 0.39062
 C3709 C 0.78871 0.45890 0.37092
 C3710 C 0.78429 0.44984 0.36051
 C3711 C 0.77926 0.45482 0.34794
 C3712 C 0.77853 0.46899 0.34548
 C3713 C 0.78282 0.47806 0.35594
 C3714 C 0.78786 0.47307 0.36852
 C3715 C 0.77357 0.47426 0.33195
 C3716 C 0.78023 0.48534 0.32552
 C3717 C 0.77589 0.49000 0.31257
 C3718 C 0.76476 0.48370 0.30573
 C3719 C 0.75798 0.47272 0.31225
 C3720 C 0.76234 0.46806 0.32521
 H3721 H 0.81098 0.46846 0.38534
 H3722 H 0.82077 0.45941 0.40667
 H3723 H 0.78934 0.42801 0.40751
 H3724 H 0.77943 0.43727 0.38630
 H3725 H 0.78503 0.43886 0.36196
 H3726 H 0.77624 0.44757 0.34000
 H3727 H 0.78219 0.48903 0.35443
 H3728 H 0.79098 0.48031 0.37642
 H3729 H 0.78904 0.49020 0.33037
 H3730 H 0.78141 0.49842 0.30783
 H3731 H 0.74936 0.46763 0.30731
 H3732 H 0.75688 0.45961 0.32997
 C3733 C 0.79287 0.95541 0.88616
 C3734 C 0.80471 0.96130 0.89208
 C3735 C 0.81039 0.95590 0.90421
 C3736 C 0.80435 0.94449 0.91069
 C3737 C 0.79235 0.93878 0.90490
 C3738 C 0.78669 0.94417 0.89278
 C3739 C 0.78721 0.96072 0.87292
 C3740 C 0.78253 0.95161 0.86267
 C3741 C 0.77757 0.95651 0.85005
 C3742 C 0.77716 0.97065 0.84736
 C3743 C 0.78173 0.97978 0.85766
 C3744 C 0.78670 0.97487 0.87030
 C3745 C 0.77235 0.97578 0.83372
 C3746 C 0.77931 0.98653 0.82706
 C3747 C 0.77528 0.99083 0.81387
 C3748 C 0.76418 0.98447 0.80703
 C3749 C 0.75701 0.97393 0.81385
 C3750 C 0.76105 0.96964 0.82704
 H3751 H 0.80981 0.96987 0.88714
 H3752 H 0.81964 0.96056 0.90837
 H3753 H 0.78737 0.93004 0.90964
 H3754 H 0.77743 0.93954 0.88859
 H3755 H 0.78302 0.94064 0.86428
 H3756 H 0.77437 0.94921 0.84224
 H3757 H 0.78137 0.99074 0.85596
 H3758 H 0.79006 0.98215 0.87807
 H3759 H 0.78815 0.99136 0.83186
 H3760 H 0.78107 0.99895 0.80893
 H3761 H 0.74838 0.96883 0.80894
 H3762 H 0.75534 0.96147 0.83199
 C3763 C 0.29284 0.79567 0.36443
 C3764 C 0.30450 0.78952 0.35848
 C3765 C 0.31024 0.79477 0.34633
 C3766 C 0.30447 0.80631 0.33985
 C3767 C 0.29267 0.81234 0.34570
 C3768 C 0.28694 0.80708 0.35785
 C3769 C 0.28711 0.79043 0.37766
 C3770 C 0.28270 0.79958 0.38798
 C3771 C 0.27777 0.79470 0.40063
 C3772 C 0.27712 0.78055 0.40326
 C3773 C 0.28137 0.77139 0.39288
 C3774 C 0.28630 0.77628 0.38022
 C3775 C 0.27240 0.77543 0.41693
 C3776 C 0.27926 0.76453 0.42345
 C3777 C 0.27531 0.76018 0.43664
 C3778 C 0.26438 0.76663 0.44363
 C3779 C 0.25733 0.77735 0.43696
 C3780 C 0.26130 0.78169 0.42378
 H3781 H 0.30939 0.78083 0.36339
 H3782 H 0.31933 0.78988 0.34214
 H3783 H 0.28791 0.82119 0.34096
 H3784 H 0.27784 0.81193 0.36208
 H3785 H 0.28340 0.81054 0.38642
 H3786 H 0.27480 0.80202 0.40850
 H3787 H 0.28080 0.76044 0.39452
 H3788 H 0.28942 0.76897 0.37239
 H3789 H 0.28796 0.75961 0.41852
 H3790 H 0.28100 0.75193 0.44146
 H3791 H 0.24885 0.78253 0.44200
 H3792 H 0.25569 0.78999 0.41894
 C3793 C 0.29221 0.29404 0.86405
 C3794 C 0.28599 0.30519 0.85732
 C3795 C 0.29145 0.31031 0.84499
 C3796 C 0.30329 0.30441 0.83909
 C3797 C 0.30939 0.29312 0.84573
 C3798 C 0.30391 0.28800 0.85805
 C3799 C 0.28673 0.28895 0.87744
 C3800 C 0.28618 0.27484 0.88027
 C3801 C 0.28138 0.27011 0.89305
 C3802 C 0.27703 0.27939 0.90328
 C3803 C 0.27746 0.29349 0.90039
 C3804 C 0.28225 0.29821 0.88763
 C3805 C 0.27239 0.27444 0.91704
 C3806 C 0.26120 0.28065 0.92378
 C3807 C 0.25723 0.27642 0.93701
 C3808 C 0.26438 0.26585 0.94381
 C3809 C 0.27542 0.25947 0.93695
 C3810 C 0.27937 0.26371 0.92372
 H3811 H 0.27685 0.30994 0.86157
 H3812 H 0.28644 0.31897 0.84014
 H3813 H 0.31852 0.28833 0.84150
 H3814 H 0.30904 0.27950 0.86307
 H3815 H 0.28937 0.26744 0.87256
 H3816 H 0.28099 0.25918 0.89489
 H3817 H 0.27441 0.30091 0.90814
 H3818 H 0.28276 0.30915 0.88586
 H3819 H 0.25549 0.28882 0.91882
 H3820 H 0.24866 0.28154 0.94195
 H3821 H 0.28119 0.25133 0.94187
 H3822 H 0.28814 0.25883 0.91888
 C3823 C 0.45606 0.29542 0.88553
 C3824 C 0.46233 0.30677 0.89192
 C3825 C 0.45712 0.31204 0.90430
 C3826 C 0.44550 0.30609 0.91059
 C3827 C 0.43935 0.29462 0.90428
 C3828 C 0.44457 0.28935 0.89190
 C3829 C 0.46132 0.29013 0.87212
 C3830 C 0.46195 0.27597 0.86954
 C3831 C 0.46670 0.27104 0.85682
 C3832 C 0.47093 0.28016 0.84641
 C3833 C 0.47034 0.29431 0.84901
 C3834 C 0.46559 0.29924 0.86171
 C3835 C 0.47578 0.27497 0.83281
 C3836 C 0.48704 0.28114 0.82614
 C3837 C 0.49136 0.27655 0.81315
 C3838 C 0.48450 0.26567 0.80651
 C3839 C 0.47332 0.25940 0.81326
 C3840 C 0.46902 0.26399 0.82627
 H3841 H 0.47132 0.31155 0.88738
 H3842 H 0.46217 0.32084 0.90889
 H3843 H 0.43038 0.28979 0.90881
 H3844 H 0.43941 0.28070 0.88715
 H3845 H 0.45892 0.26869 0.87742
 H3846 H 0.46721 0.26008 0.85520
 H3847 H 0.47329 0.30160 0.84111
 H3848 H 0.46499 0.31020 0.86328
 H3849 H 0.49257 0.28951 0.83100
 H3850 H 0.50002 0.28162 0.80828
 H3851 H 0.46776 0.25104 0.80844
 H3852 H 0.46020 0.25914 0.83106
 C3853 C 0.95484 0.29581 0.38343
 C3854 C 0.96089 0.30744 0.38950
 C3855 C 0.95563 0.31289 0.40179
 C3856 C 0.94419 0.30683 0.40829
 C3857 C 0.93826 0.29509 0.40230
 C3858 C 0.94352 0.28965 0.39001
 C3859 C 0.96014 0.29027 0.37014
 C3860 C 0.95097 0.28570 0.35986
 C3861 C 0.95590 0.28063 0.34729
 C3862 C 0.97013 0.28001 0.34469
 C3863 C 0.97932 0.28455 0.35497
 C3864 C 0.97438 0.28963 0.36756
 C3865 C 0.97531 0.27479 0.33123
 C3866 C 0.98633 0.28131 0.32449
 C3867 C 0.99086 0.27669 0.31157
 C3868 C 0.98449 0.26542 0.30511
 C3869 C 0.97360 0.25878 0.31198
 C3870 C 0.96907 0.26340 0.32488
 H3871 H 0.96952 0.31252 0.38459
 H3872 H 0.96045 0.32195 0.40610
 H3873 H 0.92949 0.29010 0.40704
 H3874 H 0.93876 0.28056 0.38570
 H3875 H 0.93994 0.28629 0.36143
 H3876 H 0.94855 0.27744 0.33948
 H3877 H 0.99034 0.28403 0.35335
 H3878 H 0.98171 0.29290 0.37535
 H3879 H 0.99123 0.29021 0.32904
 H3880 H 0.99922 0.28211 0.30656
 H3881 H 0.96846 0.25006 0.30734
 H3882 H 0.96069 0.25804 0.32991
 C3883 C 0.45652 0.38414 0.79308
 C3884 C 0.46258 0.39021 0.80479
 C3885 C 0.45743 0.40248 0.81015
 C3886 C 0.44609 0.40897 0.80390
 C3887 C 0.44018 0.40301 0.79204
 C3888 C 0.44533 0.39074 0.78670
 C3889 C 0.46163 0.37082 0.78773
 C3890 C 0.45230 0.36070 0.78330
 C3891 C 0.45704 0.34803 0.77857
 C3892 C 0.47123 0.34519 0.77815
 C3893 C 0.48057 0.35534 0.78249
 C3894 C 0.47582 0.36802 0.78723
 C3895 C 0.47621 0.33159 0.77344
 C3896 C 0.48704 0.32499 0.78039
 C3897 C 0.49139 0.31196 0.77628
 C3898 C 0.48500 0.30524 0.76510
 C3899 C 0.47428 0.31194 0.75802
 C3900 C 0.46995 0.32496 0.76214
 H3901 H 0.47112 0.38529 0.81003
 H3902 H 0.46224 0.40676 0.81930
 H3903 H 0.43148 0.40775 0.78692
 H3904 H 0.44057 0.38642 0.77754
 H3905 H 0.44130 0.36245 0.78379
 H3906 H 0.44958 0.34034 0.77554
 H3907 H 0.49156 0.35353 0.78210
 H3908 H 0.48326 0.37568 0.79038
 H3909 H 0.49195 0.32975 0.78924
 H3910 H 0.49962 0.30709 0.78202
 H3911 H 0.46914 0.30710 0.74935
 H3912 H 0.46170 0.32987 0.75646
 C3913 C 0.95450 0.38271 0.29303
 C3914 C 0.96079 0.38877 0.30462
 C3915 C 0.95554 0.40085 0.31031
 C3916 C 0.94386 0.40717 0.30452
 C3917 C 0.93768 0.40119 0.29280
 C3918 C 0.94294 0.38910 0.28713
 C3919 C 0.95982 0.36962 0.28728
 C3920 C 0.95066 0.35930 0.28297
 C3921 C 0.95562 0.34684 0.27792
 C3922 C 0.96986 0.34440 0.27707
 C3923 C 0.97903 0.35476 0.28126
 C3924 C 0.97406 0.36724 0.28631
 C3925 C 0.97510 0.33096 0.27212
 C3926 C 0.98629 0.32463 0.27876
 C3927 C 0.99086 0.31173 0.27450
 C3928 C 0.98435 0.30486 0.26349
 C3929 C 0.97329 0.31130 0.25671
 C3930 C 0.96872 0.32420 0.26098
 H3931 H 0.96961 0.38401 0.30951
 H3932 H 0.96056 0.40514 0.31934
 H3933 H 0.92872 0.40579 0.28803
 H3934 H 0.93798 0.38479 0.27808
 H3935 H 0.93963 0.36074 0.28380
 H3936 H 0.94829 0.33898 0.27500
 H3937 H 0.99005 0.35327 0.28053
 H3938 H 0.98138 0.37507 0.28935
 H3939 H 0.99131 0.32950 0.28749
 H3940 H 0.99936 0.30706 0.28001
 H3941 H 0.96803 0.30632 0.24819
 H3942 H 0.96019 0.32889 0.25554
 C3943 C 0.29315 0.88695 0.45891
 C3944 C 0.30449 0.89361 0.46498
 C3945 C 0.30976 0.90565 0.45922
 C3946 C 0.30382 0.91131 0.44725
 C3947 C 0.29232 0.90477 0.44132
 C3948 C 0.28704 0.89274 0.44709
 C3949 C 0.28796 0.87381 0.46464
 C3950 C 0.27374 0.87110 0.46530
 C3951 C 0.26893 0.85853 0.47026
 C3952 C 0.27822 0.84839 0.47466
 C3953 C 0.29242 0.85117 0.47414
 C3954 C 0.29723 0.86373 0.46919
 C3955 C 0.27319 0.83480 0.47940
 C3956 C 0.27952 0.82813 0.49061
 C3957 C 0.27534 0.81500 0.49454
 C3958 C 0.26472 0.80822 0.48735
 C3959 C 0.25817 0.81504 0.47636
 C3960 C 0.26235 0.82818 0.47243
 H3961 H 0.30929 0.88951 0.47420
 H3962 H 0.31858 0.91044 0.46412
 H3963 H 0.28748 0.90883 0.43209
 H3964 H 0.27840 0.88776 0.44207
 H3965 H 0.26634 0.87874 0.46205
 H3966 H 0.25792 0.85676 0.47071
 H3967 H 0.29985 0.84348 0.47722
 H3968 H 0.30824 0.86541 0.46859
 H3969 H 0.28776 0.83306 0.49632
 H3970 H 0.28059 0.81010 0.50310
 H3971 H 0.24998 0.81013 0.47056
 H3972 H 0.25738 0.83297 0.46365
 C3973 C 0.29329 0.38630 0.96038
 C3974 C 0.30485 0.39276 0.96628
 C3975 C 0.31009 0.40485 0.96060
 C3976 C 0.30390 0.41077 0.94888
 C3977 C 0.29220 0.40443 0.94313
 C3978 C 0.28696 0.39234 0.94882
 C3979 C 0.28811 0.37311 0.96601
 C3980 C 0.27389 0.37049 0.96689
 C3981 C 0.26907 0.35787 0.97171
 C3982 C 0.27836 0.34759 0.97577
 C3983 C 0.29257 0.35028 0.97505
 C3984 C 0.29739 0.36288 0.97023
 C3985 C 0.27331 0.33396 0.98035
 C3986 C 0.27972 0.32708 0.99137
 C3987 C 0.27548 0.31393 0.99517
 C3988 C 0.26473 0.30733 0.98801
 C3989 C 0.25810 0.31435 0.97719
 C3990 C 0.26234 0.32751 0.97341
 H3991 H 0.30983 0.38847 0.97532
 H3992 H 0.31906 0.40949 0.96535
 H3993 H 0.28717 0.40868 0.93410
 H3994 H 0.27816 0.38753 0.94393
 H3995 H 0.26649 0.37824 0.96391
 H3996 H 0.25806 0.35617 0.97233
 H3997 H 0.29999 0.34249 0.97787
 H3998 H 0.30840 0.36449 0.96946
 H3999 H 0.28807 0.33186 0.99704
 H4000 H 0.28080 0.30886 1.00358
 H4001 H 0.24980 0.30959 0.97142
 H4002 H 0.25729 0.33248 0.96477
 C4003 C 0.79517 0.36684 0.29472
 C4004 C 0.80690 0.36080 0.28878
 C4005 C 0.81233 0.34867 0.29420
 C4006 C 0.80615 0.34230 0.30567
 C4007 C 0.79430 0.34825 0.31147
 C4008 C 0.78888 0.36037 0.30606
 C4009 C 0.78966 0.37997 0.28930
 C4010 C 0.78501 0.39016 0.29845
 C4011 C 0.77995 0.40258 0.29342
 C4012 C 0.77943 0.40513 0.27912
 C4013 C 0.78407 0.39494 0.26995
 C4014 C 0.78913 0.38250 0.27499
 C4015 C 0.77423 0.41844 0.27385
 C4016 C 0.78091 0.42513 0.26286
 C4017 C 0.77638 0.43796 0.25832
 C4018 C 0.76505 0.44438 0.26466
 C4019 C 0.75823 0.43755 0.27548
 C4020 C 0.76277 0.42474 0.28002
 H4021 H 0.81207 0.36561 0.28013
 H4022 H 0.82148 0.34439 0.28948
 H4023 H 0.78921 0.34360 0.32027
 H4024 H 0.77971 0.36465 0.31073
 H4025 H 0.78553 0.38863 0.30954
 H4026 H 0.77670 0.41032 0.30076
 H4027 H 0.78363 0.39654 0.25887
 H4028 H 0.79246 0.37478 0.26767
 H4029 H 0.78987 0.42062 0.25800
 H4030 H 0.78193 0.44294 0.25001
 H4031 H 0.74946 0.44216 0.28060
 H4032 H 0.75729 0.41976 0.28837
   
