data_POSCAR
  _audit_creation_date              2014-09-24
  _audit_creation_method            'ToBaCCo'
  _symmetry_space_group_name_H-M    'P1'
  _symmetry_Int_Tables_number       1
  _symmetry_cell_setting            triclinic
  loop_
  _symmetry_equiv_pos_as_xyz
 x,y,z
_cell_length_a 41.4475
_cell_length_b 42.8226
_cell_length_c 43.3073
_cell_angle_alpha 88.443800
_cell_angle_beta 88.823400
_cell_angle_gamma 89.957900
loop_
  _atom_site_label
  _atom_site_type_symbol
  _atom_site_fract_x
  _atom_site_fract_y
  _atom_site_fract_z
C1 C 0.73050 0.64803 0.94985
 H2 H 0.75525 0.64863 0.94143
 C3 C 0.70624 0.66218 0.93223
 H4 H 0.71251 0.67324 0.91014
 C5 C 0.69166 0.62955 0.98670
 H6 H 0.68518 0.61504 1.00650
 C7 C 0.66708 0.64466 0.97080
 H8 H 0.64252 0.64255 0.97964
 N9 N 0.72290 0.63191 0.97658
 C10 C 0.80588 0.62273 1.03638
 H11 H 0.80049 0.59930 1.04481
 C12 C 0.83125 0.63891 1.04902
 H13 H 0.84527 0.62792 1.06715
 C14 C 0.79427 0.66562 1.00263
 H15 H 0.77978 0.67587 0.98455
 C16 C 0.81965 0.68279 1.01478
 H17 H 0.82468 0.70627 1.00609
 Zn18 Zn 0.75598 0.60929 0.99811
 N19 N 0.78818 0.63595 1.01336
 C20 C 0.80595 0.56964 0.97643
 N21 N 0.77607 0.58123 0.97033
 C22 C 0.76142 0.57526 0.94325
 C23 C 0.77757 0.55853 0.92041
 C24 C 0.82291 0.55274 0.95425
 C25 C 0.71992 0.60404 1.05327
 C26 C 0.70534 0.58944 1.07902
 C27 C 0.73392 0.54226 1.06681
 C28 C 0.74552 0.55707 1.03958
 N29 N 0.73831 0.58747 1.03331
 H30 H 0.81716 0.57430 0.99808
 H31 H 0.73749 0.58418 0.93897
 H32 H 0.76610 0.55481 0.89856
 H33 H 0.84703 0.54439 0.95898
 H34 H 0.71525 0.62852 1.04837
 H35 H 0.68699 0.60269 1.09091
 H36 H 0.74262 0.51888 1.07153
 H37 H 0.76127 0.54455 1.02403
 C38 C 0.83843 0.66913 1.03809
 C39 C 0.67400 0.66096 0.94294
 C40 C 0.71303 0.55819 1.08758
 C41 C 0.80903 0.54793 0.92554
 C42 C 0.71778 0.37195 0.55740
 H43 H 0.73373 0.38530 0.57136
 C44 C 0.68883 0.36062 0.57038
 H45 H 0.68261 0.36540 0.59420
 C46 C 0.70531 0.35068 0.50912
 H47 H 0.71150 0.34729 0.48512
 C48 C 0.67612 0.33894 0.52118
 H49 H 0.65993 0.32665 0.50641
 N50 N 0.72483 0.36796 0.52691
 C51 C 0.81107 0.38314 0.46977
 H52 H 0.80930 0.40834 0.46828
 C53 C 0.83488 0.36793 0.45288
 H54 H 0.85159 0.38141 0.43830
 C55 C 0.79114 0.33483 0.49045
 H56 H 0.77383 0.32224 0.50507
 C57 C 0.81499 0.31856 0.47400
 H58 H 0.81613 0.29332 0.47586
 Zn59 Zn 0.75860 0.39176 0.50759
 N60 N 0.78974 0.36657 0.48794
 C61 C 0.81050 0.40722 0.54480
 N62 N 0.77988 0.41580 0.53757
 C63 C 0.76461 0.43921 0.55276
 C64 C 0.78072 0.45580 0.57518
 C65 C 0.82715 0.42266 0.56747
 C66 C 0.73317 0.40094 0.44961
 C67 C 0.71844 0.41600 0.42474
 C68 C 0.71881 0.46388 0.45292
 C69 C 0.73387 0.44789 0.47730
 N70 N 0.74019 0.41677 0.47547
 H71 H 0.82191 0.38777 0.53358
 H72 H 0.73969 0.44459 0.54802
 H73 H 0.76837 0.47449 0.58694
 H74 H 0.85117 0.41492 0.57342
 H75 H 0.73921 0.37648 0.44817
 H76 H 0.71286 0.40297 0.40444
 H77 H 0.71317 0.48846 0.45483
 H78 H 0.74014 0.46042 0.49755
 C79 C 0.83686 0.33534 0.45479
 C80 C 0.66717 0.34508 0.55177
 C81 C 0.71099 0.44778 0.42629
 C82 C 0.81257 0.44777 0.58247
 C83 C 0.22390 -0.15071 0.04565
 H84 H 0.24720 -0.15837 0.05372
 C85 C 0.19558 -0.16326 0.05915
 H86 H 0.19707 -0.18090 0.07747
 C87 C 0.19321 -0.11740 0.01293
 H88 H 0.19214 -0.09873 -0.00425
 C89 C 0.16456 -0.12910 0.02582
 H90 H 0.14177 -0.11956 0.01818
 N91 N 0.22217 -0.12840 0.02274
 C92 C 0.31593 -0.12091 -0.02394
 H93 H 0.31698 -0.09567 -0.02382
 C94 C 0.33973 -0.13746 -0.03951
 H95 H 0.35932 -0.12498 -0.05129
 C96 C 0.28832 -0.16782 -0.00970
 H97 H 0.26775 -0.17933 0.00132
 C98 C 0.31193 -0.18547 -0.02505
 H99 H 0.30975 -0.21064 -0.02564
 Zn100 Zn 0.25952 -0.10832 0.00601
 N101 N 0.29081 -0.13611 -0.00961
 C102 C 0.30660 -0.09385 0.04910
 N103 N 0.27782 -0.08450 0.03742
 C104 C 0.26125 -0.06010 0.04949
 C105 C 0.27398 -0.04361 0.07388
 C106 C 0.31987 -0.07842 0.07376
 C107 C 0.23687 -0.10159 -0.05226
 C108 C 0.22505 -0.08761 -0.07904
 C109 C 0.23517 -0.03715 -0.05764
 C110 C 0.24702 -0.05228 -0.03112
 N111 N 0.24708 -0.08397 -0.02879
 H112 H 0.31898 -0.11385 0.03985
 H113 H 0.23803 -0.05360 0.04034
 H114 H 0.26085 -0.02392 0.08302
 H115 H 0.34260 -0.08639 0.08304
 H116 H 0.23750 -0.12679 -0.04987
 H117 H 0.21791 -0.10273 -0.09734
 H118 H 0.23308 -0.01195 -0.05767
 H119 H 0.25525 -0.03866 -0.01219
 C120 C 0.33763 -0.16999 -0.04046
 C121 C 0.16550 -0.15252 0.04895
 C122 C 0.22384 -0.05474 -0.08245
 C123 C 0.30337 -0.05319 0.08664
 C124 C 0.22551 0.15695 0.44282
 H125 H 0.25042 0.15920 0.43523
 C126 C 0.20097 0.16914 0.42414
 H127 H 0.20734 0.18011 0.40205
 C128 C 0.18668 0.13600 0.47829
 H129 H 0.18031 0.12069 0.49748
 C130 C 0.16178 0.14967 0.46169
 H131 H 0.13718 0.14613 0.46997
 N132 N 0.21807 0.14060 0.46947
 C133 C 0.28742 0.14958 0.53807
 H134 H 0.27078 0.13785 0.55392
 C135 C 0.31491 0.16326 0.54977
 H136 H 0.31881 0.16219 0.57444
 C137 C 0.30417 0.16326 0.48683
 H138 H 0.30066 0.16183 0.46225
 C139 C 0.33205 0.17747 0.49767
 H140 H 0.34946 0.18774 0.48140
 Zn141 Zn 0.25178 0.12043 0.49259
 N142 N 0.28298 0.14888 0.50703
 C143 C 0.30495 0.08471 0.47275
 N144 N 0.27404 0.09287 0.46617
 C145 C 0.26017 0.08421 0.43953
 C146 C 0.27798 0.06772 0.41764
 C147 C 0.32362 0.06822 0.45149
 C148 C 0.21200 0.11248 0.54579
 C149 C 0.19751 0.09670 0.57088
 C150 C 0.23395 0.05368 0.56267
 C151 C 0.24567 0.06916 0.53584
 N152 N 0.23441 0.09803 0.52779
 H153 H 0.31544 0.09196 0.49407
 H154 H 0.23554 0.09082 0.43484
 H155 H 0.26701 0.06167 0.39612
 H156 H 0.34845 0.06249 0.45654
 H157 H 0.20473 0.13618 0.54019
 H158 H 0.17737 0.10769 0.58258
 H159 H 0.24408 0.03120 0.56915
 H160 H 0.26428 0.05840 0.52189
 C161 C 0.33820 0.17628 0.52944
 C162 C 0.16849 0.16619 0.43391
 C163 C 0.20923 0.06732 0.58061
 C164 C 0.31030 0.06034 0.42324
 C165 C 0.15319 0.45924 0.21949
 H166 H 0.15413 0.45182 0.24348
 C167 C 0.16628 0.44000 0.19673
 H168 H 0.17690 0.41781 0.20349
 C169 C 0.13413 0.49458 0.18112
 H170 H 0.11912 0.51392 0.17433
 C171 C 0.14837 0.47714 0.15793
 H172 H 0.14550 0.48469 0.13407
 N173 N 0.13723 0.48597 0.21140
 C174 C 0.14181 0.55359 0.27950
 H175 H 0.13148 0.57001 0.26315
 C176 C 0.15343 0.56458 0.30715
 H177 H 0.15219 0.58931 0.31167
 C178 C 0.15352 0.50136 0.29503
 H179 H 0.15186 0.47664 0.29098
 C180 C 0.16549 0.51142 0.32304
 H181 H 0.17372 0.49443 0.34011
 Zn182 Zn 0.11406 0.50827 0.24261
 N183 N 0.14092 0.52237 0.27440
 C184 C 0.07491 0.48303 0.29131
 N185 N 0.08371 0.48023 0.26106
 C186 C 0.07403 0.45547 0.24455
 C187 C 0.05576 0.43161 0.25877
 C188 C 0.05660 0.45966 0.30644
 C189 C 0.10894 0.56245 0.20470
 C190 C 0.09362 0.58753 0.19015
 C191 C 0.04667 0.57760 0.22276
 C192 C 0.06195 0.55087 0.23473
 N193 N 0.09251 0.54367 0.22534
 H194 H 0.08305 0.50287 0.30397
 H195 H 0.08144 0.45368 0.22058
 H196 H 0.04921 0.41144 0.24570
 H197 H 0.05048 0.46162 0.33074
 H198 H 0.13384 0.55738 0.19879
 H199 H 0.10632 0.59991 0.17151
 H200 H 0.02272 0.58337 0.23123
 H201 H 0.04963 0.53623 0.25194
 C202 C 0.16404 0.54325 0.32976
 C203 C 0.16417 0.44910 0.16542
 C204 C 0.06242 0.59633 0.19984
 C205 C 0.04714 0.43347 0.29013
 C206 C -0.16828 0.04698 0.22498
 H207 H -0.16007 0.06363 0.24139
 C208 C -0.17952 0.05770 0.19639
 H209 H -0.17930 0.08258 0.19121
 C210 C -0.17629 -0.00547 0.21121
 H211 H -0.17431 -0.03012 0.21672
 C212 C -0.18781 0.00420 0.18245
 H213 H -0.19557 -0.01323 0.16653
 N214 N -0.16469 0.01582 0.23087
 C215 C -0.13781 -0.03730 0.31370
 H216 H -0.11223 -0.03904 0.30855
 C217 C -0.15084 -0.05254 0.33986
 H218 H -0.13527 -0.06610 0.35489
 C219 C -0.18916 -0.01696 0.30066
 H220 H -0.20378 -0.00279 0.28533
 C221 C -0.20328 -0.03192 0.32676
 H222 H -0.22885 -0.02925 0.33165
 Zn223 Zn -0.13551 0.00121 0.26131
 N224 N -0.15687 -0.01962 0.29495
 C225 C -0.10675 0.03774 0.30685
 N226 N -0.11069 0.03502 0.27593
 C227 C -0.09710 0.05605 0.25539
 C228 C -0.07977 0.08155 0.26578
 C229 C -0.08875 0.06227 0.31814
 C230 C -0.11896 -0.05772 0.23983
 C231 C -0.10058 -0.08002 0.22457
 C232 C -0.05918 -0.04108 0.21480
 C233 C -0.07835 -0.01948 0.23033
 N234 N -0.10779 -0.02803 0.24222
 H235 H -0.11745 0.02090 0.32294
 H236 H -0.10017 0.05332 0.23087
 H237 H -0.06977 0.09848 0.24920
 H238 H -0.08532 0.06369 0.34279
 H239 H -0.14237 -0.06402 0.24957
 H240 H -0.10985 -0.10350 0.22255
 H241 H -0.03603 -0.03397 0.20492
 H242 H -0.06980 0.00413 0.23242
 C243 C -0.18385 -0.04978 0.34668
 C244 C -0.18675 0.03604 0.17361
 C245 C -0.07037 -0.07169 0.21188
 C246 C -0.07589 0.08512 0.29758
 C247 C 0.31769 0.52424 0.71752
 H248 H 0.30516 0.50703 0.73202
 C249 C 0.30224 0.53814 0.69219
 H250 H 0.27765 0.53172 0.68724
 C251 C 0.36563 0.55254 0.70510
 H252 H 0.39065 0.55732 0.70979
 C253 C 0.35119 0.56690 0.67972
 H254 H 0.36521 0.58275 0.66486
 N255 N 0.34897 0.53138 0.72312
 C256 C 0.34166 0.45919 0.78419
 H257 H 0.35112 0.44606 0.76507
 C258 C 0.32735 0.44331 0.80948
 H259 H 0.32662 0.41802 0.80991
 C260 C 0.33303 0.50779 0.80787
 H261 H 0.33609 0.53282 0.80759
 C262 C 0.31816 0.49286 0.83348
 H263 H 0.30980 0.50658 0.85271
 Zn264 Zn 0.37282 0.51029 0.75384
 N265 N 0.34540 0.49076 0.78433
 C266 C 0.43156 0.53488 0.77618
 N267 N 0.39951 0.54023 0.77220
 C268 C 0.38596 0.56821 0.77908
 C269 C 0.40478 0.59219 0.79032
 C270 C 0.45125 0.55820 0.78760
 C271 C 0.40003 0.47830 0.70332
 C272 C 0.41821 0.45538 0.68876
 C273 C 0.43269 0.43439 0.73892
 C274 C 0.41488 0.45823 0.75256
 N275 N 0.39876 0.47945 0.73469
 H276 H 0.44204 0.51271 0.77022
 H277 H 0.36062 0.57220 0.77499
 H278 H 0.39377 0.61447 0.79538
 H279 H 0.47669 0.55369 0.79084
 H280 H 0.38681 0.49500 0.68942
 H281 H 0.41905 0.45484 0.66377
 H282 H 0.44449 0.41702 0.75341
 H283 H 0.41324 0.45941 0.77747
 C284 C 0.31600 0.46014 0.83482
 C285 C 0.31920 0.55963 0.67293
 C286 C 0.43484 0.43310 0.70660
 C287 C 0.43789 0.58739 0.79429
 C288 C 0.63933 0.95620 0.72814
 H289 H 0.63884 0.94881 0.75222
 C290 C 0.65045 0.93558 0.70567
 H291 H 0.65824 0.91235 0.71264
 C292 C 0.62609 0.99371 0.68935
 H293 H 0.61463 1.01511 0.68223
 C294 C 0.63830 0.97459 0.66645
 H295 H 0.63715 0.98248 0.64252
 N296 N 0.62732 0.98475 0.71972
 C297 C 0.63215 1.05715 0.78646
 H298 H 0.61218 1.07004 0.77684
 C299 C 0.64956 1.07043 0.80990
 H300 H 0.64205 1.09311 0.81786
 C301 C 0.66259 1.01052 0.79056
 H302 H 0.66688 0.98682 0.78357
 C303 C 0.68048 1.02284 0.81450
 H304 H 0.69905 1.00855 0.82501
 Zn305 Zn 0.60766 1.00968 0.75105
 N306 N 0.63843 1.02753 0.77753
 C307 C 0.58770 0.97621 0.80507
 N308 N 0.58035 0.98264 0.77509
 C309 C 0.55635 0.96706 0.76108
 C310 C 0.53917 0.94346 0.77720
 C311 C 0.57177 0.95231 0.82169
 C312 C 0.60129 1.06256 0.71299
 C313 C 0.58629 1.08723 0.69752
 C314 C 0.53751 1.07594 0.72702
 C315 C 0.55279 1.04964 0.74009
 N316 N 0.58418 1.04340 0.73272
 H317 H 0.60692 0.98858 0.81585
 H318 H 0.55134 0.97225 0.73707
 H319 H 0.52054 0.93082 0.76560
 H320 H 0.57932 0.94633 0.84490
 H321 H 0.62666 1.05815 0.70864
 H322 H 0.59992 1.10006 0.67979
 H323 H 0.51286 1.08107 0.73387
 H324 H 0.53986 1.03473 0.75665
 C325 C 0.67398 1.05326 0.82477
 C326 C 0.65036 0.94494 0.67431
 C327 C 0.55434 1.09528 0.70532
 C328 C 0.54712 0.93559 0.80782
 C329 C 0.00856 0.19083 -0.16027
 H330 H -0.01709 0.19475 -0.16248
 C331 C 0.02334 0.16612 -0.17561
 H332 H 0.00913 0.15124 -0.18990
 C333 C 0.05787 0.20333 -0.13670
 H334 H 0.07109 0.21697 -0.12061
 C335 C 0.07364 0.17927 -0.15194
 H336 H 0.09887 0.17469 -0.14758
 N337 N 0.02568 0.20811 -0.14035
 C338 C -0.02678 0.29293 -0.11628
 H339 H -0.02231 0.29223 -0.09181
 C340 C -0.04072 0.31951 -0.12958
 H341 H -0.04765 0.33878 -0.11516
 C342 C -0.02084 0.27000 -0.16527
 H343 H -0.01242 0.25095 -0.17916
 C344 C -0.03466 0.29639 -0.17962
 H345 H -0.03705 0.29753 -0.20448
 Zn346 Zn 0.00409 0.23546 -0.11283
 N347 N -0.01731 0.26872 -0.13405
 C348 C 0.05354 0.27705 -0.10113
 N349 N 0.03500 0.25402 -0.08778
 C350 C 0.03826 0.24513 -0.05760
 C351 C 0.06080 0.25997 -0.03945
 C352 C 0.07617 0.29257 -0.08381
 C353 C -0.02836 0.18069 -0.09031
 C354 C -0.05051 0.16335 -0.07224
 C355 C -0.06647 0.21066 -0.04720
 C356 C -0.04419 0.22710 -0.06597
 N357 N -0.02584 0.21210 -0.08729
 H358 H 0.05046 0.28351 -0.12521
 H359 H 0.02341 0.22657 -0.04762
 H360 H 0.06322 0.25298 -0.01538
 H361 H 0.09065 0.31108 -0.09453
 H362 H -0.01343 0.16880 -0.10692
 H363 H -0.05336 0.13890 -0.07730
 H364 H -0.07970 0.22354 -0.02989
 H365 H -0.04133 0.25185 -0.06307
 C366 C -0.04456 0.32147 -0.16155
 C367 C 0.05610 0.15986 -0.17093
 C368 C -0.07003 0.17798 -0.04975
 C369 C 0.07966 0.28421 -0.05258
 C370 C 0.45532 0.21908 0.13502
 H371 H 0.44123 0.23559 0.12170
 C372 C 0.43980 0.19396 0.15024
 H373 H 0.41398 0.19110 0.14816
 C374 C 0.50598 0.20181 0.15323
 H375 H 0.53174 0.20478 0.15432
 C376 C 0.49143 0.17624 0.16865
 H377 H 0.50616 0.15953 0.18122
 N378 N 0.48801 0.22207 0.13594
 C379 C 0.54987 0.30293 0.11656
 H380 H 0.55330 0.29993 0.09198
 C381 C 0.56510 0.32744 0.13092
 H382 H 0.58042 0.34332 0.11736
 C383 C 0.52474 0.28646 0.16395
 H384 H 0.50856 0.27063 0.17647
 C385 C 0.53946 0.31092 0.17928
 H386 H 0.53484 0.31377 0.20374
 Zn387 Zn 0.50876 0.25294 0.10988
 N388 N 0.53006 0.28315 0.13309
 C389 C 0.47034 0.30423 0.09151
 N390 N 0.47703 0.27381 0.08571
 C391 C 0.46023 0.25809 0.06437
 C392 C 0.43691 0.27345 0.04676
 C393 C 0.44647 0.32015 0.07519
 C394 C 0.56724 0.22193 0.09845
 C395 C 0.59091 0.20606 0.08168
 C396 C 0.56014 0.21507 0.03558
 C397 C 0.53713 0.23097 0.05320
 N398 N 0.54053 0.23337 0.08429
 H399 H 0.48292 0.31608 0.10938
 H400 H 0.46476 0.23350 0.06117
 H401 H 0.42411 0.26072 0.02955
 H402 H 0.44075 0.34402 0.08088
 H403 H 0.57041 0.22538 0.12280
 H404 H 0.61186 0.19679 0.09336
 H405 H 0.55674 0.21263 0.01103
 H406 H 0.51669 0.24122 0.04182
 C407 C 0.55997 0.33161 0.16262
 C408 C 0.45804 0.17189 0.16675
 C409 C 0.58736 0.20237 0.04990
 C410 C 0.43000 0.30501 0.05189
 C411 C 0.94968 0.71360 0.64147
 H412 H 0.93632 0.72478 0.62309
 C413 C 0.93720 0.68670 0.65611
 H414 H 0.91425 0.67749 0.64902
 C415 C 0.99707 0.71003 0.67112
 H416 H 1.02107 0.71834 0.67578
 C417 C 0.98539 0.68301 0.68643
 H418 H 1.00025 0.67085 0.70316
 N419 N 0.97965 0.72405 0.64828
 C420 C 1.03715 0.80675 0.62055
 H421 H 1.03636 0.80421 0.59587
 C422 C 1.05383 0.83181 0.63240
 H423 H 1.06611 0.84825 0.61676
 C424 C 1.02111 0.78932 0.67095
 H425 H 1.00768 0.77313 0.68581
 C426 C 1.03748 0.81430 0.68384
 H427 H 1.03707 0.81695 0.70864
 Zn428 Zn 0.99879 0.75373 0.61997
 N429 N 1.02153 0.78586 0.63976
 C430 C 0.94943 0.79678 0.61150
 N431 N 0.96560 0.77335 0.59732
 C432 C 0.95768 0.76423 0.56859
 C433 C 0.93305 0.77955 0.55264
 C434 C 0.92465 0.81263 0.59644
 C435 C 1.03950 0.70390 0.60184
 C436 C 1.06208 0.68849 0.58341
 C437 C 1.05928 0.73105 0.54589
 C438 C 1.03711 0.74595 0.56530
 N439 N 1.02782 0.73240 0.59289
 H440 H 0.95585 0.80315 0.63457
 H441 H 0.97020 0.74492 0.55815
 H442 H 0.92689 0.77224 0.52975
 H443 H 0.91184 0.83118 0.60800
 H444 H 1.03185 0.69313 0.62351
 H445 H 1.07165 0.66616 0.59123
 H446 H 1.06636 0.74202 0.52396
 H447 H 1.02720 0.76829 0.55817
 C448 C 1.05437 0.83560 0.66438
 C449 C 0.95577 0.67041 0.67784
 C450 C 1.07265 0.70235 0.55535
 C451 C 0.91659 0.80431 0.56650
 C452 C 0.49987 0.69424 0.33629
 H453 H 0.47413 0.69802 0.33490
 C454 C 0.51409 0.66875 0.32173
 H455 H 0.49930 0.65308 0.30882
 C456 C 0.55010 0.70810 0.35730
 H457 H 0.56384 0.72247 0.37233
 C458 C 0.56530 0.68319 0.34286
 H459 H 0.59066 0.67877 0.34671
 N460 N 0.51782 0.71278 0.35432
 C461 C 0.46287 0.79580 0.37938
 H462 H 0.46089 0.79049 0.40391
 C463 C 0.45056 0.82378 0.36757
 H464 H 0.43912 0.83983 0.38333
 C465 C 0.48150 0.78155 0.32963
 H466 H 0.49378 0.76496 0.31510
 C467 C 0.47013 0.80983 0.31684
 H468 H 0.47297 0.81445 0.29222
 Zn469 Zn 0.49585 0.74016 0.38116
 N470 N 0.47781 0.77528 0.36046
 C471 C 0.54677 0.77765 0.39762
 N472 N 0.52508 0.75652 0.40953
 C473 C 0.52366 0.74919 0.44032
 C474 C 0.54506 0.76309 0.46037
 C475 C 0.56837 0.79221 0.41681
 C476 C 0.43159 0.72527 0.40042
 C477 C 0.40766 0.70784 0.41604
 C478 C 0.44864 0.67177 0.43371
 C479 C 0.47187 0.69001 0.41787
 N480 N 0.46310 0.71651 0.40211
 H481 H 0.54705 0.78334 0.37312
 H482 H 0.50581 0.73290 0.44947
 H483 H 0.54380 0.75730 0.48486
 H484 H 0.58545 0.80912 0.40714
 H485 H 0.42483 0.74568 0.38690
 H486 H 0.38269 0.71522 0.41492
 H487 H 0.45582 0.65096 0.44657
 H488 H 0.49700 0.68319 0.41828
 C489 C 0.45490 0.83170 0.33605
 C490 C 0.54707 0.66276 0.32549
 C491 C 0.41621 0.68089 0.43293
 C492 C 0.56744 0.78502 0.44853
 C493 C 0.36999 -0.00446 0.21453
 C494 C 0.38618 0.01066 0.23801
 C495 C 0.39927 0.04052 0.23210
 C496 C 0.39617 0.05523 0.20299
 C497 C 0.37932 0.04020 0.17991
 C498 C 0.36565 0.01058 0.18567
 C499 C 0.38842 -0.00413 0.26910
 C500 C 0.40127 -0.03431 0.27317
 C501 C 0.40422 -0.04767 0.30300
 C502 C 0.39257 -0.03120 0.32856
 C503 C 0.37889 -0.00146 0.32465
 C504 C 0.37713 0.01204 0.29490
 H505 H 0.36001 -0.02758 0.21896
 H506 H 0.41226 0.05212 0.24998
 H507 H 0.40949 -0.04713 0.25326
 H508 H 0.36617 0.03487 0.29173
 H509 H 0.37669 0.05168 0.15749
 H510 H 0.39409 -0.04157 0.35160
 C511 C 0.14879 1.00480 0.71172
 C512 C 0.13404 0.98780 0.73610
 C513 C 0.11829 0.95969 0.73034
 C514 C 0.11613 0.94951 0.69992
 C515 C 0.12788 0.96867 0.67530
 C516 C 0.14441 0.99662 0.68091
 C517 C 0.13386 1.00107 0.76706
 C518 C 0.11796 1.02952 0.77180
 C519 C 0.11970 1.04414 0.80023
 C520 C 0.13747 1.03017 0.82407
 C521 C 0.15410 1.00209 0.81928
 C522 C 0.15169 0.98725 0.79090
 H523 H 0.16323 1.02494 0.71707
 H524 H 0.10784 0.94585 0.74933
 H525 H 0.10454 1.04050 0.75322
 H526 H 0.16466 0.96568 0.78698
 H527 H 0.12451 0.96134 0.65184
 H528 H 0.13901 1.04149 0.84608
 C529 C 0.64447 0.50302 0.21660
 C530 C 0.62770 0.48659 0.24022
 C531 C 0.61304 0.45800 0.23405
 C532 C 0.61400 0.44678 0.20390
 C533 C 0.62787 0.46521 0.17978
 C534 C 0.64345 0.49355 0.18582
 C535 C 0.62493 0.50055 0.27086
 C536 C 0.60918 0.52941 0.27374
 C537 C 0.60906 0.54484 0.30185
 C538 C 0.62478 0.53126 0.32721
 C539 C 0.64084 0.50262 0.32443
 C540 C 0.64044 0.48702 0.29636
 H541 H 0.65814 0.52347 0.22251
 H542 H 0.60116 0.44455 0.25253
 H543 H 0.59746 0.54010 0.25395
 H544 H 0.65340 0.46518 0.29400
 H545 H 0.62705 0.45691 0.15641
 H546 H 0.62523 0.54333 0.34888
 C547 C 0.87745 0.48800 0.71379
 C548 C 0.89010 0.50241 0.73967
 C549 C 0.90338 0.53255 0.73638
 C550 C 0.90397 0.54813 0.70752
 C551 C 0.89006 0.53406 0.68216
 C552 C 0.87731 0.50373 0.68490
 C553 C 0.88915 0.48618 0.77025
 C554 C 0.90158 0.45580 0.77404
 C555 C 0.90169 0.44106 0.80343
 C556 C 0.88800 0.45637 0.82879
 C557 C 0.87530 0.48655 0.82519
 C558 C 0.87595 0.50132 0.79590
 H559 H 0.86726 0.46474 0.71625
 H560 H 0.91393 0.54355 0.75603
 H561 H 0.91195 0.44397 0.75437
 H562 H 0.86584 0.52456 0.79304
 H563 H 0.88968 0.54663 0.66010
 H564 H 0.88780 0.44502 0.85148
 C565 C 0.20704 0.35410 -0.00178
 C566 C 0.23135 0.37102 0.01228
 C567 C 0.22597 0.38252 0.04197
 C568 C 0.19703 0.37590 0.05841
 C569 C 0.17334 0.35795 0.04430
 C570 C 0.17786 0.34794 0.01399
 C571 C 0.26275 0.37567 -0.00376
 C572 C 0.26458 0.38972 -0.03339
 C573 C 0.29422 0.39147 -0.04962
 C574 C 0.32192 0.37871 -0.03605
 C575 C 0.32064 0.36583 -0.00589
 C576 C 0.29087 0.36447 0.01011
 H577 H 0.21078 0.34578 -0.02501
 H578 H 0.24411 0.39723 0.05186
 H579 H 0.24304 0.39946 -0.04366
 H580 H 0.28941 0.35388 0.03312
 H581 H 0.15072 0.35280 0.05635
 H582 H 0.34462 0.37913 -0.04895
 C583 C 0.71084 0.12099 1.00283
 C584 C 0.73615 0.10426 0.98911
 C585 C 0.73293 0.09341 0.95903
 C586 C 0.70470 0.09951 0.94263
 C587 C 0.67967 0.11675 0.95638
 C588 C 0.68283 0.12776 0.98639
 C589 C 0.76697 0.10072 1.00523
 C590 C 0.76801 0.08692 1.03499
 C591 C 0.79730 0.08509 1.05057
 C592 C 0.82524 0.09831 1.03686
 C593 C 0.82444 0.11206 1.00714
 C594 C 0.79527 0.11298 0.99137
 H595 H 0.71354 0.13001 1.02579
 H596 H 0.75255 0.08069 0.94822
 H597 H 0.74623 0.07734 1.04580
 H598 H 0.79438 0.12417 0.96864
 H599 H 0.65800 0.12194 0.94362
 H600 H 0.84760 0.09797 1.04942
 C601 C 0.19873 0.62755 0.50344
 C602 C 0.22323 0.60950 0.49011
 C603 C 0.21770 0.59456 0.46231
 C604 C 0.18771 0.59732 0.44805
 C605 C 0.16372 0.61650 0.46101
 C606 C 0.16928 0.63197 0.48856
 C607 C 0.25516 0.60798 0.50445
 C608 C 0.25794 0.59946 0.53581
 C609 C 0.28792 0.60093 0.55004
 C610 C 0.31521 0.61092 0.53285
 C611 C 0.31272 0.61919 0.50147
 C612 C 0.28268 0.61754 0.48733
 H613 H 0.20299 0.63915 0.52493
 H614 H 0.23657 0.58047 0.45199
 H615 H 0.23676 0.59219 0.54923
 H616 H 0.28048 0.62503 0.46335
 H617 H 0.14090 0.61955 0.44953
 H618 H 0.33833 0.61250 0.54398
 C619 C 0.69285 0.85063 0.50663
 C620 C 0.71716 0.86651 0.52176
 C621 C 0.71110 0.87762 0.55152
 C622 C 0.68135 0.87182 0.56685
 C623 C 0.65749 0.85516 0.55156
 C624 C 0.66290 0.84525 0.52132
 C625 C 0.74916 0.87091 0.50674
 C626 C 0.75229 0.88536 0.47730
 C627 C 0.78281 0.88846 0.46288
 C628 C 0.81011 0.87683 0.47797
 C629 C 0.80725 0.86265 0.50744
 C630 C 0.77673 0.85978 0.52172
 H631 H 0.69716 0.84252 0.48340
 H632 H 0.72937 0.89143 0.56235
 H633 H 0.73113 0.89442 0.46580
 H634 H 0.77438 0.84841 0.54433
 H635 H 0.63423 0.85078 0.56273
 H636 H 0.83366 0.87878 0.46672
 C637 C -0.00973 0.21531 0.34676
 C638 C 0.00816 0.23838 0.36088
 C639 C 0.03918 0.23146 0.37146
 C640 C 0.05309 0.20184 0.36677
 C641 C 0.03442 0.17886 0.35267
 C642 C 0.00253 0.18503 0.34407
 C643 C -0.00657 0.26927 0.36555
 C644 C -0.03585 0.27160 0.38227
 C645 C -0.05156 0.30043 0.38438
 C646 C -0.03792 0.32701 0.36973
 C647 C -0.00897 0.32485 0.35263
 C648 C 0.00704 0.29603 0.35115
 H649 H -0.03384 0.22061 0.33890
 H650 H 0.05192 0.24889 0.38414
 H651 H -0.04666 0.25093 0.39314
 H652 H 0.02926 0.29417 0.33767
 H653 H 0.04415 0.15566 0.34952
 H654 H -0.05017 0.34932 0.37119
 C655 C 1.00143 0.72713 0.13871
 C656 C 0.98556 0.75120 0.12282
 C657 C 0.95917 0.74443 0.10454
 C658 C 0.94933 0.71336 0.10146
 C659 C 0.96760 0.68907 0.11494
 C660 C 0.99409 0.69571 0.13356
 C661 C 0.99903 0.78285 0.12316
 C662 C 1.02887 0.78876 0.10843
 C663 C 1.04264 0.81862 0.10852
 C664 C 1.02711 0.84221 0.12510
 C665 C 0.99775 0.83608 0.14088
 C666 C 0.98335 0.80656 0.13918
 H667 H 1.02037 0.73314 0.15435
 H668 H 0.94650 0.76317 0.09261
 H669 H 1.04127 0.77012 0.09655
 H670 H 0.96062 0.80174 0.15119
 H671 H 0.96086 0.66508 0.11109
 H672 H 1.03788 0.86523 0.12588
 C673 C 0.49827 0.22587 0.63843
 C674 C 0.48510 0.24950 0.61980
 C675 C 0.46194 0.24223 0.59812
 C676 C 0.45265 0.21108 0.59433
 C677 C 0.46806 0.18715 0.61152
 C678 C 0.49174 0.19429 0.63317
 C679 C 0.49862 0.28110 0.62081
 C680 C 0.52758 0.28771 0.60470
 C681 C 0.54164 0.31732 0.60598
 C682 C 0.52680 0.34022 0.62392
 C683 C 0.49843 0.33346 0.64112
 C684 C 0.48411 0.30387 0.63907
 H685 H 0.51486 0.23227 0.65620
 H686 H 0.45135 0.26073 0.58405
 H687 H 0.53918 0.26978 0.59117
 H688 H 0.46212 0.29840 0.65206
 H689 H 0.46148 0.16307 0.60797
 H690 H 0.53763 0.36320 0.62483
 C691 C 0.49828 0.71363 0.85407
 C692 C 0.51438 0.73608 0.87093
 C693 C 0.54540 0.72958 0.88190
 C694 C 0.56091 0.70121 0.87505
 C695 C 0.54465 0.67944 0.85719
 C696 C 0.51325 0.68531 0.84720
 C697 C 0.49843 0.76624 0.87678
 C698 C 0.46743 0.76687 0.89052
 C699 C 0.45064 0.79512 0.89268
 C700 C 0.46486 0.82277 0.88098
 C701 C 0.49626 0.82278 0.86826
 C702 C 0.51297 0.79430 0.86624
 H703 H 0.47405 0.71822 0.84613
 H704 H 0.55689 0.74621 0.89654
 H705 H 0.45619 0.74537 0.89900
 H706 H 0.53682 0.79380 0.85550
 H707 H 0.55590 0.65727 0.85203
 H708 H 0.45135 0.84443 0.88188
 C709 C 0.39940 -0.10143 0.32450
 C710 C 0.41180 -0.13048 0.33291
 C711 C 0.44347 -0.13915 0.32462
 C712 C 0.46311 -0.11720 0.30740
 C713 C 0.45040 -0.08719 0.29923
 C714 C 0.41825 -0.07934 0.30801
 C715 C 0.47104 -0.06532 0.28410
 N716 N 0.50208 -0.07297 0.27745
 N717 N 0.51414 -0.10075 0.28543
 C718 C 0.49597 -0.12288 0.30045
 H719 H 0.37485 -0.09587 0.33149
 H720 H 0.39619 -0.14657 0.34591
 H721 H 0.46317 -0.04198 0.27799
 H722 H 0.50787 -0.14422 0.30749
 C723 C 0.89646 0.38539 0.81951
 C724 C 0.90933 0.35631 0.82762
 C725 C 0.94247 0.35064 0.82448
 C726 C 0.96299 0.37453 0.81219
 C727 C 0.94997 0.40428 0.80420
 C728 C 0.91637 0.40974 0.80820
 C729 C 0.97141 0.42796 0.79377
 N730 N 1.00342 0.42186 0.79090
 N731 N 1.01553 0.39384 0.79805
 C732 C 0.99647 0.37003 0.80872
 H733 H 0.87081 0.38923 0.82294
 H734 H 0.89346 0.33839 0.83743
 H735 H 0.96320 0.45133 0.78815
 H736 H 1.00768 0.34788 0.81447
 C737 C 0.07631 1.07460 0.82508
 C738 C 0.06040 1.10244 0.83130
 C739 C 0.07112 1.13082 0.81788
 C740 C 0.09778 1.13094 0.79689
 C741 C 0.11392 1.10255 0.79042
 C742 C 0.10319 1.07427 0.80500
 C743 C 0.14077 1.10360 0.77002
 N744 N 0.15023 1.13120 0.75665
 N745 N 0.13479 1.15777 0.76241
 C746 C 0.10892 1.15859 0.78207
 H747 H 0.06782 1.05314 0.83631
 H748 H 0.04022 1.10202 0.84762
 H749 H 0.15439 1.08284 0.76462
 H750 H 0.09719 1.18079 0.78579
 C751 C 0.56543 0.57690 0.32423
 C752 C 0.55000 0.60525 0.32928
 C753 C 0.56162 0.63304 0.31532
 C754 C 0.58868 0.63196 0.29484
 C755 C 0.60443 0.60305 0.28965
 C756 C 0.59279 0.57541 0.30484
 C757 C 0.63185 0.60302 0.26996
 N758 N 0.64211 0.63001 0.25589
 N759 N 0.62694 0.65700 0.26030
 C760 C 0.60061 0.65891 0.27928
 H761 H 0.55626 0.55597 0.33596
 H762 H 0.52950 0.60568 0.34521
 H763 H 0.64531 0.58189 0.26566
 H764 H 0.58913 0.68140 0.28186
 C765 C 0.56815 0.41013 0.19887
 C766 C 0.55513 0.38209 0.18911
 C767 C 0.57515 0.35852 0.17753
 C768 C 0.60908 0.36255 0.17767
 C769 C 0.62229 0.39106 0.18749
 C770 C 0.60150 0.41533 0.19725
 C771 C 0.65609 0.39427 0.18733
 N772 N 0.67515 0.37045 0.17794
 N773 N 0.66274 0.34363 0.16883
 C774 C 0.63042 0.33883 0.16843
 H775 H 0.55200 0.42841 0.20648
 H776 H 0.52915 0.37934 0.18922
 H777 H 0.66755 0.41532 0.19491
 H778 H 0.62174 0.31640 0.16129
 C779 C 0.06913 0.91361 0.69974
 C780 C 0.05429 0.88589 0.69147
 C781 C 0.07201 0.86242 0.67686
 C782 C 0.10573 0.86625 0.67208
 C783 C 0.12080 0.89442 0.68044
 C784 C 0.10207 0.91860 0.69357
 C785 C 0.15437 0.89730 0.67565
 N786 N 0.17144 0.87357 0.66318
 N787 N 0.15729 0.84712 0.65534
 C788 C 0.12509 0.84261 0.65942
 H789 H 0.05457 0.93177 0.71002
 H790 H 0.02852 0.88326 0.69534
 H791 H 0.16730 0.91800 0.68203
 H792 H 0.11503 0.82043 0.65313
 C793 C 0.90516 0.60548 0.71394
 C794 C 0.91765 0.63508 0.70658
 C795 C 0.94577 0.63858 0.68826
 C796 C 0.96205 0.61158 0.67771
 C797 C 0.94954 0.58153 0.68554
 C798 C 0.92039 0.57863 0.70303
 C799 C 0.96646 0.55518 0.67519
 N800 N 0.99354 0.55886 0.65739
 N801 N 1.00480 0.58707 0.64924
 C802 C 0.98997 0.61350 0.65865
 H803 H 0.88280 0.60356 0.72724
 H804 H 0.90479 0.65550 0.71449
 H805 H 0.95852 0.53171 0.68121
 H806 H 1.00014 0.63565 0.65095
 C807 C 0.43704 0.08662 0.17394
 C808 C 0.45235 0.11460 0.16567
 C809 C 0.44277 0.14268 0.17896
 C810 C 0.41774 0.14231 0.20178
 C811 C 0.40209 0.11374 0.21022
 C812 C 0.41182 0.08574 0.19597
 C813 C 0.37673 0.11436 0.23227
 N814 N 0.36834 0.14163 0.24547
 N815 N 0.38348 0.16830 0.23803
 C816 C 0.40787 0.16957 0.21667
 H817 H 0.44479 0.06541 0.16289
 H818 H 0.47133 0.11449 0.14809
 H819 H 0.36343 0.09350 0.23908
 H820 H 0.41944 0.19182 0.21169
 C821 C 0.31894 0.43371 -0.08183
 C822 C 0.32362 0.45070 -0.10934
 C823 C 0.30654 0.44350 -0.13581
 C824 C 0.28344 0.41901 -0.13402
 C825 C 0.27919 0.40114 -0.10608
 C826 C 0.29717 0.40870 -0.07976
 C827 C 0.25757 0.37583 -0.10578
 N828 N 0.24028 0.36994 -0.13122
 N829 N 0.24330 0.38749 -0.15697
 C830 C 0.26421 0.41182 -0.15923
 H831 H 0.33278 0.43997 -0.06195
 H832 H 0.34154 0.46913 -0.11018
 H833 H 0.25434 0.36052 -0.08571
 H834 H 0.26539 0.42544 -0.18061
 C835 C 0.80589 0.93215 0.43153
 C836 C 0.81378 0.94717 0.40353
 C837 C 0.80301 0.93559 0.37563
 C838 C 0.78306 0.90871 0.37609
 C839 C 0.77507 0.89328 0.40470
 C840 C 0.78703 0.90500 0.43258
 C841 C 0.75646 0.86586 0.40421
 N842 N 0.74623 0.85505 0.37694
 N843 N 0.75362 0.86959 0.35015
 C844 C 0.77180 0.89592 0.34877
 H845 H 0.81532 0.94134 0.45260
 H846 H 0.82923 0.96757 0.40353
 H847 H 0.75012 0.85277 0.42513
 H848 H 0.77738 0.90649 0.32634
 C849 C 0.78479 0.08404 1.10667
 C850 C 0.78955 0.07264 1.13666
 C851 C 0.80883 0.04612 1.14254
 C852 C 0.82414 0.03128 1.11686
 C853 C 0.81824 0.04246 1.08631
 C854 C 0.79921 0.06951 1.08140
 C855 C 0.83238 0.02665 1.06137
 N856 N 0.85302 0.00269 1.06671
 N857 N 0.86062 -0.00634 1.09527
 C858 C 0.84735 0.00731 1.12040
 H859 H 0.77035 0.10490 1.10318
 H860 H 0.77758 0.08455 1.15546
 H861 H 0.82736 0.03325 1.03767
 H862 H 0.85603 -0.00022 1.14268
 C863 C 0.28887 0.56059 0.59182
 C864 C 0.29600 0.55062 0.62180
 C865 C 0.30529 0.57206 0.64385
 C866 C 0.30502 0.60445 0.63606
 C867 C 0.29809 0.61454 0.60547
 C868 C 0.29100 0.59223 0.58306
 C869 C 0.29848 0.64677 0.59832
 N870 N 0.30511 0.66738 0.62056
 N871 N 0.31130 0.65793 0.64938
 C872 C 0.31142 0.62722 0.65792
 H873 H 0.28324 0.54333 0.57491
 H874 H 0.29606 0.52579 0.62731
 H875 H 0.29321 0.65577 0.57540
 H876 H 0.31606 0.62093 0.68176
 C877 C 0.20179 0.58819 0.39320
 C878 C 0.19618 0.57508 0.36471
 C879 C 0.17056 0.55429 0.36113
 C880 C 0.15031 0.54629 0.38697
 C881 C 0.15637 0.55924 0.41611
 C882 C 0.18186 0.58098 0.41895
 C883 C 0.13668 0.54984 0.44154
 N884 N 0.11179 0.52992 0.43762
 N885 N 0.10530 0.51872 0.41005
 C886 C 0.12357 0.52628 0.38462
 H887 H 0.22141 0.60471 0.39500
 H888 H 0.21164 0.58163 0.34512
 H889 H 0.14091 0.55794 0.46453
 H890 H 0.11685 0.51663 0.36288
 C891 C 0.69792 0.05623 0.90665
 C892 C 0.69157 0.04469 0.87761
 C893 C 0.68826 0.06496 0.85167
 C894 C 0.69578 0.09722 0.85502
 C895 C 0.70173 0.10890 0.88475
 C896 C 0.70151 0.08829 0.91081
 C897 C 0.70858 0.14088 0.88733
 N898 N 0.71044 0.15965 0.86166
 N899 N 0.70618 0.14855 0.83362
 C900 C 0.69929 0.11803 0.82940
 H901 H 0.69846 0.04012 0.92637
 H902 H 0.68642 0.01998 0.87626
 H903 H 0.71319 0.15099 0.90941
 H904 H 0.69738 0.11020 0.80599
 C905 C 0.64437 0.90276 0.59957
 C906 C 0.63709 0.92023 0.62531
 C907 C 0.65921 0.92329 0.64913
 C908 C 0.68881 0.90659 0.64746
 C909 C 0.69539 0.88714 0.62193
 C910 C 0.67362 0.88651 0.59698
 C911 C 0.72359 0.86886 0.62237
 N912 N 0.74486 0.87175 0.64548
 N913 N 0.73975 0.89154 0.66826
 C914 C 0.71261 0.90916 0.66995
 H915 H 0.62726 0.90288 0.58100
 H916 H 0.61412 0.93231 0.62617
 H917 H 0.72883 0.85209 0.60474
 H918 H 0.71015 0.92508 0.68875
 C919 C 0.15934 0.40565 0.09140
 C920 C 0.15161 0.42308 0.11699
 C921 C 0.17415 0.42811 0.14005
 C922 C 0.20484 0.41344 0.13774
 C923 C 0.21195 0.39376 0.11250
 C924 C 0.18949 0.39111 0.08830
 C925 C 0.24130 0.37725 0.11254
 N926 N 0.26304 0.38216 0.13485
 N927 N 0.25735 0.40228 0.15722
 C928 C 0.22913 0.41820 0.15934
 H929 H 0.14167 0.40430 0.07339
 H930 H 0.12778 0.43345 0.11836
 H931 H 0.24706 0.36028 0.09525
 H932 H 0.22620 0.43453 0.17773
 C933 C -0.08269 0.30108 0.43373
 C934 C -0.11007 0.30924 0.45096
 C935 C -0.13800 0.31967 0.43621
 C936 C -0.13922 0.31961 0.40357
 C937 C -0.11149 0.31118 0.38609
 C938 C -0.08266 0.30318 0.40139
 C939 C -0.11347 0.31135 0.35371
 N940 N -0.14138 0.31979 0.33996
 N941 N -0.16738 0.32800 0.35640
 C942 C -0.16727 0.32822 0.38771
 H943 H -0.06080 0.29486 0.44570
 H944 H -0.10880 0.30935 0.47592
 H945 H -0.09324 0.30448 0.33928
 H946 H -0.18917 0.33479 0.39994
 C947 C 0.41623 0.79159 0.93996
 C948 C 0.38840 0.79993 0.95644
 C949 C 0.36212 0.81326 0.94114
 C950 C 0.36277 0.81576 0.90848
 C951 C 0.39099 0.80730 0.89175
 C952 C 0.41841 0.79656 0.90786
 C953 C 0.39106 0.81052 0.85935
 N954 N 0.36454 0.82166 0.84489
 N955 N 0.33805 0.82981 0.86065
 C956 C 0.33627 0.82732 0.89193
 H957 H 0.43704 0.78341 0.95258
 H958 H 0.38829 0.79812 0.98145
 H959 H 0.41185 0.80402 0.84543
 H960 H 0.31410 0.83409 0.90357
 C961 C 1.09986 0.83507 0.10929
 C962 C 1.12988 0.84082 0.09522
 C963 C 1.13484 0.83625 0.06357
 C964 C 1.10920 0.82465 0.04597
 C965 C 1.07838 0.81967 0.06006
 C966 C 1.07382 0.82476 0.09211
 C967 C 1.05293 0.81045 0.04127
 N968 N 1.05860 0.80493 0.01097
 N969 N 1.08788 0.80821 -0.00190
 C970 C 1.11335 0.81782 0.01453
 H971 H 1.09685 0.83889 0.13381
 H972 H 1.14913 0.84986 0.10898
 H973 H 1.02853 0.80784 0.05021
 H974 H 1.13662 0.81981 0.00291
 C975 C 0.60012 0.30746 0.59941
 C976 C 0.63049 0.31433 0.58661
 C977 C 0.63427 0.33771 0.56362
 C978 C 0.60684 0.35444 0.55317
 C979 C 0.57591 0.34730 0.56607
 C980 C 0.57274 0.32397 0.58976
 C981 C 0.54908 0.36373 0.55466
 N982 N 0.55325 0.38642 0.53249
 N983 N 0.58238 0.39373 0.52096
 C984 C 0.60929 0.37861 0.53056
 H985 H 0.59804 0.28960 0.61755
 H986 H 0.65128 0.30150 0.59489
 H987 H 0.52482 0.35867 0.56299
 H988 H 0.63227 0.38575 0.52047
 C989 C 0.39573 0.21853 0.57974
 C990 C 0.36819 0.21029 0.56402
 C991 C 0.36926 0.18696 0.54196
 C992 C 0.39923 0.17241 0.53488
 C993 C 0.42750 0.18143 0.55040
 C994 C 0.42539 0.20384 0.57389
 C995 C 0.45704 0.16763 0.54183
 N996 N 0.45784 0.14518 0.52035
 N997 N 0.43115 0.13569 0.50683
 C998 C 0.40191 0.14837 0.51343
 H999 H 0.39357 0.23576 0.59754
 H1000 H 0.34551 0.22150 0.56987
 H1001 H 0.47952 0.17460 0.55181
 H1002 H 0.38118 0.13940 0.50187
 C1003 C 0.92379 0.68769 0.05767
 C1004 C 0.89698 0.67763 0.04183
 C1005 C 0.86574 0.68568 0.05162
 C1006 C 0.86145 0.70504 0.07734
 C1007 C 0.88870 0.71509 0.09371
 C1008 C 0.92014 0.70597 0.08387
 C1009 C 0.88332 0.73283 0.12022
 N1010 N 0.85280 0.74048 0.12906
 N1011 N 0.82730 0.73136 0.11343
 C1012 C 0.83055 0.71380 0.08797
 H1013 H 0.94760 0.68044 0.04994
 H1014 H 0.90054 0.66238 0.02248
 H1015 H 0.90292 0.74045 0.13423
 H1016 H 0.80899 0.70684 0.07629
 C1017 C 0.59363 0.66242 0.90398
 C1018 C 0.62065 0.65286 0.92005
 C1019 C 0.64679 0.67305 0.92398
 C1020 C 0.64578 0.70346 0.91000
 C1021 C 0.61894 0.71251 0.89174
 C1022 C 0.59197 0.69218 0.88977
 C1023 C 0.62027 0.74157 0.87583
 N1024 N 0.64537 0.76118 0.88001
 N1025 N 0.66930 0.75364 0.89884
 C1026 C 0.67029 0.72559 0.91408
 H1027 H 0.57350 0.64637 0.90319
 H1028 H 0.62082 0.62938 0.93001
 H1029 H 0.60183 0.74879 0.85988
 H1030 H 0.69008 0.72110 0.92940
 C1031 C 0.08763 0.16426 0.39569
 C1032 C 0.11527 0.15582 0.41137
 C1033 C 0.14099 0.17676 0.41430
 C1034 C 0.13914 0.20650 0.39896
 C1035 C 0.11201 0.21397 0.38042
 C1036 C 0.08506 0.19335 0.38027
 C1037 C 0.11299 0.24187 0.36251
 N1038 N 0.13766 0.26227 0.36548
 N1039 N 0.16152 0.25654 0.38494
 C1040 C 0.16299 0.22952 0.40192
 H1041 H 0.06772 0.14789 0.39644
 H1042 H 0.11605 0.13269 0.42211
 H1043 H 0.09460 0.24757 0.34596
 H1044 H 0.18262 0.22662 0.41773
 C1045 C 0.49170 0.14298 0.66220
 C1046 C 0.50638 0.11970 0.68015
 C1047 C 0.53847 0.12265 0.68950
 C1048 C 0.55565 0.15030 0.68050
 C1049 C 0.54228 0.17161 0.65861
 C1050 C 0.50916 0.16911 0.65085
 C1051 C 0.56298 0.19445 0.64503
 N1052 N 0.59280 0.19884 0.65642
 N1053 N 0.60357 0.18154 0.68002
 C1054 C 0.58590 0.15765 0.69265
 H1055 H 0.46642 0.14031 0.65705
 H1056 H 0.49246 0.09904 0.68646
 H1057 H 0.55587 0.20879 0.62542
 H1058 H 0.59567 0.14463 0.71204
 C1059 C 0.99668 0.64408 0.16155
 C1060 C 1.01285 0.62074 0.17805
 C1061 C 1.04574 0.62357 0.18468
 C1062 C 1.06236 0.65098 0.17397
 C1063 C 1.04704 0.67239 0.15344
 C1064 C 1.01320 0.67015 0.14883
 C1065 C 1.06646 0.69515 0.13806
 N1066 N 1.09741 0.69932 0.14656
 N1067 N 1.11040 0.68191 0.16899
 C1068 C 1.09383 0.65813 0.18320
 H1069 H 0.97092 0.64158 0.15880
 H1070 H 0.99931 0.60020 0.18553
 H1071 H 1.05741 0.70962 0.11933
 H1072 H 1.10540 0.64515 0.20164
 C1073 C 0.95186 0.87143 0.15046
 C1074 C 0.93542 0.89356 0.16765
 C1075 C 0.94869 0.90524 0.19449
 C1076 C 0.97912 0.89415 0.20436
 C1077 C 0.99590 0.87158 0.18682
 C1078 C 0.98207 0.86035 0.15957
 C1079 C 1.02556 0.86028 0.19776
 N1080 N 1.03756 0.87119 0.22429
 N1081 N 1.02180 0.89237 0.24075
 C1082 C 0.99297 0.90410 0.23181
 H1083 H 0.94091 0.86282 0.12983
 H1084 H 0.91210 0.90172 0.15993
 H1085 H 1.03919 0.84266 0.18574
 H1086 H 0.98104 0.92079 0.24644
 C1087 C 0.45084 0.36541 0.65481
 C1088 C 0.43579 0.38966 0.67020
 C1089 C 0.45260 0.40751 0.69126
 C1090 C 0.48537 0.40030 0.69718
 C1091 C 0.50031 0.37467 0.68244
 C1092 C 0.48312 0.35779 0.66028
 C1093 C 0.53201 0.36665 0.69066
 N1094 N 0.54821 0.38444 0.71060
 N1095 N 0.53484 0.40957 0.72301
 C1096 C 0.50410 0.41819 0.71689
 H1097 H 0.43729 0.35282 0.63801
 H1098 H 0.41071 0.39467 0.66548
 H1099 H 0.54400 0.34631 0.68167
 H1100 H 0.49481 0.43907 0.72732
 C1101 C 0.46800 0.64800 0.84789
 C1102 C 0.44996 0.62436 0.83524
 C1103 C 0.45812 0.61272 0.80619
 C1104 C 0.48478 0.62575 0.78926
 C1105 C 0.50334 0.64974 0.80232
 C1106 C 0.49486 0.66071 0.83195
 C1107 C 0.52931 0.66254 0.78483
 N1108 N 0.53609 0.65196 0.75619
 N1109 N 0.51855 0.62966 0.74382
 C1110 C 0.49307 0.61632 0.75926
 H1111 H 0.46118 0.65624 0.87054
 H1112 H 0.42956 0.61481 0.84838
 H1113 H 0.54403 0.68107 0.79347
 H1114 H 0.47937 0.59881 0.74773
 C1115 C -0.00751 0.14163 0.30862
 C1116 C -0.02660 0.11804 0.29709
 C1117 C -0.05766 0.11209 0.30932
 C1118 C -0.06979 0.13078 0.33353
 C1119 C -0.04960 0.15346 0.34658
 C1120 C -0.01850 0.15959 0.33328
 C1121 C -0.06119 0.16888 0.37293
 N1122 N -0.09182 0.16396 0.38349
 N1123 N -0.11157 0.14446 0.36973
 C1124 C -0.10169 0.12784 0.34508
 H1125 H 0.01611 0.14589 0.29819
 H1126 H -0.01685 0.10405 0.27863
 H1127 H -0.04623 0.18454 0.38550
 H1128 H -0.11900 0.11274 0.33465
 C1129 C 0.03380 0.36467 0.34480
 C1130 C 0.04683 0.39135 0.33030
 C1131 C 0.03061 0.40687 0.30629
 C1132 C 0.00031 0.39547 0.29705
 C1133 C -0.01273 0.36800 0.31146
 C1134 C 0.00413 0.35273 0.33575
 C1135 C -0.04206 0.35644 0.30063
 N1136 N -0.05779 0.37218 0.27790
 N1137 N -0.04612 0.39858 0.26517
 C1138 C -0.01768 0.41079 0.27397
 H1139 H 0.04693 0.35327 0.36332
 H1140 H 0.07011 0.39966 0.33751
 H1141 H -0.05251 0.33494 0.30978
 H1142 H -0.00956 0.43243 0.26299
 C1143 C 0.52145 0.85216 0.82395
 C1144 C 0.53252 0.87945 0.80910
 C1145 C 0.53221 0.90801 0.82421
 C1146 C 0.52020 0.90883 0.85514
 C1147 C 0.51049 0.88069 0.87081
 C1148 C 0.51029 0.85221 0.85472
 C1149 C 0.50168 0.88205 0.90231
 N1150 N 0.50032 0.90996 0.91633
 N1151 N 0.50738 0.93656 0.90107
 C1152 C 0.51711 0.93698 0.87099
 H1153 H 0.52132 0.83079 0.81111
 H1154 H 0.54179 0.87813 0.78560
 H1155 H 0.49613 0.86123 0.91605
 H1156 H 0.52204 0.95934 0.85973
 C1157 C 0.67821 0.49531 0.13822
 C1158 C 0.69600 0.51066 0.11483
 C1159 C 0.69931 0.54359 0.11352
 C1160 C 0.68542 0.56013 0.13900
 C1161 C 0.66304 0.54495 0.15968
 C1162 C 0.66072 0.51182 0.16048
 C1163 C 0.64424 0.56377 0.17924
 N1164 N 0.65221 0.59414 0.18267
 N1165 N 0.67734 0.60690 0.16747
 C1166 C 0.69463 0.59075 0.14632
 H1167 H 0.67788 0.47003 0.13844
 H1168 H 0.70553 0.49589 0.09703
 H1169 H 0.62363 0.55457 0.19218
 H1170 H 0.71544 0.60196 0.13543
 C1171 C 0.17344 1.00107 0.62992
 C1172 C 0.18958 1.01785 0.60637
 C1173 C 0.19430 1.05025 0.60802
 C1174 C 0.18190 1.06569 0.63446
 C1175 C 0.16137 1.04934 0.65596
 C1176 C 0.15891 1.01620 0.65498
 C1177 C 0.14389 1.06704 0.67757
 N1178 N 0.15073 1.09772 0.68073
 N1179 N 0.17342 1.11199 0.66336
 C1180 C 0.18947 1.09694 0.64058
 H1181 H 0.17249 0.97590 0.62836
 H1182 H 0.19834 1.00515 0.58662
 H1183 H 0.12484 1.05686 0.69196
 H1184 H 0.20806 1.10954 0.62760
 C1185 C 0.16566 0.95874 0.85577
 C1186 C 0.18312 0.94445 0.87921
 C1187 C 0.21011 0.95909 0.89215
 C1188 C 0.22073 0.98821 0.87832
 C1189 C 0.20226 1.00297 0.85468
 C1190 C 0.17424 0.98819 0.84389
 C1191 C 0.21343 1.03139 0.84131
 N1192 N 0.24186 1.04357 0.85005
 N1193 N 0.26014 1.02899 0.87080
 C1194 C 0.25091 1.00162 0.88474
 H1195 H 0.14454 0.94699 0.84739
 H1196 H 0.17349 0.92265 0.88870
 H1197 H 0.20036 1.04368 0.82339
 H1198 H 0.26797 0.99011 0.89973
 C1199 C 0.64703 0.46450 0.36766
 C1200 C 0.66391 0.45153 0.39232
 C1201 C 0.69402 0.46344 0.40038
 C1202 C 0.70750 0.48889 0.38290
 C1203 C 0.69011 0.50229 0.35795
 C1204 C 0.65968 0.48987 0.35042
 C1205 C 0.70420 0.52731 0.34082
 N1206 N 0.73379 0.53793 0.34818
 N1207 N 0.75030 0.52512 0.37134
 C1208 C 0.73828 0.50091 0.38883
 H1209 H 0.62384 0.45473 0.36200
 H1210 H 0.65338 0.43195 0.40530
 H1211 H 0.69211 0.53835 0.32149
 H1212 H 0.75309 0.49115 0.40692
 C1213 C 0.83059 0.47830 0.66114
 C1214 C 0.81470 0.46571 0.63634
 C1215 C 0.82986 0.46395 0.60721
 C1216 C 0.86179 0.47560 0.60307
 C1217 C 0.87854 0.48705 0.62872
 C1218 C 0.86244 0.48909 0.65787
 C1219 C 0.91113 0.49559 0.62430
 N1220 N 0.92506 0.49495 0.59573
 N1221 N 0.90871 0.48612 0.57132
 C1222 C 0.87759 0.47656 0.57397
 H1223 H 0.81780 0.47976 0.68312
 H1224 H 0.79042 0.45684 0.64008
 H1225 H 0.92582 0.50247 0.64326
 H1226 H 0.86547 0.47008 0.55324
 C1227 C 0.36371 -0.00921 0.13261
 C1228 C 0.34879 -0.02463 0.10892
 C1229 C 0.31750 -0.03668 0.11287
 C1230 C 0.30089 -0.03291 0.14153
 C1231 C 0.31572 -0.01623 0.16535
 C1232 C 0.34776 -0.00499 0.16102
 C1233 C 0.29770 -0.01108 0.19264
 N1234 N 0.26774 -0.02347 0.19643
 N1235 N 0.25453 -0.04050 0.17477
 C1236 C 0.27007 -0.04576 0.14755
 H1237 H 0.38815 -0.00077 0.12883
 H1238 H 0.36188 -0.02729 0.08723
 H1239 H 0.30694 0.00284 0.21092
 H1240 H 0.25823 -0.06011 0.13108
 C1241 C 0.33853 -0.00020 0.36741
 C1242 C 0.32170 0.01482 0.39087
 C1243 C 0.33013 0.04507 0.39916
 C1244 C 0.35640 0.06037 0.38365
 C1245 C 0.37376 0.04492 0.35994
 C1246 C 0.36422 0.01462 0.35139
 C1247 C 0.40028 0.06037 0.34565
 N1248 N 0.40801 0.08971 0.35387
 N1249 N 0.39111 0.10460 0.37542
 C1250 C 0.36556 0.09101 0.39051
 H1251 H 0.33085 -0.02331 0.36110
 H1252 H 0.30164 0.00288 0.40246
 H1253 H 0.41505 0.04936 0.32820
 H1254 H 0.35265 0.10438 0.40759
 C1255 C 0.83307 0.48906 0.86626
 C1256 C 0.81682 0.50404 0.89013
 C1257 C 0.82764 0.53281 0.90051
 C1258 C 0.85556 0.54675 0.88654
 C1259 C 0.87232 0.53130 0.86248
 C1260 C 0.86054 0.50248 0.85195
 C1261 C 0.90056 0.54522 0.84987
 N1262 N 0.91049 0.57325 0.85997
 N1263 N 0.89418 0.58824 0.88183
 C1264 C 0.86706 0.57604 0.89539
 H1265 H 0.82375 0.46706 0.85844
 H1266 H 0.79549 0.49316 0.90053
 H1267 H 0.91497 0.53404 0.83225
 H1268 H 0.85473 0.58946 0.91280
 C1269 C 0.11416 0.63918 0.51039
 C1270 C 0.09115 0.65602 0.52691
 C1271 C 0.09749 0.68650 0.53618
 C1272 C 0.12756 0.70055 0.52787
 C1273 C 0.15059 0.68371 0.51020
 C1274 C 0.14421 0.65235 0.50243
 C1275 C 0.17941 0.69892 0.50087
 N1276 N 0.18540 0.72830 0.51013
 N1277 N 0.16452 0.74351 0.52800
 C1278 C 0.13594 0.73064 0.53730
 H1279 H 0.10885 0.61529 0.50463
 H1280 H 0.06832 0.64494 0.53303
 H1281 H 0.19714 0.68786 0.48613
 H1282 H 0.12030 0.74404 0.55215
 C1283 C 0.63938 0.13493 1.02541
 C1284 C 0.61670 0.15306 1.04090
 C1285 C 0.61162 0.18440 1.03208
 C1286 C 0.63003 0.19774 1.00709
 C1287 C 0.65299 0.17916 0.99116
 C1288 C 0.65757 0.14752 1.00051
 C1289 C 0.67140 0.19325 0.96695
 N1290 N 0.66697 0.22384 0.95929
 N1291 N 0.64562 0.24133 0.97437
 C1292 C 0.62716 0.22942 0.99807
 H1293 H 0.64295 0.11089 1.03303
 H1294 H 0.60295 0.14255 1.06003
 H1295 H 0.68945 0.18036 0.95422
 H1296 H 0.61078 0.24498 1.00982
 C1297 C 0.85119 0.15984 0.98674
 C1298 C 0.87727 0.17642 0.97408
 C1299 C 0.90701 0.16168 0.96726
 C1300 C 0.91042 0.12950 0.97684
 C1301 C 0.88318 0.11240 0.98853
 C1302 C 0.85340 0.12785 0.99347
 C1303 C 0.88679 0.08026 0.99523
 N1304 N 0.91637 0.06690 0.99353
 N1305 N 0.94251 0.08351 0.98565
 C1306 C 0.94065 0.11430 0.97776
 H1307 H 0.82871 0.17213 0.99088
 H1308 H 0.87276 0.20055 0.96741
 H1309 H 0.86648 0.06568 1.00209
 H1310 H 0.96296 0.12673 0.97306
 C1311 C 0.35330 0.66090 0.49382
 C1312 C 0.37800 0.67598 0.47709
 C1313 C 0.39116 0.66293 0.45038
 C1314 C 0.37950 0.63385 0.44050
 C1315 C 0.35428 0.61848 0.45752
 C1316 C 0.34084 0.63247 0.48415
 C1317 C 0.34350 0.58946 0.44736
 N1318 N 0.35677 0.57712 0.42152
 N1319 N 0.38007 0.59181 0.40525
 C1320 C 0.39187 0.61974 0.41381
 H1321 H 0.34321 0.67192 0.51408
 H1322 H 0.38671 0.69824 0.48485
 H1323 H 0.32483 0.57637 0.45978
 H1324 H 0.41075 0.63064 0.39969
 C1325 C 0.63927 0.79870 0.49795
 C1326 C 0.61597 0.78404 0.48070
 C1327 C 0.58970 0.80090 0.46913
 C1328 C 0.58629 0.83294 0.47578
 C1329 C 0.60997 0.84787 0.49332
 C1330 C 0.63671 0.83051 0.50430
 C1331 C 0.60638 0.87996 0.49872
 N1332 N 0.58037 0.89564 0.48779
 N1333 N 0.55784 0.88147 0.47175
 C1334 C 0.55989 0.85070 0.46536
 H1335 H 0.65968 0.78524 0.50614
 H1336 H 0.61887 0.75954 0.47564
 H1337 H 0.62397 0.89276 0.51142
 H1338 H 0.54083 0.84040 0.45232
 C1339 C 0.15484 0.30078 -0.00878
 C1340 C 0.13088 0.28526 -0.02445
 C1341 C 0.10299 0.30103 -0.03383
 C1342 C 0.09873 0.33285 -0.02663
 C1343 C 0.12314 0.34868 -0.01080
 C1344 C 0.15137 0.33237 -0.00189
 C1345 C 0.11865 0.38058 -0.00496
 N1346 N 0.09113 0.39518 -0.01368
 N1347 N 0.06788 0.38011 -0.02794
 C1348 C 0.07071 0.34949 -0.03470
 H1349 H 0.17636 0.28812 -0.00214
 H1350 H 0.13443 0.26094 -0.02991
 H1351 H 0.13674 0.39412 0.00633
 H1352 H 0.05098 0.33843 -0.04617
 C1353 C 0.34741 0.32118 0.02047
 C1354 C 0.37371 0.30639 0.03386
 C1355 C 0.40375 0.32128 0.03489
 C1356 C 0.40722 0.35181 0.02153
 C1357 C 0.37988 0.36762 0.00948
 C1358 C 0.34982 0.35181 0.00835
 C1359 C 0.38357 0.39901 -0.00050
 N1360 N 0.41311 0.41258 -0.00077
 N1361 N 0.43915 0.39702 0.00848
 C1362 C 0.43726 0.36713 0.01947
 H1363 H 0.32482 0.30854 0.01970
 H1364 H 0.37037 0.28317 0.04396
 H1365 H 0.36331 0.41304 -0.00781
 H1366 H 0.45932 0.35559 0.02620
 C1367 C 0.83636 0.81708 0.52920
 C1368 C 0.86295 0.80291 0.54280
 C1369 C 0.88997 0.82053 0.55038
 C1370 C 0.89033 0.85314 0.54366
 C1371 C 0.86302 0.86767 0.53021
 C1372 C 0.83597 0.84931 0.52271
 C1373 C 0.86359 0.90026 0.52518
 N1374 N 0.89027 0.91682 0.53199
 N1375 N 0.91633 0.90302 0.54359
 C1376 C 0.91732 0.87180 0.54959
 H1377 H 0.81592 0.80273 0.52352
 H1378 H 0.86226 0.77800 0.54786
 H1379 H 0.84307 0.91281 0.51610
 H1380 H 0.93925 0.86190 0.55872
   
