data_POSCAR
  _audit_creation_date              2014-09-24
  _audit_creation_method            'ToBaCCo'
  _symmetry_space_group_name_H-M    'P1'
  _symmetry_Int_Tables_number       1
  _symmetry_cell_setting            triclinic
  loop_
  _symmetry_equiv_pos_as_xyz
 x,y,z
_cell_length_a 52.6885
_cell_length_b 53.2831
_cell_length_c 52.9024
_cell_angle_alpha 90.557000
_cell_angle_beta 89.962300
_cell_angle_gamma 90.023800
loop_
  _atom_site_label
  _atom_site_type_symbol
  _atom_site_fract_x
  _atom_site_fract_y
  _atom_site_fract_z
C1 C 0.31265 0.42730 0.91452
 C2 C 0.31579 0.41908 0.93938
 C3 C 0.33830 0.42364 0.95235
 C4 C 0.35807 0.43676 0.94040
 C5 C 0.35501 0.44419 0.91560
 C6 C 0.33226 0.43988 0.90289
 C7 C 0.29252 0.42667 0.89774
 N8 N 0.29971 0.43927 0.87680
 C9 C 0.32392 0.44732 0.87967
 C10 C 0.37550 0.45836 0.90909
 N11 N 0.39081 0.46047 0.92941
 C12 C 0.38054 0.44747 0.94888
 C13 C 0.33656 0.41136 0.97516
 N14 N 0.31373 0.39962 0.97600
 C15 C 0.30077 0.40462 0.95447
 H16 H 0.27392 0.41863 0.90083
 H17 H 0.33452 0.45809 0.86599
 H18 H 0.37755 0.46904 0.89188
 H19 H 0.38734 0.44801 0.96819
 H20 H 0.35160 0.40907 0.98888
 H21 H 0.28284 0.39623 0.94906
 C22 C 0.43889 0.81169 0.46400
 C23 C 0.42576 0.78916 0.46091
 C24 C 0.42521 0.77714 0.43765
 C25 C 0.43921 0.78704 0.41746
 C26 C 0.45193 0.80983 0.42024
 C27 C 0.45097 0.82285 0.44368
 C28 C 0.43685 0.82913 0.48299
 N29 N 0.44663 0.85096 0.47494
 C30 C 0.45526 0.84775 0.45084
 C31 C 0.46288 0.81501 0.39703
 N32 N 0.45744 0.79577 0.38085
 C33 C 0.44255 0.77891 0.39292
 C34 C 0.40524 0.76025 0.43831
 N35 N 0.39397 0.76224 0.46137
 C36 C 0.40662 0.77939 0.47536
 H37 H 0.42574 0.82711 0.50010
 H38 H 0.46129 0.86277 0.43858
 H39 H 0.47440 0.83115 0.39242
 H40 H 0.43522 0.76172 0.38463
 H41 H 0.39743 0.75012 0.42227
 H42 H 0.39994 0.78687 0.49327
 C43 C 0.94718 0.91182 0.80208
 C44 C 0.92735 0.92945 0.79839
 C45 C 0.92617 0.95059 0.81398
 C46 C 0.94423 0.95478 0.83288
 C47 C 0.96360 0.93775 0.83647
 C48 C 0.96486 0.91606 0.82127
 C49 C 0.95555 0.89072 0.78874
 N50 N 0.97717 0.88233 0.79994
 C51 C 0.98306 0.89771 0.81952
 C52 C 0.98027 0.94837 0.85371
 N53 N 0.97100 0.97115 0.86060
 C54 C 0.94911 0.97540 0.84804
 C55 C 0.90619 0.96500 0.80631
 N56 N 0.89483 0.95347 0.78655
 C57 C 0.90736 0.93165 0.78122
 H58 H 0.94752 0.88314 0.77145
 H59 H 1.00035 0.89667 0.83052
 H60 H 0.99852 0.94096 0.85936
 H61 H 0.93868 0.99291 0.84839
 H62 H 0.90007 0.98262 0.81467
 H63 H 0.90224 0.91843 0.76642
 C64 C 0.39683 -0.11879 0.32072
 C65 C 0.37628 -0.10281 0.32574
 C66 C 0.37348 -0.09197 0.34952
 C67 C 0.39112 -0.09714 0.36856
 C68 C 0.41092 -0.11371 0.36388
 C69 C 0.41386 -0.12442 0.33988
 C70 C 0.40815 -0.12562 0.29819
 N71 N 0.43130 -0.13508 0.30359
 C72 C 0.43508 -0.13461 0.32877
 C73 C 0.42834 -0.11076 0.38299
 N74 N 0.41990 -0.09242 0.39855
 C75 C 0.39712 -0.08404 0.39026
 C76 C 0.35465 -0.07414 0.34785
 N77 N 0.34599 -0.07425 0.32381
 C78 C 0.35906 -0.09148 0.31000
 H79 H 0.40147 -0.12123 0.27939
 H80 H 0.45303 -0.13841 0.33794
 H81 H 0.44719 -0.11883 0.38369
 H82 H 0.38716 -0.06786 0.39783
 H83 H 0.34836 -0.06143 0.36264
 H84 H 0.35683 -0.09481 0.28990
 C85 C 0.79493 0.30767 0.31893
 C86 C 0.79388 0.32849 0.30295
 C87 C 0.81467 0.33443 0.28806
 C88 C 0.83686 0.31999 0.28928
 C89 C 0.83799 0.29954 0.30521
 C90 C 0.81682 0.29322 0.31994
 C91 C 0.77859 0.29885 0.33716
 N92 N 0.79013 0.27941 0.34887
 C93 C 0.81340 0.27579 0.33865
 C94 C 0.86245 0.29037 0.30422
 N95 N 0.87589 0.30485 0.28802
 C96 C 0.86059 0.32293 0.27875
 C97 C 0.80937 0.35670 0.27631
 N98 N 0.78609 0.36438 0.28385
 C99 C 0.77629 0.34747 0.30018
 H100 H 0.76039 0.30675 0.34240
 H101 H 0.82728 0.26246 0.34537
 H102 H 0.87002 0.27481 0.31483
 H103 H 0.86652 0.33749 0.26588
 H104 H 0.82208 0.36737 0.26445
 H105 H 0.75850 0.34950 0.31022
 C106 C -0.16254 0.85989 0.81249
 C107 C -0.14146 0.84516 0.81806
 C108 C -0.14192 0.82884 0.83832
 C109 C -0.16349 0.82822 0.85421
 C110 C -0.18442 0.84319 0.84872
 C111 C -0.18421 0.85859 0.82726
 C112 C -0.16868 0.87205 0.79059
 N113 N -0.19354 0.87788 0.79153
 C114 C -0.20351 0.86986 0.81368
 C115 C -0.20381 0.83617 0.86468
 N116 N -0.19517 0.81774 0.87987
 C117 C -0.17082 0.81230 0.87344
 C118 C -0.12076 0.81347 0.83566
 N119 N -0.10804 0.82060 0.81448
 C120 C -0.12038 0.83988 0.80378
 H121 H -0.15676 0.87392 0.77403
 H122 H -0.22351 0.86994 0.81836
 H123 H -0.22332 0.84248 0.86384
 H124 H -0.16001 0.79666 0.88068
 H125 H -0.11584 0.79760 0.84729
 H126 H -0.11530 0.84823 0.78589
 C127 C 0.94285 0.33229 0.43899
 C128 C 0.95327 0.31153 0.42573
 C129 C 0.93860 0.29014 0.42202
 C130 C 0.91351 0.28935 0.43011
 C131 C 0.90316 0.30980 0.44243
 C132 C 0.91772 0.33132 0.44672
 C133 C 0.95304 0.35392 0.44984
 N134 N 0.93437 0.36576 0.46321
 C135 C 0.91280 0.35225 0.46100
 C136 C 0.87877 0.30360 0.44885
 N137 N 0.87420 0.28001 0.44013
 C138 C 0.89512 0.27105 0.42842
 C139 C 0.95174 0.27385 0.40697
 N140 N 0.97355 0.28498 0.40004
 C141 C 0.97514 0.30794 0.41155
 H142 H 0.97295 0.35892 0.45045
 H143 H 0.89573 0.35557 0.47196
 H144 H 0.86537 0.31526 0.45910
 H145 H 0.89693 0.25253 0.42003
 H146 H 0.94432 0.25674 0.39857
 H147 H 0.98937 0.32199 0.40751
 C148 C 0.46973 0.44530 0.81077
 C149 C 0.46674 0.42736 0.79163
 C150 C 0.44608 0.42831 0.77569
 C151 C 0.42823 0.44751 0.77865
 C152 C 0.43104 0.46561 0.79757
 C153 C 0.45226 0.46459 0.81385
 C154 C 0.48837 0.44836 0.82850
 N155 N 0.48294 0.46910 0.84225
 C156 C 0.46110 0.47955 0.83363
 C157 C 0.40946 0.48044 0.79689
 N158 N 0.39421 0.47155 0.77813
 C159 C 0.40553 0.45156 0.76687
 C160 C 0.44704 0.40736 0.76020
 N161 N 0.46797 0.39413 0.76650
 C162 C 0.48023 0.40614 0.78562
 H163 H 0.50538 0.43713 0.83044
 H164 H 0.45297 0.49701 0.84042
 H165 H 0.40457 0.49551 0.80986
 H166 H 0.39718 0.43995 0.75216
 H167 H 0.43314 0.40160 0.74624
 H168 H 0.49693 0.39928 0.79524
 C169 C 0.82183 0.89999 0.91900
 C170 C 0.82251 0.90929 0.89432
 C171 C 0.84102 0.92655 0.88779
 C172 C 0.85876 0.93494 0.90566
 C173 C 0.85772 0.92633 0.93027
 C174 C 0.83928 0.90854 0.93691
 C175 C 0.80359 0.88647 0.93164
 N176 N 0.80986 0.88655 0.95639
 C177 C 0.83129 0.90004 0.96007
 C178 C 0.87274 0.94218 0.94480
 N179 N 0.88289 0.95964 0.92931
 C180 C 0.87448 0.95554 0.90551
 C181 C 0.83411 0.93663 0.86509
 N182 N 0.81182 0.92614 0.85780
 C183 C 0.80457 0.90915 0.87523
 H184 H 0.78626 0.87873 0.92379
 H185 H 0.83937 0.90472 0.97833
 H186 H 0.87396 0.94262 0.96523
 H187 H 0.87721 0.96830 0.88993
 H188 H 0.84336 0.95216 0.85576
 H189 H 0.78651 0.89946 0.87527
 C190 C 0.27289 0.82326 0.29867
 C191 C 0.27601 0.80185 0.31343
 C192 C 0.29795 0.78768 0.31161
 C193 C 0.31692 0.79475 0.29435
 C194 C 0.31369 0.81586 0.27939
 C195 C 0.29151 0.83029 0.28163
 C196 C 0.25341 0.84025 0.29695
 N197 N 0.25983 0.85727 0.27931
 C198 C 0.28289 0.85153 0.26951
 C199 C 0.33527 0.81847 0.26489
 N200 N 0.35123 0.79950 0.27069
 C201 C 0.34038 0.78493 0.28866
 C202 C 0.29636 0.76917 0.32981
 N203 N 0.27385 0.77205 0.34206
 C204 C 0.26137 0.79182 0.33223
 H205 H 0.23551 0.83977 0.30702
 H206 H 0.29219 0.86149 0.25435
 H207 H 0.33927 0.83318 0.25150
 H208 H 0.34906 0.76865 0.29716
 H209 H 0.31091 0.75572 0.33466
 H210 H 0.24364 0.79930 0.33941
 C211 C 0.77886 0.41175 0.45156
 C212 C 0.77825 0.43285 0.43581
 C213 C 0.79522 0.45239 0.43979
 C214 C 0.81304 0.45111 0.45932
 C215 C 0.81362 0.43043 0.47498
 C216 C 0.79638 0.41068 0.47112
 C217 C 0.76544 0.38947 0.45164
 N218 N 0.77450 0.37527 0.47080
 C219 C 0.79329 0.38793 0.48281
 C220 C 0.83209 0.43489 0.49294
 N221 N 0.84256 0.45757 0.48812
 C222 C 0.83110 0.46780 0.46783
 C223 C 0.79112 0.46994 0.42138
 N224 N 0.77214 0.46151 0.40639
 C225 C 0.76404 0.43887 0.41484
 H226 H 0.75088 0.38372 0.43837
 H227 H 0.80446 0.38068 0.49827
 H228 H 0.83663 0.42325 0.50898
 H229 H 0.83468 0.48647 0.46074
 H230 H 0.80175 0.48705 0.41843
 H231 H 0.74966 0.42732 0.40587
 C232 C 0.93467 0.84582 -0.05352
 C233 C 0.91975 0.82411 -0.05235
 C234 C 0.92609 0.80297 -0.06655
 C235 C 0.94792 0.80334 -0.08192
 C236 C 0.96267 0.82495 -0.08288
 C237 C 0.95604 0.84621 -0.06868
 C238 C 0.93307 0.86884 -0.04156
 N239 N 0.95304 0.88285 -0.04913
 C240 C 0.96731 0.86936 -0.06569
 C241 C 0.98321 0.82001 -0.09805
 N242 N 0.98127 0.79603 -0.10623
 C243 C 0.96000 0.78537 -0.09666
 C244 C 0.90771 0.78504 -0.06183
 N245 N 0.89095 0.79494 -0.04502
 C246 C 0.89807 0.81873 -0.03911
 H247 H 0.91872 0.87489 -0.02818
 H248 H 0.98455 0.87582 -0.07466
 H249 H 0.99888 0.83251 -0.10207
 H250 H 0.95437 0.76600 -0.09943
 H251 H 0.90638 0.76647 -0.07021
 H252 H 0.88781 0.83141 -0.02668
 C253 C 0.30691 0.32233 0.82397
 C254 C 0.30992 0.30636 0.84466
 C255 C 0.33074 0.29055 0.84579
 C256 C 0.34885 0.29062 0.82634
 C257 C 0.34605 0.30655 0.80591
 C258 C 0.32482 0.32254 0.80467
 C259 C 0.28945 0.34078 0.81896
 N260 N 0.29621 0.35208 0.79719
 C261 C 0.31781 0.34130 0.78818
 C262 C 0.36735 0.30356 0.79087
 N263 N 0.38259 0.28622 0.80185
 C264 C 0.37160 0.27825 0.82344
 C265 C 0.32980 0.27854 0.86872
 N266 N 0.30902 0.28677 0.88136
 C267 C 0.29664 0.30381 0.86700
 H268 H 0.27361 0.34635 0.83078
 H269 H 0.32816 0.34735 0.77163
 H270 H 0.37166 0.31354 0.77367
 H271 H 0.37989 0.26489 0.83632
 H272 H 0.34372 0.26563 0.87615
 H273 H 0.27993 0.31420 0.87276
 C274 C 0.16070 0.53911 0.53377
 C275 C 0.17954 0.55727 0.53088
 C276 C 0.19856 0.55981 0.54879
 C277 C 0.19903 0.54380 0.56976
 C278 C 0.18029 0.52568 0.57261
 C279 C 0.16087 0.52345 0.55454
 C280 C 0.13816 0.53557 0.52129
 N281 N 0.12463 0.51829 0.53399
 C282 C 0.13815 0.51057 0.55434
 C283 C 0.18428 0.51429 0.59558
 N284 N 0.20496 0.52506 0.60645
 C285 C 0.21405 0.54314 0.59107
 C286 C 0.21214 0.58107 0.54267
 N287 N 0.20157 0.59107 0.52160
 C288 C 0.18173 0.57677 0.51423
 H289 H 0.13115 0.54627 0.50547
 H290 H 0.13113 0.49824 0.56891
 H291 H 0.17272 0.49980 0.60400
 H292 H 0.23001 0.55524 0.59538
 H293 H 0.22752 0.58936 0.55343
 H294 H 0.16904 0.58111 0.49880
 C295 C 0.56962 0.71374 0.02269
 C296 C 0.54888 0.69776 0.01886
 C297 C 0.52869 0.69817 0.03559
 C298 C 0.52910 0.71446 0.05646
 C299 C 0.54976 0.73018 0.06059
 C300 C 0.57026 0.72985 0.04346
 C301 C 0.59288 0.71477 0.01101
 N302 N 0.60755 0.73117 0.02397
 C303 C 0.59420 0.74054 0.04394
 C304 C 0.54650 0.74085 0.08430
 N305 N 0.52451 0.73181 0.09416
 C306 C 0.51382 0.71571 0.07746
 C307 C 0.51389 0.67748 0.03040
 N308 N 0.52488 0.66454 0.01123
 C309 C 0.54615 0.67678 0.00382
 H310 H 0.59909 0.70368 -0.00510
 H311 H 0.60165 0.75321 0.05823
 H312 H 0.55980 0.75290 0.09421
 H313 H 0.49700 0.70462 0.08105
 H314 H 0.49815 0.67073 0.04162
 H315 H 0.56001 0.66950 -0.00947
 C316 C 0.70092 0.20345 0.66246
 C317 C 0.68780 0.20390 0.68535
 C318 C 0.69340 0.18677 0.70410
 C319 C 0.71327 0.16950 0.70025
 C320 C 0.72667 0.16945 0.67762
 C321 C 0.72012 0.18618 0.65852
 C322 C 0.69573 0.21453 0.63969
 N323 N 0.71117 0.20407 0.62220
 C324 C 0.72632 0.18684 0.63331
 C325 C 0.74206 0.14865 0.67727
 N326 N 0.73834 0.13614 0.69901
 C327 C 0.72076 0.14849 0.71324
 C328 C 0.67418 0.18853 0.72191
 N329 N 0.65763 0.20634 0.71413
 C330 C 0.66584 0.21585 0.69194
 H331 H 0.68084 0.22793 0.63574
 H332 H 0.73974 0.17480 0.62354
 H333 H 0.75345 0.14194 0.66157
 H334 H 0.71267 0.14170 0.73070
 H335 H 0.67146 0.17663 0.73816
 H336 H 0.65547 0.22903 0.68041
 C337 C 1.07870 0.07949 0.19021
 C338 C 1.06259 0.10035 0.18961
 C339 C 1.04325 0.10146 0.17191
 C340 C 1.03988 0.08172 0.15457
 C341 C 1.05587 0.06105 0.15512
 C342 C 1.07538 0.05997 0.17304
 C343 C 1.09878 0.07330 0.20555
 N344 N 1.10752 0.05056 0.19786
 C345 C 1.09353 0.04218 0.17809
 C346 C 1.04703 0.04393 0.13757
 N347 N 1.02630 0.05400 0.12656
 C348 C 1.02154 0.07691 0.13668
 C349 C 1.03022 0.12349 0.17613
 N350 N 1.04134 0.13552 0.19583
 C351 C 1.06114 0.12170 0.20430
 H352 H 1.10666 0.08454 0.22079
 H353 H 1.09659 0.02464 0.16806
 H354 H 1.05413 0.02514 0.13413
 H355 H 1.00521 0.08845 0.13240
 H356 H 1.01396 0.13031 0.16575
 H357 H 1.07341 0.12679 0.21993
 C358 C 0.08417 0.16753 1.06607
 C359 C 0.10540 0.18283 1.06952
 C360 C 0.10542 0.20112 1.08821
 C361 C 0.08423 0.20405 1.10395
 C362 C 0.06290 0.18899 1.10051
 C363 C 0.06284 0.17047 1.08124
 C364 C 0.07907 0.14928 1.04843
 N365 N 0.05526 0.14092 1.05234
 C366 C 0.04486 0.15353 1.07230
 C367 C 0.04435 0.19828 1.11660
 N368 N 0.05432 0.21807 1.12956
 C369 C 0.07845 0.22192 1.12192
 C370 C 0.12744 0.21479 1.08551
 N371 N 0.14048 0.20490 1.06566
 C372 C 0.12740 0.18534 1.05581
 H373 H 0.09174 0.14242 1.03379
 H374 H 0.02596 0.15055 1.07971
 H375 H 0.02472 0.19231 1.11749
 H376 H 0.09020 0.23767 1.12762
 H377 H 0.13311 0.23111 1.09646
 H378 H 0.13300 0.17456 1.03928
 C379 C 0.17129 0.68837 0.67070
 C380 C 0.19141 0.68736 0.65317
 C381 C 0.20901 0.66817 0.65456
 C382 C 0.20668 0.64968 0.67280
 C383 C 0.18685 0.65022 0.68999
 C384 C 0.16907 0.66995 0.68908
 C385 C 0.15104 0.70457 0.67378
 N386 N 0.13693 0.69655 0.69355
 C387 C 0.14757 0.67539 0.70301
 C388 C 0.18870 0.62842 0.70401
 N389 N 0.20911 0.61534 0.69526
 C390 C 0.22015 0.62809 0.67637
 C391 C 0.22527 0.67018 0.63445
 N392 N 0.21799 0.69007 0.62072
 C393 C 0.19733 0.70091 0.63177
 H394 H 0.14690 0.72098 0.66261
 H395 H 0.14023 0.66479 0.71877
 H396 H 0.17582 0.62219 0.71861
 H397 H 0.23629 0.62158 0.66545
 H398 H 0.24031 0.65728 0.62927
 H399 H 0.18666 0.71642 0.62409
 C400 C 1.20663 0.17302 0.21860
 C401 C 1.18692 0.19069 0.21797
 C402 C 1.18787 0.21024 0.20096
 C403 C 1.20836 0.21230 0.18442
 C404 C 1.22786 0.19481 0.18491
 C405 C 1.22698 0.17498 0.20210
 C406 C 1.20995 0.15140 0.23212
 N407 N 1.23170 0.14022 0.22408
 C408 C 1.24233 0.15437 0.20579
 C409 C 1.24577 0.20234 0.16761
 N410 N 1.23722 0.22370 0.15695
 C411 C 1.21455 0.23013 0.16695
 C412 C 1.16630 0.22441 0.20417
 N413 N 1.15239 0.21371 0.22268
 C414 C 1.16462 0.19317 0.23132
 H415 H 1.19675 0.14359 0.24562
 H416 H 1.25907 0.14928 0.19502
 H417 H 1.26412 0.19385 0.16409
 H418 H 1.20417 0.24714 0.16283
 H419 H 1.16099 0.24097 0.19373
 H420 H 1.15766 0.18096 0.24602
 C421 C 0.65465 1.03601 0.55349
 C422 C 0.67399 1.03630 0.57166
 C423 C 0.69389 1.05328 0.56985
 C424 C 0.69447 1.07044 0.54975
 C425 C 0.67519 1.07017 0.53184
 C426 C 0.65529 1.05277 0.53365
 C427 C 0.63295 1.02175 0.55080
 N428 N 0.62068 1.02953 0.52975
 C429 C 0.63403 1.04840 0.51909
 C430 C 0.68113 1.08780 0.51389
 N431 N 0.70335 1.09873 0.52058
 C432 C 0.71193 1.08827 0.54223
 C433 C 0.70972 1.04912 0.59023
 N434 N 0.69964 1.03017 0.60404
 C435 C 0.67792 1.02223 0.59297
 H436 H 0.62629 1.00732 0.56346
 H437 H 0.62827 1.05860 0.50246
 H438 H 0.67088 1.09136 0.49655
 H439 H 0.73006 1.09231 0.55100
 H440 H 0.72690 1.05931 0.59489
 H441 H 0.66576 1.00753 0.60013
 C442 C 0.55410 0.54993 0.15702
 C443 C 0.56890 0.54573 0.17846
 C444 C 0.56994 0.56367 0.19749
 C445 C 0.55634 0.58608 0.19520
 C446 C 0.54170 0.59042 0.17386
 C447 C 0.54055 0.57211 0.15448
 C448 C 0.55186 0.53662 0.13486
 N449 N 0.53732 0.54998 0.11892
 C450 C 0.53019 0.57180 0.13041
 C451 C 0.53216 0.61448 0.17625
 N452 N 0.54081 0.62440 0.19841
 C453 C 0.55561 0.60738 0.21006
 C454 C 0.58814 0.55612 0.21438
 N455 N 0.59813 0.53416 0.20579
 C456 C 0.58658 0.52756 0.18392
 H457 H 0.56114 0.51906 0.13013
 H458 H 0.51955 0.58669 0.12155
 H459 H 0.52026 0.62414 0.16280
 H460 H 0.56534 0.61046 0.22785
 H461 H 0.59500 0.56674 0.23053
 H462 H 0.59200 0.51180 0.17203
 C463 C 0.66765 0.69009 0.20936
 C464 C 0.68609 0.67127 0.21049
 C465 C 0.70576 0.67074 0.19310
 C466 C 0.70722 0.68924 0.17438
 C467 C 0.68892 0.70798 0.17332
 C468 C 0.66891 0.70835 0.19090
 C469 C 0.64544 0.69357 0.22250
 N470 N 0.63323 0.71342 0.21251
 C471 C 0.64719 0.72275 0.19316
 C472 C 0.69417 0.72231 0.15238
 N473 N 0.71513 0.71267 0.14092
 C474 C 0.72322 0.69248 0.15401
 C475 C 0.71953 0.64920 0.19755
 N476 N 0.70855 0.63700 0.21709
 C477 C 0.68808 0.65019 0.22518
 H478 H 0.63808 0.68191 0.23747
 H479 H 0.64148 0.73800 0.18106
 H480 H 0.68315 0.73799 0.14554
 H481 H 0.73909 0.68066 0.14866
 H482 H 0.73564 0.64236 0.18681
 H483 H 0.67511 0.64439 0.23989
 C484 C 0.16438 0.08776 1.05579
 C485 C 0.18507 0.10427 1.05872
 C486 C 0.20307 0.10034 1.07750
 C487 C 0.20052 0.07952 1.09354
 C488 C 0.18016 0.06321 1.09036
 C489 C 0.16202 0.06736 1.07158
 C490 C 0.14352 0.08746 1.03994
 N491 N 0.12887 0.06743 1.04595
 C492 C 0.13988 0.05497 1.06527
 C493 C 0.18145 0.04557 1.10900
 N494 N 0.20195 0.05068 1.12344
 C495 C 0.21390 0.07137 1.11443
 C496 C 0.22038 0.11997 1.07631
 N497 N 0.21312 0.13524 1.05721
 C498 C 0.19171 0.12596 1.04650
 H499 H 0.13912 0.10093 1.02540
 H500 H 0.13226 0.03839 1.07418
 H501 H 0.16791 0.03073 1.11255
 H502 H 0.23029 0.08030 1.12297
 H503 H 0.23662 0.12304 1.08846
 H504 H 0.18149 0.13467 1.03116
 C505 C 0.56615 0.19589 0.54851
 C506 C 0.54696 0.19929 0.56649
 C507 C 0.52611 0.18355 0.56652
 C508 C 0.52427 0.16428 0.54858
 C509 C 0.54352 0.16042 0.53100
 C510 C 0.56469 0.17649 0.53087
 C511 C 0.58954 0.20683 0.54616
 N512 N 0.60222 0.19477 0.52751
 C513 C 0.58753 0.17605 0.51791
 C514 C 0.53877 0.13759 0.51941
 N515 N 0.51722 0.12810 0.52966
 C516 C 0.50820 0.14414 0.54731
 C517 C 0.51305 0.18780 0.58868
 N518 N 0.52565 0.20564 0.60192
 C519 C 0.54629 0.21301 0.58859
 H520 H 0.59716 0.22202 0.55759
 H521 H 0.59325 0.16284 0.50332
 H522 H 0.55104 0.12778 0.50620
 H523 H 0.49243 0.14029 0.55982
 H524 H 0.49706 0.17718 0.59571
 H525 H 0.56091 0.22560 0.59550
 C526 C 0.06977 0.54315 0.73636
 C527 C 0.05276 0.56323 0.73817
 C528 C 0.03289 0.56512 0.72118
 C529 C 0.02975 0.54673 0.70230
 C530 C 0.04676 0.52689 0.70031
 C531 C 0.06704 0.52516 0.71742
 C532 C 0.09273 0.53914 0.74786
 N533 N 0.10399 0.51937 0.73634
 C534 C 0.08867 0.51053 0.71765
 C535 C 0.04104 0.51395 0.67830
 N536 N 0.02100 0.52552 0.66732
 C537 C 0.01401 0.54552 0.68162
 C538 C 0.02214 0.58851 0.72464
 N539 N 0.03518 0.60053 0.74326
 C540 C 0.05382 0.58537 0.75172
 H541 H 0.10154 0.55092 0.76216
 H542 H 0.09368 0.49593 0.70418
 H543 H 0.05142 0.49827 0.67025
 H544 H -0.00052 0.55891 0.67656
 H545 H 0.00738 0.59682 0.71323
 H546 H 0.06825 0.59085 0.76525
 C547 C 0.67416 0.56179 0.07649
 C548 C 0.69124 0.56269 0.09682
 C549 C 0.70897 0.58186 0.09849
 C550 C 0.70982 0.60036 0.07989
 C551 C 0.69294 0.59959 0.05978
 C552 C 0.67504 0.58010 0.05804
 C553 C 0.65399 0.54620 0.07090
 N554 N 0.64290 0.55458 0.04951
 C555 C 0.65545 0.57528 0.04143
 C556 C 0.69708 0.62087 0.04567
 N557 N 0.71606 0.63413 0.05688
 C558 C 0.72399 0.62190 0.07770
 C559 C 0.72194 0.57900 0.12088
 N560 N 0.71247 0.55860 0.13261
 C561 C 0.69370 0.54842 0.11822
 H562 H 0.64745 0.53039 0.08183
 H563 H 0.65025 0.58638 0.02522
 H564 H 0.68669 0.62659 0.02905
 H565 H 0.73841 0.62865 0.09065
 H566 H 0.73653 0.59122 0.12849
 H567 H 0.68222 0.53240 0.12334
 C568 C 0.06663 0.69722 0.58934
 C569 C 0.08408 0.69639 0.56928
 C570 C 0.08386 0.67634 0.55241
 C571 C 0.06624 0.65683 0.55545
 C572 C 0.04900 0.65757 0.57535
 C573 C 0.04914 0.67799 0.59245
 C574 C 0.06376 0.71359 0.60941
 N575 N 0.04500 0.70492 0.62446
 C576 C 0.03584 0.68313 0.61450
 C577 C 0.03517 0.63557 0.57422
 N578 N 0.04367 0.62182 0.55416
 C579 C 0.06258 0.63450 0.54259
 C580 C 0.10388 0.67965 0.53594
 N581 N 0.11605 0.70121 0.54256
 C582 C 0.10425 0.71158 0.56286
 H583 H 0.07513 0.73010 0.61336
 H584 H 0.02150 0.67145 0.62314
 H585 H 0.02036 0.62985 0.58714
 H586 H 0.07311 0.62775 0.52632
 H587 H 0.10975 0.66690 0.52099
 H588 H 0.11048 0.72836 0.57274
 C589 C 0.57282 1.05364 0.65081
 C590 C 0.59356 1.05199 0.66735
 C591 C 0.59767 1.07060 0.68543
 C592 C 0.58113 1.09128 0.68701
 C593 C 0.56060 1.09287 0.67066
 C594 C 0.55640 1.07393 0.65253
 C595 C 0.56191 1.03633 0.63457
 N596 N 0.53952 1.04580 0.62648
 C597 C 0.53579 1.06859 0.63738
 C598 C 0.54563 1.11253 0.67892
 N599 N 0.55678 1.12299 0.69951
 C600 C 0.57829 1.11015 0.70486
 C601 C 0.61809 1.06310 0.69989
 N602 N 0.62630 1.04060 0.69078
 C603 C 0.61155 1.03361 0.67099
 H604 H 0.56842 1.01734 0.63105
 H605 H 0.51834 1.07925 0.63639
 H606 H 0.52697 1.11738 0.67191
 H607 H 0.58961 1.11278 0.72176
 H608 H 0.62649 1.07331 0.71557
 H609 H 0.61388 1.01651 0.66004
 C610 C 0.45831 0.35286 0.91874
 C611 C 0.45827 0.33209 0.90234
 C612 C 0.44186 0.31237 0.90655
 C613 C 0.42571 0.31284 0.92731
 C614 C 0.42598 0.33297 0.94417
 C615 C 0.44259 0.35336 0.93984
 C616 C 0.47389 0.37345 0.92000
 N617 N 0.46834 0.38649 0.94133
 C618 C 0.44946 0.37441 0.95388
 C619 C 0.40804 0.32758 0.96250
 N620 N 0.39743 0.30493 0.95658
 C621 C 0.40807 0.29584 0.93528
 C622 C 0.44611 0.29445 0.88826
 N623 N 0.46506 0.30277 0.87342
 C624 C 0.47274 0.32576 0.88159
 H625 H 0.48983 0.37728 0.90769
 H626 H 0.44287 0.37926 0.97269
 H627 H 0.40250 0.33949 0.97824
 H628 H 0.40275 0.27845 0.92593
 H629 H 0.43647 0.27662 0.88602
 H630 H 0.48755 0.33692 0.87303
 C631 C 0.93418 0.43145 0.35665
 C632 C 0.94163 0.41914 0.33404
 C633 C 0.92550 0.41936 0.31328
 C634 C 0.90215 0.43158 0.31449
 C635 C 0.89486 0.44364 0.33652
 C636 C 0.91068 0.44320 0.35776
 C637 C 0.94654 0.43730 0.37912
 N638 N 0.93072 0.45166 0.39356
 C639 C 0.90889 0.45524 0.38068
 C640 C 0.87187 0.45492 0.33189
 N641 N 0.86521 0.44953 0.30766
 C642 C 0.88333 0.43510 0.29684
 C643 C 0.93627 0.40521 0.29446
 N644 N 0.95839 0.39599 0.30311
 C645 C 0.96218 0.40431 0.32724
 H646 H 0.96624 0.43353 0.38348
 H647 H 0.89397 0.46809 0.38638
 H648 H 0.86079 0.46606 0.34508
 H649 H 0.88300 0.42815 0.27755
 H650 H 0.92777 0.40033 0.27644
 H651 H 0.97756 0.39852 0.33942
 C652 C 0.30101 0.90893 0.39831
 C653 C 0.30892 0.88858 0.41270
 C654 C 0.32696 0.89181 0.43144
 C655 C 0.33744 0.91564 0.43585
 C656 C 0.32905 0.93621 0.42211
 C657 C 0.31042 0.93284 0.40322
 C658 C 0.28089 0.91112 0.38211
 N659 N 0.27770 0.93563 0.37700
 C660 C 0.29527 0.94937 0.38984
 C661 C 0.33934 0.95736 0.43354
 N662 N 0.35381 0.94978 0.45324
 C663 C 0.35262 0.92455 0.45509
 C664 C 0.32705 0.87019 0.44563
 N665 N 0.30929 0.85445 0.43596
 C666 C 0.29824 0.86529 0.41574
 H667 H 0.26807 0.89626 0.37626
 H668 H 0.29575 0.96967 0.39090
 H669 H 0.33528 0.97671 0.42896
 H670 H 0.36066 0.91372 0.47035
 H671 H 0.33748 0.86707 0.46294
 H672 H 0.28219 0.85771 0.40541
 O673 O 0.28846 0.41893 0.74119
 O674 O 0.27928 0.42611 0.69704
 O675 O 0.31858 0.48917 0.76637
 O676 O 0.30645 0.52948 0.76580
 O677 O 0.26134 0.45190 0.80946
 O678 O 0.21570 0.44887 0.80530
 O679 O 0.23421 0.54564 0.71096
 O680 O 0.27992 0.54281 0.70925
 O681 O 0.20797 0.47781 0.68026
 O682 O 0.21657 0.43284 0.68984
 O683 O 0.17841 0.50543 0.74826
 O684 O 0.19334 0.50560 0.79300
 O685 O 0.20751 0.54309 0.74457
 O686 O 0.21623 0.53551 0.78937
 O687 O 0.17808 0.47479 0.71812
 O688 O 0.19271 0.43088 0.71936
 O689 O 0.23420 0.51144 0.67668
 O690 O 0.27877 0.51492 0.67862
 O691 O 0.26179 0.41647 0.77491
 O692 O 0.21615 0.41995 0.77747
 O693 O 0.28780 0.48534 0.80505
 O694 O 0.27714 0.52913 0.79598
 O695 O 0.31854 0.45835 0.73628
 O696 O 0.30367 0.45705 0.69307
 Zr697 Zr 0.28027 0.45432 0.72540
 O698 O 0.25263 0.47300 0.70385
 Zr699 Zr 0.28018 0.49962 0.76903
 O700 O 0.25260 0.52027 0.74940
 Zr701 Zr 0.24157 0.45053 0.77480
 O702 O 0.21222 0.46902 0.75539
 Zr703 Zr 0.25480 0.51187 0.71065
 O704 O 0.28465 0.49345 0.72982
 Zr705 Zr 0.21618 0.46296 0.71623
 O706 O 0.24385 0.44182 0.73593
 Zr707 Zr 0.21628 0.50800 0.76022
 O708 O 0.24393 0.48935 0.78217
 O709 O 0.27787 0.46103 0.76397
 O710 O 0.21814 0.50178 0.72128
 C711 C 0.27951 0.40762 0.76064
 C712 C 0.32976 0.47252 0.75260
 C713 C 0.27892 0.46673 0.81745
 C714 C 0.21668 0.55455 0.72544
 C715 C 0.21680 0.49673 0.66819
 C716 C 0.16711 0.49171 0.73163
 H717 H 0.25511 0.46881 0.68578
 H718 H 0.19566 0.46300 0.76167
 H719 H 0.29125 0.45208 0.77340
 H720 H 0.25511 0.53839 0.75270
 H721 H 0.29678 0.53669 0.71473
 H722 H 0.29780 0.54336 0.75701
 H723 H 0.18427 0.43164 0.73604
 H724 H 0.21640 0.41132 0.76081
 H725 H 0.28056 0.49803 0.67094
 H726 H 0.31040 0.47440 0.69297
 H727 H 0.18370 0.48969 0.79202
 H728 H 0.21595 0.46562 0.81356
 H729 H 0.26392 0.41594 0.70030
 H730 H 0.23004 0.43624 0.67730
 H731 H 0.26295 0.52481 0.80742
 H732 H 0.23004 0.54754 0.78579
 O733 O 0.17347 0.04106 0.25560
 O734 O 0.17615 0.03033 0.29993
 O735 O 0.24810 0.06558 0.23851
 O736 O 0.28821 0.04962 0.24448
 O737 O 0.21130 0.01472 0.18970
 O738 O 0.20381 -0.03018 0.19038
 O739 O 0.29090 -0.02693 0.29721
 O740 O 0.29488 0.01790 0.29905
 O741 O 0.21821 -0.04432 0.31776
 O742 O 0.17495 -0.03118 0.30321
 O743 O 0.24924 -0.07536 0.25030
 O744 O 0.25644 -0.05712 0.20685
 O745 O 0.28945 -0.05095 0.26153
 O746 O 0.28934 -0.04077 0.21735
 O747 O 0.21491 -0.07286 0.27625
 O748 O 0.17393 -0.05422 0.27398
 O749 O 0.25470 -0.02305 0.32612
 O750 O 0.26225 0.02217 0.32563
 O751 O 0.17188 0.01608 0.22052
 O752 O 0.17220 -0.02830 0.21410
 O753 O 0.24696 0.03734 0.19820
 O754 O 0.28830 0.02230 0.21127
 O755 O 0.21477 0.06715 0.26588
 O756 O 0.20889 0.05152 0.30764
 Zr757 Zr 0.20688 0.02957 0.27420
 O758 O 0.22068 -0.00011 0.29610
 Zr759 Zr 0.25649 0.02687 0.23538
 O760 O 0.27244 -0.00336 0.25561
 Zr761 Zr 0.20455 -0.00626 0.22251
 O762 O 0.21784 -0.03755 0.24223
 Zr763 Zr 0.26046 -0.00180 0.29342
 O764 O 0.24692 0.03018 0.27402
 Zr765 Zr 0.20804 -0.03425 0.28065
 O766 O 0.19178 -0.00441 0.26022
 Zr767 Zr 0.25771 -0.03760 0.24186
 O768 O 0.24431 -0.00754 0.21951
 O769 O 0.21713 0.02802 0.23635
 O770 O 0.24749 -0.03645 0.27994
 C771 C 0.16296 0.03346 0.23497
 C772 C 0.23086 0.07749 0.25109
 C773 C 0.22849 0.03078 0.18372
 C774 C 0.29896 -0.04497 0.28305
 C775 C 0.23690 -0.03827 0.33219
 C776 C 0.23142 -0.08529 0.26347
 H777 H 0.21487 0.00225 0.31372
 H778 H 0.21059 -0.05277 0.23421
 H779 H 0.21004 0.04219 0.22671
 H780 H 0.29117 -0.00290 0.25459
 H781 H 0.29188 0.03537 0.29358
 H782 H 0.30122 0.03873 0.25220
 H783 H 0.17415 -0.05993 0.25614
 H784 H 0.16155 -0.02821 0.22952
 H785 H 0.24539 0.02228 0.33385
 H786 H 0.22703 0.05573 0.31016
 H787 H 0.23979 -0.06563 0.20568
 H788 H 0.22128 -0.03052 0.18349
 H789 H 0.16440 0.01680 0.29458
 H790 H 0.17864 -0.01939 0.31729
 H791 H 0.28431 0.00823 0.19957
 H792 H 0.30118 -0.02695 0.22155
 O793 O 0.42564 0.75447 0.26823
 O794 O 0.43652 0.71216 0.26145
 O795 O 0.48770 0.78514 0.30875
 O796 O 0.53256 0.78348 0.30232
 O797 O 0.46062 0.82595 0.24567
 O798 O 0.45737 0.82283 0.20469
 O799 O 0.56087 0.73012 0.23287
 O800 O 0.55321 0.72418 0.27521
 O801 O 0.49770 0.70005 0.19535
 O802 O 0.45400 0.70678 0.19514
 O803 O 0.52912 0.76948 0.17346
 O804 O 0.52342 0.81082 0.18730
 O805 O 0.56129 0.76421 0.20740
 O806 O 0.55102 0.80883 0.21856
 O807 O 0.49960 0.73890 0.16748
 O808 O 0.45112 0.73991 0.17673
 O809 O 0.52656 0.69556 0.22686
 O810 O 0.52259 0.70038 0.27534
 O811 O 0.42487 0.78918 0.24358
 O812 O 0.43631 0.78995 0.19674
 O813 O 0.49025 0.82322 0.27681
 O814 O 0.53532 0.81325 0.27702
 O815 O 0.45992 0.75275 0.30404
 O816 O 0.46558 0.70916 0.28812
 Zr817 Zr 0.46305 0.74167 0.26563
 O818 O 0.48604 0.72169 0.23982
 Zr819 Zr 0.50556 0.78688 0.27300
 O820 O 0.53124 0.76813 0.24881
 Zr821 Zr 0.46183 0.79090 0.22765
 O822 O 0.48648 0.77400 0.20112
 Zr823 Zr 0.52415 0.72930 0.24823
 O824 O 0.50115 0.74765 0.27570
 Zr825 Zr 0.48117 0.73506 0.20279
 O826 O 0.45495 0.75208 0.22810
 Zr827 Zr 0.52462 0.77950 0.21151
 O828 O 0.50013 0.79983 0.23587
 O829 O 0.46757 0.78039 0.26486
 O830 O 0.51940 0.74069 0.21099
 C831 C 0.41438 0.77344 0.25874
 C832 C 0.47045 0.77031 0.31724
 C833 C 0.47317 0.83504 0.26435
 C834 C 0.57184 0.74489 0.21720
 C835 C 0.51483 0.68764 0.20695
 C836 C 0.51777 0.75309 0.15971
 H837 H 0.48202 0.70362 0.24102
 H838 H 0.48309 0.78073 0.18410
 H839 H 0.45620 0.78979 0.27643
 H840 H 0.54880 0.77168 0.25433
 H841 H 0.55615 0.74071 0.28331
 H842 H 0.53100 0.76619 0.30882
 H843 H 0.45578 0.75376 0.16530
 H844 H 0.42506 0.77528 0.19912
 H845 H 0.50975 0.68803 0.26959
 H846 H 0.48061 0.71134 0.29916
 H847 H 0.51371 0.82407 0.19631
 H848 H 0.47143 0.82252 0.19232
 H849 H 0.42903 0.71394 0.24440
 H850 H 0.45164 0.69728 0.21093
 H851 H 0.53467 0.82411 0.26196
 H852 H 0.56301 0.80331 0.23176
 O853 O 0.03141 0.77729 0.82888
 O854 O 0.06903 0.77793 0.81282
 O855 O -0.00927 0.81710 0.76647
 O856 O -0.01965 0.80769 0.72715
 O857 O -0.04567 0.75881 0.80990
 O858 O -0.04425 0.71453 0.80782
 O859 O 0.03341 0.73556 0.69394
 O860 O 0.03684 0.77890 0.69822
 O861 O 0.07181 0.70257 0.75239
 O862 O 0.07403 0.70860 0.79580
 O863 O -0.00245 0.67913 0.73652
 O864 O -0.04395 0.69516 0.74350
 O865 O -0.00040 0.71005 0.70076
 O866 O -0.04479 0.72354 0.71767
 O867 O 0.03313 0.67538 0.76045
 O868 O 0.04036 0.68692 0.80583
 O869 O 0.07170 0.73153 0.72112
 O870 O 0.06988 0.77892 0.72395
 O871 O -0.00442 0.75479 0.83645
 O872 O -0.01025 0.70985 0.82866
 O873 O -0.04751 0.78755 0.77851
 O874 O -0.04796 0.77824 0.73103
 O875 O 0.02671 0.81370 0.78987
 O876 O 0.06980 0.79478 0.77877
 Zr877 Zr 0.03661 0.77514 0.78950
 O878 O 0.05287 0.74782 0.76547
 Zr879 Zr -0.01580 0.77976 0.75500
 O880 O -0.00082 0.75401 0.72803
 Zr881 Zr -0.01282 0.73826 0.80114
 O882 O 0.00034 0.71023 0.77606
 Zr883 Zr 0.03913 0.75369 0.72875
 O884 O 0.02422 0.78244 0.75255
 Zr885 Zr 0.04012 0.71174 0.77472
 O886 O 0.02718 0.73858 0.80146
 Zr887 Zr -0.01120 0.71759 0.73875
 O888 O -0.02792 0.74352 0.76468
 O889 O -0.00267 0.77474 0.79164
 O890 O 0.02829 0.71728 0.73769
 C891 C 0.01425 0.76860 0.84364
 C892 C 0.00885 0.82660 0.77963
 C893 C -0.05597 0.77758 0.79900
 C894 C 0.01760 0.71858 0.68679
 C895 C 0.08117 0.71234 0.73237
 C896 C 0.01568 0.66627 0.74606
 H897 H 0.07159 0.74875 0.76651
 H898 H -0.00597 0.69378 0.78180
 H899 H -0.00890 0.78753 0.80385
 H900 H -0.00701 0.75803 0.71090
 H901 H 0.03072 0.79505 0.70536
 H902 H -0.01083 0.80143 0.71185
 H903 H 0.02414 0.67758 0.80593
 H904 H 0.00749 0.70988 0.83482
 H905 H 0.08402 0.77346 0.73489
 H906 H 0.06501 0.80596 0.76471
 H907 H -0.04330 0.68836 0.76081
 H908 H -0.05548 0.71595 0.79291
 H909 H 0.07740 0.76134 0.81210
 H910 H 0.07222 0.72000 0.81056
 H911 H -0.06006 0.76622 0.73857
 H912 H -0.04036 0.73347 0.70259
 O913 O -0.06242 0.02415 -0.05269
 O914 O -0.05236 0.06644 -0.04682
 O915 O 0.01025 -0.00611 -0.07754
 O916 O 0.04969 -0.00750 -0.06179
 O917 O -0.03417 -0.04614 -0.02326
 O918 O -0.04272 -0.04068 0.02040
 O919 O 0.06250 0.05020 0.00961
 O920 O 0.06365 0.05207 -0.03379
 O921 O -0.00648 0.08050 0.03362
 O922 O -0.05122 0.07525 0.01770
 O923 O 0.01368 0.01386 0.06321
 O924 O 0.01609 -0.02936 0.04932
 O925 O 0.05544 0.01847 0.03712
 O926 O 0.04704 -0.02760 0.02758
 O927 O -0.01799 0.04264 0.06016
 O928 O -0.05922 0.04534 0.03928
 O929 O 0.02962 0.08270 0.01028
 O930 O 0.03329 0.08033 -0.03835
 O931 O -0.06827 -0.01074 -0.02895
 O932 O -0.06948 -0.01158 0.01719
 O933 O 0.00209 -0.04440 -0.04643
 O934 O 0.04573 -0.03555 -0.03212
 O935 O -0.01919 0.02496 -0.08083
 O936 O -0.01831 0.06847 -0.06605
 Zr937 Zr -0.02586 0.03694 -0.04326
 O938 O -0.00921 0.05838 -0.01394
 Zr939 Zr 0.01711 -0.00844 -0.03844
 O940 O 0.03629 0.01149 -0.00952
 Zr941 Zr -0.03615 -0.01107 -0.00511
 O942 O -0.01917 0.00779 0.02560
 Zr943 Zr 0.02966 0.05020 -0.01262
 O944 O 0.01357 0.03061 -0.04371
 Zr945 Zr -0.02345 0.04673 0.02113
 O946 O -0.04272 0.02771 -0.00847
 Zr947 Zr 0.02045 0.00211 0.02562
 O948 O 0.00282 -0.01982 -0.00319
 O949 O -0.02165 -0.00171 -0.04022
 O950 O 0.01561 0.04064 0.02286
 C951 C -0.07547 0.00510 -0.04568
 C952 C -0.00443 0.00816 -0.09042
 C953 C -0.01785 -0.05577 -0.03853
 C954 C 0.06886 0.03677 0.02856
 C955 C 0.01453 0.09104 0.02754
 C956 C -0.00262 0.02910 0.07290
 H957 H -0.01229 0.07644 -0.01664
 H958 H -0.02728 0.00166 0.04122
 H959 H -0.02996 -0.01111 -0.05417
 H960 H 0.05465 0.00777 -0.01036
 H961 H 0.05986 0.04483 -0.05068
 H962 H 0.06255 0.00281 -0.05291
 H963 H -0.06075 0.02865 0.04718
 H964 H -0.07845 0.00443 0.01413
 H965 H 0.02177 0.09406 -0.03302
 H966 H -0.00029 0.06723 -0.07123
 H967 H -0.00190 -0.02993 0.05462
 H968 H -0.02613 -0.04894 0.02309
 H969 H -0.06154 0.06737 -0.03051
 H970 H -0.04401 0.08894 0.00744
 H971 H 0.03976 -0.04626 -0.01813
 H972 H 0.06172 -0.02321 0.01683
 O973 O -0.00854 0.55255 0.56544
 O974 O -0.05371 0.54844 0.56892
 O975 O 0.01688 0.48028 0.59134
 O976 O 0.00940 0.43996 0.58049
 O977 O 0.04846 0.51152 0.52391
 O978 O 0.03402 0.51573 0.48146
 O979 O -0.06152 0.42734 0.52660
 O980 O -0.05276 0.43293 0.57058
 O981 O -0.09228 0.49880 0.50582
 O982 O -0.07940 0.54006 0.50800
 O983 O -0.03585 0.46472 0.45913
 O984 O 0.01041 0.45912 0.46412
 O985 O -0.03714 0.42648 0.49118
 O986 O 0.00863 0.43002 0.48730
 O987 O -0.06005 0.49934 0.46611
 O988 O -0.05184 0.54315 0.48287
 O989 O -0.09275 0.46617 0.53314
 O990 O -0.08120 0.46228 0.57392
 O991 O 0.01816 0.55156 0.53169
 O992 O 0.01009 0.54613 0.48702
 O993 O 0.04787 0.47940 0.55186
 O994 O 0.03196 0.43727 0.54525
 O995 O -0.00827 0.51449 0.59733
 O996 O -0.05363 0.51866 0.59423
 Zr997 Zr -0.02822 0.51825 0.56326
 O998 O -0.05764 0.50142 0.54247
 Zr999 Zr 0.00942 0.46918 0.55366
 O1000 O -0.01850 0.45023 0.53228
 Zr1001 Zr 0.01025 0.51680 0.51366
 O1002 O -0.01761 0.49979 0.49065
 Zr1003 Zr -0.05461 0.46219 0.54386
 O1004 O -0.02682 0.47903 0.56747
 Zr1005 Zr -0.05384 0.50966 0.50398
 O1006 O -0.02594 0.52924 0.52525
 Zr1007 Zr -0.01640 0.46046 0.49393
 O1008 O 0.01366 0.47742 0.51495
 O1009 O 0.00802 0.50808 0.55170
 O1010 O -0.05308 0.47044 0.50526
 C1011 C 0.00862 0.56233 0.55142
 C1012 C 0.00829 0.49854 0.60491
 C1013 C 0.05943 0.49615 0.53901
 C1014 C -0.05296 0.41649 0.50663
 C1015 C -0.10381 0.48201 0.51876
 C1016 C -0.05108 0.48201 0.45173
 H1017 H -0.07404 0.50739 0.54930
 H1018 H -0.01462 0.50538 0.47314
 H1019 H 0.02142 0.51645 0.56182
 H1020 H -0.01625 0.43200 0.53461
 H1021 H -0.04316 0.43942 0.58537
 H1022 H -0.00295 0.42714 0.57475
 H1023 H -0.03945 0.54041 0.46906
 H1024 H -0.00442 0.55714 0.49140
 H1025 H -0.08286 0.47979 0.58000
 H1026 H -0.05276 0.50184 0.60199
 H1027 H 0.00979 0.47541 0.45533
 H1028 H 0.03977 0.49814 0.47948
 H1029 H -0.05349 0.55835 0.55319
 H1030 H -0.08351 0.54169 0.52617
 H1031 H 0.03916 0.43978 0.52818
 H1032 H 0.00836 0.41928 0.50244
 O1033 O 0.54977 0.00894 0.50581
 O1034 O 0.53987 -0.00180 0.46155
 O1035 O 0.49130 0.05686 0.52745
 O1036 O 0.44949 0.05737 0.53144
 O1037 O 0.51005 -0.00766 0.57552
 O1038 O 0.50438 -0.05057 0.57191
 O1039 O 0.41093 -0.00775 0.47701
 O1040 O 0.42723 0.03359 0.47330
 O1041 O 0.46434 -0.05718 0.45113
 O1042 O 0.50901 -0.05742 0.45185
 O1043 O 0.43351 -0.07043 0.51471
 O1044 O 0.43911 -0.05662 0.56012
 O1045 O 0.40644 -0.03114 0.51248
 O1046 O 0.41851 -0.02506 0.55769
 O1047 O 0.46509 -0.08293 0.48814
 O1048 O 0.51001 -0.08074 0.49022
 O1049 O 0.44059 -0.02209 0.44547
 O1050 O 0.45578 0.02289 0.44368
 O1051 O 0.54595 -0.01564 0.54049
 O1052 O 0.52899 -0.05987 0.54310
 O1053 O 0.48669 0.02779 0.57022
 O1054 O 0.44148 0.03123 0.56038
 O1055 O 0.52014 0.04687 0.49697
 O1056 O 0.51637 0.02897 0.45562
 Zr1057 Zr 0.51321 0.00873 0.48964
 O1058 O 0.48647 -0.01312 0.46949
 Zr1059 Zr 0.47070 0.02379 0.53384
 O1060 O 0.44203 0.00324 0.51535
 Zr1061 Zr 0.50734 -0.02654 0.54052
 O1062 O 0.47988 -0.04960 0.52289
 Zr1063 Zr 0.44982 0.00097 0.47645
 O1064 O 0.47675 0.02445 0.49445
 Zr1065 Zr 0.48592 -0.04969 0.48371
 O1066 O 0.51549 -0.02886 0.50150
 Zr1067 Zr 0.44342 -0.03418 0.52758
 O1068 O 0.47051 -0.01292 0.54810
 O1069 O 0.50723 0.01048 0.52858
 O1070 O 0.44937 -0.03585 0.48904
 C1071 C 0.55883 -0.00145 0.52571
 C1072 C 0.50952 0.06241 0.51228
 C1073 C 0.50045 0.01307 0.58357
 C1074 C 0.39758 -0.02049 0.49263
 C1075 C 0.44712 -0.04456 0.43967
 C1076 C 0.44412 -0.08656 0.49989
 H1077 H 0.49066 -0.01347 0.45127
 H1078 H 0.48114 -0.06679 0.52967
 H1079 H 0.51938 0.02138 0.53781
 H1080 H 0.42543 0.01127 0.51868
 H1081 H 0.43820 0.04805 0.47783
 H1082 H 0.43520 0.05400 0.51979
 H1083 H 0.52754 -0.07418 0.49146
 H1084 H 0.54178 -0.05950 0.52940
 H1085 H 0.46612 0.01311 0.43148
 H1086 H 0.50063 0.03897 0.45414
 H1087 H 0.45056 -0.07124 0.55835
 H1088 H 0.48644 -0.04972 0.57742
 H1089 H 0.54939 -0.01641 0.46802
 H1090 H 0.52531 -0.04878 0.45490
 H1091 H 0.44135 0.01710 0.57239
 H1092 H 0.41006 -0.00907 0.55345
 O1093 O 0.58170 0.55465 -0.01323
 O1094 O 0.58267 0.54776 -0.05779
 O1095 O 0.50993 0.59028 -0.00205
 O1096 O 0.46911 0.58177 -0.00741
 O1097 O 0.53332 0.52856 0.04587
 O1098 O 0.53483 0.48445 0.04046
 O1099 O 0.45720 0.51741 -0.07008
 O1100 O 0.46635 0.55965 -0.07059
 O1101 O 0.52925 0.48363 -0.08859
 O1102 O 0.56891 0.48287 -0.07259
 O1103 O 0.48471 0.45361 -0.02800
 O1104 O 0.47517 0.46640 0.01333
 O1105 O 0.45065 0.48831 -0.03966
 O1106 O 0.45148 0.49524 0.00806
 O1107 O 0.52207 0.45121 -0.04929
 O1108 O 0.56750 0.46503 -0.03987
 O1109 O 0.49783 0.51139 -0.09737
 O1110 O 0.50035 0.55676 -0.09303
 O1111 O 0.57576 0.52734 0.01899
 O1112 O 0.56715 0.48203 0.01788
 O1113 O 0.50432 0.55881 0.03728
 O1114 O 0.46166 0.55195 0.01873
 O1115 O 0.54644 0.58813 -0.02492
 O1116 O 0.55455 0.57370 -0.06740
 Zr1117 Zr 0.54921 0.55025 -0.03582
 O1118 O 0.53274 0.52527 -0.06190
 Zr1119 Zr 0.49632 0.55323 -0.00152
 O1120 O 0.47731 0.52907 -0.02690
 Zr1121 Zr 0.54017 0.51056 0.01110
 O1122 O 0.52231 0.48415 -0.01285
 Zr1123 Zr 0.49343 0.53137 -0.06312
 O1124 O 0.51019 0.55820 -0.03861
 Zr1125 Zr 0.53642 0.48813 -0.04968
 O1126 O 0.55635 0.51296 -0.02519
 Zr1127 Zr 0.48320 0.49158 -0.01629
 O1128 O 0.50052 0.51598 0.01078
 O1129 O 0.53521 0.54771 0.00079
 O1130 O 0.49730 0.49362 -0.05313
 C1131 C 0.58872 0.54416 0.00733
 C1132 C 0.52973 0.60021 -0.01207
 C1133 C 0.51898 0.54700 0.05247
 C1134 C 0.44359 0.50098 -0.05902
 C1135 C 0.51383 0.49436 -0.10385
 C1136 C 0.50221 0.44124 -0.03953
 H1137 H 0.54097 0.52758 -0.07850
 H1138 H 0.52560 0.46730 -0.00593
 H1139 H 0.54332 0.55990 0.01248
 H1140 H 0.45915 0.53371 -0.02694
 H1141 H 0.47209 0.57504 -0.06163
 H1142 H 0.45814 0.57620 -0.02155
 H1143 H 0.56204 0.45434 -0.02567
 H1144 H 0.58030 0.48346 0.00460
 H1145 H 0.51744 0.55345 -0.10002
 H1146 H 0.53795 0.58166 -0.07083
 H1147 H 0.49159 0.45975 0.01932
 H1148 H 0.51655 0.48493 0.04479
 H1149 H 0.59100 0.53178 -0.05325
 H1150 H 0.57462 0.49974 -0.07774
 H1151 H 0.46293 0.53784 0.03071
 H1152 H 0.44028 0.50841 0.00116
 O1153 O 0.76011 0.30178 0.48549
 O1154 O 0.75879 0.28645 0.53019
 O1155 O 0.80441 0.24523 0.44975
 O1156 O 0.80285 0.20328 0.44402
 O1157 O 0.73412 0.26996 0.41627
 O1158 O 0.69002 0.26007 0.42528
 O1159 O 0.74618 0.16242 0.50378
 O1160 O 0.78888 0.17746 0.50000
 O1161 O 0.70927 0.21980 0.54646
 O1162 O 0.70496 0.26411 0.54143
 O1163 O 0.67584 0.19043 0.47781
 O1164 O 0.68387 0.19761 0.43330
 O1165 O 0.71564 0.16134 0.47349
 O1166 O 0.71496 0.17656 0.42905
 O1167 O 0.67333 0.21617 0.51217
 O1168 O 0.67156 0.25719 0.51467
 O1169 O 0.74216 0.19255 0.54180
 O1170 O 0.78526 0.20098 0.53420
 O1171 O 0.72997 0.30095 0.45479
 O1172 O 0.68625 0.28520 0.45562
 O1173 O 0.76920 0.24521 0.41378
 O1174 O 0.77092 0.19974 0.41712
 O1175 O 0.79919 0.27249 0.48272
 O1176 O 0.79137 0.26550 0.52568
 Zr1177 Zr 0.76337 0.26424 0.49709
 O1178 O 0.74541 0.23643 0.51823
 Zr1179 Zr 0.76970 0.22543 0.44791
 O1180 O 0.75124 0.19605 0.46699
 Zr1181 Zr 0.71922 0.26272 0.45256
 O1182 O 0.69887 0.23510 0.47240
 Zr1183 Zr 0.75668 0.20048 0.50599
 O1184 O 0.77751 0.22846 0.48688
 Zr1185 Zr 0.70640 0.23773 0.51128
 O1186 O 0.72389 0.26791 0.49191
 Zr1187 Zr 0.71170 0.19903 0.46211
 O1188 O 0.73045 0.22669 0.44017
 O1189 O 0.75807 0.26123 0.45836
 O1190 O 0.71741 0.20136 0.50109
 C1191 C 0.74637 0.31248 0.46865
 C1192 C 0.81203 0.26312 0.46445
 C1193 C 0.75400 0.26173 0.40479
 C1194 C 0.73017 0.15071 0.48970
 C1195 C 0.72457 0.20299 0.55482
 C1196 C 0.66421 0.19926 0.49731
 H1197 H 0.74930 0.23973 0.53623
 H1198 H 0.68053 0.23725 0.46908
 H1199 H 0.76741 0.27434 0.44905
 H1200 H 0.75791 0.17975 0.46088
 H1201 H 0.80262 0.18848 0.49373
 H1202 H 0.79919 0.18659 0.45118
 H1203 H 0.67130 0.26953 0.50089
 H1204 H 0.68775 0.29501 0.47153
 H1205 H 0.78339 0.21667 0.54414
 H1206 H 0.80174 0.25013 0.52358
 H1207 H 0.67245 0.21215 0.43582
 H1208 H 0.69385 0.24510 0.41472
 H1209 H 0.74403 0.29756 0.52752
 H1210 H 0.70537 0.28106 0.53394
 H1211 H 0.75448 0.20107 0.40818
 H1212 H 0.73157 0.16795 0.42963
 O1213 O 0.78653 0.83392 0.01176
 O1214 O 0.78671 0.82161 0.05415
 O1215 O 0.82008 0.76775 -0.02426
 O1216 O 0.81111 0.72595 -0.02226
 O1217 O 0.75682 0.80111 -0.05935
 O1218 O 0.71255 0.80352 -0.05017
 O1219 O 0.74406 0.70271 0.03772
 O1220 O 0.78881 0.70690 0.03483
 O1221 O 0.71679 0.76694 0.07262
 O1222 O 0.72426 0.81350 0.06520
 O1223 O 0.68283 0.74239 0.00704
 O1224 O 0.69425 0.74432 -0.03903
 O1225 O 0.71417 0.70572 0.00697
 O1226 O 0.71803 0.71501 -0.03824
 O1227 O 0.68430 0.77191 0.03826
 O1228 O 0.69709 0.81579 0.03858
 O1229 O 0.74501 0.73472 0.07252
 O1230 O 0.79094 0.73496 0.06593
 O1231 O 0.75922 0.83640 -0.02142
 O1232 O 0.71425 0.83035 -0.02161
 O1233 O 0.78445 0.76834 -0.05972
 O1234 O 0.77927 0.72485 -0.05035
 O1235 O 0.82104 0.79702 0.00733
 O1236 O 0.81177 0.79182 0.05199
 Zr1237 Zr 0.78441 0.79638 0.02317
 O1238 O 0.75969 0.77560 0.04622
 Zr1239 Zr 0.78255 0.75386 -0.02288
 O1240 O 0.75773 0.73089 -0.00178
 Zr1241 Zr 0.74125 0.80101 -0.02241
 O1242 O 0.71465 0.78023 -0.00137
 Zr1243 Zr 0.76309 0.73731 0.03709
 O1244 O 0.79022 0.75790 0.01607
 Zr1245 Zr 0.72198 0.78461 0.03750
 O1246 O 0.74673 0.80772 0.01655
 Zr1247 Zr 0.71986 0.74166 -0.00835
 O1248 O 0.74459 0.76266 -0.03170
 O1249 O 0.77885 0.79211 -0.01563
 O1250 O 0.72518 0.74623 0.03038
 C1251 C 0.77552 0.84595 -0.00600
 C1252 C 0.83133 0.78492 -0.01112
 C1253 C 0.77263 0.78632 -0.07057
 C1254 C 0.72533 0.69392 0.02484
 C1255 C 0.72714 0.74771 0.08279
 C1256 C 0.67259 0.75532 0.02503
 H1257 H 0.76346 0.77909 0.06420
 H1258 H 0.69735 0.78580 -0.00584
 H1259 H 0.79013 0.80265 -0.02609
 H1260 H 0.76069 0.71305 -0.00615
 H1261 H 0.80494 0.71362 0.02807
 H1262 H 0.80374 0.71091 -0.01425
 H1263 H 0.68746 0.81583 0.02253
 H1264 H 0.71497 0.83784 -0.00443
 H1265 H 0.79040 0.75059 0.07611
 H1266 H 0.81930 0.77496 0.04950
 H1267 H 0.68363 0.75940 -0.03622
 H1268 H 0.71155 0.78681 -0.05844
 H1269 H 0.76975 0.82942 0.05581
 H1270 H 0.73632 0.80814 0.07841
 H1271 H 0.76265 0.72711 -0.05873
 H1272 H 0.73237 0.70323 -0.03623
 O1273 O 1.02426 0.29725 0.32897
 O1274 O 1.06790 0.29490 0.31434
 O1275 O 0.98616 0.33355 0.26989
 O1276 O 0.98434 0.32978 0.22703
 O1277 O 0.95420 0.26571 0.29734
 O1278 O 0.96453 0.22307 0.29471
 O1279 O 1.04238 0.27060 0.19004
 O1280 O 1.04213 0.31430 0.20347
 O1281 O 1.08461 0.23599 0.25045
 O1282 O 1.08067 0.23571 0.29579
 O1283 O 1.01878 0.20405 0.22323
 O1284 O 0.97235 0.21195 0.23152
 O1285 O 1.01325 0.23920 0.19173
 O1286 O 0.96913 0.23962 0.20630
 O1287 O 1.05115 0.20246 0.25150
 O1288 O 1.05244 0.21036 0.29867
 O1289 O 1.08135 0.26587 0.22030
 O1290 O 1.07753 0.30783 0.22571
 O1291 O 0.99402 0.26678 0.32990
 O1292 O 0.99573 0.22226 0.31827
 O1293 O 0.95105 0.29720 0.26880
 O1294 O 0.95782 0.29867 0.22364
 O1295 O 1.01916 0.33266 0.29754
 O1296 O 1.06386 0.32517 0.28846
 Zr1297 Zr 1.03553 0.29714 0.29087
 O1298 O 1.05749 0.27603 0.26505
 Zr1299 Zr 0.98695 0.29851 0.25119
 O1300 O 1.00684 0.27771 0.22353
 Zr1301 Zr 0.99153 0.25231 0.29279
 O1302 O 1.01136 0.22939 0.26695
 Zr1303 Zr 1.04608 0.28324 0.22779
 O1304 O 1.02606 0.30696 0.25354
 Zr1305 Zr 1.05016 0.23759 0.26987
 O1306 O 1.03061 0.25855 0.29784
 Zr1307 Zr 1.00164 0.23913 0.22979
 O1308 O 0.97934 0.26000 0.25576
 O1309 O 0.99666 0.29052 0.28817
 O1310 O 1.04063 0.24487 0.23231
 C1311 C 1.00741 0.28424 0.34042
 C1312 C 0.99967 0.34323 0.28780
 C1313 C 0.94169 0.28289 0.28591
 C1314 C 1.02870 0.25336 0.17970
 C1315 C 1.09318 0.24798 0.23138
 C1316 C 1.03779 0.19306 0.23352
 H1317 H 1.07565 0.28009 0.26741
 H1318 H 1.00771 0.21157 0.27047
 H1319 H 0.98628 0.30014 0.30047
 H1320 H 1.00083 0.28295 0.20668
 H1321 H 1.03812 0.32911 0.21422
 H1322 H 0.99462 0.32585 0.21186
 H1323 H 1.03828 0.19838 0.29625
 H1324 H 1.01280 0.22398 0.32588
 H1325 H 1.07864 0.31646 0.24226
 H1326 H 1.05884 0.33652 0.27462
 H1327 H 0.97729 0.19918 0.24404
 H1328 H 0.95646 0.22210 0.27785
 H1329 H 1.06711 0.27839 0.32274
 H1330 H 1.09006 0.25175 0.29493
 H1331 H 0.94906 0.28228 0.22474
 H1332 H 0.96969 0.25523 0.19635
 O1333 O 0.76170 1.06319 0.70992
 O1334 O 0.80637 1.05043 0.70691
 O1335 O 0.72436 1.00247 0.67177
 O1336 O 0.72159 0.96027 0.67625
 O1337 O 0.69708 1.03163 0.74250
 O1338 O 0.70949 1.02285 0.78615
 O1339 O 0.78742 0.92573 0.72872
 O1340 O 0.78206 0.93775 0.68602
 O1341 O 0.82999 0.98444 0.76189
 O1342 O 0.82466 1.03185 0.76201
 O1343 O 0.77000 0.95566 0.79753
 O1344 O 0.72150 0.96525 0.79495
 O1345 O 0.76154 0.92642 0.76317
 O1346 O 0.71731 0.93798 0.76697
 O1347 O 0.80048 0.98584 0.79754
 O1348 O 0.80103 1.03181 0.79207
 O1349 O 0.82455 0.95475 0.73127
 O1350 O 0.81408 0.96439 0.68559
 O1351 O 0.73532 1.06279 0.74404
 O1352 O 0.73920 1.04949 0.78652
 O1353 O 0.69222 1.00437 0.70949
 O1354 O 0.69769 0.95822 0.71051
 O1355 O 0.75669 1.03080 0.67135
 O1356 O 0.80090 1.02593 0.67597
 Zr1357 Zr 0.77491 1.02579 0.70639
 O1358 O 0.79965 1.00032 0.72413
 Zr1359 Zr 0.72717 0.98503 0.70728
 O1360 O 0.74973 0.95788 0.72546
 Zr1361 Zr 0.73455 1.02521 0.75502
 O1362 O 0.75778 1.00029 0.77521
 Zr1363 Zr 0.78821 0.96319 0.71634
 O1364 O 0.76533 0.98867 0.69578
 Zr1365 Zr 0.79560 1.00441 0.76334
 O1366 O 0.77289 1.03173 0.74573
 Zr1367 Zr 0.74810 0.96337 0.76495
 O1368 O 0.72279 0.98836 0.74677
 O1369 O 0.73698 1.02178 0.71592
 O1370 O 0.78609 0.96732 0.75532
 C1371 C 0.74649 1.07392 0.72580
 C1372 C 0.73729 1.02006 0.66126
 C1373 C 0.68422 1.02220 0.72406
 C1374 C 0.77668 0.91531 0.74775
 C1375 C 0.83745 0.96505 0.74925
 C1376 C 0.78984 0.96643 0.80682
 H1377 H 0.81732 1.00340 0.71874
 H1378 H 0.75588 1.00331 0.79357
 H1379 H 0.72649 1.03417 0.70686
 H1380 H 0.74388 0.94093 0.72044
 H1381 H 0.77317 0.94720 0.67265
 H1382 H 0.73085 0.94458 0.67992
 H1383 H 0.78721 1.02990 0.80457
 H1384 H 0.75673 1.05609 0.78553
 H1385 H 0.82848 0.97538 0.69032
 H1386 H 0.80065 1.00874 0.66871
 H1387 H 0.72926 0.97485 0.80905
 H1388 H 0.69912 1.00755 0.78348
 H1389 H 0.80698 1.05800 0.72406
 H1390 H 0.83566 1.02803 0.74731
 H1391 H 0.68963 0.96098 0.72722
 H1392 H 0.71493 0.93068 0.74988
 O1393 O 0.72471 0.46283 0.33278
 O1394 O 0.68179 0.46488 0.32012
 O1395 O 0.76206 0.43397 0.26714
 O1396 O 0.76845 0.44412 0.22725
 O1397 O 0.79324 0.49857 0.30715
 O1398 O 0.78479 0.53896 0.31148
 O1399 O 0.70231 0.50513 0.20012
 O1400 O 0.70487 0.46203 0.20464
 O1401 O 0.66324 0.53257 0.26380
 O1402 O 0.66711 0.53028 0.30757
 O1403 O 0.73030 0.56727 0.23932
 O1404 O 0.77300 0.56071 0.24620
 O1405 O 0.73211 0.53575 0.20449
 O1406 O 0.77846 0.53081 0.21755
 O1407 O 0.69724 0.56599 0.26688
 O1408 O 0.69752 0.55319 0.31451
 O1409 O 0.66609 0.50507 0.23080
 O1410 O 0.67454 0.45826 0.23281
 O1411 O 0.75462 0.49317 0.33824
 O1412 O 0.74917 0.54024 0.33108
 O1413 O 0.79673 0.46934 0.27574
 O1414 O 0.79107 0.47732 0.22879
 O1415 O 0.72922 0.43098 0.29487
 O1416 O 0.68382 0.44096 0.28820
 Zr1417 Zr 0.71303 0.46736 0.29518
 O1418 O 0.69064 0.49153 0.27321
 Zr1419 Zr 0.76201 0.47144 0.25577
 O1420 O 0.74087 0.49383 0.23091
 Zr1421 Zr 0.75627 0.51218 0.30335
 O1422 O 0.73697 0.53758 0.27988
 Zr1423 Zr 0.70173 0.48757 0.23532
 O1424 O 0.72306 0.46191 0.25701
 Zr1425 Zr 0.69815 0.52940 0.28222
 O1426 O 0.71728 0.50503 0.30730
 Zr1427 Zr 0.74622 0.53147 0.24160
 O1428 O 0.76901 0.50914 0.26554
 O1429 O 0.75167 0.47466 0.29346
 O1430 O 0.70732 0.52532 0.24415
 C1431 C 0.74147 0.47437 0.34604
 C1432 C 0.74831 0.42170 0.28280
 C1433 C 0.80533 0.48135 0.29518
 C1434 C 0.71503 0.52380 0.19178
 C1435 C 0.65450 0.52215 0.24373
 C1436 C 0.71097 0.57715 0.25028
 H1437 H 0.67252 0.48747 0.27576
 H1438 H 0.74082 0.55504 0.28510
 H1439 H 0.76161 0.46319 0.30420
 H1440 H 0.74618 0.49040 0.21329
 H1441 H 0.71393 0.44713 0.21109
 H1442 H 0.75631 0.44762 0.21349
 H1443 H 0.70932 0.56728 0.31146
 H1444 H 0.73439 0.53462 0.34111
 H1445 H 0.66077 0.46179 0.24505
 H1446 H 0.68798 0.43247 0.27200
 H1447 H 0.78680 0.55396 0.25685
 H1448 H 0.78297 0.55245 0.29893
 H1449 H 0.68110 0.48103 0.32951
 H1450 H 0.66049 0.51295 0.30855
 H1451 H 0.80167 0.49135 0.23519
 H1452 H 0.77513 0.51898 0.20342
 O1453 O 0.58444 0.22198 0.74045
 O1454 O 0.57781 0.22852 0.78460
 O1455 O 0.51496 0.18630 0.71749
 O1456 O 0.47405 0.19492 0.71611
 O1457 O 0.54533 0.25035 0.67423
 O1458 O 0.54900 0.29081 0.67886
 O1459 O 0.45273 0.26169 0.77872
 O1460 O 0.45979 0.21812 0.77879
 O1461 O 0.52012 0.29472 0.80589
 O1462 O 0.56458 0.29089 0.79581
 O1463 O 0.48561 0.32217 0.74245
 O1464 O 0.48740 0.31152 0.69855
 O1465 O 0.45150 0.28960 0.74653
 O1466 O 0.45741 0.28258 0.70090
 O1467 O 0.51886 0.32417 0.76977
 O1468 O 0.56540 0.31278 0.76468
 O1469 O 0.48787 0.26665 0.80939
 O1470 O 0.49142 0.21931 0.80597
 O1471 O 0.58307 0.25002 0.70837
 O1472 O 0.57404 0.29604 0.71001
 O1473 O 0.51510 0.22017 0.67782
 O1474 O 0.47026 0.22477 0.69047
 O1475 O 0.54667 0.18802 0.74661
 O1476 O 0.54906 0.20226 0.78922
 Zr1477 Zr 0.54846 0.22602 0.75746
 O1478 O 0.52805 0.25091 0.78106
 Zr1479 Zr 0.50173 0.22364 0.71531
 O1480 O 0.47888 0.24770 0.73760
 Zr1481 Zr 0.54702 0.26659 0.71022
 O1482 O 0.52581 0.29294 0.73119
 Zr1483 Zr 0.48894 0.24522 0.77584
 O1484 O 0.50932 0.21847 0.75408
 Zr1485 Zr 0.53440 0.28799 0.76955
 O1486 O 0.55754 0.26329 0.74828
 Zr1487 Zr 0.48679 0.28518 0.72820
 O1488 O 0.50788 0.26099 0.70411
 O1489 O 0.54057 0.22909 0.71905
 O1490 O 0.49536 0.28244 0.76638
 C1491 C 0.59440 0.23344 0.72162
 C1492 C 0.53198 0.17601 0.73141
 C1493 C 0.53157 0.23268 0.66513
 C1494 C 0.44168 0.27890 0.76587
 C1495 C 0.50122 0.28522 0.81758
 C1496 C 0.49967 0.33378 0.75861
 H1497 H 0.53313 0.24852 0.79884
 H1498 H 0.52969 0.31009 0.72535
 H1499 H 0.55031 0.21703 0.70848
 H1500 H 0.46081 0.24332 0.73520
 H1501 H 0.46650 0.20237 0.77127
 H1502 H 0.46171 0.19961 0.72942
 H1503 H 0.56121 0.32421 0.75067
 H1504 H 0.58577 0.29321 0.72431
 H1505 H 0.50481 0.22501 0.81780
 H1506 H 0.53158 0.19576 0.79120
 H1507 H 0.49461 0.30277 0.68359
 H1508 H 0.53687 0.30463 0.68208
 H1509 H 0.58614 0.24498 0.78215
 H1510 H 0.56428 0.27569 0.80637
 H1511 H 0.47250 0.23971 0.67971
 H1512 H 0.44651 0.26811 0.70515
 O1513 O 0.31772 0.71997 0.44730
 O1514 O 0.30679 0.67740 0.45287
 O1515 O 0.25118 0.74837 0.40966
 O1516 O 0.20981 0.75097 0.41662
 O1517 O 0.28554 0.78950 0.46956
 O1518 O 0.28291 0.78789 0.51402
 O1519 O 0.18392 0.69261 0.48707
 O1520 O 0.18985 0.69106 0.44317
 O1521 O 0.24888 0.66416 0.52045
 O1522 O 0.29255 0.67225 0.51979
 O1523 O 0.21743 0.73412 0.54579
 O1524 O 0.21836 0.77568 0.53137
 O1525 O 0.18416 0.72650 0.51347
 O1526 O 0.19373 0.77292 0.50126
 O1527 O 0.24589 0.70234 0.54937
 O1528 O 0.29453 0.70492 0.53959
 O1529 O 0.21821 0.65980 0.49054
 O1530 O 0.22055 0.66302 0.44352
 O1531 O 0.31905 0.75251 0.47542
 O1532 O 0.30796 0.75850 0.52019
 O1533 O 0.25377 0.78706 0.44055
 O1534 O 0.20690 0.77838 0.44704
 O1535 O 0.28272 0.71940 0.41238
 O1536 O 0.27661 0.67523 0.42638
 Zr1537 Zr 0.28021 0.70698 0.45041
 O1538 O 0.25838 0.68654 0.47652
 Zr1539 Zr 0.23666 0.75167 0.44630
 O1540 O 0.21188 0.73211 0.47051
 Zr1541 Zr 0.28187 0.75603 0.48990
 O1542 O 0.25852 0.73847 0.51672
 Zr1543 Zr 0.21978 0.69343 0.46969
 O1544 O 0.24155 0.71250 0.44207
 Zr1545 Zr 0.26425 0.69967 0.51377
 O1546 O 0.28927 0.71730 0.48811
 Zr1547 Zr 0.21993 0.74353 0.50768
 O1548 O 0.24339 0.76468 0.48329
 O1549 O 0.27503 0.74545 0.45275
 O1550 O 0.22578 0.70486 0.50693
 C1551 C 0.32942 0.73765 0.45905
 C1552 C 0.26987 0.73596 0.40021
 C1553 C 0.27277 0.79825 0.45094
 C1554 C 0.17370 0.70667 0.50408
 C1555 C 0.23102 0.65188 0.50961
 C1556 C 0.22833 0.71680 0.55828
 H1557 H 0.26272 0.66856 0.47484
 H1558 H 0.26255 0.74504 0.53379
 H1559 H 0.28642 0.75430 0.44094
 H1560 H 0.19400 0.73529 0.46588
 H1561 H 0.19636 0.69829 0.42726
 H1562 H 0.19587 0.73979 0.42197
 H1563 H 0.28940 0.71795 0.55203
 H1564 H 0.31714 0.74230 0.52064
 H1565 H 0.23552 0.65253 0.44730
 H1566 H 0.26103 0.67770 0.41625
 H1567 H 0.23563 0.77832 0.53820
 H1568 H 0.26622 0.79624 0.51238
 H1569 H 0.31494 0.67911 0.46965
 H1570 H 0.29422 0.66249 0.50389
 H1571 H 0.21149 0.79132 0.45979
 H1572 H 0.17944 0.76605 0.49123
 O1573 O 0.33328 0.27339 0.98650
 O1574 O 0.32846 0.22804 0.99118
 O1575 O 0.26235 0.29542 0.95605
 O1576 O 0.22091 0.29175 0.96735
 O1577 O 0.29707 0.33547 1.01679
 O1578 O 0.29725 0.32829 1.06295
 O1579 O 0.20558 0.23151 1.03392
 O1580 O 0.20925 0.23521 0.98808
 O1581 O 0.27105 0.20320 1.06065
 O1582 O 0.31455 0.20913 1.05302
 O1583 O 0.24651 0.26876 1.09466
 O1584 O 0.24220 0.31405 1.07946
 O1585 O 0.20755 0.26140 1.06480
 O1586 O 0.20964 0.30495 1.06145
 O1587 O 0.27869 0.24042 1.09238
 O1588 O 0.32296 0.24135 1.07347
 O1589 O 0.23973 0.20037 1.03133
 O1590 O 0.24022 0.20389 0.98918
 O1591 O 0.33387 0.30396 1.01677
 O1592 O 0.32860 0.30345 1.06099
 O1593 O 0.26306 0.33209 0.99050
 O1594 O 0.21966 0.32024 0.99797
 O1595 O 0.29536 0.26793 0.95462
 O1596 O 0.29916 0.22350 0.96611
 Zr1597 Zr 0.29836 0.25426 0.99170
 O1598 O 0.27919 0.22972 1.01630
 Zr1599 Zr 0.25050 0.29501 0.99423
 O1600 O 0.22990 0.27285 1.01979
 Zr1601 Zr 0.29870 0.30012 1.03453
 O1602 O 0.28078 0.27729 1.06129
 Zr1603 Zr 0.23984 0.23525 1.01400
 O1604 O 0.25865 0.25698 0.98641
 Zr1605 Zr 0.28805 0.23892 1.05386
 O1606 O 0.30939 0.26211 1.02912
 Zr1607 Zr 0.24131 0.28089 1.05715
 O1608 O 0.25930 0.30569 1.03170
 O1609 O 0.28962 0.29179 0.99723
 O1610 O 0.24890 0.24291 1.05169
 C1611 C 0.34365 0.29230 0.99794
 C1612 C 0.28030 0.28380 0.94429
 C1613 C 0.28182 0.34420 1.00002
 C1614 C 0.19674 0.24280 1.05362
 C1615 C 0.25239 0.19154 1.04988
 C1616 C 0.26249 0.25363 1.10471
 H1617 H 0.28355 0.21209 1.01220
 H1618 H 0.28707 0.28300 1.07798
 H1619 H 0.29856 0.30261 0.98503
 H1620 H 0.21147 0.27537 1.01743
 H1621 H 0.21629 0.24006 0.97147
 H1622 H 0.20703 0.28203 0.97517
 H1623 H 0.32176 0.25593 1.08514
 H1624 H 0.33831 0.28757 1.06005
 H1625 H 0.24897 0.20934 0.97366
 H1626 H 0.28366 0.22449 0.95563
 H1627 H 0.25741 0.31315 1.09037
 H1628 H 0.28135 0.33782 1.06035
 H1629 H 0.33920 0.23185 1.00609
 H1630 H 0.31928 0.20633 1.03515
 H1631 H 0.22215 0.32952 1.01408
 H1632 H 0.20121 0.30599 1.04481
 N1633 N 0.28426 0.37375 0.78811
 N1634 N 0.29118 0.38453 0.76787
 N1635 N 0.24426 -0.12653 0.27049
 N1636 N 0.22826 -0.11182 0.26245
 N1637 N 0.79371 0.88396 0.77187
 N1638 N 0.78240 0.88972 0.75242
 N1639 N 0.44931 0.86233 0.28755
 N1640 N 0.46687 0.85963 0.27250
 N1641 N -0.00661 0.86690 0.79030
 N1642 N 0.01050 0.85331 0.78198
 N1643 N -0.04197 -0.09268 -0.04050
 N1644 N -0.02240 -0.08065 -0.04765
 N1645 N -0.06205 0.37956 0.48291
 N1646 N -0.06064 0.39104 0.50318
 N1647 N 0.43958 -0.12822 0.48518
 N1648 N 0.43091 -0.10962 0.49620
 N1649 N 0.48450 0.40147 -0.04836
 N1650 N 0.50147 0.41446 -0.03899
 N1651 N 0.76817 0.35021 0.47594
 N1652 N 0.75081 0.33851 0.46393
 N1653 N 0.79540 0.87888 -0.02580
 N1654 N 0.78173 0.87176 -0.00845
 N1655 N 0.78173 0.26746 0.37084
 N1656 N 0.76068 0.27295 0.38132
 N1657 N 0.79009 0.80293 -0.10786
 N1658 N 0.77543 0.78827 -0.09738
 N1659 N 0.28456 0.44409 0.85559
 N1660 N 0.29116 0.46154 0.84075
 N1661 N 0.25751 -0.05588 0.36656
 N1662 N 0.23752 -0.04910 0.35669
 N1663 N -0.01632 -0.01166 -0.12779
 N1664 N -0.00429 0.00527 -0.11722
 N1665 N -0.06206 0.46748 0.41057
 N1666 N -0.05655 0.48455 0.42544
 N1667 N 0.43532 -0.08021 0.41631
 N1668 N 0.43272 -0.05686 0.42056
 N1669 N 0.49930 0.47951 -0.14307
 N1670 N 0.51649 0.48837 -0.12999
 N1671 N 0.46693 0.79312 0.35605
 N1672 N 0.46143 0.77387 0.34260
 N1673 N -0.00115 0.78464 0.88144
 N1674 N 0.01642 0.77463 0.86980
 N1675 N 0.37575 0.79639 0.26070
 N1676 N 0.38891 0.77745 0.26691
 N1677 N -0.08699 0.80894 0.80305
 N1678 N -0.07759 0.78860 0.81116
 N1679 N 0.85168 0.26658 0.44373
 N1680 N 0.83586 0.27456 0.45998
 N1681 N 0.86823 0.78362 -0.03708
 N1682 N 0.85598 0.79311 -0.01858
 N1683 N -0.10784 -0.01922 -0.06340
 N1684 N -0.09950 0.00164 -0.05755
 N1685 N -0.14348 0.46997 0.50367
 N1686 N -0.13082 0.48230 0.51885
 N1687 N 0.36272 -0.03582 0.47072
 N1688 N 0.37099 -0.02251 0.48802
 N1689 N 0.40568 0.47936 -0.06834
 N1690 N 0.41841 0.49868 -0.06827
 N1691 N 0.36894 0.47881 0.77391
 N1692 N 0.35610 0.46797 0.75658
 N1693 N 0.32678 -0.05849 0.31483
 N1694 N 0.31919 -0.06015 0.29206
 N1695 N 0.12943 0.51293 0.74046
 N1696 N 0.14074 0.49613 0.72747
 N1697 N 0.12890 0.03814 0.20725
 N1698 N 0.14043 0.04583 0.22697
 N1699 N 0.60865 0.72062 0.21969
 N1700 N 0.59728 0.73916 0.20983
 N1701 N 0.11498 0.70868 0.70272
 N1702 N 0.10354 0.70071 0.72227
 N1703 N 0.62703 0.20118 0.52057
 N1704 N 0.63921 0.19040 0.50275
 N1705 N 0.63316 0.73569 0.01818
 N1706 N 0.64648 0.75113 0.03095
 N1707 N 0.10578 0.06123 0.03406
 N1708 N 0.09233 0.04260 0.04101
 N1709 N 0.09879 0.51394 0.52955
 N1710 N 0.08609 0.49861 0.54273
 N1711 N 0.59654 0.02172 0.52160
 N1712 N 0.58418 0.00475 0.53309
 N1713 N 0.62065 0.54449 0.03887
 N1714 N 0.61192 0.55294 0.01822
 N1715 N 0.01063 0.04177 0.11262
 N1716 N -0.00483 0.03015 0.09965
 N1717 N 0.01085 0.52031 0.64334
 N1718 N 0.01854 0.50205 0.62968
 N1719 N 0.52147 0.03231 0.61735
 N1720 N 0.50377 0.01926 0.60961
 N1721 N 0.53382 0.54294 0.09356
 N1722 N 0.52021 0.55529 0.07822
 N1723 N 0.21507 0.51957 0.63036
 N1724 N 0.20642 0.50176 0.64376
 N1725 N 0.20698 0.03809 0.14605
 N1726 N 0.22590 0.04327 0.16007
 N1727 N 0.71047 0.20951 0.59638
 N1728 N 0.72338 0.19657 0.58076
 N1729 N 0.72572 0.72066 0.11795
 N1730 N 0.71738 0.74002 0.10675
 N1731 N 0.51555 0.73532 0.11892
 N1732 N 0.52639 0.75035 0.13426
 N1733 N 0.03914 0.71559 0.64817
 N1734 N 0.02111 0.70777 0.66209
 N1735 N 0.53566 0.64845 0.20823
 N1736 N 0.52066 0.66331 0.19699
 N1737 N 0.03321 0.62602 0.74986
 N1738 N 0.01659 0.64015 0.73994
 N1739 N 0.04479 0.12101 0.03830
 N1740 N 0.02253 0.11252 0.04188
 N1741 N 0.03504 0.59793 0.54656
 N1742 N 0.01771 0.58664 0.55877
 N1743 N 0.50810 0.10357 0.52700
 N1744 N 0.51898 0.08741 0.51295
 N1745 N 0.51922 0.63942 0.00559
 N1746 N 0.53420 0.62623 -0.00788
 N1747 N 0.71689 0.11204 0.50556
 N1748 N 0.73004 0.12394 0.49058
 N1749 N 0.72520 0.65777 0.04972
 N1750 N 0.71595 0.66960 0.03110
 N1751 N 0.21731 0.59141 0.70235
 N1752 N 0.20698 0.57892 0.71992
 N1753 N 0.23889 0.11552 0.22965
 N1754 N 0.22726 0.10359 0.24682
 N1755 N 0.74705 1.11165 0.70303
 N1756 N 0.73998 1.09956 0.72235
 N1757 N 0.71584 0.61313 0.22546
 N1758 N 0.70384 0.60192 0.24297
 N1759 N 0.54497 0.13690 0.71561
 N1760 N 0.53338 0.14928 0.73165
 N1761 N 1.03365 0.15892 0.20542
 N1762 N 1.04503 0.16899 0.22411
 N1763 N 0.20764 0.61422 0.51073
 N1764 N 0.22510 0.62796 0.51991
 N1765 N 0.22424 0.15797 1.04961
 N1766 N 0.24414 0.16768 1.05941
 N1767 N 0.22798 0.69519 0.59674
 N1768 N 0.21940 0.71292 0.58339
 N1769 N 0.25080 0.23850 1.14370
 N1770 N 0.26389 0.25306 1.13147
 N1771 N 0.71960 0.55080 0.15686
 N1772 N 0.70910 0.53184 0.16685
 N1773 N 0.70877 1.02084 0.62707
 N1774 N 0.72902 1.02912 0.63726
 N1775 N 0.52082 0.21160 0.62732
 N1776 N 0.53533 0.22663 0.63920
 N1777 N 1.04137 0.23459 0.14181
 N1778 N 1.02926 0.25115 0.15283
 N1779 N 0.63366 0.21133 0.72463
 N1780 N 0.61944 0.22722 0.71380
 N1781 N 1.12869 0.22191 0.23146
 N1782 N 1.11736 0.24060 0.22180
 N1783 N 0.13896 0.71008 0.53228
 N1784 N 0.14962 0.69886 0.51375
 N1785 N 0.16309 0.21417 1.05537
 N1786 N 0.17363 0.23383 1.06421
 N1787 N 0.62035 0.52295 0.21489
 N1788 N 0.63077 0.53129 0.23491
 N1789 N 0.64815 1.02757 0.69840
 N1790 N 0.66058 1.03396 0.71807
 N1791 N 0.84279 0.45709 0.29568
 N1792 N 0.82918 0.47427 0.30547
 N1793 N 0.87242 0.96303 0.77588
 N1794 N 0.86099 0.95368 0.75678
 N1795 N 0.40664 0.27826 0.79349
 N1796 N 0.41695 0.28701 0.77367
 N1797 N 0.90171 0.30224 0.28190
 N1798 N 0.91561 0.28599 0.29265
 N1799 N 0.36898 0.75541 0.46731
 N1800 N 0.35549 0.74162 0.45293
 N1801 N 0.37625 0.29376 0.96788
 N1802 N 0.36659 0.30247 0.98809
 N1803 N 0.76507 0.47295 0.38368
 N1804 N 0.74706 0.46423 0.37025
 N1805 N 0.79668 0.93498 0.83794
 N1806 N 0.80224 0.95596 0.82811
 N1807 N 0.26630 0.76096 0.36482
 N1808 N 0.27808 0.74305 0.37544
 N1809 N 0.30339 0.28042 0.90646
 N1810 N 0.28458 0.28984 0.91834
 N1811 N 0.47396 0.28988 0.85206
 N1812 N 0.49366 0.29719 0.84046
 N1813 N 0.98519 0.27768 0.37737
 N1814 N 1.00120 0.29114 0.36578
 N1815 N 0.47392 0.37007 0.75733
 N1816 N 0.49341 0.35882 0.76566
 N1817 N 0.97061 0.37587 0.29098
 N1818 N 0.99080 0.36594 0.29932
 N1819 N 0.30112 0.83223 0.44745
 N1820 N 0.28097 0.82122 0.44002
 N1821 N 0.30808 0.37933 0.99177
 N1822 N 0.28727 0.36765 0.98868
 N1823 N 0.77628 0.38817 0.27837
 N1824 N 0.75584 0.39654 0.28813
   
