data_POSCAR
  _audit_creation_date              2014-09-24
  _audit_creation_method            'ToBaCCo'
  _symmetry_space_group_name_H-M    'P1'
  _symmetry_Int_Tables_number       1
  _symmetry_cell_setting            triclinic
  loop_
  _symmetry_equiv_pos_as_xyz
 x,y,z
_cell_length_a 33.9304
_cell_length_b 34.8753
_cell_length_c 42.4251
_cell_angle_alpha 89.930800
_cell_angle_beta 90.204400
_cell_angle_gamma 89.986900
loop_
  _atom_site_label
  _atom_site_type_symbol
  _atom_site_fract_x
  _atom_site_fract_y
  _atom_site_fract_z
Zr1 Zr 0.24436 0.25411 0.30589
 O2 O 0.27507 0.28335 0.34220
 O3 O 0.20142 0.22404 0.33170
 O4 O 0.21057 0.29731 0.32848
 O5 O 0.31094 0.17890 0.29984
 O6 O 0.18332 0.33034 0.28739
 O7 O 0.27909 0.21772 0.33489
 O8 O 0.16511 0.19349 0.29396
 O9 O 0.19423 0.25832 0.27699
 O10 O 0.24033 0.20231 0.28108
 O11 O 0.25419 0.30189 0.27660
 O12 O 0.29817 0.24785 0.28141
 Zr13 Zr 0.25264 0.24761 0.19546
 Zr14 Zr 0.20536 0.30418 0.24633
 Zr15 Zr 0.29193 0.19736 0.25492
 Zr16 Zr 0.19199 0.20737 0.25111
 O17 O 0.35423 0.19511 0.25601
 O18 O 0.13189 0.22363 0.24768
 O19 O 0.24318 0.19911 0.22433
 O20 O 0.19943 0.25346 0.22037
 O21 O 0.25708 0.29973 0.21984
 O22 O 0.30238 0.24331 0.22465
 C23 C 0.17317 0.20187 0.32269
 C24 C 0.30289 0.19014 0.32803
 C25 C 0.18894 0.32448 0.31708
 O26 O 0.14320 0.30624 0.24263
 O27 O 0.18991 0.32553 0.20141
 O28 O 0.21975 0.28539 0.16630
 C29 C 0.19743 0.31408 0.17319
 O30 O 0.33180 0.31421 0.29259
 Zr31 Zr 0.30534 0.29403 0.25025
 O32 O 0.29477 0.27854 0.16956
 O33 O 0.21774 0.36362 0.24499
 O34 O 0.30348 0.35481 0.24858
 O35 O 0.36603 0.27943 0.25081
 O36 O 0.32902 0.31160 0.20710
 C37 C 0.32150 0.30248 0.17842
 O38 O 0.22070 0.21940 0.15926
 O39 O 0.27982 0.13802 0.25881
 O40 O 0.28477 0.20350 0.17276
 O41 O 0.31013 0.16873 0.21367
 O42 O 0.19228 0.14677 0.25558
 O43 O 0.16950 0.18184 0.20928
 C44 C 0.30490 0.17520 0.18399
 H45 H 0.23746 0.17975 0.29507
 H46 H 0.17645 0.25449 0.20596
 H47 H 0.32700 0.23916 0.21268
 H48 H 0.25703 0.32571 0.28906
 H49 H 0.11575 0.20099 0.25338
 H50 H 0.13581 0.33371 0.24164
 H51 H 0.19211 0.37700 0.24271
 H52 H 0.33051 0.36402 0.24408
 H53 H 0.16484 0.13845 0.25969
 H54 H 0.30557 0.12484 0.26095
 H55 H 0.36156 0.16761 0.25677
 H56 H 0.38110 0.30285 0.24539
 H57 H 0.14491 0.16778 0.21415
 H58 H 0.23290 0.22647 0.13881
 H59 H 0.26299 0.27587 0.36259
 H60 H 0.35263 0.33306 0.28744
 Zr61 Zr 0.75142 0.74657 0.30529
 O62 O 0.71966 0.71616 0.34023
 O63 O 0.79352 0.77579 0.33256
 O64 O 0.78519 0.70349 0.32827
 O65 O 0.68453 0.82125 0.29826
 O66 O 0.81360 0.67134 0.28744
 O67 O 0.71550 0.78213 0.33382
 O68 O 0.83139 0.80609 0.29581
 O69 O 0.80229 0.74309 0.27744
 O70 O 0.75621 0.79891 0.28125
 O71 O 0.74262 0.69937 0.27527
 O72 O 0.69841 0.75338 0.27960
 Zr73 Zr 0.74632 0.75567 0.19467
 Zr74 Zr 0.79221 0.69789 0.24609
 Zr75 Zr 0.70545 0.80433 0.25385
 Zr76 Zr 0.80527 0.79451 0.25223
 O77 O 0.64313 0.80676 0.25313
 O78 O 0.86553 0.77870 0.24937
 O79 O 0.75494 0.80349 0.22436
 O80 O 0.79879 0.74910 0.22078
 O81 O 0.74131 0.70304 0.21845
 O82 O 0.69583 0.75912 0.22281
 C83 C 0.82255 0.79724 0.32426
 C84 C 0.69156 0.80950 0.32649
 C85 C 0.80746 0.67680 0.31710
 O86 O 0.85443 0.69601 0.24350
 O87 O 0.80839 0.67727 0.20131
 O88 O 0.77991 0.71832 0.16590
 C89 C 0.80169 0.68925 0.17305
 O90 O 0.66446 0.68685 0.28917
 Zr91 Zr 0.69228 0.70791 0.24780
 O92 O 0.70532 0.72518 0.16732
 O93 O 0.78006 0.63844 0.24404
 O94 O 0.69417 0.64717 0.24544
 O95 O 0.63154 0.72230 0.24694
 O96 O 0.67039 0.69136 0.20388
 C97 C 0.67874 0.70084 0.17547
 O98 O 0.77935 0.78475 0.15974
 O99 O 0.71749 0.86352 0.25919
 O100 O 0.71445 0.80033 0.17180
 O101 O 0.68848 0.83406 0.21282
 O102 O 0.80496 0.85489 0.25823
 O103 O 0.82860 0.82143 0.21137
 C104 C 0.69410 0.82838 0.18316
 H105 H 0.75868 0.82110 0.29565
 H106 H 0.82215 0.74838 0.20689
 H107 H 0.67152 0.76350 0.21033
 H108 H 0.73956 0.67530 0.28740
 H109 H 0.88145 0.80119 0.25586
 H110 H 0.86190 0.66858 0.24241
 H111 H 0.80579 0.62517 0.24229
 H112 H 0.66731 0.63809 0.24004
 H113 H 0.83227 0.86292 0.26331
 H114 H 0.69170 0.87667 0.26091
 H115 H 0.63579 0.83422 0.25427
 H116 H 0.61678 0.69899 0.24068
 H117 H 0.85269 0.83589 0.21708
 H118 H 0.76773 0.77818 0.13892
 H119 H 0.73093 0.72322 0.36106
 H120 H 0.64384 0.66806 0.28326
 Zr121 Zr 0.75505 0.25051 -0.30669
 O122 O 0.72665 0.28278 -0.34254
 O123 O 0.79377 0.21592 -0.33280
 O124 O 0.79289 0.28943 -0.32984
 O125 O 0.68064 0.18293 -0.30029
 O126 O 0.82499 0.31915 -0.28929
 O127 O 0.71749 0.21704 -0.33550
 O128 O 0.82732 0.18213 -0.29522
 O129 O 0.80586 0.24967 -0.27833
 O130 O 0.75389 0.19879 -0.28171
 O131 O 0.75104 0.29919 -0.27761
 O132 O 0.70107 0.25027 -0.28207
 Zr133 Zr 0.74785 0.24540 -0.19640
 Zr134 Zr 0.80033 0.29653 -0.24781
 Zr135 Zr 0.70223 0.19955 -0.25552
 Zr136 Zr 0.80295 0.19897 -0.25218
 O137 O 0.64006 0.20418 -0.25573
 O138 O 0.86449 0.20916 -0.24949
 O139 O 0.75135 0.19627 -0.22528
 O140 O 0.80115 0.24568 -0.22156
 O141 O 0.74873 0.29752 -0.22103
 O142 O 0.69737 0.24623 -0.22506
 C143 C 0.81948 0.19091 -0.32393
 C144 C 0.69055 0.19245 -0.32854
 C145 C 0.81794 0.31372 -0.31882
 O146 O 0.86234 0.29219 -0.24393
 O147 O 0.81774 0.31724 -0.20316
 O148 O 0.78418 0.28051 -0.16762
 C149 C 0.80885 0.30723 -0.17480
 O150 O 0.67466 0.31950 -0.29298
 Zr151 Zr 0.69961 0.29690 -0.25085
 O152 O 0.71016 0.28079 -0.17014
 O153 O 0.79472 0.35696 -0.24746
 O154 O 0.70791 0.35718 -0.25002
 O155 O 0.63769 0.28864 -0.25013
 O156 O 0.67958 0.31756 -0.20743
 C157 C 0.68681 0.30798 -0.17877
 O158 O 0.77733 0.21454 -0.16028
 O159 O 0.70720 0.13924 -0.25956
 O160 O 0.71209 0.20411 -0.17355
 O161 O 0.68235 0.17262 -0.21434
 O162 O 0.79654 0.13867 -0.25616
 O163 O 0.82276 0.17144 -0.21029
 C164 C 0.68913 0.17798 -0.18480
 H165 H 0.75409 0.17592 -0.29550
 H166 H 0.82420 0.24455 -0.20721
 H167 H 0.67272 0.24470 -0.21270
 H168 H 0.75072 0.32308 -0.29023
 H169 H 0.87803 0.18498 -0.25520
 H170 H 0.87269 0.31875 -0.24348
 H171 H 0.82171 0.36756 -0.24545
 H172 H 0.68212 0.36912 -0.24521
 H173 H 0.82301 0.12774 -0.26023
 H174 H 0.68005 0.12898 -0.26138
 H175 H 0.62960 0.17767 -0.25643
 H176 H 0.62546 0.31351 -0.24451
 H177 H 0.84632 0.15573 -0.21502
 H178 H 0.76610 0.22283 -0.13981
 H179 H 0.73738 0.27424 -0.36311
 H180 H 0.65537 0.33979 -0.28768
 Zr181 Zr 0.25728 0.75482 -0.30296
 O182 O 0.28912 0.72494 -0.33811
 O183 O 0.22562 0.79461 -0.33019
 O184 O 0.22083 0.72187 -0.33335
 O185 O 0.33414 0.81492 -0.28198
 O186 O 0.18015 0.68956 -0.29968
 O187 O 0.30291 0.78755 -0.32395
 O188 O 0.18747 0.82534 -0.29410
 O189 O 0.20225 0.75582 -0.28054
 O190 O 0.25720 0.80326 -0.27377
 O191 O 0.25285 0.70261 -0.27838
 O192 O 0.30604 0.74864 -0.27233
 Zr193 Zr 0.24525 0.74538 -0.19313
 Zr194 Zr 0.19919 0.70510 -0.25411
 Zr195 Zr 0.30319 0.79587 -0.24167
 Zr196 Zr 0.20361 0.80284 -0.25016
 O197 O 0.36427 0.78766 -0.23403
 O198 O 0.14159 0.79732 -0.25476
 O199 O 0.24957 0.79832 -0.21722
 O200 O 0.19715 0.75252 -0.22399
 O201 O 0.24545 0.69679 -0.22214
 O202 O 0.29995 0.74496 -0.21590
 C203 C 0.19911 0.81927 -0.32245
 C204 C 0.33025 0.80886 -0.31192
 C205 C 0.19235 0.69846 -0.32746
 O206 O 0.13752 0.71335 -0.25727
 O207 O 0.17194 0.68167 -0.21365
 O208 O 0.20127 0.71087 -0.17173
 C209 C 0.17536 0.68795 -0.18372
 O210 O 0.32946 0.67973 -0.28725
 Zr211 Zr 0.29914 0.69810 -0.24619
 O212 O 0.27565 0.70401 -0.16642
 O213 O 0.20123 0.64468 -0.25804
 O214 O 0.28737 0.63872 -0.25159
 O215 O 0.36079 0.70146 -0.23821
 O216 O 0.31087 0.67114 -0.20327
 C217 C 0.29965 0.67741 -0.17494
 O218 O 0.21243 0.77454 -0.15814
 O219 O 0.30234 0.85655 -0.24192
 O220 O 0.28079 0.77884 -0.16278
 O221 O 0.31581 0.81743 -0.19609
 O222 O 0.21499 0.86261 -0.24863
 O223 O 0.17822 0.82702 -0.20898
 C224 C 0.30513 0.80637 -0.16837
 H225 H 0.26083 0.82744 -0.28565
 H226 H 0.17191 0.75384 -0.21242
 H227 H 0.32234 0.74312 -0.20095
 H228 H 0.25384 0.68045 -0.29291
 H229 H 0.13084 0.82298 -0.25998
 H230 H 0.12555 0.68762 -0.25979
 H231 H 0.17356 0.63580 -0.25973
 H232 H 0.31146 0.62455 -0.24526
 H233 H 0.19060 0.87597 -0.25541
 H234 H 0.33004 0.86514 -0.23966
 H235 H 0.37598 0.81352 -0.23169
 H236 H 0.37044 0.67508 -0.23414
 H237 H 0.15792 0.84605 -0.21510
 H238 H 0.21940 0.76308 -0.13742
 H239 H 0.28241 0.73669 -0.35878
 H240 H 0.34586 0.65706 -0.28214
 Zr241 Zr 1.24239 1.25655 0.80406
 O242 O 1.20793 1.22862 0.83873
 O243 O 1.27743 1.29267 0.83177
 O244 O 1.27693 1.22181 0.83439
 O245 O 1.17113 1.32288 0.78316
 O246 O 1.31132 1.18282 0.80109
 O247 O 1.20006 1.29274 0.82510
 O248 O 1.31923 1.31931 0.79590
 O249 O 1.29725 1.25248 0.78183
 O250 O 1.24741 1.30520 0.77529
 O251 O 1.24130 1.20436 0.77946
 O252 O 1.19339 1.25562 0.77331
 Zr253 Zr 1.25364 1.24788 0.69467
 Zr254 Zr 1.29508 1.20185 0.75546
 Zr255 Zr 1.20102 1.30280 0.74302
 Zr256 Zr 1.30079 1.29983 0.75179
 O257 O 1.13955 1.30093 0.73453
 O258 O 1.36207 1.28879 0.75601
 O259 O 1.25474 1.30066 0.71880
 O260 O 1.30213 1.24933 0.72563
 O261 O 1.24842 1.19897 0.72318
 O262 O 1.19903 1.25217 0.71707
 C263 C 1.30671 1.31399 0.82403
 C264 C 1.17457 1.31586 0.81289
 C265 C 1.30153 1.19448 0.82880
 O266 O 1.35720 1.20412 0.75942
 O267 O 1.31997 1.17691 0.71481
 O268 O 1.29307 1.20930 0.67317
 C269 C 1.31641 1.18401 0.68507
 O270 O 1.16236 1.18944 0.78771
 Zr271 Zr 1.19503 1.20498 0.74698
 O272 O 1.21941 1.21067 0.66725
 O273 O 1.28679 1.14184 0.75821
 O274 O 1.20077 1.14470 0.75197
 O275 O 1.13402 1.21392 0.73872
 O276 O 1.18137 1.18005 0.70366
 C277 C 1.19317 1.18607 0.67542
 O278 O 1.28995 1.27408 0.66028
 O279 O 1.20790 1.36308 0.74458
 O280 O 1.22198 1.28491 0.66435
 O281 O 1.19118 1.32653 0.69767
 O282 O 1.29575 1.36045 0.75126
 O283 O 1.32833 1.32181 0.71063
 C284 C 1.20067 1.31476 0.66990
 H285 H 1.24617 1.32940 0.78743
 H286 H 1.32742 1.24835 0.71409
 H287 H 1.17668 1.25277 0.70201
 H288 H 1.23795 1.18238 0.79399
 H289 H 1.37520 1.31333 0.76135
 H290 H 1.36646 1.17727 0.76140
 H291 H 1.31337 1.13024 0.75998
 H292 H 1.17552 1.13299 0.74521
 H293 H 1.32152 1.37111 0.75798
 H294 H 1.18124 1.37432 0.74212
 H295 H 1.13059 1.32787 0.73259
 H296 H 1.12203 1.18855 0.73435
 H297 H 1.34997 1.33937 0.71674
 H298 H 1.28195 1.26392 0.63936
 H299 H 1.21559 1.23933 0.85954
 H300 H 1.14447 1.16790 0.78256
 Zr301 Zr 0.74395 0.75376 0.80498
 O302 O 0.77452 0.78401 0.84081
 O303 O 0.70151 0.72370 0.83108
 O304 O 0.70940 0.79655 0.82731
 O305 O 0.81116 0.67903 0.79992
 O306 O 0.68162 0.82869 0.78597
 O307 O 0.77859 0.71810 0.83439
 O308 O 0.66541 0.69250 0.79357
 O309 O 0.69382 0.75702 0.77603
 O310 O 0.74049 0.70154 0.78068
 O311 O 0.75336 0.80126 0.77543
 O312 O 0.79790 0.74741 0.78078
 Zr313 Zr 0.75267 0.74551 0.69490
 Zr314 Zr 0.70459 0.80260 0.74509
 Zr315 Zr 0.79225 0.69649 0.75472
 Zr316 Zr 0.69218 0.70572 0.75062
 O317 O 0.85457 0.69478 0.75587
 O318 O 0.63194 0.72143 0.74685
 O319 O 0.74353 0.69733 0.72409
 O320 O 0.69929 0.75146 0.71954
 O321 O 0.75647 0.79801 0.71884
 O322 O 0.80240 0.74216 0.72413
 C323 C 0.67350 0.70123 0.82221
 C324 C 0.80270 0.69071 0.82790
 C325 C 0.68713 0.82310 0.81574
 O326 O 0.64247 0.80419 0.74085
 O327 O 0.68958 0.82324 0.69990
 O328 O 0.71988 0.78264 0.66536
 C329 C 0.69746 0.81132 0.67189
 O330 O 0.83092 0.81380 0.79164
 Zr331 Zr 0.80470 0.79326 0.74933
 O332 O 0.79416 0.77670 0.66873
 O333 O 0.71644 0.86212 0.74348
 O334 O 0.80258 0.85401 0.74738
 O335 O 0.86557 0.77939 0.74976
 O336 O 0.82773 0.81076 0.70605
 C337 C 0.82021 0.80136 0.67744
 O338 O 0.72092 0.71645 0.65905
 O339 O 0.78071 0.63712 0.75933
 O340 O 0.78530 0.70148 0.67251
 O341 O 0.81072 0.66731 0.71372
 O342 O 0.69269 0.64522 0.75582
 O343 O 0.67009 0.67939 0.70898
 C344 C 0.80549 0.67334 0.68396
 H345 H 0.73774 0.67915 0.79486
 H346 H 0.67638 0.75209 0.70504
 H347 H 0.82706 0.73811 0.71218
 H348 H 0.75584 0.82524 0.78774
 H349 H 0.61599 0.69879 0.75286
 H350 H 0.63489 0.83160 0.73966
 H351 H 0.69069 0.87524 0.74107
 H352 H 0.82960 0.86330 0.74291
 H353 H 0.66526 0.63686 0.75991
 H354 H 0.80660 0.62422 0.76158
 H355 H 0.86212 0.66737 0.75700
 H356 H 0.88029 0.80298 0.74421
 H357 H 0.64554 0.66530 0.71391
 H358 H 0.73298 0.72330 0.63851
 H359 H 0.76263 0.77680 0.86134
 H360 H 0.85169 0.83271 0.78647
 Zr361 Zr 1.25574 0.75339 0.19283
 O362 O 1.22599 0.78550 0.15758
 O363 O 1.29678 0.72217 0.16626
 O364 O 1.29178 0.79487 0.17090
 O365 O 1.18380 0.68295 0.19672
 O366 O 1.32124 0.82532 0.21232
 O367 O 1.22059 0.71916 0.16287
 O368 O 1.33158 0.68899 0.20346
 O369 O 1.30611 0.75387 0.22163
 O370 O 1.25667 0.70068 0.21644
 O371 O 1.24888 0.80077 0.22291
 O372 O 1.20149 0.74958 0.21685
 Zr373 Zr 1.24728 0.74377 0.30260
 Zr374 Zr 1.29787 0.79937 0.25307
 Zr375 Zr 1.20461 0.69794 0.24215
 Zr376 Zr 1.30523 0.70211 0.24648
 O377 O 1.14227 0.69931 0.24166
 O378 O 1.36622 0.71447 0.25070
 O379 O 1.25345 0.69581 0.27276
 O380 O 1.30082 0.74760 0.27804
 O381 O 1.24591 0.79683 0.27934
 O382 O 1.19719 0.74333 0.27353
 C383 C 1.32384 0.69849 0.17491
 C384 C 1.19400 0.69388 0.16887
 C385 C 1.31491 0.82048 0.18259
 O386 O 1.36002 0.79781 0.25680
 O387 O 1.31416 0.81859 0.29845
 O388 O 1.28149 0.77920 0.33259
 C389 C 1.30532 0.80695 0.32638
 O390 O 1.17188 0.81794 0.20721
 Zr391 Zr 1.19729 0.79496 0.24904
 O392 O 1.20770 0.77615 0.32947
 O393 O 1.28912 0.85937 0.25549
 O394 O 1.20245 0.85550 0.25165
 O395 O 1.13581 0.78395 0.24879
 O396 O 1.17563 0.81260 0.29277
 C397 C 1.18303 0.80233 0.32122
 O398 O 1.27791 0.71263 0.33794
 O399 O 1.21293 0.63822 0.23645
 O400 O 1.21288 0.70069 0.32426
 O401 O 1.18509 0.66891 0.28273
 O402 O 1.30205 0.64185 0.24024
 O403 O 1.32516 0.67366 0.28792
 C404 C 1.19110 0.67401 0.31245
 H405 H 1.25829 0.67848 0.20199
 H406 H 1.32372 0.74691 0.29255
 H407 H 1.17245 0.74028 0.28558
 H408 H 1.24741 0.82507 0.21088
 H409 H 1.38090 0.69108 0.24459
 H410 H 1.36899 0.82479 0.25826
 H411 H 1.31553 0.87117 0.25782
 H412 H 1.17601 0.86595 0.25657
 H413 H 1.32916 0.63245 0.23625
 H414 H 1.18636 0.62673 0.23416
 H415 H 1.13328 0.67236 0.23996
 H416 H 1.12233 0.80802 0.25492
 H417 H 1.34918 0.65869 0.28309
 H418 H 1.26622 0.71954 0.35859
 H419 H 1.23742 0.77836 0.13689
 H420 H 1.15179 0.83735 0.21280
 Zr421 Zr 0.75756 1.25207 0.19642
 O422 O 0.78944 1.22181 0.16153
 O423 O 0.72495 1.29101 0.16915
 O424 O 0.72100 1.21824 0.16673
 O425 O 0.83464 1.31247 0.21611
 O426 O 0.68029 1.18730 0.20122
 O427 O 0.80210 1.28547 0.17451
 O428 O 0.68794 1.32279 0.20556
 O429 O 0.70296 1.25391 0.21951
 O430 O 0.75825 1.30088 0.22522
 O431 O 0.75321 1.20034 0.22172
 O432 O 0.80679 1.24591 0.22658
 Zr433 Zr 0.74727 1.24504 0.30672
 Zr434 Zr 0.69999 1.20370 0.24647
 Zr435 Zr 0.80485 1.29357 0.25675
 Zr436 Zr 0.70514 1.30135 0.24949
 O437 O 0.86620 1.28476 0.26232
 O438 O 0.64297 1.29631 0.24610
 O439 O 0.75179 1.29736 0.28186
 O440 O 0.69869 1.25156 0.27623
 O441 O 0.74663 1.19589 0.27820
 O442 O 0.80152 1.24340 0.28328
 C443 C 0.69877 1.31575 0.17722
 C444 C 0.82950 1.30682 0.18634
 C445 C 0.69239 1.19519 0.17319
 O446 O 0.63839 1.21259 0.24381
 O447 O 0.67355 1.18090 0.28738
 O448 O 0.70435 1.21001 0.32885
 C449 C 0.67841 1.18696 0.31716
 O450 O 0.82933 1.17599 0.21264
 Zr451 Zr 0.79985 1.19603 0.25357
 O452 O 0.77873 1.20487 0.33376
 O453 O 0.70130 1.14319 0.24327
 O454 O 0.78710 1.13670 0.24950
 O455 O 0.86170 1.19908 0.26060
 O456 O 0.81217 1.17030 0.29686
 C457 C 0.80219 1.17781 0.32529
 O458 O 0.71425 1.27428 0.34153
 O459 O 0.80391 1.35424 0.25710
 O460 O 0.78231 1.28044 0.33630
 O461 O 0.82119 1.31361 0.30184
 O462 O 0.71658 1.36114 0.24968
 O463 O 0.68133 1.32648 0.29089
 C464 C 0.80939 1.30517 0.32984
 H465 H 0.76165 1.32493 0.21312
 H466 H 0.67368 1.25313 0.28810
 H467 H 0.82425 1.24173 0.29791
 H468 H 0.75386 1.17786 0.20751
 H469 H 0.63231 1.32199 0.24081
 H470 H 0.62611 1.18693 0.24173
 H471 H 0.67353 1.13456 0.24179
 H472 H 0.81104 1.12236 0.25594
 H473 H 0.69189 1.37435 0.24343
 H474 H 0.83170 1.36279 0.25858
 H475 H 0.87838 1.31047 0.26441
 H476 H 0.87118 1.17279 0.26527
 H477 H 0.66085 1.34542 0.28498
 H478 H 0.72165 1.26333 0.36234
 H479 H 0.78239 1.23308 0.14075
 H480 H 0.84539 1.15319 0.21807
 O481 O 0.55164 1.07292 0.05544
 O482 O 0.59772 1.03886 0.02745
 C483 C 0.58767 1.06451 0.04849
 O484 O 0.44647 0.93375 0.05603
 O485 O 0.39992 0.96810 0.02827
 C486 C 0.41042 0.94282 0.04943
 O487 O 0.55406 0.93884 0.05871
 O488 O 0.59885 0.97102 0.02792
 C489 C 0.58973 0.94774 0.05089
 O490 O 0.44428 1.07265 0.05496
 O491 O 0.39890 1.03685 0.02735
 C492 C 0.40849 1.06261 0.04832
 Zr493 Zr 0.49826 1.05139 0.03845
 O494 O 0.49941 1.04530 0.08805
 O495 O 0.49529 1.11200 0.04079
 Zr496 Zr 0.49981 0.95605 0.03958
 O497 O 0.49887 0.96131 0.08925
 O498 O 0.50382 0.89550 0.04092
 O499 O 0.53493 1.00435 0.04506
 O500 O 0.46408 1.00338 0.04490
 O501 O 0.44332 1.07352 -0.05484
 O502 O 0.39849 1.03626 -0.02830
 C503 C 0.40761 1.06353 -0.04814
 O504 O 0.55158 0.93804 -0.05955
 O505 O 0.59764 0.97004 -0.02966
 C506 C 0.58756 0.94669 -0.05243
 O507 O 0.44446 0.93045 -0.05358
 O508 O 0.39912 0.96765 -0.02751
 C509 C 0.40863 0.94034 -0.04708
 O510 O 0.55110 1.06746 -0.06001
 O511 O 0.59749 1.03683 -0.02938
 C512 C 0.58716 1.05941 -0.05245
 Zr513 Zr 0.49744 1.05021 -0.04027
 O514 O 0.49408 1.04607 -0.08994
 O515 O 0.50110 1.11078 -0.04164
 Zr516 Zr 0.49829 0.95434 -0.03885
 O517 O 0.49378 0.95096 -0.08853
 O518 O 0.50185 0.89411 -0.03381
 Zr519 Zr 0.55901 1.00371 -0.00067
 Zr520 Zr 0.43805 1.00252 -0.00018
 O521 O 0.46298 1.00192 -0.04544
 O522 O 0.53325 1.00254 -0.04600
 O523 O 0.46219 1.05822 -0.00082
 O524 O 0.53431 0.94839 0.00013
 O525 O 0.53270 1.05836 -0.00128
 O526 O 0.46329 0.94726 0.00070
 H527 H 0.44718 1.00344 0.06389
 H528 H 0.55228 0.92598 0.00025
 H529 H 0.44537 1.00151 -0.06412
 H530 H 0.55007 1.08114 -0.00214
 H531 H 0.48519 0.88543 0.02496
 H532 H 0.50221 0.88346 -0.05545
 H533 H 0.50602 0.97450 -0.09709
 H534 H 0.49400 1.07271 -0.09812
 H535 H 0.48370 1.12069 -0.02484
 H536 H 0.51354 1.12266 0.02492
 H537 H 0.49767 1.07156 0.09684
 H538 H 0.49876 0.93486 0.09786
 O539 O 1.05231 0.57507 0.55524
 O540 O 1.09931 0.54192 0.52749
 C541 C 1.08857 0.56752 0.54828
 O542 O 0.95218 0.43178 0.55720
 O543 O 0.90418 0.46433 0.52958
 C544 C 0.91575 0.43937 0.55066
 O545 O 1.05965 0.43919 0.55913
 O546 O 1.10263 0.47592 0.53009
 C547 C 1.09473 0.45079 0.55200
 O548 O 0.94497 0.57112 0.55529
 O549 O 0.90080 0.53332 0.52822
 C550 C 0.90954 0.55978 0.54890
 Zr551 Zr 0.99951 0.55135 0.53877
 O552 O 1.00098 0.54609 0.58843
 O553 O 0.99474 0.61185 0.54060
 Zr554 Zr 1.00461 0.45591 0.54089
 O555 O 1.00405 0.46253 0.59044
 O556 O 1.01031 0.39555 0.54347
 O557 O 1.03778 0.50560 0.54592
 O558 O 0.96716 0.50215 0.54582
 O559 O 0.94394 0.56774 0.44344
 O560 O 0.90018 0.53176 0.47230
 C561 C 0.90862 0.55717 0.45066
 O562 O 1.05686 0.43842 0.44209
 O563 O 1.10168 0.47218 0.47187
 C564 C 1.09247 0.44829 0.44926
 O565 O 0.95025 0.42771 0.44786
 O566 O 0.90323 0.46275 0.47394
 C567 C 0.91396 0.43573 0.45442
 O568 O 1.05201 0.56704 0.43984
 O569 O 1.09934 0.53764 0.47038
 C570 C 1.08833 0.55966 0.44714
 Zr571 Zr 0.99876 0.54891 0.46011
 O572 O 0.99631 0.54484 0.41038
 O573 O 0.99962 0.60961 0.45917
 Zr574 Zr 1.00305 0.45313 0.46261
 O575 O 0.99900 0.44867 0.41298
 O576 O 1.00862 0.39313 0.46826
 Zr577 Zr 1.06172 0.50513 0.50018
 Zr578 Zr 0.94098 0.49975 0.50082
 O579 O 0.96611 0.49928 0.45561
 O580 O 1.03612 0.50235 0.45490
 O581 O 0.96306 0.55630 0.49945
 O582 O 1.03931 0.44897 0.50153
 O583 O 1.03370 0.55891 0.49893
 O584 O 0.96833 0.44539 0.50218
 H585 H 0.95023 0.50183 0.56480
 H586 H 1.05812 0.42721 0.50178
 H587 H 0.94880 0.49762 0.43680
 H588 H 1.05044 0.58211 0.49765
 H589 H 0.99339 0.38460 0.52671
 H590 H 1.00932 0.38219 0.44672
 H591 H 1.00913 0.47303 0.40421
 H592 H 0.99565 0.57145 0.40214
 H593 H 0.97844 0.61865 0.47333
 H594 H 1.00995 0.62255 0.52283
 H595 H 0.99873 0.57245 0.59694
 H596 H 1.00463 0.43631 0.59947
 O597 O 1.07583 0.45155 0.05196
 O598 O 1.03840 0.40598 0.02668
 C599 C 1.06629 0.41632 0.04632
 O600 O 0.93030 0.55206 0.05818
 O601 O 0.96225 0.59764 0.02855
 C602 C 0.93693 0.58728 0.05015
 O603 O 0.93962 0.44757 0.06288
 O604 O 0.96982 0.40404 0.03021
 C605 C 0.94799 0.41285 0.05444
 O606 O 1.07692 0.55595 0.04798
 O607 O 1.03461 0.59931 0.02505
 C608 C 1.06483 0.59060 0.04282
 Zr609 Zr 1.05197 0.50310 0.03561
 O610 O 1.04974 0.50418 0.08539
 O611 O 1.11431 0.50402 0.03611
 Zr612 Zr 0.95472 0.50043 0.04259
 O613 O 0.96583 0.50298 0.09162
 O614 O 0.89314 0.49515 0.04903
 O615 O 1.00504 0.46686 0.04518
 O616 O 1.00304 0.53622 0.04488
 O617 O 1.06209 0.55523 -0.06146
 O618 O 1.03003 0.59892 -0.03010
 C619 C 1.05380 0.58995 -0.05320
 O620 O 0.92517 0.44815 -0.05317
 O621 O 0.96391 0.40424 -0.02722
 C622 C 0.93611 0.41337 -0.04735
 O623 O 0.91952 0.55256 -0.04950
 O624 O 0.95877 0.59783 -0.02573
 C625 C 0.92953 0.58773 -0.04399
 O626 O 1.05990 0.45048 -0.06326
 O627 O 1.03201 0.40542 -0.03066
 C628 C 1.05304 0.41541 -0.05496
 Zr629 Zr 1.04325 0.50271 -0.04288
 O630 O 1.03930 0.50676 -0.09259
 O631 O 1.10556 0.50031 -0.04529
 Zr632 Zr 0.94515 0.50060 -0.03558
 O633 O 0.93666 0.50454 -0.08496
 O634 O 0.88386 0.49747 -0.02710
 Zr635 Zr 1.00026 0.44284 -0.00031
 Zr636 Zr 0.99742 0.56053 -0.00029
 O637 O 0.99270 0.53535 -0.04521
 O638 O 0.99424 0.46714 -0.04568
 O639 O 1.05478 0.53769 -0.00429
 O640 O 0.94340 0.46625 0.00394
 O641 O 1.05591 0.46906 -0.00418
 O642 O 0.94131 0.53499 0.00398
 H643 H 1.00439 0.55368 0.06327
 H644 H 0.92057 0.44866 0.00563
 H645 H 0.99007 0.55191 -0.06409
 H646 H 1.07937 0.45231 -0.00596
 H647 H 0.88030 0.50939 0.03162
 H648 H 0.87085 0.49741 -0.04806
 H649 H 0.95461 0.48591 -0.09500
 H650 H 1.01988 0.48754 -0.09981
 H651 H 1.11608 0.52316 -0.03428
 H652 H 1.12329 0.49517 0.01523
 H653 H 1.07739 0.50643 0.09275
 H654 H 0.93970 0.50307 0.10199
 O655 O 0.41822 1.04929 0.45119
 O656 O 0.45759 1.09443 0.47502
 C657 C 0.42839 1.08445 0.45660
 O658 O 0.43708 0.94440 0.56391
 O659 O 0.46726 0.90070 0.53136
 C660 C 0.44535 0.90965 0.55556
 O661 O 0.43044 1.04890 0.56040
 O662 O 0.46274 1.09419 0.53064
 C663 C 0.43854 1.08399 0.55301
 O664 O 0.42319 0.94509 0.44781
 O665 O 0.46177 0.90090 0.47369
 C666 C 0.43387 0.91024 0.45372
 Zr667 Zr 0.44418 0.99730 0.46492
 O668 O 0.38207 0.99344 0.46817
 O669 O 0.44320 0.99890 0.41508
 Zr670 Zr 0.45240 0.99706 0.54317
 O671 O 0.39012 0.99422 0.54469
 O672 O 0.46142 0.99860 0.59258
 O673 O 0.43989 1.03191 0.50459
 O674 O 0.44161 0.96293 0.50449
 O675 O 0.56107 0.94699 0.43943
 O676 O 0.53098 0.90170 0.47052
 C677 C 0.55446 0.91183 0.44764
 O678 O 0.57479 1.05172 0.54995
 O679 O 0.53359 1.09558 0.52641
 C680 C 0.56332 1.08652 0.54463
 O681 O 0.57346 0.94743 0.55311
 O682 O 0.53648 0.90202 0.52722
 C683 C 0.56420 0.91226 0.54698
 O684 O 0.56134 1.05125 0.44020
 O685 O 0.52867 1.09533 0.47074
 C686 C 0.55282 1.08607 0.44800
 Zr687 Zr 0.54196 0.99892 0.45853
 O688 O 0.60423 0.99715 0.45533
 O689 O 0.53612 1.00146 0.40886
 Zr690 Zr 0.54984 0.99912 0.53699
 O691 O 0.61218 0.99975 0.53813
 O692 O 0.54680 0.99964 0.58676
 Zr693 Zr 0.49619 1.05708 0.50077
 Zr694 Zr 0.49831 0.93910 0.50073
 O695 O 0.55403 0.96532 0.49730
 O696 O 0.55340 1.03382 0.49719
 O697 O 0.49302 0.96329 0.45537
 O698 O 0.50113 1.03234 0.54582
 O699 O 0.49177 1.03206 0.45580
 O700 O 0.50257 0.96317 0.54618
 H701 H 0.41856 0.94559 0.50607
 H702 H 0.50295 1.04928 0.56451
 H703 H 0.57783 0.94898 0.49582
 H704 H 0.48938 1.04874 0.43697
 H705 H 0.43510 0.99906 0.60261
 H706 H 0.57433 1.00178 0.59442
 H707 H 0.62138 0.99236 0.51694
 H708 H 0.61486 1.01898 0.46759
 H709 H 0.51584 0.98252 0.40261
 H710 H 0.41506 0.99915 0.40871
 H711 H 0.37402 1.00889 0.48660
 H712 H 0.38252 0.99353 0.56720
 O713 O 0.92552 1.05543 0.54431
 O714 O 0.96695 1.02559 0.57958
 C715 C 0.93767 1.04812 0.57263
 O716 O 0.94263 0.91888 0.45770
 O717 O 0.97197 0.95875 0.42165
 C718 C 0.95052 0.92936 0.42918
 O719 O 0.93900 0.92342 0.54431
 O720 O 0.97274 0.96126 0.57948
 C721 C 0.94820 0.93393 0.57259
 O722 O 0.92659 1.05862 0.45732
 O723 O 0.96459 1.02631 0.42134
 C724 C 0.93665 1.05000 0.42883
 Zr725 Zr 0.94850 1.03926 0.50056
 O726 O 0.88636 1.03424 0.49890
 O727 O 0.94560 1.09979 0.50167
 Zr728 Zr 0.95831 0.94382 0.50075
 O729 O 0.89605 0.94202 0.49966
 O730 O 0.96233 0.88337 0.50350
 O731 O 0.94619 0.99085 0.52903
 O732 O 0.94548 0.99063 0.47300
 O733 O 1.06092 1.07353 0.45592
 O734 O 1.02998 1.03362 0.42068
 C735 C 1.05180 1.06309 0.42759
 O736 O 1.08207 0.93783 0.54310
 O737 O 1.04185 0.96793 0.57874
 C738 C 1.07146 0.94617 0.57155
 O739 O 1.07546 0.93198 0.45607
 O740 O 1.03682 0.96513 0.42085
 C741 C 1.06384 0.94018 0.42779
 O742 O 1.06866 1.06869 0.54245
 O743 O 1.03585 1.03142 0.57842
 C744 C 1.06080 1.05797 0.57091
 Zr745 Zr 1.04687 1.04883 0.49932
 O746 O 1.10873 1.05418 0.49441
 O747 O 1.04131 1.10913 0.50263
 Zr748 Zr 1.05678 0.95314 0.49964
 O749 O 1.11871 0.95824 0.49517
 O750 O 1.06005 0.89265 0.50185
 Zr751 Zr 1.00360 0.99643 0.54735
 Zr752 Zr 1.00161 0.99616 0.45272
 O753 O 1.05861 1.00160 0.47169
 O754 O 1.06026 1.00185 0.52757
 O755 O 0.99618 1.05157 0.47178
 O756 O 1.00888 0.94138 0.52780
 O757 O 0.99760 1.05137 0.52751
 O758 O 1.00772 0.94089 0.47215
 H759 H 0.92211 0.98809 0.45907
 H760 H 1.01144 0.91887 0.54195
 H761 H 1.08118 1.00377 0.45702
 H762 H 0.99587 1.07400 0.54154
 H763 H 0.98687 0.87596 0.49255
 H764 H 1.08846 0.88605 0.50152
 H765 H 1.12800 0.97564 0.51201
 H766 H 1.12124 1.04031 0.51217
 H767 H 1.01813 1.11656 0.48979
 H768 H 0.91722 1.10649 0.50203
 H769 H 0.87907 1.01268 0.51289
 H770 H 0.88874 0.91451 0.49954
 O771 O 0.43617 0.42530 -0.04204
 O772 O 0.46895 0.46250 -0.07816
 C773 C 0.44420 0.43579 -0.07055
 O774 O 0.42936 0.56335 0.04369
 O775 O 0.46798 0.53054 0.07914
 C776 C 0.44126 0.55577 0.07199
 O777 O 0.42150 0.55598 -0.04257
 O778 O 0.46148 0.52595 -0.07847
 C779 C 0.43170 0.54749 -0.07105
 O780 O 0.44371 0.42132 0.04472
 O781 O 0.47461 0.46152 0.07976
 C782 C 0.45254 0.43219 0.07300
 Zr783 Zr 0.45755 0.44573 0.00107
 O784 O 0.39534 0.44519 0.00358
 O785 O 0.45996 0.38522 -0.00183
 Zr786 Zr 0.44710 0.54068 0.00050
 O787 O 0.38614 0.52873 0.00336
 O788 O 0.43706 0.60042 -0.00259
 O789 O 0.44413 0.49219 -0.02747
 O790 O 0.44576 0.49276 0.02894
 O791 O 0.57802 0.43619 0.04286
 O792 O 0.54002 0.46862 0.07870
 C793 C 0.56776 0.44473 0.07133
 O794 O 0.56441 0.57169 -0.04452
 O795 O 0.53037 0.53393 -0.07949
 C796 C 0.55456 0.56157 -0.07274
 O797 O 0.56202 0.57565 0.04223
 O798 O 0.53264 0.53595 0.07840
 C799 C 0.55419 0.56522 0.07078
 O800 O 0.57841 0.43869 -0.04436
 O801 O 0.53739 0.46920 -0.07951
 C802 C 0.56656 0.44653 -0.07268
 Zr803 Zr 0.55626 0.45578 -0.00048
 O804 O 0.61809 0.46370 0.00208
 O805 O 0.56423 0.39568 -0.00355
 Zr806 Zr 0.54549 0.55127 -0.00080
 O807 O 0.60735 0.55881 0.00168
 O808 O 0.53556 0.61109 -0.00258
 Zr809 Zr 0.50069 0.49801 -0.04722
 Zr810 Zr 0.50287 0.49861 0.04744
 O811 O 0.55887 0.50448 0.02690
 O812 O 0.55819 0.50416 -0.02906
 O813 O 0.50851 0.44312 0.02836
 O814 O 0.49481 0.55302 -0.02773
 O815 O 0.50693 0.44322 -0.02704
 O816 O 0.49625 0.55371 0.02780
 H817 H 0.42344 0.49082 0.04387
 H818 H 0.49167 0.57549 -0.04184
 H819 H 0.58230 0.50712 0.04074
 H820 H 0.50874 0.42037 -0.04083
 H821 H 0.46077 0.61307 0.00617
 H822 H 0.56191 0.62336 -0.00288
 H823 H 0.61921 0.54281 -0.01501
 H824 H 0.62638 0.47757 -0.01715
 H825 H 0.54872 0.38375 0.01354
 H826 H 0.48292 0.37687 0.01083
 H827 H 0.38752 0.41783 0.00416
 H828 H 0.37272 0.55395 0.00402
 C829 C 0.33457 1.12479 0.10966
 C830 C 0.36497 1.10123 0.12094
 N831 N 0.37399 1.10107 0.15206
 C832 C 0.35433 1.12379 0.17263
 C833 C 0.32457 1.14862 0.16163
 N834 N 0.31520 1.14833 0.13018
 N835 N 0.32600 1.12454 0.07821
 C836 C 0.34705 1.10242 0.05760
 C837 C 0.37863 1.08017 0.06892
 N838 N 0.38640 1.08018 0.10041
 H839 H 0.36270 1.12309 0.19727
 H840 H 0.34063 1.10378 0.03262
 C841 C 0.83534 0.62229 0.60981
 C842 C 0.86502 0.59807 0.62135
 N843 N 0.87356 0.59773 0.65257
 C844 C 0.85410 0.62087 0.67298
 C845 C 0.82506 0.64636 0.66174
 N846 N 0.81618 0.64623 0.63019
 N847 N 0.82734 0.62233 0.57827
 C848 C 0.84828 0.59990 0.55781
 C849 C 0.87917 0.57690 0.56936
 N850 N 0.88639 0.57666 0.60096
 H851 H 0.86204 0.61995 0.69770
 H852 H 0.84242 0.60165 0.53276
 C853 C 0.66457 0.88305 0.11033
 C854 C 0.63378 0.90550 0.12226
 N855 N 0.62436 0.90338 0.15317
 C856 C 0.64402 0.87949 0.17292
 C857 C 0.67429 0.85578 0.16130
 N858 N 0.68405 0.85830 0.13003
 N859 N 0.67339 0.88562 0.07904
 C860 C 0.65219 0.90888 0.05920
 C861 C 0.62016 0.92993 0.07110
 N862 N 0.61223 0.92766 0.10245
 H863 H 0.63528 0.87847 0.19742
 H864 H 0.65876 0.90920 0.03425
 C865 C 1.16501 0.39537 0.61930
 C866 C 1.15205 0.37565 0.59239
 N867 N 1.15716 0.33710 0.59060
 C868 C 1.17413 0.31720 0.61470
 C869 C 1.18535 0.33645 0.64244
 N870 N 1.18074 0.37532 0.64392
 N871 N 1.15995 0.43401 0.62090
 C872 C 1.14147 0.45361 0.59725
 C873 C 1.12638 0.43360 0.57113
 N874 N 1.13223 0.39498 0.56942
 H875 H 1.17743 0.28642 0.61271
 H876 H 1.13601 0.48403 0.59989
 C877 C 0.66084 1.12294 -0.11268
 C878 C 0.62709 1.10396 -0.12369
 N879 N 0.61484 1.10886 -0.15378
 C880 C 0.63466 1.13224 -0.17364
 C881 C 0.66811 1.15227 -0.16288
 N882 N 0.68062 1.14703 -0.13247
 N883 N 0.67247 1.11758 -0.08218
 C884 C 0.65126 1.09481 -0.06216
 C885 C 0.61650 1.07729 -0.07310
 N886 N 0.60580 1.08223 -0.10370
 H887 H 0.62386 1.13559 -0.19753
 H888 H 0.66021 1.09207 -0.03775
 C889 C 1.16224 0.62089 0.38530
 C890 C 1.12878 0.60125 0.37454
 N891 N 1.11735 0.60444 0.34405
 C892 C 1.13761 0.62685 0.32363
 C893 C 1.17047 0.64782 0.33427
 N894 N 1.18221 0.64415 0.36501
 N895 N 1.17336 0.61715 0.41606
 C896 C 1.15193 0.59533 0.43660
 C897 C 1.11736 0.57724 0.42596
 N898 N 1.10707 0.58056 0.39508
 H899 H 1.12740 0.62900 0.29949
 H900 H 1.16060 0.59374 0.46114
 C901 C 0.33493 0.88203 -0.11104
 C902 C 0.36216 0.86195 -0.09233
 N903 N 0.36838 0.82404 -0.09765
 C904 C 0.34906 0.80534 -0.12120
 C905 C 0.32327 0.82567 -0.14104
 N906 N 0.31655 0.86366 -0.13535
 N907 N 0.32859 0.91992 -0.10531
 C908 C 0.34905 0.93885 -0.08233
 C909 C 0.37812 0.91932 -0.06492
 N910 N 0.38362 0.88116 -0.07036
 H911 H 0.35481 0.77518 -0.12514
 H912 H 0.34469 0.96933 -0.07926
 C913 C 0.83671 0.37045 0.39636
 C914 C 0.87691 0.36195 0.39926
 N915 N 0.89322 0.33429 0.38108
 C916 C 0.87129 0.31487 0.35961
 C917 C 0.83112 0.32337 0.35603
 N918 N 0.81447 0.35100 0.37467
 N919 N 0.82127 0.39924 0.41428
 C920 C 0.84438 0.42015 0.43451
 C921 C 0.88496 0.41213 0.43670
 N922 N 0.89966 0.38284 0.41905
 H923 H 0.88525 0.29345 0.34495
 H924 H 0.83152 0.44337 0.44788
 C925 C 1.13316 0.34148 0.10506
 C926 C 1.13876 0.38124 0.10484
 N927 N 1.16439 0.39763 0.12536
 C928 C 1.18457 0.37611 0.14661
 C929 C 1.17914 0.33626 0.14737
 N930 N 1.15355 0.31963 0.12638
 N931 N 1.10614 0.32587 0.08487
 C932 C 1.08434 0.34834 0.06477
 C933 C 1.08977 0.38834 0.06497
 N934 N 1.11720 0.40325 0.08503
 H935 H 1.20424 0.39004 0.16316
 H936 H 1.06275 0.33526 0.04933
 C937 C 0.63166 0.83765 0.60488
 C938 C 0.63945 0.87697 0.60269
 N939 N 0.66712 0.89327 0.62148
 C940 C 0.68723 0.87207 0.64297
 C941 C 0.67945 0.83276 0.64577
 N942 N 0.65189 0.81619 0.62648
 N943 N 0.60263 0.82223 0.58649
 C944 C 0.58075 0.84456 0.56640
 C945 C 0.58816 0.88419 0.56486
 N946 N 0.61772 0.89885 0.58298
 H947 H 0.70857 0.88591 0.65822
 H948 H 0.55737 0.83178 0.55255
 C949 C 1.12313 0.65988 -0.11254
 C950 C 1.09693 0.63265 -0.12476
 N951 N 1.09695 0.62496 -0.15604
 C952 C 1.12215 0.64302 -0.17593
 C953 C 1.14973 0.66987 -0.16408
 N954 N 1.14919 0.67765 -0.13234
 N955 N 1.12260 0.66724 -0.08096
 C956 C 1.09774 0.64794 -0.06111
 C957 C 1.07272 0.61936 -0.07329
 N958 N 1.07312 0.61282 -0.10496
 H959 H 1.12086 0.63580 -0.20073
 H960 H 1.09925 0.65312 -0.03598
 C961 C 0.61993 1.15842 0.38855
 C962 C 0.60148 1.12515 0.37744
 N963 N 0.60802 1.11305 0.34759
 C964 C 0.63240 1.13261 0.32809
 C965 C 0.65187 1.16574 0.33891
 N966 N 0.64503 1.17800 0.36912
 N967 N 0.61289 1.16994 0.41877
 C968 C 0.58893 1.14920 0.43841
 C969 C 0.57176 1.11499 0.42745
 N970 N 0.57853 1.10435 0.39707
 H971 H 0.63692 1.12197 0.30442
 H972 H 0.58501 1.15821 0.46260
 C973 C 0.86710 0.66198 0.10609
 C974 C 0.86271 0.62209 0.10671
 N975 N 0.83717 0.60557 0.12709
 C976 C 0.81599 0.62713 0.14749
 C977 C 0.82040 0.66712 0.14758
 N978 N 0.84581 0.68387 0.12665
 N979 N 0.89392 0.67775 0.08592
 C980 C 0.91668 0.65530 0.06669
 C981 C 0.91262 0.61517 0.06791
 N982 N 0.88533 0.60011 0.08786
 H983 H 0.79648 0.61311 0.16404
 H984 H 0.93804 0.66849 0.05121
 C985 C 0.37359 1.15570 0.61379
 C986 C 0.38976 1.12084 0.62385
 N987 N 0.38214 1.10746 0.65319
 C988 C 0.35875 1.12734 0.67319
 C989 C 0.34162 1.16204 0.66330
 N990 N 0.34959 1.17554 0.63368
 N991 N 0.38176 1.16863 0.58415
 C992 C 0.40475 1.14776 0.56400
 C993 C 0.41958 1.11209 0.57390
 N994 N 0.41178 1.10003 0.60373
 H995 H 0.35323 1.11583 0.69647
 H996 H 0.40987 1.15801 0.54028
 C997 C 0.87322 0.33636 -0.10702
 C998 C 0.86570 0.37581 -0.10644
 N999 N 0.83921 0.39135 -0.12674
 C1000 C 0.81993 0.36927 -0.14808
 C1001 C 0.82720 0.32973 -0.14920
 N1002 N 0.85373 0.31391 -0.12846
 N1003 N 0.90094 0.32169 -0.08690
 C1004 C 0.92158 0.34481 -0.06654
 C1005 C 0.91420 0.38452 -0.06636
 N1006 N 0.88613 0.39845 -0.08638
 H1007 H 0.79941 0.38256 -0.16437
 H1008 H 0.94374 0.33249 -0.05117
 C1009 C 0.37088 0.83426 0.39363
 C1010 C 0.36048 0.87286 0.39713
 N1011 N 0.33155 0.88822 0.37897
 C1012 C 0.31263 0.86684 0.35695
 C1013 C 0.32298 0.82828 0.35283
 N1014 N 0.35189 0.81259 0.37143
 N1015 N 0.40100 0.81984 0.41152
 C1016 C 0.42142 0.84249 0.43233
 C1017 C 0.41141 0.88148 0.43518
 N1018 N 0.38083 0.89509 0.41752
 H1019 H 0.29015 0.88001 0.34233
 H1020 H 0.44573 0.83053 0.44569
 C1021 C 1.10474 1.13225 0.35833
 C1022 C 1.10958 1.13982 0.39048
 N1023 N 1.13343 1.16881 0.40006
 C1024 C 1.15334 1.19043 0.37878
 C1025 C 1.14926 1.18245 0.34650
 N1026 N 1.12470 1.15368 0.33711
 N1027 N 1.08143 1.10263 0.34893
 C1028 C 1.06301 1.07988 0.37043
 C1029 C 1.06850 1.08710 0.40270
 N1030 N 1.09146 1.11715 0.41173
 H1031 H 1.17270 1.21298 0.38703
 H1032 H 1.04488 1.05625 0.36245
 C1033 C 0.60689 0.63058 -0.14203
 C1034 C 0.61238 0.63778 -0.10987
 N1035 N 0.63587 0.66703 -0.10031
 C1036 C 0.65487 0.68927 -0.12165
 C1037 C 0.65017 0.68162 -0.15392
 N1038 N 0.62596 0.65261 -0.16328
 N1039 N 0.58376 0.60085 -0.15142
 C1040 C 0.56597 0.57772 -0.12987
 C1041 C 0.57200 0.58472 -0.09765
 N1042 N 0.59490 0.61476 -0.08863
 H1043 H 0.67406 0.71199 -0.11346
 H1044 H 0.54771 0.55415 -0.13780
 C1045 C 0.88329 1.11705 0.64096
 C1046 C 0.87481 1.12122 0.60885
 N1047 N 0.84974 1.14908 0.59893
 C1048 C 0.83230 1.17299 0.61989
 C1049 C 0.84030 1.16863 0.65219
 N1050 N 0.86574 1.14071 0.66188
 N1051 N 0.90870 1.08925 0.65070
 C1052 C 0.92627 1.06548 0.62954
 C1053 C 0.91773 1.06977 0.59732
 N1054 N 0.89212 1.09758 0.58797
 H1055 H 0.81194 1.19460 0.61143
 H1056 H 0.94688 1.04393 0.63772
 C1057 C 0.39021 0.62743 0.13981
 C1058 C 0.38234 0.63209 0.10765
 N1059 N 0.35751 0.66012 0.09767
 C1060 C 0.33942 0.68351 0.11866
 C1061 C 0.34643 0.67825 0.15100
 N1062 N 0.37197 0.65049 0.16070
 N1063 N 0.41488 0.59911 0.14969
 C1064 C 0.43201 0.57497 0.12862
 C1065 C 0.42361 0.57939 0.09641
 N1066 N 0.39913 0.60803 0.08687
 H1067 H 0.31903 0.70511 0.11022
 H1068 H 0.45175 0.55273 0.13691
 C1069 C 1.13470 0.88774 0.64184
 C1070 C 1.14396 0.88333 0.60994
 N1071 N 1.17229 0.85814 0.60112
 C1072 C 1.19173 0.83666 0.62290
 C1073 C 1.18206 0.84045 0.65505
 N1074 N 1.15386 0.86629 0.66350
 N1075 N 1.10597 0.91261 0.65059
 C1076 C 1.08557 0.93303 0.62864
 C1077 C 1.09432 0.92800 0.59659
 N1078 N 1.12357 0.90344 0.58815
 H1079 H 1.21403 0.81667 0.61501
 H1080 H 1.06240 0.95228 0.63611
 C1081 C 0.63088 0.38472 0.14061
 C1082 C 0.63917 0.38007 0.10855
 N1083 N 0.66731 0.35491 0.09924
 C1084 C 0.68759 0.33383 0.12075
 C1085 C 0.67908 0.33821 0.15290
 N1086 N 0.65099 0.36370 0.16198
 N1087 N 0.60245 0.40966 0.14985
 C1088 C 0.58161 0.43015 0.12822
 C1089 C 0.58969 0.42517 0.09607
 N1090 N 0.61841 0.40032 0.08714
 H1091 H 0.70978 0.31378 0.11281
 H1092 H 0.55886 0.44968 0.13604
 C1093 C 0.89431 0.86259 0.36037
 C1094 C 0.88874 0.85555 0.39253
 N1095 N 0.86303 0.82811 0.40205
 C1096 C 0.84197 0.80760 0.38065
 C1097 C 0.84690 0.81519 0.34842
 N1098 N 0.87329 0.84229 0.33914
 N1099 N 0.91936 0.89069 0.35091
 C1100 C 0.93887 0.91254 0.37238
 C1101 C 0.93270 0.90591 0.40462
 N1102 N 0.90802 0.87732 0.41378
 H1103 H 0.82114 0.78629 0.38876
 H1104 H 0.95841 0.93504 0.36438
 C1105 C 0.37876 0.37823 -0.13942
 C1106 C 0.37189 0.37217 -0.10728
 N1107 N 0.34327 0.34759 -0.09786
 C1108 C 0.32107 0.32850 -0.11937
 C1109 C 0.32817 0.33436 -0.15158
 N1110 N 0.35684 0.35914 -0.16074
 N1111 N 0.40729 0.40296 -0.14882
 C1112 C 0.42942 0.42211 -0.12727
 C1113 C 0.42257 0.41589 -0.09508
 N1114 N 0.39395 0.39106 -0.08596
 H1115 H 0.29855 0.30881 -0.11140
 H1116 H 0.45195 0.44183 -0.13520
 C1117 C 1.11739 0.34348 -0.11560
 C1118 C 1.09757 0.37610 -0.12667
 N1119 N 1.10226 0.38771 -0.15688
 C1120 C 1.12633 0.36839 -0.17673
 C1121 C 1.14736 0.33622 -0.16578
 N1122 N 1.14217 0.32433 -0.13533
 N1123 N 1.11236 0.33238 -0.08505
 C1124 C 1.08915 0.35306 -0.06497
 C1125 C 1.07090 0.38676 -0.07588
 N1126 N 1.07544 0.39694 -0.10660
 H1127 H 1.12957 0.37864 -0.20067
 H1128 H 1.08677 0.34451 -0.04052
 C1129 C 0.62387 0.83661 0.39198
 C1130 C 0.62848 0.87650 0.39138
 N1131 N 0.65488 0.89289 0.37169
 C1132 C 0.67674 0.87120 0.35191
 C1133 C 0.67204 0.83126 0.35168
 N1134 N 0.64574 0.81457 0.37192
 N1135 N 0.59649 0.82102 0.41174
 C1136 C 0.57347 0.84365 0.43064
 C1137 C 0.57782 0.88375 0.42940
 N1138 N 0.60556 0.89862 0.40982
 H1139 H 0.69698 0.88512 0.33587
 H1140 H 0.55186 0.83062 0.44599
 C1141 C 0.86605 0.66336 -0.10371
 C1142 C 0.85663 0.62437 -0.10111
 N1143 N 0.82914 0.60868 -0.12040
 C1144 C 0.81078 0.63012 -0.14271
 C1145 C 0.82018 0.66906 -0.14585
 N1146 N 0.84752 0.68510 -0.12609
 N1147 N 0.89492 0.67813 -0.08484
 C1148 C 0.91515 0.65547 -0.06395
 C1149 C 0.90618 0.61615 -0.06200
 N1150 N 0.87674 0.60212 -0.08056
 H1151 H 0.78938 0.61678 -0.15820
 H1152 H 0.93864 0.66769 -0.04986
 C1153 C 0.36505 1.16109 0.39708
 C1154 C 0.35757 1.12159 0.39765
 N1155 N 0.33178 1.10601 0.37684
 C1156 C 0.31325 1.12807 0.35502
 C1157 C 0.32056 1.16763 0.35392
 N1158 N 0.34627 1.18350 0.37520
 N1159 N 0.39227 1.17582 0.41751
 C1160 C 0.41257 1.15274 0.43810
 C1161 C 0.40535 1.11299 0.43821
 N1162 N 0.37766 1.09893 0.41798
 H1163 H 0.29327 1.11477 0.33834
 H1164 H 0.43457 1.16509 0.45356
 C1165 C 1.12414 0.66608 0.10475
 C1166 C 1.14149 0.63185 0.09447
 N1167 N 1.17588 0.61978 0.10752
 C1168 C 1.19363 0.64014 0.13084
 C1169 C 1.17601 0.67384 0.14196
 N1170 N 1.14164 0.68635 0.12850
 N1171 N 1.08921 0.67737 0.09176
 C1172 C 1.07042 0.65546 0.06960
 C1173 C 1.08700 0.62024 0.06043
 N1174 N 1.12245 0.60986 0.07301
 H1175 H 1.22085 0.62969 0.14112
 H1176 H 1.04196 0.66438 0.06063
 C1177 C 0.62395 1.16350 0.60520
 C1178 C 0.63687 1.12583 0.60028
 N1179 N 0.66721 1.11158 0.61755
 C1180 C 0.68519 1.13317 0.63996
 C1181 C 0.67227 1.17073 0.64549
 N1182 N 0.64193 1.18535 0.62782
 N1183 N 0.59263 1.17683 0.58814
 C1184 C 0.57333 1.15393 0.56688
 C1185 C 0.58572 1.11577 0.56269
 N1186 N 0.61753 1.10322 0.57947
 H1187 H 0.70906 1.12095 0.65369
 H1188 H 0.54786 1.16491 0.55437
 C1189 C 0.88494 0.33774 0.11413
 C1190 C 0.90529 0.36967 0.12589
 N1191 N 0.90168 0.37950 0.15660
 C1192 C 0.87827 0.35911 0.17629
 C1193 C 0.85658 0.32764 0.16477
 N1194 N 0.86062 0.31753 0.13373
 N1195 N 0.88905 0.32838 0.08310
 C1196 C 0.91184 0.35003 0.06332
 C1197 C 0.93068 0.38306 0.07496
 N1198 N 0.92694 0.39159 0.10610
 H1199 H 0.87595 0.36813 0.20062
 H1200 H 0.91341 0.34281 0.03855
 C1201 C 0.38011 0.83774 0.61619
 C1202 C 0.40692 0.86466 0.62806
 N1203 N 0.40877 0.87112 0.65951
 C1204 C 0.38468 0.85232 0.67985
 C1205 C 0.35612 0.82626 0.66829
 N1206 N 0.35502 0.81949 0.63642
 N1207 N 0.37881 0.83138 0.58449
 C1208 C 0.40238 0.85143 0.56420
 C1209 C 0.42778 0.87988 0.57604
 N1210 N 0.42933 0.88544 0.60782
 H1211 H 0.38727 0.85869 0.70475
 H1212 H 0.39949 0.84697 0.53905
 C1213 C 0.33083 1.12239 -0.11026
 C1214 C 0.36341 1.14071 -0.09657
 N1215 N 0.37344 1.17657 -0.10609
 C1216 C 0.35276 1.19486 -0.12914
 C1217 C 0.32117 1.17615 -0.14398
 N1218 N 0.31068 1.14026 -0.13404
 N1219 N 0.32104 1.08644 -0.10038
 C1220 C 0.34299 1.06765 -0.07810
 C1221 C 0.37703 1.08515 -0.06576
 N1222 N 0.38589 1.12152 -0.07524
 H1223 H 0.36167 1.22328 -0.13656
 H1224 H 0.33531 1.03864 -0.07152
 C1225 C 0.83544 0.62216 0.39032
 C1226 C 0.86636 0.59958 0.37886
 N1227 N 0.87691 0.60208 0.34818
 C1228 C 0.85815 0.62638 0.32818
 C1229 C 0.82753 0.65000 0.33930
 N1230 N 0.81671 0.64714 0.37034
 N1231 N 0.82570 0.61945 0.42144
 C1232 C 0.84614 0.59591 0.44159
 C1233 C 0.87821 0.57455 0.43016
 N1234 N 0.88700 0.57701 0.39894
 H1235 H 0.86761 0.62759 0.30386
 H1236 H 0.83900 0.59564 0.46643
 C1237 C 0.66504 1.12998 0.10657
 C1238 C 0.62457 1.13736 0.10453
 N1239 N 0.60798 1.16441 0.12317
 C1240 C 0.62993 1.18433 0.14431
 C1241 C 0.67044 1.17704 0.14704
 N1242 N 0.68733 1.14997 0.12793
 N1243 N 0.68073 1.10176 0.08813
 C1244 C 0.65764 1.08045 0.06812
 C1245 C 0.61682 1.08747 0.06671
 N1246 N 0.60192 1.11613 0.08496
 H1247 H 0.61574 1.20518 0.15939
 H1248 H 0.67075 1.05786 0.05419
 C1249 C 1.16544 0.63350 0.60599
 C1250 C 1.12520 0.64177 0.60307
 N1251 N 1.10876 0.66958 0.62104
 C1252 C 1.13060 0.68933 0.64236
 C1253 C 1.17079 0.68100 0.64599
 N1254 N 1.18754 0.65324 0.62756
 N1255 N 1.18103 0.60456 0.58832
 C1256 C 1.15803 0.58329 0.56828
 C1257 C 1.11742 0.59107 0.56610
 N1258 N 1.10257 0.62049 0.58350
 H1259 H 1.11652 0.71074 0.65697
 H1260 H 1.17099 0.55999 0.55507
 C1261 C 0.65987 0.88045 -0.11256
 C1262 C 0.62624 0.89957 -0.12360
 N1263 N 0.61356 0.89384 -0.15353
 C1264 C 0.63284 0.86963 -0.17317
 C1265 C 0.66622 0.84947 -0.16239
 N1266 N 0.67911 0.85552 -0.13211
 N1267 N 0.67202 0.88667 -0.08227
 C1268 C 0.65150 0.91042 -0.06248
 C1269 C 0.61682 0.92825 -0.07334
 N1270 N 0.60557 0.92231 -0.10380
 H1271 H 0.62174 0.86577 -0.19690
 H1272 H 0.66091 0.91364 -0.03823
 C1273 C 1.16348 0.38158 0.38925
 C1274 C 1.13200 0.40359 0.37778
 N1275 N 1.12009 0.39971 0.34747
 C1276 C 1.13806 0.37460 0.32784
 C1277 C 1.16925 0.35159 0.33901
 N1278 N 1.18143 0.35582 0.36967
 N1279 N 1.17460 0.38568 0.42002
 C1280 C 1.15496 0.41000 0.43987
 C1281 C 1.12227 0.43071 0.42852
 N1282 N 1.11215 0.42695 0.39761
 H1283 H 1.12761 0.37232 0.30378
 H1284 H 1.16314 0.41129 0.46452
 C1285 C 0.34035 0.87651 0.11035
 C1286 C 0.37303 0.89726 0.12113
 N1287 N 0.38578 0.89301 0.15121
 C1288 C 0.36746 0.86861 0.17126
 C1289 C 0.33512 0.84689 0.16069
 N1290 N 0.32212 0.85152 0.13032
 N1291 N 0.32821 0.88108 0.07987
 C1292 C 0.34796 0.90480 0.05961
 C1293 C 0.38172 0.92422 0.07030
 N1294 N 0.39289 0.92000 0.10092
 H1295 H 0.37848 0.86590 0.19514
 H1296 H 0.33877 0.90679 0.03521
 C1297 C 0.84450 0.37191 0.61048
 C1298 C 0.88159 0.38556 0.61964
 N1299 N 0.89714 0.37545 0.64787
 C1300 C 0.87722 0.35210 0.66771
 C1301 C 0.84013 0.33774 0.65883
 N1302 N 0.82447 0.34800 0.63025
 N1303 N 0.82943 0.38283 0.58196
 C1304 C 0.85021 0.40628 0.56212
 C1305 C 0.88796 0.41880 0.57115
 N1306 N 0.90216 0.40812 0.59984
 H1307 H 0.89040 0.34464 0.69018
 H1308 H 0.83812 0.41381 0.53929
 C1309 C 1.12560 1.11679 0.63951
 C1310 C 1.13238 1.12262 0.60734
 N1311 N 1.15999 1.14816 0.59772
 C1312 C 1.18107 1.16865 0.61906
 C1313 C 1.17382 1.16331 0.65131
 N1314 N 1.14638 1.13732 0.66068
 N1315 N 1.09781 1.09134 0.64907
 C1316 C 1.07617 1.07143 0.62764
 C1317 C 1.08269 1.07770 0.59541
 N1318 N 1.11077 1.10303 0.58616
 H1319 H 1.20264 1.18923 0.61091
 H1320 H 1.05411 1.05129 0.63568
 C1321 C 0.61012 0.63240 0.13938
 C1322 C 0.61568 0.63933 0.10721
 N1323 N 0.64083 0.66723 0.09762
 C1324 C 0.66118 0.68845 0.11897
 C1325 C 0.65606 0.68115 0.15123
 N1326 N 0.63042 0.65342 0.16056
 N1327 N 0.58544 0.60405 0.14893
 C1328 C 0.56618 0.58192 0.12751
 C1329 C 0.57220 0.58857 0.09526
 N1330 N 0.59664 0.61731 0.08602
 H1331 H 0.68144 0.71026 0.11083
 H1332 H 0.54684 0.55929 0.13558
 C1333 C 1.11787 0.87334 0.35813
 C1334 C 1.12556 0.86733 0.39019
 N1335 N 1.15077 0.83926 0.39942
 C1336 C 1.16912 0.81693 0.37782
 C1337 C 1.16193 0.82325 0.34561
 N1338 N 1.13631 0.85127 0.33661
 N1339 N 1.09257 0.90148 0.34901
 C1340 C 1.07455 0.92405 0.37074
 C1341 C 1.08256 0.91815 0.40287
 N1342 N 1.10782 0.88982 0.41166
 H1343 H 1.18951 0.79504 0.38572
 H1344 H 1.05431 0.94618 0.36303
 C1345 C 0.62321 0.38124 -0.14234
 C1346 C 0.63146 0.37602 -0.11027
 N1347 N 0.65704 0.34833 -0.10091
 C1348 C 0.67500 0.32544 -0.12235
 C1349 C 0.66697 0.33063 -0.15457
 N1350 N 0.64122 0.35854 -0.16374
 N1351 N 0.59719 0.40877 -0.15151
 C1352 C 0.57877 0.43123 -0.12986
 C1353 C 0.58700 0.42584 -0.09769
 N1354 N 0.61327 0.39836 -0.08887
 H1355 H 0.69552 0.30375 -0.11429
 H1356 H 0.55776 0.45263 -0.13765
 C1357 C 0.86992 1.10792 0.36057
 C1358 C 0.86261 1.11264 0.39276
 N1359 N 0.83438 1.13742 0.40259
 C1360 C 0.81326 1.15831 0.38145
 C1361 C 0.82105 1.15411 0.34919
 N1362 N 0.84902 1.12876 0.33960
 N1363 N 0.89865 1.08357 0.35083
 C1364 C 0.92078 1.06379 0.37208
 C1365 C 0.91373 1.06895 0.40436
 N1366 N 0.88463 1.09310 0.41377
 H1367 H 0.79127 1.17832 0.38979
 H1368 H 0.94371 1.04469 0.36389
 C1369 C 0.36503 0.60513 -0.13965
 C1370 C 0.35670 0.60895 -0.10753
 N1371 N 0.32846 0.63381 -0.09783
 C1372 C 0.30840 0.65568 -0.11898
 C1373 C 0.31735 0.65254 -0.15114
 N1374 N 0.34522 0.62700 -0.16063
 N1375 N 0.39395 0.58089 -0.14923
 C1376 C 0.41550 0.56060 -0.12789
 C1377 C 0.40776 0.56518 -0.09564
 N1378 N 0.37823 0.58899 -0.08641
 H1379 H 0.28641 0.67574 -0.11070
 H1380 H 0.43884 0.54191 -0.13597
 C1381 C 0.88924 0.86999 0.64174
 C1382 C 0.88439 0.86229 0.60960
 N1383 N 0.85949 0.83420 0.59999
 C1384 C 0.83874 0.81339 0.62126
 C1385 C 0.84319 0.82127 0.65351
 N1386 N 0.86852 0.84934 0.66293
 N1387 N 0.91398 0.89845 0.65117
 C1388 C 0.93405 0.91980 0.62968
 C1389 C 0.92883 0.91221 0.59746
 N1390 N 0.90420 0.88351 0.58840
 H1391 H 0.81879 0.79133 0.61303
 H1392 H 0.95348 0.94245 0.63764
 C1393 C 0.39335 0.36871 0.14256
 C1394 C 0.38916 0.36022 0.11050
 N1395 N 0.36377 0.33246 0.10103
 C1396 C 0.34187 0.31281 0.12233
 C1397 C 0.34554 0.32153 0.15451
 N1398 N 0.37147 0.34919 0.16381
 N1399 N 0.41836 0.39705 0.15181
 C1400 C 0.43909 0.41769 0.13023
 C1401 C 0.43430 0.40956 0.09804
 N1402 N 0.40961 0.38078 0.08917
 H1403 H 0.32163 0.29096 0.11416
 H1404 H 0.45839 0.44050 0.13807
   
