data_POSCAR
  _audit_creation_date              2014-09-24
  _audit_creation_method            'ToBaCCo'
  _symmetry_space_group_name_H-M    'P1'
  _symmetry_Int_Tables_number       1
  _symmetry_cell_setting            triclinic
  loop_
  _symmetry_equiv_pos_as_xyz
 x,y,z
_cell_length_a 54.9296
_cell_length_b 54.9042
_cell_length_c 55.3945
_cell_angle_alpha 90.118000
_cell_angle_beta 89.951700
_cell_angle_gamma 90.076700
loop_
  _atom_site_label
  _atom_site_type_symbol
  _atom_site_fract_x
  _atom_site_fract_y
  _atom_site_fract_z
N1 N 0.16942 0.22740 0.23227
 N2 N 0.17674 0.20908 0.24565
 C3 C 0.16141 0.20669 0.26457
 C4 C 0.14354 0.22443 0.26274
 C5 C 0.14928 0.23716 0.24201
 H6 H 0.16289 0.19290 0.27841
 H7 H 0.13972 0.25266 0.23466
 Cu8 Cu 0.20534 0.19015 0.23634
 Cu9 Cu 0.18659 0.23807 0.20356
 Cu10 Cu 0.23817 0.20607 0.18723
 N11 N 0.23403 0.17176 0.22634
 N12 N 0.24667 0.17821 0.20724
 C13 C 0.26523 0.16259 0.20416
 C14 C 0.26436 0.14528 0.22232
 C15 C 0.24420 0.15171 0.23607
 H16 H 0.27819 0.16369 0.18953
 H17 H 0.23738 0.14248 0.25191
 N18 N 0.22641 0.23470 0.16928
 N19 N 0.20630 0.24639 0.17519
 C20 C 0.20255 0.26449 0.15929
 C21 C 0.22125 0.26434 0.14260
 C22 C 0.23612 0.24523 0.14951
 H23 H 0.18752 0.27716 0.16001
 H24 H 0.25254 0.23922 0.14055
 H25 H 0.20165 0.20449 0.19487
 H26 H 0.22055 0.22526 0.21401
 N27 N 0.66977 0.72558 0.73199
 N28 N 0.67641 0.70585 0.74361
 C29 C 0.66119 0.70229 0.76234
 C30 C 0.64400 0.72078 0.76254
 C31 C 0.65009 0.73521 0.74291
 H32 H 0.66257 0.68731 0.77487
 H33 H 0.64099 0.75156 0.73697
 Cu34 Cu 0.70452 0.68678 0.73357
 Cu35 Cu 0.68706 0.73716 0.70353
 Cu36 Cu 0.73852 0.70521 0.68625
 N37 N 0.73415 0.66984 0.72407
 N38 N 0.74762 0.67736 0.70594
 C39 C 0.76721 0.66277 0.70383
 C40 C 0.76590 0.64505 0.72154
 C41 C 0.74464 0.65011 0.73402
 H42 H 0.78118 0.66472 0.69022
 H43 H 0.73758 0.64037 0.74945
 N44 N 0.72642 0.73382 0.66856
 N45 N 0.70687 0.74603 0.67522
 C46 C 0.70317 0.76437 0.65955
 C47 C 0.72125 0.76373 0.64208
 C48 C 0.73566 0.74406 0.64846
 H49 H 0.68822 0.77707 0.66070
 H50 H 0.75165 0.73756 0.63912
 H51 H 0.70140 0.70390 0.69304
 H52 H 0.72035 0.72303 0.71376
 N53 N 0.33247 0.77436 0.72992
 N54 N 0.32646 0.79347 0.74294
 C55 C 0.34282 0.79618 0.76089
 C56 C 0.36008 0.77780 0.75895
 C57 C 0.35275 0.76432 0.73906
 H58 H 0.34232 0.81059 0.77419
 H59 H 0.36155 0.74844 0.73155
 Cu60 Cu 0.29821 0.81317 0.73439
 Cu61 Cu 0.31421 0.76397 0.70157
 Cu62 Cu 0.26375 0.79820 0.68648
 N63 N 0.26930 0.83198 0.72597
 N64 N 0.25616 0.82584 0.70712
 C65 C 0.23768 0.84160 0.70468
 C66 C 0.23909 0.85886 0.72297
 C67 C 0.25952 0.85205 0.73621
 H68 H 0.22445 0.84054 0.69034
 H69 H 0.26686 0.86104 0.75198
 N70 N 0.27426 0.76961 0.66778
 N71 N 0.29344 0.75644 0.67351
 C72 C 0.29584 0.73830 0.65724
 C73 C 0.27725 0.74014 0.64040
 C74 C 0.26396 0.76025 0.64778
 H75 H 0.31016 0.72483 0.65760
 H76 H 0.24793 0.76762 0.63924
 H77 H 0.30082 0.79804 0.69301
 H78 H 0.28141 0.77839 0.71271
 N79 N 0.83017 0.27304 0.23257
 N80 N 0.82378 0.29231 0.24511
 C81 C 0.83943 0.29520 0.26365
 C82 C 0.85662 0.27662 0.26269
 C83 C 0.85000 0.26299 0.24258
 H84 H 0.83817 0.30958 0.27693
 H85 H 0.85873 0.24683 0.23561
 Cu86 Cu 0.79508 0.31082 0.23591
 Cu87 Cu 0.81231 0.26194 0.20431
 Cu88 Cu 0.76121 0.29508 0.18772
 N89 N 0.76633 0.32926 0.22692
 N90 N 0.75308 0.32309 0.20813
 C91 C 0.73418 0.33860 0.20629
 C92 C 0.73562 0.35542 0.22499
 C93 C 0.75633 0.34882 0.23766
 H94 H 0.72047 0.33768 0.19233
 H95 H 0.76355 0.35746 0.25366
 N96 N 0.77268 0.26610 0.16968
 N97 N 0.79203 0.25356 0.17627
 C98 C 0.79536 0.23502 0.16076
 C99 C 0.77732 0.23573 0.14336
 C100 C 0.76321 0.25575 0.14965
 H101 H 0.81001 0.22201 0.16206
 H102 H 0.74727 0.26237 0.14032
 H103 H 0.79795 0.29541 0.19474
 H104 H 0.77862 0.27574 0.21438
 N105 N 0.83098 0.72656 0.26728
 N106 N 0.82383 0.70743 0.25491
 C107 C 0.83907 0.70402 0.23616
 C108 C 0.85681 0.72201 0.23673
 C109 C 0.85101 0.73600 0.25682
 H110 H 0.83733 0.68949 0.22310
 H111 H 0.86059 0.75186 0.26342
 Cu112 Cu 0.79516 0.68904 0.26450
 Cu113 Cu 0.81375 0.73770 0.29606
 Cu114 Cu 0.76261 0.70462 0.31341
 N115 N 0.76651 0.67066 0.27410
 N116 N 0.75377 0.67676 0.29326
 C117 C 0.73490 0.66122 0.29562
 C118 C 0.73587 0.64441 0.27691
 C119 C 0.75622 0.65107 0.26364
 H120 H 0.72152 0.66212 0.30991
 H121 H 0.76293 0.64250 0.24739
 N122 N 0.77454 0.73338 0.33130
 N123 N 0.79389 0.74595 0.32461
 C124 C 0.79737 0.76435 0.34031
 C125 C 0.77937 0.76345 0.35782
 C126 C 0.76523 0.74350 0.35147
 H127 H 0.81209 0.77735 0.33910
 H128 H 0.74930 0.73682 0.36081
 H129 H 0.79946 0.70428 0.30563
 H130 H 0.77992 0.72426 0.28660
 N131 N 0.33340 0.22762 -0.23326
 N132 N 0.32627 0.20848 -0.24562
 C133 C 0.34167 0.20497 -0.26421
 C134 C 0.35954 0.22294 -0.26354
 C135 C 0.35356 0.23696 -0.24350
 H136 H 0.33992 0.19035 -0.27716
 H137 H 0.36305 0.25280 -0.23673
 Cu138 Cu 0.29760 0.18992 -0.23617
 Cu139 Cu 0.31601 0.23907 -0.20486
 Cu140 Cu 0.26557 0.20579 -0.18675
 N141 N 0.26953 0.17111 -0.22555
 N142 N 0.25718 0.17744 -0.20622
 C143 C 0.23881 0.16159 -0.20291
 C144 C 0.23957 0.14427 -0.22115
 C145 C 0.25941 0.15094 -0.23518
 H146 H 0.22592 0.16269 -0.18822
 H147 H 0.26598 0.14186 -0.25122
 N148 N 0.27707 0.23511 -0.16957
 N149 N 0.29615 0.24786 -0.17662
 C150 C 0.29921 0.26686 -0.16154
 C151 C 0.28124 0.26608 -0.14406
 C152 C 0.26753 0.24566 -0.14972
 H153 H 0.31364 0.28016 -0.16304
 H154 H 0.25162 0.23911 -0.14026
 H155 H 0.30204 0.20528 -0.19509
 H156 H 0.28207 0.22505 -0.21400
 N157 N 0.66850 0.27208 -0.23225
 N158 N 0.67537 0.29137 -0.24445
 C159 C 0.66011 0.29466 -0.26313
 C160 C 0.64254 0.27641 -0.26272
 C161 C 0.64857 0.26243 -0.24271
 H162 H 0.66172 0.30935 -0.27595
 H163 H 0.63926 0.24642 -0.23612
 Cu164 Cu 0.70359 0.31028 -0.23460
 Cu165 Cu 0.68601 0.26098 -0.20372
 Cu166 Cu 0.73673 0.29467 -0.18618
 N167 N 0.73187 0.32916 -0.22488
 N168 N 0.74490 0.32304 -0.20597
 C169 C 0.76336 0.33907 -0.20345
 C170 C 0.76182 0.35620 -0.22180
 C171 C 0.74153 0.34921 -0.23499
 H172 H 0.77689 0.33822 -0.18933
 H173 H 0.73430 0.35802 -0.25084
 N174 N 0.72532 0.26541 -0.16867
 N175 N 0.70605 0.25272 -0.17543
 C176 C 0.70277 0.23413 -0.15998
 C177 C 0.72080 0.23501 -0.14254
 C178 C 0.73479 0.25513 -0.14869
 H179 H 0.68831 0.22087 -0.16142
 H180 H 0.75057 0.26195 -0.13920
 H181 H 0.69990 0.29457 -0.19363
 H182 H 0.71961 0.27513 -0.21313
 N183 N 0.16726 0.77367 0.26956
 N184 N 0.17361 0.79300 0.25712
 C185 C 0.15787 0.79608 0.23882
 C186 C 0.14058 0.77771 0.23968
 C187 C 0.14718 0.76377 0.25952
 H188 H 0.15885 0.81080 0.22598
 H189 H 0.13807 0.74771 0.26626
 Cu190 Cu 0.20154 0.81268 0.26613
 Cu191 Cu 0.18551 0.76320 0.29800
 Cu192 Cu 0.23572 0.79832 0.31404
 N193 N 0.22960 0.83221 0.27511
 N194 N 0.24298 0.82652 0.29389
 C195 C 0.26096 0.84304 0.29627
 C196 C 0.25876 0.86019 0.27795
 C197 C 0.23856 0.85254 0.26489
 H198 H 0.27446 0.84257 0.31043
 H199 H 0.23083 0.86108 0.24913
 N200 N 0.22542 0.76916 0.33210
 N201 N 0.20638 0.75578 0.32609
 C202 C 0.20422 0.73733 0.34198
 C203 C 0.22281 0.73913 0.35884
 C204 C 0.23584 0.75959 0.35190
 H205 H 0.19011 0.72362 0.34129
 H206 H 0.25178 0.76704 0.36059
 H207 H 0.19865 0.79725 0.30723
 H208 H 0.21846 0.77798 0.28761
 N209 N 0.47817 0.41827 0.48141
 N210 N 0.45839 0.42380 0.49356
 C211 C 0.45532 0.40748 0.51145
 C212 C 0.47422 0.39077 0.51043
 C213 C 0.48834 0.39830 0.49109
 H214 H 0.44040 0.40770 0.52416
 H215 H 0.50482 0.38994 0.48442
 Cu216 Cu 0.43880 0.45176 0.48444
 Cu217 Cu 0.48918 0.43694 0.45362
 Cu218 Cu 0.45373 0.48635 0.43674
 N219 N 0.41923 0.47971 0.47536
 N220 N 0.42509 0.49318 0.45664
 C221 C 0.40881 0.51137 0.45452
 C222 C 0.39178 0.50926 0.47295
 C223 C 0.39907 0.48887 0.48576
 H224 H 0.40950 0.52517 0.44067
 H225 H 0.39044 0.48130 0.50158
 N226 N 0.48347 0.47640 0.41916
 N227 N 0.49723 0.45797 0.42599
 C228 C 0.51618 0.45590 0.41067
 C229 C 0.51424 0.47376 0.39323
 C230 C 0.49324 0.48640 0.39917
 H231 H 0.53003 0.44198 0.41169
 H232 H 0.48567 0.50178 0.38964
 H233 H 0.47350 0.46965 0.46355
 H234 H 0.45514 0.44940 0.44352
 N235 N -0.02324 -0.08397 0.97922
 N236 N -0.04242 -0.07780 0.99202
 C237 C -0.04547 -0.09408 1.00994
 C238 C -0.02723 -0.11148 1.00827
 C239 C -0.01349 -0.10435 0.98849
 H240 H -0.05985 -0.09327 1.02322
 H241 H 0.00249 -0.11323 0.98130
 Cu242 Cu -0.06132 -0.04893 0.98405
 Cu243 Cu -0.01231 -0.06537 0.95132
 Cu244 Cu -0.04543 -0.01380 0.93691
 N245 N -0.07978 -0.01992 0.97556
 N246 N -0.07308 -0.00600 0.95745
 C247 C -0.08843 0.01300 0.95578
 C248 C -0.10582 0.01085 0.97371
 C249 C -0.09981 -0.01031 0.98590
 H250 H -0.08731 0.02708 0.94221
 H251 H -0.10917 -0.01793 1.00131
 N252 N -0.01695 -0.02467 0.91827
 N253 N -0.00421 -0.04422 0.92374
 C254 C 0.01384 -0.04684 0.90743
 C255 C 0.01236 -0.02803 0.89083
 C256 C -0.00742 -0.01436 0.89838
 H257 H 0.02694 -0.06150 0.90755
 H258 H -0.01452 0.00187 0.89000
 H259 H -0.02604 -0.03237 0.96297
 H260 H -0.04598 -0.05103 0.94280
 N261 N 1.02378 0.58102 0.98152
 N262 N 1.04294 0.57416 0.99395
 C263 C 1.04636 0.58965 1.01245
 C264 C 1.02840 0.60730 1.01177
 C265 C 1.01436 0.60120 0.99180
 H266 H 1.06096 0.58818 1.02540
 H267 H 0.99849 0.61067 0.98516
 Cu268 Cu 1.06174 0.54578 0.98481
 Cu269 Cu 1.01274 0.56306 0.95300
 Cu270 Cu 1.04698 0.51241 0.93639
 N271 N 1.08067 0.51746 0.97565
 N272 N 1.07500 0.50450 0.95653
 C273 C 1.09093 0.48600 0.95434
 C274 C 1.10755 0.48743 0.97315
 C275 C 1.10038 0.50770 0.98628
 H276 H 1.09031 0.47248 0.94014
 H277 H 1.10873 0.51479 1.00247
 N278 N 1.01798 0.52332 0.91850
 N279 N 1.00478 0.54239 0.92478
 C280 C 0.98603 0.54453 0.90921
 C281 C 0.98746 0.52587 0.89234
 C282 C 1.00803 0.51289 0.89887
 H283 H 0.97226 0.55853 0.91023
 H284 H 1.01528 0.49692 0.89006
 H285 H 1.02676 0.52963 0.96295
 H286 H 1.04642 0.54939 0.94374
 N287 N 0.52445 0.08286 0.47907
 N288 N 0.54389 0.07696 0.49155
 C289 C 0.54669 0.09299 0.50978
 C290 C 0.52802 0.10993 0.50868
 C291 C 0.51425 0.10280 0.48891
 H292 H 0.56133 0.09244 0.52278
 H293 H 0.49799 0.11140 0.48207
 Cu294 Cu 0.56375 0.04910 0.48251
 Cu295 Cu 0.51387 0.06458 0.45077
 Cu296 Cu 0.54838 0.01430 0.43491
 N297 N 0.58259 0.02047 0.47366
 N298 N 0.57646 0.00702 0.45499
 C299 C 0.59245 -0.01135 0.45264
 C300 C 0.60966 -0.00939 0.47082
 C301 C 0.60275 0.01107 0.48385
 H302 H 0.59151 -0.02513 0.43873
 H303 H 0.61183 0.01871 0.49942
 N304 N 0.51937 0.02456 0.41681
 N305 N 0.50620 0.04371 0.42277
 C306 C 0.48779 0.04596 0.40687
 C307 C 0.48944 0.02730 0.39003
 C308 C 0.50973 0.01412 0.39701
 H309 H 0.47422 0.06016 0.40754
 H310 H 0.51705 -0.00190 0.38833
 H311 H 0.52869 0.03190 0.46163
 H312 H 0.54780 0.05143 0.44153
 N313 N -0.02333 0.08268 0.52064
 N314 N -0.04259 0.07614 0.50814
 C315 C -0.04517 0.09133 0.48927
 C316 C -0.02649 0.10829 0.48993
 C317 C -0.01299 0.10219 0.51014
 H318 H -0.05938 0.08994 0.47586
 H319 H 0.00314 0.11124 0.51681
 Cu320 Cu -0.06243 0.04842 0.51763
 Cu321 Cu -0.01268 0.06528 0.54934
 Cu322 Cu -0.04659 0.01484 0.56577
 N323 N -0.08090 0.01964 0.52692
 N324 N -0.07452 0.00675 0.54582
 C325 C -0.09024 -0.01177 0.54862
 C326 C -0.10758 -0.01060 0.53051
 C327 C -0.10102 0.00967 0.51703
 H328 H -0.08915 -0.02496 0.56301
 H329 H -0.11019 0.01667 0.50126
 N330 N -0.01775 0.02582 0.58376
 N331 N -0.00485 0.04514 0.57773
 C332 C 0.01342 0.04792 0.59375
 C333 C 0.01194 0.02942 0.61073
 C334 C -0.00809 0.01581 0.60370
 H335 H 0.02677 0.06237 0.59309
 H336 H -0.01521 -0.00026 0.61242
 H337 H -0.02704 0.03227 0.53886
 H338 H -0.04645 0.05182 0.55864
 N339 N 0.47822 0.58045 0.01581
 N340 N 0.45829 0.57395 0.00437
 C341 C 0.45410 0.58978 -0.01367
 C342 C 0.47237 0.60724 -0.01361
 C343 C 0.48735 0.60067 0.00546
 H344 H 0.43879 0.58871 -0.02585
 H345 H 0.50366 0.60988 0.01147
 Cu346 Cu 0.43993 0.54531 0.01412
 Cu347 Cu 0.49049 0.56250 0.04366
 Cu348 Cu 0.45653 0.51259 0.06239
 N349 N 0.42150 0.51678 0.02414
 N350 N 0.42825 0.50401 0.04302
 C351 C 0.41317 0.48486 0.04561
 C352 C 0.39594 0.48568 0.02743
 C353 C 0.40175 0.50625 0.01417
 H354 H 0.41464 0.47136 0.05971
 H355 H 0.39262 0.51266 -0.00188
 N356 N 0.48585 0.52400 0.07938
 N357 N 0.49957 0.54211 0.07156
 C358 C 0.51884 0.54461 0.08643
 C359 C 0.51689 0.52748 0.10459
 C360 C 0.49576 0.51481 0.09961
 H361 H 0.53286 0.55833 0.08469
 H362 H 0.48833 0.49983 0.10990
 H363 H 0.47555 0.52906 0.03469
 H364 H 0.45700 0.54942 0.05446
 N365 N 0.52378 -0.08288 0.01917
 N366 N 0.54309 -0.07633 0.00676
 C367 C 0.54614 -0.09208 -0.01174
 C368 C 0.52772 -0.10945 -0.01077
 C369 C 0.51395 -0.10286 0.00914
 H370 H 0.56063 -0.09094 -0.02490
 H371 H 0.49787 -0.11184 0.01597
 Cu372 Cu 0.56195 -0.04771 0.01633
 Cu373 Cu 0.51246 -0.06541 0.04754
 Cu374 Cu 0.54546 -0.01474 0.06504
 N375 N 0.58033 -0.01899 0.02645
 N376 N 0.57363 -0.00638 0.04551
 C377 C 0.58904 0.01235 0.04869
 C378 C 0.60651 0.01167 0.03067
 C379 C 0.60035 -0.00856 0.01682
 H380 H 0.58747 0.02550 0.06313
 H381 H 0.60969 -0.01519 0.00095
 N382 N 0.51640 -0.02612 0.08248
 N383 N 0.50384 -0.04545 0.07577
 C384 C 0.48531 -0.04879 0.09131
 C385 C 0.48615 -0.03067 0.10873
 C386 C 0.50616 -0.01663 0.10250
 H387 H 0.47234 -0.06354 0.09014
 H388 H 0.51287 -0.00071 0.11186
 H389 H 0.52652 -0.03189 0.03776
 H390 H 0.54604 -0.05148 0.05731
 N391 N 1.02346 0.41800 0.51637
 N392 N 1.04218 0.42473 0.50321
 C393 C 1.04425 0.40944 0.48422
 C394 C 1.02573 0.39226 0.48557
 C395 C 1.01299 0.39835 0.50630
 H396 H 1.05808 0.41082 0.47041
 H397 H 0.99718 0.38927 0.51361
 Cu398 Cu 1.06179 0.45282 0.51248
 Cu399 Cu 1.01315 0.43546 0.54511
 Cu400 Cu 1.04408 0.48848 0.55894
 N401 N 1.08074 0.48106 0.52255
 N402 N 1.07390 0.49475 0.54083
 C403 C 1.09000 0.51302 0.54366
 C404 C 1.10796 0.51077 0.52617
 C405 C 1.10143 0.49020 0.51313
 H406 H 1.08845 0.52710 0.55724
 H407 H 1.11101 0.48241 0.49793
 N408 N 1.01668 0.47616 0.57855
 N409 N 1.00526 0.45570 0.57327
 C410 C 0.98737 0.45203 0.58942
 C411 C 0.98738 0.47105 0.60584
 C412 C 1.00631 0.48605 0.59837
 H413 H 0.97492 0.43682 0.58888
 H414 H 1.01213 0.50289 0.60671
 H415 H 1.02558 0.46853 0.53277
 H416 H 1.04644 0.45168 0.55356
 C417 C 0.37379 -0.00026 0.25030
 C418 C 0.12701 0.00092 0.75063
 C419 C 0.62431 0.50021 0.24920
 C420 C 0.87526 0.49932 0.74901
 C421 C 0.25110 0.37522 0.00024
 C422 C 0.75032 0.12346 0.00028
 C423 C 0.25061 0.62489 0.49968
 C424 C 0.75045 0.87582 0.50010
 C425 C -0.00144 0.24830 0.37370
 C426 C 0.00006 0.74942 0.12486
 C427 C 0.50133 0.24996 0.62480
 C428 C 0.50049 0.74962 0.87389
 C429 C 0.08245 0.23730 0.30891
 C430 C 0.08220 0.24584 0.28508
 C431 C 0.10212 0.24161 0.27014
 C432 C 0.12243 0.22889 0.27880
 C433 C 0.12217 0.22090 0.30288
 N434 N 0.10248 0.22534 0.31721
 C435 C 0.06109 0.24068 0.32481
 N436 N 0.06416 0.24510 0.34876
 C437 C 0.04498 0.24820 0.36406
 C438 C 0.02063 0.24604 0.35584
 C439 C 0.01762 0.24213 0.33074
 C440 C 0.03751 0.23931 0.31549
 H441 H 0.10138 0.24805 0.25171
 H442 H 0.13760 0.21130 0.31036
 H443 H 0.04875 0.25208 0.38285
 H444 H 0.00009 0.24115 0.32217
 H445 H 0.06680 0.25583 0.27803
 H446 H 0.03434 0.23563 0.29654
 C447 C 0.58444 0.73056 0.81179
 C448 C 0.60127 0.71176 0.81571
 C449 C 0.62067 0.70863 0.79974
 C450 C 0.62357 0.72421 0.77986
 C451 C 0.60657 0.74309 0.77688
 N452 N 0.58778 0.74575 0.79268
 C453 C 0.56333 0.73453 0.82800
 N454 N 0.55296 0.75699 0.82911
 C455 C 0.53349 0.76193 0.84348
 C456 C 0.52332 0.74378 0.85845
 C457 C 0.53301 0.72007 0.85623
 C458 C 0.55303 0.71552 0.84144
 H459 H 0.63337 0.69401 0.80314
 H460 H 0.60798 0.75569 0.76199
 H461 H 0.52595 0.78013 0.84340
 H462 H 0.52489 0.70466 0.86526
 H463 H 0.59981 0.69975 0.83109
 H464 H 0.55976 0.69707 0.84003
 C465 C 0.42219 0.76490 0.80414
 C466 C 0.41802 0.74997 0.78396
 C467 C 0.39788 0.75424 0.76928
 C468 C 0.38179 0.77344 0.77440
 C469 C 0.38691 0.78828 0.79448
 N470 N 0.40665 0.78370 0.80858
 C471 C 0.44295 0.76081 0.82075
 N472 N 0.45119 0.77968 0.83447
 C473 C 0.46945 0.77715 0.85085
 C474 C 0.48019 0.75417 0.85499
 C475 C 0.47271 0.73486 0.83988
 C476 C 0.45398 0.73793 0.82323
 H477 H 0.39512 0.74243 0.75389
 H478 H 0.37528 0.80344 0.79913
 H479 H 0.47543 0.79324 0.86037
 H480 H 0.48091 0.71702 0.84162
 H481 H 0.43025 0.73531 0.77922
 H482 H 0.44790 0.72227 0.81302
 C483 C -0.08556 0.26277 0.31081
 C484 C -0.08949 0.24723 0.29109
 C485 C -0.10850 0.25188 0.27519
 C486 C -0.12385 0.27211 0.27862
 C487 C -0.11896 0.28749 0.29846
 N488 N -0.10021 0.28253 0.31373
 C489 C -0.06536 0.25850 0.32795
 N490 N -0.05481 0.27777 0.33935
 C491 C -0.03538 0.27523 0.35437
 C492 C -0.02517 0.25203 0.35879
 C493 C -0.03639 0.23194 0.34728
 C494 C -0.05640 0.23504 0.33226
 H495 H -0.11090 0.23944 0.26025
 H496 H -0.12989 0.30346 0.30198
 H497 H -0.02775 0.29154 0.36220
 H498 H -0.02909 0.21376 0.34931
 H499 H -0.07774 0.23183 0.28755
 H500 H -0.06457 0.21913 0.32403
 C501 C -0.08296 0.73132 0.18825
 C502 C -0.09962 0.71230 0.18441
 C503 C -0.11925 0.70937 0.20010
 C504 C -0.12251 0.72532 0.21969
 C505 C -0.10564 0.74440 0.22262
 N506 N -0.08664 0.74689 0.20705
 C507 C -0.06177 0.73507 0.17214
 N508 N -0.05208 0.75776 0.16986
 C509 C -0.03283 0.76248 0.15511
 C510 C -0.02232 0.74386 0.14095
 C511 C -0.03120 0.71999 0.14455
 C512 C -0.05095 0.71564 0.15971
 H513 H -0.13179 0.69458 0.19671
 H514 H -0.10738 0.75730 0.23727
 H515 H -0.02581 0.78088 0.15422
 H516 H -0.02271 0.70436 0.13620
 H517 H -0.09784 0.69999 0.16923
 H518 H -0.05715 0.69709 0.16214
 C519 C 0.41917 0.23230 0.68935
 C520 C 0.40246 0.21341 0.68520
 C521 C 0.38275 0.21034 0.70073
 C522 C 0.37931 0.22612 0.72048
 C523 C 0.39630 0.24515 0.72365
 N524 N 0.41542 0.24771 0.70824
 C525 C 0.44051 0.23603 0.67345
 N526 N 0.45031 0.25869 0.67115
 C527 C 0.46949 0.26332 0.65626
 C528 C 0.47963 0.24467 0.64187
 C529 C 0.47091 0.22081 0.64584
 C530 C 0.45129 0.21654 0.66113
 H531 H 0.37029 0.19558 0.69696
 H532 H 0.39466 0.25801 0.73834
 H533 H 0.47657 0.28169 0.65525
 H534 H 0.47929 0.20515 0.63743
 H535 H 0.40428 0.20126 0.66991
 H536 H 0.44506 0.19801 0.66362
 C537 C 0.58327 0.26696 0.68977
 C538 C 0.60006 0.28577 0.68572
 C539 C 0.61967 0.28883 0.70135
 C540 C 0.62293 0.27311 0.72113
 C541 C 0.60591 0.25410 0.72415
 N542 N 0.58686 0.25156 0.70864
 C543 C 0.56198 0.26337 0.67378
 N544 N 0.55217 0.24074 0.67113
 C545 C 0.53306 0.23627 0.65611
 C546 C 0.52301 0.25506 0.64194
 C547 C 0.53174 0.27888 0.64625
 C548 C 0.55128 0.28299 0.66168
 H549 H 0.63219 0.30355 0.69762
 H550 H 0.60744 0.24129 0.73884
 H551 H 0.52596 0.21792 0.65485
 H552 H 0.52343 0.29464 0.63802
 H553 H 0.59838 0.29788 0.67043
 H554 H 0.55752 0.30149 0.66443
 C555 C 0.07952 0.76851 0.19229
 C556 C 0.09671 0.78685 0.18773
 C557 C 0.11653 0.78971 0.20311
 C558 C 0.11956 0.77433 0.22310
 C559 C 0.10216 0.75589 0.22681
 N560 N 0.08291 0.75344 0.21150
 C561 C 0.05835 0.76475 0.17613
 N562 N 0.04815 0.74223 0.17427
 C563 C 0.02957 0.73736 0.15875
 C564 C 0.02061 0.75553 0.14309
 C565 C 0.02966 0.77935 0.14644
 C566 C 0.04854 0.78391 0.16258
 H567 H 0.12947 0.80396 0.19905
 H568 H 0.10371 0.74348 0.24185
 H569 H 0.02223 0.71908 0.15805
 H570 H 0.02218 0.79474 0.13687
 H571 H 0.09528 0.79864 0.17218
 H572 H 0.05510 0.80239 0.16457
 C573 C 0.31210 0.08430 0.23195
 C574 C 0.31680 0.10124 0.21359
 C575 C 0.30133 0.12108 0.21055
 C576 C 0.28114 0.12434 0.22580
 C577 C 0.27738 0.10723 0.24429
 N578 N 0.29273 0.08797 0.24687
 C579 C 0.32794 0.06283 0.23574
 N580 N 0.32901 0.05243 0.25798
 C581 C 0.34337 0.03287 0.26275
 C582 C 0.35841 0.02269 0.24467
 C583 C 0.35618 0.03240 0.22121
 C584 C 0.34135 0.05245 0.21680
 H585 H 0.30540 0.13383 0.19625
 H586 H 0.26224 0.10896 0.25664
 H587 H 0.34326 0.02528 0.28076
 H588 H 0.36523 0.02428 0.20587
 H589 H 0.33245 0.09951 0.20185
 H590 H 0.33992 0.05920 0.19853
 C591 C 0.81549 0.58666 0.73533
 C592 C 0.82370 0.60728 0.72276
 C593 C 0.80752 0.62634 0.71811
 C594 C 0.78331 0.62501 0.72618
 C595 C 0.77591 0.60408 0.73871
 N596 N 0.79187 0.58565 0.74269
 C597 C 0.83125 0.56530 0.73961
 N598 N 0.82072 0.54298 0.74070
 C599 C 0.83368 0.52222 0.74393
 C600 C 0.85938 0.52282 0.74614
 C601 C 0.87019 0.54622 0.74680
 C602 C 0.85642 0.56728 0.74307
 H603 H 0.81400 0.64211 0.70831
 H604 H 0.75735 0.60208 0.74494
 H605 H 0.82337 0.50558 0.74481
 H606 H 0.88957 0.54819 0.74983
 H607 H 0.84217 0.60843 0.71605
 H608 H 0.86536 0.58485 0.74328
 C609 C 0.80945 0.41658 0.76390
 C610 C 0.78990 0.41165 0.74831
 C611 C 0.77449 0.39206 0.75301
 C612 C 0.77818 0.37726 0.77333
 C613 C 0.79768 0.38307 0.78875
 N614 N 0.81255 0.40229 0.78374
 C615 C 0.82639 0.43722 0.75959
 N616 N 0.83909 0.44679 0.77845
 C617 C 0.85462 0.46596 0.77593
 C618 C 0.85827 0.47695 0.75315
 C619 C 0.84528 0.46694 0.73349
 C620 C 0.82973 0.44717 0.73654
 H621 H 0.75970 0.38869 0.74060
 H622 H 0.80118 0.37245 0.80478
 H623 H 0.86376 0.47255 0.79190
 H624 H 0.84705 0.47469 0.71561
 H625 H 0.78611 0.42294 0.73281
 H626 H 0.82069 0.43977 0.72082
 C627 C 0.30331 -0.07851 0.26507
 C628 C 0.28317 -0.08297 0.25016
 C629 C 0.26847 -0.10323 0.25439
 C630 C 0.27350 -0.11920 0.27361
 C631 C 0.29369 -0.11375 0.28834
 N632 N 0.30778 -0.09391 0.28375
 C633 C 0.31993 -0.05761 0.26113
 N634 N 0.33374 -0.04948 0.27987
 C635 C 0.35030 -0.03122 0.27747
 C636 C 0.35452 -0.02038 0.25476
 C637 C 0.33925 -0.02767 0.23560
 C638 C 0.32242 -0.04641 0.23853
 H639 H 0.25313 -0.10605 0.24251
 H640 H 0.29854 -0.12515 0.30345
 H641 H 0.35994 -0.02534 0.29343
 H642 H 0.34108 -0.01937 0.21798
 H643 H 0.27842 -0.07087 0.23554
 H644 H 0.31214 -0.05239 0.22298
 C645 C 0.19274 -0.08077 0.73332
 C646 C 0.18810 -0.09737 0.71462
 C647 C 0.20336 -0.11726 0.71131
 C648 C 0.22340 -0.12111 0.72665
 C649 C 0.22708 -0.10427 0.74557
 N650 N 0.21187 -0.08487 0.74838
 C651 C 0.17688 -0.05929 0.73706
 N652 N 0.17401 -0.04978 0.75959
 C653 C 0.15872 -0.03079 0.76412
 C654 C 0.14445 -0.02063 0.74549
 C655 C 0.14899 -0.02906 0.72184
 C656 C 0.16475 -0.04839 0.71766
 H657 H 0.19909 -0.12952 0.69664
 H658 H 0.24204 -0.10626 0.75807
 H659 H 0.15728 -0.02390 0.78238
 H660 H 0.14066 -0.02067 0.70628
 H661 H 0.17258 -0.09531 0.70278
 H662 H 0.16766 -0.05441 0.69927
 C663 C 0.68825 0.41571 0.23970
 C664 C 0.70930 0.41234 0.25364
 C665 C 0.72459 0.39271 0.24887
 C666 C 0.71900 0.37609 0.23038
 C667 C 0.69738 0.37970 0.21728
 N668 N 0.68279 0.39914 0.22218
 C669 C 0.67223 0.43713 0.24327
 N670 N 0.64823 0.43572 0.23728
 C671 C 0.63289 0.45509 0.23944
 C672 C 0.64162 0.47802 0.24708
 C673 C 0.66616 0.47916 0.25459
 C674 C 0.68145 0.45916 0.25223
 H675 H 0.74084 0.39081 0.25968
 H676 H 0.69207 0.36726 0.20308
 H677 H 0.61392 0.45276 0.23468
 H678 H 0.67390 0.49548 0.26240
 H679 H 0.71398 0.42458 0.26824
 H680 H 0.70042 0.46126 0.25700
 C681 C 0.68693 0.58534 0.26172
 C682 C 0.70893 0.58750 0.24892
 C683 C 0.72468 0.60671 0.25389
 C684 C 0.71900 0.62384 0.27183
 C685 C 0.69709 0.62082 0.28464
 N686 N 0.68185 0.60196 0.27933
 C687 C 0.66966 0.56494 0.25726
 N688 N 0.65197 0.55999 0.27381
 C689 C 0.63659 0.54060 0.27165
 C690 C 0.63917 0.52404 0.25230
 C691 C 0.65608 0.53020 0.23415
 C692 C 0.67114 0.55039 0.23648
 H693 H 0.74146 0.60781 0.24374
 H694 H 0.69195 0.63341 0.29877
 H695 H 0.62262 0.53833 0.28515
 H696 H 0.65816 0.51879 0.21832
 H697 H 0.71449 0.57440 0.23546
 H698 H 0.68375 0.55419 0.22201
 C699 C 0.19190 0.08318 0.76885
 C700 C 0.18764 0.09964 0.78781
 C701 C 0.20311 0.11950 0.79100
 C702 C 0.22285 0.12325 0.77532
 C703 C 0.22621 0.10658 0.75629
 N704 N 0.21085 0.08729 0.75355
 C705 C 0.17599 0.06176 0.76497
 N706 N 0.17350 0.05227 0.74238
 C707 C 0.15850 0.03309 0.73762
 C708 C 0.14417 0.02265 0.75606
 C709 C 0.14836 0.03103 0.77980
 C710 C 0.16377 0.05064 0.78422
 H711 H 0.19940 0.13187 0.80574
 H712 H 0.24101 0.10868 0.74361
 H713 H 0.15736 0.02626 0.71932
 H714 H 0.14004 0.02238 0.79526
 H715 H 0.17229 0.09753 0.79988
 H716 H 0.16642 0.05662 0.80265
 C717 C 0.23077 0.31276 0.08304
 C718 C 0.20736 0.30879 0.09235
 C719 C 0.20427 0.29302 0.11183
 C720 C 0.22439 0.28101 0.12187
 C721 C 0.24749 0.28547 0.11199
 N722 N 0.25010 0.30119 0.09322
 C723 C 0.23495 0.32929 0.06251
 N724 N 0.25536 0.34328 0.06213
 C725 C 0.26082 0.35833 0.04344
 C726 C 0.24575 0.35921 0.02277
 C727 C 0.22409 0.34531 0.02348
 C728 C 0.21869 0.33044 0.04313
 H729 H 0.18611 0.29008 0.11884
 H730 H 0.26351 0.27680 0.11935
 H731 H 0.27687 0.36945 0.04522
 H732 H 0.21157 0.34557 0.00840
 H733 H 0.19168 0.31806 0.08493
 H734 H 0.20232 0.31944 0.04280
 C735 C 0.72985 0.81075 0.58087
 C736 C 0.71147 0.81553 0.59786
 C737 C 0.70872 0.80028 0.61778
 C738 C 0.72423 0.78024 0.62102
 C739 C 0.74261 0.77632 0.60376
 N740 N 0.74496 0.79147 0.58450
 C741 C 0.73384 0.82662 0.55964
 N742 N 0.75634 0.82761 0.54942
 C743 C 0.76156 0.84247 0.53050
 C744 C 0.74376 0.85831 0.52103
 C745 C 0.71989 0.85589 0.53020
 C746 C 0.71500 0.84045 0.54955
 H747 H 0.69452 0.80444 0.63067
 H748 H 0.75513 0.76126 0.60540
 H749 H 0.77986 0.84252 0.52325
 H750 H 0.70470 0.86559 0.52246
 H751 H 0.69962 0.83115 0.59617
 H752 H 0.69651 0.83912 0.55616
 C753 C 0.77026 0.81103 0.41866
 C754 C 0.78873 0.81570 0.40177
 C755 C 0.79164 0.80025 0.38198
 C756 C 0.77618 0.78011 0.37878
 C757 C 0.75767 0.77631 0.39593
 N758 N 0.75519 0.79166 0.41508
 C759 C 0.76632 0.82705 0.43984
 N760 N 0.74377 0.82837 0.44991
 C761 C 0.73872 0.84327 0.46890
 C762 C 0.75678 0.85873 0.47867
 C763 C 0.78062 0.85603 0.46954
 C764 C 0.78533 0.84061 0.45009
 H765 H 0.80594 0.80433 0.36920
 H766 H 0.74518 0.76118 0.39427
 H767 H 0.72039 0.84352 0.47610
 H768 H 0.79597 0.86540 0.47746
 H769 H 0.80057 0.83137 0.40343
 H770 H 0.80382 0.83903 0.44355
 C771 C 0.27048 0.31531 -0.08497
 C772 C 0.28565 0.32218 -0.10419
 C773 C 0.28915 0.30616 -0.12348
 C774 C 0.27757 0.28333 -0.12375
 C775 C 0.26261 0.27718 -0.10412
 N776 N 0.25963 0.29301 -0.08548
 C777 C 0.26641 0.33114 -0.06373
 N778 N 0.26072 0.32050 -0.04235
 C779 C 0.25605 0.33350 -0.02202
 C780 C 0.25614 0.35925 -0.02240
 C781 C 0.26276 0.37045 -0.04439
 C782 C 0.26771 0.35660 -0.06497
 H783 H 0.30087 0.31174 -0.13817
 H784 H 0.25352 0.25972 -0.10333
 H785 H 0.25259 0.32332 -0.00577
 H786 H 0.26371 0.39011 -0.04566
 H787 H 0.29513 0.33946 -0.10418
 H788 H 0.27195 0.36584 -0.08168
 C789 C 0.73064 0.18646 -0.08281
 C790 C 0.70953 0.18474 -0.09691
 C791 C 0.70635 0.20051 -0.11636
 C792 C 0.72409 0.21813 -0.12184
 C793 C 0.74502 0.21914 -0.10728
 N794 N 0.74778 0.20342 -0.08853
 C795 C 0.73488 0.17001 -0.06216
 N796 N 0.75797 0.16319 -0.05678
 C797 C 0.76335 0.14829 -0.03796
 C798 C 0.74484 0.13919 -0.02263
 C799 C 0.72084 0.14712 -0.02772
 C800 C 0.71581 0.16195 -0.04749
 H801 H 0.68994 0.19879 -0.12699
 H802 H 0.75929 0.23224 -0.11080
 H803 H 0.78219 0.14412 -0.03537
 H804 H 0.70575 0.14242 -0.01607
 H805 H 0.69580 0.17106 -0.09326
 H806 H 0.69726 0.16770 -0.05071
 C807 C 0.23719 0.69177 0.41876
 C808 C 0.25197 0.71230 0.41493
 C809 C 0.24730 0.72764 0.39544
 C810 C 0.22781 0.72286 0.37971
 C811 C 0.21325 0.70233 0.38440
 N812 N 0.21821 0.68760 0.40349
 C813 C 0.24126 0.67478 0.43916
 N814 N 0.22249 0.66055 0.44680
 C815 C 0.22467 0.64448 0.46533
 C816 C 0.24714 0.64150 0.47735
 C817 C 0.26651 0.65664 0.46996
 C818 C 0.26383 0.67283 0.45083
 H819 H 0.25898 0.74328 0.39292
 H820 H 0.19794 0.69785 0.37298
 H821 H 0.20857 0.63470 0.47086
 H822 H 0.28394 0.65572 0.47904
 H823 H 0.26675 0.71690 0.42698
 H824 H 0.27945 0.68341 0.44525
 C825 C 0.26387 0.69405 0.57908
 C826 C 0.24880 0.71426 0.58337
 C827 C 0.25314 0.72917 0.60333
 C828 C 0.27255 0.72429 0.61908
 C829 C 0.28737 0.70408 0.61396
 N830 N 0.28273 0.68976 0.59443
 C831 C 0.26014 0.67731 0.55832
 N832 N 0.27880 0.66261 0.55135
 C833 C 0.27675 0.64619 0.53304
 C834 C 0.25445 0.64317 0.52073
 C835 C 0.23540 0.65918 0.52701
 C836 C 0.23795 0.67578 0.54588
 H837 H 0.24125 0.74458 0.60619
 H838 H 0.30262 0.69953 0.62539
 H839 H 0.29274 0.63592 0.52815
 H840 H 0.21815 0.65830 0.51758
 H841 H 0.23402 0.71894 0.57140
 H842 H 0.22241 0.68677 0.55080
 C843 C 0.76854 0.18684 0.08342
 C844 C 0.78795 0.18361 0.09953
 C845 C 0.79069 0.19945 0.11901
 C846 C 0.77429 0.21875 0.12260
 C847 C 0.75525 0.22152 0.10590
 N848 N 0.75294 0.20578 0.08701
 C849 C 0.76483 0.17049 0.06241
 N850 N 0.75197 0.17874 0.04314
 C851 C 0.74758 0.16480 0.02330
 C852 C 0.75635 0.14064 0.02182
 C853 C 0.76922 0.13177 0.04204
 C854 C 0.77354 0.14649 0.06209
 H855 H 0.80583 0.19648 0.13108
 H856 H 0.74219 0.23611 0.10773
 H857 H 0.73692 0.17275 0.00903
 H858 H 0.77540 0.11307 0.04267
 H859 H 0.80125 0.16933 0.09701
 H860 H 0.78294 0.13875 0.07739
 C861 C 0.48681 0.32986 0.55701
 C862 C 0.50161 0.33330 0.53662
 C863 C 0.49744 0.35307 0.52147
 C864 C 0.47849 0.36948 0.52636
 C865 C 0.46378 0.36510 0.54668
 N866 N 0.46824 0.34570 0.56124
 C867 C 0.49077 0.30943 0.57393
 N868 N 0.47175 0.30097 0.58728
 C869 C 0.47415 0.28249 0.60345
 C870 C 0.49706 0.27164 0.60749
 C871 C 0.51662 0.27974 0.59306
 C872 C 0.51372 0.29872 0.57677
 H873 H 0.50906 0.35526 0.50587
 H874 H 0.44888 0.37709 0.55122
 H875 H 0.45798 0.27613 0.61255
 H876 H 0.53443 0.27149 0.59478
 H877 H 0.51605 0.32073 0.53207
 H878 H 0.52947 0.30508 0.56690
 C879 C -0.01489 0.82759 0.05504
 C880 C 0.00018 0.83113 0.03486
 C881 C -0.00389 0.85088 0.01963
 C882 C -0.02308 0.86714 0.02418
 C883 C -0.03812 0.86257 0.04423
 N884 N -0.03370 0.84324 0.05891
 C885 C -0.01083 0.80740 0.07226
 N886 N -0.02990 0.79871 0.08538
 C887 C -0.02739 0.78065 0.10197
 C888 C -0.00429 0.77053 0.10684
 C889 C 0.01537 0.77882 0.09265
 C890 C 0.01231 0.79731 0.07580
 H891 H 0.00806 0.85325 0.00430
 H892 H -0.05327 0.87436 0.04846
 H893 H -0.04361 0.77409 0.11085
 H894 H 0.03336 0.77115 0.09499
 H895 H 0.01483 0.81870 0.03061
 H896 H 0.02808 0.80385 0.06607
 C897 C 0.01989 0.66777 0.06016
 C898 C 0.03839 0.65068 0.06422
 C899 C 0.04107 0.63103 0.04851
 C900 C 0.02534 0.62810 0.02872
 C901 C 0.00679 0.64539 0.02554
 N902 N 0.00455 0.66444 0.04113
 C903 C 0.01608 0.68881 0.07647
 N904 N -0.00629 0.69932 0.07745
 C905 C -0.01135 0.71829 0.09239
 C906 C 0.00651 0.72764 0.10823
 C907 C 0.03020 0.71800 0.10613
 C908 C 0.03494 0.69856 0.09060
 H909 H 0.05545 0.61814 0.05214
 H910 H -0.00592 0.64391 0.01072
 H911 H -0.02951 0.72591 0.09224
 H912 H 0.04539 0.72562 0.11597
 H913 H 0.05044 0.65207 0.07959
 H914 H 0.05335 0.69171 0.08936
 C915 C 0.51564 0.17063 0.55592
 C916 C 0.50076 0.16731 0.53557
 C917 C 0.50480 0.14758 0.52023
 C918 C 0.52374 0.13110 0.52488
 C919 C 0.53851 0.13535 0.54518
 N920 N 0.53416 0.15471 0.55993
 C921 C 0.51177 0.19097 0.57308
 N922 N 0.53081 0.19925 0.58653
 C923 C 0.52846 0.21759 0.60294
 C924 C 0.50559 0.22847 0.60715
 C925 C 0.48602 0.22057 0.59263
 C926 C 0.48887 0.20174 0.57608
 H927 H 0.49310 0.14545 0.50469
 H928 H 0.55342 0.12332 0.54954
 H929 H 0.54463 0.22381 0.61214
 H930 H 0.46822 0.22884 0.59449
 H931 H 0.48635 0.17995 0.53119
 H932 H 0.47309 0.19553 0.56616
 C933 C -0.01290 0.16542 0.43924
 C934 C 0.00515 0.15913 0.45601
 C935 C 0.00069 0.14058 0.47258
 C936 C -0.02172 0.12827 0.47260
 C937 C -0.03942 0.13537 0.45572
 N938 N -0.03466 0.15356 0.43978
 C939 C -0.00928 0.18531 0.42169
 N940 N -0.02883 0.19837 0.41429
 C941 C -0.02682 0.21739 0.39879
 C942 C -0.00388 0.22467 0.38938
 C943 C 0.01636 0.21062 0.39669
 C944 C 0.01374 0.19119 0.41263
 H945 H 0.01492 0.13582 0.48519
 H946 H -0.05707 0.12668 0.45522
 H947 H -0.04317 0.22752 0.39474
 H948 H 0.03454 0.21415 0.39061
 H949 H 0.02238 0.16867 0.45670
 H950 H 0.02968 0.18081 0.41766
 C951 C 0.48022 0.66846 0.93897
 C952 C 0.46195 0.65111 0.93455
 C953 C 0.45943 0.63121 0.94996
 C954 C 0.47509 0.62832 0.96978
 C955 C 0.49336 0.64592 0.97334
 N956 N 0.49544 0.66518 0.95807
 C957 C 0.48403 0.68972 0.92294
 N958 N 0.50623 0.70071 0.92254
 C959 C 0.51137 0.71971 0.90768
 C960 C 0.49386 0.72844 0.89121
 C961 C 0.47020 0.71851 0.89296
 C962 C 0.46536 0.69911 0.90844
 H963 H 0.44532 0.61804 0.94608
 H964 H 0.50598 0.64454 0.98822
 H965 H 0.52941 0.72764 0.90819
 H966 H 0.45514 0.72575 0.88272
 H967 H 0.44999 0.65245 0.91912
 H968 H 0.44703 0.69194 0.90924
 C969 C 0.51458 0.83025 0.94154
 C970 C 0.49926 0.83411 0.96145
 C971 C 0.50359 0.85370 0.97687
 C972 C 0.52328 0.86953 0.97281
 C973 C 0.53849 0.86475 0.95293
 N974 N 0.53384 0.84552 0.93806
 C975 C 0.51053 0.80982 0.92446
 N976 N 0.52972 0.80078 0.91179
 C977 C 0.52739 0.78215 0.89572
 C978 C 0.50437 0.77167 0.89098
 C979 C 0.48456 0.78038 0.90468
 C980 C 0.48742 0.79951 0.92097
 H981 H 0.49142 0.85620 0.99199
 H982 H 0.55401 0.87624 0.94909
 H983 H 0.54375 0.77537 0.88729
 H984 H 0.46664 0.77241 0.90252
 H985 H 0.48428 0.82198 0.96547
 H986 H 0.47154 0.80624 0.93039
 C987 C 0.01101 0.33244 0.43786
 C988 C -0.00576 0.33851 0.45604
 C989 C -0.00096 0.35799 0.47143
 C990 C 0.02037 0.37184 0.46874
 C991 C 0.03632 0.36569 0.44982
 N992 N 0.03134 0.34640 0.43514
 C993 C 0.00723 0.31112 0.42182
 N994 N 0.01804 0.31054 0.39972
 C995 C 0.01563 0.29128 0.38436
 C996 C 0.00209 0.27040 0.39108
 C997 C -0.00971 0.27138 0.41372
 C998 C -0.00692 0.29123 0.42905
 H999 H -0.01414 0.36213 0.48534
 H1000 H 0.05289 0.37589 0.44685
 H1001 H 0.02405 0.29256 0.36677
 H1002 H -0.02126 0.25694 0.42011
 H1003 H -0.02260 0.32857 0.45836
 H1004 H -0.01558 0.29061 0.44658
 C1005 C 0.33093 0.55610 0.48744
 C1006 C 0.33570 0.53639 0.50285
 C1007 C 0.35550 0.52118 0.49815
 C1008 C 0.37061 0.52534 0.47808
 C1009 C 0.36502 0.54510 0.46301
 N1010 N 0.34565 0.55966 0.46798
 C1011 C 0.31018 0.57297 0.49126
 N1012 N 0.30249 0.58668 0.47234
 C1013 C 0.28405 0.60305 0.47420
 C1014 C 0.27229 0.60711 0.49654
 C1015 C 0.27939 0.59220 0.51600
 C1016 C 0.29841 0.57555 0.51361
 H1017 H 0.35878 0.50616 0.51028
 H1018 H 0.37593 0.54909 0.44726
 H1019 H 0.27852 0.61235 0.45798
 H1020 H 0.27033 0.59379 0.53331
 H1021 H 0.32418 0.53231 0.51814
 H1022 H 0.30387 0.56525 0.52929
 C1023 C 0.83418 0.05869 -0.01355
 C1024 C 0.83277 0.03439 -0.00592
 C1025 C 0.85249 0.01886 -0.00974
 C1026 C 0.87342 0.02735 -0.02155
 C1027 C 0.87408 0.05180 -0.02896
 N1028 N 0.85477 0.06669 -0.02471
 C1029 C 0.81338 0.07539 -0.01010
 N1030 N 0.79045 0.06624 -0.00915
 C1031 C 0.77050 0.08052 -0.00631
 C1032 C 0.77263 0.10619 -0.00421
 C1033 C 0.79667 0.11556 -0.00406
 C1034 C 0.81682 0.10047 -0.00754
 H1035 H 0.85116 0.00013 -0.00384
 H1036 H 0.88994 0.05916 -0.03796
 H1037 H 0.75335 0.07118 -0.00525
 H1038 H 0.80001 0.13472 -0.00083
 H1039 H 0.81667 0.02751 0.00309
 H1040 H 0.83493 0.10828 -0.00758
 C1041 C 0.66585 0.06149 0.02053
 C1042 C 0.65004 0.06449 0.04023
 C1043 C 0.63084 0.04823 0.04351
 C1044 C 0.62706 0.02896 0.02721
 C1045 C 0.64316 0.02674 0.00760
 N1046 N 0.66180 0.04284 0.00479
 C1047 C 0.68665 0.07814 0.01622
 N1048 N 0.69604 0.07989 -0.00642
 C1049 C 0.71545 0.09431 -0.01168
 C1050 C 0.72733 0.10796 0.00654
 C1051 C 0.71738 0.10650 0.03004
 C1052 C 0.69740 0.09165 0.03489
 H1053 H 0.61900 0.05098 0.05886
 H1054 H 0.64104 0.01232 -0.00554
 H1055 H 0.72215 0.09465 -0.03006
 H1056 H 0.72485 0.11648 0.04509
 H1057 H 0.65205 0.07941 0.05283
 H1058 H 0.69096 0.09045 0.05330
 C1059 C 0.16894 0.55821 0.51472
 C1060 C 0.16345 0.54031 0.49747
 C1061 C 0.14366 0.52475 0.50120
 C1062 C 0.12919 0.52704 0.52202
 C1063 C 0.13531 0.54526 0.53878
 N1064 N 0.15472 0.56008 0.53479
 C1065 C 0.18977 0.57511 0.51147
 N1066 N 0.20187 0.57605 0.49003
 C1067 C 0.22078 0.59156 0.48614
 C1068 C 0.22845 0.60797 0.50428
 C1069 C 0.21686 0.60610 0.52697
 C1070 C 0.19741 0.59019 0.53041
 H1071 H 0.13969 0.51112 0.48764
 H1072 H 0.12488 0.54776 0.55515
 H1073 H 0.22980 0.59130 0.46876
 H1074 H 0.22286 0.61646 0.54245
 H1075 H 0.17436 0.53825 0.48131
 H1076 H 0.18870 0.58947 0.54794
 C1077 C 0.16701 0.43929 -0.01154
 C1078 C 0.16314 0.45987 0.00306
 C1079 C 0.14381 0.47547 -0.00193
 C1080 C 0.12827 0.47090 -0.02155
 C1081 C 0.13296 0.45031 -0.03592
 N1082 N 0.15191 0.43532 -0.03065
 C1083 C 0.18759 0.42231 -0.00750
 N1084 N 0.19436 0.40710 -0.02572
 C1085 C 0.21362 0.39170 -0.02395
 C1086 C 0.22811 0.39134 -0.00290
 C1087 C 0.22027 0.40590 0.01663
 C1088 C 0.20027 0.42128 0.01444
 H1089 H 0.14131 0.49117 0.00959
 H1090 H 0.12170 0.44603 -0.05134
 H1091 H 0.21728 0.37994 -0.03912
 H1092 H 0.23011 0.40570 0.03357
 H1093 H 0.17505 0.46438 0.01793
 H1094 H 0.19495 0.43203 0.02992
 C1095 C 0.67085 0.94381 0.48248
 C1096 C 0.66480 0.96130 0.49998
 C1097 C 0.64490 0.97661 0.49621
 C1098 C 0.63089 0.97450 0.47511
 C1099 C 0.63758 0.95671 0.45809
 N1100 N 0.65708 0.94211 0.46213
 C1101 C 0.69155 0.92696 0.48602
 N1102 N 0.70215 0.92502 0.50810
 C1103 C 0.72062 0.90925 0.51251
 C1104 C 0.72935 0.89353 0.49424
 C1105 C 0.71942 0.89642 0.47094
 C1106 C 0.70038 0.91269 0.46693
 H1107 H 0.64051 0.98995 0.50993
 H1108 H 0.62751 0.95435 0.44151
 H1109 H 0.72828 0.90859 0.53050
 H1110 H 0.72635 0.88654 0.45555
 H1111 H 0.67537 0.96321 0.51637
 H1112 H 0.69282 0.91425 0.44896
 C1113 C 0.83151 0.94156 0.52049
 C1114 C 0.84877 0.93653 0.53842
 C1115 C 0.86857 0.95205 0.54154
 C1116 C 0.87142 0.97269 0.52688
 C1117 C 0.85392 0.97688 0.50884
 N1118 N 0.83475 0.96138 0.50609
 C1119 C 0.81035 0.92536 0.51643
 N1120 N 0.80019 0.92416 0.49410
 C1121 C 0.78139 0.90891 0.48893
 C1122 C 0.77191 0.89299 0.50662
 C1123 C 0.78117 0.89544 0.53025
 C1124 C 0.80040 0.91128 0.53509
 H1125 H 0.88170 0.94755 0.55533
 H1126 H 0.85534 0.99241 0.49695
 H1127 H 0.77411 0.90875 0.47077
 H1128 H 0.77350 0.88560 0.54530
 H1129 H 0.84739 0.92050 0.54966
 H1130 H 0.80703 0.91272 0.55343
 C1131 C 0.33782 0.43555 0.01396
 C1132 C 0.35799 0.42798 0.02756
 C1133 C 0.37697 0.44433 0.03201
 C1134 C 0.37598 0.46813 0.02286
 C1135 C 0.35549 0.47496 0.00939
 N1136 N 0.33714 0.45881 0.00552
 C1137 C 0.31657 0.41955 0.00966
 N1138 N 0.29465 0.43008 0.00540
 C1139 C 0.27396 0.41696 0.00210
 C1140 C 0.27425 0.39124 0.00352
 C1141 C 0.29727 0.38013 0.00602
 C1142 C 0.31826 0.39408 0.00947
 H1143 H 0.39242 0.43827 0.04250
 H1144 H 0.35379 0.49322 0.00231
 H1145 H 0.25761 0.42700 -0.00186
 H1146 H 0.29886 0.36047 0.00584
 H1147 H 0.35894 0.40990 0.03521
 H1148 H 0.33555 0.38494 0.01163
 C1149 C 0.56074 0.48302 0.33191
 C1150 C 0.53694 0.49230 0.33142
 C1151 C 0.52192 0.48964 0.35154
 C1152 C 0.53045 0.47761 0.37216
 C1153 C 0.55453 0.46894 0.37209
 N1154 N 0.56894 0.47194 0.35229
 C1155 C 0.57692 0.48531 0.31067
 N1156 N 0.60122 0.48915 0.31368
 C1157 C 0.61647 0.49300 0.29463
 C1158 C 0.60734 0.49416 0.27083
 C1159 C 0.58275 0.48729 0.26759
 C1160 C 0.56753 0.48351 0.28729
 H1161 H 0.50353 0.49662 0.35073
 H1162 H 0.56196 0.45988 0.38775
 H1163 H 0.63562 0.49604 0.29809
 H1164 H 0.57493 0.48478 0.24987
 H1165 H 0.53003 0.50172 0.31570
 H1166 H 0.54860 0.47896 0.28420
 C1167 C 0.05869 -0.01458 0.82993
 C1168 C 0.03850 0.00050 0.83414
 C1169 C 0.02346 -0.00392 0.85391
 C1170 C 0.02823 -0.02342 0.86957
 C1171 C 0.04837 -0.03835 0.86445
 N1172 N 0.06284 -0.03362 0.84506
 C1173 C 0.07554 -0.01039 0.80946
 N1174 N 0.08884 -0.02934 0.80065
 C1175 C 0.10507 -0.02673 0.78226
 C1176 C 0.10928 -0.00366 0.77187
 C1177 C 0.09479 0.01581 0.78019
 C1178 C 0.07844 0.01270 0.79910
 H1179 H 0.00807 0.00800 0.85672
 H1180 H 0.05280 -0.05368 0.87581
 H1181 H 0.11418 -0.04282 0.77566
 H1182 H 0.09660 0.03375 0.77228
 H1183 H 0.03401 0.01538 0.82220
 H1184 H 0.06864 0.02843 0.80570
 C1185 C 0.05899 0.01614 0.67107
 C1186 C 0.03852 0.00128 0.66734
 C1187 C 0.02327 0.00565 0.64776
 C1188 C 0.02812 0.02488 0.63177
 C1189 C 0.04858 0.03958 0.63636
 N1190 N 0.06323 0.03493 0.65562
 C1191 C 0.07596 0.01197 0.69142
 N1192 N 0.08918 0.03097 0.70027
 C1193 C 0.10532 0.02842 0.71873
 C1194 C 0.10955 0.00536 0.72913
 C1195 C 0.09519 -0.01419 0.72068
 C1196 C 0.07889 -0.01112 0.70173
 H1197 H 0.00763 -0.00607 0.64538
 H1198 H 0.05310 0.05469 0.62471
 H1199 H 0.11428 0.04458 0.72541
 H1200 H 0.09699 -0.03212 0.72859
 H1201 H 0.03396 -0.01337 0.67956
 H1202 H 0.06909 -0.02685 0.69511
 C1203 C 0.56426 0.51743 0.16461
 C1204 C 0.53921 0.51353 0.16742
 C1205 C 0.52380 0.51649 0.14771
 C1206 C 0.53325 0.52390 0.12539
 C1207 C 0.55845 0.52770 0.12333
 N1208 N 0.57324 0.52417 0.14272
 C1209 C 0.58066 0.51451 0.18533
 N1210 N 0.59994 0.49907 0.18394
 C1211 C 0.61433 0.49428 0.20337
 C1212 C 0.60931 0.50506 0.22602
 C1213 C 0.59078 0.52282 0.22676
 C1214 C 0.57607 0.52702 0.20681
 H1215 H 0.50446 0.51343 0.15003
 H1216 H 0.56639 0.53317 0.10629
 H1217 H 0.62964 0.48224 0.20086
 H1218 H 0.58711 0.53278 0.24327
 H1219 H 0.53174 0.50802 0.18468
 H1220 H 0.56118 0.53988 0.20813
 C1221 C 0.43877 -0.02140 0.16955
 C1222 C 0.43354 -0.03935 0.15223
 C1223 C 0.44892 -0.04231 0.13242
 C1224 C 0.46951 -0.02740 0.12963
 C1225 C 0.47385 -0.00938 0.14718
 N1226 N 0.45858 -0.00685 0.16635
 C1227 C 0.42284 -0.01729 0.19072
 N1228 N 0.42273 0.00498 0.20152
 C1229 C 0.40788 0.01032 0.22044
 C1230 C 0.39113 -0.00704 0.22923
 C1231 C 0.39266 -0.03078 0.21950
 C1232 C 0.40811 -0.03582 0.20020
 H1233 H 0.44442 -0.05617 0.11928
 H1234 H 0.48935 0.00268 0.14585
 H1235 H 0.40860 0.02839 0.22824
 H1236 H 0.38224 -0.04575 0.22681
 H1237 H 0.41750 -0.05072 0.15355
 H1238 H 0.40873 -0.05419 0.19316
 C1239 C 0.93788 0.48102 0.66494
 C1240 C 0.93814 0.45889 0.65227
 C1241 C 0.95435 0.45567 0.63320
 C1242 C 0.97033 0.47446 0.62643
 C1243 C 0.96932 0.49646 0.63942
 N1244 N 0.95330 0.49917 0.65801
 C1245 C 0.92122 0.48505 0.68558
 N1246 N 0.91354 0.50797 0.69075
 C1247 C 0.89868 0.51310 0.70976
 C1248 C 0.89075 0.49451 0.72565
 C1249 C 0.89871 0.47060 0.72009
 C1250 C 0.91369 0.46587 0.70038
 H1251 H 0.95426 0.43837 0.62387
 H1252 H 0.98108 0.51155 0.63480
 H1253 H 0.89354 0.53178 0.71195
 H1254 H 0.89410 0.45540 0.73164
 H1255 H 0.92574 0.44425 0.65674
 H1256 H 0.91993 0.44743 0.69739
 C1257 C 0.94000 0.51117 0.83247
 C1258 C 0.95881 0.49484 0.83813
 C1259 C 0.97413 0.49968 0.85756
 C1260 C 0.97079 0.52058 0.87181
 C1261 C 0.95133 0.53612 0.86600
 N1262 N 0.93672 0.53113 0.84675
 C1263 C 0.92380 0.50734 0.81133
 N1264 N 0.90181 0.51870 0.81051
 C1265 C 0.88634 0.51638 0.79144
 C1266 C 0.89280 0.50232 0.77095
 C1267 C 0.91530 0.48998 0.77212
 C1268 C 0.93073 0.49264 0.79182
 H1269 H 0.98852 0.48684 0.86133
 H1270 H 0.94781 0.55235 0.87650
 H1271 H 0.86891 0.52545 0.79242
 H1272 H 0.92157 0.47813 0.75798
 H1273 H 0.96172 0.47827 0.82797
 H1274 H 0.94811 0.48346 0.79129
 C1275 C 0.44201 0.01323 0.33007
 C1276 C 0.46188 -0.00222 0.33433
 C1277 C 0.47728 0.00237 0.35382
 C1278 C 0.47316 0.02238 0.36912
 C1279 C 0.45328 0.03760 0.36398
 N1280 N 0.43850 0.03273 0.34488
 C1281 C 0.42496 0.00923 0.30973
 N1282 N 0.41235 0.02853 0.30085
 C1283 C 0.39612 0.02636 0.28246
 C1284 C 0.39110 0.00339 0.27206
 C1285 C 0.40475 -0.01656 0.28059
 C1286 C 0.42125 -0.01385 0.29949
 H1287 H 0.49243 -0.00983 0.35671
 H1288 H 0.44934 0.05334 0.37504
 H1289 H 0.38776 0.04280 0.27582
 H1290 H 0.40236 -0.03446 0.27268
 H1291 H 0.46586 -0.01746 0.32260
 H1292 H 0.43061 -0.02980 0.30611
   
