data_POSCAR
  _audit_creation_date              2014-09-24
  _audit_creation_method            'ToBaCCo'
  _symmetry_space_group_name_H-M    'P1'
  _symmetry_Int_Tables_number       1
  _symmetry_cell_setting            triclinic
  loop_
  _symmetry_equiv_pos_as_xyz
 x,y,z
_cell_length_a 50.6157
_cell_length_b 51.1240
_cell_length_c 49.9156
_cell_angle_alpha 88.677400
_cell_angle_beta 88.560200
_cell_angle_gamma 88.829900
loop_
  _atom_site_label
  _atom_site_type_symbol
  _atom_site_fract_x
  _atom_site_fract_y
  _atom_site_fract_z
C1 C 0.78922 0.67024 1.00053
 C2 C 0.79549 0.64773 0.98158
 C3 C 0.77396 0.63533 0.97268
 C4 C 0.74773 0.64651 0.98416
 C5 C 0.76955 0.68814 0.98551
 C6 C 0.74815 0.67576 0.97642
 C7 C 0.77234 0.65798 1.02334
 C8 C 0.75061 0.64529 1.01497
 H9 H 0.81558 0.64230 0.97582
 H10 H 0.73028 0.63670 0.97658
 H11 H 0.77190 0.70904 0.98287
 H12 H 0.77648 0.66053 1.04425
 C13 C 0.77507 0.37206 0.47472
 C14 C 0.77618 0.38578 0.50163
 C15 C 0.75411 0.39986 0.50839
 C16 C 0.73221 0.39839 0.48786
 C17 C 0.75030 0.35498 0.47781
 C18 C 0.72788 0.36899 0.48447
 C19 C 0.76734 0.39367 0.45438
 C20 C 0.74498 0.40743 0.46111
 H21 H 0.79293 0.38379 0.51467
 H22 H 0.71394 0.40947 0.49360
 H23 H 0.75009 0.33415 0.47465
 H24 H 0.77856 0.39735 0.43596
 C25 C 0.29879 -0.13231 -0.00374
 C26 C 0.30081 -0.11682 0.02024
 C27 C 0.27597 -0.10906 0.03249
 C28 C 0.25345 -0.11911 0.01801
 C29 C 0.28277 -0.15462 0.00466
 C30 C 0.25767 -0.14773 0.01714
 C31 C 0.28173 -0.11713 -0.02152
 C32 C 0.25658 -0.10969 -0.00994
 H33 H 0.31971 -0.11041 0.02697
 H34 H 0.23436 -0.11374 0.02712
 H35 H 0.28609 -0.17384 -0.00316
 H36 H 0.28809 -0.11121 -0.04159
 C37 C 0.26270 0.15302 0.53595
 C38 C 0.27033 0.13748 0.51078
 C39 C 0.25323 0.11823 0.50505
 C40 C 0.22999 0.11619 0.52536
 C41 C 0.23432 0.16300 0.53038
 C42 C 0.21723 0.14364 0.52507
 C43 C 0.25941 0.13230 0.55848
 C44 C 0.24239 0.11304 0.55297
 H45 H 0.28649 0.14310 0.49739
 H46 H 0.21599 0.10051 0.52118
 H47 H 0.22830 0.18336 0.52912
 H48 H 0.26941 0.13318 0.57736
 C49 C 0.15795 0.48668 0.29468
 C50 C 0.13878 0.46409 0.29982
 C51 C 0.12612 0.45640 0.27763
 C52 C 0.13320 0.47268 0.25228
 C53 C 0.17621 0.47732 0.27161
 C54 C 0.16331 0.46962 0.24964
 C55 C 0.14082 0.50857 0.28196
 C56 C 0.12792 0.50138 0.25978
 H57 H 0.13763 0.45337 0.31877
 H58 H 0.12284 0.46673 0.23415
 H59 H 0.19738 0.47474 0.27352
 H60 H 0.13793 0.52779 0.29007
 C61 C -0.12935 -0.03200 0.26122
 C62 C -0.11281 -0.00948 0.27134
 C63 C -0.09277 -0.00197 0.25432
 C64 C -0.09108 -0.01802 0.22859
 C65 C -0.13881 -0.02155 0.23383
 C66 C -0.11879 -0.01408 0.21663
 C67 C -0.11056 -0.05285 0.25512
 C68 C -0.08932 -0.04556 0.23723
 H69 H -0.11768 0.00069 0.28961
 H70 H -0.07527 -0.01190 0.21429
 H71 H -0.15938 -0.01741 0.22974
 H72 H -0.11176 -0.07190 0.26496
 C73 C 0.36263 0.48365 0.79998
 C74 C 0.38001 0.50782 0.80178
 C75 C 0.39052 0.51635 0.77786
 C76 C 0.38330 0.49943 0.75419
 C77 C 0.34239 0.49099 0.77862
 C78 C 0.35290 0.49984 0.75481
 C79 C 0.38078 0.46311 0.78654
 C80 C 0.39157 0.47127 0.76256
 H81 H 0.38202 0.51839 0.82015
 H82 H 0.39237 0.50611 0.73487
 H83 H 0.32134 0.48951 0.78253
 H84 H 0.38614 0.44443 0.79558
 C85 C 0.63810 1.01281 0.77342
 C86 C 0.62403 0.98657 0.77177
 C87 C 0.61461 0.98147 0.74727
 C88 C 0.62055 1.00303 0.72621
 C89 C 0.66016 1.01083 0.75153
 C90 C 0.65068 1.00585 0.72684
 C91 C 0.61949 1.03243 0.76316
 C92 C 0.60977 1.02745 0.73706
 H93 H 0.62188 0.97307 0.78870
 H94 H 0.61423 0.99802 0.70592
 H95 H 0.68103 1.01279 0.75491
 H96 H 0.61338 1.04924 0.77473
 C97 C -0.02521 0.27349 -0.16223
 C98 C 0.00006 0.27948 -0.14713
 C99 C 0.00498 0.26268 -0.12615
 C100 C -0.01612 0.24173 -0.12188
 C101 C -0.02121 0.24457 -0.17006
 C102 C -0.01670 0.22785 -0.14885
 C103 C -0.04736 0.27295 -0.14076
 C104 C -0.04264 0.25644 -0.11975
 H105 H 0.01406 0.29397 -0.15419
 H106 H -0.01254 0.22874 -0.10424
 H107 H -0.02093 0.23795 -0.19043
 H108 H -0.06594 0.28364 -0.14286
 C109 C 0.50919 0.28996 0.13944
 C110 C 0.48697 0.29040 0.11912
 C111 C 0.47831 0.26640 0.11268
 C112 C 0.49301 0.24378 0.12703
 C113 C 0.49767 0.27409 0.16347
 C114 C 0.48919 0.24992 0.15693
 C115 C 0.53077 0.27212 0.12741
 C116 C 0.52260 0.24798 0.12065
 H117 H 0.47794 0.30843 0.11166
 H118 H 0.48558 0.22439 0.12173
 H119 H 0.49441 0.28169 0.18332
 H120 H 0.55118 0.27799 0.12591
 C121 C 1.01251 0.76877 0.64327
 C122 C 0.99278 0.77876 0.62478
 C123 C 0.98626 0.76116 0.60403
 C124 C 1.00230 0.73686 0.60547
 C125 C 1.00265 0.74354 0.65316
 C126 C 0.99724 0.72567 0.63238
 C127 C 1.03558 0.76179 0.62650
 C128 C 1.03011 0.74450 0.60515
 H129 H 0.98447 0.79831 0.62656
 H130 H 0.99775 0.72280 0.59015
 H131 H 1.00356 0.73713 0.67396
 H132 H 1.05526 0.76825 0.63048
 C133 C 0.48769 0.79412 0.35321
 C134 C 0.51211 0.79952 0.36972
 C135 C 0.51863 0.78004 0.38761
 C136 C 0.49976 0.75691 0.38763
 C137 C 0.49386 0.76739 0.34048
 C138 C 0.50011 0.74804 0.35852
 C139 C 0.46561 0.78806 0.37405
 C140 C 0.47210 0.76886 0.39212
 H141 H 0.52413 0.81658 0.36609
 H142 H 0.50444 0.74099 0.40235
 H143 H 0.49133 0.76306 0.31966
 H144 H 0.44631 0.79762 0.37402
 C145 C 0.37919 -0.01538 0.29153
 H146 H 0.36380 -0.00989 0.30575
 C147 C 0.39509 -0.03735 0.29712
 H148 H 0.39109 -0.04860 0.31534
 C149 C 0.40192 -0.00828 0.25010
 H150 H 0.40458 0.00308 0.23178
 C151 C 0.41865 -0.02980 0.25514
 H152 H 0.43413 -0.03448 0.24058
 N153 N 0.38228 -0.00173 0.26798
 C154 C 0.35886 0.07599 0.23791
 H155 H 0.33795 0.07284 0.23579
 C156 C 0.36938 0.10039 0.23144
 H157 H 0.35653 0.11597 0.22396
 C158 C 0.40092 0.05961 0.25087
 H159 H 0.41297 0.04390 0.25920
 C160 C 0.41236 0.08363 0.24418
 H161 H 0.43327 0.08619 0.24715
 Zn162 Zn 0.35730 0.02523 0.25883
 N163 N 0.37457 0.05632 0.24776
 C164 C 0.33922 0.05625 0.30146
 N165 N 0.33544 0.03298 0.28954
 C166 C 0.31804 0.01542 0.30032
 C167 C 0.30346 0.02117 0.32372
 C168 C 0.32533 0.06263 0.32494
 C169 C 0.35111 0.01049 0.20592
 C170 C 0.33903 -0.00018 0.18397
 C171 C 0.29844 -0.00281 0.21019
 C172 C 0.31130 0.00812 0.23164
 N173 N 0.33745 0.01374 0.22946
 H174 H 0.35352 0.06977 0.29320
 H175 H 0.31595 -0.00337 0.29117
 H176 H 0.28993 0.00691 0.33221
 H177 H 0.32868 0.08127 0.33404
 H178 H 0.37153 0.01609 0.20415
 H179 H 0.35044 -0.00263 0.16553
 H180 H 0.27794 -0.00813 0.21278
 H181 H 0.30036 0.01162 0.25006
 C182 C 0.39640 0.10447 0.23474
 C183 C 0.41490 -0.04518 0.27859
 C184 C 0.31250 -0.00761 0.18609
 C185 C 0.30727 0.04497 0.33642
 C186 C 0.06705 1.01263 0.80259
 H187 H 0.06509 0.99290 0.81058
 C188 C 0.05081 1.03268 0.81264
 H189 H 0.03573 1.02765 0.82748
 C190 C 0.08919 1.04256 0.77345
 H191 H 0.10459 1.04639 0.75857
 C192 C 0.07412 1.06338 0.78371
 H193 H 0.07860 1.08295 0.77656
 N194 N 0.08555 1.01780 0.78311
 C195 C 0.10593 0.94227 0.74790
 H196 H 0.12717 0.94415 0.74640
 C197 C 0.09418 0.91996 0.73841
 H198 H 0.10653 0.90456 0.72991
 C199 C 0.06409 0.96011 0.76080
 H200 H 0.05229 0.97600 0.76887
 C201 C 0.05153 0.93800 0.75179
 H202 H 0.03018 0.93707 0.75326
 Zn203 Zn 0.10917 0.99072 0.77218
 N204 N 0.09092 0.96156 0.75936
 C205 C 0.13303 0.95498 0.80936
 N206 N 0.12902 0.98067 0.80257
 C207 C 0.13696 0.99997 0.81869
 C208 C 0.14900 0.99374 0.84298
 C209 C 0.14553 0.94791 0.83313
 C210 C 0.12006 1.00452 0.71927
 C211 C 0.13498 1.01192 0.69662
 C212 C 0.17249 1.01756 0.72483
 C213 C 0.15693 1.00946 0.74699
 N214 N 0.13124 1.00310 0.74374
 H215 H 0.12614 0.93987 0.79671
 H216 H 0.13324 1.02024 0.81303
 H217 H 0.15483 1.00926 0.85586
 H218 H 0.14833 0.92739 0.83842
 H219 H 0.09957 0.99941 0.71731
 H220 H 0.12590 1.01259 0.67719
 H221 H 0.19297 1.02244 0.72746
 H222 H 0.16538 1.00812 0.76666
 C223 C 0.06665 0.91750 0.74062
 C224 C 0.05454 1.05872 0.80372
 C225 C 0.16153 1.01842 0.69927
 C226 C 0.15330 0.96741 0.85040
 C227 C 0.56770 0.54878 0.25484
 H228 H 0.55853 0.53129 0.24819
 C229 C 0.55206 0.56797 0.26741
 H230 H 0.53094 0.56536 0.26968
 C231 C 0.60632 0.57277 0.26202
 H232 H 0.62755 0.57390 0.26146
 C233 C 0.59143 0.59256 0.27430
 H234 H 0.60141 0.60905 0.28244
 N235 N 0.59437 0.55149 0.25230
 C236 C 0.60083 0.47088 0.23731
 H237 H 0.61541 0.46730 0.25249
 C238 C 0.58867 0.44973 0.22574
 H239 H 0.59401 0.42999 0.23216
 C240 C 0.57773 0.50073 0.20888
 H241 H 0.57424 0.52063 0.20179
 C242 C 0.56523 0.48022 0.19675
 H243 H 0.55171 0.48453 0.18069
 Zn244 Zn 0.61657 0.52382 0.23932
 N245 N 0.59571 0.49573 0.22824
 C246 C 0.62277 0.50864 0.29170
 N247 N 0.63700 0.51263 0.26858
 C248 C 0.66380 0.50989 0.26771
 C249 C 0.67733 0.50297 0.29107
 C250 C 0.63543 0.50219 0.31542
 C251 C 0.63548 0.52287 0.18572
 C252 C 0.64661 0.53302 0.16199
 C253 C 0.66552 0.56739 0.18716
 C254 C 0.65379 0.55665 0.21052
 N255 N 0.63798 0.53546 0.20925
 H256 H 0.60148 0.51094 0.29173
 H257 H 0.67464 0.51327 0.24905
 H258 H 0.69867 0.50098 0.29038
 H259 H 0.62376 0.49927 0.33370
 H260 H 0.62416 0.50529 0.18498
 H261 H 0.64337 0.52330 0.14333
 H262 H 0.67685 0.58506 0.18828
 H263 H 0.65679 0.56578 0.22940
 C264 C 0.57128 0.45429 0.20458
 C265 C 0.56400 0.59015 0.27737
 C266 C 0.66101 0.55610 0.16238
 C267 C 0.66302 0.49947 0.31534
 C268 C 0.88176 0.46741 0.76855
 H269 H 0.87470 0.47901 0.78517
 C270 C 0.89486 0.44356 0.77355
 H271 H 0.89706 0.43683 0.79411
 C272 C 0.88671 0.46182 0.72170
 H273 H 0.88329 0.46909 0.70153
 C274 C 0.90019 0.43802 0.72578
 H275 H 0.90738 0.42729 0.70855
 N276 N 0.87761 0.47586 0.74294
 C277 C 0.87138 0.55685 0.71363
 H278 H 0.85044 0.56101 0.71627
 C279 C 0.88783 0.57592 0.70231
 H280 H 0.87950 0.59475 0.69624
 C281 C 0.90762 0.52703 0.71759
 H282 H 0.91533 0.50802 0.72370
 C283 C 0.92468 0.54535 0.70580
 H284 H 0.94541 0.54030 0.70281
 Zn285 Zn 0.85811 0.50709 0.73555
 N286 N 0.88142 0.53291 0.72103
 C287 C 0.84553 0.54402 0.77577
 N288 N 0.84119 0.51929 0.76769
 C289 C 0.82557 0.50292 0.78269
 C290 C 0.81383 0.51119 0.80678
 C291 C 0.83361 0.55332 0.79923
 C292 C 0.83428 0.51091 0.68482
 C293 C 0.81776 0.50348 0.66454
 C294 C 0.79773 0.47220 0.69535
 C295 C 0.81470 0.48025 0.71512
 N296 N 0.83267 0.49920 0.70956
 H297 H 0.85843 0.55672 0.76426
 H298 H 0.82296 0.48306 0.77654
 H299 H 0.80235 0.49742 0.81874
 H300 H 0.83688 0.57338 0.80450
 H301 H 0.84908 0.52532 0.68028
 H302 H 0.81972 0.51278 0.64489
 H303 H 0.78431 0.45639 0.69985
 H304 H 0.81424 0.47050 0.73451
 C305 C 0.91475 0.57009 0.69804
 C306 C 0.90411 0.42835 0.75201
 C307 C 0.79952 0.48354 0.66951
 C308 C 0.81774 0.53678 0.81541
 C309 C 0.27607 0.36454 -0.01774
 H310 H 0.28875 0.35169 -0.00612
 C311 C 0.28744 0.38242 -0.03587
 H312 H 0.30875 0.38292 -0.03826
 C313 C 0.23312 0.38040 -0.02809
 H314 H 0.21196 0.37949 -0.02498
 C315 C 0.24370 0.39888 -0.04618
 H316 H 0.23056 0.41198 -0.05712
 N317 N 0.24932 0.36348 -0.01452
 C318 C 0.20727 0.34036 0.05901
 H319 H 0.20315 0.32015 0.05508
 C320 C 0.20064 0.35071 0.08397
 H321 H 0.19128 0.33846 0.09928
 C322 C 0.22612 0.38052 0.04450
 H323 H 0.23682 0.39178 0.02936
 C324 C 0.21930 0.39184 0.06900
 H325 H 0.22479 0.41179 0.07262
 Zn326 Zn 0.23443 0.33814 0.00942
 N327 N 0.22071 0.35499 0.04031
 C328 C 0.26777 0.31186 0.04623
 N329 N 0.26170 0.31382 0.01986
 C330 C 0.27684 0.30133 0.00094
 C331 C 0.29991 0.28761 0.00815
 C332 C 0.29035 0.29815 0.05430
 C333 C 0.18256 0.33438 -0.00774
 C334 C 0.16101 0.32352 -0.02006
 C335 C 0.18870 0.28624 -0.03158
 C336 C 0.20965 0.29770 -0.01880
 N337 N 0.20632 0.32148 -0.00739
 H338 H 0.25598 0.32204 0.06110
 H339 H 0.27212 0.30364 -0.02000
 H340 H 0.31260 0.27929 -0.00736
 H341 H 0.29508 0.29752 0.07535
 H342 H 0.18027 0.35311 0.00176
 H343 H 0.14220 0.33397 -0.01960
 H344 H 0.19203 0.26759 -0.04105
 H345 H 0.22856 0.28761 -0.01822
 C346 C 0.20723 0.37655 0.08930
 C347 C 0.27118 0.39977 -0.05043
 C348 C 0.16391 0.29914 -0.03232
 C349 C 0.30735 0.28670 0.03507
 C350 C 0.77358 0.07313 1.02847
 H351 H 0.76387 0.06231 1.01333
 C352 C 0.79026 0.05995 1.04655
 H353 H 0.79353 0.03903 1.04510
 C354 C 0.78135 0.11347 1.04905
 H355 H 0.77754 0.13424 1.05031
 C356 C 0.79830 0.10124 1.06714
 H357 H 0.80748 0.11280 1.08211
 N358 N 0.76978 0.09953 1.02984
 C359 C 0.70774 0.10029 0.97603
 H360 H 0.69580 0.11248 0.98908
 C361 C 0.69535 0.08654 0.95638
 H362 H 0.67415 0.08877 0.95451
 C363 C 0.74954 0.08304 0.96227
 H364 H 0.77067 0.08157 0.96486
 C365 C 0.73784 0.06886 0.94211
 H366 H 0.75006 0.05652 0.92930
 Zn367 Zn 0.74898 0.11965 1.00550
 N368 N 0.73441 0.09864 0.97859
 C369 C 0.78353 0.14264 0.96609
 N370 N 0.77078 0.14613 0.99010
 C371 C 0.77555 0.16730 1.00516
 C372 C 0.79502 0.18497 0.99714
 C373 C 0.80302 0.15996 0.95720
 C374 C 0.71172 0.12351 1.04795
 C375 C 0.68848 0.13235 1.06068
 C376 C 0.68446 0.16624 1.02638
 C377 C 0.70785 0.15680 1.01434
 N378 N 0.72068 0.13553 1.02501
 H379 H 0.77949 0.12587 0.95427
 H380 H 0.76488 0.17001 1.02395
 H381 H 0.79919 0.20120 1.00984
 H382 H 0.81387 0.15612 0.93869
 H383 H 0.72207 0.10641 1.05583
 H384 H 0.68151 0.12231 1.07876
 H385 H 0.67393 0.18250 1.01697
 H386 H 0.71516 0.16567 0.99579
 C387 C 0.71034 0.07052 0.93909
 C388 C 0.80322 0.07424 1.06582
 C389 C 0.67419 0.15362 1.04957
 C390 C 0.80952 0.18097 0.97323
 C391 C 0.29874 0.60362 0.55408
 H392 H 0.31387 0.61489 0.54377
 C393 C 0.30427 0.59107 0.57854
 H394 H 0.32356 0.59308 0.58709
 C395 C 0.25502 0.58782 0.55601
 H396 H 0.23578 0.58682 0.54717
 C397 C 0.25962 0.57520 0.58054
 H398 H 0.24386 0.56434 0.59043
 N399 N 0.27426 0.60220 0.54358
 C400 C 0.25426 0.60714 0.45876
 H401 H 0.25695 0.62765 0.45416
 C402 C 0.24704 0.59060 0.43847
 H403 H 0.24408 0.59875 0.41853
 C404 C 0.25650 0.57145 0.48970
 H405 H 0.26038 0.56385 0.50957
 C406 C 0.24907 0.55423 0.47005
 H407 H 0.24678 0.53374 0.47538
 Zn408 Zn 0.26579 0.62130 0.51167
 N409 N 0.25833 0.59753 0.48401
 C410 C 0.30926 0.63774 0.47873
 N411 N 0.29439 0.64277 0.50117
 C412 C 0.29963 0.66331 0.51691
 C413 C 0.32056 0.67982 0.51025
 C414 C 0.33008 0.65399 0.47110
 C415 C 0.22375 0.65625 0.49767
 C416 C 0.19996 0.67011 0.50170
 C417 C 0.20151 0.65864 0.54879
 C418 C 0.22525 0.64502 0.54386
 N419 N 0.23541 0.64318 0.51844
 H420 H 0.30523 0.62096 0.46684
 H421 H 0.28756 0.66677 0.53471
 H422 H 0.32452 0.69611 0.52295
 H423 H 0.34185 0.64967 0.45326
 H424 H 0.23255 0.65568 0.47783
 H425 H 0.19074 0.67991 0.48478
 H426 H 0.19324 0.65879 0.56900
 H427 H 0.23525 0.63564 0.56043
 C428 C 0.24385 0.56381 0.44409
 C429 C 0.28436 0.57712 0.59232
 C430 C 0.18820 0.67089 0.52743
 C431 C 0.33594 0.67529 0.48699
 C432 C 0.78591 0.89303 0.46406
 H433 H 0.80091 0.88681 0.47800
 C434 C 0.79341 0.90303 0.43884
 H435 H 0.81425 0.90375 0.43359
 C436 C 0.74066 0.89826 0.45379
 H437 H 0.72012 0.89593 0.45965
 C438 C 0.74727 0.90882 0.42850
 H439 H 0.73157 0.91507 0.41534
 N440 N 0.75993 0.89004 0.47070
 C441 C 0.72892 0.88652 0.55287
 H442 H 0.72426 0.86601 0.55509
 C443 C 0.72175 0.90377 0.57321
 H444 H 0.71119 0.89634 0.59081
 C445 C 0.74734 0.92107 0.52658
 H446 H 0.75736 0.92768 0.50835
 C447 C 0.74075 0.93897 0.54652
 H448 H 0.74602 0.95925 0.54344
 Zn449 Zn 0.74994 0.87151 0.50250
 N450 N 0.74126 0.89541 0.53003
 C451 C 0.78614 0.84778 0.53895
 N452 N 0.77853 0.84906 0.51301
 C453 C 0.79220 0.83572 0.49369
 C454 C 0.81490 0.82112 0.49993
 C455 C 0.80844 0.83295 0.54619
 C456 C 0.69532 0.86050 0.50171
 C457 C 0.67300 0.84730 0.49381
 C458 C 0.70177 0.81583 0.47172
 C459 C 0.72349 0.82965 0.47996
 N460 N 0.71998 0.85156 0.49468
 H461 H 0.77518 0.85850 0.55409
 H462 H 0.78624 0.83740 0.47307
 H463 H 0.82605 0.81185 0.48386
 H464 H 0.81388 0.83208 0.56702
 H465 H 0.69286 0.87836 0.51275
 H466 H 0.65354 0.85479 0.49945
 H467 H 0.70506 0.79885 0.45942
 H468 H 0.74312 0.82313 0.47403
 C469 C 0.72755 0.93047 0.57017
 C470 C 0.77399 0.91066 0.42039
 C471 C 0.67610 0.82474 0.47843
 C472 C 0.82352 0.81975 0.52647
 C473 C -0.03051 0.24650 0.41707
 H474 H -0.01288 0.24150 0.42792
 C475 C -0.05098 0.26043 0.42982
 H476 H -0.04890 0.26618 0.45040
 C477 C -0.05421 0.24668 0.37668
 H478 H -0.05486 0.24196 0.35569
 C479 C -0.07536 0.26031 0.38881
 H480 H -0.09227 0.26620 0.37708
 N481 N -0.03206 0.24076 0.39070
 C482 C 0.02701 0.18729 0.39923
 H483 H 0.01604 0.17410 0.38740
 C484 C 0.04517 0.17705 0.41743
 H485 H 0.04799 0.15603 0.41929
 C486 C 0.03739 0.23054 0.41071
 H487 H 0.03421 0.25141 0.40790
 C488 C 0.05596 0.22111 0.42900
 H489 H 0.06689 0.23482 0.44042
 Zn490 Zn -0.00188 0.22746 0.37198
 N491 N 0.02314 0.21362 0.39648
 C492 C 0.03769 0.25068 0.33905
 N493 N 0.01423 0.25520 0.35219
 C494 C 0.00288 0.27956 0.35254
 C495 C 0.01501 0.30047 0.33904
 C496 C 0.05034 0.27100 0.32499
 C497 C -0.02805 0.18175 0.35988
 C498 C -0.03448 0.16024 0.34482
 C499 C -0.00986 0.17890 0.30721
 C500 C -0.00400 0.20013 0.32297
 N501 N -0.01249 0.20081 0.34904
 H502 H 0.04663 0.23128 0.33963
 H503 H -0.01548 0.28294 0.36351
 H504 H 0.00564 0.31970 0.33943
 H505 H 0.06907 0.26712 0.31473
 H506 H -0.03472 0.18288 0.38060
 H507 H -0.04600 0.14476 0.35419
 H508 H -0.00252 0.17840 0.28666
 H509 H 0.00783 0.21571 0.31447
 C510 C 0.05982 0.19401 0.43269
 C511 C -0.07337 0.26808 0.41541
 C512 C -0.02490 0.15838 0.31828
 C513 C 0.03900 0.29629 0.32498
 C514 C 1.06025 0.76091 0.09138
 H515 H 1.04191 0.77162 0.08815
 C516 C 1.08359 0.76918 0.07848
 H517 H 1.08278 0.78590 0.06481
 C518 C 1.08337 0.72616 0.11325
 H519 H 1.08338 0.70977 0.12729
 C520 C 1.10715 0.73401 0.10122
 H521 H 1.12511 0.72348 0.10648
 N522 N 1.06051 0.73957 0.10817
 C523 C 0.97877 0.71381 0.11637
 H524 H 0.97777 0.71096 0.13792
 C525 C 0.95646 0.70980 0.10131
 H526 H 0.93827 0.70429 0.11161
 C527 C 1.00361 0.72572 0.07730
 H528 H 1.02207 0.73172 0.06801
 C529 C 0.98184 0.72155 0.06136
 H530 H 0.98395 0.72431 0.03986
 Zn531 Zn 1.02937 0.72982 0.12748
 N532 N 1.00144 0.72254 0.10437
 C533 C 0.99474 0.76942 0.14705
 N534 N 1.01920 0.75824 0.14960
 C535 C 1.03741 0.76889 0.16552
 C536 C 1.03136 0.79192 0.17926
 C537 C 0.98776 0.79206 0.16072
 C538 C 1.03787 0.67669 0.13233
 C539 C 1.04265 0.65229 0.14439
 C540 C 1.04457 0.67325 0.18719
 C541 C 1.03924 0.69735 0.17431
 N542 N 1.03620 0.69857 0.14730
 H543 H 0.98078 0.76150 0.13362
 H544 H 1.05693 0.76001 0.16677
 H545 H 1.04620 0.80056 0.19136
 H546 H 0.96843 0.80099 0.15774
 H547 H 1.03547 0.67827 0.11088
 H548 H 1.04406 0.63511 0.13210
 H549 H 1.04714 0.67240 0.20867
 H550 H 1.03775 0.71501 0.18580
 C551 C 0.95761 0.71411 0.07342
 C552 C 1.10759 0.75575 0.08343
 C553 C 1.04615 0.65036 0.17212
 C554 C 1.00627 0.80382 0.17674
 C555 C 0.52503 0.27685 0.56473
 H556 H 0.50554 0.27312 0.55763
 C557 C 0.54427 0.28668 0.54681
 H558 H 0.53918 0.29038 0.52611
 C559 C 0.55565 0.27549 0.59980
 H560 H 0.56022 0.27040 0.62031
 C561 C 0.57539 0.28549 0.58266
 H562 H 0.59466 0.28898 0.59063
 N563 N 0.53078 0.27217 0.59091
 C564 C 0.46364 0.22630 0.60351
 H565 H 0.47468 0.21192 0.61507
 C566 C 0.43893 0.21984 0.59414
 H567 H 0.43142 0.20052 0.59869
 C568 C 0.45903 0.26939 0.58556
 H569 H 0.46667 0.28892 0.58299
 C570 C 0.43420 0.26372 0.57575
 H571 H 0.42321 0.27886 0.56506
 Zn572 Zn 0.50490 0.25997 0.61639
 N573 N 0.47314 0.25081 0.59936
 C574 C 0.47035 0.29232 0.64690
 N575 N 0.49634 0.28672 0.64152
 C576 C 0.51560 0.30137 0.65190
 C577 C 0.50900 0.32354 0.66675
 C578 C 0.46289 0.31427 0.66165
 C579 C 0.52931 0.21135 0.61634
 C580 C 0.53729 0.18680 0.62610
 C581 C 0.52515 0.20037 0.67089
 C582 C 0.51728 0.22483 0.66019
 N583 N 0.51902 0.22954 0.63327
 H584 H 0.45522 0.28023 0.63910
 H585 H 0.53612 0.29652 0.64799
 H586 H 0.52464 0.33530 0.67423
 H587 H 0.44207 0.31897 0.66449
 H588 H 0.53041 0.21566 0.59503
 H589 H 0.54500 0.17244 0.61217
 H590 H 0.52279 0.19644 0.69221
 H591 H 0.50888 0.23962 0.67320
 C592 C 0.42364 0.23875 0.58038
 C593 C 0.56975 0.29165 0.55581
 C594 C 0.53466 0.18080 0.65360
 C595 C 0.48232 0.33066 0.67116
 C596 C 0.49533 0.78968 0.88375
 H597 H 0.51577 0.79520 0.88260
 C598 C 0.47764 0.80384 0.89994
 H599 H 0.48485 0.81983 0.91140
 C600 C 0.46097 0.76279 0.86976
 H601 H 0.45433 0.74740 0.85724
 C602 C 0.44255 0.77644 0.88577
 H603 H 0.42193 0.77125 0.88552
 N604 N 0.48683 0.76968 0.86889
 C605 C 0.55103 0.72043 0.86795
 H606 H 0.53797 0.70458 0.86408
 C607 C 0.57582 0.71491 0.87878
 H608 H 0.58162 0.69477 0.88307
 C609 C 0.56005 0.76572 0.86589
 H610 H 0.55422 0.78544 0.86002
 C611 C 0.58489 0.76110 0.87661
 H612 H 0.59757 0.77751 0.87969
 Zn613 Zn 0.51140 0.75377 0.84443
 N614 N 0.54364 0.74555 0.86172
 C615 C 0.54218 0.77656 0.80258
 N616 N 0.51881 0.77842 0.81654
 C617 C 0.50172 0.79891 0.81246
 C618 C 0.50845 0.81927 0.79463
 C619 C 0.54984 0.79665 0.78480
 C620 C 0.48643 0.70471 0.84653
 C621 C 0.47488 0.68270 0.83605
 C622 C 0.48664 0.69872 0.79154
 C623 C 0.49754 0.72063 0.80285
 N624 N 0.49714 0.72331 0.82989
 H625 H 0.55537 0.76001 0.80615
 H626 H 0.48323 0.79993 0.82375
 H627 H 0.49516 0.83603 0.79258
 H628 H 0.56897 0.79545 0.77464
 H629 H 0.48635 0.70730 0.86798
 H630 H 0.46561 0.66871 0.84970
 H631 H 0.48762 0.69691 0.76998
 H632 H 0.50634 0.73549 0.78995
 C633 C 0.59323 0.73540 0.88292
 C634 C 0.45078 0.79756 0.90079
 C635 C 0.47473 0.67950 0.80813
 C636 C 0.53311 0.81862 0.78115
 C637 C 0.46378 -0.13854 0.32849
 C638 C 0.46579 -0.14100 0.30117
 C639 C 0.47569 -0.16348 0.28915
 C640 C 0.48347 -0.18450 0.30593
 C641 C 0.48069 -0.18299 0.33436
 C642 C 0.47128 -0.15919 0.34557
 O643 O 0.45328 -0.11573 0.33586
 C644 C 0.44841 -0.10362 0.31264
 C645 C 0.45567 -0.11824 0.29081
 C646 C 0.45112 -0.10987 0.26463
 C647 C 0.43824 -0.08555 0.26079
 C648 C 0.43038 -0.06996 0.28298
 C649 C 0.43602 -0.07918 0.30930
 H650 H 0.47731 -0.16485 0.26756
 H651 H 0.49168 -0.20159 0.29633
 H652 H 0.46928 -0.15706 0.36706
 H653 H 0.45661 -0.12195 0.24778
 H654 H 0.43360 -0.07943 0.24053
 H655 H 0.43058 -0.06797 0.32678
 C656 C 0.95821 0.33839 0.80264
 C657 C 0.94755 0.33019 0.77931
 C658 C 0.94667 0.30397 0.77274
 C659 C 0.95682 0.28541 0.79113
 C660 C 0.96797 0.29325 0.81554
 C661 C 0.96865 0.32033 0.82107
 O662 O 0.95519 0.36395 0.80616
 C663 C 0.94221 0.37202 0.78462
 C664 C 0.93705 0.35214 0.76755
 C665 C 0.92206 0.35594 0.74479
 C666 C 0.91183 0.38121 0.73950
 C667 C 0.91671 0.40215 0.75688
 C668 C 0.93250 0.39735 0.77961
 H669 H 0.93746 0.29793 0.75461
 H670 H 0.95452 0.26506 0.78664
 H671 H 0.97573 0.32708 0.83995
 H672 H 0.91775 0.33987 0.73196
 H673 H 0.89932 0.38416 0.72238
 H674 H 0.93670 0.41269 0.79336
 C675 C 0.00699 1.16231 0.82468
 C676 C 0.00202 1.14640 0.84672
 C677 C -0.01034 1.15543 0.86997
 C678 C -0.01745 1.18206 0.87071
 C679 C -0.01150 1.19927 0.84870
 C680 C 0.00055 1.18896 0.82515
 O681 O 0.01932 1.14990 0.80476
 C682 C 0.02239 1.12570 0.81457
 C683 C 0.01234 1.12259 0.84023
 C684 C 0.01506 1.09938 0.85496
 C685 C 0.02883 1.07853 0.84281
 C686 C 0.03909 1.08087 0.81603
 C687 C 0.03536 1.10498 0.80175
 H688 H -0.01427 1.14247 0.88699
 H689 H -0.02752 1.18912 0.88857
 H690 H 0.00583 1.20134 0.80806
 H691 H 0.00758 1.09763 0.87542
 H692 H 0.03205 1.06094 0.85481
 H693 H 0.04248 1.10788 0.78132
 C694 C 0.52579 0.68922 0.32124
 C695 C 0.51394 0.66932 0.33582
 C696 C 0.49770 0.67383 0.35822
 C697 C 0.49344 0.69992 0.36579
 C698 C 0.50514 0.72072 0.35074
 C699 C 0.52152 0.71522 0.32815
 O700 O 0.54125 0.68082 0.30127
 C701 C 0.53908 0.65504 0.30319
 C702 C 0.52245 0.64695 0.32384
 C703 C 0.51757 0.62069 0.32949
 C704 C 0.53064 0.60204 0.31340
 C705 C 0.54839 0.60995 0.29242
 C706 C 0.55242 0.63688 0.28716
 H707 H 0.48875 0.65787 0.36954
 H708 H 0.48073 0.70396 0.38304
 H709 H 0.53098 0.73073 0.31656
 H710 H 0.50446 0.61476 0.34588
 H711 H 0.52764 0.58146 0.31782
 H712 H 0.56584 0.64348 0.27129
 C713 C 0.53181 0.35299 0.17207
 C714 C 0.53799 0.36765 0.14944
 C715 C 0.53588 0.35831 0.12375
 C716 C 0.52674 0.33286 0.12121
 C717 C 0.51939 0.31729 0.14411
 C718 C 0.52242 0.32760 0.17004
 O719 O 0.53595 0.36547 0.19461
 C720 C 0.54482 0.38852 0.18593
 C721 C 0.54631 0.39082 0.15844
 C722 C 0.55508 0.41320 0.14497
 C723 C 0.56275 0.43411 0.16047
 C724 C 0.56167 0.43228 0.18892
 C725 C 0.55256 0.40906 0.20180
 H726 H 0.54123 0.37013 0.10625
 H727 H 0.52521 0.32521 0.10126
 H728 H 0.51805 0.31647 0.18817
 H729 H 0.55615 0.41446 0.12330
 H730 H 0.57015 0.45150 0.15029
 H731 H 0.55151 0.40707 0.22344
 C732 C 0.03830 0.82729 0.67810
 C733 C 0.02315 0.82692 0.70130
 C734 C 0.00436 0.80801 0.70684
 C735 C 0.00125 0.78854 0.68783
 C736 C 0.01729 0.78774 0.66384
 C737 C 0.03547 0.80833 0.65888
 O738 O 0.05459 0.84728 0.67627
 C739 C 0.04965 0.85981 0.69887
 C740 C 0.03046 0.84827 0.71486
 C741 C 0.02190 0.85855 0.73921
 C742 C 0.03376 0.88154 0.74746
 C743 C 0.05384 0.89362 0.73141
 C744 C 0.06179 0.88251 0.70672
 H745 H -0.00783 0.80847 0.72496
 H746 H -0.01420 0.77454 0.69170
 H747 H 0.04678 0.81016 0.64028
 H748 H 0.00670 0.84920 0.75144
 H749 H 0.02763 0.88970 0.76650
 H750 H 0.07680 0.89143 0.69387
 C751 C 0.96664 0.66719 0.66509
 C752 C 0.97391 0.64824 0.64711
 C753 C 0.98909 0.65348 0.62415
 C754 C 0.99690 0.67937 0.61934
 C755 C 0.98979 0.69952 0.63761
 C756 C 0.97479 0.69293 0.66114
 O757 O 0.95097 0.65839 0.68489
 C758 C 0.94845 0.63331 0.67934
 C759 C 0.96233 0.62604 0.65657
 C760 C 0.96228 0.60072 0.64695
 C761 C 0.94711 0.58218 0.66128
 C762 C 0.93209 0.58938 0.68442
 C763 C 0.93289 0.61531 0.69362
 H764 H 0.99455 0.63822 0.61027
 H765 H 1.00932 0.68318 0.60181
 H766 H 0.96836 0.70759 0.67533
 H767 H 0.97331 0.59549 0.62894
 H768 H 0.94642 0.56243 0.65398
 H769 H 0.92158 0.62128 0.71122
 C770 C 0.46063 0.18954 0.19021
 C771 C 0.44090 0.20042 0.20606
 C772 C 0.43692 0.22733 0.20797
 C773 C 0.45372 0.24365 0.19258
 C774 C 0.47383 0.23283 0.17558
 C775 C 0.47746 0.20537 0.17477
 O776 O 0.46053 0.16358 0.19042
 C777 C 0.44019 0.15790 0.20663
 C778 C 0.42742 0.17974 0.21667
 C779 C 0.40474 0.17828 0.23291
 C780 C 0.39479 0.15333 0.23893
 C781 C 0.40765 0.13052 0.22886
 C782 C 0.43085 0.13291 0.21268
 H783 H 0.42109 0.23547 0.22036
 H784 H 0.45034 0.26461 0.19306
 H785 H 0.49257 0.19651 0.16211
 H786 H 0.39484 0.19572 0.24033
 H787 H 0.37707 0.15172 0.25144
 H788 H 0.44080 0.11589 0.20434
 C789 C 0.33339 0.44604 -0.13903
 C790 C 0.31809 0.46557 -0.12767
 C791 C 0.31739 0.49102 -0.13789
 C792 C 0.33285 0.49649 -0.16093
 C793 C 0.34867 0.47668 -0.17348
 C794 C 0.34893 0.45101 -0.16201
 O795 O 0.33053 0.42297 -0.12667
 C796 C 0.31299 0.42807 -0.10717
 C797 C 0.30466 0.45383 -0.10697
 C798 C 0.28547 0.46317 -0.08896
 C799 C 0.27446 0.44520 -0.07037
 C800 C 0.28292 0.41856 -0.07004
 C801 C 0.30256 0.40997 -0.08870
 H802 H 0.30500 0.50602 -0.12877
 H803 H 0.33197 0.51612 -0.16955
 H804 H 0.35989 0.43496 -0.17086
 H805 H 0.27903 0.48349 -0.08937
 H806 H 0.25954 0.45201 -0.05610
 H807 H 0.30907 0.38967 -0.08920
 C808 C 0.83418 0.95025 0.32683
 C809 C 0.81122 0.94014 0.31771
 C810 C 0.80614 0.93848 0.29054
 C811 C 0.82537 0.94791 0.27211
 C812 C 0.84911 0.95897 0.28105
 C813 C 0.85361 0.95931 0.30899
 O814 O 0.83570 0.94948 0.35330
 C815 C 0.81321 0.93856 0.36116
 C816 C 0.79753 0.93233 0.34023
 C817 C 0.77362 0.91970 0.34410
 C818 C 0.76574 0.91306 0.37056
 C819 C 0.78163 0.91931 0.39259
 C820 C 0.80558 0.93262 0.38755
 H821 H 0.78816 0.92996 0.28376
 H822 H 0.82192 0.94609 0.25095
 H823 H 0.87196 0.96596 0.31685
 H824 H 0.76175 0.91461 0.32733
 H825 H 0.74767 0.90235 0.37369
 H826 H 0.81819 0.93802 0.40362
 C827 C 0.84930 0.01150 1.15295
 C828 C 0.86700 0.03032 1.14489
 C829 C 0.88966 0.03529 1.15888
 C830 C 0.89430 0.02030 1.18222
 C831 C 0.87650 0.00056 1.19105
 C832 C 0.85370 -0.00391 1.17596
 O833 O 0.82813 0.01117 1.13775
 C834 C 0.83257 0.03025 1.11976
 C835 C 0.85615 0.04249 1.12326
 C836 C 0.86415 0.06394 1.10775
 C837 C 0.84693 0.07351 1.08812
 C838 C 0.82220 0.06165 1.08441
 C839 C 0.81518 0.03933 1.10012
 H840 H 0.90293 0.05068 1.15249
 H841 H 0.91129 0.02492 1.19379
 H842 H 0.83956 -0.01859 1.18214
 H843 H 0.88269 0.07339 1.11109
 H844 H 0.85256 0.09053 1.07616
 H845 H 0.79621 0.03025 1.09809
 C846 C 0.33011 0.52570 0.68712
 C847 C 0.30593 0.53646 0.69427
 C848 C 0.29589 0.53578 0.72037
 C849 C 0.31141 0.52355 0.74001
 C850 C 0.33642 0.51185 0.73332
 C851 C 0.34578 0.51300 0.70629
 O852 O 0.33626 0.52933 0.66127
 C853 C 0.31546 0.54266 0.65201
 C854 C 0.29632 0.54737 0.67142
 C855 C 0.27295 0.56111 0.66631
 C856 C 0.26914 0.57045 0.64005
 C857 C 0.28864 0.56613 0.61961
 C858 C 0.31218 0.55201 0.62575
 H859 H 0.27697 0.54481 0.72555
 H860 H 0.30404 0.52394 0.76051
 H861 H 0.36459 0.50433 0.70022
 H862 H 0.25826 0.56465 0.68200
 H863 H 0.25123 0.58155 0.63576
 H864 H 0.32739 0.54839 0.61056
 C865 C 0.18810 0.52186 0.35364
 C866 C 0.20420 0.50223 0.36372
 C867 C 0.20567 0.47744 0.35293
 C868 C 0.19007 0.47283 0.33072
 C869 C 0.17351 0.49287 0.31949
 C870 C 0.17255 0.51778 0.33154
 O871 O 0.18951 0.54402 0.36676
 C872 C 0.20696 0.53830 0.38549
 C873 C 0.21662 0.51301 0.38452
 C874 C 0.23535 0.50310 0.40218
 C875 C 0.24441 0.51997 0.42165
 C876 C 0.23458 0.54616 0.42318
 C877 C 0.21551 0.55529 0.40471
 H878 H 0.21841 0.46222 0.36122
 H879 H 0.19107 0.45362 0.32199
 H880 H 0.16048 0.53390 0.32434
 H881 H 0.24283 0.48317 0.40093
 H882 H 0.25928 0.51268 0.43529
 H883 H 0.20723 0.57495 0.40544
 C884 C 0.67544 0.03280 0.83596
 C885 C 0.65660 0.02719 0.85544
 C886 C 0.63183 0.01806 0.84976
 C887 C 0.62632 0.01407 0.82290
 C888 C 0.64571 0.01828 0.80214
 C889 C 0.67061 0.02833 0.80893
 O890 O 0.69692 0.04330 0.84577
 C891 C 0.69143 0.04413 0.87197
 C892 C 0.66707 0.03424 0.87881
 C893 C 0.65681 0.03375 0.90486
 C894 C 0.67200 0.04450 0.92471
 C895 C 0.69677 0.05593 0.91824
 C896 C 0.70692 0.05513 0.89150
 H897 H 0.61704 0.01464 0.86542
 H898 H 0.60676 0.00758 0.81822
 H899 H 0.68554 0.03316 0.79388
 H900 H 0.63757 0.02578 0.90966
 H901 H 0.66415 0.04448 0.94509
 H902 H 0.72554 0.06399 0.88584
 C903 C 0.69279 0.97657 0.67192
 C904 C 0.68905 0.99506 0.65180
 C905 C 0.67492 1.01833 0.65580
 C906 C 0.66370 1.02243 0.68138
 C907 C 0.66707 1.00355 0.70228
 C908 C 0.68217 0.98049 0.69766
 O909 O 0.70473 0.95484 0.66336
 C910 C 0.70850 0.95966 0.63730
 C911 C 0.69932 0.98401 0.62923
 C912 C 0.69953 0.99234 0.60252
 C913 C 0.70946 0.97482 0.58331
 C914 C 0.71890 0.94943 0.59100
 C915 C 0.71865 0.94201 0.61857
 H916 H 0.67167 1.03228 0.63952
 H917 H 0.65149 1.03976 0.68471
 H918 H 0.68393 0.96531 0.71305
 H919 H 0.69164 1.01138 0.59658
 H920 H 0.70885 0.98077 0.56239
 H921 H 0.72561 0.92285 0.62528
 C922 C 0.17954 0.43938 0.18285
 C923 C 0.19594 0.41901 0.19080
 C924 C 0.20355 0.41507 0.21716
 C925 C 0.19359 0.43266 0.23621
 C926 C 0.17616 0.45350 0.22868
 C927 C 0.16911 0.45693 0.20157
 O928 O 0.17471 0.43947 0.15681
 C929 C 0.18821 0.41861 0.14821
 C930 C 0.20134 0.40531 0.16830
 C931 C 0.21591 0.38238 0.16404
 C932 C 0.21718 0.37285 0.13792
 C933 C 0.20428 0.38647 0.11673
 C934 C 0.18964 0.40974 0.12193
 H935 H 0.21639 0.39882 0.22292
 H936 H 0.19864 0.42942 0.25700
 H937 H 0.15562 0.47250 0.19536
 H938 H 0.22586 0.37215 0.18024
 H939 H 0.22857 0.35512 0.13402
 H940 H 0.17955 0.42039 0.10608
 C941 C -0.16963 0.32448 0.45085
 C942 C -0.14815 0.34007 0.45391
 C943 C -0.15026 0.36554 0.46265
 C944 C -0.17556 0.37538 0.46881
 C945 C -0.19829 0.35958 0.46708
 C946 C -0.19517 0.33371 0.45749
 O947 O -0.16303 0.30115 0.44111
 C948 C -0.13685 0.30214 0.43821
 C949 C -0.12687 0.32550 0.44603
 C950 C -0.10009 0.33091 0.44505
 C951 C -0.08274 0.31143 0.43548
 C952 C -0.09241 0.28730 0.42679
 C953 C -0.11990 0.28256 0.42808
 H954 H -0.13305 0.37757 0.46433
 H955 H -0.17748 0.39546 0.47517
 H956 H -0.21181 0.32122 0.45484
 H957 H -0.09281 0.34949 0.45137
 H958 H -0.06178 0.31531 0.43426
 H959 H -0.12771 0.26430 0.42148
 C960 C 0.35924 0.83383 0.96508
 C961 C 0.37293 0.85533 0.95604
 C962 C 0.36413 0.88074 0.96049
 C963 C 0.33996 0.88418 0.97439
 C964 C 0.32467 0.86239 0.98368
 C965 C 0.33533 0.83670 0.97936
 O966 O 0.37062 0.81134 0.95787
 C967 C 0.39190 0.81886 0.94389
 C968 C 0.39428 0.84559 0.94228
 C969 C 0.41471 0.85775 0.92803
 C970 C 0.43341 0.84170 0.91480
 C971 C 0.43135 0.81401 0.91591
 C972 C 0.41023 0.80250 0.93081
 H973 H 0.37523 0.89739 0.95308
 H974 H 0.33274 0.90401 0.97750
 H975 H 0.32577 0.81908 0.98625
 H976 H 0.41601 0.87886 0.92684
 H977 H 0.44912 0.85089 0.90312
 H978 H 0.40807 0.78148 0.93208
 C979 C 1.19506 0.81997 0.04146
 C980 C 1.20335 0.79427 0.04201
 C981 C 1.22902 0.78653 0.03546
 C982 C 1.24691 0.80603 0.02777
 C983 C 1.23903 0.83305 0.02591
 C984 C 1.21231 0.83975 0.03323
 O985 O 1.17000 0.82320 0.04955
 C986 C 1.16239 0.79892 0.05522
 C987 C 1.18202 0.78050 0.05071
 C988 C 1.17839 0.75389 0.05514
 C989 C 1.15358 0.74593 0.06502
 C990 C 1.13307 0.76455 0.07087
 C991 C 1.13765 0.79150 0.06550
 H992 H 1.23526 0.76617 0.03675
 H993 H 1.26707 0.79955 0.02406
 H994 H 1.20431 0.85943 0.03227
 H995 H 1.19409 0.73973 0.05111
 H996 H 1.15047 0.72519 0.06810
 H997 H 1.12280 0.80641 0.06994
 C998 C 0.67008 0.32846 0.50861
 C999 C 0.64972 0.34195 0.49635
 C1000 C 0.65382 0.36321 0.47899
 C1001 C 0.67992 0.37119 0.47444
 C1002 C 0.70124 0.35786 0.48707
 C1003 C 0.69630 0.33585 0.50402
 O1004 O 0.66171 0.31005 0.52584
 C1005 C 0.63554 0.31205 0.52447
 C1006 C 0.62723 0.33122 0.50667
 C1007 C 0.60072 0.33772 0.50324
 C1008 C 0.58196 0.32407 0.51898
 C1009 C 0.58989 0.30430 0.53777
 C1010 C 0.61721 0.29807 0.54018
 H1011 H 0.63746 0.37375 0.46990
 H1012 H 0.68351 0.38810 0.46149
 H1013 H 0.71218 0.32582 0.51446
 H1014 H 0.59470 0.35325 0.48946
 H1015 H 0.56134 0.32967 0.51717
 H1016 H 0.62410 0.28316 0.55423
 C1017 C 0.32902 0.18369 0.54948
 C1018 C 0.32153 0.20884 0.55573
 C1019 C 0.29529 0.21736 0.55626
 C1020 C 0.27597 0.19932 0.54983
 C1021 C 0.28314 0.17325 0.54267
 C1022 C 0.31022 0.16547 0.54303
 O1023 O 0.35487 0.17924 0.55096
 C1024 C 0.36391 0.20211 0.55833
 C1025 C 0.34434 0.22090 0.56150
 C1026 C 0.34942 0.24605 0.56980
 C1027 C 0.37569 0.25196 0.57532
 C1028 C 0.39629 0.23282 0.57247
 C1029 C 0.39015 0.20758 0.56354
 H1030 H 0.28981 0.23712 0.56179
 H1031 H 0.25562 0.20588 0.55115
 H1032 H 0.31646 0.14563 0.53853
 H1033 H 0.33366 0.26046 0.57241
 H1034 H 0.37979 0.27120 0.58261
 H1035 H 0.40527 0.19251 0.56100
 C1036 C 0.85397 0.68461 0.03485
 C1037 C 0.86339 0.70458 0.01864
 C1038 C 0.84979 0.71457 -0.00321
 C1039 C 0.82542 0.70357 -0.00858
 C1040 C 0.81451 0.68349 0.00836
 C1041 C 0.82953 0.67360 0.03015
 O1042 O 0.87058 0.67730 0.05392
 C1043 C 0.89084 0.69312 0.04965
 C1044 C 0.88738 0.71019 0.02832
 C1045 C 0.90609 0.72847 0.02031
 C1046 C 0.92924 0.72941 0.03509
 C1047 C 0.93345 0.71199 0.05727
 C1048 C 0.91385 0.69345 0.06442
 H1049 H 0.85798 0.72981 -0.01613
 H1050 H 0.81554 0.71032 -0.02648
 H1051 H 0.82286 0.65733 0.04261
 H1052 H 0.90282 0.74179 0.00349
 H1053 H 0.94354 0.74415 0.02957
 H1054 H 0.91639 0.67960 0.08093
 C1055 C 0.68407 0.69487 0.94290
 C1056 C 0.69288 0.71344 0.92462
 C1057 C 0.71915 0.72069 0.92236
 C1058 C 0.73712 0.70826 0.93965
 C1059 C 0.72861 0.68898 0.95878
 C1060 C 0.70163 0.68221 0.96027
 O1061 O 0.65824 0.69102 0.94186
 C1062 C 0.65062 0.70751 0.92246
 C1063 C 0.67109 0.72166 0.91128
 C1064 C 0.66759 0.74011 0.89075
 C1065 C 0.64191 0.74429 0.88145
 C1066 C 0.62030 0.73015 0.89277
 C1067 C 0.62488 0.71133 0.91351
 H1068 H 0.72562 0.73532 0.90775
 H1069 H 0.75774 0.71336 0.93778
 H1070 H 0.69436 0.66785 0.97467
 H1071 H 0.68405 0.75092 0.88219
 H1072 H 0.63891 0.75840 0.86525
 H1073 H 0.60885 0.70036 0.92273
 C1074 C 0.15679 0.17177 0.49121
 C1075 C 0.13805 0.15426 0.50007
 C1076 C 0.14367 0.13365 0.51783
 C1077 C 0.16974 0.13081 0.52656
 C1078 C 0.18949 0.14844 0.51748
 C1079 C 0.18277 0.16942 0.49978
 O1080 O 0.14769 0.18919 0.47340
 C1081 C 0.12268 0.18251 0.47095
 C1082 C 0.11579 0.16126 0.48684
 C1083 C 0.09091 0.15026 0.48650
 C1084 C 0.07244 0.16151 0.46893
 C1085 C 0.07911 0.18332 0.45215
 C1086 C 0.10457 0.19410 0.45347
 H1087 H 0.12865 0.11998 0.52436
 H1088 H 0.17457 0.11478 0.54024
 H1089 H 0.19753 0.18281 0.49198
 H1090 H 0.08601 0.13341 0.49904
 H1091 H 0.05298 0.15318 0.46831
 H1092 H 0.11043 0.21041 0.44058
 C1093 C 0.57778 0.08990 0.71295
 C1094 C 0.56422 0.08114 0.69157
 C1095 C 0.56409 0.05502 0.68471
 C1096 C 0.57883 0.03714 0.70029
 C1097 C 0.59350 0.04542 0.72252
 C1098 C 0.59232 0.07244 0.72900
 O1099 O 0.57642 0.11576 0.71518
 C1100 C 0.56163 0.12344 0.69471
 C1101 C 0.55362 0.10294 0.67971
 C1102 C 0.53888 0.10646 0.65677
 C1103 C 0.53232 0.13218 0.64877
 C1104 C 0.54065 0.15382 0.66359
 C1105 C 0.55522 0.14927 0.68717
 H1106 H 0.55326 0.04862 0.66771
 H1107 H 0.57807 0.01687 0.69494
 H1108 H 0.60358 0.08027 0.74497
 H1109 H 0.53293 0.09000 0.64523
 H1110 H 0.52083 0.13527 0.63093
 H1111 H 0.56215 0.16533 0.69870
 C1112 C 1.09814 0.56347 0.22952
 C1113 C 1.07665 0.55378 0.21701
 C1114 C 1.07085 0.52728 0.21756
 C1115 C 1.08782 0.51012 0.23169
 C1116 C 1.11019 0.51963 0.24473
 C1117 C 1.11534 0.54679 0.24343
 O1118 O 1.10042 0.58918 0.22634
 C1119 C 1.07991 0.59591 0.21147
 C1120 C 1.06476 0.57498 0.20514
 C1121 C 1.04282 0.57754 0.18898
 C1122 C 1.03648 0.60263 0.17869
 C1123 C 1.05189 0.62450 0.18485
 C1124 C 1.07373 0.62107 0.20177
 H1125 H 1.05380 0.52008 0.20758
 H1126 H 1.08320 0.48954 0.23279
 H1127 H 1.13245 0.55480 0.25263
 H1128 H 1.03128 0.56079 0.18411
 H1129 H 1.01970 0.60503 0.16576
 H1130 H 1.08611 0.63730 0.20641
 C1131 C 0.94623 0.89189 0.22131
 C1132 C 0.97033 0.90093 0.21243
 C1133 C 0.97599 0.92740 0.21110
 C1134 C 0.95606 0.94524 0.21929
 C1135 C 0.93089 0.93651 0.22898
 C1136 C 0.92632 0.90913 0.22998
 O1137 O 0.94409 0.86619 0.21936
 C1138 C 0.96742 0.85882 0.20912
 C1139 C 0.98434 0.87927 0.20469
 C1140 C 1.00947 0.87593 0.19315
 C1141 C 1.01720 0.85059 0.18535
 C1142 C 0.99968 0.82938 0.18887
 C1143 C 0.97463 0.83359 0.20142
 H1144 H 0.99503 0.93414 0.20376
 H1145 H 0.96094 0.96566 0.21867
 H1146 H 0.90739 0.90119 0.23596
 H1147 H 1.02239 0.89233 0.18963
 H1148 H 1.03627 0.84773 0.17541
 H1149 H 0.96077 0.81784 0.20421
 C1150 C 0.42465 0.41228 0.73070
 C1151 C 0.44561 0.42375 0.71726
 C1152 C 0.44990 0.45054 0.71760
 C1153 C 0.43191 0.46611 0.73247
 C1154 C 0.41021 0.45471 0.74665
 C1155 C 0.40663 0.42734 0.74564
 O1156 O 0.42376 0.38662 0.72741
 C1157 C 0.44465 0.38174 0.71156
 C1158 C 0.45875 0.40375 0.70483
 C1159 C 0.48114 0.40306 0.68812
 C1160 C 0.48913 0.37878 0.67771
 C1161 C 0.47473 0.35576 0.68405
 C1162 C 0.45224 0.35741 0.70148
 H1163 H 0.46651 0.45916 0.70683
 H1164 H 0.43518 0.48693 0.73328
 H1165 H 0.39009 0.41804 0.75589
 H1166 H 0.49185 0.42066 0.68296
 H1167 H 0.50608 0.37808 0.66406
 H1168 H 0.44084 0.34031 0.70687
 C1169 C 0.43037 0.57599 0.79199
 C1170 C 0.42436 0.59168 0.77014
 C1171 C 0.40859 0.58348 0.74965
 C1172 C 0.39831 0.55822 0.75195
 C1173 C 0.40376 0.54182 0.77457
 C1174 C 0.42031 0.55084 0.79472
 O1175 O 0.44503 0.58779 0.80960
 C1176 C 0.44818 0.61150 0.79872
 C1177 C 0.43587 0.61490 0.77462
 C1178 C 0.43562 0.63860 0.76043
 C1179 C 0.44855 0.65966 0.77154
 C1180 C 0.46166 0.65671 0.79635
 C1181 C 0.46148 0.63204 0.80996
 H1182 H 0.40392 0.59628 0.73278
 H1183 H 0.38527 0.55191 0.73661
 H1184 H 0.42480 0.53886 0.81224
 H1185 H 0.42538 0.64095 0.74172
 H1186 H 0.44773 0.67840 0.76104
 H1187 H 0.47130 0.62885 0.82880
 C1188 C -0.07211 0.06421 0.27775
 C1189 C -0.04649 0.06502 0.26804
 C1190 C -0.03488 0.04479 0.25342
 C1191 C -0.05028 0.02282 0.24880
 C1192 C -0.07674 0.02147 0.25880
 C1193 C -0.08776 0.04281 0.27320
 O1194 O -0.07926 0.08490 0.29193
 C1195 C -0.05764 0.09911 0.29127
 C1196 C -0.03702 0.08793 0.27682
 C1197 C -0.01234 0.09932 0.27421
 C1198 C -0.00873 0.12298 0.28730
 C1199 C -0.02961 0.13462 0.30275
 C1200 C -0.05450 0.12253 0.30443
 H1201 H -0.01458 0.04569 0.24617
 H1202 H -0.04133 0.00675 0.23799
 H1203 H -0.10799 0.04296 0.28071
 H1204 H 0.00368 0.09010 0.26292
 H1205 H 0.01056 0.13177 0.28612
 H1206 H -0.07085 0.13089 0.31596
 C1207 C 0.08579 0.39782 0.29923
 C1208 C 0.08949 0.38224 0.27729
 C1209 C 0.10371 0.39024 0.25448
 C1210 C 0.11487 0.41515 0.25441
 C1211 C 0.11177 0.43144 0.27701
 C1212 C 0.09670 0.42264 0.29961
 O1213 O 0.07235 0.38625 0.31919
 C1214 C 0.06756 0.36282 0.30970
 C1215 C 0.07770 0.35932 0.28418
 C1216 C 0.07588 0.33581 0.27090
 C1217 C 0.06306 0.31511 0.28448
 C1218 C 0.05229 0.31831 0.31076
 C1219 C 0.05455 0.34262 0.32344
 H1220 H 0.10661 0.37754 0.23756
 H1221 H 0.12681 0.42117 0.23716
 H1222 H 0.09401 0.43451 0.31719
 H1223 H 0.08422 0.33343 0.25091
 H1224 H 0.06135 0.29666 0.27450
 H1225 H 0.04695 0.34552 0.34365
 C1226 C 0.59262 0.91164 0.75261
 C1227 C 0.56962 0.91310 0.73848
 C1228 C 0.56131 0.93589 0.72507
 C1229 C 0.57706 0.95813 0.72681
 C1230 C 0.60034 0.95722 0.74205
 C1231 C 0.60848 0.93337 0.75450
 O1232 O 0.59607 0.88905 0.76571
 C1233 C 0.57472 0.87594 0.75996
 C1234 C 0.55781 0.88970 0.74340
 C1235 C 0.53311 0.88044 0.73702
 C1236 C 0.52543 0.85632 0.74856
 C1237 C 0.54247 0.84203 0.76599
 C1238 C 0.56767 0.85185 0.77124
 H1239 H 0.54291 0.93680 0.71448
 H1240 H 0.57037 0.97632 0.71755
 H1241 H 0.62609 0.93204 0.76638
 H1242 H 0.51985 0.89181 0.72444
 H1243 H 0.50600 0.84908 0.74452
 H1244 H 0.58071 0.84192 0.78521
 C1245 C 0.72072 0.61059 0.07643
 C1246 C 0.69547 0.60687 0.06803
 C1247 C 0.68689 0.61529 0.04304
 C1248 C 0.70507 0.62806 0.02590
 C1249 C 0.73148 0.63204 0.03374
 C1250 C 0.73926 0.62301 0.05958
 O1251 O 0.72474 0.60121 0.10109
 C1252 C 0.70149 0.59134 0.10835
 C1253 C 0.68297 0.59421 0.08873
 C1254 C 0.65741 0.58505 0.09181
 C1255 C 0.65060 0.57237 0.11612
 C1256 C 0.66921 0.56924 0.13684
 C1257 C 0.69504 0.57902 0.13289
 H1258 H 0.66681 0.61228 0.03698
 H1259 H 0.69816 0.63501 0.00674
 H1260 H 0.75921 0.62514 0.06637
 H1261 H 0.64321 0.58756 0.07605
 H1262 H 0.63068 0.56531 0.11898
 H1263 H 0.70966 0.57682 0.14829
 C1264 C 0.22009 1.07762 0.61664
 C1265 C 0.21490 1.05340 0.60679
 C1266 C 0.21965 1.04706 0.58014
 C1267 C 0.22977 1.06661 0.56282
 C1268 C 0.23478 1.09194 0.57229
 C1269 C 0.23030 1.09733 0.59976
 O1270 O 0.21260 1.08012 0.64217
 C1271 C 0.20238 1.05701 0.64854
 C1272 C 0.20328 1.03998 0.62757
 C1273 C 0.19195 1.01543 0.62917
 C1274 C 0.17887 1.00825 0.65326
 C1275 C 0.17754 1.02549 0.67514
 C1276 C 0.18985 1.05007 0.67288
 H1277 H 0.21515 1.02794 0.57281
 H1278 H 0.23332 1.06212 0.54193
 H1279 H 0.23327 1.11664 0.60746
 H1280 H 0.19250 1.00256 0.61224
 H1281 H 0.16938 0.98946 0.65480
 H1282 H 0.18853 1.06381 0.68907
 C1283 C 0.21911 0.91787 0.93231
 C1284 C 0.20031 0.93306 0.94518
 C1285 C 0.19840 0.93429 0.97296
 C1286 C 0.21679 0.91953 0.98801
 C1287 C 0.23712 0.90426 0.97520
 C1288 C 0.23775 0.90347 0.94672
 O1289 O 0.21732 0.91869 0.90586
 C1290 C 0.19703 0.93496 0.90185
 C1291 C 0.18599 0.94453 0.92521
 C1292 C 0.16474 0.96226 0.92541
 C1293 C 0.15443 0.97024 0.90056
 C1294 C 0.16521 0.96012 0.87631
 C1295 C 0.18685 0.94228 0.87705
 H1296 H 0.18332 0.94627 0.98273
 H1297 H 0.21556 0.92118 1.00948
 H1298 H 0.25175 0.89135 0.93568
 H1299 H 0.15640 0.96965 0.94400
 H1300 H 0.13772 0.98382 0.90017
 H1301 H 0.19554 0.93437 0.85883
 C1302 C 0.72130 0.44388 0.39928
 C1303 C 0.70813 0.46479 0.41067
 C1304 C 0.70686 0.46845 0.43821
 C1305 C 0.71956 0.44972 0.45468
 C1306 C 0.73310 0.42785 0.44343
 C1307 C 0.73411 0.42511 0.41524
 O1308 O 0.71900 0.44323 0.37288
 C1309 C 0.70399 0.46418 0.36745
 C1310 C 0.69681 0.47804 0.38989
 C1311 C 0.67985 0.49976 0.38901
 C1312 C 0.66955 0.50721 0.36408
 C1313 C 0.67639 0.49302 0.34071
 C1314 C 0.69427 0.47147 0.34238
 H1315 H 0.69616 0.48494 0.44674
 H1316 H 0.71882 0.45226 0.47615
 H1317 H 0.74365 0.40833 0.40602
 H1318 H 0.67421 0.51017 0.40697
 H1319 H 0.65587 0.52375 0.36300
 H1320 H 0.69933 0.45995 0.32498
 C1321 C 0.77357 0.43975 0.56678
 C1322 C 0.75092 0.43916 0.58259
 C1323 C 0.72799 0.42725 0.57452
 C1324 C 0.72869 0.41513 0.54942
 C1325 C 0.75217 0.41494 0.53330
 C1326 C 0.77467 0.42795 0.54200
 O1327 O 0.79360 0.45096 0.57824
 C1328 C 0.78354 0.45754 0.60193
 C1329 C 0.75752 0.45078 0.60576
 C1330 C 0.74380 0.45474 0.62992
 C1331 C 0.75752 0.46598 0.65085
 C1332 C 0.78440 0.47305 0.64720
 C1333 C 0.79738 0.46882 0.62223
 H1334 H 0.71042 0.42677 0.58732
 H1335 H 0.71139 0.40505 0.54308
 H1336 H 0.79286 0.42829 0.53010
 H1337 H 0.72343 0.44901 0.63271
 H1338 H 0.74731 0.46909 0.66987
 H1339 H 0.81806 0.47324 0.61897
 C1340 C 0.29453 -0.07284 0.09339
 C1341 C 0.27120 -0.06002 0.09962
 C1342 C 0.24851 -0.06304 0.08507
 C1343 C 0.24998 -0.07970 0.06305
 C1344 C 0.27406 -0.09302 0.05553
 C1345 C 0.29652 -0.08943 0.07163
 O1346 O 0.31388 -0.06741 0.10969
 C1347 C 0.30253 -0.05062 0.12651
 C1348 C 0.27641 -0.04538 0.12125
 C1349 C 0.26093 -0.02804 0.13630
 C1350 C 0.27290 -0.01561 0.15759
 C1351 C 0.29988 -0.02073 0.16348
 C1352 C 0.31475 -0.03866 0.14759
 H1353 H 0.23030 -0.05270 0.09032
 H1354 H 0.23226 -0.08102 0.05177
 H1355 H 0.31519 -0.09951 0.06809
 H1356 H 0.24044 -0.02406 0.13171
 H1357 H 0.26123 -0.00174 0.16918
 H1358 H 0.33522 -0.04342 0.15163
 C1359 C 0.28037 0.08592 0.44226
 C1360 C 0.25750 0.07736 0.43137
 C1361 C 0.23280 0.08114 0.44361
 C1362 C 0.23162 0.09437 0.46797
 C1363 C 0.25498 0.10328 0.47982
 C1364 C 0.27973 0.09871 0.46666
 O1365 O 0.30166 0.08158 0.42685
 C1366 C 0.29202 0.07004 0.40576
 C1367 C 0.26513 0.06683 0.40755
 C1368 C 0.25098 0.05568 0.38731
 C1369 C 0.26512 0.04779 0.36417
 C1370 C 0.29279 0.05147 0.36163
 C1371 C 0.30639 0.06253 0.38294
 H1372 H 0.21499 0.07471 0.43441
 H1373 H 0.21234 0.09831 0.47697
 H1374 H 0.29800 0.10511 0.47493
 H1375 H 0.22978 0.05347 0.38909
 H1376 H 0.25445 0.03956 0.34794
 H1377 H 0.32750 0.06550 0.38165
 C1378 C 0.79754 0.59582 0.91323
 C1379 C 0.77716 0.57872 0.91105
 C1380 C 0.75575 0.57822 0.92907
 C1381 C 0.75524 0.59630 0.94991
 C1382 C 0.77568 0.61476 0.95206
 C1383 C 0.79723 0.61416 0.93338
 O1384 O 0.81593 0.59348 0.89403
 C1385 C 0.80690 0.57459 0.87925
 C1386 C 0.78318 0.56494 0.88860
 C1387 C 0.76974 0.54592 0.87521
 C1388 C 0.78119 0.53662 0.85119
 C1389 C 0.80586 0.54616 0.84120
 C1390 C 0.81889 0.56524 0.85591
 H1391 H 0.73997 0.56447 0.92712
 H1392 H 0.73888 0.59576 0.96425
 H1393 H 0.81297 0.62813 0.93370
 H1394 H 0.75085 0.53889 0.88266
 H1395 H 0.77047 0.52248 0.84016
 H1396 H 0.83788 0.57281 0.84951
 C1397 C 0.09553 0.72252 0.57683
 C1398 C 0.08819 0.71287 0.55275
 C1399 C 0.06220 0.71362 0.54450
 C1400 C 0.04294 0.72454 0.56188
 C1401 C 0.04979 0.73451 0.58721
 C1402 C 0.07685 0.73367 0.59431
 O1403 O 0.12105 0.71887 0.58151
 C1404 C 0.13002 0.70665 0.55986
 C1405 C 0.11074 0.70259 0.54157
 C1406 C 0.11568 0.68933 0.51790
 C1407 C 0.14147 0.67963 0.51305
 C1408 C 0.16167 0.68321 0.53182
 C1409 C 0.15577 0.69724 0.55544
 H1410 H 0.05686 0.70592 0.52540
 H1411 H 0.02293 0.72575 0.55489
 H1412 H 0.08340 0.74001 0.61350
 H1413 H 0.10012 0.68611 0.50393
 H1414 H 0.14544 0.66856 0.49511
 H1415 H 0.17064 0.70039 0.57016
 C1416 C 0.58278 0.21558 1.08786
 C1417 C 0.57736 0.18961 1.09235
 C1418 C 0.55406 0.18132 1.10485
 C1419 C 0.53581 0.20060 1.11348
 C1420 C 0.54110 0.22765 1.10962
 C1421 C 0.56487 0.23502 1.09603
 O1422 O 0.60627 0.21942 1.07619
 C1423 C 0.61593 0.19531 1.07330
 C1424 C 0.59903 0.17634 1.08284
 C1425 C 0.60543 0.14980 1.08221
 C1426 C 0.63024 0.14252 1.07126
 C1427 C 0.64815 0.16173 1.06135
 C1428 C 0.64070 0.18854 1.06240
 H1429 H 0.55024 0.16074 1.10824
 H1430 H 0.51803 0.19421 1.12373
 H1431 H 0.56960 0.25529 1.09200
 H1432 H 0.59180 0.13521 1.08983
 H1433 H 0.63533 0.12190 1.07020
 H1434 H 0.65392 0.20373 1.05532
 C1435 C 0.89356 0.23463 0.91294
 C1436 C 0.90049 0.23315 0.93941
 C1437 C 0.92542 0.23980 0.94791
 C1438 C 0.94398 0.24810 0.92826
 C1439 C 0.93714 0.24992 0.90093
 C1440 C 0.91147 0.24334 0.89323
 O1441 O 0.86970 0.22552 0.90874
 C1442 C 0.86132 0.21814 0.93308
 C1443 C 0.87932 0.22256 0.95261
 C1444 C 0.87500 0.21522 0.97933
 C1445 C 0.85135 0.20250 0.98611
 C1446 C 0.83277 0.19712 0.96619
 C1447 C 0.83778 0.20542 0.93934
 H1448 H 0.93063 0.23797 0.96877
 H1449 H 0.96371 0.25285 0.93423
 H1450 H 0.90606 0.24373 0.87237
 H1451 H 0.88957 0.21860 0.99430
 H1452 H 0.84804 0.19588 1.00665
 H1453 H 0.82410 0.20146 0.92367
 C1454 C 0.41296 0.73762 0.42568
 C1455 C 0.42128 0.73538 0.45170
 C1456 C 0.44558 0.74442 0.45957
 C1457 C 0.46202 0.75601 0.43977
 C1458 C 0.45370 0.75871 0.41294
 C1459 C 0.42872 0.74962 0.40585
 O1460 O 0.39002 0.72629 0.42199
 C1461 C 0.38368 0.71675 0.44619
 C1462 C 0.40201 0.72193 0.46515
 C1463 C 0.39949 0.71318 0.49168
 C1464 C 0.37725 0.69836 0.49890
 C1465 C 0.35837 0.69230 0.47954
 C1466 C 0.36163 0.70182 0.45285
 H1467 H 0.45192 0.74204 0.48004
 H1468 H 0.48131 0.76267 0.44520
 H1469 H 0.42231 0.75079 0.38531
 H1470 H 0.41426 0.71736 0.50622
 H1471 H 0.37508 0.69098 0.51933
 H1472 H 0.34753 0.69751 0.43767
 C1473 C 0.57660 0.80295 0.42679
 C1474 C 0.58901 0.77943 0.43273
 C1475 C 0.57948 0.75562 0.42475
 C1476 C 0.55621 0.75605 0.41003
 C1477 C 0.54287 0.78005 0.40372
 C1478 C 0.55333 0.80384 0.41238
 O1479 O 0.58947 0.82341 0.43532
 C1480 C 0.61047 0.81255 0.44687
 C1481 C 0.61111 0.78569 0.44588
 C1482 C 0.63176 0.77044 0.45605
 C1483 C 0.65277 0.78344 0.46741
 C1484 C 0.65282 0.81119 0.46830
 C1485 C 0.63110 0.82586 0.45810
 H1486 H 0.58984 0.73738 0.42927
 H1487 H 0.54912 0.73768 0.40300
 H1488 H 0.54374 0.82251 0.40801
 H1489 H 0.63186 0.74932 0.45497
 H1490 H 0.66907 0.77188 0.47535
 H1491 H 0.63073 0.84705 0.45795
 C1492 C 0.06700 0.28306 -0.09165
 C1493 C 0.07661 0.25904 -0.08304
 C1494 C 0.06424 0.23577 -0.08821
 C1495 C 0.04088 0.23730 -0.10269
 C1496 C 0.03012 0.26185 -0.11144
 C1497 C 0.04363 0.28507 -0.10599
 O1498 O 0.08191 0.30273 -0.08462
 C1499 C 0.10128 0.29082 -0.07124
 C1500 C 0.09890 0.26410 -0.06968
 C1501 C 0.11676 0.24781 -0.05630
 C1502 C 0.13801 0.25952 -0.04402
 C1503 C 0.14120 0.28709 -0.04546
 C1504 C 0.12239 0.30288 -0.05938
 H1505 H 0.07236 0.21708 -0.08146
 H1506 H 0.03146 0.21920 -0.10734
 H1507 H 0.03600 0.30410 -0.11231
 H1508 H 0.11429 0.22683 -0.05514
 H1509 H 0.15172 0.24708 -0.03304
 H1510 H 0.12423 0.32391 -0.06119
 C1511 C 0.41033 0.27738 0.08491
 C1512 C 0.40855 0.25656 0.06813
 C1513 C 0.42901 0.23813 0.06496
 C1514 C 0.45208 0.24142 0.07966
 C1515 C 0.45426 0.26294 0.09690
 C1516 C 0.43288 0.28100 0.09955
 O1517 O 0.38900 0.29277 0.08530
 C1518 C 0.37330 0.28152 0.06838
 C1519 C 0.38416 0.25930 0.05721
 C1520 C 0.37079 0.24483 0.03869
 C1521 C 0.34534 0.25371 0.03147
 C1522 C 0.33383 0.27658 0.04291
 C1523 C 0.34826 0.29059 0.06157
 H1524 H 0.42729 0.22186 0.05167
 H1525 H 0.46830 0.22746 0.07735
 H1526 H 0.43347 0.29728 0.11298
 H1527 H 0.37965 0.22741 0.03005
 H1528 H 0.33457 0.24274 0.01716
 H1529 H 0.34048 0.30847 0.07023
 C1530 C 0.92420 0.78960 0.57515
 C1531 C 0.91991 0.77252 0.55502
 C1532 C 0.93748 0.75224 0.54889
 C1533 C 0.96011 0.74909 0.56449
 C1534 C 0.96475 0.76580 0.58644
 C1535 C 0.94627 0.78674 0.59110
 O1536 O 0.90517 0.80763 0.57787
 C1537 C 0.88839 0.80169 0.55907
 C1538 C 0.89637 0.78028 0.54459
 C1539 C 0.88126 0.77029 0.52446
 C1540 C 0.85708 0.78305 0.51894
 C1541 C 0.84860 0.80560 0.53325
 C1542 C 0.86471 0.81489 0.55368
 H1543 H 0.93393 0.73924 0.53260
 H1544 H 0.97367 0.73362 0.55870
 H1545 H 0.94776 0.80012 0.60734
 H1546 H 0.88773 0.75316 0.51357
 H1547 H 0.84494 0.77515 0.50366
 H1548 H 0.85933 0.83217 0.56484
   
