data_POSCAR
  _audit_creation_date              2014-09-24
  _audit_creation_method            'ToBaCCo'
  _symmetry_space_group_name_H-M    'P1'
  _symmetry_Int_Tables_number       1
  _symmetry_cell_setting            triclinic
  loop_
  _symmetry_equiv_pos_as_xyz
 x,y,z
_cell_length_a 65.7279
_cell_length_b 65.8055
_cell_length_c 66.1415
_cell_angle_alpha 89.982100
_cell_angle_beta 90.021100
_cell_angle_gamma 90.048100
loop_
  _atom_site_label
  _atom_site_type_symbol
  _atom_site_fract_x
  _atom_site_fract_y
  _atom_site_fract_z
N1 N 0.17387 0.22333 0.22722
 N2 N 0.17918 0.20704 0.23742
 C3 C 0.16623 0.20450 0.25299
 C4 C 0.15197 0.22001 0.25253
 C5 C 0.15737 0.23167 0.23591
 H6 H 0.16704 0.19217 0.26375
 H7 H 0.14998 0.24531 0.23057
 Cu8 Cu 0.20250 0.19073 0.22934
 Cu9 Cu 0.18872 0.23255 0.20346
 Cu10 Cu 0.23089 0.20439 0.18925
 N11 N 0.22651 0.17539 0.22143
 N12 N 0.23751 0.18080 0.20574
 C13 C 0.25307 0.16770 0.20361
 C14 C 0.25185 0.15325 0.21881
 C15 C 0.23476 0.15867 0.22984
 H16 H 0.26451 0.16878 0.19192
 H17 H 0.22867 0.15095 0.24293
 N18 N 0.22175 0.22875 0.17448
 N19 N 0.20568 0.23944 0.17987
 C20 C 0.20334 0.25500 0.16684
 C21 C 0.21869 0.25411 0.15252
 C22 C 0.23006 0.23723 0.15790
 H23 H 0.19141 0.26623 0.16782
 H24 H 0.24332 0.23142 0.15019
 H25 H 0.20002 0.20446 0.19516
 H26 H 0.21640 0.22034 0.21200
 N27 N 0.67504 0.72523 0.72757
 N28 N 0.68080 0.70935 0.73815
 C29 C 0.66780 0.70671 0.75368
 C30 C 0.65309 0.72178 0.75282
 C31 C 0.65824 0.73325 0.73600
 H32 H 0.66906 0.69479 0.76484
 H33 H 0.65029 0.74637 0.73016
 Cu34 Cu 0.70468 0.69363 0.73063
 Cu35 Cu 0.68968 0.73429 0.70362
 Cu36 Cu 0.73179 0.70608 0.68929
 N37 N 0.72803 0.67765 0.72204
 N38 N 0.73857 0.68262 0.70590
 C39 C 0.75379 0.66918 0.70341
 C40 C 0.75278 0.65493 0.71882
 C41 C 0.73618 0.66084 0.73034
 H42 H 0.76465 0.66971 0.69117
 H43 H 0.73053 0.65354 0.74386
 N44 N 0.72251 0.73033 0.67442
 N45 N 0.70646 0.74104 0.67986
 C46 C 0.70406 0.75654 0.66678
 C47 C 0.71934 0.75560 0.65238
 C48 C 0.73074 0.73875 0.65776
 H49 H 0.69215 0.76780 0.66779
 H50 H 0.74398 0.73292 0.65004
 H51 H 0.70108 0.70600 0.69607
 H52 H 0.71773 0.72273 0.71178
 N53 N 0.32536 0.77681 0.72715
 N54 N 0.32014 0.79318 0.73723
 C55 C 0.33309 0.79575 0.75281
 C56 C 0.34724 0.78013 0.75249
 C57 C 0.34179 0.76841 0.73594
 H58 H 0.33217 0.80797 0.76366
 H59 H 0.34928 0.75485 0.73053
 Cu60 Cu 0.29688 0.80954 0.72908
 Cu61 Cu 0.31054 0.76759 0.70337
 Cu62 Cu 0.26846 0.79583 0.68901
 N63 N 0.27288 0.82490 0.72110
 N64 N 0.26186 0.81946 0.70545
 C65 C 0.24629 0.83254 0.70328
 C66 C 0.24749 0.84711 0.71845
 C67 C 0.26467 0.84164 0.72947
 H68 H 0.23499 0.83138 0.69148
 H69 H 0.27081 0.84919 0.74261
 N70 N 0.27757 0.77144 0.67430
 N71 N 0.29361 0.76071 0.67975
 C72 C 0.29593 0.74514 0.66676
 C73 C 0.28061 0.74604 0.65240
 C74 C 0.26927 0.76295 0.65771
 H75 H 0.30783 0.73387 0.66779
 H76 H 0.25603 0.76879 0.64997
 H77 H 0.29933 0.79568 0.69496
 H78 H 0.28290 0.77992 0.71185
 N79 N 0.82600 0.27670 0.22702
 N80 N 0.82074 0.29303 0.23713
 C81 C 0.83365 0.29558 0.25274
 C82 C 0.84791 0.27997 0.25245
 C83 C 0.84243 0.26829 0.23580
 H84 H 0.83265 0.30790 0.26345
 H85 H 0.84974 0.25467 0.23034
 Cu86 Cu 0.79749 0.30940 0.22896
 Cu87 Cu 0.81118 0.26749 0.20322
 Cu88 Cu 0.76912 0.29574 0.18883
 N89 N 0.77350 0.32475 0.22097
 N90 N 0.76252 0.31935 0.20527
 C91 C 0.74696 0.33245 0.20310
 C92 C 0.74818 0.34691 0.21830
 C93 C 0.76526 0.34147 0.22936
 H94 H 0.73553 0.33138 0.19141
 H95 H 0.77133 0.34918 0.24245
 N96 N 0.77824 0.27136 0.17413
 N97 N 0.79427 0.26062 0.17959
 C98 C 0.79659 0.24504 0.16659
 C99 C 0.78127 0.24596 0.15222
 C100 C 0.76994 0.26287 0.15753
 H101 H 0.80848 0.23377 0.16763
 H102 H 0.75671 0.26872 0.14978
 H103 H 0.79998 0.29559 0.19482
 H104 H 0.78352 0.27980 0.21167
 N105 N 0.82599 0.72372 0.27352
 N106 N 0.82072 0.70734 0.26344
 C107 C 0.83367 0.70475 0.24788
 C108 C 0.84788 0.72033 0.24821
 C109 C 0.84247 0.73208 0.26475
 H110 H 0.83287 0.69235 0.23721
 H111 H 0.84982 0.74579 0.26999
 Cu112 Cu 0.79744 0.69099 0.27160
 Cu113 Cu 0.81111 0.73303 0.29721
 Cu114 Cu 0.76897 0.70482 0.31156
 N115 N 0.77343 0.67565 0.27958
 N116 N 0.76240 0.68111 0.29521
 C117 C 0.74683 0.66799 0.29738
 C118 C 0.74810 0.65347 0.28226
 C119 C 0.76522 0.65887 0.27124
 H120 H 0.73536 0.66911 0.30902
 H121 H 0.77134 0.65111 0.25821
 N122 N 0.77805 0.72929 0.32618
 N123 N 0.79411 0.74000 0.32074
 C124 C 0.79641 0.75564 0.33367
 C125 C 0.78105 0.75478 0.34799
 C126 C 0.76971 0.73783 0.34271
 H127 H 0.80832 0.76691 0.33264
 H128 H 0.75646 0.73201 0.35044
 H129 H 0.79985 0.70497 0.30569
 H130 H 0.78346 0.72066 0.28870
 N131 N 0.32523 0.22409 -0.22746
 N132 N 0.31970 0.20804 -0.23789
 C133 C 0.33266 0.20552 -0.25345
 C134 C 0.34722 0.22086 -0.25281
 C135 C 0.34188 0.23234 -0.23599
 H136 H 0.33150 0.19338 -0.26437
 H137 H 0.34944 0.24572 -0.23023
 Cu138 Cu 0.29608 0.19201 -0.23006
 Cu139 Cu 0.31049 0.23314 -0.20355
 Cu140 Cu 0.26835 0.20481 -0.18932
 N141 N 0.27239 0.17624 -0.22192
 N142 N 0.26166 0.18132 -0.20596
 C143 C 0.24629 0.16800 -0.20367
 C144 C 0.24737 0.15373 -0.21904
 C145 C 0.26418 0.15949 -0.23034
 H146 H 0.23508 0.16880 -0.19175
 H147 H 0.27011 0.15198 -0.24360
 N148 N 0.27757 0.22908 -0.17445
 N149 N 0.29362 0.23984 -0.17984
 C150 C 0.29599 0.25533 -0.16675
 C151 C 0.28068 0.25433 -0.15238
 C152 C 0.26930 0.23746 -0.15780
 H153 H 0.30790 0.26661 -0.16772
 H154 H 0.25606 0.23159 -0.15009
 H155 H 0.29914 0.20494 -0.19565
 H156 H 0.28260 0.22127 -0.21186
 N157 N 0.67359 0.27660 -0.22674
 N158 N 0.67882 0.29297 -0.23684
 C159 C 0.66582 0.29556 -0.25237
 C160 C 0.65155 0.27994 -0.25205
 C161 C 0.65710 0.26822 -0.23546
 H162 H 0.66678 0.30793 -0.26306
 H163 H 0.64980 0.25457 -0.22999
 Cu164 Cu 0.70212 0.30933 -0.22874
 Cu165 Cu 0.68851 0.26735 -0.20304
 Cu166 Cu 0.73065 0.29561 -0.18876
 N167 N 0.72613 0.32472 -0.22081
 N168 N 0.73718 0.31929 -0.20517
 C169 C 0.75273 0.33243 -0.20302
 C170 C 0.75144 0.34693 -0.21817
 C171 C 0.73432 0.34149 -0.22918
 H172 H 0.76421 0.33135 -0.19137
 H173 H 0.72818 0.34924 -0.24222
 N174 N 0.72159 0.27116 -0.17408
 N175 N 0.70554 0.26043 -0.17949
 C176 C 0.70325 0.24482 -0.16651
 C177 C 0.71862 0.24572 -0.15219
 C178 C 0.72995 0.26266 -0.15753
 H179 H 0.69134 0.23355 -0.16750
 H180 H 0.74321 0.26851 -0.14981
 H181 H 0.69976 0.29543 -0.19462
 H182 H 0.71614 0.27971 -0.21156
 N183 N 0.17453 0.77677 0.27302
 N184 N 0.17981 0.79312 0.26289
 C185 C 0.16688 0.79565 0.24729
 C186 C 0.15267 0.78007 0.24765
 C187 C 0.15807 0.76838 0.26425
 H188 H 0.16768 0.80802 0.23657
 H189 H 0.15071 0.75468 0.26952
 Cu190 Cu 0.20305 0.80952 0.27109
 Cu191 Cu 0.18933 0.76755 0.29679
 Cu192 Cu 0.23141 0.79583 0.31119
 N193 N 0.22702 0.82492 0.27911
 N194 N 0.23802 0.81949 0.29478
 C195 C 0.25358 0.83260 0.29697
 C196 C 0.25239 0.84719 0.28180
 C197 C 0.23524 0.84169 0.27076
 H198 H 0.26486 0.83146 0.30879
 H199 H 0.22911 0.84924 0.25761
 N200 N 0.22229 0.77141 0.32587
 N201 N 0.20625 0.76066 0.32041
 C202 C 0.20391 0.74508 0.33340
 C203 C 0.21922 0.74599 0.34778
 C204 C 0.23057 0.76292 0.34248
 H205 H 0.19200 0.73380 0.33236
 H206 H 0.24380 0.76877 0.35024
 H207 H 0.20055 0.79565 0.30521
 H208 H 0.21700 0.77991 0.28835
 N209 N 0.47442 0.42539 0.47841
 N210 N 0.45861 0.43123 0.48905
 C211 C 0.45601 0.41831 0.50464
 C212 C 0.47104 0.40356 0.50376
 C213 C 0.48244 0.40861 0.48686
 H214 H 0.44415 0.41964 0.51585
 H215 H 0.49551 0.40061 0.48097
 Cu216 Cu 0.44290 0.45512 0.48151
 Cu217 Cu 0.48340 0.43990 0.45435
 Cu218 Cu 0.45521 0.48198 0.43998
 N219 N 0.42693 0.47845 0.47289
 N220 N 0.43184 0.48889 0.45668
 C221 C 0.41841 0.50411 0.45417
 C222 C 0.40422 0.50321 0.46965
 C223 C 0.41016 0.48667 0.48123
 H224 H 0.41889 0.51490 0.44187
 H225 H 0.40291 0.48110 0.49480
 N226 N 0.47936 0.47259 0.42504
 N227 N 0.49008 0.45655 0.43049
 C228 C 0.50552 0.45406 0.41735
 C229 C 0.50454 0.46927 0.40290
 C230 C 0.48773 0.48072 0.40831
 H231 H 0.51677 0.44215 0.41837
 H232 H 0.48189 0.49394 0.40055
 H233 H 0.47197 0.46798 0.46246
 H234 H 0.45507 0.45133 0.44691
 N235 N -0.02657 -0.07599 0.97693
 N236 N -0.04286 -0.07066 0.98711
 C237 C -0.04542 -0.08358 1.00270
 C238 C -0.02991 -0.09785 1.00226
 C239 C -0.01824 -0.09249 0.98564
 H240 H -0.05775 -0.08275 1.01346
 H241 H -0.00459 -0.09989 0.98031
 Cu242 Cu -0.05915 -0.04735 0.97902
 Cu243 Cu -0.01732 -0.06118 0.95316
 Cu244 Cu -0.04545 -0.01902 0.93890
 N245 N -0.07448 -0.02334 0.97108
 N246 N -0.06906 -0.01238 0.95538
 C247 C -0.08215 0.00319 0.95323
 C248 C -0.09661 0.00199 0.96843
 C249 C -0.09120 -0.01508 0.97948
 H250 H -0.08106 0.01460 0.94153
 H251 H -0.09893 -0.02115 0.99257
 N252 N -0.02109 -0.02818 0.92416
 N253 N -0.01040 -0.04425 0.92956
 C254 C 0.00516 -0.04661 0.91653
 C255 C 0.00429 -0.03127 0.90220
 C256 C -0.01259 -0.01989 0.90757
 H257 H 0.01639 -0.05854 0.91752
 H258 H -0.01840 -0.00664 0.89985
 H259 H -0.02950 -0.03351 0.96167
 H260 H -0.04542 -0.04985 0.94484
 N261 N 1.02633 0.57580 0.97696
 N262 N 1.04263 0.57046 0.98714
 C263 C 1.04518 0.58334 1.00275
 C264 C 1.02965 0.59759 1.00235
 C265 C 1.01798 0.59226 0.98571
 H266 H 1.05753 0.58250 1.01351
 H267 H 1.00432 0.59966 0.98039
 Cu268 Cu 1.05895 0.54719 0.97901
 Cu269 Cu 1.01709 0.56104 0.95316
 Cu270 Cu 1.04525 0.51893 0.93885
 N271 N 1.07428 0.52320 0.97104
 N272 N 1.06887 0.51226 0.95532
 C273 C 1.08196 0.49670 0.95316
 C274 C 1.09642 0.49787 0.96838
 C275 C 1.09101 0.51493 0.97944
 H276 H 1.08087 0.48531 0.94146
 H277 H 1.09874 0.52097 0.99255
 N278 N 1.02088 0.52812 0.92410
 N279 N 1.01018 0.54416 0.92953
 C280 C 0.99461 0.54654 0.91650
 C281 C 0.99549 0.53124 0.90214
 C282 C 1.01238 0.51986 0.90749
 H283 H 0.98337 0.55845 0.91751
 H284 H 1.01820 0.50663 0.89976
 H285 H 1.02930 0.53336 0.96164
 H286 H 1.04520 0.54975 0.94483
 N287 N 0.52547 0.07592 0.47830
 N288 N 0.54140 0.07021 0.48887
 C289 C 0.54404 0.08319 0.50439
 C290 C 0.52892 0.09786 0.50354
 C291 C 0.51742 0.09269 0.48673
 H292 H 0.55596 0.08192 0.51556
 H293 H 0.50418 0.10050 0.48098
 Cu294 Cu 0.55719 0.04650 0.48106
 Cu295 Cu 0.51595 0.06092 0.45471
 Cu296 Cu 0.54032 0.01527 0.44465
 N297 N 0.57235 0.02233 0.47338
 N298 N 0.56570 0.01024 0.45902
 C299 C 0.57879 -0.00530 0.45675
 C300 C 0.59460 -0.00286 0.47043
 C301 C 0.58994 0.01489 0.48072
 H302 H 0.57676 -0.01753 0.44604
 H303 H 0.59873 0.02195 0.49261
 N304 N 0.51763 0.02573 0.42817
 N305 N 0.50859 0.04324 0.43178
 C306 C 0.49403 0.04625 0.41778
 C307 C 0.49389 0.02986 0.40462
 C308 C 0.50913 0.01718 0.41171
 H309 H 0.48433 0.05947 0.41717
 H310 H 0.51371 0.00274 0.40542
 H311 H 0.52581 0.03378 0.46589
 H312 H 0.54302 0.04635 0.44718
 N313 N -0.02357 0.07237 0.51960
 N314 N -0.03706 0.06473 0.50707
 C315 C -0.03979 0.07769 0.49156
 C316 C -0.02726 0.09441 0.49445
 C317 C -0.01720 0.09043 0.51247
 H318 H -0.05001 0.07498 0.47904
 H319 H -0.00599 0.09988 0.51986
 Cu320 Cu -0.04982 0.03863 0.51214
 Cu321 Cu -0.01458 0.05791 0.54370
 Cu322 Cu -0.03716 0.01115 0.55294
 N323 N -0.06727 0.01702 0.52215
 N324 N -0.06228 0.00629 0.53813
 C325 C -0.07661 -0.00793 0.54141
 C326 C -0.09155 -0.00600 0.52671
 C327 C -0.08504 0.01007 0.51474
 H328 H -0.07598 -0.01899 0.55348
 H329 H -0.09258 0.01630 0.50160
 N330 N -0.01582 0.02276 0.57034
 N331 N -0.00749 0.04070 0.56708
 C332 C 0.00644 0.04432 0.58158
 C333 C 0.00689 0.02788 0.59468
 C334 C -0.00750 0.01452 0.58704
 H335 H 0.01560 0.05792 0.58247
 H336 H -0.01154 -0.00021 0.59304
 H337 H -0.02035 0.02936 0.53315
 H338 H -0.04130 0.04153 0.54776
 N339 N 0.47453 0.57484 0.02203
 N340 N 0.45869 0.56902 0.01139
 C341 C 0.45610 0.58196 -0.00418
 C342 C 0.47116 0.59670 -0.00330
 C343 C 0.48257 0.59163 0.01359
 H344 H 0.44421 0.58064 -0.01539
 H345 H 0.49566 0.59963 0.01948
 Cu346 Cu 0.44295 0.54512 0.01891
 Cu347 Cu 0.48352 0.56031 0.04607
 Cu348 Cu 0.45528 0.51821 0.06041
 N349 N 0.42696 0.52177 0.02752
 N350 N 0.43188 0.51131 0.04371
 C351 C 0.41845 0.49607 0.04620
 C352 C 0.40424 0.49698 0.03074
 C353 C 0.41017 0.51354 0.01917
 H354 H 0.41895 0.48527 0.05849
 H355 H 0.40291 0.51911 0.00561
 N356 N 0.47947 0.52760 0.07534
 N357 N 0.49020 0.54364 0.06991
 C358 C 0.50566 0.54612 0.08305
 C359 C 0.50467 0.53089 0.09749
 C360 C 0.48783 0.51944 0.09207
 H361 H 0.51692 0.55804 0.08205
 H362 H 0.48198 0.50622 0.09981
 H363 H 0.47203 0.53224 0.03793
 H364 H 0.45518 0.54887 0.05351
 N365 N 0.52635 -0.07601 0.02345
 N366 N 0.54268 -0.07069 0.01329
 C367 C 0.54522 -0.08360 -0.00229
 C368 C 0.52967 -0.09784 -0.00189
 C369 C 0.51799 -0.09248 0.01472
 H370 H 0.55758 -0.08277 -0.01303
 H371 H 0.50431 -0.09987 0.02002
 Cu372 Cu 0.55903 -0.04741 0.02141
 Cu373 Cu 0.51712 -0.06119 0.04721
 Cu374 Cu 0.54536 -0.01907 0.06148
 N375 N 0.57442 -0.02342 0.02935
 N376 N 0.56901 -0.01245 0.04504
 C377 C 0.58214 0.00311 0.04719
 C378 C 0.59662 0.00190 0.03201
 C379 C 0.59117 -0.01518 0.02097
 H380 H 0.58106 0.01453 0.05888
 H381 H 0.59890 -0.02125 0.00789
 N382 N 0.52095 -0.02820 0.07620
 N383 N 0.51022 -0.04425 0.07080
 C384 C 0.49463 -0.04658 0.08380
 C385 C 0.49554 -0.03125 0.09813
 C386 C 0.51246 -0.01989 0.09277
 H387 H 0.48336 -0.05849 0.08281
 H388 H 0.51830 -0.00665 0.10049
 H389 H 0.52939 -0.03354 0.03870
 H390 H 0.54524 -0.04990 0.05556
 N391 N 1.02503 0.42506 0.52202
 N392 N 1.04088 0.43085 0.51138
 C393 C 1.04347 0.41786 0.49586
 C394 C 1.02841 0.40313 0.49677
 C395 C 1.01699 0.40825 0.51363
 H396 H 1.05536 0.41915 0.48466
 H397 H 1.00389 0.40028 0.51952
 Cu398 Cu 1.05662 0.45476 0.51885
 Cu399 Cu 1.01603 0.43966 0.54599
 Cu400 Cu 1.04426 0.48180 0.56022
 N401 N 1.07261 0.47814 0.52739
 N402 N 1.06767 0.48865 0.54354
 C403 C 1.08110 0.50389 0.54600
 C404 C 1.09533 0.50294 0.53056
 C405 C 1.08940 0.48634 0.51905
 H406 H 1.08060 0.51473 0.55826
 H407 H 1.09668 0.48073 0.50552
 N408 N 1.02006 0.47246 0.57516
 N409 N 1.00933 0.45640 0.56977
 C410 C 0.99386 0.45396 0.58289
 C411 C 0.99484 0.46923 0.59728
 C412 C 1.01168 0.48067 0.59184
 H413 H 0.98260 0.44204 0.58191
 H414 H 1.01753 0.49391 0.59955
 H415 H 1.02752 0.46770 0.53778
 H416 H 1.04436 0.45112 0.55344
 C417 C 0.40462 0.00930 0.22321
 H418 H 0.40548 0.02313 0.23202
 C419 C 0.41786 0.00635 0.20696
 H420 H 0.42892 0.01795 0.20316
 C421 C 0.38937 -0.02288 0.21752
 H422 H 0.37849 -0.03437 0.22186
 C423 C 0.40233 -0.02644 0.20117
 H424 H 0.40124 -0.04058 0.19285
 N425 N 0.39058 -0.00512 0.22802
 C426 C 0.34249 0.02743 0.25992
 H427 H 0.34168 0.01858 0.27368
 C428 C 0.32925 0.04375 0.25698
 H429 H 0.31822 0.04757 0.26854
 C430 C 0.35764 0.03311 0.22786
 H431 H 0.36848 0.02874 0.21640
 C432 C 0.34467 0.04954 0.22432
 H433 H 0.34571 0.05789 0.21023
 Zn434 Zn 0.37353 -0.00007 0.25053
 N435 N 0.35649 0.02258 0.24554
 C436 C 0.38953 0.02262 0.28359
 N437 N 0.39066 0.00489 0.27303
 C438 C 0.40464 -0.00959 0.27780
 C439 C 0.41787 -0.00675 0.29408
 C440 C 0.40248 0.02606 0.29999
 C441 C 0.34235 -0.02747 0.24118
 C442 C 0.32907 -0.04379 0.24411
 C443 C 0.34456 -0.04965 0.27674
 C444 C 0.35755 -0.03322 0.27321
 N445 N 0.35639 -0.02266 0.25554
 H446 H 0.37869 0.03415 0.27929
 H447 H 0.40543 -0.02338 0.26894
 H448 H 0.42885 -0.01841 0.29786
 H449 H 0.40144 0.04015 0.30838
 H450 H 0.34153 -0.01861 0.22743
 H451 H 0.31802 -0.04759 0.23256
 H452 H 0.34561 -0.05803 0.29080
 H453 H 0.36843 -0.02888 0.28465
 C454 C 0.33039 0.05492 0.23904
 C455 C 0.41665 -0.01167 0.19582
 C456 C 0.33024 -0.05500 0.26203
 C457 C 0.41672 0.01121 0.30531
 C458 C 0.09524 -0.01000 0.72249
 H459 H 0.09444 -0.02377 0.73140
 C460 C 0.08202 -0.00724 0.70618
 H461 H 0.07105 -0.01893 0.70243
 C462 C 0.11035 0.02221 0.71659
 H463 H 0.12118 0.03378 0.72086
 C464 C 0.09741 0.02558 0.70017
 H465 H 0.09847 0.03964 0.69171
 N466 N 0.10921 0.00452 0.72721
 C467 C 0.15751 -0.02774 0.75914
 H468 H 0.15832 -0.01887 0.77289
 C469 C 0.17078 -0.04404 0.75623
 H470 H 0.18183 -0.04782 0.76779
 C471 C 0.14233 -0.03350 0.72710
 H472 H 0.13146 -0.02918 0.71564
 C473 C 0.15533 -0.04991 0.72359
 H474 H 0.15429 -0.05829 0.70953
 Zn475 Zn 0.12634 -0.00037 0.74973
 N476 N 0.14348 -0.02295 0.74477
 C477 C 0.11047 -0.02313 0.78280
 N478 N 0.10927 -0.00541 0.77224
 C479 C 0.09521 0.00900 0.77698
 C480 C 0.08196 0.00608 0.79322
 C481 C 0.09750 -0.02666 0.79915
 C482 C 0.15736 0.02718 0.74030
 C483 C 0.17057 0.04356 0.74319
 C484 C 0.15510 0.04938 0.77582
 C485 C 0.14217 0.03289 0.77232
 N486 N 0.14336 0.02232 0.75467
 H487 H 0.12137 -0.03462 0.77852
 H488 H 0.09436 0.02280 0.76811
 H489 H 0.07089 0.01767 0.79696
 H490 H 0.09858 -0.04077 0.80753
 H491 H 0.15820 0.01831 0.72655
 H492 H 0.18159 0.04740 0.73163
 H493 H 0.15403 0.05776 0.78988
 H494 H 0.13133 0.02851 0.78378
 C495 C 0.16963 -0.05525 0.73831
 C496 C 0.08318 0.01069 0.69489
 C497 C 0.16938 0.05478 0.76110
 C498 C 0.08316 -0.01190 0.80443
 C499 C 0.59535 0.49073 0.22289
 H500 H 0.59453 0.47687 0.23167
 C501 C 0.58212 0.49370 0.20664
 H502 H 0.57109 0.48208 0.20280
 C503 C 0.61054 0.52296 0.21731
 H504 H 0.62140 0.53447 0.22169
 C505 C 0.59758 0.52654 0.20095
 H506 H 0.59864 0.54071 0.19266
 N507 N 0.60936 0.50517 0.22775
 C508 C 0.65750 0.47257 0.25955
 H509 H 0.65831 0.48135 0.27335
 C510 C 0.67076 0.45627 0.25656
 H511 H 0.68179 0.45240 0.26812
 C512 C 0.64237 0.46702 0.22745
 H513 H 0.63153 0.47144 0.21600
 C514 C 0.65536 0.45062 0.22386
 H515 H 0.65432 0.44233 0.20974
 Zn516 Zn 0.62643 0.50005 0.25026
 N517 N 0.64351 0.47747 0.24518
 C518 C 0.61045 0.47714 0.28318
 N519 N 0.60931 0.49493 0.27271
 C520 C 0.59530 0.50935 0.27753
 C521 C 0.58204 0.50639 0.29375
 C522 C 0.59746 0.47356 0.29951
 C523 C 0.65755 0.52756 0.24105
 C524 C 0.67080 0.54388 0.24407
 C525 C 0.65532 0.54953 0.27672
 C526 C 0.64234 0.53311 0.27310
 N527 N 0.64352 0.52265 0.25538
 H528 H 0.62131 0.46564 0.27883
 H529 H 0.59451 0.52320 0.26874
 H530 H 0.57102 0.51800 0.29756
 H531 H 0.59850 0.45941 0.30782
 H532 H 0.65838 0.51878 0.22725
 H533 H 0.68185 0.54776 0.23254
 H534 H 0.65426 0.55783 0.29082
 H535 H 0.63147 0.52869 0.28452
 C536 C 0.66963 0.44517 0.23857
 C537 C 0.58329 0.51175 0.19554
 C538 C 0.66963 0.55499 0.26204
 C539 C 0.58318 0.48835 0.30487
 C540 C 0.90419 0.50964 0.72254
 H541 H 0.90507 0.52347 0.73133
 C542 C 0.91743 0.50664 0.70631
 H543 H 0.92852 0.51821 0.70250
 C544 C 0.88887 0.47748 0.71690
 H545 H 0.87796 0.46601 0.72125
 C546 C 0.90184 0.47387 0.70056
 H547 H 0.90072 0.45972 0.69225
 N548 N 0.89012 0.49525 0.72737
 C549 C 0.84210 0.52800 0.75915
 H550 H 0.84125 0.51918 0.77294
 C551 C 0.82896 0.54439 0.75620
 H552 H 0.81796 0.54830 0.76776
 C553 C 0.85728 0.53356 0.72709
 H554 H 0.86811 0.52912 0.71565
 C555 C 0.84442 0.55007 0.72353
 H556 H 0.84552 0.55841 0.70945
 Zn557 Zn 0.87307 0.50040 0.74986
 N558 N 0.85607 0.52306 0.74479
 C559 C 0.88915 0.52323 0.78279
 N560 N 0.89022 0.50544 0.77232
 C561 C 0.90419 0.49097 0.77713
 C562 C 0.91749 0.49389 0.79334
 C563 C 0.90218 0.52676 0.79911
 C564 C 0.84187 0.47298 0.74063
 C565 C 0.82860 0.45667 0.74363
 C566 C 0.84409 0.45095 0.77628
 C567 C 0.85708 0.46736 0.77268
 N568 N 0.85591 0.47785 0.75497
 H569 H 0.87832 0.53476 0.77845
 H570 H 0.90494 0.47713 0.76835
 H571 H 0.92849 0.48225 0.79714
 H572 H 0.90120 0.54092 0.80741
 H573 H 0.84105 0.48178 0.72684
 H574 H 0.81754 0.45282 0.73209
 H575 H 0.84515 0.44262 0.79037
 H576 H 0.86796 0.47175 0.78410
 C577 C 0.83018 0.55556 0.73825
 C578 C 0.91619 0.48861 0.69519
 C579 C 0.82977 0.44553 0.76159
 C580 C 0.91643 0.51193 0.80445
 C581 C 0.22231 0.40724 0.00944
 H582 H 0.23116 0.40806 0.02321
 C583 C 0.20598 0.42048 0.00649
 H584 H 0.20216 0.43151 0.01804
 C585 C 0.21660 0.39208 -0.02260
 H586 H 0.22096 0.38123 -0.03404
 C587 C 0.20016 0.40505 -0.02615
 H588 H 0.19180 0.40400 -0.04023
 N589 N 0.22714 0.39324 -0.00491
 C590 C 0.25918 0.34511 0.02743
 H591 H 0.27301 0.34430 0.01861
 C592 C 0.25624 0.33187 0.04367
 H593 H 0.26786 0.32084 0.04745
 C594 C 0.22695 0.36028 0.03314
 H595 H 0.21544 0.37113 0.02881
 C596 C 0.22341 0.34730 0.04949
 H597 H 0.20926 0.34835 0.05782
 Zn598 Zn 0.24977 0.37617 0.00012
 N599 N 0.24473 0.35911 0.02263
 C600 C 0.28303 0.39207 0.02276
 N601 N 0.27244 0.39324 0.00510
 C602 C 0.27728 0.40722 -0.00928
 C603 C 0.29367 0.42043 -0.00640
 C604 C 0.29953 0.40499 0.02624
 C605 C 0.24031 0.34509 -0.02716
 C606 C 0.24322 0.33183 -0.04338
 C607 C 0.27610 0.34724 -0.04919
 C608 C 0.27257 0.36023 -0.03286
 N609 N 0.25478 0.35908 -0.02237
 H610 H 0.27866 0.38123 0.03422
 H611 H 0.26839 0.40805 -0.02303
 H612 H 0.29750 0.43143 -0.01798
 H613 H 0.30794 0.40393 0.04029
 H614 H 0.22646 0.34429 -0.01835
 H615 H 0.23158 0.32081 -0.04716
 H616 H 0.29025 0.34828 -0.05752
 H617 H 0.28411 0.37107 -0.02854
 C618 C 0.23821 0.33302 0.05482
 C619 C 0.19478 0.41933 -0.01145
 C620 C 0.26126 0.33297 -0.05452
 C621 C 0.30492 0.41925 0.01150
 C622 C 0.72257 0.09254 -0.00915
 H623 H 0.73140 0.09172 -0.02293
 C624 C 0.70624 0.07928 -0.00617
 H625 H 0.70241 0.06823 -0.01770
 C626 C 0.71691 0.10774 0.02287
 H627 H 0.72130 0.11861 0.03429
 C628 C 0.70048 0.09475 0.02646
 H629 H 0.69214 0.09581 0.04054
 N630 N 0.72743 0.10657 0.00518
 C631 C 0.75941 0.15471 -0.02724
 H632 H 0.77327 0.15554 -0.01844
 C633 C 0.75644 0.16794 -0.04348
 H634 H 0.76806 0.17898 -0.04729
 C635 C 0.72717 0.13951 -0.03289
 H636 H 0.71566 0.12865 -0.02853
 C637 C 0.72359 0.15247 -0.04923
 H638 H 0.70942 0.15141 -0.05754
 Zn639 Zn 0.75005 0.12366 0.00011
 N640 N 0.74497 0.14069 -0.02241
 C641 C 0.78321 0.10776 -0.02260
 N642 N 0.77269 0.10661 -0.00491
 C643 C 0.77756 0.09264 0.00947
 C644 C 0.79389 0.07940 0.00653
 C645 C 0.79964 0.09479 -0.02615
 C646 C 0.74066 0.15476 0.02734
 C647 C 0.74361 0.16804 0.04355
 C648 C 0.77647 0.15264 0.04938
 C649 C 0.77291 0.13964 0.03306
 N650 N 0.75512 0.14077 0.02257
 H651 H 0.77882 0.11859 -0.03406
 H652 H 0.76873 0.09183 0.02325
 H653 H 0.79773 0.06838 0.01810
 H654 H 0.80798 0.09582 -0.04024
 H655 H 0.72681 0.15555 0.01853
 H656 H 0.73198 0.17906 0.04732
 H657 H 0.79063 0.15163 0.05770
 H658 H 0.78443 0.12879 0.02875
 C659 C 0.73838 0.16677 -0.05459
 C660 C 0.69508 0.08044 0.01178
 C661 C 0.76166 0.16692 0.05469
 C662 C 0.80505 0.08053 -0.01142
 C663 C 0.22234 0.59272 0.49065
 H664 H 0.23126 0.59191 0.47693
 C665 C 0.20595 0.57949 0.49348
 H666 H 0.20216 0.56849 0.48189
 C667 C 0.21649 0.60785 0.52267
 H668 H 0.22082 0.61869 0.53415
 C669 C 0.20000 0.59490 0.52611
 H670 H 0.19156 0.59595 0.54013
 N671 N 0.22713 0.60670 0.50505
 C672 C 0.25931 0.65491 0.47293
 H673 H 0.27312 0.65573 0.48181
 C674 C 0.25644 0.66818 0.45670
 H675 H 0.26809 0.67923 0.45299
 C676 C 0.22710 0.63972 0.46706
 H677 H 0.21556 0.62885 0.47132
 C678 C 0.22362 0.65272 0.45072
 H679 H 0.20950 0.65168 0.44232
 Zn680 Zn 0.24979 0.62379 0.50015
 N681 N 0.24484 0.64089 0.47764
 C682 C 0.28308 0.60797 0.47759
 N683 N 0.27246 0.60676 0.49522
 C684 C 0.27727 0.59277 0.50960
 C685 C 0.29366 0.57959 0.50674
 C686 C 0.29958 0.59507 0.47413
 C687 C 0.24025 0.65484 0.52740
 C688 C 0.24314 0.66811 0.54363
 C689 C 0.27597 0.65273 0.54957
 C690 C 0.27248 0.63973 0.53324
 N691 N 0.25473 0.64086 0.52267
 H692 H 0.27873 0.61881 0.46612
 H693 H 0.26836 0.59192 0.52332
 H694 H 0.29747 0.56858 0.51832
 H695 H 0.30801 0.59616 0.46010
 H696 H 0.22644 0.65564 0.51853
 H697 H 0.23149 0.67914 0.54735
 H698 H 0.29010 0.65171 0.55795
 H699 H 0.28402 0.62889 0.52896
 C700 C 0.23845 0.66703 0.44547
 C701 C 0.19466 0.58065 0.51135
 C702 C 0.26114 0.66700 0.55483
 C703 C 0.30494 0.58080 0.48886
 C704 C 0.72258 0.90857 0.50911
 H705 H 0.73152 0.90948 0.52282
 C706 C 0.70613 0.92169 0.50625
 H707 H 0.70231 0.93270 0.51781
 C708 C 0.71674 0.89328 0.47715
 H709 H 0.72108 0.88242 0.46572
 C710 C 0.70018 0.90612 0.47369
 H711 H 0.69170 0.90495 0.45969
 N712 N 0.72740 0.89455 0.49477
 C713 C 0.75955 0.84652 0.52712
 H714 H 0.77336 0.84568 0.51827
 C715 C 0.75665 0.83328 0.54339
 H716 H 0.76828 0.82225 0.54715
 C717 C 0.72735 0.86168 0.53289
 H718 H 0.71582 0.87252 0.52858
 C719 C 0.72384 0.84873 0.54926
 H720 H 0.70970 0.84978 0.55762
 Zn721 Zn 0.75006 0.87752 0.49976
 N722 N 0.74509 0.86051 0.52235
 C723 C 0.78349 0.89338 0.52219
 N724 N 0.77277 0.89458 0.50461
 C725 C 0.77762 0.90847 0.49014
 C726 C 0.79419 0.92150 0.49281
 C727 C 0.80017 0.90614 0.52547
 C728 C 0.74051 0.84634 0.47261
 C729 C 0.74340 0.83301 0.45644
 C730 C 0.77626 0.84839 0.45050
 C731 C 0.77276 0.86144 0.46679
 N732 N 0.75500 0.86035 0.47732
 H733 H 0.77913 0.88262 0.53372
 H734 H 0.76864 0.90931 0.47645
 H735 H 0.79807 0.93238 0.48113
 H736 H 0.80872 0.90500 0.53943
 H737 H 0.72669 0.84557 0.48145
 H738 H 0.73175 0.82197 0.45273
 H739 H 0.79041 0.84938 0.44216
 H740 H 0.78432 0.87230 0.47105
 C741 C 0.73865 0.83444 0.55458
 C742 C 0.69480 0.92038 0.48840
 C743 C 0.76142 0.83409 0.44526
 C744 C 0.80561 0.92024 0.51060
 C745 C 0.00895 0.22256 0.40582
 H746 H 0.02267 0.23161 0.40668
 C747 C 0.00622 0.20613 0.41891
 H748 H 0.01790 0.20243 0.42987
 C749 C -0.02319 0.21642 0.39065
 H750 H -0.03474 0.22064 0.37984
 C751 C -0.02652 0.19987 0.40347
 H752 H -0.04054 0.19128 0.40235
 N753 N -0.00555 0.22722 0.39188
 C754 C 0.02671 0.25966 0.34409
 H755 H 0.01774 0.27341 0.34331
 C756 C 0.04303 0.25687 0.33087
 H757 H 0.04672 0.26852 0.31989
 C758 C 0.03270 0.22747 0.35911
 H759 H 0.02844 0.21590 0.36989
 C760 C 0.04914 0.22407 0.34616
 H761 H 0.05761 0.20999 0.34716
 Zn762 Zn -0.00071 0.24992 0.37495
 N763 N 0.02201 0.24515 0.35800
 C764 C 0.02176 0.28330 0.39088
 N765 N 0.00408 0.27256 0.39197
 C766 C -0.01046 0.27720 0.40587
 C767 C -0.00770 0.29351 0.41909
 C768 C 0.02512 0.29973 0.40383
 C769 C -0.02797 0.24028 0.34394
 C770 C -0.04424 0.24310 0.33064
 C771 C -0.05045 0.27584 0.34600
 C772 C -0.03407 0.27241 0.35902
 N773 N -0.02335 0.25475 0.35791
 H774 H 0.03335 0.27910 0.38011
 H775 H -0.02422 0.26819 0.40663
 H776 H -0.01939 0.29717 0.43004
 H777 H 0.03920 0.30825 0.40285
 H778 H -0.01898 0.22654 0.34316
 H779 H -0.04787 0.23148 0.31961
 H780 H -0.05893 0.28991 0.34698
 H781 H -0.02987 0.28394 0.36985
 C782 C 0.05436 0.23893 0.33196
 C783 C -0.01165 0.19466 0.41767
 C784 C -0.05559 0.26103 0.33172
 C785 C 0.01023 0.30490 0.41802
 C786 C -0.00977 0.72254 0.09423
 H787 H -0.02352 0.73152 0.09348
 C788 C -0.00702 0.70624 0.08100
 H789 H -0.01872 0.70258 0.07004
 C790 C 0.02248 0.71649 0.10919
 H791 H 0.03408 0.72073 0.11996
 C792 C 0.02583 0.70008 0.09623
 H793 H 0.03992 0.69160 0.09719
 N794 N 0.00479 0.72721 0.10812
 C795 C -0.02712 0.75967 0.15606
 H796 H -0.01809 0.77341 0.15678
 C797 C -0.04337 0.75692 0.16938
 H798 H -0.04696 0.76859 0.18036
 C799 C -0.03332 0.72749 0.14110
 H800 H -0.02917 0.71592 0.13030
 C801 C -0.04970 0.72413 0.15415
 H802 H -0.05823 0.71007 0.15322
 Zn803 Zn 0.00007 0.74990 0.12507
 N804 N -0.02255 0.74515 0.14214
 C805 C -0.02243 0.78325 0.10919
 N806 N -0.00477 0.77252 0.10804
 C807 C 0.00970 0.77714 0.09406
 C808 C 0.00689 0.79340 0.08078
 C809 C -0.02585 0.79964 0.09619
 C810 C 0.02749 0.74026 0.15593
 C811 C 0.04383 0.74309 0.16915
 C812 C 0.05000 0.77583 0.15374
 C813 C 0.03355 0.77239 0.14080
 N814 N 0.02282 0.75473 0.14198
 H815 H -0.03396 0.77906 0.12004
 H816 H 0.02345 0.76814 0.09325
 H817 H 0.01852 0.79702 0.06975
 H818 H -0.03993 0.80814 0.09721
 H819 H 0.01849 0.72652 0.15676
 H820 H 0.04749 0.73147 0.18017
 H821 H 0.05850 0.78990 0.15271
 H822 H 0.02931 0.78392 0.12998
 C823 C -0.05478 0.73900 0.16837
 C824 C 0.01092 0.69490 0.08204
 C825 C 0.05520 0.76102 0.16801
 C826 C -0.01104 0.80477 0.08190
 C827 C 0.48992 0.22330 0.59491
 H828 H 0.47619 0.23232 0.59411
 C829 C 0.49269 0.20703 0.58164
 H830 H 0.48103 0.20343 0.57062
 C831 C 0.52206 0.21711 0.61002
 H832 H 0.53362 0.22128 0.62086
 C833 C 0.52544 0.20072 0.59703
 H834 H 0.53949 0.19219 0.59805
 N835 N 0.50442 0.22788 0.60889
 C836 C 0.47222 0.26021 0.65674
 H837 H 0.48125 0.27394 0.65757
 C838 C 0.45586 0.25742 0.66992
 H839 H 0.45219 0.26906 0.68091
 C840 C 0.46613 0.22808 0.64164
 H841 H 0.47036 0.21653 0.63084
 C842 C 0.44965 0.22469 0.65455
 H843 H 0.44113 0.21063 0.65351
 Zn844 Zn 0.49964 0.25051 0.62590
 N845 N 0.47689 0.24573 0.64281
 C846 C 0.47733 0.28399 0.61000
 N847 N 0.49497 0.27320 0.60892
 C848 C 0.50954 0.27781 0.59504
 C849 C 0.50686 0.29413 0.58180
 C850 C 0.47405 0.30043 0.59703
 C851 C 0.52690 0.24070 0.65687
 C852 C 0.54321 0.24343 0.67014
 C853 C 0.54948 0.27623 0.65490
 C854 C 0.53306 0.27288 0.64190
 N855 N 0.52230 0.25523 0.64296
 H856 H 0.46572 0.27981 0.62076
 H857 H 0.52326 0.26877 0.59429
 H858 H 0.51857 0.29775 0.57086
 H859 H 0.46000 0.30898 0.59800
 H860 H 0.51788 0.22696 0.65760
 H861 H 0.54683 0.23175 0.68111
 H862 H 0.55801 0.29029 0.65395
 H863 H 0.52888 0.28447 0.63111
 C864 C 0.44446 0.23952 0.66877
 C865 C 0.51059 0.19562 0.58276
 C866 C 0.55461 0.26135 0.66911
 C867 C 0.48897 0.30556 0.58285
 C868 C 0.50979 0.72271 0.90577
 H869 H 0.52351 0.73176 0.90656
 C870 C 0.50709 0.70634 0.91894
 H871 H 0.51879 0.70268 0.92989
 C872 C 0.47758 0.71657 0.89076
 H873 H 0.46597 0.72078 0.88000
 C874 C 0.47427 0.70007 0.90366
 H875 H 0.46022 0.69152 0.90265
 N876 N 0.49522 0.72736 0.89189
 C877 C 0.52719 0.76010 0.84410
 H878 H 0.51815 0.77382 0.84340
 C879 C 0.54350 0.75746 0.83084
 H880 H 0.54712 0.76919 0.81992
 C881 C 0.53337 0.72788 0.85896
 H882 H 0.52919 0.71625 0.86970
 C883 C 0.54980 0.72463 0.84597
 H884 H 0.55835 0.71058 0.84688
 Zn885 Zn 0.49992 0.75012 0.87500
 N886 N 0.52259 0.74551 0.85795
 C887 C 0.52233 0.78350 0.89101
 N888 N 0.50467 0.77271 0.89209
 C889 C 0.49017 0.77724 0.90605
 C890 C 0.49293 0.79347 0.91938
 C891 C 0.52570 0.79985 0.90406
 C892 C 0.47254 0.74047 0.84408
 C893 C 0.45620 0.74327 0.83086
 C894 C 0.44997 0.77595 0.84631
 C895 C 0.46642 0.77255 0.85926
 N896 N 0.47718 0.75492 0.85806
 H897 H 0.53389 0.77938 0.88018
 H898 H 0.47643 0.76819 0.90680
 H899 H 0.48127 0.79702 0.93039
 H900 H 0.53976 0.80840 0.90310
 H901 H 0.48156 0.72676 0.84324
 H902 H 0.45256 0.73166 0.81983
 H903 H 0.44144 0.79000 0.84737
 H904 H 0.47063 0.78407 0.87010
 C905 C 0.55493 0.73957 0.83182
 C906 C 0.48919 0.69490 0.91783
 C907 C 0.44480 0.76116 0.83203
 C908 C 0.51084 0.80490 0.91833
 C909 C 0.10199 0.22975 0.29341
 C910 C 0.11698 0.21541 0.29803
 C911 C 0.13323 0.21223 0.28477
 C912 C 0.13473 0.22339 0.26666
 C913 C 0.11955 0.23779 0.26219
 C914 C 0.10331 0.24093 0.27547
 C915 C 0.08524 0.23298 0.30703
 C916 C 0.07117 0.23569 0.31841
 H917 H 0.11611 0.20668 0.31190
 H918 H 0.14464 0.20113 0.28886
 H919 H 0.12003 0.24657 0.24838
 H920 H 0.09176 0.25206 0.27172
 C921 C 0.60272 0.73090 0.79336
 C922 C 0.60779 0.74587 0.77921
 C923 C 0.62414 0.74292 0.76602
 C924 C 0.63570 0.72493 0.76681
 C925 C 0.63044 0.70997 0.78113
 C926 C 0.61407 0.71296 0.79428
 C927 C 0.58588 0.73395 0.80692
 C928 C 0.57177 0.73651 0.81828
 H929 H 0.59911 0.75984 0.77838
 H930 H 0.62776 0.75485 0.75537
 H931 H 0.63881 0.69587 0.78214
 H932 H 0.61025 0.70125 0.80517
 C933 C 0.39715 0.77036 0.79348
 C934 C 0.39157 0.75518 0.77975
 C935 C 0.37534 0.75833 0.76644
 C936 C 0.36444 0.77674 0.76668
 C937 C 0.37019 0.79189 0.78059
 C938 C 0.38643 0.78870 0.79388
 C939 C 0.41391 0.76712 0.80710
 C940 C 0.42798 0.76441 0.81848
 H941 H 0.39975 0.74090 0.77933
 H942 H 0.37133 0.74624 0.75611
 H943 H 0.36232 0.80630 0.78117
 H944 H 0.39065 0.80057 0.80443
 C945 C -0.10305 0.27028 0.29295
 C946 C -0.10636 0.25685 0.27693
 C947 C -0.12253 0.26000 0.26356
 C948 C -0.13577 0.27672 0.26597
 C949 C -0.13219 0.29013 0.28228
 C950 C -0.11599 0.28690 0.29560
 C951 C -0.08635 0.26703 0.30665
 C952 C -0.07234 0.26430 0.31809
 H953 H -0.09641 0.24391 0.27474
 H954 H -0.12447 0.24921 0.25140
 H955 H -0.14177 0.30319 0.28492
 H956 H -0.11356 0.29742 0.30797
 C957 C -0.10225 0.72997 0.20716
 C958 C -0.10355 0.74126 0.22502
 C959 C -0.11975 0.73816 0.23836
 C960 C -0.13492 0.72368 0.23403
 C961 C -0.13345 0.71241 0.21598
 C962 C -0.11723 0.71555 0.20267
 C963 C -0.08554 0.73315 0.19347
 C964 C -0.07153 0.73582 0.18201
 H965 H -0.09201 0.75245 0.22866
 H966 H -0.12022 0.74703 0.25212
 H967 H -0.14485 0.70125 0.21200
 H968 H -0.11639 0.70674 0.18886
 C969 C 0.39666 0.23038 0.70715
 C970 C 0.39353 0.24358 0.72339
 C971 C 0.37723 0.24048 0.73661
 C972 C 0.36369 0.22404 0.73383
 C973 C 0.36710 0.21086 0.71732
 C974 C 0.38342 0.21404 0.70414
 C975 C 0.41349 0.23359 0.69360
 C976 C 0.42760 0.23629 0.68227
 H977 H 0.40371 0.25631 0.72586
 H978 H 0.37544 0.25109 0.74895
 H979 H 0.35728 0.19802 0.71439
 H980 H 0.38572 0.20371 0.69160
 C981 C 0.60227 0.27039 0.70769
 C982 C 0.60564 0.25690 0.72366
 C983 C 0.62190 0.26001 0.73695
 C984 C 0.63515 0.27674 0.73451
 C985 C 0.63150 0.29020 0.71827
 C986 C 0.61522 0.28703 0.70502
 C987 C 0.58549 0.26719 0.69408
 C988 C 0.57142 0.26452 0.68268
 H989 H 0.59569 0.24396 0.72587
 H990 H 0.62389 0.24918 0.74907
 H991 H 0.64109 0.30328 0.71560
 H992 H 0.61273 0.29758 0.69269
 C993 C 0.10278 0.77027 0.20663
 C994 C 0.10410 0.75904 0.22453
 C995 C 0.12031 0.76219 0.23786
 C996 C 0.13547 0.77667 0.23347
 C997 C 0.13398 0.78788 0.21539
 C998 C 0.11775 0.78468 0.20208
 C999 C 0.08605 0.76703 0.19297
 C1000 C 0.07200 0.76430 0.18156
 H1001 H 0.09257 0.74787 0.22822
 H1002 H 0.12079 0.75337 0.25165
 H1003 H 0.14537 0.79903 0.21136
 H1004 H 0.11689 0.79345 0.18824
 C1005 C 0.29211 0.10278 0.22931
 C1006 C 0.27766 0.10814 0.24388
 C1007 C 0.26457 0.12453 0.24050
 C1008 C 0.26575 0.13583 0.22244
 C1009 C 0.28036 0.13028 0.20789
 C1010 C 0.29342 0.11388 0.21132
 C1011 C 0.30557 0.08591 0.23279
 C1012 C 0.31688 0.07178 0.23566
 H1013 H 0.27653 0.09967 0.25788
 H1014 H 0.25368 0.12838 0.25212
 H1015 H 0.28167 0.13845 0.19376
 H1016 H 0.30453 0.10984 0.19991
 C1017 C 0.79239 0.60385 0.72875
 C1018 C 0.79754 0.61869 0.71450
 C1019 C 0.78468 0.63528 0.71125
 C1020 C 0.76644 0.63728 0.72223
 C1021 C 0.76142 0.62222 0.73653
 C1022 C 0.77431 0.60564 0.73974
 C1023 C 0.80567 0.58680 0.73210
 C1024 C 0.81683 0.57254 0.73491
 H1025 H 0.81153 0.61747 0.70592
 H1026 H 0.78918 0.64657 0.70024
 H1027 H 0.74749 0.62309 0.74517
 H1028 H 0.77016 0.59421 0.75080
 C1029 C 0.79156 0.39756 0.77137
 C1030 C 0.77710 0.39218 0.75681
 C1031 C 0.76405 0.37574 0.76018
 C1032 C 0.76529 0.36441 0.77821
 C1033 C 0.77993 0.36998 0.79275
 C1034 C 0.79295 0.38643 0.78934
 C1035 C 0.80500 0.41448 0.76789
 C1036 C 0.81627 0.42865 0.76500
 H1037 H 0.77592 0.40068 0.74282
 H1038 H 0.75314 0.37188 0.74856
 H1039 H 0.78129 0.36179 0.80686
 H1040 H 0.80408 0.39049 0.80073
 C1041 C 0.29199 -0.10297 0.27164
 C1042 C 0.27536 -0.10620 0.25887
 C1043 C 0.26227 -0.12263 0.26218
 C1044 C 0.26559 -0.13620 0.27840
 C1045 C 0.28249 -0.13268 0.29114
 C1046 C 0.29552 -0.11623 0.28776
 C1047 C 0.30544 -0.08605 0.26821
 C1048 C 0.31673 -0.07189 0.26537
 H1049 H 0.27248 -0.09600 0.24633
 H1050 H 0.24962 -0.12450 0.25192
 H1051 H 0.28584 -0.14252 0.30379
 H1052 H 0.30838 -0.11386 0.29774
 C1053 C 0.20789 -0.10314 0.72870
 C1054 C 0.20433 -0.11640 0.71259
 C1055 C 0.21736 -0.13283 0.70918
 C1056 C 0.23429 -0.13631 0.72188
 C1057 C 0.23763 -0.12274 0.73809
 C1058 C 0.22455 -0.10634 0.74143
 C1059 C 0.19444 -0.08624 0.73214
 C1060 C 0.18315 -0.07210 0.73498
 H1061 H 0.19145 -0.11406 0.70262
 H1062 H 0.21399 -0.14266 0.69654
 H1063 H 0.25031 -0.12459 0.74833
 H1064 H 0.22744 -0.09614 0.75397
 C1065 C 0.70791 0.39735 0.22878
 C1066 C 0.70661 0.38628 0.21077
 C1067 C 0.71968 0.36989 0.20735
 C1068 C 0.73428 0.36432 0.22192
 C1069 C 0.73544 0.37558 0.23999
 C1070 C 0.72234 0.39197 0.24337
 C1071 C 0.69444 0.41421 0.23227
 C1072 C 0.68314 0.42833 0.23516
 H1073 H 0.69551 0.39034 0.19935
 H1074 H 0.71839 0.36175 0.19321
 H1075 H 0.74632 0.37172 0.25163
 H1076 H 0.72346 0.40042 0.25739
 C1077 C 0.70787 0.60291 0.27185
 C1078 C 0.72236 0.60825 0.25729
 C1079 C 0.73544 0.62467 0.26065
 C1080 C 0.73421 0.63602 0.27866
 C1081 C 0.71956 0.63049 0.29320
 C1082 C 0.70651 0.61406 0.28979
 C1083 C 0.69441 0.58601 0.26837
 C1084 C 0.68312 0.57186 0.26548
 H1085 H 0.72352 0.59973 0.24332
 H1086 H 0.74636 0.62849 0.24904
 H1087 H 0.71822 0.63870 0.30729
 H1088 H 0.69537 0.61003 0.30119
 C1089 C 0.20745 0.10290 0.77067
 C1090 C 0.22153 0.10862 0.75588
 C1091 C 0.23452 0.12512 0.75920
 C1092 C 0.23360 0.13617 0.77740
 C1093 C 0.21935 0.13026 0.79218
 C1094 C 0.20639 0.11375 0.78882
 C1095 C 0.19407 0.08593 0.76725
 C1096 C 0.18283 0.07172 0.76442
 H1097 H 0.22246 0.10034 0.74175
 H1098 H 0.24513 0.12925 0.74740
 H1099 H 0.21825 0.13823 0.80643
 H1100 H 0.19556 0.10943 0.80040
 C1101 C 0.22871 0.29463 0.10241
 C1102 C 0.24369 0.28061 0.10792
 C1103 C 0.24046 0.26743 0.12420
 C1104 C 0.22215 0.26811 0.13523
 C1105 C 0.20718 0.28230 0.12954
 C1106 C 0.21046 0.29545 0.11325
 C1107 C 0.23205 0.30817 0.08564
 C1108 C 0.23485 0.31950 0.07159
 H1109 H 0.25790 0.27987 0.09965
 H1110 H 0.25241 0.25688 0.12817
 H1111 H 0.19285 0.28321 0.13749
 H1112 H 0.19873 0.30623 0.10908
 C1113 C 0.72923 0.79607 0.60220
 C1114 C 0.71102 0.79692 0.61310
 C1115 C 0.70778 0.78378 0.62941
 C1116 C 0.72275 0.76957 0.63506
 C1117 C 0.74102 0.76886 0.62396
 C1118 C 0.74421 0.78203 0.60767
 C1119 C 0.73254 0.80960 0.58542
 C1120 C 0.73532 0.82093 0.57136
 H1121 H 0.69929 0.80772 0.60897
 H1122 H 0.69347 0.78472 0.63742
 H1123 H 0.75297 0.75830 0.62790
 H1124 H 0.75839 0.78126 0.59935
 C1125 C 0.77092 0.79550 0.39787
 C1126 C 0.75597 0.78140 0.39243
 C1127 C 0.75923 0.76816 0.37622
 C1128 C 0.77754 0.76885 0.36520
 C1129 C 0.79248 0.78313 0.37081
 C1130 C 0.78917 0.79634 0.38703
 C1131 C 0.76755 0.80910 0.41457
 C1132 C 0.76475 0.82049 0.42856
 H1133 H 0.74176 0.78064 0.40070
 H1134 H 0.74730 0.75754 0.37231
 H1135 H 0.80681 0.78406 0.36285
 H1136 H 0.80087 0.80719 0.39114
 C1137 C 0.27072 0.29466 -0.10215
 C1138 C 0.25573 0.28063 -0.10768
 C1139 C 0.25895 0.26751 -0.12400
 C1140 C 0.27725 0.26825 -0.13504
 C1141 C 0.29222 0.28245 -0.12932
 C1142 C 0.28896 0.29554 -0.11300
 C1143 C 0.26738 0.30815 -0.08536
 C1144 C 0.26459 0.31946 -0.07130
 H1145 H 0.24153 0.27984 -0.09940
 H1146 H 0.24699 0.25695 -0.12798
 H1147 H 0.30655 0.28341 -0.13729
 H1148 H 0.30069 0.30633 -0.10882
 C1149 C 0.72877 0.20515 -0.10216
 C1150 C 0.74374 0.21922 -0.10767
 C1151 C 0.74046 0.23241 -0.12393
 C1152 C 0.72213 0.23170 -0.13494
 C1153 C 0.70719 0.21746 -0.12925
 C1154 C 0.71050 0.20430 -0.11298
 C1155 C 0.73215 0.19162 -0.08541
 C1156 C 0.73499 0.18028 -0.07136
 H1157 H 0.75796 0.21999 -0.09942
 H1158 H 0.75240 0.24300 -0.12790
 H1159 H 0.69284 0.21652 -0.13720
 H1160 H 0.69880 0.19348 -0.10882
 C1161 C 0.22912 0.70545 0.39788
 C1162 C 0.24410 0.71953 0.39245
 C1163 C 0.24091 0.73271 0.37618
 C1164 C 0.22264 0.73199 0.36507
 C1165 C 0.20768 0.71773 0.37068
 C1166 C 0.21091 0.70458 0.38697
 C1167 C 0.23241 0.69191 0.41465
 C1168 C 0.23516 0.68057 0.42871
 H1169 H 0.25828 0.72031 0.40079
 H1170 H 0.25286 0.74331 0.37227
 H1171 H 0.19337 0.71678 0.36266
 H1172 H 0.19919 0.69375 0.39107
 C1173 C 0.27058 0.70546 0.60236
 C1174 C 0.28882 0.70463 0.61323
 C1175 C 0.29209 0.71779 0.62950
 C1176 C 0.27714 0.73203 0.63513
 C1177 C 0.25885 0.73272 0.62406
 C1178 C 0.25561 0.71952 0.60781
 C1179 C 0.26724 0.69190 0.58562
 C1180 C 0.26445 0.68055 0.57158
 H1181 H 0.30053 0.69381 0.60912
 H1182 H 0.30642 0.71687 0.63749
 H1183 H 0.24691 0.74330 0.62799
 H1184 H 0.24142 0.72027 0.59951
 C1185 C 0.77121 0.20537 0.10220
 C1186 C 0.75625 0.21944 0.10765
 C1187 C 0.75950 0.23264 0.12390
 C1188 C 0.77780 0.23194 0.13496
 C1189 C 0.79274 0.21770 0.12933
 C1190 C 0.78945 0.20453 0.11306
 C1191 C 0.76784 0.19181 0.08546
 C1192 C 0.76503 0.18046 0.07144
 H1193 H 0.74205 0.22020 0.09936
 H1194 H 0.74757 0.24323 0.12782
 H1195 H 0.80706 0.21677 0.13731
 H1196 H 0.80115 0.19371 0.10895
 C1197 C 0.48022 0.35331 0.54439
 C1198 C 0.49515 0.35830 0.53016
 C1199 C 0.49219 0.37462 0.51695
 C1200 C 0.47421 0.38621 0.51779
 C1201 C 0.45930 0.38104 0.53218
 C1202 C 0.46230 0.36470 0.54537
 C1203 C 0.48329 0.33649 0.55796
 C1204 C 0.48587 0.32240 0.56932
 H1205 H 0.50911 0.34958 0.52929
 H1206 H 0.50409 0.37817 0.50623
 H1207 H 0.44521 0.38945 0.53323
 H1208 H 0.45062 0.36095 0.55631
 C1209 C -0.02022 0.85227 0.04323
 C1210 C -0.00906 0.85353 0.02528
 C1211 C -0.01218 0.86974 0.01196
 C1212 C -0.02656 0.88494 0.01642
 C1213 C -0.03770 0.88350 0.03455
 C1214 C -0.03454 0.86728 0.04784
 C1215 C -0.01700 0.83555 0.05690
 C1216 C -0.01429 0.82153 0.06831
 H1217 H 0.00205 0.84196 0.02155
 H1218 H -0.00341 0.87018 -0.00186
 H1219 H -0.04877 0.89493 0.03862
 H1220 H -0.04325 0.86646 0.06172
 C1221 C 0.01998 0.64739 0.04338
 C1222 C 0.00878 0.64615 0.02544
 C1223 C 0.01190 0.62997 0.01210
 C1224 C 0.02629 0.61476 0.01653
 C1225 C 0.03746 0.61618 0.03466
 C1226 C 0.03430 0.63238 0.04796
 C1227 C 0.01679 0.66410 0.05705
 C1228 C 0.01412 0.67812 0.06846
 H1229 H -0.00233 0.65772 0.02172
 H1230 H 0.00311 0.62954 -0.00172
 H1231 H 0.04854 0.60475 0.03871
 H1232 H 0.04304 0.63318 0.06184
 C1233 C 0.51957 0.14802 0.54421
 C1234 C 0.50464 0.14296 0.53001
 C1235 C 0.50766 0.12668 0.51678
 C1236 C 0.52570 0.11518 0.51757
 C1237 C 0.54062 0.12042 0.53195
 C1238 C 0.53756 0.13672 0.54515
 C1239 C 0.51643 0.16478 0.55781
 C1240 C 0.51378 0.17884 0.56919
 H1241 H 0.49063 0.15160 0.52917
 H1242 H 0.49575 0.12308 0.50608
 H1243 H 0.55476 0.11209 0.53297
 H1244 H 0.54924 0.14053 0.55608
 C1245 C -0.01984 0.14615 0.45532
 C1246 C -0.00646 0.14310 0.47148
 C1247 C -0.00891 0.12635 0.48426
 C1248 C -0.02481 0.11236 0.48104
 C1249 C -0.03823 0.11564 0.46476
 C1250 C -0.03574 0.13241 0.45201
 C1251 C -0.01711 0.16327 0.44206
 C1252 C -0.01469 0.17759 0.43094
 H1253 H 0.00593 0.15363 0.47416
 H1254 H 0.00181 0.12435 0.49649
 H1255 H -0.05073 0.10535 0.46184
 H1256 H -0.04621 0.13464 0.43954
 C1257 C 0.48038 0.64703 0.95615
 C1258 C 0.46245 0.63562 0.95514
 C1259 C 0.45943 0.61926 0.96830
 C1260 C 0.47434 0.61407 0.98269
 C1261 C 0.49233 0.62568 0.98356
 C1262 C 0.49531 0.64202 0.97038
 C1263 C 0.48347 0.66389 0.94262
 C1264 C 0.48606 0.67802 0.93131
 H1265 H 0.45077 0.63939 0.94420
 H1266 H 0.44534 0.61085 0.96722
 H1267 H 0.50423 0.62211 0.99428
 H1268 H 0.50928 0.65074 0.97127
 C1269 C 0.51994 0.85233 0.95709
 C1270 C 0.53431 0.86733 0.95254
 C1271 C 0.53748 0.88353 0.96584
 C1272 C 0.52629 0.88497 0.98393
 C1273 C 0.51184 0.86979 0.98834
 C1274 C 0.50871 0.85360 0.97501
 C1275 C 0.51673 0.83563 0.94341
 C1276 C 0.51404 0.82163 0.93197
 H1277 H 0.54307 0.86651 0.93868
 H1278 H 0.54861 0.89495 0.96180
 H1279 H 0.50303 0.87023 1.00213
 H1280 H 0.49756 0.84204 0.97870
 C1281 C 0.01913 0.35274 0.45634
 C1282 C 0.03707 0.36413 0.45531
 C1283 C 0.04011 0.38051 0.46843
 C1284 C 0.02521 0.38573 0.48281
 C1285 C 0.00721 0.37414 0.48370
 C1286 C 0.00422 0.35777 0.47055
 C1287 C 0.01602 0.33588 0.44282
 C1288 C 0.01339 0.32176 0.43151
 H1289 H 0.04874 0.36034 0.44437
 H1290 H 0.05421 0.38891 0.46734
 H1291 H -0.00468 0.37772 0.49440
 H1292 H -0.00975 0.34907 0.47145
 C1293 C 0.35321 0.54292 0.47954
 C1294 C 0.35501 0.52491 0.49063
 C1295 C 0.37157 0.51199 0.48743
 C1296 C 0.38660 0.51691 0.47306
 C1297 C 0.38460 0.53508 0.46199
 C1298 C 0.36802 0.54797 0.46522
 C1299 C 0.33617 0.55623 0.48285
 C1300 C 0.32192 0.56741 0.48561
 H1301 H 0.34360 0.52084 0.50173
 H1302 H 0.37245 0.49811 0.49615
 H1303 H 0.39587 0.53950 0.45092
 H1304 H 0.36679 0.56191 0.45657
 C1305 C 0.85292 0.04226 -0.02113
 C1306 C 0.85829 0.02785 -0.00653
 C1307 C 0.87468 0.01475 -0.00990
 C1308 C 0.88597 0.01589 -0.02796
 C1309 C 0.88041 0.03047 -0.04254
 C1310 C 0.86401 0.04354 -0.03913
 C1311 C 0.83605 0.05573 -0.01766
 C1312 C 0.82191 0.06703 -0.01480
 H1313 H 0.84982 0.02675 0.00748
 H1314 H 0.87853 0.00389 0.00175
 H1315 H 0.88857 0.03176 -0.05667
 H1316 H 0.85996 0.05463 -0.05055
 C1317 C 0.64717 0.04214 0.02156
 C1318 C 0.64179 0.02772 0.00697
 C1319 C 0.62537 0.01463 0.01035
 C1320 C 0.61407 0.01579 0.02840
 C1321 C 0.61964 0.03037 0.04296
 C1322 C 0.63607 0.04344 0.03955
 C1323 C 0.66407 0.05562 0.01807
 C1324 C 0.67821 0.06693 0.01519
 H1325 H 0.65026 0.02661 -0.00703
 H1326 H 0.62151 0.00376 -0.00129
 H1327 H 0.61148 0.03167 0.05709
 H1328 H 0.64013 0.05453 0.05096
 C1329 C 0.14638 0.54269 0.52064
 C1330 C 0.13153 0.54776 0.53490
 C1331 C 0.11495 0.53486 0.53814
 C1332 C 0.11296 0.51665 0.52713
 C1333 C 0.12801 0.51171 0.51281
 C1334 C 0.14459 0.52464 0.50960
 C1335 C 0.16343 0.55601 0.51732
 C1336 C 0.17768 0.56722 0.51458
 H1337 H 0.13275 0.56172 0.54350
 H1338 H 0.10366 0.53930 0.54917
 H1339 H 0.12715 0.49781 0.50414
 H1340 H 0.15602 0.52055 0.49854
 C1341 C 0.14689 0.45759 -0.02117
 C1342 C 0.14151 0.47197 -0.00656
 C1343 C 0.12512 0.48507 -0.00993
 C1344 C 0.11384 0.48397 -0.02800
 C1345 C 0.11941 0.46942 -0.04259
 C1346 C 0.13581 0.45634 -0.03918
 C1347 C 0.16377 0.44413 -0.01770
 C1348 C 0.17791 0.43283 -0.01483
 H1349 H 0.14997 0.47305 0.00747
 H1350 H 0.12126 0.49592 0.00173
 H1351 H 0.11126 0.46816 -0.05674
 H1352 H 0.13987 0.44528 -0.05062
 C1353 C 0.64619 0.95793 0.47944
 C1354 C 0.64201 0.97342 0.49330
 C1355 C 0.62528 0.98619 0.49037
 C1356 C 0.61244 0.98364 0.47350
 C1357 C 0.61683 0.96801 0.45964
 C1358 C 0.63358 0.95526 0.46261
 C1359 C 0.66335 0.94473 0.48255
 C1360 C 0.67771 0.93365 0.48520
 H1361 H 0.65165 0.97560 0.50641
 H1362 H 0.62237 0.99791 0.50146
 H1363 H 0.60745 0.96562 0.44642
 H1364 H 0.63669 0.94333 0.45176
 C1365 C 0.85511 0.95687 0.51881
 C1366 C 0.86663 0.95536 0.53653
 C1367 C 0.88390 0.96749 0.53916
 C1368 C 0.88991 0.98135 0.52407
 C1369 C 0.87811 0.98283 0.50635
 C1370 C 0.86086 0.97066 0.50376
 C1371 C 0.83756 0.94410 0.51597
 C1372 C 0.82294 0.93328 0.51355
 H1373 H 0.86230 0.94474 0.54830
 H1374 H 0.89243 0.96600 0.55307
 H1375 H 0.88226 0.99317 0.49434
 H1376 H 0.85206 0.97193 0.48996
 C1377 C 0.35320 0.45720 0.02085
 C1378 C 0.35500 0.47521 0.00976
 C1379 C 0.37158 0.48816 0.01295
 C1380 C 0.38661 0.48326 0.02732
 C1381 C 0.38461 0.46508 0.03839
 C1382 C 0.36803 0.45216 0.03516
 C1383 C 0.33616 0.44387 0.01753
 C1384 C 0.32190 0.43266 0.01477
 H1385 H 0.34358 0.47927 -0.00134
 H1386 H 0.37245 0.50203 0.00424
 H1387 H 0.39589 0.46066 0.04945
 H1388 H 0.36680 0.43823 0.04380
 C1389 C 0.54486 0.47895 0.35255
 C1390 C 0.53086 0.49396 0.35803
 C1391 C 0.51774 0.49083 0.37437
 C1392 C 0.51845 0.47260 0.38551
 C1393 C 0.53262 0.45760 0.37984
 C1394 C 0.54571 0.46077 0.36348
 C1395 C 0.55837 0.48222 0.33574
 C1396 C 0.56968 0.48499 0.32166
 H1397 H 0.53010 0.50811 0.34968
 H1398 H 0.50722 0.50281 0.37831
 H1399 H 0.53355 0.44333 0.38789
 H1400 H 0.55648 0.44903 0.35935
 C1401 C 0.04480 -0.02133 0.85207
 C1402 C 0.04559 -0.03957 0.86290
 C1403 C 0.03245 -0.04282 0.87920
 C1404 C 0.01829 -0.02784 0.88491
 C1405 C 0.01764 -0.00953 0.87388
 C1406 C 0.03081 -0.00633 0.85760
 C1407 C 0.05833 -0.01802 0.83528
 C1408 C 0.06965 -0.01523 0.82122
 H1409 H 0.05635 -0.05131 0.85872
 H1410 H 0.03333 -0.05715 0.88716
 H1411 H 0.00712 0.00243 0.87787
 H1412 H 0.03010 0.00787 0.84933
 C1413 C 0.04558 0.01937 0.64650
 C1414 C 0.02924 0.00618 0.64308
 C1415 C 0.01660 0.00898 0.62630
 C1416 C 0.02014 0.02503 0.61266
 C1417 C 0.03660 0.03826 0.61632
 C1418 C 0.04921 0.03542 0.63311
 C1419 C 0.05874 0.01634 0.66363
 C1420 C 0.06984 0.01378 0.67791
 H1421 H 0.02628 -0.00629 0.65337
 H1422 H 0.00404 -0.00142 0.62413
 H1423 H 0.03995 0.05069 0.60616
 H1424 H 0.06185 0.04570 0.63560
 C1425 C 0.54500 0.52118 0.14783
 C1426 C 0.53097 0.50617 0.14234
 C1427 C 0.51785 0.50931 0.12600
 C1428 C 0.51858 0.52755 0.11488
 C1429 C 0.53277 0.54255 0.12056
 C1430 C 0.54587 0.53937 0.13692
 C1431 C 0.55850 0.51790 0.16465
 C1432 C 0.56981 0.51512 0.17874
 H1433 H 0.53020 0.49201 0.15068
 H1434 H 0.50730 0.49734 0.12205
 H1435 H 0.53372 0.55683 0.11253
 H1436 H 0.55666 0.55111 0.14106
 C1437 C 0.45500 -0.02120 0.14821
 C1438 C 0.46907 -0.00624 0.14269
 C1439 C 0.48224 -0.00948 0.12642
 C1440 C 0.48153 -0.02777 0.11540
 C1441 C 0.46728 -0.04272 0.12109
 C1442 C 0.45413 -0.03944 0.13738
 C1443 C 0.44148 -0.01785 0.16498
 C1444 C 0.43016 -0.01504 0.17904
 H1445 H 0.46984 0.00795 0.15096
 H1446 H 0.49283 0.00245 0.12245
 H1447 H 0.46634 -0.05704 0.11313
 H1448 H 0.44332 -0.05114 0.14154
 C1449 C 0.95449 0.47907 0.64755
 C1450 C 0.96851 0.49407 0.64202
 C1451 C 0.98164 0.49089 0.62570
 C1452 C 0.98092 0.47262 0.61464
 C1453 C 0.96673 0.45763 0.62035
 C1454 C 0.95363 0.46086 0.63669
 C1455 C 0.94099 0.48239 0.66434
 C1456 C 0.92968 0.48521 0.67841
 H1457 H 0.96928 0.50826 0.65030
 H1458 H 0.99218 0.50286 0.62171
 H1459 H 0.96579 0.44333 0.61237
 H1460 H 0.94285 0.44912 0.64087
 C1461 C 0.95491 0.52135 0.85202
 C1462 C 0.96894 0.50636 0.85751
 C1463 C 0.98213 0.50955 0.87379
 C1464 C 0.98148 0.52782 0.88484
 C1465 C 0.96728 0.54279 0.87918
 C1466 C 0.95411 0.53956 0.86288
 C1467 C 0.94134 0.51804 0.83526
 C1468 C 0.92998 0.51526 0.82121
 H1469 H 0.96966 0.49218 0.84922
 H1470 H 0.99269 0.49760 0.87774
 H1471 H 0.96638 0.55710 0.88716
 H1472 H 0.94332 0.55129 0.85874
 C1473 C 0.45454 0.02034 0.35346
 C1474 C 0.45047 0.03598 0.36718
 C1475 C 0.46325 0.03911 0.38378
 C1476 C 0.48034 0.02660 0.38692
 C1477 C 0.48430 0.01092 0.37299
 C1478 C 0.47148 0.00783 0.35639
 C1479 C 0.44129 0.01710 0.33644
 C1480 C 0.43012 0.01441 0.32222
 H1481 H 0.43736 0.04574 0.36508
 H1482 H 0.45957 0.05122 0.39420
 H1483 H 0.49734 0.00107 0.37475
 H1484 H 0.47479 -0.00431 0.34584
   
