data_POSCAR
  _audit_creation_date              2014-09-24
  _audit_creation_method            'ToBaCCo'
  _symmetry_space_group_name_H-M    'P1'
  _symmetry_Int_Tables_number       1
  _symmetry_cell_setting            triclinic
  loop_
  _symmetry_equiv_pos_as_xyz
 x,y,z
_cell_length_a 51.9875
_cell_length_b 52.6948
_cell_length_c 36.6456
_cell_angle_alpha 90.582600
_cell_angle_beta 89.583300
_cell_angle_gamma 89.883200
loop_
  _atom_site_label
  _atom_site_type_symbol
  _atom_site_fract_x
  _atom_site_fract_y
  _atom_site_fract_z
Zr1 Zr -0.05118 -0.00114 -0.01080
 O2 O -0.08006 -0.01819 -0.04328
 O3 O -0.07328 0.01973 0.02717
 O4 O -0.07338 -0.02714 0.01945
 O5 O -0.03969 0.04979 -0.06757
 O6 O -0.04349 -0.05368 0.04370
 O7 O -0.07128 0.02570 -0.04181
 O8 O -0.04317 0.03659 0.06527
 O9 O -0.03066 -0.00733 0.03720
 O10 O -0.02871 0.03124 -0.00251
 O11 O -0.02983 -0.03444 -0.02083
 O12 O -0.02862 0.00271 -0.05864
 Zr13 Zr 0.03838 -0.00408 -0.01070
 Zr14 Zr -0.00784 -0.03935 0.02616
 Zr15 Zr -0.00497 0.03419 -0.04819
 Zr16 Zr -0.00732 0.02447 0.04407
 O17 O -0.00283 0.03752 -0.10562
 O18 O -0.00944 0.01146 0.09856
 O19 O 0.01728 0.02960 -0.00106
 O20 O 0.01561 -0.00789 0.03652
 O21 O 0.01634 -0.03672 -0.01951
 O22 O 0.01755 0.00213 -0.05842
 C23 C -0.06654 0.03351 0.05466
 C24 C -0.06351 0.04401 -0.06208
 C25 C -0.06685 -0.04651 0.03847
 O26 O -0.00644 -0.04300 0.08356
 O27 O 0.02656 -0.05787 0.03984
 O28 O 0.05850 -0.03343 0.01584
 C29 C 0.05042 -0.05287 0.03366
 O30 O -0.03925 -0.03977 -0.09467
 Zr31 Zr -0.00535 -0.02970 -0.06590
 O32 O 0.06062 -0.02338 -0.04979
 O33 O -0.01086 -0.07821 0.01167
 O34 O -0.00711 -0.06990 -0.06702
 O35 O -0.00199 -0.01870 -0.12123
 O36 O 0.03067 -0.04320 -0.08516
 C37 C 0.05405 -0.03834 -0.07598
 O38 O 0.06690 0.01091 0.02435
 O39 O -0.00551 0.07324 -0.03412
 O40 O 0.06067 0.02374 -0.03688
 O41 O 0.03090 0.05075 -0.06053
 O42 O -0.00684 0.06466 0.04746
 O43 O 0.02670 0.03727 0.07022
 C44 C 0.05426 0.04382 -0.05443
 H45 H -0.03888 0.04705 0.00029
 H46 H 0.02640 -0.01053 0.05832
 H47 H 0.02862 0.00479 -0.08013
 H48 H -0.04134 -0.04908 -0.02526
 H49 H -0.01412 0.02620 0.11426
 H50 H -0.00782 -0.06137 0.08877
 H51 H -0.01046 -0.08794 0.03467
 H52 H -0.00193 -0.07560 -0.09187
 H53 H -0.01135 0.06956 0.07291
 H54 H -0.00545 0.08273 -0.05733
 H55 H -0.00169 0.05590 -0.11085
 H56 H 0.00239 -0.03411 -0.13571
 H57 H 0.02212 0.04554 0.09377
 H58 H 0.08386 0.00549 0.01435
 H59 H -0.09695 -0.01242 -0.03344
 H60 H -0.03489 -0.05221 -0.11419
 Zr61 Zr 0.53765 0.49595 0.49129
 O62 O 0.56483 0.51230 0.52724
 O63 O 0.56124 0.47516 0.45544
 O64 O 0.55699 0.46753 0.52085
 O65 O 0.53153 0.54913 0.43765
 O66 O 0.52445 0.44362 0.54426
 O67 O 0.56067 0.52307 0.46472
 O68 O 0.53250 0.45382 0.41986
 O69 O 0.51604 0.46298 0.48308
 O70 O 0.51847 0.50052 0.44180
 O71 O 0.51334 0.49338 0.53721
 O72 O 0.51599 0.52967 0.49749
 Zr73 Zr 0.44822 0.49812 0.48488
 Zr74 Zr 0.49045 0.46147 0.52724
 Zr75 Zr 0.49541 0.53266 0.44855
 Zr76 Zr 0.49595 0.46836 0.43481
 O77 O 0.49438 0.57210 0.46003
 O78 O 0.49376 0.42819 0.43564
 O79 O 0.47231 0.50075 0.43837
 O80 O 0.47006 0.46476 0.47848
 O81 O 0.46702 0.49353 0.53468
 O82 O 0.47022 0.53087 0.49277
 C83 C 0.55553 0.45889 0.43046
 C84 C 0.55470 0.54260 0.44565
 C85 C 0.54846 0.44852 0.53919
 O86 O 0.48819 0.42220 0.51496
 O87 O 0.45436 0.44736 0.54307
 O88 O 0.42515 0.47296 0.51537
 C89 C 0.43118 0.45415 0.53585
 O90 O 0.52286 0.53978 0.56872
 Zr91 Zr 0.48989 0.52567 0.54125
 O92 O 0.42476 0.52049 0.51912
 O93 O 0.48994 0.45954 0.58487
 O94 O 0.48634 0.51415 0.59632
 O95 O 0.48962 0.56592 0.54239
 O96 O 0.45313 0.53764 0.55962
 C97 C 0.43031 0.53457 0.54682
 O98 O 0.42063 0.47978 0.45159
 O99 O 0.49934 0.53416 0.39112
 O100 O 0.42907 0.52380 0.45093
 O101 O 0.46127 0.54769 0.42633
 O102 O 0.50186 0.47758 0.37918
 O103 O 0.46310 0.45773 0.40410
 C104 C 0.43735 0.54184 0.43058
 H105 H 0.53033 0.50250 0.42077
 H106 H 0.45879 0.44992 0.47418
 H107 H 0.45993 0.54668 0.49397
 H108 H 0.52342 0.49148 0.55985
 H109 H 0.49971 0.42181 0.41148
 H110 H 0.48783 0.41317 0.53856
 H111 H 0.48847 0.44134 0.59111
 H112 H 0.48091 0.52922 0.61085
 H113 H 0.50672 0.46169 0.36615
 H114 H 0.50058 0.55235 0.38477
 H115 H 0.49514 0.58086 0.43625
 H116 H 0.48404 0.57140 0.56717
 H117 H 0.46812 0.44500 0.38529
 H118 H 0.40340 0.48573 0.45983
 H119 H 0.58212 0.50665 0.51883
 H120 H 0.51741 0.54869 0.59142
 Zr121 Zr 0.54557 -0.00311 0.51084
 O122 O 0.57643 0.01824 0.48897
 O123 O 0.56521 -0.02786 0.54613
 O124 O 0.56309 0.02101 0.54993
 O125 O 0.54215 -0.04461 0.43742
 O126 O 0.52935 0.04195 0.57658
 O127 O 0.56994 -0.02478 0.47613
 O128 O 0.53274 -0.05017 0.57276
 O129 O 0.52047 -0.00430 0.55581
 O130 O 0.52455 -0.03669 0.50521
 O131 O 0.52270 0.02981 0.50706
 O132 O 0.52751 -0.00110 0.45932
 Zr133 Zr 0.45619 -0.00380 0.49576
 Zr134 Zr 0.49649 0.02747 0.55056
 Zr135 Zr 0.50521 -0.03415 0.45583
 Zr136 Zr 0.49864 -0.03719 0.54864
 O137 O 0.50768 -0.02973 0.39858
 O138 O 0.49431 -0.03188 0.60579
 O139 O 0.47867 -0.03706 0.49899
 O140 O 0.47433 -0.00557 0.54683
 O141 O 0.47675 0.03012 0.50116
 O142 O 0.48142 -0.00252 0.45117
 C143 C 0.55670 -0.04503 0.56795
 C144 C 0.56497 -0.03951 0.44877
 C145 C 0.55359 0.03773 0.57223
 O146 O 0.49116 0.02285 0.60738
 O147 O 0.45975 0.04124 0.56516
 O148 O 0.43227 0.02121 0.52605
 C149 C 0.43721 0.03708 0.55206
 O150 O 0.53809 0.04551 0.43814
 Zr151 Zr 0.50272 0.03050 0.45767
 O152 O 0.43629 0.01972 0.45992
 O153 O 0.49672 0.06759 0.54836
 O154 O 0.50248 0.07009 0.46870
 O155 O 0.50451 0.02678 0.40003
 O156 O 0.46775 0.04556 0.43785
 C157 C 0.44404 0.03874 0.44115
 O158 O 0.42561 -0.02384 0.52069
 O159 O 0.50800 -0.07421 0.45762
 O160 O 0.43836 -0.02923 0.45877
 O161 O 0.47216 -0.05100 0.43361
 O162 O 0.50100 -0.07695 0.53958
 O163 O 0.46350 -0.05491 0.56378
 C164 C 0.44792 -0.04667 0.43768
 H165 H 0.53548 -0.05210 0.50503
 H166 H 0.46153 -0.00646 0.56692
 H167 H 0.47239 -0.00272 0.42747
 H168 H 0.53334 0.04533 0.50874
 H169 H 0.49848 -0.04822 0.61754
 H170 H 0.49051 0.04012 0.61830
 H171 H 0.49389 0.07396 0.57362
 H172 H 0.49922 0.07884 0.44536
 H173 H 0.50356 -0.08507 0.56357
 H174 H 0.51060 -0.08027 0.43217
 H175 H 0.50834 -0.04703 0.38777
 H176 H 0.50004 0.04352 0.38973
 H177 H 0.46652 -0.06633 0.58462
 H178 H 0.40944 -0.01779 0.50946
 H179 H 0.59254 0.01184 0.50002
 H180 H 0.53460 0.05963 0.42124
 Zr181 Zr -0.04398 0.49556 -0.00653
 O182 O -0.07432 0.47505 0.01815
 O183 O -0.06417 0.51924 -0.04173
 O184 O -0.06795 0.52016 0.02439
 O185 O -0.02801 0.44919 -0.06979
 O186 O -0.04043 0.54000 0.06366
 O187 O -0.06177 0.47054 -0.04416
 O188 O -0.03315 0.54566 -0.06312
 O189 O -0.02364 0.52957 -0.00060
 O190 O -0.01897 0.49744 -0.05128
 O191 O -0.02564 0.49345 0.04437
 O192 O -0.02134 0.46239 -0.00413
 Zr193 Zr 0.04541 0.49661 0.00781
 Zr194 Zr -0.00365 0.52657 0.04855
 Zr195 Zr 0.00503 0.46590 -0.04739
 Zr196 Zr 0.00210 0.53053 -0.04429
 O197 O 0.00796 0.42583 -0.04647
 O198 O 0.00184 0.57001 -0.03247
 O199 O 0.02713 0.49905 -0.04350
 O200 O 0.02233 0.52946 0.00487
 O201 O 0.02052 0.49488 0.05296
 O202 O 0.02457 0.46298 0.00176
 C203 C -0.05689 0.53872 -0.05998
 C204 C -0.05233 0.45338 -0.06590
 C205 C -0.06299 0.53584 0.05065
 O206 O -0.00369 0.56672 0.04717
 O207 O 0.02926 0.54104 0.07448
 O208 O 0.06299 0.52053 0.04709
 C209 C 0.05350 0.53702 0.06976
 O210 O -0.03615 0.44387 0.06037
 Zr211 Zr -0.00117 0.46194 0.04536
 O212 O 0.06534 0.47173 0.04260
 O213 O -0.00868 0.52137 0.10531
 O214 O -0.00535 0.46667 0.10263
 O215 O 0.00144 0.42227 0.03557
 O216 O 0.03310 0.44900 0.06902
 C217 C 0.05701 0.45434 0.06419
 O218 O 0.07607 0.51826 -0.01404
 O219 O 0.00736 0.47088 -0.10454
 O220 O 0.06974 0.47523 -0.02735
 O221 O 0.04196 0.45571 -0.06617
 O222 O 0.00344 0.52747 -0.10203
 O223 O 0.03728 0.54586 -0.06403
 C224 C 0.06489 0.46059 -0.05493
 H225 H -0.02808 0.49745 -0.07491
 H226 H 0.03290 0.54502 0.00673
 H227 H 0.03557 0.44762 0.00123
 H228 H -0.03837 0.49229 0.06452
 H229 H -0.00170 0.57897 -0.05556
 H230 H -0.00646 0.57282 0.07257
 H231 H -0.00941 0.53854 0.11656
 H232 H -0.00105 0.45024 0.11402
 H233 H -0.00126 0.54430 -0.11184
 H234 H 0.00801 0.45369 -0.11571
 H235 H 0.01048 0.42004 -0.07207
 H236 H 0.00413 0.41396 0.05939
 H237 H 0.03360 0.56012 -0.08059
 H238 H 0.09225 0.51185 -0.00323
 H239 H -0.09057 0.48110 0.00714
 H240 H -0.03300 0.43226 0.08094
 Zr241 Zr 0.04784 0.50958 0.50547
 O242 O 0.07617 0.48993 0.53540
 O243 O 0.07036 0.53415 0.47394
 O244 O 0.07187 0.48757 0.47080
 O245 O 0.03272 0.55222 0.57468
 O246 O 0.04356 0.46485 0.43639
 O247 O 0.06604 0.53341 0.54384
 O248 O 0.04079 0.55509 0.43971
 O249 O 0.02891 0.50907 0.45527
 O250 O 0.02447 0.54192 0.50496
 O251 O 0.02735 0.47523 0.50444
 O252 O 0.02379 0.50690 0.55205
 Zr253 Zr -0.04163 0.50485 0.49869
 Zr254 Zr 0.00696 0.47586 0.45545
 Zr255 Zr -0.00070 0.53851 0.54916
 Zr256 Zr 0.00466 0.54064 0.45598
 O257 O -0.00421 0.53447 0.60637
 O258 O 0.00782 0.53482 0.39879
 O259 O -0.02137 0.53950 0.50015
 O260 O -0.01738 0.50747 0.45269
 O261 O -0.01853 0.47230 0.49946
 O262 O -0.02248 0.50536 0.54868
 C263 C 0.06404 0.55046 0.44970
 C264 C 0.05688 0.54851 0.56860
 C265 C 0.06652 0.47105 0.44583
 O266 O 0.00710 0.47951 0.39801
 O267 O -0.02624 0.45832 0.43501
 O268 O -0.05972 0.47820 0.46395
 C269 C -0.05038 0.46137 0.44173
 O270 O 0.03473 0.46129 0.57645
 Zr271 Zr 0.00144 0.47373 0.54840
 O272 O -0.06426 0.48043 0.53018
 O273 O 0.01116 0.43597 0.45859
 O274 O 0.00518 0.43417 0.53847
 O275 O -0.00454 0.47758 0.60550
 O276 O -0.03445 0.45669 0.55996
 C277 C -0.05777 0.46206 0.55106
 O278 O -0.06980 0.52254 0.46610
 O279 O -0.00146 0.57860 0.54638
 O280 O -0.06544 0.52962 0.52956
 O281 O -0.03731 0.55217 0.56469
 O282 O 0.00375 0.58055 0.46408
 O283 O -0.02915 0.55621 0.43273
 C284 C -0.06016 0.54664 0.55388
 H285 H 0.03427 0.55796 0.50695
 H286 H -0.02750 0.50729 0.42990
 H287 H -0.03436 0.50501 0.56991
 H288 H 0.03920 0.46053 0.50542
 H289 H 0.01244 0.55132 0.38783
 H290 H 0.00933 0.46219 0.38768
 H291 H 0.01179 0.42933 0.43319
 H292 H -0.00042 0.42536 0.56092
 H293 H 0.00882 0.58849 0.44071
 H294 H -0.00229 0.58506 0.57186
 H295 H -0.00607 0.55180 0.61681
 H296 H -0.00890 0.46054 0.61491
 H297 H -0.02432 0.56759 0.41249
 H298 H -0.08676 0.51566 0.47362
 H299 H 0.09314 0.49703 0.52835
 H300 H 0.03019 0.44684 0.59229
 Zr301 Zr 0.45835 0.00505 -0.00187
 O302 O 0.43004 0.02272 -0.03426
 O303 O 0.43586 -0.01941 0.02979
 O304 O 0.44016 -0.02148 -0.03671
 O305 O 0.46283 0.05270 0.06371
 O306 O 0.47360 -0.04163 -0.06537
 O307 O 0.43462 0.02988 0.02903
 O308 O 0.46578 -0.04279 0.05991
 O309 O 0.48146 -0.02748 -0.00076
 O310 O 0.47764 0.00594 0.04801
 O311 O 0.48249 0.00734 -0.04804
 O312 O 0.47860 0.03972 -0.00104
 Zr313 Zr 0.54778 0.00988 0.00433
 Zr314 Zr 0.50686 -0.02424 -0.04495
 Zr315 Zr 0.49942 0.03913 0.04789
 Zr316 Zr 0.50158 -0.02566 0.04808
 O317 O 0.49826 0.07918 0.04454
 O318 O 0.50547 -0.06528 0.03884
 O319 O 0.52393 0.00755 0.05114
 O320 O 0.52736 -0.02449 0.00395
 O321 O 0.52877 0.00899 -0.04578
 O322 O 0.52439 0.04219 0.00341
 C323 C 0.44244 -0.03763 0.05087
 C324 C 0.43995 0.04702 0.05317
 C325 C 0.44946 -0.03834 -0.05891
 O326 O 0.51074 -0.06412 -0.04113
 O327 O 0.54345 -0.03563 -0.06369
 O328 O 0.57178 -0.01238 -0.03004
 C329 C 0.56641 -0.02926 -0.05450
 O330 O 0.47058 0.05586 -0.06872
 Zr331 Zr 0.50448 0.04054 -0.04542
 O332 O 0.57022 0.03414 -0.02774
 O333 O 0.50719 -0.02101 -0.10244
 O334 O 0.50755 0.03429 -0.10253
 O335 O 0.50350 0.08050 -0.03802
 O336 O 0.54057 0.05496 -0.06200
 C337 C 0.56383 0.05036 -0.05205
 O338 O 0.57614 -0.00945 0.03464
 O339 O 0.49644 0.03538 0.10519
 O340 O 0.56612 0.03428 0.04174
 O341 O 0.53298 0.05352 0.07244
 O342 O 0.49559 -0.02146 0.10513
 O343 O 0.53497 -0.03772 0.07623
 C344 C 0.55712 0.04986 0.06597
 H345 H 0.46582 0.00567 0.06930
 H346 H 0.53921 -0.03918 0.00515
 H347 H 0.53412 0.05828 0.00498
 H348 H 0.47235 0.00704 -0.07081
 H349 H 0.49997 -0.07393 0.06148
 H350 H 0.51140 -0.07096 -0.06642
 H351 H 0.50933 -0.03842 -0.11250
 H352 H 0.51214 0.05071 -0.11376
 H353 H 0.49135 -0.03846 0.11478
 H354 H 0.49453 0.05276 0.11544
 H355 H 0.49756 0.08582 0.06992
 H356 H 0.50848 0.08825 -0.06156
 H357 H 0.53052 -0.05205 0.09235
 H358 H 0.59310 -0.00244 0.02736
 H359 H 0.41310 0.01585 -0.02660
 H360 H 0.47532 0.06703 -0.08926
 Zr361 Zr 0.45398 0.49472 -0.00386
 O362 O 0.42218 0.51330 0.02122
 O363 O 0.43560 0.47201 -0.04327
 O364 O 0.43520 0.51947 -0.03976
 O365 O 0.45959 0.44767 0.06066
 O366 O 0.46731 0.54469 -0.06153
 O367 O 0.43079 0.46980 0.02667
 O368 O 0.46902 0.45342 -0.07404
 O369 O 0.47905 0.49832 -0.04848
 O370 O 0.47675 0.46202 -0.00453
 O371 O 0.47461 0.52837 0.00600
 O372 O 0.47167 0.49357 0.04782
 Zr373 Zr 0.54309 0.49762 0.01169
 Zr374 Zr 0.50103 0.53074 -0.03722
 Zr375 Zr 0.49590 0.46175 0.04512
 Zr376 Zr 0.50257 0.46623 -0.04756
 O377 O 0.49314 0.46168 0.10276
 O378 O 0.50633 0.47617 -0.10327
 O379 O 0.52256 0.46372 0.00195
 O380 O 0.52498 0.49875 -0.03952
 O381 O 0.52048 0.53055 0.01255
 O382 O 0.51775 0.49410 0.05590
 C383 C 0.44483 0.45712 -0.06819
 C384 C 0.43653 0.45296 0.05054
 C385 C 0.44353 0.53805 -0.05908
 O386 O 0.50737 0.53107 -0.09429
 O387 O 0.53688 0.54793 -0.04770
 O388 O 0.56590 0.52468 -0.01565
 C389 C 0.55994 0.54289 -0.03728
 O390 O 0.45792 0.53715 0.07706
 Zr391 Zr 0.49435 0.52613 0.05541
 O392 O 0.56137 0.52047 0.05103
 O393 O 0.49773 0.57027 -0.02746
 O394 O 0.49192 0.56623 0.05214
 O395 O 0.49295 0.51807 0.11197
 O396 O 0.52799 0.54157 0.07829
 C397 C 0.55215 0.53721 0.07339
 O398 O 0.57498 0.48069 -0.01547
 O399 O 0.49565 0.42203 0.03579
 O400 O 0.56226 0.47064 0.04423
 O401 O 0.52984 0.44505 0.06412
 O402 O 0.50270 0.42601 -0.04602
 O403 O 0.53865 0.45171 -0.06587
 C404 C 0.55374 0.45105 0.06133
 H405 H 0.46671 0.44619 -0.00732
 H406 H 0.53777 0.50003 -0.05957
 H407 H 0.52681 0.49267 0.07947
 H408 H 0.46294 0.54324 0.00689
 H409 H 0.50304 0.46066 -0.11802
 H410 H 0.50678 0.54908 -0.10177
 H411 H 0.50025 0.57871 -0.05127
 H412 H 0.49435 0.57322 0.07708
 H413 H 0.50040 0.41967 -0.07134
 H414 H 0.49340 0.41391 0.05988
 H415 H 0.49344 0.44367 0.11024
 H416 H 0.49590 0.53425 0.12532
 H417 H 0.53623 0.44188 -0.08876
 H418 H 0.59075 0.48674 -0.00302
 H419 H 0.40638 0.50697 0.00913
 H420 H 0.46033 0.55011 0.09649
 Zr421 Zr 0.04298 -0.00281 0.51102
 O422 O 0.07441 -0.01941 0.48237
 O423 O 0.06200 0.01940 0.55049
 O424 O 0.06552 0.02456 0.48384
 O425 O 0.03010 -0.05640 0.56160
 O426 O 0.03614 0.04849 0.45348
 O427 O 0.06244 -0.03069 0.54177
 O428 O 0.02910 0.04010 0.57949
 O429 O 0.02055 0.03022 0.51364
 O430 O 0.01830 -0.00696 0.55586
 O431 O 0.02408 -0.00070 0.46044
 O432 O 0.02202 -0.03638 0.50072
 Zr433 Zr -0.04646 -0.00481 0.49821
 Zr434 Zr 0.00034 0.03138 0.46448
 Zr435 Zr -0.00399 -0.03895 0.54462
 Zr436 Zr -0.00491 0.02522 0.55718
 O437 O -0.00481 -0.07850 0.53390
 O438 O -0.00713 0.06539 0.55560
 O439 O -0.02795 -0.00702 0.54922
 O440 O -0.02536 0.02848 0.50852
 O441 O -0.02212 -0.00067 0.45286
 O442 O -0.02391 -0.03765 0.49565
 C443 C 0.05316 0.03582 0.57366
 C444 C 0.05401 -0.05062 0.55820
 C445 C 0.05934 0.04314 0.46298
 O446 O -0.00268 0.07076 0.47567
 O447 O -0.03359 0.04579 0.44113
 O448 O -0.06568 0.02160 0.46534
 C449 C -0.05745 0.03999 0.44558
 O450 O 0.03695 -0.04736 0.43201
 Zr451 Zr 0.00129 -0.03288 0.45199
 O452 O -0.06557 -0.02669 0.45842
 O453 O 0.00600 0.03257 0.40730
 O454 O 0.00424 -0.02199 0.39657
 O455 O 0.00119 -0.07313 0.45215
 O456 O -0.03270 -0.04507 0.42621
 C457 C -0.05678 -0.04137 0.43288
 O458 O -0.07793 0.01309 0.52515
 O459 O -0.00570 -0.03997 0.60229
 O460 O -0.06928 -0.03011 0.52858
 O461 O -0.04015 -0.05305 0.56088
 O462 O -0.00546 0.01616 0.61344
 O463 O -0.04097 0.03607 0.58023
 C464 C -0.06332 -0.04737 0.55168
 H465 H 0.02775 -0.00886 0.57904
 H466 H -0.03682 0.04347 0.51039
 H467 H -0.03411 -0.05336 0.49262
 H468 H 0.03656 0.00080 0.44005
 H469 H -0.00441 0.07189 0.58075
 H470 H -0.00040 0.07957 0.45210
 H471 H 0.00541 0.05069 0.40039
 H472 H 0.00058 -0.03721 0.38138
 H473 H -0.00225 0.03208 0.62727
 H474 H -0.00543 -0.05811 0.60912
 H475 H -0.00671 -0.08703 0.55775
 H476 H -0.00154 -0.07904 0.42671
 H477 H -0.03821 0.04853 0.60021
 H478 H -0.09393 0.00708 0.51326
 H479 H 0.09038 -0.01365 0.49458
 H480 H 0.03410 -0.05673 0.40884
 Zr481 Zr 0.75918 0.20838 0.24691
 O482 O 0.74195 0.17777 0.27494
 O483 O 0.78169 0.18938 0.20778
 O484 O 0.73451 0.18754 0.21255
 O485 O 0.80657 0.21715 0.31168
 O486 O 0.70839 0.21768 0.18820
 O487 O 0.78663 0.18750 0.27589
 O488 O 0.80090 0.22141 0.17644
 O489 O 0.75511 0.23117 0.20091
 O490 O 0.79165 0.23166 0.24561
 O491 O 0.72436 0.22793 0.25513
 O492 O 0.75962 0.22749 0.29783
 Zr493 Zr 0.75337 0.29613 0.25773
 Zr494 Zr 0.72147 0.25224 0.21048
 Zr495 Zr 0.79115 0.25222 0.29451
 Zr496 Zr 0.78695 0.25522 0.20117
 O497 O 0.79091 0.25131 0.35221
 O498 O 0.77726 0.25687 0.14514
 O499 O 0.78858 0.27675 0.24980
 O500 O 0.75320 0.27656 0.20742
 O501 O 0.72070 0.27309 0.25929
 O502 O 0.75745 0.27304 0.30339
 C503 C 0.79690 0.19774 0.18289
 C504 C 0.80305 0.19418 0.30025
 C505 C 0.71557 0.19450 0.19249
 O506 O 0.72133 0.25591 0.15306
 O507 O 0.70344 0.28679 0.19736
 O508 O 0.72575 0.31701 0.22879
 C509 C 0.70787 0.31000 0.20677
 O510 O 0.71596 0.21361 0.32690
 Zr511 Zr 0.72577 0.24910 0.30360
 O512 O 0.72907 0.31500 0.29510
 O513 O 0.68142 0.24868 0.21977
 O514 O 0.68527 0.24513 0.30017
 O515 O 0.73341 0.25037 0.36037
 O516 O 0.70864 0.28263 0.32403
 C517 C 0.71217 0.30633 0.31753
 O518 O 0.77024 0.32683 0.22944
 O519 O 0.83143 0.25311 0.28584
 O520 O 0.77884 0.31708 0.29056
 O521 O 0.80626 0.28721 0.31277
 O522 O 0.82771 0.25619 0.20290
 O523 O 0.80079 0.29061 0.18193
 C524 C 0.79869 0.31034 0.30893
 H525 H 0.80803 0.22218 0.24311
 H526 H 0.75171 0.28840 0.18673
 H527 H 0.75824 0.28288 0.32651
 H528 H 0.70966 0.21605 0.25650
 H529 H 0.79320 0.25350 0.13088
 H530 H 0.70313 0.25470 0.14538
 H531 H 0.67301 0.24993 0.19567
 H532 H 0.67802 0.24819 0.32492
 H533 H 0.83418 0.25338 0.17767
 H534 H 0.83952 0.25211 0.31019
 H535 H 0.80909 0.25237 0.35995
 H536 H 0.71677 0.25318 0.37314
 H537 H 0.81078 0.28784 0.15912
 H538 H 0.76345 0.34275 0.24060
 H539 H 0.74860 0.16185 0.26362
 H540 H 0.70276 0.21622 0.34619
 Zr541 Zr 0.75026 0.79472 0.75840
 O542 O 0.77177 0.82468 0.78200
 O543 O 0.72615 0.81448 0.72297
 O544 O 0.77386 0.81289 0.71933
 O545 O 0.70803 0.78962 0.83109
 O546 O 0.79447 0.78008 0.69046
 O547 O 0.72729 0.81797 0.79309
 O548 O 0.70246 0.78321 0.69597
 O549 O 0.74893 0.77065 0.71257
 O550 O 0.71641 0.77361 0.76330
 O551 O 0.78393 0.77260 0.76062
 O552 O 0.75256 0.77631 0.80926
 Zr553 Zr 0.75083 0.70633 0.77029
 Zr554 Zr 0.78135 0.74720 0.71642
 Zr555 Zr 0.71949 0.75365 0.81190
 Zr556 Zr 0.71580 0.74887 0.71892
 O557 O 0.72431 0.75531 0.86915
 O558 O 0.72098 0.74544 0.66164
 O559 O 0.71678 0.72818 0.76776
 O560 O 0.74812 0.72500 0.71984
 O561 O 0.78473 0.72734 0.76521
 O562 O 0.75201 0.73061 0.81566
 C563 C 0.70869 0.80669 0.70090
 C564 C 0.71224 0.81235 0.81998
 C565 C 0.78995 0.80387 0.69554
 O566 O 0.77645 0.74214 0.65955
 O567 O 0.79582 0.71137 0.70050
 O568 O 0.77587 0.68343 0.73850
 C569 C 0.79179 0.68887 0.71264
 O570 O 0.79890 0.78766 0.83013
 Zr571 Zr 0.78499 0.75248 0.80948
 O572 O 0.77650 0.68672 0.80421
 O573 O 0.82200 0.74830 0.71830
 O574 O 0.82513 0.75387 0.79886
 O575 O 0.78172 0.75259 0.86720
 O576 O 0.80174 0.71836 0.82690
 C577 C 0.79604 0.69479 0.82234
 O578 O 0.73075 0.67603 0.74506
 O579 O 0.67882 0.75572 0.81057
 O580 O 0.72546 0.68785 0.80679
 O581 O 0.70280 0.72048 0.83279
 O582 O 0.67559 0.75079 0.72878
 O583 O 0.69780 0.71450 0.70235
 C584 C 0.70746 0.69669 0.82780
 H585 H 0.70070 0.78424 0.76367
 H586 H 0.74719 0.71264 0.69937
 H587 H 0.75219 0.72125 0.83895
 H588 H 0.79948 0.78334 0.75892
 H589 H 0.70442 0.74992 0.65011
 H590 H 0.79388 0.74211 0.64841
 H591 H 0.82831 0.74611 0.69288
 H592 H 0.83407 0.75102 0.82226
 H593 H 0.66716 0.75419 0.70515
 H594 H 0.67277 0.75780 0.83614
 H595 H 0.70683 0.75560 0.88010
 H596 H 0.79900 0.74879 0.87701
 H597 H 0.68591 0.71795 0.68198
 H598 H 0.73731 0.66005 0.75570
 H599 H 0.76524 0.84075 0.77160
 H600 H 0.81302 0.78452 0.84751
 Zr601 Zr 0.24981 0.29277 0.74439
 O602 O 0.23006 0.31963 0.71230
 O603 O 0.27339 0.31630 0.77641
 O604 O 0.22534 0.31632 0.77654
 O605 O 0.29532 0.27768 0.67832
 O606 O 0.20154 0.28805 0.80921
 O607 O 0.27441 0.31063 0.70652
 O608 O 0.29458 0.28838 0.81271
 O609 O 0.24829 0.27503 0.79522
 O610 O 0.28319 0.27069 0.74777
 O611 O 0.21573 0.27131 0.74376
 O612 O 0.24924 0.26795 0.69861
 Zr613 Zr 0.24751 0.20437 0.75413
 Zr614 Zr 0.21541 0.25216 0.79349
 Zr615 Zr 0.28185 0.24484 0.70440
 Zr616 Zr 0.28101 0.25209 0.79737
 O617 O 0.27968 0.24012 0.64709
 O618 O 0.27323 0.25659 0.85395
 O619 O 0.28199 0.22546 0.75420
 O620 O 0.24807 0.22932 0.79928
 O621 O 0.21388 0.22601 0.75031
 O622 O 0.24900 0.22230 0.70351
 C623 C 0.28971 0.31096 0.80144
 C624 C 0.29060 0.30151 0.68299
 C625 C 0.20732 0.31071 0.79945
 O626 O 0.21746 0.25443 0.85106
 O627 O 0.19859 0.21933 0.81496
 O628 O 0.22036 0.18636 0.78835
 C629 C 0.20268 0.19549 0.80960
 O630 O 0.20331 0.27667 0.67076
 Zr631 Zr 0.21630 0.24486 0.70076
 O632 O 0.22447 0.18063 0.72184
 O633 O 0.17498 0.25403 0.78750
 O634 O 0.17585 0.24724 0.70802
 O635 O 0.22233 0.23827 0.64415
 O636 O 0.20075 0.20868 0.68900
 C637 C 0.20657 0.18604 0.69913
 O638 O 0.26547 0.17780 0.78871
 O639 O 0.32234 0.24545 0.70991
 O640 O 0.27409 0.18111 0.72559
 O641 O 0.29720 0.20886 0.69099
 O642 O 0.32165 0.25184 0.79176
 O643 O 0.29686 0.21983 0.82342
 C644 C 0.29184 0.18635 0.70213
 H645 H 0.29921 0.28076 0.74630
 H646 H 0.24755 0.21988 0.82249
 H647 H 0.24966 0.21021 0.68267
 H648 H 0.20046 0.28238 0.74118
 H649 H 0.28946 0.26189 0.86579
 H650 H 0.19954 0.25601 0.86019
 H651 H 0.16741 0.25505 0.81238
 H652 H 0.16780 0.24095 0.68523
 H653 H 0.32895 0.25756 0.81535
 H654 H 0.32969 0.24439 0.68491
 H655 H 0.29760 0.23862 0.63788
 H656 H 0.20560 0.23310 0.63365
 H657 H 0.30758 0.22545 0.84421
 H658 H 0.25925 0.16071 0.78142
 H659 H 0.23660 0.33668 0.71925
 H660 H 0.18934 0.27133 0.65416
 Zr661 Zr 0.24865 0.70887 0.24544
 O662 O 0.26694 0.67699 0.22084
 O663 O 0.22534 0.69141 0.28502
 O664 O 0.27401 0.69027 0.28130
 O665 O 0.20083 0.71426 0.18036
 O666 O 0.29872 0.72225 0.30421
 O667 O 0.22312 0.68610 0.21505
 O668 O 0.20629 0.72486 0.31447
 O669 O 0.25191 0.73395 0.28982
 O670 O 0.21570 0.73170 0.24482
 O671 O 0.28300 0.72887 0.23616
 O672 O 0.24813 0.72592 0.19344
 Zr673 Zr 0.25261 0.79656 0.22893
 Zr674 Zr 0.28507 0.75524 0.27914
 Zr675 Zr 0.21602 0.75016 0.19480
 Zr676 Zr 0.21964 0.75751 0.28758
 O677 O 0.21670 0.74616 0.13731
 O678 O 0.22894 0.76193 0.34353
 O679 O 0.21783 0.77682 0.23773
 O680 O 0.25290 0.77918 0.28034
 O681 O 0.28576 0.77399 0.22916
 O682 O 0.24927 0.77125 0.18486
 C683 C 0.21006 0.70093 0.30938
 C684 C 0.20596 0.69158 0.19117
 C685 C 0.29252 0.69870 0.30127
 O686 O 0.28475 0.76175 0.33620
 O687 O 0.30251 0.79046 0.29006
 O688 O 0.27968 0.81916 0.25717
 C689 C 0.29770 0.81321 0.27954
 O690 O 0.29225 0.71166 0.16548
 Zr691 Zr 0.28147 0.74793 0.18644
 O692 O 0.27660 0.81407 0.19040
 O693 O 0.32522 0.75174 0.27049
 O694 O 0.32203 0.74489 0.19067
 O695 O 0.27404 0.74643 0.12963
 O696 O 0.29802 0.78083 0.16394
 C697 C 0.29382 0.80474 0.16870
 O698 O 0.23509 0.82831 0.25495
 O699 O 0.17570 0.75119 0.20319
 O700 O 0.22647 0.81545 0.19479
 O701 O 0.20035 0.78388 0.17372
 O702 O 0.17889 0.75767 0.28506
 O703 O 0.20491 0.79344 0.30450
 C704 C 0.20705 0.80737 0.17635
 H705 H 0.19953 0.72199 0.24756
 H706 H 0.25403 0.79192 0.30030
 H707 H 0.24835 0.77999 0.16111
 H708 H 0.29800 0.71728 0.23574
 H709 H 0.21299 0.75903 0.35785
 H710 H 0.30291 0.76120 0.34421
 H711 H 0.33352 0.75431 0.29451
 H712 H 0.32939 0.74698 0.16586
 H713 H 0.17222 0.75587 0.31031
 H714 H 0.16768 0.74883 0.17894
 H715 H 0.19856 0.74677 0.12924
 H716 H 0.29066 0.74903 0.11680
 H717 H 0.19463 0.79145 0.32714
 H718 H 0.24162 0.84375 0.24270
 H719 H 0.26032 0.66161 0.23317
 H720 H 0.30555 0.71367 0.14624
 Zr721 Zr 0.25276 0.79566 0.75565
 O722 O 0.27046 0.82344 0.72255
 O723 O 0.22870 0.81781 0.78972
 O724 O 0.22563 0.81484 0.72381
 O725 O 0.30538 0.78978 0.81169
 O726 O 0.20214 0.78317 0.69757
 O727 O 0.27865 0.81848 0.78522
 O728 O 0.20811 0.78824 0.82410
 O729 O 0.21953 0.77370 0.76112
 O730 O 0.25641 0.77614 0.80467
 O731 O 0.25188 0.77229 0.70871
 O732 O 0.28737 0.77487 0.75027
 Zr733 Zr 0.25617 0.70749 0.75928
 Zr734 Zr 0.21949 0.74931 0.71585
 Zr735 Zr 0.28954 0.75409 0.79873
 Zr736 Zr 0.22419 0.75310 0.80894
 O737 O 0.32976 0.75388 0.78929
 O738 O 0.18357 0.74992 0.80648
 O739 O 0.25750 0.73053 0.80664
 O740 O 0.22190 0.72845 0.76413
 O741 O 0.25243 0.72657 0.70973
 O742 O 0.28921 0.72968 0.75370
 C743 C 0.21185 0.81118 0.81371
 C744 C 0.29831 0.81265 0.80462
 C745 C 0.20732 0.80680 0.70330
 O746 O 0.17944 0.74724 0.72600
 O747 O 0.20583 0.71364 0.69881
 O748 O 0.23134 0.68483 0.72744
 C749 C 0.21266 0.69077 0.70621
 O750 O 0.29971 0.78242 0.67983
 Zr751 Zr 0.28491 0.74949 0.70553
 O752 O 0.27911 0.68496 0.72509
 O753 O 0.21904 0.74887 0.65813
 O754 O 0.27461 0.74684 0.64975
 O755 O 0.32569 0.74948 0.70681
 O756 O 0.29760 0.71335 0.68637
 C757 C 0.29390 0.69066 0.69822
 O758 O 0.23758 0.67973 0.79142
 O759 O 0.28971 0.75724 0.85632
 O760 O 0.28246 0.68848 0.79301
 O761 O 0.30478 0.72049 0.82059
 O762 O 0.23199 0.75853 0.86521
 O763 O 0.21374 0.71982 0.83774
 C764 C 0.30002 0.69682 0.81468
 H765 H 0.25753 0.78761 0.82616
 H766 H 0.20690 0.71712 0.76733
 H767 H 0.30536 0.71971 0.75283
 H768 H 0.25059 0.78249 0.68626
 H769 H 0.17655 0.75495 0.83071
 H770 H 0.17093 0.74687 0.70190
 H771 H 0.20078 0.74742 0.65086
 H772 H 0.29021 0.74168 0.63586
 H773 H 0.21542 0.76249 0.87756
 H774 H 0.30797 0.75859 0.86365
 H775 H 0.33808 0.75445 0.81353
 H776 H 0.33193 0.74410 0.68230
 H777 H 0.20056 0.72410 0.85646
 H778 H 0.24397 0.66291 0.78294
 H779 H 0.26412 0.84029 0.73104
 H780 H 0.30954 0.77735 0.65768
 Zr781 Zr 0.25008 0.20637 0.26883
 O782 O 0.23041 0.17608 0.24294
 O783 O 0.27510 0.18677 0.30369
 O784 O 0.27561 0.18348 0.23780
 O785 O 0.20103 0.22048 0.32973
 O786 O 0.29617 0.21146 0.20052
 O787 O 0.22419 0.18787 0.30458
 O788 O 0.29949 0.21845 0.32809
 O789 O 0.28407 0.22738 0.26501
 O790 O 0.25042 0.23068 0.31421
 O791 O 0.24826 0.22507 0.21832
 O792 O 0.21607 0.22818 0.26509
 Zr793 Zr 0.24968 0.29478 0.25695
 Zr794 Zr 0.28152 0.24728 0.21611
 Zr795 Zr 0.21797 0.25366 0.30929
 Zr796 Zr 0.28349 0.25255 0.30926
 O797 O 0.17735 0.25562 0.30637
 O798 O 0.32379 0.25351 0.29990
 O799 O 0.25107 0.27635 0.30786
 O800 O 0.28330 0.27269 0.26038
 O801 O 0.24918 0.27069 0.21109
 O802 O 0.21576 0.27365 0.26062
 C803 C 0.29396 0.19487 0.32321
 C804 C 0.20586 0.19670 0.32503
 C805 C 0.29189 0.18894 0.21240
 O806 O 0.32212 0.24835 0.21948
 O807 O 0.29509 0.28018 0.19064
 O808 O 0.27384 0.31297 0.21858
 C809 C 0.29037 0.30396 0.19541
 O810 O 0.19828 0.21452 0.19896
 Zr811 Zr 0.21596 0.24890 0.21624
 O812 O 0.22613 0.31453 0.22076
 O813 O 0.27767 0.24230 0.15905
 O814 O 0.22218 0.24550 0.15915
 O815 O 0.17559 0.25077 0.22465
 O816 O 0.20301 0.28323 0.19284
 C817 C 0.20908 0.30672 0.19805
 O818 O 0.27082 0.32473 0.28123
 O819 O 0.22170 0.25541 0.36672
 O820 O 0.22621 0.31802 0.29097
 O821 O 0.20613 0.28962 0.32806
 O822 O 0.27910 0.25313 0.36685
 O823 O 0.29733 0.28769 0.33016
 C824 C 0.21063 0.31236 0.31723
 H825 H 0.25017 0.22137 0.33755
 H826 H 0.29887 0.28343 0.25923
 H827 H 0.20004 0.28427 0.26045
 H828 H 0.24768 0.21271 0.19781
 H829 H 0.33234 0.25057 0.32357
 H830 H 0.32888 0.24617 0.19429
 H831 H 0.29529 0.24228 0.14855
 H832 H 0.20583 0.24997 0.14702
 H833 H 0.29616 0.24933 0.37742
 H834 H 0.20402 0.25568 0.37700
 H835 H 0.17081 0.25770 0.33170
 H836 H 0.16758 0.25418 0.20072
 H837 H 0.31132 0.28449 0.34774
 H838 H 0.26446 0.34081 0.27063
 H839 H 0.23678 0.16009 0.25379
 H840 H 0.18677 0.21798 0.17817
 Zr841 Zr 0.74863 0.70307 0.25530
 O842 O 0.76661 0.67640 0.28970
 O843 O 0.72534 0.67950 0.22306
 O844 O 0.72150 0.68498 0.28947
 O845 O 0.79845 0.70761 0.19236
 O846 O 0.69958 0.71791 0.31594
 O847 O 0.77511 0.67980 0.22657
 O848 O 0.70187 0.70773 0.19021
 O849 O 0.71506 0.72479 0.25138
 O850 O 0.75030 0.72113 0.20478
 O851 O 0.74911 0.72792 0.30058
 O852 O 0.78315 0.72412 0.25572
 Zr853 Zr 0.75108 0.79147 0.24597
 Zr854 Zr 0.71649 0.75080 0.29472
 Zr855 Zr 0.78321 0.74360 0.20600
 Zr856 Zr 0.71767 0.74377 0.20195
 O857 O 0.82368 0.74400 0.21183
 O858 O 0.67721 0.74641 0.20878
 O859 O 0.75066 0.76679 0.20006
 O860 O 0.71697 0.77008 0.24508
 O861 O 0.74938 0.77363 0.29671
 O862 O 0.78444 0.76938 0.24951
 C863 C 0.70743 0.68505 0.20043
 C864 C 0.79293 0.68508 0.20323
 C865 C 0.70374 0.69408 0.31061
 O866 O 0.67608 0.75271 0.28848
 O867 O 0.70265 0.78667 0.31053
 O868 O 0.72649 0.81499 0.27798
 C869 C 0.70846 0.80934 0.30085
 O870 O 0.79792 0.71837 0.32492
 Zr871 Zr 0.78209 0.75069 0.29901
 O872 O 0.77428 0.81496 0.27851
 O873 O 0.71836 0.75294 0.35231
 O874 O 0.77414 0.75492 0.35558
 O875 O 0.82274 0.75055 0.29362
 O876 O 0.79547 0.78700 0.31478
 C877 C 0.79044 0.80961 0.30374
 O878 O 0.73155 0.81836 0.21368
 O879 O 0.78120 0.73915 0.14864
 O880 O 0.77603 0.80942 0.20860
 O881 O 0.79697 0.77650 0.18036
 O882 O 0.72381 0.73709 0.14538
 O883 O 0.70505 0.77571 0.17192
 C884 C 0.79236 0.80034 0.18522
 H885 H 0.75094 0.70907 0.18391
 H886 H 0.70173 0.78118 0.24246
 H887 H 0.80046 0.77945 0.24829
 H888 H 0.74853 0.71842 0.32375
 H889 H 0.66923 0.74026 0.18587
 H890 H 0.66844 0.75371 0.31331
 H891 H 0.70041 0.75450 0.36134
 H892 H 0.79032 0.76022 0.36755
 H893 H 0.70706 0.73205 0.13480
 H894 H 0.79914 0.73762 0.13953
 H895 H 0.83112 0.74301 0.18688
 H896 H 0.82995 0.75629 0.31726
 H897 H 0.69117 0.77049 0.15509
 H898 H 0.73803 0.83540 0.22077
 H899 H 0.76035 0.65933 0.28235
 H900 H 0.80864 0.72393 0.34573
 Zr901 Zr 0.75215 0.29757 0.73115
 O902 O 0.73466 0.32934 0.75718
 O903 O 0.77589 0.31507 0.69228
 O904 O 0.77917 0.32034 0.75912
 O905 O 0.69941 0.28467 0.67697
 O906 O 0.80260 0.29179 0.79145
 O907 O 0.72571 0.31631 0.69734
 O908 O 0.79713 0.28181 0.66555
 O909 O 0.78538 0.27513 0.73101
 O910 O 0.74860 0.27218 0.68722
 O911 O 0.75284 0.28029 0.78263
 O912 O 0.71750 0.27774 0.74052
 Zr913 Zr 0.74865 0.20992 0.74805
 Zr914 Zr 0.78511 0.25650 0.78108
 Zr915 Zr 0.71549 0.25101 0.69770
 Zr916 Zr 0.78090 0.24895 0.68848
 O917 O 0.67522 0.25176 0.70660
 O918 O 0.82150 0.24607 0.69215
 O919 O 0.74768 0.22687 0.69600
 O920 O 0.78287 0.23001 0.73827
 O921 O 0.75210 0.23511 0.79228
 O922 O 0.71560 0.23262 0.74777
 C923 C 0.79295 0.30572 0.67032
 C924 C 0.70608 0.30819 0.67941
 C925 C 0.79747 0.31450 0.78109
 O926 O 0.82520 0.25296 0.77190
 O927 O 0.79889 0.22365 0.80634
 O928 O 0.77415 0.19150 0.78398
 C929 C 0.79268 0.20008 0.80379
 O930 O 0.70499 0.29440 0.80748
 Zr931 Zr 0.71971 0.25851 0.79040
 O932 O 0.72560 0.19244 0.78783
 O933 O 0.78520 0.26329 0.83808
 O934 O 0.72939 0.26298 0.84620
 O935 O 0.67895 0.25857 0.78840
 O936 O 0.70662 0.22584 0.81750
 C937 C 0.71042 0.20191 0.81233
 O938 O 0.76704 0.17810 0.72343
 O939 O 0.71579 0.24706 0.64020
 O940 O 0.72307 0.18698 0.71799
 O941 O 0.70045 0.21501 0.68350
 O942 O 0.77309 0.24727 0.63178
 O943 O 0.79165 0.21265 0.66757
 C944 C 0.70575 0.19237 0.69428
 H945 H 0.74748 0.28088 0.66346
 H946 H 0.79791 0.21845 0.73776
 H947 H 0.69949 0.22286 0.75072
 H948 H 0.75405 0.29307 0.80252
 H949 H 0.82867 0.24811 0.66722
 H950 H 0.83367 0.25564 0.79578
 H951 H 0.80342 0.26277 0.84584
 H952 H 0.71355 0.26005 0.86075
 H953 H 0.78963 0.24985 0.61872
 H954 H 0.69759 0.24755 0.63240
 H955 H 0.66705 0.24936 0.68246
 H956 H 0.67244 0.25676 0.81373
 H957 H 0.80483 0.21465 0.64818
 H958 H 0.76054 0.16271 0.73587
 H959 H 0.74106 0.34478 0.74479
 H960 H 0.69487 0.29240 0.83027
 C961 C 0.11063 0.45265 0.93797
 C962 C 0.13068 0.43913 0.92071
 C963 C 0.12540 0.42173 0.89263
 C964 C 0.09995 0.41894 0.88074
 C965 C 0.08002 0.43244 0.89753
 C966 C 0.08477 0.44911 0.92718
 N967 N 0.14551 0.40585 0.87789
 N968 N 0.13957 0.38576 0.86036
 C969 C 0.15755 0.36807 0.84486
 C970 C 0.14813 0.34435 0.83438
 C971 C 0.16453 0.32596 0.81980
 C972 C 0.19078 0.33111 0.81455
 C973 C 0.20032 0.35523 0.82410
 C974 C 0.18379 0.37361 0.83969
 H975 H 0.11545 0.46538 0.96027
 H976 H 0.15022 0.44156 0.93011
 H977 H 0.09533 0.40590 0.85873
 H978 H 0.06072 0.42914 0.88755
 H979 H 0.12793 0.33997 0.83805
 H980 H 0.15658 0.30767 0.81226
 H981 H 0.22050 0.35960 0.82023
 H982 H 0.19137 0.39199 0.84742
 C983 C 0.39262 0.54848 0.40716
 C984 C 0.37374 0.56400 0.39193
 C985 C 0.37956 0.58890 0.38198
 C986 C 0.40485 0.59786 0.38617
 C987 C 0.42384 0.58225 0.40079
 C988 C 0.41785 0.55751 0.41199
 N989 N 0.35959 0.60488 0.36820
 N990 N 0.36255 0.62880 0.36651
 C991 C 0.34350 0.64560 0.35232
 C992 C 0.34776 0.67168 0.35529
 C993 C 0.33061 0.68885 0.34000
 C994 C 0.30881 0.68025 0.32097
 C995 C 0.30416 0.65395 0.31884
 C996 C 0.32135 0.63673 0.33450
 H997 H 0.38742 0.52948 0.41541
 H998 H 0.35438 0.55681 0.38869
 H999 H 0.40989 0.61698 0.37836
 H1000 H 0.44303 0.58981 0.40431
 H1001 H 0.36474 0.67871 0.36901
 H1002 H 0.33492 0.70890 0.34226
 H1003 H 0.28761 0.64667 0.30437
 H1004 H 0.31770 0.61658 0.33190
 C1005 C 0.89039 0.94769 0.57055
 C1006 C 0.87060 0.93349 0.58651
 C1007 C 0.87553 0.90914 0.59974
 C1008 C 0.90067 0.89934 0.59756
 C1009 C 0.92050 0.91363 0.58231
 C1010 C 0.91557 0.93789 0.56842
 N1011 N 0.85505 0.89458 0.61540
 N1012 N 0.85748 0.87071 0.61894
 C1013 C 0.83861 0.85484 0.63570
 C1014 C 0.84196 0.82863 0.63282
 C1015 C 0.82549 0.81222 0.65111
 C1016 C 0.80536 0.82172 0.67326
 C1017 C 0.80154 0.84817 0.67540
 C1018 C 0.81802 0.86466 0.65660
 H1019 H 0.88606 0.96639 0.56022
 H1020 H 0.85134 0.94132 0.58814
 H1021 H 0.90506 0.88065 0.60788
 H1022 H 0.93965 0.90552 0.58096
 H1023 H 0.85780 0.82090 0.61685
 H1024 H 0.82914 0.79203 0.64870
 H1025 H 0.78622 0.85611 0.69217
 H1026 H 0.81519 0.88496 0.65928
 C1027 C 0.56698 0.08652 0.10746
 C1028 C 0.58447 0.10333 0.12323
 C1029 C 0.61092 0.09959 0.11869
 C1030 C 0.61988 0.07835 0.09891
 C1031 C 0.60239 0.06158 0.08277
 C1032 C 0.57571 0.06573 0.08638
 N1033 N 0.62803 0.11845 0.13276
 N1034 N 0.65236 0.11578 0.13297
 C1035 C 0.66855 0.13580 0.14605
 C1036 C 0.69404 0.13052 0.15549
 C1037 C 0.70970 0.14967 0.16998
 C1038 C 0.70014 0.17452 0.17447
 C1039 C 0.67484 0.17988 0.16365
 C1040 C 0.65916 0.16070 0.14983
 H1041 H 0.54662 0.09037 0.11074
 H1042 H 0.57739 0.11967 0.13842
 H1043 H 0.64029 0.07514 0.09502
 H1044 H 0.60976 0.04575 0.06676
 H1045 H 0.70156 0.11143 0.15246
 H1046 H 0.72915 0.14500 0.17796
 H1047 H 0.66684 0.19877 0.16689
 H1048 H 0.63961 0.16533 0.14230
 C1049 C 0.89930 0.06058 0.44566
 C1050 C 0.88184 0.07807 0.43160
 C1051 C 0.88755 0.09105 0.39947
 C1052 C 0.91103 0.08634 0.38134
 C1053 C 0.92884 0.06935 0.39592
 C1054 C 0.92315 0.05636 0.42829
 N1055 N 0.86974 0.10961 0.38661
 N1056 N 0.86957 0.11659 0.35349
 C1057 C 0.85248 0.13593 0.34105
 C1058 C 0.84555 0.13615 0.30427
 C1059 C 0.82897 0.15483 0.29129
 C1060 C 0.81975 0.17411 0.31476
 C1061 C 0.82709 0.17419 0.35155
 C1062 C 0.84307 0.15499 0.36477
 H1063 H 0.89455 0.05107 0.47089
 H1064 H 0.86386 0.08162 0.44587
 H1065 H 0.91590 0.09635 0.35659
 H1066 H 0.94712 0.06649 0.38210
 H1067 H 0.85282 0.12166 0.28572
 H1068 H 0.82380 0.15456 0.26270
 H1069 H 0.82025 0.18891 0.37006
 H1070 H 0.84846 0.15528 0.39325
 C1071 C 0.38532 0.44851 0.55698
 C1072 C 0.36608 0.43356 0.57297
 C1073 C 0.37143 0.40859 0.58339
 C1074 C 0.39635 0.39882 0.57799
 C1075 C 0.41556 0.41376 0.56266
 C1076 C 0.41032 0.43875 0.55195
 N1077 N 0.35176 0.39345 0.59999
 N1078 N 0.35494 0.36963 0.60321
 C1079 C 0.33707 0.35326 0.62109
 C1080 C 0.34149 0.32714 0.61902
 C1081 C 0.32592 0.31038 0.63828
 C1082 C 0.30564 0.31948 0.66046
 C1083 C 0.30086 0.34580 0.66194
 C1084 C 0.31643 0.36260 0.64228
 H1085 H 0.38078 0.46775 0.54909
 H1086 H 0.34699 0.44138 0.57709
 H1087 H 0.40110 0.37966 0.58600
 H1088 H 0.43456 0.40560 0.55895
 H1089 H 0.35742 0.31978 0.60288
 H1090 H 0.33026 0.29029 0.63644
 H1091 H 0.28540 0.35344 0.67872
 H1092 H 0.31280 0.38280 0.64438
 C1093 C 0.61319 0.96621 0.92758
 C1094 C 0.63334 0.95187 0.91204
 C1095 C 0.62849 0.92778 0.89707
 C1096 C 0.60312 0.91872 0.89624
 C1097 C 0.58305 0.93312 0.91099
 C1098 C 0.58785 0.95683 0.92745
 N1099 N 0.64929 0.91216 0.88396
 N1100 N 0.64667 0.88816 0.88389
 C1101 C 0.66532 0.87048 0.87013
 C1102 C 0.66214 0.84502 0.87909
 C1103 C 0.67811 0.82647 0.86391
 C1104 C 0.69751 0.83292 0.83869
 C1105 C 0.70116 0.85871 0.83026
 C1106 C 0.68522 0.87745 0.84608
 H1107 H 0.61744 0.98449 0.93988
 H1108 H 0.65279 0.95914 0.91275
 H1109 H 0.59882 0.90031 0.88441
 H1110 H 0.56381 0.92528 0.91043
 H1111 H 0.64678 0.83947 0.89747
 H1112 H 0.67457 0.80690 0.87113
 H1113 H 0.71588 0.86432 0.81093
 H1114 H 0.68781 0.89710 0.83860
 C1115 C 0.06164 0.57464 0.11037
 C1116 C 0.07815 0.59263 0.12561
 C1117 C 0.10479 0.59013 0.12171
 C1118 C 0.11489 0.56884 0.10306
 C1119 C 0.09832 0.55087 0.08731
 C1120 C 0.07143 0.55379 0.09027
 N1121 N 0.12078 0.61022 0.13526
 N1122 N 0.14515 0.60851 0.13754
 C1123 C 0.16033 0.62955 0.15008
 C1124 C 0.18544 0.62528 0.16215
 C1125 C 0.20036 0.64542 0.17541
 C1126 C 0.19059 0.67036 0.17593
 C1127 C 0.16561 0.67468 0.16290
 C1128 C 0.15054 0.65446 0.15042
 H1129 H 0.04111 0.57767 0.11323
 H1130 H 0.07013 0.60893 0.13991
 H1131 H 0.13547 0.56656 0.09963
 H1132 H 0.10654 0.53511 0.07199
 H1133 H 0.19330 0.60623 0.16190
 H1134 H 0.21957 0.64151 0.18514
 H1135 H 0.15751 0.69363 0.16312
 H1136 H 0.13126 0.65830 0.14091
 C1137 C 0.39614 0.95439 0.06659
 C1138 C 0.37662 0.93836 0.07904
 C1139 C 0.38235 0.91356 0.08960
 C1140 C 0.40800 0.90510 0.08850
 C1141 C 0.42756 0.92121 0.07670
 C1142 C 0.42182 0.94594 0.06529
 N1143 N 0.36202 0.89732 0.10167
 N1144 N 0.36539 0.87348 0.10418
 C1145 C 0.34597 0.85674 0.11759
 C1146 C 0.35046 0.83062 0.11560
 C1147 C 0.33295 0.81366 0.13086
 C1148 C 0.31067 0.82262 0.14885
 C1149 C 0.30584 0.84892 0.14993
 C1150 C 0.32332 0.86586 0.13430
 H1151 H 0.39116 0.97339 0.05808
 H1152 H 0.35694 0.94513 0.07997
 H1153 H 0.41294 0.88607 0.09686
 H1154 H 0.44713 0.91411 0.07581
 H1155 H 0.36788 0.82341 0.10282
 H1156 H 0.33735 0.79358 0.12960
 H1157 H 0.28887 0.85645 0.16354
 H1158 H 0.31950 0.88604 0.13620
 C1159 C 0.60208 0.45422 0.41371
 C1160 C 0.62258 0.43952 0.40042
 C1161 C 0.61826 0.41481 0.38769
 C1162 C 0.59303 0.40531 0.38662
 C1163 C 0.57250 0.42013 0.39914
 C1164 C 0.57689 0.44451 0.41352
 N1165 N 0.63962 0.39933 0.37675
 N1166 N 0.63757 0.37530 0.37604
 C1167 C 0.65785 0.35883 0.36417
 C1168 C 0.65484 0.33277 0.36909
 C1169 C 0.67316 0.31579 0.35541
 C1170 C 0.69476 0.32464 0.33605
 C1171 C 0.69816 0.35097 0.33210
 C1172 C 0.67986 0.36798 0.34621
 H1173 H 0.60594 0.47304 0.42448
 H1174 H 0.64193 0.44707 0.40115
 H1175 H 0.58924 0.38634 0.37642
 H1176 H 0.55332 0.41215 0.39879
 H1177 H 0.63791 0.32558 0.38292
 H1178 H 0.66985 0.29568 0.35891
 H1179 H 0.71457 0.35839 0.31734
 H1180 H 0.68249 0.38812 0.34209
 C1181 C 0.89848 0.54570 0.92550
 C1182 C 0.87935 0.56108 0.91073
 C1183 C 0.88573 0.58407 0.89444
 C1184 C 0.91171 0.59109 0.89154
 C1185 C 0.93099 0.57557 0.90564
 C1186 C 0.92471 0.55283 0.92373
 N1187 N 0.86559 0.60038 0.88207
 N1188 N 0.86983 0.62371 0.87591
 C1189 C 0.85043 0.64082 0.86358
 C1190 C 0.85601 0.66670 0.86359
 C1191 C 0.83799 0.68416 0.85127
 C1192 C 0.81398 0.67601 0.83809
 C1193 C 0.80830 0.64991 0.83824
 C1194 C 0.82635 0.63241 0.85113
 H1195 H 0.89249 0.52836 0.93871
 H1196 H 0.85939 0.55541 0.91295
 H1197 H 0.91712 0.60869 0.87863
 H1198 H 0.95073 0.58192 0.90319
 H1199 H 0.87451 0.67337 0.87311
 H1200 H 0.84319 0.70405 0.85134
 H1201 H 0.79006 0.64300 0.82811
 H1202 H 0.82170 0.61240 0.85080
 C1203 C 0.06237 0.07170 0.61664
 C1204 C 0.07932 0.08875 0.63289
 C1205 C 0.10581 0.08613 0.62769
 C1206 C 0.11540 0.06571 0.60666
 C1207 C 0.09838 0.04867 0.58994
 C1208 C 0.07162 0.05175 0.59429
 N1209 N 0.12214 0.10547 0.64218
 N1210 N 0.14651 0.10364 0.64323
 C1211 C 0.16164 0.12439 0.65655
 C1212 C 0.18694 0.12011 0.66779
 C1213 C 0.20168 0.14013 0.68175
 C1214 C 0.19145 0.16485 0.68377
 C1215 C 0.16628 0.16915 0.67164
 C1216 C 0.15144 0.14910 0.65844
 H1217 H 0.04194 0.07474 0.62068
 H1218 H 0.07176 0.10445 0.64900
 H1219 H 0.13589 0.06344 0.60220
 H1220 H 0.10614 0.03354 0.57290
 H1221 H 0.19506 0.10119 0.66630
 H1222 H 0.22110 0.13632 0.69074
 H1223 H 0.15786 0.18796 0.67302
 H1224 H 0.13202 0.15294 0.64956
 C1225 C 0.11356 0.46584 0.42951
 C1226 C 0.13360 0.45151 0.41366
 C1227 C 0.12834 0.42831 0.39623
 C1228 C 0.10271 0.42025 0.39320
 C1229 C 0.08279 0.43463 0.40834
 C1230 C 0.08794 0.45734 0.42733
 N1231 N 0.14892 0.41242 0.38309
 N1232 N 0.14529 0.38859 0.38067
 C1233 C 0.16364 0.37064 0.36684
 C1234 C 0.15899 0.34505 0.37349
 C1235 C 0.17485 0.32639 0.35838
 C1236 C 0.19564 0.33290 0.33554
 C1237 C 0.20064 0.35878 0.32926
 C1238 C 0.18479 0.37761 0.34505
 H1239 H 0.11811 0.48335 0.44376
 H1240 H 0.15326 0.45802 0.41609
 H1241 H 0.09810 0.40257 0.37944
 H1242 H 0.06334 0.42747 0.40605
 H1243 H 0.14265 0.33952 0.39008
 H1244 H 0.17023 0.30675 0.36381
 H1245 H 0.21646 0.36441 0.31178
 H1246 H 0.18853 0.39738 0.33937
 C1247 C 0.39923 0.54457 0.91565
 C1248 C 0.38064 0.56026 0.90001
 C1249 C 0.38673 0.58521 0.89057
 C1250 C 0.41199 0.59401 0.89544
 C1251 C 0.43064 0.57827 0.91048
 C1252 C 0.42437 0.55354 0.92142
 N1253 N 0.36703 0.60155 0.87694
 N1254 N 0.37027 0.62546 0.87606
 C1255 C 0.35149 0.64267 0.86224
 C1256 C 0.35580 0.66869 0.86640
 C1257 C 0.33861 0.68624 0.85203
 C1258 C 0.31679 0.67803 0.83277
 C1259 C 0.31225 0.65179 0.82912
 C1260 C 0.32943 0.63422 0.84387
 H1261 H 0.39384 0.52556 0.92364
 H1262 H 0.36128 0.55321 0.89621
 H1263 H 0.41725 0.61314 0.88800
 H1264 H 0.44978 0.58581 0.91464
 H1265 H 0.37276 0.67538 0.88051
 H1266 H 0.34283 0.70625 0.85528
 H1267 H 0.29568 0.64482 0.81437
 H1268 H 0.32576 0.61414 0.84029
 C1269 C 0.56167 0.07541 0.61273
 C1270 C 0.57817 0.09337 0.62809
 C1271 C 0.60481 0.09079 0.62446
 C1272 C 0.61494 0.06945 0.60596
 C1273 C 0.59839 0.05150 0.59009
 C1274 C 0.57150 0.05451 0.59278
 N1275 N 0.62078 0.11085 0.63813
 N1276 N 0.64513 0.10913 0.64064
 C1277 C 0.66026 0.13019 0.65328
 C1278 C 0.68536 0.12597 0.66544
 C1279 C 0.70022 0.14615 0.67872
 C1280 C 0.69041 0.17107 0.67917
 C1281 C 0.66544 0.17533 0.66609
 C1282 C 0.65042 0.15508 0.65358
 H1283 H 0.54115 0.07851 0.61540
 H1284 H 0.57012 0.10971 0.64228
 H1285 H 0.63553 0.06711 0.60274
 H1286 H 0.60663 0.03570 0.57490
 H1287 H 0.69325 0.10694 0.66522
 H1288 H 0.71943 0.14228 0.68848
 H1289 H 0.65729 0.19427 0.66624
 H1290 H 0.63116 0.15889 0.64400
 C1291 C 0.88778 0.94779 0.06152
 C1292 C 0.86876 0.93276 0.07783
 C1293 C 0.87415 0.90764 0.08740
 C1294 C 0.89892 0.89779 0.08089
 C1295 C 0.91795 0.91282 0.06519
 C1296 C 0.91263 0.93796 0.05524
 N1297 N 0.85460 0.89241 0.10413
 N1298 N 0.85768 0.86855 0.10702
 C1299 C 0.83972 0.85217 0.12474
 C1300 C 0.84399 0.82603 0.12245
 C1301 C 0.82815 0.80926 0.14125
 C1302 C 0.80773 0.81835 0.16318
 C1303 C 0.80314 0.84470 0.16493
 C1304 C 0.81898 0.86152 0.14573
 H1305 H 0.88317 0.96714 0.05427
 H1306 H 0.84979 0.94063 0.08282
 H1307 H 0.90369 0.87851 0.08824
 H1308 H 0.93682 0.90462 0.06056
 H1309 H 0.85998 0.81866 0.10644
 H1310 H 0.83236 0.78915 0.13923
 H1311 H 0.78759 0.85234 0.18154
 H1312 H 0.81544 0.88172 0.14800
 C1313 C 0.89121 0.05114 0.91680
 C1314 C 0.87229 0.06661 0.90154
 C1315 C 0.87827 0.09124 0.89042
 C1316 C 0.90367 0.10003 0.89384
 C1317 C 0.92268 0.08447 0.90852
 C1318 C 0.91662 0.05994 0.92054
 N1319 N 0.85841 0.10705 0.87591
 N1320 N 0.86180 0.13081 0.87242
 C1321 C 0.84302 0.14749 0.85727
 C1322 C 0.84781 0.17353 0.85854
 C1323 C 0.83094 0.19055 0.84232
 C1324 C 0.80889 0.18182 0.82401
 C1325 C 0.80374 0.15558 0.82346
 C1326 C 0.82066 0.13852 0.84009
 H1327 H 0.88596 0.03229 0.92566
 H1328 H 0.85283 0.05955 0.89894
 H1329 H 0.90885 0.11893 0.88518
 H1330 H 0.94201 0.09186 0.91114
 H1331 H 0.86497 0.18065 0.87171
 H1332 H 0.83564 0.21055 0.84336
 H1333 H 0.78697 0.14821 0.80961
 H1334 H 0.81661 0.11839 0.83877
 C1335 C 0.06618 0.58347 0.61318
 C1336 C 0.08337 0.59938 0.63127
 C1337 C 0.10986 0.59562 0.62764
 C1338 C 0.11917 0.57527 0.60628
 C1339 C 0.10196 0.55940 0.58778
 C1340 C 0.07524 0.56358 0.59062
 N1341 N 0.12663 0.61388 0.64392
 N1342 N 0.15091 0.61114 0.64570
 C1343 C 0.16651 0.63105 0.66054
 C1344 C 0.19180 0.62595 0.67122
 C1345 C 0.20704 0.64529 0.68620
 C1346 C 0.19726 0.67011 0.68986
 C1347 C 0.17205 0.67516 0.67843
 C1348 C 0.15679 0.65584 0.66416
 H1349 H 0.04578 0.58731 0.61599
 H1350 H 0.07604 0.61508 0.64758
 H1351 H 0.13965 0.57215 0.60300
 H1352 H 0.10957 0.54423 0.57069
 H1353 H 0.19957 0.60695 0.66838
 H1354 H 0.22644 0.64090 0.69469
 H1355 H 0.16388 0.69402 0.68107
 H1356 H 0.13741 0.66035 0.65576
 C1357 C 0.61241 0.95145 0.43987
 C1358 C 0.63237 0.93782 0.42256
 C1359 C 0.62688 0.92023 0.39477
 C1360 C 0.60130 0.91727 0.38337
 C1361 C 0.58151 0.93089 0.40030
 C1362 C 0.58667 0.94779 0.42927
 N1363 N 0.64691 0.90436 0.37981
 N1364 N 0.64089 0.88429 0.36228
 C1365 C 0.65881 0.86664 0.34658
 C1366 C 0.64933 0.84297 0.33594
 C1367 C 0.66569 0.82461 0.32121
 C1368 C 0.69194 0.82972 0.31600
 C1369 C 0.70154 0.85379 0.32570
 C1370 C 0.68506 0.87215 0.34143
 H1371 H 0.61708 0.96440 0.46196
 H1372 H 0.65198 0.94035 0.43164
 H1373 H 0.59649 0.90403 0.36170
 H1374 H 0.56204 0.92767 0.39109
 H1375 H 0.62912 0.83863 0.33961
 H1376 H 0.65770 0.80636 0.31356
 H1377 H 0.72173 0.85813 0.32186
 H1378 H 0.69267 0.89049 0.34929
 C1379 C 0.38993 0.44747 0.06777
 C1380 C 0.37015 0.43324 0.08372
 C1381 C 0.37536 0.40938 0.09847
 C1382 C 0.40074 0.40011 0.09777
 C1383 C 0.42051 0.41445 0.08251
 C1384 C 0.41535 0.43821 0.06714
 N1385 N 0.35492 0.39471 0.11411
 N1386 N 0.35795 0.37105 0.11917
 C1387 C 0.33921 0.35505 0.13598
 C1388 C 0.34339 0.32891 0.13456
 C1389 C 0.32697 0.31244 0.15280
 C1390 C 0.30602 0.32182 0.17346
 C1391 C 0.30143 0.34818 0.17425
 C1392 C 0.31789 0.36473 0.15547
 H1393 H 0.38541 0.46579 0.05627
 H1394 H 0.35071 0.44065 0.08417
 H1395 H 0.40534 0.38183 0.10926
 H1396 H 0.43984 0.40673 0.08235
 H1397 H 0.35981 0.32129 0.11970
 H1398 H 0.33123 0.29232 0.15150
 H1399 H 0.28548 0.35602 0.18986
 H1400 H 0.31442 0.38497 0.15703
 C1401 C 0.56109 0.57432 0.11433
 C1402 C 0.57810 0.59123 0.13082
 C1403 C 0.60461 0.58742 0.12799
 C1404 C 0.61413 0.56601 0.10909
 C1405 C 0.59710 0.54911 0.09215
 C1406 C 0.57036 0.55331 0.09416
 N1407 N 0.62121 0.60649 0.14264
 N1408 N 0.64542 0.60374 0.14544
 C1409 C 0.66102 0.62417 0.15870
 C1410 C 0.68597 0.61925 0.17090
 C1411 C 0.70122 0.63900 0.18456
 C1412 C 0.69185 0.66407 0.18537
 C1413 C 0.66700 0.66896 0.17239
 C1414 C 0.65167 0.64921 0.15944
 H1415 H 0.54068 0.57823 0.11646
 H1416 H 0.57059 0.60771 0.14527
 H1417 H 0.63464 0.56280 0.10646
 H1418 H 0.60487 0.53313 0.07684
 H1419 H 0.69345 0.60005 0.17031
 H1420 H 0.72035 0.63470 0.19427
 H1421 H 0.65919 0.68804 0.17284
 H1422 H 0.63253 0.65355 0.14983
 C1423 C 0.09957 0.95972 0.90172
 C1424 C 0.12003 0.94622 0.88591
 C1425 C 0.11622 0.92152 0.87282
 C1426 C 0.09138 0.91104 0.87334
 C1427 C 0.07083 0.92470 0.88835
 C1428 C 0.07491 0.94883 0.90369
 N1429 N 0.13787 0.90656 0.86157
 N1430 N 0.13697 0.88259 0.86461
 C1431 C 0.15738 0.86599 0.85378
 C1432 C 0.15590 0.84074 0.86451
 C1433 C 0.17436 0.82330 0.85286
 C1434 C 0.19458 0.83075 0.82960
 C1435 C 0.19647 0.85640 0.81958
 C1436 C 0.17801 0.87400 0.83178
 H1437 H 0.10312 0.97843 0.91309
 H1438 H 0.13908 0.95449 0.88552
 H1439 H 0.08800 0.89205 0.86291
 H1440 H 0.05203 0.91590 0.88951
 H1441 H 0.14007 0.83448 0.88153
 H1442 H 0.17220 0.80376 0.86119
 H1443 H 0.21175 0.86272 0.80163
 H1444 H 0.17939 0.89355 0.82317
 C1445 C 0.39943 0.04425 0.41675
 C1446 C 0.38015 0.05949 0.40195
 C1447 C 0.38514 0.08486 0.39365
 C1448 C 0.41001 0.09461 0.39895
 C1449 C 0.42940 0.07931 0.41316
 C1450 C 0.42421 0.05410 0.42282
 N1451 N 0.36469 0.10059 0.38075
 N1452 N 0.36685 0.12463 0.38100
 C1453 C 0.34731 0.14136 0.36809
 C1454 C 0.35057 0.16737 0.37369
 C1455 C 0.33272 0.18460 0.36025
 C1456 C 0.31122 0.17611 0.34045
 C1457 C 0.30768 0.14982 0.33541
 C1458 C 0.32558 0.13253 0.34925
 H1459 H 0.39488 0.02485 0.42378
 H1460 H 0.36111 0.05171 0.39786
 H1461 H 0.41441 0.11412 0.39242
 H1462 H 0.44823 0.08748 0.41763
 H1463 H 0.36723 0.17435 0.38822
 H1464 H 0.33618 0.20464 0.36470
 H1465 H 0.29143 0.14265 0.32017
 H1466 H 0.32274 0.11242 0.34456
 C1467 C 0.89595 0.45460 0.56728
 C1468 C 0.87630 0.43878 0.57988
 C1469 C 0.88177 0.41385 0.59008
 C1470 C 0.90728 0.40503 0.58843
 C1471 C 0.92698 0.42092 0.57648
 C1472 C 0.92149 0.44579 0.56547
 N1473 N 0.86132 0.39785 0.60240
 N1474 N 0.86437 0.37396 0.60450
 C1475 C 0.84490 0.35740 0.61819
 C1476 C 0.84902 0.33124 0.61571
 C1477 C 0.83153 0.31441 0.63130
 C1478 C 0.80966 0.32354 0.65012
 C1479 C 0.80517 0.34988 0.65167
 C1480 C 0.82262 0.36670 0.63570
 H1481 H 0.89117 0.47372 0.55909
 H1482 H 0.85673 0.44583 0.58123
 H1483 H 0.91202 0.38588 0.59651
 H1484 H 0.94644 0.41356 0.57520
 H1485 H 0.86615 0.32390 0.60230
 H1486 H 0.83568 0.29429 0.62963
 H1487 H 0.78851 0.35753 0.66592
 H1488 H 0.81911 0.38691 0.63799
 C1489 C 0.89520 0.55907 0.04485
 C1490 C 0.87638 0.57538 0.05941
 C1491 C 0.87716 0.58289 0.09617
 C1492 C 0.89693 0.57370 0.11842
 C1493 C 0.91609 0.55793 0.10371
 C1494 C 0.91552 0.55063 0.06674
 N1495 N 0.85890 0.60115 0.10971
 N1496 N 0.85474 0.60441 0.14373
 C1497 C 0.83804 0.62403 0.15742
 C1498 C 0.82821 0.62237 0.19300
 C1499 C 0.81295 0.64192 0.20769
 C1500 C 0.80798 0.66382 0.18731
 C1501 C 0.81790 0.66544 0.15162
 C1502 C 0.83257 0.64561 0.13664
 H1503 H 0.89449 0.55391 0.01618
 H1504 H 0.86135 0.58247 0.04191
 H1505 H 0.89807 0.57943 0.14682
 H1506 H 0.93155 0.55167 0.12114
 H1507 H 0.83245 0.60592 0.20938
 H1508 H 0.80563 0.64025 0.23531
 H1509 H 0.81424 0.68205 0.13525
 H1510 H 0.84021 0.64742 0.10923
 C1511 C 0.55882 0.40700 0.56817
 C1512 C 0.57615 0.38987 0.58323
 C1513 C 0.60217 0.39601 0.58623
 C1514 C 0.61088 0.41960 0.57352
 C1515 C 0.59353 0.43676 0.55798
 C1516 C 0.56724 0.43068 0.55534
 N1517 N 0.61906 0.37781 0.60229
 N1518 N 0.64246 0.38241 0.60986
 C1519 C 0.65850 0.36347 0.62609
 C1520 C 0.68286 0.37025 0.63891
 C1521 C 0.69846 0.35232 0.65608
 C1522 C 0.69001 0.32714 0.66034
 C1523 C 0.66572 0.32032 0.64676
 C1524 C 0.65009 0.33829 0.62997
 H1525 H 0.53880 0.40154 0.56636
 H1526 H 0.56924 0.37173 0.59284
 H1527 H 0.63098 0.42470 0.57546
 H1528 H 0.60064 0.45481 0.54833
 H1529 H 0.68962 0.38955 0.63606
 H1530 H 0.71710 0.35820 0.66605
 H1531 H 0.65856 0.30115 0.64959
 H1532 H 0.63138 0.33250 0.62016
 C1533 C 0.10603 0.05134 0.44837
 C1534 C 0.12541 0.06660 0.43338
 C1535 C 0.11944 0.09037 0.41887
 C1536 C 0.09372 0.09867 0.41942
 C1537 C 0.07434 0.08335 0.43388
 C1538 C 0.08022 0.05948 0.44850
 N1539 N 0.13950 0.10570 0.40339
 N1540 N 0.13534 0.12879 0.39531
 C1541 C 0.15409 0.14507 0.37890
 C1542 C 0.14829 0.17087 0.37643
 C1543 C 0.16535 0.18751 0.35958
 C1544 C 0.18863 0.17864 0.34424
 C1545 C 0.19455 0.15261 0.34679
 C1546 C 0.17746 0.13594 0.36422
 H1547 H 0.11120 0.03301 0.45928
 H1548 H 0.14512 0.05991 0.43313
 H1549 H 0.08849 0.11691 0.40829
 H1550 H 0.05472 0.09028 0.43364
 H1551 H 0.13031 0.17811 0.38750
 H1552 H 0.15998 0.20733 0.35800
 H1553 H 0.21230 0.14517 0.33528
 H1554 H 0.18226 0.11598 0.36565
 C1555 C 0.44135 0.92265 0.90378
 C1556 C 0.42486 0.90534 0.88717
 C1557 C 0.39832 0.90925 0.88800
 C1558 C 0.38822 0.93092 0.90568
 C1559 C 0.40476 0.94825 0.92281
 C1560 C 0.43154 0.94424 0.92209
 N1561 N 0.38232 0.89033 0.87171
 N1562 N 0.35828 0.89310 0.86682
 C1563 C 0.34340 0.87293 0.85119
 C1564 C 0.31830 0.87771 0.83949
 C1565 C 0.30362 0.85823 0.82388
 C1566 C 0.31376 0.83354 0.82035
 C1567 C 0.33888 0.82880 0.83244
 C1568 C 0.35359 0.84830 0.84751
 H1569 H 0.46181 0.91879 0.90280
 H1570 H 0.43280 0.88864 0.87374
 H1571 H 0.36767 0.93419 0.90679
 H1572 H 0.39661 0.96466 0.93672
 H1573 H 0.31019 0.89658 0.84225
 H1574 H 0.28425 0.86242 0.81501
 H1575 H 0.34728 0.81003 0.83004
 H1576 H 0.37290 0.84403 0.85653
 C1577 C 0.06471 0.90641 0.58169
 C1578 C 0.08162 0.88902 0.59695
 C1579 C 0.10673 0.89609 0.60547
 C1580 C 0.11503 0.92092 0.59795
 C1581 C 0.09811 0.93840 0.58212
 C1582 C 0.07266 0.93135 0.57415
 N1583 N 0.12305 0.87755 0.62184
 N1584 N 0.14520 0.88260 0.63450
 C1585 C 0.16069 0.86331 0.65091
 C1586 C 0.18340 0.87025 0.66859
 C1587 C 0.19851 0.85194 0.68566
 C1588 C 0.19129 0.82618 0.68502
 C1589 C 0.16860 0.81923 0.66685
 C1590 C 0.15339 0.83761 0.65008
 H1591 H 0.04535 0.90019 0.57558
 H1592 H 0.07505 0.86994 0.60250
 H1593 H 0.13447 0.92675 0.60423
 H1594 H 0.10479 0.95744 0.57661
 H1595 H 0.18926 0.88996 0.66946
 H1596 H 0.21590 0.85799 0.69927
 H1597 H 0.16243 0.79962 0.66584
 H1598 H 0.13594 0.83171 0.63651
 C1599 C 0.60104 0.54891 0.42789
 C1600 C 0.62063 0.56383 0.41286
 C1601 C 0.61546 0.58861 0.40153
 C1602 C 0.59034 0.59829 0.40524
 C1603 C 0.57073 0.58334 0.41974
 C1604 C 0.57582 0.55849 0.43123
 N1605 N 0.63568 0.60358 0.38596
 N1606 N 0.63242 0.62717 0.38050
 C1607 C 0.65136 0.64317 0.36413
 C1608 C 0.64674 0.66926 0.36403
 C1609 C 0.66402 0.68568 0.34726
 C1610 C 0.68631 0.67627 0.32972
 C1611 C 0.69104 0.64995 0.32994
 C1612 C 0.67373 0.63348 0.34721
 H1613 H 0.60551 0.52976 0.43626
 H1614 H 0.63987 0.55610 0.41009
 H1615 H 0.58576 0.61734 0.39655
 H1616 H 0.55156 0.59131 0.42202
 H1617 H 0.62951 0.67689 0.37685
 H1618 H 0.65959 0.70577 0.34753
 H1619 H 0.70799 0.64210 0.31666
 H1620 H 0.67757 0.61328 0.34682
 C1621 C 0.39605 0.06665 0.05055
 C1622 C 0.37658 0.08172 0.06614
 C1623 C 0.37880 0.09092 0.10197
 C1624 C 0.40078 0.08483 0.12220
 C1625 C 0.42053 0.07034 0.10636
 C1626 C 0.41842 0.06122 0.07032
 N1627 N 0.35947 0.10770 0.11645
 N1628 N 0.35676 0.11166 0.15060
 C1629 C 0.33886 0.13000 0.16492
 C1630 C 0.33134 0.12882 0.20165
 C1631 C 0.31522 0.14748 0.21688
 C1632 C 0.30703 0.16804 0.19575
 C1633 C 0.31449 0.16912 0.15887
 C1634 C 0.33003 0.15012 0.14345
 H1635 H 0.39402 0.05997 0.02267
 H1636 H 0.35982 0.08642 0.05018
 H1637 H 0.40303 0.09194 0.14981
 H1638 H 0.43753 0.06633 0.12224
 H1639 H 0.33818 0.11352 0.21856
 H1640 H 0.30991 0.14635 0.24546
 H1641 H 0.30839 0.18477 0.14201
 H1642 H 0.33582 0.15158 0.11511
 C1643 C 0.94122 0.41905 0.89137
 C1644 C 0.92481 0.40328 0.87166
 C1645 C 0.89825 0.40684 0.87318
 C1646 C 0.88804 0.42662 0.89484
 C1647 C 0.90443 0.44235 0.91526
 C1648 C 0.93142 0.43877 0.91405
 N1649 N 0.88239 0.38915 0.85383
 N1650 N 0.85851 0.39246 0.84803
 C1651 C 0.84374 0.37322 0.82975
 C1652 C 0.81908 0.37889 0.81692
 C1653 C 0.80421 0.36007 0.79990
 C1654 C 0.81364 0.33512 0.79621
 C1655 C 0.83846 0.32960 0.80887
 C1656 C 0.85341 0.34845 0.82521
 H1657 H 0.96168 0.41528 0.88914
 H1658 H 0.93288 0.38801 0.85516
 H1659 H 0.86745 0.42956 0.89656
 H1660 H 0.89585 0.45720 0.93203
 H1661 H 0.81135 0.39788 0.82024
 H1662 H 0.78509 0.36483 0.79060
 H1663 H 0.84632 0.31061 0.80630
 H1664 H 0.87235 0.34348 0.83497
 C1665 C 0.60994 0.05609 0.92937
 C1666 C 0.62964 0.07096 0.91463
 C1667 C 0.62437 0.09546 0.90231
 C1668 C 0.59900 0.10468 0.90372
 C1669 C 0.57926 0.08969 0.91770
 C1670 C 0.58457 0.06539 0.93108
 N1671 N 0.64483 0.11075 0.88831
 N1672 N 0.64226 0.13470 0.88628
 C1673 C 0.66138 0.15088 0.87084
 C1674 C 0.65802 0.17709 0.87426
 C1675 C 0.67475 0.19367 0.85668
 C1676 C 0.69506 0.18426 0.83482
 C1677 C 0.69895 0.15784 0.83244
 C1678 C 0.68227 0.14124 0.85045
 H1679 H 0.61451 0.03735 0.93934
 H1680 H 0.64909 0.06359 0.91345
 H1681 H 0.59442 0.12346 0.89395
 H1682 H 0.55993 0.09738 0.91883
 H1683 H 0.64195 0.18468 0.88988
 H1684 H 0.67111 0.21386 0.85913
 H1685 H 0.71442 0.14998 0.81588
 H1686 H 0.68514 0.12098 0.84739
 C1687 C 0.38882 0.55807 0.54190
 C1688 C 0.37101 0.57558 0.55589
 C1689 C 0.37314 0.58458 0.59175
 C1690 C 0.39305 0.57547 0.61390
 C1691 C 0.41117 0.55838 0.59973
 C1692 C 0.40940 0.54976 0.56346
 N1693 N 0.35586 0.60390 0.60457
 N1694 N 0.35368 0.60910 0.63840
 C1695 C 0.33772 0.62924 0.65191
 C1696 C 0.33063 0.62923 0.68870
 C1697 C 0.31590 0.64901 0.70333
 C1698 C 0.30854 0.66954 0.68149
 C1699 C 0.31587 0.66973 0.64454
 C1700 C 0.33014 0.64950 0.62967
 H1701 H 0.38720 0.55199 0.51368
 H1702 H 0.35580 0.58252 0.53856
 H1703 H 0.39515 0.58228 0.64169
 H1704 H 0.42689 0.55232 0.61684
 H1705 H 0.33658 0.61384 0.70610
 H1706 H 0.31080 0.64855 0.73204
 H1707 H 0.31045 0.68538 0.62724
 H1708 H 0.33575 0.64996 0.60118
 C1709 C 0.06675 0.41836 0.10580
 C1710 C 0.08376 0.40106 0.12103
 C1711 C 0.11018 0.40320 0.11501
 C1712 C 0.11965 0.42339 0.09402
 C1713 C 0.10253 0.44072 0.07830
 C1714 C 0.07580 0.43816 0.08362
 N1715 N 0.12651 0.38395 0.12954
 N1716 N 0.15094 0.38529 0.12984
 C1717 C 0.16595 0.36496 0.14443
 C1718 C 0.19133 0.36950 0.15511
 C1719 C 0.20562 0.35041 0.17194
 C1720 C 0.19488 0.32625 0.17756
 C1721 C 0.16980 0.32143 0.16535
 C1722 C 0.15539 0.34065 0.14923
 H1723 H 0.04637 0.41568 0.11066
 H1724 H 0.07627 0.38562 0.13721
 H1725 H 0.14009 0.42534 0.08900
 H1726 H 0.11015 0.45567 0.06131
 H1727 H 0.19976 0.38808 0.15143
 H1728 H 0.22498 0.35462 0.18087
 H1729 H 0.16099 0.30305 0.16941
 H1730 H 0.13588 0.33658 0.14085
 C1731 C 0.93377 0.92443 0.38718
 C1732 C 0.91674 0.90767 0.37043
 C1733 C 0.89029 0.90983 0.37659
 C1734 C 0.88081 0.92962 0.39892
 C1735 C 0.89792 0.94633 0.41617
 C1736 C 0.92467 0.94358 0.41105
 N1737 N 0.87395 0.89050 0.36198
 N1738 N 0.84954 0.89213 0.36145
 C1739 C 0.83444 0.87132 0.34818
 C1740 C 0.80942 0.87562 0.33577
 C1741 C 0.79488 0.85555 0.32143
 C1742 C 0.80500 0.83077 0.32030
 C1743 C 0.82980 0.82643 0.33387
 C1744 C 0.84447 0.84653 0.34735
 H1745 H 0.95418 0.92165 0.38252
 H1746 H 0.92423 0.89246 0.35329
 H1747 H 0.86038 0.93153 0.40415
 H1748 H 0.89026 0.96084 0.43437
 H1749 H 0.80141 0.89460 0.33646
 H1750 H 0.77576 0.85938 0.31128
 H1751 H 0.83814 0.80758 0.33318
 H1752 H 0.86366 0.84269 0.35720
 C1753 C 0.89602 0.56643 0.55094
 C1754 C 0.87655 0.58157 0.56638
 C1755 C 0.87868 0.59076 0.60223
 C1756 C 0.90056 0.58459 0.62262
 C1757 C 0.92030 0.57002 0.60693
 C1758 C 0.91830 0.56090 0.57088
 N1759 N 0.85933 0.60759 0.61659
 N1760 N 0.85660 0.61159 0.65073
 C1761 C 0.83870 0.62992 0.66503
 C1762 C 0.83132 0.62882 0.70182
 C1763 C 0.81521 0.64749 0.71707
 C1764 C 0.80687 0.66796 0.69590
 C1765 C 0.81417 0.66896 0.65894
 C1766 C 0.82972 0.64995 0.64351
 H1767 H 0.89407 0.55975 0.52304
 H1768 H 0.85986 0.58633 0.55030
 H1769 H 0.90274 0.59169 0.65025
 H1770 H 0.93722 0.56595 0.62294
 H1771 H 0.83828 0.61360 0.71877
 H1772 H 0.81005 0.64642 0.74572
 H1773 H 0.80797 0.68454 0.64205
 H1774 H 0.83540 0.65134 0.61512
 C1775 C 0.56449 0.40896 0.08768
 C1776 C 0.58143 0.39218 0.10415
 C1777 C 0.60639 0.39973 0.11269
 C1778 C 0.61451 0.42444 0.10414
 C1779 C 0.59757 0.44130 0.08709
 C1780 C 0.57229 0.43373 0.07891
 N1781 N 0.62289 0.38159 0.12951
 N1782 N 0.64485 0.38694 0.14256
 C1783 C 0.66040 0.36760 0.15871
 C1784 C 0.68281 0.37439 0.17732
 C1785 C 0.69814 0.35576 0.19343
 C1786 C 0.69140 0.32994 0.19075
 C1787 C 0.66890 0.32324 0.17196
 C1788 C 0.65352 0.34185 0.15624
 H1789 H 0.54527 0.40237 0.08150
 H1790 H 0.57504 0.37316 0.11046
 H1791 H 0.63385 0.43059 0.11037
 H1792 H 0.60411 0.46024 0.08066
 H1793 H 0.68835 0.39414 0.17946
 H1794 H 0.71539 0.36157 0.20760
 H1795 H 0.66308 0.30358 0.16943
 H1796 H 0.63633 0.33604 0.14195
 C1797 C 0.43952 0.91381 0.40160
 C1798 C 0.42330 0.89768 0.38213
 C1799 C 0.39757 0.90413 0.37669
 C1800 C 0.38801 0.92712 0.39122
 C1801 C 0.40424 0.94328 0.41126
 C1802 C 0.43023 0.93677 0.41660
 N1803 N 0.38173 0.88636 0.35745
 N1804 N 0.35898 0.89105 0.34674
 C1805 C 0.34418 0.87176 0.32860
 C1806 C 0.32064 0.87799 0.31251
 C1807 C 0.30571 0.85918 0.29554
 C1808 C 0.31398 0.83372 0.29495
 C1809 C 0.33773 0.82765 0.31080
 C1810 C 0.35269 0.84642 0.32726
 H1811 H 0.45932 0.90803 0.40531
 H1812 H 0.43083 0.87995 0.37126
 H1813 H 0.36807 0.93238 0.38751
 H1814 H 0.39652 0.96085 0.42241
 H1815 H 0.31381 0.89741 0.31330
 H1816 H 0.28746 0.86443 0.28370
 H1817 H 0.34475 0.80829 0.31068
 H1818 H 0.37076 0.84100 0.33947
 C1819 C 0.10016 0.05006 0.92578
 C1820 C 0.11955 0.06505 0.91047
 C1821 C 0.11438 0.09008 0.90035
 C1822 C 0.08946 0.09995 0.90555
 C1823 C 0.07002 0.08493 0.92037
 C1824 C 0.07513 0.05982 0.93068
 N1825 N 0.13445 0.10510 0.88450
 N1826 N 0.13136 0.12879 0.87982
 C1827 C 0.15028 0.14474 0.86330
 C1828 C 0.14594 0.17087 0.86375
 C1829 C 0.16324 0.18724 0.84692
 C1830 C 0.18526 0.17773 0.82881
 C1831 C 0.18971 0.15137 0.82851
 C1832 C 0.17238 0.13495 0.84581
 H1833 H 0.10464 0.03072 0.93321
 H1834 H 0.13864 0.05719 0.90653
 H1835 H 0.08490 0.11921 0.89781
 H1836 H 0.05098 0.09303 0.92384
 H1837 H 0.12892 0.17858 0.87704
 H1838 H 0.15903 0.20738 0.84762
 H1839 H 0.20645 0.14344 0.81479
 H1840 H 0.17601 0.11472 0.84501
 C1841 C 0.06166 0.90446 0.05809
 C1842 C 0.07914 0.88730 0.07268
 C1843 C 0.10476 0.89423 0.07807
 C1844 C 0.11298 0.91858 0.06788
 C1845 C 0.09550 0.93578 0.05275
 C1846 C 0.06954 0.92898 0.04812
 N1847 N 0.12164 0.87615 0.09439
 N1848 N 0.14445 0.88131 0.10436
 C1849 C 0.16035 0.86247 0.12109
 C1850 C 0.18404 0.86957 0.13593
 C1851 C 0.19936 0.85172 0.15376
 C1852 C 0.19129 0.82632 0.15674
 C1853 C 0.16768 0.81921 0.14117
 C1854 C 0.15235 0.83708 0.12366
 H1855 H 0.04190 0.89848 0.05461
 H1856 H 0.07262 0.86857 0.08031
 H1857 H 0.13278 0.92429 0.07168
 H1858 H 0.10215 0.95451 0.04533
 H1859 H 0.19046 0.88905 0.13414
 H1860 H 0.21747 0.85784 0.16527
 H1861 H 0.16083 0.79986 0.14292
 H1862 H 0.13417 0.83103 0.11233
 C1863 C 0.94167 0.42255 0.40380
 C1864 C 0.92525 0.40464 0.38833
 C1865 C 0.89863 0.40740 0.39156
 C1866 C 0.88840 0.42855 0.41037
 C1867 C 0.90488 0.44647 0.42631
 C1868 C 0.93174 0.44357 0.42332
 N1869 N 0.88271 0.38801 0.37621
 N1870 N 0.85838 0.38991 0.37389
 C1871 C 0.84341 0.36964 0.35873
 C1872 C 0.81782 0.37412 0.34916
 C1873 C 0.80317 0.35485 0.33305
 C1874 C 0.81384 0.33060 0.32686
 C1875 C 0.83936 0.32600 0.33734
 C1876 C 0.85406 0.34537 0.35290
 H1877 H 0.96221 0.41955 0.40104
 H1878 H 0.93331 0.38839 0.37394
 H1879 H 0.86780 0.43097 0.41328
 H1880 H 0.89661 0.46238 0.44123
 H1881 H 0.80936 0.39270 0.35363
 H1882 H 0.78350 0.35892 0.32550
 H1883 H 0.84814 0.30757 0.33288
 H1884 H 0.87376 0.34136 0.36033
 C1885 C 0.39547 0.06032 0.54565
 C1886 C 0.37655 0.07665 0.55989
 C1887 C 0.37718 0.08435 0.59657
 C1888 C 0.39691 0.07537 0.61907
 C1889 C 0.41617 0.05958 0.60467
 C1890 C 0.41572 0.05205 0.56778
 N1891 N 0.35874 0.10254 0.60981
 N1892 N 0.35441 0.10589 0.64376
 C1893 C 0.33750 0.12543 0.65715
 C1894 C 0.32759 0.12387 0.69269
 C1895 C 0.31213 0.14336 0.70710
 C1896 C 0.30703 0.16511 0.68646
 C1897 C 0.31701 0.16663 0.65079
 C1898 C 0.33189 0.14685 0.63611
 H1899 H 0.39485 0.05498 0.51704
 H1900 H 0.36154 0.08358 0.54221
 H1901 H 0.39793 0.08126 0.64740
 H1902 H 0.43158 0.05345 0.62228
 H1903 H 0.33193 0.10754 0.70928
 H1904 H 0.30476 0.14177 0.73470
 H1905 H 0.31326 0.18313 0.63424
 H1906 H 0.33958 0.14858 0.60871
 C1907 C 0.60674 0.55101 0.94885
 C1908 C 0.62627 0.56628 0.93429
 C1909 C 0.62046 0.59011 0.91982
 C1910 C 0.59474 0.59843 0.91989
 C1911 C 0.57522 0.58308 0.93388
 C1912 C 0.58094 0.55919 0.94854
 N1913 N 0.64068 0.60547 0.90485
 N1914 N 0.63675 0.62871 0.89747
 C1915 C 0.65567 0.64502 0.88150
 C1916 C 0.65023 0.67094 0.88004
 C1917 C 0.66736 0.68760 0.86338
 C1918 C 0.69034 0.67864 0.84721
 C1919 C 0.69593 0.65250 0.84887
 C1920 C 0.67877 0.63580 0.86611
 H1921 H 0.61177 0.53267 0.95981
 H1922 H 0.64597 0.55958 0.93439
 H1923 H 0.58965 0.61669 0.90874
 H1924 H 0.55560 0.59002 0.93332
 H1925 H 0.63246 0.67825 0.89166
 H1926 H 0.66224 0.70752 0.86252
 H1927 H 0.71342 0.64497 0.83669
 H1928 H 0.68328 0.61574 0.86676
 C1929 C 0.43567 0.42162 0.88805
 C1930 C 0.41853 0.40511 0.87096
 C1931 C 0.39201 0.40872 0.87461
 C1932 C 0.38265 0.42964 0.89476
 C1933 C 0.39982 0.44610 0.91232
 C1934 C 0.42655 0.44196 0.90971
 N1935 N 0.37531 0.38976 0.85985
 N1936 N 0.35104 0.39243 0.85758
 C1937 C 0.33541 0.37197 0.84444
 C1938 C 0.31071 0.37691 0.83122
 C1939 C 0.29560 0.35710 0.81733
 C1940 C 0.30481 0.33198 0.81742
 C1941 C 0.32930 0.32706 0.83170
 C1942 C 0.34452 0.34685 0.84479
 H1943 H 0.45608 0.41777 0.88545
 H1944 H 0.42593 0.38900 0.85555
 H1945 H 0.36216 0.43270 0.89803
 H1946 H 0.39215 0.46160 0.92873
 H1947 H 0.30340 0.39616 0.83101
 H1948 H 0.27674 0.36140 0.80660
 H1949 H 0.33699 0.30795 0.83196
 H1950 H 0.36343 0.34251 0.85527
 C1951 C 0.88710 0.04276 0.06942
 C1952 C 0.86823 0.05923 0.08345
 C1953 C 0.87535 0.08183 0.10101
 C1954 C 0.90150 0.08706 0.10651
 C1955 C 0.92029 0.07046 0.09325
 C1956 C 0.91334 0.04849 0.07367
 N1957 N 0.85605 0.09965 0.11235
 N1958 N 0.86168 0.12298 0.11647
 C1959 C 0.84370 0.14154 0.12947
 C1960 C 0.85078 0.16711 0.12867
 C1961 C 0.83488 0.18564 0.14436
 C1962 C 0.81176 0.17874 0.16165
 C1963 C 0.80425 0.15309 0.16127
 C1964 C 0.82005 0.13462 0.14513
 H1965 H 0.88119 0.02592 0.05453
 H1966 H 0.84809 0.05491 0.07935
 H1967 H 0.90742 0.10423 0.12056
 H1968 H 0.94029 0.07550 0.09692
 H1969 H 0.86902 0.17259 0.11671
 H1970 H 0.84126 0.20520 0.14441
 H1971 H 0.78648 0.14723 0.17426
 H1972 H 0.81425 0.11492 0.14607
 C1973 C 0.56618 0.91925 0.61020
 C1974 C 0.58306 0.90188 0.62555
 C1975 C 0.60948 0.90368 0.61926
 C1976 C 0.61909 0.92362 0.59791
 C1977 C 0.60210 0.94103 0.58209
 C1978 C 0.57536 0.93879 0.58764
 N1979 N 0.62569 0.88433 0.63384
 N1980 N 0.65013 0.88541 0.63368
 C1981 C 0.66512 0.86505 0.64823
 C1982 C 0.69071 0.86941 0.65800
 C1983 C 0.70511 0.85028 0.67455
 C1984 C 0.69425 0.82625 0.68081
 C1985 C 0.66891 0.82161 0.66958
 C1986 C 0.65439 0.84088 0.65373
 H1987 H 0.54578 0.91684 0.61524
 H1988 H 0.57546 0.88663 0.64202
 H1989 H 0.63953 0.92532 0.59267
 H1990 H 0.60983 0.95576 0.56480
 H1991 H 0.69927 0.88787 0.65376
 H1992 H 0.72466 0.85435 0.68273
 H1993 H 0.66000 0.80334 0.67416
 H1994 H 0.63472 0.83696 0.64606
 C1995 C 0.11017 0.55616 0.43097
 C1996 C 0.12979 0.57087 0.41565
 C1997 C 0.12447 0.59524 0.40284
 C1998 C 0.09911 0.60451 0.40453
 C1999 C 0.07945 0.58968 0.41909
 C2000 C 0.08480 0.56547 0.43280
 N2001 N 0.14482 0.61033 0.38803
 N2002 N 0.14215 0.63422 0.38509
 C2003 C 0.16110 0.65025 0.36891
 C2004 C 0.15768 0.67648 0.37173
 C2005 C 0.17431 0.69292 0.35370
 C2006 C 0.19461 0.68336 0.33194
 C2007 C 0.19850 0.65692 0.32999
 C2008 C 0.18191 0.64046 0.34849
 H2009 H 0.11477 0.53748 0.44116
 H2010 H 0.14922 0.56345 0.41431
 H2011 H 0.09447 0.62319 0.39443
 H2012 H 0.06013 0.59739 0.42028
 H2013 H 0.14166 0.68419 0.38735
 H2014 H 0.17064 0.71312 0.35583
 H2015 H 0.21395 0.64895 0.31351
 H2016 H 0.18482 0.62018 0.34586
   
