data_POSCAR
  _audit_creation_date              2014-09-24
  _audit_creation_method            'ToBaCCo'
  _symmetry_space_group_name_H-M    'P1'
  _symmetry_Int_Tables_number       1
  _symmetry_cell_setting            triclinic
  loop_
  _symmetry_equiv_pos_as_xyz
 x,y,z
_cell_length_a 51.7514
_cell_length_b 52.4954
_cell_length_c 52.4352
_cell_angle_alpha 93.455500
_cell_angle_beta 94.181000
_cell_angle_gamma 93.709200
loop_
  _atom_site_label
  _atom_site_type_symbol
  _atom_site_fract_x
  _atom_site_fract_y
  _atom_site_fract_z
C1 C 0.72171 0.67929 0.97068
 H2 H 0.74038 0.68039 0.96261
 C3 C 0.70160 0.69316 0.96060
 H4 H 0.70496 0.70497 0.94477
 C5 C 0.69407 0.66095 0.99977
 H6 H 0.69095 0.64784 1.01453
 C7 C 0.67345 0.67435 0.99020
 H8 H 0.65477 0.67176 0.99809
 N9 N 0.71749 0.66326 0.98962
 C10 C 0.79273 0.64200 1.02124
 H11 H 0.78809 0.62155 1.01994
 C12 C 0.81747 0.65182 1.03051
 H13 H 0.83171 0.63880 1.03670
 C14 C 0.77955 0.68368 1.01462
 H15 H 0.76470 0.69590 1.00818
 C16 C 0.80418 0.69440 1.02396
 H17 H 0.80822 0.71493 1.02455
 Zn18 Zn 0.74309 0.64058 0.99872
 N19 N 0.77454 0.65784 1.01304
 C20 C 0.77360 0.62797 0.95882
 N21 N 0.75030 0.62194 0.96814
 C22 C 0.73230 0.60532 0.95463
 C23 C 0.73802 0.59323 0.93133
 C24 C 0.77991 0.61674 0.93562
 C25 C 0.73185 0.63205 1.04782
 C26 C 0.72392 0.61943 1.06879
 C27 C 0.71414 0.58110 1.04109
 C28 C 0.72301 0.59446 1.02069
 N29 N 0.73125 0.61961 1.02435
 H30 H 0.78719 0.64221 0.96892
 H31 H 0.71343 0.60164 0.96177
 H32 H 0.72369 0.57964 0.92115
 H33 H 0.79835 0.62257 0.92850
 H34 H 0.73833 0.65213 1.05019
 H35 H 0.72373 0.63095 1.08655
 H36 H 0.70834 0.56101 1.03726
 H37 H 0.72324 0.58465 1.00202
 C38 C 0.82362 0.67829 1.03159
 C39 C 0.67689 0.69022 0.96993
 C40 C 0.71447 0.59340 1.06598
 C41 C 0.76223 0.59883 0.92159
 C42 C 0.72676 0.36413 0.50243
 H43 H 0.74496 0.36814 0.51393
 C44 C 0.70750 0.34749 0.51074
 H45 H 0.71090 0.33901 0.52890
 C46 C 0.70012 0.37097 0.46508
 H47 H 0.69748 0.38000 0.44718
 C48 C 0.68024 0.35450 0.47274
 H49 H 0.66235 0.35100 0.46063
 N50 N 0.72276 0.37552 0.48002
 C51 C 0.79949 0.39119 0.45333
 H52 H 0.80073 0.41185 0.45331
 C53 C 0.82036 0.37762 0.44612
 H54 H 0.83742 0.38800 0.44018
 C55 C 0.77542 0.35269 0.46053
 H56 H 0.75785 0.34301 0.46606
 C57 C 0.79589 0.33835 0.45354
 H58 H 0.79392 0.31774 0.45411
 Zn59 Zn 0.74990 0.39809 0.47079
 N60 N 0.77761 0.37866 0.46049
 C61 C 0.78640 0.41852 0.51060
 N62 N 0.76154 0.41965 0.50057
 C63 C 0.74442 0.43346 0.51318
 C64 C 0.75200 0.44631 0.53703
 C65 C 0.79476 0.43107 0.53417
 C66 C 0.74863 0.41487 0.42037
 C67 C 0.73909 0.42742 0.39935
 C68 C 0.70639 0.44404 0.42504
 C69 C 0.71689 0.43151 0.44576
 N70 N 0.73759 0.41713 0.44310
 H71 H 0.79967 0.40694 0.50107
 H72 H 0.72451 0.43346 0.50546
 H73 H 0.73788 0.45631 0.54730
 H74 H 0.81454 0.42949 0.54188
 H75 H 0.76455 0.40288 0.41813
 H76 H 0.74856 0.42552 0.38167
 H77 H 0.68931 0.45453 0.42741
 H78 H 0.70782 0.43249 0.46365
 C79 C 0.81878 0.35083 0.44628
 C80 C 0.68382 0.34256 0.49587
 C81 C 0.71743 0.44199 0.40133
 C82 C 0.77732 0.44463 0.54804
 C83 C 0.23780 -0.13358 0.01610
 H84 H 0.25523 -0.12854 0.02850
 C85 C 0.21799 -0.14955 0.02455
 H86 H 0.22049 -0.15659 0.04349
 C87 C 0.21264 -0.12863 -0.02261
 H88 H 0.21020 -0.12005 -0.04071
 C89 C 0.19248 -0.14476 -0.01506
 H90 H 0.17512 -0.14877 -0.02785
 N91 N 0.23479 -0.12334 -0.00705
 C92 C 0.30231 -0.10779 -0.04618
 H93 H 0.29579 -0.09133 -0.05553
 C94 C 0.32276 -0.12053 -0.05558
 H95 H 0.33163 -0.11391 -0.07229
 C96 C 0.29924 -0.13608 -0.01280
 H97 H 0.28987 -0.14214 0.00377
 C98 C 0.31998 -0.14921 -0.02139
 H99 H 0.32638 -0.16545 -0.01147
 Zn100 Zn 0.26125 -0.09915 -0.01536
 N101 N 0.29053 -0.11606 -0.02554
 C102 C 0.29581 -0.07484 0.02428
 N103 N 0.27067 -0.07754 0.01446
 C104 C 0.25149 -0.06695 0.02699
 C105 C 0.25716 -0.05369 0.05085
 C106 C 0.30235 -0.06173 0.04808
 C107 C 0.24323 -0.09285 -0.06606
 C108 C 0.23370 -0.08020 -0.08700
 C109 C 0.23582 -0.04127 -0.05978
 C110 C 0.24548 -0.05477 -0.03939
 N111 N 0.24861 -0.08017 -0.04276
 H112 H 0.31071 -0.08360 0.01408
 H113 H 0.23162 -0.06959 0.01881
 H114 H 0.24155 -0.04580 0.06076
 H115 H 0.32231 -0.06078 0.05605
 H116 H 0.24610 -0.11307 -0.06831
 H117 H 0.22849 -0.09189 -0.10450
 H118 H 0.23472 -0.02094 -0.05604
 H119 H 0.25057 -0.04483 -0.02088
 C120 C 0.33157 -0.14172 -0.04337
 C121 C 0.19480 -0.15516 0.00899
 C122 C 0.22932 -0.05382 -0.08438
 C123 C 0.28281 -0.05140 0.06195
 C124 C 0.21515 0.18304 0.49013
 H125 H 0.23310 0.19313 0.49801
 C126 C 0.19555 0.19656 0.47840
 H127 H 0.19863 0.21706 0.47747
 C128 C 0.19011 0.14388 0.47994
 H129 H 0.18841 0.12324 0.48009
 C130 C 0.17004 0.15656 0.46841
 H131 H 0.15265 0.14546 0.46044
 N132 N 0.21207 0.15713 0.49057
 C133 C 0.29212 0.14722 0.50568
 H134 H 0.29151 0.13184 0.49100
 C135 C 0.31615 0.15786 0.51619
 H136 H 0.33370 0.15096 0.50901
 C137 C 0.27031 0.17386 0.53391
 H138 H 0.25233 0.17939 0.54121
 C139 C 0.29411 0.18535 0.54479
 H140 H 0.29441 0.19991 0.56036
 Zn141 Zn 0.23849 0.13628 0.50199
 N142 N 0.26978 0.15517 0.51467
 C143 C 0.25142 0.13025 0.45251
 N144 N 0.24552 0.11624 0.47253
 C145 C 0.24567 0.09029 0.47089
 C146 C 0.25309 0.07758 0.44859
 C147 C 0.25891 0.11842 0.43005
 C148 C 0.20344 0.11838 0.53721
 C149 C 0.19597 0.10512 0.55804
 C150 C 0.23811 0.08779 0.56130
 C151 C 0.24463 0.10105 0.54004
 N152 N 0.22739 0.11608 0.52854
 H153 H 0.25093 0.15085 0.45434
 H154 H 0.24072 0.07955 0.48701
 H155 H 0.25405 0.05700 0.44778
 H156 H 0.26387 0.13003 0.41449
 H157 H 0.19028 0.13105 0.52852
 H158 H 0.17702 0.10759 0.56495
 H159 H 0.25215 0.07623 0.57055
 H160 H 0.26373 0.09990 0.53309
 C161 C 0.31736 0.17693 0.53617
 C162 C 0.17273 0.18321 0.46701
 C163 C 0.21349 0.08983 0.57053
 C164 C 0.26034 0.09181 0.42804
 C165 C 0.16917 0.46357 0.21600
 H166 H 0.16785 0.45358 0.23336
 C167 C 0.18353 0.45384 0.19649
 H168 H 0.19314 0.43638 0.19916
 C169 C 0.15627 0.49708 0.19069
 H170 H 0.14512 0.51354 0.18812
 C171 C 0.17066 0.48824 0.17088
 H172 H 0.17085 0.49854 0.15362
 N173 N 0.15535 0.48445 0.21254
 C174 C 0.13469 0.51720 0.28623
 H175 H 0.11522 0.52182 0.28023
 C176 C 0.14494 0.52452 0.31107
 H177 H 0.13312 0.53440 0.32415
 C178 C 0.17413 0.49993 0.27610
 H179 H 0.18546 0.49038 0.26241
 C180 C 0.18536 0.50731 0.30078
 H181 H 0.20523 0.50323 0.30600
 Zn182 Zn 0.13164 0.49413 0.23695
 N183 N 0.14900 0.50451 0.26949
 C184 C 0.09183 0.46691 0.26034
 N185 N 0.10769 0.46570 0.24080
 C186 C 0.10803 0.44386 0.22546
 C187 C 0.09347 0.42168 0.23068
 C188 C 0.07700 0.44522 0.26624
 C189 C 0.12828 0.54510 0.22681
 C190 C 0.11689 0.56707 0.21932
 C191 C 0.07613 0.54197 0.20985
 C192 C 0.08834 0.52039 0.21766
 N193 N 0.11400 0.52237 0.22580
 H194 H 0.09127 0.48441 0.27203
 H195 H 0.12001 0.44335 0.20945
 H196 H 0.09448 0.40435 0.21861
 H197 H 0.06562 0.44640 0.28274
 H198 H 0.14864 0.54608 0.23339
 H199 H 0.12878 0.58486 0.21985
 H200 H 0.05568 0.54016 0.20346
 H201 H 0.07737 0.50209 0.21715
 C202 C 0.17046 0.51934 0.31870
 C203 C 0.18392 0.46587 0.17326
 C204 C 0.09047 0.56573 0.21070
 C205 C 0.07822 0.42201 0.25174
 C206 C -0.14263 0.00052 0.24230
 H207 H -0.14281 0.00812 0.26193
 C208 C -0.15897 0.00977 0.22321
 H209 H -0.17228 0.02350 0.22929
 C210 C -0.12533 -0.02748 0.21200
 H211 H -0.11161 -0.04147 0.20762
 C212 C -0.14092 -0.01837 0.19212
 H213 H -0.13810 -0.02565 0.17290
 N214 N -0.12637 -0.01785 0.23649
 C215 C -0.10675 -0.04633 0.31142
 H216 H -0.08578 -0.04493 0.31171
 C217 C -0.11890 -0.05555 0.33226
 H218 H -0.10713 -0.06097 0.34873
 C219 C -0.14754 -0.04097 0.28952
 H220 H -0.15869 -0.03596 0.27258
 C221 C -0.16048 -0.04995 0.30999
 H222 H -0.18151 -0.05158 0.30862
 Zn223 Zn -0.10301 -0.02701 0.26326
 N224 N -0.12113 -0.03892 0.29077
 C225 C -0.08125 0.01399 0.29787
 N226 N -0.08169 0.00295 0.27369
 C227 C -0.06909 0.01455 0.25518
 C228 C -0.05586 0.03852 0.26050
 C229 C -0.06812 0.03789 0.30406
 C230 C -0.09631 -0.07619 0.24334
 C231 C -0.08299 -0.09690 0.23473
 C232 C -0.04265 -0.07111 0.24420
 C233 C -0.05678 -0.05083 0.25255
 N234 N -0.08314 -0.05365 0.25170
 H235 H -0.09196 0.00484 0.31212
 H236 H -0.07010 0.00551 0.23601
 H237 H -0.04638 0.04771 0.24540
 H238 H -0.06884 0.04683 0.32313
 H239 H -0.11727 -0.07794 0.24316
 H240 H -0.09395 -0.11443 0.22747
 H241 H -0.02166 -0.06858 0.24515
 H242 H -0.04667 -0.03292 0.25985
 C243 C -0.14612 -0.05731 0.33174
 C244 C -0.15806 0.00095 0.19727
 C245 C -0.05578 -0.09452 0.23499
 C246 C -0.05565 0.05069 0.28511
 C247 C 0.36142 0.50446 0.73127
 H248 H 0.36354 0.51536 0.74957
 C249 C 0.34567 0.51273 0.71107
 H250 H 0.33602 0.53023 0.71405
 C251 C 0.37296 0.46940 0.70495
 H252 H 0.38402 0.45283 0.70237
 C253 C 0.35710 0.47672 0.68436
 H254 H 0.35573 0.46518 0.66645
 N255 N 0.37479 0.48322 0.72787
 C256 C 0.39339 0.45230 0.80144
 H257 H 0.41420 0.45194 0.80072
 C258 C 0.38142 0.44272 0.82215
 H259 H 0.39320 0.43517 0.83747
 C260 C 0.35291 0.46311 0.78242
 H261 H 0.34193 0.47094 0.76678
 C262 C 0.34011 0.45382 0.80289
 H263 H 0.31923 0.45442 0.80280
 Zn264 Zn 0.39774 0.47498 0.75551
 N265 N 0.37912 0.46239 0.78224
 C266 C 0.41524 0.51482 0.79209
 N267 N 0.41756 0.50549 0.76767
 C268 C 0.43110 0.51920 0.75120
 C269 C 0.44226 0.54373 0.75892
 C270 C 0.42595 0.53914 0.80053
 C271 C 0.40638 0.42554 0.73833
 C272 C 0.42016 0.40514 0.72985
 C273 C 0.45964 0.43269 0.73639
 C274 C 0.44500 0.45269 0.74455
 N275 N 0.41880 0.44887 0.74489
 H276 H 0.40405 0.50397 0.80481
 H277 H 0.43225 0.51155 0.73172
 H278 H 0.45208 0.55487 0.74534
 H279 H 0.42332 0.54645 0.81986
 H280 H 0.38556 0.42295 0.73923
 H281 H 0.40959 0.38710 0.72367
 H282 H 0.48047 0.43609 0.73618
 H283 H 0.45455 0.47123 0.75051
 C284 C 0.35445 0.44347 0.82309
 C285 C 0.34342 0.49889 0.68710
 C286 C 0.44716 0.40858 0.72853
 C287 C 0.43906 0.55419 0.78368
 C288 C 0.67383 0.97109 0.72489
 H289 H 0.67315 0.96213 0.74289
 C290 C 0.68704 0.96003 0.70514
 H291 H 0.69644 0.94252 0.70819
 C292 C 0.66047 1.00357 0.69842
 H293 H 0.64943 1.02001 0.69541
 C294 C 0.67365 0.99338 0.67835
 H295 H 0.67315 1.00271 0.66048
 N296 N 0.66046 0.99218 0.72103
 C297 C 0.64040 1.02579 0.79426
 H298 H 0.61981 1.02621 0.78910
 C299 C 0.65044 1.03428 0.81883
 H300 H 0.63718 1.04215 0.83172
 C301 C 0.68205 1.01591 0.78248
 H302 H 0.69411 1.00827 0.76827
 C303 C 0.69308 1.02438 0.80698
 H304 H 0.71362 1.02254 0.81110
 Zn305 Zn 0.63796 1.00285 0.74593
 N306 N 0.65605 1.01635 0.77687
 C307 C 0.62407 0.96327 0.77608
 N308 N 0.61740 0.97331 0.75341
 C309 C 0.59936 0.96079 0.73610
 C310 C 0.58667 0.93763 0.74179
 C311 C 0.61233 0.94014 0.78229
 C312 C 0.63322 1.05177 0.73186
 C313 C 0.62225 1.07293 0.72197
 C314 C 0.58062 1.04884 0.71693
 C315 C 0.59250 1.02794 0.72699
 N316 N 0.61852 1.02963 0.73359
 H317 H 0.63936 0.97260 0.78911
 H318 H 0.59512 0.96853 0.71772
 H319 H 0.57203 0.92821 0.72799
 H320 H 0.61890 0.93236 0.80009
 H321 H 0.65376 1.05275 0.73771
 H322 H 0.63449 1.09024 0.72052
 H323 H 0.56007 1.04706 0.71097
 H324 H 0.58100 1.01039 0.72911
 C325 C 0.67714 1.03321 0.82602
 C326 C 0.68652 0.97085 0.68124
 C327 C 0.59574 1.07152 0.71382
 C328 C 0.59316 0.92697 0.76524
 C329 C -0.00306 0.24174 -0.15871
 H330 H 0.00290 0.26178 -0.15961
 C331 C 0.00679 0.22352 -0.17516
 H332 H 0.01962 0.23001 -0.18919
 C333 C -0.02690 0.20935 -0.13902
 H334 H -0.03946 0.20388 -0.12440
 C335 C -0.01692 0.19042 -0.15460
 H336 H -0.02195 0.17059 -0.15148
 N337 N -0.01969 0.23444 -0.14119
 C338 C -0.05250 0.30610 -0.11816
 H339 H -0.05041 0.30494 -0.09759
 C340 C -0.06263 0.32752 -0.12855
 H341 H -0.06856 0.34271 -0.11584
 C342 C -0.04762 0.28740 -0.15965
 H343 H -0.04209 0.27160 -0.17172
 C344 C -0.05772 0.30846 -0.17088
 H345 H -0.05926 0.30887 -0.19155
 Zn346 Zn -0.02955 0.25971 -0.11724
 N347 N -0.04458 0.28692 -0.13369
 C348 C 0.01015 0.29685 -0.09749
 N349 N 0.00116 0.27197 -0.09714
 C350 C 0.01511 0.25489 -0.08445
 C351 C 0.03927 0.26261 -0.07165
 C352 C 0.03411 0.30535 -0.08497
 C353 C -0.07790 0.23702 -0.10912
 C354 C -0.09781 0.22671 -0.09551
 C355 C -0.06967 0.23463 -0.05668
 C356 C -0.05040 0.24492 -0.07112
 N357 N -0.05472 0.24560 -0.09688
 H358 H -0.00077 0.31004 -0.10818
 H359 H 0.00777 0.23509 -0.08491
 H360 H 0.05047 0.24861 -0.06232
 H361 H 0.04097 0.32521 -0.08567
 H362 H -0.08082 0.23794 -0.12968
 H363 H -0.11520 0.21899 -0.10669
 H364 H -0.06537 0.23564 -0.03616
 H365 H -0.03210 0.25268 -0.06163
 C366 C -0.06499 0.32906 -0.15525
 C367 C 0.00044 0.19732 -0.17288
 C368 C -0.09413 0.22493 -0.06862
 C369 C 0.04924 0.28806 -0.07222
 C370 C 0.47260 0.21468 0.17199
 H371 H 0.46553 0.23362 0.17310
 C372 C 0.46284 0.19603 0.18741
 H373 H 0.44848 0.20086 0.20059
 C374 C 0.49916 0.18504 0.15280
 H375 H 0.51251 0.18042 0.13860
 C376 C 0.49013 0.16594 0.16798
 H377 H 0.49686 0.14692 0.16537
 N378 N 0.49025 0.20884 0.15493
 C379 C 0.51866 0.28292 0.13118
 H380 H 0.51383 0.27885 0.11085
 C381 C 0.52855 0.30728 0.14033
 H382 H 0.53077 0.32188 0.12679
 C383 C 0.52005 0.26873 0.17327
 H384 H 0.51664 0.25354 0.18591
 C385 C 0.53048 0.29289 0.18330
 H386 H 0.53528 0.29596 0.20373
 Zn387 Zn 0.49958 0.23315 0.13123
 N388 N 0.51428 0.26435 0.14759
 C389 C 0.45646 0.26035 0.12343
 N390 N 0.46846 0.24068 0.11242
 C391 C 0.45729 0.22704 0.09108
 C392 C 0.43399 0.23429 0.07908
 C393 C 0.43318 0.26790 0.11243
 C394 C 0.54793 0.21735 0.12644
 C395 C 0.56952 0.20789 0.11585
 C396 C 0.54641 0.20639 0.07404
 C397 C 0.52505 0.21603 0.08554
 N398 N 0.52602 0.22066 0.11146
 H399 H 0.46484 0.27013 0.14112
 H400 H 0.46624 0.21052 0.08340
 H401 H 0.42583 0.22378 0.06164
 H402 H 0.42406 0.28343 0.12196
 H403 H 0.54846 0.22182 0.14689
 H404 H 0.58665 0.20543 0.12835
 H405 H 0.54521 0.20216 0.05350
 H406 H 0.50794 0.21975 0.07373
 C407 C 0.53474 0.31266 0.16673
 C408 C 0.47141 0.17119 0.18527
 C409 C 0.56885 0.20177 0.08939
 C410 C 0.42181 0.25528 0.08961
 C411 C 0.97270 0.72796 0.67442
 H412 H 0.96393 0.74607 0.67347
 C413 C 0.96118 0.70843 0.68770
 H414 H 0.94353 0.71178 0.69688
 C415 C 1.00498 0.70096 0.66158
 H416 H 1.02151 0.69768 0.65073
 C417 C 0.99437 0.68112 0.67489
 H418 H 1.00349 0.66313 0.67466
 N419 N 0.99384 0.72371 0.66121
 C420 C 1.02826 0.79660 0.63957
 H421 H 1.02605 0.79236 0.61904
 C422 C 1.03857 0.82060 0.64948
 H423 H 1.04386 0.83473 0.63624
 C424 C 1.02236 0.78337 0.68128
 H425 H 1.01581 0.76876 0.69348
 C426 C 1.03301 0.80716 0.69212
 H427 H 1.03491 0.81048 0.71276
 Zn428 Zn 1.00447 0.74821 0.63825
 N429 N 1.01997 0.77875 0.65539
 C430 C 0.96508 0.77967 0.62426
 N431 N 0.97398 0.75630 0.61882
 C432 C 0.95989 0.73865 0.60243
 C433 C 0.93633 0.74469 0.59009
 C434 C 0.94163 0.78632 0.61274
 C435 C 1.05322 0.73241 0.63107
 C436 C 1.07308 0.72087 0.61921
 C437 C 1.04547 0.71564 0.57983
 C438 C 1.02601 0.72740 0.59253
 N439 N 1.02997 0.73477 0.61793
 H440 H 0.97561 0.79301 0.63837
 H441 H 0.96671 0.71977 0.59922
 H442 H 0.92565 0.73057 0.57676
 H443 H 0.93480 0.80478 0.61818
 H444 H 1.05603 0.73885 0.65114
 H445 H 1.09124 0.71877 0.63026
 H446 H 1.04169 0.70889 0.55991
 H447 H 1.00764 0.73000 0.58221
 C448 C 1.04107 0.82630 0.67611
 C449 C 0.97163 0.68435 0.68748
 C450 C 1.06913 0.71167 0.59344
 C451 C 0.92692 0.76889 0.59519
 C452 C 0.48183 0.72146 0.34381
 H453 H 0.47838 0.74008 0.33718
 C454 C 0.48815 0.70224 0.32624
 H455 H 0.48859 0.70623 0.30626
 C456 C 0.48652 0.69398 0.37774
 H457 H 0.48667 0.69097 0.39789
 C458 C 0.49319 0.67430 0.36088
 H459 H 0.49841 0.65644 0.36846
 N460 N 0.48095 0.71707 0.36907
 C461 C 0.47774 0.79619 0.38148
 H462 H 0.49334 0.79824 0.39647
 C463 C 0.47070 0.81764 0.36879
 H464 H 0.48080 0.83573 0.37540
 C465 C 0.44510 0.77010 0.35676
 H466 H 0.43521 0.75142 0.35215
 C467 C 0.43778 0.79082 0.34316
 H468 H 0.42288 0.78686 0.32768
 Zn469 Zn 0.47400 0.74401 0.39321
 N470 N 0.46480 0.77304 0.37548
 C471 C 0.52745 0.74530 0.40742
 N472 N 0.50439 0.75271 0.41508
 C473 C 0.50313 0.76724 0.43727
 C474 C 0.52586 0.77551 0.45238
 C475 C 0.55056 0.75306 0.42194
 C476 C 0.42316 0.74403 0.41045
 C477 C 0.40222 0.73502 0.42353
 C478 C 0.42969 0.70493 0.44294
 C479 C 0.45016 0.71465 0.42962
 N480 N 0.44637 0.73326 0.41305
 H481 H 0.52806 0.73408 0.38954
 H482 H 0.48452 0.77291 0.44287
 H483 H 0.52458 0.78740 0.46978
 H484 H 0.56876 0.74778 0.41489
 H485 H 0.42056 0.75935 0.39790
 H486 H 0.38365 0.74319 0.42044
 H487 H 0.43294 0.68976 0.45566
 H488 H 0.46906 0.70725 0.43253
 C489 C 0.45024 0.81548 0.34915
 C490 C 0.49422 0.67832 0.33472
 C491 C 0.40520 0.71480 0.43955
 C492 C 0.55004 0.76869 0.44456
 C493 C 0.38230 -0.02573 0.27618
 C494 C 0.36413 -0.03192 0.25194
 C495 C 0.35128 -0.01182 0.24364
 C496 C 0.35744 0.01296 0.26075
 C497 C 0.40022 -0.00283 0.26968
 C498 C 0.38726 0.01740 0.26148
 C499 C 0.36526 -0.01419 0.29588
 C500 C 0.35171 0.00556 0.28790
 H501 H 0.36337 -0.05021 0.24107
 H502 H 0.34660 0.02913 0.25399
 H503 H 0.42117 -0.00216 0.27179
 H504 H 0.36473 -0.02082 0.31501
 C505 C 0.09989 1.05308 0.75482
 C506 C 0.11967 1.06048 0.73584
 C507 C 0.13596 1.04207 0.73015
 C508 C 0.13135 1.01765 0.74444
 C509 C 0.08607 1.02769 0.74296
 C510 C 0.10246 1.00887 0.73771
 C511 C 0.11607 1.04497 0.77821
 C512 C 0.13257 1.02658 0.77299
 H513 H 0.11930 1.07810 0.72610
 H514 H 0.14534 1.00315 0.74041
 H515 H 0.06527 1.02456 0.73987
 H516 H 0.11409 1.05289 0.79747
 C517 C 0.58444 0.54156 0.23984
 C518 C 0.60018 0.55012 0.21795
 C519 C 0.61785 0.53361 0.21061
 C520 C 0.61773 0.50927 0.22564
 C521 C 0.57192 0.51505 0.22986
 C522 C 0.58931 0.49788 0.22271
 C523 C 0.60469 0.53586 0.26114
 C524 C 0.62197 0.51900 0.25388
 H525 H 0.59717 0.56777 0.20881
 H526 H 0.63256 0.49611 0.22016
 H527 H 0.55126 0.51038 0.22786
 H528 H 0.60396 0.54299 0.28089
 C529 C 0.86897 0.48702 0.76657
 C530 C 0.85704 0.48026 0.73928
 C531 C 0.84526 0.49963 0.72813
 C532 C 0.84631 0.52444 0.74541
 C533 C 0.88730 0.51097 0.76396
 C534 C 0.87558 0.53045 0.75259
 C535 C 0.84684 0.49709 0.78115
 C536 C 0.83505 0.51660 0.77037
 H537 H 0.85883 0.46188 0.72922
 H538 H 0.83632 0.54001 0.73627
 H539 H 0.90778 0.51245 0.76971
 H540 H 0.84272 0.49106 0.79993
 C541 C 0.27150 0.37408 -0.02369
 C542 C 0.24400 0.36256 -0.03151
 C543 C 0.23240 0.35030 -0.01284
 C544 C 0.24954 0.35035 0.01236
 C545 C 0.26850 0.39128 0.00069
 C546 C 0.25662 0.37903 0.01945
 C547 C 0.28627 0.35188 -0.01393
 C548 C 0.27504 0.33944 0.00481
 H549 H 0.23399 0.36522 -0.04994
 H550 H 0.24001 0.33990 0.02730
 H551 H 0.27478 0.41131 0.00312
 H552 H 0.30531 0.34784 -0.01982
 C553 C 0.76108 0.09151 1.05017
 C554 C 0.74014 0.10885 1.05819
 C555 C 0.73162 0.12431 1.03994
 C556 C 0.74517 0.12116 1.01490
 C557 C 0.74930 0.07692 1.02518
 C558 C 0.74113 0.09246 1.00668
 C559 C 0.78252 0.10963 1.04124
 C560 C 0.77446 0.12509 1.02275
 H561 H 0.73153 0.10758 1.07634
 H562 H 0.73818 0.13381 1.00005
 H563 H 0.75004 0.05656 1.02116
 H564 H 0.80265 0.10937 1.04842
 C565 C 0.25065 0.58610 0.54324
 C566 C 0.22582 0.59830 0.55046
 C567 C 0.21507 0.61253 0.53214
 C568 C 0.23041 0.61366 0.50811
 C569 C 0.24303 0.57124 0.51739
 C570 C 0.23228 0.58545 0.49892
 C571 C 0.26847 0.60904 0.53687
 C572 C 0.25823 0.62304 0.51820
 H573 H 0.21827 0.59739 0.56911
 H574 H 0.22174 0.62574 0.49358
 H575 H 0.24659 0.55127 0.51406
 H576 H 0.28834 0.61278 0.54483
 C577 C 0.76626 0.87385 0.48259
 C578 C 0.73921 0.86085 0.47537
 C579 C 0.72835 0.84895 0.49475
 C580 C 0.74584 0.85083 0.51990
 C581 C 0.76274 0.89174 0.50635
 C582 C 0.75176 0.87980 0.52577
 C583 C 0.78224 0.85284 0.49327
 C584 C 0.77175 0.84080 0.51264
 H585 H 0.72929 0.86163 0.45654
 H586 H 0.73713 0.84076 0.53553
 H587 H 0.76879 0.91185 0.50825
 H588 H 0.80157 0.84955 0.48769
 C589 C -0.02927 0.26638 0.37551
 C590 C -0.03540 0.24089 0.35984
 C591 C -0.01579 0.23332 0.34592
 C592 C 0.00853 0.25206 0.34891
 C593 C -0.00412 0.26216 0.39186
 C594 C 0.01604 0.25488 0.37811
 C595 C -0.02094 0.28530 0.35617
 C596 C -0.00135 0.27796 0.34221
 H597 H -0.05311 0.22902 0.36112
 H598 H 0.02376 0.24624 0.33648
 H599 H -0.00337 0.26205 0.41242
 H600 H -0.02932 0.30357 0.35443
 C601 C 1.05120 0.75750 0.09957
 C602 C 1.05898 0.73416 0.11388
 C603 C 1.04071 0.72481 0.12889
 C604 C 1.01615 0.73980 0.12854
 C605 C 1.02496 0.74909 0.08510
 C606 C 1.00643 0.73956 0.09995
 C607 C 1.04478 0.77663 0.12108
 C608 C 1.02631 0.76770 0.13609
 H609 H 1.07764 0.72613 0.11309
 H610 H 1.00194 0.73216 0.14144
 H611 H 1.02147 0.75146 0.06483
 H612 H 1.05367 0.79592 0.12377
 C613 C 0.54612 0.25206 0.58975
 C614 C 0.55463 0.23065 0.60633
 C615 C 0.53810 0.22436 0.62430
 C616 C 0.51381 0.23985 0.62380
 C617 C 0.51882 0.24228 0.57816
 C618 C 0.50176 0.23621 0.59593
 C619 C 0.54132 0.27411 0.60881
 C620 C 0.52428 0.26804 0.62640
 H621 H 0.57199 0.22068 0.60349
 H622 H 0.50025 0.23488 0.63847
 H623 H 0.51344 0.23970 0.55783
 H624 H 0.54980 0.29337 0.60751
 C625 C 0.47855 0.77615 0.87274
 C626 C 0.46923 0.74932 0.86140
 C627 C 0.48732 0.73683 0.84892
 C628 C 0.51335 0.75257 0.84855
 C629 C 0.50347 0.77230 0.88958
 C630 C 0.52153 0.75964 0.87705
 C631 C 0.48852 0.79016 0.85016
 C632 C 0.50652 0.77792 0.83747
 H633 H 0.45000 0.74075 0.86372
 H634 H 0.52815 0.74275 0.83807
 H635 H 0.50596 0.77786 0.90988
 H636 H 0.48514 0.80989 0.84697
 C637 C 0.42457 -0.11852 0.31324
 C638 C 0.40903 -0.14156 0.31125
 C639 C 0.41744 -0.16312 0.32278
 C640 C 0.44214 -0.16275 0.33638
 C641 C 0.45812 -0.13971 0.33719
 C642 C 0.44938 -0.11798 0.32603
 C643 C 0.41432 -0.09497 0.30304
 C644 C 0.43064 -0.07645 0.29263
 C645 C 0.42082 -0.05403 0.28385
 C646 C 0.39438 -0.04963 0.28528
 C647 C 0.37805 -0.06865 0.29491
 C648 C 0.38789 -0.09070 0.30403
 H649 H 0.40363 -0.17951 0.32175
 H650 H 0.47770 -0.13810 0.34605
 H651 H 0.43403 -0.04060 0.27569
 H652 H 0.35749 -0.06624 0.29574
 H653 H 0.46195 -0.10056 0.32798
 H654 H 0.45097 -0.07939 0.29098
 H655 H 0.38999 -0.14295 0.30103
 H656 H 0.37472 -0.10420 0.31228
 C657 C 0.90761 0.39640 0.81163
 C658 C 0.92471 0.39853 0.83384
 C659 C 0.93351 0.37667 0.84460
 C660 C 0.92543 0.35220 0.83337
 C661 C 0.90837 0.35006 0.81112
 C662 C 0.89953 0.37193 0.80039
 C663 C 0.89815 0.41962 0.80031
 C664 C 0.87209 0.42019 0.79105
 C665 C 0.86317 0.44202 0.78041
 C666 C 0.88001 0.46391 0.77861
 C667 C 0.90615 0.46329 0.78805
 C668 C 0.91506 0.44141 0.79874
 H669 H 0.94689 0.37895 0.86157
 H670 H 0.90165 0.33146 0.80216
 H671 H 0.84291 0.44186 0.77351
 H672 H 0.92005 0.47937 0.78738
 H673 H 0.88656 0.36970 0.78312
 H674 H 0.85848 0.40384 0.79234
 H675 H 0.93107 0.41711 0.84308
 H676 H 0.93534 0.44142 0.80551
 C677 C 0.03976 1.13815 0.78765
 C678 C 0.05161 1.16300 0.79259
 C679 C 0.03872 1.18219 0.80488
 C680 C 0.01324 1.17737 0.81196
 C681 C 0.00081 1.15291 0.80564
 C682 C 0.01397 1.13350 0.79388
 C683 C 0.05485 1.11695 0.77764
 C684 C 0.04280 1.09632 0.76178
 C685 C 0.05692 1.07572 0.75393
 C686 C 0.08351 1.07527 0.76175
 C687 C 0.09569 1.09659 0.77648
 C688 C 0.08156 1.11681 0.78469
 H689 H 0.04926 1.20053 0.80960
 H690 H -0.01900 1.14853 0.81015
 H691 H 0.04679 1.06050 0.74163
 H692 H 0.11626 1.09729 0.78228
 H693 H 0.00417 1.11462 0.79053
 H694 H 0.02244 1.09608 0.75532
 H695 H 0.07117 1.16762 0.78746
 H696 H 0.09162 1.13203 0.79717
 C697 C 0.52479 0.62030 0.28599
 C698 C 0.50777 0.61341 0.30451
 C699 C 0.49708 0.63220 0.31972
 C700 C 0.50327 0.65830 0.31683
 C701 C 0.51943 0.66514 0.29757
 C702 C 0.52994 0.64638 0.28227
 C703 C 0.53878 0.60058 0.27211
 C704 C 0.56516 0.60538 0.26829
 C705 C 0.57912 0.58644 0.25712
 C706 C 0.56724 0.56204 0.24940
 C707 C 0.54062 0.55736 0.25280
 C708 C 0.52658 0.57646 0.26397
 H709 H 0.48434 0.62627 0.33407
 H710 H 0.52485 0.68501 0.29493
 H711 H 0.59964 0.59061 0.25521
 H712 H 0.53051 0.53896 0.24762
 H713 H 0.54264 0.65233 0.26788
 H714 H 0.57537 0.62352 0.27483
 H715 H 0.50354 0.59351 0.30800
 H716 H 0.50621 0.57225 0.26652
 C717 C 0.56107 0.39036 0.19302
 C718 C 0.56816 0.37951 0.16959
 C719 C 0.56051 0.35411 0.16166
 C720 C 0.54496 0.33892 0.17658
 C721 C 0.53831 0.34953 0.20029
 C722 C 0.54643 0.37485 0.20849
 C723 C 0.56842 0.41785 0.20088
 C724 C 0.55197 0.43253 0.21504
 C725 C 0.55867 0.45835 0.22206
 C726 C 0.58178 0.47048 0.21467
 C727 C 0.59809 0.45582 0.20033
 C728 C 0.59167 0.42987 0.19380
 H729 H 0.56663 0.34651 0.14360
 H730 H 0.52623 0.33856 0.21226
 H731 H 0.54574 0.46859 0.23360
 H732 H 0.61585 0.46421 0.19387
 H733 H 0.54105 0.38226 0.22692
 H734 H 0.53368 0.42420 0.22054
 H735 H 0.57911 0.39076 0.15692
 H736 H 0.60514 0.41923 0.18329
 C737 C 0.06858 0.90317 0.70439
 C738 C 0.05037 0.88891 0.71747
 C739 C 0.04176 0.86386 0.70865
 C740 C 0.05140 0.85229 0.68672
 C741 C 0.07023 0.86628 0.67419
 C742 C 0.07844 0.89140 0.68269
 C743 C 0.07712 0.93022 0.71306
 C744 C 0.10245 0.94015 0.70978
 C745 C 0.11034 0.96562 0.71717
 C746 C 0.09338 0.98197 0.72865
 C747 C 0.06806 0.97192 0.73219
 C748 C 0.06000 0.94652 0.72429
 H749 H 0.02709 0.85385 0.71870
 H750 H 0.07859 0.85792 0.65759
 H751 H 0.12985 0.97220 0.71364
 H752 H 0.05437 0.98338 0.74140
 H753 H 0.09217 0.90172 0.67181
 H754 H 0.11645 0.92819 0.70167
 H755 H 0.04267 0.89706 0.73454
 H756 H 0.04020 0.93979 0.72684
 C757 C 0.93149 0.61990 0.71855
 C758 C 0.94474 0.61670 0.69629
 C759 C 0.95772 0.63757 0.68638
 C760 C 0.95806 0.66221 0.69863
 C761 C 0.94476 0.66542 0.72096
 C762 C 0.93151 0.64448 0.73075
 C763 C 0.91758 0.59752 0.72867
 C764 C 0.89215 0.59889 0.73610
 C765 C 0.87855 0.57722 0.74406
 C766 C 0.89027 0.55383 0.74520
 C767 C 0.91588 0.55266 0.73809
 C768 C 0.92933 0.57421 0.72990
 H769 H 0.96704 0.63442 0.66875
 H770 H 0.94479 0.68405 0.73101
 H771 H 0.85886 0.57887 0.74920
 H772 H 0.92538 0.53490 0.73808
 H773 H 0.92157 0.64742 0.74805
 H774 H 0.88252 0.61656 0.73505
 H775 H 0.94461 0.59807 0.68620
 H776 H 0.94895 0.57262 0.72437
 C777 C 0.43701 0.10803 0.22290
 C778 C 0.42150 0.12650 0.21253
 C779 C 0.43276 0.14744 0.20109
 C780 C 0.45977 0.15033 0.19959
 C781 C 0.47535 0.13223 0.21045
 C782 C 0.46411 0.11138 0.22205
 C783 C 0.42487 0.08497 0.23374
 C784 C 0.43494 0.06092 0.22971
 C785 C 0.42300 0.03910 0.23906
 C786 C 0.40062 0.04075 0.25256
 C787 C 0.39065 0.06476 0.25672
 C788 C 0.40268 0.08663 0.24754
 H789 H 0.42022 0.16085 0.19254
 H790 H 0.49625 0.13415 0.20985
 H791 H 0.43090 0.02080 0.23507
 H792 H 0.37370 0.06677 0.26729
 H793 H 0.47668 0.09783 0.23029
 H794 H 0.45168 0.05881 0.21872
 H795 H 0.40055 0.12435 0.21247
 H796 H 0.39464 0.10487 0.25138
 C797 C 0.31810 0.41494 -0.11208
 C798 C 0.33721 0.40143 -0.12361
 C799 C 0.34881 0.41060 -0.14476
 C800 C 0.34151 0.43347 -0.15490
 C801 C 0.32224 0.44691 -0.14353
 C802 C 0.31071 0.43778 -0.12225
 C803 C 0.30595 0.40509 -0.08957
 C804 C 0.30165 0.42161 -0.06847
 C805 C 0.29070 0.41212 -0.04702
 C806 C 0.28379 0.38578 -0.04622
 C807 C 0.28780 0.36945 -0.06768
 C808 C 0.29880 0.37892 -0.08898
 H809 H 0.36342 0.39971 -0.15328
 H810 H 0.31642 0.46471 -0.15083
 H811 H 0.28771 0.42570 -0.03145
 H812 H 0.28233 0.34916 -0.06792
 H813 H 0.29585 0.44845 -0.11389
 H814 H 0.30711 0.44189 -0.06839
 H815 H 0.34346 0.38390 -0.11604
 H816 H 0.30145 0.36577 -0.10515
 C817 C 0.81491 0.91433 0.39514
 C818 C 0.83634 0.90232 0.38627
 C819 C 0.84906 0.91159 0.36577
 C820 C 0.84051 0.93299 0.35362
 C821 C 0.81905 0.94499 0.36246
 C822 C 0.80643 0.93581 0.38308
 C823 C 0.80157 0.90448 0.41697
 C824 C 0.79429 0.92130 0.43659
 C825 C 0.78261 0.91192 0.45767
 C826 C 0.77804 0.88537 0.45968
 C827 C 0.78447 0.86871 0.43939
 C828 C 0.79627 0.87809 0.41845
 H829 H 0.86539 0.90183 0.35921
 H830 H 0.81220 0.96165 0.35358
 H831 H 0.77727 0.92573 0.47205
 H832 H 0.78062 0.84823 0.43995
 H833 H 0.78985 0.94532 0.38941
 H834 H 0.79809 0.94177 0.43587
 H835 H 0.84344 0.88588 0.39538
 H836 H 0.80115 0.86470 0.40332
 C837 C 0.80127 0.03580 1.13605
 C838 C 0.80424 0.04770 1.16086
 C839 C 0.81710 0.03616 1.18092
 C840 C 0.82716 0.01189 1.17712
 C841 C 0.82275 -0.00053 1.15229
 C842 C 0.81023 0.01133 1.13212
 C843 C 0.79013 0.04955 1.11426
 C844 C 0.77467 0.03647 1.09379
 C845 C 0.76506 0.04958 1.07301
 C846 C 0.77081 0.07611 1.07220
 C847 C 0.78551 0.08916 1.09319
 C848 C 0.79535 0.07608 1.11366
 H849 H 0.82009 0.04737 1.19895
 H850 H 0.82859 -0.01960 1.14805
 H851 H 0.75288 0.03879 1.05800
 H852 H 0.78974 0.10967 1.09358
 H853 H 0.80822 0.00150 1.11326
 H854 H 0.76972 0.01613 1.09394
 H855 H 0.79705 0.06634 1.16478
 H856 H 0.80747 0.08683 1.12882
 C857 C 0.30028 0.52852 0.62298
 C858 C 0.29180 0.53125 0.64782
 C859 C 0.30530 0.52104 0.66845
 C860 C 0.32788 0.50813 0.66488
 C861 C 0.33601 0.50491 0.63993
 C862 C 0.32229 0.51477 0.61925
 C863 C 0.28707 0.54112 0.60140
 C864 C 0.30151 0.55165 0.58242
 C865 C 0.28952 0.56512 0.56325
 C866 C 0.26294 0.56945 0.56305
 C867 C 0.24817 0.55733 0.58097
 C868 C 0.26011 0.54350 0.59998
 H869 H 0.29813 0.52349 0.68726
 H870 H 0.35345 0.49538 0.63637
 H871 H 0.30133 0.57260 0.54884
 H872 H 0.22736 0.55840 0.58047
 H873 H 0.32914 0.51182 0.60036
 H874 H 0.32228 0.55016 0.58270
 H875 H 0.27512 0.54193 0.65154
 H876 H 0.24817 0.53471 0.61359
 C877 C 0.19946 0.54396 0.39575
 C878 C 0.17582 0.52917 0.39102
 C879 C 0.16670 0.52080 0.36600
 C880 C 0.18120 0.52673 0.34525
 C881 C 0.20526 0.54079 0.35001
 C882 C 0.21421 0.54953 0.37504
 C883 C 0.20814 0.55435 0.42209
 C884 C 0.21635 0.58031 0.42675
 C885 C 0.22373 0.59045 0.45165
 C886 C 0.22367 0.57475 0.47247
 C887 C 0.21527 0.54872 0.46772
 C888 C 0.20747 0.53868 0.44283
 H889 H 0.14815 0.50985 0.36280
 H890 H 0.21671 0.54569 0.33430
 H891 H 0.22971 0.61058 0.45430
 H892 H 0.21429 0.53611 0.48325
 H893 H 0.23259 0.56076 0.37824
 H894 H 0.21661 0.59289 0.41112
 H895 H 0.16402 0.52476 0.40663
 H896 H 0.20109 0.51861 0.43974
 C897 C 0.70662 0.05582 0.90271
 C898 C 0.68067 0.04665 0.89725
 C899 C 0.67113 0.03912 0.87220
 C900 C 0.68726 0.04045 0.85159
 C901 C 0.71356 0.04920 0.85739
 C902 C 0.72301 0.05694 0.88256
 C903 C 0.71623 0.06468 0.92932
 C904 C 0.73194 0.08753 0.93419
 C905 C 0.73996 0.09652 0.95932
 C906 C 0.73255 0.08279 0.98011
 C907 C 0.71718 0.05974 0.97526
 C908 C 0.70903 0.05081 0.95012
 H909 H 0.65116 0.03145 0.86941
 H910 H 0.72682 0.05126 0.84252
 H911 H 0.75223 0.11410 0.96243
 H912 H 0.71114 0.04880 0.99092
 H913 H 0.74319 0.06382 0.88626
 H914 H 0.73762 0.09872 0.91857
 H915 H 0.66754 0.04561 0.91238
 H916 H 0.69713 0.03301 0.94693
 C917 C 0.71779 0.93291 0.61614
 C918 C 0.69489 0.94570 0.61318
 C919 C 0.68490 0.95795 0.63428
 C920 C 0.69768 0.95796 0.65890
 C921 C 0.72062 0.94508 0.66189
 C922 C 0.73052 0.93260 0.64072
 C923 C 0.72799 0.91977 0.59352
 C924 C 0.73631 0.89489 0.59462
 C925 C 0.74429 0.88198 0.57274
 C926 C 0.74449 0.89381 0.54939
 C927 C 0.73658 0.91890 0.54850
 C928 C 0.72841 0.93169 0.57028
 H929 H 0.66681 0.96700 0.63131
 H930 H 0.73106 0.94488 0.68052
 H931 H 0.75019 0.86271 0.57420
 H932 H 0.73595 0.92848 0.53078
 H933 H 0.74832 0.92300 0.64348
 H934 H 0.73594 0.88516 0.61224
 H935 H 0.68437 0.94581 0.59456
 H936 H 0.72224 0.95092 0.56891
 C937 C 0.21896 0.43083 0.10880
 C938 C 0.23032 0.42952 0.13382
 C939 C 0.21932 0.44126 0.15473
 C940 C 0.19656 0.45433 0.15109
 C941 C 0.18529 0.45554 0.12598
 C942 C 0.19642 0.44407 0.10512
 C943 C 0.23012 0.41804 0.08653
 C944 C 0.23234 0.43062 0.06383
 C945 C 0.24146 0.41816 0.04232
 C946 C 0.24850 0.39273 0.04292
 C947 C 0.24637 0.38023 0.06573
 C948 C 0.23750 0.39282 0.08736
 H949 H 0.22873 0.44019 0.17373
 H950 H 0.16741 0.46480 0.12241
 H951 H 0.24218 0.42828 0.02498
 H952 H 0.25135 0.36066 0.06696
 H953 H 0.18699 0.44500 0.08610
 H954 H 0.22685 0.45010 0.06267
 H955 H 0.24784 0.41960 0.13715
 H956 H 0.23568 0.38256 0.10453
 C957 C -0.11728 0.30947 0.42157
 C958 C -0.11273 0.33234 0.43705
 C959 C -0.13346 0.34546 0.44550
 C960 C -0.15922 0.33607 0.43856
 C961 C -0.16378 0.31286 0.42362
 C962 C -0.14303 0.29969 0.41525
 C963 C -0.09531 0.29668 0.41090
 C964 C -0.09745 0.28666 0.38535
 C965 C -0.07628 0.27632 0.37460
 C966 C -0.05237 0.27551 0.38906
 C967 C -0.05033 0.28539 0.41477
 C968 C -0.07161 0.29567 0.42557
 H969 H -0.12929 0.36307 0.45733
 H970 H -0.18339 0.30521 0.41778
 H971 H -0.07837 0.26955 0.35458
 H972 H -0.03230 0.28612 0.42657
 H973 H -0.14717 0.28195 0.40360
 H974 H -0.11522 0.28766 0.37333
 H975 H -0.09314 0.34054 0.44204
 H976 H -0.06939 0.30318 0.44535
 C977 C 0.39325 0.81990 0.92359
 C978 C 0.39461 0.82631 0.95013
 C979 C 0.37421 0.83810 0.96117
 C980 C 0.35228 0.84388 0.94579
 C981 C 0.35053 0.83669 0.91950
 C982 C 0.37066 0.82468 0.90856
 C983 C 0.41552 0.80923 0.91123
 C984 C 0.42160 0.81679 0.88702
 C985 C 0.44185 0.80643 0.87473
 C986 C 0.45733 0.78876 0.88663
 C987 C 0.45106 0.78101 0.91082
 C988 C 0.43053 0.79126 0.92307
 H989 H 0.37596 0.84354 0.98151
 H990 H 0.33356 0.84052 0.90735
 H991 H 0.44467 0.81202 0.85560
 H992 H 0.46177 0.76664 0.92010
 H993 H 0.36859 0.81930 0.88822
 H994 H 0.41058 0.83073 0.87740
 H995 H 0.41179 0.82302 0.96221
 H996 H 0.42602 0.78462 0.94149
 C997 C 1.13083 0.80285 0.03951
 C998 C 1.12632 0.82249 0.02301
 C999 C 1.14698 0.83573 0.01273
 C1000 C 1.17270 0.82947 0.01843
 C1001 C 1.17713 0.80918 0.03415
 C1002 C 1.15647 0.79611 0.04465
 C1003 C 1.10919 0.79046 0.05252
 C1004 C 1.10886 0.76443 0.05746
 C1005 C 1.08986 0.75347 0.07185
 C1006 C 1.07091 0.76838 0.08207
 C1007 C 1.07004 0.79384 0.07518
 C1008 C 1.08915 0.80485 0.06103
 H1009 H 1.14280 0.85141 0.00095
 H1010 H 1.19662 0.80355 0.03861
 H1011 H 1.09021 0.73331 0.07482
 H1012 H 1.05489 0.80556 0.08129
 H1013 H 1.16073 0.78126 0.05747
 H1014 H 1.12337 0.75251 0.05026
 H1015 H 1.10680 0.82791 0.01828
 H1016 H 1.08862 0.82492 0.05750
 C1017 C 0.62376 0.29621 0.52714
 C1018 C 0.61763 0.31797 0.51419
 C1019 C 0.63697 0.33255 0.50323
 C1020 C 0.66280 0.32568 0.50503
 C1021 C 0.66867 0.30328 0.51697
 C1022 C 0.64936 0.28870 0.52788
 C1023 C 0.60410 0.28269 0.54166
 C1024 C 0.61103 0.27557 0.56647
 C1025 C 0.59236 0.26493 0.58128
 C1026 C 0.56622 0.26062 0.57163
 C1027 C 0.55933 0.26762 0.54663
 C1028 C 0.57810 0.27841 0.53180
 H1029 H 0.63191 0.34984 0.49435
 H1030 H 0.68831 0.29723 0.51819
 H1031 H 0.59826 0.26084 0.60076
 H1032 H 0.53943 0.26582 0.53865
 H1033 H 0.65455 0.27177 0.53734
 H1034 H 0.63075 0.27926 0.57491
 H1035 H 0.59816 0.32443 0.51357
 H1036 H 0.57219 0.28384 0.51276
 C1037 C 0.39362 0.20508 0.56744
 C1038 C 0.38640 0.17876 0.56544
 C1039 C 0.36140 0.16978 0.55586
 C1040 C 0.34299 0.18693 0.54835
 C1041 C 0.34982 0.21332 0.55120
 C1042 C 0.37504 0.22233 0.56047
 C1043 C 0.42083 0.21420 0.57566
 C1044 C 0.43425 0.23202 0.56166
 C1045 C 0.46051 0.23912 0.56821
 C1046 C 0.47385 0.22870 0.58905
 C1047 C 0.46015 0.21146 0.60347
 C1048 C 0.43399 0.20412 0.59673
 H1049 H 0.35650 0.14934 0.55398
 H1050 H 0.33594 0.22686 0.54544
 H1051 H 0.47030 0.25293 0.55704
 H1052 H 0.46968 0.20322 0.61970
 H1053 H 0.38010 0.24273 0.56201
 H1054 H 0.42461 0.23997 0.54523
 H1055 H 0.40037 0.16505 0.57047
 H1056 H 0.42402 0.19049 0.60797
 C1057 C 0.90147 0.70624 0.05868
 C1058 C 0.88006 0.71892 0.06674
 C1059 C 0.85475 0.71028 0.05753
 C1060 C 0.85038 0.68865 0.04027
 C1061 C 0.87183 0.67630 0.03187
 C1062 C 0.89707 0.68501 0.04093
 C1063 C 0.92829 0.71470 0.06914
 C1064 C 0.94888 0.71550 0.05314
 C1065 C 0.97416 0.72320 0.06312
 C1066 C 0.97956 0.73043 0.08941
 C1067 C 0.95888 0.72892 0.10540
 C1068 C 0.93360 0.72137 0.09539
 H1069 H 0.83858 0.72009 0.06439
 H1070 H 0.86905 0.65977 0.01832
 H1071 H 0.98940 0.72315 0.05009
 H1072 H 0.96180 0.73362 0.12570
 H1073 H 0.91314 0.67474 0.03451
 H1074 H 0.94541 0.71038 0.03281
 H1075 H 0.88290 0.73551 0.08021
 H1076 H 0.91821 0.72037 0.10830
 C1077 C 0.61166 0.72248 0.93101
 C1078 C 0.60961 0.69736 0.93881
 C1079 C 0.63064 0.68718 0.95183
 C1080 C 0.65432 0.70183 0.95725
 C1081 C 0.65638 0.72707 0.94964
 C1082 C 0.63517 0.73737 0.93679
 C1083 C 0.58936 0.73276 0.91652
 C1084 C 0.58153 0.75734 0.92290
 C1085 C 0.55961 0.76629 0.90997
 C1086 C 0.54537 0.75095 0.89021
 C1087 C 0.55358 0.72664 0.88349
 C1088 C 0.57527 0.71762 0.89655
 H1089 H 0.62856 0.66758 0.95713
 H1090 H 0.67436 0.73881 0.95366
 H1091 H 0.55380 0.78518 0.91540
 H1092 H 0.54282 0.71424 0.86860
 H1093 H 0.63730 0.75676 0.93089
 H1094 H 0.59197 0.76935 0.93830
 H1095 H 0.59165 0.68554 0.93485
 H1096 H 0.58101 0.69871 0.89107
 C1097 C 0.11087 0.22010 0.42718
 C1098 C 0.12501 0.23260 0.44884
 C1099 C 0.14535 0.22092 0.46163
 C1100 C 0.15209 0.19653 0.45296
 C1101 C 0.13845 0.18446 0.43086
 C1102 C 0.11802 0.19594 0.41832
 C1103 C 0.08809 0.23144 0.41432
 C1104 C 0.08221 0.22715 0.38778
 C1105 C 0.05933 0.23518 0.37603
 C1106 C 0.04162 0.24811 0.39037
 C1107 C 0.04850 0.25387 0.41674
 C1108 C 0.07120 0.24541 0.42856
 H1109 H 0.15538 0.23074 0.47862
 H1110 H 0.14345 0.16596 0.42323
 H1111 H 0.05573 0.23051 0.35575
 H1112 H 0.03637 0.26466 0.42865
 H1113 H 0.10742 0.18547 0.40200
 H1114 H 0.09516 0.21718 0.37598
 H1115 H 0.12032 0.25138 0.45600
 H1116 H 0.07502 0.24915 0.44906
 C1117 C 0.56620 0.13753 0.67966
 C1118 C 0.58981 0.12817 0.67306
 C1119 C 0.59889 0.10648 0.68375
 C1120 C 0.58464 0.09348 0.70135
 C1121 C 0.56051 0.10217 0.70732
 C1122 C 0.55135 0.12404 0.69655
 C1123 C 0.55760 0.16135 0.66877
 C1124 C 0.53177 0.16325 0.65908
 C1125 C 0.52489 0.18453 0.64580
 C1126 C 0.54372 0.20411 0.64196
 C1127 C 0.56908 0.20292 0.65307
 C1128 C 0.57591 0.18187 0.66639
 H1129 H 0.61720 0.09987 0.67823
 H1130 H 0.54914 0.09253 0.72086
 H1131 H 0.50529 0.18490 0.63729
 H1132 H 0.58387 0.21801 0.65077
 H1133 H 0.53305 0.13079 0.70194
 H1134 H 0.51725 0.14773 0.66059
 H1135 H 0.60132 0.13764 0.65951
 H1136 H 0.59580 0.18131 0.67424
 C1137 C 1.06064 0.63431 0.18261
 C1138 C 1.07630 0.63524 0.20573
 C1139 C 1.08508 0.61286 0.21536
 C1140 C 1.07844 0.58900 0.20208
 C1141 C 1.06164 0.58790 0.17967
 C1142 C 1.05282 0.61035 0.17003
 C1143 C 1.05449 0.65832 0.17060
 C1144 C 1.02979 0.66124 0.15849
 C1145 C 1.02496 0.68333 0.14567
 C1146 C 1.04485 0.70261 0.14444
 C1147 C 1.06928 0.69996 0.15711
 C1148 C 1.07403 0.67811 0.17007
 H1149 H 1.09751 0.61427 0.23299
 H1150 H 1.05632 0.56983 0.16892
 H1151 H 1.00598 0.68491 0.13596
 H1152 H 1.08486 0.71471 0.15675
 H1153 H 1.04094 0.60906 0.15206
 H1154 H 1.01434 0.64636 0.15874
 H1155 H 1.08224 0.65338 0.21611
 H1156 H 1.09333 0.67634 0.17896
 C1157 C 0.98369 0.84283 0.20264
 C1158 C 0.99228 0.86827 0.19925
 C1159 C 0.97988 0.88857 0.21026
 C1160 C 0.95864 0.88392 0.22498
 C1161 C 0.95061 0.85847 0.22907
 C1162 C 0.96295 0.83815 0.21795
 C1163 C 0.99518 0.82146 0.18867
 C1164 C 0.97905 0.80142 0.17585
 C1165 C 0.98941 0.78313 0.15981
 C1166 C 1.01605 0.78443 0.15625
 C1167 C 1.03239 0.80359 0.17031
 C1168 C 1.02205 0.82195 0.18628
 H1169 H 0.98631 0.90790 0.20640
 H1170 H 0.93464 0.85425 0.24073
 H1171 H 0.97627 0.76897 0.14909
 H1172 H 1.05312 0.80480 0.16844
 H1173 H 0.95614 0.81874 0.22113
 H1174 H 0.95823 0.80069 0.17709
 H1175 H 1.00793 0.87247 0.18720
 H1176 H 1.03500 0.83690 0.19632
 C1177 C 0.48531 0.34747 0.69157
 C1178 C 0.49359 0.37317 0.68901
 C1179 C 0.48187 0.39295 0.70172
 C1180 C 0.46175 0.38753 0.71759
 C1181 C 0.45453 0.36179 0.72136
 C1182 C 0.46611 0.34198 0.70842
 C1183 C 0.49538 0.32676 0.67529
 C1184 C 0.50009 0.30277 0.68468
 C1185 C 0.50927 0.28344 0.66879
 C1186 C 0.51407 0.28790 0.64339
 C1187 C 0.50893 0.31167 0.63396
 C1188 C 0.49967 0.33080 0.64966
 H1189 H 0.48786 0.41248 0.69820
 H1190 H 0.43948 0.35692 0.73388
 H1191 H 0.51309 0.26525 0.67647
 H1192 H 0.51169 0.31540 0.61421
 H1193 H 0.45925 0.32241 0.71081
 H1194 H 0.49703 0.29907 0.70436
 H1195 H 0.50875 0.37806 0.67660
 H1196 H 0.49543 0.34868 0.64152
 C1197 C 0.46294 0.63227 0.80902
 C1198 C 0.43795 0.62169 0.81266
 C1199 C 0.43031 0.59651 0.80413
 C1200 C 0.44738 0.58124 0.79156
 C1201 C 0.47206 0.59197 0.78697
 C1202 C 0.47983 0.61729 0.79571
 C1203 C 0.47113 0.65867 0.81971
 C1204 C 0.48575 0.67587 0.80591
 C1205 C 0.49163 0.70123 0.81561
 C1206 C 0.48279 0.70978 0.83911
 C1207 C 0.46910 0.69233 0.85329
 C1208 C 0.46344 0.66710 0.84377
 H1209 H 0.41092 0.58895 0.80732
 H1210 H 0.48555 0.58058 0.77727
 H1211 H 0.50228 0.71435 0.80437
 H1212 H 0.46273 0.69821 0.87184
 H1213 H 0.49923 0.62489 0.79267
 H1214 H 0.49191 0.66996 0.78729
 H1215 H 0.42418 0.63292 0.82213
 H1216 H 0.45287 0.65416 0.85526
 C1217 C -0.02868 0.12941 0.30297
 C1218 C -0.02259 0.11073 0.32013
 C1219 C -0.03050 0.08498 0.31398
 C1220 C -0.04448 0.07739 0.29048
 C1221 C -0.04945 0.09593 0.27283
 C1222 C -0.04170 0.12168 0.27905
 C1223 C -0.02372 0.15697 0.31104
 C1224 C -0.04345 0.17377 0.30690
 C1225 C -0.04034 0.19898 0.31727
 C1226 C -0.01736 0.20799 0.33180
 C1227 C 0.00291 0.19167 0.33486
 C1228 C -0.00030 0.16629 0.32470
 H1229 H -0.02621 0.07107 0.32785
 H1230 H -0.06039 0.09071 0.25467
 H1231 H -0.05622 0.21127 0.31462
 H1232 H 0.02065 0.19807 0.34625
 H1233 H -0.04648 0.13566 0.26540
 H1234 H -0.06181 0.16707 0.29669
 H1235 H -0.01278 0.11617 0.33880
 H1236 H 0.01526 0.15377 0.32805
 C1237 C 0.04213 0.35412 0.28002
 C1238 C 0.02934 0.37696 0.27991
 C1239 C 0.04054 0.39866 0.26976
 C1240 C 0.06490 0.39815 0.25964
 C1241 C 0.07729 0.37507 0.25889
 C1242 C 0.06602 0.35329 0.26895
 C1243 C 0.03121 0.33195 0.29311
 C1244 C 0.04751 0.31736 0.30822
 C1245 C 0.03694 0.29872 0.32319
 C1246 C 0.00994 0.29455 0.32352
 C1247 C -0.00631 0.30809 0.30742
 C1248 C 0.00420 0.32647 0.29227
 H1249 H 0.03032 0.41602 0.27032
 H1250 H 0.09619 0.37408 0.25144
 H1251 H 0.04983 0.28860 0.33558
 H1252 H -0.02723 0.30485 0.30702
 H1253 H 0.07622 0.33592 0.26845
 H1254 H 0.06838 0.32124 0.30952
 H1255 H 0.01109 0.37844 0.28855
 H1256 H -0.00888 0.33685 0.28035
 C1257 C 0.56012 0.85435 0.78631
 C1258 C 0.56729 0.87429 0.80492
 C1259 C 0.57713 0.89796 0.79789
 C1260 C 0.58072 0.90213 0.77208
 C1261 C 0.57322 0.88210 0.75335
 C1262 C 0.56271 0.85848 0.76040
 C1263 C 0.54845 0.83003 0.79440
 C1264 C 0.52251 0.82235 0.78653
 C1265 C 0.50925 0.80343 0.79917
 C1266 C 0.52194 0.79164 0.81943
 C1267 C 0.54855 0.79755 0.82558
 C1268 C 0.56167 0.81686 0.81332
 H1269 H 0.58179 0.91305 0.81282
 H1270 H 0.57589 0.88447 0.73333
 H1271 H 0.48864 0.79923 0.79435
 H1272 H 0.55857 0.78893 0.84139
 H1273 H 0.55697 0.84334 0.74575
 H1274 H 0.51194 0.83244 0.77216
 H1275 H 0.56475 0.87169 0.82495
 H1276 H 0.58169 0.82264 0.81968
 C1277 C 0.68200 0.56030 0.12879
 C1278 C 0.70164 0.58011 0.13263
 C1279 C 0.71301 0.59044 0.11193
 C1280 C 0.70538 0.58124 0.08634
 C1281 C 0.68725 0.55962 0.08291
 C1282 C 0.67556 0.54957 0.10379
 C1283 C 0.66698 0.55259 0.15057
 C1284 C 0.65802 0.52699 0.15293
 C1285 C 0.64263 0.52054 0.17286
 C1286 C 0.63574 0.53959 0.19060
 C1287 C 0.64529 0.56498 0.18857
 C1288 C 0.66055 0.57140 0.16881
 H1289 H 0.72836 0.60534 0.11647
 H1290 H 0.68005 0.55155 0.06410
 H1291 H 0.63549 0.50084 0.17390
 H1292 H 0.64075 0.58007 0.20219
 H1293 H 0.66041 0.53430 0.10014
 H1294 H 0.66280 0.51202 0.13932
 H1295 H 0.70798 0.58803 0.15178
 H1296 H 0.66671 0.59135 0.16743
 C1297 C 0.18990 1.05937 0.64016
 C1298 C 0.21474 1.07171 0.63943
 C1299 C 0.22298 1.08047 0.61646
 C1300 C 0.20635 1.07742 0.59393
 C1301 C 0.18190 1.06428 0.59447
 C1302 C 0.17383 1.05520 0.61731
 C1303 C 0.17964 1.05306 0.66488
 C1304 C 0.16534 1.02973 0.66714
 C1305 C 0.15248 1.02544 0.68922
 C1306 C 0.15343 1.04454 0.70923
 C1307 C 0.16868 1.06738 0.70749
 C1308 C 0.18183 1.07153 0.68560
 H1309 H 0.24185 1.09069 0.61657
 H1310 H 0.16878 1.06160 0.57732
 H1311 H 0.14049 1.00789 0.68992
 H1312 H 0.16962 1.08240 0.72270
 H1313 H 0.15449 1.04600 0.61736
 H1314 H 0.16340 1.01516 0.65146
 H1315 H 0.22752 1.07509 0.65677
 H1316 H 0.19250 1.08979 0.68428
 C1317 C 0.19341 0.98266 0.85413
 C1318 C 0.19403 0.99346 0.87927
 C1319 C 0.20652 0.98186 0.89956
 C1320 C 0.21874 0.95868 0.89551
 C1321 C 0.21881 0.94869 0.86972
 C1322 C 0.20640 0.96049 0.84949
 C1323 C 0.17811 0.99383 0.83309
 C1324 C 0.18785 0.99636 0.80896
 C1325 C 0.17306 1.00689 0.78930
 C1326 C 0.14827 1.01498 0.79344
 C1327 C 0.13844 1.01198 0.81746
 C1328 C 0.15321 1.00162 0.83704
 H1329 H 0.20471 0.99059 0.91846
 H1330 H 0.22905 0.93210 0.86451
 H1331 H 0.18125 1.00917 0.77109
 H1332 H 0.11912 1.01731 0.82109
 H1333 H 0.20643 0.95184 0.83021
 H1334 H 0.20706 0.99059 0.80545
 H1335 H 0.18436 1.01077 0.88336
 H1336 H 0.14493 0.99931 0.85522
 C1337 C 0.68278 0.47642 0.33543
 C1338 C 0.68280 0.48845 0.36016
 C1339 C 0.69440 0.47757 0.38141
 C1340 C 0.70595 0.45416 0.37860
 C1341 C 0.70604 0.44220 0.35385
 C1342 C 0.69481 0.45328 0.33255
 C1343 C 0.66939 0.48748 0.31298
 C1344 C 0.65598 0.47146 0.29313
 C1345 C 0.64169 0.48183 0.27311
 C1346 C 0.64015 0.50836 0.27275
 C1347 C 0.65417 0.52445 0.29198
 C1348 C 0.66884 0.51414 0.31174
 H1349 H 0.69426 0.48755 0.40007
 H1350 H 0.71435 0.42396 0.35088
 H1351 H 0.63073 0.46904 0.25866
 H1352 H 0.65341 0.54502 0.29190
 H1353 H 0.69552 0.44361 0.31381
 H1354 H 0.65558 0.45086 0.29358
 H1355 H 0.67337 0.50606 0.36325
 H1356 H 0.67944 0.52710 0.32626
 C1357 C 0.80371 0.47467 0.62438
 C1358 C 0.78840 0.48929 0.60841
 C1359 C 0.77925 0.47950 0.58365
 C1360 C 0.78531 0.45499 0.57460
 C1361 C 0.79967 0.44012 0.59107
 C1362 C 0.80873 0.44982 0.61559
 C1363 C 0.81513 0.48491 0.65001
 C1364 C 0.84084 0.48013 0.65769
 C1365 C 0.85088 0.48610 0.68282
 C1366 C 0.83555 0.49719 0.70086
 C1367 C 0.81052 0.50383 0.69292
 C1368 C 0.80030 0.49764 0.66759
 H1369 H 0.76812 0.49131 0.57135
 H1370 H 0.80398 0.42088 0.58494
 H1371 H 0.87048 0.48138 0.68839
 H1372 H 0.79844 0.51248 0.70659
 H1373 H 0.81981 0.43780 0.62773
 H1374 H 0.85297 0.47100 0.64438
 H1375 H 0.78418 0.50848 0.61478
 H1376 H 0.78045 0.50160 0.66213
 C1377 C 0.30346 -0.02452 0.14049
 C1378 C 0.27946 -0.03811 0.13346
 C1379 C 0.27229 -0.04588 0.10783
 C1380 C 0.28895 -0.04023 0.08860
 C1381 C 0.31238 -0.02553 0.09548
 C1382 C 0.31955 -0.01774 0.12114
 C1383 C 0.31282 -0.01959 0.16792
 C1384 C 0.32704 0.00337 0.17678
 C1385 C 0.33844 0.00650 0.20192
 C1386 C 0.33599 -0.01336 0.21855
 C1387 C 0.32078 -0.03581 0.21007
 C1388 C 0.30931 -0.03888 0.18507
 H1389 H 0.25422 -0.05736 0.10325
 H1390 H 0.32547 -0.02057 0.08108
 H1391 H 0.35024 0.02392 0.20790
 H1392 H 0.31840 -0.05133 0.22259
 H1393 H 0.33825 -0.00746 0.12593
 H1394 H 0.32987 0.01866 0.16408
 H1395 H 0.26652 -0.04336 0.14790
 H1396 H 0.29871 -0.05690 0.17881
 C1397 C 0.29148 0.05586 0.36199
 C1398 C 0.26940 0.04456 0.37218
 C1399 C 0.25915 0.05617 0.39359
 C1400 C 0.27065 0.07941 0.40509
 C1401 C 0.29246 0.09086 0.39468
 C1402 C 0.30276 0.07922 0.37343
 C1403 C 0.30392 0.04264 0.34072
 C1404 C 0.31559 0.05657 0.32197
 C1405 C 0.33016 0.04442 0.30398
 C1406 C 0.33350 0.01814 0.30446
 C1407 C 0.32038 0.00398 0.32213
 C1408 C 0.30591 0.01608 0.34011
 H1409 H 0.24215 0.04709 0.40104
 H1410 H 0.30204 0.10854 0.40342
 H1411 H 0.33961 0.05585 0.29049
 H1412 H 0.32176 -0.01648 0.32253
 H1413 H 0.32012 0.08815 0.36651
 H1414 H 0.31393 0.07700 0.32157
 H1415 H 0.26007 0.02670 0.36364
 H1416 H 0.29726 0.00473 0.35425
 C1417 C 0.78443 0.56681 0.84940
 C1418 C 0.75827 0.57085 0.85243
 C1419 C 0.75079 0.58092 0.87596
 C1420 C 0.76933 0.58663 0.89690
 C1421 C 0.79532 0.58148 0.89386
 C1422 C 0.80279 0.57198 0.87035
 C1423 C 0.79309 0.55645 0.82488
 C1424 C 0.81396 0.56906 0.81402
 C1425 C 0.82611 0.55689 0.79422
 C1426 C 0.81773 0.53184 0.78519
 C1427 C 0.79577 0.51986 0.79485
 C1428 C 0.78333 0.53221 0.81442
 H1429 H 0.73066 0.58480 0.87752
 H1430 H 0.81002 0.58477 0.90970
 H1431 H 0.84344 0.56614 0.78765
 H1432 H 0.78931 0.50035 0.78836
 H1433 H 0.82298 0.56836 0.86858
 H1434 H 0.82183 0.58774 0.82194
 H1435 H 0.74379 0.56675 0.83649
 H1436 H 0.76742 0.52207 0.82272
 C1437 C 0.12783 0.66826 0.56029
 C1438 C 0.11508 0.68616 0.54592
 C1439 C 0.09578 0.70019 0.55644
 C1440 C 0.08915 0.69677 0.58162
 C1441 C 0.10191 0.67882 0.59584
 C1442 C 0.12099 0.66483 0.58536
 C1443 C 0.14850 0.65326 0.54976
 C1444 C 0.14991 0.62746 0.55509
 C1445 C 0.17105 0.61404 0.54840
 C1446 C 0.19126 0.62601 0.53604
 C1447 C 0.18919 0.65130 0.52920
 C1448 C 0.16798 0.66486 0.53607
 H1449 H 0.08634 0.71396 0.54507
 H1450 H 0.09701 0.67544 0.61514
 H1451 H 0.17188 0.59436 0.55337
 H1452 H 0.20456 0.66097 0.51974
 H1453 H 0.13069 0.65150 0.59711
 H1454 H 0.13489 0.61777 0.56500
 H1455 H 0.11988 0.68914 0.52651
 H1456 H 0.16747 0.68475 0.53177
 C1457 C 0.63789 0.17187 1.06153
 C1458 C 0.62775 0.16334 1.08386
 C1459 C 0.60488 0.17236 1.09217
 C1460 C 0.59156 0.19036 1.07851
 C1461 C 0.60100 0.19808 1.05546
 C1462 C 0.62398 0.18883 1.04699
 C1463 C 0.66330 0.16332 1.05435
 C1464 C 0.66663 0.15315 1.02948
 C1465 C 0.68960 0.14168 1.02421
 C1466 C 0.70949 0.14034 1.04374
 C1467 C 0.70678 0.15220 1.06803
 C1468 C 0.68396 0.16351 1.07327
 H1469 H 0.59775 0.16544 1.10957
 H1470 H 0.59118 0.21195 1.04454
 H1471 H 0.69114 0.13258 1.00534
 H1472 H 0.72202 0.15196 1.08329
 H1473 H 0.63138 0.19560 1.02964
 H1474 H 0.65097 0.15280 1.01456
 H1475 H 0.63772 0.14976 1.09507
 H1476 H 0.68211 0.17174 1.09244
 C1477 C 0.84825 0.18791 0.97184
 C1478 C 0.84156 0.19811 0.94841
 C1479 C 0.86048 0.21080 0.93517
 C1480 C 0.88690 0.21390 0.94501
 C1481 C 0.89291 0.20444 0.96937
 C1482 C 0.87396 0.19162 0.98237
 C1483 C 0.82895 0.17209 0.98463
 C1484 C 0.83583 0.14878 0.99395
 C1485 C 0.81806 0.13356 1.00604
 C1486 C 0.79297 0.14136 1.00940
 C1487 C 0.78585 0.16449 0.99970
 C1488 C 0.80369 0.17972 0.98734
 H1489 H 0.85373 0.21874 0.91757
 H1490 H 0.91250 0.20507 0.97811
 H1491 H 0.82397 0.11543 1.01240
 H1492 H 0.76672 0.17106 1.00206
 H1493 H 0.87959 0.18407 1.00058
 H1494 H 0.85493 0.14211 0.99152
 H1495 H 0.82176 0.19568 0.93995
 H1496 H 0.79793 0.19765 0.98031
 C1497 C 0.33844 0.68058 0.47225
 C1498 C 0.34280 0.70733 0.47320
 C1499 C 0.36460 0.71856 0.46279
 C1500 C 0.38259 0.70322 0.45160
 C1501 C 0.37840 0.67650 0.45110
 C1502 C 0.35655 0.66532 0.46124
 C1503 C 0.31530 0.66831 0.48281
 C1504 C 0.30133 0.64736 0.46914
 C1505 C 0.28155 0.63364 0.48020
 C1506 C 0.27518 0.64070 0.50503
 C1507 C 0.28839 0.66219 0.51844
 C1508 C 0.30817 0.67608 0.50731
 H1509 H 0.36746 0.73922 0.46355
 H1510 H 0.39177 0.66421 0.44236
 H1511 H 0.27250 0.61649 0.47001
 H1512 H 0.28408 0.66756 0.53786
 H1513 H 0.35387 0.64465 0.46060
 H1514 H 0.30636 0.64102 0.45020
 H1515 H 0.32913 0.71950 0.48160
 H1516 H 0.31879 0.69202 0.51834
 C1517 C 0.62382 0.80193 0.47813
 C1518 C 0.60187 0.81639 0.47722
 C1519 C 0.57762 0.80525 0.46752
 C1520 C 0.57476 0.77939 0.45853
 C1521 C 0.59639 0.76456 0.46088
 C1522 C 0.62067 0.77570 0.47059
 C1523 C 0.65018 0.81466 0.48437
 C1524 C 0.66934 0.80305 0.49918
 C1525 C 0.69468 0.81445 0.50315
 C1526 C 0.70133 0.83743 0.49207
 C1527 C 0.68201 0.84929 0.47783
 C1528 C 0.65678 0.83806 0.47403
 H1529 H 0.56142 0.81726 0.46585
 H1530 H 0.59471 0.74448 0.45445
 H1531 H 0.70923 0.80493 0.51420
 H1532 H 0.68645 0.86727 0.46945
 H1533 H 0.63721 0.76408 0.47096
 H1534 H 0.66476 0.78508 0.50750
 H1535 H 0.60364 0.83656 0.48323
 H1536 H 0.64260 0.84734 0.46226
 C1537 C 0.12638 0.31352 -0.04037
 C1538 C 0.11682 0.32088 -0.06440
 C1539 C 0.09194 0.31245 -0.07461
 C1540 C 0.07588 0.29638 -0.06112
 C1541 C 0.08558 0.28840 -0.03734
 C1542 C 0.11064 0.29691 -0.02704
 C1543 C 0.15270 0.32349 -0.02967
 C1544 C 0.17025 0.30749 -0.01802
 C1545 C 0.19609 0.31652 -0.01114
 C1546 C 0.20463 0.34153 -0.01604
 C1547 C 0.18669 0.35792 -0.02611
 C1548 C 0.16102 0.34905 -0.03273
 H1549 H 0.08534 0.31834 -0.09330
 H1550 H 0.07360 0.27603 -0.02651
 H1551 H 0.20968 0.30365 -0.00330
 H1552 H 0.19277 0.37748 -0.02951
 H1553 H 0.11750 0.29095 -0.00848
 H1554 H 0.16435 0.28771 -0.01541
 H1555 H 0.12873 0.33305 -0.07550
 H1556 H 0.14779 0.36206 -0.04094
 C1557 C 0.35112 0.28270 0.05578
 C1558 C 0.35508 0.25645 0.05369
 C1559 C 0.37806 0.24736 0.06448
 C1560 C 0.39761 0.26445 0.07719
 C1561 C 0.39371 0.29076 0.07852
 C1562 C 0.37072 0.29971 0.06818
 C1563 C 0.32741 0.29301 0.04403
 C1564 C 0.31461 0.31155 0.05780
 C1565 C 0.29564 0.32518 0.04540
 C1566 C 0.28932 0.32063 0.01902
 C1567 C 0.30078 0.30087 0.00561
 C1568 C 0.31955 0.28700 0.01807
 H1569 H 0.38029 0.22698 0.06324
 H1570 H 0.40858 0.30462 0.08737
 H1571 H 0.28760 0.34068 0.05599
 H1572 H 0.29629 0.29720 -0.01484
 H1573 H 0.36846 0.32011 0.06940
 H1574 H 0.32031 0.31644 0.07788
 H1575 H 0.34027 0.24300 0.04403
 H1576 H 0.32924 0.27292 0.00701
 C1577 C 0.85340 0.79150 0.56318
 C1578 C 0.87483 0.80931 0.56785
 C1579 C 0.89876 0.80171 0.57734
 C1580 C 0.90177 0.77615 0.58297
 C1581 C 0.88033 0.75815 0.57779
 C1582 C 0.85639 0.76575 0.56773
 C1583 C 0.82842 0.80021 0.55280
 C1584 C 0.81712 0.79010 0.52890
 C1585 C 0.79690 0.80219 0.51649
 C1586 C 0.78741 0.82413 0.52812
 C1587 C 0.79735 0.83299 0.55285
 C1588 C 0.81781 0.82119 0.56506
 H1589 H 0.91495 0.81597 0.58025
 H1590 H 0.88184 0.73837 0.58208
 H1591 H 0.78972 0.79539 0.49719
 H1592 H 0.79089 0.85033 0.56178
 H1593 H 0.84007 0.75170 0.56404
 H1594 H 0.82520 0.77409 0.51903
 H1595 H 0.87309 0.82916 0.56384
 H1596 H 0.82637 0.82932 0.58347
   
