data_POSCAR
  _audit_creation_date              2014-09-24
  _audit_creation_method            'ToBaCCo'
  _symmetry_space_group_name_H-M    'P1'
  _symmetry_Int_Tables_number       1
  _symmetry_cell_setting            triclinic
  loop_
  _symmetry_equiv_pos_as_xyz
 x,y,z
_cell_length_a 48.4686
_cell_length_b 49.4004
_cell_length_c 48.7273
_cell_angle_alpha 88.598700
_cell_angle_beta 87.325300
_cell_angle_gamma 88.388400
loop_
  _atom_site_label
  _atom_site_type_symbol
  _atom_site_fract_x
  _atom_site_fract_y
  _atom_site_fract_z
C1 C 0.73763 0.64718 0.96323
 H2 H 0.75567 0.64395 0.94965
 C3 C 0.71397 0.65993 0.95323
 H4 H 0.71403 0.66628 0.93180
 C5 C 0.71528 0.64100 1.00714
 H6 H 0.71585 0.63327 1.02806
 C7 C 0.69123 0.65386 0.99806
 H8 H 0.67357 0.65626 1.01231
 N9 N 0.73767 0.63755 0.98958
 C10 C 0.82104 0.62624 1.01864
 H11 H 0.82264 0.60437 1.02010
 C12 C 0.84280 0.64168 1.02658
 H13 H 0.86098 0.63147 1.03438
 C14 C 0.79473 0.66593 1.00789
 H15 H 0.77586 0.67524 1.00072
 C16 C 0.81602 0.68221 1.01574
 H17 H 0.81343 0.70403 1.01436
 Zn18 Zn 0.76831 0.61612 1.00037
 N19 N 0.79756 0.63847 1.00959
 C20 C 0.80630 0.59467 0.95969
 N21 N 0.77975 0.59420 0.97007
 C22 C 0.76032 0.58019 0.95748
 C23 C 0.76733 0.56574 0.93376
 C24 C 0.81422 0.58044 0.93611
 C25 C 0.76782 0.59879 1.05636
 C26 C 0.75797 0.58497 1.07998
 C27 C 0.72620 0.56222 1.05237
 C28 C 0.73681 0.57645 1.02933
 N29 N 0.75710 0.59451 1.03163
 H30 H 0.82132 0.60670 0.96905
 H31 H 0.73907 0.58107 0.96514
 H32 H 0.75155 0.55485 0.92398
 H33 H 0.83530 0.58165 0.92787
 H34 H 0.78364 0.61349 1.05813
 H35 H 0.76820 0.58869 1.09867
 H36 H 0.70888 0.54961 1.04912
 H37 H 0.72782 0.57387 1.00978
 C38 C 0.84041 0.67006 1.02535
 C39 C 0.69014 0.66303 0.97059
 C40 C 0.73619 0.56652 1.07879
 C41 C 0.79459 0.56586 0.92273
 C42 C 0.72175 0.33525 0.53624
 H43 H 0.74145 0.33416 0.54580
 C44 C 0.69959 0.32065 0.54781
 H45 H 0.70287 0.30767 0.56565
 C46 C 0.69337 0.35428 0.50216
 H47 H 0.69055 0.36808 0.48496
 C48 C 0.67067 0.34035 0.51320
 H49 H 0.65086 0.34374 0.50415
 N50 N 0.71841 0.35145 0.51358
 C51 C 0.79680 0.36481 0.46840
 H52 H 0.79142 0.38484 0.46057
 C53 C 0.82145 0.35216 0.45918
 H54 H 0.83447 0.36246 0.44383
 C55 C 0.78597 0.32711 0.49745
 H56 H 0.77217 0.31735 0.51234
 C57 C 0.81061 0.31372 0.48887
 H58 H 0.81552 0.29391 0.49759
 Zn59 Zn 0.74791 0.37323 0.49930
 N60 N 0.77970 0.35238 0.48740
 C61 C 0.78373 0.40672 0.52593
 N62 N 0.75784 0.39677 0.52700
 C63 C 0.73960 0.40228 0.54832
 C64 C 0.74748 0.41772 0.57015
 C65 C 0.79252 0.42207 0.54734
 C66 C 0.72974 0.37894 0.44630
 C67 C 0.71895 0.39193 0.42335
 C68 C 0.72277 0.43484 0.44554
 C69 C 0.73311 0.42091 0.46839
 N70 N 0.73589 0.39341 0.46847
 H71 H 0.79792 0.40212 0.50884
 H72 H 0.71902 0.39434 0.54862
 H73 H 0.73273 0.42172 0.58703
 H74 H 0.81364 0.42872 0.54653
 H75 H 0.73248 0.35712 0.44688
 H76 H 0.71343 0.38006 0.40613
 H77 H 0.71996 0.45665 0.44583
 H78 H 0.73838 0.43196 0.48621
 C79 C 0.82888 0.32637 0.46963
 C80 C 0.67350 0.32320 0.53636
 C81 C 0.71503 0.42015 0.42297
 C82 C 0.77445 0.42748 0.57006
 C83 C 0.22790 -0.16744 0.03134
 H84 H 0.24743 -0.16878 0.04121
 C85 C 0.20523 -0.18118 0.04295
 H86 H 0.20790 -0.19376 0.06118
 C87 C 0.20055 -0.14863 -0.00373
 H88 H 0.19848 -0.13538 -0.02150
 C89 C 0.17733 -0.16173 0.00734
 H90 H 0.15776 -0.15818 -0.00214
 N91 N 0.22524 -0.15154 0.00836
 C92 C 0.30503 -0.14066 -0.03475
 H93 H 0.30079 -0.12044 -0.04273
 C94 C 0.32925 -0.15441 -0.04340
 H95 H 0.34324 -0.14458 -0.05820
 C96 C 0.29119 -0.17825 -0.00688
 H97 H 0.27630 -0.18761 0.00719
 C98 C 0.31538 -0.19272 -0.01483
 H99 H 0.31892 -0.21290 -0.00635
 Zn100 Zn 0.25526 -0.13056 -0.00586
 N101 N 0.28667 -0.15249 -0.01656
 C102 C 0.28913 -0.09219 0.01641
 N103 N 0.26561 -0.10627 0.02119
 C104 C 0.25076 -0.10442 0.04552
 C105 C 0.26031 -0.08917 0.06674
 C106 C 0.29946 -0.07682 0.03706
 C107 C 0.24101 -0.12611 -0.06021
 C108 C 0.23187 -0.11387 -0.08429
 C109 C 0.22967 -0.07094 -0.06154
 C110 C 0.23899 -0.08416 -0.03786
 N111 N 0.24409 -0.11130 -0.03757
 H112 H 0.30038 -0.09351 -0.00317
 H113 H 0.23184 -0.11532 0.04882
 H114 H 0.24884 -0.08887 0.08634
 H115 H 0.31860 -0.06631 0.03308
 H116 H 0.24568 -0.14766 -0.05949
 H117 H 0.23118 -0.12675 -0.10180
 H118 H 0.22450 -0.04964 -0.05989
 H119 H 0.24147 -0.07283 -0.01947
 C120 C 0.33495 -0.18069 -0.03316
 C121 C 0.17936 -0.17816 0.03113
 C122 C 0.22534 -0.08570 -0.08557
 C123 C 0.28537 -0.07574 0.06285
 C124 C 0.23249 0.15295 0.45579
 H125 H 0.25088 0.15121 0.44242
 C126 C 0.20884 0.16637 0.44638
 H127 H 0.20937 0.17468 0.42562
 C128 C 0.20906 0.14216 0.49819
 H129 H 0.20884 0.13218 0.51812
 C130 C 0.18518 0.15582 0.48984
 H131 H 0.16728 0.15671 0.50395
 N132 N 0.23206 0.14077 0.48112
 C133 C 0.31460 0.12514 0.51113
 H134 H 0.31455 0.10323 0.51176
 C135 C 0.33698 0.13858 0.52076
 H136 H 0.35407 0.12686 0.52894
 C137 C 0.29167 0.16690 0.50074
 H138 H 0.27378 0.17774 0.49315
 C139 C 0.31355 0.18123 0.51057
 H140 H 0.31250 0.20316 0.51031
 Zn141 Zn 0.26295 0.11855 0.49057
 N142 N 0.29265 0.13935 0.50120
 C143 C 0.30049 0.09888 0.44898
 N144 N 0.27402 0.09778 0.45947
 C145 C 0.25484 0.08333 0.44702
 C146 C 0.26209 0.06909 0.42316
 C147 C 0.30867 0.08472 0.42546
 C148 C 0.24934 0.10860 0.54562
 C149 C 0.24096 0.09406 0.56925
 C150 C 0.24169 0.05345 0.54256
 C151 C 0.24999 0.06886 0.51931
 N152 N 0.25306 0.09603 0.52118
 H153 H 0.31528 0.11110 0.45849
 H154 H 0.23379 0.08319 0.45545
 H155 H 0.24662 0.05771 0.41343
 H156 H 0.32976 0.08613 0.41728
 H157 H 0.25227 0.13018 0.54657
 H158 H 0.23701 0.10482 0.58818
 H159 H 0.23910 0.03188 0.54070
 H160 H 0.25364 0.05916 0.49980
 C161 C 0.33658 0.16697 0.52073
 C162 C 0.18453 0.16763 0.46335
 C163 C 0.23671 0.06613 0.56791
 C164 C 0.28938 0.06963 0.41220
 C165 C 0.16117 0.47240 0.22352
 H166 H 0.16633 0.46339 0.24314
 C167 C 0.17488 0.46348 0.19936
 H168 H 0.19101 0.44797 0.20072
 C169 C 0.13337 0.50307 0.19797
 H170 H 0.11647 0.51775 0.19732
 C171 C 0.14632 0.49461 0.17338
 H172 H 0.13914 0.50306 0.15421
 N173 N 0.14085 0.49188 0.22240
 C174 C 0.12764 0.51589 0.30779
 H175 H 0.10546 0.51375 0.30931
 C176 C 0.14145 0.52421 0.33041
 H177 H 0.12974 0.52867 0.34931
 C178 C 0.16958 0.51365 0.28078
 H179 H 0.18031 0.50995 0.26124
 C180 C 0.18422 0.52242 0.30287
 H181 H 0.20629 0.52515 0.30030
 Zn182 Zn 0.11965 0.50087 0.25471
 N183 N 0.14178 0.51056 0.28369
 C184 C 0.10807 0.45494 0.28733
 N185 N 0.09926 0.46992 0.26548
 C186 C 0.07877 0.46118 0.24994
 C187 C 0.06598 0.43663 0.25656
 C188 C 0.09624 0.43024 0.29434
 C189 C 0.11234 0.55385 0.23960
 C190 C 0.09933 0.57762 0.23053
 C191 C 0.05524 0.55648 0.23874
 C192 C 0.06922 0.53284 0.24756
 N193 N 0.09734 0.53181 0.24700
 H194 H 0.12510 0.46156 0.29876
 H195 H 0.07284 0.47291 0.23203
 H196 H 0.04995 0.42965 0.24392
 H197 H 0.10380 0.41841 0.31158
 H198 H 0.13465 0.55252 0.23973
 H199 H 0.11174 0.59467 0.22386
 H200 H 0.03292 0.55687 0.23816
 H201 H 0.05766 0.51526 0.25412
 C202 C 0.17006 0.52775 0.32806
 C203 C 0.16719 0.47433 0.17377
 C204 C 0.07051 0.57890 0.22934
 C205 C 0.07513 0.42073 0.27875
 C206 C -0.16500 0.03573 0.24114
 H207 H -0.16201 0.04840 0.25849
 C208 C -0.17832 0.04640 0.21829
 H209 H -0.18477 0.06749 0.21884
 C210 C -0.15722 -0.00621 0.21937
 H211 H -0.14870 -0.02667 0.21980
 C212 C -0.17058 0.00349 0.19619
 H213 H -0.17290 -0.01052 0.17983
 N214 N -0.15420 0.01010 0.24098
 C215 C -0.13706 -0.02356 0.32222
 H216 H -0.11473 -0.02424 0.32024
 C217 C -0.15038 -0.03335 0.34621
 H218 H -0.13794 -0.04089 0.36277
 C219 C -0.17996 -0.01232 0.30289
 H220 H -0.19130 -0.00429 0.28577
 C221 C -0.19422 -0.02238 0.32649
 H222 H -0.21658 -0.02221 0.32715
 Zn223 Zn -0.13102 -0.00148 0.26935
 N224 N -0.15186 -0.01311 0.30124
 C225 C -0.10928 0.03662 0.30442
 N226 N -0.10906 0.02832 0.27800
 C227 C -0.09550 0.04254 0.25746
 C228 C -0.08146 0.06600 0.26322
 C229 C -0.09541 0.05967 0.31108
 C230 C -0.11740 -0.05664 0.26495
 C231 C -0.10406 -0.07974 0.25446
 C232 C -0.07338 -0.05106 0.22717
 C233 C -0.08735 -0.02839 0.23826
 N234 N -0.10902 -0.03154 0.25674
 H235 H -0.12078 0.02593 0.32048
 H236 H -0.09650 0.03634 0.23643
 H237 H -0.07146 0.07745 0.24654
 H238 H -0.09578 0.06560 0.33234
 H239 H -0.13514 -0.05888 0.27899
 H240 H -0.11123 -0.09948 0.26122
 H241 H -0.05671 -0.04819 0.21189
 H242 H -0.08130 -0.00836 0.23152
 C243 C -0.17938 -0.03321 0.34856
 C244 C -0.18074 0.03058 0.19472
 C245 C -0.08202 -0.07716 0.23497
 C246 C -0.08163 0.07501 0.29035
 C247 C 0.33319 0.52838 0.71174
 H248 H 0.32184 0.52513 0.73110
 C249 C 0.31940 0.53849 0.68889
 H250 H 0.29747 0.54312 0.69108
 C251 C 0.37578 0.52769 0.68583
 H252 H 0.39782 0.52341 0.68488
 C253 C 0.36282 0.53731 0.66246
 H254 H 0.37513 0.53990 0.64352
 N255 N 0.36086 0.52298 0.70969
 C256 C 0.36509 0.51117 0.79569
 H257 H 0.38214 0.52463 0.79694
 C258 C 0.35081 0.50273 0.81979
 H259 H 0.35664 0.51026 0.83932
 C260 C 0.33778 0.48374 0.76907
 H261 H 0.33345 0.47579 0.74928
 C262 C 0.32274 0.47499 0.79266
 H263 H 0.30676 0.46034 0.79088
 Zn264 Zn 0.38136 0.50928 0.73935
 N265 N 0.35853 0.50146 0.77099
 C266 C 0.39375 0.56083 0.75357
 N267 N 0.40616 0.53658 0.74743
 C268 C 0.43409 0.53298 0.74759
 C269 C 0.45052 0.55404 0.75554
 C270 C 0.40931 0.58238 0.76139
 C271 C 0.39093 0.46378 0.70658
 C272 C 0.40161 0.43828 0.69961
 C273 C 0.42985 0.43857 0.73916
 C274 C 0.41822 0.46401 0.74569
 N275 N 0.39942 0.47623 0.72919
 H276 H 0.37152 0.56316 0.75306
 H277 H 0.44367 0.51380 0.74194
 H278 H 0.47267 0.55080 0.75611
 H279 H 0.39882 0.60115 0.76720
 H280 H 0.37515 0.47316 0.69434
 H281 H 0.39448 0.42862 0.68162
 H282 H 0.44470 0.42896 0.75245
 H283 H 0.42384 0.47379 0.76416
 C284 C 0.32958 0.48415 0.81848
 C285 C 0.33422 0.54294 0.66370
 C286 C 0.42124 0.42536 0.71601
 C287 C 0.43805 0.57903 0.76287
 C288 C 0.66279 0.97444 0.75068
 H289 H 0.66711 0.96674 0.77104
 C290 C 0.67696 0.96349 0.72769
 H291 H 0.69273 0.94792 0.73074
 C292 C 0.63632 1.00350 0.72213
 H293 H 0.61970 1.01830 0.71990
 C294 C 0.64962 0.99285 0.69863
 H295 H 0.64290 0.99981 0.67874
 N296 N 0.64286 0.99404 0.74751
 C297 C 0.62559 1.02310 0.83071
 H298 H 0.60336 1.02142 0.83125
 C299 C 0.63841 1.03208 0.85368
 H300 H 0.62537 1.03612 0.87177
 C301 C 0.66865 1.01792 0.80634
 H302 H 0.68026 1.01293 0.78758
 C303 C 0.68244 1.02703 0.82882
 H304 H 0.70453 1.02924 0.82628
 Zn305 Zn 0.62011 1.00471 0.77824
 N306 N 0.64073 1.01599 0.80777
 C307 C 0.60646 0.96025 0.81261
 N308 N 0.59958 0.97397 0.78925
 C309 C 0.58139 0.96377 0.77198
 C310 C 0.56931 0.93879 0.77802
 C311 C 0.59530 0.93510 0.81913
 C312 C 0.61233 1.05708 0.76020
 C313 C 0.59915 1.07990 0.74909
 C314 C 0.55565 1.05727 0.75513
 C315 C 0.56977 1.03471 0.76621
 N316 N 0.59774 1.03480 0.76769
 H317 H 0.62174 0.96808 0.82553
 H318 H 0.57708 0.97453 0.75299
 H319 H 0.55537 0.93052 0.76385
 H320 H 0.60161 0.92405 0.83737
 H321 H 0.63451 1.05667 0.76194
 H322 H 0.61131 1.09717 0.74258
 H323 H 0.53357 1.05658 0.75288
 H324 H 0.55849 1.01697 0.77279
 C325 C 0.66743 1.03448 0.85324
 C326 C 0.67001 0.97225 0.70112
 C327 C 0.57058 1.07992 0.74568
 C328 C 0.57681 0.92398 0.80154
 C329 C 0.04665 0.21538 -0.15627
 H330 H 0.06055 0.22743 -0.14534
 C331 C 0.05714 0.19297 -0.17065
 H332 H 0.07893 0.18777 -0.16987
 C333 C 0.00147 0.20719 -0.16995
 H334 H -0.02025 0.21272 -0.16949
 C335 C 0.01111 0.18472 -0.18480
 H336 H -0.00336 0.17340 -0.19593
 N337 N 0.01911 0.22161 -0.15548
 C338 C -0.02711 0.29669 -0.14091
 H339 H -0.03293 0.29351 -0.11939
 C340 C -0.03750 0.31926 -0.15511
 H341 H -0.05133 0.33342 -0.14434
 C342 C -0.00133 0.28238 -0.18077
 H343 H 0.01292 0.26794 -0.19052
 C344 C -0.01112 0.30490 -0.19577
 H345 H -0.00463 0.30750 -0.21722
 Zn346 Zn 0.00434 0.24945 -0.13237
 N347 N -0.00942 0.27879 -0.15384
 C348 C 0.03695 0.28937 -0.11070
 N349 N 0.03221 0.26233 -0.11000
 C350 C 0.04772 0.24482 -0.09465
 C351 C 0.06944 0.25429 -0.07989
 C352 C 0.05795 0.29971 -0.09581
 C353 C -0.05037 0.23441 -0.12234
 C354 C -0.07359 0.22487 -0.10759
 C355 C -0.04570 0.21758 -0.06822
 C356 C -0.02309 0.22764 -0.08377
 N357 N -0.02571 0.23560 -0.11039
 H358 H 0.02476 0.30304 -0.12312
 H359 H 0.04375 0.22338 -0.09451
 H360 H 0.08201 0.24013 -0.06822
 H361 H 0.06165 0.32124 -0.09695
 H362 H -0.05208 0.24099 -0.14354
 H363 H -0.09211 0.22333 -0.11886
 H364 H -0.04247 0.21258 -0.04689
 H365 H -0.00349 0.22921 -0.07436
 C366 C -0.02956 0.32359 -0.18290
 C367 C 0.03923 0.17695 -0.18479
 C368 C -0.07191 0.21595 -0.07983
 C369 C 0.07469 0.28208 -0.08045
 C370 C 0.46370 0.23474 0.15796
 H371 H 0.45280 0.25386 0.16094
 C372 C 0.45454 0.21172 0.17250
 H373 H 0.43672 0.21360 0.18662
 C374 C 0.50051 0.20935 0.13672
 H375 H 0.51862 0.20835 0.12306
 C376 C 0.49182 0.18576 0.15048
 H377 H 0.50301 0.16693 0.14635
 N378 N 0.48587 0.23308 0.13985
 C379 C 0.50433 0.31827 0.12783
 H380 H 0.49980 0.32079 0.10638
 C381 C 0.51182 0.34052 0.14261
 H382 H 0.51329 0.36010 0.13225
 C383 C 0.50922 0.28924 0.16687
 H384 H 0.50849 0.26911 0.17605
 C385 C 0.51695 0.31096 0.18242
 H386 H 0.52187 0.30742 0.20367
 Zn387 Zn 0.49527 0.26410 0.11757
 N388 N 0.50347 0.29323 0.14000
 C389 C 0.44346 0.28802 0.11171
 N390 N 0.46441 0.27535 0.09711
 C391 C 0.46328 0.27229 0.06948
 C392 C 0.44017 0.28196 0.05562
 C393 C 0.42022 0.29808 0.09873
 C394 C 0.55049 0.26948 0.09800
 C395 C 0.57543 0.26122 0.08500
 C396 C 0.55158 0.22579 0.06341
 C397 C 0.52693 0.23499 0.07656
 N398 N 0.52698 0.25584 0.09430
 H399 H 0.44511 0.29102 0.13344
 H400 H 0.48032 0.26268 0.05807
 H401 H 0.43964 0.27970 0.03360
 H402 H 0.40381 0.30806 0.11085
 H403 H 0.55030 0.28604 0.11205
 H404 H 0.59395 0.27202 0.08884
 H405 H 0.55136 0.20798 0.05093
 H406 H 0.50809 0.22425 0.07409
 C407 C 0.51863 0.33697 0.17017
 C408 C 0.46813 0.18656 0.16823
 C409 C 0.57647 0.23842 0.06831
 C410 C 0.41840 0.29528 0.07031
 C411 C 0.95527 0.73171 0.67167
 H412 H 0.94317 0.75045 0.67162
 C413 C 0.94525 0.70892 0.68610
 H414 H 0.92552 0.71032 0.69741
 C415 C 0.99492 0.70658 0.65569
 H416 H 1.01371 0.70524 0.64301
 C417 C 0.98587 0.68349 0.67004
 H418 H 0.99794 0.66479 0.66818
 N419 N 0.97948 0.73002 0.65644
 C420 C 1.00957 0.81118 0.63709
 H421 H 1.01092 0.81015 0.61491
 C422 C 1.01854 0.83406 0.64985
 H423 H 1.02688 0.85062 0.63737
 C424 C 0.99822 0.79020 0.68027
 H425 H 0.99056 0.77289 0.69196
 C426 C 1.00746 0.81259 0.69394
 H427 H 1.00671 0.81250 0.71618
 Zn428 Zn 0.98946 0.75949 0.63259
 N429 N 0.99941 0.78997 0.65232
 C430 C 0.94892 0.79417 0.60874
 N431 N 0.95876 0.76818 0.61092
 C432 C 0.94577 0.74756 0.59927
 C433 C 0.92170 0.75271 0.58502
 C434 C 0.92536 0.80028 0.59420
 C435 C 1.04475 0.74531 0.62344
 C436 C 1.06840 0.73539 0.60931
 C437 C 1.04290 0.73546 0.56783
 C438 C 1.01953 0.74511 0.58290
 N439 N 1.02075 0.74915 0.61033
 H440 H 0.95893 0.81024 0.61868
 H441 H 0.95377 0.72701 0.60164
 H442 H 0.91126 0.73610 0.57626
 H443 H 0.91760 0.82103 0.59300
 H444 H 1.04518 0.74906 0.64520
 H445 H 1.08713 0.73166 0.62025
 H446 H 1.04150 0.73139 0.54621
 H447 H 1.00031 0.74867 0.57285
 C448 C 1.01773 0.83488 0.67861
 C449 C 0.96043 0.68427 0.68495
 C450 C 1.06749 0.72987 0.58128
 C451 C 0.91131 0.77939 0.58240
 C452 C 0.52205 0.72618 0.32457
 H453 H 0.52166 0.74511 0.31304
 C454 C 0.53203 0.70259 0.31175
 H455 H 0.53932 0.70363 0.29042
 C456 C 0.51229 0.70144 0.36599
 H457 H 0.50407 0.70101 0.38700
 C458 C 0.52177 0.67740 0.35393
 H459 H 0.52142 0.65872 0.36602
 N460 N 0.51259 0.72522 0.35131
 C461 C 0.46028 0.79144 0.34187
 H462 H 0.44471 0.78114 0.35437
 C463 C 0.45224 0.81301 0.32486
 H464 H 0.43053 0.81876 0.32530
 C465 C 0.50724 0.79743 0.32838
 H466 H 0.52872 0.79133 0.33005
 C467 C 0.50019 0.81972 0.31159
 H468 H 0.51657 0.82981 0.29989
 Zn469 Zn 0.49712 0.75614 0.36935
 N470 N 0.48738 0.78407 0.34352
 C471 C 0.52855 0.79612 0.39321
 N472 N 0.52266 0.76935 0.39396
 C473 C 0.53533 0.75176 0.41157
 C474 C 0.55555 0.76072 0.42850
 C475 C 0.54876 0.80589 0.40956
 C476 C 0.44704 0.73024 0.37500
 C477 C 0.42221 0.72195 0.38756
 C478 C 0.43442 0.74347 0.42916
 C479 C 0.45912 0.75146 0.41571
 N480 N 0.46475 0.74494 0.38903
 H481 H 0.51779 0.81003 0.37974
 H482 H 0.53004 0.73067 0.41229
 H483 H 0.56539 0.74635 0.44230
 H484 H 0.55375 0.82709 0.40772
 H485 H 0.45216 0.72522 0.35385
 H486 H 0.40848 0.71014 0.37601
 H487 H 0.42994 0.74917 0.45025
 H488 H 0.47356 0.76319 0.42641
 C489 C 0.47224 0.82806 0.30962
 C490 C 0.53179 0.67777 0.32646
 C491 C 0.41548 0.72876 0.41491
 C492 C 0.56285 0.78807 0.42731
 C493 C 0.42221 -0.02698 0.26099
 H494 H 0.42185 -0.00906 0.27329
 C495 C 0.43691 -0.05016 0.26970
 H496 H 0.44811 -0.04967 0.28839
 C497 C 0.40556 -0.05055 0.22365
 H498 H 0.39272 -0.05111 0.20620
 C499 C 0.41973 -0.07415 0.23174
 H500 H 0.41788 -0.09242 0.22019
 N501 N 0.40646 -0.02768 0.23860
 C502 C 0.38742 0.05120 0.20235
 H503 H 0.36842 0.04545 0.19360
 C504 C 0.39860 0.07614 0.19492
 H505 H 0.38843 0.08881 0.17981
 C506 C 0.42349 0.04154 0.23250
 H507 H 0.43306 0.02817 0.24729
 C508 C 0.43527 0.06655 0.22587
 H509 H 0.45368 0.07209 0.23590
 Zn510 Zn 0.38150 0.00167 0.23027
 N511 N 0.39997 0.03432 0.22069
 C512 C 0.34245 0.03195 0.26196
 N513 N 0.35757 0.00834 0.26137
 C514 C 0.35745 -0.00906 0.28345
 C515 C 0.34320 -0.00212 0.30794
 C516 C 0.32780 0.03965 0.28603
 C517 C 0.37471 -0.00824 0.17505
 C518 C 0.36185 -0.01718 0.15211
 C519 C 0.32079 -0.02539 0.18082
 C520 C 0.33441 -0.01597 0.20328
 N521 N 0.36103 -0.00804 0.20004
 H522 H 0.34277 0.04540 0.24412
 H523 H 0.36904 -0.02803 0.28240
 H524 H 0.34404 -0.01583 0.32558
 H525 H 0.31707 0.05917 0.28654
 H526 H 0.39590 -0.00189 0.17311
 H527 H 0.37321 -0.01713 0.13244
 H528 H 0.29999 -0.03264 0.18397
 H529 H 0.32407 -0.01584 0.22343
 C530 C 0.42274 0.08430 0.20687
 C531 C 0.43504 -0.07433 0.25544
 C532 C 0.33472 -0.02650 0.15487
 C533 C 0.32877 0.02287 0.30967
 C534 C 0.09065 1.02784 0.77484
 H535 H 0.08672 1.00910 0.78611
 C536 C 0.07740 1.05188 0.78341
 H537 H 0.06349 1.05134 0.80143
 C538 C 0.11496 1.05140 0.73883
 H539 H 0.13001 1.05136 0.72179
 C540 C 0.10197 1.07581 0.74650
 H541 H 0.10682 1.09409 0.73476
 N542 N 0.10941 1.02805 0.75317
 C543 C 0.11827 0.94420 0.72597
 H544 H 0.14041 0.94249 0.72305
 C545 C 0.10233 0.92248 0.71932
 H546 H 0.11247 0.90409 0.71186
 C547 C 0.07806 0.97080 0.73700
 H548 H 0.06862 0.98978 0.74346
 C549 C 0.06125 0.94965 0.73004
 H550 H 0.03899 0.95242 0.73151
 Zn551 Zn 0.12999 0.99584 0.74388
 N552 N 0.10610 0.96761 0.73520
 C553 C 0.16923 0.96238 0.77088
 N554 N 0.15192 0.98439 0.77388
 C555 C 0.14953 0.99755 0.79816
 C556 C 0.16336 0.98759 0.82099
 C557 C 0.18340 0.95175 0.79313
 C558 C 0.13997 1.00712 0.68824
 C559 C 0.15509 1.01424 0.66424
 C560 C 0.19666 1.01196 0.68982
 C561 C 0.18067 1.00505 0.71343
 N562 N 0.15283 1.00306 0.71224
 H563 H 0.17213 0.95292 0.75123
 H564 H 0.13651 1.01550 0.80017
 H565 H 0.16023 0.99771 0.84040
 H566 H 0.19672 0.93397 0.79034
 H567 H 0.11777 1.00553 0.68797
 H568 H 0.14420 1.01845 0.64565
 H569 H 0.21877 1.01360 0.69118
 H570 H 0.19043 1.00188 0.73278
 C571 C 0.07346 0.92504 0.72138
 C572 C 0.08329 1.07642 0.76941
 C573 C 0.18382 1.01705 0.66484
 C574 C 0.18000 0.96398 0.81879
 C575 C 0.58423 0.52929 0.28364
 H576 H 0.58326 0.51061 0.29567
 C577 C 0.57140 0.55294 0.29382
 H578 H 0.56065 0.55218 0.31379
 C579 C 0.60124 0.55322 0.24397
 H580 H 0.61335 0.55347 0.22481
 C581 C 0.58853 0.57721 0.25320
 H582 H 0.59055 0.59547 0.24061
 N583 N 0.59915 0.52994 0.25932
 C584 C 0.61216 0.45038 0.22360
 H585 H 0.63442 0.45080 0.22077
 C586 C 0.59802 0.42843 0.21450
 H587 H 0.60953 0.41214 0.20433
 C588 C 0.57024 0.47151 0.23993
 H589 H 0.55962 0.48836 0.24994
 C590 C 0.55516 0.44991 0.23090
 H591 H 0.53290 0.45019 0.23413
 Zn592 Zn 0.62049 0.49889 0.24869
 N593 N 0.59827 0.47112 0.23644
 C594 C 0.63876 0.45917 0.28672
 N595 N 0.63992 0.48587 0.27947
 C596 C 0.65334 0.50349 0.29485
 C597 C 0.66602 0.49441 0.31875
 C598 C 0.65142 0.44920 0.31009
 C599 C 0.63414 0.51113 0.19399
 C600 C 0.65065 0.51841 0.17098
 C601 C 0.68977 0.51962 0.19988
 C602 C 0.67250 0.51203 0.22239
 N603 N 0.64517 0.50830 0.21907
 H604 H 0.62775 0.44543 0.27464
 H605 H 0.65362 0.52472 0.28890
 H606 H 0.67591 0.50887 0.33114
 H607 H 0.65052 0.42775 0.31501
 H608 H 0.61233 0.50800 0.19197
 H609 H 0.64132 0.52113 0.15130
 H610 H 0.71145 0.52279 0.20279
 H611 H 0.68086 0.50944 0.24248
 C612 C 0.56918 0.42786 0.21831
 C613 C 0.57385 0.57748 0.27875
 C614 C 0.67880 0.52296 0.17379
 C615 C 0.66491 0.46691 0.32680
 C616 C 0.92523 0.46706 0.75193
 H617 H 0.93513 0.48631 0.75289
 C618 C 0.93886 0.44341 0.76118
 H619 H 0.95916 0.44473 0.76936
 C620 C 0.88605 0.44201 0.74199
 H621 H 0.86514 0.44169 0.73521
 C622 C 0.89887 0.41804 0.75086
 H623 H 0.88783 0.39931 0.75027
 N624 N 0.89901 0.46598 0.74323
 C625 C 0.89194 0.54165 0.70284
 H626 H 0.87927 0.53289 0.68796
 C627 C 0.90286 0.56707 0.69719
 H628 H 0.89911 0.57709 0.67764
 C629 C 0.91126 0.53998 0.74665
 H630 H 0.91351 0.52973 0.76632
 C631 C 0.92267 0.56549 0.74178
 H632 H 0.93402 0.57457 0.75764
 Zn633 Zn 0.87613 0.49688 0.73638
 N634 N 0.89611 0.52866 0.72731
 C635 C 0.83886 0.52739 0.76977
 N636 N 0.85449 0.50412 0.76872
 C637 C 0.85729 0.48778 0.79136
 C638 C 0.84488 0.49513 0.81656
 C639 C 0.82610 0.53555 0.79463
 C640 C 0.86752 0.48088 0.68344
 C641 C 0.85296 0.47352 0.66095
 C642 C 0.81032 0.48107 0.68776
 C643 C 0.82576 0.48868 0.70973
 N644 N 0.85384 0.48851 0.70710
 H645 H 0.83740 0.54023 0.75156
 H646 H 0.87003 0.46953 0.79023
 H647 H 0.84782 0.48216 0.83447
 H648 H 0.81483 0.55477 0.79537
 H649 H 0.88987 0.48044 0.68216
 H650 H 0.86423 0.46724 0.64237
 H651 H 0.78799 0.48114 0.69005
 H652 H 0.81536 0.49436 0.72892
 C653 C 0.91804 0.57954 0.71694
 C654 C 0.92526 0.41861 0.76147
 C655 C 0.82401 0.47348 0.66298
 C656 C 0.82963 0.51962 0.81857
 C657 C 0.27597 0.42285 -0.03519
 H658 H 0.28474 0.42378 -0.01525
 C659 C 0.28759 0.43768 -0.05742
 H660 H 0.30468 0.45064 -0.05404
 C661 C 0.24375 0.40405 -0.06387
 H662 H 0.22727 0.39030 -0.06665
 C663 C 0.25491 0.41826 -0.08668
 H664 H 0.24671 0.41512 -0.10660
 N665 N 0.25425 0.40663 -0.03868
 C666 C 0.20721 0.39241 0.03831
 H667 H 0.20102 0.37222 0.03371
 C668 C 0.19746 0.40422 0.06268
 H669 H 0.18312 0.39322 0.07618
 C670 C 0.23373 0.43085 0.02638
 H671 H 0.24815 0.44103 0.01242
 C672 C 0.22464 0.44336 0.05076
 H673 H 0.23242 0.46301 0.05527
 Zn674 Zn 0.24065 0.38474 -0.00864
 N675 N 0.22530 0.40558 0.02088
 C676 C 0.27592 0.36467 0.03155
 N677 N 0.27070 0.36363 0.00443
 C678 C 0.28804 0.34991 -0.01344
 C679 C 0.31228 0.33729 -0.00428
 C680 C 0.29972 0.35235 0.04153
 C681 C 0.18887 0.37617 -0.02779
 C682 C 0.16637 0.36194 -0.03592
 C683 C 0.19201 0.32011 -0.02767
 C684 C 0.21424 0.33524 -0.01988
 N685 N 0.21226 0.36277 -0.02022
 H686 H 0.26203 0.37569 0.04548
 H687 H 0.28356 0.34965 -0.03497
 H688 H 0.32640 0.32729 -0.01889
 H689 H 0.30353 0.35368 0.06317
 H690 H 0.18782 0.39807 -0.02761
 H691 H 0.14832 0.37322 -0.04257
 H692 H 0.19377 0.29821 -0.02695
 H693 H 0.23291 0.32502 -0.01333
 C694 C 0.20667 0.42977 0.06957
 C695 C 0.27722 0.43533 -0.08372
 C696 C 0.16761 0.33349 -0.03580
 C697 C 0.31864 0.33901 0.02346
 C698 C 0.76429 0.07971 1.04895
 H699 H 0.75637 0.06860 1.03232
 C700 C 0.77177 0.06592 1.07302
 H701 H 0.76937 0.04421 1.07484
 C702 C 0.77720 0.12143 1.06692
 H703 H 0.77937 0.14309 1.06425
 C704 C 0.78461 0.10855 1.09138
 H705 H 0.79276 0.12038 1.10742
 N706 N 0.76683 0.10703 1.04651
 C707 C 0.75799 0.10274 0.96236
 H708 H 0.77694 0.11345 0.95845
 C709 C 0.74677 0.08890 0.94104
 H710 H 0.75733 0.08904 0.92096
 C711 C 0.72013 0.09125 0.99253
 H712 H 0.70958 0.09285 1.01251
 C713 C 0.70807 0.07737 0.97174
 H714 H 0.68840 0.06791 0.97599
 Zn715 Zn 0.75647 0.12691 1.01471
 N716 N 0.74444 0.10392 0.98742
 C717 C 0.81161 0.13114 0.99674
 N718 N 0.78776 0.14592 1.00091
 C719 C 0.78654 0.17299 0.99505
 C720 C 0.80968 0.18594 0.98338
 C721 C 0.83526 0.14331 0.98533
 C722 C 0.71533 0.15116 1.04997
 C723 C 0.69190 0.16713 1.05656
 C724 C 0.69088 0.18204 1.00905
 C725 C 0.71444 0.16575 1.00335
 N726 N 0.72627 0.15087 1.02377
 H727 H 0.81204 0.10968 1.00177
 H728 H 0.76758 0.18451 0.99901
 H729 H 0.80830 0.20742 0.97846
 H730 H 0.85381 0.13102 0.98140
 H731 H 0.72424 0.13849 1.06577
 H732 H 0.68326 0.16653 1.07745
 H733 H 0.68184 0.19385 0.99258
 H734 H 0.72311 0.16465 0.98253
 C735 C 0.72119 0.07652 0.94544
 C736 C 0.78182 0.08045 1.09472
 C737 C 0.67931 0.18285 1.03600
 C738 C 0.83435 0.17098 0.97810
 C739 C 0.28009 0.59726 0.51903
 H740 H 0.29045 0.59778 0.49887
 C741 C 0.29298 0.58450 0.54111
 H742 H 0.31319 0.57489 0.53783
 C743 C 0.24174 0.61025 0.54819
 H744 H 0.22227 0.62112 0.55123
 C745 C 0.25364 0.59733 0.57069
 H746 H 0.24307 0.59823 0.59074
 N747 N 0.25506 0.61006 0.52296
 C748 C 0.21818 0.62172 0.44340
 H749 H 0.21490 0.64347 0.44382
 C750 C 0.21039 0.60743 0.42086
 H751 H 0.20080 0.61824 0.40405
 C752 C 0.23440 0.58124 0.46512
 H753 H 0.24380 0.57122 0.48244
 C754 C 0.22650 0.56602 0.44306
 H755 H 0.22995 0.54427 0.44346
 Zn756 Zn 0.24101 0.63081 0.49321
 N757 N 0.23039 0.60862 0.46468
 C758 C 0.27917 0.65169 0.45318
 N759 N 0.26955 0.65372 0.47974
 C760 C 0.28161 0.67025 0.49735
 C761 C 0.30429 0.68558 0.48837
 C762 C 0.30151 0.66677 0.44332
 C763 C 0.18681 0.63634 0.51348
 C764 C 0.16298 0.64925 0.52436
 C765 C 0.18477 0.69231 0.51624
 C766 C 0.20842 0.67850 0.50580
 N767 N 0.20919 0.65095 0.50527
 H768 H 0.27013 0.63779 0.43968
 H769 H 0.27393 0.67109 0.51853
 H770 H 0.31381 0.69851 0.50264
 H771 H 0.30918 0.66434 0.42227
 H772 H 0.18784 0.61449 0.51229
 H773 H 0.14560 0.63725 0.53152
 H774 H 0.18463 0.71418 0.51737
 H775 H 0.22625 0.68974 0.49861
 C776 C 0.21467 0.57925 0.42044
 C777 C 0.27978 0.58468 0.56737
 C778 C 0.16195 0.67754 0.52624
 C779 C 0.31449 0.68387 0.46100
 C780 C 0.77049 0.90207 0.49337
 H781 H 0.78259 0.89685 0.51093
 C782 C 0.78255 0.91605 0.47086
 H783 H 0.80393 0.92177 0.47126
 C784 C 0.72828 0.89992 0.47092
 H785 H 0.70729 0.89309 0.47083
 C786 C 0.73940 0.91426 0.44813
 H787 H 0.72693 0.91826 0.43053
 N788 N 0.74406 0.89366 0.49269
 C789 C 0.70576 0.87707 0.57399
 H790 H 0.69933 0.85650 0.57164
 C791 C 0.69868 0.89052 0.59825
 H792 H 0.68625 0.88020 0.61406
 C793 C 0.72892 0.91550 0.55567
 H794 H 0.74081 0.92512 0.53906
 C795 C 0.72268 0.92959 0.57982
 H796 H 0.73018 0.94988 0.58150
 Zn797 Zn 0.73044 0.86994 0.52103
 N798 N 0.72056 0.88964 0.55325
 C799 C 0.76286 0.83571 0.55531
 N800 N 0.75903 0.84409 0.52891
 C801 C 0.77743 0.83689 0.50822
 C802 C 0.80160 0.82216 0.51398
 C803 C 0.78647 0.82055 0.56189
 C804 C 0.67335 0.85918 0.51769
 C805 C 0.65051 0.84755 0.50670
 C806 C 0.68154 0.82245 0.47587
 C807 C 0.70381 0.83432 0.48769
 N808 N 0.69939 0.85238 0.50815
 H809 H 0.74826 0.84166 0.57156
 H810 H 0.77407 0.84379 0.48738
 H811 H 0.81665 0.81765 0.49748
 H812 H 0.78975 0.81513 0.58319
 H813 H 0.67012 0.87420 0.53332
 H814 H 0.63003 0.85316 0.51478
 H815 H 0.68558 0.80884 0.45899
 H816 H 0.72465 0.82967 0.48004
 C817 C 0.70733 0.91712 0.60160
 C818 C 0.76710 0.92180 0.44767
 C819 C 0.65438 0.82914 0.48523
 C820 C 0.80658 0.81435 0.54121
 C821 C -0.02071 0.27365 0.41382
 H822 H -0.00025 0.28085 0.41698
 C823 C -0.04353 0.28433 0.42902
 H824 H -0.04030 0.29939 0.44423
 C825 C -0.04976 0.24576 0.38969
 H826 H -0.05238 0.23148 0.37365
 C827 C -0.07306 0.25597 0.40423
 H828 H -0.09321 0.24924 0.39911
 N829 N -0.02418 0.25460 0.39467
 C830 C 0.05894 0.22069 0.37664
 H831 H 0.05840 0.22167 0.35447
 C832 C 0.08294 0.21165 0.38904
 H833 H 0.10082 0.20544 0.37633
 C834 C 0.03614 0.22758 0.42012
 H835 H 0.01781 0.23374 0.43209
 C836 C 0.05964 0.21807 0.43343
 H837 H 0.05938 0.21715 0.45567
 Zn838 Zn 0.00631 0.24243 0.37186
 N839 N 0.03642 0.22908 0.39218
 C840 C 0.04258 0.28323 0.35454
 N841 N 0.01793 0.27232 0.34949
 C842 C 0.00111 0.28391 0.33065
 C843 C 0.00931 0.30705 0.31552
 C844 C 0.05151 0.30618 0.34001
 C845 C -0.01302 0.19148 0.36714
 C846 C -0.02445 0.16930 0.35535
 C847 C -0.01705 0.19084 0.31062
 C848 C -0.00600 0.21296 0.32341
 N849 N -0.00492 0.21308 0.35128
 H850 H 0.05510 0.27472 0.37050
 H851 H -0.01878 0.27536 0.32758
 H852 H -0.00420 0.31595 0.30048
 H853 H 0.07092 0.31476 0.34498
 H854 H -0.01158 0.19203 0.38921
 H855 H -0.03167 0.15266 0.36842
 H856 H -0.01873 0.19116 0.28854
 H857 H 0.00107 0.23015 0.31116
 C858 C 0.08352 0.21042 0.41775
 C859 C -0.07023 0.27566 0.42412
 C860 C -0.02710 0.16907 0.32686
 C861 C 0.03491 0.31841 0.32011
 C862 C 1.02927 0.78060 0.08772
 H863 H 1.00955 0.78905 0.08175
 C864 C 1.05357 0.78866 0.07367
 H865 H 1.05243 0.80329 0.05682
 C866 C 1.05491 0.75230 0.11781
 H867 H 1.05542 0.73848 0.13532
 C868 C 1.07968 0.76008 0.10458
 H869 H 1.09906 0.75186 0.11178
 N870 N 1.03034 0.76273 0.10938
 C871 C 0.94347 0.74058 0.11910
 H872 H 0.93979 0.74343 0.14081
 C873 C 0.92210 0.73161 0.10376
 H874 H 0.90227 0.72770 0.11403
 C875 C 0.97422 0.74004 0.07990
 H876 H 0.99479 0.74240 0.07084
 C877 C 0.95340 0.73092 0.06376
 H878 H 0.95805 0.72704 0.04224
 Zn879 Zn 0.99771 0.75359 0.13031
 N880 N 0.96895 0.74466 0.10711
 C881 C 0.96654 0.77987 0.17323
 N882 N 0.98627 0.78328 0.15273
 C883 C 0.99736 0.80797 0.14734
 C884 C 0.98776 0.83060 0.16190
 C885 C 0.95637 0.80194 0.18832
 C886 C 1.01000 0.69929 0.13703
 C887 C 1.01811 0.67514 0.14999
 C888 C 1.01658 0.69823 0.19322
 C889 C 1.00859 0.72212 0.17934
 N890 N 1.00574 0.72220 0.15168
 H891 H 0.95862 0.75999 0.17795
 H892 H 1.01322 0.81041 0.13128
 H893 H 0.99615 0.85020 0.15652
 H894 H 0.94054 0.79879 0.20441
 H895 H 1.00773 0.70000 0.11505
 H896 H 1.02184 0.65721 0.13787
 H897 H 1.01968 0.69855 0.21508
 H898 H 1.00563 0.74069 0.19050
 C899 C 0.92698 0.72637 0.07576
 C900 C 1.07919 0.77862 0.08235
 C901 C 1.02194 0.67451 0.17834
 C902 C 0.96663 0.82784 0.18237
 C903 C 0.52533 0.27438 0.59146
 H904 H 0.50529 0.28252 0.58609
 C905 C 0.54926 0.28418 0.57802
 H906 H 0.54753 0.29984 0.56220
 C907 C 0.55207 0.24501 0.61953
 H908 H 0.55316 0.23022 0.63616
 C909 C 0.57649 0.25455 0.60695
 H910 H 0.59618 0.24659 0.61365
 N911 N 0.52712 0.25496 0.61162
 C912 C 0.44310 0.22485 0.62030
 H913 H 0.44037 0.22591 0.64242
 C914 C 0.42165 0.21609 0.60494
 H915 H 0.40248 0.21015 0.61541
 C916 C 0.47179 0.23069 0.57997
 H917 H 0.49148 0.23608 0.57039
 C918 C 0.45092 0.22166 0.56380
 H919 H 0.45461 0.22050 0.54177
 Zn920 Zn 0.49444 0.24410 0.63129
 N921 N 0.46739 0.23237 0.60768
 C922 C 0.45653 0.28684 0.64342
 N923 N 0.48051 0.27451 0.65101
 C924 C 0.49566 0.28498 0.67082
 C925 C 0.48641 0.30843 0.68436
 C926 C 0.44668 0.31035 0.65619
 C927 C 0.51255 0.19175 0.64153
 C928 C 0.52147 0.16900 0.65639
 C929 C 0.50898 0.19225 0.69842
 C930 C 0.50027 0.21471 0.68266
 N931 N 0.50293 0.21426 0.65474
 H932 H 0.44539 0.27903 0.62679
 H933 H 0.51508 0.27525 0.67594
 H934 H 0.49859 0.31626 0.70030
 H935 H 0.42796 0.32015 0.64914
 H936 H 0.51400 0.19183 0.61931
 H937 H 0.52959 0.15148 0.64544
 H938 H 0.50778 0.19322 0.72062
 H939 H 0.49197 0.23258 0.69275
 C940 C 0.42539 0.21445 0.57631
 C941 C 0.57525 0.27442 0.58597
 C942 C 0.52037 0.16927 0.68521
 C943 C 0.46158 0.32148 0.67704
 C944 C 0.48517 0.76282 0.91658
 H945 H 0.50546 0.77010 0.92038
 C946 C 0.46199 0.77321 0.93130
 H947 H 0.46480 0.78800 0.94688
 C948 C 0.45701 0.73522 0.89108
 H949 H 0.45505 0.72111 0.87474
 C950 C 0.43326 0.74531 0.90507
 H951 H 0.41330 0.73874 0.89918
 N952 N 0.48230 0.74429 0.89683
 C953 C 0.56631 0.71312 0.87995
 H954 H 0.56669 0.71523 0.85778
 C955 C 0.58997 0.70414 0.89296
 H956 H 0.60849 0.69901 0.88067
 C957 C 0.54156 0.71734 0.92283
 H958 H 0.52264 0.72253 0.93432
 C959 C 0.56476 0.70809 0.93673
 H960 H 0.56362 0.70643 0.95895
 Zn961 Zn 0.51370 0.73464 0.87429
 N962 N 0.54298 0.72019 0.89495
 C963 C 0.54936 0.77773 0.86328
 N964 N 0.52541 0.76688 0.85588
 C965 C 0.50885 0.78017 0.83788
 C966 C 0.51663 0.80508 0.82601
 C967 C 0.55774 0.80255 0.85219
 C968 C 0.49755 0.68347 0.86188
 C969 C 0.48990 0.66206 0.84605
 C970 C 0.49762 0.69017 0.80529
 C971 C 0.50534 0.71109 0.82197
 N972 N 0.50465 0.70751 0.84977
 H973 H 0.56160 0.76770 0.87863
 H974 H 0.48943 0.77160 0.83301
 H975 H 0.50335 0.81519 0.81149
 H976 H 0.57645 0.81102 0.85920
 H977 H 0.49741 0.68115 0.88402
 H978 H 0.48349 0.64339 0.85624
 H979 H 0.49795 0.69336 0.78321
 H980 H 0.51168 0.73012 0.81268
 C981 C 0.58949 0.70189 0.92171
 C982 C 0.43547 0.76494 0.92519
 C983 C 0.48959 0.66532 0.81737
 C984 C 0.54140 0.81663 0.83320
 C985 C 0.48194 -0.12642 0.28986
 C986 C 0.46431 -0.14864 0.29391
 C987 C 0.43785 -0.14640 0.28296
 C988 C 0.42897 -0.12265 0.26965
 C989 C 0.44605 -0.10023 0.26702
 C990 C 0.47273 -0.10239 0.27696
 H991 H 0.50225 -0.12669 0.29819
 H992 H 0.42387 -0.16312 0.28421
 H993 H 0.40826 -0.12154 0.26216
 H994 H 0.48630 -0.08533 0.27511
 C995 C 0.93095 0.35452 0.80519
 C996 C 0.95912 0.34740 0.80183
 C997 C 0.97626 0.36361 0.78457
 C998 C 0.96543 0.38678 0.77130
 C999 C 0.93720 0.39390 0.77482
 C1000 C 0.92014 0.37745 0.79188
 H1001 H 0.91720 0.34230 0.81818
 H1002 H 0.99811 0.35868 0.78182
 H1003 H 0.97906 0.39903 0.75823
 H1004 H 0.89842 0.38259 0.79540
 C1005 C 0.07636 1.15035 0.78903
 C1006 C 0.04970 1.15175 0.80164
 C1007 C 0.03363 1.12844 0.80237
 C1008 C 0.04421 1.10420 0.79134
 C1009 C 0.07120 1.10260 0.77948
 C1010 C 0.08702 1.12608 0.77824
 H1011 H 0.08917 1.16797 0.78770
 H1012 H 0.01313 1.12864 0.81217
 H1013 H 0.03129 1.08665 0.79231
 H1014 H 0.10801 1.12559 0.76961
 C1015 C 0.56664 0.65178 0.29714
 C1016 C 0.54194 0.65234 0.31336
 C1017 C 0.52735 0.62829 0.31754
 C1018 C 0.53740 0.60411 0.30597
 C1019 C 0.56239 0.60339 0.29011
 C1020 C 0.57682 0.62758 0.28577
 H1021 H 0.57849 0.66993 0.29388
 H1022 H 0.50804 0.62822 0.32965
 H1023 H 0.52550 0.58601 0.30936
 H1024 H 0.59641 0.62773 0.27417
 C1025 C 0.55257 0.35594 0.20125
 C1026 C 0.52939 0.35991 0.18523
 C1027 C 0.51797 0.38624 0.18209
 C1028 C 0.53019 0.40827 0.19380
 C1029 C 0.55416 0.40440 0.20868
 C1030 C 0.56483 0.37794 0.21281
 H1031 H 0.56199 0.33596 0.20388
 H1032 H 0.49992 0.38986 0.17010
 H1033 H 0.52157 0.42845 0.19024
 H1034 H 0.58308 0.37433 0.22452
 C1035 C 0.04877 0.85398 0.71238
 C1036 C 0.02924 0.85824 0.69223
 C1037 C 0.02261 0.88487 0.68351
 C1038 C 0.03599 0.90679 0.69406
 C1039 C 0.05656 0.90239 0.71314
 C1040 C 0.06247 0.87585 0.72258
 H1041 H 0.05439 0.83364 0.71927
 H1042 H 0.00752 0.88863 0.66806
 H1043 H 0.03122 0.92705 0.68635
 H1044 H 0.07818 0.87201 0.73739
 C1045 C 0.92124 0.65263 0.69198
 C1046 C 0.94872 0.65880 0.69657
 C1047 C 0.96551 0.63935 0.70987
 C1048 C 0.95530 0.61388 0.71746
 C1049 C 0.92822 0.60730 0.71160
 C1050 C 0.91114 0.62716 0.69935
 H1051 H 0.90791 0.66707 0.68153
 H1052 H 0.98672 0.64366 0.71383
 H1053 H 0.96890 0.59898 0.72691
 H1054 H 0.89003 0.62279 0.69499
 C1055 C 0.42803 0.15806 0.18399
 C1056 C 0.45676 0.16112 0.18070
 C1057 C 0.47428 0.13911 0.18785
 C1058 C 0.46334 0.11437 0.19689
 C1059 C 0.43459 0.11110 0.19930
 C1060 C 0.41713 0.13349 0.19337
 H1061 H 0.41380 0.17434 0.17845
 H1062 H 0.49650 0.14084 0.18611
 H1063 H 0.47744 0.09758 0.20117
 H1064 H 0.39490 0.13197 0.19560
 C1065 C 0.28711 0.47034 -0.15380
 C1066 C 0.31587 0.47309 -0.15598
 C1067 C 0.33173 0.46431 -0.13390
 C1068 C 0.31917 0.45247 -0.11035
 C1069 C 0.29038 0.44938 -0.10817
 C1070 C 0.27447 0.45880 -0.13009
 H1071 H 0.27440 0.47721 -0.17044
 H1072 H 0.35400 0.46581 -0.13521
 H1073 H 0.33218 0.44499 -0.09421
 H1074 H 0.25222 0.45723 -0.12896
 C1075 C 0.78101 0.96634 0.38419
 C1076 C 0.80630 0.95520 0.37374
 C1077 C 0.81818 0.93286 0.38780
 C1078 C 0.80556 0.92242 0.41193
 C1079 C 0.78047 0.93365 0.42240
 C1080 C 0.76811 0.95553 0.40819
 H1081 H 0.77138 0.98370 0.37413
 H1082 H 0.83715 0.92315 0.38002
 H1083 H 0.81518 0.90515 0.42220
 H1084 H 0.74872 0.96450 0.41591
 C1085 C 0.79117 0.06554 1.17045
 C1086 C 0.80827 0.04184 1.17012
 C1087 C 0.81500 0.03037 1.14420
 C1088 C 0.80583 0.04249 1.11992
 C1089 C 0.78982 0.06652 1.12058
 C1090 C 0.78228 0.07771 1.14610
 H1091 H 0.78392 0.07472 1.18945
 H1092 H 0.82870 0.01286 1.14201
 H1093 H 0.81224 0.03360 1.10046
 H1094 H 0.76935 0.09592 1.14723
 C1095 C 0.29291 0.54630 0.63403
 C1096 C 0.32014 0.55346 0.63889
 C1097 C 0.33396 0.57067 0.61966
 C1098 C 0.32104 0.58023 0.59617
 C1099 C 0.29383 0.57324 0.59155
 C1100 C 0.27983 0.55627 0.61072
 H1101 H 0.28176 0.53274 0.64805
 H1102 H 0.35465 0.57720 0.62294
 H1103 H 0.33207 0.59371 0.58193
 H1104 H 0.25884 0.55053 0.60750
 C1105 C 0.17900 0.52851 0.37828
 C1106 C 0.18441 0.53864 0.35141
 C1107 C 0.20173 0.56081 0.34729
 C1108 C 0.21230 0.57347 0.36973
 C1109 C 0.20604 0.56397 0.39666
 C1110 C 0.18988 0.54095 0.40071
 H1111 H 0.16581 0.51133 0.38194
 H1112 H 0.20604 0.56913 0.32682
 H1113 H 0.22491 0.59107 0.36609
 H1114 H 0.18467 0.53332 0.42127
 C1115 C 0.70917 0.03871 0.88030
 C1116 C 0.68080 0.04432 0.87634
 C1117 C 0.66617 0.06034 0.89617
 C1118 C 0.67919 0.07018 0.91869
 C1119 C 0.70732 0.06464 0.92222
 C1120 C 0.72218 0.04880 0.90282
 H1121 H 0.72147 0.02579 0.86666
 H1122 H 0.64486 0.06666 0.89398
 H1123 H 0.66736 0.08296 0.93294
 H1124 H 0.74387 0.04395 0.90523
 C1125 C 0.68580 0.97315 0.65105
 C1126 C 0.68220 0.95871 0.67616
 C1127 C 0.68862 0.93076 0.67676
 C1128 C 0.69761 0.91753 0.65282
 C1129 C 0.69996 0.93173 0.62747
 C1130 C 0.69433 0.95982 0.62701
 H1131 H 0.68161 0.99477 0.64981
 H1132 H 0.68584 0.91880 0.69553
 H1133 H 0.70239 0.89602 0.65421
 H1134 H 0.69568 0.97148 0.60792
 C1135 C 0.18343 0.48034 0.12414
 C1136 C 0.17935 0.46339 0.14754
 C1137 C 0.18548 0.43554 0.14525
 C1138 C 0.19483 0.42484 0.12013
 C1139 C 0.19804 0.44163 0.09652
 C1140 C 0.19259 0.46958 0.09892
 H1141 H 0.17931 0.50195 0.12524
 H1142 H 0.18229 0.42179 0.16267
 H1143 H 0.19942 0.40330 0.11922
 H1144 H 0.19473 0.48309 0.08117
 C1145 C -0.14303 0.28486 0.45576
 C1146 C -0.14462 0.31289 0.46014
 C1147 C -0.12089 0.32817 0.45441
 C1148 C -0.09656 0.31598 0.44350
 C1149 C -0.09523 0.28812 0.43824
 C1150 C -0.11862 0.27262 0.44502
 H1151 H -0.16090 0.27248 0.45979
 H1152 H -0.12117 0.34971 0.45806
 H1153 H -0.07910 0.32862 0.43833
 H1154 H -0.11820 0.25103 0.44166
 C1155 C 0.36166 0.77677 0.95342
 C1156 C 0.36110 0.80475 0.95816
 C1157 C 0.38563 0.81904 0.95361
 C1158 C 0.40980 0.80599 0.94356
 C1159 C 0.41024 0.77817 0.93808
 C1160 C 0.38597 0.76362 0.94357
 H1161 H 0.34313 0.76515 0.95654
 H1162 H 0.38614 0.84049 0.95755
 H1163 H 0.42790 0.81799 0.93924
 H1164 H 0.38563 0.74210 0.93997
 C1165 C 1.13321 0.80016 0.02806
 C1166 C 1.15433 0.80919 0.04418
 C1167 C 1.15076 0.80716 0.07297
 C1168 C 1.12659 0.79673 0.08528
 C1169 C 1.10530 0.78837 0.06913
 C1170 C 1.10887 0.79006 0.04041
 H1171 H 1.13543 0.80092 0.00585
 H1172 H 1.16625 0.81441 0.08609
 H1173 H 1.12418 0.79595 0.10750
 H1174 H 1.09286 0.78344 0.02752
 C1175 C 0.62812 0.30021 0.53258
 C1176 C 0.64904 0.30918 0.54902
 C1177 C 0.64576 0.30566 0.57773
 C1178 C 0.62205 0.29388 0.58964
 C1179 C 0.60093 0.28566 0.57319
 C1180 C 0.60425 0.28880 0.54455
 H1181 H 0.63014 0.30203 0.51040
 H1182 H 0.66109 0.31275 0.59111
 H1183 H 0.61983 0.29194 0.61182
 H1184 H 0.58840 0.28230 0.53141
 C1185 C 0.35396 0.20193 0.55155
 C1186 C 0.35953 0.18128 0.53262
 C1187 C 0.38712 0.17302 0.52671
 C1188 C 0.40864 0.18455 0.54012
 C1189 C 0.40295 0.20434 0.55995
 C1190 C 0.37545 0.21324 0.56520
 H1191 H 0.33288 0.20853 0.55665
 H1192 H 0.39197 0.15726 0.51205
 H1193 H 0.42962 0.17721 0.53579
 H1194 H 0.37054 0.22865 0.58023
 C1195 C 0.89064 0.67902 0.03023
 C1196 C 0.86276 0.68662 0.03545
 C1197 C 0.85636 0.70903 0.05202
 C1198 C 0.87731 0.72269 0.06418
 C1199 C 0.90511 0.71428 0.06000
 C1200 C 0.91159 0.69270 0.04236
 H1201 H 0.89622 0.66206 0.01724
 H1202 H 0.83507 0.71528 0.05656
 H1203 H 0.87171 0.73947 0.07741
 H1204 H 0.93278 0.68560 0.03890
 C1205 C 0.66462 0.69524 0.93940
 C1206 C 0.66402 0.67446 0.95965
 C1207 C 0.63834 0.66379 0.96836
 C1208 C 0.61399 0.67320 0.95660
 C1209 C 0.61485 0.69324 0.93571
 C1210 C 0.64033 0.70441 0.92748
 H1211 H 0.68390 0.70434 0.93263
 H1212 H 0.63712 0.64749 0.98358
 H1213 H 0.59462 0.66413 0.96315
 H1214 H 0.64147 0.72023 0.91171
 C1215 C 0.15893 0.20172 0.43391
 C1216 C 0.15838 0.17990 0.45303
 C1217 C 0.13258 0.16921 0.46143
 C1218 C 0.10816 0.17975 0.45071
 C1219 C 0.10899 0.20086 0.43097
 C1220 C 0.13455 0.21190 0.42282
 H1221 H 0.17821 0.21093 0.42737
 H1222 H 0.13122 0.15207 0.47564
 H1223 H 0.08869 0.17074 0.45705
 H1224 H 0.13562 0.22840 0.40779
 C1225 C 0.57023 0.11328 0.70647
 C1226 C 0.55714 0.10272 0.73056
 C1227 C 0.53152 0.11406 0.73973
 C1228 C 0.51947 0.13584 0.72518
 C1229 C 0.53267 0.14631 0.70105
 C1230 C 0.55817 0.13478 0.69193
 H1231 H 0.58979 0.10472 0.69868
 H1232 H 0.52106 0.10633 0.75829
 H1233 H 0.49973 0.14429 0.73260
 H1234 H 0.56902 0.14263 0.67362
 C1235 C 1.03406 0.61622 0.22913
 C1236 C 1.05707 0.60293 0.21642
 C1237 C 1.06794 0.61303 0.19113
 C1238 C 1.05630 0.63610 0.17885
 C1239 C 1.03357 0.64973 0.19163
 C1240 C 1.02253 0.63965 0.21694
 H1241 H 1.02540 0.60879 0.24869
 H1242 H 1.08552 0.60300 0.18079
 H1243 H 1.06540 0.64358 0.15951
 H1244 H 1.00493 0.64978 0.22711
 C1245 C 0.95950 0.89612 0.21668
 C1246 C 0.93079 0.89843 0.22194
 C1247 C 0.91412 0.87728 0.21436
 C1248 C 0.92584 0.85434 0.20184
 C1249 C 0.95453 0.85195 0.19656
 C1250 C 0.97126 0.87308 0.20414
 H1251 H 0.97288 0.91198 0.22254
 H1252 H 0.89188 0.87872 0.21759
 H1253 H 0.91232 0.83872 0.19569
 H1254 H 0.99347 0.87170 0.20059
 C1255 C 0.46039 0.39222 0.70631
 C1256 C 0.43189 0.39793 0.70904
 C1257 C 0.41336 0.37770 0.70344
 C1258 C 0.42308 0.35252 0.69426
 C1259 C 0.45158 0.34712 0.69001
 C1260 C 0.47018 0.36707 0.69671
 H1261 H 0.47503 0.40761 0.71043
 H1262 H 0.39127 0.38154 0.70585
 H1263 H 0.40819 0.33740 0.69005
 H1264 H 0.49224 0.36372 0.69346
 C1265 C 0.47409 0.59516 0.79340
 C1266 C 0.45433 0.60104 0.77377
 C1267 C 0.44843 0.62827 0.76660
 C1268 C 0.46092 0.64918 0.77983
 C1269 C 0.47948 0.64330 0.80060
 C1270 C 0.48648 0.61607 0.80672
 H1271 H 0.47894 0.57440 0.79947
 H1272 H 0.43353 0.63339 0.75130
 H1273 H 0.45501 0.66994 0.77475
 H1274 H 0.50101 0.61095 0.82238
 C1275 C -0.08124 0.11741 0.31729
 C1276 C -0.06845 0.10062 0.29730
 C1277 C -0.04275 0.10801 0.28513
 C1278 C -0.02959 0.13102 0.29381
 C1279 C -0.04186 0.14675 0.31491
 C1280 C -0.06802 0.14007 0.32611
 H1281 H -0.10140 0.11283 0.32647
 H1282 H -0.03237 0.09547 0.26970
 H1283 H -0.00937 0.13587 0.28495
 H1284 H -0.07806 0.15222 0.34209
 C1285 C 0.03547 0.39042 0.29083
 C1286 C 0.06387 0.39374 0.28534
 C1287 C 0.08207 0.37141 0.28833
 C1288 C 0.07233 0.34654 0.29807
 C1289 C 0.04418 0.34353 0.30547
 C1290 C 0.02568 0.36550 0.30095
 H1291 H 0.02111 0.40745 0.28867
 H1292 H 0.10402 0.37344 0.28378
 H1293 H 0.08700 0.32984 0.30061
 H1294 H 0.00390 0.36387 0.30657
 C1295 C 0.53897 0.89082 0.81014
 C1296 C 0.56721 0.89620 0.80696
 C1297 C 0.58668 0.87498 0.81017
 C1298 C 0.57816 0.84894 0.81737
 C1299 C 0.54996 0.84362 0.82212
 C1300 C 0.53039 0.86476 0.81786
 H1301 H 0.52366 0.90699 0.80773
 H1302 H 0.60857 0.87866 0.80734
 H1303 H 0.59378 0.83305 0.81965
 H1304 H 0.50853 0.86148 0.82155
 C1305 C 0.72797 0.56464 0.12864
 C1306 C 0.72453 0.55435 0.10206
 C1307 C 0.70754 0.53152 0.10064
 C1308 C 0.69352 0.52089 0.12397
 C1309 C 0.69610 0.53229 0.14971
 C1310 C 0.71398 0.55379 0.15192
 H1311 H 0.73970 0.58242 0.13192
 H1312 H 0.70522 0.52099 0.08177
 H1313 H 0.68047 0.50370 0.12184
 H1314 H 0.71612 0.56319 0.17153
 C1315 C 0.23381 1.05731 0.61894
 C1316 C 0.22576 1.05091 0.59257
 C1317 C 0.20559 1.03133 0.59015
 C1318 C 0.19283 1.01943 0.61359
 C1319 C 0.19981 1.02696 0.63998
 C1320 C 0.22092 1.04557 0.64236
 H1321 H 0.24965 1.07194 0.62153
 H1322 H 0.19877 1.02602 0.57019
 H1323 H 0.17701 1.00477 0.61102
 H1324 H 0.22672 1.05201 0.66232
 C1325 C 0.21522 0.95494 0.88659
 C1326 C 0.21501 0.92644 0.89122
 C1327 C 0.20318 0.91099 0.87080
 C1328 C 0.19230 0.92321 0.84744
 C1329 C 0.19261 0.95133 0.84332
 C1330 C 0.20419 0.96707 0.86312
 H1331 H 0.22491 0.96832 0.90021
 H1332 H 0.20048 0.88943 0.87306
 H1333 H 0.18276 0.91056 0.83291
 H1334 H 0.20512 0.98884 0.86025
 C1335 C 0.71406 0.45536 0.38498
 C1336 C 0.70163 0.43372 0.39956
 C1337 C 0.67649 0.42420 0.39111
 C1338 C 0.66426 0.43561 0.36809
 C1339 C 0.67715 0.45649 0.35258
 C1340 C 0.70201 0.46656 0.36155
 H1341 H 0.73352 0.46293 0.39118
 H1342 H 0.66633 0.40782 0.40237
 H1343 H 0.64469 0.42791 0.36239
 H1344 H 0.71259 0.48248 0.35002
 C1345 C 0.77637 0.43348 0.62104
 C1346 C 0.78439 0.44178 0.59406
 C1347 C 0.80359 0.46251 0.59026
 C1348 C 0.81568 0.47353 0.61275
 C1349 C 0.80858 0.46433 0.63957
 C1350 C 0.78826 0.44476 0.64358
 H1351 H 0.76189 0.41737 0.62475
 H1352 H 0.80974 0.46985 0.56983
 H1353 H 0.83101 0.48892 0.60919
 H1354 H 0.78261 0.43719 0.66406
 C1355 C 0.32605 -0.06614 0.09034
 C1356 C 0.29776 -0.06228 0.08603
 C1357 C 0.28152 -0.04643 0.10449
 C1358 C 0.29344 -0.03458 0.12676
 C1359 C 0.32179 -0.03851 0.13107
 C1360 C 0.33788 -0.05451 0.11261
 H1361 H 0.33895 -0.07877 0.07684
 H1362 H 0.25968 -0.04302 0.10156
 H1363 H 0.28052 -0.02217 0.14044
 H1364 H 0.35959 -0.05858 0.11566
 C1365 C 0.32302 0.04057 0.38487
 C1366 C 0.29784 0.05533 0.38664
 C1367 C 0.28182 0.05773 0.36336
 C1368 C 0.29141 0.04654 0.33845
 C1369 C 0.31703 0.03247 0.33649
 C1370 C 0.33246 0.02920 0.36011
 H1371 H 0.33567 0.03825 0.40257
 H1372 H 0.26241 0.06915 0.36415
 H1373 H 0.27902 0.04923 0.32061
 H1374 H 0.35242 0.01876 0.35919
 C1375 C 0.78513 0.55400 0.87432
 C1376 C 0.80241 0.55206 0.89671
 C1377 C 0.82795 0.53806 0.89359
 C1378 C 0.83637 0.52692 0.86843
 C1379 C 0.81947 0.52954 0.84579
 C1380 C 0.79361 0.54291 0.84909
 H1381 H 0.76544 0.56488 0.87604
 H1382 H 0.84159 0.53603 0.91054
 H1383 H 0.85656 0.51702 0.86646
 H1384 H 0.78007 0.54502 0.83205
 C1385 C 0.10176 0.72665 0.54109
 C1386 C 0.09163 0.71679 0.56680
 C1387 C 0.10468 0.69404 0.57887
 C1388 C 0.12736 0.68131 0.56551
 C1389 C 0.13771 0.69124 0.53994
 C1390 C 0.12484 0.71412 0.52787
 H1391 H 0.09205 0.74421 0.53146
 H1392 H 0.09709 0.68591 0.59855
 H1393 H 0.13707 0.66384 0.57533
 H1394 H 0.13244 0.72204 0.50811
 C1395 C 0.60670 0.21365 1.03297
 C1396 C 0.60354 0.22635 1.05849
 C1397 C 0.62613 0.22599 1.07562
 C1398 C 0.65092 0.21270 1.06782
 C1399 C 0.65380 0.19919 1.04279
 C1400 C 0.63158 0.20022 1.02519
 H1401 H 0.58983 0.21377 1.01917
 H1402 H 0.62440 0.23515 1.09560
 H1403 H 0.66776 0.21263 1.08168
 H1404 H 0.63308 0.18985 1.00584
 C1405 C 0.90838 0.18922 0.95868
 C1406 C 0.90552 0.20604 0.93488
 C1407 C 0.87818 0.21183 0.92676
 C1408 C 0.85530 0.20099 0.94114
 C1409 C 0.85865 0.18381 0.96407
 C1410 C 0.88538 0.17820 0.97280
 H1411 H 0.92833 0.18286 0.96588
 H1412 H 0.87377 0.22565 0.90991
 H1413 H 0.83487 0.20574 0.93395
 H1414 H 0.88856 0.16502 0.99053
 C1415 C 0.36472 0.72140 0.41330
 C1416 C 0.38887 0.72021 0.42821
 C1417 C 0.38761 0.70941 0.45519
 C1418 C 0.36303 0.69869 0.46643
 C1419 C 0.33933 0.69858 0.45088
 C1420 C 0.34026 0.71068 0.42449
 H1421 H 0.36489 0.73019 0.39272
 H1422 H 0.40592 0.70811 0.46710
 H1423 H 0.36295 0.68930 0.48675
 H1424 H 0.32215 0.71133 0.41225
 C1425 C 0.58418 0.82412 0.45440
 C1426 C 0.58554 0.79790 0.44374
 C1427 C 0.60931 0.78159 0.44790
 C1428 C 0.63134 0.79146 0.46188
 C1429 C 0.63029 0.81796 0.47185
 C1430 C 0.60630 0.83407 0.46812
 H1431 H 0.56605 0.83711 0.45199
 H1432 H 0.61124 0.76141 0.43974
 H1433 H 0.64929 0.77833 0.46472
 H1434 H 0.60482 0.85469 0.47518
 C1435 C 0.09403 0.31567 -0.04968
 C1436 C 0.09810 0.29290 -0.06616
 C1437 C 0.12496 0.28207 -0.07076
 C1438 C 0.14755 0.29471 -0.06021
 C1439 C 0.14362 0.31824 -0.04463
 C1440 C 0.11649 0.32805 -0.03883
 H1441 H 0.07343 0.32417 -0.04563
 H1442 H 0.12857 0.26464 -0.08364
 H1443 H 0.16814 0.28673 -0.06529
 H1444 H 0.11260 0.34565 -0.02627
 C1445 C 0.38062 0.29235 0.03679
 C1446 C 0.39411 0.30698 0.05635
 C1447 C 0.38356 0.33273 0.06354
 C1448 C 0.35950 0.34322 0.05230
 C1449 C 0.34527 0.32821 0.03363
 C1450 C 0.35636 0.30288 0.02552
 H1451 H 0.38828 0.27241 0.03096
 H1452 H 0.39389 0.34475 0.07805
 H1453 H 0.35193 0.36313 0.05837
 H1454 H 0.34581 0.29086 0.01120
 C1455 C 0.88354 0.80685 0.54932
 C1456 C 0.88511 0.78559 0.56887
 C1457 C 0.86098 0.77201 0.57726
 C1458 C 0.83544 0.78060 0.56742
 C1459 C 0.83373 0.80256 0.54864
 C1460 C 0.85812 0.81512 0.53912
 H1461 H 0.90193 0.81756 0.54253
 H1462 H 0.86169 0.75568 0.59247
 H1463 H 0.81691 0.77059 0.57502
 H1464 H 0.85734 0.83227 0.52488
   
