data_POSCAR
  _audit_creation_date              2014-09-24
  _audit_creation_method            'ToBaCCo'
  _symmetry_space_group_name_H-M    'P1'
  _symmetry_Int_Tables_number       1
  _symmetry_cell_setting            triclinic
  loop_
  _symmetry_equiv_pos_as_xyz
 x,y,z
_cell_length_a 79.7373
_cell_length_b 79.7491
_cell_length_c 79.7496
_cell_angle_alpha 89.999500
_cell_angle_beta 89.995600
_cell_angle_gamma 89.984700
loop_
  _atom_site_label
  _atom_site_type_symbol
  _atom_site_fract_x
  _atom_site_fract_y
  _atom_site_fract_z
C1 C 0.20588 0.19813 0.22223
 C2 C 0.19228 0.20091 0.23305
 C3 C 0.18130 0.21449 0.23046
 C4 C 0.18412 0.22532 0.21681
 C5 C 0.19765 0.22268 0.20587
 C6 C 0.20858 0.20905 0.20859
 C7 C 0.21681 0.18460 0.22486
 C8 C 0.23045 0.18176 0.21401
 C9 C 0.23303 0.19272 0.20042
 C10 C 0.22221 0.20633 0.19765
 C11 C 0.22482 0.21724 0.18411
 C12 C 0.21397 0.23088 0.18128
 C13 C 0.20040 0.23347 0.19226
 H14 H 0.19029 0.19247 0.24351
 H15 H 0.17576 0.23582 0.21464
 H16 H 0.21465 0.17626 0.23537
 H17 H 0.24348 0.19071 0.19197
 H18 H 0.23532 0.21507 0.17575
 H19 H 0.19194 0.24393 0.19026
 C20 C 0.70593 0.69797 0.72216
 C21 C 0.69233 0.70071 0.73297
 C22 C 0.68133 0.71428 0.73039
 C23 C 0.68414 0.72513 0.71675
 C24 C 0.69768 0.72252 0.70582
 C25 C 0.70863 0.70890 0.70853
 C26 C 0.71688 0.68445 0.72478
 C27 C 0.73052 0.68163 0.71393
 C28 C 0.73309 0.69261 0.70035
 C29 C 0.72227 0.70621 0.69760
 C30 C 0.72487 0.71714 0.68406
 C31 C 0.71401 0.73076 0.68124
 C32 C 0.70042 0.73334 0.69222
 H33 H 0.69034 0.69225 0.74342
 H34 H 0.67577 0.73562 0.71459
 H35 H 0.71472 0.67609 0.73528
 H36 H 0.74355 0.69063 0.69190
 H37 H 0.73538 0.71498 0.67571
 H38 H 0.69196 0.74378 0.69023
 C39 C 0.29329 0.80230 0.72250
 C40 C 0.30687 0.79950 0.73334
 C41 C 0.31784 0.78592 0.73076
 C42 C 0.31504 0.77510 0.71711
 C43 C 0.30154 0.77776 0.70615
 C44 C 0.29061 0.79140 0.70884
 C45 C 0.28237 0.81585 0.72512
 C46 C 0.26872 0.81878 0.71425
 C47 C 0.26622 0.80777 0.70062
 C48 C 0.27702 0.79415 0.69789
 C49 C 0.27443 0.78324 0.68433
 C50 C 0.28526 0.76959 0.68152
 C51 C 0.29880 0.76697 0.69253
 H52 H 0.30885 0.80793 0.74381
 H53 H 0.32339 0.76459 0.71494
 H54 H 0.28461 0.82411 0.73569
 H55 H 0.25583 0.80971 0.69207
 H56 H 0.26395 0.78543 0.67595
 H57 H 0.30725 0.75650 0.69054
 C58 C 0.79406 0.30205 0.22238
 C59 C 0.80765 0.29933 0.23322
 C60 C 0.81868 0.28571 0.23075
 C61 C 0.81580 0.27482 0.21709
 C62 C 0.80228 0.27744 0.20614
 C63 C 0.79136 0.29109 0.20879
 C64 C 0.78313 0.31560 0.22495
 C65 C 0.76950 0.31840 0.21409
 C66 C 0.76693 0.30739 0.20054
 C67 C 0.77774 0.29377 0.19784
 C68 C 0.77512 0.28281 0.18433
 C69 C 0.78597 0.26916 0.18156
 C70 C 0.79953 0.26659 0.19257
 H71 H 0.80955 0.30789 0.24361
 H72 H 0.82408 0.26427 0.21488
 H73 H 0.78529 0.32399 0.23543
 H74 H 0.75648 0.30937 0.19207
 H75 H 0.76464 0.28496 0.17596
 H76 H 0.80797 0.25612 0.19061
 C77 C 0.79412 0.69810 0.27704
 C78 C 0.80773 0.70082 0.26623
 C79 C 0.81875 0.71444 0.26872
 C80 C 0.81584 0.72533 0.28236
 C81 C 0.80229 0.72273 0.29328
 C82 C 0.79139 0.70908 0.29062
 C83 C 0.78320 0.68455 0.27446
 C84 C 0.76955 0.68176 0.28530
 C85 C 0.76695 0.69278 0.29883
 C86 C 0.77774 0.70640 0.30155
 C87 C 0.77510 0.71737 0.31504
 C88 C 0.78592 0.73102 0.31783
 C89 C 0.79951 0.73358 0.30685
 H90 H 0.80966 0.69226 0.25585
 H91 H 0.82411 0.73589 0.28458
 H92 H 0.78539 0.67616 0.26399
 H93 H 0.75649 0.69081 0.30728
 H94 H 0.76459 0.71522 0.32339
 H95 H 0.80794 0.74405 0.30882
 C96 C 0.29411 0.19820 -0.22275
 C97 C 0.30773 0.20092 -0.23355
 C98 C 0.31874 0.21456 -0.23105
 C99 C 0.31579 0.22546 -0.21742
 C100 C 0.30223 0.22284 -0.20651
 C101 C 0.29135 0.20918 -0.20918
 C102 C 0.28321 0.18463 -0.22534
 C103 C 0.26956 0.18183 -0.21451
 C104 C 0.26692 0.19285 -0.20099
 C105 C 0.27769 0.20649 -0.19827
 C106 C 0.27501 0.21746 -0.18479
 C107 C 0.28582 0.23113 -0.18200
 C108 C 0.29941 0.23370 -0.19296
 H109 H 0.30969 0.19236 -0.24392
 H110 H 0.32404 0.23603 -0.21520
 H111 H 0.28542 0.17623 -0.23579
 H112 H 0.25645 0.19087 -0.19255
 H113 H 0.26450 0.21531 -0.17645
 H114 H 0.30783 0.24418 -0.19099
 C115 C 0.70579 0.30179 -0.22263
 C116 C 0.69219 0.29905 -0.23344
 C117 C 0.68118 0.28542 -0.23094
 C118 C 0.68410 0.27454 -0.21729
 C119 C 0.69764 0.27717 -0.20637
 C120 C 0.70853 0.29083 -0.20904
 C121 C 0.71670 0.31535 -0.22522
 C122 C 0.73034 0.31817 -0.21438
 C123 C 0.73296 0.30716 -0.20084
 C124 C 0.72217 0.29353 -0.19811
 C125 C 0.72483 0.28257 -0.18461
 C126 C 0.71401 0.26891 -0.18181
 C127 C 0.70044 0.26633 -0.19279
 H128 H 0.69025 0.30760 -0.24383
 H129 H 0.67585 0.26398 -0.21506
 H130 H 0.71451 0.32373 -0.23569
 H131 H 0.74341 0.30914 -0.19239
 H132 H 0.73533 0.28474 -0.17626
 H133 H 0.69201 0.25585 -0.19081
 C134 C 0.20616 0.80231 0.27718
 C135 C 0.19259 0.79951 0.26633
 C136 C 0.18163 0.78592 0.26890
 C137 C 0.18443 0.77510 0.28255
 C138 C 0.19792 0.77776 0.29352
 C139 C 0.20884 0.79140 0.29083
 C140 C 0.21708 0.81585 0.27456
 C141 C 0.23072 0.81878 0.28545
 C142 C 0.23322 0.80776 0.29907
 C143 C 0.22242 0.79415 0.30180
 C144 C 0.22502 0.78323 0.31535
 C145 C 0.21419 0.76958 0.31815
 C146 C 0.20065 0.76696 0.30714
 H147 H 0.19061 0.80794 0.25585
 H148 H 0.17608 0.76459 0.28471
 H149 H 0.21485 0.82412 0.26400
 H150 H 0.24361 0.80969 0.30763
 H151 H 0.23549 0.78542 0.32374
 H152 H 0.19221 0.75650 0.30912
 C153 C 0.44800 0.45614 0.47256
 C154 C 0.45076 0.44254 0.48338
 C155 C 0.46434 0.43156 0.48080
 C156 C 0.47519 0.43438 0.46717
 C157 C 0.47258 0.44791 0.45623
 C158 C 0.45894 0.45884 0.45893
 C159 C 0.43446 0.46708 0.47517
 C160 C 0.43164 0.48071 0.46431
 C161 C 0.44263 0.48328 0.45074
 C162 C 0.45623 0.47247 0.44799
 C163 C 0.46717 0.47508 0.43446
 C164 C 0.48081 0.46423 0.43165
 C165 C 0.48339 0.45066 0.44263
 H166 H 0.44230 0.44056 0.49383
 H167 H 0.48570 0.42602 0.46501
 H168 H 0.42610 0.46491 0.48567
 H169 H 0.44063 0.49373 0.44228
 H170 H 0.46500 0.48558 0.42610
 H171 H 0.49385 0.44220 0.44064
 C172 C -0.05223 -0.04378 0.97241
 C173 C -0.04948 -0.05739 0.98321
 C174 C -0.03591 -0.06839 0.98062
 C175 C -0.02506 -0.06557 0.96699
 C176 C -0.02768 -0.05203 0.95607
 C177 C -0.04131 -0.04108 0.95878
 C178 C -0.06576 -0.03284 0.97505
 C179 C -0.06865 -0.01916 0.96420
 C180 C -0.05761 -0.01663 0.95060
 C181 C -0.04401 -0.02746 0.94786
 C182 C -0.03307 -0.02484 0.93432
 C183 C -0.01943 -0.03569 0.93150
 C184 C -0.01686 -0.04927 0.94247
 H185 H -0.05793 -0.05939 0.99367
 H186 H -0.01457 -0.07393 0.96481
 H187 H -0.07404 -0.03509 0.98559
 H188 H -0.05951 -0.00622 0.94208
 H189 H -0.03523 -0.01434 0.92597
 H190 H -0.00641 -0.05773 0.94048
 C191 C 1.05185 0.54387 0.97273
 C192 C 1.04908 0.55745 0.98357
 C193 C 1.03546 0.56847 0.98107
 C194 C 1.02460 0.56557 0.96740
 C195 C 1.02726 0.55206 0.95645
 C196 C 1.04092 0.54116 0.95912
 C197 C 1.06542 0.53296 0.97533
 C198 C 1.06833 0.51930 0.96446
 C199 C 1.05728 0.51677 0.95087
 C200 C 1.04365 0.52756 0.94816
 C201 C 1.03271 0.52494 0.93463
 C202 C 1.01905 0.53575 0.93184
 C203 C 1.01644 0.54930 0.94285
 H204 H 1.05761 0.55936 0.99398
 H205 H 1.01404 0.57383 0.96516
 H206 H 1.07371 0.53521 0.98587
 H207 H 1.05921 0.50637 0.94232
 H208 H 1.03490 0.51446 0.92626
 H209 H 1.00596 0.55773 0.94088
 C210 C 0.55203 0.04360 0.47261
 C211 C 0.54927 0.05718 0.48346
 C212 C 0.53568 0.06816 0.48091
 C213 C 0.52482 0.06536 0.46728
 C214 C 0.52745 0.05185 0.45632
 C215 C 0.54110 0.04092 0.45899
 C216 C 0.56558 0.03267 0.47521
 C217 C 0.56848 0.01902 0.46433
 C218 C 0.55743 0.01652 0.45073
 C219 C 0.54382 0.02733 0.44802
 C220 C 0.53287 0.02473 0.43449
 C221 C 0.51921 0.03557 0.43171
 C222 C 0.51663 0.04912 0.44272
 H223 H 0.55772 0.05916 0.49391
 H224 H 0.51432 0.07371 0.46514
 H225 H 0.57387 0.03491 0.48575
 H226 H 0.55935 0.00613 0.44217
 H227 H 0.53504 0.01425 0.42611
 H228 H 0.50616 0.05756 0.44076
 C229 C -0.05229 0.04421 0.52752
 C230 C -0.04955 0.05783 0.51672
 C231 C -0.03597 0.06881 0.51931
 C232 C -0.02511 0.06598 0.53293
 C233 C -0.02772 0.05243 0.54385
 C234 C -0.04135 0.04150 0.54114
 C235 C -0.06582 0.03328 0.52490
 C236 C -0.06862 0.01963 0.53573
 C237 C -0.05764 0.01704 0.54930
 C238 C -0.04404 0.02785 0.55206
 C239 C -0.03309 0.02523 0.56559
 C240 C -0.01946 0.03608 0.56841
 C241 C -0.01690 0.04967 0.55744
 H242 H -0.05801 0.05982 0.50628
 H243 H -0.01462 0.07433 0.53510
 H244 H -0.07418 0.03545 0.51441
 H245 H -0.05962 0.00658 0.55775
 H246 H -0.03525 0.01472 0.57393
 H247 H -0.00645 0.05812 0.55944
 C248 C 0.44772 0.54426 0.02728
 C249 C 0.45047 0.55785 0.01645
 C250 C 0.46411 0.56885 0.01894
 C251 C 0.47498 0.56594 0.03260
 C252 C 0.47234 0.55242 0.04354
 C253 C 0.45867 0.54153 0.04088
 C254 C 0.43415 0.53336 0.02470
 C255 C 0.43132 0.51974 0.03555
 C256 C 0.44232 0.51713 0.04910
 C257 C 0.45596 0.52791 0.05182
 C258 C 0.46691 0.52526 0.06533
 C259 C 0.48058 0.53607 0.06812
 C260 C 0.48317 0.54963 0.05712
 H261 H 0.44192 0.55978 0.00606
 H262 H 0.48555 0.57419 0.03482
 H263 H 0.42577 0.53555 0.01422
 H264 H 0.44032 0.50668 0.05756
 H265 H 0.46473 0.51478 0.07369
 H266 H 0.49366 0.55806 0.05909
 C267 C 0.55200 -0.04405 0.02768
 C268 C 0.54923 -0.05764 0.01685
 C269 C 0.53564 -0.06860 0.01943
 C270 C 0.52479 -0.06578 0.03306
 C271 C 0.52742 -0.05226 0.04400
 C272 C 0.54107 -0.04134 0.04131
 C273 C 0.56554 -0.03313 0.02506
 C274 C 0.56837 -0.01951 0.03592
 C275 C 0.55739 -0.01692 0.04950
 C276 C 0.54378 -0.02772 0.05225
 C277 C 0.53284 -0.02510 0.06578
 C278 C 0.51920 -0.03593 0.06859
 C279 C 0.51661 -0.04950 0.05760
 H280 H 0.55769 -0.05964 0.00640
 H281 H 0.51428 -0.07412 0.03522
 H282 H 0.57389 -0.03530 0.01456
 H283 H 0.55940 -0.00647 0.05796
 H284 H 0.53502 -0.01460 0.07414
 H285 H 0.50615 -0.05794 0.05959
 C286 C 1.05177 0.45601 0.52716
 C287 C 1.04901 0.44244 0.51632
 C288 C 1.03539 0.43142 0.51882
 C289 C 1.02455 0.43430 0.53251
 C290 C 1.02721 0.44780 0.54347
 C291 C 1.04085 0.45871 0.54079
 C292 C 1.06533 0.46693 0.52457
 C293 C 1.06817 0.48054 0.53544
 C294 C 1.05719 0.48311 0.54902
 C295 C 1.04358 0.47231 0.55176
 C296 C 1.03266 0.47492 0.56530
 C297 C 1.01901 0.46409 0.56810
 C298 C 1.01640 0.45055 0.55709
 H299 H 1.05753 0.44054 0.50590
 H300 H 1.01399 0.42603 0.53475
 H301 H 1.07368 0.46478 0.51406
 H302 H 1.05920 0.49354 0.55750
 H303 H 1.03484 0.48539 0.57368
 H304 H 1.00593 0.44211 0.55907
 C305 C 0.40054 0.00755 0.22786
 H306 H 0.40144 0.01875 0.23547
 C307 C 0.41150 0.00520 0.21441
 H308 H 0.42078 0.01473 0.21173
 C309 C 0.38740 -0.01852 0.22239
 H310 H 0.37817 -0.02786 0.22568
 C311 C 0.39809 -0.02138 0.20881
 H312 H 0.39681 -0.03289 0.20173
 N313 N 0.38868 -0.00415 0.23148
 C314 C 0.34871 0.02228 0.25785
 H315 H 0.34777 0.01470 0.26907
 C316 C 0.33779 0.03576 0.25547
 H317 H 0.32852 0.03850 0.26501
 C318 C 0.36185 0.02764 0.23175
 H319 H 0.37106 0.02429 0.22241
 C320 C 0.35121 0.04125 0.22887
 H321 H 0.35251 0.04830 0.21735
 Zn322 Zn 0.37458 -0.00015 0.25017
 N323 N 0.36054 0.01859 0.24615
 C324 C 0.38738 0.01821 0.27797
 N325 N 0.38863 0.00382 0.26889
 C326 C 0.40046 -0.00791 0.27254
 C327 C 0.41140 -0.00557 0.28601
 C328 C 0.39805 0.02105 0.29156
 C329 C 0.34864 -0.02244 0.24241
 C330 C 0.33769 -0.03590 0.24473
 C331 C 0.35109 -0.04155 0.27131
 C332 C 0.36176 -0.02795 0.26849
 N333 N 0.36049 -0.01884 0.25413
 H334 H 0.37818 0.02758 0.27465
 H335 H 0.40136 -0.01912 0.26495
 H336 H 0.42066 -0.01513 0.28871
 H337 H 0.39678 0.03257 0.29862
 H338 H 0.34774 -0.01482 0.23122
 H339 H 0.32841 -0.03857 0.23518
 H340 H 0.35236 -0.04865 0.28280
 H341 H 0.37098 -0.02468 0.27784
 C342 C 0.33899 0.04550 0.24084
 C343 C 0.41033 -0.00941 0.20464
 C344 C 0.33885 -0.04570 0.25932
 C345 C 0.41026 0.00906 0.29576
 C346 C 0.09922 -0.00760 0.72760
 H347 H 0.09830 -0.01881 0.73519
 C348 C 0.08826 -0.00524 0.71415
 H349 H 0.07898 -0.01477 0.71145
 C350 C 0.11235 0.01848 0.72215
 H351 H 0.12158 0.02782 0.72545
 C352 C 0.10167 0.02135 0.70857
 H353 H 0.10295 0.03286 0.70150
 N354 N 0.11107 0.00410 0.73123
 C355 C 0.15106 -0.02229 0.75760
 H356 H 0.15201 -0.01468 0.76879
 C357 C 0.16199 -0.03578 0.75525
 H358 H 0.17127 -0.03848 0.76477
 C359 C 0.13787 -0.02775 0.73155
 H360 H 0.12864 -0.02445 0.72222
 C361 C 0.14851 -0.04137 0.72870
 H362 H 0.14719 -0.04847 0.71720
 Zn363 Zn 0.12516 0.00008 0.74992
 N364 N 0.13920 -0.01865 0.74591
 C365 C 0.11236 -0.01827 0.77771
 N366 N 0.11110 -0.00389 0.76864
 C367 C 0.09928 0.00785 0.77229
 C368 C 0.08834 0.00551 0.78576
 C369 C 0.10169 -0.02111 0.79130
 C370 C 0.15108 0.02241 0.74216
 C371 C 0.16204 0.03586 0.74450
 C372 C 0.14870 0.04142 0.77112
 C373 C 0.13801 0.02784 0.76828
 N374 N 0.13926 0.01877 0.75390
 H375 H 0.12156 -0.02764 0.77439
 H376 H 0.09838 0.01906 0.76471
 H377 H 0.07908 0.01507 0.78847
 H378 H 0.10295 -0.03264 0.79837
 H379 H 0.15197 0.01482 0.73095
 H380 H 0.17129 0.03856 0.73494
 H381 H 0.14744 0.04849 0.78265
 H382 H 0.12881 0.02454 0.77765
 C383 C 0.16076 -0.04557 0.74065
 C384 C 0.08943 0.00939 0.70439
 C385 C 0.16090 0.04562 0.75913
 C386 C 0.08948 -0.00912 0.79551
 C387 C 0.59911 0.49241 0.22742
 H388 H 0.59822 0.48119 0.23499
 C389 C 0.58817 0.49477 0.21396
 H390 H 0.57892 0.48522 0.21124
 C391 C 0.61219 0.51853 0.22203
 H392 H 0.62139 0.52789 0.22536
 C393 C 0.60152 0.52139 0.20845
 H394 H 0.60279 0.53292 0.20139
 N395 N 0.61094 0.50413 0.23109
 C396 C 0.65092 0.47776 0.25748
 H397 H 0.65183 0.48534 0.26869
 C398 C 0.66187 0.46430 0.25512
 H399 H 0.67114 0.46159 0.26467
 C400 C 0.63782 0.47235 0.23137
 H401 H 0.62862 0.47567 0.22202
 C402 C 0.64850 0.45876 0.22851
 H403 H 0.64723 0.45170 0.21699
 Zn404 Zn 0.62502 0.50012 0.24978
 N405 N 0.63909 0.48141 0.24576
 C406 C 0.61224 0.48171 0.27754
 N407 N 0.61097 0.49612 0.26850
 C408 C 0.59916 0.50785 0.27219
 C409 C 0.58824 0.50549 0.28568
 C410 C 0.60159 0.47886 0.29115
 C411 C 0.65092 0.52246 0.24202
 C412 C 0.66187 0.53592 0.24436
 C413 C 0.64855 0.54147 0.27099
 C414 C 0.63786 0.52789 0.26815
 N415 N 0.63910 0.51882 0.25376
 H416 H 0.62143 0.47235 0.27420
 H417 H 0.59825 0.51907 0.26463
 H418 H 0.57899 0.51505 0.28842
 H419 H 0.60287 0.46732 0.29820
 H420 H 0.65180 0.51488 0.23081
 H421 H 0.67112 0.53862 0.23479
 H422 H 0.64730 0.54853 0.28252
 H423 H 0.62867 0.52458 0.27752
 C424 C 0.66072 0.45455 0.24049
 C425 C 0.58932 0.50941 0.20422
 C426 C 0.66075 0.54567 0.25899
 C427 C 0.58940 0.49085 0.29540
 C428 C 0.90074 0.50752 0.72767
 H429 H 0.90165 0.51874 0.73525
 C430 C 0.91168 0.50516 0.71421
 H431 H 0.92094 0.51470 0.71149
 C432 C 0.88764 0.48141 0.72228
 H433 H 0.87843 0.47207 0.72560
 C434 C 0.89830 0.47855 0.70869
 H435 H 0.89703 0.46702 0.70163
 N436 N 0.88891 0.49581 0.73134
 C437 C 0.86205 0.52761 0.73158
 H438 H 0.87126 0.52426 0.72223
 C439 C 0.85140 0.54121 0.72870
 H440 H 0.85269 0.54825 0.71717
 C441 C 0.84893 0.52225 0.75769
 H442 H 0.84801 0.51468 0.76891
 C443 C 0.83800 0.53573 0.75531
 H444 H 0.82874 0.53846 0.76485
 Zn445 Zn 0.87481 0.49984 0.75002
 N446 N 0.86077 0.51856 0.74598
 C447 C 0.88760 0.51826 0.77778
 N448 N 0.88886 0.50385 0.76874
 C449 C 0.90066 0.49211 0.77244
 C450 C 0.91159 0.49447 0.78592
 C451 C 0.89824 0.52111 0.79139
 C452 C 0.84891 0.47751 0.74227
 C453 C 0.83795 0.46406 0.74461
 C454 C 0.85126 0.45852 0.77125
 C455 C 0.86195 0.47210 0.76841
 N456 N 0.86072 0.48116 0.75401
 H457 H 0.87841 0.52762 0.77443
 H458 H 0.90157 0.48089 0.76488
 H459 H 0.92083 0.48491 0.78867
 H460 H 0.89697 0.53265 0.79843
 H461 H 0.84803 0.48509 0.73105
 H462 H 0.82870 0.46135 0.73505
 H463 H 0.85250 0.45147 0.78278
 H464 H 0.87114 0.47542 0.77778
 C465 C 0.83919 0.54545 0.74067
 C466 C 0.91052 0.49053 0.70446
 C467 C 0.83907 0.45432 0.75925
 C468 C 0.91043 0.50912 0.79564
 C469 C 0.22718 0.40137 0.00746
 H470 H 0.23480 0.40228 0.01864
 C471 C 0.21371 0.41232 0.00515
 H472 H 0.21102 0.42158 0.01470
 C473 C 0.22168 0.38826 -0.01863
 H474 H 0.22497 0.37906 -0.02799
 C475 C 0.20807 0.39893 -0.02143
 H476 H 0.20097 0.39765 -0.03293
 N477 N 0.23080 0.38954 -0.00427
 C478 C 0.25729 0.34953 0.02197
 H479 H 0.26850 0.34864 0.01437
 C480 C 0.25496 0.33856 0.03541
 H481 H 0.26452 0.32930 0.03810
 C482 C 0.23118 0.36261 0.02744
 H483 H 0.22181 0.37182 0.02415
 C484 C 0.22834 0.35191 0.04101
 H485 H 0.21683 0.35317 0.04809
 Zn486 Zn 0.24953 0.37548 -0.00032
 N487 N 0.24556 0.36136 0.01835
 C488 C 0.27730 0.38826 0.01808
 N489 N 0.26822 0.38955 0.00370
 C490 C 0.27186 0.40141 -0.00799
 C491 C 0.28532 0.41235 -0.00562
 C492 C 0.29088 0.39893 0.02096
 C493 C 0.24184 0.34962 -0.02275
 C494 C 0.24421 0.33871 -0.03623
 C495 C 0.27081 0.35212 -0.04174
 C496 C 0.26793 0.36276 -0.02813
 N497 N 0.25354 0.36146 -0.01907
 H498 H 0.27399 0.37903 0.02742
 H499 H 0.26427 0.40234 -0.01920
 H500 H 0.28802 0.42164 -0.01515
 H501 H 0.29795 0.39763 0.03247
 H502 H 0.23063 0.34868 -0.01516
 H503 H 0.23468 0.32944 -0.03896
 H504 H 0.28233 0.35343 -0.04880
 H505 H 0.27727 0.37197 -0.02479
 C506 C 0.24034 0.33969 0.04518
 C507 C 0.20390 0.41115 -0.00945
 C508 C 0.25884 0.33990 -0.04598
 C509 C 0.29508 0.41117 0.00900
 C510 C 0.72787 0.09873 -0.00773
 H511 H 0.73545 0.09782 -0.01895
 C512 C 0.71440 0.08780 -0.00536
 H513 H 0.71168 0.07854 -0.01490
 C514 C 0.72249 0.11186 0.01837
 H515 H 0.72582 0.12107 0.02771
 C516 C 0.70889 0.10120 0.02125
 H517 H 0.70184 0.10249 0.03278
 N518 N 0.73154 0.11057 0.00397
 C519 C 0.73180 0.13740 -0.02783
 H520 H 0.72246 0.12819 -0.02449
 C521 C 0.72891 0.14805 -0.04143
 H522 H 0.71738 0.14676 -0.04848
 C523 C 0.75790 0.15054 -0.02246
 H524 H 0.76912 0.15147 -0.01489
 C525 C 0.75552 0.16146 -0.03594
 H526 H 0.76505 0.17073 -0.03867
 Zn527 Zn 0.75024 0.12465 -0.00007
 N528 N 0.74620 0.13870 -0.01878
 C529 C 0.77805 0.11189 -0.01844
 N530 N 0.76895 0.11059 -0.00407
 C531 C 0.77260 0.09873 0.00763
 C532 C 0.78607 0.08780 0.00527
 C533 C 0.79166 0.10123 -0.02129
 C534 C 0.74252 0.15056 0.02228
 C535 C 0.74487 0.16151 0.03574
 C536 C 0.77149 0.14813 0.04128
 C537 C 0.76863 0.13746 0.02769
 N538 N 0.75424 0.13873 0.01862
 H539 H 0.77474 0.12111 -0.02778
 H540 H 0.76499 0.09781 0.01883
 H541 H 0.78877 0.07852 0.01481
 H542 H 0.79874 0.10253 -0.03280
 H543 H 0.73131 0.15147 0.01469
 H544 H 0.73532 0.17077 0.03845
 H545 H 0.78301 0.14685 0.04835
 H546 H 0.77799 0.12825 0.02438
 C547 C 0.74088 0.16027 -0.04567
 C548 C 0.70466 0.08898 0.00928
 C549 C 0.75950 0.16035 0.04549
 C550 C 0.79585 0.08899 -0.00933
 C551 C 0.22745 0.59919 0.49206
 H552 H 0.23505 0.59830 0.48086
 C553 C 0.21400 0.58823 0.49439
 H554 H 0.21130 0.57898 0.48483
 C555 C 0.22201 0.61225 0.51818
 H556 H 0.22531 0.62145 0.52755
 C557 C 0.20842 0.60157 0.52102
 H558 H 0.20135 0.60282 0.53254
 N559 N 0.23109 0.61101 0.50380
 C560 C 0.23144 0.63790 0.47204
 H561 H 0.22208 0.62870 0.47534
 C562 C 0.22860 0.64857 0.45845
 H563 H 0.21709 0.64731 0.45137
 C564 C 0.25755 0.65098 0.47749
 H565 H 0.26875 0.65187 0.48509
 C566 C 0.25522 0.66193 0.46403
 H567 H 0.26477 0.67119 0.46133
 Zn568 Zn 0.24979 0.62509 0.49983
 N569 N 0.24582 0.63915 0.48112
 C570 C 0.27760 0.61228 0.48149
 N571 N 0.26852 0.61103 0.49587
 C572 C 0.27217 0.59921 0.50761
 C573 C 0.28565 0.58828 0.50529
 C574 C 0.29121 0.60162 0.47867
 C575 C 0.24200 0.65097 0.52218
 C576 C 0.24431 0.66193 0.53564
 C577 C 0.27095 0.64860 0.54121
 C578 C 0.26813 0.63792 0.52763
 N579 N 0.25374 0.63916 0.51854
 H580 H 0.27429 0.62147 0.47212
 H581 H 0.26457 0.59832 0.51881
 H582 H 0.28836 0.57903 0.51485
 H583 H 0.29829 0.60288 0.46715
 H584 H 0.23079 0.65186 0.51458
 H585 H 0.23474 0.67117 0.53834
 H586 H 0.28247 0.64735 0.54829
 H587 H 0.27750 0.62873 0.52432
 C588 C 0.24060 0.66078 0.45426
 C589 C 0.20423 0.58937 0.50902
 C590 C 0.25894 0.66080 0.54540
 C591 C 0.29542 0.58942 0.49067
 C592 C 0.72737 0.90117 0.50734
 H593 H 0.73498 0.90208 0.51853
 C594 C 0.71389 0.91211 0.50501
 H595 H 0.71120 0.92137 0.51456
 C596 C 0.72189 0.88805 0.48126
 H597 H 0.72519 0.87884 0.47190
 C598 C 0.70828 0.89870 0.47843
 H599 H 0.70119 0.89742 0.46693
 N600 N 0.73100 0.88933 0.49562
 C601 C 0.75745 0.84933 0.52192
 H602 H 0.76866 0.84844 0.51433
 C603 C 0.75510 0.83837 0.53537
 H604 H 0.76465 0.82911 0.53807
 C605 C 0.73133 0.86242 0.52734
 H606 H 0.72197 0.87163 0.52404
 C607 C 0.72848 0.85174 0.54092
 H608 H 0.71695 0.85300 0.54799
 Zn609 Zn 0.74972 0.87527 0.49960
 N610 N 0.74572 0.86116 0.51827
 C611 C 0.77747 0.88805 0.51803
 N612 N 0.76841 0.88934 0.50364
 C613 C 0.77207 0.90119 0.49194
 C614 C 0.78553 0.91213 0.49433
 C615 C 0.79105 0.89871 0.52092
 C616 C 0.74205 0.84940 0.47717
 C617 C 0.74443 0.83849 0.46369
 C618 C 0.77103 0.85191 0.45820
 C619 C 0.76815 0.86254 0.47181
 N620 N 0.75375 0.86124 0.48086
 H621 H 0.77415 0.87882 0.52737
 H622 H 0.76450 0.90212 0.48073
 H623 H 0.78825 0.92141 0.48480
 H624 H 0.79811 0.89742 0.53244
 H625 H 0.73083 0.84847 0.48475
 H626 H 0.73489 0.82923 0.46095
 H627 H 0.78256 0.85321 0.45115
 H628 H 0.77749 0.87175 0.47516
 C629 C 0.74047 0.83952 0.54512
 C630 C 0.70410 0.91093 0.49041
 C631 C 0.75907 0.83969 0.45395
 C632 C 0.79527 0.91095 0.50896
 C633 C 0.00735 0.22821 0.40081
 H634 H 0.01854 0.23582 0.40172
 C635 C 0.00501 0.21476 0.41176
 H636 H 0.01456 0.21207 0.42104
 C637 C -0.01873 0.22273 0.38769
 H638 H -0.02808 0.22602 0.37846
 C639 C -0.02157 0.20915 0.39836
 H640 H -0.03308 0.20206 0.39708
 N641 N -0.00437 0.23183 0.38896
 C642 C 0.02195 0.25821 0.34894
 H643 H 0.01434 0.26941 0.34801
 C644 C 0.03542 0.25585 0.33800
 H645 H 0.03811 0.26537 0.32871
 C646 C 0.02741 0.23215 0.36211
 H647 H 0.02411 0.22281 0.37134
 C648 C 0.04100 0.22928 0.35144
 H649 H 0.04809 0.21777 0.35275
 Zn650 Zn -0.00040 0.25052 0.37487
 N651 N 0.01832 0.24652 0.36080
 C652 C 0.01792 0.27838 0.38758
 N653 N 0.00357 0.26926 0.38890
 C654 C -0.00812 0.27288 0.40077
 C655 C -0.00578 0.28635 0.41171
 C656 C 0.02076 0.29199 0.39823
 C657 C -0.02269 0.24275 0.34894
 C658 C -0.03615 0.24506 0.33798
 C659 C -0.04186 0.27160 0.35141
 C660 C -0.02827 0.26880 0.36209
 N661 N -0.01911 0.25446 0.36080
 H662 H 0.02726 0.27509 0.37834
 H663 H -0.01930 0.26525 0.40172
 H664 H -0.01530 0.28903 0.42100
 H665 H 0.03225 0.29909 0.39691
 H666 H -0.01504 0.23158 0.34802
 H667 H -0.03880 0.23551 0.32869
 H668 H -0.04900 0.28308 0.35270
 H669 H -0.02501 0.27814 0.37132
 C670 C 0.04519 0.24124 0.33920
 C671 C -0.00959 0.20497 0.41060
 C672 C -0.04599 0.25963 0.33916
 C673 C 0.00881 0.29615 0.41049
 C674 C -0.00792 0.72728 0.09885
 H675 H -0.01911 0.73490 0.09791
 C676 C -0.00558 0.71380 0.08793
 H677 H -0.01512 0.71110 0.07865
 C678 C 0.01814 0.72180 0.11202
 H679 H 0.02748 0.72510 0.12124
 C680 C 0.02098 0.70818 0.10138
 H681 H 0.03248 0.70108 0.10270
 N682 N 0.00378 0.73091 0.11070
 C683 C -0.02248 0.75740 0.15070
 H684 H -0.01485 0.76858 0.15162
 C685 C -0.03594 0.75508 0.16167
 H686 H -0.03860 0.76462 0.17095
 C687 C -0.02802 0.73135 0.13756
 H688 H -0.02476 0.72200 0.12832
 C689 C -0.04161 0.72853 0.14824
 H690 H -0.04873 0.71704 0.14695
 Zn691 Zn -0.00020 0.74965 0.12474
 N692 N -0.01889 0.74569 0.13884
 C693 C -0.01859 0.77743 0.11196
 N694 N -0.00422 0.76834 0.11065
 C695 C 0.00747 0.77197 0.09879
 C696 C 0.00512 0.78543 0.08785
 C697 C -0.02145 0.79103 0.10130
 C698 C 0.02221 0.74200 0.15063
 C699 C 0.03570 0.74438 0.16154
 C700 C 0.04121 0.77095 0.14808
 C701 C 0.02760 0.76806 0.13745
 N702 N 0.01853 0.75368 0.13877
 H703 H -0.02792 0.77414 0.12120
 H704 H 0.01867 0.76436 0.09785
 H705 H 0.01465 0.78813 0.07856
 H706 H -0.03296 0.79812 0.10261
 H707 H 0.01463 0.73079 0.15159
 H708 H 0.03843 0.73486 0.17083
 H709 H 0.04827 0.78247 0.14675
 H710 H 0.02426 0.77739 0.12822
 C711 C -0.04575 0.74050 0.16049
 C712 C 0.00901 0.70399 0.08914
 C713 C 0.04545 0.75900 0.16032
 C714 C -0.00949 0.79522 0.08905
 C715 C 0.49229 0.22756 0.59941
 H716 H 0.48110 0.23518 0.59848
 C717 C 0.49463 0.21408 0.58848
 H718 H 0.48509 0.21140 0.57920
 C719 C 0.51837 0.22207 0.61256
 H720 H 0.52771 0.22537 0.62178
 C721 C 0.52121 0.20847 0.60190
 H722 H 0.53271 0.20137 0.60320
 N723 N 0.50400 0.23118 0.61126
 C724 C 0.47769 0.25765 0.65124
 H725 H 0.48532 0.26883 0.65217
 C726 C 0.46421 0.25533 0.66218
 H727 H 0.46153 0.26487 0.67146
 C728 C 0.47218 0.23160 0.63808
 H729 H 0.47547 0.22225 0.62885
 C730 C 0.45857 0.22878 0.64873
 H731 H 0.45146 0.21729 0.64742
 Zn732 Zn 0.50003 0.24991 0.62532
 N733 N 0.48131 0.24595 0.63938
 C734 C 0.48169 0.27772 0.61252
 N735 N 0.49606 0.26861 0.61124
 C736 C 0.50777 0.27223 0.59939
 C737 C 0.50543 0.28569 0.58844
 C738 C 0.47885 0.29131 0.60185
 C739 C 0.52235 0.24219 0.65125
 C740 C 0.53583 0.24452 0.66219
 C741 C 0.54148 0.27106 0.64872
 C742 C 0.52787 0.26822 0.63806
 N743 N 0.51875 0.25388 0.63938
 H744 H 0.47234 0.27443 0.62174
 H745 H 0.51897 0.26462 0.59847
 H746 H 0.51498 0.28837 0.57916
 H747 H 0.46734 0.29840 0.60313
 H748 H 0.51473 0.23101 0.65220
 H749 H 0.53850 0.23500 0.67149
 H750 H 0.54859 0.28254 0.64740
 H751 H 0.52459 0.27756 0.62882
 C752 C 0.45440 0.24075 0.66097
 C753 C 0.50923 0.20429 0.58967
 C754 C 0.54564 0.25910 0.66098
 C755 C 0.49082 0.29548 0.58961
 C756 C 0.50742 0.72743 0.90086
 H757 H 0.51862 0.73504 0.90177
 C758 C 0.50509 0.71397 0.91180
 H759 H 0.51464 0.71128 0.92107
 C760 C 0.48133 0.72196 0.88774
 H761 H 0.47198 0.72526 0.87853
 C762 C 0.47851 0.70836 0.89840
 H763 H 0.46700 0.70127 0.89712
 N764 N 0.49570 0.73106 0.88902
 C765 C 0.52197 0.75754 0.84904
 H766 H 0.51437 0.76875 0.84815
 C767 C 0.53543 0.75521 0.83807
 H768 H 0.53811 0.76477 0.82882
 C769 C 0.52744 0.73143 0.86211
 H770 H 0.52415 0.72207 0.87132
 C771 C 0.54102 0.72860 0.85142
 H772 H 0.54810 0.71708 0.85268
 Zn773 Zn 0.49966 0.74979 0.87497
 N774 N 0.51835 0.74581 0.86087
 C775 C 0.51807 0.77754 0.88777
 N776 N 0.50368 0.76848 0.88905
 C777 C 0.49198 0.77212 0.90090
 C778 C 0.49434 0.78558 0.91185
 C779 C 0.52093 0.79113 0.89844
 C780 C 0.47725 0.74210 0.84910
 C781 C 0.46377 0.74447 0.83819
 C782 C 0.45825 0.77106 0.85161
 C783 C 0.47186 0.76819 0.86224
 N784 N 0.48093 0.75380 0.86094
 H785 H 0.52741 0.77423 0.87855
 H786 H 0.48077 0.76454 0.90182
 H787 H 0.48480 0.78828 0.92113
 H788 H 0.53245 0.79819 0.89715
 H789 H 0.48484 0.73089 0.84816
 H790 H 0.46104 0.73493 0.82892
 H791 H 0.45118 0.78258 0.85291
 H792 H 0.47519 0.77753 0.87145
 C793 C 0.54520 0.74059 0.83921
 C794 C 0.49049 0.70418 0.91063
 C795 C 0.45401 0.75910 0.83938
 C796 C 0.50897 0.79533 0.91068
 C797 C 0.14064 0.22255 0.26300
 N798 N 0.14384 0.23340 0.25029
 N799 N 0.15673 0.23084 0.23998
 C800 C 0.16694 0.21734 0.24196
 N801 N 0.16370 0.20651 0.25471
 N802 N 0.15080 0.20905 0.26502
 C803 C 0.12642 0.22536 0.27437
 N804 N 0.12302 0.21431 0.28687
 N805 N 0.11011 0.21684 0.29717
 C806 C 0.10014 0.23052 0.29536
 N807 N 0.10354 0.24158 0.28286
 N808 N 0.11644 0.23903 0.27255
 C809 C 0.08591 0.23331 0.30672
 N810 N 0.07612 0.24714 0.30512
 N811 N 0.06321 0.24966 0.31543
 C812 C 0.05957 0.23844 0.32773
 N813 N 0.06939 0.22460 0.32928
 N814 N 0.08231 0.22208 0.31899
 C815 C 0.64064 0.72222 0.76293
 N816 N 0.65082 0.70873 0.76492
 N817 N 0.66372 0.70622 0.75461
 C818 C 0.66696 0.71709 0.74189
 N819 N 0.65673 0.73058 0.73993
 N820 N 0.64383 0.73310 0.75025
 C821 C 0.62641 0.72498 0.77430
 N822 N 0.61642 0.73865 0.77252
 N823 N 0.60351 0.74114 0.78284
 C824 C 0.60013 0.73005 0.79531
 N825 N 0.61012 0.71638 0.79708
 N826 N 0.62303 0.71389 0.78677
 C827 C 0.58590 0.73279 0.80668
 N828 N 0.58231 0.72153 0.81892
 N829 N 0.56940 0.72400 0.82923
 C830 C 0.55956 0.73784 0.82772
 N831 N 0.56320 0.74910 0.81546
 N832 N 0.57610 0.74663 0.80513
 C833 C 0.35848 0.77781 0.76333
 N834 N 0.35527 0.76696 0.75062
 N835 N 0.34239 0.76953 0.74030
 C836 C 0.33218 0.78305 0.74227
 N837 N 0.33544 0.79388 0.75502
 N838 N 0.34833 0.79132 0.76534
 C839 C 0.37270 0.77500 0.77469
 N840 N 0.37612 0.78605 0.78718
 N841 N 0.38904 0.78351 0.79746
 C842 C 0.39900 0.76982 0.79565
 N843 N 0.39558 0.75877 0.78316
 N844 N 0.38267 0.76131 0.77287
 C845 C 0.41325 0.76703 0.80698
 N846 N 0.42301 0.75319 0.80538
 N847 N 0.43594 0.75067 0.81567
 C848 C 0.43962 0.76189 0.82795
 N849 N 0.42981 0.77574 0.82951
 N850 N 0.41688 0.77826 0.81924
 C851 C -0.14137 0.27792 0.26280
 N852 N -0.14424 0.26731 0.24982
 N853 N -0.15712 0.26983 0.23948
 C854 C -0.16769 0.28304 0.24169
 N855 N -0.16474 0.29362 0.25475
 N856 N -0.15185 0.29112 0.26508
 C857 C -0.12716 0.27516 0.27420
 N858 N -0.12403 0.28604 0.28691
 N859 N -0.11113 0.28356 0.29723
 C860 C -0.10090 0.27010 0.29523
 N861 N -0.10403 0.25922 0.28253
 N862 N -0.11692 0.26171 0.27219
 C863 C -0.08668 0.26738 0.30662
 N864 N -0.07670 0.25370 0.30490
 N865 N -0.06380 0.25123 0.31523
 C866 C -0.06035 0.26236 0.32767
 N867 N -0.07037 0.27605 0.32935
 N868 N -0.08328 0.27851 0.31903
 C869 C -0.14123 0.72221 0.23673
 N870 N -0.14413 0.73283 0.24971
 N871 N -0.15703 0.73031 0.26002
 C872 C -0.16759 0.71710 0.25780
 N873 N -0.16461 0.70651 0.24475
 N874 N -0.15170 0.70901 0.23445
 C875 C -0.12700 0.72496 0.22537
 N876 N -0.12384 0.71408 0.21266
 N877 N -0.11093 0.71655 0.20236
 C878 C -0.10070 0.73001 0.20437
 N879 N -0.10387 0.74091 0.21707
 N880 N -0.11677 0.73842 0.22738
 C881 C -0.08647 0.73274 0.19300
 N882 N -0.07651 0.74643 0.19472
 N883 N -0.06360 0.74889 0.18440
 C884 C -0.06012 0.73776 0.17197
 N885 N -0.07013 0.72407 0.17029
 N886 N -0.08305 0.72161 0.18059
 C887 C 0.35879 0.22237 0.73702
 N888 N 0.35585 0.23299 0.74999
 N889 N 0.34294 0.23046 0.76028
 C890 C 0.33240 0.21723 0.75805
 N891 N 0.33542 0.20665 0.74501
 N892 N 0.34834 0.20915 0.73473
 C893 C 0.37304 0.22514 0.72568
 N894 N 0.37623 0.21425 0.71299
 N895 N 0.38917 0.21674 0.70271
 C896 C 0.39937 0.23022 0.70474
 N897 N 0.39617 0.24111 0.71742
 N898 N 0.38324 0.23861 0.72772
 C899 C 0.41362 0.23296 0.69340
 N900 N 0.42357 0.24665 0.69514
 N901 N 0.43650 0.24913 0.68485
 C902 C 0.44001 0.23800 0.67242
 N903 N 0.43002 0.22430 0.67073
 N904 N 0.41708 0.22183 0.68100
 C905 C 0.64117 0.27757 0.73710
 N906 N 0.64409 0.26697 0.75008
 N907 N 0.65698 0.26951 0.76039
 C908 C 0.66753 0.28273 0.75815
 N909 N 0.66453 0.29330 0.74509
 N910 N 0.65163 0.29078 0.73479
 C911 C 0.62694 0.27479 0.72574
 N912 N 0.62376 0.28566 0.71303
 N913 N 0.61084 0.28315 0.70274
 C914 C 0.60063 0.26968 0.70477
 N915 N 0.60381 0.25881 0.71748
 N916 N 0.61672 0.26133 0.72779
 C917 C 0.58639 0.26693 0.69343
 N918 N 0.57643 0.25324 0.69518
 N919 N 0.56352 0.25075 0.68488
 C920 C 0.56002 0.26186 0.67244
 N921 N 0.57001 0.27556 0.67073
 N922 N 0.58294 0.27804 0.68101
 C923 C 0.14100 0.77781 0.23633
 N924 N 0.15114 0.79132 0.23431
 N925 N 0.16403 0.79388 0.24462
 C926 C 0.16729 0.78305 0.25738
 N927 N 0.15709 0.76954 0.25936
 N928 N 0.14421 0.76696 0.24904
 C929 C 0.12677 0.77499 0.22497
 N930 N 0.11682 0.76130 0.22681
 N931 N 0.10391 0.75874 0.21652
 C932 C 0.10047 0.76979 0.20402
 N933 N 0.11043 0.78348 0.20219
 N934 N 0.12335 0.78602 0.21247
 C935 C 0.08622 0.76698 0.19269
 N936 N 0.08258 0.77820 0.18043
 N937 N 0.06964 0.77567 0.17016
 C938 C 0.05984 0.76182 0.17175
 N939 N 0.06354 0.75061 0.18404
 N940 N 0.07646 0.75314 0.19432
 C941 C 0.26296 0.14107 0.22208
 N942 N 0.26497 0.15121 0.20857
 N943 N 0.25467 0.16411 0.20602
 C944 C 0.24194 0.16740 0.21687
 N945 N 0.23997 0.15721 0.23039
 N946 N 0.25027 0.14431 0.23295
 C947 C 0.27431 0.12683 0.22490
 N948 N 0.27249 0.11689 0.23859
 N949 N 0.28278 0.10397 0.24114
 C950 C 0.29526 0.10052 0.23008
 N951 N 0.29707 0.11046 0.21638
 N952 N 0.28679 0.12339 0.21384
 C953 C 0.30659 0.08627 0.23288
 N954 N 0.31884 0.08262 0.22164
 N955 N 0.32911 0.06968 0.22417
 C956 C 0.32755 0.05989 0.23803
 N957 N 0.31527 0.06360 0.24926
 N958 N 0.30499 0.07652 0.24673
 C959 C 0.76308 0.64097 0.72197
 N960 N 0.76508 0.65112 0.70846
 N961 N 0.75476 0.66402 0.70592
 C962 C 0.74203 0.66728 0.71677
 N963 N 0.74007 0.65707 0.73028
 N964 N 0.75038 0.64418 0.73284
 C965 C 0.77444 0.62674 0.72477
 N966 N 0.77263 0.61679 0.73846
 N967 N 0.78293 0.60388 0.74100
 C968 C 0.79541 0.60044 0.72993
 N969 N 0.79721 0.61040 0.71624
 N970 N 0.78692 0.62332 0.71371
 C971 C 0.80675 0.58620 0.73272
 N972 N 0.81900 0.58256 0.72148
 N973 N 0.82928 0.56963 0.72400
 C974 C 0.82774 0.55984 0.73787
 N975 N 0.81546 0.56353 0.74910
 N976 N 0.80517 0.57645 0.74658
 C977 C 0.76283 0.35889 0.77768
 N978 N 0.75015 0.35569 0.76680
 N979 N 0.73985 0.34278 0.76932
 C980 C 0.74182 0.33255 0.78281
 N981 N 0.75454 0.33580 0.79368
 N982 N 0.76484 0.34871 0.79117
 C983 C 0.77419 0.37312 0.77492
 N984 N 0.78666 0.37651 0.78600
 N985 N 0.79696 0.38943 0.78351
 C986 C 0.79518 0.39940 0.76983
 N987 N 0.78272 0.39600 0.75874
 N988 N 0.77241 0.38310 0.76125
 C989 C 0.80655 0.41363 0.76708
 N990 N 0.80500 0.42341 0.75324
 N991 N 0.81532 0.43631 0.75075
 C992 C 0.82758 0.43996 0.76201
 N993 N 0.82908 0.43014 0.77586
 N994 N 0.81878 0.41723 0.77835
 C995 C 0.26267 -0.14120 0.27765
 N996 N 0.24970 -0.14411 0.26704
 N997 N 0.23939 -0.15701 0.26956
 C998 C 0.24163 -0.16757 0.28278
 N999 N 0.25467 -0.16458 0.29336
 N1000 N 0.26497 -0.15167 0.29086
 C1001 C 0.27403 -0.12697 0.27489
 N1002 N 0.28673 -0.12380 0.28578
 N1003 N 0.29702 -0.11088 0.28330
 C1004 C 0.29501 -0.10066 0.26983
 N1005 N 0.28231 -0.10384 0.25893
 N1006 N 0.27201 -0.11675 0.26143
 C1007 C 0.30636 -0.08642 0.26710
 N1008 N 0.30464 -0.07647 0.25340
 N1009 N 0.31496 -0.06356 0.25093
 C1010 C 0.32738 -0.06008 0.26206
 N1011 N 0.32906 -0.07007 0.27577
 N1012 N 0.31876 -0.08299 0.27823
 C1013 C 0.23679 -0.14118 0.72211
 N1014 N 0.23447 -0.15164 0.70889
 N1015 N 0.24476 -0.16456 0.70637
 C1016 C 0.25782 -0.16756 0.71693
 N1017 N 0.26007 -0.15702 0.73016
 N1018 N 0.24977 -0.14411 0.73270
 C1019 C 0.22544 -0.12694 0.72489
 N1020 N 0.22749 -0.11674 0.73836
 N1021 N 0.21720 -0.10382 0.74088
 C1022 C 0.20450 -0.10061 0.73001
 N1023 N 0.20245 -0.11081 0.71654
 N1024 N 0.21273 -0.12374 0.71403
 C1025 C 0.19316 -0.08635 0.73278
 N1026 N 0.18075 -0.08288 0.72167
 N1027 N 0.17048 -0.06994 0.72417
 C1028 C 0.17220 -0.05997 0.73788
 N1029 N 0.18464 -0.06349 0.74898
 N1030 N 0.19493 -0.07642 0.74648
 C1031 C 0.73696 0.35910 0.22200
 N1032 N 0.73497 0.34892 0.20851
 N1033 N 0.74528 0.33601 0.20601
 C1034 C 0.75801 0.33278 0.21688
 N1035 N 0.75996 0.34301 0.23037
 N1036 N 0.74964 0.35591 0.23288
 C1037 C 0.72559 0.37333 0.22476
 N1038 N 0.72738 0.38331 0.23843
 N1039 N 0.71706 0.39621 0.24094
 C1040 C 0.70459 0.39961 0.22986
 N1041 N 0.70280 0.38963 0.21619
 N1042 N 0.71311 0.37672 0.21368
 C1043 C 0.69322 0.41384 0.23262
 N1044 N 0.68097 0.41745 0.22137
 N1045 N 0.67067 0.43036 0.22387
 C1046 C 0.67219 0.44018 0.23772
 N1047 N 0.68447 0.43652 0.24896
 N1048 N 0.69478 0.42362 0.24646
 C1049 C 0.73703 0.64106 0.27738
 N1050 N 0.74972 0.64425 0.26650
 N1051 N 0.76003 0.65714 0.26902
 C1052 C 0.75807 0.66738 0.28250
 N1053 N 0.74533 0.66416 0.29336
 N1054 N 0.73502 0.65125 0.29086
 C1055 C 0.72566 0.62684 0.27463
 N1056 N 0.71318 0.62346 0.28571
 N1057 N 0.70287 0.61056 0.28322
 C1058 C 0.70465 0.60057 0.26955
 N1059 N 0.71712 0.60395 0.25846
 N1060 N 0.72744 0.61685 0.26096
 C1061 C 0.69327 0.58635 0.26680
 N1062 N 0.69482 0.57656 0.25297
 N1063 N 0.68450 0.56367 0.25049
 C1064 C 0.67223 0.56003 0.26174
 N1065 N 0.67073 0.56985 0.27559
 N1066 N 0.68103 0.58276 0.27807
 C1067 C 0.23709 0.14108 0.77756
 N1068 N 0.24979 0.14428 0.76669
 N1069 N 0.26008 0.15719 0.76921
 C1070 C 0.25809 0.16743 0.78268
 N1071 N 0.24535 0.16419 0.79353
 N1072 N 0.23506 0.15128 0.79103
 C1073 C 0.22574 0.12685 0.77480
 N1074 N 0.21326 0.12346 0.78587
 N1075 N 0.20296 0.11054 0.78337
 C1076 C 0.20476 0.10055 0.76971
 N1077 N 0.21724 0.10394 0.75863
 N1078 N 0.22755 0.11685 0.76113
 C1079 C 0.19341 0.08631 0.76696
 N1080 N 0.19497 0.07653 0.75312
 N1081 N 0.18466 0.06362 0.75064
 C1082 C 0.17238 0.05998 0.76189
 N1083 N 0.17086 0.06981 0.77573
 N1084 N 0.18116 0.08272 0.77821
 C1085 C 0.22194 0.26340 0.14058
 N1086 N 0.23282 0.25071 0.14378
 N1087 N 0.23029 0.24040 0.15668
 C1088 C 0.21679 0.24236 0.16690
 N1089 N 0.20593 0.25509 0.16365
 N1090 N 0.20844 0.26540 0.15075
 C1091 C 0.22470 0.27476 0.12636
 N1092 N 0.21362 0.28724 0.12297
 N1093 N 0.21611 0.29755 0.11006
 C1094 C 0.22979 0.29577 0.10008
 N1095 N 0.24088 0.28330 0.10347
 N1096 N 0.23838 0.27298 0.11637
 C1097 C 0.23253 0.30715 0.08586
 N1098 N 0.24637 0.30560 0.07607
 N1099 N 0.24885 0.31593 0.06317
 C1100 C 0.23759 0.32820 0.05954
 N1101 N 0.22374 0.32970 0.06937
 N1102 N 0.22127 0.31939 0.08227
 C1103 C 0.72198 0.76330 0.64056
 N1104 N 0.73287 0.75062 0.64377
 N1105 N 0.73034 0.74031 0.65666
 C1106 C 0.71683 0.74226 0.66688
 N1107 N 0.70596 0.75498 0.66362
 N1108 N 0.70847 0.76529 0.65072
 C1109 C 0.72475 0.77467 0.62634
 N1110 N 0.71366 0.78713 0.62293
 N1111 N 0.71617 0.79744 0.61002
 C1112 C 0.72986 0.79566 0.60005
 N1113 N 0.74095 0.78319 0.60346
 N1114 N 0.73843 0.77288 0.61636
 C1115 C 0.73261 0.80702 0.58582
 N1116 N 0.74646 0.80546 0.57605
 N1117 N 0.74895 0.81578 0.56314
 C1118 C 0.73770 0.82804 0.55948
 N1119 N 0.72384 0.82956 0.56930
 N1120 N 0.72135 0.81926 0.58221
 C1121 C 0.77783 0.76362 0.35844
 N1122 N 0.76697 0.75092 0.35524
 N1123 N 0.76955 0.74059 0.34236
 C1124 C 0.78306 0.74255 0.33216
 N1125 N 0.79390 0.75529 0.33541
 N1126 N 0.79135 0.76562 0.34829
 C1127 C 0.77502 0.77498 0.37266
 N1128 N 0.78607 0.78747 0.37608
 N1129 N 0.78353 0.79776 0.38899
 C1130 C 0.76983 0.79595 0.39895
 N1131 N 0.75877 0.78347 0.39552
 N1132 N 0.76132 0.77317 0.38261
 C1133 C 0.76703 0.80729 0.41319
 N1134 N 0.75318 0.80569 0.42294
 N1135 N 0.75065 0.81597 0.43587
 C1136 C 0.76188 0.82825 0.43956
 N1137 N 0.77574 0.82981 0.42976
 N1138 N 0.77826 0.81954 0.41683
 C1139 C 0.27766 0.26376 -0.14142
 N1140 N 0.29118 0.26576 -0.15156
 N1141 N 0.29375 0.25543 -0.16443
 C1142 C 0.28293 0.24267 -0.16767
 N1143 N 0.26941 0.24070 -0.15748
 N1144 N 0.26682 0.25104 -0.14462
 C1145 C 0.27483 0.27513 -0.12722
 N1146 N 0.26113 0.27332 -0.11726
 N1147 N 0.25857 0.28363 -0.10437
 C1148 C 0.26962 0.29613 -0.10095
 N1149 N 0.28331 0.29794 -0.11090
 N1150 N 0.28587 0.28763 -0.12380
 C1151 C 0.26681 0.30748 -0.08672
 N1152 N 0.27804 0.31974 -0.08309
 N1153 N 0.27551 0.33002 -0.07017
 C1154 C 0.26165 0.32846 -0.06036
 N1155 N 0.25043 0.31617 -0.06405
 N1156 N 0.25296 0.30588 -0.07696
 C1157 C 0.72211 0.23635 -0.14118
 N1158 N 0.70861 0.23433 -0.15133
 N1159 N 0.70605 0.24465 -0.16422
 C1160 C 0.71688 0.25740 -0.16747
 N1161 N 0.73039 0.25937 -0.15727
 N1162 N 0.73296 0.24905 -0.14439
 C1163 C 0.72493 0.22499 -0.12696
 N1164 N 0.73862 0.22681 -0.11700
 N1165 N 0.74117 0.21651 -0.10409
 C1166 C 0.73011 0.20402 -0.10066
 N1167 N 0.71642 0.20221 -0.11062
 N1168 N 0.71388 0.21250 -0.12353
 C1169 C 0.73291 0.19268 -0.08642
 N1170 N 0.72168 0.18043 -0.08278
 N1171 N 0.72421 0.17016 -0.06985
 C1172 C 0.73807 0.17172 -0.06006
 N1173 N 0.74929 0.18400 -0.06375
 N1174 N 0.74676 0.19428 -0.07666
 C1175 C 0.22214 0.73706 0.35885
 N1176 N 0.23301 0.74976 0.35567
 N1177 N 0.23048 0.76007 0.34277
 C1178 C 0.21700 0.75809 0.33253
 N1179 N 0.20615 0.74535 0.33576
 N1180 N 0.20867 0.73505 0.34866
 C1181 C 0.22491 0.72569 0.37307
 N1182 N 0.21385 0.71320 0.37645
 N1183 N 0.21635 0.70289 0.38936
 C1184 C 0.23001 0.70468 0.39935
 N1185 N 0.24109 0.71716 0.39597
 N1186 N 0.23858 0.72748 0.38307
 C1187 C 0.23276 0.69331 0.41357
 N1188 N 0.24660 0.69487 0.42336
 N1189 N 0.24908 0.68454 0.43626
 C1190 C 0.23784 0.67227 0.43990
 N1191 N 0.22400 0.67075 0.43006
 N1192 N 0.22151 0.68106 0.41715
 C1193 C 0.27731 0.73707 0.64082
 N1194 N 0.26644 0.74977 0.64401
 N1195 N 0.26896 0.76008 0.65690
 C1196 C 0.28245 0.75811 0.66714
 N1197 N 0.29331 0.74537 0.66390
 N1198 N 0.29080 0.73506 0.65100
 C1199 C 0.27455 0.72571 0.62659
 N1200 N 0.28563 0.71323 0.62321
 N1201 N 0.28314 0.70292 0.61030
 C1202 C 0.26947 0.70470 0.60032
 N1203 N 0.25838 0.71717 0.60370
 N1204 N 0.26088 0.72749 0.61660
 C1205 C 0.26673 0.69333 0.58609
 N1206 N 0.25289 0.69487 0.57630
 N1207 N 0.25042 0.68455 0.56340
 C1208 C 0.26168 0.67228 0.55977
 N1209 N 0.27552 0.67078 0.56960
 N1210 N 0.27800 0.68108 0.58251
 C1211 C 0.77800 0.23656 0.14093
 N1212 N 0.79149 0.23456 0.15111
 N1213 N 0.79400 0.24489 0.16400
 C1214 C 0.78314 0.25763 0.16722
 N1215 N 0.76965 0.25958 0.15699
 N1216 N 0.76712 0.24925 0.14411
 C1217 C 0.77522 0.22518 0.12672
 N1218 N 0.76155 0.22698 0.11673
 N1219 N 0.75904 0.21666 0.10383
 C1220 C 0.77012 0.20419 0.10043
 N1221 N 0.78379 0.20239 0.11042
 N1222 N 0.78630 0.21270 0.12333
 C1223 C 0.76736 0.19283 0.08620
 N1224 N 0.77862 0.18058 0.08260
 N1225 N 0.77612 0.17028 0.06968
 C1226 C 0.76228 0.17182 0.05986
 N1227 N 0.75103 0.18409 0.06352
 N1228 N 0.75352 0.19440 0.07642
 C1229 C 0.47233 0.39090 0.51336
 N1230 N 0.45884 0.40107 0.51536
 N1231 N 0.45631 0.41397 0.50504
 C1232 C 0.46717 0.41720 0.49230
 N1233 N 0.48067 0.40698 0.49034
 N1234 N 0.48321 0.39409 0.50066
 C1235 C 0.47511 0.37668 0.52473
 N1236 N 0.48878 0.36669 0.52294
 N1237 N 0.49130 0.35379 0.53325
 C1238 C 0.48022 0.35040 0.54573
 N1239 N 0.46655 0.36039 0.54752
 N1240 N 0.46404 0.37330 0.53722
 C1241 C 0.48298 0.33618 0.55710
 N1242 N 0.47173 0.33259 0.56936
 N1243 N 0.47422 0.31968 0.57966
 C1244 C 0.48806 0.30984 0.57813
 N1245 N 0.49930 0.31348 0.56585
 N1246 N 0.49681 0.32638 0.55553
 C1247 C -0.02796 0.89087 0.01308
 N1248 N -0.04144 0.90105 0.01511
 N1249 N -0.04395 0.91398 0.00483
 C1250 C -0.03310 0.91723 -0.00790
 N1251 N -0.01961 0.90699 -0.00989
 N1252 N -0.01708 0.89408 0.00040
 C1253 C -0.02519 0.87661 0.02441
 N1254 N -0.01153 0.86661 0.02258
 N1255 N -0.00903 0.85368 0.03286
 C1256 C -0.02010 0.85026 0.04533
 N1257 N -0.03376 0.86026 0.04716
 N1258 N -0.03626 0.87320 0.03689
 C1259 C -0.01735 0.83600 0.05665
 N1260 N -0.02859 0.83239 0.06891
 N1261 N -0.02610 0.81945 0.07918
 C1262 C -0.01227 0.80961 0.07761
 N1263 N -0.00103 0.81327 0.06532
 N1264 N -0.00353 0.82620 0.05505
 C1265 C 0.02755 0.60843 0.01307
 N1266 N 0.01697 0.60553 0.00007
 N1267 N 0.01953 0.59265 -0.01025
 C1268 C 0.03275 0.58210 -0.00800
 N1269 N 0.04330 0.58507 0.00507
 N1270 N 0.04076 0.59797 0.01539
 C1271 C 0.02476 0.62266 0.02443
 N1272 N 0.03561 0.62583 0.03716
 N1273 N 0.03310 0.63876 0.04744
 C1274 C 0.01963 0.64897 0.04540
 N1275 N 0.00876 0.64579 0.03268
 N1276 N 0.01129 0.63288 0.02238
 C1277 C 0.01686 0.66322 0.05674
 N1278 N 0.00317 0.67317 0.05497
 N1279 N 0.00067 0.68609 0.06526
 C1280 C 0.01178 0.68960 0.07770
 N1281 N 0.02548 0.67961 0.07942
 N1282 N 0.02798 0.66667 0.06915
 C1283 C 0.52769 0.10880 0.51350
 N1284 N 0.51681 0.10561 0.50081
 N1285 N 0.51935 0.09273 0.49048
 C1286 C 0.53285 0.08250 0.49243
 N1287 N 0.54371 0.08573 0.50516
 N1288 N 0.54119 0.09862 0.51549
 C1289 C 0.52491 0.12302 0.52487
 N1290 N 0.53599 0.12640 0.53735
 N1291 N 0.53348 0.13932 0.54765
 C1292 C 0.51981 0.14931 0.54586
 N1293 N 0.50873 0.14591 0.53338
 N1294 N 0.51124 0.13301 0.52307
 C1295 C 0.51706 0.16355 0.55721
 N1296 N 0.50323 0.17335 0.55563
 N1297 N 0.50075 0.18626 0.56593
 C1298 C 0.51199 0.18991 0.57821
 N1299 N 0.52582 0.18006 0.57975
 N1300 N 0.52831 0.16714 0.56946
 C1301 C -0.02802 0.10951 0.48679
 N1302 N -0.04151 0.09934 0.48479
 N1303 N -0.04402 0.08643 0.49509
 C1304 C -0.03316 0.08318 0.50782
 N1305 N -0.01967 0.09341 0.50979
 N1306 N -0.01714 0.10631 0.49948
 C1307 C -0.02525 0.12374 0.47544
 N1308 N -0.01158 0.13373 0.47723
 N1309 N -0.00908 0.14663 0.46692
 C1310 C -0.02016 0.15003 0.45445
 N1311 N -0.03383 0.14005 0.45266
 N1312 N -0.03633 0.12713 0.46296
 C1313 C -0.01741 0.16427 0.44309
 N1314 N -0.02867 0.16786 0.43084
 N1315 N -0.02618 0.18077 0.42054
 C1316 C -0.01235 0.19061 0.42207
 N1317 N -0.00110 0.18697 0.43435
 N1318 N -0.00359 0.17406 0.44466
 C1319 C 0.47200 0.60879 0.98691
 N1320 N 0.48259 0.60589 0.99990
 N1321 N 0.48004 0.59301 1.01023
 C1322 C 0.46681 0.58248 1.00801
 N1323 N 0.45624 0.58546 0.99495
 N1324 N 0.45877 0.59835 0.98462
 C1325 C 0.47478 0.62300 0.97553
 N1326 N 0.46391 0.62617 0.96281
 N1327 N 0.46642 0.63907 0.95250
 C1328 C 0.47991 0.64926 0.95451
 N1329 N 0.49079 0.64609 0.96721
 N1330 N 0.48827 0.63320 0.97754
 C1331 C 0.48266 0.66348 0.94314
 N1332 N 0.49637 0.67342 0.94485
 N1333 N 0.49886 0.68632 0.93453
 C1334 C 0.48773 0.68981 0.92210
 N1335 N 0.47402 0.67984 0.92043
 N1336 N 0.47153 0.66693 0.93073
 C1337 C 0.52761 0.89074 0.98688
 N1338 N 0.51673 0.89395 0.99957
 N1339 N 0.51929 0.90684 1.00989
 C1340 C 0.53280 0.91704 1.00793
 N1341 N 0.54365 0.91378 0.99519
 N1342 N 0.54111 0.90089 0.98488
 C1343 C 0.52481 0.87652 0.97551
 N1344 N 0.53587 0.87311 0.96303
 N1345 N 0.53335 0.86021 0.95273
 C1346 C 0.51966 0.85025 0.95452
 N1347 N 0.50859 0.85366 0.96700
 N1348 N 0.51112 0.86656 0.97731
 C1349 C 0.51688 0.83602 0.94316
 N1350 N 0.50303 0.82626 0.94474
 N1351 N 0.50052 0.81336 0.93443
 C1352 C 0.51176 0.80969 0.92215
 N1353 N 0.52561 0.81950 0.92061
 N1354 N 0.52812 0.83241 0.93091
 C1355 C 0.02745 0.39152 0.48675
 N1356 N 0.01689 0.39439 0.49978
 N1357 N 0.01946 0.40726 0.51012
 C1358 C 0.03267 0.41781 0.50787
 N1359 N 0.04321 0.41485 0.49478
 N1360 N 0.04066 0.40198 0.48444
 C1361 C 0.02464 0.37732 0.47537
 N1362 N 0.03548 0.37417 0.46262
 N1363 N 0.03295 0.36128 0.45230
 C1364 C 0.01948 0.35107 0.45434
 N1365 N 0.00863 0.35423 0.46708
 N1366 N 0.01117 0.36711 0.47741
 C1367 C 0.01670 0.33685 0.44297
 N1368 N 0.00300 0.32691 0.44473
 N1369 N 0.00050 0.31401 0.43442
 C1370 C 0.01159 0.31052 0.42195
 N1371 N 0.02529 0.32051 0.42024
 N1372 N 0.02779 0.33342 0.43053
 C1373 C 0.39094 0.51324 0.47227
 N1374 N 0.39415 0.50056 0.48316
 N1375 N 0.40705 0.49025 0.48063
 C1376 C 0.41727 0.49220 0.46713
 N1377 N 0.41402 0.50492 0.45627
 N1378 N 0.40111 0.51523 0.45878
 C1379 C 0.37671 0.52461 0.47504
 N1380 N 0.37331 0.53707 0.46395
 N1381 N 0.36039 0.54737 0.46645
 C1382 C 0.35041 0.54559 0.48013
 N1383 N 0.35382 0.53313 0.49122
 N1384 N 0.36673 0.52282 0.48872
 C1385 C 0.33617 0.55695 0.48287
 N1386 N 0.32638 0.55539 0.49671
 N1387 N 0.31346 0.56570 0.49918
 C1388 C 0.30980 0.57796 0.48792
 N1389 N 0.31963 0.57947 0.47408
 N1390 N 0.33256 0.56918 0.47160
 C1391 C 0.89136 0.01284 -0.02791
 N1392 N 0.90184 0.01517 -0.04111
 N1393 N 0.91474 0.00486 -0.04364
 C1394 C 0.91771 -0.00823 -0.03310
 N1395 N 0.90714 -0.01049 -0.01989
 N1396 N 0.89425 -0.00018 -0.01734
 C1397 C 0.87713 0.02420 -0.02512
 N1398 N 0.86691 0.02215 -0.01166
 N1399 N 0.85401 0.03246 -0.00913
 C1400 C 0.85083 0.04518 -0.01998
 N1401 N 0.86105 0.04723 -0.03345
 N1402 N 0.87397 0.03694 -0.03597
 C1403 C 0.83659 0.05654 -0.01722
 N1404 N 0.83314 0.06896 -0.02832
 N1405 N 0.82022 0.07925 -0.02582
 C1406 C 0.81023 0.07753 -0.01211
 N1407 N 0.81373 0.06508 -0.00101
 N1408 N 0.82665 0.05478 -0.00352
 C1409 C 0.60910 0.01297 0.02792
 N1410 N 0.60587 0.00029 0.01704
 N1411 N 0.59296 -0.01001 0.01958
 C1412 C 0.58275 -0.00803 0.03309
 N1413 N 0.58602 0.00469 0.04395
 N1414 N 0.59894 0.01498 0.04142
 C1415 C 0.62334 0.02430 0.02513
 N1416 N 0.62677 0.03678 0.03620
 N1417 N 0.63970 0.04705 0.03367
 C1418 C 0.64966 0.04524 0.01998
 N1419 N 0.64622 0.03278 0.00891
 N1420 N 0.63330 0.02249 0.01144
 C1421 C 0.66391 0.05657 0.01721
 N1422 N 0.67367 0.05498 0.00336
 N1423 N 0.68659 0.06527 0.00084
 C1424 C 0.69028 0.07754 0.01208
 N1425 N 0.68048 0.07908 0.02593
 N1426 N 0.66755 0.06881 0.02845
 C1427 C 0.10885 0.51307 0.52748
 N1428 N 0.10564 0.50040 0.51658
 N1429 N 0.09275 0.49009 0.51911
 C1430 C 0.08254 0.49203 0.53262
 N1431 N 0.08579 0.50474 0.54350
 N1432 N 0.09869 0.51505 0.54099
 C1433 C 0.12307 0.52444 0.52471
 N1434 N 0.12647 0.53691 0.53580
 N1435 N 0.13937 0.54722 0.53329
 C1436 C 0.14934 0.54546 0.51960
 N1437 N 0.14593 0.53300 0.50851
 N1438 N 0.13304 0.52268 0.51102
 C1439 C 0.16356 0.55683 0.51685
 N1440 N 0.17333 0.55530 0.50300
 N1441 N 0.18623 0.56562 0.50052
 C1442 C 0.18987 0.57788 0.51178
 N1443 N 0.18006 0.57938 0.52563
 N1444 N 0.16715 0.56907 0.52812
 C1445 C 0.10837 0.48735 -0.02775
 N1446 N 0.09789 0.48503 -0.04094
 N1447 N 0.08497 0.49533 -0.04344
 C1448 C 0.08199 0.50839 -0.03288
 N1449 N 0.09257 0.51064 -0.01968
 N1450 N 0.10548 0.50034 -0.01716
 C1451 C 0.12261 0.47599 -0.02500
 N1452 N 0.13285 0.47802 -0.01155
 N1453 N 0.14576 0.46771 -0.00906
 C1454 C 0.14892 0.45500 -0.01994
 N1455 N 0.13869 0.45297 -0.03339
 N1456 N 0.12577 0.46327 -0.03587
 C1457 C 0.16316 0.44364 -0.01721
 N1458 N 0.16659 0.43123 -0.02834
 N1459 N 0.17952 0.42094 -0.02588
 C1460 C 0.18952 0.42262 -0.01218
 N1461 N 0.18604 0.43505 -0.00105
 N1462 N 0.17313 0.44537 -0.00352
 C1463 C 0.60852 0.98706 0.47209
 N1464 N 0.60562 1.00004 0.48269
 N1465 N 0.59271 1.01035 0.48018
 C1466 C 0.58214 1.00811 0.46698
 N1467 N 0.58511 0.99505 0.45641
 N1468 N 0.59803 0.98475 0.45890
 C1469 C 0.62276 0.97570 0.47484
 N1470 N 0.63299 0.97773 0.48830
 N1471 N 0.64591 0.96743 0.49079
 C1472 C 0.64908 0.95473 0.47990
 N1473 N 0.63886 0.95270 0.46644
 N1474 N 0.62593 0.96299 0.46396
 C1475 C 0.66333 0.94338 0.48263
 N1476 N 0.66678 0.93098 0.47150
 N1477 N 0.67971 0.92070 0.47397
 C1478 C 0.68971 0.92239 0.48767
 N1479 N 0.68621 0.93482 0.49879
 N1480 N 0.67329 0.94512 0.49632
 C1481 C 0.89071 0.98710 0.52769
 N1482 N 0.89392 0.99980 0.51683
 N1483 N 0.90681 1.01011 0.51939
 C1484 C 0.91702 1.00813 0.53289
 N1485 N 0.91377 0.99539 0.54373
 N1486 N 0.90087 0.98508 0.54119
 C1487 C 0.87649 0.97574 0.52489
 N1488 N 0.87308 0.96324 0.53594
 N1489 N 0.86017 0.95295 0.53340
 C1490 C 0.85021 0.95476 0.51972
 N1491 N 0.85362 0.96725 0.50866
 N1492 N 0.86652 0.97755 0.51120
 C1493 C 0.83598 0.94341 0.51692
 N1494 N 0.82622 0.94500 0.50308
 N1495 N 0.81331 0.93470 0.50055
 C1496 C 0.80964 0.92241 0.51177
 N1497 N 0.81944 0.92086 0.52562
 N1498 N 0.83236 0.93115 0.52815
 C1499 C 0.39058 0.48728 0.02760
 N1500 N 0.39379 0.49997 0.01673
 N1501 N 0.40670 0.51026 0.01926
 C1502 C 0.41693 0.50827 0.03274
 N1503 N 0.41368 0.49554 0.04359
 N1504 N 0.40076 0.48525 0.04108
 C1505 C 0.37634 0.47593 0.02482
 N1506 N 0.37293 0.46345 0.03588
 N1507 N 0.36001 0.45316 0.03336
 C1508 C 0.35003 0.45498 0.01969
 N1509 N 0.35344 0.46746 0.00862
 N1510 N 0.36636 0.47775 0.01115
 C1511 C 0.33580 0.44363 0.01691
 N1512 N 0.32602 0.44522 0.00308
 N1513 N 0.31311 0.43492 0.00057
 C1514 C 0.30945 0.42263 0.01179
 N1515 N 0.31927 0.42108 0.02563
 N1516 N 0.33219 0.43137 0.02815
 C1517 C 0.51333 0.47224 0.39096
 N1518 N 0.50065 0.48312 0.39418
 N1519 N 0.49034 0.48058 0.40708
 C1520 C 0.49230 0.46707 0.41728
 N1521 N 0.50503 0.45621 0.41401
 N1522 N 0.51534 0.45873 0.40111
 C1523 C 0.52469 0.47503 0.37672
 N1524 N 0.53716 0.46396 0.37329
 N1525 N 0.54744 0.46648 0.36037
 C1526 C 0.54564 0.48017 0.35041
 N1527 N 0.53318 0.49126 0.35385
 N1528 N 0.52288 0.48873 0.36677
 C1529 C 0.55698 0.48295 0.33617
 N1530 N 0.55540 0.49681 0.32641
 N1531 N 0.56569 0.49931 0.31349
 C1532 C 0.57795 0.48806 0.30979
 N1533 N 0.57949 0.47420 0.31959
 N1534 N 0.56922 0.47169 0.33252
 C1535 C 0.01315 -0.02768 0.89086
 N1536 N 0.00046 -0.01680 0.89406
 N1537 N -0.00987 -0.01934 0.90694
 C1538 C -0.00792 -0.03286 0.91715
 N1539 N 0.00481 -0.04372 0.91390
 N1540 N 0.01514 -0.04119 0.90101
 C1541 C 0.02454 -0.02489 0.87666
 N1542 N 0.03702 -0.03596 0.87326
 N1543 N 0.04734 -0.03344 0.86036
 C1544 C 0.04557 -0.01975 0.85040
 N1545 N 0.03310 -0.00867 0.85381
 N1546 N 0.02276 -0.01119 0.86669
 C1547 C 0.05695 -0.01698 0.83619
 N1548 N 0.05540 -0.00313 0.82642
 N1549 N 0.06573 -0.00064 0.81353
 C1550 C 0.07800 -0.01189 0.80987
 N1551 N 0.07951 -0.02575 0.81968
 N1552 N 0.06920 -0.02824 0.83259
 C1553 C 0.01312 0.02804 0.60904
 N1554 N 0.00042 0.01717 0.60584
 N1555 N -0.00990 0.01972 0.59296
 C1556 C -0.00795 0.03323 0.58276
 N1557 N 0.00478 0.04408 0.58600
 N1558 N 0.01511 0.04154 0.59889
 C1559 C 0.02450 0.02524 0.62325
 N1560 N 0.03698 0.03630 0.62665
 N1561 N 0.04730 0.03377 0.63954
 C1562 C 0.04552 0.02009 0.64951
 N1563 N 0.03304 0.00902 0.64611
 N1564 N 0.02271 0.01155 0.63322
 C1565 C 0.05689 0.01730 0.66372
 N1566 N 0.05533 0.00346 0.67349
 N1567 N 0.06565 0.00095 0.68638
 C1568 C 0.07794 0.01218 0.69003
 N1569 N 0.07947 0.02603 0.68022
 N1570 N 0.06916 0.02854 0.66732
 C1571 C 0.51315 0.52802 0.10876
 N1572 N 0.50044 0.51717 0.10556
 N1573 N 0.49012 0.51972 0.09268
 C1574 C 0.49209 0.53322 0.08246
 N1575 N 0.50484 0.54406 0.08570
 N1576 N 0.51516 0.54152 0.09860
 C1577 C 0.52451 0.52523 0.12298
 N1578 N 0.53700 0.53629 0.12639
 N1579 N 0.54730 0.53376 0.13930
 C1580 C 0.54550 0.52008 0.14927
 N1581 N 0.53302 0.50902 0.14586
 N1582 N 0.52271 0.51155 0.13295
 C1583 C 0.55685 0.51731 0.16350
 N1584 N 0.55528 0.50346 0.17327
 N1585 N 0.56558 0.50095 0.18618
 C1586 C 0.57785 0.51219 0.18985
 N1587 N 0.57938 0.52605 0.18004
 N1588 N 0.56910 0.52855 0.16712
 C1589 C 0.48664 -0.02793 0.10926
 N1590 N 0.49934 -0.01707 0.10607
 N1591 N 0.50966 -0.01961 0.09318
 C1592 C 0.50770 -0.03310 0.08295
 N1593 N 0.49495 -0.04394 0.08619
 N1594 N 0.48464 -0.04142 0.09908
 C1595 C 0.47526 -0.02516 0.12347
 N1596 N 0.46277 -0.03622 0.12685
 N1597 N 0.45246 -0.03371 0.13976
 C1598 C 0.45425 -0.02004 0.14974
 N1599 N 0.46673 -0.00897 0.14636
 N1600 N 0.47706 -0.01149 0.13347
 C1601 C 0.44287 -0.01728 0.16396
 N1602 N 0.44444 -0.00345 0.17376
 N1603 N 0.43411 -0.00095 0.18665
 C1604 C 0.42182 -0.01219 0.19028
 N1605 N 0.42030 -0.02602 0.18045
 N1606 N 0.43061 -0.02852 0.16754
 C1607 C 0.98653 0.47204 0.60885
 N1608 N 0.98451 0.45856 0.59866
 N1609 N 0.99479 0.45605 0.58574
 C1610 C 1.00753 0.46690 0.58248
 N1611 N 1.00951 0.48038 0.59272
 N1612 N 0.99922 0.48291 0.60564
 C1613 C 0.97520 0.47480 0.62310
 N1614 N 0.97702 0.48847 0.63309
 N1615 N 0.96674 0.49098 0.64602
 C1616 C 0.95427 0.47990 0.64944
 N1617 N 0.95245 0.46623 0.63945
 N1618 N 0.96272 0.46374 0.62651
 C1619 C 0.94294 0.48266 0.66370
 N1620 N 0.93069 0.47141 0.66732
 N1621 N 0.92042 0.47391 0.68026
 C1622 C 0.92197 0.48775 0.69008
 N1623 N 0.93424 0.49899 0.68640
 N1624 N 0.94453 0.49649 0.67348
 C1625 C 0.98652 0.52773 0.89117
 N1626 N 0.99922 0.51687 0.89437
 N1627 N 1.00953 0.51942 0.90727
 C1628 C 1.00755 0.53291 0.91748
 N1629 N 0.99480 0.54376 0.91423
 N1630 N 0.98450 0.54123 0.90133
 C1631 C 0.97516 0.52494 0.87694
 N1632 N 0.96268 0.53600 0.87352
 N1633 N 0.95239 0.53348 0.86060
 C1634 C 0.95420 0.51979 0.85064
 N1635 N 0.96667 0.50872 0.85407
 N1636 N 0.97697 0.51125 0.86698
 C1637 C 0.94285 0.51702 0.83640
 N1638 N 0.94443 0.50316 0.82664
 N1639 N 0.93414 0.50065 0.81372
 C1640 C 0.92188 0.51190 0.81003
 N1641 N 0.92034 0.52576 0.81983
 N1642 N 0.93061 0.52827 0.83276
 C1643 C 0.48661 0.02759 0.39109
 N1644 N 0.49932 0.01672 0.39426
 N1645 N 0.50965 0.01925 0.40713
 C1646 C 0.50770 0.03275 0.41736
 N1647 N 0.49495 0.04360 0.41414
 N1648 N 0.48462 0.04108 0.40126
 C1649 C 0.47522 0.02480 0.37688
 N1650 N 0.46273 0.03587 0.37351
 N1651 N 0.45240 0.03336 0.36062
 C1652 C 0.45418 0.01968 0.35064
 N1653 N 0.46666 0.00861 0.35402
 N1654 N 0.47700 0.01113 0.36690
 C1655 C 0.44279 0.01692 0.33643
 N1656 N 0.44435 0.00307 0.32665
 N1657 N 0.43402 0.00058 0.31376
 C1658 C 0.42174 0.01182 0.31012
 N1659 N 0.42023 0.02567 0.31994
 N1660 N 0.43054 0.02817 0.33284
   
