data_POSCAR
  _audit_creation_date              2014-09-24
  _audit_creation_method            'ToBaCCo'
  _symmetry_space_group_name_H-M    'P1'
  _symmetry_Int_Tables_number       1
  _symmetry_cell_setting            triclinic
  loop_
  _symmetry_equiv_pos_as_xyz
 x,y,z
_cell_length_a 48.3741
_cell_length_b 48.3385
_cell_length_c 48.4736
_cell_angle_alpha 89.944400
_cell_angle_beta 90.007400
_cell_angle_gamma 90.065700
loop_
  _atom_site_label
  _atom_site_type_symbol
  _atom_site_fract_x
  _atom_site_fract_y
  _atom_site_fract_z
N1 N 0.14859 0.21842 0.21673
 N2 N 0.15383 0.19721 0.23290
 C3 C 0.13443 0.19605 0.25283
 C4 C 0.11627 0.21789 0.24911
 C5 C 0.12586 0.23152 0.22583
 H6 H 0.13372 0.18083 0.26917
 H7 H 0.11724 0.24975 0.21625
 Cu8 Cu 0.18591 0.17386 0.22594
 Cu9 Cu 0.17285 0.22863 0.18627
 Cu10 Cu 0.22737 0.18453 0.17152
 N11 N 0.21745 0.14988 0.21892
 N12 N 0.23326 0.15397 0.19722
 C13 C 0.25303 0.13443 0.19656
 C14 C 0.24960 0.11720 0.21911
 C15 C 0.22670 0.12759 0.23281
 H16 H 0.26891 0.13285 0.18094
 H17 H 0.21730 0.11946 0.25133
 N18 N 0.21777 0.21678 0.14835
 N19 N 0.19672 0.23332 0.15362
 C20 C 0.19587 0.25332 0.13427
 C21 C 0.21765 0.24947 0.11620
 C22 C 0.23098 0.22599 0.12569
 H23 H 0.18089 0.26989 0.13354
 H24 H 0.24905 0.21634 0.11690
 H25 H 0.18535 0.18867 0.17805
 H26 H 0.20912 0.21002 0.19954
 N27 N 0.64906 0.71907 0.71708
 N28 N 0.65438 0.69789 0.73323
 C29 C 0.63518 0.69684 0.75336
 C30 C 0.61704 0.71870 0.74978
 C31 C 0.62648 0.73228 0.72642
 H32 H 0.63438 0.68147 0.76956
 H33 H 0.61760 0.75030 0.71669
 Cu34 Cu 0.68589 0.67396 0.72594
 Cu35 Cu 0.67173 0.72815 0.68511
 Cu36 Cu 0.72786 0.68538 0.67203
 N37 N 0.71739 0.65007 0.71860
 N38 N 0.73347 0.65448 0.69720
 C39 C 0.75331 0.63501 0.69654
 C40 C 0.74964 0.61751 0.71882
 C41 C 0.72652 0.62763 0.73234
 H42 H 0.76941 0.63370 0.68112
 H43 H 0.71689 0.61922 0.75061
 N44 N 0.71868 0.71776 0.64910
 N45 N 0.69721 0.73389 0.65388
 C46 C 0.69655 0.75396 0.63461
 C47 C 0.71877 0.75047 0.61703
 C48 C 0.73227 0.72722 0.62678
 H49 H 0.68116 0.77012 0.63338
 H50 H 0.75051 0.71770 0.61819
 H51 H 0.68551 0.68826 0.67761
 H52 H 0.70782 0.71079 0.69952
 N53 N 0.35024 0.78119 0.71696
 N54 N 0.34501 0.80248 0.73296
 C55 C 0.36425 0.80356 0.75307
 C56 C 0.38227 0.78156 0.74966
 C57 C 0.37274 0.76791 0.72640
 H58 H 0.36514 0.81902 0.76916
 H59 H 0.38152 0.74979 0.71680
 Cu60 Cu 0.31344 0.82635 0.72552
 Cu61 Cu 0.32758 0.77203 0.68499
 Cu62 Cu 0.27154 0.81493 0.67154
 N63 N 0.28200 0.85036 0.71806
 N64 N 0.26592 0.84591 0.69666
 C65 C 0.24607 0.86538 0.69593
 C66 C 0.24969 0.88297 0.71820
 C67 C 0.27291 0.87286 0.73170
 H68 H 0.23003 0.86668 0.68043
 H69 H 0.28266 0.88125 0.74991
 N70 N 0.28075 0.78245 0.64872
 N71 N 0.30214 0.76625 0.65371
 C72 C 0.30283 0.74608 0.63457
 C73 C 0.28070 0.74953 0.61685
 C74 C 0.26724 0.77291 0.62637
 H75 H 0.31816 0.72987 0.63354
 H76 H 0.24907 0.78244 0.61762
 H77 H 0.31379 0.81185 0.67729
 H78 H 0.29138 0.78945 0.69924
 N79 N 0.85175 0.28105 0.21738
 N80 N 0.84632 0.30207 0.23366
 C81 C 0.86535 0.30290 0.25396
 C82 C 0.88349 0.28099 0.25040
 C83 C 0.87424 0.26770 0.22677
 H84 H 0.86601 0.31815 0.27025
 H85 H 0.88314 0.24982 0.21686
 Cu86 Cu 0.81488 0.32609 0.22629
 Cu87 Cu 0.82920 0.27215 0.18528
 Cu88 Cu 0.77318 0.31500 0.17213
 N89 N 0.78340 0.35005 0.21893
 N90 N 0.76744 0.34578 0.19739
 C91 C 0.74761 0.36526 0.19672
 C92 C 0.75114 0.38262 0.21911
 C93 C 0.77417 0.37239 0.23273
 H94 H 0.73158 0.36667 0.18122
 H95 H 0.78364 0.38060 0.25116
 N96 N 0.78244 0.28275 0.14905
 N97 N 0.80388 0.26659 0.15388
 C98 C 0.80452 0.24650 0.13464
 C99 C 0.78233 0.25003 0.11701
 C100 C 0.76885 0.27331 0.12672
 H101 H 0.81978 0.23022 0.13356
 H102 H 0.75054 0.28277 0.11820
 H103 H 0.81538 0.31194 0.17801
 H104 H 0.79299 0.28928 0.19974
 N105 N 0.85106 0.71930 0.28286
 N106 N 0.84575 0.69806 0.26680
 C107 C 0.86492 0.69702 0.24666
 C108 C 0.88301 0.71897 0.25009
 C109 C 0.87360 0.73258 0.27341
 H110 H 0.86574 0.68158 0.23056
 H111 H 0.88247 0.75067 0.28303
 Cu112 Cu 0.81426 0.67409 0.27422
 Cu113 Cu 0.82848 0.72834 0.31490
 Cu114 Cu 0.77243 0.68530 0.32822
 N115 N 0.78285 0.65005 0.28164
 N116 N 0.76679 0.65439 0.30307
 C117 C 0.74699 0.63484 0.30378
 C118 C 0.75065 0.61736 0.28151
 C119 C 0.77374 0.62757 0.26796
 H120 H 0.73091 0.63345 0.31923
 H121 H 0.78335 0.61922 0.24968
 N122 N 0.78164 0.71772 0.35109
 N123 N 0.80304 0.73397 0.34619
 C124 C 0.80372 0.75405 0.36543
 C125 C 0.78156 0.75047 0.38309
 C126 C 0.76811 0.72712 0.37345
 H127 H 0.81907 0.77028 0.36657
 H128 H 0.74994 0.71749 0.38213
 H129 H 0.81481 0.68838 0.32253
 H130 H 0.79239 0.71085 0.30067
 N131 N 0.35148 0.21829 -0.21723
 N132 N 0.34624 0.19702 -0.23332
 C133 C 0.36547 0.19613 -0.25346
 C134 C 0.38356 0.21821 -0.24998
 C135 C 0.37402 0.23165 -0.22657
 H136 H 0.36613 0.18090 -0.26978
 H137 H 0.38269 0.24974 -0.21680
 Cu138 Cu 0.31399 0.17351 -0.22656
 Cu139 Cu 0.32857 0.22778 -0.18554
 Cu140 Cu 0.27188 0.18602 -0.17290
 N141 N 0.28215 0.14976 -0.21880
 N142 N 0.26581 0.15516 -0.19781
 C143 C 0.24529 0.13643 -0.19700
 C144 C 0.24855 0.11837 -0.21884
 C145 C 0.27245 0.12720 -0.23204
 H146 H 0.22938 0.13580 -0.18136
 H147 H 0.28192 0.11786 -0.24996
 N148 N 0.28126 0.21813 -0.14987
 N149 N 0.30296 0.23401 -0.15447
 C150 C 0.30371 0.25403 -0.13514
 C151 C 0.28132 0.25068 -0.11767
 C152 C 0.26762 0.22762 -0.12761
 H153 H 0.31924 0.27008 -0.13382
 H154 H 0.24916 0.21828 -0.11924
 H155 H 0.31421 0.18824 -0.17852
 H156 H 0.29248 0.21105 -0.20085
 N157 N 0.64859 0.28069 -0.21726
 N158 N 0.65381 0.30189 -0.23345
 C159 C 0.63453 0.30282 -0.25355
 C160 C 0.61648 0.28076 -0.25000
 C161 C 0.62606 0.26730 -0.22656
 H162 H 0.63367 0.31821 -0.26974
 H163 H 0.61735 0.24927 -0.21669
 Cu164 Cu 0.68541 0.32589 -0.22618
 Cu165 Cu 0.67136 0.27171 -0.18524
 Cu166 Cu 0.72735 0.31484 -0.17219
 N167 N 0.71684 0.35005 -0.21888
 N168 N 0.73288 0.34572 -0.19742
 C169 C 0.75272 0.36522 -0.19674
 C170 C 0.74912 0.38270 -0.21904
 C171 C 0.72599 0.37254 -0.23260
 H172 H 0.76877 0.36658 -0.18128
 H173 H 0.71644 0.38091 -0.25094
 N174 N 0.71827 0.28248 -0.14915
 N175 N 0.69692 0.26615 -0.15395
 C176 C 0.69641 0.24607 -0.13465
 C177 C 0.71862 0.24977 -0.11705
 C178 C 0.73192 0.27317 -0.12680
 H179 H 0.68117 0.22974 -0.13346
 H180 H 0.75011 0.28285 -0.11824
 H181 H 0.68509 0.31159 -0.17787
 H182 H 0.70748 0.28915 -0.19971
 N183 N 0.14940 0.78148 0.28306
 N184 N 0.15475 0.80271 0.26698
 C185 C 0.13569 0.80364 0.24669
 C186 C 0.11755 0.78173 0.25019
 C187 C 0.12688 0.76820 0.27361
 H188 H 0.13499 0.81896 0.23042
 H189 H 0.11800 0.75013 0.28327
 Cu190 Cu 0.18639 0.82661 0.27410
 Cu191 Cu 0.17203 0.77242 0.31503
 Cu192 Cu 0.22816 0.81523 0.32828
 N193 N 0.21779 0.85065 0.28175
 N194 N 0.23390 0.84624 0.30312
 C195 C 0.25378 0.86576 0.30371
 C196 C 0.25017 0.88325 0.28132
 C197 C 0.22697 0.87302 0.26789
 H198 H 0.26986 0.86709 0.31916
 H199 H 0.21728 0.88126 0.24957
 N200 N 0.21884 0.78278 0.35125
 N201 N 0.19737 0.76663 0.34635
 C202 C 0.19670 0.74639 0.36546
 C203 C 0.21890 0.74975 0.38310
 C204 C 0.23243 0.77313 0.37352
 H205 H 0.18138 0.73011 0.36646
 H206 H 0.25076 0.78252 0.38209
 H207 H 0.18596 0.81218 0.32247
 H208 H 0.20827 0.78969 0.30061
 N209 N 0.46832 0.39876 0.46723
 N210 N 0.44693 0.40404 0.48311
 C211 C 0.44590 0.38494 0.50338
 C212 C 0.46796 0.36694 0.50017
 C213 C 0.48161 0.37632 0.47686
 H214 H 0.43057 0.38430 0.51958
 H215 H 0.49983 0.36756 0.46742
 Cu216 Cu 0.42355 0.43620 0.47608
 Cu217 Cu 0.47788 0.42133 0.43529
 Cu218 Cu 0.43601 0.47768 0.42187
 N219 N 0.39990 0.46792 0.46797
 N220 N 0.40533 0.48404 0.44680
 C221 C 0.38670 0.50459 0.44574
 C222 C 0.36854 0.50145 0.46753
 C223 C 0.37739 0.47777 0.48109
 H224 H 0.38620 0.52031 0.42990
 H225 H 0.36804 0.46854 0.49914
 N226 N 0.46800 0.46806 0.39893
 N227 N 0.48407 0.44662 0.40395
 C228 C 0.50417 0.44584 0.38471
 C229 C 0.50067 0.46797 0.36692
 C230 C 0.47743 0.48150 0.37651
 H231 H 0.52038 0.43049 0.38370
 H232 H 0.46794 0.49972 0.36782
 H233 H 0.46102 0.45753 0.45011
 H234 H 0.43831 0.43529 0.42809
 N235 N -0.03136 -0.10124 0.96717
 N236 N -0.05226 -0.09521 0.98341
 C237 C -0.05343 -0.11383 1.00403
 C238 C -0.03182 -0.13226 1.00088
 C239 C -0.01846 -0.12387 0.97701
 H240 H -0.06890 -0.11412 1.02010
 H241 H -0.00072 -0.13355 0.96750
 Cu242 Cu -0.07585 -0.06364 0.97592
 Cu243 Cu -0.02230 -0.07892 0.93477
 Cu244 Cu -0.06481 -0.02243 0.92153
 N245 N -0.09982 -0.03236 0.96839
 N246 N -0.09557 -0.01645 0.94680
 C247 C -0.11507 0.00336 0.94610
 C248 C -0.13239 -0.00018 0.96856
 C249 C -0.12213 -0.02316 0.98220
 H250 H -0.11655 0.01934 0.93054
 H251 H -0.13033 -0.03264 1.00064
 N252 N -0.03262 -0.03196 0.89848
 N253 N -0.01666 -0.05359 0.90323
 C254 C 0.00340 -0.05430 0.88395
 C255 C 0.00008 -0.03196 0.86641
 C256 C -0.02307 -0.01834 0.87620
 H257 H 0.01951 -0.06974 0.88278
 H258 H -0.03240 0.00009 0.86774
 H259 H -0.03904 -0.04250 0.94891
 H260 H -0.06204 -0.06482 0.92753
 N261 N 1.03161 0.60130 0.96673
 N262 N 1.05273 0.59587 0.98288
 C263 C 1.05380 0.61498 1.00309
 C264 C 1.03203 0.63318 0.99956
 C265 C 1.01845 0.62389 0.97616
 H266 H 1.06910 0.61565 1.01936
 H267 H 1.00044 0.63283 0.96650
 Cu268 Cu 1.07664 0.56439 0.97575
 Cu269 Cu 1.02254 0.57869 0.93475
 Cu270 Cu 1.06524 0.52251 0.92172
 N271 N 1.10038 0.53284 0.96834
 N272 N 1.09605 0.51682 0.94690
 C273 C 1.11550 0.49697 0.94629
 C274 C 1.13289 0.50059 0.96864
 C275 C 1.12273 0.52367 0.98216
 H276 H 1.11688 0.48090 0.93085
 H277 H 1.13104 0.53323 1.00051
 N278 N 1.03297 0.53175 0.89872
 N279 N 1.01685 0.55323 0.90349
 C280 C 0.99675 0.55385 0.88428
 C281 C 1.00022 0.53159 0.86674
 C282 C 1.02347 0.51809 0.87646
 H283 H 0.98051 0.56916 0.88313
 H284 H 1.03290 0.49975 0.86799
 H285 H 1.03969 0.54249 0.94927
 H286 H 1.06229 0.56481 0.92741
 N287 N 0.53113 0.10120 0.46730
 N288 N 0.55235 0.09589 0.48338
 C289 C 0.55337 0.11500 0.50359
 C290 C 0.53144 0.13306 0.50019
 C291 C 0.51785 0.12369 0.47681
 H292 H 0.56879 0.11579 0.51972
 H293 H 0.49974 0.13253 0.46722
 Cu294 Cu 0.57634 0.06449 0.47600
 Cu295 Cu 0.52215 0.07857 0.43523
 Cu296 Cu 0.56517 0.02264 0.42194
 N297 N 0.60031 0.03310 0.46860
 N298 N 0.59601 0.01709 0.44712
 C299 C 0.61552 -0.00269 0.44644
 C300 C 0.63289 0.00092 0.46879
 C301 C 0.62269 0.02395 0.48237
 H302 H 0.61695 -0.01873 0.43096
 H303 H 0.63099 0.03350 0.50072
 N304 N 0.53279 0.03175 0.39903
 N305 N 0.51653 0.05311 0.40391
 C306 C 0.49644 0.05368 0.38466
 C307 C 0.50004 0.03151 0.36703
 C308 C 0.52340 0.01814 0.37669
 H309 H 0.48018 0.06897 0.38351
 H310 H 0.53303 -0.00002 0.36806
 H311 H 0.53971 0.04246 0.44946
 H312 H 0.56215 0.06498 0.42763
 N313 N -0.03135 0.10134 0.53304
 N314 N -0.05255 0.09600 0.51693
 C315 C -0.05350 0.11506 0.49667
 C316 C -0.03160 0.13316 0.50013
 C317 C -0.01805 0.12386 0.52355
 H318 H -0.06882 0.11576 0.48045
 H319 H 0.00003 0.13275 0.53316
 Cu320 Cu -0.07647 0.06454 0.52429
 Cu321 Cu -0.02236 0.07871 0.56509
 Cu322 Cu -0.06534 0.02267 0.57830
 N323 N -0.10051 0.03318 0.53167
 N324 N -0.09622 0.01712 0.55314
 C325 C -0.11574 -0.00269 0.55380
 C326 C -0.13309 0.00096 0.53143
 C327 C -0.12286 0.02403 0.51786
 H328 H -0.11716 -0.01880 0.56923
 H329 H -0.13109 0.03358 0.49948
 N330 N -0.03299 0.03181 0.60124
 N331 N -0.01678 0.05326 0.59641
 C332 C 0.00336 0.05381 0.61559
 C333 C -0.00016 0.03154 0.63315
 C334 C -0.02350 0.01811 0.62349
 H335 H 0.01966 0.06909 0.61669
 H336 H -0.03299 -0.00023 0.63200
 H337 H -0.03976 0.04258 0.55068
 H338 H -0.06221 0.06497 0.57254
 N339 N 0.46908 0.60094 0.03294
 N340 N 0.44785 0.59563 0.01687
 C341 C 0.44680 0.61481 -0.00329
 C342 C 0.46875 0.63288 0.00013
 C343 C 0.48236 0.62347 0.02346
 H344 H 0.43136 0.61565 -0.01940
 H345 H 0.50047 0.63232 0.03305
 Cu346 Cu 0.42381 0.56422 0.02427
 Cu347 Cu 0.47807 0.57830 0.06499
 Cu348 Cu 0.43499 0.52230 0.07832
 N349 N 0.39982 0.53278 0.03167
 N350 N 0.40410 0.51673 0.05314
 C351 C 0.38453 0.49695 0.05383
 C352 C 0.36713 0.50063 0.03149
 C353 C 0.37739 0.52370 0.01793
 H354 H 0.38309 0.48087 0.06929
 H355 H 0.36910 0.53331 -0.00041
 N356 N 0.46741 0.53144 0.10122
 N357 N 0.48368 0.55283 0.09630
 C358 C 0.50378 0.55346 0.11552
 C359 C 0.50018 0.53130 0.13321
 C360 C 0.47681 0.51788 0.12359
 H361 H 0.52003 0.56879 0.11664
 H362 H 0.46717 0.49971 0.13229
 H363 H 0.46049 0.54224 0.05079
 H364 H 0.43808 0.56470 0.07262
 N365 N 0.53125 -0.10101 0.03300
 N366 N 0.55249 -0.09570 0.01694
 C367 C 0.55348 -0.11483 -0.00325
 C368 C 0.53150 -0.13288 0.00015
 C369 C 0.51792 -0.12350 0.02351
 H370 H 0.56890 -0.11563 -0.01938
 H371 H 0.49981 -0.13234 0.03310
 Cu372 Cu 0.57646 -0.06423 0.02435
 Cu373 Cu 0.52223 -0.07842 0.06507
 Cu374 Cu 0.56532 -0.02241 0.07840
 N375 N 0.60057 -0.03290 0.03178
 N376 N 0.59625 -0.01685 0.05322
 C377 C 0.61580 0.00294 0.05391
 C378 C 0.63325 -0.00070 0.03161
 C379 C 0.62303 -0.02378 0.01806
 H380 H 0.61719 0.01903 0.06934
 H381 H 0.63132 -0.03335 -0.00027
 N382 N 0.53287 -0.03159 0.10129
 N383 N 0.51663 -0.05300 0.09640
 C384 C 0.49652 -0.05364 0.11561
 C385 C 0.50007 -0.03145 0.13326
 C386 C 0.52344 -0.01802 0.12362
 H387 H 0.48028 -0.06898 0.11674
 H388 H 0.53303 0.00019 0.13226
 H389 H 0.53977 -0.04225 0.05084
 H390 H 0.56217 -0.06474 0.07267
 N391 N 1.03054 0.39886 0.53300
 N392 N 1.05175 0.40424 0.51692
 C393 C 1.05280 0.38513 0.49673
 C394 C 1.03088 0.36703 0.50014
 C395 C 1.01727 0.37634 0.52350
 H396 H 1.06822 0.38438 0.48060
 H397 H 0.99920 0.36743 0.53311
 Cu398 Cu 1.07565 0.43575 0.52423
 Cu399 Cu 1.02148 0.42139 0.56504
 Cu400 Cu 1.06437 0.47748 0.57826
 N401 N 1.09940 0.46738 0.53153
 N402 N 1.09505 0.48331 0.55305
 C403 C 1.11444 0.50322 0.55380
 C404 C 1.13183 0.49978 0.53147
 C405 C 1.12177 0.47669 0.51782
 H406 H 1.11588 0.51914 0.56940
 H407 H 1.13019 0.46717 0.49952
 N408 N 1.03217 0.46818 0.60123
 N409 N 1.01587 0.44682 0.59634
 C410 C 0.99582 0.44619 0.61560
 C411 C 0.99951 0.46834 0.63326
 C412 C 1.02286 0.48173 0.62360
 H413 H 0.97953 0.43090 0.61676
 H414 H 1.03254 0.49988 0.63224
 H415 H 1.03888 0.45747 0.55070
 H416 H 1.06138 0.43505 0.57254
 C417 C 0.34498 -0.02455 0.25712
 C418 C 0.35940 -0.00040 0.25027
 C419 C 0.34502 0.02377 0.24354
 C420 C 0.31593 0.02434 0.24418
 C421 C 0.30175 -0.00034 0.25056
 C422 C 0.31589 -0.02506 0.25677
 C423 C 0.38982 -0.00038 0.25023
 C424 C 0.40422 -0.00709 0.22612
 C425 C 0.43331 -0.00650 0.22558
 C426 C 0.44747 -0.00022 0.25020
 C427 C 0.43331 0.00604 0.27482
 C428 C 0.40423 0.00644 0.27431
 H429 H 0.35690 -0.04252 0.26277
 H430 H 0.35695 0.04171 0.23776
 H431 H 0.39232 -0.01282 0.20821
 H432 H 0.39232 0.01212 0.29223
 H433 H 0.27935 -0.00031 0.25067
 H434 H 0.46987 -0.00018 0.25020
 C435 C 0.15512 -0.02475 0.74242
 C436 C 0.14090 -0.00052 0.74927
 C437 C 0.15553 0.02354 0.75592
 C438 C 0.18464 0.02366 0.75622
 C439 C 0.19857 -0.00057 0.74813
 C440 C 0.18422 -0.02523 0.74208
 C441 C 0.11047 -0.00036 0.74946
 C442 C 0.09611 -0.00706 0.77365
 C443 C 0.06701 -0.00648 0.77426
 C444 C 0.05282 -0.00011 0.74970
 C445 C 0.06691 0.00610 0.72503
 C446 C 0.09599 0.00643 0.72541
 H447 H 0.14305 -0.04272 0.73707
 H448 H 0.14388 0.04208 0.76030
 H449 H 0.10803 -0.01280 0.79155
 H450 H 0.10785 0.01200 0.70742
 H451 H 0.22093 -0.00047 0.74695
 H452 H 0.03041 0.00000 0.74977
 C453 C 0.65536 0.47561 0.24331
 C454 C 0.64091 0.49975 0.24993
 C455 C 0.65524 0.52394 0.25675
 C456 C 0.68431 0.52452 0.25642
 C457 C 0.69853 0.49986 0.25027
 C458 C 0.68443 0.47514 0.24398
 C459 C 0.61053 0.49969 0.24990
 C460 C 0.59618 0.49290 0.27400
 C461 C 0.56712 0.49348 0.27458
 C462 C 0.55292 0.49985 0.25001
 C463 C 0.56704 0.50613 0.22537
 C464 C 0.59612 0.50656 0.22583
 H465 H 0.64348 0.45762 0.23759
 H466 H 0.64326 0.54186 0.26239
 H467 H 0.60810 0.48711 0.29189
 H468 H 0.60802 0.51228 0.20790
 H469 H 0.72093 0.49992 0.25038
 H470 H 0.53051 0.49990 0.25006
 C471 C 0.84499 0.47593 0.75694
 C472 C 0.85942 0.50011 0.75023
 C473 C 0.84509 0.52428 0.74343
 C474 C 0.81602 0.52481 0.74388
 C475 C 0.80182 0.50012 0.75010
 C476 C 0.81592 0.47541 0.75635
 C477 C 0.88979 0.50008 0.75020
 C478 C 0.90411 0.49328 0.72610
 C479 C 0.93316 0.49379 0.72552
 C480 C 0.94740 0.50007 0.75008
 C481 C 0.93330 0.50636 0.77471
 C482 C 0.90423 0.50688 0.77426
 H483 H 0.85689 0.45797 0.76265
 H484 H 0.85706 0.54223 0.73774
 H485 H 0.89215 0.48753 0.70823
 H486 H 0.89237 0.51263 0.79218
 H487 H 0.77942 0.50013 0.75005
 H488 H 0.96980 0.50007 0.75003
 C489 C 0.25667 0.34586 -0.02434
 C490 C 0.24990 0.36014 -0.00021
 C491 C 0.24294 0.34565 0.02379
 C492 C 0.24324 0.31656 0.02418
 C493 C 0.24953 0.30249 -0.00049
 C494 C 0.25602 0.31678 -0.02501
 C495 C 0.24995 0.39053 -0.00011
 C496 C 0.22582 0.40492 -0.00684
 C497 C 0.22531 0.43401 -0.00627
 C498 C 0.24996 0.44817 0.00003
 C499 C 0.27462 0.43401 0.00624
 C500 C 0.27410 0.40491 0.00669
 H501 H 0.26249 0.35787 -0.04217
 H502 H 0.23725 0.35751 0.04173
 H503 H 0.20788 0.39299 -0.01259
 H504 H 0.29204 0.39298 0.01236
 H505 H 0.24939 0.28007 -0.00059
 H506 H 0.24996 0.47060 0.00009
 C507 C 0.74352 0.15437 -0.02388
 C508 C 0.75042 0.13998 0.00017
 C509 C 0.75747 0.15435 0.02418
 C510 C 0.75709 0.18344 0.02468
 C511 C 0.75074 0.19763 0.00006
 C512 C 0.74424 0.18346 -0.02450
 C513 C 0.75040 0.10958 0.00018
 C514 C 0.77454 0.09524 -0.00657
 C515 C 0.77509 0.06615 -0.00605
 C516 C 0.75045 0.05193 0.00026
 C517 C 0.72577 0.06605 0.00645
 C518 C 0.72625 0.09515 0.00691
 H519 H 0.73754 0.14245 -0.04170
 H520 H 0.76328 0.14241 0.04206
 H521 H 0.79247 0.10722 -0.01227
 H522 H 0.70829 0.10705 0.01257
 H523 H 0.75082 0.22005 0.00004
 H524 H 0.75049 0.02951 0.00032
 C525 C 0.24405 0.65337 0.47565
 C526 C 0.25097 0.63902 0.49978
 C527 C 0.25745 0.65351 0.52390
 C528 C 0.25655 0.68260 0.52443
 C529 C 0.25018 0.69670 0.49979
 C530 C 0.24410 0.68249 0.47515
 C531 C 0.25044 0.60858 0.50011
 C532 C 0.27424 0.59349 0.49353
 C533 C 0.27374 0.56436 0.49339
 C534 C 0.24940 0.55091 0.50189
 C535 C 0.22505 0.56568 0.50765
 C536 C 0.22595 0.59476 0.50697
 H537 H 0.23848 0.64141 0.45772
 H538 H 0.26312 0.64165 0.54187
 H539 H 0.29306 0.60462 0.48871
 H540 H 0.20810 0.60709 0.51202
 H541 H 0.24993 0.71912 0.49979
 H542 H 0.24905 0.52861 0.50377
 C543 C 0.75692 0.84610 0.47589
 C544 C 0.74995 0.86046 0.49992
 C545 C 0.74310 0.84607 0.52399
 C546 C 0.74376 0.81700 0.52458
 C547 C 0.75017 0.80283 0.50002
 C548 C 0.75648 0.81702 0.47540
 C549 C 0.74992 0.89082 0.49991
 C550 C 0.72575 0.90518 0.49324
 C551 C 0.72525 0.93427 0.49379
 C552 C 0.74990 0.94845 0.50002
 C553 C 0.77456 0.93429 0.50621
 C554 C 0.77406 0.90521 0.50664
 H555 H 0.76273 0.85806 0.45802
 H556 H 0.73723 0.85800 0.54183
 H557 H 0.70780 0.89324 0.48758
 H558 H 0.79201 0.89328 0.51228
 H559 H 0.75025 0.78041 0.50006
 H560 H 0.74991 0.97087 0.50005
 C561 C -0.02443 0.25726 0.34513
 C562 C -0.00033 0.25025 0.35943
 C563 C 0.02372 0.24322 0.34503
 C564 C 0.02417 0.24369 0.31602
 C565 C -0.00047 0.25023 0.30194
 C566 C -0.02504 0.25677 0.31612
 C567 C -0.00030 0.25019 0.38975
 C568 C -0.00731 0.22606 0.40409
 C569 C -0.00685 0.22552 0.43310
 C570 C -0.00040 0.25013 0.44723
 C571 C 0.00610 0.27478 0.43312
 C572 C 0.00666 0.27430 0.40412
 H573 H -0.04231 0.26309 0.35706
 H574 H 0.04163 0.23732 0.35688
 H575 H -0.01315 0.20813 0.39221
 H576 H 0.01253 0.29225 0.39226
 H577 H -0.00055 0.25017 0.27958
 H578 H -0.00042 0.25010 0.46959
 C579 C -0.02367 0.74308 0.15448
 C580 C 0.00047 0.74999 0.14013
 C581 C 0.02454 0.75702 0.15449
 C582 C 0.02503 0.75661 0.18351
 C583 C 0.00037 0.75018 0.19763
 C584 C -0.02426 0.74369 0.18349
 C585 C 0.00049 0.74998 0.10980
 C586 C -0.00659 0.77405 0.09543
 C587 C -0.00689 0.77439 0.06640
 C588 C 0.00109 0.75024 0.05229
 C589 C 0.00749 0.72557 0.06642
 C590 C 0.00751 0.72592 0.09544
 H591 H -0.04157 0.73720 0.14259
 H592 H 0.04246 0.76285 0.14260
 H593 H -0.01120 0.79233 0.10730
 H594 H 0.01324 0.70795 0.10733
 H595 H 0.00035 0.75023 0.21999
 H596 H 0.00191 0.75049 0.02995
 C597 C 0.47590 0.24267 0.65546
 C598 C 0.49997 0.24984 0.64110
 C599 C 0.52403 0.25692 0.65551
 C600 C 0.52459 0.25633 0.68454
 C601 C 0.49994 0.24971 0.69865
 C602 C 0.47532 0.24311 0.68450
 C603 C 0.50000 0.24993 0.61071
 C604 C 0.49300 0.27407 0.59635
 C605 C 0.49346 0.27466 0.56731
 C606 C 0.50008 0.25008 0.55317
 C607 C 0.50660 0.22542 0.56725
 C608 C 0.50705 0.22588 0.59629
 H609 H 0.45803 0.23673 0.64355
 H610 H 0.54190 0.26293 0.64363
 H611 H 0.48716 0.29198 0.60823
 H612 H 0.51294 0.20792 0.60812
 H613 H 0.49993 0.24970 0.72101
 H614 H 0.50012 0.25015 0.53081
 C615 C 0.47559 0.75713 0.84517
 C616 C 0.49968 0.75016 0.85953
 C617 C 0.52374 0.74310 0.84518
 C618 C 0.52427 0.74356 0.81617
 C619 C 0.49964 0.75001 0.80202
 C620 C 0.47501 0.75653 0.81615
 C621 C 0.49972 0.75018 0.88987
 C622 C 0.49279 0.72605 0.90426
 C623 C 0.49345 0.72547 0.93327
 C624 C 0.50001 0.75009 0.94737
 C625 C 0.50643 0.77476 0.93324
 C626 C 0.50679 0.77427 0.90421
 H627 H 0.45773 0.76307 0.85705
 H628 H 0.54162 0.73721 0.85708
 H629 H 0.48686 0.70814 0.89240
 H630 H 0.51261 0.79221 0.89231
 H631 H 0.49963 0.74998 0.77967
 H632 H 0.50011 0.75006 0.96973
 C633 C 0.09197 0.22525 0.26725
 C634 C 0.09950 0.22739 0.29795
 C635 C 0.07773 0.23350 0.31469
 C636 C 0.04997 0.23692 0.29918
 C637 C 0.05629 0.25915 0.27732
 C638 C 0.07800 0.25307 0.26061
 C639 C 0.06856 0.20384 0.26611
 C640 C 0.04671 0.20990 0.28272
 H641 H 0.12041 0.22520 0.30581
 H642 H 0.08091 0.23689 0.33652
 H643 H 0.04506 0.27851 0.27560
 H644 H 0.08493 0.26742 0.24489
 H645 H 0.06916 0.18540 0.25336
 H646 H 0.02873 0.19652 0.28421
 C647 C 0.59254 0.72578 0.76775
 C648 C 0.56929 0.70420 0.76637
 C649 C 0.54727 0.71003 0.78285
 C650 C 0.55022 0.73700 0.79944
 C651 C 0.57791 0.73373 0.81511
 C652 C 0.59984 0.72785 0.79851
 C653 C 0.57840 0.75351 0.76112
 C654 C 0.55652 0.75936 0.77769
 H655 H 0.57008 0.68582 0.75352
 H656 H 0.52936 0.69654 0.78415
 H657 H 0.58094 0.73704 0.83697
 H658 H 0.62071 0.72577 0.80649
 H659 H 0.58531 0.76794 0.74546
 H660 H 0.54513 0.77862 0.77593
 C661 C 0.40676 0.77440 0.76767
 C662 C 0.43006 0.79591 0.76622
 C663 C 0.45207 0.79004 0.78273
 C664 C 0.44907 0.76309 0.79939
 C665 C 0.42139 0.76644 0.81506
 C666 C 0.39946 0.77236 0.79843
 C667 C 0.42083 0.74662 0.76111
 C668 C 0.44271 0.74073 0.77770
 H669 H 0.42933 0.81426 0.75330
 H670 H 0.47002 0.80349 0.78398
 H671 H 0.41838 0.76322 0.83693
 H672 H 0.37861 0.77450 0.80642
 H673 H 0.41392 0.73222 0.74544
 H674 H 0.45410 0.72147 0.77594
 C675 C -0.09332 0.27422 0.26754
 C676 C -0.10058 0.27262 0.29838
 C677 C -0.07863 0.26690 0.31505
 C678 C -0.05100 0.26325 0.29939
 C679 C -0.05744 0.24059 0.27805
 C680 C -0.07932 0.24626 0.26141
 C681 C -0.06992 0.29566 0.26578
 C682 C -0.04793 0.28995 0.28235
 H683 H -0.12141 0.27485 0.30643
 H684 H -0.08162 0.26397 0.33697
 H685 H -0.04620 0.22121 0.27670
 H686 H -0.08637 0.23142 0.24622
 H687 H -0.07058 0.31387 0.25266
 H688 H -0.02996 0.30338 0.28343
 C689 C -0.09252 0.72606 0.23205
 C690 C -0.07836 0.75383 0.23850
 C691 C -0.05648 0.75964 0.22188
 C692 C -0.05022 0.73719 0.20026
 C693 C -0.04729 0.71030 0.21701
 C694 C -0.06930 0.70451 0.23355
 C695 C -0.09984 0.72799 0.20128
 C696 C -0.07791 0.73381 0.18462
 H697 H -0.08523 0.76829 0.25411
 H698 H -0.04505 0.77891 0.22353
 H699 H -0.02942 0.69680 0.21577
 H700 H -0.07010 0.68620 0.24652
 H701 H -0.12071 0.72581 0.19331
 H702 H -0.08092 0.73692 0.16272
 C703 C 0.40685 0.22514 0.73295
 C704 C 0.39965 0.22710 0.70212
 C705 C 0.42164 0.23301 0.68554
 C706 C 0.44930 0.23645 0.70124
 C707 C 0.44291 0.25886 0.72282
 C708 C 0.42098 0.25304 0.73938
 C709 C 0.43020 0.20368 0.73448
 C710 C 0.45224 0.20957 0.71800
 H711 H 0.37881 0.22500 0.69405
 H712 H 0.41865 0.23627 0.66366
 H713 H 0.45421 0.27822 0.72439
 H714 H 0.41401 0.26774 0.75471
 H715 H 0.42945 0.18531 0.74737
 H716 H 0.47016 0.19612 0.71680
 C717 C 0.59314 0.27394 0.73298
 C718 C 0.56987 0.29549 0.73453
 C719 C 0.54779 0.28973 0.71806
 C720 C 0.55062 0.26286 0.70130
 C721 C 0.57828 0.26622 0.68559
 C722 C 0.60030 0.27200 0.70215
 C723 C 0.57891 0.24611 0.73945
 C724 C 0.55694 0.24039 0.72291
 H725 H 0.57066 0.31380 0.74748
 H726 H 0.52990 0.30322 0.71690
 H727 H 0.58123 0.26305 0.66370
 H728 H 0.62113 0.27404 0.69404
 H729 H 0.58579 0.23144 0.75488
 H730 H 0.54551 0.22112 0.72458
 C731 C 0.09313 0.77457 0.23211
 C732 C 0.06985 0.79606 0.23347
 C733 C 0.04789 0.79016 0.21691
 C734 C 0.05093 0.76323 0.20028
 C735 C 0.07864 0.76665 0.18469
 C736 C 0.10052 0.77259 0.20137
 C737 C 0.07903 0.74676 0.23865
 C738 C 0.05720 0.74086 0.22200
 H739 H 0.07059 0.81442 0.24633
 H740 H 0.02996 0.80359 0.21559
 H741 H 0.08173 0.76344 0.16283
 H742 H 0.12140 0.77481 0.19344
 H743 H 0.08593 0.73233 0.25430
 H744 H 0.04582 0.72156 0.22370
 C745 C 0.26741 0.09264 0.22647
 C746 C 0.29826 0.09989 0.22828
 C747 C 0.31489 0.07795 0.23417
 C748 C 0.29914 0.05030 0.23771
 C749 C 0.27751 0.05673 0.26013
 C750 C 0.26090 0.07865 0.25426
 C751 C 0.26577 0.06927 0.20513
 C752 C 0.28229 0.04726 0.21096
 H753 H 0.30631 0.12075 0.22599
 H754 H 0.33683 0.08098 0.23724
 H755 H 0.27579 0.04531 0.27935
 H756 H 0.24519 0.08558 0.26859
 H757 H 0.25271 0.06999 0.18692
 H758 H 0.28341 0.02927 0.19760
 C759 C 0.76748 0.59300 0.72616
 C760 C 0.76603 0.56973 0.70470
 C761 C 0.78257 0.54775 0.71053
 C762 C 0.79926 0.55074 0.73740
 C763 C 0.81496 0.57844 0.73404
 C764 C 0.79830 0.60035 0.72815
 C765 C 0.76086 0.57890 0.75385
 C766 C 0.77751 0.55702 0.75973
 H767 H 0.75313 0.57052 0.68638
 H768 H 0.78387 0.52985 0.69708
 H769 H 0.83688 0.58150 0.73721
 H770 H 0.80631 0.62123 0.72592
 H771 H 0.74512 0.58579 0.76817
 H772 H 0.77578 0.54557 0.77893
 C773 C 0.76708 0.40721 0.77372
 C774 C 0.76562 0.43044 0.79522
 C775 C 0.78225 0.45243 0.78950
 C776 C 0.79904 0.44948 0.76270
 C777 C 0.81464 0.42176 0.76607
 C778 C 0.79790 0.39985 0.77185
 C779 C 0.76061 0.42136 0.74603
 C780 C 0.77735 0.44325 0.74027
 H781 H 0.75263 0.42963 0.81347
 H782 H 0.78351 0.47032 0.80297
 H783 H 0.83657 0.41871 0.76301
 H784 H 0.80584 0.37897 0.77409
 H785 H 0.74487 0.41453 0.73166
 H786 H 0.77569 0.45478 0.72111
 C787 C 0.26712 -0.09342 0.27431
 C788 C 0.26562 -0.07009 0.29575
 C789 C 0.28222 -0.04808 0.28999
 C790 C 0.29903 -0.05103 0.26321
 C791 C 0.31468 -0.07871 0.26660
 C792 C 0.29800 -0.10067 0.27239
 C793 C 0.26067 -0.07925 0.24653
 C794 C 0.27737 -0.05732 0.24079
 H795 H 0.25257 -0.07078 0.31397
 H796 H 0.28343 -0.03015 0.30341
 H797 H 0.33660 -0.08174 0.26347
 H798 H 0.30604 -0.12154 0.27447
 H799 H 0.24511 -0.08608 0.23198
 H800 H 0.27576 -0.04587 0.22158
 C801 C 0.23275 -0.09369 0.72498
 C802 C 0.23428 -0.07052 0.70331
 C803 C 0.21771 -0.04848 0.70887
 C804 C 0.20093 -0.05125 0.73569
 C805 C 0.18521 -0.07896 0.73253
 C806 C 0.20186 -0.10095 0.72695
 C807 C 0.23923 -0.07933 0.75261
 C808 C 0.22258 -0.05739 0.75815
 H809 H 0.24723 -0.07139 0.68503
 H810 H 0.21647 -0.03068 0.69525
 H811 H 0.16325 -0.08194 0.73549
 H812 H 0.19376 -0.12182 0.72488
 H813 H 0.25480 -0.08604 0.76721
 H814 H 0.22425 -0.04578 0.77725
 C815 C 0.73325 0.40709 0.22645
 C816 C 0.70244 0.39967 0.22839
 C817 C 0.68571 0.42152 0.23423
 C818 C 0.70133 0.44926 0.23760
 C819 C 0.72306 0.44301 0.25998
 C820 C 0.73978 0.42117 0.25415
 C821 C 0.73468 0.43041 0.20499
 C822 C 0.71807 0.45234 0.21078
 H823 H 0.69450 0.37876 0.22623
 H824 H 0.66381 0.41840 0.23743
 H825 H 0.72475 0.45446 0.27916
 H826 H 0.75556 0.41434 0.26848
 H827 H 0.74768 0.42971 0.18675
 H828 H 0.71680 0.47028 0.19734
 C829 C 0.73281 0.59282 0.27418
 C830 C 0.73949 0.57875 0.24651
 C831 C 0.72286 0.55683 0.24063
 C832 C 0.70106 0.55049 0.26291
 C833 C 0.71769 0.54751 0.28982
 C834 C 0.73422 0.56953 0.29567
 C835 C 0.70199 0.60009 0.27211
 C836 C 0.68535 0.57815 0.26620
 H837 H 0.75528 0.58565 0.23223
 H838 H 0.72465 0.54538 0.22146
 H839 H 0.71640 0.52958 0.30327
 H840 H 0.74710 0.57032 0.31399
 H841 H 0.69398 0.62095 0.27428
 H842 H 0.66344 0.58116 0.26295
 C843 C 0.23100 0.09337 0.77459
 C844 C 0.24289 0.06648 0.78653
 C845 C 0.22731 0.04365 0.78107
 C846 C 0.20122 0.04950 0.76370
 C847 C 0.18588 0.07181 0.78055
 C848 C 0.20130 0.09472 0.78593
 C849 C 0.22735 0.08769 0.74364
 C850 C 0.21192 0.06481 0.73800
 H851 H 0.26158 0.06559 0.79889
 H852 H 0.23269 0.02341 0.78916
 H853 H 0.16533 0.06953 0.78915
 H854 H 0.19310 0.11184 0.79783
 H855 H 0.23595 0.10068 0.72751
 H856 H 0.20745 0.05830 0.71704
 C857 C 0.22505 0.26762 0.09193
 C858 C 0.25284 0.26105 0.07795
 C859 C 0.25885 0.27782 0.05623
 C860 C 0.23657 0.29966 0.04996
 C861 C 0.20960 0.28305 0.04680
 C862 C 0.20362 0.26638 0.06864
 C863 C 0.22715 0.29841 0.09941
 C864 C 0.23318 0.31521 0.07765
 H865 H 0.26722 0.24536 0.08489
 H866 H 0.27819 0.27621 0.04498
 H867 H 0.19619 0.28449 0.02890
 H868 H 0.18524 0.25350 0.06930
 H869 H 0.22498 0.30629 0.12027
 H870 H 0.23650 0.33711 0.08082
 C871 C 0.72606 0.76843 0.59265
 C872 C 0.70464 0.76683 0.56938
 C873 C 0.71046 0.78340 0.54743
 C874 C 0.73729 0.80024 0.55047
 C875 C 0.73379 0.81597 0.57804
 C876 C 0.72791 0.79929 0.59992
 C877 C 0.75390 0.76197 0.57872
 C878 C 0.75976 0.77863 0.55688
 H879 H 0.68639 0.75375 0.57010
 H880 H 0.69703 0.78459 0.52953
 H881 H 0.73698 0.83791 0.58107
 H882 H 0.72574 0.80728 0.62074
 H883 H 0.76837 0.74640 0.58575
 H884 H 0.77910 0.77708 0.54563
 C885 C 0.77425 0.76844 0.40743
 C886 C 0.77233 0.79929 0.40008
 C887 C 0.76643 0.81596 0.42193
 C888 C 0.76299 0.80025 0.44955
 C889 C 0.74058 0.77852 0.44323
 C890 C 0.74646 0.76187 0.42142
 C891 C 0.79571 0.76697 0.43069
 C892 C 0.78986 0.78353 0.45260
 H893 H 0.77450 0.80729 0.37925
 H894 H 0.76327 0.83790 0.41886
 H895 H 0.72130 0.77682 0.45457
 H896 H 0.73204 0.74617 0.41450
 H897 H 0.81397 0.75395 0.42999
 H898 H 0.80328 0.78475 0.47052
 C899 C 0.27396 0.26854 -0.09322
 C900 C 0.24607 0.26196 -0.07937
 C901 C 0.24013 0.27849 -0.05749
 C902 C 0.26257 0.30012 -0.05094
 C903 C 0.28939 0.28331 -0.04788
 C904 C 0.29530 0.26687 -0.06987
 C905 C 0.27213 0.29943 -0.10039
 C906 C 0.26615 0.31598 -0.07847
 H907 H 0.23161 0.24639 -0.08645
 H908 H 0.22077 0.27683 -0.04629
 H909 H 0.30272 0.28438 -0.02989
 H910 H 0.31352 0.25381 -0.07055
 H911 H 0.27429 0.30752 -0.12118
 H912 H 0.26283 0.33791 -0.08145
 C913 C 0.72611 0.23187 -0.09264
 C914 C 0.75389 0.23867 -0.07869
 C915 C 0.75990 0.22210 -0.05681
 C916 C 0.73765 0.20021 -0.05040
 C917 C 0.71067 0.21676 -0.04739
 C918 C 0.70469 0.23324 -0.06936
 C919 C 0.72827 0.20103 -0.09988
 C920 C 0.73431 0.18444 -0.07797
 H921 H 0.76818 0.25446 -0.08567
 H922 H 0.77916 0.22398 -0.04546
 H923 H 0.69732 0.21554 -0.02943
 H924 H 0.68637 0.24617 -0.07007
 H925 H 0.72623 0.19299 -0.12069
 H926 H 0.73777 0.16254 -0.08097
 C927 C 0.22618 0.73152 0.40735
 C928 C 0.25402 0.73790 0.42131
 C929 C 0.25991 0.72108 0.44302
 C930 C 0.23746 0.69937 0.44932
 C931 C 0.21063 0.71616 0.45250
 C932 C 0.20478 0.73289 0.43067
 C933 C 0.22796 0.70069 0.39988
 C934 C 0.23385 0.68384 0.42165
 H935 H 0.26846 0.75361 0.41445
 H936 H 0.27922 0.72266 0.45431
 H937 H 0.19716 0.71475 0.47037
 H938 H 0.18647 0.74585 0.43001
 H939 H 0.22548 0.69282 0.37905
 H940 H 0.23665 0.66187 0.41857
 C941 C 0.27355 0.73146 0.59249
 C942 C 0.27176 0.70060 0.59985
 C943 C 0.26608 0.68385 0.57798
 C944 C 0.26272 0.69950 0.55032
 C945 C 0.24014 0.72107 0.55649
 C946 C 0.24579 0.73779 0.57833
 C947 C 0.29511 0.73308 0.56935
 C948 C 0.28950 0.71646 0.54742
 H949 H 0.27381 0.69264 0.62070
 H950 H 0.26297 0.66190 0.58104
 H951 H 0.22094 0.72264 0.54500
 H952 H 0.23127 0.75340 0.58517
 H953 H 0.31327 0.74628 0.57012
 H954 H 0.30299 0.71540 0.52955
 C955 C 0.77500 0.23203 0.09266
 C956 C 0.77304 0.20118 0.10001
 C957 C 0.76711 0.18450 0.07817
 C958 C 0.76368 0.20021 0.05054
 C959 C 0.74130 0.22191 0.05687
 C960 C 0.74721 0.23857 0.07867
 C961 C 0.79645 0.23351 0.06940
 C962 C 0.79058 0.21695 0.04748
 H963 H 0.77525 0.19319 0.12084
 H964 H 0.76390 0.16256 0.08123
 H965 H 0.72200 0.22356 0.04557
 H966 H 0.73280 0.25423 0.08561
 H967 H 0.81478 0.24647 0.07013
 H968 H 0.80402 0.21568 0.02960
 C969 C 0.47523 0.34262 0.51842
 C970 C 0.50322 0.32884 0.51219
 C971 C 0.50920 0.30708 0.52894
 C972 C 0.48672 0.30054 0.55046
 C973 C 0.48288 0.32824 0.56596
 C974 C 0.47687 0.35006 0.54917
 C975 C 0.45402 0.31906 0.51691
 C976 C 0.45998 0.29717 0.53356
 H977 H 0.51773 0.33589 0.49668
 H978 H 0.52860 0.29591 0.52744
 H979 H 0.48576 0.33134 0.58787
 H980 H 0.47433 0.37092 0.55703
 H981 H 0.43577 0.31957 0.50388
 H982 H 0.44671 0.27908 0.53480
 C983 C -0.02523 0.84317 0.01892
 C984 C 0.00554 0.83546 0.01986
 C985 C 0.01116 0.81304 0.03588
 C986 C -0.01437 0.80015 0.04978
 C987 C -0.02805 0.82439 0.06544
 C988 C -0.03343 0.84683 0.04936
 C989 C -0.04012 0.81669 0.00976
 C990 C -0.03461 0.79430 0.02590
 H991 H 0.02167 0.84689 0.00926
 H992 H 0.03204 0.80537 0.03876
 H993 H -0.03470 0.82390 0.08675
 H994 H -0.04341 0.86516 0.05756
 H995 H -0.05418 0.81574 -0.00767
 H996 H -0.04421 0.77431 0.02228
 C997 C 0.02504 0.65758 0.01766
 C998 C 0.04674 0.68073 0.01642
 C999 C 0.04101 0.70267 0.03305
 C1000 C 0.01403 0.69972 0.04961
 C1001 C -0.00833 0.69368 0.02782
 C1002 C -0.00258 0.67189 0.01111
 C1003 C 0.02292 0.65005 0.04838
 C1004 C 0.01715 0.67190 0.06512
 H1005 H 0.06513 0.67990 0.00362
 H1006 H 0.05461 0.72049 0.03450
 H1007 H -0.02749 0.70522 0.02610
 H1008 H -0.01700 0.66519 -0.00464
 H1009 H 0.02500 0.62911 0.05625
 H1010 H 0.01394 0.66875 0.08698
 C1011 C 0.52436 0.15744 0.51836
 C1012 C 0.54593 0.18072 0.51710
 C1013 C 0.54011 0.20262 0.53375
 C1014 C 0.51317 0.19955 0.55037
 C1015 C 0.49081 0.19339 0.52860
 C1016 C 0.49666 0.17163 0.51186
 C1017 C 0.52232 0.14991 0.54909
 C1018 C 0.51647 0.17174 0.56586
 H1019 H 0.56429 0.18000 0.50425
 H1020 H 0.55363 0.22051 0.53518
 H1021 H 0.47159 0.20483 0.52690
 H1022 H 0.48227 0.16487 0.49612
 H1023 H 0.52449 0.12898 0.55695
 H1024 H 0.51332 0.16861 0.58773
 C1025 C -0.02452 0.15751 0.48195
 C1026 C 0.00327 0.17163 0.48830
 C1027 C 0.00909 0.19342 0.47155
 C1028 C -0.01339 0.19963 0.44993
 C1029 C -0.01687 0.17189 0.43443
 C1030 C -0.02270 0.15003 0.45122
 C1031 C -0.04601 0.18079 0.48336
 C1032 C -0.04022 0.20272 0.46669
 H1033 H 0.01775 0.16479 0.50393
 H1034 H 0.02836 0.20483 0.47312
 H1035 H -0.01384 0.16879 0.41254
 H1036 H -0.02499 0.12912 0.44337
 H1037 H -0.06430 0.18006 0.49632
 H1038 H -0.05368 0.22063 0.46537
 C1039 C 0.47582 0.65732 0.98201
 C1040 C 0.47764 0.64992 0.95125
 C1041 C 0.48347 0.67182 0.93452
 C1042 C 0.48695 0.69954 0.95008
 C1043 C 0.46012 0.70257 0.96687
 C1044 C 0.45434 0.68060 0.98348
 C1045 C 0.50362 0.67143 0.98839
 C1046 C 0.50943 0.69327 0.97168
 H1047 H 0.47539 0.62903 0.94335
 H1048 H 0.48649 0.66878 0.91262
 H1049 H 0.44667 0.72049 0.96559
 H1050 H 0.43608 0.67986 0.99648
 H1051 H 0.51808 0.66456 1.00401
 H1052 H 0.52870 0.70468 0.97328
 C1053 C 0.52433 0.84276 0.98201
 C1054 C 0.54575 0.81941 0.98344
 C1055 C 0.53990 0.79750 0.96680
 C1056 C 0.51306 0.80064 0.95005
 C1057 C 0.49062 0.80691 0.97168
 C1058 C 0.49651 0.82869 0.98840
 C1059 C 0.52249 0.85024 0.95126
 C1060 C 0.51660 0.82839 0.93451
 H1061 H 0.56404 0.82008 0.99641
 H1062 H 0.55332 0.77956 0.96549
 H1063 H 0.47135 0.79551 0.97333
 H1064 H 0.48209 0.83552 1.00407
 H1065 H 0.52485 0.87113 0.94336
 H1066 H 0.51370 0.83148 0.91260
 C1067 C 0.02380 0.34268 0.48199
 C1068 C 0.04530 0.31941 0.48336
 C1069 C 0.03949 0.29752 0.46669
 C1070 C 0.01263 0.30062 0.44997
 C1071 C -0.00981 0.30678 0.47163
 C1072 C -0.00398 0.32853 0.48838
 C1073 C 0.02191 0.35023 0.45126
 C1074 C 0.01606 0.32841 0.43448
 H1075 H 0.06359 0.32008 0.49633
 H1076 H 0.05293 0.27959 0.46535
 H1077 H -0.02908 0.29535 0.47324
 H1078 H -0.01841 0.33530 0.50406
 H1079 H 0.02413 0.37116 0.44342
 H1080 H 0.01295 0.33155 0.41260
 C1081 C 0.34346 0.51878 0.47406
 C1082 C 0.34153 0.54645 0.45834
 C1083 C 0.31840 0.56131 0.46418
 C1084 C 0.29927 0.54759 0.48563
 C1085 C 0.29330 0.51884 0.47303
 C1086 C 0.31634 0.50381 0.46731
 C1087 C 0.34102 0.52682 0.50459
 C1088 C 0.31797 0.54178 0.51062
 H1089 H 0.35660 0.55378 0.44351
 H1090 H 0.31379 0.58049 0.45351
 H1091 H 0.27288 0.51141 0.46744
 H1092 H 0.31535 0.48359 0.45760
 H1093 H 0.35619 0.52132 0.52015
 H1094 H 0.31346 0.54897 0.53135
 C1095 C 0.84315 0.01762 -0.02399
 C1096 C 0.85045 0.04848 -0.02223
 C1097 C 0.82858 0.06513 -0.01626
 C1098 C 0.80097 0.04938 -0.01260
 C1099 C 0.79776 0.03252 -0.03933
 C1100 C 0.81970 0.01598 -0.04523
 C1101 C 0.82933 0.01110 0.00387
 C1102 C 0.80748 0.02775 0.00982
 H1103 H 0.87129 0.05650 -0.02454
 H1104 H 0.83166 0.08706 -0.01311
 H1105 H 0.77969 0.03361 -0.05257
 H1106 H 0.82028 0.00285 -0.06338
 H1107 H 0.83634 -0.00458 0.01823
 H1108 H 0.79621 0.02609 0.02912
 C1109 C 0.65771 0.01721 0.02423
 C1110 C 0.65033 0.04803 0.02215
 C1111 C 0.67220 0.06476 0.01622
 C1112 C 0.69989 0.04915 0.01293
 C1113 C 0.70293 0.03249 0.03983
 C1114 C 0.68098 0.01587 0.04569
 C1115 C 0.67180 0.01059 -0.00345
 C1116 C 0.69365 0.02732 -0.00935
 H1117 H 0.62946 0.05596 0.02429
 H1118 H 0.66910 0.08667 0.01291
 H1119 H 0.72088 0.03377 0.05322
 H1120 H 0.68027 0.00290 0.06398
 H1121 H 0.66499 -0.00527 -0.01770
 H1122 H 0.70514 0.02554 -0.02850
 C1123 C 0.15642 0.51759 0.52450
 C1124 C 0.17055 0.51126 0.49682
 C1125 C 0.19254 0.52787 0.49132
 C1126 C 0.19891 0.54927 0.51399
 C1127 C 0.17141 0.56515 0.51743
 C1128 C 0.14934 0.54852 0.52291
 C1129 C 0.17953 0.51566 0.54609
 C1130 C 0.20164 0.53219 0.54066
 H1131 H 0.16366 0.49570 0.48228
 H1132 H 0.20408 0.52632 0.47217
 H1133 H 0.16867 0.58722 0.51497
 H1134 H 0.12856 0.55664 0.52530
 H1135 H 0.17856 0.50247 0.56421
 H1136 H 0.21942 0.53327 0.55429
 C1137 C 0.15732 0.48272 -0.02397
 C1138 C 0.17126 0.48918 0.00382
 C1139 C 0.19309 0.47248 0.00970
 C1140 C 0.19946 0.45085 -0.01273
 C1141 C 0.17180 0.43516 -0.01628
 C1142 C 0.14995 0.45187 -0.02217
 C1143 C 0.18068 0.48432 -0.04532
 C1144 C 0.20261 0.46771 -0.03948
 H1145 H 0.16433 0.50487 0.01818
 H1146 H 0.20445 0.47409 0.02895
 H1147 H 0.16870 0.41322 -0.01317
 H1148 H 0.12909 0.44390 -0.02445
 H1149 H 0.18004 0.49743 -0.06351
 H1150 H 0.22060 0.46656 -0.05282
 C1151 C 0.65731 0.98304 0.47616
 C1152 C 0.64990 0.95220 0.47800
 C1153 C 0.67173 0.93546 0.48387
 C1154 C 0.69941 0.95111 0.48737
 C1155 C 0.70255 0.96794 0.46059
 C1156 C 0.68065 0.98458 0.45478
 C1157 C 0.67130 0.98950 0.50393
 C1158 C 0.69310 0.97276 0.50979
 H1159 H 0.62902 0.94425 0.47577
 H1160 H 0.66861 0.91352 0.48701
 H1161 H 0.72050 0.96672 0.44721
 H1162 H 0.68000 0.99766 0.43657
 H1163 H 0.66440 1.00520 0.51829
 H1164 H 0.70447 0.97435 0.52904
 C1165 C 0.84250 0.98309 0.52400
 C1166 C 0.82860 0.98957 0.49618
 C1167 C 0.80678 0.97283 0.49028
 C1168 C 0.80039 0.95115 0.51270
 C1169 C 0.82804 0.93552 0.51628
 C1170 C 0.84988 0.95226 0.52220
 C1171 C 0.81912 0.98460 0.54531
 C1172 C 0.79721 0.96795 0.53945
 H1173 H 0.83554 1.00532 0.48184
 H1174 H 0.79544 0.97446 0.47102
 H1175 H 0.83115 0.91358 0.51321
 H1176 H 0.87074 0.94433 0.52452
 H1177 H 0.81973 0.99768 0.56350
 H1178 H 0.77920 0.96673 0.55277
 C1179 C 0.34265 0.48277 0.02407
 C1180 C 0.32860 0.48944 -0.00362
 C1181 C 0.30676 0.47273 -0.00955
 C1182 C 0.30049 0.45087 0.01274
 C1183 C 0.32816 0.43524 0.01606
 C1184 C 0.35003 0.45195 0.02201
 C1185 C 0.31936 0.48409 0.04551
 C1186 C 0.29743 0.46748 0.03963
 H1187 H 0.33546 0.50530 -0.01789
 H1188 H 0.29533 0.47450 -0.02875
 H1189 H 0.33126 0.41334 0.01273
 H1190 H 0.37091 0.44402 0.02413
 H1191 H 0.32007 0.49702 0.06380
 H1192 H 0.27948 0.46614 0.05302
 C1193 C 0.51863 0.47536 0.34257
 C1194 C 0.54943 0.47746 0.34990
 C1195 C 0.56608 0.48352 0.32806
 C1196 C 0.55038 0.48689 0.30044
 C1197 C 0.53374 0.45991 0.29739
 C1198 C 0.51721 0.45394 0.31930
 C1199 C 0.51198 0.50319 0.32858
 C1200 C 0.52861 0.50920 0.30678
 H1201 H 0.55739 0.47544 0.37076
 H1202 H 0.58794 0.48708 0.33115
 H1203 H 0.53496 0.44656 0.27943
 H1204 H 0.50423 0.43561 0.31998
 H1205 H 0.49632 0.51758 0.33553
 H1206 H 0.52692 0.52855 0.29551
 C1207 C 0.01817 -0.02453 0.84211
 C1208 C 0.01668 -0.04586 0.81875
 C1209 C 0.03333 -0.03993 0.79690
 C1210 C 0.05015 -0.01307 0.80009
 C1211 C 0.02849 0.00936 0.80647
 C1212 C 0.01175 0.00337 0.82821
 C1213 C 0.04898 -0.02267 0.84951
 C1214 C 0.06574 -0.01667 0.82772
 H1215 H 0.00358 -0.06411 0.81932
 H1216 H 0.03454 -0.05325 0.77893
 H1217 H 0.02693 0.02874 0.79524
 H1218 H -0.00390 0.01779 0.83514
 H1219 H 0.05688 -0.02489 0.87036
 H1220 H 0.08766 -0.01345 0.83082
 C1221 C 0.01792 0.02410 0.65738
 C1222 C 0.01138 -0.00374 0.67137
 C1223 C 0.02818 -0.00971 0.69307
 C1224 C 0.04999 0.01267 0.69928
 C1225 C 0.06549 0.01615 0.67158
 C1226 C 0.04868 0.02213 0.64985
 C1227 C 0.01664 0.04551 0.68068
 C1228 C 0.03334 0.03959 0.70247
 H1229 H -0.00439 -0.01811 0.66453
 H1230 H 0.02653 -0.02903 0.70438
 H1231 H 0.08738 0.01293 0.66838
 H1232 H 0.05652 0.02433 0.62897
 H1233 H 0.00365 0.06381 0.68009
 H1234 H 0.03471 0.05297 0.72040
 C1235 C 0.51822 0.52396 0.15753
 C1236 C 0.51168 0.49614 0.17156
 C1237 C 0.52841 0.49024 0.19332
 C1238 C 0.55018 0.51266 0.19956
 C1239 C 0.56576 0.51610 0.17189
 C1240 C 0.54901 0.52201 0.15009
 C1241 C 0.51684 0.54542 0.18077
 C1242 C 0.53348 0.53956 0.20264
 H1243 H 0.49594 0.48174 0.16470
 H1244 H 0.52674 0.47095 0.20469
 H1245 H 0.58767 0.51290 0.16877
 H1246 H 0.55691 0.52418 0.12924
 H1247 H 0.50382 0.56369 0.18011
 H1248 H 0.53475 0.55296 0.22056
 C1249 C 0.48204 -0.02414 0.15760
 C1250 C 0.45123 -0.02215 0.15023
 C1251 C 0.43452 -0.01629 0.17206
 C1252 C 0.45015 -0.01293 0.19971
 C1253 C 0.46685 -0.03984 0.20274
 C1254 C 0.48344 -0.04565 0.18084
 C1255 C 0.48861 0.00364 0.17165
 C1256 C 0.47192 0.00949 0.19345
 H1257 H 0.44328 -0.02427 0.12938
 H1258 H 0.41260 -0.01309 0.16900
 H1259 H 0.46563 -0.05328 0.22065
 H1260 H 0.49647 -0.06391 0.18015
 H1261 H 0.50438 0.01803 0.16480
 H1262 H 0.47367 0.02873 0.20486
 C1263 C 0.98161 0.47576 0.65759
 C1264 C 0.98297 0.45430 0.68086
 C1265 C 0.96645 0.46025 0.70276
 C1266 C 0.94989 0.48723 0.69968
 C1267 C 0.97173 0.50955 0.69334
 C1268 C 0.98835 0.50356 0.67154
 C1269 C 0.95081 0.47788 0.65024
 C1270 C 0.93418 0.48389 0.67207
 H1271 H 0.99592 0.43598 0.68021
 H1272 H 0.96519 0.44687 0.72073
 H1273 H 0.97350 0.52886 0.70462
 H1274 H 1.00409 0.51791 0.66458
 H1275 H 0.94285 0.47586 0.62939
 H1276 H 0.91231 0.48737 0.66899
 C1277 C 0.98217 0.52420 0.84246
 C1278 C 0.98351 0.54569 0.81919
 C1279 C 0.96685 0.53981 0.79736
 C1280 C 0.95018 0.51286 0.80049
 C1281 C 0.97195 0.49049 0.80672
 C1282 C 0.98871 0.49641 0.82845
 C1283 C 0.95139 0.52216 0.84993
 C1284 C 0.93462 0.51621 0.82816
 H1285 H 0.99651 0.56401 0.81983
 H1286 H 0.96552 0.55325 0.77945
 H1287 H 0.97358 0.47119 0.79540
 H1288 H 1.00445 0.48204 0.83530
 H1289 H 0.94352 0.52424 0.87081
 H1290 H 0.91274 0.51286 0.83132
 C1291 C 0.48204 0.02408 0.34270
 C1292 C 0.45123 0.02214 0.35008
 C1293 C 0.43451 0.01615 0.32828
 C1294 C 0.45014 0.01263 0.30065
 C1295 C 0.46690 0.03953 0.29748
 C1296 C 0.48350 0.04547 0.31935
 C1297 C 0.48855 -0.00378 0.32882
 C1298 C 0.47186 -0.00975 0.30705
 H1299 H 0.44330 0.02437 0.37091
 H1300 H 0.41260 0.01296 0.33137
 H1301 H 0.46569 0.05288 0.27949
 H1302 H 0.49657 0.06374 0.31994
 H1303 H 0.50424 -0.01815 0.33578
 H1304 H 0.47351 -0.02908 0.29578
   
