data_POSCAR
  _audit_creation_date              2014-09-24
  _audit_creation_method            'ToBaCCo'
  _symmetry_space_group_name_H-M    'P1'
  _symmetry_Int_Tables_number       1
  _symmetry_cell_setting            triclinic
  loop_
  _symmetry_equiv_pos_as_xyz
 x,y,z
_cell_length_a 39.5060
_cell_length_b 39.8144
_cell_length_c 48.6449
_cell_angle_alpha 89.945500
_cell_angle_beta 89.971000
_cell_angle_gamma 90.026600
loop_
  _atom_site_label
  _atom_site_type_symbol
  _atom_site_fract_x
  _atom_site_fract_y
  _atom_site_fract_z
Zr1 Zr 0.24595 0.25093 0.29733
 O2 O 0.27243 0.27807 0.32795
 O3 O 0.21113 0.22355 0.32092
 O4 O 0.21366 0.28508 0.31745
 O5 O 0.30532 0.18737 0.29119
 O6 O 0.18875 0.31457 0.28256
 O7 O 0.27558 0.21879 0.32219
 O8 O 0.17948 0.19622 0.28862
 O9 O 0.20243 0.25345 0.27284
 O10 O 0.24375 0.20573 0.27562
 O11 O 0.25220 0.29371 0.27236
 O12 O 0.29215 0.24791 0.27566
 Zr13 Zr 0.25205 0.24719 0.20162
 Zr14 Zr 0.20984 0.29444 0.24642
 Zr15 Zr 0.28803 0.20366 0.25245
 Zr16 Zr 0.20156 0.20900 0.25032
 O17 O 0.34159 0.20377 0.25317
 O18 O 0.14951 0.22164 0.24799
 O19 O 0.24567 0.20399 0.22636
 O20 O 0.20626 0.25004 0.22359
 O21 O 0.25424 0.29277 0.22295
 O22 O 0.29515 0.24474 0.22648
 C23 C 0.18694 0.20395 0.31360
 C24 C 0.29728 0.19593 0.31583
 C25 C 0.19341 0.30765 0.30809
 O26 O 0.15650 0.29426 0.24250
 O27 O 0.19621 0.31380 0.20755
 O28 O 0.22481 0.28118 0.17672
 C29 C 0.20443 0.30522 0.18294
 O30 O 0.31842 0.30816 0.28539
 Zr31 Zr 0.29626 0.28918 0.24875
 O32 O 0.28708 0.27476 0.17822
 O33 O 0.21831 0.34691 0.24697
 O34 O 0.29197 0.34223 0.24714
 O35 O 0.34893 0.27885 0.24908
 O36 O 0.31609 0.30488 0.21048
 C37 C 0.30958 0.29628 0.18555
 O38 O 0.22416 0.22188 0.17077
 O39 O 0.27947 0.15127 0.25500
 O40 O 0.28150 0.21070 0.18140
 O41 O 0.30488 0.18003 0.21630
 O42 O 0.20344 0.15594 0.25393
 O43 O 0.18243 0.18607 0.21407
 C44 C 0.29997 0.18669 0.19077
 H45 H 0.24202 0.18574 0.28765
 H46 H 0.18662 0.25053 0.21096
 H47 H 0.31640 0.24213 0.21591
 H48 H 0.25353 0.31436 0.28363
 H49 H 0.13641 0.20149 0.25348
 H50 H 0.14916 0.31806 0.24227
 H51 H 0.19588 0.35775 0.24488
 H52 H 0.31461 0.35133 0.24250
 H53 H 0.18025 0.14806 0.25828
 H54 H 0.30197 0.14050 0.25684
 H55 H 0.34886 0.17996 0.25360
 H56 H 0.36086 0.29992 0.24416
 H57 H 0.16166 0.17326 0.21856
 H58 H 0.23409 0.22828 0.15277
 H59 H 0.26273 0.27143 0.34597
 H60 H 0.33516 0.32577 0.28069
 Zr61 Zr 0.75391 0.74855 0.29742
 O62 O 0.72765 0.72118 0.32808
 O63 O 0.78854 0.77617 0.32097
 O64 O 0.78644 0.71459 0.31753
 O65 O 0.69403 0.81164 0.29127
 O66 O 0.81155 0.68533 0.28263
 O67 O 0.72401 0.78042 0.32228
 O68 O 0.81998 0.80376 0.28864
 O69 O 0.79745 0.74638 0.27290
 O70 O 0.75578 0.79379 0.27568
 O71 O 0.74799 0.70576 0.27248
 O72 O 0.70770 0.75124 0.27577
 Zr73 Zr 0.74780 0.75234 0.20170
 Zr74 Zr 0.79035 0.70537 0.24650
 Zr75 Zr 0.71149 0.79555 0.25254
 Zr76 Zr 0.79800 0.79087 0.25036
 O77 O 0.65794 0.79505 0.25326
 O78 O 0.85014 0.77861 0.24800
 O79 O 0.75386 0.79556 0.22641
 O80 O 0.79360 0.74983 0.22365
 O81 O 0.74594 0.70672 0.22305
 O82 O 0.70468 0.75446 0.22659
 C83 C 0.81258 0.79595 0.31363
 C84 C 0.70213 0.80312 0.31591
 C85 C 0.80684 0.69218 0.30816
 O86 O 0.84370 0.70596 0.24258
 O87 O 0.80421 0.68620 0.20764
 O88 O 0.77534 0.71861 0.17680
 C89 C 0.79595 0.69476 0.18302
 O90 O 0.68190 0.69073 0.28555
 Zr91 Zr 0.70389 0.70999 0.24889
 O92 O 0.71292 0.72456 0.17834
 O93 O 0.78227 0.65285 0.24706
 O94 O 0.70860 0.65697 0.24727
 O95 O 0.65116 0.71996 0.24931
 O96 O 0.68411 0.69424 0.21065
 C97 C 0.69054 0.70291 0.18571
 O98 O 0.77549 0.77787 0.17079
 O99 O 0.71965 0.84800 0.25508
 O100 O 0.71814 0.78869 0.18149
 O101 O 0.69454 0.81915 0.21639
 O102 O 0.79568 0.84391 0.25392
 O103 O 0.81697 0.81399 0.21408
 C104 C 0.69952 0.81257 0.19086
 H105 H 0.75735 0.81378 0.28770
 H106 H 0.81325 0.74951 0.21101
 H107 H 0.68342 0.75695 0.21603
 H108 H 0.74680 0.68508 0.28376
 H109 H 0.86308 0.79886 0.25346
 H110 H 0.85122 0.68222 0.24236
 H111 H 0.80478 0.64217 0.24497
 H112 H 0.68603 0.64771 0.24266
 H113 H 0.81880 0.85196 0.25827
 H114 H 0.69707 0.85860 0.25693
 H115 H 0.65049 0.81881 0.25367
 H116 H 0.63936 0.69882 0.24440
 H117 H 0.83763 0.82696 0.21856
 H118 H 0.76559 0.77143 0.15281
 H119 H 0.73730 0.72787 0.34609
 H120 H 0.66528 0.67302 0.28086
 Zr121 Zr 0.75372 0.25103 -0.29735
 O122 O 0.72748 0.27824 -0.32808
 O123 O 0.78840 0.22338 -0.32083
 O124 O 0.78626 0.28494 -0.31753
 O125 O 0.69389 0.18786 -0.29105
 O126 O 0.81131 0.31437 -0.28270
 O127 O 0.72390 0.21899 -0.32214
 O128 O 0.81982 0.19596 -0.28842
 O129 O 0.79723 0.25336 -0.27283
 O130 O 0.75560 0.20587 -0.27550
 O131 O 0.74774 0.29390 -0.27251
 O132 O 0.70748 0.24836 -0.27571
 Zr133 Zr 0.74750 0.24760 -0.20163
 Zr134 Zr 0.79006 0.29445 -0.24653
 Zr135 Zr 0.71129 0.20414 -0.25236
 Zr136 Zr 0.79778 0.20896 -0.25018
 O137 O 0.65773 0.20457 -0.25308
 O138 O 0.84991 0.22131 -0.24785
 O139 O 0.75361 0.20430 -0.22623
 O140 O 0.79333 0.25009 -0.22357
 O141 O 0.74563 0.29313 -0.22309
 O142 O 0.70441 0.24531 -0.22651
 C143 C 0.81245 0.20366 -0.31343
 C144 C 0.70203 0.19628 -0.31572
 C145 C 0.80664 0.30741 -0.30821
 O146 O 0.84340 0.29397 -0.24259
 O147 O 0.80384 0.31382 -0.20773
 O148 O 0.77499 0.28147 -0.17680
 C149 C 0.79556 0.30535 -0.18309
 O150 O 0.68164 0.30875 -0.28563
 Zr151 Zr 0.70362 0.28970 -0.24892
 O152 O 0.71261 0.27543 -0.17833
 O153 O 0.78195 0.34696 -0.24725
 O154 O 0.70827 0.34273 -0.24749
 O155 O 0.65089 0.27964 -0.24926
 O156 O 0.68384 0.30562 -0.21071
 C157 C 0.69026 0.29706 -0.18575
 O158 O 0.77517 0.22222 -0.17065
 O159 O 0.71946 0.15169 -0.25477
 O160 O 0.71785 0.21128 -0.18134
 O161 O 0.69433 0.18065 -0.21617
 O162 O 0.79551 0.15591 -0.25360
 O163 O 0.81671 0.18600 -0.21384
 C164 C 0.69929 0.18733 -0.19066
 H165 H 0.75720 0.18584 -0.28746
 H166 H 0.81296 0.25050 -0.21093
 H167 H 0.68314 0.24284 -0.21594
 H168 H 0.74656 0.31453 -0.28385
 H169 H 0.86288 0.20107 -0.25326
 H170 H 0.85090 0.31773 -0.24244
 H171 H 0.80444 0.35768 -0.24518
 H172 H 0.68568 0.35197 -0.24289
 H173 H 0.81865 0.14787 -0.25792
 H174 H 0.69689 0.14105 -0.25659
 H175 H 0.65029 0.18080 -0.25343
 H176 H 0.63908 0.30077 -0.24441
 H177 H 0.83740 0.17306 -0.21828
 H178 H 0.76524 0.22873 -0.15268
 H179 H 0.73716 0.27149 -0.34607
 H180 H 0.66496 0.32642 -0.28098
 Zr181 Zr 0.24585 0.75077 -0.29763
 O182 O 0.27220 0.72370 -0.32837
 O183 O 0.21156 0.77887 -0.32117
 O184 O 0.21333 0.71717 -0.31815
 O185 O 0.30610 0.81346 -0.29070
 O186 O 0.18777 0.68760 -0.28358
 O187 O 0.27622 0.78284 -0.32209
 O188 O 0.18003 0.80616 -0.28883
 O189 O 0.20210 0.74848 -0.27335
 O190 O 0.24407 0.79574 -0.27559
 O191 O 0.25130 0.70764 -0.27293
 O192 O 0.29189 0.75292 -0.27570
 Zr193 Zr 0.25116 0.75325 -0.20181
 Zr194 Zr 0.20872 0.70711 -0.24718
 Zr195 Zr 0.28816 0.79695 -0.25218
 Zr196 Zr 0.20162 0.79268 -0.25051
 O197 O 0.34172 0.79619 -0.25259
 O198 O 0.14939 0.78066 -0.24853
 O199 O 0.24558 0.79681 -0.22628
 O200 O 0.20554 0.75129 -0.22405
 O201 O 0.25293 0.70791 -0.22348
 O202 O 0.29449 0.75550 -0.22646
 C203 C 0.18754 0.79867 -0.31386
 C204 C 0.29822 0.80535 -0.31548
 C205 C 0.19275 0.69471 -0.30904
 O206 O 0.15534 0.70793 -0.24360
 O207 O 0.19435 0.68750 -0.20853
 O208 O 0.22315 0.71931 -0.17731
 C209 C 0.20242 0.69563 -0.18377
 O210 O 0.31738 0.69238 -0.28574
 Zr211 Zr 0.29522 0.71131 -0.24907
 O212 O 0.28570 0.72499 -0.17847
 O213 O 0.21649 0.65455 -0.24804
 O214 O 0.29017 0.65831 -0.24785
 O215 O 0.34800 0.72106 -0.24915
 O216 O 0.31462 0.69498 -0.21084
 C217 C 0.30805 0.70335 -0.18587
 O218 O 0.22338 0.77851 -0.17086
 O219 O 0.28033 0.84947 -0.25439
 O220 O 0.28086 0.78922 -0.18120
 O221 O 0.30492 0.81999 -0.21577
 O222 O 0.20431 0.84575 -0.25368
 O223 O 0.18248 0.81546 -0.21419
 C224 C 0.29969 0.81313 -0.19031
 H225 H 0.24272 0.81588 -0.28748
 H226 H 0.18578 0.75090 -0.21152
 H227 H 0.31568 0.75775 -0.21577
 H228 H 0.25247 0.68710 -0.28434
 H229 H 0.13661 0.80103 -0.25393
 H230 H 0.14767 0.68423 -0.24359
 H231 H 0.19390 0.64397 -0.24615
 H232 H 0.31264 0.64887 -0.24317
 H233 H 0.18128 0.85398 -0.25813
 H234 H 0.30299 0.85998 -0.25604
 H235 H 0.34931 0.81991 -0.25278
 H236 H 0.35965 0.69981 -0.24433
 H237 H 0.16193 0.82858 -0.21871
 H238 H 0.23309 0.77175 -0.15287
 H239 H 0.26274 0.73071 -0.34637
 H240 H 0.33389 0.67456 -0.28107
 Zr241 Zr 1.25421 1.24869 0.79742
 O242 O 1.22780 1.22161 0.82818
 O243 O 1.28916 1.27604 0.82085
 O244 O 1.28655 1.21452 0.81749
 O245 O 1.19497 1.31237 0.79138
 O246 O 1.31127 1.18498 0.78256
 O247 O 1.22478 1.28092 0.82234
 O248 O 1.32071 1.30333 0.78840
 O249 O 1.29762 1.24609 0.77279
 O250 O 1.25640 1.29388 0.77562
 O251 O 1.24778 1.20591 0.77256
 O252 O 1.20793 1.25177 0.77592
 Zr253 Zr 1.24770 1.25240 0.70174
 Zr254 Zr 1.29003 1.20511 0.74647
 Zr255 Zr 1.21202 1.29601 0.75261
 Zr256 Zr 1.29848 1.29054 0.75019
 O257 O 1.15847 1.29597 0.75354
 O258 O 1.35049 1.27778 0.74772
 O259 O 1.25427 1.29560 0.72637
 O260 O 1.29358 1.24949 0.72355
 O261 O 1.24553 1.20684 0.72316
 O262 O 1.20471 1.25493 0.72674
 C263 C 1.31333 1.29562 0.81342
 C264 C 1.20313 1.30384 0.81600
 C265 C 1.30675 1.19194 0.80810
 O266 O 1.34335 1.20519 0.74233
 O267 O 1.30344 1.18571 0.70759
 O268 O 1.27478 1.21837 0.67680
 C269 C 1.29513 1.19430 0.68299
 O270 O 1.18158 1.19158 0.78586
 Zr271 Zr 1.20362 1.21050 0.74910
 O272 O 1.21253 1.22486 0.67850
 O273 O 1.28148 1.15265 0.74717
 O274 O 1.20783 1.15744 0.74759
 O275 O 1.15098 1.22092 0.74959
 O276 O 1.18362 1.19479 0.71092
 C277 C 1.19005 1.20335 0.68595
 O278 O 1.27550 1.27766 0.67074
 O279 O 1.22066 1.34839 0.75502
 O280 O 1.21824 1.28894 0.68156
 O281 O 1.19506 1.31966 0.71649
 O282 O 1.29669 1.34360 0.75368
 O283 O 1.31753 1.31340 0.71383
 C284 C 1.19986 1.31299 0.69095
 H285 H 1.25821 1.31387 0.78760
 H286 H 1.31316 1.24896 0.71085
 H287 H 1.18342 1.25757 0.71624
 H288 H 1.24647 1.18527 0.78388
 H289 H 1.36365 1.29791 0.75314
 H290 H 1.35064 1.18138 0.74212
 H291 H 1.30387 1.14178 0.74500
 H292 H 1.18515 1.14837 0.74305
 H293 H 1.31991 1.35145 0.75794
 H294 H 1.19819 1.35919 0.75693
 H295 H 1.15123 1.31979 0.75395
 H296 H 1.13899 1.19987 0.74474
 H297 H 1.33834 1.32617 0.71824
 H298 H 1.26547 1.27127 0.65279
 H299 H 1.23759 1.22824 0.84615
 H300 H 1.16478 1.17401 0.78124
 Zr301 Zr 0.74572 0.75107 0.79726
 O302 O 0.77218 0.77823 0.82787
 O303 O 0.71070 0.72391 0.82081
 O304 O 0.71344 0.78537 0.81722
 O305 O 0.80487 0.68728 0.79142
 O306 O 0.68875 0.81481 0.78221
 O307 O 0.77512 0.71891 0.82227
 O308 O 0.67907 0.69661 0.78851
 O309 O 0.70231 0.75364 0.77265
 O310 O 0.74345 0.70580 0.77564
 O311 O 0.75221 0.79375 0.77223
 O312 O 0.79199 0.74781 0.77572
 Zr313 Zr 0.75220 0.74696 0.70160
 Zr314 Zr 0.70996 0.79451 0.74617
 Zr315 Zr 0.78782 0.70349 0.75259
 Zr316 Zr 0.70138 0.70911 0.75023
 O317 O 0.84137 0.70341 0.75349
 O318 O 0.64938 0.72190 0.74769
 O319 O 0.74557 0.70385 0.72640
 O320 O 0.70633 0.75005 0.72343
 O321 O 0.75445 0.79260 0.72282
 O322 O 0.79519 0.74446 0.72657
 C323 C 0.68646 0.70441 0.81348
 C324 C 0.79675 0.69595 0.81601
 C325 C 0.69326 0.80794 0.80777
 O326 O 0.65664 0.79450 0.74208
 O327 O 0.69659 0.81378 0.70723
 O328 O 0.72518 0.78094 0.67654
 C329 C 0.70487 0.80507 0.68266
 O330 O 0.81843 0.80800 0.78540
 Zr331 Zr 0.79635 0.78897 0.74874
 O332 O 0.78740 0.77434 0.67822
 O333 O 0.71860 0.84696 0.74664
 O334 O 0.79224 0.84203 0.74699
 O335 O 0.84899 0.77850 0.74924
 O336 O 0.81638 0.80447 0.71048
 C337 C 0.80994 0.79581 0.68556
 O338 O 0.72435 0.72162 0.67074
 O339 O 0.77906 0.65114 0.75523
 O340 O 0.78164 0.71034 0.68152
 O341 O 0.80479 0.67970 0.71654
 O342 O 0.70306 0.65606 0.75402
 O343 O 0.68235 0.68610 0.71398
 C344 C 0.80002 0.68631 0.69098
 H345 H 0.74160 0.68586 0.78772
 H346 H 0.68675 0.75056 0.71075
 H347 H 0.81647 0.74175 0.71606
 H348 H 0.75356 0.81443 0.78346
 H349 H 0.63620 0.70181 0.75320
 H350 H 0.64939 0.81833 0.74177
 H351 H 0.69622 0.85786 0.74446
 H352 H 0.81494 0.85105 0.74239
 H353 H 0.67981 0.64829 0.75832
 H354 H 0.80151 0.64029 0.75716
 H355 H 0.84856 0.67958 0.75400
 H356 H 0.86100 0.79951 0.74430
 H357 H 0.66153 0.67334 0.71845
 H358 H 0.73437 0.72792 0.65275
 H359 H 0.76238 0.77169 0.84589
 H360 H 0.83522 0.82556 0.78071
 Zr361 Zr 1.25411 0.75147 0.20273
 O362 O 1.22796 0.77893 0.17209
 O363 O 1.28897 0.72414 0.17920
 O364 O 1.28670 0.78564 0.18289
 O365 O 1.19448 0.68804 0.20835
 O366 O 1.31150 0.81478 0.21800
 O367 O 1.22458 0.71959 0.17760
 O368 O 1.32027 0.69645 0.21153
 O369 O 1.29747 0.75367 0.22743
 O370 O 1.25598 0.70610 0.22429
 O371 O 1.24787 0.79408 0.22781
 O372 O 1.20775 0.74845 0.22416
 Zr373 Zr 1.24733 0.74705 0.29837
 Zr374 Zr 1.29004 0.79448 0.25395
 Zr375 Zr 1.21152 0.70401 0.24723
 Zr376 Zr 1.29801 0.70905 0.24978
 O377 O 1.15797 0.70433 0.24625
 O378 O 1.35009 0.72153 0.25236
 O379 O 1.25371 0.70401 0.27352
 O380 O 1.29329 0.74990 0.27664
 O381 O 1.24547 0.79278 0.27720
 O382 O 1.20439 0.74492 0.27332
 C383 C 1.31300 0.70438 0.18655
 C384 C 1.20277 0.69672 0.18379
 C385 C 1.30700 0.80804 0.19243
 O386 O 1.34335 0.79412 0.25817
 O387 O 1.30341 0.81355 0.29294
 O388 O 1.27449 0.78077 0.32353
 C389 C 1.29497 0.80481 0.31749
 O390 O 1.18177 0.80883 0.21453
 Zr391 Zr 1.20361 0.78952 0.25120
 O392 O 1.21228 0.77457 0.32173
 O393 O 1.28180 0.84698 0.25350
 O394 O 1.20810 0.84255 0.25296
 O395 O 1.15091 0.77936 0.25065
 O396 O 1.18365 0.80506 0.28946
 C397 C 1.18997 0.79627 0.31439
 O398 O 1.27492 0.72141 0.32925
 O399 O 1.21984 0.65161 0.24455
 O400 O 1.21763 0.71050 0.31831
 O401 O 1.19435 0.68016 0.28321
 O402 O 1.29594 0.65602 0.24602
 O403 O 1.31681 0.68581 0.28605
 C404 C 1.19913 0.68661 0.30878
 H405 H 1.25771 0.68619 0.21221
 H406 H 1.31284 0.75025 0.28936
 H407 H 1.18306 0.74230 0.28380
 H408 H 1.24670 0.81482 0.21660
 H409 H 1.36314 0.70138 0.24686
 H410 H 1.35077 0.81789 0.25851
 H411 H 1.30426 0.85774 0.25575
 H412 H 1.18547 0.85169 0.25754
 H413 H 1.31913 0.64810 0.24175
 H414 H 1.19731 0.64093 0.24256
 H415 H 1.15060 0.68054 0.24571
 H416 H 1.13904 0.80043 0.25560
 H417 H 1.33758 0.67300 0.28161
 H418 H 1.26488 0.72770 0.34723
 H419 H 1.23777 0.77240 0.15409
 H420 H 1.16503 0.82641 0.21922
 Zr421 Zr 0.74672 1.24926 0.20249
 O422 O 0.77308 1.22223 0.17173
 O423 O 0.71208 1.27700 0.17903
 O424 O 0.71423 1.21541 0.18220
 O425 O 0.80649 1.31248 0.20898
 O426 O 0.68910 1.18582 0.21696
 O427 O 0.77660 1.28149 0.17779
 O428 O 0.68057 1.30425 0.21146
 O429 O 0.70316 1.24678 0.22698
 O430 O 0.74477 1.29430 0.22444
 O431 O 0.75264 1.20626 0.22726
 O432 O 0.79290 1.25183 0.22420
 Zr433 Zr 0.75270 1.25219 0.29825
 Zr434 Zr 0.71025 1.20556 0.25320
 Zr435 Zr 0.78903 1.29593 0.24763
 Zr436 Zr 0.70253 1.29107 0.24971
 O437 O 0.84259 1.29550 0.24692
 O438 O 0.65040 1.27869 0.25198
 O439 O 0.74663 1.29562 0.27371
 O440 O 0.70693 1.24981 0.27625
 O441 O 0.75462 1.20678 0.27670
 O442 O 0.79585 1.25462 0.27341
 C443 C 0.68799 1.29665 0.18644
 C444 C 0.79842 1.30421 0.18429
 C445 C 0.69382 1.19289 0.19146
 O446 O 0.65690 1.20601 0.25708
 O447 O 0.69632 1.18600 0.29197
 O448 O 0.72511 1.21819 0.32299
 C449 C 0.70453 1.19435 0.31665
 O450 O 0.81877 1.19147 0.21418
 Zr451 Zr 0.79670 1.21035 0.25091
 O452 O 0.78755 1.22424 0.32152
 O453 O 0.71839 1.15305 0.25241
 O454 O 0.79204 1.15731 0.25226
 O455 O 0.84943 1.22042 0.25061
 O456 O 0.81643 1.19425 0.28910
 C457 C 0.80995 1.20267 0.31408
 O458 O 0.72496 1.27741 0.32926
 O459 O 0.78083 1.34838 0.24535
 O460 O 0.78231 1.28842 0.31865
 O461 O 0.80593 1.31922 0.28389
 O462 O 0.70480 1.34414 0.24638
 O463 O 0.68350 1.31385 0.28607
 C464 C 0.80092 1.31242 0.30939
 H465 H 0.74319 1.31439 0.21251
 H466 H 0.68726 1.24933 0.28887
 H467 H 0.81709 1.25704 0.28400
 H468 H 0.75386 1.18569 0.21589
 H469 H 0.63744 1.29895 0.24659
 H470 H 0.64940 1.18225 0.25718
 H471 H 0.69589 1.14232 0.25443
 H472 H 0.81462 1.14804 0.25686
 H473 H 0.68167 1.35219 0.24204
 H474 H 0.80340 1.35905 0.24358
 H475 H 0.85003 1.31927 0.24664
 H476 H 0.86124 1.19926 0.25543
 H477 H 0.66282 1.32681 0.28163
 H478 H 0.73484 1.27081 0.34722
 H479 H 0.76345 1.22907 0.15375
 H480 H 0.83542 1.17377 0.21881
 O481 O 0.46167 1.06312 0.02028
 O482 O 0.53869 0.93653 0.02005
 O483 O 0.43549 0.96034 0.01801
 O484 O 0.56492 1.03928 0.01792
 O485 O 0.48178 0.94246 0.03400
 O486 O 0.51868 1.05707 0.03409
 O487 O 0.55803 0.98316 0.03441
 O488 O 0.44224 1.01642 0.03456
 C489 C 0.44606 1.04683 0.03825
 C490 C 0.55419 0.95275 0.03807
 C491 C 0.45100 0.94583 0.03683
 C492 C 0.54950 1.05388 0.03674
 O493 O 0.53851 1.06325 -0.01987
 O494 O 0.46173 0.93650 -0.01990
 O495 O 0.43533 1.03922 -0.01758
 O496 O 0.56492 0.96056 -0.01780
 O497 O 0.51866 0.94273 -0.03387
 O498 O 0.48155 1.05724 -0.03368
 O499 O 0.55793 1.01665 -0.03425
 O500 O 0.44221 0.98314 -0.03415
 Co501 Co 0.50011 1.05441 0.00020
 Co502 Co 0.50021 0.94532 0.00007
 Co503 Co 0.44487 0.99979 0.00020
 Co504 Co 0.55538 0.99991 0.00008
 O505 O 0.50014 0.99986 0.00014
 C506 C 0.55399 1.04705 -0.03792
 C507 C 0.44606 0.95274 -0.03783
 C508 C 0.45076 1.05387 -0.03641
 C509 C 0.54946 0.94603 -0.03664
 O510 O 0.96170 0.56303 0.52030
 O511 O 1.03860 0.43674 0.52038
 O512 O 0.93540 0.46023 0.51773
 O513 O 1.06496 0.53952 0.51772
 O514 O 0.98161 0.44258 0.53398
 O515 O 1.01871 0.55715 0.53392
 O516 O 1.05802 0.48347 0.53455
 O517 O 0.94214 0.51631 0.53446
 C518 C 0.94604 0.54670 0.53822
 C519 C 1.05414 0.45307 0.53834
 C520 C 0.95080 0.44576 0.53663
 C521 C 1.04954 0.55418 0.53651
 O522 O 1.03840 0.56313 0.47984
 O523 O 0.96199 0.43655 0.47992
 O524 O 0.93526 0.53925 0.48243
 O525 O 1.06511 0.46048 0.48254
 O526 O 1.01896 0.44270 0.46629
 O527 O 0.98144 0.55710 0.46622
 O528 O 1.05804 0.51648 0.46574
 O529 O 0.94230 0.48318 0.46570
 Co530 Co 1.00007 0.55437 0.50008
 Co531 Co 1.00028 0.44538 0.50014
 Co532 Co 0.94486 0.49976 0.50008
 Co533 Co 1.05544 0.49998 0.50014
 O534 O 1.00016 0.49987 0.50011
 C535 C 1.05396 0.54682 0.46189
 C536 C 0.94632 0.45280 0.46197
 C537 C 0.95064 0.55384 0.46356
 C538 C 1.04978 0.44592 0.46366
 O539 O 1.02288 0.46166 0.05204
 O540 O 1.02233 0.53994 -0.05381
 O541 O 1.02535 0.43721 -0.03172
 O542 O 1.02579 0.56446 0.03000
 O543 O 1.04310 0.48361 -0.04798
 O544 O 1.04351 0.51806 0.04631
 O545 O 1.04271 0.55839 -0.01666
 O546 O 1.04277 0.44328 0.01468
 C547 C 1.04595 0.44662 0.03977
 C548 C 1.04549 0.55518 -0.04181
 C549 C 1.04739 0.45307 -0.04481
 C550 C 1.04776 0.54861 0.04317
 O551 O 0.97935 0.54033 0.05192
 O552 O 0.97882 0.46123 -0.05325
 O553 O 0.97628 0.43735 0.03067
 O554 O 0.97600 0.56415 -0.03200
 O555 O 0.95814 0.51759 -0.04782
 O556 O 0.95857 0.48383 0.04672
 O557 O 0.95912 0.55857 0.01463
 O558 O 0.95882 0.44324 -0.01578
 Co559 Co 1.00104 0.50095 0.04422
 Co560 Co 1.00062 0.50061 -0.04567
 Co561 Co 1.00080 0.44616 -0.00057
 Co562 Co 1.00091 0.55550 -0.00098
 O563 O 1.00085 0.50081 -0.00074
 C564 C 0.95614 0.55526 0.03975
 C565 C 0.95566 0.44637 -0.04090
 C566 C 0.95437 0.45323 0.04387
 C567 C 0.95385 0.54815 -0.04482
 O568 O 0.52245 0.96055 0.55266
 O569 O 0.52216 1.03803 0.44766
 O570 O 0.52290 0.93525 0.46879
 O571 O 0.52337 1.06337 0.53157
 O572 O 0.54151 0.98149 0.45315
 O573 O 0.54186 1.01712 0.54729
 O574 O 0.54171 1.05695 0.48507
 O575 O 0.54156 0.94160 0.51509
 C576 C 0.54528 0.94541 0.54011
 C577 C 0.54510 1.05328 0.45999
 C578 C 0.54522 0.95085 0.45586
 C579 C 0.54565 1.04776 0.54451
 O580 O 0.47688 1.03829 0.55262
 O581 O 0.47642 0.96039 0.44805
 O582 O 0.47581 0.93534 0.53204
 O583 O 0.47581 1.06325 0.46862
 O584 O 0.45711 1.01695 0.45326
 O585 O 0.45739 0.98166 0.54760
 O586 O 0.45752 1.05718 0.51510
 O587 O 0.45712 0.94170 0.48567
 Co588 Co 0.49962 0.99940 0.54511
 Co589 Co 0.49931 0.99922 0.45547
 Co590 Co 0.49935 0.94450 0.50038
 Co591 Co 0.49960 1.05417 0.50010
 O592 O 0.49947 0.99932 0.50027
 C593 C 0.45398 1.05344 0.54016
 C594 C 0.45349 0.94536 0.46062
 C595 C 0.45367 0.95097 0.54513
 C596 C 0.45341 1.04760 0.45587
 O597 O 1.05818 1.04057 0.48401
 O598 O 0.94242 1.04047 0.51671
 O599 O 0.98468 1.04204 0.45308
 O600 O 1.01574 1.04218 0.54758
 O601 O 0.93731 1.02629 0.47016
 O602 O 1.06319 1.02656 0.53060
 O603 O 0.95952 1.01865 0.55336
 O604 O 1.04101 1.01867 0.44744
 C605 C 1.05487 1.04274 0.45893
 C606 C 0.94558 1.04264 0.54181
 C607 C 0.95409 1.04734 0.45659
 C608 C 1.04631 1.04762 0.54402
 O609 O 1.05815 0.95861 0.51707
 O610 O 0.94255 0.95842 0.48396
 O611 O 1.01608 0.95698 0.45325
 O612 O 0.98466 0.95700 0.54763
 O613 O 0.93729 0.97256 0.53049
 O614 O 1.06341 0.97265 0.47043
 O615 O 1.04080 0.98054 0.55360
 O616 O 0.95983 0.98026 0.44735
 Co617 Co 1.05513 0.99958 0.50052
 Co618 Co 0.94549 0.99945 0.50034
 Co619 Co 1.00039 0.99950 0.45532
 Co620 Co 1.00019 0.99959 0.54548
 O621 O 1.00030 0.99953 0.50041
 C622 C 1.05498 0.95659 0.54220
 C623 C 0.94582 0.95627 0.45886
 C624 C 1.04664 0.95161 0.45689
 C625 C 0.95414 0.95149 0.54394
 O626 O 0.55732 0.54151 -0.01629
 O627 O 0.44158 0.54115 0.01624
 O628 O 0.48346 0.54278 -0.04726
 O629 O 0.51532 0.54269 0.04714
 O630 O 0.43621 0.52663 -0.03029
 O631 O 0.56268 0.52688 0.03021
 O632 O 0.45905 0.51950 0.05289
 O633 O 0.53990 0.51998 -0.05297
 C634 C 0.55377 0.54395 -0.04134
 C635 C 0.44508 0.54347 0.04131
 C636 C 0.45282 0.54785 -0.04379
 C637 C 0.54592 0.54799 0.04364
 O638 O 0.55751 0.45922 0.01616
 O639 O 0.44174 0.45897 -0.01628
 O640 O 0.51549 0.45791 -0.04733
 O641 O 0.48385 0.45762 0.04709
 O642 O 0.43645 0.47344 0.03026
 O643 O 0.56278 0.47392 -0.03040
 O644 O 0.54008 0.48076 0.05286
 O645 O 0.45908 0.48071 -0.05296
 Co646 Co 0.55442 0.50036 -0.00008
 Co647 Co 0.44464 0.50007 -0.00002
 Co648 Co 0.49949 0.50034 -0.04512
 Co649 Co 0.49957 0.50015 0.04498
 O650 O 0.49953 0.50023 -0.00006
 C651 C 0.55417 0.45689 0.04126
 C652 C 0.44522 0.45667 -0.04136
 C653 C 0.54610 0.45275 -0.04384
 C654 C 0.45328 0.45226 0.04360
 C655 C 0.41376 1.11571 0.08459
 C656 C 0.39135 1.09790 0.10144
 C657 C 0.38830 1.06306 0.09874
 C658 C 0.40699 1.04614 0.07870
 C659 C 0.31775 1.16647 0.17130
 C660 C 0.43243 1.09888 0.06454
 C661 C 0.37073 1.11567 0.12083
 C662 C 0.35351 1.13116 0.13677
 C663 C 0.33382 1.14992 0.15529
 C664 C 0.42880 1.06402 0.06110
 H665 H 0.41633 1.14269 0.08663
 H666 H 0.37103 1.04909 0.11175
 H667 H 0.40373 1.01926 0.07652
 H668 H 0.44916 1.11324 0.05135
 C669 C 0.88837 0.56278 0.59880
 C670 C 0.89147 0.59760 0.60160
 C671 C 0.91387 0.61545 0.58478
 C672 C 0.93249 0.59868 0.56465
 C673 C 0.81787 0.66604 0.67158
 C674 C 0.90700 0.54592 0.57870
 C675 C 0.87088 0.61532 0.62106
 C676 C 0.85366 0.63076 0.63704
 C677 C 0.83396 0.64948 0.65559
 C678 C 0.92882 0.56383 0.56112
 H679 H 0.87111 0.54877 0.61180
 H680 H 0.91647 0.64243 0.58687
 H681 H 0.94921 0.61307 0.55148
 H682 H 0.90371 0.51904 0.57646
 C683 C 0.61154 0.93632 0.09873
 C684 C 0.60841 0.90148 0.10143
 C685 C 0.58608 0.88373 0.08452
 C686 C 0.56757 0.90063 0.06439
 C687 C 0.68171 0.83277 0.17140
 C688 C 0.59302 0.95330 0.07863
 C689 C 0.62890 0.88364 0.12087
 C690 C 0.64604 0.86812 0.13684
 C691 C 0.66567 0.84933 0.15538
 C692 C 0.57129 0.93549 0.06097
 H693 H 0.62875 0.95024 0.11180
 H694 H 0.58346 0.85675 0.08655
 H695 H 0.55091 0.88633 0.05116
 H696 H 0.59633 0.98019 0.07646
 C697 C 1.08605 0.38425 0.58497
 C698 C 1.10854 0.40202 0.60172
 C699 C 1.11176 0.43683 0.59888
 C700 C 1.09315 0.45376 0.57878
 C701 C 1.18206 0.33326 0.67152
 C702 C 1.06746 0.40108 0.56486
 C703 C 1.12912 0.38421 0.62112
 C704 C 1.14633 0.36869 0.63704
 C705 C 1.16600 0.34986 0.65554
 C706 C 1.07127 0.43591 0.56127
 H707 H 1.08336 0.35728 0.58711
 H708 H 1.12909 0.45077 0.61182
 H709 H 1.09654 0.48062 0.57649
 H710 H 1.05067 0.38675 0.55174
 C711 C 0.58570 1.11609 -0.08443
 C712 C 0.60805 1.09837 -0.10134
 C713 C 0.61122 1.06354 -0.09866
 C714 C 0.59272 1.04653 -0.07854
 C715 C 0.68148 1.16716 -0.17117
 C716 C 0.56721 1.09916 -0.06429
 C717 C 0.62857 1.11624 -0.12074
 C718 C 0.64575 1.13179 -0.13666
 C719 C 0.66542 1.15059 -0.15517
 C720 C 0.57100 1.06432 -0.06085
 H721 H 0.58306 1.14307 -0.08645
 H722 H 0.62845 1.04966 -0.11173
 H723 H 0.59607 1.01966 -0.07636
 H724 H 0.55054 1.11343 -0.05103
 C725 C 1.08536 0.61553 0.41489
 C726 C 1.10771 0.59772 0.39804
 C727 C 1.11099 0.56292 0.40094
 C728 C 1.09259 0.54605 0.42121
 C729 C 1.18121 0.66630 0.32810
 C730 C 1.06697 0.59874 0.43517
 C731 C 1.12818 0.61547 0.37853
 C732 C 1.14537 0.63094 0.36255
 C733 C 1.16507 0.64971 0.34404
 C734 C 1.07086 0.56394 0.43882
 H735 H 1.08264 0.64248 0.41270
 H736 H 1.12822 0.54897 0.38793
 H737 H 1.09602 0.51921 0.42354
 H738 H 1.05030 0.61309 0.44837
 C739 C 0.38805 0.93629 -0.09808
 C740 C 0.39114 0.90145 -0.10075
 C741 C 0.41364 0.88371 -0.08397
 C742 C 0.43239 0.90062 -0.06401
 C743 C 0.31747 0.83305 -0.17064
 C744 C 0.40681 0.95328 -0.07813
 C745 C 0.37048 0.88361 -0.12007
 C746 C 0.35323 0.86813 -0.13598
 C747 C 0.33353 0.84945 -0.15453
 C748 C 0.42873 0.93548 -0.06060
 H749 H 0.37071 0.95020 -0.11105
 H750 H 0.41624 0.85674 -0.08599
 H751 H 0.44919 0.88633 -0.05087
 H752 H 0.40352 0.98017 -0.07598
 C753 C 0.88863 0.43621 0.40155
 C754 C 0.89199 0.40141 0.39877
 C755 C 0.91459 0.38377 0.41553
 C756 C 0.93315 0.40072 0.43558
 C757 C 0.81868 0.33253 0.32894
 C758 C 0.90720 0.45325 0.42158
 C759 C 0.87147 0.38349 0.37941
 C760 C 0.85432 0.36791 0.36350
 C761 C 0.83470 0.34908 0.34498
 C762 C 0.92920 0.43554 0.43909
 H763 H 0.87121 0.45005 0.38860
 H764 H 0.91740 0.35682 0.41344
 H765 H 0.95003 0.38649 0.44870
 H766 H 0.90370 0.48010 0.42382
 C767 C 1.10088 0.42050 0.09968
 C768 C 1.11983 0.39424 0.08839
 C769 C 1.11636 0.38653 0.06039
 C770 C 1.09331 0.40443 0.04400
 C771 C 1.18903 0.32367 0.16075
 C772 C 1.07784 0.43821 0.08346
 C773 C 1.14099 0.37429 0.10629
 C774 C 1.15733 0.35801 0.12254
 C775 C 1.17503 0.33934 0.14275
 C776 C 1.07328 0.42999 0.05558
 H777 H 1.10328 0.42675 0.12126
 H778 H 1.13082 0.36620 0.05140
 H779 H 1.09029 0.39752 0.02261
 H780 H 1.06297 0.45790 0.09295
 C781 C 0.61600 0.88552 0.56027
 C782 C 0.62018 0.89374 0.58811
 C783 C 0.60169 0.92033 0.59937
 C784 C 0.57832 0.93784 0.58332
 C785 C 0.68958 0.82345 0.66040
 C786 C 0.59264 0.90322 0.54405
 C787 C 0.64149 0.87388 0.60593
 C788 C 0.65791 0.85767 0.62215
 C789 C 0.67563 0.83907 0.64237
 C790 C 0.57302 0.92908 0.55564
 H791 H 0.63010 0.86492 0.55132
 H792 H 0.60464 0.92696 0.62083
 H793 H 0.56378 0.95777 0.59279
 H794 H 0.58903 0.89590 0.52281
 C795 C 1.09902 0.58220 -0.10247
 C796 C 1.11832 0.60830 -0.09131
 C797 C 1.11546 0.61568 -0.06319
 C798 C 1.09273 0.59760 -0.04656
 C799 C 1.18796 0.67886 -0.16381
 C800 C 1.07631 0.56430 -0.08601
 C801 C 1.13943 0.62826 -0.10936
 C802 C 1.15582 0.64453 -0.12566
 C803 C 1.17372 0.66319 -0.14586
 C804 C 1.07242 0.57214 -0.05798
 H805 H 1.10094 0.57616 -0.12413
 H806 H 1.13020 0.63586 -0.05426
 H807 H 1.09024 0.60425 -0.02507
 H808 H 1.06122 0.54472 -0.09542
 C809 C 0.60039 1.07901 0.40007
 C810 C 0.61909 1.10556 0.41118
 C811 C 0.61537 1.11359 0.43911
 C812 C 0.59231 1.09573 0.45557
 C813 C 0.68885 1.17589 0.33875
 C814 C 0.57734 1.06134 0.41636
 C815 C 0.64032 1.12544 0.39319
 C816 C 0.65676 1.14164 0.37691
 C817 C 0.67465 1.16025 0.35671
 C818 C 0.57253 1.06986 0.44415
 H819 H 0.60298 1.07249 0.37855
 H820 H 0.62964 1.13413 0.44798
 H821 H 0.58909 1.10290 0.47689
 H822 H 0.56267 1.04142 0.40698
 C823 C 0.90138 0.58111 0.09987
 C824 C 0.88193 0.60699 0.08854
 C825 C 0.88510 0.61459 0.06048
 C826 C 0.90831 0.59694 0.04407
 C827 C 0.81162 0.67653 0.16084
 C828 C 0.92458 0.56365 0.08363
 C829 C 0.86047 0.62664 0.10643
 C830 C 0.84387 0.64268 0.12266
 C831 C 0.82586 0.66107 0.14285
 C832 C 0.92879 0.57173 0.05567
 H833 H 0.89921 0.57494 0.12150
 H834 H 0.87024 0.63462 0.05146
 H835 H 0.91105 0.60374 0.02261
 H836 H 0.93979 0.54422 0.09314
 C837 C 0.38351 1.11351 0.56055
 C838 C 0.37954 1.10538 0.58844
 C839 C 0.39810 1.07880 0.59968
 C840 C 0.42131 1.06121 0.58354
 C841 C 0.31043 1.17585 0.66079
 C842 C 0.40672 1.09573 0.54424
 C843 C 0.35834 1.12528 0.60631
 C844 C 0.34201 1.14154 0.62256
 C845 C 0.32435 1.16019 0.64278
 C846 C 0.42640 1.06987 0.55580
 H847 H 0.36935 1.13409 0.55161
 H848 H 0.39531 1.07223 0.62118
 H849 H 0.43590 1.04129 0.59300
 H850 H 0.41017 1.10297 0.52295
 C851 C 0.90054 0.42005 -0.10063
 C852 C 0.88132 0.39409 -0.08913
 C853 C 0.88471 0.38662 -0.06106
 C854 C 0.90795 0.40448 -0.04482
 C855 C 0.81116 0.32373 -0.16097
 C856 C 0.92377 0.43771 -0.08456
 C857 C 0.85988 0.37420 -0.10686
 C858 C 0.84332 0.35797 -0.12298
 C859 C 0.82535 0.33935 -0.14306
 C860 C 0.92823 0.42975 -0.05661
 H861 H 0.89820 0.42612 -0.12226
 H862 H 0.87003 0.36653 -0.05191
 H863 H 0.91089 0.39777 -0.02337
 H864 H 0.93882 0.45718 -0.09420
 C865 C 0.39729 0.92023 0.40129
 C866 C 0.37897 0.89343 0.41245
 C867 C 0.38313 0.88511 0.44028
 C868 C 0.40633 0.90292 0.45659
 C869 C 0.31021 0.82310 0.33980
 C870 C 0.42048 0.93784 0.41741
 C871 C 0.35785 0.87350 0.39454
 C872 C 0.34161 0.85726 0.37823
 C873 C 0.32405 0.83867 0.35791
 C874 C 0.42580 0.92898 0.44507
 H875 H 0.39434 0.92696 0.37983
 H876 H 0.36916 0.86435 0.44917
 H877 H 0.40996 0.89550 0.47781
 H878 H 0.43492 0.95793 0.40799
 C879 C 1.07563 1.09761 0.39802
 C880 C 1.10056 1.11873 0.40878
 C881 C 1.10917 1.11658 0.43669
 C882 C 1.09346 1.09263 0.45359
 C883 C 1.16751 1.18855 0.33509
 C884 C 1.06016 1.07365 0.41472
 C885 C 1.11876 1.14048 0.39033
 C886 C 1.13394 1.15702 0.37362
 C887 C 1.15184 1.17466 0.35306
 C888 C 1.06934 1.07046 0.44253
 H889 H 1.06881 1.09899 0.37648
 H890 H 1.12857 1.13275 0.44519
 H891 H 1.10095 1.09068 0.47494
 H892 H 1.04145 1.05713 0.40569
 C893 C 0.57405 0.59943 -0.10194
 C894 C 0.59936 0.62016 -0.09126
 C895 C 0.60831 0.61764 -0.06344
 C896 C 0.59258 0.59366 -0.04658
 C897 C 0.66685 0.68923 -0.16505
 C898 C 0.55857 0.57545 -0.08529
 C899 C 0.61769 0.64176 -0.10973
 C900 C 0.63298 0.65813 -0.12648
 C901 C 0.65103 0.67554 -0.14706
 C902 C 0.56812 0.57183 -0.05761
 H903 H 0.56698 0.60111 -0.12343
 H904 H 0.62801 0.63349 -0.05500
 H905 H 0.60037 0.59137 -0.02532
 H906 H 0.53959 0.55919 -0.09428
 C907 C 0.92414 1.09727 0.60262
 C908 C 0.89915 1.11825 0.59178
 C909 C 0.89071 1.11609 0.56383
 C910 C 0.90665 1.09227 0.54700
 C911 C 0.83185 1.18812 0.66515
 C912 C 0.93985 1.07345 0.58598
 C913 C 0.88079 1.13994 0.61014
 C914 C 0.86551 1.15646 0.62678
 C915 C 0.84754 1.17415 0.64724
 C916 C 0.93085 1.07024 0.55815
 H917 H 0.93085 1.09867 0.62419
 H918 H 0.87127 1.13215 0.55525
 H919 H 0.89928 1.09030 0.52562
 H920 H 0.95861 1.05704 0.59509
 C921 C 0.39055 0.61707 0.06351
 C922 C 0.39939 0.61942 0.09136
 C923 C 0.42458 0.59855 0.10205
 C924 C 0.44006 0.57463 0.08537
 C925 C 0.33246 0.68902 0.16508
 C926 C 0.40626 0.59316 0.04663
 C927 C 0.38119 0.64110 0.10982
 C928 C 0.36602 0.65759 0.12655
 C929 C 0.34814 0.67517 0.14711
 C930 C 0.43063 0.57122 0.05764
 H931 H 0.37095 0.63305 0.05505
 H932 H 0.43159 0.60009 0.12355
 H933 H 0.45895 0.55829 0.09437
 H934 H 0.39857 0.59103 0.02533
 C935 C 1.11093 0.88417 0.56488
 C936 C 1.10243 0.88211 0.59283
 C937 C 1.07703 0.90279 0.60346
 C938 C 1.06099 0.92619 0.58660
 C939 C 1.17008 0.81300 0.66667
 C940 C 1.09465 0.90757 0.54782
 C941 C 1.12100 0.86079 0.61139
 C942 C 1.13638 0.84448 0.62815
 C943 C 1.15440 0.82694 0.64871
 C944 C 1.07004 0.92930 0.55875
 H945 H 1.13065 0.86833 0.55645
 H946 H 1.07025 0.90147 0.62503
 H947 H 1.04192 0.94237 0.59555
 H948 H 1.10209 0.90946 0.52644
 C949 C 0.57556 0.40212 0.10207
 C950 C 0.60102 0.38158 0.09137
 C951 C 0.60974 0.38400 0.06349
 C952 C 0.59364 0.40767 0.04658
 C953 C 0.66859 0.31223 0.16502
 C954 C 0.55969 0.42579 0.08536
 C955 C 0.61951 0.36009 0.10984
 C956 C 0.63486 0.34371 0.12655
 C957 C 0.65288 0.32615 0.14708
 C958 C 0.56899 0.42929 0.05760
 H959 H 0.56862 0.40051 0.12359
 H960 H 0.62953 0.36828 0.05502
 H961 H 0.60125 0.40988 0.02526
 H962 H 0.54059 0.44188 0.09437
 C963 C 0.89072 0.88304 0.43663
 C964 C 0.89931 0.88088 0.40871
 C965 C 0.92449 0.90175 0.39796
 C966 C 0.94024 0.92547 0.41467
 C967 C 0.83196 0.81142 0.33509
 C968 C 0.90671 0.90676 0.45354
 C969 C 0.88091 0.85932 0.39026
 C970 C 0.86562 0.84289 0.37356
 C971 C 0.84764 0.82531 0.35304
 C972 C 0.93109 0.92870 0.44248
 H973 H 0.87114 0.86706 0.44514
 H974 H 0.93132 0.90035 0.37641
 H975 H 0.95915 0.94181 0.40563
 H976 H 0.89921 0.90875 0.47489
 C977 C 0.39082 0.38295 -0.06357
 C978 C 0.39971 0.38063 -0.09142
 C979 C 0.42490 0.40154 -0.10210
 C980 C 0.44034 0.42547 -0.08540
 C981 C 0.33282 0.31103 -0.16516
 C982 C 0.40650 0.40688 -0.04667
 C983 C 0.38153 0.35895 -0.10991
 C984 C 0.36638 0.34248 -0.12664
 C985 C 0.34850 0.32489 -0.14721
 C986 C 0.43086 0.42886 -0.05768
 H987 H 0.37122 0.36694 -0.05513
 H988 H 0.43195 0.40003 -0.12360
 H989 H 0.45924 0.44186 -0.09440
 H990 H 0.39876 0.40899 -0.02538
 C991 C 1.10220 0.38155 -0.06993
 C992 C 1.12029 0.39689 -0.09124
 C993 C 1.11661 0.43146 -0.09591
 C994 C 1.09402 0.45034 -0.07996
 C995 C 1.18725 0.32229 -0.16213
 C996 C 1.07960 0.40030 -0.05405
 C997 C 1.14043 0.37658 -0.10955
 C998 C 1.15609 0.35920 -0.12541
 C999 C 1.17331 0.33895 -0.14477
 C1000 C 1.07468 0.43473 -0.05929
 H1001 H 1.10476 0.35486 -0.06613
 H1002 H 1.13040 0.44360 -0.11242
 H1003 H 1.09073 0.47678 -0.08449
 H1004 H 1.06521 0.38760 -0.03818
 C1005 C 0.59864 0.87890 0.42945
 C1006 C 0.61765 0.89461 0.40886
 C1007 C 0.61485 0.92941 0.40502
 C1008 C 0.59233 0.94820 0.42111
 C1009 C 0.68584 0.82126 0.33778
 C1010 C 0.57611 0.89756 0.44548
 C1011 C 0.63801 0.87458 0.39049
 C1012 C 0.65394 0.85749 0.37457
 C1013 C 0.67154 0.83761 0.35516
 C1014 C 0.57217 0.93230 0.44110
 H1015 H 0.60050 0.85202 0.43261
 H1016 H 0.62936 0.94186 0.38908
 H1017 H 0.58982 0.97488 0.41725
 H1018 H 0.56106 0.88461 0.46080
 C1019 C 0.88394 0.56918 -0.09543
 C1020 C 0.88030 0.60379 -0.09103
 C1021 C 0.89866 0.61937 -0.07003
 C1022 C 0.92148 0.60081 -0.05420
 C1023 C 0.81269 0.67765 -0.16206
 C1024 C 0.90675 0.55049 -0.07953
 C1025 C 0.85993 0.62389 -0.10933
 C1026 C 0.84411 0.64109 -0.12522
 C1027 C 0.82674 0.66115 -0.14464
 C1028 C 0.92637 0.56633 -0.05919
 H1029 H 0.86994 0.55685 -0.11170
 H1030 H 0.89613 0.64611 -0.06644
 H1031 H 0.93608 0.61369 -0.03859
 H1032 H 0.91000 0.52400 -0.08386
 C1033 C 0.39990 1.11953 0.42953
 C1034 C 0.38098 1.10386 0.40890
 C1035 C 0.38381 1.06907 0.40505
 C1036 C 0.40630 1.05025 0.42116
 C1037 C 0.31339 1.17762 0.33770
 C1038 C 0.42240 1.10083 0.44556
 C1039 C 0.36073 1.12395 0.39048
 C1040 C 0.34493 1.14112 0.37453
 C1041 C 0.32752 1.16114 0.35509
 C1042 C 0.42641 1.06612 0.44116
 H1043 H 0.39801 1.14639 0.43270
 H1044 H 0.36937 1.05666 0.38908
 H1045 H 0.40886 1.02359 0.41728
 H1046 H 0.43740 1.11376 0.46090
 C1047 C 1.11676 0.57004 0.09448
 C1048 C 1.12022 0.60470 0.09015
 C1049 C 1.10206 0.62021 0.06898
 C1050 C 1.07962 0.60152 0.05290
 C1051 C 1.18688 0.67853 0.16178
 C1052 C 1.09434 0.55122 0.07833
 C1053 C 1.14023 0.62487 0.10865
 C1054 C 1.15581 0.64208 0.12470
 C1055 C 1.17296 0.66209 0.14427
 C1056 C 1.07492 0.56698 0.05780
 H1057 H 1.13061 0.55776 0.11087
 H1058 H 1.10445 0.64698 0.06544
 H1059 H 1.06517 0.61434 0.03716
 H1060 H 1.09122 0.52470 0.08261
 C1061 C 0.59913 1.11977 0.57076
 C1062 C 0.61797 1.10416 0.59149
 C1063 C 0.61508 1.06938 0.59545
 C1064 C 0.59262 1.05052 0.57936
 C1065 C 0.68582 1.17798 0.66246
 C1066 C 0.57666 1.10104 0.55474
 C1067 C 0.63825 1.12429 0.60985
 C1068 C 0.65410 1.14148 0.62575
 C1069 C 0.67160 1.16151 0.64512
 C1070 C 0.57260 1.06633 0.55924
 H1071 H 0.60107 1.14663 0.56750
 H1072 H 0.62946 1.05701 0.61148
 H1073 H 0.59002 1.02387 0.58332
 H1074 H 0.56174 1.11392 0.53933
 C1075 C 0.90026 0.38161 0.07020
 C1076 C 0.88221 0.39708 0.09145
 C1077 C 0.88577 0.43174 0.09573
 C1078 C 0.90812 0.45057 0.07944
 C1079 C 0.81464 0.32272 0.16251
 C1080 C 0.92261 0.40030 0.05399
 C1081 C 0.86205 0.37688 0.10993
 C1082 C 0.84628 0.35958 0.12585
 C1083 C 0.82883 0.33937 0.14521
 C1084 C 0.92736 0.43485 0.05879
 H1085 H 0.89780 0.35485 0.06667
 H1086 H 0.87201 0.44402 0.11216
 H1087 H 0.91127 0.47710 0.08367
 H1088 H 0.93693 0.38748 0.03817
 C1089 C 0.38469 0.92973 0.59679
 C1090 C 0.38198 0.89486 0.59333
 C1091 C 0.40090 0.87901 0.57278
 C1092 C 0.42319 0.89760 0.55640
 C1093 C 0.31333 0.82192 0.66481
 C1094 C 0.40698 0.94845 0.58035
 C1095 C 0.36162 0.87495 0.61191
 C1096 C 0.34561 0.85797 0.62793
 C1097 C 0.32783 0.83819 0.64741
 C1098 C 0.42700 0.93243 0.56035
 H1099 H 0.37026 0.94232 0.61267
 H1100 H 0.39911 0.85209 0.56988
 H1101 H 0.43813 0.88453 0.54111
 H1102 H 0.40938 0.97519 0.58392
 C1103 C 0.43145 1.10739 -0.09875
 C1104 C 0.39632 1.10352 -0.10069
 C1105 C 0.37929 1.08230 -0.08240
 C1106 C 0.39719 1.06553 -0.06183
 C1107 C 0.32591 1.17294 -0.17239
 C1108 C 0.44945 1.09059 -0.07819
 C1109 C 0.37746 1.12220 -0.12075
 C1110 C 0.36131 1.13811 -0.13718
 C1111 C 0.34221 1.15688 -0.15616
 C1112 C 0.43238 1.06987 -0.05930
 H1113 H 0.44483 1.12378 -0.11285
 H1114 H 0.35210 1.07912 -0.08377
 H1115 H 0.38343 1.04957 -0.04765
 H1116 H 0.47655 1.09433 -0.07674
 C1117 C 0.93138 0.60733 0.40121
 C1118 C 0.89622 0.60365 0.39939
 C1119 C 0.87914 0.58258 0.41776
 C1120 C 0.89703 0.56575 0.43830
 C1121 C 0.82598 0.67323 0.32770
 C1122 C 0.94936 0.59047 0.42174
 C1123 C 0.87740 0.62239 0.37935
 C1124 C 0.86130 0.63835 0.36292
 C1125 C 0.84225 0.65716 0.34394
 C1126 C 0.93225 0.56989 0.44071
 H1127 H 0.94479 0.62360 0.38705
 H1128 H 0.85192 0.57957 0.41647
 H1129 H 0.88324 0.54991 0.45254
 H1130 H 0.97649 0.59405 0.42311
 C1131 C 0.56893 1.10798 0.09867
 C1132 C 0.60409 1.10431 0.10050
 C1133 C 0.62109 1.08302 0.08229
 C1134 C 0.60314 1.06598 0.06192
 C1135 C 0.67466 1.17407 0.17185
 C1136 C 0.55087 1.09090 0.07831
 C1137 C 0.62299 1.12320 0.12039
 C1138 C 0.63918 1.13923 0.13671
 C1139 C 0.65833 1.15806 0.15562
 C1140 C 0.56792 1.07011 0.05949
 H1141 H 0.55556 1.12441 0.11271
 H1142 H 0.64830 1.07999 0.08358
 H1143 H 0.61689 1.04998 0.04780
 H1144 H 0.52375 1.09449 0.07693
 C1145 C 1.06869 0.60876 0.59819
 C1146 C 1.10390 0.60551 0.59988
 C1147 C 1.12106 0.58435 0.58168
 C1148 C 1.10320 0.56701 0.56142
 C1149 C 1.17377 0.67592 0.67123
 C1150 C 1.05073 0.59139 0.57794
 C1151 C 1.12265 0.62465 0.61970
 C1152 C 1.13867 0.64086 0.63600
 C1153 C 1.15761 0.65984 0.65493
 C1154 C 1.06792 0.57071 0.55913
 H1155 H 1.05520 0.62509 0.61223
 H1156 H 1.14831 0.58164 0.58288
 H1157 H 1.11706 0.55112 0.54729
 H1158 H 1.02356 0.59466 0.57666
 C1159 C 0.56866 0.89269 -0.09906
 C1160 C 0.60381 0.89650 -0.10103
 C1161 C 0.62087 0.91763 -0.08274
 C1162 C 0.60300 0.93436 -0.06213
 C1163 C 0.67412 0.82702 -0.17276
 C1164 C 0.55070 0.90946 -0.07847
 C1165 C 0.62263 0.87783 -0.12112
 C1166 C 0.63875 0.86192 -0.13756
 C1167 C 0.65783 0.84312 -0.15655
 C1168 C 0.56781 0.93008 -0.05957
 H1169 H 0.55525 0.87637 -0.11315
 H1170 H 0.64807 0.92075 -0.08413
 H1171 H 0.61680 0.95024 -0.04796
 H1172 H 0.52359 0.90577 -0.07699
 C1173 C 1.12137 0.41713 0.41791
 C1174 C 1.10429 0.39617 0.39949
 C1175 C 1.06912 0.39258 0.40128
 C1176 C 1.05111 0.40940 0.42182
 C1177 C 1.17436 0.32667 0.32765
 C1178 C 1.10346 0.43392 0.43846
 C1179 C 1.12311 0.37749 0.37942
 C1180 C 1.13918 0.36156 0.36296
 C1181 C 1.15817 0.34275 0.34392
 C1182 C 1.06822 0.42987 0.44083
 H1183 H 1.14859 0.42008 0.41666
 H1184 H 1.05570 0.37640 0.38709
 H1185 H 1.02397 0.40589 0.42315
 H1186 H 1.11725 0.44967 0.45274
 C1187 C 0.43193 0.89261 0.09938
 C1188 C 0.39683 0.89658 0.10146
 C1189 C 0.37976 0.91779 0.08323
 C1190 C 0.39759 0.93445 0.06254
 C1191 C 0.32629 0.82709 0.17305
 C1192 C 0.44986 0.90930 0.07871
 C1193 C 0.37801 0.87792 0.12156
 C1194 C 0.36185 0.86200 0.13798
 C1195 C 0.34269 0.84319 0.15690
 C1196 C 0.43273 0.92999 0.05985
 H1197 H 0.44533 0.87620 0.11344
 H1198 H 0.35258 0.92102 0.08471
 H1199 H 0.38380 0.95039 0.04840
 H1200 H 0.47694 0.90548 0.07712
 C1201 C 0.93147 0.39225 0.59894
 C1202 C 0.89632 0.39595 0.60078
 C1203 C 0.87928 0.41708 0.58246
 C1204 C 0.89720 0.43392 0.56193
 C1205 C 0.82582 0.32630 0.67225
 C1206 C 0.94949 0.40913 0.57843
 C1207 C 0.87746 0.37717 0.62075
 C1208 C 0.86128 0.36118 0.63712
 C1209 C 0.84215 0.34236 0.65604
 C1210 C 0.93240 0.42973 0.55949
 H1211 H 0.94485 0.37593 0.61307
 H1212 H 0.85207 0.42011 0.58376
 H1213 H 0.88344 0.44979 0.54771
 H1214 H 0.97662 0.40552 0.57703
 C1215 C 1.06386 1.11736 0.59491
 C1216 C 1.09883 1.12148 0.59164
 C1217 C 1.11589 1.10369 0.57109
 C1218 C 1.09838 1.08080 0.55464
 C1219 C 1.17030 1.18773 0.66479
 C1220 C 1.04624 1.09450 0.57843
 C1221 C 1.11777 1.14158 0.61080
 C1222 C 1.13412 1.15711 0.62740
 C1223 C 1.15360 1.17405 0.64736
 C1224 C 1.06354 1.07533 0.55861
 H1225 H 1.05042 1.13094 0.61083
 H1226 H 1.14296 1.10663 0.56841
 H1227 H 1.11236 1.06652 0.53947
 H1228 H 1.01942 1.09083 0.58196
 C1229 C 0.56396 0.61738 0.09476
 C1230 C 0.59894 0.62138 0.09141
 C1231 C 0.61584 0.60361 0.07076
 C1232 C 0.59817 0.58088 0.05427
 C1233 C 0.67085 0.68729 0.16450
 C1234 C 0.54617 0.59467 0.07824
 C1235 C 0.61804 0.64136 0.11056
 C1236 C 0.63452 0.65680 0.12713
 C1237 C 0.65412 0.67365 0.14707
 C1238 C 0.56331 0.57554 0.05831
 H1239 H 0.55064 0.63094 0.11075
 H1240 H 0.64291 0.60646 0.06801
 H1241 H 0.61202 0.56663 0.03901
 H1242 H 0.51936 0.59110 0.08183
 C1243 C 1.06426 0.88184 0.40606
 C1244 C 1.09928 0.87796 0.40914
 C1245 C 1.11639 0.89595 0.42955
 C1246 C 1.09887 0.91877 0.44605
 C1247 C 1.17033 0.81186 0.33563
 C1248 C 1.04663 0.90464 0.42259
 C1249 C 1.11816 0.85792 0.38990
 C1250 C 1.13442 0.84242 0.37322
 C1251 C 1.15375 0.82552 0.35315
 C1252 C 1.06396 0.92399 0.44227
 H1253 H 1.05078 0.86811 0.39025
 H1254 H 1.14350 0.89320 0.43207
 H1255 H 1.11287 0.93320 0.46111
 H1256 H 1.01977 0.90810 0.41920
 C1257 C 0.56411 0.38306 -0.09470
 C1258 C 0.59913 0.37929 -0.09153
 C1259 C 0.61613 0.39737 -0.07112
 C1260 C 0.59847 0.42016 -0.05467
 C1261 C 0.67064 0.31282 -0.16457
 C1262 C 0.54636 0.40582 -0.07821
 C1263 C 0.61815 0.35919 -0.11065
 C1264 C 0.63453 0.34362 -0.12721
 C1265 C 0.65400 0.32660 -0.14714
 C1266 C 0.56356 0.42524 -0.05851
 H1267 H 0.55072 0.36926 -0.11051
 H1268 H 0.64323 0.39470 -0.06853
 H1269 H 0.61238 0.43463 -0.03958
 H1270 H 0.51949 0.40918 -0.08164
 C1271 C 0.93615 1.11661 0.40522
 C1272 C 0.90115 1.12055 0.40846
 C1273 C 0.88418 1.10277 0.42911
 C1274 C 0.90182 1.08010 0.44571
 C1275 C 0.82958 1.18685 0.33525
 C1276 C 0.95389 1.09396 0.42185
 C1277 C 0.88212 1.14055 0.38925
 C1278 C 0.86572 1.15606 0.37264
 C1279 C 0.84624 1.17306 0.35268
 C1280 C 0.93670 1.07482 0.44179
 H1281 H 0.94953 1.13018 0.38924
 H1282 H 0.85710 1.10557 0.43178
 H1283 H 0.88791 1.06584 0.46096
 H1284 H 0.98073 1.09044 0.41835
 C1285 C 0.38252 0.60287 -0.07115
 C1286 C 0.39936 0.62090 -0.09173
 C1287 C 0.43439 0.61721 -0.09498
 C1288 C 0.45229 0.59460 -0.07842
 C1289 C 0.32755 0.68741 -0.16468
 C1290 C 0.40031 0.58024 -0.05463
 C1291 C 0.38020 0.64092 -0.11085
 C1292 C 0.36372 0.65647 -0.12738
 C1293 C 0.34419 0.67354 -0.14727
 C1294 C 0.43524 0.57525 -0.05854
 H1295 H 0.35541 0.60548 -0.06848
 H1296 H 0.44768 0.63097 -0.11090
 H1297 H 0.47916 0.59130 -0.08192
 H1298 H 0.38650 0.56582 -0.03942
 C1299 C 0.93644 0.88148 0.59462
 C1300 C 0.90152 0.87724 0.59116
 C1301 C 0.88457 0.89503 0.57053
 C1302 C 0.90213 0.91805 0.55420
 C1303 C 0.82973 0.81127 0.66433
 C1304 C 0.95411 0.90448 0.57826
 C1305 C 0.88249 0.85713 0.61027
 C1306 C 0.86606 0.84164 0.62686
 C1307 C 0.84649 0.82482 0.64685
 C1308 C 0.93690 0.92366 0.55838
 H1309 H 0.94979 0.86792 0.61061
 H1310 H 0.85753 0.89199 0.56772
 H1311 H 0.88823 0.93233 0.53897
 H1312 H 0.98088 0.90825 0.58194
 C1313 C 0.43567 0.38223 0.09430
 C1314 C 0.40068 0.37819 0.09106
 C1315 C 0.38362 0.39617 0.07060
 C1316 C 0.40115 0.41914 0.05420
 C1317 C 0.32925 0.31188 0.16431
 C1318 C 0.45330 0.40518 0.07786
 C1319 C 0.38173 0.35804 0.11021
 C1320 C 0.36538 0.34249 0.12682
 C1321 C 0.34592 0.32555 0.14682
 C1322 C 0.43601 0.42452 0.05815
 H1323 H 0.44909 0.36851 0.11015
 H1324 H 0.35654 0.39329 0.06797
 H1325 H 0.38719 0.43355 0.03910
 H1326 H 0.48013 0.40876 0.08136
   
