data_POSCAR
  _audit_creation_date              2014-09-24
  _audit_creation_method            'ToBaCCo'
  _symmetry_space_group_name_H-M    'P1'
  _symmetry_Int_Tables_number       1
  _symmetry_cell_setting            triclinic
  loop_
  _symmetry_equiv_pos_as_xyz
 x,y,z
_cell_length_a 56.3128
_cell_length_b 37.4591
_cell_length_c 39.4077
_cell_angle_alpha 89.931300
_cell_angle_beta 89.955600
_cell_angle_gamma 89.982200
loop_
  _atom_site_label
  _atom_site_type_symbol
  _atom_site_fract_x
  _atom_site_fract_y
  _atom_site_fract_z
C1 C 0.00056 -0.00082 0.10895
 C2 C 0.00081 0.00091 -0.11307
 C3 C -0.05442 -0.05909 0.04923
 C4 C -0.05432 0.05843 0.04997
 C5 C -0.05445 -0.05795 -0.05380
 C6 C 0.05493 -0.05499 -0.05722
 C7 C 0.05494 0.05569 -0.05655
 C8 C 0.05504 -0.05547 0.05202
 C9 C -0.05444 0.05915 -0.05267
 C10 C 0.05510 0.05462 0.05271
 O11 O -0.03277 -0.06562 -0.06170
 O12 O -0.06100 -0.03388 -0.03239
 O13 O -0.03276 0.06687 -0.06053
 O14 O -0.06101 0.03459 -0.03175
 O15 O 0.03343 0.06247 0.06053
 O16 O 0.06154 0.03233 0.02959
 O17 O 0.00045 0.03123 -0.09780
 O18 O 0.00049 -0.02967 -0.09818
 O19 O 0.00039 0.02975 0.09408
 O20 O 0.00035 -0.03119 0.09376
 O21 O 0.03322 -0.06277 -0.06479
 O22 O 0.06141 -0.03254 -0.03424
 O23 O -0.03269 -0.06695 0.05672
 O24 O -0.06101 -0.03446 0.02835
 O25 O 0.03339 -0.06346 0.05972
 O26 O 0.06151 -0.03286 0.02917
 O27 O 0.03325 0.06369 -0.06399
 O28 O 0.06142 0.03289 -0.03385
 O29 O 0.00154 0.09961 0.05037
 O30 O 0.00124 0.10044 -0.05320
 O31 O 0.00120 -0.09963 -0.05413
 O32 O 0.00139 -0.10038 0.04942
 O33 O -0.02025 -0.04697 -0.00224
 O34 O -0.02020 0.04701 -0.00166
 O35 O 0.02042 -0.04675 -0.00239
 O36 O -0.02138 -0.00032 0.04332
 O37 O -0.06095 0.03417 0.02879
 O38 O -0.03259 0.06607 0.05756
 O39 O 0.02206 -0.00038 0.04337
 O40 O 0.02197 0.00035 -0.04766
 O41 O 0.02047 0.04674 -0.00183
 O42 O -0.02147 0.00041 -0.04718
 Zr43 Zr 0.00032 0.04397 0.04238
 Zr44 Zr 0.00020 -0.04393 -0.04646
 Zr45 Zr -0.04046 0.00004 -0.00183
 Zr46 Zr 0.00026 -0.04464 0.04186
 Zr47 Zr 0.00022 0.04466 -0.04590
 Zr48 Zr 0.04087 -0.00003 -0.00224
 H49 H 0.02999 -0.06892 -0.00256
 H50 H -0.03204 -0.00047 0.06330
 H51 H 0.03006 0.06888 -0.00172
 H52 H -0.03209 0.00064 -0.06717
 H53 H -0.00130 0.11051 0.02787
 H54 H -0.00142 0.11092 -0.03050
 H55 H -0.00053 -0.11099 0.02663
 H56 H -0.00225 -0.11033 -0.03171
 C57 C 0.25052 0.24932 0.13830
 C58 C 0.25029 0.24936 0.36028
 C59 C 0.19521 0.30782 0.19746
 C60 C 0.19532 0.19068 0.19772
 C61 C 0.19506 0.30792 0.30080
 C62 C 0.30446 0.30483 0.30377
 C63 C 0.30438 0.19373 0.30380
 C64 C 0.30452 0.30494 0.19507
 C65 C 0.19504 0.19117 0.30092
 C66 C 0.30471 0.19350 0.19530
 O67 O 0.21676 0.31553 0.30861
 O68 O 0.18851 0.28374 0.27947
 O69 O 0.21672 0.18342 0.30874
 O70 O 0.18850 0.21532 0.27955
 O71 O 0.28303 0.18575 0.18753
 O72 O 0.31116 0.21638 0.21791
 O73 O 0.25000 0.21890 0.34527
 O74 O 0.25000 0.27984 0.34522
 O75 O 0.25027 0.21888 0.15341
 O76 O 0.25020 0.27977 0.15333
 O77 O 0.28277 0.31267 0.31141
 O78 O 0.31100 0.28211 0.28105
 O79 O 0.21693 0.31560 0.18988
 O80 O 0.18859 0.28354 0.21866
 O81 O 0.28287 0.31275 0.18733
 O82 O 0.31105 0.28215 0.21775
 O83 O 0.28269 0.18596 0.31149
 O84 O 0.31095 0.21647 0.28111
 O85 O 0.25075 0.14932 0.19752
 O86 O 0.25069 0.14932 0.30083
 O87 O 0.25081 0.34946 0.30058
 O88 O 0.25067 0.34930 0.19730
 O89 O 0.22930 0.29638 0.24920
 O90 O 0.22932 0.20240 0.24929
 O91 O 0.26998 0.29602 0.24928
 O92 O 0.22822 0.24930 0.20398
 O93 O 0.18866 0.21504 0.21880
 O94 O 0.21704 0.18293 0.19017
 O95 O 0.27170 0.24932 0.20378
 O96 O 0.27153 0.24936 0.29484
 O97 O 0.26999 0.20264 0.24941
 O98 O 0.22807 0.24941 0.29446
 Zr99 Zr 0.24992 0.20503 0.20521
 Zr100 Zr 0.24974 0.29368 0.29339
 Zr101 Zr 0.20908 0.24941 0.24918
 Zr102 Zr 0.24984 0.29360 0.20511
 Zr103 Zr 0.24972 0.20510 0.29348
 Zr104 Zr 0.29048 0.24931 0.24937
 H105 H 0.27951 0.31820 0.24931
 H106 H 0.21764 0.24928 0.18395
 H107 H 0.27952 0.18044 0.24950
 H108 H 0.21745 0.24945 0.31448
 H109 H 0.25055 0.13866 0.22049
 H110 H 0.24624 0.13882 0.27871
 H111 H 0.25022 0.35995 0.22023
 H112 H 0.24631 0.35996 0.27846
 C113 C 0.50005 -0.00284 0.11079
 C114 C 0.49996 -0.00131 -0.11058
 C115 C 0.55561 0.05591 0.05202
 C116 C 0.55569 -0.06029 0.05203
 C117 C 0.55558 0.05619 -0.05228
 C118 C 0.44609 0.05368 -0.05400
 C119 C 0.44606 -0.05722 -0.05425
 C120 C 0.44617 0.05334 0.05490
 C121 C 0.55548 -0.06011 -0.05231
 C122 C 0.44603 -0.05802 0.05467
 O123 O 0.53382 0.06392 -0.05978
 O124 O 0.56213 0.03216 -0.03071
 O125 O 0.53372 -0.06786 -0.05974
 O126 O 0.56207 -0.03613 -0.03081
 O127 O 0.46778 -0.06585 0.06220
 O128 O 0.43959 -0.03510 0.03201
 O129 O 0.50031 -0.03187 -0.09573
 O130 O 0.50030 0.02909 -0.09552
 O131 O 0.50040 -0.03326 0.09577
 O132 O 0.50045 0.02771 0.09594
 O133 O 0.46777 0.06154 -0.06174
 O134 O 0.43960 0.03091 -0.03124
 O135 O 0.53389 0.06366 0.05973
 O136 O 0.56217 0.03192 0.03050
 O137 O 0.46788 0.06115 0.06245
 O138 O 0.43962 0.03063 0.03220
 O139 O 0.46773 -0.06507 -0.06201
 O140 O 0.43956 -0.03463 -0.03141
 O141 O 0.49994 -0.10263 0.05041
 O142 O 0.50010 -0.10183 -0.05195
 O143 O 0.49980 0.09844 -0.05014
 O144 O 0.50029 0.09769 0.05225
 O145 O 0.52144 0.04498 0.00022
 O146 O 0.52142 -0.04913 -0.00011
 O147 O 0.48063 0.04464 0.00037
 O148 O 0.52251 -0.00235 0.04516
 O149 O 0.56217 -0.03632 0.03038
 O150 O 0.53396 -0.06804 0.05976
 O151 O 0.47913 -0.00234 0.04569
 O152 O 0.47904 -0.00179 -0.04517
 O153 O 0.48060 -0.04880 0.00005
 O154 O 0.52243 -0.00184 -0.04510
 Zr155 Zr 0.50088 -0.04672 0.04403
 Zr156 Zr 0.50083 0.04253 -0.04376
 Zr157 Zr 0.54164 -0.00208 -0.00005
 Zr158 Zr 0.50091 0.04200 0.04434
 Zr159 Zr 0.50080 -0.04614 -0.04408
 Zr160 Zr 0.46015 -0.00207 0.00034
 H161 H 0.47107 0.06681 0.00044
 H162 H 0.53307 -0.00237 0.06521
 H163 H 0.47104 -0.07096 0.00003
 H164 H 0.53295 -0.00181 -0.06522
 H165 H 0.50588 -0.11268 0.02881
 H166 H 0.49920 -0.11254 -0.02905
 H167 H 0.49914 0.10843 0.02938
 H168 H 0.50568 0.10851 -0.02853
 C169 C 0.75139 0.24929 0.13978
 C170 C 0.75063 0.24923 0.36117
 C171 C 0.69565 0.30729 0.19813
 C172 C 0.69610 0.19083 0.19793
 C173 C 0.69523 0.30690 0.30225
 C174 C 0.80464 0.30461 0.30567
 C175 C 0.80506 0.19421 0.30555
 C176 C 0.80510 0.30487 0.19621
 C177 C 0.69569 0.19066 0.30182
 C178 C 0.80554 0.19478 0.19588
 O179 O 0.71689 0.31474 0.31014
 O180 O 0.68884 0.28297 0.28056
 O181 O 0.71739 0.18289 0.30954
 O182 O 0.68911 0.21476 0.28043
 O183 O 0.78390 0.18670 0.18814
 O184 O 0.81186 0.21717 0.21899
 O185 O 0.75045 0.21877 0.34617
 O186 O 0.75025 0.27975 0.34623
 O187 O 0.75115 0.21878 0.15471
 O188 O 0.75094 0.27975 0.15474
 O189 O 0.78290 0.31239 0.31313
 O190 O 0.81132 0.28223 0.28275
 O191 O 0.71738 0.31532 0.19077
 O192 O 0.68908 0.28305 0.21943
 O193 O 0.78343 0.31271 0.18850
 O194 O 0.81161 0.28236 0.21915
 O195 O 0.78335 0.18615 0.31288
 O196 O 0.81156 0.21689 0.28272
 O197 O 0.75209 0.14912 0.19971
 O198 O 0.75121 0.14916 0.30217
 O199 O 0.75090 0.34947 0.30104
 O200 O 0.75111 0.34939 0.19860
 O201 O 0.72961 0.29624 0.25030
 O202 O 0.72995 0.20212 0.25027
 O203 O 0.77044 0.29615 0.25061
 O204 O 0.72892 0.24919 0.20513
 O205 O 0.68935 0.21477 0.21939
 O206 O 0.71787 0.18324 0.19042
 O207 O 0.77227 0.24948 0.20522
 O208 O 0.77190 0.24938 0.29601
 O209 O 0.77079 0.20261 0.25057
 O210 O 0.72855 0.24907 0.29539
 Zr211 Zr 0.75070 0.20496 0.20639
 Zr212 Zr 0.75000 0.29358 0.29450
 Zr213 Zr 0.70960 0.24904 0.25011
 Zr214 Zr 0.75036 0.29368 0.20640
 Zr215 Zr 0.75033 0.20489 0.29447
 Zr216 Zr 0.79103 0.24951 0.25076
 H217 H 0.77996 0.31836 0.25072
 H218 H 0.71842 0.24919 0.18502
 H219 H 0.78047 0.18055 0.25058
 H220 H 0.71791 0.24893 0.31538
 H221 H 0.74631 0.13877 0.22129
 H222 H 0.75210 0.13857 0.27924
 H223 H 0.75084 0.36006 0.22153
 H224 H 0.74491 0.35963 0.27950
 C225 C 0.00008 0.49995 0.11030
 C226 C 0.00023 0.50030 -0.11166
 C227 C -0.05493 0.44131 0.05071
 C228 C -0.05497 0.55830 0.05123
 C229 C -0.05498 0.44218 -0.05270
 C230 C 0.05443 0.44516 -0.05538
 C231 C 0.05449 0.55532 -0.05507
 C232 C 0.05438 0.44469 0.05398
 C233 C -0.05485 0.55899 -0.05204
 C234 C 0.05442 0.55517 0.05431
 O235 O -0.03328 0.43446 -0.06046
 O236 O -0.06155 0.46619 -0.03122
 O237 O -0.03313 0.56675 -0.05965
 O238 O -0.06148 0.53460 -0.03093
 O239 O 0.03273 0.56305 0.06193
 O240 O 0.06093 0.53270 0.03134
 O241 O -0.00003 0.53073 -0.09653
 O242 O -0.00002 0.46981 -0.09661
 O243 O -0.00014 0.53047 0.09533
 O244 O -0.00019 0.46951 0.09524
 O245 O 0.03277 0.43733 -0.06312
 O246 O 0.06091 0.46752 -0.03235
 O247 O -0.03323 0.43354 0.05834
 O248 O -0.06154 0.46572 0.02962
 O249 O 0.03270 0.43676 0.06155
 O250 O 0.06091 0.46731 0.03116
 O251 O 0.03283 0.56329 -0.06275
 O252 O 0.06097 0.53278 -0.03217
 O253 O 0.00085 0.60016 0.05051
 O254 O 0.00071 0.60026 -0.05235
 O255 O 0.00087 0.40011 -0.05160
 O256 O 0.00056 0.39998 0.05110
 O257 O -0.02081 0.45314 -0.00071
 O258 O -0.02077 0.54714 -0.00056
 O259 O 0.01991 0.45340 -0.00068
 O260 O -0.02197 0.50002 0.04457
 O261 O -0.06155 0.53423 0.02984
 O262 O -0.03328 0.56599 0.05900
 O263 O 0.02144 0.50000 0.04493
 O264 O 0.02151 0.50022 -0.04603
 O265 O 0.01994 0.54686 -0.00052
 O266 O -0.02191 0.50030 -0.04584
 Zr267 Zr -0.00030 0.54435 0.04357
 Zr268 Zr -0.00029 0.45594 -0.04482
 Zr269 Zr -0.04101 0.50016 -0.00065
 Zr270 Zr -0.00032 0.45571 0.04343
 Zr271 Zr -0.00024 0.54453 -0.04468
 Zr272 Zr 0.04036 0.50011 -0.00052
 H273 H 0.02950 0.43126 -0.00074
 H274 H -0.03261 0.49988 0.06456
 H275 H 0.02955 0.56898 -0.00045
 H276 H -0.03251 0.50047 -0.06586
 H277 H -0.00438 0.61058 0.02869
 H278 H 0.00097 0.61084 -0.02938
 H279 H 0.00113 0.38940 0.02814
 H280 H -0.00474 0.38977 -0.02992
 C281 C 0.25034 0.75068 0.13900
 C282 C 0.25028 0.75187 0.36039
 C283 C 0.19517 0.80911 0.19745
 C284 C 0.19514 0.69229 0.19850
 C285 C 0.19518 0.81025 0.30085
 C286 C 0.30452 0.80723 0.30343
 C287 C 0.30464 0.69654 0.30450
 C288 C 0.30464 0.80652 0.19446
 C289 C 0.19517 0.69329 0.30211
 C290 C 0.30450 0.69553 0.19549
 O291 O 0.21690 0.81811 0.30830
 O292 O 0.18856 0.78575 0.27992
 O293 O 0.21690 0.68567 0.30982
 O294 O 0.18856 0.71725 0.28055
 O295 O 0.28282 0.68756 0.18799
 O296 O 0.31104 0.71840 0.21801
 O297 O 0.25008 0.72130 0.34564
 O298 O 0.25003 0.78226 0.34520
 O299 O 0.25005 0.72029 0.15417
 O300 O 0.25011 0.78126 0.15371
 O301 O 0.28284 0.81509 0.31110
 O302 O 0.31106 0.78440 0.28084
 O303 O 0.21686 0.81680 0.18965
 O304 O 0.18857 0.78516 0.21902
 O305 O 0.28291 0.81426 0.18680
 O306 O 0.31111 0.78398 0.21744
 O307 O 0.28297 0.68869 0.31231
 O308 O 0.31110 0.71896 0.28144
 O309 O 0.25064 0.65091 0.19865
 O310 O 0.25109 0.65147 0.30131
 O311 O 0.25059 0.85162 0.30091
 O312 O 0.25087 0.85116 0.19804
 O313 O 0.22928 0.79826 0.24932
 O314 O 0.22929 0.70422 0.25005
 O315 O 0.27005 0.79810 0.24925
 O316 O 0.22818 0.75099 0.20456
 O317 O 0.18854 0.71672 0.21955
 O318 O 0.21688 0.68451 0.19095
 O319 O 0.27159 0.75101 0.20411
 O320 O 0.27162 0.75163 0.29501
 O321 O 0.27008 0.70464 0.24995
 O322 O 0.22819 0.75158 0.29485
 Zr323 Zr 0.24980 0.70668 0.20594
 Zr324 Zr 0.24981 0.79589 0.29338
 Zr325 Zr 0.20905 0.75122 0.24973
 Zr326 Zr 0.24985 0.79537 0.20526
 Zr327 Zr 0.24986 0.70726 0.29403
 Zr328 Zr 0.29051 0.75140 0.24949
 H329 H 0.27960 0.82027 0.24901
 H330 H 0.21757 0.75076 0.18456
 H331 H 0.27966 0.68249 0.25014
 H332 H 0.21757 0.75178 0.31487
 H333 H 0.25135 0.64046 0.22167
 H334 H 0.24563 0.64096 0.27968
 H335 H 0.24568 0.86160 0.21986
 H336 H 0.25114 0.86220 0.27793
 C337 C 0.49867 0.50033 0.11081
 C338 C 0.49941 0.50019 -0.11057
 C339 C 0.55464 0.55799 0.05221
 C340 C 0.55422 0.44172 0.05284
 C341 C 0.55500 0.55758 -0.05162
 C342 C 0.44562 0.55634 -0.05482
 C343 C 0.44508 0.44513 -0.05433
 C344 C 0.44526 0.55667 0.05387
 C345 C 0.55437 0.44136 -0.05121
 C346 C 0.44486 0.44531 0.05430
 O347 O 0.53337 0.56557 -0.05951
 O348 O 0.56139 0.53359 -0.03000
 O349 O 0.53267 0.43374 -0.05889
 O350 O 0.56103 0.46540 -0.02985
 O351 O 0.46648 0.43730 0.06215
 O352 O 0.43848 0.46813 0.03156
 O353 O 0.49958 0.46973 -0.09552
 O354 O 0.49988 0.53069 -0.09570
 O355 O 0.49895 0.46982 0.09596
 O356 O 0.49921 0.53078 0.09577
 O357 O 0.46738 0.56393 -0.06236
 O358 O 0.43892 0.53370 -0.03207
 O359 O 0.53294 0.56610 0.05960
 O360 O 0.56119 0.53375 0.03096
 O361 O 0.46695 0.56428 0.06163
 O362 O 0.43870 0.53386 0.03128
 O363 O 0.46676 0.43703 -0.06181
 O364 O 0.43859 0.46806 -0.03179
 O365 O 0.49836 0.40014 0.05123
 O366 O 0.49889 0.40017 -0.05136
 O367 O 0.49953 0.60035 -0.05113
 O368 O 0.49953 0.60038 0.05168
 O369 O 0.52066 0.54707 0.00015
 O370 O 0.52024 0.45296 0.00038
 O371 O 0.47988 0.54721 -0.00011
 O372 O 0.52137 0.50011 0.04547
 O373 O 0.56093 0.46555 0.03120
 O374 O 0.53245 0.43424 0.06045
 O375 O 0.47799 0.50055 0.04544
 O376 O 0.47825 0.50044 -0.04545
 O377 O 0.47947 0.45378 0.00017
 O378 O 0.52165 0.49995 -0.04485
 Zr379 Zr 0.49960 0.45598 0.04431
 Zr380 Zr 0.50024 0.54453 -0.04402
 Zr381 Zr 0.54062 0.49979 0.00044
 Zr382 Zr 0.49995 0.54465 0.04407
 Zr383 Zr 0.49981 0.45589 -0.04378
 Zr384 Zr 0.45921 0.50072 -0.00012
 H385 H 0.47045 0.56951 -0.00029
 H386 H 0.53186 0.50008 0.06561
 H387 H 0.46984 0.43169 0.00018
 H388 H 0.53226 0.49976 -0.06487
 H389 H 0.50397 0.38978 0.02959
 H390 H 0.49816 0.38958 -0.02839
 H391 H 0.49916 0.61100 0.02870
 H392 H 0.50478 0.61068 -0.02930
 C393 C 0.75063 0.74940 0.13907
 C394 C 0.75018 0.75134 0.36040
 C395 C 0.69521 0.80779 0.19667
 C396 C 0.69534 0.69145 0.19833
 C397 C 0.69510 0.80915 0.30076
 C398 C 0.80444 0.80609 0.30397
 C399 C 0.80453 0.69582 0.30526
 C400 C 0.80466 0.80495 0.19432
 C401 C 0.69515 0.69274 0.30225
 C402 C 0.80468 0.69464 0.19576
 O403 O 0.71680 0.81710 0.30827
 O404 O 0.68855 0.78479 0.27965
 O405 O 0.71685 0.68513 0.31010
 O406 O 0.68858 0.71648 0.28044
 O407 O 0.78302 0.68662 0.18823
 O408 O 0.81119 0.71740 0.21841
 O409 O 0.75000 0.72070 0.34575
 O410 O 0.74991 0.78167 0.34512
 O411 O 0.75034 0.71906 0.15433
 O412 O 0.75033 0.78004 0.15368
 O413 O 0.78274 0.81408 0.31140
 O414 O 0.81104 0.78338 0.28130
 O415 O 0.71694 0.81547 0.18897
 O416 O 0.68862 0.78409 0.21852
 O417 O 0.78297 0.81276 0.18661
 O418 O 0.81114 0.78275 0.21758
 O419 O 0.78282 0.68800 0.31290
 O420 O 0.81107 0.71805 0.28206
 O421 O 0.75082 0.64983 0.19896
 O422 O 0.75100 0.65062 0.30123
 O423 O 0.75050 0.85092 0.30032
 O424 O 0.75104 0.85014 0.19821
 O425 O 0.72926 0.79740 0.24915
 O426 O 0.72932 0.70330 0.25013
 O427 O 0.77011 0.79713 0.24926
 O428 O 0.72833 0.74990 0.20452
 O429 O 0.68868 0.71583 0.21938
 O430 O 0.71708 0.68354 0.19095
 O431 O 0.77168 0.74995 0.20436
 O432 O 0.77154 0.75082 0.29514
 O433 O 0.77017 0.70364 0.25023
 O434 O 0.72817 0.75079 0.29473
 Zr435 Zr 0.74996 0.70561 0.20614
 Zr436 Zr 0.74976 0.79511 0.29327
 Zr437 Zr 0.70910 0.75033 0.24957
 Zr438 Zr 0.74991 0.79431 0.20521
 Zr439 Zr 0.74982 0.70644 0.29418
 Zr440 Zr 0.79057 0.75040 0.24979
 H441 H 0.77971 0.81926 0.24900
 H442 H 0.71779 0.74960 0.18446
 H443 H 0.77977 0.68151 0.25053
 H444 H 0.71755 0.75104 0.31474
 H445 H 0.75165 0.63941 0.22199
 H446 H 0.74503 0.64022 0.27981
 H447 H 0.74483 0.86050 0.21953
 H448 H 0.75193 0.86126 0.27732
 C449 C -0.00017 0.00150 0.38864
 C450 C -0.00014 0.00075 0.61054
 C451 C -0.05519 0.06006 0.44777
 C452 C -0.05539 -0.05703 0.44808
 C453 C -0.05512 0.06007 0.55113
 C454 C 0.05421 0.05578 0.55437
 C455 C 0.05372 -0.05455 0.55438
 C456 C 0.05418 0.05597 0.44502
 C457 C -0.05565 -0.05678 0.55120
 C458 C 0.05399 -0.05430 0.44502
 O459 O -0.03340 0.06763 0.55882
 O460 O -0.06180 0.03590 0.52992
 O461 O -0.03399 -0.06468 0.55902
 O462 O -0.06211 -0.03253 0.52987
 O463 O 0.03230 -0.06204 0.43733
 O464 O 0.06050 -0.03188 0.46797
 O465 O -0.00058 -0.02969 0.59550
 O466 O -0.00036 0.03127 0.59554
 O467 O -0.00051 -0.02900 0.40367
 O468 O -0.00033 0.03196 0.40367
 O469 O 0.03255 0.06391 0.56194
 O470 O 0.06064 0.03323 0.53147
 O471 O -0.03345 0.06762 0.44005
 O472 O -0.06183 0.03590 0.46910
 O473 O 0.03255 0.06405 0.43731
 O474 O 0.06061 0.03343 0.46796
 O475 O 0.03202 -0.06233 0.56197
 O476 O 0.06034 -0.03206 0.53148
 O477 O 0.00002 -0.09873 0.44763
 O478 O -0.00001 -0.09913 0.55047
 O479 O 0.00052 0.10104 0.55158
 O480 O 0.00077 0.10142 0.44864
 O481 O -0.02104 0.04835 0.49963
 O482 O -0.02134 -0.04565 0.49952
 O483 O 0.01967 0.04774 0.49964
 O484 O -0.02230 0.00141 0.45435
 O485 O -0.06196 -0.03264 0.46917
 O486 O -0.03370 -0.06494 0.44046
 O487 O 0.02111 0.00113 0.45416
 O488 O 0.02102 0.00086 0.54511
 O489 O 0.01938 -0.04574 0.49960
 O490 O -0.02239 0.00125 0.54479
 Zr491 Zr -0.00075 -0.04304 0.45544
 Zr492 Zr -0.00056 0.04536 0.54377
 Zr493 Zr -0.04141 0.00151 0.49954
 Zr494 Zr -0.00056 0.04559 0.45550
 Zr495 Zr -0.00091 -0.04326 0.54367
 Zr496 Zr 0.03995 0.00084 0.49967
 H497 H 0.02933 0.06980 0.49966
 H498 H -0.03292 0.00147 0.43435
 H499 H 0.02891 -0.06794 0.49962
 H500 H -0.03300 0.00134 0.56481
 H501 H 0.00056 -0.10944 0.47056
 H502 H -0.00526 -0.10936 0.52861
 H503 H -0.00434 0.11177 0.47054
 H504 H 0.00081 0.11175 0.52865
 C505 C 0.25027 0.24867 0.86197
 C506 C 0.25058 0.24856 0.64004
 C507 C 0.19495 0.19065 0.80281
 C508 C 0.19525 0.30761 0.80211
 C509 C 0.19524 0.19008 0.69949
 C510 C 0.30459 0.19285 0.69702
 C511 C 0.30466 0.30403 0.69657
 C512 C 0.30441 0.19297 0.80571
 C513 C 0.19527 0.30701 0.69893
 C514 C 0.30459 0.30416 0.80527
 O515 O 0.21695 0.18225 0.69194
 O516 O 0.18863 0.21445 0.72058
 O517 O 0.21700 0.31466 0.69122
 O518 O 0.18865 0.28290 0.72032
 O519 O 0.28290 0.31205 0.81290
 O520 O 0.31110 0.28134 0.78265
 O521 O 0.25033 0.27906 0.65498
 O522 O 0.25024 0.21812 0.65515
 O523 O 0.25003 0.27912 0.84685
 O524 O 0.24997 0.21818 0.84703
 O525 O 0.28292 0.18507 0.68929
 O526 O 0.31110 0.21562 0.71965
 O527 O 0.21663 0.18288 0.81068
 O528 O 0.18848 0.21477 0.78136
 O529 O 0.28270 0.18523 0.81339
 O530 O 0.31097 0.21565 0.78291
 O531 O 0.28300 0.31185 0.68879
 O532 O 0.31113 0.28131 0.71937
 O533 O 0.25075 0.34867 0.80277
 O534 O 0.25103 0.34869 0.69956
 O535 O 0.25067 0.14860 0.69924
 O536 O 0.25067 0.14855 0.80232
 O537 O 0.22929 0.20170 0.75108
 O538 O 0.22941 0.29569 0.75084
 O539 O 0.26997 0.20191 0.75118
 O540 O 0.22812 0.24878 0.79618
 O541 O 0.18863 0.28325 0.78105
 O542 O 0.21695 0.31525 0.80982
 O543 O 0.27158 0.24861 0.79658
 O544 O 0.27171 0.24853 0.70553
 O545 O 0.27008 0.29529 0.75092
 O546 O 0.22825 0.24863 0.70571
 Zr547 Zr 0.24986 0.29297 0.79503
 Zr548 Zr 0.24986 0.20430 0.70699
 Zr549 Zr 0.20912 0.24876 0.75089
 Zr550 Zr 0.24970 0.20438 0.79526
 Zr551 Zr 0.24994 0.29289 0.70675
 Zr552 Zr 0.29051 0.24854 0.75110
 H553 H 0.27948 0.17969 0.75129
 H554 H 0.21748 0.24894 0.81618
 H555 H 0.27964 0.31745 0.75086
 H556 H 0.21768 0.24856 0.68566
 H557 H 0.25069 0.35935 0.77981
 H558 H 0.24624 0.35914 0.72156
 H559 H 0.24571 0.13820 0.78036
 H560 H 0.25067 0.13791 0.72219
 C561 C 0.49925 0.00005 0.38924
 C562 C 0.49921 0.00002 0.61063
 C563 C 0.55456 -0.05828 0.44804
 C564 C 0.55454 0.05797 0.44756
 C565 C 0.55458 -0.05793 0.55188
 C566 C 0.44528 -0.05517 0.55461
 C567 C 0.44528 0.05560 0.55421
 C568 C 0.44525 -0.05563 0.44589
 C569 C 0.55460 0.05828 0.55148
 C570 C 0.44522 0.05515 0.44525
 O571 O 0.53291 -0.06570 0.55967
 O572 O 0.56116 -0.03401 0.53030
 O573 O 0.53291 0.06620 0.55906
 O574 O 0.56118 0.03413 0.53017
 O575 O 0.46688 0.06306 0.43751
 O576 O 0.43873 0.03261 0.46818
 O577 O 0.49954 0.03050 0.59561
 O578 O 0.49956 -0.03046 0.59572
 O579 O 0.49956 0.03056 0.40409
 O580 O 0.49953 -0.03041 0.40428
 O581 O 0.46695 -0.06306 0.56228
 O582 O 0.43876 -0.03255 0.53179
 O583 O 0.53285 -0.06618 0.44058
 O584 O 0.56115 -0.03411 0.46933
 O585 O 0.46692 -0.06351 0.43820
 O586 O 0.43873 -0.03283 0.46852
 O587 O 0.46695 0.06353 0.56178
 O588 O 0.43876 0.03286 0.53156
 O589 O 0.49880 0.10018 0.44892
 O590 O 0.49927 0.10013 0.55158
 O591 O 0.49890 -0.10005 0.55112
 O592 O 0.49925 -0.10007 0.44832
 O593 O 0.52049 -0.04703 0.49997
 O594 O 0.52048 0.04710 0.49975
 O595 O 0.47973 -0.04671 0.50006
 O596 O 0.52152 -0.00003 0.45471
 O597 O 0.56112 0.03407 0.46917
 O598 O 0.53284 0.06575 0.43988
 O599 O 0.47817 -0.00002 0.45449
 O600 O 0.47821 0.00011 0.54539
 O601 O 0.47971 0.04679 0.49983
 O602 O 0.52157 0.00010 0.54502
 Zr603 Zr 0.49991 0.04433 0.45576
 Zr604 Zr 0.49996 -0.04423 0.54405
 Zr605 Zr 0.54064 0.00003 0.49980
 Zr606 Zr 0.49993 -0.04435 0.45597
 Zr607 Zr 0.49996 0.04442 0.54386
 Zr608 Zr 0.45931 0.00004 0.49997
 H609 H 0.47018 -0.06888 0.50019
 H610 H 0.53209 -0.00011 0.43464
 H611 H 0.47014 0.06895 0.49972
 H612 H 0.53214 0.00016 0.56506
 H613 H 0.50429 0.11047 0.47065
 H614 H 0.49853 0.11079 0.52865
 H615 H 0.49858 -0.11068 0.47128
 H616 H 0.50415 -0.11043 0.52930
 C617 C 0.74963 0.24963 0.86134
 C618 C 0.75019 0.24893 0.64000
 C619 C 0.69431 0.19133 0.80317
 C620 C 0.69428 0.30755 0.80196
 C621 C 0.69483 0.19054 0.69887
 C622 C 0.80418 0.19420 0.69669
 C623 C 0.80389 0.30440 0.69578
 C624 C 0.80363 0.19490 0.80630
 C625 C 0.69447 0.30677 0.69800
 C626 C 0.80366 0.30516 0.80511
 O627 O 0.71658 0.18275 0.69146
 O628 O 0.68810 0.21468 0.72011
 O629 O 0.71618 0.31459 0.69033
 O630 O 0.68790 0.28292 0.71969
 O631 O 0.78194 0.31302 0.81258
 O632 O 0.81026 0.28246 0.78244
 O633 O 0.74974 0.27949 0.65478
 O634 O 0.74988 0.21852 0.65514
 O635 O 0.74930 0.28005 0.84623
 O636 O 0.74930 0.21907 0.84658
 O637 O 0.78255 0.18608 0.68903
 O638 O 0.81057 0.21683 0.71952
 O639 O 0.71603 0.18376 0.81101
 O640 O 0.68779 0.21508 0.78131
 O641 O 0.78196 0.18681 0.81377
 O642 O 0.81020 0.21721 0.78321
 O643 O 0.78221 0.31221 0.68803
 O644 O 0.81037 0.28206 0.71891
 O645 O 0.74950 0.34957 0.80209
 O646 O 0.75012 0.34933 0.69966
 O647 O 0.75031 0.14901 0.69956
 O648 O 0.75023 0.14924 0.80159
 O649 O 0.72864 0.20210 0.75084
 O650 O 0.72848 0.29622 0.75036
 O651 O 0.76948 0.20266 0.75109
 O652 O 0.72739 0.24944 0.79575
 O653 O 0.68776 0.28329 0.78073
 O654 O 0.71595 0.31557 0.80953
 O655 O 0.77071 0.24957 0.79618
 O656 O 0.77101 0.24922 0.70541
 O657 O 0.76930 0.29620 0.75051
 O658 O 0.72767 0.24898 0.70550
 Zr659 Zr 0.74895 0.29384 0.79449
 Zr660 Zr 0.74939 0.20477 0.70691
 Zr661 Zr 0.70838 0.24907 0.75055
 Zr662 Zr 0.74902 0.20512 0.79497
 Zr663 Zr 0.74916 0.29346 0.70641
 Zr664 Zr 0.78979 0.24952 0.75090
 H665 H 0.77915 0.18059 0.75132
 H666 H 0.71678 0.24956 0.81578
 H667 H 0.77885 0.31838 0.75037
 H668 H 0.71717 0.24877 0.68538
 H669 H 0.75078 0.36018 0.77918
 H670 H 0.74432 0.35954 0.72127
 H671 H 0.74404 0.13902 0.78021
 H672 H 0.75172 0.13854 0.72251
 C673 C 0.00018 0.50033 0.38983
 C674 C 0.00046 0.49917 0.61177
 C675 C -0.05479 0.55892 0.44974
 C676 C -0.05487 0.44182 0.44899
 C677 C -0.05470 0.55785 0.55297
 C678 C 0.05468 0.55455 0.55548
 C679 C 0.05470 0.44414 0.55494
 C680 C 0.05464 0.55528 0.44617
 C681 C -0.05470 0.44075 0.55216
 C682 C 0.05455 0.44488 0.44549
 O683 O -0.03299 0.56547 0.56068
 O684 O -0.06131 0.53381 0.53157
 O685 O -0.03297 0.43295 0.55969
 O686 O -0.06131 0.46527 0.53118
 O687 O 0.03285 0.43708 0.43790
 O688 O 0.06109 0.46720 0.46854
 O689 O 0.00017 0.46878 0.59660
 O690 O 0.00022 0.52973 0.59685
 O691 O -0.00005 0.46977 0.40472
 O692 O -0.00003 0.53073 0.40497
 O693 O 0.03301 0.56237 0.56329
 O694 O 0.06116 0.53219 0.53243
 O695 O -0.03307 0.56667 0.44207
 O696 O -0.06137 0.53442 0.47077
 O697 O 0.03294 0.56326 0.43867
 O698 O 0.06115 0.53256 0.46893
 O699 O 0.03303 0.43622 0.56262
 O700 O 0.06119 0.46679 0.53210
 O701 O 0.00100 0.39995 0.44925
 O702 O 0.00085 0.39942 0.55215
 O703 O 0.00115 0.59955 0.55230
 O704 O 0.00085 0.60009 0.44928
 O705 O -0.02058 0.54679 0.50104
 O706 O -0.02061 0.45281 0.50063
 O707 O 0.02013 0.54645 0.50090
 O708 O -0.02181 0.50010 0.45563
 O709 O -0.06141 0.46588 0.47042
 O710 O -0.03318 0.43414 0.44111
 O711 O 0.02162 0.50002 0.45519
 O712 O 0.02173 0.49945 0.54615
 O713 O 0.02011 0.45301 0.50048
 O714 O -0.02172 0.49948 0.54606
 Zr715 Zr -0.00017 0.45573 0.45645
 Zr716 Zr -0.00005 0.54378 0.54509
 Zr717 Zr -0.04084 0.49982 0.50091
 Zr718 Zr -0.00013 0.54435 0.45683
 Zr719 Zr -0.00006 0.45518 0.54471
 Zr720 Zr 0.04057 0.49970 0.50059
 H721 H 0.02973 0.56858 0.50099
 H722 H -0.03247 0.50031 0.43568
 H723 H 0.02970 0.43086 0.50029
 H724 H -0.03232 0.49930 0.56610
 H725 H -0.00414 0.38941 0.47108
 H726 H 0.00119 0.38894 0.52914
 H727 H 0.00073 0.61062 0.47227
 H728 H -0.00384 0.61007 0.53041
 C729 C 0.24986 0.75057 0.86065
 C730 C 0.24997 0.75191 0.63923
 C731 C 0.19508 0.69218 0.80165
 C732 C 0.19455 0.80924 0.80171
 C733 C 0.19510 0.69217 0.69852
 C734 C 0.30444 0.69647 0.69541
 C735 C 0.30385 0.80746 0.69580
 C736 C 0.30444 0.69607 0.80430
 C737 C 0.19442 0.80912 0.69847
 C738 C 0.30394 0.80686 0.80451
 O739 O 0.21684 0.68467 0.69083
 O740 O 0.18838 0.71640 0.71968
 O741 O 0.21609 0.81714 0.69074
 O742 O 0.18798 0.78481 0.71974
 O743 O 0.28223 0.81450 0.81224
 O744 O 0.31053 0.78434 0.78168
 O745 O 0.24956 0.78230 0.65430
 O746 O 0.24983 0.72135 0.65410
 O747 O 0.24947 0.78112 0.84581
 O748 O 0.24980 0.72016 0.84561
 O749 O 0.28279 0.68843 0.68775
 O750 O 0.31084 0.71918 0.71818
 O751 O 0.21681 0.68458 0.80929
 O752 O 0.18838 0.71638 0.78043
 O753 O 0.28278 0.68801 0.81200
 O754 O 0.31082 0.71888 0.78154
 O755 O 0.28215 0.81512 0.68810
 O756 O 0.31047 0.78472 0.71845
 O757 O 0.24995 0.85099 0.80215
 O758 O 0.24999 0.85159 0.69915
 O759 O 0.25078 0.65148 0.69761
 O760 O 0.25104 0.65081 0.80064
 O761 O 0.22914 0.70401 0.74986
 O762 O 0.22868 0.79805 0.75017
 O763 O 0.26988 0.70464 0.74981
 O764 O 0.22781 0.75080 0.79518
 O765 O 0.18806 0.78489 0.78054
 O766 O 0.21624 0.81712 0.80934
 O767 O 0.27121 0.75120 0.79544
 O768 O 0.27120 0.75165 0.70449
 O769 O 0.26943 0.79811 0.75011
 O770 O 0.22778 0.75118 0.70483
 Zr771 Zr 0.24925 0.79532 0.79419
 Zr772 Zr 0.24966 0.70711 0.70576
 Zr773 Zr 0.20871 0.75083 0.75005
 Zr774 Zr 0.24966 0.70666 0.79389
 Zr775 Zr 0.24919 0.79574 0.70606
 Zr776 Zr 0.29009 0.75157 0.74996
 H777 H 0.27954 0.68257 0.74978
 H778 H 0.21717 0.75069 0.81518
 H779 H 0.27887 0.82038 0.75017
 H780 H 0.21716 0.75108 0.68484
 H781 H 0.24978 0.86177 0.77924
 H782 H 0.24488 0.86185 0.72109
 H783 H 0.24610 0.64051 0.77865
 H784 H 0.25093 0.64061 0.72048
 C785 C 0.49864 0.50039 0.38933
 C786 C 0.49886 0.49955 0.61070
 C787 C 0.55403 0.44148 0.44761
 C788 C 0.55456 0.55757 0.44794
 C789 C 0.55401 0.44097 0.55169
 C790 C 0.44468 0.44457 0.55425
 C791 C 0.44515 0.55619 0.55439
 C792 C 0.44463 0.44517 0.44552
 C793 C 0.55453 0.55744 0.55190
 C794 C 0.44516 0.55638 0.44585
 O795 O 0.53227 0.43331 0.55924
 O796 O 0.56071 0.46508 0.53034
 O797 O 0.53285 0.56550 0.55948
 O798 O 0.56102 0.53331 0.53049
 O799 O 0.46688 0.56398 0.43816
 O800 O 0.43852 0.53359 0.46848
 O801 O 0.49932 0.53006 0.59580
 O802 O 0.49906 0.46912 0.59568
 O803 O 0.49918 0.53081 0.40435
 O804 O 0.49888 0.46984 0.40420
 O805 O 0.46634 0.43651 0.56180
 O806 O 0.43822 0.46759 0.53172
 O807 O 0.53227 0.43405 0.43990
 O808 O 0.56070 0.46525 0.46926
 O809 O 0.46629 0.43715 0.43782
 O810 O 0.43821 0.46790 0.46831
 O811 O 0.46688 0.56372 0.56202
 O812 O 0.43850 0.53344 0.53180
 O813 O 0.49912 0.60031 0.44925
 O814 O 0.49945 0.59980 0.55202
 O815 O 0.49853 0.39974 0.55152
 O816 O 0.49818 0.39997 0.44887
 O817 O 0.51996 0.45267 0.49985
 O818 O 0.52038 0.54677 0.50007
 O819 O 0.47917 0.45346 0.49992
 O820 O 0.52120 0.49987 0.45482
 O821 O 0.56103 0.53347 0.46943
 O822 O 0.53288 0.56557 0.44029
 O823 O 0.47782 0.50035 0.45464
 O824 O 0.47782 0.50002 0.54553
 O825 O 0.47959 0.54687 0.50013
 O826 O 0.52125 0.49956 0.54513
 Zr827 Zr 0.49981 0.54444 0.45606
 Zr828 Zr 0.49942 0.45548 0.54395
 Zr829 Zr 0.54036 0.49950 0.49992
 Zr830 Zr 0.49940 0.45577 0.45585
 Zr831 Zr 0.49981 0.54411 0.54414
 Zr832 Zr 0.45889 0.50039 0.50009
 H833 H 0.46954 0.43137 0.49984
 H834 H 0.53173 0.49984 0.43470
 H835 H 0.47018 0.56918 0.50014
 H836 H 0.53181 0.49938 0.56518
 H837 H 0.50439 0.61050 0.47112
 H838 H 0.49865 0.61055 0.52912
 H839 H 0.50361 0.38953 0.47058
 H840 H 0.49773 0.38921 0.52856
 C841 C 0.74999 0.75026 0.86061
 C842 C 0.74981 0.75070 0.63920
 C843 C 0.69513 0.69155 0.80188
 C844 C 0.69452 0.80819 0.80209
 C845 C 0.69487 0.69203 0.69799
 C846 C 0.80421 0.69579 0.69497
 C847 C 0.80375 0.80639 0.69513
 C848 C 0.80443 0.69565 0.80425
 C849 C 0.69449 0.80821 0.69831
 C850 C 0.80397 0.80596 0.80440
 O851 O 0.71659 0.68447 0.69021
 O852 O 0.68823 0.71589 0.71960
 O853 O 0.71614 0.81618 0.69056
 O854 O 0.68799 0.78410 0.71977
 O855 O 0.78227 0.81373 0.81209
 O856 O 0.81053 0.78355 0.78145
 O857 O 0.74944 0.78113 0.65422
 O858 O 0.74968 0.72016 0.65411
 O859 O 0.74960 0.78077 0.84569
 O860 O 0.74988 0.71982 0.84562
 O861 O 0.78256 0.68775 0.68740
 O862 O 0.81068 0.71836 0.71784
 O863 O 0.71688 0.68384 0.80929
 O864 O 0.68838 0.71571 0.78064
 O865 O 0.78280 0.68751 0.81192
 O866 O 0.81082 0.71830 0.78136
 O867 O 0.78203 0.81408 0.68760
 O868 O 0.81041 0.78383 0.71794
 O869 O 0.74990 0.85044 0.80176
 O870 O 0.75000 0.85069 0.69885
 O871 O 0.75080 0.65038 0.69901
 O872 O 0.75077 0.65036 0.80168
 O873 O 0.72903 0.70323 0.74997
 O874 O 0.72864 0.79735 0.75006
 O875 O 0.76983 0.70389 0.74978
 O876 O 0.72783 0.75019 0.79519
 O877 O 0.68802 0.78398 0.78077
 O878 O 0.71622 0.81625 0.80951
 O879 O 0.77121 0.75059 0.79527
 O880 O 0.77108 0.75073 0.70440
 O881 O 0.76944 0.79741 0.74990
 O882 O 0.72772 0.75036 0.70492
 Zr883 Zr 0.74925 0.79473 0.79403
 Zr884 Zr 0.74950 0.70620 0.70583
 Zr885 Zr 0.70866 0.75010 0.75012
 Zr886 Zr 0.74966 0.70607 0.79392
 Zr887 Zr 0.74916 0.79487 0.70595
 Zr888 Zr 0.79005 0.75083 0.74973
 H889 H 0.77950 0.68183 0.74970
 H890 H 0.71725 0.75004 0.81524
 H891 H 0.77893 0.81964 0.74987
 H892 H 0.71712 0.75033 0.68491
 H893 H 0.74989 0.86112 0.77881
 H894 H 0.74510 0.86105 0.72084
 H895 H 0.75121 0.63973 0.77874
 H896 H 0.74549 0.64001 0.72083
 C897 C 0.00025 0.00074 0.28479
 C898 C -0.00943 0.02980 0.26640
 C899 C -0.00934 0.02928 0.23032
 C900 C 0.00026 -0.00043 0.21282
 C901 C 0.00967 -0.02968 0.23122
 C902 C 0.00981 -0.02899 0.26729
 C903 C 0.01953 -0.05840 0.28511
 C904 C 0.02859 -0.08783 0.26780
 C905 C 0.02819 -0.08868 0.23255
 C906 C 0.01899 -0.05994 0.21433
 C907 C -0.01902 0.05873 0.21251
 C908 C -0.02855 0.08781 0.22984
 C909 C -0.02878 0.08821 0.26510
 C910 C -0.01932 0.05964 0.28331
 C911 C 0.00045 -0.00085 0.17595
 C912 C 0.00056 -0.00099 0.14534
 C913 C 0.00018 0.00125 0.32165
 C914 C 0.00006 0.00148 0.35226
 H915 H 0.02018 -0.05903 0.31254
 H916 H 0.03591 -0.11013 0.28182
 H917 H 0.03521 -0.11165 0.21922
 H918 H 0.01922 -0.06176 0.18692
 H919 H -0.01937 0.05959 0.18507
 H920 H -0.03590 0.11008 0.21582
 H921 H -0.03632 0.11078 0.27844
 H922 H -0.01987 0.06121 0.31071
 C923 C 0.25103 0.24882 0.96582
 C924 C 0.25876 0.27951 0.98362
 C925 C 0.25887 0.27957 1.01971
 C926 C 0.25110 0.24904 1.03779
 C927 C 0.24335 0.21836 1.01999
 C928 C 0.24340 0.21820 0.98391
 C929 C 0.23572 0.18712 0.96670
 C930 C 0.22821 0.15708 0.98462
 C931 C 0.22799 0.15734 1.01988
 C932 C 0.23547 0.18754 1.03750
 C933 C 0.26681 0.31049 1.03693
 C934 C 0.27428 0.34056 1.01903
 C935 C 0.27401 0.34059 0.98376
 C936 C 0.26644 0.31045 0.96613
 C937 C 0.25098 0.24922 1.07465
 C938 C 0.25080 0.24930 1.10526
 C939 C 0.25083 0.24878 0.92895
 C940 C 0.25060 0.24874 0.89835
 H941 H 0.23546 0.18568 0.93928
 H942 H 0.22245 0.13351 0.97106
 H943 H 0.22203 0.13399 1.03368
 H944 H 0.23503 0.18641 1.06493
 H945 H 0.26733 0.31176 1.06435
 H946 H 0.28029 0.36398 1.03260
 H947 H 0.27981 0.36403 0.96997
 H948 H 0.26669 0.31169 0.93869
 C949 C 0.14375 0.13780 0.14493
 C950 C 0.13080 0.10918 0.15939
 C951 C 0.11273 0.09202 0.14025
 C952 C 0.10773 0.10361 0.10677
 C953 C 0.12089 0.13192 0.09215
 C954 C 0.13899 0.14904 0.11126
 C955 C 0.15200 0.17718 0.09604
 C956 C 0.14721 0.18816 0.06294
 C957 C 0.12943 0.17154 0.04433
 C958 C 0.11639 0.14369 0.05860
 C959 C 0.10003 0.06342 0.15522
 C960 C 0.10514 0.05198 0.18808
 C961 C 0.12286 0.06869 0.20674
 C962 C 0.13554 0.09708 0.19275
 C963 C 0.08906 0.08641 0.08740
 C964 C 0.07353 0.07204 0.07143
 C965 C 0.16192 0.15586 0.16457
 C966 C 0.17710 0.17143 0.18020
 H967 H 0.16601 0.19096 0.10948
 H968 H 0.15736 0.20969 0.05169
 H969 H 0.12574 0.18022 0.01866
 H970 H 0.10281 0.13150 0.04305
 H971 H 0.08610 0.04954 0.14169
 H972 H 0.09529 0.03001 0.19911
 H973 H 0.12677 0.05969 0.23225
 H974 H 0.14911 0.10931 0.20830
 C975 C 0.39259 0.39328 0.10633
 C976 C 0.38630 0.40497 0.13930
 C977 C 0.36818 0.38692 0.15760
 C978 C 0.35656 0.35724 0.14286
 C979 C 0.36286 0.34553 0.10990
 C980 C 0.38096 0.36360 0.09158
 C981 C 0.38703 0.35137 0.05871
 C982 C 0.37557 0.32206 0.04441
 C983 C 0.35776 0.30450 0.06226
 C984 C 0.35142 0.31595 0.09465
 C985 C 0.36209 0.39916 0.19046
 C986 C 0.37360 0.42841 0.20481
 C987 C 0.39146 0.44588 0.18701
 C988 C 0.39780 0.43446 0.15460
 C989 C 0.33816 0.33872 0.16157
 C990 C 0.32283 0.32329 0.17699
 C991 C 0.41104 0.41175 0.08766
 C992 C 0.42644 0.42711 0.07231
 H993 H 0.40068 0.36427 0.04375
 H994 H 0.38046 0.31302 0.01927
 H995 H 0.34881 0.28189 0.05095
 H996 H 0.33748 0.30138 0.10755
 H997 H 0.34840 0.38631 0.20539
 H998 H 0.36870 0.43744 0.22994
 H999 H 0.40048 0.46838 0.19838
 H1000 H 0.41177 0.44899 0.14174
 C1001 C 0.39360 0.10508 0.10718
 C1002 C 0.38136 0.13397 0.09193
 C1003 C 0.36315 0.15201 0.11016
 C1004 C 0.35723 0.14098 0.14351
 C1005 C 0.36938 0.11193 0.15868
 C1006 C 0.38763 0.09397 0.14048
 C1007 C 0.39953 0.06504 0.15620
 C1008 C 0.39349 0.05403 0.18888
 C1009 C 0.37558 0.07148 0.20660
 C1010 C 0.36367 0.10020 0.19187
 C1011 C 0.35120 0.18084 0.09436
 C1012 C 0.35704 0.19152 0.06151
 C1013 C 0.37484 0.17391 0.04371
 C1014 C 0.38689 0.14541 0.05859
 C1015 C 0.33863 0.15947 0.16211
 C1016 C 0.32315 0.17496 0.17736
 C1017 C 0.41229 0.08679 0.08861
 C1018 C 0.42778 0.07157 0.07319
 H1019 H 0.41356 0.05059 0.14342
 H1020 H 0.40274 0.03182 0.20049
 H1021 H 0.37094 0.06280 0.23197
 H1022 H 0.34994 0.11302 0.20673
 H1023 H 0.33723 0.19539 0.10717
 H1024 H 0.34768 0.21354 0.04978
 H1025 H 0.37929 0.18229 0.01819
 H1026 H 0.40053 0.13247 0.04366
 C1027 C 0.10681 0.39486 0.10786
 C1028 C 0.10424 0.39021 0.14336
 C1029 C 0.12244 0.37296 0.16222
 C1030 C 0.14313 0.36060 0.14549
 C1031 C 0.14573 0.36535 0.11001
 C1032 C 0.12750 0.38251 0.09113
 C1033 C 0.13045 0.38687 0.05568
 C1034 C 0.15086 0.37468 0.03935
 C1035 C 0.16868 0.35787 0.05779
 C1036 C 0.16624 0.35319 0.09272
 C1037 C 0.11941 0.36833 0.19762
 C1038 C 0.09893 0.38033 0.21390
 C1039 C 0.08119 0.39739 0.19551
 C1040 C 0.08373 0.40237 0.16063
 C1041 C 0.16157 0.34248 0.16459
 C1042 C 0.17692 0.32698 0.17997
 C1043 C 0.08819 0.41232 0.08858
 C1044 C 0.07273 0.42695 0.07265
 H1045 H 0.11708 0.39974 0.04021
 H1046 H 0.15286 0.37832 0.01224
 H1047 H 0.18449 0.34842 0.04499
 H1048 H 0.18061 0.33999 0.10596
 H1049 H 0.13275 0.35535 0.21306
 H1050 H 0.09681 0.37633 0.24094
 H1051 H 0.06536 0.40676 0.20830
 H1052 H 0.06942 0.41573 0.14741
 C1053 C 0.39254 0.10548 0.39253
 C1054 C 0.39394 0.10796 0.35673
 C1055 C 0.37590 0.12618 0.33842
 C1056 C 0.35646 0.14142 0.35602
 C1057 C 0.35489 0.13851 0.39178
 C1058 C 0.37300 0.12047 0.41011
 C1059 C 0.37104 0.11778 0.44585
 C1060 C 0.35169 0.13241 0.46296
 C1061 C 0.33401 0.15017 0.44505
 C1062 C 0.33551 0.15329 0.40986
 C1063 C 0.37781 0.12873 0.30267
 C1064 C 0.39691 0.11346 0.28550
 C1065 C 0.41438 0.09519 0.30336
 C1066 C 0.41306 0.09251 0.33858
 C1067 C 0.33802 0.15995 0.33734
 C1068 C 0.32267 0.17537 0.32194
 C1069 C 0.41125 0.08769 0.41128
 C1070 C 0.42680 0.07292 0.42684
 H1071 H 0.38435 0.10424 0.46092
 H1072 H 0.35038 0.12988 0.49026
 H1073 H 0.31903 0.16153 0.45846
 H1074 H 0.32129 0.16730 0.39705
 H1075 H 0.36460 0.14251 0.28762
 H1076 H 0.39816 0.11579 0.25818
 H1077 H 0.42902 0.08305 0.28987
 H1078 H 0.42714 0.07814 0.35136
 C1079 C 0.10706 0.39542 0.39121
 C1080 C 0.12102 0.36840 0.40654
 C1081 C 0.13908 0.35102 0.38749
 C1082 C 0.14312 0.36080 0.35322
 C1083 C 0.12935 0.38811 0.33801
 C1084 C 0.11126 0.40545 0.35705
 C1085 C 0.09774 0.43268 0.34129
 C1086 C 0.10205 0.44262 0.30775
 C1087 C 0.11979 0.42576 0.28920
 C1088 C 0.13328 0.39869 0.30397
 C1089 C 0.15278 0.32408 0.40339
 C1090 C 0.14878 0.31461 0.43713
 C1091 C 0.13113 0.33161 0.45574
 C1092 C 0.11736 0.35823 0.44077
 C1093 C 0.16143 0.34268 0.33376
 C1094 C 0.17672 0.32713 0.31825
 C1095 C 0.08841 0.41285 0.41057
 C1096 C 0.07293 0.42735 0.42661
 H1097 H 0.08376 0.44662 0.35470
 H1098 H 0.09158 0.46356 0.29612
 H1099 H 0.12309 0.43364 0.26318
 H1100 H 0.14683 0.38628 0.28846
 H1101 H 0.16674 0.31008 0.38999
 H1102 H 0.15944 0.29398 0.44889
 H1103 H 0.12808 0.32416 0.48193
 H1104 H 0.10388 0.37072 0.45632
 C1105 C 0.10671 0.10501 0.39097
 C1106 C 0.12649 0.11998 0.40790
 C1107 C 0.14458 0.13729 0.38891
 C1108 C 0.14283 0.13925 0.35311
 C1109 C 0.12304 0.12429 0.33617
 C1110 C 0.10493 0.10702 0.35517
 C1111 C 0.08531 0.09219 0.33773
 C1112 C 0.08353 0.09467 0.30253
 C1113 C 0.10115 0.11184 0.28398
 C1114 C 0.12079 0.12637 0.30044
 C1115 C 0.16407 0.15250 0.40640
 C1116 C 0.16566 0.15048 0.44164
 C1117 C 0.14811 0.13316 0.46018
 C1118 C 0.12867 0.11812 0.44367
 C1119 C 0.16129 0.15702 0.33384
 C1120 C 0.17670 0.17226 0.31840
 C1121 C 0.08809 0.08780 0.41037
 C1122 C 0.07260 0.07341 0.42635
 H1123 H 0.07112 0.07864 0.35106
 H1124 H 0.06835 0.08332 0.28961
 H1125 H 0.09957 0.11399 0.25669
 H1126 H 0.13408 0.13936 0.28489
 H1127 H 0.17823 0.16615 0.39311
 H1128 H 0.18059 0.16243 0.45460
 H1129 H 0.14955 0.13140 0.48752
 H1130 H 0.11542 0.10505 0.45922
 C1131 C 0.39233 0.39354 0.39298
 C1132 C 0.37356 0.37648 0.41060
 C1133 C 0.35573 0.35789 0.39223
 C1134 C 0.35667 0.35670 0.35633
 C1135 C 0.37546 0.37370 0.33871
 C1136 C 0.39329 0.39231 0.35708
 C1137 C 0.41178 0.40939 0.33889
 C1138 C 0.41272 0.40785 0.30358
 C1139 C 0.39548 0.38924 0.28566
 C1140 C 0.37695 0.37247 0.30286
 C1141 C 0.33728 0.34072 0.41043
 C1142 C 0.33640 0.34210 0.44575
 C1143 C 0.35366 0.36069 0.46367
 C1144 C 0.37213 0.37760 0.44646
 C1145 C 0.33821 0.33827 0.33754
 C1146 C 0.32282 0.32302 0.32203
 C1147 C 0.41079 0.41196 0.41176
 C1148 C 0.42621 0.42715 0.42727
 H1149 H 0.42566 0.42410 0.35170
 H1150 H 0.42691 0.42117 0.29006
 H1151 H 0.39648 0.38778 0.25828
 H1152 H 0.36389 0.35847 0.28777
 H1153 H 0.32339 0.32602 0.39762
 H1154 H 0.32226 0.32868 0.45927
 H1155 H 0.35273 0.36201 0.49107
 H1156 H 0.38520 0.39158 0.46155
 C1157 C 0.49854 -0.00110 0.28586
 C1158 C 0.49137 0.02954 0.26750
 C1159 C 0.49125 0.02884 0.23149
 C1160 C 0.49838 -0.00247 0.21417
 C1161 C 0.50531 -0.03324 0.23254
 C1162 C 0.50548 -0.03251 0.26855
 C1163 C 0.51264 -0.06348 0.28646
 C1164 C 0.51922 -0.09441 0.26924
 C1165 C 0.51883 -0.09524 0.23399
 C1166 C 0.51209 -0.06503 0.21570
 C1167 C 0.48393 0.05973 0.21358
 C1168 C 0.47701 0.09048 0.23082
 C1169 C 0.47726 0.09124 0.26608
 C1170 C 0.48428 0.06117 0.28435
 C1171 C 0.49889 -0.00285 0.17748
 C1172 C 0.49941 -0.00296 0.14699
 C1173 C 0.49872 -0.00041 0.32255
 C1174 C 0.49893 -0.00007 0.35304
 H1175 H 0.51319 -0.06417 0.31390
 H1176 H 0.52461 -0.11788 0.28333
 H1177 H 0.52387 -0.11937 0.22073
 H1178 H 0.51218 -0.06693 0.18830
 H1179 H 0.48344 0.06044 0.18614
 H1180 H 0.47144 0.11385 0.21674
 H1181 H 0.47187 0.11519 0.27936
 H1182 H 0.48406 0.06300 0.31175
 C1183 C 0.75132 0.24961 0.96470
 C1184 C 0.75755 0.28104 0.98248
 C1185 C 0.75797 0.28088 1.01849
 C1186 C 0.75201 0.24935 1.03639
 C1187 C 0.74589 0.21787 1.01861
 C1188 C 0.74561 0.21797 0.98260
 C1189 C 0.73958 0.18614 0.96528
 C1190 C 0.73399 0.15510 0.98310
 C1191 C 0.73413 0.15506 1.01836
 C1192 C 0.74000 0.18601 1.03605
 C1193 C 0.76436 0.31255 1.03581
 C1194 C 0.77008 0.34353 1.01800
 C1195 C 0.76954 0.34374 0.98275
 C1196 C 0.76342 0.31291 0.96504
 C1197 C 0.75197 0.24937 1.07309
 C1198 C 0.75179 0.24935 1.10358
 C1199 C 0.75072 0.24979 0.92802
 C1200 C 0.75021 0.24979 0.89753
 H1201 H 0.73914 0.18487 0.93786
 H1202 H 0.72949 0.13097 0.96945
 H1203 H 0.72971 0.13092 1.03209
 H1204 H 0.73991 0.18464 1.06348
 H1205 H 0.76501 0.31370 1.06323
 H1206 H 0.77496 0.36750 1.03164
 H1207 H 0.77402 0.36787 0.96901
 H1208 H 0.76338 0.31434 0.93761
 C1209 C 0.64424 0.13968 0.14403
 C1210 C 0.62956 0.11346 0.15922
 C1211 C 0.61136 0.09684 0.13988
 C1212 C 0.60795 0.10653 0.10545
 C1213 C 0.62268 0.13267 0.09023
 C1214 C 0.64091 0.14924 0.10956
 C1215 C 0.65548 0.17520 0.09373
 C1216 C 0.65206 0.18464 0.05987
 C1217 C 0.63414 0.16859 0.04106
 C1218 C 0.61962 0.14279 0.05589
 C1219 C 0.59692 0.07068 0.15564
 C1220 C 0.60041 0.06114 0.18946
 C1221 C 0.61825 0.07732 0.20832
 C1222 C 0.63266 0.10329 0.19355
 C1223 C 0.58940 0.08936 0.08574
 C1224 C 0.57397 0.07453 0.06992
 C1225 C 0.66263 0.15708 0.16386
 C1226 C 0.67790 0.17208 0.17983
 H1227 H 0.66963 0.18848 0.10732
 H1228 H 0.66336 0.20454 0.04818
 H1229 H 0.63150 0.17611 0.01480
 H1230 H 0.60600 0.13094 0.04017
 H1231 H 0.58281 0.05731 0.14203
 H1232 H 0.58922 0.04105 0.20109
 H1233 H 0.62092 0.06976 0.23456
 H1234 H 0.64625 0.11519 0.20928
 C1235 C -0.10655 0.38841 0.10351
 C1236 C -0.11091 0.39913 0.13741
 C1237 C -0.12897 0.38203 0.15666
 C1238 C -0.14251 0.35425 0.14191
 C1239 C -0.13796 0.34322 0.10815
 C1240 C -0.11990 0.36034 0.08890
 C1241 C -0.11558 0.34876 0.05527
 C1242 C -0.12866 0.32092 0.04114
 C1243 C -0.14641 0.30430 0.05990
 C1244 C -0.15110 0.31522 0.09302
 C1245 C -0.13307 0.39326 0.19046
 C1246 C -0.11967 0.42060 0.20485
 C1247 C -0.10192 0.43722 0.18610
 C1248 C -0.09753 0.42676 0.15275
 C1249 C -0.16109 0.33699 0.16145
 C1250 C -0.17653 0.32250 0.17751
 C1251 C -0.08838 0.40643 0.08378
 C1252 C -0.07318 0.42201 0.06815
 H1253 H -0.10202 0.36098 0.03962
 H1254 H -0.12506 0.31230 0.01543
 H1255 H -0.15659 0.28278 0.04875
 H1256 H -0.16506 0.30142 0.10662
 H1257 H -0.14662 0.38105 0.20612
 H1258 H -0.12307 0.42889 0.23070
 H1259 H -0.09151 0.45836 0.19743
 H1260 H -0.08353 0.44052 0.13921
 C1261 C 0.85842 0.14664 0.14117
 C1262 C 0.87609 0.12617 0.15780
 C1263 C 0.89394 0.10864 0.13847
 C1264 C 0.89420 0.11201 0.10266
 C1265 C 0.87689 0.13321 0.08610
 C1266 C 0.85893 0.15054 0.10541
 C1267 C 0.84184 0.17163 0.08828
 C1268 C 0.84256 0.17566 0.05313
 C1269 C 0.86016 0.15880 0.03428
 C1270 C 0.87711 0.13764 0.05042
 C1271 C 0.91127 0.08803 0.15566
 C1272 C 0.91110 0.08512 0.19091
 C1273 C 0.89385 0.10266 0.20981
 C1274 C 0.87642 0.12284 0.19359
 C1275 C 0.91227 0.09357 0.08302
 C1276 C 0.92743 0.07779 0.06745
 C1277 C 0.83969 0.16354 0.16082
 C1278 C 0.82409 0.17763 0.17699
 H1279 H 0.82784 0.18536 0.10184
 H1280 H 0.82942 0.19202 0.04045
 H1281 H 0.86071 0.16218 0.00702
 H1282 H 0.89042 0.12500 0.03466
 H1283 H 0.92515 0.07403 0.14211
 H1284 H 0.92445 0.06921 0.20362
 H1285 H 0.89399 0.10066 0.23719
 H1286 H 0.86333 0.13590 0.20941
 C1287 C 0.60652 0.39070 0.10636
 C1288 C 0.60373 0.38595 0.14182
 C1289 C 0.62208 0.36948 0.16107
 C1290 C 0.64313 0.35791 0.14478
 C1291 C 0.64592 0.36263 0.10932
 C1292 C 0.62757 0.37909 0.09006
 C1293 C 0.63082 0.38363 0.05469
 C1294 C 0.65161 0.37231 0.03879
 C1295 C 0.66950 0.35609 0.05757
 C1296 C 0.66678 0.35123 0.09243
 C1297 C 0.61883 0.36493 0.19645
 C1298 C 0.59806 0.37629 0.21236
 C1299 C 0.58017 0.39253 0.19359
 C1300 C 0.58287 0.39737 0.15872
 C1301 C 0.66180 0.34071 0.16434
 C1302 C 0.67728 0.32589 0.18013
 C1303 C 0.58790 0.40804 0.08680
 C1304 C 0.57249 0.42299 0.07095
 H1305 H 0.61738 0.39600 0.03896
 H1306 H 0.65386 0.37617 0.01176
 H1307 H 0.68559 0.34727 0.04509
 H1308 H 0.68122 0.33853 0.10594
 H1309 H 0.63227 0.35253 0.21216
 H1310 H 0.59583 0.37245 0.23940
 H1311 H 0.56409 0.40138 0.20610
 H1312 H 0.56843 0.41007 0.14521
 C1313 C -0.10754 0.11229 0.39557
 C1314 C -0.11401 0.09902 0.36321
 C1315 C -0.13246 0.11587 0.34450
 C1316 C -0.14415 0.14614 0.35804
 C1317 C -0.13762 0.15949 0.39034
 C1318 C -0.11930 0.14247 0.40919
 C1319 C -0.11315 0.15622 0.44144
 C1320 C -0.12470 0.18604 0.45466
 C1321 C -0.14261 0.20269 0.43625
 C1322 C -0.14907 0.18969 0.40445
 C1323 C -0.13882 0.10181 0.31243
 C1324 C -0.12723 0.07206 0.29918
 C1325 C -0.10898 0.05590 0.31725
 C1326 C -0.10240 0.06904 0.34894
 C1327 C -0.16281 0.16360 0.33870
 C1328 C -0.17826 0.17820 0.32267
 C1329 C -0.08893 0.09460 0.41482
 C1330 C -0.07350 0.07926 0.43025
 H1331 H -0.09937 0.14412 0.45675
 H1332 H -0.11977 0.19620 0.47938
 H1333 H -0.15156 0.22580 0.44666
 H1334 H -0.16311 0.20354 0.39110
 H1335 H -0.15282 0.11358 0.29731
 H1336 H -0.13238 0.06158 0.27468
 H1337 H -0.09987 0.03303 0.30668
 H1338 H -0.08814 0.05545 0.36205
 C1339 C 0.60620 0.39051 0.39398
 C1340 C 0.62051 0.36376 0.40904
 C1341 C 0.63875 0.34705 0.38978
 C1342 C 0.64257 0.35718 0.35554
 C1343 C 0.62823 0.38390 0.34047
 C1344 C 0.61001 0.40062 0.35974
 C1345 C 0.59593 0.42730 0.34411
 C1346 C 0.59977 0.43722 0.31046
 C1347 C 0.61761 0.42090 0.29165
 C1348 C 0.63169 0.39447 0.30632
 C1349 C 0.65282 0.32037 0.40543
 C1350 C 0.64895 0.31045 0.43908
 C1351 C 0.63110 0.32675 0.45787
 C1352 C 0.61703 0.35318 0.44319
 C1353 C 0.66121 0.34003 0.33592
 C1354 C 0.67673 0.32530 0.32013
 C1355 C 0.58768 0.40784 0.41368
 C1356 C 0.57230 0.42277 0.42956
 H1357 H 0.58183 0.44078 0.35769
 H1358 H 0.58885 0.45769 0.29892
 H1359 H 0.62053 0.42872 0.26552
 H1360 H 0.64530 0.38248 0.29062
 H1361 H 0.66692 0.30690 0.39186
 H1362 H 0.65987 0.28998 0.45063
 H1363 H 0.62815 0.31891 0.48398
 H1364 H 0.60340 0.36515 0.45887
 C1365 C 0.60688 0.10784 0.39378
 C1366 C 0.62794 0.11944 0.40994
 C1367 C 0.64621 0.13580 0.39053
 C1368 C 0.64337 0.14016 0.35506
 C1369 C 0.62234 0.12843 0.33887
 C1370 C 0.60402 0.11223 0.35831
 C1371 C 0.58313 0.10072 0.34160
 C1372 C 0.58041 0.10519 0.30670
 C1373 C 0.59831 0.12116 0.28772
 C1374 C 0.61911 0.13261 0.30346
 C1375 C 0.66704 0.14751 0.40727
 C1376 C 0.66979 0.14291 0.44214
 C1377 C 0.65204 0.12650 0.46105
 C1378 C 0.63126 0.11499 0.44530
 C1379 C 0.66193 0.15721 0.33539
 C1380 C 0.67737 0.17200 0.31961
 C1381 C 0.58828 0.09095 0.41351
 C1382 C 0.57285 0.07634 0.42947
 H1383 H 0.56868 0.08821 0.35528
 H1384 H 0.56431 0.09628 0.29434
 H1385 H 0.59606 0.12474 0.26065
 H1386 H 0.63256 0.14477 0.28759
 H1387 H 0.68141 0.16028 0.39365
 H1388 H 0.68578 0.15209 0.45454
 H1389 H 0.65436 0.12269 0.48807
 H1390 H 0.61790 0.10256 0.46113
 C1391 C -0.10703 0.38924 0.39722
 C1392 C -0.12687 0.37452 0.41431
 C1393 C -0.14490 0.35680 0.39554
 C1394 C -0.14307 0.35425 0.35978
 C1395 C -0.12321 0.36892 0.34269
 C1396 C -0.10515 0.38654 0.36147
 C1397 C -0.08554 0.40125 0.34380
 C1398 C -0.08377 0.39846 0.30863
 C1399 C -0.10132 0.38094 0.29032
 C1400 C -0.12089 0.36640 0.30699
 C1401 C -0.16446 0.34197 0.41321
 C1402 C -0.16628 0.34493 0.44836
 C1403 C -0.14885 0.36274 0.46663
 C1404 C -0.12925 0.37723 0.44998
 C1405 C -0.16168 0.33678 0.34054
 C1406 C -0.17710 0.32222 0.32454
 C1407 C -0.08861 0.40736 0.41628
 C1408 C -0.07322 0.42280 0.43158
 H1409 H -0.07139 0.41506 0.35692
 H1410 H -0.06872 0.40996 0.29554
 H1411 H -0.09976 0.37861 0.26304
 H1412 H -0.13412 0.35314 0.29161
 H1413 H -0.17853 0.32799 0.40009
 H1414 H -0.18131 0.33339 0.46148
 H1415 H -0.15052 0.36536 0.49387
 H1416 H -0.11607 0.39064 0.46533
 C1417 C 0.00052 0.50032 0.28602
 C1418 C 0.00756 0.53125 0.26794
 C1419 C 0.00765 0.53106 0.23186
 C1420 C 0.00056 0.50001 0.21408
 C1421 C -0.00654 0.46911 0.23216
 C1422 C -0.00651 0.46923 0.26824
 C1423 C -0.01358 0.43796 0.28574
 C1424 C -0.02047 0.40746 0.26811
 C1425 C -0.02063 0.40741 0.23285
 C1426 C -0.01375 0.43779 0.21494
 C1427 C 0.01488 0.56223 0.21434
 C1428 C 0.02169 0.59279 0.23195
 C1429 C 0.02144 0.59306 0.26721
 C1430 C 0.01456 0.56268 0.28514
 C1431 C 0.00046 0.49992 0.17724
 C1432 C 0.00031 0.49989 0.14665
 C1433 C 0.00046 0.50047 0.32287
 C1434 C 0.00036 0.50049 0.35346
 H1435 H -0.01385 0.43673 0.31317
 H1436 H -0.02580 0.38376 0.28190
 H1437 H -0.02609 0.38368 0.21927
 H1438 H -0.01413 0.43643 0.18752
 H1439 H 0.01534 0.56335 0.18691
 H1440 H 0.02716 0.61641 0.21815
 H1441 H 0.02673 0.61687 0.28078
 H1442 H 0.01479 0.56413 0.31256
 C1443 C 0.25003 0.75020 0.96399
 C1444 C 0.24184 0.78058 0.98184
 C1445 C 0.24207 0.78067 1.01784
 C1446 C 0.25047 0.75037 1.03566
 C1447 C 0.25858 0.71995 1.01782
 C1448 C 0.25827 0.71981 0.98181
 C1449 C 0.26623 0.68898 0.96442
 C1450 C 0.27424 0.65913 0.98217
 C1451 C 0.27475 0.65938 1.01743
 C1452 C 0.26702 0.68937 1.03519
 C1453 C 0.23382 0.81133 1.03524
 C1454 C 0.22557 0.84104 1.01749
 C1455 C 0.22527 0.84090 0.98223
 C1456 C 0.23331 0.81111 0.96447
 C1457 C 0.25057 0.75039 1.07233
 C1458 C 0.25054 0.75047 1.10282
 C1459 C 0.25002 0.75026 0.92732
 C1460 C 0.24999 0.75039 0.89683
 H1461 H 0.26631 0.68758 0.93699
 H1462 H 0.28022 0.63575 0.96848
 H1463 H 0.28112 0.63621 1.03110
 H1464 H 0.26772 0.68828 1.06261
 H1465 H 0.23364 0.81267 1.06266
 H1466 H 0.21931 0.86424 1.03119
 H1467 H 0.21878 0.86400 0.96855
 H1468 H 0.23273 0.81228 0.93704
 C1469 C 0.14317 0.63935 0.14614
 C1470 C 0.13019 0.61086 0.16081
 C1471 C 0.11199 0.59367 0.14189
 C1472 C 0.10696 0.60491 0.10831
 C1473 C 0.12012 0.63313 0.09350
 C1474 C 0.13825 0.65042 0.11246
 C1475 C 0.15113 0.67859 0.09707
 C1476 C 0.14626 0.68936 0.06393
 C1477 C 0.12853 0.67247 0.04542
 C1478 C 0.11558 0.64464 0.05988
 C1479 C 0.09919 0.56537 0.15719
 C1480 C 0.10435 0.55417 0.19010
 C1481 C 0.12226 0.57078 0.20848
 C1482 C 0.13501 0.59894 0.19420
 C1483 C 0.08831 0.58742 0.08900
 C1484 C 0.07283 0.57282 0.07305
 C1485 C 0.16153 0.65742 0.16556
 C1486 C 0.17683 0.67299 0.18105
 H1487 H 0.16511 0.69255 0.11041
 H1488 H 0.15629 0.71093 0.05256
 H1489 H 0.12481 0.68094 0.01969
 H1490 H 0.10201 0.63229 0.04442
 H1491 H 0.08514 0.55155 0.14388
 H1492 H 0.09442 0.53244 0.20139
 H1493 H 0.12624 0.56192 0.23401
 H1494 H 0.14870 0.61115 0.20957
 C1495 C 0.35776 0.85734 0.14173
 C1496 C 0.37252 0.88248 0.15834
 C1497 C 0.39098 0.90001 0.14009
 C1498 C 0.39469 0.89226 0.10529
 C1499 C 0.37998 0.86704 0.08869
 C1500 C 0.36150 0.84953 0.10694
 C1501 C 0.34712 0.82439 0.08975
 C1502 C 0.35086 0.81672 0.05556
 C1503 C 0.36890 0.83381 0.03776
 C1504 C 0.38332 0.85874 0.05398
 C1505 C 0.40542 0.92506 0.15730
 C1506 C 0.40183 0.93249 0.19157
 C1507 C 0.38387 0.91528 0.20942
 C1508 C 0.36930 0.89060 0.19313
 C1509 C 0.41360 0.91025 0.08662
 C1510 C 0.42924 0.92538 0.07125
 C1511 C 0.33881 0.83946 0.16042
 C1512 C 0.32316 0.82454 0.17595
 H1513 H 0.33288 0.81038 0.10251
 H1514 H 0.33970 0.79741 0.04281
 H1515 H 0.37174 0.82774 0.01121
 H1516 H 0.39709 0.87136 0.03902
 H1517 H 0.41965 0.93911 0.14453
 H1518 H 0.41308 0.95166 0.20435
 H1519 H 0.38123 0.92104 0.23605
 H1520 H 0.35556 0.87795 0.20811
 C1521 C 0.39309 0.60889 0.10610
 C1522 C 0.38096 0.63811 0.09126
 C1523 C 0.36277 0.65585 0.10971
 C1524 C 0.35687 0.64426 0.14288
 C1525 C 0.36906 0.61514 0.15778
 C1526 C 0.38725 0.59740 0.13933
 C1527 C 0.39924 0.56838 0.15476
 C1528 C 0.39341 0.55722 0.18746
 C1529 C 0.37555 0.57447 0.20544
 C1530 C 0.36350 0.60318 0.19094
 C1531 C 0.35086 0.68500 0.09437
 C1532 C 0.35683 0.69639 0.06179
 C1533 C 0.37468 0.67911 0.04380
 C1534 C 0.38661 0.65021 0.05818
 C1535 C 0.33828 0.66231 0.16168
 C1536 C 0.32284 0.67739 0.17722
 C1537 C 0.41158 0.59061 0.08726
 C1538 C 0.42695 0.57521 0.07186
 H1539 H 0.41325 0.55406 0.14178
 H1540 H 0.40282 0.53511 0.19893
 H1541 H 0.37107 0.56568 0.23083
 H1542 H 0.34982 0.61585 0.20602
 H1543 H 0.33686 0.69931 0.10737
 H1544 H 0.34757 0.71875 0.05046
 H1545 H 0.37927 0.68807 0.01850
 H1546 H 0.40030 0.63755 0.04312
 C1547 C 0.14327 0.86084 0.14443
 C1548 C 0.14419 0.86011 0.10852
 C1549 C 0.12628 0.87754 0.08929
 C1550 C 0.10756 0.89552 0.10612
 C1551 C 0.10678 0.89658 0.14202
 C1552 C 0.12457 0.87886 0.16125
 C1553 C 0.12313 0.87952 0.19711
 C1554 C 0.10476 0.89755 0.21349
 C1555 C 0.08770 0.91563 0.19470
 C1556 C 0.08851 0.91507 0.15937
 C1557 C 0.12759 0.87658 0.05342
 C1558 C 0.14605 0.85879 0.03703
 C1559 C 0.16346 0.84147 0.05582
 C1560 C 0.16268 0.84210 0.09116
 C1561 C 0.08898 0.91263 0.08658
 C1562 C 0.07346 0.92699 0.07061
 C1563 C 0.16157 0.84303 0.16397
 C1564 C 0.17688 0.82786 0.17968
 H1565 H 0.13610 0.86608 0.21285
 H1566 H 0.10377 0.89750 0.24089
 H1567 H 0.07374 0.93012 0.20756
 H1568 H 0.07472 0.92934 0.14588
 H1569 H 0.11442 0.88959 0.03768
 H1570 H 0.14687 0.85847 0.00960
 H1571 H 0.17765 0.82744 0.04297
 H1572 H 0.17668 0.82831 0.10465
 C1573 C 0.39332 0.60961 0.39372
 C1574 C 0.39444 0.61150 0.35786
 C1575 C 0.37646 0.62989 0.33956
 C1576 C 0.35746 0.64627 0.35725
 C1577 C 0.35660 0.64501 0.39314
 C1578 C 0.37448 0.62636 0.41143
 C1579 C 0.37304 0.62495 0.44727
 C1580 C 0.35461 0.64185 0.46457
 C1581 C 0.33740 0.66068 0.44673
 C1582 C 0.33821 0.66217 0.41142
 C1583 C 0.37801 0.63158 0.30373
 C1584 C 0.39685 0.61565 0.28649
 C1585 C 0.41438 0.59751 0.30437
 C1586 C 0.41327 0.59534 0.33964
 C1587 C 0.33870 0.66408 0.33852
 C1588 C 0.32310 0.67882 0.32297
 C1589 C 0.41164 0.59070 0.41239
 C1590 C 0.42691 0.57502 0.42776
 H1591 H 0.38610 0.61083 0.46230
 H1592 H 0.35370 0.64036 0.49195
 H1593 H 0.32336 0.67422 0.46032
 H1594 H 0.32434 0.67701 0.39867
 H1595 H 0.36481 0.64539 0.28869
 H1596 H 0.39789 0.61749 0.25913
 H1597 H 0.42895 0.58512 0.29085
 H1598 H 0.42735 0.58100 0.35242
 C1599 C 0.10676 -0.10350 0.39122
 C1600 C 0.11903 -0.13307 0.40516
 C1601 C 0.13735 -0.14995 0.38622
 C1602 C 0.14328 -0.13715 0.35345
 C1603 C 0.13130 -0.10719 0.33975
 C1604 C 0.11292 -0.09038 0.35865
 C1605 C 0.10112 -0.06055 0.34438
 C1606 C 0.10748 -0.04745 0.31253
 C1607 C 0.12560 -0.06368 0.29421
 C1608 C 0.13733 -0.09336 0.30743
 C1609 C 0.14941 -0.17942 0.40075
 C1610 C 0.14354 -0.19185 0.43303
 C1611 C 0.12557 -0.17541 0.45148
 C1612 C 0.11342 -0.14633 0.43786
 C1613 C 0.16164 -0.15500 0.33390
 C1614 C 0.17691 -0.17048 0.31833
 C1615 C 0.08796 -0.08638 0.41047
 C1616 C 0.07239 -0.07195 0.42635
 H1617 H 0.08695 -0.04697 0.35769
 H1618 H 0.09832 -0.02454 0.30204
 H1619 H 0.13052 -0.05333 0.26953
 H1620 H 0.15122 -0.10520 0.29214
 H1621 H 0.16353 -0.19310 0.38741
 H1622 H 0.15298 -0.21436 0.44376
 H1623 H 0.12106 -0.18519 0.47653
 H1624 H 0.09963 -0.13437 0.45326
 C1625 C 0.10706 0.60549 0.39228
 C1626 C 0.12686 0.62040 0.40927
 C1627 C 0.14493 0.63801 0.39038
 C1628 C 0.14308 0.64068 0.35461
 C1629 C 0.12326 0.62581 0.33763
 C1630 C 0.10528 0.60795 0.35649
 C1631 C 0.08581 0.59289 0.33890
 C1632 C 0.08402 0.59571 0.30374
 C1633 C 0.10137 0.61370 0.28538
 C1634 C 0.12088 0.62845 0.30196
 C1635 C 0.16455 0.65268 0.40795
 C1636 C 0.16630 0.64999 0.44314
 C1637 C 0.14866 0.63272 0.46158
 C1638 C 0.12910 0.61811 0.44499
 C1639 C 0.16150 0.65888 0.33539
 C1640 C 0.17685 0.67431 0.31986
 C1641 C 0.08848 0.58781 0.41159
 C1642 C 0.07303 0.57308 0.42751
 H1643 H 0.07178 0.57879 0.35208
 H1644 H 0.06909 0.58391 0.29067
 H1645 H 0.09971 0.61622 0.25813
 H1646 H 0.13400 0.64197 0.28653
 H1647 H 0.17874 0.66635 0.39474
 H1648 H 0.18144 0.66133 0.45616
 H1649 H 0.15014 0.63058 0.48889
 H1650 H 0.11583 0.60497 0.46045
 C1651 C 0.39294 -0.10674 0.39325
 C1652 C 0.38452 -0.14050 0.40410
 C1653 C 0.36641 -0.15804 0.38541
 C1654 C 0.35684 -0.14167 0.35603
 C1655 C 0.36526 -0.10792 0.34517
 C1656 C 0.38338 -0.09038 0.36387
 C1657 C 0.39151 -0.05661 0.35258
 C1658 C 0.38199 -0.04063 0.32368
 C1659 C 0.36426 -0.05779 0.30541
 C1660 C 0.35595 -0.09109 0.31587
 C1661 C 0.35826 -0.19180 0.39670
 C1662 C 0.36779 -0.20779 0.42559
 C1663 C 0.38553 -0.19064 0.44385
 C1664 C 0.39384 -0.15735 0.43340
 C1665 C 0.33828 -0.15954 0.33709
 C1666 C 0.32285 -0.17459 0.32157
 C1667 C 0.41148 -0.08886 0.41221
 C1668 C 0.42690 -0.07380 0.42774
 H1669 H 0.40527 -0.04219 0.36595
 H1670 H 0.38839 -0.01478 0.31543
 H1671 H 0.35690 -0.04526 0.28299
 H1672 H 0.34217 -0.10342 0.30077
 H1673 H 0.34449 -0.20621 0.38334
 H1674 H 0.36137 -0.23364 0.43384
 H1675 H 0.39289 -0.20319 0.46626
 H1676 H 0.40762 -0.14503 0.44849
 C1677 C 0.49705 0.50093 0.28593
 C1678 C 0.50423 0.53186 0.26801
 C1679 C 0.50434 0.53177 0.23199
 C1680 C 0.49708 0.50083 0.21422
 C1681 C 0.48957 0.47007 0.23213
 C1682 C 0.48963 0.47008 0.26815
 C1683 C 0.48224 0.43894 0.28560
 C1684 C 0.47498 0.40866 0.26790
 C1685 C 0.47477 0.40874 0.23264
 C1686 C 0.48198 0.43901 0.21482
 C1687 C 0.51178 0.56288 0.21454
 C1688 C 0.51877 0.59331 0.23222
 C1689 C 0.51848 0.59349 0.26748
 C1690 C 0.51141 0.56316 0.28532
 C1691 C 0.49753 0.50058 0.17751
 C1692 C 0.49801 0.50043 0.14702
 C1693 C 0.49750 0.50073 0.32263
 C1694 C 0.49799 0.50056 0.35313
 H1695 H 0.48195 0.43765 0.31303
 H1696 H 0.46936 0.38509 0.28165
 H1697 H 0.46900 0.38522 0.21901
 H1698 H 0.48153 0.43778 0.18739
 H1699 H 0.51225 0.56407 0.18711
 H1700 H 0.52439 0.61688 0.21848
 H1701 H 0.52387 0.61722 0.28111
 H1702 H 0.51159 0.56456 0.31274
 C1703 C 0.75020 0.74985 0.96402
 C1704 C 0.75507 0.78170 0.98200
 C1705 C 0.75552 0.78131 1.01801
 C1706 C 0.75081 0.74918 1.03570
 C1707 C 0.74560 0.71746 1.01774
 C1708 C 0.74533 0.71778 0.98172
 C1709 C 0.74002 0.68578 0.96421
 C1710 C 0.73508 0.65438 0.98185
 C1711 C 0.73530 0.65408 1.01711
 C1712 C 0.74054 0.68517 1.03499
 C1713 C 0.76057 0.81338 1.03555
 C1714 C 0.76469 0.84507 1.01797
 C1715 C 0.76391 0.84556 0.98273
 C1716 C 0.75936 0.81427 0.96480
 C1717 C 0.75092 0.74897 1.07239
 C1718 C 0.75087 0.74905 1.10288
 C1719 C 0.75019 0.75007 0.92731
 C1720 C 0.75015 0.75018 0.89682
 H1721 H 0.73954 0.68469 0.93678
 H1722 H 0.73098 0.63017 0.96806
 H1723 H 0.73140 0.62965 1.03070
 H1724 H 0.74051 0.68361 1.06241
 H1725 H 0.76127 0.81438 1.06297
 H1726 H 0.76838 0.86941 1.03178
 H1727 H 0.76677 0.87035 0.96922
 H1728 H 0.75906 0.81597 0.93739
 C1729 C 0.64331 0.64059 0.14473
 C1730 C 0.62894 0.61374 0.15952
 C1731 C 0.61065 0.59745 0.14011
 C1732 C 0.60691 0.60805 0.10600
 C1733 C 0.62129 0.63487 0.09120
 C1734 C 0.63957 0.65116 0.11061
 C1735 C 0.65377 0.67788 0.09523
 C1736 C 0.64993 0.68831 0.06172
 C1737 C 0.63196 0.67250 0.04282
 C1738 C 0.61781 0.64598 0.05721
 C1739 C 0.59644 0.57076 0.15549
 C1740 C 0.60028 0.56033 0.18900
 C1741 C 0.61826 0.57611 0.20789
 C1742 C 0.63243 0.60262 0.19350
 C1743 C 0.58838 0.59111 0.08616
 C1744 C 0.57298 0.57644 0.07021
 C1745 C 0.66175 0.65771 0.16461
 C1746 C 0.67709 0.67262 0.18050
 H1747 H 0.66795 0.69100 0.10889
 H1748 H 0.66093 0.70880 0.05037
 H1749 H 0.62900 0.68077 0.01683
 H1750 H 0.60411 0.63438 0.04145
 H1751 H 0.58225 0.55765 0.14183
 H1752 H 0.58925 0.53987 0.20035
 H1753 H 0.62122 0.56783 0.23387
 H1754 H 0.64613 0.61420 0.20926
 C1755 C 0.85731 0.85359 0.13948
 C1756 C 0.87587 0.87186 0.15634
 C1757 C 0.89405 0.88890 0.13720
 C1758 C 0.89364 0.88743 0.10127
 C1759 C 0.87530 0.86862 0.08441
 C1760 C 0.85703 0.85178 0.10356
 C1761 C 0.83880 0.83336 0.08612
 C1762 C 0.83872 0.83136 0.05081
 C1763 C 0.85672 0.84750 0.03214
 C1764 C 0.87478 0.86611 0.04858
 C1765 C 0.91238 0.90708 0.15466
 C1766 C 0.91282 0.90823 0.19000
 C1767 C 0.89511 0.89146 0.20870
 C1768 C 0.87677 0.87354 0.19222
 C1769 C 0.91194 0.90568 0.08184
 C1770 C 0.92725 0.92142 0.06648
 C1771 C 0.83859 0.83653 0.15906
 C1772 C 0.82308 0.82227 0.17528
 H1773 H 0.82448 0.82023 0.09955
 H1774 H 0.82467 0.81712 0.03788
 H1775 H 0.85671 0.84551 0.00475
 H1776 H 0.88835 0.87831 0.03295
 H1777 H 0.92660 0.92047 0.14126
 H1778 H 0.92701 0.92216 0.20293
 H1779 H 0.89560 0.89227 0.23614
 H1780 H 0.86338 0.86095 0.20789
 C1781 C 0.85689 0.64464 0.14170
 C1782 C 0.87783 0.63280 0.15808
 C1783 C 0.89594 0.61565 0.13897
 C1784 C 0.89297 0.61049 0.10363
 C1785 C 0.87202 0.62229 0.08726
 C1786 C 0.85392 0.63946 0.10636
 C1787 C 0.83310 0.65105 0.08947
 C1788 C 0.83020 0.64561 0.05474
 C1789 C 0.84786 0.62864 0.03610
 C1790 C 0.86861 0.61718 0.05200
 C1791 C 0.91671 0.60394 0.15590
 C1792 C 0.91952 0.60909 0.19069
 C1793 C 0.90183 0.62595 0.20935
 C1794 C 0.88117 0.63767 0.19338
 C1795 C 0.91136 0.59257 0.08429
 C1796 C 0.92671 0.57725 0.06879
 C1797 C 0.83841 0.66215 0.16119
 C1798 C 0.82303 0.67685 0.17718
 H1799 H 0.81884 0.66431 0.10289
 H1800 H 0.81415 0.65456 0.04224
 H1801 H 0.84547 0.62431 0.00917
 H1802 H 0.88187 0.60423 0.03640
 H1803 H 0.93099 0.59072 0.14248
 H1804 H 0.93552 0.59999 0.20321
 H1805 H 0.90412 0.62998 0.23634
 H1806 H 0.86789 0.65057 0.20900
 C1807 C 0.64294 0.85812 0.14260
 C1808 C 0.64571 0.86225 0.10706
 C1809 C 0.62749 0.87883 0.08766
 C1810 C 0.60659 0.89115 0.10388
 C1811 C 0.60393 0.88732 0.13945
 C1812 C 0.62210 0.87059 0.15884
 C1813 C 0.61892 0.86676 0.19430
 C1814 C 0.59845 0.87930 0.21019
 C1815 C 0.58085 0.89610 0.19133
 C1816 C 0.58341 0.90002 0.15636
 C1817 C 0.63073 0.88286 0.05223
 C1818 C 0.65141 0.87093 0.03643
 C1819 C 0.66916 0.85454 0.05535
 C1820 C 0.66643 0.85016 0.09026
 C1821 C 0.58795 0.90820 0.08415
 C1822 C 0.57243 0.92295 0.06836
 C1823 C 0.66148 0.84088 0.16236
 C1824 C 0.67688 0.82614 0.17839
 H1825 H 0.63218 0.85407 0.21010
 H1826 H 0.59624 0.87601 0.23730
 H1827 H 0.56513 0.90617 0.20385
 H1828 H 0.56916 0.91316 0.14279
 H1829 H 0.61740 0.89537 0.03641
 H1830 H 0.65369 0.87448 0.00936
 H1831 H 0.68517 0.84526 0.04293
 H1832 H 0.68077 0.83732 0.10390
 C1833 C -0.10672 0.61221 0.39762
 C1834 C -0.11035 0.60311 0.36311
 C1835 C -0.12849 0.62037 0.34411
 C1836 C -0.14296 0.64656 0.35973
 C1837 C -0.13924 0.65583 0.39417
 C1838 C -0.12101 0.63869 0.41313
 C1839 C -0.11752 0.64861 0.44741
 C1840 C -0.13162 0.67473 0.46253
 C1841 C -0.14959 0.69121 0.44412
 C1842 C -0.15341 0.68203 0.41031
 C1843 C -0.13173 0.61087 0.30966
 C1844 C -0.11751 0.58498 0.29443
 C1845 C -0.09979 0.56809 0.31299
 C1846 C -0.09617 0.57693 0.34694
 C1847 C -0.16162 0.66395 0.34036
 C1848 C -0.17710 0.67839 0.32425
 C1849 C -0.08839 0.59406 0.41705
 C1850 C -0.07310 0.57838 0.43246
 H1851 H -0.10385 0.63638 0.46283
 H1852 H -0.12865 0.68209 0.48874
 H1853 H -0.16062 0.71124 0.45609
 H1854 H -0.16756 0.69569 0.39700
 H1855 H -0.14525 0.62330 0.29413
 H1856 H -0.12027 0.57800 0.26807
 H1857 H -0.08877 0.54802 0.30103
 H1858 H -0.08214 0.56305 0.36028
 C1859 C 0.60659 -0.10841 0.39377
 C1860 C 0.62144 -0.13465 0.40855
 C1861 C 0.63971 -0.15071 0.38891
 C1862 C 0.64293 -0.14053 0.35457
 C1863 C 0.62804 -0.11435 0.33976
 C1864 C 0.60978 -0.09827 0.35942
 C1865 C 0.59505 -0.07223 0.34404
 C1866 C 0.59835 -0.06226 0.31028
 C1867 C 0.61630 -0.07784 0.29114
 C1868 C 0.63098 -0.10371 0.30553
 C1869 C 0.65441 -0.17681 0.40427
 C1870 C 0.65104 -0.18690 0.43799
 C1871 C 0.63306 -0.17136 0.45710
 C1872 C 0.61844 -0.14540 0.44274
 C1873 C 0.66139 -0.15738 0.33451
 C1874 C 0.67677 -0.17214 0.31856
 C1875 C 0.58817 -0.09152 0.41389
 C1876 C 0.57284 -0.07682 0.42999
 H1877 H 0.58085 -0.05931 0.35788
 H1878 H 0.58692 -0.04229 0.29893
 H1879 H 0.61885 -0.06989 0.26497
 H1880 H 0.64464 -0.11517 0.28958
 H1881 H 0.66862 -0.18971 0.39044
 H1882 H 0.66242 -0.20693 0.44931
 H1883 H 0.63044 -0.17941 0.48323
 H1884 H 0.60475 -0.13398 0.45868
 C1885 C 0.60696 0.60805 0.39449
 C1886 C 0.62754 0.62123 0.41085
 C1887 C 0.64566 0.63808 0.39148
 C1888 C 0.64307 0.64166 0.35588
 C1889 C 0.62251 0.62843 0.33952
 C1890 C 0.60445 0.61142 0.35886
 C1891 C 0.58417 0.59803 0.34189
 C1892 C 0.58174 0.60159 0.30687
 C1893 C 0.59926 0.61864 0.28802
 C1894 C 0.61950 0.63183 0.30399
 C1895 C 0.66609 0.65104 0.40839
 C1896 C 0.66858 0.64733 0.44340
 C1897 C 0.65089 0.63072 0.46231
 C1898 C 0.63054 0.61787 0.44638
 C1899 C 0.66149 0.65920 0.33619
 C1900 C 0.67682 0.67418 0.32029
 C1901 C 0.58844 0.59079 0.41418
 C1902 C 0.57298 0.57600 0.43001
 H1903 H 0.57000 0.58468 0.35545
 H1904 H 0.56619 0.59107 0.29429
 H1905 H 0.59716 0.62164 0.26087
 H1906 H 0.63270 0.64470 0.28821
 H1907 H 0.68035 0.66409 0.39478
 H1908 H 0.68434 0.65733 0.45591
 H1909 H 0.65297 0.62773 0.48947
 H1910 H 0.61725 0.60521 0.46219
 C1911 C -0.10736 -0.10951 0.39587
 C1912 C -0.11936 -0.13932 0.40980
 C1913 C -0.13744 -0.15662 0.39080
 C1914 C -0.14340 -0.14394 0.35801
 C1915 C -0.13131 -0.11425 0.34401
 C1916 C -0.11319 -0.09702 0.36296
 C1917 C -0.10121 -0.06753 0.34833
 C1918 C -0.10701 -0.05541 0.31593
 C1919 C -0.12485 -0.07210 0.29750
 C1920 C -0.13690 -0.10123 0.31122
 C1921 C -0.14918 -0.18643 0.40521
 C1922 C -0.14316 -0.19886 0.43743
 C1923 C -0.12543 -0.18200 0.45596
 C1924 C -0.11366 -0.15248 0.44248
 C1925 C -0.16190 -0.16150 0.33866
 C1926 C -0.17727 -0.17617 0.32266
 C1927 C -0.08901 -0.09159 0.41524
 C1928 C -0.07370 -0.07615 0.43069
 H1929 H -0.08722 -0.05360 0.36167
 H1930 H -0.09757 -0.03299 0.30505
 H1931 H -0.12934 -0.06251 0.27239
 H1932 H -0.15058 -0.11341 0.29584
 H1933 H -0.16308 -0.20046 0.39177
 H1934 H -0.15232 -0.22167 0.44807
 H1935 H -0.12083 -0.19174 0.48098
 H1936 H -0.10005 -0.14018 0.45791
 C1937 C 0.00152 0.00108 0.71438
 C1938 C -0.00463 0.03255 0.73223
 C1939 C -0.00414 0.03284 0.76831
 C1940 C 0.00222 0.00155 0.78636
 C1941 C 0.00867 -0.02978 0.76848
 C1942 C 0.00832 -0.03001 0.73239
 C1943 C 0.01480 -0.06166 0.71511
 C1944 C 0.02144 -0.09220 0.73295
 C1945 C 0.02186 -0.09195 0.76821
 C1946 C 0.01555 -0.06118 0.78590
 C1947 C -0.01005 0.06477 0.78556
 C1948 C -0.01627 0.09548 0.76767
 C1949 C -0.01704 0.09507 0.73243
 C1950 C -0.01130 0.06404 0.71478
 C1951 C 0.00181 0.00142 0.82325
 C1952 C 0.00133 0.00119 0.85387
 C1953 C 0.00093 0.00078 0.67751
 C1954 C 0.00042 0.00069 0.64692
 H1955 H 0.01483 -0.06314 0.68768
 H1956 H 0.02638 -0.11616 0.71931
 H1957 H 0.02711 -0.11571 0.78194
 H1958 H 0.01618 -0.06229 0.81333
 H1959 H -0.00977 0.06641 0.81297
 H1960 H -0.02045 0.11978 0.78122
 H1961 H -0.02202 0.11895 0.71867
 H1962 H -0.01207 0.06508 0.68736
 C1963 C 0.25131 0.24854 0.53616
 C1964 C 0.25915 0.27917 0.51828
 C1965 C 0.25903 0.27940 0.48219
 C1966 C 0.25122 0.24889 0.46417
 C1967 C 0.24352 0.21817 0.48206
 C1968 C 0.24350 0.21804 0.51815
 C1969 C 0.23555 0.18713 0.53545
 C1970 C 0.22795 0.15713 0.51763
 C1971 C 0.22814 0.15716 0.48237
 C1972 C 0.23575 0.18728 0.46465
 C1973 C 0.26675 0.31045 0.46491
 C1974 C 0.27437 0.34042 0.48277
 C1975 C 0.27464 0.34012 0.51803
 C1976 C 0.26713 0.30993 0.53572
 C1977 C 0.25096 0.24916 0.42729
 C1978 C 0.25068 0.24930 0.39668
 C1979 C 0.25115 0.24849 0.57304
 C1980 C 0.25093 0.24850 0.60365
 H1981 H 0.23512 0.18578 0.56288
 H1982 H 0.22192 0.13372 0.53126
 H1983 H 0.22226 0.13377 0.46864
 H1984 H 0.23546 0.18607 0.43722
 H1985 H 0.26700 0.31191 0.43749
 H1986 H 0.28021 0.36396 0.46915
 H1987 H 0.28068 0.36341 0.53177
 H1988 H 0.26764 0.31099 0.56314
 C1989 C 0.14330 0.13793 0.64676
 C1990 C 0.13004 0.10966 0.66129
 C1991 C 0.11183 0.09281 0.64215
 C1992 C 0.10697 0.10437 0.60862
 C1993 C 0.12039 0.13241 0.59398
 C1994 C 0.13864 0.14920 0.61308
 C1995 C 0.15188 0.17709 0.59784
 C1996 C 0.14719 0.18812 0.56473
 C1997 C 0.12927 0.17182 0.54613
 C1998 C 0.11600 0.14423 0.56041
 C1999 C 0.09884 0.06455 0.65719
 C2000 C 0.10377 0.05318 0.69013
 C2001 C 0.12160 0.06962 0.70880
 C2002 C 0.13459 0.09764 0.69473
 C2003 C 0.08823 0.08739 0.58918
 C2004 C 0.07267 0.07314 0.57315
 C2005 C 0.16166 0.15562 0.66636
 C2006 C 0.17696 0.17096 0.68196
 H2007 H 0.16599 0.19063 0.61127
 H2008 H 0.15750 0.20947 0.55347
 H2009 H 0.12565 0.18057 0.52045
 H2010 H 0.10231 0.13230 0.54487
 H2011 H 0.08482 0.05090 0.64367
 H2012 H 0.09370 0.03148 0.70122
 H2013 H 0.12536 0.06068 0.73438
 H2014 H 0.14823 0.10968 0.71029
 C2015 C 0.39268 0.39219 0.60688
 C2016 C 0.38663 0.40379 0.63997
 C2017 C 0.36861 0.38571 0.65852
 C2018 C 0.35681 0.35610 0.64390
 C2019 C 0.36290 0.34446 0.61083
 C2020 C 0.38093 0.36253 0.59228
 C2021 C 0.38679 0.35032 0.55933
 C2022 C 0.37519 0.32108 0.54513
 C2023 C 0.35745 0.30357 0.56316
 C2024 C 0.35132 0.31497 0.59566
 C2025 C 0.36279 0.39788 0.69150
 C2026 C 0.37442 0.42709 0.70572
 C2027 C 0.39215 0.44461 0.68768
 C2028 C 0.39824 0.43325 0.65515
 C2029 C 0.33840 0.33765 0.66282
 C2030 C 0.32304 0.32230 0.67836
 C2031 C 0.41102 0.41075 0.58792
 C2032 C 0.42633 0.42622 0.57239
 H2033 H 0.40039 0.36317 0.54423
 H2034 H 0.37992 0.31205 0.51992
 H2035 H 0.34839 0.28103 0.55192
 H2036 H 0.33744 0.30043 0.60870
 H2037 H 0.34922 0.38500 0.70663
 H2038 H 0.36972 0.43608 0.73095
 H2039 H 0.40124 0.46710 0.69894
 H2040 H 0.41212 0.44779 0.64211
 C2041 C 0.39299 0.10643 0.60720
 C2042 C 0.38023 0.13491 0.59216
 C2043 C 0.36209 0.15248 0.61082
 C2044 C 0.35683 0.14141 0.64437
 C2045 C 0.36956 0.11286 0.65938
 C2046 C 0.38772 0.09532 0.64073
 C2047 C 0.40026 0.06688 0.65624
 C2048 C 0.39493 0.05600 0.68921
 C2049 C 0.37709 0.07308 0.70741
 C2050 C 0.36454 0.10126 0.69284
 C2051 C 0.34956 0.18091 0.59529
 C2052 C 0.35484 0.19169 0.56227
 C2053 C 0.37263 0.17455 0.54405
 C2054 C 0.38520 0.14641 0.55865
 C2055 C 0.33834 0.15942 0.66338
 C2056 C 0.32293 0.17458 0.67890
 C2057 C 0.41153 0.08856 0.58820
 C2058 C 0.42695 0.07361 0.57255
 H2059 H 0.41427 0.05274 0.64310
 H2060 H 0.40468 0.03419 0.70068
 H2061 H 0.37300 0.06451 0.73300
 H2062 H 0.35088 0.11380 0.70805
 H2063 H 0.33557 0.19510 0.60843
 H2064 H 0.34505 0.21341 0.55076
 H2065 H 0.37668 0.18304 0.51842
 H2066 H 0.39881 0.13382 0.54340
 C2067 C 0.10708 0.39411 0.60883
 C2068 C 0.10448 0.38968 0.64434
 C2069 C 0.12258 0.37231 0.66331
 C2070 C 0.14322 0.35965 0.64667
 C2071 C 0.14583 0.36413 0.61116
 C2072 C 0.12770 0.38140 0.59218
 C2073 C 0.13069 0.38552 0.55671
 C2074 C 0.15102 0.37295 0.54045
 C2075 C 0.16873 0.35600 0.55899
 C2076 C 0.16627 0.35157 0.59393
 C2077 C 0.11948 0.36789 0.69873
 C2078 C 0.09906 0.38020 0.71492
 C2079 C 0.08143 0.39741 0.69642
 C2080 C 0.08401 0.40217 0.66153
 C2081 C 0.16163 0.34156 0.66590
 C2082 C 0.17698 0.32610 0.68135
 C2083 C 0.08852 0.41166 0.58944
 C2084 C 0.07309 0.42635 0.57351
 H2085 H 0.11739 0.39850 0.54118
 H2086 H 0.15305 0.37642 0.51333
 H2087 H 0.18448 0.34625 0.54624
 H2088 H 0.18055 0.33824 0.60724
 H2089 H 0.13275 0.35481 0.71424
 H2090 H 0.09689 0.37636 0.74197
 H2091 H 0.06564 0.40704 0.70915
 H2092 H 0.06979 0.41566 0.64823
 C2093 C 0.35696 0.14115 0.85787
 C2094 C 0.35547 0.13770 0.89362
 C2095 C 0.37374 0.11972 0.91172
 C2096 C 0.39339 0.10524 0.89398
 C2097 C 0.39482 0.10851 0.85822
 C2098 C 0.37661 0.12665 0.84013
 C2099 C 0.37854 0.12986 0.80443
 C2100 C 0.39786 0.11543 0.78709
 C2101 C 0.41553 0.09736 0.80473
 C2102 C 0.41417 0.09395 0.83990
 C2103 C 0.37185 0.11658 0.94744
 C2104 C 0.35242 0.13071 0.96475
 C2105 C 0.33458 0.14836 0.94707
 C2106 C 0.33600 0.15190 0.91191
 C2107 C 0.41212 0.08703 0.91249
 C2108 C 0.42766 0.07187 0.92783
 C2109 C 0.33828 0.15947 0.83935
 C2110 C 0.32278 0.17471 0.82396
 H2111 H 0.36520 0.14355 0.78955
 H2112 H 0.39913 0.11830 0.75982
 H2113 H 0.43038 0.08594 0.79111
 H2114 H 0.42841 0.07979 0.85250
 H2115 H 0.38530 0.10315 0.96234
 H2116 H 0.35119 0.12790 0.99203
 H2117 H 0.31955 0.15934 0.96065
 H2118 H 0.32166 0.16583 0.89928
 C2119 C 0.14343 0.36108 0.85381
 C2120 C 0.12979 0.38834 0.83832
 C2121 C 0.11158 0.40571 0.85706
 C2122 C 0.10718 0.39574 0.89117
 C2123 C 0.12103 0.36880 0.90680
 C2124 C 0.13920 0.35138 0.88805
 C2125 C 0.15279 0.32446 0.90418
 C2126 C 0.14855 0.31504 0.93787
 C2127 C 0.13078 0.33208 0.95620
 C2128 C 0.11714 0.35870 0.94100
 C2129 C 0.09814 0.43286 0.84104
 C2130 C 0.10264 0.44268 0.80752
 C2131 C 0.12052 0.42579 0.78926
 C2132 C 0.13394 0.39881 0.80430
 C2133 C 0.08841 0.41313 0.91018
 C2134 C 0.07285 0.42762 0.92598
 C2135 C 0.16173 0.34280 0.83462
 C2136 C 0.17700 0.32706 0.81932
 H2137 H 0.16684 0.31043 0.89101
 H2138 H 0.15912 0.29440 0.94980
 H2139 H 0.12754 0.32467 0.98236
 H2140 H 0.10356 0.37125 0.95634
 H2141 H 0.08407 0.44683 0.85423
 H2142 H 0.09221 0.46353 0.79567
 H2143 H 0.12397 0.43355 0.76325
 H2144 H 0.14760 0.38636 0.78902
 C2145 C 0.14229 0.13871 0.85447
 C2146 C 0.14405 0.13572 0.89022
 C2147 C 0.12582 0.11825 0.90887
 C2148 C 0.10584 0.10417 0.89169
 C2149 C 0.10401 0.10733 0.85596
 C2150 C 0.12227 0.12471 0.83730
 C2151 C 0.11995 0.12785 0.80165
 C2152 C 0.10011 0.11428 0.78493
 C2153 C 0.08234 0.09704 0.80314
 C2154 C 0.08418 0.09351 0.83825
 C2155 C 0.12806 0.11533 0.94455
 C2156 C 0.14767 0.12949 0.96135
 C2157 C 0.16535 0.14695 0.94317
 C2158 C 0.16371 0.15000 0.90801
 C2159 C 0.08714 0.08660 0.91077
 C2160 C 0.07164 0.07187 0.92657
 C2161 C 0.16096 0.15652 0.83551
 C2162 C 0.17651 0.17175 0.82026
 H2163 H 0.13335 0.14093 0.78635
 H2164 H 0.09851 0.11720 0.75771
 H2165 H 0.06701 0.08644 0.79002
 H2166 H 0.06987 0.07994 0.85132
 H2167 H 0.11472 0.10211 0.95983
 H2168 H 0.14915 0.12691 0.98863
 H2169 H 0.18042 0.15820 0.95638
 H2170 H 0.17798 0.16371 0.89500
 C2171 C 0.35694 0.35624 0.85729
 C2172 C 0.37586 0.37266 0.83946
 C2173 C 0.39381 0.39126 0.85759
 C2174 C 0.39280 0.39313 0.89346
 C2175 C 0.37388 0.37670 0.91129
 C2176 C 0.35594 0.35807 0.89316
 C2177 C 0.33733 0.34156 0.91155
 C2178 C 0.33637 0.34364 0.94683
 C2179 C 0.35373 0.36226 0.96452
 C2180 C 0.37237 0.37851 0.94712
 C2181 C 0.41246 0.40770 0.83920
 C2182 C 0.41342 0.40560 0.80392
 C2183 C 0.39603 0.38706 0.78623
 C2184 C 0.37736 0.37086 0.80363
 C2185 C 0.41131 0.41166 0.91204
 C2186 C 0.42671 0.42696 0.92745
 C2187 C 0.33840 0.33774 0.83874
 C2188 C 0.32297 0.32242 0.82340
 H2189 H 0.32336 0.32686 0.89893
 H2190 H 0.32210 0.33073 0.96052
 H2191 H 0.35274 0.36414 0.99188
 H2192 H 0.38552 0.39252 0.96204
 H2193 H 0.42646 0.42233 0.85183
 H2194 H 0.42773 0.41843 0.79024
 H2195 H 0.39701 0.38519 0.75886
 H2196 H 0.36420 0.35689 0.78871
 C2197 C 0.49809 -0.00061 0.71415
 C2198 C 0.49165 0.03058 0.73219
 C2199 C 0.49195 0.03048 0.76822
 C2200 C 0.49859 -0.00088 0.78592
 C2201 C 0.50481 -0.03217 0.76789
 C2202 C 0.50452 -0.03206 0.73186
 C2203 C 0.51071 -0.06370 0.71432
 C2204 C 0.51698 -0.09457 0.73193
 C2205 C 0.51741 -0.09462 0.76719
 C2206 C 0.51140 -0.06386 0.78510
 C2207 C 0.48559 0.06203 0.78576
 C2208 C 0.47909 0.09280 0.76816
 C2209 C 0.47865 0.09284 0.73290
 C2210 C 0.48486 0.06218 0.71498
 C2211 C 0.49903 -0.00096 0.82266
 C2212 C 0.49943 -0.00110 0.85317
 C2213 C 0.49836 -0.00025 0.67741
 C2214 C 0.49871 -0.00003 0.64688
 H2215 H 0.51072 -0.06496 0.68689
 H2216 H 0.52163 -0.11855 0.71813
 H2217 H 0.52238 -0.11863 0.78075
 H2218 H 0.51196 -0.06524 0.81252
 H2219 H 0.48555 0.06327 0.81320
 H2220 H 0.47426 0.11669 0.78198
 H2221 H 0.47349 0.11677 0.71935
 H2222 H 0.48425 0.06351 0.68756
 C2223 C 0.75162 0.24855 0.53649
 C2224 C 0.75792 0.27997 0.51864
 C2225 C 0.75789 0.28006 0.48260
 C2226 C 0.75167 0.24869 0.46471
 C2227 C 0.74557 0.21718 0.48256
 C2228 C 0.74549 0.21714 0.51860
 C2229 C 0.73917 0.18542 0.53597
 C2230 C 0.73320 0.15457 0.51820
 C2231 C 0.73341 0.15454 0.48294
 C2232 C 0.73944 0.18543 0.46518
 C2233 C 0.76407 0.31185 0.46525
 C2234 C 0.77007 0.34268 0.48303
 C2235 C 0.77022 0.34254 0.51830
 C2236 C 0.76423 0.31162 0.53603
 C2237 C 0.75135 0.24891 0.42796
 C2238 C 0.75103 0.24909 0.39743
 C2239 C 0.75122 0.24865 0.57323
 C2240 C 0.75079 0.24876 0.60375
 H2241 H 0.73880 0.18409 0.56339
 H2242 H 0.72840 0.13055 0.53188
 H2243 H 0.72881 0.13049 0.46925
 H2244 H 0.73926 0.18412 0.43775
 H2245 H 0.76434 0.31323 0.43782
 H2246 H 0.77474 0.36676 0.46936
 H2247 H 0.77498 0.36652 0.53200
 H2248 H 0.76459 0.31283 0.56346
 C2249 C 0.64297 0.14034 0.64465
 C2250 C 0.62780 0.11467 0.65965
 C2251 C 0.60960 0.09854 0.64000
 C2252 C 0.60670 0.10824 0.60549
 C2253 C 0.62184 0.13397 0.59050
 C2254 C 0.64010 0.15000 0.61012
 C2255 C 0.65513 0.17554 0.59455
 C2256 C 0.65209 0.18511 0.56065
 C2257 C 0.63411 0.16962 0.54155
 C2258 C 0.61916 0.14422 0.55612
 C2259 C 0.59463 0.07290 0.65554
 C2260 C 0.59761 0.06345 0.68949
 C2261 C 0.61544 0.07920 0.70868
 C2262 C 0.63038 0.10460 0.69410
 C2263 C 0.58826 0.09144 0.58544
 C2264 C 0.57291 0.07679 0.56942
 C2265 C 0.66136 0.15720 0.66473
 C2266 C 0.67665 0.17192 0.68082
 H2267 H 0.66935 0.18839 0.60837
 H2268 H 0.66373 0.20471 0.54916
 H2269 H 0.63174 0.17729 0.51527
 H2270 H 0.60548 0.13282 0.54020
 H2271 H 0.58049 0.05991 0.64167
 H2272 H 0.58601 0.04378 0.70095
 H2273 H 0.61771 0.07171 0.73502
 H2274 H 0.64397 0.11617 0.71008
 C2275 C -0.10669 0.38762 0.60433
 C2276 C -0.11172 0.39872 0.63795
 C2277 C -0.13005 0.38168 0.65676
 C2278 C -0.14325 0.35359 0.64188
 C2279 C -0.13804 0.34219 0.60842
 C2280 C -0.11967 0.35919 0.58963
 C2281 C -0.11466 0.34715 0.55635
 C2282 C -0.12739 0.31901 0.54208
 C2283 C -0.14547 0.30257 0.56034
 C2284 C -0.15082 0.31392 0.59313
 C2285 C -0.13475 0.39329 0.69028
 C2286 C -0.12172 0.42094 0.70481
 C2287 C -0.10374 0.43751 0.68648
 C2288 C -0.09873 0.42668 0.65342
 C2289 C -0.16208 0.33634 0.66106
 C2290 C -0.17766 0.32192 0.67698
 C2291 C -0.08830 0.40569 0.58496
 C2292 C -0.07299 0.42133 0.56953
 H2293 H -0.10084 0.35921 0.54108
 H2294 H -0.12327 0.31004 0.51664
 H2295 H -0.15539 0.28086 0.54906
 H2296 H -0.16501 0.30025 0.60636
 H2297 H -0.14851 0.38114 0.70561
 H2298 H -0.12557 0.42949 0.73046
 H2299 H -0.09361 0.45890 0.69793
 H2300 H -0.08456 0.44041 0.64022
 C2301 C 0.85688 0.14583 0.64228
 C2302 C 0.87634 0.12959 0.65900
 C2303 C 0.89459 0.11305 0.63970
 C2304 C 0.89316 0.11265 0.60381
 C2305 C 0.87372 0.12891 0.58708
 C2306 C 0.85555 0.14566 0.60638
 C2307 C 0.83627 0.16180 0.58912
 C2308 C 0.83492 0.16115 0.55381
 C2309 C 0.85262 0.14456 0.53496
 C2310 C 0.87189 0.12870 0.55125
 C2311 C 0.91392 0.09703 0.65695
 C2312 C 0.91509 0.09714 0.69228
 C2313 C 0.89715 0.11311 0.71116
 C2314 C 0.87800 0.12929 0.69486
 C2315 C 0.91143 0.09476 0.58425
 C2316 C 0.92667 0.07929 0.56865
 C2317 C 0.83821 0.16264 0.66195
 C2318 C 0.82266 0.17682 0.67802
 H2319 H 0.82204 0.17496 0.60267
 H2320 H 0.82001 0.17349 0.54102
 H2321 H 0.85140 0.14392 0.50756
 H2322 H 0.88526 0.11623 0.53547
 H2323 H 0.92830 0.08422 0.64339
 H2324 H 0.92996 0.08468 0.70506
 H2325 H 0.89806 0.11290 0.73858
 H2326 H 0.86451 0.14143 0.71067
 C2327 C 0.60595 0.38970 0.60522
 C2328 C 0.60300 0.38533 0.64068
 C2329 C 0.62119 0.36884 0.66017
 C2330 C 0.64222 0.35690 0.64407
 C2331 C 0.64514 0.36120 0.60859
 C2332 C 0.62695 0.37768 0.58910
 C2333 C 0.63030 0.38183 0.55370
 C2334 C 0.65105 0.37006 0.53800
 C2335 C 0.66880 0.35381 0.55701
 C2336 C 0.66598 0.34935 0.59191
 C2337 C 0.61781 0.36465 0.69556
 C2338 C 0.59704 0.37637 0.71125
 C2339 C 0.57929 0.39263 0.69223
 C2340 C 0.58214 0.39714 0.65735
 C2341 C 0.66073 0.33981 0.66387
 C2342 C 0.67614 0.32513 0.67985
 C2343 C 0.58754 0.40710 0.58547
 C2344 C 0.57223 0.42213 0.56960
 H2345 H 0.61696 0.39421 0.53780
 H2346 H 0.65337 0.37361 0.51094
 H2347 H 0.68487 0.34464 0.54468
 H2348 H 0.68032 0.33661 0.60561
 H2349 H 0.63114 0.35225 0.71146
 H2350 H 0.59470 0.37278 0.73830
 H2351 H 0.56321 0.40176 0.70454
 H2352 H 0.56781 0.40988 0.64364
 C2353 C 0.85641 0.14740 0.86103
 C2354 C 0.85187 0.13409 0.89405
 C2355 C 0.87035 0.11717 0.91260
 C2356 C 0.89319 0.11367 0.89796
 C2357 C 0.89786 0.12771 0.86525
 C2358 C 0.87940 0.14468 0.84674
 C2359 C 0.88448 0.15867 0.81412
 C2360 C 0.90719 0.15608 0.80029
 C2361 C 0.92522 0.13935 0.81836
 C2362 C 0.92071 0.12521 0.85044
 C2363 C 0.86544 0.10406 0.94558
 C2364 C 0.84289 0.10758 0.95981
 C2365 C 0.82483 0.12420 0.94169
 C2366 C 0.82915 0.13730 0.90915
 C2367 C 0.91176 0.09494 0.91613
 C2368 C 0.92722 0.07888 0.93068
 C2369 C 0.83749 0.16393 0.84171
 C2370 C 0.82194 0.17786 0.82548
 H2371 H 0.87104 0.17189 0.79905
 H2372 H 0.91081 0.16713 0.77542
 H2373 H 0.94281 0.13743 0.80751
 H2374 H 0.93536 0.11255 0.86352
 H2375 H 0.87896 0.09113 0.96075
 H2376 H 0.83947 0.09751 0.98511
 H2377 H 0.80737 0.12698 0.95291
 H2378 H 0.81453 0.15002 0.89604
 C2379 C 0.64218 0.35774 0.85577
 C2380 C 0.62743 0.38401 0.84085
 C2381 C 0.60935 0.40051 0.86049
 C2382 C 0.60618 0.39061 0.89490
 C2383 C 0.62090 0.36432 0.90982
 C2384 C 0.63898 0.34781 0.89018
 C2385 C 0.65352 0.32157 0.90562
 C2386 C 0.65025 0.31191 0.93947
 C2387 C 0.63252 0.32802 0.95864
 C2388 C 0.61799 0.35401 0.94415
 C2389 C 0.59480 0.42675 0.84506
 C2390 C 0.59810 0.43647 0.81123
 C2391 C 0.61583 0.42038 0.79206
 C2392 C 0.63034 0.39435 0.80653
 C2393 C 0.58787 0.40775 0.91492
 C2394 C 0.57260 0.42263 0.93092
 C2395 C 0.66058 0.34076 0.83580
 C2396 C 0.67594 0.32606 0.81982
 H2397 H 0.66755 0.30826 0.89176
 H2398 H 0.66153 0.29180 0.95088
 H2399 H 0.63002 0.32039 0.98491
 H2400 H 0.60448 0.36585 0.96011
 H2401 H 0.58077 0.44004 0.85892
 H2402 H 0.58683 0.45661 0.79985
 H2403 H 0.61835 0.42806 0.76581
 H2404 H 0.64385 0.38252 0.79056
 C2405 C 0.64207 0.14012 0.85698
 C2406 C 0.64519 0.13480 0.89231
 C2407 C 0.62714 0.11764 0.91167
 C2408 C 0.60600 0.10606 0.89566
 C2409 C 0.60286 0.11145 0.86033
 C2410 C 0.62093 0.12851 0.84096
 C2411 C 0.61733 0.13364 0.80574
 C2412 C 0.59647 0.12234 0.79010
 C2413 C 0.57885 0.10556 0.80898
 C2414 C 0.58191 0.10009 0.84369
 C2415 C 0.63078 0.11239 0.94686
 C2416 C 0.65162 0.12376 0.96251
 C2417 C 0.66915 0.14082 0.94369
 C2418 C 0.66608 0.14632 0.90899
 C2419 C 0.58758 0.08830 0.91538
 C2420 C 0.57223 0.07315 0.93127
 C2421 C 0.66053 0.15776 0.83723
 C2422 C 0.67591 0.17276 0.82130
 H2423 H 0.63055 0.14647 0.78994
 H2424 H 0.59395 0.12665 0.76317
 H2425 H 0.56269 0.09678 0.79668
 H2426 H 0.56768 0.08695 0.85729
 H2427 H 0.61761 0.09942 0.96263
 H2428 H 0.65418 0.11932 0.98941
 H2429 H 0.68521 0.14982 0.95603
 H2430 H 0.68027 0.15962 0.89543
 C2431 C 0.85620 0.35549 0.85830
 C2432 C 0.87616 0.36967 0.84105
 C2433 C 0.89439 0.38714 0.85965
 C2434 C 0.89257 0.39021 0.89538
 C2435 C 0.87259 0.37609 0.91261
 C2436 C 0.85439 0.35855 0.89403
 C2437 C 0.83468 0.34438 0.91184
 C2438 C 0.83292 0.34770 0.94697
 C2439 C 0.85054 0.36528 0.96507
 C2440 C 0.87025 0.37920 0.94827
 C2441 C 0.91410 0.40130 0.84182
 C2442 C 0.91580 0.39816 0.80667
 C2443 C 0.89808 0.38082 0.78853
 C2444 C 0.87842 0.36678 0.80537
 C2445 C 0.91118 0.40811 0.91432
 C2446 C 0.92665 0.42335 0.92969
 C2447 C 0.83750 0.33787 0.83929
 C2448 C 0.82200 0.32310 0.82360
 H2449 H 0.82045 0.33062 0.89887
 H2450 H 0.81779 0.33659 0.96020
 H2451 H 0.84893 0.36812 0.99230
 H2452 H 0.88357 0.39246 0.96350
 H2453 H 0.92838 0.41494 0.85481
 H2454 H 0.93095 0.40923 0.79344
 H2455 H 0.89958 0.37824 0.76126
 H2456 H 0.86506 0.35363 0.79012
 C2457 C 0.00095 0.49927 0.71572
 C2458 C 0.00777 0.53050 0.73345
 C2459 C 0.00760 0.53084 0.76955
 C2460 C 0.00074 0.49988 0.78774
 C2461 C -0.00602 0.46862 0.77002
 C2462 C -0.00595 0.46833 0.73392
 C2463 C -0.01287 0.43681 0.71681
 C2464 C -0.01959 0.40640 0.73481
 C2465 C -0.01956 0.40664 0.77008
 C2466 C -0.01293 0.43734 0.78761
 C2467 C 0.01433 0.56246 0.78666
 C2468 C 0.02100 0.59288 0.76865
 C2469 C 0.02132 0.59248 0.73339
 C2470 C 0.01479 0.56174 0.71586
 C2471 C 0.00061 0.50020 0.82465
 C2472 C 0.00046 0.50033 0.85528
 C2473 C 0.00087 0.49907 0.67881
 C2474 C 0.00072 0.49902 0.64819
 H2475 H -0.01314 0.43529 0.68939
 H2476 H -0.02482 0.38251 0.72132
 H2477 H -0.02478 0.38294 0.78395
 H2478 H -0.01328 0.43624 0.81505
 H2479 H 0.01450 0.56403 0.81408
 H2480 H 0.02610 0.61683 0.78215
 H2481 H 0.02665 0.61613 0.71953
 H2482 H 0.01529 0.56275 0.68842
 C2483 C 0.25051 0.75227 0.53570
 C2484 C 0.24175 0.78229 0.51779
 C2485 C 0.24161 0.78216 0.48175
 C2486 C 0.25028 0.75206 0.46393
 C2487 C 0.25894 0.72198 0.48185
 C2488 C 0.25913 0.72214 0.51788
 C2489 C 0.26799 0.69187 0.53531
 C2490 C 0.27625 0.66217 0.51760
 C2491 C 0.27587 0.66188 0.48235
 C2492 C 0.26744 0.69144 0.46453
 C2493 C 0.23266 0.81238 0.46432
 C2494 C 0.22421 0.84195 0.48203
 C2495 C 0.22448 0.84217 0.51729
 C2496 C 0.23307 0.81272 0.53511
 C2497 C 0.25035 0.75207 0.42718
 C2498 C 0.25037 0.75205 0.39665
 C2499 C 0.25042 0.75223 0.57245
 C2500 C 0.25026 0.75210 0.60298
 H2501 H 0.26862 0.69080 0.56273
 H2502 H 0.28296 0.63924 0.53133
 H2503 H 0.28227 0.63873 0.46871
 H2504 H 0.26763 0.69002 0.43710
 H2505 H 0.23210 0.81348 0.43690
 H2506 H 0.21742 0.86483 0.46831
 H2507 H 0.21792 0.86522 0.53093
 H2508 H 0.23282 0.81409 0.56253
 C2509 C 0.14333 0.63893 0.64655
 C2510 C 0.13063 0.61019 0.66126
 C2511 C 0.11245 0.59289 0.64246
 C2512 C 0.10718 0.60433 0.60903
 C2513 C 0.12006 0.63281 0.59419
 C2514 C 0.13817 0.65021 0.61303
 C2515 C 0.15079 0.67867 0.59767
 C2516 C 0.14566 0.68959 0.56466
 C2517 C 0.12794 0.67257 0.54625
 C2518 C 0.11524 0.64447 0.56070
 C2519 C 0.09992 0.56429 0.65772
 C2520 C 0.10533 0.55294 0.69051
 C2521 C 0.12323 0.56970 0.70878
 C2522 C 0.13571 0.59814 0.69453
 C2523 C 0.08855 0.58679 0.58990
 C2524 C 0.07307 0.57217 0.57408
 C2525 C 0.16165 0.65707 0.66581
 C2526 C 0.17690 0.67274 0.68118
 H2527 H 0.16474 0.69275 0.61094
 H2528 H 0.15550 0.71138 0.55330
 H2529 H 0.12402 0.68115 0.52061
 H2530 H 0.10166 0.63202 0.54533
 H2531 H 0.08587 0.55036 0.64449
 H2532 H 0.09560 0.53099 0.70177
 H2533 H 0.12740 0.56074 0.73422
 H2534 H 0.14939 0.61047 0.70982
 C2535 C 0.35631 0.85892 0.64369
 C2536 C 0.37111 0.88390 0.66038
 C2537 C 0.38938 0.90153 0.64203
 C2538 C 0.39273 0.89402 0.60714
 C2539 C 0.37788 0.86914 0.59042
 C2540 C 0.35963 0.85146 0.60879
 C2541 C 0.34502 0.82658 0.59161
 C2542 C 0.34829 0.81955 0.55720
 C2543 C 0.36606 0.83699 0.53919
 C2544 C 0.38078 0.86147 0.55548
 C2545 C 0.40393 0.92650 0.65918
 C2546 C 0.40048 0.93386 0.69350
 C2547 C 0.38259 0.91660 0.71145
 C2548 C 0.36806 0.89181 0.69525
 C2549 C 0.41142 0.91192 0.58845
 C2550 C 0.42692 0.92687 0.57295
 C2551 C 0.33765 0.84094 0.66235
 C2552 C 0.32216 0.82579 0.67770
 H2553 H 0.33093 0.81236 0.60451
 H2554 H 0.33692 0.80051 0.54443
 H2555 H 0.36845 0.83157 0.51244
 H2556 H 0.39438 0.87432 0.54039
 H2557 H 0.41808 0.94062 0.64630
 H2558 H 0.41174 0.95307 0.70621
 H2559 H 0.37996 0.92244 0.73809
 H2560 H 0.35442 0.87901 0.71032
 C2561 C 0.39326 0.60921 0.60670
 C2562 C 0.38167 0.63902 0.59201
 C2563 C 0.36349 0.65701 0.61030
 C2564 C 0.35712 0.64520 0.64322
 C2565 C 0.36891 0.61567 0.65808
 C2566 C 0.38701 0.59757 0.63973
 C2567 C 0.39852 0.56808 0.65509
 C2568 C 0.39236 0.55686 0.68767
 C2569 C 0.37466 0.57455 0.70559
 C2570 C 0.36303 0.60366 0.69112
 C2571 C 0.35208 0.68666 0.59506
 C2572 C 0.35859 0.69840 0.56280
 C2573 C 0.37647 0.68096 0.54501
 C2574 C 0.38786 0.65149 0.55925
 C2575 C 0.33843 0.66339 0.66180
 C2576 C 0.32290 0.67847 0.67719
 C2577 C 0.41163 0.59052 0.58790
 C2578 C 0.42691 0.57488 0.57249
 H2579 H 0.41240 0.55343 0.64218
 H2580 H 0.40141 0.53438 0.69909
 H2581 H 0.36996 0.56574 0.73089
 H2582 H 0.34946 0.61665 0.70614
 H2583 H 0.33810 0.70114 0.60792
 H2584 H 0.34972 0.72117 0.55156
 H2585 H 0.38149 0.69022 0.51998
 H2586 H 0.40157 0.63870 0.54434
 C2587 C 0.14193 0.86079 0.64637
 C2588 C 0.14301 0.86109 0.61045
 C2589 C 0.12497 0.87857 0.59149
 C2590 C 0.10590 0.89545 0.60855
 C2591 C 0.10475 0.89502 0.64445
 C2592 C 0.12278 0.87750 0.66343
 C2593 C 0.12110 0.87696 0.69927
 C2594 C 0.10214 0.89331 0.71588
 C2595 C 0.08468 0.91086 0.69735
 C2596 C 0.08586 0.91175 0.66204
 C2597 C 0.12647 0.87869 0.55561
 C2598 C 0.14519 0.86180 0.53896
 C2599 C 0.16270 0.84437 0.55749
 C2600 C 0.16177 0.84405 0.59282
 C2601 C 0.08738 0.91302 0.58916
 C2602 C 0.07200 0.92769 0.57314
 C2603 C 0.16047 0.84309 0.66563
 C2604 C 0.17597 0.82794 0.68101
 H2605 H 0.13431 0.86379 0.71480
 H2606 H 0.10097 0.89232 0.74326
 H2607 H 0.07012 0.92378 0.71041
 H2608 H 0.07179 0.92560 0.64874
 H2609 H 0.11323 0.89177 0.54007
 H2610 H 0.14611 0.86221 0.51153
 H2611 H 0.17706 0.83100 0.54442
 H2612 H 0.17585 0.83021 0.60609
 C2613 C 0.35727 0.64496 0.85646
 C2614 C 0.35618 0.64273 0.89231
 C2615 C 0.37427 0.62437 0.91046
 C2616 C 0.39349 0.60871 0.89268
 C2617 C 0.39472 0.61128 0.85686
 C2618 C 0.37654 0.62942 0.83869
 C2619 C 0.37817 0.63166 0.80289
 C2620 C 0.39726 0.61657 0.78556
 C2621 C 0.41502 0.59879 0.80330
 C2622 C 0.41384 0.59606 0.83854
 C2623 C 0.37263 0.62212 0.94625
 C2624 C 0.35378 0.63780 0.96363
 C2625 C 0.33630 0.65621 0.94593
 C2626 C 0.33732 0.65860 0.91068
 C2627 C 0.41203 0.59014 0.91128
 C2628 C 0.42739 0.57473 0.92678
 C2629 C 0.33853 0.66307 0.83788
 C2630 C 0.32294 0.67809 0.82251
 H2631 H 0.36478 0.64518 0.78795
 H2632 H 0.39831 0.61875 0.75821
 H2633 H 0.42980 0.58707 0.78970
 H2634 H 0.42809 0.58199 0.85123
 H2635 H 0.38587 0.60826 0.96118
 H2636 H 0.35273 0.63566 0.99097
 H2637 H 0.32187 0.66872 0.95960
 H2638 H 0.32323 0.67307 0.89805
 C2639 C 0.14227 0.86197 0.85361
 C2640 C 0.13044 0.89188 0.83955
 C2641 C 0.11214 0.90918 0.85823
 C2642 C 0.10583 0.89651 0.89090
 C2643 C 0.11776 0.86673 0.90504
 C2644 C 0.13604 0.84942 0.88637
 C2645 C 0.14774 0.81974 0.90110
 C2646 C 0.14149 0.80742 0.93327
 C2647 C 0.12354 0.82424 0.95145
 C2648 C 0.11181 0.85363 0.93768
 C2649 C 0.10053 0.93898 0.84360
 C2650 C 0.10689 0.95146 0.81152
 C2651 C 0.12486 0.93467 0.79336
 C2652 C 0.13649 0.90513 0.80702
 C2653 C 0.08713 0.91416 0.90999
 C2654 C 0.07163 0.92889 0.92582
 C2655 C 0.16077 0.84392 0.83445
 C2656 C 0.17617 0.82841 0.81911
 H2657 H 0.16181 0.80573 0.88796
 H2658 H 0.15061 0.78468 0.94414
 H2659 H 0.11872 0.81452 0.97640
 H2660 H 0.09804 0.86590 0.95288
 H2661 H 0.08646 0.95297 0.85677
 H2662 H 0.09782 0.97429 0.80071
 H2663 H 0.12974 0.94448 0.76845
 H2664 H 0.15028 0.89285 0.79184
 C2665 C 0.14316 0.63934 0.85364
 C2666 C 0.14501 0.63671 0.88939
 C2667 C 0.12686 0.61935 0.90823
 C2668 C 0.10702 0.60470 0.89115
 C2669 C 0.10527 0.60707 0.85538
 C2670 C 0.12333 0.62468 0.83657
 C2671 C 0.12101 0.62733 0.80088
 C2672 C 0.10145 0.61278 0.78426
 C2673 C 0.08400 0.59498 0.80259
 C2674 C 0.08573 0.59219 0.83776
 C2675 C 0.12904 0.61706 0.94396
 C2676 C 0.14864 0.63148 0.96060
 C2677 C 0.16638 0.64854 0.94219
 C2678 C 0.16469 0.65120 0.90699
 C2679 C 0.08837 0.58737 0.91039
 C2680 C 0.07287 0.57288 0.92629
 C2681 C 0.16156 0.65746 0.83453
 C2682 C 0.17687 0.67297 0.81914
 H2683 H 0.13423 0.64068 0.78547
 H2684 H 0.09984 0.61529 0.75700
 H2685 H 0.06904 0.58330 0.78949
 H2686 H 0.07163 0.57826 0.85092
 H2687 H 0.11569 0.60407 0.95940
 H2688 H 0.15008 0.62935 0.98791
 H2689 H 0.18156 0.65973 0.95523
 H2690 H 0.17896 0.66469 0.89379
 C2691 C 0.35656 0.85776 0.85690
 C2692 C 0.37786 0.86742 0.84010
 C2693 C 0.39631 0.88468 0.85840
 C2694 C 0.39333 0.89216 0.89337
 C2695 C 0.37203 0.88251 0.91017
 C2696 C 0.35358 0.86526 0.89187
 C2697 C 0.33244 0.85587 0.90918
 C2698 C 0.32960 0.86336 0.94358
 C2699 C 0.34763 0.88028 0.96146
 C2700 C 0.36866 0.88975 0.94510
 C2701 C 0.41745 0.89408 0.84109
 C2702 C 0.42030 0.88657 0.80670
 C2703 C 0.40228 0.86963 0.78882
 C2704 C 0.38124 0.86018 0.80517
 C2705 C 0.41211 0.90992 0.91202
 C2706 C 0.42765 0.92482 0.92747
 C2707 C 0.33780 0.83992 0.83827
 C2708 C 0.32228 0.82495 0.82282
 H2709 H 0.31789 0.84272 0.89635
 H2710 H 0.31331 0.85602 0.95642
 H2711 H 0.34532 0.88610 0.98816
 H2712 H 0.38218 0.90279 0.96013
 H2713 H 0.43199 0.90725 0.85392
 H2714 H 0.43660 0.89390 0.79387
 H2715 H 0.40461 0.86378 0.76213
 H2716 H 0.36772 0.84713 0.79014
 C2717 C 0.49787 0.49983 0.71418
 C2718 C 0.50503 0.53088 0.73185
 C2719 C 0.50505 0.53106 0.76788
 C2720 C 0.49803 0.50012 0.78594
 C2721 C 0.49071 0.46915 0.76826
 C2722 C 0.49058 0.46903 0.73223
 C2723 C 0.48312 0.43783 0.71503
 C2724 C 0.47605 0.40756 0.73297
 C2725 C 0.47629 0.40762 0.76824
 C2726 C 0.48346 0.43801 0.78582
 C2727 C 0.51215 0.56247 0.78506
 C2728 C 0.51900 0.59284 0.76710
 C2729 C 0.51914 0.59259 0.73184
 C2730 C 0.51224 0.56204 0.71428
 C2731 C 0.49847 0.50011 0.82267
 C2732 C 0.49890 0.50013 0.85319
 C2733 C 0.49811 0.49955 0.67745
 C2734 C 0.49841 0.49946 0.64694
 H2735 H 0.48264 0.43650 0.68761
 H2736 H 0.47037 0.38394 0.71943
 H2737 H 0.47076 0.38405 0.78207
 H2738 H 0.48321 0.43682 0.81326
 H2739 H 0.51245 0.56392 0.81248
 H2740 H 0.52433 0.61665 0.78064
 H2741 H 0.52457 0.61620 0.71801
 H2742 H 0.51259 0.56318 0.68684
 C2743 C 0.75021 0.75124 0.53567
 C2744 C 0.74443 0.78293 0.51790
 C2745 C 0.74439 0.78307 0.48186
 C2746 C 0.75031 0.75160 0.46390
 C2747 C 0.75606 0.71990 0.48167
 C2748 C 0.75594 0.71969 0.51771
 C2749 C 0.76153 0.68761 0.53498
 C2750 C 0.76703 0.65660 0.51711
 C2751 C 0.76732 0.65687 0.48185
 C2752 C 0.76192 0.68808 0.46419
 C2753 C 0.73834 0.81495 0.46457
 C2754 C 0.73259 0.84586 0.48241
 C2755 C 0.73278 0.84580 0.51768
 C2756 C 0.73857 0.81476 0.53536
 C2757 C 0.75034 0.75173 0.42716
 C2758 C 0.75031 0.75165 0.39664
 C2759 C 0.75014 0.75103 0.57242
 C2760 C 0.75002 0.75085 0.60294
 H2761 H 0.76167 0.68610 0.56240
 H2762 H 0.77119 0.63227 0.53071
 H2763 H 0.77171 0.63276 0.46809
 H2764 H 0.76234 0.68694 0.43676
 H2765 H 0.73798 0.81633 0.43715
 H2766 H 0.72798 0.87000 0.46880
 H2767 H 0.72832 0.86989 0.53143
 H2768 H 0.73837 0.81600 0.56279
 C2769 C 0.64283 0.64122 0.64424
 C2770 C 0.62891 0.61377 0.65890
 C2771 C 0.61077 0.59710 0.63951
 C2772 C 0.60671 0.60792 0.60554
 C2773 C 0.62067 0.63531 0.59085
 C2774 C 0.63879 0.65202 0.61026
 C2775 C 0.65253 0.67934 0.59499
 C2776 C 0.64845 0.68985 0.56156
 C2777 C 0.63070 0.67356 0.54264
 C2778 C 0.61694 0.64653 0.55695
 C2779 C 0.59703 0.56976 0.65475
 C2780 C 0.60120 0.55907 0.68810
 C2781 C 0.61903 0.57523 0.70698
 C2782 C 0.63272 0.60238 0.69274
 C2783 C 0.58827 0.59070 0.58574
 C2784 C 0.57290 0.57590 0.56983
 C2785 C 0.66125 0.65851 0.66407
 C2786 C 0.67658 0.67339 0.68001
 H2787 H 0.66654 0.69284 0.60868
 H2788 H 0.65914 0.71076 0.55028
 H2789 H 0.62758 0.68185 0.51669
 H2790 H 0.60338 0.63459 0.54117
 H2791 H 0.58298 0.55633 0.64108
 H2792 H 0.59055 0.53808 0.69933
 H2793 H 0.62225 0.56674 0.73284
 H2794 H 0.64632 0.61425 0.70849
 C2795 C 0.85573 0.85707 0.64110
 C2796 C 0.87495 0.87352 0.65814
 C2797 C 0.89314 0.89062 0.63916
 C2798 C 0.89194 0.89131 0.60326
 C2799 C 0.87257 0.87525 0.58623
 C2800 C 0.85443 0.85797 0.60521
 C2801 C 0.83524 0.84204 0.58766
 C2802 C 0.83389 0.84346 0.55237
 C2803 C 0.85154 0.86059 0.53383
 C2804 C 0.87076 0.87619 0.55040
 C2805 C 0.91219 0.90690 0.65676
 C2806 C 0.91314 0.90648 0.69209
 C2807 C 0.89528 0.88989 0.71065
 C2808 C 0.87640 0.87344 0.69402
 C2809 C 0.91046 0.90906 0.58400
 C2810 C 0.92592 0.92431 0.56862
 C2811 C 0.83729 0.83929 0.66047
 C2812 C 0.82198 0.82438 0.67645
 H2813 H 0.82104 0.82849 0.60097
 H2814 H 0.81902 0.83131 0.53936
 H2815 H 0.85031 0.86187 0.50645
 H2816 H 0.88409 0.88911 0.53486
 H2817 H 0.92650 0.92020 0.64346
 H2818 H 0.92779 0.91917 0.70514
 H2819 H 0.89602 0.88985 0.73809
 H2820 H 0.86295 0.86085 0.70959
 C2821 C 0.85678 0.64571 0.64159
 C2822 C 0.87759 0.63405 0.65844
 C2823 C 0.89580 0.61650 0.63988
 C2824 C 0.89308 0.61068 0.60458
 C2825 C 0.87227 0.62233 0.58773
 C2826 C 0.85411 0.64006 0.60626
 C2827 C 0.83355 0.65178 0.58882
 C2828 C 0.83095 0.64587 0.55411
 C2829 C 0.84855 0.62809 0.53609
 C2830 C 0.86907 0.61655 0.55252
 C2831 C 0.91645 0.60507 0.65728
 C2832 C 0.91905 0.61091 0.69200
 C2833 C 0.90125 0.62813 0.71014
 C2834 C 0.88069 0.63955 0.69371
 C2835 C 0.91159 0.59243 0.58574
 C2836 C 0.92699 0.57692 0.57048
 C2837 C 0.83811 0.66340 0.66060
 C2838 C 0.82262 0.67811 0.67638
 H2839 H 0.81931 0.66559 0.60176
 H2840 H 0.81519 0.65512 0.54114
 H2841 H 0.84632 0.62329 0.50920
 H2842 H 0.88234 0.60305 0.53735
 H2843 H 0.93080 0.59157 0.64427
 H2844 H 0.93497 0.60206 0.70489
 H2845 H 0.90338 0.63271 0.73708
 H2846 H 0.86733 0.65276 0.70894
 C2847 C 0.64261 0.85895 0.64471
 C2848 C 0.64550 0.86259 0.60917
 C2849 C 0.62748 0.87930 0.58960
 C2850 C 0.60668 0.89205 0.60571
 C2851 C 0.60386 0.88862 0.64128
 C2852 C 0.62187 0.87189 0.66085
 C2853 C 0.61863 0.86845 0.69634
 C2854 C 0.59816 0.88129 0.71205
 C2855 C 0.58065 0.89802 0.69296
 C2856 C 0.58333 0.90165 0.65797
 C2857 C 0.63081 0.88295 0.55414
 C2858 C 0.65136 0.87036 0.53848
 C2859 C 0.66889 0.85368 0.55757
 C2860 C 0.66612 0.84981 0.59253
 C2861 C 0.58826 0.90903 0.58582
 C2862 C 0.57289 0.92367 0.56985
 C2863 C 0.66089 0.84159 0.66455
 C2864 C 0.67618 0.82670 0.68047
 H2865 H 0.63182 0.85583 0.71231
 H2866 H 0.59588 0.87826 0.73917
 H2867 H 0.56491 0.90824 0.70532
 H2868 H 0.56917 0.91476 0.64422
 H2869 H 0.61763 0.89561 0.53818
 H2870 H 0.65371 0.87359 0.51139
 H2871 H 0.68472 0.84371 0.54525
 H2872 H 0.68031 0.83678 0.60630
 C2873 C 0.85707 0.64623 0.85798
 C2874 C 0.86084 0.65554 0.89239
 C2875 C 0.87902 0.63832 0.91131
 C2876 C 0.89327 0.61186 0.89571
 C2877 C 0.88964 0.60279 0.86121
 C2878 C 0.87148 0.62004 0.84229
 C2879 C 0.86817 0.61054 0.80784
 C2880 C 0.88240 0.58473 0.79252
 C2881 C 0.90019 0.56790 0.81100
 C2882 C 0.90384 0.57668 0.84495
 C2883 C 0.88254 0.64816 0.94561
 C2884 C 0.86856 0.67440 0.96074
 C2885 C 0.85071 0.69114 0.94229
 C2886 C 0.84680 0.68191 0.90851
 C2887 C 0.91161 0.59380 0.91506
 C2888 C 0.92689 0.57826 0.93054
 C2889 C 0.83840 0.66361 0.83874
 C2890 C 0.82289 0.67812 0.82285
 H2891 H 0.85459 0.62295 0.79238
 H2892 H 0.87961 0.57779 0.76617
 H2893 H 0.91123 0.54792 0.79896
 H2894 H 0.91791 0.56284 0.85824
 H2895 H 0.89615 0.63579 0.96104
 H2896 H 0.87156 0.68174 0.98695
 H2897 H 0.83985 0.71144 0.95420
 H2898 H 0.83273 0.69573 0.89519
 C2899 C 0.64217 0.85841 0.85608
 C2900 C 0.62775 0.88526 0.84139
 C2901 C 0.60952 0.90162 0.86093
 C2902 C 0.60588 0.89115 0.89511
 C2903 C 0.62030 0.86433 0.90981
 C2904 C 0.63849 0.84789 0.89025
 C2905 C 0.65267 0.82111 0.90553
 C2906 C 0.64894 0.81080 0.93910
 C2907 C 0.63112 0.82681 0.95818
 C2908 C 0.61696 0.85336 0.94387
 C2909 C 0.59526 0.92829 0.84562
 C2910 C 0.59900 0.93865 0.81206
 C2911 C 0.61693 0.92283 0.79305
 C2912 C 0.63113 0.89633 0.80736
 C2913 C 0.58743 0.90826 0.91512
 C2914 C 0.57208 0.92308 0.93117
 C2915 C 0.66070 0.84140 0.83611
 C2916 C 0.67612 0.82668 0.82012
 H2917 H 0.66675 0.80785 0.89173
 H2918 H 0.65994 0.79025 0.95037
 H2919 H 0.62828 0.81867 0.98423
 H2920 H 0.60337 0.86511 0.95977
 H2921 H 0.58111 0.94143 0.85938
 H2922 H 0.58794 0.95911 0.80077
 H2923 H 0.61982 0.93108 0.76704
 H2924 H 0.64478 0.88469 0.79150
 C2925 C 0.64348 0.64023 0.85568
 C2926 C 0.64615 0.63712 0.89131
 C2927 C 0.62805 0.62057 0.91091
 C2928 C 0.60742 0.60734 0.89475
 C2929 C 0.60485 0.61019 0.85909
 C2930 C 0.62292 0.62679 0.83950
 C2931 C 0.61991 0.62962 0.80392
 C2932 C 0.59959 0.61640 0.78817
 C2933 C 0.58202 0.59981 0.80729
 C2934 C 0.58450 0.59671 0.84235
 C2935 C 0.63114 0.61753 0.94646
 C2936 C 0.65161 0.63033 0.96215
 C2937 C 0.66924 0.64674 0.94301
 C2938 C 0.66663 0.65023 0.90800
 C2939 C 0.58893 0.59043 0.91464
 C2940 C 0.57345 0.57586 0.93052
 C2941 C 0.66177 0.65766 0.83582
 C2942 C 0.67699 0.67271 0.81985
 H2943 H 0.63317 0.64206 0.78793
 H2944 H 0.59747 0.61902 0.76099
 H2945 H 0.56640 0.58930 0.79490
 H2946 H 0.57030 0.58364 0.85610
 H2947 H 0.61786 0.60515 0.96245
 H2948 H 0.65381 0.62745 0.98929
 H2949 H 0.68505 0.65677 0.95535
 H2950 H 0.68086 0.66318 0.89421
 C2951 C 0.85665 0.85505 0.85811
 C2952 C 0.87975 0.85766 0.84412
 C2953 C 0.89808 0.87483 0.86272
 C2954 C 0.89320 0.88915 0.89523
 C2955 C 0.87016 0.88624 0.90936
 C2956 C 0.85183 0.86908 0.89075
 C2957 C 0.82894 0.86640 0.90541
 C2958 C 0.82429 0.88043 0.93746
 C2959 C 0.84217 0.89740 0.95557
 C2960 C 0.86491 0.90024 0.94186
 C2961 C 0.92102 0.87730 0.84817
 C2962 C 0.92574 0.86302 0.81623
 C2963 C 0.90785 0.84604 0.79812
 C2964 C 0.88507 0.84341 0.81172
 C2965 C 0.91177 0.90738 0.91385
 C2966 C 0.92720 0.92293 0.92892
 C2967 C 0.83787 0.83794 0.83894
 C2968 C 0.82233 0.82355 0.82307
 H2969 H 0.81442 0.85347 0.89231
 H2970 H 0.80672 0.87815 0.94829
 H2971 H 0.83845 0.90824 0.98047
 H2972 H 0.87828 0.91347 0.95703
 H2973 H 0.93554 0.89019 0.86130
 H2974 H 0.94339 0.86510 0.80550
 H2975 H 0.91163 0.83490 0.77336
 H2976 H 0.87173 0.83005 0.79661
   
