data_POSCAR
  _audit_creation_date              2014-09-24
  _audit_creation_method            'ToBaCCo'
  _symmetry_space_group_name_H-M    'P1'
  _symmetry_Int_Tables_number       1
  _symmetry_cell_setting            triclinic
  loop_
  _symmetry_equiv_pos_as_xyz
 x,y,z
_cell_length_a 38.0780
_cell_length_b 39.0093
_cell_length_c 44.9973
_cell_angle_alpha 89.733400
_cell_angle_beta 89.425000
_cell_angle_gamma 88.570900
loop_
  _atom_site_label
  _atom_site_type_symbol
  _atom_site_fract_x
  _atom_site_fract_y
  _atom_site_fract_z
C1 C 0.43179 -0.04010 0.25087
 C2 C 0.44578 -0.01030 0.23866
 C3 C 0.45930 -0.01098 0.20987
 C4 C 0.45978 -0.04118 0.19316
 C5 C 0.44421 -0.07101 0.20505
 C6 C 0.43101 -0.07096 0.23473
 C7 C 0.45060 0.02017 0.25747
 C8 C 0.46610 0.01581 0.28518
 C9 C 0.47199 0.04369 0.30395
 C10 C 0.46060 0.07687 0.29467
 C11 C 0.44682 0.08182 0.26580
 C12 C 0.44194 0.05327 0.24749
 H13 H 0.42093 -0.03862 0.27316
 H14 H 0.47136 0.01184 0.20099
 H15 H 0.47302 -0.01005 0.29218
 H16 H 0.43080 0.05674 0.22558
 H17 H 0.44516 -0.09452 0.19233
 H18 H 0.46480 0.09887 0.30867
 C19 C 0.07377 -0.05225 0.74535
 C20 C 0.06353 -0.01928 0.75472
 C21 C 0.04921 -0.01484 0.78310
 C22 C 0.04458 -0.04275 0.80217
 C23 C 0.05630 -0.07565 0.79332
 C24 C 0.07039 -0.08056 0.76453
 C25 C 0.06373 0.01038 0.73426
 C26 C 0.04751 0.00822 0.70679
 C27 C 0.04208 0.03729 0.68856
 C28 C 0.05520 0.06925 0.69826
 C29 C 0.07063 0.07173 0.72686
 C30 C 0.07529 0.04196 0.74402
 H31 H 0.08436 -0.05579 0.72311
 H32 H 0.04023 0.01053 0.78994
 H33 H 0.03873 -0.01668 0.69994
 H34 H 0.08740 0.04340 0.76566
 H35 H 0.05242 -0.09746 0.80787
 H36 H 0.05089 0.09221 0.68504
 C37 C 0.55933 0.44887 0.26245
 C38 C 0.55145 0.48210 0.27269
 C39 C 0.53391 0.48637 0.29983
 C40 C 0.52391 0.45799 0.31675
 C41 C 0.53293 0.42462 0.30688
 C42 C 0.55005 0.42005 0.27922
 C43 C 0.55614 0.51212 0.25310
 C44 C 0.54373 0.51063 0.22417
 C45 C 0.54246 0.53975 0.20605
 C46 C 0.55593 0.57070 0.21637
 C47 C 0.56841 0.57268 0.24569
 C48 C 0.56828 0.54327 0.26392
 H49 H 0.57218 0.44541 0.24102
 H50 H 0.52674 0.51202 0.30724
 H51 H 0.53313 0.48687 0.21619
 H52 H 0.57749 0.54456 0.28658
 H53 H 0.52496 0.40252 0.31970
 H54 H 0.55460 0.59344 0.20247
 C55 C 0.93225 0.46091 0.74699
 C56 C 0.94426 0.49202 0.73561
 C57 C 0.95869 0.49310 0.70712
 C58 C 0.96240 0.46335 0.69004
 C59 C 0.94936 0.43210 0.70113
 C60 C 0.93470 0.43074 0.73013
 C61 C 0.94800 0.52186 0.75516
 C62 C 0.96645 0.51738 0.78148
 C63 C 0.97392 0.54524 0.79974
 C64 C 0.96078 0.57820 0.79187
 C65 C 0.94375 0.58320 0.76445
 C66 C 0.93752 0.55491 0.74624
 H67 H 0.92172 0.46014 0.76945
 H68 H 0.96912 0.51700 0.69889
 H69 H 0.97505 0.49164 0.78755
 H70 H 0.92461 0.55861 0.72506
 H71 H 0.95269 0.40884 0.68824
 H72 H 0.96634 0.60018 0.80552
 C73 C 0.28187 0.32048 1.02157
 C74 C 0.28570 0.34469 0.99876
 C75 C 0.31679 0.36336 0.99651
 C76 C 0.34386 0.35786 1.01732
 C77 C 0.33855 0.33464 1.04096
 C78 C 0.30783 0.31548 1.04328
 C79 C 0.25567 0.35069 0.97859
 C80 C 0.22783 0.37256 0.98766
 C81 C 0.19534 0.37295 0.97294
 C82 C 0.19120 0.35114 0.94832
 C83 C 0.21908 0.32885 0.93912
 C84 C 0.25113 0.32898 0.95428
 H85 H 0.25735 0.30711 1.02300
 H86 H 0.31990 0.38173 0.97861
 H87 H 0.23097 0.38805 1.00735
 H88 H 0.27186 0.31069 0.94826
 H89 H 0.35870 0.33120 1.05752
 H90 H 0.16597 0.35006 0.93749
 C91 C 0.71476 0.17732 1.03781
 C92 C 0.72419 0.15989 1.01139
 C93 C 0.69966 0.13886 0.99791
 C94 C 0.66591 0.13519 1.01019
 C95 C 0.65624 0.15388 1.03557
 C96 C 0.68026 0.17520 1.04973
 C97 C 0.75976 0.16236 0.99768
 C98 C 0.78521 0.13637 1.00337
 C99 C 0.81684 0.13486 0.98705
 C100 C 0.82348 0.16026 0.96564
 C101 C 0.79826 0.18590 0.95902
 C102 C 0.76620 0.18673 0.97502
 H103 H 0.73383 0.19339 1.04825
 H104 H 0.70734 0.12470 0.97813
 H105 H 0.77910 0.11576 1.01867
 H106 H 0.74600 0.20561 0.96935
 H107 H 0.63010 0.15076 1.04469
 H108 H 0.84722 0.15824 0.95218
 C109 C 0.22411 0.66583 0.53855
 C110 C 0.23197 0.65228 0.51022
 C111 C 0.20602 0.63455 0.49500
 C112 C 0.17262 0.62987 0.50792
 C113 C 0.16489 0.64461 0.53566
 C114 C 0.19028 0.66283 0.55098
 C115 C 0.26765 0.65544 0.49696
 C116 C 0.29686 0.64115 0.51178
 C117 C 0.33066 0.64242 0.49906
 C118 C 0.33536 0.65972 0.47198
 C119 C 0.30668 0.67529 0.45727
 C120 C 0.27265 0.67212 0.46942
 H121 H 0.24391 0.67968 0.55038
 H122 H 0.21249 0.62325 0.47364
 H123 H 0.29297 0.62779 0.53268
 H124 H 0.25031 0.68373 0.45812
 H125 H 0.13898 0.64188 0.54544
 H126 H 0.36153 0.66128 0.46246
 C127 C 0.77249 0.83538 0.53726
 C128 C 0.76337 0.85295 0.51107
 C129 C 0.78785 0.87408 0.49726
 C130 C 0.82121 0.87891 0.50973
 C131 C 0.82990 0.86123 0.53605
 C132 C 0.80613 0.83877 0.54942
 C133 C 0.72894 0.84815 0.49698
 C134 C 0.69887 0.86669 0.50690
 C135 C 0.66625 0.86200 0.49328
 C136 C 0.66406 0.83848 0.46989
 C137 C 0.69402 0.82081 0.45914
 C138 C 0.72653 0.82594 0.47259
 H139 H 0.75393 0.81822 0.54749
 H140 H 0.77991 0.88760 0.47728
 H141 H 0.70089 0.88457 0.52513
 H142 H 0.74979 0.81226 0.46448
 H143 H 0.85559 0.86397 0.54574
 H144 H 0.63915 0.83502 0.45901
 C145 C -0.04889 0.25997 0.31153
 C146 C -0.02154 0.24474 0.32774
 C147 C -0.02879 0.22187 0.35073
 C148 C -0.06338 0.21623 0.35997
 C149 C -0.09073 0.23066 0.34307
 C150 C -0.08396 0.25206 0.31833
 C151 C 0.01325 0.25961 0.32812
 C152 C 0.01881 0.28326 0.35066
 C153 C 0.05264 0.28927 0.36061
 C154 C 0.08129 0.27398 0.34583
 C155 C 0.07623 0.25146 0.32206
 C156 C 0.04191 0.24366 0.31365
 H157 H -0.04238 0.27822 0.29432
 H158 H -0.00681 0.21220 0.36358
 H159 H -0.00376 0.29363 0.36278
 H160 H 0.03731 0.22461 0.29681
 H161 H -0.11737 0.22577 0.34969
 H162 H 0.10753 0.27887 0.35346
 C163 C -0.05035 0.73540 0.17292
 C164 C -0.02269 0.75234 0.15884
 C165 C -0.02971 0.77357 0.13443
 C166 C -0.06282 0.77470 0.12120
 C167 C -0.08972 0.75555 0.13388
 C168 C -0.08400 0.73671 0.16021
 C169 C 0.01369 0.73903 0.16056
 C170 C 0.02455 0.71745 0.13730
 C171 C 0.06018 0.71302 0.12965
 C172 C 0.08502 0.72748 0.14819
 C173 C 0.07471 0.74718 0.17303
 C174 C 0.03877 0.75393 0.17863
 H175 H -0.04491 0.71833 0.19148
 H176 H -0.00771 0.78568 0.12359
 H177 H 0.00430 0.70753 0.12331
 H178 H 0.03031 0.77112 0.19626
 H179 H -0.11558 0.75646 0.12408
 H180 H 0.11261 0.72404 0.14314
 C181 C 0.45059 0.23465 0.66678
 C182 C 0.47814 0.25789 0.66765
 C183 C 0.47128 0.29284 0.66281
 C184 C 0.43794 0.30429 0.65413
 C185 C 0.41053 0.28141 0.65381
 C186 C 0.41680 0.24667 0.65978
 C187 C 0.51463 0.24599 0.66396
 C188 C 0.52343 0.22753 0.63836
 C189 C 0.55848 0.22339 0.62895
 C190 C 0.58487 0.23748 0.64621
 C191 C 0.57620 0.25602 0.67214
 C192 C 0.54104 0.26013 0.68091
 H193 H 0.45585 0.20740 0.66952
 H194 H 0.49296 0.31033 0.66169
 H195 H 0.50229 0.21883 0.62467
 H196 H 0.53388 0.27511 0.70035
 H197 H 0.38462 0.28994 0.64670
 H198 H 0.61205 0.23474 0.63929
 C199 C 0.45714 0.72140 0.82805
 C200 C 0.48141 0.72075 0.85122
 C201 C 0.47055 0.71091 0.87970
 C202 C 0.43593 0.70219 0.88550
 C203 C 0.41190 0.70165 0.86229
 C204 C 0.42184 0.71286 0.83364
 C205 C 0.51590 0.73683 0.84842
 C206 C 0.52314 0.76240 0.86893
 C207 C 0.55689 0.77454 0.87194
 C208 C 0.58346 0.76259 0.85292
 C209 C 0.57639 0.73874 0.83049
 C210 C 0.54235 0.72536 0.82856
 H211 H 0.46539 0.73057 0.80642
 H212 H 0.48920 0.71099 0.89780
 H213 H 0.50252 0.77132 0.88400
 H214 H 0.53658 0.70594 0.81235
 H215 H 0.38492 0.69558 0.86736
 H216 H 0.60962 0.77213 0.85574
 C217 C -0.29350 0.68630 1.00245
 C218 C -0.26119 0.69730 1.01292
 C219 C -0.25907 0.70961 1.04179
 C220 C -0.28885 0.71179 1.06034
 C221 C -0.32118 0.69887 1.05020
 C222 C -0.32399 0.68700 1.02046
 C223 C -0.23094 0.70048 0.99221
 C224 C -0.23642 0.71658 0.96492
 C225 C -0.20899 0.72130 0.94436
 C226 C -0.17497 0.70800 0.95144
 C227 C -0.16863 0.69321 0.97984
 C228 C -0.19692 0.68965 0.99991
 H229 H -0.29433 0.67645 0.98002
 H230 H -0.23428 0.71936 1.04931
 H231 H -0.26295 0.72495 0.95971
 H232 H -0.19254 0.67803 1.02153
 H233 H -0.34433 0.70086 1.06433
 H234 H -0.15322 0.71134 0.93610
 C235 C -0.30924 0.31491 0.49944
 C236 C -0.27486 0.30473 0.49122
 C237 C -0.26902 0.28659 0.46484
 C238 C -0.29690 0.27773 0.44670
 C239 C -0.33144 0.28726 0.45535
 C240 C -0.33810 0.30601 0.48189
 C241 C -0.24494 0.30934 0.51136
 C242 C -0.24642 0.29577 0.54007
 C243 C -0.21635 0.29341 0.55781
 C244 C -0.18452 0.30705 0.54702
 C245 C -0.18276 0.32086 0.51790
 C246 C -0.21316 0.32185 0.50047
 H247 H -0.31339 0.32840 0.52022
 H248 H -0.24240 0.27893 0.45867
 H249 H -0.27085 0.28513 0.54797
 H250 H -0.21200 0.33175 0.47794
 H251 H -0.35277 0.28051 0.44098
 H252 H -0.16097 0.30483 0.56026
 C253 C 0.20137 -0.19834 0.00726
 C254 C 0.23397 -0.21168 -0.00201
 C255 C 0.23672 -0.22907 -0.02899
 C256 C 0.20793 -0.23194 -0.04805
 C257 C 0.17558 -0.21579 -0.03959
 C258 C 0.17197 -0.20013 -0.01128
 C259 C 0.26613 -0.20711 0.01551
 C260 C 0.26867 -0.21941 0.04481
 C261 C 0.30158 -0.22143 0.05884
 C262 C 0.33118 -0.20800 0.04399
 C263 C 0.32832 -0.19372 0.01543
 C264 C 0.29586 -0.19392 0.00123
 H265 H 0.19918 -0.18547 0.02853
 H266 H 0.26236 -0.23923 -0.03550
 H267 H 0.24583 -0.23039 0.05538
 H268 H 0.29353 -0.18380 -0.02115
 H269 H 0.15289 -0.21742 -0.05379
 H270 H 0.35656 -0.20820 0.05465
 C271 C 0.20232 1.19156 0.49384
 C272 C 0.23226 1.20610 0.50594
 C273 C 0.22976 1.22246 0.53339
 C274 C 0.19766 1.22446 0.54883
 C275 C 0.16802 1.20863 0.53726
 C276 C 0.17011 1.19276 0.50927
 C277 C 0.26455 1.20890 0.48789
 C278 C 0.26234 1.22504 0.46035
 C279 C 0.29208 1.22912 0.44216
 C280 C 0.32471 1.21504 0.45169
 C281 C 0.32760 1.20053 0.48049
 C282 C 0.29730 1.19769 0.49839
 H283 H 0.20413 1.17968 0.47213
 H284 H 0.25253 1.23504 0.54211
 H285 H 0.23667 1.23396 0.45300
 H286 H 0.29907 1.18621 0.52032
 H287 H 0.14307 1.21062 0.54901
 H288 H 0.34807 1.21782 0.43803
 C289 C 0.08680 0.52131 0.20825
 C290 C 0.10255 0.51418 0.23589
 C291 C 0.12212 0.53961 0.24963
 C292 C 0.12645 0.57188 0.23605
 C293 C 0.10996 0.57880 0.20884
 C294 C 0.08968 0.55394 0.19498
 C295 C 0.09735 0.48076 0.25116
 C296 C 0.11464 0.45069 0.24074
 C297 C 0.10863 0.41889 0.25457
 C298 C 0.08495 0.41737 0.27856
 C299 C 0.06837 0.44706 0.28986
 C300 C 0.07499 0.47888 0.27632
 H301 H 0.07102 0.50208 0.19786
 H302 H 0.13437 0.53390 0.27076
 H303 H 0.13242 0.45202 0.22184
 H304 H 0.06200 0.50194 0.28473
 H305 H 0.11239 0.60386 0.19866
 H306 H 0.08042 0.39295 0.28936
 C307 C -0.08635 0.97460 0.21083
 C308 C -0.09911 0.98090 0.23993
 C309 C -0.11512 0.95429 0.25586
 C310 C -0.11996 0.92197 0.24271
 C311 C -0.10569 0.91596 0.21435
 C312 C -0.08788 0.94147 0.19847
 C313 C -0.09905 1.01601 0.25287
 C314 C -0.11880 1.04232 0.23910
 C315 C -0.12330 1.07486 0.25241
 C316 C -0.10560 1.08127 0.27902
 C317 C -0.08396 1.05592 0.29231
 C318 C -0.08185 1.02286 0.27974
 H319 H -0.07384 0.99505 0.19864
 H320 H -0.12611 0.96003 0.27759
 H321 H -0.13275 1.03617 0.21906
 H322 H -0.06614 1.00282 0.29032
 H323 H -0.10877 0.89107 0.20439
 H324 H -0.10787 1.10637 0.28917
 C325 C 0.44129 0.46600 -0.26052
 C326 C 0.41437 0.46031 -0.23977
 C327 C 0.39453 0.43043 -0.24174
 C328 C 0.40144 0.40630 -0.26445
 C329 C 0.42759 0.41363 -0.28594
 C330 C 0.44735 0.44369 -0.28466
 C331 C 0.40174 0.49005 -0.22190
 C332 C 0.37368 0.50966 -0.23326
 C333 C 0.36516 0.54261 -0.22228
 C334 C 0.38439 0.55484 -0.19808
 C335 C 0.41238 0.53529 -0.18602
 C336 C 0.42112 0.50289 -0.19815
 H337 H 0.45454 0.49012 -0.25926
 H338 H 0.37309 0.42677 -0.22616
 H339 H 0.35945 0.49904 -0.25158
 H340 H 0.44371 0.48840 -0.19001
 H341 H 0.43212 0.39631 -0.30424
 H342 H 0.37854 0.58001 -0.18904
 C343 C 0.58085 0.03363 -0.28756
 C344 C 0.59619 0.02606 -0.25981
 C345 C 0.61474 0.05147 -0.24513
 C346 C 0.61835 0.08419 -0.25782
 C347 C 0.60132 0.09197 -0.28455
 C348 C 0.58205 0.06714 -0.29965
 C349 C 0.59415 -0.00868 -0.24633
 C350 C 0.61338 -0.03622 -0.25898
 C351 C 0.61394 -0.06872 -0.24526
 C352 C 0.59376 -0.07396 -0.21961
 C353 C 0.57357 -0.04708 -0.20710
 C354 C 0.57462 -0.01413 -0.21999
 H355 H 0.56654 0.01390 -0.29875
 H356 H 0.62756 0.04514 -0.22436
 H357 H 0.62898 -0.03194 -0.27887
 H358 H 0.55959 0.00691 -0.21011
 H359 H 0.60413 0.11737 -0.29390
 H360 H 0.59358 -0.09920 -0.20941
 C361 C 0.00536 0.20985 0.94041
 C362 C -0.00749 0.23817 0.92413
 C363 C -0.02986 0.23314 0.90032
 C364 C -0.03746 0.20007 0.89109
 C365 C -0.02534 0.17195 0.90760
 C366 C -0.00401 0.17648 0.93246
 C367 C 0.01089 0.27065 0.92408
 C368 C 0.04374 0.27051 0.91034
 C369 C 0.05832 0.30092 0.90019
 C370 C 0.04068 0.33207 0.90512
 C371 C 0.00843 0.33288 0.92073
 C372 C -0.00689 0.30186 0.92942
 H373 H 0.02378 0.21395 0.95813
 H374 H -0.03750 0.25503 0.88672
 H375 H 0.05647 0.24609 0.90494
 H376 H -0.03257 0.30158 0.93989
 H377 H -0.03146 0.14646 0.90028
 H378 H 0.05232 0.35541 0.89703
 C379 C 0.49518 0.20562 0.06316
 C380 C 0.51232 0.23101 0.07891
 C381 C 0.53188 0.22211 0.10399
 C382 C 0.53167 0.18873 0.11554
 C383 C 0.51504 0.16333 0.09945
 C384 C 0.49737 0.17140 0.07291
 C385 C 0.50010 0.26681 0.07730
 C386 C 0.47299 0.27580 0.09704
 C387 C 0.46725 0.30980 0.10563
 C388 C 0.48624 0.33538 0.09149
 C389 C 0.51304 0.32707 0.07072
 C390 C 0.52040 0.29235 0.06416
 H391 H 0.47933 0.21284 0.04419
 H392 H 0.54397 0.24251 0.11607
 H393 H 0.45940 0.25539 0.10834
 H394 H 0.54260 0.28500 0.05018
 H395 H 0.51442 0.13749 0.10814
 H396 H 0.48019 0.36167 0.09721
 C397 C -0.00731 0.71193 0.56618
 C398 C 0.00679 0.73705 0.58430
 C399 C 0.02597 0.72735 0.60938
 C400 C 0.02899 0.69304 0.61820
 C401 C 0.01539 0.66788 0.59986
 C402 C -0.00240 0.67706 0.57357
 C403 C -0.00663 0.77260 0.58386
 C404 C -0.02961 0.78166 0.60699
 C405 C -0.03477 0.81588 0.61567
 C406 C -0.01950 0.84135 0.59806
 C407 C 0.00157 0.83277 0.57311
 C408 C 0.00889 0.79808 0.56661
 H409 H -0.02292 0.71966 0.54721
 H410 H 0.03496 0.74739 0.62381
 H411 H -0.04041 0.76091 0.61983
 H412 H 0.02692 0.79082 0.54885
 H413 H 0.01788 0.64124 0.60641
 H414 H -0.02326 0.86797 0.60393
 C415 C 0.50978 0.71065 0.44039
 C416 C 0.49236 0.73796 0.42603
 C417 C 0.46909 0.73145 0.40301
 C418 C 0.46522 0.69816 0.39239
 C419 C 0.48195 0.67091 0.40725
 C420 C 0.50408 0.67686 0.43140
 C421 C 0.50746 0.77200 0.42580
 C422 C 0.53272 0.77742 0.40378
 C423 C 0.53997 0.81043 0.39399
 C424 C 0.52437 0.83843 0.40867
 C425 C 0.50038 0.83354 0.43226
 C426 C 0.49118 0.79997 0.44022
 H427 H 0.52875 0.71599 0.45741
 H428 H 0.45790 0.75307 0.39089
 H429 H 0.54337 0.75538 0.39185
 H430 H 0.47102 0.79541 0.45679
 H431 H 0.47874 0.64507 0.39934
 H432 H 0.53025 0.86400 0.40111
 Zr433 Zr 0.00525 -0.08106 1.03899
 O434 O 0.04496 -0.08066 1.07158
 O435 O -0.01903 -0.12708 1.04912
 O436 O -0.01654 -0.07867 1.08207
 O437 O 0.06026 -0.11038 0.98164
 O438 O -0.05519 -0.03283 1.08159
 O439 O 0.04548 -0.11849 1.03042
 O440 O -0.06666 -0.12766 1.01882
 O441 O -0.04815 -0.06888 1.03340
 O442 O -0.00732 -0.09854 0.99679
 O443 O -0.00023 -0.02773 1.04498
 O444 O 0.04002 -0.05623 1.00987
 Zr445 Zr -0.03309 -0.00651 0.96539
 Zr446 Zr -0.05343 -0.01535 1.03695
 Zr447 Zr 0.02479 -0.07171 0.96733
 Zr448 Zr -0.05987 -0.08495 0.99061
 O449 O 0.07630 -0.05939 0.95363
 O450 O -0.11245 -0.08432 1.00668
 O451 O -0.02833 -0.05995 0.95911
 O452 O -0.06737 -0.03192 0.99448
 O453 O -0.02094 0.01140 1.00766
 O454 O 0.02011 -0.01838 0.97111
 C455 C -0.04793 -0.13969 1.04025
 C456 C 0.06403 -0.12549 1.00688
 C457 C -0.03948 -0.05843 1.09450
 O458 O -0.10599 -0.02565 1.04896
 O459 O -0.08769 0.02532 1.02198
 O460 O -0.07307 0.03024 0.97287
 C461 C -0.09197 0.03824 0.99569
 O462 O 0.07080 -0.01584 1.04599
 Zr463 Zr 0.03178 -0.00304 1.01408
 O464 O -0.01114 0.04183 0.95835
 O465 O -0.04459 0.02724 1.06451
 O466 O 0.02980 0.03570 1.04702
 O467 O 0.08190 0.00208 0.99377
 O468 O 0.03205 0.04491 0.99290
 C469 C 0.01308 0.05772 0.97207
 O470 O -0.07310 -0.00551 0.93289
 O471 O 0.01782 -0.11577 0.94095
 O472 O -0.01505 -0.01180 0.92140
 O473 O 0.02247 -0.05826 0.92204
 O474 O -0.05614 -0.12904 0.96325
 O475 O -0.09292 -0.07725 0.95326
 C476 C 0.00524 -0.03417 0.90862
 H477 H -0.00364 -0.12363 0.99468
 H478 H -0.09227 -0.02644 0.99000
 H479 H 0.03517 -0.00675 0.95631
 H480 H 0.00670 -0.02111 1.06527
 H481 H -0.12287 -0.10637 1.00107
 H482 H -0.11313 -0.00861 1.06428
 H483 H -0.06683 0.03178 1.07557
 H484 H 0.05042 0.05035 1.04384
 H485 H -0.07727 -0.14270 0.96731
 H486 H 0.04010 -0.11997 0.92982
 H487 H 0.08340 -0.07614 0.93807
 H488 H 0.09165 0.02387 1.00084
 H489 H -0.11041 -0.09559 0.95268
 H490 H -0.07138 0.01620 0.92138
 H491 H 0.04346 -0.10245 1.08294
 H492 H 0.08658 0.00372 1.04841
 Zr493 Zr 0.51800 0.42960 0.55321
 O494 O 0.56549 0.42511 0.57714
 O495 O 0.48884 0.38952 0.57148
 O496 O 0.50966 0.43746 0.59929
 O497 O 0.54883 0.38986 0.48877
 O498 O 0.47934 0.48878 0.60174
 O499 O 0.54968 0.38640 0.53944
 O500 O 0.43342 0.40587 0.55846
 O501 O 0.46703 0.45085 0.55689
 O502 O 0.49052 0.41248 0.51631
 O503 O 0.52295 0.48332 0.55548
 O504 O 0.54648 0.44757 0.51608
 Zr505 Zr 0.47032 0.50607 0.48332
 Zr506 Zr 0.47144 0.50377 0.55719
 Zr507 Zr 0.51684 0.43277 0.47944
 Zr508 Zr 0.44031 0.43483 0.51956
 O509 O 0.56476 0.43485 0.45529
 O510 O 0.39021 0.44581 0.53875
 O511 O 0.46518 0.45256 0.48079
 O512 O 0.44232 0.48822 0.52045
 O513 O 0.49760 0.52359 0.52025
 O514 O 0.52156 0.48601 0.47952
 C515 C 0.45527 0.38874 0.57455
 C516 C 0.55862 0.37567 0.51316
 C517 C 0.49407 0.46208 0.61366
 O518 O 0.42237 0.50273 0.57963
 O519 O 0.44183 0.54861 0.54690
 O520 O 0.43998 0.54980 0.49621
 C521 C 0.43138 0.56164 0.52206
 O522 O 0.59378 0.48468 0.54027
 Zr523 Zr 0.54803 0.50146 0.51717
 O524 O 0.49695 0.54873 0.46765
 O525 O 0.49465 0.54495 0.57947
 O526 O 0.56154 0.54100 0.54684
 O527 O 0.59072 0.49791 0.48659
 O528 O 0.54823 0.54826 0.49349
 C529 C 0.52592 0.56206 0.47552
 O530 O 0.42215 0.51140 0.46036
 O531 O 0.49425 0.39011 0.45873
 O532 O 0.47482 0.49541 0.43739
 O533 O 0.50547 0.44444 0.43506
 O534 O 0.43060 0.38553 0.50234
 O535 O 0.39865 0.44003 0.48878
 C536 C 0.48913 0.47003 0.42308
 H537 H 0.48992 0.38714 0.51579
 H538 H 0.41798 0.49768 0.52083
 H539 H 0.53375 0.49410 0.46136
 H540 H 0.53652 0.48975 0.57317
 H541 H 0.37679 0.42434 0.53849
 H542 H 0.42240 0.52127 0.59462
 H543 H 0.47709 0.55342 0.59427
 H544 H 0.58222 0.55260 0.53830
 H545 H 0.40845 0.37812 0.51182
 H546 H 0.51181 0.38104 0.44418
 H547 H 0.56437 0.41655 0.44010
 H548 H 0.60491 0.51861 0.48921
 H549 H 0.40747 0.43158 0.46930
 H550 H 0.42379 0.53174 0.44711
 H551 H 0.56390 0.40433 0.58984
 H552 H 0.61236 0.50179 0.53773
 Zr553 Zr 0.49247 1.08935 0.53993
 O554 O 0.44960 1.09222 0.57024
 O555 O 0.51806 1.13445 0.54979
 O556 O 0.50986 1.08771 0.58438
 O557 O 0.44626 1.11966 0.47838
 O558 O 0.54509 1.03959 0.58737
 O559 O 0.45480 1.12770 0.52797
 O560 O 0.57082 1.12900 0.52564
 O561 O 0.54523 1.07320 0.53877
 O562 O 0.51208 1.10479 0.49862
 O563 O 0.49246 1.03610 0.54723
 O564 O 0.46009 1.06638 0.50842
 Zr565 Zr 0.53478 1.01058 0.47094
 Zr566 Zr 0.54533 1.01988 0.54374
 Zr567 Zr 0.48213 1.07979 0.46709
 Zr568 Zr 0.56415 1.08702 0.49696
 O569 O 0.43232 1.07082 0.44856
 O570 O 0.61444 1.08241 0.51664
 O571 O 0.53513 1.06393 0.46337
 O572 O 0.56689 1.03358 0.50242
 O573 O 0.51514 0.99511 0.51226
 O574 O 0.48206 1.02653 0.47208
 C575 C 0.54962 1.14367 0.54430
 C576 C 0.43926 1.13465 0.50320
 C577 C 0.53046 1.06676 0.59858
 O578 O 0.59796 1.02432 0.55754
 O579 O 0.57330 0.97379 0.53340
 O580 O 0.56596 0.96765 0.48341
 C581 C 0.57777 0.95753 0.50874
 O582 O 0.42071 1.02905 0.54207
 Zr583 Zr 0.46314 1.01296 0.51401
 O584 O 0.50917 0.96526 0.46107
 O585 O 0.52869 0.98135 0.57359
 O586 O 0.45794 0.97500 0.54754
 O587 O 0.41578 1.01093 0.48975
 O588 O 0.46268 0.96455 0.49344
 C589 C 0.48276 0.95082 0.47345
 O590 O 0.58055 1.00553 0.44401
 O591 O 0.49598 1.12320 0.44156
 O592 O 0.52371 1.01673 0.42545
 O593 O 0.48949 1.06546 0.42231
 O594 O 0.56767 1.13106 0.46938
 O595 O 0.60119 1.07618 0.46242
 C596 C 0.50638 1.03982 0.41068
 H597 H 0.51035 1.12997 0.49581
 H598 H 0.59151 1.02511 0.50028
 H599 H 0.46817 1.01591 0.45625
 H600 H 0.48250 1.03077 0.56708
 H601 H 0.62723 1.10356 0.51176
 H602 H 0.60149 1.00774 0.57406
 H603 H 0.54927 0.97492 0.58591
 H604 H 0.43700 0.96154 0.54278
 H605 H 0.58924 1.14301 0.47507
 H606 H 0.47567 1.12888 0.42869
 H607 H 0.42863 1.08811 0.43261
 H608 H 0.40374 0.98983 0.49606
 H609 H 0.61983 1.09344 0.46264
 H610 H 0.57845 0.98423 0.43225
 H611 H 0.45124 1.11425 0.58102
 H612 H 0.40357 1.01045 0.54376
 Zr613 Zr 0.00137 0.58395 1.03348
 O614 O -0.04191 0.58356 1.06338
 O615 O 0.02503 0.62918 1.04589
 O616 O 0.01818 0.57970 1.07811
 O617 O -0.04540 0.61612 0.97255
 O618 O 0.05529 0.53276 1.07887
 O619 O -0.03778 0.62163 1.02254
 O620 O 0.07866 0.62610 1.02294
 O621 O 0.05464 0.56955 1.03203
 O622 O 0.02096 0.60277 0.99323
 O623 O 0.00348 0.53029 1.03817
 O624 O -0.02949 0.56185 1.00049
 Zr625 Zr 0.04807 0.51058 0.96127
 Zr626 Zr 0.05685 0.51600 1.03435
 Zr627 Zr -0.00733 0.57856 0.96018
 Zr628 Zr 0.07360 0.58683 0.99127
 O629 O -0.05639 0.56933 0.94035
 O630 O 0.12414 0.58293 1.01059
 O631 O 0.04619 0.56453 0.95630
 O632 O 0.07843 0.53327 0.99417
 O633 O 0.02824 0.49164 1.00149
 O634 O -0.00518 0.52515 0.96273
 C635 C 0.05663 0.63904 1.04188
 C636 C -0.05336 0.62946 0.99790
 C637 C 0.03943 0.55849 1.09141
 O638 O 0.10871 0.52177 1.04972
 O639 O 0.08814 0.47279 1.02169
 O640 O 0.08392 0.46976 0.97127
 C641 C 0.09623 0.45918 0.99636
 O642 O -0.06674 0.51959 1.03336
 Zr643 Zr -0.02437 0.50834 1.00358
 O644 O 0.02372 0.46510 0.94911
 O645 O 0.04154 0.47459 1.06164
 O646 O -0.02658 0.46636 1.03359
 O647 O -0.07257 0.50854 0.98035
 O648 O -0.02583 0.46362 0.97804
 C649 C -0.00475 0.45118 0.95825
 O650 O 0.09359 0.50944 0.93374
 O651 O 0.00574 0.62386 0.93696
 O652 O 0.03670 0.51881 0.91621
 O653 O 0.00093 0.56664 0.91503
 O654 O 0.07527 0.63311 0.96643
 O655 O 0.11115 0.57999 0.95641
 C656 C 0.01842 0.54199 0.90249
 H657 H 0.01823 0.62802 0.99166
 H658 H 0.10349 0.52626 0.99202
 H659 H -0.01880 0.51544 0.94630
 H660 H -0.00645 0.52318 1.05760
 H661 H 0.13597 0.60490 1.00681
 H662 H 0.11276 0.50392 1.06513
 H663 H 0.06227 0.46798 1.07372
 H664 H -0.04688 0.45247 1.02795
 H665 H 0.09596 0.64566 0.97333
 H666 H -0.01444 0.62972 0.92401
 H667 H -0.06025 0.58734 0.92503
 H668 H -0.08453 0.48696 0.98537
 H669 H 0.12851 0.59844 0.95720
 H670 H 0.09246 0.48895 0.92081
 H671 H -0.04121 0.60502 1.07509
 H672 H -0.08208 0.49952 1.03485
 Zr673 Zr -0.02032 0.42824 0.45254
 O674 O -0.06458 0.42990 0.42440
 O675 O 0.00446 0.38220 0.43922
 O676 O -0.00549 0.43160 0.40714
 O677 O -0.06710 0.40081 0.51494
 O678 O 0.03418 0.47451 0.40525
 O679 O -0.05875 0.39219 0.46521
 O680 O 0.05548 0.37992 0.46543
 O681 O 0.03331 0.43853 0.45318
 O682 O -0.00148 0.40968 0.49312
 O683 O -0.01695 0.48165 0.44686
 O684 O -0.05080 0.45413 0.48523
 Zr685 Zr 0.02801 0.50044 0.52287
 Zr686 Zr 0.03673 0.49169 0.44948
 Zr687 Zr -0.02953 0.43714 0.52569
 Zr688 Zr 0.05145 0.42172 0.49447
 O689 O -0.07895 0.45115 0.54457
 O690 O 0.10177 0.42090 0.47378
 O691 O 0.02430 0.44699 0.52899
 O692 O 0.05775 0.47455 0.48998
 O693 O 0.00909 0.51930 0.48226
 O694 O -0.02569 0.49039 0.52237
 C695 C 0.03489 0.36911 0.44534
 C696 C -0.07431 0.38616 0.49033
 C697 C 0.01638 0.45081 0.39313
 O698 O 0.08823 0.48075 0.43348
 O699 O 0.06926 0.53256 0.45992
 O700 O 0.06479 0.53800 0.51030
 C701 C 0.07744 0.54651 0.48465
 O702 O -0.08772 0.49793 0.45374
 Zr703 Zr -0.04398 0.50728 0.48126
 O704 O 0.00564 0.54820 0.53417
 O705 O 0.02285 0.53370 0.42173
 O706 O -0.04630 0.54688 0.44883
 O707 O -0.09089 0.51334 0.50671
 O708 O -0.04117 0.55475 0.50320
 C709 C -0.02015 0.56564 0.52304
 O710 O 0.07337 0.50021 0.54976
 O711 O -0.01829 0.39202 0.55052
 O712 O 0.01719 0.49267 0.56867
 O713 O -0.02178 0.44913 0.57040
 O714 O 0.05188 0.37704 0.52152
 O715 O 0.08916 0.42772 0.52843
 C716 C -0.00231 0.47121 0.58273
 H717 H -0.00452 0.38466 0.49539
 H718 H 0.08299 0.47966 0.49156
 H719 H -0.03873 0.50192 0.53880
 H720 H -0.02677 0.48901 0.42750
 H721 H 0.11332 0.39850 0.47847
 H722 H 0.09299 0.49758 0.41746
 H723 H 0.04354 0.53802 0.40882
 H724 H -0.06595 0.56278 0.45442
 H725 H 0.07258 0.36278 0.51540
 H726 H -0.03889 0.38813 0.56363
 H727 H -0.08383 0.43426 0.56053
 H728 H -0.10139 0.53611 0.50169
 H729 H 0.10650 0.40840 0.52769
 H730 H 0.07232 0.52148 0.56182
 H731 H -0.06408 0.40827 0.41287
 H732 H -0.10333 0.51860 0.45317
 Zr733 Zr 0.48555 -0.07725 -0.04570
 O734 O 0.44237 -0.07671 -0.07504
 O735 O 0.51244 -0.12243 -0.05847
 O736 O 0.50166 -0.07273 -0.09059
 O737 O 0.43858 -0.10834 0.01471
 O738 O 0.53839 -0.02742 -0.09120
 O739 O 0.44823 -0.11476 -0.03510
 O740 O 0.56319 -0.12237 -0.03191
 O741 O 0.53849 -0.06465 -0.04384
 O742 O 0.50398 -0.09574 -0.00494
 O743 O 0.48624 -0.02365 -0.05054
 O744 O 0.45287 -0.05346 -0.01328
 Zr745 Zr 0.52816 -0.00423 0.02667
 Zr746 Zr 0.53915 -0.01131 -0.04666
 Zr747 Zr 0.47365 -0.07027 0.02740
 Zr748 Zr 0.55616 -0.08131 -0.00234
 O749 O 0.42293 -0.05919 0.04508
 O750 O 0.60703 -0.07942 -0.02186
 O751 O 0.52681 -0.05798 0.03197
 O752 O 0.55995 -0.02812 -0.00598
 O753 O 0.50942 0.01443 -0.01406
 O754 O 0.47509 -0.01676 0.02490
 C755 C 0.54327 -0.13431 -0.05200
 C756 C 0.43239 -0.12221 -0.01052
 C757 C 0.52244 -0.05193 -0.10392
 O758 O 0.59147 -0.01961 -0.06177
 O759 O 0.56899 0.03085 -0.03520
 O760 O 0.56339 0.03549 0.01516
 C761 C 0.57598 0.04497 -0.01032
 O762 O 0.41455 -0.01102 -0.04461
 Zr763 Zr 0.45711 0.00007 -0.01631
 O764 O 0.50303 0.04209 0.03820
 O765 O 0.52410 0.03064 -0.07409
 O766 O 0.45351 0.03994 -0.04843
 O767 O 0.40950 0.00376 0.00847
 O768 O 0.45732 0.04749 0.00597
 C769 C 0.47716 0.05884 0.02645
 O770 O 0.57257 -0.00254 0.05454
 O771 O 0.48651 -0.11511 0.05205
 O772 O 0.51641 -0.01375 0.07216
 O773 O 0.47866 -0.05837 0.07254
 O774 O 0.55801 -0.12651 0.02403
 O775 O 0.59246 -0.07408 0.03251
 C776 C 0.49703 -0.03590 0.08558
 H777 H 0.50203 -0.12093 -0.00308
 H778 H 0.58482 -0.02183 -0.00386
 H779 H 0.46104 -0.00611 0.04120
 H780 H 0.47662 -0.01641 -0.07001
 H781 H 0.61952 -0.10136 -0.01718
 H782 H 0.59583 -0.00231 -0.07750
 H783 H 0.54482 0.03611 -0.08658
 H784 H 0.43295 0.05480 -0.04304
 H785 H 0.57958 -0.13965 0.01820
 H786 H 0.46553 -0.12052 0.06425
 H787 H 0.41823 -0.07689 0.06039
 H788 H 0.39811 0.02615 0.00351
 H789 H 0.61062 -0.09268 0.03202
 H790 H 0.56991 0.01845 0.06684
 H791 H 0.44418 -0.09800 -0.08702
 H792 H 0.39791 0.00889 -0.04517
 Zr793 Zr 0.50978 0.58027 -0.03201
 O794 O 0.54835 0.58558 -0.06583
 O795 O 0.47845 0.62404 -0.04058
 O796 O 0.48892 0.57596 -0.07549
 O797 O 0.56073 0.61161 0.02635
 O798 O 0.45769 0.52670 -0.07398
 O799 O 0.54720 0.61867 -0.02267
 O800 O 0.43100 0.61913 -0.00952
 O801 O 0.45863 0.56270 -0.02608
 O802 O 0.49394 0.59535 0.01068
 O803 O 0.51301 0.52680 -0.03823
 O804 O 0.54726 0.55814 -0.00298
 Zr805 Zr 0.48200 0.50060 0.04113
 Zr806 Zr 0.46206 0.50922 -0.03004
 Zr807 Zr 0.52914 0.57115 0.03992
 Zr808 Zr 0.44373 0.57623 0.01708
 O809 O 0.58144 0.56312 0.05444
 O810 O 0.39222 0.57064 0.00058
 O811 O 0.47820 0.55394 0.04805
 O812 O 0.44448 0.52277 0.01260
 O813 O 0.49782 0.48529 -0.00140
 O814 O 0.53306 0.51791 0.03565
 C815 C 0.44796 0.63358 -0.03069
 C816 C 0.56477 0.62607 0.00095
 C817 C 0.46938 0.55324 -0.08745
 O818 O 0.40820 0.51404 -0.04085
 O819 O 0.43597 0.46424 -0.01657
 O820 O 0.45321 0.45682 0.03147
 C821 C 0.43674 0.44750 0.00818
 O822 O 0.58585 0.52233 -0.03873
 Zr823 Zr 0.54796 0.50468 -0.00761
 O824 O 0.51351 0.45699 0.04989
 O825 O 0.47794 0.46912 -0.05906
 O826 O 0.55370 0.46758 -0.04175
 O827 O 0.59751 0.50337 0.01351
 O828 O 0.55334 0.45562 0.01172
 C829 C 0.53785 0.44213 0.03421
 O830 O 0.43994 0.49287 0.07145
 O831 O 0.51508 0.61463 0.06583
 O832 O 0.49504 0.50878 0.08563
 O833 O 0.52682 0.55757 0.08521
 O834 O 0.44032 0.61927 0.04569
 O835 O 0.41108 0.56442 0.05412
 C836 C 0.51151 0.53280 0.09856
 H837 H 0.49412 0.62057 0.01312
 H838 H 0.42081 0.51394 0.01693
 H839 H 0.54937 0.50790 0.05055
 H840 H 0.52122 0.52123 -0.05863
 H841 H 0.37814 0.59122 0.00657
 H842 H 0.40383 0.49687 -0.05647
 H843 H 0.45670 0.46235 -0.06991
 H844 H 0.57633 0.45504 -0.03858
 H845 H 0.41727 0.63090 0.04224
 H846 H 0.53606 0.62047 0.07745
 H847 H 0.58536 0.57991 0.07046
 H848 H 0.61029 0.48242 0.00656
 H849 H 0.39070 0.58068 0.05476
 H850 H 0.44548 0.47171 0.08303
 H851 H 0.54337 0.60781 -0.07596
 H852 H 0.60534 0.50515 -0.04050
 Zr853 Zr 0.00868 1.08300 0.45191
 O854 O 0.05122 1.08225 0.42122
 O855 O -0.01702 1.12911 0.44054
 O856 O -0.00921 1.08063 0.40745
 O857 O 0.05669 1.11172 0.51164
 O858 O -0.04570 1.03517 0.40720
 O859 O 0.04700 1.11919 0.46200
 O860 O -0.06860 1.12793 0.46670
 O861 O -0.04435 1.07114 0.45499
 O862 O -0.00898 1.10085 0.49335
 O863 O 0.00730 1.02964 0.44639
 O864 O 0.04118 1.05807 0.48350
 Zr865 Zr -0.03420 1.00878 0.52447
 Zr866 Zr -0.04571 1.01801 0.45154
 Zr867 Zr 0.02101 1.07410 0.52493
 Zr868 Zr -0.06135 1.08720 0.49699
 O869 O 0.07165 1.06213 0.54162
 O870 O -0.11296 1.08650 0.47970
 O871 O -0.03226 1.06238 0.53051
 O872 O -0.06584 1.03416 0.49286
 O873 O -0.01610 0.99090 0.48311
 O874 O 0.01898 1.02072 0.52156
 C875 C -0.04835 1.14022 0.44653
 C876 C 0.06311 1.12576 0.48630
 C877 C -0.03045 1.06035 0.39443
 O878 O -0.09810 1.02737 0.43780
 O879 O -0.07618 0.97637 0.46325
 O880 O -0.07095 0.97054 0.51348
 C881 C -0.08396 0.96225 0.48813
 O882 O 0.07865 1.01611 0.45043
 Zr883 Zr 0.03638 1.00474 0.47976
 O884 O -0.01006 0.96139 0.53422
 O885 O -0.03148 0.97659 0.42333
 O886 O 0.03874 0.96541 0.44736
 O887 O 0.08449 1.00019 0.50298
 O888 O 0.03650 0.95704 0.50201
 C889 C 0.01628 0.94511 0.52240
 O890 O -0.07793 1.00753 0.55387
 O891 O 0.00869 1.11853 0.55015
 O892 O -0.02026 1.01552 0.56958
 O893 O 0.01628 1.06106 0.57028
 O894 O -0.06175 1.13242 0.52300
 O895 O -0.09717 1.07998 0.53287
 C896 C -0.00087 1.03714 0.58318
 H897 H -0.00655 1.12595 0.49531
 H898 H -0.09082 1.02830 0.49550
 H899 H 0.03317 1.00941 0.53729
 H900 H 0.01651 1.02287 0.42656
 H901 H -0.12477 1.10865 0.48483
 H902 H -0.10296 1.01051 0.42204
 H903 H -0.05244 0.97159 0.41136
 H904 H 0.05922 0.95022 0.45202
 H905 H -0.08293 1.14613 0.51737
 H906 H 0.02985 1.12353 0.56186
 H907 H 0.07666 1.07955 0.55687
 H908 H 0.09573 0.97794 0.49735
 H909 H -0.11406 1.09967 0.53382
 H910 H -0.07562 0.98609 0.56573
 H911 H 0.04956 1.10385 0.40951
 H912 H 0.09465 0.99579 0.44872
 Zr913 Zr 0.65398 0.25827 0.21213
 O914 O 0.64909 0.30102 0.18316
 O915 O 0.60765 0.23277 0.20294
 O916 O 0.65465 0.24313 0.16693
 O917 O 0.62648 0.30183 0.27582
 O918 O 0.70444 0.20977 0.16184
 O919 O 0.61530 0.29465 0.22653
 O920 O 0.61581 0.18049 0.22501
 O921 O 0.67053 0.20682 0.21185
 O922 O 0.64003 0.23827 0.25363
 O923 O 0.70827 0.25854 0.20314
 O924 O 0.67944 0.28888 0.24341
 Zr925 Zr 0.73837 0.21462 0.27771
 Zr926 Zr 0.72475 0.20700 0.20507
 Zr927 Zr 0.66761 0.26646 0.28468
 Zr928 Zr 0.65822 0.18747 0.25384
 O929 O 0.67768 0.31474 0.30369
 O930 O 0.66176 0.13788 0.23470
 O931 O 0.68385 0.21466 0.28704
 O932 O 0.71252 0.18478 0.24631
 O933 O 0.75239 0.23495 0.23620
 O934 O 0.72199 0.26621 0.27796
 C935 C 0.59988 0.20120 0.20709
 C936 C 0.60974 0.30926 0.25190
 C937 C 0.67640 0.22426 0.15157
 O938 O 0.71758 0.15672 0.18913
 O939 O 0.77022 0.17720 0.21293
 O940 O 0.77947 0.18062 0.26283
 C941 C 0.78708 0.16904 0.23660
 O942 O 0.71691 0.32820 0.20957
 Zr943 Zr 0.73394 0.28582 0.23605
 O944 O 0.78540 0.23949 0.28565
 O945 O 0.76450 0.22336 0.17544
 O946 O 0.77134 0.29124 0.20120
 O947 O 0.73681 0.33140 0.26135
 O948 O 0.78434 0.28604 0.25473
 C949 C 0.79930 0.26599 0.27371
 O950 O 0.74493 0.17037 0.30475
 O951 O 0.62446 0.25231 0.31169
 O952 O 0.73397 0.22506 0.32388
 O953 O 0.68433 0.25874 0.32855
 O954 O 0.61340 0.18456 0.28202
 O955 O 0.67045 0.15120 0.28781
 C956 C 0.71084 0.24219 0.33938
 H957 H 0.61436 0.24001 0.25731
 H958 H 0.72053 0.16048 0.24743
 H959 H 0.73356 0.27948 0.29364
 H960 H 0.71310 0.26882 0.18341
 H961 H 0.64029 0.12558 0.24059
 H962 H 0.73419 0.15328 0.17224
 H963 H 0.77020 0.20379 0.16212
 H964 H 0.78556 0.31146 0.20575
 H965 H 0.60058 0.16395 0.27604
 H966 H 0.61911 0.27193 0.32504
 H967 H 0.66080 0.31806 0.32041
 H968 H 0.75823 0.34334 0.25481
 H969 H 0.65144 0.13441 0.28944
 H970 H 0.76753 0.17239 0.31533
 H971 H 0.62612 0.29939 0.17310
 H972 H 0.73613 0.34472 0.20763
 Zr973 Zr 0.83424 0.74681 0.70862
 O974 O 0.83792 0.70536 0.67842
 O975 O 0.88037 0.77256 0.69869
 O976 O 0.83312 0.76410 0.66403
 O977 O 0.86362 0.70030 0.76973
 O978 O 0.78361 0.79811 0.66185
 O979 O 0.87351 0.71030 0.72040
 O980 O 0.87153 0.82441 0.72090
 O981 O 0.81771 0.79823 0.71006
 O982 O 0.84946 0.76507 0.75001
 O983 O 0.77979 0.74659 0.70160
 O984 O 0.80982 0.71467 0.74001
 Zr985 Zr 0.75125 0.78711 0.77803
 Zr986 Zr 0.76336 0.79794 0.70538
 Zr987 Zr 0.82280 0.73541 0.78128
 Zr988 Zr 0.83095 0.81571 0.75201
 O989 O 0.81325 0.68647 0.79978
 O990 O 0.82508 0.86658 0.73572
 O991 O 0.80602 0.78706 0.78530
 O992 O 0.77633 0.81860 0.74676
 O993 O 0.73637 0.76842 0.73663
 O994 O 0.76811 0.73566 0.77664
 C995 C 0.88776 0.80415 0.70270
 C996 C 0.87979 0.69434 0.74498
 C997 C 0.81136 0.78418 0.65020
 O998 O 0.76907 0.84933 0.69117
 O999 O 0.71731 0.82604 0.71462
 O1000 O 0.71036 0.82232 0.76489
 C1001 C 0.70145 0.83389 0.73897
 O1002 O 0.77101 0.67687 0.70614
 Zr1003 Zr 0.75508 0.71768 0.73476
 O1004 O 0.70440 0.76160 0.78680
 O1005 O 0.72397 0.78252 0.67576
 O1006 O 0.71620 0.71422 0.70155
 O1007 O 0.75418 0.67075 0.75872
 O1008 O 0.70566 0.71525 0.75606
 C1009 C 0.69078 0.73477 0.77560
 O1010 O 0.74256 0.82897 0.80724
 O1011 O 0.86684 0.74858 0.80678
 O1012 O 0.75851 0.77525 0.82367
 O1013 O 0.80824 0.74143 0.82600
 O1014 O 0.87687 0.81789 0.77805
 O1015 O 0.82699 0.85085 0.78769
 C1016 C 0.78223 0.75781 0.83804
 H1017 H 0.87522 0.76328 0.75271
 H1018 H 0.76807 0.84275 0.74864
 H1019 H 0.75713 0.72173 0.79250
 H1020 H 0.77451 0.73728 0.68175
 H1021 H 0.84677 0.87868 0.74089
 H1022 H 0.75268 0.85322 0.67444
 H1023 H 0.71803 0.80262 0.66306
 H1024 H 0.70222 0.69371 0.70604
 H1025 H 0.88939 0.83872 0.77172
 H1026 H 0.87315 0.72820 0.81902
 H1027 H 0.83100 0.68232 0.81544
 H1028 H 0.73276 0.65868 0.75281
 H1029 H 0.80165 0.85594 0.79079
 H1030 H 0.72004 0.82513 0.81792
 H1031 H 0.86061 0.70721 0.66756
 H1032 H 0.75167 0.66050 0.70446
 Zr1033 Zr 0.18674 0.22654 0.78828
 O1034 O 0.19424 0.18214 0.81484
 O1035 O 0.14168 0.24700 0.80833
 O1036 O 0.20063 0.23935 0.83277
 O1037 O 0.14222 0.19005 0.72872
 O1038 O 0.24287 0.27964 0.82792
 O1039 O 0.14849 0.18858 0.77915
 O1040 O 0.14581 0.30336 0.79659
 O1041 O 0.19967 0.27843 0.78886
 O1042 O 0.15859 0.25046 0.75386
 O1043 O 0.24178 0.22871 0.78433
 O1044 O 0.20274 0.20067 0.74941
 Zr1045 Zr 0.24402 0.27948 0.70931
 Zr1046 Zr 0.25381 0.28117 0.78221
 Zr1047 Zr 0.17698 0.22725 0.71471
 Zr1048 Zr 0.17249 0.30183 0.75445
 O1049 O 0.18215 0.18143 0.68975
 O1050 O 0.18017 0.35034 0.77409
 O1051 O 0.18869 0.27938 0.71375
 O1052 O 0.22716 0.30616 0.74761
 O1053 O 0.27205 0.25615 0.74389
 O1054 O 0.23103 0.22786 0.70881
 C1055 C 0.13565 0.27871 0.81371
 C1056 C 0.13507 0.17796 0.75447
 C1057 C 0.22111 0.26226 0.84347
 O1058 O 0.25113 0.33122 0.80028
 O1059 O 0.29529 0.31141 0.76574
 O1060 O 0.28980 0.30773 0.71547
 C1061 C 0.30544 0.31787 0.73895
 O1062 O 0.25188 0.16091 0.77206
 Zr1063 Zr 0.25713 0.20498 0.74459
 O1064 O 0.28501 0.25458 0.68535
 O1065 O 0.30006 0.26243 0.80299
 O1066 O 0.30544 0.19943 0.76734
 O1067 O 0.25469 0.16052 0.71782
 O1068 O 0.29742 0.20636 0.71272
 C1069 C 0.30298 0.22692 0.69102
 O1070 O 0.24070 0.32782 0.68770
 O1071 O 0.12676 0.24444 0.70041
 O1072 O 0.22562 0.27608 0.66574
 O1073 O 0.18026 0.23918 0.66904
 O1074 O 0.11868 0.30550 0.74286
 O1075 O 0.16658 0.34041 0.72126
 C1076 C 0.20086 0.25881 0.65438
 H1077 H 0.13292 0.24770 0.75612
 H1078 H 0.23357 0.33054 0.74603
 H1079 H 0.23717 0.21605 0.68998
 H1080 H 0.25324 0.21726 0.80150
 H1081 H 0.15659 0.36098 0.77759
 H1082 H 0.27158 0.33342 0.81356
 H1083 H 0.30859 0.28142 0.81531
 H1084 H 0.31872 0.17998 0.75816
 H1085 H 0.10801 0.32403 0.75521
 H1086 H 0.11816 0.22668 0.68679
 H1087 H 0.16122 0.18016 0.67688
 H1088 H 0.27773 0.14824 0.71913
 H1089 H 0.14778 0.35701 0.72732
 H1090 H 0.25881 0.32780 0.67168
 H1091 H 0.17445 0.18195 0.82934
 H1092 H 0.27314 0.14597 0.76992
 Zr1093 Zr 0.32702 0.76525 0.29586
 O1094 O 0.32309 0.80735 0.32533
 O1095 O 0.37463 0.74262 0.30946
 O1096 O 0.32357 0.74889 0.34063
 O1097 O 0.35597 0.81274 0.23454
 O1098 O 0.28003 0.70969 0.34120
 O1099 O 0.36229 0.80471 0.28448
 O1100 O 0.37763 0.69198 0.28424
 O1101 O 0.31738 0.71275 0.29426
 O1102 O 0.34816 0.74752 0.25564
 O1103 O 0.27228 0.76093 0.30062
 O1104 O 0.30136 0.79495 0.26293
 Zr1105 Zr 0.25622 0.71797 0.22307
 Zr1106 Zr 0.26299 0.70840 0.29670
 Zr1107 Zr 0.32073 0.77459 0.22279
 Zr1108 Zr 0.33655 0.69567 0.25334
 O1109 O 0.30879 0.82103 0.20030
 O1110 O 0.33691 0.64620 0.27314
 O1111 O 0.31131 0.72207 0.21863
 O1112 O 0.28225 0.68889 0.25616
 O1113 O 0.23545 0.73549 0.26374
 O1114 O 0.26606 0.77054 0.22478
 C1115 C 0.38805 0.71264 0.30428
 C1116 C 0.36904 0.82046 0.25977
 C1117 C 0.30429 0.72662 0.35385
 O1118 O 0.27400 0.65782 0.31177
 O1119 O 0.22197 0.67630 0.28486
 O1120 O 0.21825 0.68083 0.23440
 C1121 C 0.20887 0.66806 0.25974
 O1122 O 0.25772 0.83048 0.29288
 Zr1123 Zr 0.24706 0.78742 0.26599
 O1124 O 0.20716 0.73985 0.21179
 O1125 O 0.21916 0.72092 0.32416
 O1126 O 0.20634 0.78801 0.29850
 O1127 O 0.23754 0.83357 0.24199
 O1128 O 0.19913 0.78479 0.24362
 C1129 C 0.18868 0.76459 0.22332
 O1130 O 0.25720 0.67420 0.19532
 O1131 O 0.36880 0.76358 0.20039
 O1132 O 0.26632 0.72825 0.17719
 O1133 O 0.31152 0.76562 0.17798
 O1134 O 0.38372 0.69622 0.22791
 O1135 O 0.33302 0.65929 0.21856
 C1136 C 0.29031 0.74622 0.16445
 H1137 H 0.37377 0.75112 0.25418
 H1138 H 0.27751 0.66419 0.25406
 H1139 H 0.25483 0.78342 0.20825
 H1140 H 0.26415 0.77001 0.32008
 H1141 H 0.36036 0.63544 0.26931
 H1142 H 0.25649 0.65277 0.32754
 H1143 H 0.21477 0.70045 0.33665
 H1144 H 0.18982 0.80711 0.29340
 H1145 H 0.39846 0.67639 0.23456
 H1146 H 0.37325 0.78339 0.18712
 H1147 H 0.29742 0.83633 0.21522
 H1148 H 0.21526 0.84400 0.24967
 H1149 H 0.35300 0.64262 0.21978
 H1150 H 0.23565 0.67529 0.18305
 H1151 H 0.34508 0.80732 0.33699
 H1152 H 0.23543 0.84289 0.29775
 Zr1153 Zr 0.16498 0.74332 0.71510
 O1154 O 0.17110 0.78439 0.68467
 O1155 O 0.11563 0.72611 0.70354
 O1156 O 0.16610 0.72596 0.67073
 O1157 O 0.14035 0.79570 0.77421
 O1158 O 0.20837 0.68344 0.67002
 O1159 O 0.13161 0.78558 0.72494
 O1160 O 0.11086 0.67616 0.72948
 O1161 O 0.17097 0.69002 0.71802
 O1162 O 0.14428 0.72968 0.75659
 O1163 O 0.21894 0.73316 0.70921
 O1164 O 0.19331 0.77155 0.74623
 Zr1165 Zr 0.23502 0.69164 0.78738
 Zr1166 Zr 0.22488 0.68001 0.71460
 Zr1167 Zr 0.17445 0.75515 0.78783
 Zr1168 Zr 0.15247 0.67690 0.76019
 O1169 O 0.19214 0.80227 0.80450
 O1170 O 0.14818 0.62650 0.74342
 O1171 O 0.18069 0.70181 0.79343
 O1172 O 0.20600 0.66420 0.75634
 O1173 O 0.25515 0.70534 0.74567
 O1174 O 0.22862 0.74489 0.78421
 C1175 C 0.10100 0.69750 0.70918
 C1176 C 0.12656 0.80304 0.74887
 C1177 C 0.18480 0.70259 0.65743
 O1178 O 0.20914 0.63099 0.70079
 O1179 O 0.26303 0.64318 0.72712
 O1180 O 0.27035 0.65056 0.77697
 C1181 C 0.27703 0.63518 0.75217
 O1182 O 0.23899 0.80098 0.71322
 Zr1183 Zr 0.24687 0.75824 0.74207
 O1184 O 0.28651 0.70674 0.79619
 O1185 O 0.26946 0.68602 0.68682
 O1186 O 0.28650 0.75563 0.70863
 O1187 O 0.25813 0.80349 0.76574
 O1188 O 0.29577 0.74921 0.76221
 C1189 C 0.30613 0.72833 0.78264
 O1190 O 0.23028 0.64955 0.81693
 O1191 O 0.12762 0.75102 0.81316
 O1192 O 0.22993 0.70688 0.83227
 O1193 O 0.18650 0.74831 0.83318
 O1194 O 0.10661 0.68360 0.78675
 O1195 O 0.15145 0.63849 0.79371
 C1196 C 0.20931 0.72850 0.84595
 H1197 H 0.11900 0.73593 0.75858
 H1198 H 0.20918 0.63917 0.75937
 H1199 H 0.24176 0.75691 0.79973
 H1200 H 0.22704 0.74081 0.68935
 H1201 H 0.12408 0.61884 0.74805
 H1202 H 0.22591 0.62340 0.68502
 H1203 H 0.27197 0.66484 0.67483
 H1204 H 0.30387 0.77333 0.71314
 H1205 H 0.09111 0.66444 0.78184
 H1206 H 0.12494 0.77243 0.82482
 H1207 H 0.17480 0.81000 0.81978
 H1208 H 0.28201 0.81039 0.75961
 H1209 H 0.15537 0.64985 0.81298
 H1210 H 0.25210 0.64808 0.82881
 H1211 H 0.14924 0.78637 0.67288
 H1212 H 0.26074 0.81433 0.71206
 Zr1213 Zr 0.33340 0.24042 0.20447
 O1214 O 0.33654 0.19551 0.17818
 O1215 O 0.37653 0.26681 0.18803
 O1216 O 0.32616 0.25066 0.15863
 O1217 O 0.36866 0.20024 0.26726
 O1218 O 0.27677 0.28516 0.15745
 O1219 O 0.37487 0.20609 0.21699
 O1220 O 0.37285 0.31840 0.21158
 O1221 O 0.31584 0.29175 0.20320
 O1222 O 0.35146 0.26281 0.24344
 O1223 O 0.27841 0.23908 0.20101
 O1224 O 0.31255 0.21094 0.23954
 Zr1225 Zr 0.25588 0.28536 0.27560
 Zr1226 Zr 0.26101 0.29056 0.20208
 Zr1227 Zr 0.32824 0.23563 0.27845
 Zr1228 Zr 0.33200 0.31323 0.24298
 O1229 O 0.32154 0.18827 0.30075
 O1230 O 0.32532 0.36081 0.22056
 O1231 O 0.31090 0.28712 0.27973
 O1232 O 0.27710 0.31469 0.24097
 O1233 O 0.23803 0.26295 0.23669
 O1234 O 0.27345 0.23424 0.27688
 C1235 C 0.38586 0.29786 0.19194
 C1236 C 0.38315 0.19232 0.24224
 C1237 C 0.30237 0.26852 0.14491
 O1238 O 0.26542 0.34023 0.18356
 O1239 O 0.21525 0.31973 0.21306
 O1240 O 0.21171 0.31596 0.26365
 C1241 C 0.20033 0.32640 0.23824
 O1242 O 0.27324 0.16944 0.21105
 Zr1243 Zr 0.25759 0.21247 0.23723
 O1244 O 0.21030 0.26035 0.28906
 O1245 O 0.21860 0.27250 0.17701
 O1246 O 0.21687 0.20392 0.20650
 O1247 O 0.25851 0.16825 0.26485
 O1248 O 0.20937 0.21238 0.26029
 C1249 C 0.19569 0.23329 0.27930
 O1250 O 0.25127 0.33117 0.30061
 O1251 O 0.37381 0.25201 0.30025
 O1252 O 0.26528 0.27767 0.32113
 O1253 O 0.31593 0.24528 0.32349
 O1254 O 0.37776 0.31915 0.26862
 O1255 O 0.32508 0.35545 0.27219
 C1256 C 0.29004 0.26206 0.33551
 H1257 H 0.37742 0.26193 0.24461
 H1258 H 0.26842 0.33879 0.24199
 H1259 H 0.26384 0.22162 0.29416
 H1260 H 0.27144 0.22759 0.18248
 H1261 H 0.34691 0.37403 0.22360
 H1262 H 0.24730 0.34244 0.16796
 H1263 H 0.21139 0.29133 0.16334
 H1264 H 0.20417 0.18340 0.21330
 H1265 H 0.38890 0.34037 0.26142
 H1266 H 0.38102 0.23327 0.31399
 H1267 H 0.34024 0.18622 0.31588
 H1268 H 0.23685 0.15555 0.26084
 H1269 H 0.32239 0.34608 0.29255
 H1270 H 0.23008 0.32944 0.31351
 H1271 H 0.35822 0.19677 0.16582
 H1272 H 0.25488 0.15193 0.21217
 Zr1273 Zr 0.67765 0.73269 0.29949
 O1274 O 0.67849 0.68945 0.32817
 O1275 O 0.63199 0.75933 0.31372
 O1276 O 0.68137 0.74693 0.34434
 O1277 O 0.64685 0.68744 0.23957
 O1278 O 0.72696 0.78368 0.34507
 O1279 O 0.63910 0.69693 0.28920
 O1280 O 0.63188 0.80923 0.28703
 O1281 O 0.69052 0.78432 0.29778
 O1282 O 0.65848 0.75171 0.25918
 O1283 O 0.73255 0.73313 0.30394
 O1284 O 0.70231 0.70181 0.26668
 Zr1285 Zr 0.75288 0.77637 0.22680
 Zr1286 Zr 0.74501 0.78484 0.30046
 Zr1287 Zr 0.68478 0.72310 0.22644
 Zr1288 Zr 0.67348 0.80266 0.25660
 O1289 O 0.69596 0.67436 0.20755
 O1290 O 0.67498 0.85217 0.27580
 O1291 O 0.69771 0.77505 0.22196
 O1292 O 0.72790 0.80617 0.26000
 O1293 O 0.77222 0.75701 0.26719
 O1294 O 0.73946 0.72463 0.22846
 C1295 C 0.62023 0.78980 0.30776
 C1296 C 0.63239 0.68116 0.26491
 C1297 C 0.70162 0.76765 0.35768
 O1298 O 0.73649 0.83556 0.31597
 O1299 O 0.78759 0.81503 0.28933
 O1300 O 0.79243 0.81174 0.23882
 C1301 C 0.80135 0.82376 0.26442
 O1302 O 0.74919 0.66505 0.29968
 Zr1303 Zr 0.75722 0.70590 0.26912
 O1304 O 0.79954 0.75119 0.21323
 O1305 O 0.78745 0.76934 0.32781
 O1306 O 0.80093 0.70509 0.29794
 O1307 O 0.75731 0.65814 0.24676
 O1308 O 0.80255 0.70255 0.24168
 C1309 C 0.81388 0.72239 0.22100
 O1310 O 0.75545 0.82023 0.19903
 O1311 O 0.63855 0.73637 0.20289
 O1312 O 0.74273 0.76608 0.18125
 O1313 O 0.69694 0.72927 0.18121
 O1314 O 0.62710 0.80463 0.23088
 O1315 O 0.68121 0.83873 0.22176
 C1316 C 0.72012 0.74731 0.16796
 H1317 H 0.63267 0.74980 0.25776
 H1318 H 0.73404 0.83058 0.25809
 H1319 H 0.74954 0.71102 0.21179
 H1320 H 0.73992 0.72336 0.32332
 H1321 H 0.65260 0.86439 0.27099
 H1322 H 0.75360 0.83925 0.33203
 H1323 H 0.79268 0.78919 0.34055
 H1324 H 0.81650 0.68551 0.29201
 H1325 H 0.61348 0.82543 0.23703
 H1326 H 0.63283 0.71619 0.19073
 H1327 H 0.67760 0.67029 0.19259
 H1328 H 0.78015 0.64628 0.25061
 H1329 H 0.66151 0.85577 0.22173
 H1330 H 0.77700 0.81751 0.18659
 H1331 H 0.65674 0.69060 0.34052
 H1332 H 0.77083 0.65050 0.30075
 Zr1333 Zr 0.82746 0.27090 0.79581
 O1334 O 0.82571 0.31389 0.82438
 O1335 O 0.87478 0.24729 0.80854
 O1336 O 0.82360 0.25608 0.84134
 O1337 O 0.85644 0.31589 0.73327
 O1338 O 0.77868 0.21841 0.84289
 O1339 O 0.86401 0.30882 0.78322
 O1340 O 0.87554 0.19643 0.78375
 O1341 O 0.81675 0.21855 0.79499
 O1342 O 0.84681 0.25238 0.75508
 O1343 O 0.77273 0.26795 0.80138
 O1344 O 0.80153 0.30056 0.76297
 Zr1345 Zr 0.75358 0.22412 0.72512
 Zr1346 Zr 0.76218 0.21564 0.79842
 Zr1347 Zr 0.81900 0.27954 0.72235
 Zr1348 Zr 0.83409 0.20087 0.75354
 O1349 O 0.80592 0.32812 0.70376
 O1350 O 0.83331 0.15101 0.77239
 O1351 O 0.80839 0.22704 0.71887
 O1352 O 0.77979 0.19490 0.75776
 O1353 O 0.73416 0.24283 0.76581
 O1354 O 0.76447 0.27640 0.72595
 C1355 C 0.88721 0.21700 0.80324
 C1356 C 0.87067 0.32357 0.75803
 C1357 C 0.80311 0.23530 0.85529
 O1358 O 0.77344 0.16540 0.81419
 O1359 O 0.72021 0.18414 0.78803
 O1360 O 0.71463 0.18851 0.73772
 C1361 C 0.70579 0.17627 0.76338
 O1362 O 0.75656 0.33676 0.79529
 Zr1363 Zr 0.74705 0.29452 0.76708
 O1364 O 0.70537 0.24675 0.71381
 O1365 O 0.71880 0.22914 0.82611
 O1366 O 0.70567 0.29635 0.79898
 O1367 O 0.74218 0.34087 0.74247
 O1368 O 0.69921 0.29329 0.74412
 C1369 C 0.68816 0.27281 0.72421
 O1370 O 0.75262 0.18034 0.69750
 O1371 O 0.86493 0.26720 0.69738
 O1372 O 0.76106 0.23544 0.67939
 O1373 O 0.80590 0.27319 0.67748
 O1374 O 0.88053 0.20035 0.72718
 O1375 O 0.83553 0.16361 0.71941
 C1376 C 0.78257 0.25489 0.66520
 H1377 H 0.87247 0.25526 0.75288
 H1378 H 0.77421 0.17035 0.75618
 H1379 H 0.75299 0.28948 0.70968
 H1380 H 0.76504 0.27756 0.82078
 H1381 H 0.85625 0.13969 0.76758
 H1382 H 0.75604 0.16066 0.83012
 H1383 H 0.71419 0.20897 0.83893
 H1384 H 0.68965 0.31574 0.79355
 H1385 H 0.89532 0.18056 0.73387
 H1386 H 0.86960 0.28727 0.68448
 H1387 H 0.82344 0.33260 0.68785
 H1388 H 0.71904 0.35158 0.74759
 H1389 H 0.81128 0.15562 0.71716
 H1390 H 0.73070 0.18198 0.68575
 H1391 H 0.84784 0.31326 0.83586
 H1392 H 0.73518 0.35170 0.79651
 N1393 N 0.52118 1.00861 0.36461
 N1394 N 0.51126 1.00947 0.33501
 C1395 C 0.48969 1.03711 0.33085
 C1396 C 0.48612 1.05486 0.35762
 C1397 C 0.50547 1.03550 0.37826
 H1398 H 0.46933 1.07707 0.36213
 H1399 H 0.53660 0.98915 0.37431
 H1400 H 0.52029 0.99168 0.31926
 N1401 N 0.03153 0.51217 0.85547
 N1402 N 0.01817 0.51245 0.82689
 C1403 C -0.00479 0.53930 0.82461
 C1404 C -0.00591 0.55710 0.85133
 C1405 C 0.01630 0.53857 0.87020
 H1406 H -0.02337 0.57835 0.85728
 H1407 H 0.04808 0.49291 0.86412
 H1408 H 0.02559 0.49467 0.81058
 N1409 N -0.01205 -0.01050 0.85982
 N1410 N -0.00227 -0.01341 0.83179
 C1411 C 0.02451 -0.03660 0.82982
 C1412 C 0.03188 -0.04947 0.85789
 C1413 C 0.00827 -0.03176 0.87626
 H1414 H 0.05252 -0.06756 0.86419
 H1415 H -0.03208 0.00612 0.86743
 H1416 H -0.01362 0.00070 0.81442
 N1417 N 0.46965 0.49396 0.37452
 N1418 N 0.47852 0.49022 0.34627
 C1419 C 0.50265 0.46441 0.34381
 C1420 C 0.50906 0.45076 0.37168
 C1421 C 0.48798 0.47064 0.39055
 H1422 H 0.52882 0.43161 0.37770
 H1423 H 0.45254 0.51313 0.38265
 H1424 H 0.46923 0.50613 0.32920
 N1425 N 0.48729 0.51496 0.14694
 N1426 N 0.49457 0.51805 0.17529
 C1427 C 0.52342 0.53712 0.17795
 C1428 C 0.53471 0.54731 0.14998
 C1429 C 0.51124 0.53210 0.13099
 H1430 H 0.55796 0.56139 0.14419
 H1431 H 0.46651 0.50090 0.13877
 H1432 H 0.48050 0.50634 0.19243
 N1433 N -0.01387 1.00811 0.63076
 N1434 N -0.00166 1.00797 0.65974
 C1435 C 0.02199 1.03307 0.66248
 C1436 C 0.02458 1.05031 0.63518
 C1437 C 0.00238 1.03308 0.61578
 H1438 H 0.04242 1.07053 0.62947
 H1439 H -0.03123 0.99039 0.62226
 H1440 H -0.01068 0.99131 0.67620
 N1441 N 0.02066 0.48883 0.63165
 N1442 N 0.01203 0.48543 0.65995
 C1443 C -0.01672 0.46597 0.66231
 C1444 C -0.02664 0.45618 0.63414
 C1445 C -0.00242 0.47168 0.61534
 H1446 H -0.04966 0.44219 0.62804
 H1447 H 0.04150 0.50334 0.62375
 H1448 H 0.02499 0.49737 0.67729
 N1449 N 0.52076 -0.02136 0.13496
 N1450 N 0.51166 -0.02436 0.16318
 C1451 C 0.48091 -0.04078 0.16531
 C1452 C 0.47019 -0.04911 0.13688
 C1453 C 0.49614 -0.03583 0.11829
 H1454 H 0.44583 -0.06059 0.13050
 H1455 H 0.54316 -0.00898 0.12734
 H1456 H 0.52574 -0.01405 0.18068
 N1457 N 0.43199 0.38754 0.02526
 N1458 N 0.40784 0.36403 0.02773
 C1459 C 0.37785 0.37589 0.01512
 C1460 C 0.38377 0.40840 0.00329
 C1461 C 0.41842 0.41482 0.01060
 H1462 H 0.36487 0.42594 -0.00677
 H1463 H 0.45715 0.38520 0.03423
 H1464 H 0.41205 0.34051 0.03844
 N1465 N -0.12919 0.93168 0.46077
 N1466 N -0.15644 0.90963 0.46677
 C1467 C -0.15464 0.90058 0.49568
 C1468 C -0.12609 0.91672 0.50863
 C1469 C -0.11136 0.93635 0.48608
 H1470 H -0.11836 0.91606 0.53171
 H1471 H -0.12505 0.94365 0.44026
 H1472 H -0.17380 0.90119 0.45073
 N1473 N -0.13869 0.05871 0.96236
 N1474 N -0.16254 0.08353 0.96013
 C1475 C -0.16248 0.10240 0.98502
 C1476 C -0.13729 0.08863 1.00445
 C1477 C -0.12256 0.06087 0.98879
 H1478 H -0.12921 0.09871 1.02560
 H1479 H -0.13301 0.04098 0.94555
 H1480 H -0.17785 0.08813 0.94132
 N1481 N 0.39199 0.60271 0.54948
 N1482 N 0.36490 0.62336 0.54355
 C1483 C 0.36085 0.62515 0.51388
 C1484 C 0.38678 0.60479 0.50029
 C1485 C 0.40575 0.59063 0.52374
 H1486 H 0.38940 0.59872 0.47691
 H1487 H 0.39964 0.59565 0.57093
 H1488 H 0.34887 0.63513 0.55969
 N1489 N 0.11931 0.58337 0.45718
 N1490 N 0.14453 0.60487 0.46312
 C1491 C 0.14606 0.60913 0.49277
 C1492 C 0.12033 0.58943 0.50630
 C1493 C 0.10415 0.57328 0.48287
 H1494 H 0.11532 0.58594 0.52982
 H1495 H 0.11324 0.57518 0.43581
 H1496 H 0.16045 0.61616 0.44697
 N1497 N 0.61572 0.08310 -0.03834
 N1498 N 0.63954 0.10625 -0.03318
 C1499 C 0.64075 0.11191 -0.00374
 C1500 C 0.61626 0.09132 0.01057
 C1501 C 0.60116 0.07317 -0.01233
 H1502 H 0.61138 0.08875 0.03420
 H1503 H 0.61020 0.07375 -0.05946
 H1504 H 0.65472 0.11779 -0.04970
 N1505 N 0.57841 0.89442 0.50550
 N1506 N 0.60160 0.86913 0.50139
 C1507 C 0.63421 0.88176 0.50245
 C1508 C 0.63153 0.91686 0.50781
 C1509 C 0.59558 0.92373 0.50948
 H1510 H 0.65243 0.93516 0.50751
 H1511 H 0.55122 0.89185 0.50411
 H1512 H 0.59498 0.84392 0.49670
 N1513 N 0.13397 0.41586 1.02234
 N1514 N 0.15968 0.39361 1.01625
 C1515 C 0.16525 0.39263 0.98664
 C1516 C 0.14134 0.41546 0.97313
 C1517 C 0.12218 0.43002 0.99685
 H1518 H 0.13981 0.42224 0.94983
 H1519 H 0.12542 0.42194 1.04385
 H1520 H 0.17372 0.37982 1.03237
 N1521 N 0.07934 0.32480 0.42994
 N1522 N 0.08490 0.30479 0.40669
 C1523 C 0.05734 0.30854 0.38823
 C1524 C 0.03321 0.33159 0.40037
 C1525 C 0.04807 0.34119 0.42668
 H1526 H 0.00885 0.34122 0.39090
 H1527 H 0.09701 0.32757 0.44732
 H1528 H 0.10702 0.28872 0.40393
 N1529 N 0.59024 -0.17585 -0.06829
 N1530 N 0.59436 -0.19921 -0.08930
 C1531 C 0.56396 -0.20112 -0.10423
 C1532 C 0.53964 -0.17811 -0.09237
 C1533 C 0.55721 -0.16279 -0.06969
 H1534 H 0.51300 -0.17274 -0.09954
 H1535 H 0.60986 -0.16884 -0.05361
 H1536 H 0.61736 -0.21382 -0.09285
 N1537 N -0.09082 -0.18542 1.05262
 N1538 N -0.09525 -0.20762 1.07461
 C1539 C -0.06798 -0.20540 1.09345
 C1540 C -0.04537 -0.18107 1.08274
 C1541 C -0.06063 -0.16906 1.05709
 H1542 H -0.02172 -0.17185 1.09277
 H1543 H -0.10857 -0.18115 1.03537
 H1544 H -0.11666 -0.22371 1.07647
 N1545 N 0.40739 0.37372 0.60954
 N1546 N 0.40327 0.35306 0.63254
 C1547 C 0.43413 0.33648 0.63762
 C1548 C 0.45895 0.34739 0.61733
 C1549 C 0.44077 0.37020 0.59967
 H1550 H 0.48555 0.33763 0.61391
 H1551 H 0.38745 0.38927 0.60051
 H1552 H 0.37933 0.34935 0.64348
 N1553 N 0.59558 1.18223 0.56374
 N1554 N 0.59823 1.20270 0.58697
 C1555 C 0.56656 1.20530 0.60073
 C1556 C 0.54296 1.18618 0.58521
 C1557 C 0.56221 1.17181 0.56230
 H1558 H 0.51604 1.18068 0.59097
 H1559 H 0.61663 1.17432 0.55016
 H1560 H 0.62164 1.21368 0.59345
 N1561 N 0.10189 0.67464 1.06554
 N1562 N 0.10313 0.69406 1.09149
 C1563 C 0.07023 0.69606 1.10319
 C1564 C 0.04789 0.67857 1.08483
 C1565 C 0.06842 0.66547 1.06204
 H1566 H 0.02041 0.67335 1.08834
 H1567 H 0.12373 0.66657 1.05296
 H1568 H 0.12606 0.70455 1.09955
 N1569 N 0.43814 0.69527 -0.03723
 N1570 N 0.43508 0.71567 -0.06257
 C1571 C 0.42588 0.69547 -0.08534
 C1572 C 0.42252 0.66228 -0.07501
 C1573 C 0.43149 0.66299 -0.04528
 H1574 H 0.42182 0.63951 -0.08867
 H1575 H 0.45075 0.70261 -0.01785
 H1576 H 0.44457 0.74051 -0.06434
 N1577 N -0.09658 1.17752 0.42669
 N1578 N -0.10131 1.19728 0.40105
 C1579 C -0.06998 1.19844 0.38666
 C1580 C -0.04517 1.17985 0.40285
 C1581 C -0.06265 1.16719 0.42730
 H1582 H -0.01816 1.17378 0.39689
 H1583 H -0.11666 1.17016 0.44117
 H1584 H -0.12516 1.20909 0.39526
 N1585 N 0.75248 0.77158 0.88570
 N1586 N 0.75499 0.76129 0.91522
 C1587 C 0.78305 0.73949 0.91788
 C1588 C 0.79948 0.73626 0.89015
 C1589 C 0.77888 0.75603 0.87061
 H1590 H 0.82166 0.71962 0.88439
 H1591 H 0.73246 0.78738 0.87710
 H1592 H 0.73802 0.77035 0.93193
 N1593 N 0.26187 0.28149 0.38209
 N1594 N 0.26211 0.27188 0.41181
 C1595 C 0.28788 0.24785 0.41559
 C1596 C 0.30527 0.24236 0.38853
 C1597 C 0.28726 0.26311 0.36806
 H1598 H 0.32548 0.22314 0.38370
 H1599 H 0.24327 0.29819 0.37253
 H1600 H 0.24483 0.28212 0.42780
 N1601 N 0.74107 0.22764 0.38694
 N1602 N 0.73866 0.23667 0.41518
 C1603 C 0.71098 0.25865 0.41882
 C1604 C 0.69489 0.26354 0.39156
 C1605 C 0.71507 0.24369 0.37188
 H1606 H 0.67305 0.28076 0.38639
 H1607 H 0.76074 0.21142 0.37815
 H1608 H 0.75620 0.22823 0.43150
 N1609 N 0.23844 0.71309 0.89309
 N1610 N 0.23832 0.72436 0.92233
 C1611 C 0.21288 0.74894 0.92550
 C1612 C 0.19581 0.75328 0.89829
 C1613 C 0.21337 0.73095 0.87849
 H1614 H 0.17537 0.77202 0.89295
 H1615 H 0.25638 0.69511 0.88422
 H1616 H 0.25495 0.71414 0.93859
 N1617 N 0.33109 0.73407 0.12370
 N1618 N 0.33591 0.74624 0.09492
 C1619 C 0.30559 0.76160 0.08632
 C1620 C 0.28075 0.75919 0.10937
 C1621 C 0.29814 0.74247 0.13261
 H1622 H 0.25521 0.77195 0.11050
 H1623 H 0.35137 0.72465 0.13717
 H1624 H 0.35934 0.74348 0.08281
 N1625 N 0.75996 0.23560 0.61664
 N1626 N 0.76080 0.24544 0.58856
 C1627 C 0.78117 0.27314 0.58576
 C1628 C 0.79441 0.28096 0.61354
 C1629 C 0.77982 0.25666 0.63255
 H1630 H 0.81028 0.30250 0.61939
 H1631 H 0.74534 0.21520 0.62474
 H1632 H 0.74696 0.23358 0.57170
 N1633 N 0.21143 0.28583 0.60544
 N1634 N 0.21037 0.27670 0.57731
 C1635 C 0.19535 0.24588 0.57555
 C1636 C 0.18584 0.23505 0.60378
 C1637 C 0.19711 0.26098 0.62211
 H1638 H 0.17643 0.21014 0.61030
 H1639 H 0.22371 0.30770 0.61309
 H1640 H 0.22170 0.29044 0.55985
 N1641 N 0.73848 0.76831 0.11805
 N1642 N 0.73496 0.75955 0.08996
 C1643 C 0.71482 0.73159 0.08830
 C1644 C 0.70462 0.72243 0.11695
 C1645 C 0.72066 0.74628 0.13516
 H1646 H 0.68980 0.70035 0.12372
 H1647 H 0.75339 0.78874 0.12526
 H1648 H 0.74704 0.77218 0.07223
 N1649 N 0.17152 0.62644 0.28656
 N1650 N 0.15057 0.60098 0.28054
 C1651 C 0.14716 0.59861 0.25086
 C1652 C 0.16689 0.62418 0.23735
 C1653 C 0.18219 0.64108 0.26091
 H1654 H 0.17083 0.62877 0.21383
 H1655 H 0.17893 0.63311 0.30802
 H1656 H 0.13890 0.58558 0.29671
 N1657 N 0.66795 0.13616 0.79149
 N1658 N 0.64543 0.11182 0.78613
 C1659 C 0.64037 0.11006 0.75661
 C1660 C 0.66068 0.13471 0.74252
 C1661 C 0.67802 0.15052 0.76554
 H1662 H 0.66377 0.13928 0.71891
 H1663 H 0.67685 0.14220 0.81267
 H1664 H 0.63397 0.09663 0.80256
 N1665 N 0.82095 0.12695 0.20624
 N1666 N 0.84486 0.09993 0.21065
 C1667 C 0.85437 0.10007 0.23944
 C1668 C 0.83677 0.12740 0.25386
 C1669 C 0.81560 0.14303 0.23238
 H1670 H 0.83702 0.13341 0.27731
 H1671 H 0.80795 0.13188 0.18628
 H1672 H 0.85371 0.08341 0.19385
 N1673 N 0.30290 0.58317 0.72891
 N1674 N 0.32653 0.55683 0.73625
 C1675 C 0.33926 0.56329 0.76356
 C1676 C 0.32366 0.59384 0.77408
 C1677 C 0.30113 0.60517 0.75180
 H1678 H 0.32756 0.60614 0.79525
 H1679 H 0.28882 0.58467 0.70912
 H1680 H 0.33387 0.53728 0.72156
 N1681 N 0.36294 0.32628 0.71437
 N1682 N 0.38823 0.34878 0.71369
 C1683 C 0.38019 0.37463 0.73267
 C1684 C 0.34827 0.36728 0.74674
 C1685 C 0.33825 0.33652 0.73416
 H1686 H 0.33350 0.38277 0.76260
 H1687 H 0.36266 0.30414 0.70143
 H1688 H 0.41058 0.34596 0.70031
 N1689 N 0.83337 0.86731 0.29256
 N1690 N 0.85392 0.89559 0.28664
 C1691 C 0.86079 0.89618 0.25721
 C1692 C 0.84459 0.86821 0.24389
 C1693 C 0.82735 0.85119 0.26671
 H1694 H 0.84316 0.86235 0.22047
 H1695 H 0.82285 0.86147 0.31345
 H1696 H 0.86254 0.91236 0.30287
 N1697 N 0.66209 0.87148 0.70894
 N1698 N 0.63997 0.89765 0.71282
 C1699 C 0.63534 0.90271 0.74213
 C1700 C 0.65537 0.87838 0.75775
 C1701 C 0.67232 0.85927 0.73570
 H1702 H 0.65895 0.87647 0.78154
 H1703 H 0.67100 0.86303 0.68812
 H1704 H 0.62871 0.91201 0.69556
 N1705 N 0.13552 0.33170 0.24053
 N1706 N 0.11127 0.35606 0.24459
 C1707 C 0.12679 0.38676 0.24482
 C1708 C 0.16277 0.38160 0.24058
 C1709 C 0.16706 0.34624 0.23804
 H1710 H 0.18309 0.40043 0.24190
 H1711 H 0.13066 0.30546 0.24087
 H1712 H 0.08468 0.35147 0.24840
 N1713 N 0.13363 0.26602 0.86678
 N1714 N 0.11572 0.27448 0.89076
 C1715 C 0.09132 0.29836 0.88341
 C1716 C 0.09544 0.30717 0.85348
 C1717 C 0.12264 0.28558 0.84386
 H1718 H 0.07785 0.32260 0.83986
 H1719 H 0.15033 0.24457 0.86563
 H1720 H 0.11732 0.26090 0.91080
 N1721 N 0.57803 0.83575 0.32426
 N1722 N 0.55811 0.84205 0.34792
 C1723 C 0.56066 0.81485 0.36648
 C1724 C 0.58296 0.79029 0.35400
 C1725 C 0.59312 0.80437 0.32733
 H1726 H 0.59145 0.76583 0.36322
 H1727 H 0.58141 0.85286 0.30660
 H1728 H 0.54267 0.86431 0.35077
 N1729 N 0.56973 0.15355 0.18236
 N1730 N 0.55321 0.15001 0.15689
 C1731 C 0.54630 0.18147 0.14538
 C1732 C 0.55800 0.20581 0.16495
 C1733 C 0.57339 0.18724 0.18760
 H1734 H 0.55875 0.23330 0.16204
 H1735 H 0.58088 0.13321 0.19447
 H1736 H 0.54901 0.12635 0.14699
 N1737 N 0.05781 0.65714 0.68809
 N1738 N 0.04005 0.65522 0.66303
 C1739 C 0.04420 0.68461 0.64753
 C1740 C 0.06494 0.70606 0.66367
 C1741 C 0.07312 0.68787 0.68901
 H1742 H 0.07504 0.73067 0.65710
 H1743 H 0.06051 0.63720 0.70353
 H1744 H 0.02578 0.63397 0.65677
 N1745 N 0.92127 0.85179 0.67982
 N1746 N 0.94168 0.85526 0.65406
 C1747 C 0.94672 0.82367 0.64221
 C1748 C 0.93031 0.79998 0.66041
 C1749 C 0.91463 0.81828 0.68315
 H1750 H 0.92735 0.77282 0.65698
 H1751 H 0.91066 0.87211 0.69230
 H1752 H 0.95018 0.87873 0.64589
 N1753 N 0.42671 0.34199 0.17272
 N1754 N 0.44707 0.34581 0.14902
 C1755 C 0.44493 0.31758 0.13189
 C1756 C 0.42232 0.29502 0.14539
 C1757 C 0.41181 0.31115 0.17117
 H1758 H 0.41431 0.27018 0.13775
 H1759 H 0.42341 0.36009 0.18961
 H1760 H 0.46285 0.36696 0.14543
 N1761 N 0.43229 0.66954 0.32232
 N1762 N 0.45151 0.66497 0.34637
 C1763 C 0.44707 0.69270 0.36401
 C1764 C 0.42444 0.71593 0.35034
 C1765 C 0.41573 0.70035 0.32413
 H1766 H 0.41439 0.74025 0.35870
 H1767 H 0.43009 0.65151 0.30539
 H1768 H 0.46744 0.64327 0.35021
 N1769 N 0.93003 0.17259 0.82088
 N1770 N 0.94872 0.16730 0.84511
 C1771 C 0.94522 0.19530 0.86249
 C1772 C 0.92395 0.21941 0.84865
 C1773 C 0.91488 0.20408 0.82252
 H1774 H 0.91459 0.24394 0.85713
 H1775 H 0.92694 0.15451 0.80411
 H1776 H 0.96348 0.14494 0.84937
 N1777 N 0.53840 1.10842 0.63913
 N1778 N 0.55436 1.10883 0.66683
 C1779 C 0.56429 1.07633 0.67392
 C1780 C 0.55495 1.05469 0.65077
 C1781 C 0.53943 1.07591 0.62931
 H1782 H 0.56069 1.02748 0.64884
 H1783 H 0.52960 1.13018 0.62756
 H1784 H 0.55665 1.13088 0.67965
 N1785 N 0.04005 0.59510 1.13662
 N1786 N 0.05388 0.59416 1.16343
 C1787 C 0.06993 0.56335 1.16772
 C1788 C 0.06614 0.54374 1.14228
 C1789 C 0.04717 0.56502 1.12298
 H1790 H 0.07700 0.51833 1.13794
 H1791 H 0.02699 0.61650 1.12755
 H1792 H 0.05251 0.61453 1.17842
 N1793 N -0.04650 -0.09926 1.13582
 N1794 N -0.06095 -0.09960 1.16427
 C1795 C -0.07166 -0.06727 1.17112
 C1796 C -0.06431 -0.04572 1.14703
 C1797 C -0.04916 -0.06701 1.12533
 H1798 H -0.07051 -0.01860 1.14499
 H1799 H -0.03684 -0.12090 1.12455
 H1800 H -0.06119 -0.12136 1.17786
 N1801 N 0.50561 0.48461 0.66372
 N1802 N 0.49197 0.47993 0.69226
 C1803 C 0.47029 0.45296 0.69171
 C1804 C 0.47094 0.43941 0.66292
 C1805 C 0.49282 0.46018 0.64624
 H1806 H 0.45452 0.41973 0.65408
 H1807 H 0.52050 0.50542 0.65694
 H1808 H 0.49755 0.49585 0.71006
 N1809 N 0.45800 0.58743 -0.13375
 N1810 N 0.44231 0.58276 -0.15948
 C1811 C 0.43314 0.54964 -0.16152
 C1812 C 0.44335 0.53257 -0.13588
 C1813 C 0.45875 0.55751 -0.11870
 H1814 H 0.43837 0.50624 -0.12982
 H1815 H 0.46663 0.61105 -0.12623
 H1816 H 0.43745 0.60215 -0.17510
 N1817 N -0.03283 1.09648 0.34852
 N1818 N -0.04745 1.09547 0.32202
 C1819 C -0.06300 1.06503 0.31869
 C1820 C -0.05802 1.04578 0.34440
 C1821 C -0.03894 1.06683 0.36289
 H1822 H -0.06836 1.02082 0.34953
 H1823 H -0.02005 1.11769 0.35694
 H1824 H -0.04708 1.11561 0.30665
 N1825 N 0.00804 0.41861 0.34608
 N1826 N 0.02153 0.41785 0.31891
 C1827 C 0.04416 0.44370 0.31569
 C1828 C 0.04509 0.46178 0.34219
 C1829 C 0.02198 0.44475 0.36101
 H1830 H 0.06215 0.48255 0.34770
 H1831 H -0.00928 0.40055 0.35453
 H1832 H 0.01615 0.39913 0.30319
 N1833 N 0.51869 -0.08454 -0.15114
 N1834 N 0.53219 -0.08319 -0.17826
 C1835 C 0.55107 -0.05454 -0.18103
 C1836 C 0.54957 -0.03681 -0.15440
 C1837 C 0.52899 -0.05697 -0.13593
 H1838 H 0.56339 -0.01389 -0.14868
 H1839 H 0.50388 -0.10476 -0.14296
 H1840 H 0.52921 -0.10212 -0.19431
 N1841 N 0.60585 0.66271 -0.02743
 N1842 N 0.63758 0.67847 -0.02196
 C1843 C 0.64388 0.67706 0.00759
 C1844 C 0.61578 0.66088 0.02151
 C1845 C 0.59313 0.65137 -0.00133
 H1846 H 0.61402 0.65345 0.04468
 H1847 H 0.59608 0.65775 -0.04854
 H1848 H 0.65318 0.68930 -0.03856
 N1849 N 0.10398 1.16423 0.45948
 N1850 N 0.13243 1.18148 0.46550
 C1851 C 0.13864 1.17924 0.49491
 C1852 C 0.11285 1.15984 0.50826
 C1853 C 0.09161 1.15048 0.48489
 H1854 H 0.11116 1.15180 0.53127
 H1855 H 0.09408 1.16098 0.43813
 H1856 H 0.14758 1.19405 0.44955
 N1857 N 0.09910 -0.17052 1.03376
 N1858 N 0.12704 -0.19048 1.02869
 C1859 C 0.13790 -0.18625 1.00030
 C1860 C 0.11565 -0.16239 0.98662
 C1861 C 0.09158 -0.15277 1.00882
 H1862 H 0.11816 -0.15170 0.96449
 H1863 H 0.08623 -0.16835 1.05430
 H1864 H 0.13913 -0.20596 1.04481
 N1865 N 0.56893 0.31836 0.49219
 N1866 N 0.59810 0.30042 0.48073
 C1867 C 0.62719 0.31533 0.49087
 C1868 C 0.61686 0.34266 0.50940
 C1869 C 0.58022 0.34411 0.50919
 H1870 H 0.63365 0.36202 0.51830
 H1871 H 0.54324 0.31531 0.48489
 H1872 H 0.59660 0.27960 0.46636
 N1873 N -0.11282 0.34281 0.46755
 N1874 N -0.14090 0.32539 0.47506
 C1875 C -0.14935 0.33175 0.50376
 C1876 C -0.12516 0.35422 0.51510
 C1877 C -0.10264 0.36090 0.49120
 H1878 H -0.12548 0.36602 0.53682
 H1879 H -0.10161 0.34305 0.44627
 H1880 H -0.15464 0.31013 0.46037
 N1881 N 0.39244 -0.16189 -0.03637
 N1882 N 0.36490 -0.18047 -0.02958
 C1883 C 0.35909 -0.17897 0.00002
 C1884 C 0.38423 -0.15855 0.01261
 C1885 C 0.40466 -0.14792 -0.01131
 H1886 H 0.38599 -0.15075 0.03559
 H1887 H 0.40183 -0.15797 -0.05798
 H1888 H 0.35006 -0.19344 -0.04513
 N1889 N 0.39994 1.17813 0.52787
 N1890 N 0.37059 1.19540 0.52180
 C1891 C 0.36190 1.18979 0.49327
 C1892 C 0.38716 1.16802 0.48052
 C1893 C 0.41063 1.16089 0.50343
 H1894 H 0.38678 1.15661 0.45865
 H1895 H 0.41146 1.17703 0.54884
 H1896 H 0.35612 1.20983 0.53736
 N1897 N -0.09198 0.67317 1.02325
 N1898 N -0.12184 0.69010 1.01825
 C1899 C -0.13279 0.68339 0.99048
 C1900 C -0.10828 0.66113 0.97709
 C1901 C -0.08293 0.65498 0.99889
 H1902 H -0.11020 0.64884 0.95567
 H1903 H -0.07881 0.67315 1.04351
 H1904 H -0.13517 0.70508 1.03413
 N1905 N -0.04912 0.62382 0.52315
 N1906 N -0.04398 0.65363 0.53611
 C1907 C -0.01668 0.64992 0.55485
 C1908 C -0.00402 0.61648 0.55372
 C1909 C -0.02518 0.60086 0.53348
 H1910 H 0.01828 0.60519 0.56524
 H1911 H -0.06832 0.61959 0.50726
 H1912 H -0.05914 0.67582 0.53218
 N1913 N 0.44861 0.11719 0.02477
 N1914 N 0.45451 0.14746 0.03664
 C1915 C 0.48091 0.14373 0.05627
 C1916 C 0.49204 0.10985 0.05697
 C1917 C 0.47118 0.09397 0.03671
 H1918 H 0.51399 0.09860 0.06898
 H1919 H 0.43040 0.11294 0.00806
 H1920 H 0.44094 0.17009 0.03095
 N1921 N 0.04361 0.11332 0.97561
 N1922 N 0.03861 0.14505 0.96582
 C1923 C 0.01009 0.14595 0.94824
 C1924 C -0.00340 0.11339 0.94678
 C1925 C 0.01854 0.09359 0.96426
 H1926 H -0.02671 0.10519 0.93553
 H1927 H 0.06360 0.10556 0.99008
 H1928 H 0.05473 0.16536 0.97107
 N1929 N 0.55784 0.61722 0.47319
 N1930 N 0.55140 0.64826 0.46220
 C1931 C 0.52176 0.64743 0.44605
 C1932 C 0.50913 0.61465 0.44663
 C1933 C 0.53243 0.59640 0.46408
 H1934 H 0.48479 0.60575 0.43754
 H1935 H 0.57836 0.61097 0.48763
 H1936 H 0.56682 0.66947 0.46621
 N1937 N 0.45045 0.89577 0.47517
 N1938 N 0.45548 0.86437 0.46469
 C1939 C 0.48470 0.86382 0.44742
 C1940 C 0.49858 0.89619 0.44691
 C1941 C 0.47627 0.91556 0.46462
 H1942 H 0.52270 0.90438 0.43648
 H1943 H 0.43017 0.90315 0.48978
 H1944 H 0.43918 0.84393 0.46956
 N1945 N -0.04424 0.40251 0.94982
 N1946 N -0.04092 0.37088 0.93965
 C1947 C -0.00788 0.36610 0.92906
 C1948 C 0.01024 0.39611 0.93215
 C1949 C -0.01348 0.41820 0.94569
 H1950 H 0.03786 0.40036 0.92813
 H1951 H -0.06671 0.41252 0.96047
 H1952 H -0.06070 0.35289 0.94104
 N1953 N 0.55964 0.38328 0.02184
 N1954 N 0.55193 0.35213 0.03118
 C1955 C 0.53341 0.35485 0.05683
 C1956 C 0.53052 0.38912 0.06447
 C1957 C 0.54627 0.40629 0.04140
 H1958 H 0.51525 0.40084 0.08225
 H1959 H 0.57064 0.38865 0.00102
 H1960 H 0.55666 0.32995 0.01874
 N1961 N 0.04817 0.88817 0.52297
 N1962 N 0.04398 0.85810 0.53614
 C1963 C 0.01586 0.86057 0.55458
 C1964 C 0.00169 0.89343 0.55296
 C1965 C 0.02279 0.91003 0.53288
 H1966 H -0.02166 0.90374 0.56394
 H1967 H 0.06772 0.89330 0.50724
 H1968 H 0.06022 0.83656 0.53245
 N1969 N 0.27766 0.25400 0.09653
 N1970 N 0.27765 0.26857 0.06821
 C1971 C 0.30257 0.29262 0.06730
 C1972 C 0.31931 0.29313 0.09481
 C1973 C 0.30268 0.26901 0.11240
 H1974 H 0.33806 0.31147 0.10242
 H1975 H 0.25868 0.23740 0.10464
 H1976 H 0.26048 0.26167 0.05146
 N1977 N 0.85090 0.78980 0.60604
 N1978 N 0.84975 0.80510 0.57978
 C1979 C 0.81706 0.81826 0.57558
 C1980 C 0.79652 0.81102 0.60023
 C1981 C 0.81906 0.79318 0.61913
 H1982 H 0.76959 0.81923 0.60451
 H1983 H 0.87352 0.77853 0.61521
 H1984 H 0.87119 0.80675 0.56522
 N1985 N 0.14849 0.70751 0.61185
 N1986 N 0.14974 0.69667 0.58409
 C1987 C 0.18048 0.67957 0.57940
 C1988 C 0.19961 0.67926 0.60551
 C1989 C 0.17819 0.69714 0.62561
 H1990 H 0.22493 0.66697 0.60952
 H1991 H 0.12724 0.72111 0.62129
 H1992 H 0.12975 0.70095 0.56868
 N1993 N 0.63480 0.21724 0.11011
 N1994 N 0.63568 0.20190 0.08219
 C1995 C 0.66948 0.19345 0.07544
 C1996 C 0.69064 0.20326 0.09889
 C1997 C 0.66784 0.21723 0.12034
 H1998 H 0.71852 0.19807 0.10129
 H1999 H 0.61194 0.22438 0.12174
 H2000 H 0.61348 0.19835 0.06924
 N2001 N 0.83622 0.24002 0.90294
 N2002 N 0.83462 0.22738 0.93027
 C2003 C 0.80507 0.20931 0.93350
 C2004 C 0.78729 0.21017 0.90663
 C2005 C 0.80807 0.22983 0.88772
 H2006 H 0.76410 0.19621 0.90096
 H2007 H 0.85721 0.25395 0.89453
 H2008 H 0.85429 0.22991 0.94607
 N2009 N 0.34025 0.73001 0.39961
 N2010 N 0.34128 0.71598 0.42637
 C2011 C 0.31312 0.69606 0.43013
 C2012 C 0.29320 0.69752 0.40439
 C2013 C 0.31159 0.71919 0.38547
 H2014 H 0.26968 0.68362 0.39963
 H2015 H 0.35950 0.74597 0.39099
 H2016 H 0.36116 0.71996 0.44171
 N2017 N 0.66573 0.76204 0.40382
 N2018 N 0.66356 0.77615 0.43041
 C2019 C 0.69068 0.79727 0.43373
 C2020 C 0.71112 0.79660 0.40797
 C2021 C 0.69409 0.77411 0.38942
 H2022 H 0.73349 0.81218 0.40268
 H2023 H 0.64713 0.74557 0.39532
 H2024 H 0.64320 0.77205 0.44564
 N2025 N 0.20525 0.25207 0.89726
 N2026 N 0.20305 0.27044 0.92193
 C2027 C 0.21412 0.30237 0.91616
 C2028 C 0.22450 0.30419 0.88662
 C2029 C 0.21801 0.27185 0.87523
 H2030 H 0.23489 0.32610 0.87494
 H2031 H 0.19814 0.22647 0.89568
 H2032 H 0.19457 0.26105 0.94248
 N2033 N 0.91314 0.36300 0.78112
 N2034 N 0.93013 0.39091 0.77356
 C2035 C 0.92435 0.39813 0.74461
 C2036 C 0.90277 0.37335 0.73318
 C2037 C 0.89592 0.35174 0.75724
 H2038 H 0.89142 0.37270 0.71124
 H2039 H 0.91241 0.35269 0.80257
 H2040 H 0.94463 0.40533 0.78837
 N2041 N 0.40196 0.86479 0.28626
 N2042 N 0.41813 0.89545 0.27927
 C2043 C 0.41863 0.89929 0.24935
 C2044 C 0.40314 0.87072 0.23676
 C2045 C 0.39231 0.85026 0.26071
 H2046 H 0.39780 0.86670 0.21347
 H2047 H 0.39639 0.85633 0.30781
 H2048 H 0.42862 0.91156 0.29518
 N2049 N 0.08847 0.84427 0.72105
 N2050 N 0.07393 0.87496 0.72509
 C2051 C 0.07959 0.88486 0.75325
 C2052 C 0.09841 0.85913 0.76795
 C2053 C 0.10387 0.83399 0.74650
 H2054 H 0.10878 0.85970 0.79025
 H2055 H 0.08882 0.83124 0.70082
 H2056 H 0.06098 0.88909 0.70854
 N2057 N 0.56408 0.34878 0.23046
 N2058 N 0.54810 0.37799 0.23793
 C2059 C 0.55644 0.38577 0.26613
 C2060 C 0.57871 0.36023 0.27715
 C2061 C 0.58325 0.33743 0.25364
 H2062 H 0.59267 0.36023 0.29799
 H2063 H 0.56342 0.33802 0.20927
 H2064 H 0.53328 0.39326 0.22335
 N2065 N 0.59101 0.64341 0.29187
 N2066 N 0.57453 0.61465 0.28690
 C2067 C 0.57974 0.60551 0.25829
 C2068 C 0.60023 0.62982 0.24432
 C2069 C 0.60717 0.65321 0.26658
 H2070 H 0.61078 0.62916 0.22190
 H2071 H 0.59220 0.65528 0.31259
 H2072 H 0.56059 0.60122 0.30312
 N2073 N 0.09355 0.13732 0.77868
 N2074 N 0.07548 0.11038 0.77077
 C2075 C 0.08005 0.10456 0.74132
 C2076 C 0.10182 0.12951 0.72998
 C2077 C 0.11013 0.14952 0.75453
 H2078 H 0.11263 0.13108 0.70769
 H2079 H 0.09516 0.14646 0.80039
 H2080 H 0.06133 0.09533 0.78571
 N2081 N 0.42892 0.15430 0.21855
 N2082 N 0.44588 0.12530 0.22501
 C2083 C 0.43856 0.11633 0.25336
 C2084 C 0.41606 0.14110 0.26561
 C2085 C 0.41021 0.16453 0.24259
 H2086 H 0.40286 0.14024 0.28701
 H2087 H 0.42881 0.16580 0.19754
 H2088 H 0.46090 0.11104 0.20969
 N2089 N 0.92527 0.65752 0.71993
 N2090 N 0.94208 0.62814 0.72514
 C2091 C 0.93471 0.61781 0.75308
 C2092 C 0.91228 0.64184 0.76639
 C2093 C 0.90657 0.66645 0.74438
 H2094 H 0.89928 0.63995 0.78782
 H2095 H 0.92526 0.67020 0.69943
 H2096 H 0.95715 0.61470 0.70932
 N2097 N 0.83560 0.69658 0.17520
 N2098 N 0.86417 0.70275 0.15663
 C2099 C 0.88839 0.71870 0.17278
 C2100 C 0.87605 0.72303 0.20170
 C2101 C 0.84253 0.70978 0.20203
 H2102 H 0.88700 0.73949 0.21837
 H2103 H 0.81098 0.68936 0.16773
 H2104 H 0.86463 0.69856 0.13372
 N2105 N 0.33326 0.22222 0.64245
 N2106 N 0.36619 0.22503 0.63359
 C2107 C 0.38715 0.22401 0.65763
 C2108 C 0.36681 0.21815 0.68253
 C2109 C 0.33297 0.21861 0.67213
 H2110 H 0.37442 0.22205 0.70539
 H2111 H 0.31150 0.22669 0.62890
 H2112 H 0.37345 0.23307 0.61227
 N2113 N 0.36719 0.74816 0.77606
 N2114 N 0.39802 0.74312 0.78870
 C2115 C 0.39447 0.72048 0.81126
 C2116 C 0.35971 0.71053 0.81271
 C2117 C 0.34338 0.72896 0.79030
 H2118 H 0.34750 0.69330 0.82838
 H2119 H 0.36257 0.76500 0.75833
 H2120 H 0.42045 0.75640 0.78264
 N2121 N 0.85671 0.29484 0.26813
 N2122 N 0.89011 0.29006 0.28024
 C2123 C 0.88794 0.26556 0.30152
 C2124 C 0.85361 0.25459 0.30322
 C2125 C 0.83527 0.27303 0.28215
 H2126 H 0.84308 0.23404 0.31653
 H2127 H 0.85057 0.31098 0.25025
 H2128 H 0.91210 0.30351 0.27335
 N2129 N 0.13994 0.20103 0.28081
 N2130 N 0.10778 0.20630 0.29149
 C2131 C 0.10717 0.23567 0.30722
 C2132 C 0.14018 0.24945 0.30661
 C2133 C 0.16006 0.22690 0.28973
 H2134 H 0.14831 0.27363 0.31564
 H2135 H 0.14753 0.18064 0.26702
 H2136 H 0.08688 0.19009 0.28779
 N2137 N 0.63753 0.69821 0.77912
 N2138 N 0.60697 0.69941 0.79348
 C2139 C 0.60516 0.72833 0.80984
 C2140 C 0.63567 0.74624 0.80537
 C2141 C 0.65549 0.72632 0.78616
 H2142 H 0.64285 0.77056 0.81471
 H2143 H 0.64594 0.67829 0.76513
 H2144 H 0.58831 0.68031 0.79251
 N2145 N 0.62991 0.30316 0.72170
 N2146 N 0.59990 0.29846 0.70798
 C2147 C 0.60393 0.27111 0.68988
 C2148 C 0.63767 0.25806 0.69201
 C2149 C 0.65314 0.27884 0.71244
 H2150 H 0.64896 0.23542 0.68143
 H2151 H 0.63397 0.32211 0.73754
 H2152 H 0.57725 0.31367 0.71124
 N2153 N 0.12961 0.79404 0.22224
 N2154 N 0.09904 0.78905 0.20943
 C2155 C 0.10229 0.76112 0.19197
 C2156 C 0.13619 0.74784 0.19391
 C2157 C 0.15261 0.76941 0.21302
 H2158 H 0.14741 0.72507 0.18351
 H2159 H 0.13441 0.81383 0.23710
 H2160 H 0.07674 0.80481 0.21244
   
