data_POSCAR
  _audit_creation_date              2014-09-24
  _audit_creation_method            'ToBaCCo'
  _symmetry_space_group_name_H-M    'P1'
  _symmetry_Int_Tables_number       1
  _symmetry_cell_setting            triclinic
  loop_
  _symmetry_equiv_pos_as_xyz
 x,y,z
_cell_length_a 53.4308
_cell_length_b 54.5186
_cell_length_c 51.0019
_cell_angle_alpha 90.993700
_cell_angle_beta 91.990700
_cell_angle_gamma 89.250200
loop_
  _atom_site_label
  _atom_site_type_symbol
  _atom_site_fract_x
  _atom_site_fract_y
  _atom_site_fract_z
N1 N 0.37028 0.31549 0.34302
 N2 N 0.37636 0.33367 0.32802
 C3 C 0.39358 0.32554 0.31104
 C4 C 0.39787 0.30080 0.31543
 C5 C 0.38281 0.29510 0.33583
 H6 H 0.40121 0.33638 0.29572
 H7 H 0.38058 0.27726 0.34437
 Cu8 Cu 0.35914 0.36546 0.33080
 Cu9 Cu 0.34529 0.31953 0.36929
 Cu10 Cu 0.30122 0.36309 0.36059
 N11 N 0.33333 0.39155 0.32769
 N12 N 0.31097 0.39044 0.33793
 C13 C 0.29762 0.41068 0.33099
 C14 C 0.31243 0.42510 0.31590
 C15 C 0.33485 0.41241 0.31425
 H16 H 0.27870 0.41480 0.33669
 H17 H 0.35099 0.41776 0.30360
 N18 N 0.29606 0.33452 0.38273
 N19 N 0.31393 0.31805 0.38667
 C20 C 0.30507 0.29934 0.40019
 C21 C 0.28040 0.30431 0.40541
 C22 C 0.27510 0.32677 0.39396
 H23 H 0.31514 0.28234 0.40391
 H24 H 0.25694 0.33569 0.39205
 H25 H 0.32715 0.34652 0.33645
 H26 H 0.33934 0.36416 0.36559
 N27 N 0.36867 0.78630 -0.19346
 N28 N 0.37566 0.80308 -0.20983
 C29 C 0.39638 0.79511 -0.22183
 C30 C 0.40237 0.77185 -0.21281
 C31 C 0.38416 0.76671 -0.19511
 H32 H 0.40638 0.80551 -0.23590
 H33 H 0.38309 0.75064 -0.18308
 Cu34 Cu 0.35677 0.83366 -0.21372
 Cu35 Cu 0.34221 0.79277 -0.16866
 Cu36 Cu 0.32965 0.85478 -0.15973
 N37 N 0.33447 0.86223 -0.21484
 N38 N 0.32465 0.87104 -0.19329
 C39 C 0.31037 0.89085 -0.19913
 C40 C 0.31096 0.89442 -0.22590
 C41 C 0.32649 0.87593 -0.23528
 H42 H 0.29984 0.90137 -0.18501
 H43 H 0.33159 0.87261 -0.25538
 N44 N 0.32390 0.83041 -0.13281
 N45 N 0.32665 0.80657 -0.13703
 C46 C 0.31923 0.79461 -0.11581
 C47 C 0.31176 0.81185 -0.09737
 C48 C 0.31499 0.83433 -0.10875
 H49 H 0.31975 0.77490 -0.11372
 H50 H 0.31048 0.85219 -0.10049
 H51 H 0.32464 0.82466 -0.18246
 H52 H 0.35651 0.82695 -0.16655
 N53 N 0.87118 0.29174 -0.18858
 N54 N 0.87469 0.31271 -0.20021
 C55 C 0.89548 0.31061 -0.21453
 C56 C 0.90512 0.28696 -0.21164
 C57 C 0.88910 0.27563 -0.19523
 H58 H 0.90296 0.32505 -0.22613
 H59 H 0.89060 0.25713 -0.18799
 Cu60 Cu 0.85087 0.33997 -0.19537
 Cu61 Cu 0.84444 0.28623 -0.16479
 Cu62 Cu 0.81519 0.33850 -0.14239
 N63 N 0.82226 0.36257 -0.19152
 N64 N 0.80841 0.36129 -0.17077
 C65 C 0.78916 0.37719 -0.17305
 C66 C 0.79080 0.38934 -0.19646
 C67 C 0.81230 0.37985 -0.20768
 H68 H 0.77487 0.37941 -0.15866
 H69 H 0.81949 0.38435 -0.22655
 N70 N 0.81481 0.30757 -0.12340
 N71 N 0.82532 0.28733 -0.13258
 C72 C 0.82141 0.26892 -0.11604
 C73 C 0.80756 0.27802 -0.09559
 C74 C 0.80361 0.30260 -0.10086
 H75 H 0.82805 0.25027 -0.11881
 H76 H 0.79311 0.31578 -0.08942
 H77 H 0.82036 0.31555 -0.17289
 H78 H 0.84933 0.32120 -0.15221
 N79 N 0.87211 0.81306 0.33684
 N80 N 0.87343 0.82848 0.31742
 C81 C 0.88780 0.81858 0.29879
 C82 C 0.89647 0.79603 0.30729
 C83 C 0.88632 0.79304 0.33160
 H84 H 0.89155 0.82709 0.28035
 H85 H 0.88797 0.77703 0.34381
 Cu86 Cu 0.85664 0.86025 0.31848
 Cu87 Cu 0.84975 0.81974 0.36569
 Cu88 Cu 0.80151 0.86037 0.34741
 N89 N 0.83378 0.88797 0.31555
 N90 N 0.81127 0.88729 0.32512
 C91 C 0.79829 0.90752 0.31762
 C92 C 0.81394 0.92193 0.30336
 C93 C 0.83635 0.90898 0.30259
 H94 H 0.77920 0.91169 0.32274
 H95 H 0.85293 0.91392 0.29243
 N96 N 0.79977 0.83782 0.37736
 N97 N 0.81833 0.82283 0.38448
 C98 C 0.81200 0.81065 0.40590
 C99 C 0.78842 0.81848 0.41283
 C100 C 0.78118 0.83573 0.39438
 H101 H 0.82381 0.79723 0.41586
 H102 H 0.76385 0.84620 0.39362
 H103 H 0.82666 0.83265 0.33697
 H104 H 0.83766 0.85668 0.36100
 N105 N 0.66605 0.70566 0.32300
 N106 N 0.66188 0.68270 0.31558
 C107 C 0.63815 0.68080 0.30631
 C108 C 0.62689 0.70363 0.30764
 C109 C 0.64506 0.71913 0.31823
 H110 H 0.62995 0.66418 0.29817
 H111 H 0.64310 0.73856 0.32242
 Cu112 Cu 0.68797 0.65688 0.31493
 Cu113 Cu 0.69842 0.71572 0.33927
 Cu114 Cu 0.74565 0.67543 0.33179
 N115 N 0.71750 0.63814 0.30526
 N116 N 0.74027 0.64574 0.31120
 C117 C 0.75694 0.62864 0.30347
 C118 C 0.74379 0.60922 0.29228
 C119 C 0.71881 0.61584 0.29370
 H120 H 0.77697 0.62972 0.30701
 H121 H 0.70278 0.60499 0.28757
 N122 N 0.74598 0.69913 0.36053
 N123 N 0.72754 0.71498 0.36386
 C124 C 0.73171 0.72728 0.38674
 C125 C 0.75382 0.71838 0.39826
 C126 C 0.76241 0.70070 0.38100
 H127 H 0.71897 0.74069 0.39499
 H128 H 0.77866 0.68887 0.38371
 H129 H 0.70666 0.68890 0.30993
 H130 H 0.70211 0.67966 0.34446
 N131 N 0.61738 0.21581 -0.20627
 N132 N 0.61438 0.19733 -0.22294
 C133 C 0.59011 0.19634 -0.23096
 C134 C 0.57736 0.21493 -0.21812
 C135 C 0.59519 0.22700 -0.20276
 H136 H 0.58218 0.18248 -0.24410
 H137 H 0.59219 0.24243 -0.18957
 Cu138 Cu 0.64211 0.17512 -0.23040
 Cu139 Cu 0.64952 0.22272 -0.18888
 Cu140 Cu 0.68342 0.16916 -0.17951
 N141 N 0.66796 0.14979 -0.23018
 N142 N 0.68399 0.14749 -0.21018
 C143 C 0.69870 0.12770 -0.21420
 C144 C 0.69145 0.11700 -0.23801
 C145 C 0.67194 0.13154 -0.24770
 H146 H 0.71309 0.12128 -0.20045
 H147 H 0.66091 0.12867 -0.26565
 N148 N 0.68755 0.19852 -0.15673
 N149 N 0.67612 0.21958 -0.16190
 C150 C 0.68340 0.23651 -0.14388
 C151 C 0.69985 0.22542 -0.12622
 C152 C 0.70212 0.20134 -0.13483
 H153 H 0.67607 0.25507 -0.14282
 H154 H 0.71349 0.18702 -0.12584
 H155 H 0.67485 0.19641 -0.20457
 H156 H 0.64878 0.18607 -0.18413
 N157 N 0.14784 0.70570 -0.21048
 N158 N 0.14995 0.68480 -0.22349
 C159 C 0.13058 0.68263 -0.24092
 C160 C 0.11540 0.70317 -0.23845
 C161 C 0.12691 0.71748 -0.21901
 H162 H 0.12719 0.66680 -0.25355
 H163 H 0.12005 0.73468 -0.21097
 Cu164 Cu 0.17626 0.66122 -0.21473
 Cu165 Cu 0.17085 0.71434 -0.18148
 Cu166 Cu 0.22489 0.67884 -0.17519
 N167 N 0.20766 0.64312 -0.21337
 N168 N 0.22700 0.65034 -0.19870
 C169 C 0.24608 0.63422 -0.20174
 C170 C 0.23802 0.61593 -0.21904
 C171 C 0.21361 0.62214 -0.22601
 H172 H 0.26405 0.63518 -0.19138
 H173 H 0.20103 0.61199 -0.23911
 N174 N 0.21866 0.70843 -0.15333
 N175 N 0.19861 0.72263 -0.15665
 C176 C 0.19952 0.74102 -0.13868
 C177 C 0.22080 0.73785 -0.12297
 C178 C 0.23249 0.71703 -0.13266
 H179 H 0.18505 0.75481 -0.13611
 H180 H 0.24948 0.70852 -0.12482
 H181 H 0.19987 0.69698 -0.20016
 H182 H 0.18683 0.68036 -0.17208
 N183 N 0.09467 0.16722 0.29618
 N184 N 0.10125 0.15631 0.27426
 C185 C 0.08527 0.16317 0.25474
 C186 C 0.06783 0.17930 0.26503
 C187 C 0.07422 0.18134 0.29145
 H188 H 0.08723 0.15804 0.23433
 H189 H 0.06602 0.19375 0.30563
 Cu190 Cu 0.13210 0.13708 0.27196
 Cu191 Cu 0.11637 0.16587 0.32718
 Cu192 Cu 0.16584 0.12748 0.33046
 N193 N 0.15880 0.11196 0.27595
 N194 N 0.17142 0.10785 0.29822
 C195 C 0.18721 0.08867 0.29467
 C196 C 0.18411 0.08026 0.26900
 C197 C 0.16601 0.09543 0.25778
 H198 H 0.19952 0.08102 0.30979
 H199 H 0.15810 0.09410 0.23802
 N200 N 0.16318 0.15608 0.35408
 N201 N 0.14404 0.17140 0.35186
 C202 C 0.14774 0.19068 0.36817
 C203 C 0.17023 0.18715 0.38167
 C204 C 0.17956 0.16490 0.37253
 H205 H 0.13518 0.20632 0.36971
 H206 H 0.19745 0.15649 0.37779
 H207 H 0.15276 0.15127 0.30382
 H208 H 0.13065 0.12605 0.31010
 N209 N 0.61740 0.27233 0.69184
 N210 N 0.60988 0.29272 0.70344
 C211 C 0.58594 0.29016 0.71043
 C212 C 0.57814 0.26699 0.70249
 C213 C 0.59860 0.25616 0.69093
 H214 H 0.57474 0.30434 0.71960
 H215 H 0.59962 0.23807 0.68196
 Cu216 Cu 0.63190 0.32092 0.70631
 Cu217 Cu 0.65068 0.26858 0.67777
 Cu218 Cu 0.68036 0.32336 0.66656
 N219 N 0.65666 0.34676 0.71033
 N220 N 0.67586 0.34757 0.69490
 C221 C 0.68929 0.36776 0.70098
 C222 C 0.67779 0.38027 0.72122
 C223 C 0.65715 0.36644 0.72664
 H224 H 0.70563 0.37338 0.69079
 H225 H 0.64326 0.37066 0.74102
 N226 N 0.68857 0.29239 0.64786
 N227 N 0.67842 0.27130 0.65363
 C228 C 0.68750 0.25352 0.63785
 C229 C 0.70389 0.26395 0.62106
 C230 C 0.70419 0.28864 0.62791
 H231 H 0.68137 0.23469 0.63747
 H232 H 0.71461 0.30284 0.61875
 H233 H 0.66989 0.29929 0.69307
 H234 H 0.64685 0.30369 0.66517
 N235 N 0.65587 0.80109 1.17415
 N236 N 0.65738 0.81664 1.19412
 C237 C 0.64237 0.80900 1.21302
 C238 C 0.63144 0.78727 1.20443
 C239 C 0.64040 0.78281 1.17976
 H240 H 0.63998 0.81823 1.23173
 H241 H 0.63561 0.76767 1.16660
 Cu242 Cu 0.67971 0.84478 1.19331
 Cu243 Cu 0.67289 0.80665 1.14179
 Cu244 Cu 0.72858 0.83680 1.15346
 N245 N 0.70741 0.86776 1.19375
 N246 N 0.72692 0.86383 1.17909
 C247 C 0.74399 0.88130 1.18446
 C248 C 0.73451 0.89731 1.20306
 C249 C 0.71122 0.88823 1.20852
 H250 H 0.76177 0.88253 1.17510
 H251 H 0.69831 0.89567 1.22256
 N252 N 0.72168 0.81625 1.12159
 N253 N 0.69959 0.80630 1.11663
 C254 C 0.69899 0.79628 1.09241
 C255 C 0.72192 0.79972 1.08157
 C256 C 0.73603 0.81233 1.10057
 H257 H 0.68296 0.78725 1.08325
 H258 H 0.75470 0.81935 1.09864
 H259 H 0.70161 0.81372 1.16727
 H260 H 0.69111 0.84075 1.14750
 N261 N 0.12406 0.32729 1.19364
 N262 N 0.12944 0.33394 1.21809
 C263 C 0.11279 0.32384 1.23379
 C264 C 0.09590 0.31060 1.21818
 C265 C 0.10338 0.31343 1.19281
 H266 H 0.11307 0.32575 1.25494
 H267 H 0.09542 0.30473 1.17526
 Cu268 Cu 0.15770 0.35526 1.22680
 Cu269 Cu 0.14637 0.33420 1.16546
 Cu270 Cu 0.20461 0.35609 1.18514
 N271 N 0.18355 0.38026 1.22975
 N272 N 0.20168 0.38095 1.21298
 C273 C 0.21656 0.40013 1.21912
 C274 C 0.20729 0.41199 1.24101
 C275 C 0.18639 0.39885 1.24728
 H276 H 0.23296 0.40496 1.20857
 H277 H 0.17394 0.40274 1.26314
 N278 N 0.19863 0.33763 1.15213
 N279 N 0.17607 0.33084 1.14374
 C280 C 0.17820 0.31653 1.12212
 C281 C 0.20331 0.31380 1.11710
 C282 C 0.21575 0.32752 1.13637
 H283 H 0.16293 0.30658 1.11261
 H284 H 0.23580 0.32872 1.13972
 H285 H 0.17594 0.33093 1.19198
 H286 H 0.16796 0.36284 1.18131
 N287 N 0.12930 0.80460 0.68489
 N288 N 0.13430 0.82252 0.70177
 C289 C 0.11793 0.82184 0.72129
 C290 C 0.10192 0.80242 0.71627
 C291 C 0.10973 0.79188 0.69308
 H292 H 0.11752 0.83466 0.73769
 H293 H 0.10150 0.77634 0.68270
 Cu294 Cu 0.16142 0.84536 0.69645
 Cu295 Cu 0.14777 0.79947 0.65305
 Cu296 Cu 0.18812 0.84537 0.63741
 N297 N 0.18237 0.87219 0.68571
 N298 N 0.19130 0.87273 0.66203
 C299 C 0.20456 0.89331 0.65957
 C300 C 0.20424 0.90618 0.68305
 C301 C 0.19005 0.89230 0.69931
 H302 H 0.21455 0.89809 0.64234
 H303 H 0.18561 0.89658 0.71942
 N304 N 0.18289 0.81601 0.61520
 N305 N 0.16809 0.79805 0.62160
 C306 C 0.17061 0.77936 0.60425
 C307 C 0.18785 0.78592 0.58613
 C308 C 0.19520 0.80927 0.59358
 H309 H 0.16139 0.76189 0.60534
 H310 H 0.20953 0.81992 0.58480
 H311 H 0.18009 0.81821 0.66384
 H312 H 0.15287 0.83669 0.65025
 N313 N 0.38996 0.67694 0.68045
 N314 N 0.39754 0.65396 0.68226
 C315 C 0.42072 0.65310 0.69328
 C316 C 0.42805 0.67682 0.69894
 C317 C 0.40814 0.69157 0.69053
 H318 H 0.43094 0.63639 0.69792
 H319 H 0.40676 0.71134 0.69211
 Cu320 Cu 0.37566 0.62698 0.67357
 Cu321 Cu 0.35661 0.68566 0.66621
 Cu322 Cu 0.32077 0.63726 0.64240
 N323 N 0.34843 0.60409 0.67524
 N324 N 0.32632 0.60862 0.66414
 C325 C 0.31034 0.59107 0.67077
 C326 C 0.32339 0.57468 0.68664
 C327 C 0.34749 0.58335 0.68895
 H328 H 0.29073 0.59045 0.66475
 H329 H 0.36285 0.57586 0.70079
 N330 N 0.31381 0.67121 0.63266
 N331 N 0.32647 0.68995 0.64281
 C332 C 0.31749 0.71073 0.63182
 C333 C 0.29868 0.70450 0.61370
 C334 C 0.29689 0.67935 0.61467
 H335 H 0.32528 0.72876 0.63524
 H336 H 0.28471 0.66777 0.60262
 H337 H 0.33855 0.65342 0.67364
 H338 H 0.35596 0.65525 0.64256
 N339 N 0.36141 0.17724 1.17758
 N340 N 0.36565 0.16387 1.19852
 C341 C 0.38501 0.17341 1.21278
 C342 C 0.39297 0.19400 1.20014
 C343 C 0.37765 0.19587 1.17791
 H344 H 0.39177 0.16679 1.23164
 H345 H 0.37771 0.21019 1.16348
 Cu346 Cu 0.34383 0.13675 1.20608
 Cu347 Cu 0.33413 0.17033 1.15236
 Cu348 Cu 0.28518 0.14052 1.18022
 N349 N 0.31833 0.11350 1.21502
 N350 N 0.29554 0.11469 1.20446
 C351 C 0.28185 0.09644 1.21384
 C352 C 0.29688 0.08324 1.23129
 C353 C 0.31988 0.09458 1.23163
 H354 H 0.26241 0.09311 1.20845
 H355 H 0.33657 0.08924 1.24283
 N356 N 0.28097 0.16062 1.14848
 N357 N 0.30003 0.17047 1.13687
 C358 C 0.29146 0.18274 1.11565
 C359 C 0.26572 0.18081 1.11405
 C360 C 0.25965 0.16666 1.13512
 H361 H 0.30293 0.19360 1.10333
 H362 H 0.24108 0.16152 1.14056
 H363 H 0.31437 0.16530 1.18490
 H364 H 0.31917 0.13688 1.16469
 N365 N 0.87885 0.66842 1.16932
 N366 N 0.87623 0.65038 1.18575
 C367 C 0.89161 0.65379 1.20681
 C368 C 0.90489 0.67494 1.20337
 C369 C 0.89657 0.68376 1.17924
 H370 H 0.89239 0.64221 1.22383
 H371 H 0.90159 0.70089 1.17055
 Cu372 Cu 0.85195 0.62472 1.17946
 Cu373 Cu 0.85618 0.67178 1.13845
 Cu374 Cu 0.79972 0.64256 1.14739
 N375 N 0.82279 0.60403 1.17760
 N376 N 0.80242 0.61086 1.16436
 C377 C 0.78466 0.59391 1.16699
 C378 C 0.79444 0.57563 1.18291
 C379 C 0.81867 0.58263 1.18939
 H380 H 0.76573 0.59536 1.15889
 H381 H 0.83203 0.57322 1.20221
 N382 N 0.80344 0.66955 1.12270
 N383 N 0.82512 0.67968 1.11797
 C384 C 0.82152 0.69623 1.09879
 C385 C 0.79633 0.69659 1.09145
 C386 C 0.78548 0.67952 1.10698
 H387 H 0.83604 0.70742 1.09108
 H388 H 0.76604 0.67422 1.10634
 H389 H 0.83037 0.66147 1.16354
 H390 H 0.83587 0.63874 1.13660
 N391 N 0.88196 0.20171 0.68615
 N392 N 0.88444 0.18511 0.70450
 C393 C 0.90791 0.18548 0.71478
 C394 C 0.92069 0.20361 0.70257
 C395 C 0.90369 0.21383 0.68470
 H396 H 0.91501 0.17374 0.73030
 H397 H 0.90712 0.22828 0.67105
 Cu398 Cu 0.85652 0.16545 0.71442
 Cu399 Cu 0.85125 0.20403 0.66419
 Cu400 Cu 0.81906 0.14901 0.66392
 N401 N 0.83044 0.14173 0.71851
 N402 N 0.81562 0.13526 0.69855
 C403 C 0.80031 0.11752 0.70609
 C404 C 0.80587 0.11275 0.73221
 C405 C 0.82508 0.12844 0.73950
 H406 H 0.78674 0.10829 0.69329
 H407 H 0.83496 0.12955 0.75833
 N408 N 0.81671 0.17230 0.63492
 N409 N 0.82718 0.19413 0.63590
 C410 C 0.82050 0.20628 0.61390
 C411 C 0.80555 0.19105 0.59830
 C412 C 0.80354 0.16973 0.61214
 H413 H 0.82677 0.22442 0.60920
 H414 H 0.79279 0.15375 0.60631
 H415 H 0.82536 0.18151 0.68261
 H416 H 0.85301 0.16724 0.66675
 N417 N 0.27253 0.36694 0.67659
 N418 N 0.29448 0.37514 0.68488
 C419 C 0.29129 0.39355 0.70230
 C420 C 0.26591 0.39710 0.70522
 C421 C 0.25446 0.37995 0.68860
 H422 H 0.30635 0.40357 0.71209
 H423 H 0.23458 0.37762 0.68491
 Cu424 Cu 0.32514 0.36017 0.67348
 Cu425 Cu 0.26960 0.34130 0.64943
 Cu426 Cu 0.32519 0.31440 0.62897
 N427 N 0.35235 0.33652 0.67218
 N428 N 0.35245 0.31812 0.65520
 C429 C 0.37129 0.30248 0.66193
 C430 C 0.38313 0.31156 0.68458
 C431 C 0.37083 0.33325 0.69028
 H432 H 0.37440 0.28472 0.65272
 H433 H 0.37353 0.34466 0.70769
 N434 N 0.29223 0.30637 0.61289
 N435 N 0.27106 0.31554 0.62176
 C436 C 0.25179 0.30560 0.60785
 C437 C 0.26128 0.28967 0.58927
 C438 C 0.28699 0.29059 0.59289
 H439 H 0.23226 0.31002 0.61059
 H440 H 0.30079 0.28023 0.58214
 H441 H 0.30294 0.32360 0.65927
 H442 H 0.30342 0.34659 0.63269
 N443 N 0.31598 0.85624 0.19698
 N444 N 0.33509 0.85529 0.21393
 C445 C 0.33124 0.87142 0.23367
 C446 C 0.30865 0.88332 0.22872
 C447 C 0.29942 0.87330 0.20524
 H448 H 0.34439 0.87497 0.24984
 H449 H 0.28228 0.87837 0.19468
 Cu450 Cu 0.36449 0.83528 0.20700
 Cu451 Cu 0.31505 0.83606 0.16479
 Cu452 Cu 0.35657 0.78658 0.16758
 N453 N 0.39212 0.81282 0.20032
 N454 N 0.38908 0.79434 0.18366
 C455 C 0.41097 0.78221 0.18138
 C456 C 0.42859 0.79363 0.19761
 C457 C 0.41606 0.81289 0.20955
 H458 H 0.41370 0.76599 0.16924
 H459 H 0.42387 0.82608 0.22353
 N460 N 0.32707 0.78761 0.14365
 N461 N 0.31212 0.80697 0.14115
 C462 C 0.29544 0.80267 0.12116
 C463 C 0.30016 0.77942 0.11096
 C464 C 0.32022 0.77044 0.12573
 H465 H 0.28100 0.81544 0.11453
 H466 H 0.32989 0.75310 0.12286
 H467 H 0.33149 0.81001 0.18703
 H468 H 0.35201 0.82314 0.16212
 N469 N 0.77660 0.35349 0.19977
 N470 N 0.79772 0.36394 0.20745
 C471 C 0.79270 0.38399 0.22206
 C472 C 0.76703 0.38626 0.22371
 C473 C 0.75731 0.36648 0.20956
 H474 H 0.80664 0.39670 0.22967
 H475 H 0.73775 0.36276 0.20519
 Cu476 Cu 0.82968 0.35236 0.19516
 Cu477 Cu 0.77632 0.32590 0.17471
 Cu478 Cu 0.82827 0.32577 0.13584
 N479 N 0.85952 0.33746 0.18101
 N480 N 0.85933 0.32843 0.15694
 C481 C 0.88203 0.31871 0.15218
 C482 C 0.89696 0.32135 0.17469
 C483 C 0.88213 0.33341 0.19261
 H484 H 0.88659 0.30868 0.13445
 H485 H 0.88702 0.33789 0.21287
 N486 N 0.79623 0.31104 0.12458
 N487 N 0.77743 0.30873 0.14047
 C488 C 0.76003 0.29419 0.12879
 C489 C 0.76823 0.28748 0.10428
 C490 C 0.79108 0.29859 0.10211
 H491 H 0.74270 0.28900 0.13741
 H492 H 0.80374 0.29647 0.08610
 H493 H 0.81414 0.31673 0.17064
 H494 H 0.80166 0.34610 0.15685
 N495 N 0.80350 0.88012 0.71873
 N496 N 0.82359 0.87916 0.73430
 C497 C 0.82319 0.89816 0.75145
 C498 C 0.80179 0.91186 0.74613
 C499 C 0.78965 0.89991 0.72530
 H500 H 0.83783 0.90221 0.76599
 H501 H 0.77256 0.90569 0.71509
 Cu502 Cu 0.84930 0.85444 0.72938
 Cu503 Cu 0.79872 0.85720 0.68942
 Cu504 Cu 0.84198 0.80952 0.68393
 N505 N 0.86867 0.82434 0.73118
 N506 N 0.86660 0.80696 0.71307
 C507 C 0.88434 0.78964 0.71794
 C508 C 0.89784 0.79659 0.74049
 C509 C 0.88728 0.81856 0.74840
 H510 H 0.88764 0.77365 0.70563
 H511 H 0.89354 0.83017 0.76466
 N512 N 0.81149 0.81241 0.66081
 N513 N 0.79477 0.83029 0.66347
 C514 C 0.77665 0.82779 0.64470
 C515 C 0.78225 0.80755 0.62932
 C516 C 0.80441 0.79812 0.64007
 H517 H 0.76105 0.84036 0.64172
 H518 H 0.81491 0.78247 0.63287
 H519 H 0.81815 0.82855 0.70767
 H520 H 0.83525 0.84659 0.68355
 N521 N 0.70677 0.62391 0.69500
 N522 N 0.68586 0.62658 0.70767
 C523 C 0.68235 0.60655 0.72200
 C524 C 0.70195 0.59030 0.71804
 C525 C 0.71720 0.60186 0.70077
 H526 H 0.66644 0.60388 0.73411
 H527 H 0.73436 0.59469 0.69282
 Cu528 Cu 0.66415 0.65521 0.70378
 Cu529 Cu 0.71800 0.64916 0.67151
 Cu530 Cu 0.68416 0.70389 0.67148
 N531 N 0.64777 0.68710 0.70687
 N532 N 0.65598 0.70628 0.69467
 C533 C 0.64089 0.72569 0.69955
 C534 C 0.62215 0.71819 0.71553
 C535 C 0.62709 0.69360 0.71982
 H536 H 0.64289 0.74369 0.69135
 H537 H 0.61620 0.68128 0.73113
 N538 N 0.71309 0.69789 0.64923
 N539 N 0.72606 0.67710 0.64919
 C540 C 0.74350 0.67814 0.63077
 C541 C 0.74120 0.70055 0.61858
 C542 C 0.72181 0.71260 0.63078
 H543 H 0.75624 0.66333 0.62584
 H544 H 0.71411 0.73045 0.62593
 H545 H 0.70200 0.67676 0.69369
 H546 H 0.68403 0.66636 0.66346
 N547 N 0.67722 0.12182 0.15735
 N548 N 0.66927 0.12463 0.18135
 C549 C 0.67844 0.10609 0.19619
 C550 C 0.69262 0.09079 0.18047
 C551 C 0.69141 0.10130 0.15600
 H552 H 0.67463 0.10362 0.21665
 H553 H 0.70048 0.09468 0.13857
 Cu554 Cu 0.64669 0.15153 0.19072
 Cu555 Cu 0.67001 0.14572 0.13008
 Cu556 Cu 0.62325 0.18782 0.14255
 N557 N 0.61678 0.17188 0.19506
 N558 N 0.60689 0.18483 0.17570
 C559 C 0.58651 0.19700 0.18406
 C560 C 0.58369 0.19166 0.21013
 C561 C 0.60321 0.17571 0.21655
 H562 H 0.57540 0.20986 0.17252
 H563 H 0.60742 0.16778 0.23551
 N564 N 0.64233 0.18804 0.11034
 N565 N 0.66010 0.17178 0.10534
 C566 C 0.67170 0.17842 0.08357
 C567 C 0.66085 0.20005 0.07470
 C568 C 0.64227 0.20557 0.09207
 H569 H 0.68819 0.16943 0.07605
 H570 H 0.63076 0.22202 0.09243
 H571 H 0.65900 0.17517 0.15344
 H572 H 0.63475 0.15139 0.14457
 N573 N 0.19429 0.63881 0.17334
 N574 N 0.17922 0.63903 0.19323
 C575 C 0.18490 0.61956 0.20847
 C576 C 0.20415 0.60640 0.19709
 C577 C 0.20951 0.61903 0.17486
 H578 H 0.17485 0.61446 0.22555
 H579 H 0.22312 0.61383 0.16051
 Cu580 Cu 0.15183 0.66320 0.19490
 Cu581 Cu 0.19276 0.66320 0.14586
 Cu582 Cu 0.14528 0.70653 0.14920
 N583 N 0.12516 0.68820 0.19667
 N584 N 0.12340 0.70508 0.17858
 C585 C 0.10417 0.72029 0.18353
 C586 C 0.09293 0.71264 0.20578
 C587 C 0.10663 0.69210 0.21377
 H588 H 0.09853 0.73566 0.17152
 H589 H 0.10341 0.68103 0.23067
 N590 N 0.16916 0.70535 0.12088
 N591 N 0.18797 0.68948 0.11996
 C592 C 0.20152 0.69422 0.09880
 C593 C 0.19033 0.71374 0.08577
 C594 C 0.16993 0.72027 0.10024
 H595 H 0.21805 0.68409 0.09308
 H596 H 0.15686 0.73514 0.09618
 H597 H 0.17598 0.69013 0.16808
 H598 H 0.15492 0.66955 0.14790
 N599 N 0.20042 0.12667 0.69206
 N600 N 0.18612 0.13351 0.71140
 C601 C 0.18891 0.11732 0.73095
 C602 C 0.20582 0.09936 0.72338
 C603 C 0.21280 0.10586 0.69860
 H604 H 0.17916 0.11833 0.74917
 H605 H 0.22597 0.09629 0.68632
 Cu606 Cu 0.16488 0.16262 0.70850
 Cu607 Cu 0.20265 0.14615 0.66050
 Cu608 Cu 0.15237 0.18641 0.64954
 N609 N 0.14541 0.19281 0.70478
 N610 N 0.13904 0.20115 0.68140
 C611 C 0.12267 0.21998 0.68400
 C612 C 0.11919 0.22397 0.71048
 C613 C 0.13394 0.20650 0.72310
 H614 H 0.11385 0.22986 0.66788
 H615 H 0.13505 0.20316 0.74395
 N616 N 0.17640 0.17719 0.62236
 N617 N 0.19573 0.16229 0.62674
 C618 C 0.20981 0.16146 0.60538
 C619 C 0.19900 0.17676 0.58677
 C620 C 0.17781 0.18640 0.59811
 H621 H 0.22720 0.15126 0.60392
 H622 H 0.16510 0.20006 0.58987
 H623 H 0.18447 0.17923 0.67058
 H624 H 0.16532 0.15175 0.66174
 N625 N 0.32207 0.64836 0.30765
 N626 N 0.33892 0.64821 0.28940
 C627 C 0.33262 0.63115 0.27095
 C628 C 0.31092 0.61988 0.27834
 C629 C 0.30477 0.63124 0.30168
 H630 H 0.34339 0.62667 0.25391
 H631 H 0.28888 0.62738 0.31345
 Cu632 Cu 0.36832 0.66929 0.29288
 Cu633 Cu 0.32328 0.67123 0.33749
 Cu634 Cu 0.38234 0.69337 0.35209
 N635 N 0.39511 0.69342 0.29785
 N636 N 0.39989 0.70292 0.32135
 C637 C 0.41808 0.71954 0.32013
 C638 C 0.42540 0.72049 0.29459
 C639 C 0.41065 0.70355 0.28080
 H640 H 0.42539 0.73022 0.33668
 H641 H 0.41071 0.69950 0.25997
 N642 N 0.35583 0.69361 0.37748
 N643 N 0.33269 0.68687 0.37149
 C644 C 0.31818 0.69245 0.39191
 C645 C 0.33313 0.70312 0.41156
 C646 C 0.35685 0.70344 0.40181
 H647 H 0.29824 0.68938 0.39227
 H648 H 0.37336 0.71151 0.41107
 H649 H 0.35159 0.69499 0.32780
 H650 H 0.36001 0.66351 0.33928
 N651 N 0.30286 0.11217 0.85062
 N652 N 0.31243 0.11483 0.82744
 C653 C 0.30609 0.09552 0.81194
 C654 C 0.29214 0.07979 0.82637
 C655 C 0.29060 0.09077 0.85089
 H656 H 0.31139 0.09299 0.79178
 H657 H 0.28061 0.08417 0.86740
 Cu658 Cu 0.33327 0.14274 0.82042
 Cu659 Cu 0.30555 0.13777 0.87770
 Cu660 Cu 0.31991 0.19462 0.85289
 N661 N 0.35071 0.17286 0.81367
 N662 N 0.34607 0.19318 0.82702
 C663 C 0.35983 0.21143 0.81767
 C664 C 0.37383 0.20185 0.79755
 C665 C 0.36738 0.17747 0.79529
 H666 H 0.35863 0.23044 0.82398
 H667 H 0.37366 0.16437 0.78070
 N668 N 0.30111 0.19059 0.88511
 N669 N 0.29742 0.16901 0.89563
 C670 C 0.28301 0.17212 0.91662
 C671 C 0.27714 0.19673 0.91913
 C672 C 0.28872 0.20791 0.89881
 H673 H 0.27517 0.15734 0.92746
 H674 H 0.28704 0.22701 0.89356
 H675 H 0.30140 0.16133 0.84737
 H676 H 0.33289 0.16167 0.86436
 N677 N 0.80622 0.61060 0.78969
 N678 N 0.81980 0.61329 0.76896
 C679 C 0.81675 0.59368 0.75282
 C680 C 0.80015 0.57799 0.76394
 C681 C 0.79374 0.58932 0.78727
 H682 H 0.82602 0.59097 0.73446
 H683 H 0.78141 0.58231 0.80167
 Cu684 Cu 0.84063 0.64185 0.76538
 Cu685 Cu 0.80672 0.63451 0.81863
 Cu686 Cu 0.84412 0.68571 0.81220
 N687 N 0.86811 0.66483 0.76739
 N688 N 0.86951 0.68207 0.78571
 C689 C 0.89020 0.69539 0.78240
 C690 C 0.90242 0.68582 0.76093
 C691 C 0.88787 0.66646 0.75190
 H692 H 0.89595 0.71079 0.79473
 H693 H 0.89140 0.65437 0.73537
 N694 N 0.82307 0.68081 0.84273
 N695 N 0.80965 0.66090 0.84551
 C696 C 0.79879 0.66212 0.86890
 C697 C 0.80552 0.68383 0.88138
 C698 C 0.82086 0.69535 0.86425
 H699 H 0.78678 0.64825 0.87635
 H700 H 0.83023 0.71265 0.86753
 H701 H 0.81471 0.66445 0.79694
 H702 H 0.84215 0.64833 0.81257
 N703 N 0.79655 0.14582 0.30430
 N704 N 0.81332 0.14787 0.28616
 C705 C 0.80976 0.13006 0.26786
 C706 C 0.79006 0.11581 0.27505
 C707 C 0.78214 0.12618 0.29836
 H708 H 0.82064 0.12769 0.25049
 H709 H 0.76638 0.12054 0.30946
 Cu710 Cu 0.83829 0.17360 0.28739
 Cu711 Cu 0.79298 0.17052 0.33245
 Cu712 Cu 0.83273 0.21999 0.33023
 N713 N 0.85736 0.20362 0.28395
 N714 N 0.85388 0.22215 0.30027
 C715 C 0.86901 0.24055 0.29433
 C716 C 0.88307 0.23319 0.27335
 C717 C 0.87527 0.20955 0.26716
 H718 H 0.87045 0.25766 0.30526
 H719 H 0.88231 0.19755 0.25193
 N720 N 0.80738 0.21716 0.35681
 N721 N 0.79267 0.19803 0.35864
 C722 C 0.77791 0.20176 0.37943
 C723 C 0.78357 0.22445 0.39075
 C724 C 0.80224 0.23355 0.37589
 H725 H 0.76376 0.18926 0.38552
 H726 H 0.81156 0.25089 0.37893
 H727 H 0.80690 0.19773 0.31006
 H728 H 0.82897 0.18184 0.33350
 N729 N 0.68201 0.38078 0.33617
 N730 N 0.66243 0.38560 0.32068
 C731 C 0.66491 0.40784 0.31026
 C732 C 0.68753 0.41723 0.31916
 C733 C 0.69814 0.39958 0.33540
 H734 H 0.65148 0.41640 0.29683
 H735 H 0.71571 0.40070 0.34652
 Cu736 Cu 0.63612 0.36192 0.31427
 Cu737 Cu 0.68328 0.35125 0.35755
 Cu738 Cu 0.62383 0.32754 0.36528
 N739 N 0.60966 0.33792 0.31208
 N740 N 0.60376 0.32538 0.33270
 C741 C 0.58490 0.31011 0.32595
 C742 C 0.57928 0.31286 0.29951
 C743 C 0.59532 0.33063 0.29130
 H744 H 0.57719 0.29678 0.33880
 H745 H 0.59688 0.33728 0.27158
 N746 N 0.65229 0.32144 0.38985
 N747 N 0.67525 0.32909 0.38623
 C748 C 0.69077 0.31943 0.40485
 C749 C 0.67677 0.30500 0.42075
 C750 C 0.65252 0.30680 0.41074
 H751 H 0.71076 0.32235 0.40643
 H752 H 0.63636 0.29725 0.41737
 H753 H 0.65379 0.32968 0.34199
 H754 H 0.64652 0.35827 0.36101
 N755 N 0.70083 0.88279 0.81168
 N756 N 0.67735 0.88555 0.80366
 C757 C 0.67523 0.90462 0.78738
 C758 C 0.69859 0.91466 0.78548
 C759 C 0.71449 0.90054 0.80125
 H760 H 0.65790 0.91098 0.77808
 H761 H 0.73442 0.90286 0.80466
 Cu762 Cu 0.65154 0.86454 0.81552
 Cu763 Cu 0.71116 0.85628 0.83508
 Cu764 Cu 0.66797 0.80925 0.83860
 N765 N 0.62804 0.83818 0.81546
 N766 N 0.63468 0.81596 0.82278
 C767 C 0.61560 0.80063 0.81691
 C768 C 0.59614 0.81423 0.80548
 C769 C 0.60466 0.83793 0.80502
 H770 H 0.61608 0.78106 0.82007
 H771 H 0.59523 0.85355 0.79616
 N772 N 0.70261 0.80689 0.85361
 N773 N 0.71918 0.82448 0.85145
 C774 C 0.74066 0.81784 0.86413
 C775 C 0.73728 0.79530 0.87528
 C776 C 0.71297 0.78888 0.86833
 H777 H 0.75705 0.82920 0.86645
 H778 H 0.70337 0.77265 0.87427
 H779 H 0.68542 0.83456 0.81585
 H780 H 0.67736 0.84445 0.84972
 N781 N 0.18503 0.40537 0.85447
 N782 N 0.16652 0.41031 0.83770
 C783 C 0.17317 0.42880 0.82230
 C784 C 0.19705 0.43584 0.83022
 C785 C 0.20393 0.42074 0.85072
 H786 H 0.16193 0.43585 0.80600
 H787 H 0.22193 0.41998 0.86105
 Cu788 Cu 0.13705 0.39014 0.83616
 Cu789 Cu 0.18488 0.37729 0.87730
 Cu790 Cu 0.13199 0.34066 0.87394
 N791 N 0.11379 0.36435 0.82694
 N792 N 0.11125 0.34509 0.84176
 C793 C 0.09468 0.32974 0.82975
 C794 C 0.08703 0.33990 0.80601
 C795 C 0.09949 0.36179 0.80492
 H796 H 0.08988 0.31191 0.83690
 H797 H 0.09898 0.37450 0.78886
 N798 N 0.16096 0.33466 0.89863
 N799 N 0.18126 0.34826 0.89890
 C800 C 0.19885 0.33826 0.91497
 C801 C 0.18926 0.31757 0.92564
 C802 C 0.16510 0.31574 0.91509
 H803 H 0.21763 0.34508 0.91821
 H804 H 0.15220 0.30096 0.91784
 H805 H 0.16030 0.35576 0.85453
 H806 H 0.14672 0.37531 0.88083
 N807 N 0.20453 0.84143 0.29242
 N808 N 0.18248 0.84094 0.28015
 C809 C 0.17990 0.86073 0.26483
 C810 C 0.20145 0.87440 0.26785
 C811 C 0.21674 0.86160 0.28540
 H812 H 0.16323 0.86525 0.25316
 H813 H 0.23508 0.86683 0.29301
 Cu814 Cu 0.15848 0.81544 0.28674
 Cu815 Cu 0.21491 0.81625 0.31741
 Cu816 Cu 0.16335 0.79323 0.34766
 N817 N 0.13199 0.79615 0.30096
 N818 N 0.13363 0.78845 0.32525
 C819 C 0.11202 0.77783 0.33113
 C820 C 0.09610 0.77867 0.30925
 C821 C 0.10937 0.79030 0.29035
 H822 H 0.10820 0.77017 0.34997
 H823 H 0.10277 0.79487 0.27072
 N824 N 0.19774 0.79063 0.36265
 N825 N 0.21751 0.79867 0.35073
 C826 C 0.23821 0.79380 0.36561
 C827 C 0.23105 0.78213 0.38797
 C828 C 0.20532 0.78033 0.38541
 H829 H 0.25698 0.79879 0.36071
 H830 H 0.19300 0.77228 0.39918
 H831 H 0.18555 0.79043 0.31565
 H832 H 0.18015 0.82201 0.32915
 C833 C 0.25904 1.00379 0.25678
 C834 C 0.23304 1.00282 0.25080
 C835 C 0.22146 0.97999 0.24740
 C836 C 0.23507 0.95795 0.25013
 C837 C 0.26111 0.95889 0.25592
 C838 C 0.27262 0.98172 0.25965
 H839 H 0.29273 0.98227 0.26323
 H840 H 0.20141 0.97944 0.24342
 C841 C 0.27052 0.51695 0.73541
 C842 C 0.25682 0.52937 0.75483
 C843 C 0.24127 0.51591 0.77067
 C844 C 0.23904 0.49048 0.76739
 C845 C 0.25067 0.47855 0.74623
 C846 C 0.26653 0.49195 0.73068
 H847 H 0.27637 0.48274 0.71500
 H848 H 0.23252 0.52498 0.78717
 C849 C 0.77016 -0.00836 0.25947
 C850 C 0.75358 -0.01840 0.24003
 C851 C 0.73797 -0.00256 0.22528
 C852 C 0.73993 0.02308 0.22791
 C853 C 0.75693 0.03313 0.24704
 C854 C 0.77117 0.01719 0.26316
 H855 H 0.78480 0.02474 0.27723
 H856 H 0.72560 -0.01024 0.21005
 C857 C 0.74605 0.45610 0.75374
 C858 C 0.72089 0.45947 0.74503
 C859 C 0.71207 0.48305 0.73906
 C860 C 0.72798 0.50330 0.74044
 C861 C 0.75391 0.49941 0.74564
 C862 C 0.76272 0.47575 0.75224
 H863 H 0.78212 0.47323 0.75866
 H864 H 0.69240 0.48576 0.73381
 C865 C 0.26943 0.49977 0.27592
 C866 C 0.24692 0.49323 0.26225
 C867 C 0.23446 0.51057 0.24629
 C868 C 0.24346 0.53450 0.24425
 C869 C 0.26484 0.54164 0.25937
 C870 C 0.27736 0.52426 0.27518
 H871 H 0.29450 0.52951 0.28570
 H872 H 0.21768 0.50530 0.23511
 C873 C 0.76110 1.03819 0.75981
 C874 C 0.73563 1.03749 0.75150
 C875 C 0.72333 1.01498 0.75010
 C876 C 0.73591 0.99305 0.75650
 C877 C 0.76177 0.99366 0.76350
 C878 C 0.77384 1.01628 0.76581
 H879 H 0.79372 1.01675 0.77081
 H880 H 0.70344 1.01475 0.74514
 C881 C 0.76139 0.51071 0.24040
 C882 C 0.75349 0.52141 0.26410
 C883 C 0.74025 0.50731 0.28155
 C884 C 0.73601 0.48229 0.27657
 C885 C 0.74636 0.47104 0.25414
 C886 C 0.75851 0.48551 0.23610
 H887 H 0.76469 0.47727 0.21788
 H888 H 0.73297 0.51597 0.29906
 C889 C 0.26231 -0.03048 0.75005
 C890 C 0.24549 -0.02270 0.72978
 C891 C 0.23641 0.00154 0.72979
 C892 C 0.24254 0.01791 0.75047
 C893 C 0.25837 0.00978 0.77144
 C894 C 0.26804 -0.01424 0.77100
 H895 H 0.28106 -0.01991 0.78658
 H896 H 0.22341 0.00733 0.71424
 C897 C 0.21974 0.25536 1.04223
 C898 C 0.22898 0.23106 1.04035
 C899 C 0.23387 0.22075 1.01564
 C900 C 0.22902 0.23409 0.99265
 C901 C 0.21836 0.25794 0.99459
 C902 C 0.21347 0.26815 1.01930
 H903 H 0.20698 0.28705 1.02074
 H904 H 0.24133 0.20220 1.01429
 C905 C 0.24495 0.75108 0.51931
 C906 C 0.26699 0.73974 0.52931
 C907 C 0.28595 0.73316 0.51223
 C908 C 0.28381 0.73857 0.48550
 C909 C 0.26246 0.75164 0.47573
 C910 C 0.24290 0.75715 0.49273
 H911 H 0.22613 0.76653 0.48542
 H912 H 0.30262 0.72383 0.51989
 C913 C 0.26881 0.77540 -0.02151
 C914 C 0.24821 0.76180 -0.03153
 C915 C 0.23353 0.74896 -0.01432
 C916 C 0.23923 0.74887 0.01272
 C917 C 0.26100 0.76087 0.02247
 C918 C 0.27519 0.77448 0.00536
 H919 H 0.29154 0.78419 0.01299
 H920 H 0.21675 0.73993 -0.02191
 C921 C 0.23138 0.24885 0.46116
 C922 C 0.21637 0.22772 0.45771
 C923 C 0.21198 0.21293 0.47925
 C924 C 0.21967 0.22037 0.50457
 C925 C 0.23112 0.24334 0.50856
 C926 C 0.23789 0.25689 0.48682
 H927 H 0.24811 0.27376 0.49001
 H928 H 0.20187 0.19592 0.47647
 C929 C 0.76169 0.76337 1.00143
 C930 C 0.77486 0.74174 1.00873
 C931 C 0.78616 0.72727 0.98930
 C932 C 0.78402 0.73332 0.96263
 C933 C 0.77244 0.75585 0.95569
 C934 C 0.76143 0.77051 0.97512
 H935 H 0.75174 0.78732 0.96950
 H936 H 0.79496 0.70998 0.99478
 C937 C 0.73908 0.24421 0.53298
 C938 C 0.75869 0.22966 0.52277
 C939 C 0.76338 0.23030 0.49591
 C940 C 0.74869 0.24484 0.47880
 C941 C 0.72829 0.25848 0.48873
 C942 C 0.72421 0.25844 0.51578
 H943 H 0.70831 0.26857 0.52331
 H944 H 0.77885 0.21960 0.48830
 C945 C 0.75489 0.24794 -0.02404
 C946 C 0.73100 0.24148 -0.03409
 C947 C 0.71228 0.23542 -0.01692
 C948 C 0.71653 0.23728 0.01029
 C949 C 0.74006 0.24537 0.02056
 C950 C 0.75927 0.24977 0.00311
 H951 H 0.77766 0.25511 0.01063
 H952 H 0.69387 0.23047 -0.02478
 C953 C 0.76261 0.77492 0.49325
 C954 C 0.76784 0.74952 0.49084
 C955 C 0.76964 0.73519 0.51343
 C956 C 0.76588 0.74548 0.53842
 C957 C 0.76066 0.77092 0.54078
 C958 C 0.75863 0.78521 0.51814
 H959 H 0.75532 0.80481 0.52005
 H960 H 0.77296 0.71561 0.51136
 C961 C 1.00637 0.24497 0.23729
 C962 C 1.01442 0.26704 0.22660
 C963 C 0.99657 0.28305 0.21537
 C964 C 0.97095 0.27894 0.21783
 C965 C 0.96319 0.25958 0.23371
 C966 C 0.98093 0.24188 0.24204
 H967 H 0.97499 0.22567 0.25202
 H968 H 1.00251 0.29888 0.20474
 C969 C 0.48934 0.23331 0.75128
 C970 C 0.49095 0.24595 0.72743
 C971 C 0.46943 0.25699 0.71622
 C972 C 0.44629 0.25483 0.72800
 C973 C 0.44397 0.23890 0.74929
 C974 C 0.46574 0.22916 0.76145
 H975 H 0.46444 0.21823 0.77888
 H976 H 0.47103 0.26856 0.69929
 C977 C -0.01144 0.26877 0.74785
 C978 C -0.00297 0.25015 0.73045
 C979 C 0.02243 0.24865 0.72464
 C980 C 0.03964 0.26548 0.73553
 C981 C 0.03077 0.28525 0.75105
 C982 C 0.00538 0.28671 0.75714
 H983 H -0.00100 0.30125 0.77015
 H984 H 0.02900 0.23342 0.71268
 C985 C 0.46473 0.25746 0.26404
 C986 C 0.46498 0.23821 0.24512
 C987 C 0.48783 0.22743 0.23819
 C988 C 0.51049 0.23701 0.24818
 C989 C 0.51025 0.25876 0.26359
 C990 C 0.48742 0.26821 0.27239
 H991 H 0.48734 0.28402 0.28556
 H992 H 0.48797 0.21175 0.22482
 C993 C 1.02819 0.73354 0.74111
 C994 C 1.02620 0.75894 0.74694
 C995 C 1.00278 0.76902 0.75286
 C996 C 0.98112 0.75472 0.75164
 C997 C 0.98280 0.72964 0.74433
 C998 C 1.00641 0.71938 0.73923
 H999 H 1.00798 0.69988 0.73499
 H1000 H 1.00116 0.78849 0.75729
 C1001 C 0.54875 0.74270 0.26803
 C1002 C 0.55488 0.75789 0.24703
 C1003 C 0.53559 0.76997 0.23277
 C1004 C 0.51045 0.76748 0.23915
 C1005 C 0.50458 0.75370 0.26120
 C1006 C 0.52370 0.74138 0.27525
 H1007 H 0.51893 0.73030 0.29178
 H1008 H 0.54005 0.78023 0.21553
 C1009 C -0.03368 0.74386 0.27266
 C1010 C -0.03053 0.72578 0.25288
 C1011 C -0.00678 0.72161 0.24273
 C1012 C 0.01420 0.73376 0.25358
 C1013 C 0.01167 0.74864 0.27637
 C1014 C -0.01240 0.75393 0.28533
 H1015 H -0.01455 0.76692 0.30144
 H1016 H -0.00465 0.70904 0.22623
 C1017 C 0.48643 0.74468 0.75933
 C1018 C 0.49665 0.72502 0.74460
 C1019 C 0.52225 0.72487 0.73929
 C1020 C 0.53786 0.74412 0.74786
 C1021 C 0.52761 0.76364 0.76286
 C1022 C 0.50200 0.76382 0.76803
 H1023 H 0.49430 0.77852 0.78000
 H1024 H 0.52982 0.71020 0.72721
 N1025 N 0.42453 0.24780 0.28445
 N1026 N 0.40736 0.25903 0.29839
 C1027 C 0.41261 0.28308 0.30011
 C1028 C 0.43423 0.28744 0.28668
 C1029 C 0.44123 0.26442 0.27705
 H1030 H 0.44396 0.30461 0.28510
 H1031 H 0.42533 0.22885 0.28118
 H1032 H 0.39251 0.25017 0.30688
 N1033 N 0.45018 0.72610 0.78082
 N1034 N 0.42683 0.73404 0.78927
 C1035 C 0.42317 0.75727 0.78119
 C1036 C 0.44381 0.76461 0.76760
 C1037 C 0.46031 0.74472 0.76801
 H1038 H 0.44705 0.78250 0.75959
 H1039 H 0.45868 0.70929 0.78540
 H1040 H 0.41494 0.72362 0.80033
 N1041 N -0.04517 0.24653 0.76947
 N1042 N -0.06693 0.25128 0.77994
 C1043 C -0.07238 0.27534 0.77742
 C1044 C -0.05310 0.28648 0.76463
 C1045 C -0.03628 0.26737 0.75974
 H1046 H -0.05131 0.30567 0.76004
 H1047 H -0.03630 0.22934 0.76979
 H1048 H -0.07755 0.23813 0.78900
 N1049 N -0.07538 0.75974 0.25726
 N1050 N -0.09348 0.77392 0.26620
 C1051 C -0.08900 0.77827 0.29193
 C1052 C -0.06694 0.76644 0.29985
 C1053 C -0.05875 0.75492 0.27708
 H1054 H -0.05728 0.76771 0.31881
 H1055 H -0.07364 0.75501 0.23748
 H1056 H -0.10811 0.78125 0.25456
 N1057 N 0.56249 0.70272 0.28653
 N1058 N 0.58293 0.69243 0.29681
 C1059 C 0.60103 0.70935 0.29889
 C1060 C 0.59176 0.73151 0.28947
 C1061 C 0.56721 0.72636 0.28149
 H1062 H 0.60171 0.74853 0.28773
 H1063 H 0.54586 0.69339 0.28221
 H1064 H 0.58445 0.67399 0.30193
 N1065 N 0.51493 0.23581 0.79258
 N1066 N 0.53833 0.23169 0.80054
 C1067 C 0.55040 0.22016 0.78106
 C1068 C 0.53401 0.21659 0.75980
 C1069 C 0.51176 0.22729 0.76775
 H1070 H 0.53823 0.20888 0.74076
 H1071 H 0.50182 0.24563 0.80344
 H1072 H 0.54599 0.23736 0.81873
 N1073 N 1.05768 0.70150 0.72363
 N1074 N 1.08068 0.69344 0.72910
 C1075 C 1.09079 0.70751 0.74859
 C1076 C 1.07356 0.72524 0.75582
 C1077 C 1.05280 0.72091 0.73946
 H1078 H 1.07540 0.73863 0.77166
 H1079 H 1.04552 0.69359 0.70951
 H1080 H 1.08902 0.67830 0.71992
 N1081 N 1.03355 0.21375 0.21661
 N1082 N 1.04936 0.19613 0.22371
 C1083 C 1.04984 0.19465 0.25005
 C1084 C 1.03324 0.21189 0.26021
 C1085 C 1.02348 0.22365 0.23823
 H1086 H 1.02985 0.21621 0.28057
 H1087 H 1.03012 0.21923 0.19727
 H1088 H 1.06028 0.18604 0.21068
 N1089 N 0.52202 0.23197 0.69530
 N1090 N 0.54516 0.23705 0.68919
 C1091 C 0.55299 0.25650 0.70378
 C1092 C 0.53395 0.26420 0.71995
 C1093 C 0.51473 0.24798 0.71396
 H1094 H 0.53436 0.27877 0.73464
 H1095 H 0.51169 0.21732 0.68734
 H1096 H 0.55538 0.22717 0.67537
 N1097 N 0.59303 0.73952 0.22752
 N1098 N 0.61300 0.74735 0.21576
 C1099 C 0.61365 0.77199 0.21793
 C1100 C 0.59313 0.78029 0.23150
 C1101 C 0.58047 0.75907 0.23716
 H1102 H 0.58721 0.79909 0.23496
 H1103 H 0.58741 0.72124 0.22760
 H1104 H 0.62547 0.73602 0.20570
 N1105 N 1.05482 0.27163 0.25188
 N1106 N 1.07579 0.28400 0.25028
 C1107 C 1.07577 0.29488 0.22681
 C1108 C 1.05383 0.28926 0.21282
 C1109 C 1.04093 0.27452 0.22953
 H1110 H 1.04765 0.29592 0.19378
 H1111 H 1.04961 0.26251 0.26864
 H1112 H 1.08964 0.28517 0.26519
 N1113 N 1.05263 0.79480 0.76147
 N1114 N 1.07257 0.80626 0.75341
 C1115 C 1.08056 0.79479 0.73158
 C1116 C 1.06508 0.77519 0.72552
 C1117 C 1.04771 0.77568 0.74507
 H1118 H 1.06602 0.76257 0.70897
 H1119 H 1.04267 0.80002 0.77797
 H1120 H 1.08033 0.82177 0.76265
 N1121 N 0.48821 0.68142 0.73176
 N1122 N 0.47027 0.66877 0.71954
 C1123 C 0.45140 0.68428 0.71271
 C1124 C 0.45751 0.70779 0.72101
 C1125 C 0.48097 0.70515 0.73318
 H1126 H 0.44660 0.72447 0.71827
 H1127 H 0.50502 0.67381 0.73909
 H1128 H 0.47112 0.64987 0.71593
 N1129 N 0.42735 0.24805 0.21726
 N1130 N 0.40883 0.23642 0.20487
 C1131 C 0.41104 0.21232 0.20994
 C1132 C 0.43211 0.20830 0.22604
 C1133 C 0.44189 0.23154 0.23016
 H1134 H 0.43924 0.19107 0.23364
 H1135 H 0.43013 0.26695 0.21659
 H1136 H 0.39474 0.24498 0.19350
 N1137 N -0.06527 0.69799 0.26233
 N1138 N -0.08184 0.68427 0.24940
 C1139 C -0.07909 0.68709 0.22349
 C1140 C -0.05967 0.70315 0.21964
 C1141 C -0.05143 0.70957 0.24492
 H1142 H -0.05261 0.70927 0.20126
 H1143 H -0.06331 0.69913 0.28276
 H1144 H -0.09499 0.67344 0.25831
 N1145 N -0.01484 0.20660 0.72286
 N1146 N -0.03519 0.19427 0.71595
 C1147 C -0.05316 0.21028 0.70801
 C1148 C -0.04396 0.23385 0.70988
 C1149 C -0.01968 0.23072 0.71988
 H1150 H -0.05416 0.25090 0.70678
 H1151 H 0.00146 0.19870 0.73108
 H1152 H -0.03696 0.17531 0.71764
 N1153 N 0.31234 0.48254 0.28301
 N1154 N 0.32363 0.46305 0.29309
 C1155 C 0.30639 0.44892 0.30381
 C1156 C 0.28294 0.45997 0.30041
 C1157 C 0.28754 0.48134 0.28686
 H1158 H 0.26528 0.45315 0.30671
 H1159 H 0.32154 0.49602 0.27283
 H1160 H 0.34284 0.45952 0.29229
 N1161 N 0.28488 -0.06444 0.72660
 N1162 N 0.29904 -0.08517 0.73350
 C1163 C 0.29831 -0.08737 0.75973
 C1164 C 0.28375 -0.06846 0.77001
 C1165 C 0.27574 -0.05448 0.74874
 H1166 H 0.28006 -0.06484 0.79045
 H1167 H 0.28355 -0.05723 0.70777
 H1168 H 0.30877 -0.09629 0.72035
 N1169 N 0.73830 0.42855 0.79039
 N1170 N 0.75109 0.41074 0.80487
 C1171 C 0.77323 0.40640 0.79368
 C1172 C 0.77514 0.42145 0.77195
 C1173 C 0.75280 0.43503 0.77067
 H1174 H 0.79091 0.42293 0.75934
 H1175 H 0.72122 0.43650 0.79549
 H1176 H 0.74409 0.40252 0.82138
 N1177 N 0.81390 -0.02085 0.27074
 N1178 N 0.82614 -0.04103 0.28191
 C1179 C 0.80860 -0.05553 0.29168
 C1180 C 0.78499 -0.04512 0.28695
 C1181 C 0.78916 -0.02370 0.27342
 H1182 H 0.76706 -0.05292 0.29108
 H1183 H 0.82254 -0.00730 0.26014
 H1184 H 0.84548 -0.04406 0.28205
 N1185 N 0.31412 0.51922 0.72080
 N1186 N 0.32817 0.53442 0.70810
 C1187 C 0.31377 0.55344 0.70000
 C1188 C 0.28951 0.55043 0.70797
 C1189 C 0.29068 0.52855 0.72135
 H1190 H 0.27362 0.56274 0.70526
 H1191 H 0.32070 0.50310 0.72958
 H1192 H 0.34730 0.53184 0.70532
 N1193 N 0.29390 1.03106 0.27272
 N1194 N 0.30417 1.05172 0.26565
 C1195 C 0.29018 1.06134 0.24582
 C1196 C 0.27005 1.04621 0.24008
 C1197 C 0.27311 1.02708 0.25756
 H1198 H 0.25629 1.04795 0.22413
 H1199 H 0.30146 1.01961 0.28725
 H1200 H 0.32081 1.05872 0.27393
 N1201 N 0.75079 0.52900 0.19727
 N1202 N 0.75910 0.54639 0.18225
 C1203 C 0.78093 0.55459 0.19278
 C1204 C 0.78690 0.54179 0.21545
 C1205 C 0.76705 0.52595 0.21777
 H1206 H 0.80275 0.54452 0.22887
 H1207 H 0.73367 0.52020 0.19417
 H1208 H 0.74955 0.55290 0.16551
 N1209 N 0.79220 1.06755 0.77948
 N1210 N 0.80404 1.08728 0.77219
 C1211 C 0.79534 1.09344 0.74805
 C1212 C 0.77697 1.07716 0.73974
 C1213 C 0.77556 1.06103 0.76025
 H1214 H 0.76710 1.07624 0.72086
 H1215 H 0.79592 1.05840 0.79705
 H1216 H 0.81841 1.09574 0.78324
 N1217 N 0.78111 0.55673 0.27532
 N1218 N 0.77861 0.57992 0.28281
 C1219 C 0.75401 0.58555 0.28328
 C1220 C 0.74023 0.56511 0.27577
 C1221 C 0.75817 0.54734 0.27072
 H1222 H 0.72009 0.56317 0.27484
 H1223 H 0.79821 0.54731 0.27446
 H1224 H 0.79354 0.59136 0.28810
 N1225 N 0.70414 1.06218 0.72569
 N1226 N 0.69165 1.08461 0.72876
 C1227 C 0.70075 1.09526 0.75108
 C1228 C 0.71930 1.08038 0.76233
 C1229 C 0.72079 1.05993 0.74596
 H1230 H 0.72948 1.08331 0.78082
 H1231 H 0.70037 1.04930 0.71072
 H1232 H 0.67713 1.09098 0.71634
 N1233 N 0.28131 0.56666 0.76831
 N1234 N 0.27625 0.58947 0.77588
 C1235 C 0.25136 0.59338 0.77317
 C1236 C 0.24009 0.57225 0.76357
 C1237 C 0.25967 0.55576 0.76077
 H1238 H 0.22029 0.56889 0.76034
 H1239 H 0.29909 0.55848 0.76939
 H1240 H 0.28959 0.60187 0.78326
 N1241 N 0.20104 1.02911 0.22801
 N1242 N 0.18825 1.04949 0.23275
 C1243 C 0.19573 1.05864 0.25642
 C1244 C 0.21437 1.04354 0.26713
 C1245 C 0.21714 1.02505 0.24838
 H1246 H 0.22384 1.04518 0.28617
 H1247 H 0.19850 1.01805 0.21123
 H1248 H 0.17418 1.05652 0.22018
 N1249 N 0.67986 0.43966 0.75245
 N1250 N 0.66869 0.41872 0.74647
 C1251 C 0.68452 0.40431 0.73290
 C1252 C 0.70691 0.41649 0.73043
 C1253 C 0.70313 0.43887 0.74312
 H1254 H 0.72332 0.41031 0.72022
 H1255 H 0.67158 0.45424 0.76266
 H1256 H 0.65030 0.41475 0.75107
 N1257 N 0.77694 -0.05550 0.22445
 N1258 N 0.77190 -0.07738 0.21425
 C1259 C 0.74701 -0.08085 0.21448
 C1260 C 0.73564 -0.06018 0.22532
 C1261 C 0.75538 -0.04450 0.23146
 H1262 H 0.71582 -0.05658 0.22727
 H1263 H 0.79477 -0.04786 0.22536
 H1264 H 0.78532 -0.08944 0.20677
 N1265 N 0.22125 0.46276 0.28448
 N1266 N 0.21026 0.44169 0.27868
 C1267 C 0.21715 0.43407 0.25469
 C1268 C 0.23331 0.45107 0.24478
 C1269 C 0.23549 0.46891 0.26442
 H1270 H 0.24123 0.45115 0.22554
 H1271 H 0.21830 0.47316 0.30151
 H1272 H 0.19783 0.43306 0.29078
 N1273 N 0.23515 -0.03590 0.68359
 N1274 N 0.22435 -0.05471 0.67131
 C1275 C 0.21716 -0.07073 0.68934
 C1276 C 0.22392 -0.06195 0.71414
 C1277 C 0.23545 -0.03990 0.70956
 H1278 H 0.22086 -0.07030 0.73283
 H1279 H 0.24229 -0.02071 0.67428
 H1280 H 0.22169 -0.05631 0.65097
 N1281 N 0.24841 0.24892 0.41615
 N1282 N 0.26086 0.26374 0.40132
 C1283 C 0.26272 0.28576 0.41343
 C1284 C 0.25099 0.28496 0.43723
 C1285 C 0.24203 0.26111 0.43825
 H1286 H 0.25094 0.29901 0.45247
 H1287 H 0.24617 0.23026 0.41193
 H1288 H 0.26933 0.25831 0.38396
 N1289 N 0.28885 0.81484 -0.03224
 N1290 N 0.29981 0.82462 -0.05232
 C1291 C 0.30180 0.80741 -0.07142
 C1292 C 0.29171 0.78572 -0.06319
 C1293 C 0.28338 0.79133 -0.03833
 H1294 H 0.28991 0.76861 -0.07411
 H1295 H 0.28440 0.82442 -0.01508
 H1296 H 0.30546 0.84286 -0.05295
 N1297 N 0.79084 0.23279 -0.04945
 N1298 N 0.80442 0.24049 -0.06875
 C1299 C 0.79813 0.26403 -0.07367
 C1300 C 0.77989 0.27172 -0.05660
 C1301 C 0.77574 0.25127 -0.04169
 H1302 H 0.76989 0.28910 -0.05624
 H1303 H 0.79109 0.21484 -0.04260
 H1304 H 0.81713 0.22948 -0.07886
 N1305 N 0.74647 0.80941 0.46520
 N1306 N 0.75316 0.82081 0.44389
 C1307 C 0.77457 0.81047 0.43555
 C1308 C 0.78176 0.79167 0.45215
 C1309 C 0.76333 0.79143 0.47056
 H1310 H 0.79822 0.77995 0.45119
 H1311 H 0.73058 0.81385 0.47574
 H1312 H 0.74333 0.83555 0.43550
 N1313 N 0.72782 0.22173 0.57319
 N1314 N 0.71839 0.22696 0.59626
 C1315 C 0.71607 0.25150 0.59894
 C1316 C 0.72441 0.26241 0.57657
 C1317 C 0.73174 0.24285 0.56068
 H1318 H 0.72397 0.28170 0.57191
 H1319 H 0.73037 0.20394 0.56576
 H1320 H 0.71301 0.21382 0.60954
 N1321 N 0.72173 0.78366 1.01340
 N1322 N 0.71117 0.79289 1.03443
 C1323 C 0.72821 0.79316 1.05449
 C1324 C 0.75076 0.78366 1.04587
 C1325 C 0.74566 0.77744 1.01965
 H1326 H 0.76778 0.78024 1.05742
 H1327 H 0.71225 0.78053 0.99542
 H1328 H 0.69237 0.79830 1.03512
 N1329 N 0.24131 0.26969 1.08362
 N1330 N 0.23751 0.28589 1.10264
 C1331 C 0.21449 0.29585 1.09902
 C1332 C 0.20311 0.28564 1.07664
 C1333 C 0.22080 0.26908 1.06748
 H1334 H 0.18482 0.28994 1.06801
 H1335 H 0.25803 0.25989 1.08131
 H1336 H 0.25049 0.28988 1.11785
 N1337 N 0.20966 0.73678 0.54520
 N1338 N 0.19456 0.74593 0.56294
 C1339 C 0.19867 0.77018 0.56563
 C1340 C 0.21694 0.77686 0.54854
 C1341 C 0.22341 0.75508 0.53608
 H1342 H 0.22563 0.79455 0.54682
 H1343 H 0.21127 0.71817 0.54026
 H1344 H 0.18260 0.73542 0.57383
 N1345 N 0.27162 0.75354 0.57610
 N1346 N 0.28076 0.74445 0.59836
 C1347 C 0.28609 0.72050 0.59442
 C1348 C 0.28027 0.71405 0.56863
 C1349 C 0.27126 0.73555 0.55762
 H1350 H 0.28378 0.69666 0.55878
 H1351 H 0.26715 0.77204 0.57332
 H1352 H 0.28390 0.75466 0.61565
 N1353 N 0.21483 0.21269 1.08164
 N1354 N 0.22432 0.19904 1.10079
 C1355 C 0.24837 0.19364 1.09578
 C1356 C 0.25440 0.20402 1.07222
 C1357 C 0.23258 0.21596 1.06396
 H1358 H 0.27231 0.20372 1.06292
 H1359 H 0.19659 0.21982 1.08088
 H1360 H 0.21465 0.19425 1.11736
 N1361 N 0.75275 0.72687 1.04757
 N1362 N 0.75839 0.71461 1.06913
 C1363 C 0.78342 0.71129 1.07106
 C1364 C 0.79422 0.72192 1.04982
 C1365 C 0.77407 0.73165 1.03539
 H1366 H 0.81373 0.72147 1.04478
 H1367 H 0.73450 0.73083 1.04078
 H1368 H 0.74518 0.70812 1.08185
 N1369 N 0.77642 0.18874 0.53422
 N1370 N 0.78837 0.17842 0.55434
 C1371 C 0.79412 0.19597 0.57237
 C1372 C 0.78548 0.21846 0.56346
 C1373 C 0.77402 0.21295 0.53932
 H1374 H 0.78603 0.23599 0.57375
 H1375 H 0.76904 0.17915 0.51788
 H1376 H 0.79202 0.15962 0.55585
 N1377 N 0.78832 0.72034 0.45977
 N1378 N 0.78480 0.71238 0.43534
 C1379 C 0.76449 0.72385 0.42467
 C1380 C 0.75470 0.73991 0.44308
 C1381 C 0.77047 0.73718 0.46505
 H1382 H 0.73812 0.75143 0.44107
 H1383 H 0.80271 0.71427 0.47254
 H1384 H 0.79597 0.69901 0.42641
 N1385 N 0.72158 0.26524 -0.07429
 N1386 N 0.71319 0.26109 -0.09856
 C1387 C 0.71076 0.23672 -0.10228
 C1388 C 0.71780 0.22476 -0.07940
 C1389 C 0.72451 0.24360 -0.06219
 H1390 H 0.71701 0.20535 -0.07546
 H1391 H 0.72430 0.28266 -0.06591
 H1392 H 0.70873 0.27479 -0.11207
 N1393 N 0.22945 0.78226 -0.07102
 N1394 N 0.22186 0.77584 -0.09508
 C1395 C 0.22775 0.75200 -0.09914
 C1396 C 0.23935 0.74273 -0.07669
 C1397 C 0.23999 0.76252 -0.05935
 H1398 H 0.24548 0.72406 -0.07307
 H1399 H 0.22675 0.79962 -0.06253
 H1400 H 0.21254 0.78753 -0.10828
 N1401 N 0.19026 0.23991 0.41873
 N1402 N 0.17776 0.22922 0.39903
 C1403 C 0.18217 0.20488 0.39988
 C1404 C 0.19808 0.19971 0.42113
 C1405 C 0.20269 0.22254 0.43263
 H1406 H 0.20455 0.18192 0.42781
 H1407 H 0.18948 0.25869 0.42307
 H1408 H 0.16620 0.23851 0.38547
 N1409 N 0.22527 0.44154 0.73473
 N1410 N 0.22923 0.42002 0.72312
 C1411 C 0.25408 0.41664 0.72087
 C1412 C 0.26642 0.43661 0.73185
 C1413 C 0.24754 0.45216 0.74018
 H1414 H 0.28621 0.44051 0.73135
 H1415 H 0.20762 0.44967 0.73658
 H1416 H 0.21506 0.40869 0.71544
 N1417 N 0.29597 0.93256 0.27392
 N1418 N 0.30851 0.91267 0.26672
 C1419 C 0.29819 0.90391 0.24402
 C1420 C 0.27805 0.91874 0.23654
 C1421 C 0.27730 0.93671 0.25608
 H1422 H 0.26649 0.91749 0.21873
 H1423 H 0.30047 0.94332 0.29052
 H1424 H 0.32424 0.90570 0.27694
 N1425 N 0.72285 0.43225 0.24408
 N1426 N 0.72837 0.40973 0.23586
 C1427 C 0.75345 0.40753 0.23451
 C1428 C 0.76431 0.42946 0.24219
 C1429 C 0.74436 0.44461 0.24811
 H1430 H 0.78391 0.43424 0.24221
 H1431 H 0.70467 0.43921 0.24590
 H1432 H 0.71512 0.39646 0.23057
 N1433 N 0.79629 0.96779 0.78346
 N1434 N 0.80688 0.94617 0.77884
 C1435 C 0.79474 0.93545 0.75817
 C1436 C 0.77571 0.95082 0.74922
 C1437 C 0.77716 0.97106 0.76590
 H1438 H 0.76309 0.94805 0.73240
 H1439 H 0.80220 0.98005 0.79830
 H1440 H 0.82231 0.93915 0.78951
 N1441 N 0.69522 0.53390 0.75181
 N1442 N 0.68842 0.55657 0.74614
 C1443 C 0.70467 0.56565 0.72932
 C1444 C 0.72284 0.54788 0.72410
 C1445 C 0.71606 0.52795 0.73888
 H1446 H 0.73828 0.54905 0.71102
 H1447 H 0.68567 0.52271 0.76442
 H1448 H 0.67271 0.56545 0.75363
 N1449 N 0.72529 0.03305 0.18240
 N1450 N 0.71326 0.05089 0.16991
 C1451 C 0.70592 0.06790 0.18759
 C1452 C 0.71370 0.06059 0.21255
 C1453 C 0.72616 0.03840 0.20830
 H1454 H 0.71129 0.07032 0.23098
 H1455 H 0.73342 0.01784 0.17313
 H1456 H 0.71030 0.05136 0.14958
 N1457 N 0.22971 0.54549 0.19895
 N1458 N 0.21983 0.56452 0.18652
 C1459 C 0.21448 0.58223 0.20426
 C1460 C 0.22149 0.57428 0.22917
 C1461 C 0.23124 0.55088 0.22480
 H1462 H 0.22050 0.58434 0.24759
 H1463 H 0.23599 0.52941 0.18975
 H1464 H 0.21696 0.56534 0.16619
 N1465 N 0.21943 0.05311 0.77114
 N1466 N 0.20954 0.07438 0.76391
 C1467 C 0.21435 0.07787 0.73849
 C1468 C 0.22783 0.05791 0.72910
 C1469 C 0.23074 0.04264 0.75047
 H1470 H 0.23428 0.05473 0.70943
 H1471 H 0.21778 0.04568 0.78973
 H1472 H 0.19949 0.08611 0.77620
 N1473 N 0.28497 0.57439 0.23396
 N1474 N 0.29787 0.59457 0.23903
 C1475 C 0.29770 0.59940 0.26501
 C1476 C 0.28423 0.58146 0.27703
 C1477 C 0.27650 0.56591 0.25664
 H1478 H 0.28148 0.57936 0.29779
 H1479 H 0.28298 0.56604 0.21544
 H1480 H 0.30689 0.60458 0.22495
 N1481 N 0.26421 0.02061 0.81895
 N1482 N 0.27290 0.03914 0.83346
 C1483 C 0.28089 0.05655 0.81742
 C1484 C 0.27694 0.04894 0.79160
 C1485 C 0.26616 0.02613 0.79348
 H1486 H 0.28126 0.05857 0.77397
 H1487 H 0.25689 0.00460 0.82642
 H1488 H 0.27354 0.03963 0.85395
 N1489 N 0.79145 0.52048 0.72988
 N1490 N 0.80340 0.54127 0.73436
 C1491 C 0.79195 0.55394 0.75353
 C1492 C 0.77172 0.54066 0.76159
 C1493 C 0.77196 0.51966 0.74586
 H1494 H 0.75852 0.54567 0.77644
 H1495 H 0.79636 0.50727 0.71583
 H1496 H 0.81922 0.54653 0.72448
 N1497 N 0.77107 0.07128 0.22611
 N1498 N 0.78043 0.09270 0.23355
 C1499 C 0.77924 0.09507 0.25979
 C1500 C 0.76865 0.07414 0.26957
 C1501 C 0.76374 0.05944 0.24746
 H1502 H 0.76643 0.06957 0.28991
 H1503 H 0.77110 0.06440 0.20688
 H1504 H 0.78814 0.10514 0.22084
 N1505 N 0.69581 0.47863 0.29889
 N1506 N 0.68284 0.46146 0.30999
 C1507 C 0.69733 0.44122 0.31252
 C1508 C 0.72064 0.44563 0.30263
 C1509 C 0.71867 0.46951 0.29358
 H1510 H 0.73584 0.43259 0.30010
 H1511 H 0.68845 0.49570 0.29338
 H1512 H 0.66398 0.46324 0.31455
 N1513 N 0.70076 0.96538 0.74217
 N1514 N 0.69078 0.94485 0.75003
 C1515 C 0.70466 0.93634 0.77053
 C1516 C 0.72418 0.95209 0.77612
 C1517 C 0.72114 0.97032 0.75761
 H1518 H 0.73786 0.95105 0.79223
 H1519 H 0.69352 0.97582 0.72663
 H1520 H 0.67464 0.93699 0.74156
 N1521 N 0.24619 0.47517 0.81222
 N1522 N 0.23523 0.46099 0.82892
 C1523 C 0.21334 0.45340 0.81795
 C1524 C 0.21012 0.46320 0.79312
 C1525 C 0.23159 0.47669 0.79027
 H1526 H 0.19469 0.46048 0.77913
 H1527 H 0.26361 0.48331 0.81566
 H1528 H 0.24287 0.45646 0.84736
 N1529 N 0.20116 0.93044 0.23215
 N1530 N 0.19215 0.90860 0.23698
 C1531 C 0.20630 0.89833 0.25631
 C1532 C 0.22508 0.91434 0.26419
 C1533 C 0.22126 0.93453 0.24828
 H1534 H 0.23888 0.91206 0.28003
 H1535 H 0.19353 0.94234 0.21807
 H1536 H 0.17644 0.90104 0.22730
 N1537 N 0.41555 0.28676 0.74056
 N1538 N 0.39962 0.30220 0.72919
 C1539 C 0.39979 0.29834 0.70305
 C1540 C 0.41677 0.27969 0.69740
 C1541 C 0.42631 0.27289 0.72190
 H1542 H 0.42146 0.27218 0.67839
 H1543 H 0.41924 0.28607 0.76079
 H1544 H 0.38857 0.31485 0.73935
 N1545 N 0.48985 0.76703 0.19489
 N1546 N 0.46800 0.77330 0.18396
 C1547 C 0.45484 0.78610 0.20170
 C1548 C 0.46887 0.78819 0.22493
 C1549 C 0.49086 0.77543 0.21990
 H1550 H 0.46313 0.79635 0.24326
 H1551 H 0.50319 0.75591 0.18582
 H1552 H 0.46198 0.76818 0.16497
 N1553 N 0.95481 0.28791 0.17292
 N1554 N 0.93543 0.29897 0.16127
 C1555 C 0.92156 0.30981 0.17981
 C1556 C 0.93260 0.30560 0.20430
 C1557 C 0.95350 0.29126 0.19908
 H1558 H 0.92574 0.31165 0.22298
 H1559 H 0.96817 0.27739 0.16313
 H1560 H 0.93150 0.29839 0.14107
 N1561 N 0.95358 0.78192 0.77790
 N1562 N 0.93154 0.79289 0.77501
 C1563 C 0.92072 0.78540 0.75203
 C1564 C 0.93643 0.76869 0.73986
 C1565 C 0.95713 0.76712 0.75694
 H1566 H 0.93409 0.76040 0.72051
 H1567 H 0.96628 0.78516 0.79357
 H1568 H 0.92456 0.80595 0.78817
 N1569 N 0.54837 0.27863 0.24787
 N1570 N 0.56602 0.29349 0.25702
 C1571 C 0.56258 0.29773 0.28272
 C1572 C 0.54168 0.28519 0.29033
 C1573 C 0.53324 0.27328 0.26753
 H1574 H 0.53366 0.28497 0.30951
 H1575 H 0.54642 0.27278 0.22831
 H1576 H 0.58023 0.30038 0.24580
 N1577 N 0.53563 0.80749 0.77423
 N1578 N 0.55349 0.82074 0.78571
 C1579 C 0.57238 0.80565 0.79352
 C1580 C 0.56634 0.78172 0.78672
 C1581 C 0.54295 0.78376 0.77421
 H1582 H 0.57753 0.76528 0.78993
 H1583 H 0.51895 0.81472 0.76613
 H1584 H 0.55270 0.83981 0.78790
 N1585 N 0.05984 0.31957 0.74451
 N1586 N 0.07440 0.33415 0.75902
 C1587 C 0.07201 0.32863 0.78447
 C1588 C 0.05485 0.30997 0.78634
 C1589 C 0.04766 0.30481 0.76048
 H1590 H 0.04914 0.30086 0.80379
 H1591 H 0.05855 0.31955 0.72403
 H1592 H 0.08635 0.34707 0.75146
 N1593 N 0.03500 0.75500 0.31890
 N1594 N 0.05723 0.76246 0.32766
 C1595 C 0.07024 0.76981 0.30716
 C1596 C 0.05568 0.76704 0.28436
 C1597 C 0.03348 0.75725 0.29261
 H1598 H 0.06084 0.77152 0.26477
 H1599 H 0.02145 0.74779 0.33074
 H1600 H 0.06327 0.76229 0.34735
 N1601 N 0.57531 0.76391 0.72926
 N1602 N 0.59737 0.75704 0.72055
 C1603 C 0.60055 0.73280 0.72439
 C1604 C 0.57960 0.72385 0.73611
 C1605 C 0.56400 0.74420 0.73893
 H1606 H 0.57582 0.70506 0.74102
 H1607 H 0.56780 0.78161 0.72753
 H1608 H 0.60968 0.76873 0.71157
 N1609 N 0.55051 0.21753 0.26390
 N1610 N 0.56944 0.20503 0.25408
 C1611 C 0.56558 0.20285 0.22792
 C1612 C 0.54303 0.21420 0.22075
 C1613 C 0.53413 0.22330 0.24423
 H1614 H 0.53457 0.21598 0.20128
 H1615 H 0.54886 0.22192 0.28378
 H1616 H 0.58495 0.19865 0.26511
 N1617 N 0.04214 0.75262 0.22253
 N1618 N 0.06269 0.74718 0.21003
 C1619 C 0.07103 0.72480 0.21737
 C1620 C 0.05498 0.71552 0.23556
 C1621 C 0.03702 0.73398 0.23830
 H1622 H 0.05580 0.69779 0.24477
 H1623 H 0.03167 0.76879 0.22009
 H1624 H 0.07064 0.75869 0.19654
 N1625 N 0.08297 0.26015 0.75453
 N1626 N 0.10386 0.24873 0.74808
 C1627 C 0.10155 0.24106 0.72292
 C1628 C 0.07820 0.24803 0.71279
 C1629 C 0.06680 0.25995 0.73361
 H1630 H 0.06980 0.24292 0.69390
 H1631 H 0.07920 0.26595 0.77361
 H1632 H 0.11884 0.24508 0.76121
 N1633 N 0.46846 0.76891 0.28612
 N1634 N 0.44760 0.76006 0.29509
 C1635 C 0.44424 0.73727 0.28509
 C1636 C 0.46391 0.73123 0.26907
 C1637 C 0.47883 0.75192 0.27030
 H1638 H 0.46798 0.71365 0.25990
 H1639 H 0.47613 0.78575 0.29193
 H1640 H 0.43651 0.76912 0.30876
 N1641 N 0.39910 0.22809 0.74089
 N1642 N 0.38067 0.21831 0.75357
 C1643 C 0.38819 0.21536 0.77874
 C1644 C 0.41260 0.22335 0.78233
 C1645 C 0.41889 0.23137 0.75771
 H1646 H 0.42444 0.22217 0.79992
 H1647 H 0.39848 0.23107 0.72071
 H1648 H 0.36361 0.21291 0.74484
 N1649 N 0.95728 0.69569 0.72413
 N1650 N 0.93628 0.68415 0.72847
 C1651 C 0.92592 0.69415 0.74993
 C1652 C 0.94101 0.71290 0.75969
 C1653 C 0.96069 0.71341 0.74262
 H1654 H 0.93828 0.72421 0.77702
 H1655 H 0.96895 0.69152 0.70862
 H1656 H 0.92931 0.66965 0.71687
 N1657 N 0.92822 0.27808 0.25800
 N1658 N 0.90732 0.27123 0.26853
 C1659 C 0.90318 0.24753 0.26210
 C1660 C 0.92236 0.23895 0.24649
 C1661 C 0.93773 0.25916 0.24411
 H1662 H 0.92556 0.22039 0.23940
 H1663 H 0.93677 0.29493 0.26194
 H1664 H 0.89676 0.28243 0.28088
 N1665 N 0.21427 0.25833 0.55066
 N1666 N 0.22203 0.27082 0.57170
 C1667 C 0.24666 0.27506 0.56992
 C1668 C 0.25502 0.26487 0.54664
 C1669 C 0.23380 0.25433 0.53510
 H1670 H 0.27354 0.26580 0.53880
 H1671 H 0.19563 0.25377 0.54649
 H1672 H 0.21043 0.27669 0.58670
 N1673 N 0.28021 0.73790 0.05964
 N1674 N 0.29086 0.74280 0.08283
 C1675 C 0.28799 0.76693 0.08823
 C1676 C 0.27481 0.77789 0.06757
 C1677 C 0.27009 0.75871 0.04992
 H1678 H 0.27084 0.79722 0.06489
 H1679 H 0.28115 0.72085 0.05003
 H1680 H 0.30074 0.72993 0.09420
 N1681 N 0.73551 0.23965 0.06930
 N1682 N 0.74229 0.25141 0.09123
 C1683 C 0.75627 0.27068 0.08512
 C1684 C 0.75848 0.27134 0.05827
 C1685 C 0.74467 0.25156 0.04879
 H1686 H 0.76827 0.28472 0.04717
 H1687 H 0.72567 0.22328 0.06885
 H1688 H 0.73799 0.24584 0.11003
 N1689 N 0.74198 0.80105 0.57209
 N1690 N 0.74767 0.81067 0.59544
 C1691 C 0.76872 0.79969 0.60505
 C1692 C 0.77664 0.78211 0.58715
 C1693 C 0.75915 0.78361 0.56649
 H1694 H 0.79351 0.77092 0.58821
 H1695 H 0.72691 0.80676 0.56000
 H1696 H 0.73764 0.82502 0.60415
 N1697 N 0.32861 0.73159 0.47499
 N1698 N 0.34158 0.72212 0.45563
 C1699 C 0.32548 0.71389 0.43666
 C1700 C 0.30119 0.71831 0.44420
 C1701 C 0.30404 0.72984 0.46854
 H1702 H 0.28394 0.71406 0.43343
 H1703 H 0.33656 0.73946 0.49209
 H1704 H 0.36112 0.72149 0.45549
 N1705 N 0.22290 0.22653 0.94418
 N1706 N 0.23603 0.21729 0.92482
 C1707 C 0.25737 0.20750 0.93499
 C1708 C 0.25799 0.21053 0.96198
 C1709 C 0.23591 0.22318 0.96701
 H1710 H 0.27305 0.20568 0.97573
 H1711 H 0.20547 0.23520 0.94157
 H1712 H 0.23048 0.21786 0.90499
 N1713 N 0.78249 0.69019 0.94621
 N1714 N 0.78766 0.67725 0.92496
 C1715 C 0.79817 0.69204 0.90772
 C1716 C 0.79981 0.71555 0.91852
 C1717 C 0.78939 0.71363 0.94303
 H1718 H 0.80720 0.73159 0.90954
 H1719 H 0.77355 0.68312 0.96229
 H1720 H 0.78377 0.65863 0.92237
 N1721 N 0.76644 0.26673 0.44176
 N1722 N 0.77605 0.26128 0.41888
 C1723 C 0.77257 0.23726 0.41343
 C1724 C 0.75997 0.22697 0.43383
 C1725 C 0.75625 0.24646 0.45132
 H1726 H 0.75582 0.20782 0.43651
 H1727 H 0.76842 0.28367 0.45145
 H1728 H 0.78574 0.27372 0.40780
 N1729 N 0.68381 0.26373 0.47432
 N1730 N 0.67018 0.27592 0.45675
 C1731 C 0.68550 0.28942 0.44256
 C1732 C 0.71004 0.28566 0.45148
 C1733 C 0.70814 0.26903 0.47161
 H1734 H 0.72654 0.29432 0.44455
 H1735 H 0.67650 0.25178 0.48781
 H1736 H 0.65072 0.27486 0.45465
 N1737 N 0.78893 0.77605 0.91675
 N1738 N 0.77952 0.78707 0.89568
 C1739 C 0.75475 0.78279 0.89368
 C1740 C 0.74812 0.76831 0.91430
 C1741 C 0.77037 0.76443 0.92848
 H1742 H 0.72945 0.76345 0.91975
 H1743 H 0.80740 0.77781 0.92387
 H1744 H 0.78973 0.79830 0.88369
 N1745 N 0.23621 0.28068 0.95804
 N1746 N 0.22856 0.29646 0.94007
 C1747 C 0.20369 0.30011 0.94192
 C1748 C 0.19505 0.28621 0.96214
 C1749 C 0.21640 0.27419 0.97181
 H1750 H 0.17622 0.28544 0.96921
 H1751 H 0.25478 0.27488 0.96111
 H1752 H 0.24029 0.30463 0.92687
 N1753 N 0.28003 0.77114 0.43627
 N1754 N 0.27178 0.77915 0.41321
 C1755 C 0.24712 0.77455 0.41047
 C1756 C 0.23932 0.76312 0.43276
 C1757 C 0.26083 0.76109 0.44861
 H1758 H 0.22059 0.75746 0.43704
 H1759 H 0.29835 0.77337 0.44366
 H1760 H 0.28280 0.78821 0.40001
 N1761 N 0.78071 0.70889 0.56406
 N1762 N 0.77413 0.69696 0.58504
 C1763 C 0.75481 0.70903 0.59588
 C1764 C 0.74889 0.72957 0.58121
 C1765 C 0.76580 0.72888 0.56119
 H1766 H 0.73363 0.74249 0.58396
 H1767 H 0.79501 0.70319 0.55181
 H1768 H 0.78252 0.68062 0.59146
 N1769 N 0.68078 0.25065 0.03730
 N1770 N 0.66568 0.24069 0.05399
 C1771 C 0.67052 0.21636 0.05481
 C1772 C 0.68909 0.21049 0.03739
 C1773 C 0.69530 0.23283 0.02709
 H1774 H 0.69835 0.19294 0.03441
 H1775 H 0.68183 0.26943 0.03387
 H1776 H 0.65339 0.25068 0.06568
 N1777 N 0.19575 0.74927 0.02806
 N1778 N 0.18288 0.74038 0.04725
 C1779 C 0.19805 0.72569 0.06180
 C1780 C 0.22169 0.72516 0.05142
 C1781 C 0.21949 0.74069 0.03012
 H1782 H 0.23797 0.71517 0.05871
 H1783 H 0.18852 0.76163 0.01424
 H1784 H 0.16407 0.74458 0.05036
 N1785 N 0.23723 0.18666 0.53176
 N1786 N 0.23188 0.17507 0.55334
 C1787 C 0.20973 0.18359 0.56176
 C1788 C 0.20040 0.20121 0.54458
 C1789 C 0.21859 0.20271 0.52601
 H1790 H 0.18338 0.21203 0.54601
 H1791 H 0.25373 0.18410 0.52161
 H1792 H 0.24367 0.16211 0.56244
   
