data_POSCAR
  _audit_creation_date              2014-09-24
  _audit_creation_method            'ToBaCCo'
  _symmetry_space_group_name_H-M    'P1'
  _symmetry_Int_Tables_number       1
  _symmetry_cell_setting            triclinic
  loop_
  _symmetry_equiv_pos_as_xyz
 x,y,z
_cell_length_a 51.3373
_cell_length_b 53.8403
_cell_length_c 50.5374
_cell_angle_alpha 90.021200
_cell_angle_beta 90.047500
_cell_angle_gamma 90.033500
loop_
  _atom_site_label
  _atom_site_type_symbol
  _atom_site_fract_x
  _atom_site_fract_y
  _atom_site_fract_z
C1 C 0.31406 0.31843 -0.00247
 C2 C 0.31514 0.32005 0.02448
 C3 C 0.30009 0.33902 0.03947
 C4 C 0.33212 0.30368 0.04070
 C5 C 0.33025 0.30056 -0.01794
 C6 C 0.29709 0.33518 -0.01833
 C7 C 0.30170 0.36440 0.03316
 C8 C 0.28760 0.38189 0.04771
 C9 C 0.27246 0.37437 0.06939
 C10 C 0.27146 0.34915 0.07622
 C11 C 0.28505 0.33161 0.06129
 C12 C 0.35028 0.31456 0.05791
 C13 C 0.36653 0.29980 0.07343
 C14 C 0.36488 0.27378 0.07223
 C15 C 0.34655 0.26283 0.05510
 C16 C 0.33015 0.27767 0.03958
 C17 C 0.31879 0.28720 -0.03871
 C18 C 0.33366 0.27147 -0.05461
 C19 C 0.36060 0.26796 -0.04988
 C20 C 0.37184 0.28132 -0.02855
 C21 C 0.35706 0.29786 -0.01343
 C22 C 0.26997 0.33584 -0.01472
 C23 C 0.25449 0.35154 -0.03027
 C24 C 0.26587 0.36666 -0.04981
 C25 C 0.29305 0.36593 -0.05320
 C26 C 0.30843 0.35027 -0.03776
 H27 H 0.31393 0.37070 0.01707
 H28 H 0.28884 0.40133 0.04237
 H29 H 0.25984 0.34301 0.09286
 H30 H 0.28380 0.31219 0.06673
 H31 H 0.35211 0.33458 0.05906
 H32 H 0.38070 0.30879 0.08611
 H33 H 0.31596 0.26893 0.02672
 H34 H 0.29813 0.28893 -0.04269
 H35 H 0.32336 0.26113 -0.06970
 H36 H 0.39252 0.28066 -0.02452
 H37 H 0.36679 0.30890 0.00151
 H38 H 0.26083 0.32407 -0.00004
 H39 H 0.23359 0.35148 -0.02736
 H40 H 0.30251 0.37766 -0.06771
 H41 H 0.32931 0.35007 -0.04080
 H42 H 0.34466 0.24282 0.05399
 C43 C 0.68632 0.68158 -0.02102
 C44 C 0.68550 0.68314 0.00589
 C45 C 0.70077 0.66613 0.02298
 C46 C 0.66868 0.70123 0.02024
 C47 C 0.67001 0.69773 -0.03811
 C48 C 0.70288 0.66313 -0.03517
 C49 C 0.68754 0.65102 0.04111
 C50 C 0.70128 0.63528 0.05795
 C51 C 0.72863 0.63451 0.05723
 C52 C 0.74192 0.64974 0.03905
 C53 C 0.72808 0.66550 0.02209
 C54 C 0.64172 0.70278 0.01551
 C55 C 0.62614 0.71854 0.03083
 C56 C 0.63712 0.73233 0.05162
 C57 C 0.66399 0.73080 0.05632
 C58 C 0.67962 0.71554 0.04068
 C59 C 0.67173 0.72373 -0.03699
 C60 C 0.65598 0.73839 -0.05334
 C61 C 0.63852 0.72725 -0.07125
 C62 C 0.63717 0.70121 -0.07247
 C63 C 0.65281 0.68663 -0.05615
 C64 C 0.71896 0.67123 -0.05593
 C65 C 0.73345 0.65424 -0.07069
 C66 C 0.73236 0.62879 -0.06483
 C67 C 0.71650 0.62060 -0.04395
 C68 C 0.70154 0.63758 -0.02951
 H69 H 0.66646 0.65129 0.04206
 H70 H 0.69045 0.62348 0.07135
 H71 H 0.76299 0.64977 0.03825
 H72 H 0.73861 0.67734 0.00848
 H73 H 0.63264 0.69136 0.00048
 H74 H 0.60536 0.71923 0.02715
 H75 H 0.70029 0.71450 0.04486
 H76 H 0.68523 0.73262 -0.02350
 H77 H 0.65766 0.75841 -0.05220
 H78 H 0.62364 0.69207 -0.08575
 H79 H 0.65124 0.66659 -0.05731
 H80 H 0.72012 0.69078 -0.06084
 H81 H 0.74559 0.66095 -0.08669
 H82 H 0.71512 0.60100 -0.03935
 H83 H 0.68862 0.63072 -0.01427
 H84 H 0.67281 0.74130 0.07228
 C85 C 0.69642 0.30576 1.01575
 C86 C 0.69537 0.30690 0.98891
 C87 C 0.71269 0.32372 0.97376
 C88 C 0.67476 0.29384 0.97393
 C89 C 0.67922 0.28884 1.03097
 C90 C 0.71248 0.32369 1.03078
 C91 C 0.70196 0.34298 0.95864
 C92 C 0.71813 0.35987 0.94563
 C93 C 0.74539 0.35767 0.94728
 C94 C 0.75607 0.33796 0.96198
 C95 C 0.73985 0.32112 0.97508
 C96 C 0.64865 0.30100 0.97683
 C97 C 0.62919 0.28926 0.96214
 C98 C 0.63554 0.27001 0.94456
 C99 C 0.66168 0.26273 0.94183
 C100 C 0.68122 0.27480 0.95621
 C101 C 0.67965 0.26313 1.02640
 C102 C 0.66220 0.24747 1.03953
 C103 C 0.64392 0.25723 1.05749
 C104 C 0.64395 0.28297 1.06236
 C105 C 0.66152 0.29857 1.04936
 C106 C 0.73560 0.31620 1.04306
 C107 C 0.75144 0.33364 1.05586
 C108 C 0.74405 0.35891 1.05730
 C109 C 0.72042 0.36599 1.04506
 C110 C 0.70500 0.34864 1.03186
 H111 H 0.68104 0.34537 0.95753
 H112 H 0.70926 0.37504 0.93483
 H113 H 0.77696 0.33550 0.96328
 H114 H 0.74846 0.30615 0.98640
 H115 H 0.64345 0.31584 0.99030
 H116 H 0.60914 0.29506 0.96462
 H117 H 0.70133 0.26922 0.95368
 H118 H 0.69337 0.25524 1.01247
 H119 H 0.66304 0.22771 1.03566
 H120 H 0.62990 0.29121 1.07569
 H121 H 0.66072 0.31837 1.05302
 H122 H 0.74157 0.29692 1.04234
 H123 H 0.76892 0.32696 1.06547
 H124 H 0.71420 0.38518 1.04448
 H125 H 0.68728 0.35470 1.02216
 H126 H 0.66697 0.24801 0.92825
 C127 C 0.31667 0.68588 1.01382
 C128 C 0.31579 0.68557 0.98695
 C129 C 0.30132 0.66611 0.97236
 C130 C 0.33174 0.70306 0.97114
 C131 C 0.33666 0.70078 1.02777
 C132 C 0.29989 0.66951 1.03027
 C133 C 0.30838 0.64106 0.97508
 C134 C 0.29519 0.62270 0.96085
 C135 C 0.27455 0.62910 0.94394
 C136 C 0.26746 0.65418 0.94130
 C137 C 0.28100 0.67260 0.95517
 C138 C 0.35100 0.69395 0.95408
 C139 C 0.36738 0.71034 0.94060
 C140 C 0.36463 0.73617 0.94375
 C141 C 0.34483 0.74523 0.96036
 C142 C 0.32851 0.72881 0.97389
 C143 C 0.32980 0.72230 1.04161
 C144 C 0.34884 0.73609 1.05493
 C145 C 0.37507 0.72807 1.05548
 C146 C 0.38157 0.70625 1.04143
 C147 C 0.36265 0.69299 1.02753
 C148 C 0.27285 0.66855 1.02641
 C149 C 0.25730 0.65298 1.04195
 C150 C 0.26835 0.63818 1.06216
 C151 C 0.29562 0.63957 1.06590
 C152 C 0.31104 0.65498 1.05025
 H153 H 0.32423 0.63580 0.98807
 H154 H 0.30090 0.60347 0.96324
 H155 H 0.25171 0.65951 0.92822
 H156 H 0.27548 0.69188 0.95274
 H157 H 0.35387 0.67413 0.95183
 H158 H 0.38265 0.70274 0.92826
 H159 H 0.31349 0.73615 0.98674
 H160 H 0.30972 0.72843 1.04203
 H161 H 0.34260 0.75228 1.06589
 H162 H 0.40147 0.69973 1.04027
 H163 H 0.36820 0.67642 1.01675
 H164 H 0.26369 0.68009 1.01153
 H165 H 0.23650 0.65354 1.03866
 H166 H 0.30557 0.62797 1.08014
 H167 H 0.33190 0.65515 1.05346
 H168 H 0.34193 0.76501 0.96285
 C169 C -0.01356 0.31667 0.30927
 C170 C 0.01283 0.31666 0.30741
 C171 C 0.02934 0.30065 0.32443
 C172 C 0.02645 0.33422 0.28964
 C173 C -0.02996 0.33273 0.29216
 C174 C -0.02713 0.30226 0.32993
 C175 C 0.04835 0.31149 0.34068
 C176 C 0.06426 0.29671 0.35660
 C177 C 0.06167 0.27071 0.35644
 C178 C 0.04264 0.25985 0.34005
 C179 C 0.02667 0.27470 0.32413
 C180 C 0.02563 0.35981 0.29473
 C181 C 0.03828 0.37641 0.27787
 C182 C 0.05167 0.36768 0.25550
 C183 C 0.05240 0.34205 0.25039
 C184 C 0.04012 0.32539 0.26756
 C185 C -0.02846 0.33113 0.26455
 C186 C -0.04271 0.34738 0.24860
 C187 C -0.05915 0.36565 0.25985
 C188 C -0.06119 0.36635 0.28774
 C189 C -0.04681 0.35013 0.30359
 C190 C -0.04121 0.28098 0.32310
 C191 C -0.05500 0.26788 0.34239
 C192 C -0.05574 0.27633 0.36887
 C193 C -0.04146 0.29794 0.37538
 C194 C -0.02708 0.31054 0.35616
 H195 H 0.05069 0.33148 0.34124
 H196 H 0.07842 0.30569 0.36930
 H197 H 0.04041 0.23987 0.33918
 H198 H 0.01247 0.26593 0.31131
 H199 H 0.01521 0.36686 0.31178
 H200 H 0.03741 0.39612 0.28211
 H201 H 0.04093 0.30566 0.26345
 H202 H -0.01611 0.31732 0.25532
 H203 H -0.04122 0.34495 0.22742
 H204 H -0.07269 0.38029 0.29776
 H205 H -0.04818 0.35176 0.32490
 H206 H -0.04161 0.27459 0.30278
 H207 H -0.06619 0.25192 0.33606
 H208 H -0.04058 0.30479 0.39549
 H209 H -0.01623 0.32703 0.36164
 H210 H 0.06280 0.33495 0.23335
 C211 C -0.01313 0.68416 0.69047
 C212 C 0.01334 0.68440 0.69099
 C213 C 0.02859 0.69931 0.67186
 C214 C 0.02798 0.66758 0.70882
 C215 C -0.02770 0.66423 0.70424
 C216 C -0.02838 0.70209 0.67429
 C217 C 0.02730 0.69383 0.64475
 C218 C 0.04216 0.70737 0.62665
 C219 C 0.05816 0.72688 0.63536
 C220 C 0.05922 0.73256 0.66246
 C221 C 0.04480 0.71860 0.68066
 C222 C 0.04354 0.64861 0.69830
 C223 C 0.05580 0.63160 0.71507
 C224 C 0.05289 0.63338 0.74270
 C225 C 0.03785 0.65290 0.75314
 C226 C 0.02555 0.66984 0.73635
 C227 C -0.03949 0.66859 0.72875
 C228 C -0.05281 0.64947 0.74175
 C229 C -0.05546 0.62576 0.72997
 C230 C -0.04358 0.62181 0.70511
 C231 C -0.02960 0.64071 0.69265
 C232 C -0.02373 0.72771 0.67608
 C233 C -0.03784 0.74445 0.66054
 C234 C -0.05743 0.73610 0.64296
 C235 C -0.06220 0.71024 0.64177
 C236 C -0.04793 0.69359 0.65718
 H237 H 0.01501 0.67886 0.63769
 H238 H 0.04110 0.70274 0.60582
 H239 H 0.07160 0.74745 0.66954
 H240 H 0.04606 0.72295 0.70155
 H241 H 0.04553 0.64655 0.67707
 H242 H 0.06698 0.61664 0.70637
 H243 H 0.01390 0.68460 0.74479
 H244 H -0.03821 0.68676 0.73788
 H245 H -0.06206 0.65378 0.76042
 H246 H -0.04409 0.60382 0.69559
 H247 H -0.02032 0.63704 0.67381
 H248 H -0.00928 0.73481 0.68976
 H249 H -0.03390 0.76402 0.66327
 H250 H -0.07610 0.70240 0.62802
 H251 H -0.05183 0.67391 0.65523
 H252 H 0.03562 0.65509 0.77431
 C253 C 1.00804 0.68861 0.31504
 C254 C 0.98149 0.68719 0.31425
 C255 C 0.96466 0.70144 0.33286
 C256 C 0.96784 0.67019 0.29566
 C257 C 1.02492 0.67165 0.29925
 C258 C 1.02175 0.70670 0.33236
 C259 C 0.96925 0.70102 0.36029
 C260 C 0.95304 0.71415 0.37752
 C261 C 0.93146 0.72726 0.36773
 C262 C 0.92644 0.72716 0.34043
 C263 C 0.94296 0.71444 0.32314
 C264 C 0.95066 0.65231 0.30574
 C265 C 0.93866 0.63530 0.28887
 C266 C 0.94331 0.63597 0.26146
 C267 C 0.96019 0.65420 0.25129
 C268 C 0.97226 0.67126 0.26825
 C269 C 1.04604 0.68133 0.28498
 C270 C 1.06230 0.66568 0.27041
 C271 C 1.05749 0.63989 0.26919
 C272 C 1.03642 0.63030 0.28394
 C273 C 1.02082 0.64589 0.29926
 C274 C 1.01639 0.73219 0.33105
 C275 C 1.02948 0.74889 0.34757
 C276 C 1.04860 0.74056 0.36571
 C277 C 1.05390 0.71479 0.36652
 C278 C 1.04073 0.69822 0.35005
 H279 H 0.98525 0.69037 0.36841
 H280 H 0.95702 0.71367 0.39856
 H281 H 0.90991 0.73718 0.33247
 H282 H 0.93884 0.71478 0.30212
 H283 H 0.94709 0.65111 0.32682
 H284 H 0.92611 0.62126 0.29740
 H285 H 0.98523 0.68514 0.26007
 H286 H 1.04980 0.70113 0.28490
 H287 H 1.07783 0.67412 0.25908
 H288 H 1.03259 0.61054 0.28473
 H289 H 1.00554 0.63775 0.31119
 H290 H 1.00218 0.73917 0.31706
 H291 H 1.02516 0.76841 0.34516
 H292 H 1.06737 0.70692 0.38066
 H293 H 1.04503 0.67857 0.35149
 H294 H 0.96388 0.65540 0.23024
 C295 C 1.02258 0.30831 0.69115
 C296 C 0.99607 0.30749 0.69246
 C297 C 0.98095 0.29105 0.67462
 C298 C 0.98097 0.32410 0.71014
 C299 C 1.03823 0.32685 0.70616
 C300 C 1.03711 0.29115 0.67352
 C301 C 0.98032 0.29572 0.64732
 C302 C 0.96668 0.27985 0.63039
 C303 C 0.95377 0.25887 0.64045
 C304 C 0.95445 0.25421 0.66779
 C305 C 0.96770 0.27038 0.68481
 C306 C 0.96298 0.34075 0.69916
 C307 C 0.95018 0.35799 0.71515
 C308 C 0.95471 0.35867 0.74262
 C309 C 0.97217 0.34137 0.75368
 C310 C 0.98520 0.32426 0.73757
 C311 C 1.05983 0.31900 0.72103
 C312 C 1.07482 0.33618 0.73512
 C313 C 1.06836 0.36150 0.73473
 C314 C 1.04704 0.36945 0.71953
 C315 C 1.03238 0.35233 0.70501
 C316 C 1.03488 0.26537 0.67636
 C317 C 1.04731 0.24940 0.65863
 C318 C 1.06264 0.25878 0.63763
 C319 C 1.06539 0.28488 0.63565
 C320 C 1.05282 0.30076 0.65338
 H321 H 0.99045 0.31164 0.63920
 H322 H 0.96647 0.28375 0.60937
 H323 H 0.94445 0.23825 0.67597
 H324 H 0.96806 0.26656 0.70584
 H325 H 0.95958 0.34103 0.67801
 H326 H 0.93729 0.37126 0.70582
 H327 H 0.99884 0.31136 0.74643
 H328 H 1.06492 0.29949 0.72193
 H329 H 1.09120 0.32966 0.74672
 H330 H 1.04199 0.38896 0.71859
 H331 H 1.01648 0.35900 0.69286
 H332 H 1.02336 0.25760 0.69229
 H333 H 1.04539 0.22968 0.66213
 H334 H 1.07603 0.29343 0.61962
 H335 H 1.05470 0.32066 0.65085
 H336 H 0.97578 0.34103 0.77478
 C337 C 0.30902 -0.01889 0.30612
 C338 C 0.31259 0.00618 0.30666
 C339 C 0.33237 0.01880 0.28985
 C340 C 0.29727 0.02243 0.32459
 C341 C 0.29110 -0.03138 0.32484
 C342 C 0.32434 -0.03511 0.28819
 C343 C 0.35870 0.01166 0.29039
 C344 C 0.37702 0.02397 0.27466
 C345 C 0.36946 0.04408 0.25872
 C346 C 0.34322 0.05145 0.25852
 C347 C 0.32486 0.03890 0.27390
 C348 C 0.31036 0.03821 0.34222
 C349 C 0.29645 0.05440 0.35847
 C350 C 0.26910 0.05531 0.35728
 C351 C 0.25598 0.03938 0.33968
 C352 C 0.26996 0.02314 0.32339
 C353 C 0.26906 -0.04392 0.31530
 C354 C 0.25209 -0.05580 0.33285
 C355 C 0.25729 -0.05580 0.36015
 C356 C 0.27953 -0.04341 0.36962
 C357 C 0.29622 -0.03117 0.35211
 C358 C 0.32434 -0.03126 0.26079
 C359 C 0.34151 -0.04440 0.24454
 C360 C 0.35916 -0.06193 0.25526
 C361 C 0.35772 -0.06662 0.28277
 C362 C 0.34053 -0.05343 0.29891
 H363 H 0.36511 -0.00330 0.30314
 H364 H 0.39722 0.01821 0.27548
 H365 H 0.33691 0.06686 0.24634
 H366 H 0.30471 0.04485 0.27335
 H367 H 0.33143 0.03794 0.34341
 H368 H 0.30711 0.06613 0.37211
 H369 H 0.25952 0.01146 0.30952
 H370 H 0.26493 -0.04432 0.29428
 H371 H 0.23519 -0.06542 0.32510
 H372 H 0.28386 -0.04310 0.39059
 H373 H 0.31327 -0.02171 0.35974
 H374 H 0.31149 -0.01756 0.25207
 H375 H 0.34048 -0.04086 0.22352
 H376 H 0.37100 -0.07919 0.29255
 H377 H 0.34087 -0.05662 0.32007
 H378 H 0.23495 0.03988 0.33806
 C379 C 0.67388 -0.00381 0.67818
 C380 C 0.67519 0.02144 0.67940
 C381 C 0.65978 0.03594 0.69881
 C382 C 0.69116 0.03599 0.66057
 C383 C 0.69143 -0.01823 0.66059
 C384 C 0.65532 -0.01826 0.69479
 C385 C 0.64202 0.05380 0.68978
 C386 C 0.62604 0.06638 0.70762
 C387 C 0.62777 0.06160 0.73492
 C388 C 0.64626 0.04428 0.74399
 C389 C 0.66216 0.03159 0.72608
 C390 C 0.68579 0.03531 0.63335
 C391 C 0.69976 0.05040 0.61590
 C392 C 0.71947 0.06617 0.62540
 C393 C 0.72502 0.06656 0.65261
 C394 C 0.71077 0.05178 0.67009
 C395 C 0.68094 -0.03514 0.64235
 C396 C 0.69732 -0.04936 0.62629
 C397 C 0.72456 -0.04716 0.62841
 C398 C 0.73497 -0.03030 0.64689
 C399 C 0.71857 -0.01601 0.66284
 C400 C 0.66426 -0.03863 0.70947
 C401 C 0.64725 -0.05204 0.72561
 C402 C 0.62076 -0.04524 0.72782
 C403 C 0.61189 -0.02491 0.71264
 C404 C 0.62882 -0.01199 0.69597
 H405 H 0.63991 0.05737 0.66879
 H406 H 0.61179 0.07931 0.69992
 H407 H 0.64841 0.04051 0.76492
 H408 H 0.67606 0.01812 0.73341
 H409 H 0.67047 0.02345 0.62574
 H410 H 0.69525 0.04972 0.59497
 H411 H 0.71498 0.05265 0.69108
 H412 H 0.66003 -0.03718 0.64043
 H413 H 0.68865 -0.06190 0.61203
 H414 H 0.75583 -0.02848 0.64939
 H415 H 0.72704 -0.00347 0.67723
 H416 H 0.68462 -0.04388 0.70884
 H417 H 0.65538 -0.06698 0.73729
 H418 H 0.59160 -0.01952 0.71259
 H419 H 0.62118 0.00300 0.68399
 H420 H 0.74000 0.07872 0.66038
 C421 C 0.31435 1.01627 0.68555
 C422 C 0.31386 0.99100 0.68544
 C423 C 0.33056 0.97590 0.70314
 C424 C 0.29789 0.97702 0.66615
 C425 C 0.29676 1.03068 0.66806
 C426 C 0.33279 1.03052 0.70245
 C427 C 0.34844 0.95921 0.69208
 C428 C 0.36503 0.94547 0.70827
 C429 C 0.36381 0.94782 0.73596
 C430 C 0.34545 0.96422 0.74703
 C431 C 0.32896 0.97815 0.73074
 C432 C 0.30430 0.97735 0.63919
 C433 C 0.29061 0.96244 0.62134
 C434 C 0.27013 0.94729 0.63019
 C435 C 0.26332 0.94748 0.65709
 C436 C 0.27735 0.96204 0.67502
 C437 C 0.26963 1.02852 0.67040
 C438 C 0.25321 1.04116 0.65293
 C439 C 0.26363 1.05618 0.63275
 C440 C 0.29087 1.05864 0.63087
 C441 C 0.30725 1.04613 0.64848
 C442 C 0.32348 1.04958 0.71887
 C443 C 0.34049 1.06243 0.73561
 C444 C 0.36707 1.05632 0.73630
 C445 C 0.37651 1.03774 0.71934
 C446 C 0.35960 1.02523 0.70227
 H447 H 0.35004 0.95731 0.67080
 H448 H 0.37924 0.93342 0.69903
 H449 H 0.34372 0.96619 0.76827
 H450 H 0.31503 0.99074 0.73962
 H451 H 0.32031 0.98867 0.63215
 H452 H 0.29608 0.96259 0.60065
 H453 H 0.27235 0.96150 0.69583
 H454 H 0.26122 1.01690 0.68565
 H455 H 0.23235 1.03923 0.65529
 H456 H 0.29959 1.06973 0.61537
 H457 H 0.32817 1.04794 0.64637
 H458 H 0.30294 1.05416 0.71910
 H459 H 0.33281 1.07674 0.74849
 H460 H 0.39702 1.03306 0.71917
 H461 H 0.36740 1.01123 0.68910
 H462 H 0.24770 0.93578 0.66432
 C463 C 0.69707 1.01245 0.30825
 C464 C 0.69572 0.98720 0.30980
 C465 C 0.67826 0.97278 0.29198
 C466 C 0.71062 0.97299 0.32999
 C467 C 0.71514 1.02731 0.32498
 C468 C 0.67869 1.02658 0.29139
 C469 C 0.65927 0.95704 0.30277
 C470 C 0.64193 0.94432 0.28628
 C471 C 0.64336 0.94694 0.25862
 C472 C 0.66282 0.96230 0.24785
 C473 C 0.68017 0.97501 0.26437
 C474 C 0.70937 0.97942 0.35692
 C475 C 0.72430 0.96664 0.37557
 C476 C 0.74014 0.94670 0.36777
 C477 C 0.74062 0.93963 0.34102
 C478 C 0.72602 0.95271 0.32228
 C479 C 0.74191 1.02219 0.32589
 C480 C 0.75827 1.03538 0.34307
 C481 C 0.74834 1.05438 0.35958
 C482 C 0.72140 1.05967 0.35784
 C483 C 0.70518 1.04641 0.34078
 C484 C 0.68799 1.04072 0.27011
 C485 C 0.67066 1.05416 0.25429
 C486 C 0.64388 1.05412 0.25999
 C487 C 0.63467 1.04019 0.28153
 C488 C 0.65194 1.02641 0.29702
 H489 H 0.65747 0.95508 0.32402
 H490 H 0.62700 0.93287 0.29523
 H491 H 0.66474 0.96437 0.22663
 H492 H 0.69502 0.98670 0.25563
 H493 H 0.69696 0.99447 0.36347
 H494 H 0.72322 0.97210 0.39617
 H495 H 0.72705 0.94727 0.30167
 H496 H 0.75012 1.00783 0.31343
 H497 H 0.77881 1.03100 0.34261
 H498 H 0.71216 1.07313 0.37062
 H499 H 0.68453 1.05054 0.34063
 H500 H 0.70862 1.04113 0.26565
 H501 H 0.67816 1.06492 0.23787
 H502 H 0.61409 1.03983 0.28620
 H503 H 0.64452 1.01575 0.31356
 H504 H 0.75266 0.92428 0.33456
 O505 O 0.86599 0.83062 0.48515
 O506 O 0.82457 0.86433 0.53221
 O507 O 0.86013 0.82957 0.53605
 O508 O 0.82919 0.86403 0.48112
 O509 O 0.79959 0.83446 0.47754
 O510 O 0.83000 0.80056 0.53237
 O511 O 0.79447 0.83525 0.52880
 O512 O 0.83601 0.80143 0.48128
 Cu513 Cu 0.84795 0.85008 0.50903
 Cu514 Cu 0.81201 0.81501 0.50476
 C515 C 0.85819 0.81027 0.47521
 C516 C 0.80234 0.85579 0.53837
 C517 C 0.85045 0.80893 0.54334
 C518 C 0.80907 0.85502 0.46995
 O519 O 0.12522 0.16126 0.47022
 O520 O 0.16590 0.13053 0.52076
 O521 O 0.13125 0.16581 0.52114
 O522 O 0.15981 0.12543 0.46998
 O523 O 0.19103 0.15291 0.46356
 O524 O 0.16210 0.19356 0.51416
 O525 O 0.19668 0.15849 0.51436
 O526 O 0.15653 0.18855 0.46334
 Cu527 Cu 0.14241 0.14298 0.49611
 Cu528 Cu 0.17968 0.17612 0.48808
 C529 C 0.13388 0.18032 0.45826
 C530 C 0.18821 0.13937 0.52630
 C531 C 0.14178 0.18659 0.52642
 C532 C 0.18053 0.13212 0.45825
 O533 O 0.16206 0.87023 0.47470
 O534 O 0.12294 0.83832 0.52589
 O535 O 0.15719 0.87388 0.52588
 O536 O 0.12659 0.83526 0.47443
 O537 O 0.15798 0.80760 0.47869
 O538 O 0.18833 0.84593 0.53048
 O539 O 0.15381 0.81005 0.52983
 O540 O 0.19321 0.84243 0.47997
 Cu541 Cu 0.13904 0.85719 0.49970
 Cu542 Cu 0.17637 0.82365 0.50525
 C543 C 0.18458 0.86195 0.46897
 C544 C 0.13171 0.81860 0.53646
 C545 C 0.17814 0.86661 0.53675
 C546 C 0.13700 0.81480 0.46778
 O547 O 0.87450 0.16940 0.52521
 O548 O 0.83815 0.13333 0.47459
 O549 O 0.87481 0.16652 0.47358
 O550 O 0.83957 0.13407 0.52635
 O551 O 0.80827 0.16212 0.52461
 O552 O 0.84532 0.19639 0.47383
 O553 O 0.80869 0.16309 0.47328
 O554 O 0.84334 0.19762 0.52472
 Cu555 Cu 0.85979 0.14790 0.50012
 Cu556 Cu 0.82331 0.18265 0.49914
 C557 C 0.86509 0.18992 0.53331
 C558 C 0.81726 0.14240 0.46505
 C559 C 0.86629 0.18707 0.46491
 C560 C 0.81771 0.14221 0.53416
 O561 O 0.47281 0.86649 0.82915
 O562 O 0.52378 0.83519 0.86766
 O563 O 0.52317 0.86903 0.83037
 O564 O 0.47327 0.83106 0.86425
 O565 O 0.47649 0.80295 0.83265
 O566 O 0.52726 0.83965 0.80013
 O567 O 0.52686 0.80622 0.83695
 O568 O 0.47650 0.83826 0.79772
 Cu569 Cu 0.49797 0.85329 0.85102
 Cu570 Cu 0.50212 0.81892 0.81375
 C571 C 0.46600 0.85788 0.80681
 C572 C 0.53396 0.81529 0.85904
 C573 C 0.53375 0.86063 0.80945
 C574 C 0.46624 0.81052 0.85401
 O575 O 0.52988 0.16649 0.13489
 O576 O 0.47851 0.12964 0.16790
 O577 O 0.47923 0.16403 0.13124
 O578 O 0.52915 0.13141 0.17036
 O579 O 0.52493 0.15913 0.20224
 O580 O 0.47681 0.19299 0.16202
 O581 O 0.47458 0.15901 0.19812
 O582 O 0.52742 0.19429 0.16686
 Cu583 Cu 0.50448 0.14504 0.14794
 Cu584 Cu 0.50069 0.17925 0.18538
 C585 C 0.53761 0.18662 0.14547
 C586 C 0.46768 0.13820 0.18861
 C587 C 0.46955 0.18417 0.13987
 C588 C 0.53533 0.13950 0.19312
 O589 O 0.47299 0.16398 0.88240
 O590 O 0.52011 0.13358 0.83806
 O591 O 0.52331 0.16329 0.87806
 O592 O 0.46968 0.13350 0.84148
 O593 O 0.46813 0.16543 0.81414
 O594 O 0.52028 0.19605 0.85198
 O595 O 0.51884 0.16612 0.81158
 O596 O 0.46973 0.19532 0.85438
 Cu597 Cu 0.49650 0.14532 0.86274
 Cu598 Cu 0.49402 0.18394 0.83029
 C599 C 0.46346 0.18489 0.87596
 C600 C 0.52783 0.14483 0.81742
 C601 C 0.53088 0.18484 0.87131
 C602 C 0.46007 0.14416 0.82127
 O603 O 0.47781 0.84052 0.12522
 O604 O 0.53031 0.87153 0.16290
 O605 O 0.52826 0.84081 0.12226
 O606 O 0.47932 0.87096 0.16474
 O607 O 0.48029 0.83878 0.19171
 O608 O 0.53100 0.80971 0.15055
 O609 O 0.53119 0.84004 0.19076
 O610 O 0.48081 0.80814 0.15189
 Cu611 Cu 0.50395 0.85925 0.14110
 Cu612 Cu 0.50606 0.82109 0.17408
 C613 C 0.47065 0.81884 0.13202
 C614 C 0.53953 0.86116 0.18348
 C615 C 0.53774 0.81995 0.12897
 C616 C 0.47097 0.85977 0.18517
 O617 O 0.84003 0.46711 0.87134
 O618 O 0.87856 0.51751 0.84110
 O619 O 0.84172 0.51491 0.87662
 O620 O 0.87696 0.46890 0.83606
 O621 O 0.84662 0.47184 0.80529
 O622 O 0.81314 0.51981 0.84441
 O623 O 0.84991 0.51998 0.80860
 O624 O 0.81009 0.47171 0.84040
 Cu625 Cu 0.86239 0.49178 0.85936
 Cu626 Cu 0.82703 0.49633 0.82150
 C627 C 0.81832 0.46096 0.86115
 C628 C 0.87089 0.52717 0.81952
 C629 C 0.82136 0.52518 0.86744
 C630 C 0.86745 0.46207 0.81399
 O631 O 0.15676 0.48357 0.12221
 O632 O 0.11683 0.52784 0.15962
 O633 O 0.15221 0.53152 0.12234
 O634 O 0.12267 0.48003 0.16043
 O635 O 0.15285 0.48484 0.19114
 O636 O 0.18387 0.53360 0.15178
 O637 O 0.14871 0.53271 0.18856
 O638 O 0.18715 0.48545 0.15308
 Cu639 Cu 0.13398 0.50543 0.13812
 Cu640 Cu 0.17129 0.50944 0.17411
 C641 C 0.17869 0.47683 0.13128
 C642 C 0.12593 0.53786 0.18040
 C643 C 0.17345 0.54106 0.13045
 C644 C 0.13248 0.47409 0.18267
 O645 O 0.83524 0.52361 0.12684
 O646 O 0.86570 0.47621 0.16870
 O647 O 0.83191 0.47543 0.13028
 O648 O 0.86684 0.52479 0.16734
 O649 O 0.83401 0.52656 0.19539
 O650 O 0.79890 0.47916 0.15798
 O651 O 0.83274 0.47818 0.19659
 O652 O 0.80278 0.52691 0.15521
 Cu653 Cu 0.85327 0.49974 0.14554
 Cu654 Cu 0.81389 0.50290 0.17916
 C655 C 0.81383 0.53341 0.13378
 C656 C 0.85447 0.46888 0.18964
 C657 C 0.80913 0.46928 0.13774
 C658 C 0.85613 0.53417 0.18774
 O659 O 0.15641 0.52544 0.88253
 O660 O 0.12037 0.47697 0.84664
 O661 O 0.15416 0.47701 0.88571
 O662 O 0.12392 0.52493 0.84321
 O663 O 0.15674 0.52162 0.81529
 O664 O 0.18612 0.47323 0.85685
 O665 O 0.15274 0.47345 0.81818
 O666 O 0.18933 0.52141 0.85481
 Cu667 Cu 0.13548 0.50134 0.86742
 Cu668 Cu 0.17448 0.49706 0.83347
 C669 C 0.17898 0.53178 0.87480
 C670 C 0.13020 0.46712 0.82611
 C671 C 0.17538 0.46691 0.87843
 C672 C 0.13529 0.53153 0.82200
 C673 C 0.26062 0.39442 0.11228
 C674 C 0.25749 0.39276 0.08474
 C675 C 0.23962 0.40834 0.07191
 C676 C 0.22467 0.42527 0.08651
 C677 C 0.22817 0.42713 0.11421
 C678 C 0.24625 0.41166 0.12690
 C679 C 0.21334 0.44423 0.12876
 C680 C 0.19456 0.45901 0.11607
 C681 C 0.19098 0.45673 0.08860
 C682 C 0.20606 0.44017 0.07391
 H683 H 0.23697 0.40684 0.05068
 H684 H 0.24911 0.41274 0.14811
 H685 H 0.21606 0.44572 0.14998
 H686 H 0.20306 0.43891 0.05272
 H687 H 0.27438 0.38250 0.12241
 H688 H 0.17670 0.46802 0.07840
 C689 C 0.73455 0.61451 0.10162
 C690 C 0.74301 0.61771 0.07537
 C691 C 0.76470 0.60419 0.06637
 C692 C 0.77735 0.58729 0.08316
 C693 C 0.76825 0.58383 0.10930
 C694 C 0.74700 0.59770 0.11840
 C695 C 0.78035 0.56637 0.12582
 C696 C 0.80159 0.55236 0.11663
 C697 C 0.81078 0.55627 0.09076
 C698 C 0.79873 0.57352 0.07415
 H699 H 0.77128 0.60629 0.04612
 H700 H 0.73990 0.59544 0.13844
 H701 H 0.77317 0.56366 0.14578
 H702 H 0.80601 0.57596 0.05419
 H703 H 0.71822 0.62504 0.10922
 H704 H 0.82711 0.54571 0.08318
 C705 C 0.78522 0.38480 0.94674
 C706 C 0.76252 0.37618 0.93411
 C707 C 0.75592 0.38579 0.90911
 C708 C 0.77146 0.40401 0.89711
 C709 C 0.79415 0.41262 0.91005
 C710 C 0.80092 0.40279 0.93480
 C711 C 0.80954 0.43104 0.89814
 C712 C 0.80242 0.44117 0.87351
 C713 C 0.77983 0.43238 0.86082
 C714 C 0.76455 0.41393 0.87246
 H715 H 0.73870 0.37907 0.89894
 H716 H 0.81819 0.40923 0.94506
 H717 H 0.82686 0.43766 0.90819
 H718 H 0.74722 0.40753 0.86225
 H719 H 0.79058 0.37801 0.96616
 H720 H 0.77393 0.43977 0.84181
 C721 C 0.27429 0.59219 0.91390
 C722 C 0.26047 0.60961 0.92908
 C723 C 0.23319 0.60819 0.93027
 C724 C 0.21981 0.58940 0.91663
 C725 C 0.23383 0.57215 0.90106
 C726 C 0.26107 0.57373 0.89982
 C727 C 0.22040 0.55351 0.88720
 C728 C 0.19317 0.55152 0.88917
 C729 C 0.17948 0.56855 0.90501
 C730 C 0.19265 0.58743 0.91845
 H731 H 0.22248 0.62143 0.94223
 H732 H 0.27215 0.56062 0.88808
 H733 H 0.23117 0.54034 0.87522
 H734 H 0.18161 0.60043 0.93037
 H735 H 0.29533 0.59308 0.91271
 H736 H 0.15849 0.56744 0.90677
 C737 C 0.10536 0.26128 0.37628
 C738 C 0.07889 0.25511 0.37328
 C739 C 0.06895 0.23435 0.38688
 C740 C 0.08507 0.22033 0.40367
 C741 C 0.11150 0.22708 0.40687
 C742 C 0.12149 0.24743 0.39291
 C743 C 0.12743 0.21361 0.42427
 C744 C 0.11735 0.19344 0.43869
 C745 C 0.09116 0.18658 0.43498
 C746 C 0.07516 0.19991 0.41765
 H747 H 0.04854 0.22949 0.38496
 H748 H 0.14175 0.25276 0.39499
 H749 H 0.14759 0.21910 0.42683
 H750 H 0.05497 0.19442 0.41541
 H751 H 0.11366 0.27685 0.36567
 H752 H 0.08287 0.17114 0.44582
 C753 C 0.09230 0.72809 0.60037
 C754 C 0.07422 0.74078 0.61618
 C755 C 0.07131 0.76658 0.61332
 C756 C 0.08615 0.77957 0.59449
 C757 C 0.10464 0.76666 0.57895
 C758 C 0.10759 0.74094 0.58209
 C759 C 0.11968 0.77963 0.56034
 C760 C 0.11604 0.80524 0.55646
 C761 C 0.09730 0.81784 0.57162
 C762 C 0.08267 0.80517 0.59067
 H763 H 0.05715 0.77636 0.62533
 H764 H 0.12156 0.73075 0.57026
 H765 H 0.13386 0.76968 0.54852
 H766 H 0.06850 0.81534 0.60228
 H767 H 0.09474 0.70819 0.60240
 H768 H 0.09421 0.83758 0.56897
 C769 C 0.88707 0.73721 0.38513
 C770 C 0.91414 0.74089 0.38603
 C771 C 0.92465 0.75766 0.40446
 C772 C 0.90830 0.77073 0.42177
 C773 C 0.88109 0.76659 0.42108
 C774 C 0.87068 0.74980 0.40266
 C775 C 0.86478 0.77938 0.43872
 C776 C 0.87526 0.79670 0.45664
 C777 C 0.90227 0.80097 0.45681
 C778 C 0.91867 0.78797 0.43969
 H779 H 0.94552 0.76077 0.40500
 H780 H 0.84988 0.74646 0.40176
 H781 H 0.84394 0.77612 0.43826
 H782 H 0.93945 0.79144 0.44042
 H783 H 0.87866 0.72428 0.37110
 H784 H 0.91079 0.81416 0.47050
 C785 C 0.94365 0.21649 0.62257
 C786 C 0.93923 0.24223 0.62241
 C787 C 0.92092 0.25222 0.60476
 C788 C 0.90711 0.23672 0.58742
 C789 C 0.91201 0.21086 0.58723
 C790 C 0.93030 0.20093 0.60496
 C791 C 0.89845 0.19546 0.56940
 C792 C 0.87963 0.20560 0.55229
 C793 C 0.87470 0.23128 0.55307
 C794 C 0.88843 0.24670 0.57030
 H795 H 0.91722 0.27205 0.60480
 H796 H 0.93426 0.18117 0.60524
 H797 H 0.90227 0.17566 0.56907
 H798 H 0.88439 0.26646 0.57025
 H799 H 0.95777 0.20850 0.63603
 H800 H 0.86042 0.23956 0.53998
 C801 C 0.40714 0.04533 0.22717
 C802 C 0.38900 0.05795 0.24304
 C803 C 0.38972 0.08400 0.24420
 C804 C 0.40850 0.09734 0.22994
 C805 C 0.42657 0.08455 0.21381
 C806 C 0.42565 0.05852 0.21250
 C807 C 0.44547 0.09799 0.19967
 C808 C 0.44694 0.12398 0.20206
 C809 C 0.42892 0.13642 0.21825
 C810 C 0.40974 0.12326 0.23188
 H811 H 0.37602 0.09384 0.25670
 H812 H 0.43937 0.04838 0.20033
 H813 H 0.45945 0.08820 0.18744
 H814 H 0.39609 0.13334 0.24419
 H815 H 0.40680 0.02525 0.22593
 H816 H 0.42961 0.15643 0.22033
 C817 C 0.59894 0.06091 0.77502
 C818 C 0.60978 0.07411 0.75368
 C819 C 0.60259 0.09907 0.74981
 C820 C 0.58448 0.11050 0.76662
 C821 C 0.57363 0.09699 0.78789
 C822 C 0.58112 0.07227 0.79202
 C823 C 0.55529 0.10834 0.80451
 C824 C 0.54743 0.13302 0.80004
 C825 C 0.55839 0.14628 0.77884
 C826 C 0.57682 0.13516 0.76233
 H827 H 0.61105 0.10961 0.73369
 H828 H 0.57292 0.06160 0.80817
 H829 H 0.54697 0.09786 0.82075
 H830 H 0.58494 0.14579 0.74611
 H831 H 0.60378 0.04158 0.77824
 H832 H 0.55276 0.16532 0.77500
 C833 C 0.39307 0.94460 0.77568
 C834 C 0.38209 0.93360 0.75301
 C835 C 0.38943 0.90923 0.74618
 C836 C 0.40790 0.89631 0.76130
 C837 C 0.41887 0.90765 0.78392
 C838 C 0.41118 0.93171 0.79105
 C839 C 0.43758 0.89487 0.79885
 C840 C 0.44579 0.87097 0.79130
 C841 C 0.43473 0.85986 0.76876
 C842 C 0.41584 0.87237 0.75397
 H843 H 0.38084 0.90030 0.72904
 H844 H 0.41949 0.94072 0.80829
 H845 H 0.44602 0.90372 0.81612
 H846 H 0.40764 0.86340 0.73667
 H847 H 0.38813 0.96345 0.78120
 H848 H 0.44064 0.84145 0.76258
 C849 C 0.61369 0.94606 0.21901
 C850 C 0.62440 0.93394 0.24115
 C851 C 0.61650 0.90950 0.24683
 C852 C 0.59797 0.89746 0.23092
 C853 C 0.58718 0.90988 0.20885
 C854 C 0.59529 0.93414 0.20300
 C855 C 0.56833 0.89792 0.19317
 C856 C 0.56000 0.87369 0.19937
 C857 C 0.57108 0.86152 0.22129
 C858 C 0.58989 0.87325 0.23686
 H859 H 0.62486 0.89979 0.26359
 H860 H 0.58721 0.94400 0.18621
 H861 H 0.55997 0.90756 0.17636
 H862 H 0.59798 0.86344 0.25368
 H863 H 0.61917 0.96498 0.21436
 H864 H 0.56513 0.84286 0.22653
 C865 C 0.36825 0.24814 0.90769
 C866 C 0.37529 0.25276 0.93438
 C867 C 0.39830 0.24129 0.94399
 C868 C 0.41365 0.22618 0.92759
 C869 C 0.40682 0.22303 0.90075
 C870 C 0.38400 0.23389 0.89110
 C871 C 0.42303 0.20923 0.88395
 C872 C 0.44545 0.19768 0.89396
 C873 C 0.45143 0.19974 0.92095
 C874 C 0.43582 0.21415 0.93761
 H875 H 0.40383 0.24293 0.96460
 H876 H 0.37843 0.23157 0.87055
 H877 H 0.41826 0.20741 0.86313
 H878 H 0.44122 0.21607 0.95824
 H879 H 0.35151 0.25690 0.89864
 H880 H 0.46874 0.19099 0.92891
 C881 C 0.61674 0.73547 0.88523
 C882 C 0.62134 0.74251 0.91163
 C883 C 0.60857 0.76352 0.92186
 C884 C 0.59087 0.77687 0.90617
 C885 C 0.58597 0.76924 0.87987
 C886 C 0.59923 0.74870 0.86950
 C887 C 0.56763 0.78204 0.86447
 C888 C 0.55404 0.80243 0.87498
 C889 C 0.55941 0.81015 0.90102
 C890 C 0.57763 0.79747 0.91648
 H891 H 0.61174 0.76899 0.94225
 H892 H 0.59586 0.74270 0.84932
 H893 H 0.56380 0.77596 0.84439
 H894 H 0.58117 0.80361 0.93659
 H895 H 0.62666 0.71961 0.87675
 H896 H 0.54925 0.82582 0.90960
 C897 C 0.41547 0.72855 0.08166
 C898 C 0.39426 0.74124 0.07003
 C899 C 0.39274 0.76727 0.07340
 C900 C 0.41196 0.78019 0.08764
 C901 C 0.43259 0.76697 0.09961
 C902 C 0.43416 0.74122 0.09649
 C903 C 0.45146 0.77974 0.11436
 C904 C 0.45053 0.80571 0.11660
 C905 C 0.43042 0.81885 0.10402
 C906 C 0.41109 0.80617 0.08991
 H907 H 0.37732 0.77778 0.06398
 H908 H 0.44987 0.73081 0.10555
 H909 H 0.46718 0.76951 0.12369
 H910 H 0.39555 0.81667 0.08068
 H911 H 0.41715 0.70855 0.08045
 H912 H 0.42940 0.83889 0.10553
 C913 C 0.61296 0.22098 0.05679
 C914 C 0.62453 0.24080 0.07066
 C915 C 0.61692 0.24525 0.09699
 C916 C 0.59777 0.23053 0.10907
 C917 C 0.58623 0.21074 0.09490
 C918 C 0.59409 0.20604 0.06881
 C919 C 0.56684 0.19619 0.10694
 C920 C 0.55857 0.20140 0.13290
 C921 C 0.57026 0.22112 0.14677
 C922 C 0.58975 0.23546 0.13504
 H923 H 0.62591 0.26018 0.10813
 H924 H 0.58540 0.19102 0.05758
 H925 H 0.55794 0.18110 0.09597
 H926 H 0.59839 0.25056 0.14620
 H927 H 0.61808 0.21731 0.03638
 H928 H 0.56437 0.22549 0.16681
 C929 C 0.22371 0.05690 0.60392
 C930 C 0.24624 0.06884 0.61345
 C931 C 0.25230 0.09275 0.60401
 C932 C 0.23638 0.10437 0.58514
 C933 C 0.21382 0.09217 0.57575
 C934 C 0.20761 0.06848 0.58534
 C935 C 0.19797 0.10376 0.55675
 C936 C 0.20457 0.12732 0.54674
 C937 C 0.22709 0.13925 0.55624
 C938 C 0.24278 0.12794 0.57534
 H939 H 0.26936 0.10239 0.61141
 H940 H 0.19046 0.05878 0.57828
 H941 H 0.18073 0.09430 0.54954
 H942 H 0.26001 0.13757 0.58231
 H943 H 0.21875 0.03834 0.61044
 H944 H 0.23259 0.15742 0.54895
 C945 C 0.78768 0.05683 0.38795
 C946 C 0.76462 0.06753 0.37766
 C947 C 0.75788 0.09163 0.38640
 C948 C 0.77291 0.10416 0.40532
 C949 C 0.79551 0.09293 0.41579
 C950 C 0.80283 0.06935 0.40676
 C951 C 0.81022 0.10543 0.43519
 C952 C 0.80246 0.12903 0.44424
 C953 C 0.78005 0.14004 0.43333
 C954 C 0.76548 0.12778 0.41406
 H955 H 0.74129 0.10125 0.37808
 H956 H 0.82008 0.06037 0.41458
 H957 H 0.82749 0.09673 0.44333
 H958 H 0.74824 0.13672 0.40617
 H959 H 0.79361 0.03822 0.38265
 H960 H 0.77361 0.15822 0.43975
 C961 C 0.76499 0.94797 0.60097
 C962 C 0.74204 0.93763 0.61144
 C963 C 0.73590 0.91272 0.60554
 C964 C 0.75235 0.89845 0.58936
 C965 C 0.77537 0.90910 0.57910
 C966 C 0.78152 0.93384 0.58504
 C967 C 0.79178 0.89491 0.56286
 C968 C 0.78538 0.87022 0.55640
 C969 C 0.76242 0.85981 0.56671
 C970 C 0.74611 0.87376 0.58315
 H971 H 0.71848 0.90436 0.61373
 H972 H 0.79904 0.94233 0.57720
 H973 H 0.80933 0.90327 0.55492
 H974 H 0.72853 0.86529 0.59084
 H975 H 0.77001 0.96717 0.60480
 H976 H 0.75704 0.84085 0.56206
 C977 C 0.21285 0.93463 0.37800
 C978 C 0.23991 0.93083 0.37868
 C979 C 0.25042 0.91403 0.39704
 C980 C 0.23412 0.90107 0.41451
 C981 C 0.20693 0.90529 0.41406
 C982 C 0.19650 0.92211 0.39569
 C983 C 0.19070 0.89256 0.43191
 C984 C 0.20130 0.87530 0.44982
 C985 C 0.22832 0.87101 0.44971
 C986 C 0.24458 0.88387 0.43237
 H987 H 0.27126 0.91077 0.39741
 H988 H 0.17572 0.92554 0.39495
 H989 H 0.16989 0.89592 0.43169
 H990 H 0.26536 0.88035 0.43292
 H991 H 0.20441 0.94756 0.36401
 H992 H 0.23700 0.85792 0.46339
 C993 C 0.11103 0.38024 0.74798
 C994 C 0.08377 0.37964 0.75018
 C995 C 0.07123 0.39640 0.76722
 C996 C 0.08575 0.41359 0.78199
 C997 C 0.11315 0.41441 0.77929
 C998 C 0.12560 0.39762 0.76226
 C999 C 0.12762 0.43197 0.79369
 C1000 C 0.11509 0.44839 0.81117
 C1001 C 0.08790 0.44706 0.81407
 C1002 C 0.07333 0.42994 0.79948
 H1003 H 0.05020 0.39578 0.76922
 H1004 H 0.14659 0.39790 0.76002
 H1005 H 0.14861 0.43269 0.79146
 H1006 H 0.05236 0.42950 0.80188
 H1007 H 0.12100 0.36749 0.73487
 H1008 H 0.07780 0.45957 0.82735
 C1009 C 0.10005 0.62911 0.24991
 C1010 C 0.07331 0.62404 0.25367
 C1011 C 0.06265 0.60274 0.24146
 C1012 C 0.07817 0.58704 0.22595
 C1013 C 0.10506 0.59195 0.22323
 C1014 C 0.11577 0.61305 0.23522
 C1015 C 0.12073 0.57571 0.20845
 C1016 C 0.10959 0.55520 0.19555
 C1017 C 0.08269 0.55095 0.19760
 C1018 C 0.06713 0.56657 0.21294
 H1019 H 0.04199 0.59884 0.24293
 H1020 H 0.13635 0.61715 0.23326
 H1021 H 0.14146 0.57921 0.20664
 H1022 H 0.04649 0.56265 0.21461
 H1023 H 0.10929 0.64487 0.25934
 H1024 H 0.07381 0.53516 0.18783
 C1025 C 0.93710 0.38980 0.21853
 C1026 C 0.92738 0.38310 0.24372
 C1027 C 0.90424 0.39478 0.25255
 C1028 C 0.89161 0.41273 0.23701
 C1029 C 0.90200 0.41931 0.21216
 C1030 C 0.92460 0.40764 0.20305
 C1031 C 0.88971 0.43755 0.19682
 C1032 C 0.86697 0.44936 0.20590
 C1033 C 0.85654 0.44244 0.23053
 C1034 C 0.86876 0.42430 0.24596
 H1035 H 0.89536 0.38953 0.27113
 H1036 H 0.93290 0.41258 0.18405
 H1037 H 0.89792 0.44255 0.17780
 H1038 H 0.86042 0.41943 0.26495
 H1039 H 0.95516 0.38230 0.21099
 H1040 H 0.83903 0.45120 0.23798
 C1041 C 0.91666 0.58865 0.72733
 C1042 C 0.93018 0.60655 0.74250
 C1043 C 0.92897 0.60473 0.77039
 C1044 C 0.91498 0.58546 0.78265
 C1045 C 0.90109 0.56820 0.76702
 C1046 C 0.90207 0.56997 0.73944
 C1047 C 0.88654 0.54935 0.77922
 C1048 C 0.88640 0.54696 0.80689
 C1049 C 0.90092 0.56370 0.82230
 C1050 C 0.91486 0.58298 0.81030
 H1051 H 0.93985 0.61754 0.78271
 H1052 H 0.89152 0.55687 0.72715
 H1053 H 0.87566 0.53628 0.76719
 H1054 H 0.92558 0.59590 0.82264
 H1055 H 0.91623 0.58960 0.70595
 H1056 H 0.90103 0.56218 0.84367
 C1057 C 0.74469 0.61110 0.89127
 C1058 C 0.74718 0.61084 0.91894
 C1059 C 0.76399 0.59361 0.93092
 C1060 C 0.77840 0.57692 0.91536
 C1061 C 0.77544 0.57707 0.88753
 C1062 C 0.75853 0.59423 0.87569
 C1063 C 0.78949 0.56013 0.87199
 C1064 C 0.80691 0.54332 0.88381
 C1065 C 0.81009 0.54366 0.91145
 C1066 C 0.79582 0.56018 0.92710
 H1067 H 0.76616 0.59353 0.95227
 H1068 H 0.75609 0.59467 0.85440
 H1069 H 0.78704 0.56018 0.85068
 H1070 H 0.79843 0.55986 0.94838
 H1071 H 0.73174 0.62421 0.88173
 H1072 H 0.82332 0.53083 0.92103
 C1073 C 0.25587 0.38561 0.90608
 C1074 C 0.24972 0.38303 0.93306
 C1075 C 0.22871 0.39669 0.94352
 C1076 C 0.21463 0.41325 0.92741
 C1077 C 0.22162 0.41611 0.90054
 C1078 C 0.24202 0.40200 0.89002
 C1079 C 0.20837 0.43331 0.88466
 C1080 C 0.18807 0.44781 0.89514
 C1081 C 0.18077 0.44441 0.92170
 C1082 C 0.19399 0.42733 0.93773
 H1083 H 0.22382 0.39500 0.96430
 H1084 H 0.24745 0.40381 0.86939
 H1085 H 0.21408 0.43556 0.86415
 H1086 H 0.18828 0.42535 0.95825
 H1087 H 0.27153 0.37493 0.89734
 H1088 H 0.16520 0.45534 0.93026
 C1089 C 0.26099 0.61562 0.10392
 C1090 C 0.25279 0.62231 0.07817
 C1091 C 0.22892 0.61238 0.06883
 C1092 C 0.21440 0.59567 0.08430
 C1093 C 0.22346 0.58893 0.10965
 C1094 C 0.24654 0.59922 0.11938
 C1095 C 0.20957 0.57165 0.12479
 C1096 C 0.18672 0.56063 0.11489
 C1097 C 0.17752 0.56774 0.08981
 C1098 C 0.19124 0.58513 0.07465
 H1099 H 0.22213 0.61638 0.04901
 H1100 H 0.25356 0.59449 0.13897
 H1101 H 0.21691 0.56645 0.14413
 H1102 H 0.18392 0.59007 0.05523
 H1103 H 0.27827 0.62355 0.11279
 H1104 H 0.15997 0.55955 0.08170
 C1105 C 0.78705 0.37408 0.07229
 C1106 C 0.75970 0.37671 0.07063
 C1107 C 0.74823 0.39770 0.08267
 C1108 C 0.76343 0.41543 0.09584
 C1109 C 0.79079 0.41280 0.09675
 C1110 C 0.80238 0.39204 0.08491
 C1111 C 0.80595 0.43080 0.10983
 C1112 C 0.79387 0.45083 0.12275
 C1113 C 0.76662 0.45299 0.12200
 C1114 C 0.75155 0.43561 0.10846
 H1115 H 0.72726 0.39985 0.08302
 H1116 H 0.82333 0.38967 0.08542
 H1117 H 0.82696 0.42887 0.11062
 H1118 H 0.73058 0.43784 0.10806
 H1119 H 0.79696 0.35872 0.06286
 H1120 H 0.75693 0.46834 0.13176
 C1121 C 0.93915 0.77602 0.61897
 C1122 C 0.92836 0.75297 0.62677
 C1123 C 0.90311 0.74700 0.61751
 C1124 C 0.88958 0.76294 0.60039
 C1125 C 0.90105 0.78550 0.59229
 C1126 C 0.92570 0.79198 0.60194
 C1127 C 0.88789 0.80096 0.57429
 C1128 C 0.86341 0.79398 0.56414
 C1129 C 0.85193 0.77175 0.57296
 C1130 C 0.86484 0.75643 0.59095
 H1131 H 0.89341 0.73022 0.62399
 H1132 H 0.93486 0.80921 0.59589
 H1133 H 0.89700 0.81804 0.56771
 H1134 H 0.85566 0.73925 0.59708
 H1135 H 0.95862 0.78143 0.62475
 H1136 H 0.83307 0.76594 0.56560
 C1137 C 0.91772 0.27672 0.40942
 C1138 C 0.92932 0.26369 0.38822
 C1139 C 0.92547 0.23775 0.38671
 C1140 C 0.91068 0.22522 0.40583
 C1141 C 0.89865 0.23873 0.42643
 C1142 C 0.90231 0.26444 0.42805
 C1143 C 0.88348 0.22624 0.44529
 C1144 C 0.88111 0.20029 0.44440
 C1145 C 0.89363 0.18692 0.42425
 C1146 C 0.90802 0.19931 0.40489
 H1147 H 0.93494 0.22694 0.37141
 H1148 H 0.89328 0.27508 0.44376
 H1149 H 0.87418 0.23656 0.46111
 H1150 H 0.91728 0.18862 0.38936
 H1151 H 0.91942 0.29669 0.41111
 H1152 H 0.89201 0.16688 0.42333
 C1153 C 0.06396 0.21883 0.61357
 C1154 C 0.07451 0.24260 0.61889
 C1155 C 0.09697 0.24989 0.60465
 C1156 C 0.10819 0.23424 0.58560
 C1157 C 0.09710 0.21075 0.58047
 C1158 C 0.07508 0.20320 0.59464
 C1159 C 0.10814 0.19523 0.56120
 C1160 C 0.13028 0.20286 0.54695
 C1161 C 0.14130 0.22623 0.55241
 C1162 C 0.13037 0.24176 0.57156
 H1163 H 0.10652 0.26739 0.60880
 H1164 H 0.06621 0.18528 0.59084
 H1165 H 0.09946 0.17724 0.55729
 H1166 H 0.13922 0.25970 0.57527
 H1167 H 0.04630 0.21245 0.62301
 H1168 H 0.15836 0.23259 0.54180
 C1169 C 0.05054 0.78017 0.39044
 C1170 C 0.06192 0.75736 0.38276
 C1171 C 0.08687 0.75157 0.39295
 C1172 C 0.09957 0.76751 0.41071
 C1173 C 0.08759 0.78991 0.41847
 C1174 C 0.06320 0.79616 0.40805
 C1175 C 0.10007 0.80555 0.43675
 C1176 C 0.12440 0.79898 0.44751
 C1177 C 0.13631 0.77678 0.43929
 C1178 C 0.12406 0.76123 0.42101
 H1179 H 0.09705 0.73501 0.38664
 H1180 H 0.05365 0.81326 0.41387
 H1181 H 0.09064 0.82263 0.44287
 H1182 H 0.13360 0.74414 0.41518
 H1183 H 0.03121 0.78540 0.38403
 H1184 H 0.15507 0.77127 0.44716
 C1185 C 0.58199 0.95327 0.75655
 C1186 C 0.60353 0.94143 0.74456
 C1187 C 0.60727 0.91585 0.74946
 C1188 C 0.58976 0.90242 0.76522
 C1189 C 0.56852 0.91468 0.77725
 C1190 C 0.56494 0.94012 0.77292
 C1191 C 0.55085 0.90113 0.79280
 C1192 C 0.55359 0.87531 0.79545
 C1193 C 0.57462 0.86326 0.78323
 C1194 C 0.59277 0.87674 0.76854
 H1195 H 0.62291 0.90584 0.73983
 H1196 H 0.54878 0.94985 0.78201
 H1197 H 0.53438 0.91044 0.80185
 H1198 H 0.60885 0.86699 0.75934
 H1199 H 0.57868 0.97299 0.75418
 H1200 H 0.57699 0.84334 0.78508
 C1201 C 0.38735 0.93762 0.21562
 C1202 C 0.37833 0.92631 0.23918
 C1203 C 0.38970 0.90338 0.24662
 C1204 C 0.40965 0.89255 0.23153
 C1205 C 0.41848 0.90444 0.20835
 C1206 C 0.40708 0.92684 0.20050
 C1207 C 0.43860 0.89376 0.19340
 C1208 C 0.45004 0.87119 0.20126
 C1209 C 0.44098 0.85943 0.22433
 C1210 C 0.42097 0.87000 0.23931
 H1211 H 0.38273 0.89333 0.26375
 H1212 H 0.41373 0.93629 0.18281
 H1213 H 0.44526 0.90301 0.17559
 H1214 H 0.41441 0.86056 0.25702
 H1215 H 0.38027 0.95555 0.20924
 H1216 H 0.44934 0.84201 0.23083
 C1217 C 0.62550 0.06618 0.21600
 C1218 C 0.62554 0.06870 0.24365
 C1219 C 0.60789 0.08508 0.25571
 C1220 C 0.59031 0.09883 0.24032
 C1221 C 0.59001 0.09579 0.21253
 C1222 C 0.60774 0.07948 0.20056
 C1223 C 0.57199 0.10911 0.19720
 C1224 C 0.55459 0.12581 0.20923
 C1225 C 0.55545 0.12908 0.23680
 C1226 C 0.57303 0.11558 0.25224
 H1227 H 0.60808 0.08729 0.27704
 H1228 H 0.60786 0.07699 0.17928
 H1229 H 0.57166 0.10661 0.17592
 H1230 H 0.57308 0.11822 0.27350
 H1231 H 0.63894 0.05356 0.20641
 H1232 H 0.54220 0.14179 0.24651
 C1233 C 0.40190 0.05534 0.77086
 C1234 C 0.38498 0.06916 0.75473
 C1235 C 0.38550 0.09522 0.75599
 C1236 C 0.40318 0.10739 0.77278
 C1237 C 0.42007 0.09332 0.78903
 C1238 C 0.41916 0.06731 0.78803
 C1239 C 0.43799 0.10547 0.80555
 C1240 C 0.43979 0.13152 0.80548
 C1241 C 0.42295 0.14533 0.78924
 C1242 C 0.40462 0.13338 0.77322
 H1243 H 0.37266 0.10596 0.74337
 H1244 H 0.43200 0.05623 0.80029
 H1245 H 0.45111 0.09465 0.81778
 H1246 H 0.39187 0.14446 0.76086
 H1247 H 0.40161 0.03523 0.77028
 H1248 H 0.42398 0.16542 0.78890
 C1249 C 0.62091 0.74252 0.09678
 C1250 C 0.62048 0.74717 0.06945
 C1251 C 0.60423 0.76589 0.05939
 C1252 C 0.58854 0.77993 0.07656
 C1253 C 0.58866 0.77471 0.10400
 C1254 C 0.60498 0.75603 0.11390
 C1255 C 0.57235 0.78812 0.12107
 C1256 C 0.55617 0.80702 0.11121
 C1257 C 0.55677 0.81260 0.08404
 C1258 C 0.57268 0.79906 0.06683
 H1259 H 0.60406 0.76965 0.03831
 H1260 H 0.60540 0.75185 0.13487
 H1261 H 0.57218 0.78378 0.14201
 H1262 H 0.57243 0.80343 0.04591
 H1263 H 0.63332 0.72810 0.10480
 H1264 H 0.54439 0.82701 0.07596
 C1265 C 0.38776 0.26533 0.11508
 C1266 C 0.38246 0.25836 0.08880
 C1267 C 0.39481 0.23725 0.07824
 C1268 C 0.41273 0.22370 0.09351
 C1269 C 0.41826 0.23124 0.11972
 C1270 C 0.40547 0.25191 0.13039
 C1271 C 0.43667 0.21817 0.13476
 C1272 C 0.44973 0.19755 0.12404
 C1273 C 0.44384 0.18998 0.09807
 C1274 C 0.42554 0.20296 0.08293
 H1275 H 0.39106 0.23182 0.05793
 H1276 H 0.40933 0.25785 0.15051
 H1277 H 0.44088 0.22415 0.15480
 H1278 H 0.42155 0.19688 0.06289
 H1279 H 0.37819 0.28126 0.12382
 H1280 H 0.45358 0.17415 0.08932
 C1281 C 0.59720 0.27197 0.91422
 C1282 C 0.61489 0.25770 0.92897
 C1283 C 0.61260 0.23172 0.92906
 C1284 C 0.59260 0.22007 0.91476
 C1285 C 0.57505 0.23457 0.89970
 C1286 C 0.57755 0.26050 0.89952
 C1287 C 0.55514 0.22292 0.88527
 C1288 C 0.55215 0.19699 0.88615
 C1289 C 0.56947 0.18278 0.90145
 C1290 C 0.58966 0.19420 0.91547
 H1291 H 0.62607 0.22068 0.94067
 H1292 H 0.56422 0.27189 0.88816
 H1293 H 0.54172 0.23408 0.87373
 H1294 H 0.60286 0.18281 0.92699
 H1295 H 0.59878 0.29203 0.91389
 H1296 H 0.56757 0.16276 0.90237
 C1297 C 0.39237 0.77465 0.94323
 C1298 C 0.38270 0.75351 0.93011
 C1299 C 0.39092 0.74862 0.90411
 C1300 C 0.40894 0.76424 0.89158
 C1301 C 0.41873 0.78531 0.90500
 C1302 C 0.41017 0.79044 0.93077
 C1303 C 0.43714 0.80068 0.89256
 C1304 C 0.44610 0.79506 0.86695
 C1305 C 0.43602 0.77413 0.85377
 C1306 C 0.41756 0.75893 0.86592
 H1307 H 0.38333 0.73262 0.89360
 H1308 H 0.41750 0.80646 0.94141
 H1309 H 0.44478 0.81672 0.90297
 H1310 H 0.41022 0.74288 0.85533
 H1311 H 0.38662 0.77869 0.96338
 H1312 H 0.44246 0.76942 0.83400
 C1313 C 0.77134 0.94617 0.40587
 C1314 C 0.75585 0.93312 0.38761
 C1315 C 0.75501 0.90708 0.38868
 C1316 C 0.76907 0.89418 0.40812
 C1317 C 0.78470 0.90743 0.42637
 C1318 C 0.78582 0.93342 0.42496
 C1319 C 0.79848 0.89450 0.44604
 C1320 C 0.79621 0.86856 0.44816
 C1321 C 0.78061 0.85561 0.42991
 C1322 C 0.76735 0.86827 0.40992
 H1323 H 0.74285 0.89693 0.37484
 H1324 H 0.79763 0.94391 0.43880
 H1325 H 0.81025 0.90467 0.46020
 H1326 H 0.75543 0.85783 0.39614
 H1327 H 0.77234 0.96625 0.40522
 H1328 H 0.77865 0.83561 0.43112
 C1329 C 0.27099 0.91411 0.59578
 C1330 C 0.25657 0.93054 0.61160
 C1331 C 0.22927 0.93066 0.60985
 C1332 C 0.21647 0.91464 0.59220
 C1333 C 0.23114 0.89787 0.57666
 C1334 C 0.25837 0.89775 0.57860
 C1335 C 0.21837 0.88173 0.55916
 C1336 C 0.19118 0.88264 0.55635
 C1337 C 0.17676 0.89957 0.57158
 C1338 C 0.18928 0.91527 0.58959
 H1339 H 0.21812 0.94348 0.62189
 H1340 H 0.26991 0.88510 0.56675
 H1341 H 0.22966 0.86896 0.54717
 H1342 H 0.17774 0.92807 0.60125
 H1343 H 0.29205 0.91370 0.59706
 H1344 H 0.15577 0.90056 0.56964
 C1345 C 0.26410 0.09725 0.37824
 C1346 C 0.25451 0.07306 0.37421
 C1347 C 0.23127 0.06586 0.38681
 C1348 C 0.21812 0.08241 0.40363
 C1349 C 0.22825 0.10650 0.40785
 C1350 C 0.25111 0.11380 0.39488
 C1351 C 0.21558 0.12281 0.42524
 C1352 C 0.19291 0.11537 0.43869
 C1353 C 0.18275 0.09149 0.43401
 C1354 C 0.19524 0.07517 0.41665
 H1355 H 0.22378 0.04720 0.38407
 H1356 H 0.25906 0.13226 0.39775
 H1357 H 0.22364 0.14116 0.42859
 H1358 H 0.18716 0.05678 0.41363
 H1359 H 0.28167 0.10343 0.36840
 H1360 H 0.16532 0.08526 0.44408
 C1361 C 0.72071 0.09738 0.58876
 C1362 C 0.73405 0.08241 0.60704
 C1363 C 0.76138 0.08304 0.60780
 C1364 C 0.77530 0.09822 0.59025
 C1365 C 0.76172 0.11344 0.57208
 C1366 C 0.73441 0.11293 0.57156
 C1367 C 0.77568 0.12853 0.55443
 C1368 C 0.80304 0.12798 0.55414
 C1369 C 0.81633 0.11270 0.57218
 C1370 C 0.80260 0.09814 0.59027
 H1371 H 0.77177 0.07131 0.62169
 H1372 H 0.72368 0.12439 0.55772
 H1373 H 0.76529 0.14003 0.54033
 H1374 H 0.81331 0.08654 0.60400
 H1375 H 0.69962 0.09725 0.58804
 H1376 H 0.83742 0.11202 0.57228
 C1377 C 0.94422 0.60634 0.22289
 C1378 C 0.93050 0.61759 0.24379
 C1379 C 0.90454 0.61058 0.24841
 C1380 C 0.89266 0.59214 0.23305
 C1381 C 0.90665 0.58063 0.21232
 C1382 C 0.93238 0.58804 0.20726
 C1383 C 0.89472 0.56178 0.19727
 C1384 C 0.86906 0.55424 0.20293
 C1385 C 0.85542 0.56605 0.22354
 C1386 C 0.86705 0.58483 0.23837
 H1387 H 0.89356 0.61943 0.26412
 H1388 H 0.94346 0.57946 0.19148
 H1389 H 0.90546 0.55287 0.18144
 H1390 H 0.85606 0.59350 0.25417
 H1391 H 0.96432 0.61124 0.21905
 H1392 H 0.83561 0.56078 0.22828
 C1393 C 0.95495 0.38892 0.78068
 C1394 C 0.94167 0.37772 0.75940
 C1395 C 0.91606 0.38541 0.75373
 C1396 C 0.90414 0.40424 0.76859
 C1397 C 0.91767 0.41532 0.78991
 C1398 C 0.94303 0.40742 0.79586
 C1399 C 0.90567 0.43419 0.80477
 C1400 C 0.88040 0.44235 0.79835
 C1401 C 0.86726 0.43125 0.77696
 C1402 C 0.87895 0.41231 0.76233
 H1403 H 0.90532 0.37674 0.73773
 H1404 H 0.95378 0.41578 0.81204
 H1405 H 0.91606 0.44262 0.82116
 H1406 H 0.86831 0.40404 0.74602
 H1407 H 0.97482 0.38375 0.78529
 H1408 H 0.84775 0.43705 0.77165
 C1409 C 0.05143 0.60581 0.78277
 C1410 C 0.06502 0.61469 0.76052
 C1411 C 0.09007 0.60535 0.75522
 C1412 C 0.10130 0.58734 0.77174
 C1413 C 0.08744 0.57858 0.79402
 C1414 C 0.06255 0.58798 0.79938
 C1415 C 0.09865 0.56048 0.81048
 C1416 C 0.12353 0.55086 0.80488
 C1417 C 0.13710 0.55977 0.78265
 C1418 C 0.12613 0.57786 0.76628
 H1419 H 0.10092 0.61223 0.73835
 H1420 H 0.05158 0.58141 0.81630
 H1421 H 0.08791 0.55378 0.82751
 H1422 H 0.13704 0.58436 0.74929
 H1423 H 0.03196 0.61236 0.78710
 H1424 H 0.15630 0.55276 0.77788
 C1425 C 0.06072 0.38509 0.21049
 C1426 C 0.06522 0.38536 0.23790
 C1427 C 0.08255 0.40282 0.24864
 C1428 C 0.09520 0.41998 0.23224
 C1429 C 0.09014 0.42004 0.20472
 C1430 C 0.07293 0.40243 0.19403
 C1431 C 0.10233 0.43774 0.18846
 C1432 C 0.11991 0.45500 0.19933
 C1433 C 0.12517 0.45433 0.22663
 C1434 C 0.11281 0.43711 0.24295
 H1435 H 0.08632 0.40287 0.26976
 H1436 H 0.06888 0.40210 0.17298
 H1437 H 0.09828 0.43798 0.16740
 H1438 H 0.11699 0.43723 0.26398
 H1439 H 0.04734 0.37176 0.20192
 H1440 H 0.13854 0.46749 0.23551
   
