data_POSCAR
  _audit_creation_date              2014-09-24
  _audit_creation_method            'ToBaCCo'
  _symmetry_space_group_name_H-M    'P1'
  _symmetry_Int_Tables_number       1
  _symmetry_cell_setting            triclinic
  loop_
  _symmetry_equiv_pos_as_xyz
 x,y,z
_cell_length_a 46.4920
_cell_length_b 47.1015
_cell_length_c 50.6435
_cell_angle_alpha 90.048600
_cell_angle_beta 90.225800
_cell_angle_gamma 89.639000
loop_
  _atom_site_label
  _atom_site_type_symbol
  _atom_site_fract_x
  _atom_site_fract_y
  _atom_site_fract_z
C1 C 0.26115 0.31530 -0.00121
 C2 C 0.26875 0.31944 -0.02825
 C3 C 0.29211 0.30348 -0.03840
 C4 C 0.30844 0.28477 -0.02256
 C5 C 0.29906 0.27944 0.00362
 C6 C 0.27604 0.29502 0.01395
 H7 H 0.26938 0.29107 0.03412
 H8 H 0.29970 0.30803 -0.05814
 C9 C 0.72633 0.67671 0.02381
 C10 C 0.72831 0.67804 -0.00385
 C11 C 0.71354 0.69940 -0.01756
 C12 C 0.69379 0.71784 -0.00487
 C13 C 0.68972 0.71444 0.02294
 C14 C 0.70733 0.69510 0.03681
 H15 H 0.70541 0.69364 0.05811
 H16 H 0.71511 0.69938 -0.03892
 C17 C 0.72280 0.32403 0.98944
 C18 C 0.72058 0.32730 1.01736
 C19 C 0.70319 0.30801 1.03118
 C20 C 0.68775 0.28660 1.01839
 C21 C 0.68940 0.28407 0.99062
 C22 C 0.70691 0.30282 0.97656
 H23 H 0.70871 0.30046 0.95533
 H24 H 0.69973 0.31071 1.05218
 C25 C 0.28142 0.67859 0.99957
 C26 C 0.28848 0.67208 1.02621
 C27 C 0.31008 0.68818 1.03867
 C28 C 0.32494 0.71017 1.02574
 C29 C 0.31620 0.71750 0.99966
 C30 C 0.29439 0.70185 0.98718
 H31 H 0.28959 0.70597 0.96654
 H32 H 0.31465 0.68440 1.05936
 C33 C 0.01970 0.27431 0.32634
 C34 C -0.01062 0.27590 0.32825
 C35 C -0.02582 0.29271 0.30998
 C36 C -0.01145 0.30962 0.29154
 C37 C 0.01896 0.31023 0.29155
 C38 C 0.03413 0.29174 0.30832
 H39 H 0.05746 0.29194 0.30829
 H40 H -0.04911 0.29368 0.31092
 C41 C 0.00898 0.69345 0.64353
 C42 C -0.02117 0.69223 0.63912
 C43 C -0.03767 0.67556 0.65645
 C44 C -0.02522 0.65882 0.67679
 C45 C 0.00547 0.65762 0.67830
 C46 C 0.02176 0.67540 0.66208
 H47 H 0.04492 0.67608 0.66480
 H48 H -0.06055 0.67381 0.65285
 C49 C 0.98703 0.70799 0.33277
 C50 C 1.01572 0.71491 0.32625
 C51 C 1.02996 0.69928 0.30661
 C52 C 1.01693 0.67626 0.29342
 C53 C 0.98782 0.66985 0.29981
 C54 C 0.97336 0.68614 0.31893
 H55 H 0.95166 0.68036 0.32447
 H56 H 1.05163 0.70550 0.30145
 C57 C 0.98848 0.30173 0.66521
 C58 C 1.01703 0.31252 0.66390
 C59 C 1.02541 0.33331 0.68250
 C60 C 1.00689 0.34229 0.70265
 C61 C 0.97966 0.32937 0.70514
 C62 C 0.97058 0.30971 0.68620
 H63 H 0.94894 0.30132 0.68728
 H64 H 1.04680 0.34227 0.68190
 C65 C 0.34252 0.02892 0.30625
 C66 C 0.35136 -0.00002 0.30775
 C67 C 0.33744 -0.01771 0.32609
 C68 C 0.31555 -0.00759 0.34305
 C69 C 0.30633 0.02113 0.34025
 C70 C 0.31998 0.03869 0.32205
 H71 H 0.31319 0.06073 0.32049
 H72 H 0.34418 -0.03973 0.32752
 C73 C 0.67564 0.01516 0.71161
 C74 C 0.66644 -0.01346 0.71011
 C75 C 0.67928 -0.03164 0.69149
 C76 C 0.70085 -0.02203 0.67433
 C77 C 0.71122 0.00600 0.67715
 C78 C 0.69854 0.02412 0.69571
 H79 H 0.70591 0.04587 0.69709
 H80 H 0.67158 -0.05323 0.68960
 C81 C 0.34547 0.98164 0.70273
 C82 C 0.34216 1.01172 0.70251
 C83 C 0.32096 1.02365 0.68591
 C84 C 0.30418 1.00727 0.66857
 C85 C 0.30828 0.97741 0.66854
 C86 C 0.32805 0.96505 0.68609
 H87 H 0.33183 0.94233 0.68497
 H88 H 0.31676 1.04628 0.68715
 C89 C 0.69084 1.00661 0.27156
 C90 C 0.68165 1.03430 0.27829
 C91 C 0.69525 1.04833 0.29937
 C92 C 0.71684 1.03515 0.31493
 C93 C 0.72538 1.00691 0.30808
 C94 C 0.71287 0.99355 0.28611
 H95 H 0.71873 0.97176 0.28156
 H96 H 0.68884 1.07006 0.30337
 O97 O 0.86240 0.83857 0.46060
 O98 O 0.83532 0.88117 0.51574
 O99 O 0.86359 0.83402 0.51128
 O100 O 0.82972 0.88425 0.46409
 O101 O 0.78890 0.86082 0.46774
 O102 O 0.82250 0.81080 0.51382
 O103 O 0.79517 0.85637 0.51670
 O104 O 0.82220 0.81390 0.46040
 Cu105 Cu 0.85173 0.86214 0.48760
 Cu106 Cu 0.80378 0.83234 0.48856
 C107 C 0.84723 0.81863 0.45143
 C108 C 0.81113 0.87579 0.52610
 C109 C 0.84843 0.81423 0.52100
 C110 C 0.80316 0.88138 0.45854
 O111 O 0.14201 0.17380 0.48137
 O112 O 0.18462 0.13529 0.53188
 O113 O 0.13814 0.16661 0.53217
 O114 O 0.18570 0.13884 0.48082
 O115 O 0.21481 0.17528 0.48626
 O116 O 0.16551 0.20440 0.53684
 O117 O 0.21195 0.17309 0.53679
 O118 O 0.17047 0.21080 0.48640
 Cu119 Cu 0.15977 0.14996 0.50606
 Cu120 Cu 0.19342 0.19470 0.51191
 C121 C 0.14886 0.19917 0.47570
 C122 C 0.20591 0.14767 0.54267
 C123 C 0.14331 0.19027 0.54311
 C124 C 0.20878 0.15170 0.47534
 O125 O 0.13427 0.82470 0.51991
 O126 O 0.16476 0.87781 0.47546
 O127 O 0.13525 0.83146 0.46916
 O128 O 0.16418 0.86978 0.52684
 O129 O 0.20476 0.84536 0.52359
 O130 O 0.17521 0.80603 0.46721
 O131 O 0.20480 0.85260 0.47271
 O132 O 0.17436 0.79941 0.51789
 Cu133 Cu 0.14566 0.85364 0.49799
 Cu134 Cu 0.19389 0.82342 0.49506
 C135 C 0.14898 0.80305 0.52657
 C136 C 0.18989 0.87425 0.46630
 C137 C 0.15012 0.81175 0.45868
 C138 C 0.18932 0.86384 0.53513
 O139 O 0.86123 0.09677 0.48124
 O140 O 0.89424 0.13430 0.53738
 O141 O 0.85078 0.09982 0.53188
 O142 O 0.90341 0.13146 0.48601
 O143 O 0.87400 0.16776 0.47950
 O144 O 0.82160 0.13622 0.52490
 O145 O 0.86568 0.17116 0.53021
 O146 O 0.83157 0.13291 0.47469
 Cu147 Cu 0.88040 0.11204 0.51002
 Cu148 Cu 0.84529 0.15572 0.50194
 C149 C 0.84103 0.10850 0.46818
 C150 C 0.88582 0.15921 0.54320
 C151 C 0.82691 0.11245 0.53573
 C152 C 0.89729 0.15468 0.47440
 O153 O 0.47225 0.87255 0.84675
 O154 O 0.52488 0.84697 0.89545
 O155 O 0.52772 0.87857 0.85232
 O156 O 0.47115 0.83773 0.88723
 O157 O 0.48400 0.79974 0.86438
 O158 O 0.53823 0.84031 0.82890
 O159 O 0.53565 0.81031 0.86990
 O160 O 0.48061 0.83460 0.82226
 Cu161 Cu 0.49804 0.86291 0.87273
 Cu162 Cu 0.50963 0.81823 0.84293
 C163 C 0.46719 0.85772 0.82645
 C164 C 0.53859 0.82402 0.89135
 C165 C 0.54278 0.86605 0.83482
 C166 C 0.46916 0.81124 0.88250
 O167 O 0.50980 0.15624 0.09388
 O168 O 0.46183 0.11304 0.13379
 O169 O 0.45703 0.15670 0.10508
 O170 O 0.51961 0.11500 0.13006
 O171 O 0.52282 0.14407 0.16409
 O172 O 0.46410 0.18733 0.13741
 O173 O 0.46717 0.14273 0.16716
 O174 O 0.51893 0.18384 0.12822
 Cu175 Cu 0.48759 0.13176 0.11291
 Cu176 Cu 0.49391 0.16741 0.15255
 C177 C 0.52230 0.17745 0.10401
 C178 C 0.45554 0.12087 0.15701
 C179 C 0.45016 0.17953 0.11712
 C180 C 0.53141 0.12224 0.15179
 O181 O 0.53335 0.11474 0.86312
 O182 O 0.47276 0.15835 0.88751
 O183 O 0.47768 0.11127 0.86026
 O184 O 0.52900 0.16118 0.89079
 O185 O 0.52754 0.18760 0.85484
 O186 O 0.47937 0.13615 0.82342
 O187 O 0.47191 0.18211 0.84991
 O188 O 0.53442 0.14127 0.82727
 Cu189 Cu 0.50312 0.13396 0.87923
 Cu190 Cu 0.50350 0.16442 0.83526
 C191 C 0.54416 0.12063 0.84080
 C192 C 0.46162 0.17714 0.87256
 C193 C 0.47007 0.11505 0.83638
 C194 C 0.53691 0.18297 0.87804
 O195 O 0.47697 0.86980 0.11127
 O196 O 0.53255 0.89992 0.15522
 O197 O 0.53371 0.87051 0.11192
 O198 O 0.47700 0.89916 0.15572
 O199 O 0.47561 0.85825 0.17699
 O200 O 0.53493 0.83148 0.13596
 O201 O 0.53092 0.86116 0.17972
 O202 O 0.47914 0.82956 0.13344
 Cu203 Cu 0.50484 0.88875 0.13102
 Cu204 Cu 0.50534 0.84107 0.15871
 C205 C 0.46877 0.84436 0.11471
 C206 C 0.54047 0.88593 0.17542
 C207 C 0.54433 0.84615 0.11684
 C208 C 0.46678 0.88358 0.17387
 O209 O 0.88828 0.51676 0.83324
 O210 O 0.83882 0.47417 0.87328
 O211 O 0.87014 0.46565 0.83213
 O212 O 0.85654 0.52722 0.87528
 O213 O 0.81872 0.53856 0.85082
 O214 O 0.83509 0.47968 0.80557
 O215 O 0.80295 0.48590 0.84673
 O216 O 0.85165 0.53180 0.80903
 Cu217 Cu 0.86702 0.49495 0.85635
 Cu218 Cu 0.82343 0.51057 0.82559
 C219 C 0.87848 0.53096 0.81388
 C220 C 0.81265 0.47192 0.86630
 C221 C 0.85538 0.46250 0.81117
 C222 C 0.83482 0.54294 0.87067
 O223 O 0.13053 0.46757 0.10374
 O224 O 0.08334 0.52022 0.13756
 O225 O 0.12341 0.52255 0.10159
 O226 O 0.08879 0.46446 0.13759
 O227 O 0.11995 0.46907 0.17026
 O228 O 0.15642 0.52590 0.13285
 O229 O 0.11629 0.52456 0.16868
 O230 O 0.16170 0.47155 0.13647
 Cu231 Cu 0.10318 0.49333 0.11701
 Cu232 Cu 0.14161 0.49824 0.15535
 C233 C 0.15436 0.46070 0.11455
 C234 C 0.09220 0.53170 0.15884
 C235 C 0.14610 0.53382 0.11072
 C236 C 0.09852 0.45656 0.15986
 O237 O 0.86445 0.46932 0.19071
 O238 O 0.82351 0.52096 0.15078
 O239 O 0.86071 0.52413 0.18923
 O240 O 0.82806 0.46632 0.15164
 O241 O 0.79450 0.46206 0.18217
 O242 O 0.82321 0.52525 0.21596
 O243 O 0.78675 0.51682 0.17790
 O244 O 0.83051 0.47093 0.22110
 Cu245 Cu 0.84780 0.49533 0.16769
 Cu246 Cu 0.80507 0.49349 0.20217
 C247 C 0.85481 0.46206 0.21312
 C248 C 0.79786 0.52726 0.15723
 C249 C 0.84736 0.53485 0.20865
 C250 C 0.80600 0.45407 0.16067
 O251 O 0.12258 0.54488 0.89291
 O252 O 0.09459 0.48460 0.85349
 O253 O 0.12803 0.49152 0.89695
 O254 O 0.08776 0.54120 0.85478
 O255 O 0.12395 0.54167 0.82666
 O256 O 0.16413 0.49113 0.86867
 O257 O 0.13234 0.48687 0.82726
 O258 O 0.16036 0.54611 0.86659
 Cu259 Cu 0.10424 0.51440 0.87656
 Cu260 Cu 0.14890 0.51691 0.84453
 C261 C 0.14668 0.55541 0.88649
 C262 C 0.10885 0.47544 0.83381
 C263 C 0.15292 0.48305 0.89021
 C264 C 0.09901 0.55009 0.83360
 C265 C 0.24567 0.34815 0.03435
 C266 C 0.22541 0.36606 0.04625
 C267 C 0.19691 0.36720 0.03645
 C268 C 0.18910 0.34965 0.01517
 C269 C 0.20957 0.33180 0.00333
 C270 C 0.23814 0.33151 0.01247
 C271 C 0.17694 0.38606 0.04793
 C272 C 0.18524 0.40368 0.06905
 C273 C 0.21373 0.40198 0.07891
 C274 C 0.23355 0.38326 0.06748
 C275 C 0.22216 0.41916 0.10004
 C276 C 0.20267 0.43800 0.11141
 C277 C 0.17430 0.44027 0.10184
 C278 C 0.16567 0.42301 0.08053
 H279 H 0.26772 0.34792 0.04144
 H280 H 0.16734 0.35006 0.00743
 H281 H 0.20340 0.31888 -0.01344
 H282 H 0.15512 0.38716 0.04034
 H283 H 0.25543 0.38225 0.07497
 H284 H 0.24391 0.41806 0.10779
 H285 H 0.21000 0.45105 0.12769
 H286 H 0.14384 0.42447 0.07306
 C287 C 0.72952 0.63901 0.05866
 C288 C 0.74546 0.61964 0.07391
 C289 C 0.77536 0.61653 0.06960
 C290 C 0.78880 0.63298 0.05025
 C291 C 0.77283 0.65250 0.03542
 C292 C 0.74309 0.65559 0.03938
 C293 C 0.79139 0.59728 0.08489
 C294 C 0.77798 0.58136 0.10468
 C295 C 0.74813 0.58461 0.10910
 C296 C 0.73202 0.60357 0.09356
 C297 C 0.73490 0.56897 0.12916
 C298 C 0.75111 0.55039 0.14481
 C299 C 0.78079 0.54691 0.14055
 C300 C 0.79405 0.56243 0.12031
 H301 H 0.70655 0.64123 0.06176
 H302 H 0.81171 0.63101 0.04680
 H303 H 0.78379 0.66551 0.02107
 H304 H 0.81432 0.59489 0.08157
 H305 H 0.70911 0.60603 0.09694
 H306 H 0.71206 0.57122 0.13283
 H307 H 0.74034 0.53864 0.16021
 H308 H 0.81695 0.56004 0.11690
 C309 C 0.73191 0.35802 0.95270
 C310 C 0.75009 0.37654 0.93910
 C311 C 0.77971 0.37739 0.94557
 C312 C 0.79065 0.35945 0.96536
 C313 C 0.77227 0.34144 0.97913
 C314 C 0.74276 0.34100 0.97322
 C315 C 0.79780 0.39642 0.93246
 C316 C 0.78661 0.41481 0.91316
 C317 C 0.75701 0.41390 0.90668
 C318 C 0.73897 0.39470 0.91960
 C319 C 0.74591 0.43231 0.88739
 C320 C 0.76395 0.45137 0.87452
 C321 C 0.79343 0.45245 0.88074
 C322 C 0.80457 0.43412 0.90021
 H323 H 0.70908 0.35773 0.94822
 H324 H 0.81328 0.35976 0.97052
 H325 H 0.78092 0.32826 0.99481
 H326 H 0.82050 0.39711 0.93746
 H327 H 0.71625 0.39410 0.91469
 H328 H 0.72328 0.43191 0.88220
 H329 H 0.75480 0.46522 0.85959
 H330 H 0.82728 0.43462 0.90511
 C331 C 0.23915 0.66122 0.97277
 C332 C 0.22623 0.64016 0.95702
 C333 C 0.24246 0.61597 0.94945
 C334 C 0.27082 0.61272 0.95844
 C335 C 0.28300 0.63308 0.97497
 C336 C 0.26736 0.65738 0.98226
 C337 C 0.23006 0.59522 0.93324
 C338 C 0.20125 0.59766 0.92529
 C339 C 0.18454 0.62115 0.93374
 C340 C 0.19730 0.64255 0.94913
 C341 C 0.15527 0.62257 0.92686
 C342 C 0.14273 0.60096 0.91177
 C343 C 0.15948 0.57811 0.90266
 C344 C 0.18875 0.57666 0.90938
 H345 H 0.22710 0.68003 0.97841
 H346 H 0.28347 0.59425 0.95295
 H347 H 0.30485 0.63004 0.98198
 H348 H 0.24269 0.57692 0.92717
 H349 H 0.18461 0.66076 0.95534
 H350 H 0.14203 0.64024 0.93334
 H351 H 0.12008 0.60232 0.90681
 H352 H 0.20160 0.55875 0.90274
 C353 C 0.04905 0.26906 0.36719
 C354 C 0.06620 0.25268 0.38424
 C355 C 0.07095 0.22356 0.37873
 C356 C 0.05924 0.21160 0.35574
 C357 C 0.04292 0.22832 0.33846
 C358 C 0.03718 0.25685 0.34446
 C359 C 0.08759 0.20700 0.39609
 C360 C 0.10031 0.21941 0.41841
 C361 C 0.09634 0.24877 0.42334
 C362 C 0.07896 0.26509 0.40648
 C363 C 0.11004 0.26142 0.44498
 C364 C 0.12751 0.24518 0.46162
 C365 C 0.13105 0.21592 0.45730
 C366 C 0.11725 0.20304 0.43574
 H367 H 0.04507 0.29132 0.37139
 H368 H 0.06294 0.18944 0.35101
 H369 H 0.03430 0.21891 0.32061
 H370 H 0.09097 0.18461 0.39203
 H371 H 0.07567 0.28751 0.41047
 H372 H 0.10736 0.28389 0.44896
 H373 H 0.13786 0.25543 0.47827
 H374 H 0.12016 0.18050 0.43222
 C375 C 0.05259 0.70776 0.61787
 C376 C 0.06859 0.72838 0.60451
 C377 C 0.05929 0.75704 0.60487
 C378 C 0.03482 0.76477 0.61931
 C379 C 0.01908 0.74415 0.63255
 C380 C 0.02735 0.71546 0.63132
 C381 C 0.07422 0.77745 0.59040
 C382 C 0.09827 0.76960 0.57544
 C383 C 0.10818 0.74116 0.57566
 C384 C 0.09328 0.72070 0.59025
 C385 C 0.13253 0.73364 0.56087
 C386 C 0.14642 0.75394 0.54541
 C387 C 0.13602 0.78198 0.54438
 C388 C 0.11219 0.78972 0.55980
 H389 H 0.05910 0.68564 0.61702
 H390 H 0.02758 0.78667 0.62000
 H391 H -0.00004 0.75047 0.64328
 H392 H 0.06680 0.79934 0.59035
 H393 H 0.10055 0.69877 0.59010
 H394 H 0.14055 0.71199 0.56092
 H395 H 0.16479 0.74752 0.53370
 H396 H 0.10422 0.81141 0.55940
 C397 C 0.94324 0.73214 0.35148
 C398 C 0.92864 0.74549 0.37237
 C399 C 0.94265 0.74884 0.39701
 C400 C 0.97027 0.73746 0.40080
 C401 C 0.98423 0.72346 0.38019
 C402 C 0.97138 0.72160 0.35509
 C403 C 0.92890 0.76356 0.41747
 C404 C 0.90103 0.77442 0.41386
 C405 C 0.88632 0.76981 0.38976
 C406 C 0.90037 0.75564 0.36902
 C407 C 0.85792 0.77975 0.38682
 C408 C 0.84453 0.79475 0.40732
 C409 C 0.85963 0.80051 0.43071
 C410 C 0.88773 0.79006 0.43398
 H411 H 0.93292 0.73025 0.33234
 H412 H 0.98105 0.73932 0.41973
 H413 H 1.00534 0.71438 0.38377
 H414 H 0.93992 0.76665 0.43617
 H415 H 0.88937 0.75262 0.35031
 H416 H 0.84620 0.77619 0.36859
 H417 H 0.82282 0.80273 0.40458
 H418 H 0.89924 0.79423 0.45223
 C419 C 0.96389 0.25866 0.64660
 C420 C 0.95049 0.24434 0.62555
 C421 C 0.94730 0.25804 0.60084
 C422 C 0.95846 0.28537 0.59735
 C423 C 0.97242 0.29913 0.61817
 C424 C 0.97505 0.28603 0.64294
 C425 C 0.93304 0.24424 0.58002
 C426 C 0.92267 0.21655 0.58330
 C427 C 0.92692 0.20240 0.60766
 C428 C 0.94039 0.21653 0.62874
 C429 C 0.91782 0.17422 0.61044
 C430 C 0.90469 0.16016 0.58932
 C431 C 0.89963 0.17429 0.56535
 C432 C 0.90849 0.20257 0.56247
 H433 H 0.96601 0.24850 0.66572
 H434 H 0.95638 0.29612 0.57852
 H435 H 0.98075 0.32029 0.61512
 H436 H 0.93025 0.25494 0.56122
 H437 H 0.94325 0.20581 0.64752
 H438 H 0.92110 0.16297 0.62887
 H439 H 0.89805 0.13833 0.59180
 H440 H 0.90503 0.21336 0.54381
 C441 C 0.35732 0.04444 0.26098
 C442 C 0.37354 0.06229 0.24480
 C443 C 0.38674 0.08663 0.25576
 C444 C 0.38313 0.09295 0.28256
 C445 C 0.36786 0.07451 0.29870
 C446 C 0.35561 0.04978 0.28819
 C447 C 0.40417 0.10373 0.24003
 C448 C 0.40935 0.09633 0.21370
 C449 C 0.39606 0.07213 0.20263
 C450 C 0.37789 0.05547 0.21816
 C451 C 0.40176 0.06465 0.17638
 C452 C 0.42093 0.08064 0.16142
 C453 C 0.43455 0.10448 0.17243
 C454 C 0.42830 0.11239 0.19851
 H455 H 0.34748 0.02554 0.25283
 H456 H 0.39300 0.11155 0.29124
 H457 H 0.36648 0.07899 0.31965
 H458 H 0.41446 0.12225 0.24852
 H459 H 0.36794 0.03671 0.20979
 H460 H 0.39175 0.04620 0.16755
 H461 H 0.42526 0.07418 0.14129
 H462 H 0.43862 0.13075 0.20722
 C463 C 0.65396 0.03314 0.75418
 C464 C 0.63630 0.05272 0.76753
 C465 C 0.62587 0.07700 0.75401
 C466 C 0.63337 0.08148 0.72763
 C467 C 0.65012 0.06154 0.71434
 C468 C 0.66013 0.03700 0.72726
 C469 C 0.60735 0.09603 0.76673
 C470 C 0.59833 0.09076 0.79257
 C471 C 0.60878 0.06668 0.80631
 C472 C 0.62804 0.04796 0.79381
 C473 C 0.59910 0.06142 0.83205
 C474 C 0.57860 0.07933 0.84368
 C475 C 0.56766 0.10294 0.82984
 C476 C 0.57818 0.10878 0.80448
 H477 H 0.66198 0.01445 0.76436
 H478 H 0.62553 0.09997 0.71703
 H479 H 0.65458 0.06488 0.69360
 H480 H 0.59921 0.11448 0.75621
 H481 H 0.63585 0.02929 0.80419
 H482 H 0.60688 0.04311 0.84295
 H483 H 0.57090 0.07438 0.86328
 H484 H 0.56998 0.12691 0.79354
 C485 C 0.36330 0.94325 0.73287
 C486 C 0.38552 0.92924 0.74652
 C487 C 0.41405 0.93923 0.74446
 C488 C 0.42005 0.96221 0.72784
 C489 C 0.39789 0.97555 0.71380
 C490 C 0.36925 0.96682 0.71688
 C491 C 0.43608 0.92621 0.75913
 C492 C 0.43001 0.90306 0.77554
 C493 C 0.40170 0.89227 0.77671
 C494 C 0.37960 0.90555 0.76231
 C495 C 0.39588 0.86870 0.79271
 C496 C 0.41772 0.85650 0.80807
 C497 C 0.44549 0.86783 0.80768
 C498 C 0.45169 0.89086 0.79124
 H499 H 0.34130 0.93607 0.73490
 H500 H 0.44185 0.96984 0.72568
 H501 H 0.40305 0.99303 0.70081
 H502 H 0.45787 0.93422 0.75796
 H503 H 0.35778 0.89765 0.76360
 H504 H 0.37437 0.86007 0.79374
 H505 H 0.41274 0.83886 0.82095
 H506 H 0.47323 0.89959 0.79115
 C507 C 0.65082 0.97400 0.26039
 C508 C 0.63473 0.95831 0.24209
 C509 C 0.64250 0.95854 0.21510
 C510 C 0.66721 0.97319 0.20718
 C511 C 0.68365 0.98800 0.22574
 C512 C 0.67496 0.98925 0.25219
 C513 C 0.62545 0.94418 0.19654
 C514 C 0.60124 0.92891 0.20474
 C515 C 0.59447 0.92745 0.23193
 C516 C 0.61099 0.94249 0.25036
 C517 C 0.57112 0.91107 0.24023
 C518 C 0.55426 0.89670 0.22175
 C519 C 0.56003 0.89907 0.19468
 C520 C 0.58361 0.91512 0.18623
 H521 H 0.64456 0.97456 0.28099
 H522 H 0.67375 0.97325 0.18667
 H523 H 0.70261 0.99929 0.21936
 H524 H 0.63101 0.94486 0.17577
 H525 H 0.60538 0.94188 0.27113
 H526 H 0.56579 0.90951 0.26099
 H527 H 0.53605 0.88449 0.22853
 H528 H 0.58823 0.91672 0.16531
 C529 C 0.33609 0.26285 0.94120
 C530 C 0.36107 0.24898 0.93221
 C531 C 0.38476 0.24528 0.94949
 C532 C 0.38378 0.25687 0.97487
 C533 C 0.35914 0.27098 0.98349
 C534 C 0.33435 0.27292 0.96740
 C535 C 0.40909 0.23007 0.94118
 C536 C 0.41033 0.21894 0.91557
 C537 C 0.38720 0.22367 0.89783
 C538 C 0.36258 0.23838 0.90635
 C539 C 0.38911 0.21356 0.87185
 C540 C 0.41362 0.19878 0.86359
 C541 C 0.43621 0.19323 0.88135
 C542 C 0.43446 0.20328 0.90735
 H543 H 0.31756 0.26435 0.92820
 H544 H 0.40208 0.25506 0.98809
 H545 H 0.35968 0.28066 1.00284
 H546 H 0.42703 0.22690 0.95465
 H547 H 0.34463 0.24153 0.89289
 H548 H 0.37172 0.21715 0.85791
 H549 H 0.41472 0.19116 0.84342
 H550 H 0.45211 0.19935 0.92096
 C551 C 0.64828 0.74203 0.98228
 C552 C 0.63300 0.75994 0.96500
 C553 C 0.64715 0.77216 0.94318
 C554 C 0.67663 0.76762 0.93987
 C555 C 0.69188 0.75059 0.95760
 C556 C 0.67804 0.73718 0.97901
 C557 C 0.63151 0.78819 0.92469
 C558 C 0.60193 0.79262 0.92801
 C559 C 0.58807 0.78184 0.95070
 C560 C 0.60361 0.76531 0.96890
 C561 C 0.55870 0.78731 0.95452
 C562 C 0.54302 0.80244 0.93559
 C563 C 0.55635 0.81186 0.91244
 C564 C 0.58583 0.80719 0.90876
 H565 H 0.63636 0.73068 0.99716
 H566 H 0.68793 0.77713 0.92346
 H567 H 0.71480 0.74804 0.95455
 H568 H 0.64227 0.79687 0.90755
 H569 H 0.59281 0.75642 0.98591
 H570 H 0.54778 0.77945 0.97188
 H571 H 0.52016 0.80578 0.93846
 H572 H 0.59603 0.81457 0.89083
 C573 C 0.35359 0.75281 0.03747
 C574 C 0.37631 0.76530 0.05172
 C575 C 0.39390 0.74821 0.06815
 C576 C 0.38895 0.71905 0.06975
 C577 C 0.36651 0.70681 0.05555
 C578 C 0.34828 0.72334 0.03920
 C579 C 0.41594 0.76053 0.08311
 C580 C 0.42065 0.78983 0.08202
 C581 C 0.40352 0.80703 0.06528
 C582 C 0.38141 0.79466 0.05021
 C583 C 0.40867 0.83635 0.06419
 C584 C 0.43022 0.84853 0.07987
 C585 C 0.44688 0.83162 0.09702
 C586 C 0.44208 0.80220 0.09774
 H587 H 0.33922 0.76643 0.02631
 H588 H 0.40241 0.70563 0.08208
 H589 H 0.36393 0.68403 0.05697
 H590 H 0.42919 0.74733 0.09589
 H591 H 0.36807 0.80787 0.03754
 H592 H 0.39586 0.84990 0.05140
 H593 H 0.43349 0.87124 0.07891
 H594 H 0.45492 0.78883 0.11069
 C595 C 0.63974 0.26526 0.02884
 C596 C 0.62211 0.24869 0.04497
 C597 C 0.63361 0.23622 0.06816
 C598 C 0.66278 0.23967 0.07428
 C599 C 0.68038 0.25546 0.05766
 C600 C 0.66904 0.26845 0.03489
 C601 C 0.61581 0.22052 0.08485
 C602 C 0.58686 0.21637 0.07822
 C603 C 0.57565 0.22785 0.05445
 C604 C 0.59323 0.24433 0.03820
 C605 C 0.54707 0.22242 0.04724
 C606 C 0.52979 0.20572 0.06339
 C607 C 0.54059 0.19500 0.08729
 C608 C 0.56902 0.20050 0.09478
 H609 H 0.63066 0.27578 0.01168
 H610 H 0.67200 0.23012 0.09186
 H611 H 0.70292 0.25774 0.06267
 H612 H 0.62453 0.21131 0.10282
 H613 H 0.58454 0.25346 0.02017
 H614 H 0.53819 0.23083 0.02902
 H615 H 0.50782 0.20147 0.05743
 H616 H 0.57739 0.19177 0.11309
 C617 C 0.29255 0.04745 0.63962
 C618 C 0.27353 0.06208 0.62294
 C619 C 0.24625 0.05056 0.61718
 C620 C 0.23826 0.02484 0.62879
 C621 C 0.25715 0.01066 0.64588
 C622 C 0.28481 0.02139 0.65120
 C623 C 0.22733 0.06514 0.60021
 C624 C 0.23531 0.09130 0.58926
 C625 C 0.26247 0.10296 0.59552
 C626 C 0.28147 0.08819 0.61210
 C627 C 0.27029 0.12927 0.58509
 C628 C 0.25153 0.14389 0.56839
 C629 C 0.22466 0.13238 0.56156
 C630 C 0.21662 0.10603 0.57215
 H631 H 0.31379 0.05615 0.64301
 H632 H 0.21715 0.01600 0.62515
 H633 H 0.24930 -0.00782 0.65604
 H634 H 0.20643 0.05624 0.59565
 H635 H 0.30236 0.09711 0.61670
 H636 H 0.29098 0.13852 0.58977
 H637 H 0.25835 0.16407 0.56042
 H638 H 0.19592 0.09701 0.56710
 C639 C 0.75763 0.04648 0.34478
 C640 C 0.76848 0.05971 0.36755
 C641 C 0.75080 0.07846 0.38208
 C642 C 0.72239 0.08317 0.37389
 C643 C 0.71138 0.06905 0.35183
 C644 C 0.72861 0.05008 0.33697
 C645 C 0.76172 0.09209 0.40462
 C646 C 0.78994 0.08660 0.41322
 C647 C 0.80738 0.06717 0.39908
 C648 C 0.79670 0.05419 0.37613
 C649 C 0.83520 0.06094 0.40820
 C650 C 0.84579 0.07398 0.43099
 C651 C 0.82897 0.09386 0.44484
 C652 C 0.80100 0.10010 0.43581
 H653 H 0.77219 0.03389 0.33291
 H654 H 0.70843 0.09733 0.38491
 H655 H 0.68884 0.07223 0.34724
 H656 H 0.74819 0.10673 0.41559
 H657 H 0.81019 0.03948 0.36519
 H658 H 0.84879 0.04599 0.39770
 H659 H 0.86745 0.06894 0.43750
 H660 H 0.78777 0.11522 0.44651
 C661 C 0.73915 0.95354 0.64746
 C662 C 0.74760 0.93852 0.62484
 C663 C 0.72648 0.92753 0.60752
 C664 C 0.69729 0.93215 0.61297
 C665 C 0.68914 0.94819 0.63495
 C666 C 0.70998 0.95937 0.65216
 C667 C 0.73487 0.91245 0.58490
 C668 C 0.76412 0.90900 0.57894
 C669 C 0.78521 0.92068 0.59592
 C670 C 0.77683 0.93494 0.61897
 C671 C 0.81438 0.91812 0.58943
 C672 C 0.82264 0.90402 0.56640
 C673 C 0.80194 0.89177 0.54970
 C674 C 0.77266 0.89429 0.55612
 H675 H 0.75529 0.96091 0.66124
 H676 H 0.68079 0.92394 0.59992
 H677 H 0.66650 0.95236 0.63825
 H678 H 0.71866 0.90381 0.57175
 H679 H 0.79303 0.94373 0.63205
 H680 H 0.83080 0.92707 0.60213
 H681 H 0.84533 0.90219 0.56193
 H682 H 0.75655 0.88510 0.54320
 C683 C 0.27477 0.97258 0.36784
 C684 C 0.26396 0.95398 0.38691
 C685 C 0.28287 0.93543 0.40046
 C686 C 0.31233 0.93614 0.39496
 C687 C 0.32296 0.95502 0.37620
 C688 C 0.30443 0.97380 0.36246
 C689 C 0.27199 0.91622 0.41900
 C690 C 0.24240 0.91546 0.42422
 C691 C 0.22355 0.93443 0.41101
 C692 C 0.23442 0.95343 0.39232
 C693 C 0.19407 0.93398 0.41661
 C694 C 0.18327 0.91469 0.43491
 C695 C 0.20169 0.89531 0.44774
 C696 C 0.23132 0.89591 0.44237
 H697 H 0.25969 0.98461 0.35608
 H698 H 0.32719 0.92214 0.40522
 H699 H 0.34598 0.95539 0.37299
 H700 H 0.28649 0.90178 0.42921
 H701 H 0.21990 0.96780 0.38202
 H702 H 0.17935 0.94844 0.40675
 H703 H 0.16036 0.91462 0.43869
 H704 H 0.24575 0.88122 0.45232
 C705 C 0.04137 0.36394 0.73527
 C706 C 0.04905 0.38579 0.75286
 C707 C 0.03090 0.40984 0.75565
 C708 C 0.00579 0.41194 0.74036
 C709 C -0.00142 0.39037 0.72265
 C710 C 0.01590 0.36593 0.72034
 C711 C 0.03827 0.43152 0.77345
 C712 C 0.06395 0.42987 0.78805
 C713 C 0.08238 0.40607 0.78485
 C714 C 0.07462 0.38404 0.76758
 C715 C 0.10860 0.40497 0.79858
 C716 C 0.11683 0.42748 0.81485
 C717 C 0.09862 0.45103 0.81833
 C718 C 0.07197 0.45199 0.80523
 H719 H 0.05492 0.34523 0.73344
 H720 H -0.00822 0.43032 0.74201
 H721 H -0.02078 0.39262 0.71087
 H722 H 0.02427 0.44988 0.77562
 H723 H 0.08871 0.36576 0.76529
 H724 H 0.12305 0.38701 0.79627
 H725 H 0.13754 0.42660 0.82471
 H726 H 0.05815 0.47046 0.80753
 C727 C 0.02229 0.64791 0.25218
 C728 C 0.03855 0.62882 0.23677
 C729 C 0.06727 0.62263 0.24404
 C730 C 0.07940 0.63578 0.26613
 C731 C 0.06296 0.65399 0.28171
 C732 C 0.03383 0.65978 0.27560
 C733 C 0.08337 0.60294 0.22948
 C734 C 0.07106 0.58890 0.20788
 C735 C 0.04246 0.59513 0.20023
 C736 C 0.02639 0.61526 0.21462
 C737 C 0.03045 0.58079 0.17851
 C738 C 0.04653 0.56028 0.16479
 C739 C 0.07486 0.55373 0.17258
 C740 C 0.08695 0.56840 0.19409
 H741 H 0.00060 0.65324 0.24599
 H742 H 0.10143 0.63125 0.27191
 H743 H 0.07283 0.66215 0.29955
 H744 H 0.10536 0.59813 0.23528
 H745 H 0.00433 0.61989 0.20897
 H746 H 0.00857 0.58528 0.17228
 H747 H 0.03670 0.54937 0.14826
 H748 H 0.10883 0.56379 0.20028
 C749 C 0.95653 0.35166 0.28492
 C750 C 0.93935 0.36899 0.26869
 C751 C 0.93737 0.36312 0.24133
 C752 C 0.95164 0.33934 0.23091
 C753 C 0.96786 0.32166 0.24740
 C754 C 0.97113 0.32822 0.27425
 C755 C 0.92083 0.38081 0.22492
 C756 C 0.90544 0.40374 0.23564
 C757 C 0.90649 0.40893 0.26316
 C758 C 0.92382 0.39182 0.27944
 C759 C 0.89000 0.43107 0.27396
 C760 C 0.87270 0.44796 0.25765
 C761 C 0.87221 0.44346 0.23026
 C762 C 0.88870 0.42139 0.21932
 H763 H 0.95843 0.35619 0.30585
 H764 H 0.94989 0.33418 0.21011
 H765 H 0.97793 0.30284 0.23922
 H766 H 0.91962 0.37651 0.20390
 H767 H 0.92493 0.39604 0.30048
 H768 H 0.89039 0.43523 0.29500
 H769 H 0.86016 0.46499 0.26636
 H770 H 0.88807 0.41768 0.19819
 C771 C 0.96244 0.61797 0.70589
 C772 C 0.94471 0.60611 0.72534
 C773 C 0.91865 0.61977 0.73216
 C774 C 0.91127 0.64550 0.72016
 C775 C 0.92979 0.65799 0.70207
 C776 C 0.95600 0.64476 0.69470
 C777 C 0.90044 0.60764 0.75097
 C778 C 0.90846 0.58248 0.76385
 C779 C 0.93519 0.56945 0.75797
 C780 C 0.95288 0.58101 0.73838
 C781 C 0.94372 0.54504 0.77182
 C782 C 0.92569 0.53330 0.79087
 C783 C 0.89858 0.54542 0.79599
 C784 C 0.89014 0.57013 0.78251
 H785 H 0.98084 0.60582 0.69929
 H786 H 0.89149 0.65642 0.72534
 H787 H 0.92387 0.67879 0.69467
 H788 H 0.88018 0.61793 0.75578
 H789 H 0.97318 0.57078 0.73361
 H790 H 0.96423 0.53490 0.76778
 H791 H 0.93249 0.51410 0.80093
 H792 H 0.86933 0.57968 0.78654
 C793 C 0.76609 0.65554 0.96734
 C794 C 0.77557 0.63261 0.95174
 C795 C 0.75798 0.60832 0.94903
 C796 C 0.73196 0.60679 0.96277
 C797 C 0.72309 0.62932 0.97867
 C798 C 0.73982 0.65386 0.98082
 C799 C 0.76648 0.58601 0.93247
 C800 C 0.79266 0.58726 0.91898
 C801 C 0.81100 0.61082 0.92255
 C802 C 0.80218 0.63354 0.93869
 C803 C 0.83777 0.61121 0.90978
 C804 C 0.84603 0.58869 0.89334
 C805 C 0.82733 0.56592 0.88900
 C806 C 0.80075 0.56523 0.90189
 H807 H 0.77897 0.67456 0.96906
 H808 H 0.71837 0.58827 0.96106
 H809 H 0.70273 0.62792 0.98892
 H810 H 0.75268 0.56769 0.93004
 H811 H 0.81594 0.65188 0.94105
 H812 H 0.85224 0.62894 0.91245
 H813 H 0.86665 0.58936 0.88348
 H814 H 0.78650 0.54739 0.89871
 C815 C 0.24512 0.36614 0.96386
 C816 C 0.22953 0.38456 0.94732
 C817 C 0.22547 0.37747 0.92048
 C818 C 0.23636 0.35173 0.91086
 C819 C 0.25049 0.33282 0.92779
 C820 C 0.25473 0.33936 0.95478
 C821 C 0.21039 0.39608 0.90375
 C822 C 0.19827 0.42118 0.91379
 C823 C 0.20132 0.42774 0.94093
 C824 C 0.21750 0.40973 0.95739
 C825 C 0.18783 0.45207 0.95119
 C826 C 0.17151 0.46975 0.93471
 C827 C 0.16920 0.46383 0.90764
 C828 C 0.18273 0.43963 0.89722
 H829 H 0.25015 0.37320 0.98365
 H830 H 0.23330 0.34586 0.89036
 H831 H 0.25716 0.31252 0.91977
 H832 H 0.20764 0.39079 0.88304
 H833 H 0.22011 0.41492 0.97814
 H834 H 0.18971 0.45729 0.97196
 H835 H 0.16119 0.48841 0.94297
 H836 H 0.18061 0.43489 0.87634
 C837 C 0.24512 0.64459 0.03745
 C838 C 0.23138 0.62360 0.05244
 C839 C 0.24724 0.60790 0.07132
 C840 C 0.27665 0.61310 0.07456
 C841 C 0.29021 0.63385 0.05945
 C842 C 0.27476 0.65004 0.04060
 C843 C 0.23344 0.58743 0.08684
 C844 C 0.20394 0.58229 0.08357
 C845 C 0.18816 0.59768 0.06434
 C846 C 0.20192 0.61834 0.04903
 C847 C 0.15884 0.59207 0.06068
 C848 C 0.14528 0.57136 0.07583
 C849 C 0.16062 0.55614 0.09522
 C850 C 0.19000 0.56185 0.09909
 H851 H 0.23220 0.65772 0.02447
 H852 H 0.28922 0.60110 0.08879
 H853 H 0.31313 0.63662 0.06218
 H854 H 0.24564 0.57554 0.10146
 H855 H 0.18972 0.63025 0.03441
 H856 H 0.14643 0.60359 0.04599
 H857 H 0.12264 0.56736 0.07248
 H858 H 0.20212 0.55001 0.11377
 C859 C 0.74327 0.34522 0.05805
 C860 C 0.75431 0.36749 0.07326
 C861 C 0.75760 0.39460 0.06185
 C862 C 0.74864 0.39923 0.03580
 C863 C 0.73625 0.37730 0.02122
 C864 C 0.73385 0.34968 0.03178
 C865 C 0.76919 0.41679 0.07685
 C866 C 0.77639 0.41245 0.10345
 C867 C 0.77193 0.38563 0.11524
 C868 C 0.76152 0.36314 0.09989
 C869 C 0.77771 0.38189 0.14225
 C870 C 0.78804 0.40449 0.15738
 C871 C 0.79348 0.43075 0.14549
 C872 C 0.78769 0.43465 0.11857
 H873 H 0.74238 0.32426 0.06680
 H874 H 0.75027 0.42011 0.02698
 H875 H 0.72734 0.38263 0.00213
 H876 H 0.77209 0.43753 0.06798
 H877 H 0.75846 0.34244 0.10881
 H878 H 0.77415 0.36156 0.15164
 H879 H 0.79253 0.40130 0.17818
 H880 H 0.79162 0.45514 0.10954
 C881 C 0.93721 0.71837 0.62028
 C882 C 0.92451 0.73396 0.59959
 C883 C 0.93992 0.73840 0.57598
 C884 C 0.96703 0.72586 0.57286
 C885 C 0.97920 0.70981 0.59321
 C886 C 0.96518 0.70676 0.61774
 C887 C 0.92801 0.75526 0.55585
 C888 C 0.90053 0.76724 0.55876
 C889 C 0.88451 0.76169 0.58188
 C890 C 0.89674 0.74542 0.60228
 C891 C 0.85650 0.77259 0.58421
 C892 C 0.84459 0.78910 0.56399
 C893 C 0.86075 0.79559 0.54146
 C894 C 0.88873 0.78462 0.53891
 H895 H 0.92569 0.71662 0.63876
 H896 H 0.97880 0.72830 0.55458
 H897 H 0.99961 0.69945 0.58945
 H898 H 0.94012 0.75904 0.53793
 H899 H 0.88465 0.74167 0.62020
 H900 H 0.84382 0.76837 0.60166
 H901 H 0.82298 0.79746 0.56623
 H902 H 0.90109 0.78934 0.52135
 C903 C 0.97527 0.23521 0.35826
 C904 C 0.96086 0.22509 0.38072
 C905 C 0.94324 0.24379 0.39549
 C906 C 0.94097 0.27234 0.38806
 C907 C 0.95607 0.28238 0.36628
 C908 C 0.97339 0.26404 0.35114
 C909 C 0.92800 0.23367 0.41735
 C910 C 0.93046 0.20515 0.42497
 C911 C 0.94888 0.18662 0.41086
 C912 C 0.96378 0.19664 0.38868
 C913 C 0.95176 0.15829 0.41904
 C914 C 0.93591 0.14819 0.44048
 C915 C 0.91667 0.16616 0.45393
 C916 C 0.91441 0.19478 0.44627
 H917 H 0.98757 0.22061 0.34624
 H918 H 0.92768 0.28699 0.39923
 H919 H 0.95437 0.30469 0.36127
 H920 H 0.91412 0.24797 0.42836
 H921 H 0.97759 0.18234 0.37762
 H922 H 0.96592 0.14381 0.40861
 H923 H 0.93793 0.12604 0.44592
 H924 H 0.89980 0.20890 0.45663
 C925 C 0.03848 0.27319 0.63869
 C926 C 0.05935 0.26257 0.62135
 C927 C 0.07987 0.28107 0.61039
 C928 C 0.07905 0.30995 0.61693
 C929 C 0.05822 0.32040 0.63430
 C930 C 0.03743 0.30226 0.64536
 C931 C 0.10098 0.27035 0.59325
 C932 C 0.10176 0.24133 0.58695
 C933 C 0.08113 0.22287 0.59796
 C934 C 0.06014 0.23358 0.61512
 C935 C 0.08168 0.19398 0.59148
 C936 C 0.10221 0.18344 0.57397
 C937 C 0.12279 0.20153 0.56279
 C938 C 0.12262 0.23048 0.56960
 H939 H 0.02402 0.25838 0.64804
 H940 H 0.09455 0.32450 0.60864
 H941 H 0.05800 0.34296 0.63841
 H942 H 0.11675 0.28457 0.58482
 H943 H 0.04435 0.21937 0.62354
 H944 H 0.06603 0.17956 0.59974
 H945 H 0.10190 0.16105 0.56908
 H946 H 0.13824 0.24466 0.56092
 C947 C 0.05876 0.72961 0.35220
 C948 C 0.07319 0.74877 0.36864
 C949 C 0.06098 0.77579 0.37371
 C950 C 0.03514 0.78360 0.36118
 C951 C 0.02095 0.76437 0.34466
 C952 C 0.03220 0.73693 0.34075
 C953 C 0.07446 0.79419 0.39166
 C954 C 0.09994 0.78583 0.40457
 C955 C 0.11263 0.75922 0.39862
 C956 C 0.09920 0.74090 0.38070
 C957 C 0.13826 0.75103 0.41115
 C958 C 0.15082 0.76861 0.43006
 C959 C 0.13790 0.79463 0.43693
 C960 C 0.11263 0.80334 0.42378
 H961 H 0.06757 0.70848 0.34923
 H962 H 0.02560 0.80432 0.36459
 H963 H 0.00071 0.77054 0.33562
 H964 H 0.06483 0.81470 0.39599
 H965 H 0.10866 0.72025 0.37658
 H966 H 0.14833 0.73079 0.40667
 H967 H 0.17028 0.76140 0.43986
 H968 H 0.10261 0.82347 0.42877
 C969 C 0.64856 0.95153 0.74327
 C970 C 0.62690 0.94051 0.75951
 C971 C 0.59928 0.95326 0.75959
 C972 C 0.59375 0.97659 0.74305
 C973 C 0.61534 0.98716 0.72663
 C974 C 0.64304 0.97504 0.72692
 C975 C 0.57760 0.94224 0.77589
 C976 C 0.58299 0.91817 0.79160
 C977 C 0.61058 0.90526 0.79115
 C978 C 0.63240 0.91673 0.77543
 C979 C 0.61575 0.88062 0.80597
 C980 C 0.59365 0.86837 0.82055
 C981 C 0.56625 0.88097 0.82127
 C982 C 0.56108 0.90619 0.80713
 H983 H 0.66983 0.94195 0.74339
 H984 H 0.57267 0.98652 0.74265
 H985 H 0.61049 1.00495 0.71381
 H986 H 0.55642 0.95203 0.77594
 H987 H 0.65352 0.90680 0.77520
 H988 H 0.63670 0.87041 0.80576
 H989 H 0.59788 0.84885 0.83123
 H990 H 0.53975 0.91564 0.80727
 C991 C 0.36954 0.96162 0.27929
 C992 C 0.38969 0.95118 0.26102
 C993 C 0.41437 0.96730 0.25509
 C994 C 0.41913 0.99290 0.26843
 C995 C 0.39912 1.00302 0.28672
 C996 C 0.37335 0.98828 0.29154
 C997 C 0.43387 0.95759 0.23595
 C998 C 0.42927 0.93166 0.22297
 C999 C 0.40506 0.91507 0.22954
 C1000 C 0.38529 0.92507 0.24829
 C1001 C 0.40118 0.88859 0.21739
 C1002 C 0.42123 0.87848 0.19911
 C1003 C 0.44497 0.89503 0.19207
 C1004 C 0.44878 0.92175 0.20386
 H1005 H 0.35006 0.94966 0.28271
 H1006 H 0.43830 1.00520 0.26466
 H1007 H 0.40391 1.02253 0.29709
 H1008 H 0.45264 0.97014 0.23123
 H1009 H 0.36653 0.91251 0.25303
 H1010 H 0.38288 0.87551 0.22231
 H1011 H 0.41815 0.85773 0.19033
 H1012 H 0.46745 0.93430 0.19885
 C1013 C 0.65442 0.05068 0.23754
 C1014 C 0.63007 0.06321 0.22565
 C1015 C 0.60820 0.07490 0.24173
 C1016 C 0.61054 0.07302 0.26927
 C1017 C 0.63430 0.05966 0.28085
 C1018 C 0.65650 0.04834 0.26521
 C1019 C 0.58439 0.08842 0.23010
 C1020 C 0.58177 0.08992 0.20254
 C1021 C 0.60294 0.07723 0.18633
 C1022 C 0.62717 0.06422 0.19800
 C1023 C 0.59952 0.07797 0.15875
 C1024 C 0.57569 0.09173 0.14735
 C1025 C 0.55527 0.10540 0.16335
 C1026 C 0.55834 0.10413 0.19095
 H1027 H 0.67186 0.04313 0.22528
 H1028 H 0.59389 0.08173 0.28186
 H1029 H 0.63534 0.05807 0.30217
 H1030 H 0.56790 0.09782 0.24250
 H1031 H 0.64368 0.05486 0.18560
 H1032 H 0.61538 0.06815 0.14600
 H1033 H 0.57372 0.09249 0.12605
 H1034 H 0.54242 0.11431 0.20344
 C1035 C 0.36823 0.02471 0.74363
 C1036 C 0.38627 0.04354 0.75744
 C1037 C 0.39561 0.06867 0.74496
 C1038 C 0.38682 0.07472 0.71917
 C1039 C 0.36914 0.05598 0.70559
 C1040 C 0.35974 0.03050 0.71734
 C1041 C 0.41368 0.08748 0.75834
 C1042 C 0.42266 0.08162 0.78415
 C1043 C 0.41337 0.05666 0.79692
 C1044 C 0.39516 0.03772 0.78347
 C1045 C 0.42257 0.05116 0.82286
 C1046 C 0.44088 0.07015 0.83590
 C1047 C 0.45032 0.09492 0.82319
 C1048 C 0.44095 0.10045 0.79729
 H1049 H 0.36040 0.00595 0.75357
 H1050 H 0.39390 0.09386 0.70934
 H1051 H 0.36376 0.06106 0.68530
 H1052 H 0.42083 0.10669 0.74861
 H1053 H 0.38806 0.01850 0.79318
 H1054 H 0.41569 0.03216 0.83303
 H1055 H 0.44778 0.06536 0.85586
 H1056 H 0.44795 0.11948 0.78721
 C1057 C 0.66309 0.75831 0.03951
 C1058 C 0.64046 0.77040 0.05431
 C1059 C 0.62210 0.75252 0.06900
 C1060 C 0.62609 0.72310 0.06827
 C1061 C 0.64798 0.71130 0.05311
 C1062 C 0.66672 0.72860 0.03862
 C1063 C 0.59990 0.76419 0.08418
 C1064 C 0.59527 0.79355 0.08463
 C1065 C 0.61296 0.81158 0.06952
 C1066 C 0.63565 0.79992 0.05459
 C1067 C 0.60753 0.84095 0.06963
 C1068 C 0.58496 0.85226 0.08470
 C1069 C 0.56772 0.83445 0.10021
 C1070 C 0.57305 0.80508 0.09998
 H1071 H 0.67751 0.77178 0.02844
 H1072 H 0.61210 0.70915 0.07928
 H1073 H 0.65026 0.68840 0.05257
 H1074 H 0.58610 0.75037 0.09558
 H1075 H 0.64938 0.81373 0.04315
 H1076 H 0.62071 0.85515 0.05809
 H1077 H 0.58129 0.87498 0.08456
 H1078 H 0.55969 0.79108 0.11161
 C1079 C 0.32624 0.26380 0.04380
 C1080 C 0.34478 0.24415 0.05602
 C1081 C 0.34829 0.21669 0.04507
 C1082 C 0.33219 0.20897 0.02275
 C1083 C 0.31439 0.22890 0.01030
 C1084 C 0.31224 0.25674 0.02011
 C1085 C 0.36872 0.19789 0.05586
 C1086 C 0.38614 0.20642 0.07710
 C1087 C 0.38200 0.23358 0.08846
 C1088 C 0.36117 0.25213 0.07805
 C1089 C 0.39935 0.24213 0.10963
 C1090 C 0.42113 0.22430 0.11905
 C1091 C 0.42605 0.19752 0.10752
 C1092 C 0.40814 0.18854 0.08671
 H1093 H 0.32465 0.28531 0.05133
 H1094 H 0.33441 0.18799 0.01419
 H1095 H 0.30351 0.22312 -0.00786
 H1096 H 0.37176 0.17704 0.04715
 H1097 H 0.35847 0.27316 0.08648
 H1098 H 0.39640 0.26282 0.11864
 H1099 H 0.43446 0.23176 0.13517
 H1100 H 0.41156 0.16789 0.07776
 C1101 C 0.65356 0.27149 0.95579
 C1102 C 0.63503 0.25202 0.94363
 C1103 C 0.63563 0.22321 0.95148
 C1104 C 0.65547 0.21422 0.97072
 C1105 C 0.67392 0.23375 0.98266
 C1106 C 0.67256 0.26262 0.97580
 C1107 C 0.61620 0.20396 0.94019
 C1108 C 0.59637 0.21312 0.92099
 C1109 C 0.59635 0.24178 0.91266
 C1110 C 0.61556 0.26106 0.92413
 C1111 C 0.57704 0.25073 0.89299
 C1112 C 0.55785 0.23150 0.88168
 C1113 C 0.55728 0.20312 0.89015
 C1114 C 0.57659 0.19406 0.90989
 H1115 H 0.65247 0.29376 0.95043
 H1116 H 0.65642 0.19219 0.97681
 H1117 H 0.68872 0.22651 0.99781
 H1118 H 0.61643 0.18193 0.94643
 H1119 H 0.61526 0.28312 0.91797
 H1120 H 0.57682 0.27258 0.88631
 H1121 H 0.54317 0.23893 0.86650
 H1122 H 0.57652 0.17210 0.91630
 C1123 C 0.36047 0.72927 0.97437
 C1124 C 0.37638 0.74743 0.95814
 C1125 C 0.36487 0.77419 0.95084
 C1126 C 0.33718 0.78189 0.95935
 C1127 C 0.32114 0.76329 0.97492
 C1128 C 0.33290 0.73715 0.98290
 C1129 C 0.38109 0.79258 0.93497
 C1130 C 0.40828 0.78416 0.92563
 C1131 C 0.41920 0.75695 0.93230
 C1132 C 0.40343 0.73901 0.94881
 C1133 C 0.44570 0.74794 0.92220
 C1134 C 0.46134 0.76562 0.90561
 C1135 C 0.45116 0.79291 0.89925
 C1136 C 0.42466 0.80225 0.90948
 H1137 H 0.36930 0.70883 0.98018
 H1138 H 0.32786 0.80217 0.95379
 H1139 H 0.29975 0.76946 0.98119
 H1140 H 0.37242 0.81322 0.92961
 H1141 H 0.41206 0.71832 0.95411
 H1142 H 0.45431 0.72714 0.92704
 H1143 H 0.48185 0.75814 0.89817
 H1144 H 0.41664 0.82325 0.90451
 C1145 C 0.73370 0.98238 0.35124
 C1146 C 0.75033 0.96509 0.36799
 C1147 C 0.77714 0.95436 0.35923
 C1148 C 0.78656 0.96075 0.33363
 C1149 C 0.76955 0.97753 0.31687
 C1150 C 0.74326 0.98877 0.32569
 C1151 C 0.79382 0.93706 0.37603
 C1152 C 0.78358 0.92961 0.40114
 C1153 C 0.75645 0.93995 0.40957
 C1154 C 0.74028 0.95798 0.39316
 C1155 C 0.74558 0.93156 0.43409
 C1156 C 0.76108 0.91263 0.44992
 C1157 C 0.78809 0.90242 0.44192
 C1158 C 0.79955 0.91133 0.41769
 H1159 H 0.71317 0.99071 0.35789
 H1160 H 0.80693 0.95259 0.32649
 H1161 H 0.77709 0.98218 0.29714
 H1162 H 0.81441 0.92892 0.36935
 H1163 H 0.71958 0.96596 0.39975
 H1164 H 0.72481 0.93917 0.44080
 H1165 H 0.75199 0.90596 0.46856
 H1166 H 0.82025 0.90314 0.41133
 C1167 C 0.27304 0.94342 0.64848
 C1168 C 0.26201 0.92940 0.62619
 C1169 C 0.27773 0.92955 0.60230
 C1170 C 0.30371 0.94439 0.60089
 C1171 C 0.31352 0.95976 0.62265
 C1172 C 0.29809 0.95966 0.64637
 C1173 C 0.26691 0.91553 0.58002
 C1174 C 0.23983 0.90269 0.58083
 C1175 C 0.22347 0.90364 0.60433
 C1176 C 0.23501 0.91632 0.62707
 C1177 C 0.19565 0.89227 0.60452
 C1178 C 0.18419 0.88004 0.58166
 C1179 C 0.20072 0.87821 0.55861
 C1180 C 0.22857 0.88940 0.55831
 H1181 H 0.26131 0.94322 0.66694
 H1182 H 0.31596 0.94483 0.58274
 H1183 H 0.33309 0.97198 0.62097
 H1184 H 0.27917 0.91533 0.56183
 H1185 H 0.22262 0.91678 0.64518
 H1186 H 0.18271 0.89303 0.62225
 H1187 H 0.16269 0.87132 0.58214
 H1188 H 0.24119 0.88822 0.54037
 C1189 C 0.29543 0.05119 0.37949
 C1190 C 0.27657 0.06889 0.39364
 C1191 C 0.24706 0.06981 0.38669
 C1192 C 0.23725 0.05419 0.36491
 C1193 C 0.25652 0.03803 0.35001
 C1194 C 0.28542 0.03549 0.35778
 C1195 C 0.22799 0.08686 0.40116
 C1196 C 0.23819 0.10393 0.42182
 C1197 C 0.26792 0.10427 0.42784
 C1198 C 0.28686 0.08635 0.41403
 C1199 C 0.27813 0.12241 0.44773
 C1200 C 0.25895 0.13931 0.46214
 C1201 C 0.22927 0.13792 0.45720
 C1202 C 0.21906 0.12050 0.43674
 H1203 H 0.31811 0.05052 0.38454
 H1204 H 0.21487 0.05522 0.35889
 H1205 H 0.24890 0.02737 0.33238
 H1206 H 0.20528 0.08710 0.39616
 H1207 H 0.30958 0.08620 0.41896
 H1208 H 0.30086 0.12315 0.45245
 H1209 H 0.26717 0.15241 0.47802
 H1210 H 0.19615 0.11949 0.43277
 C1211 C 0.72631 0.03250 0.63678
 C1212 C 0.74771 0.04493 0.62109
 C1213 C 0.77700 0.04197 0.62836
 C1214 C 0.78429 0.02746 0.65164
 C1215 C 0.76280 0.01605 0.66758
 C1216 C 0.73382 0.01787 0.65994
 C1217 C 0.79848 0.05396 0.61251
 C1218 C 0.79102 0.06975 0.58996
 C1219 C 0.76166 0.07353 0.58325
 C1220 C 0.74026 0.06071 0.59857
 C1221 C 0.75417 0.09033 0.56143
 C1222 C 0.77549 0.10331 0.54638
 C1223 C 0.80472 0.09918 0.55244
 C1224 C 0.81239 0.08219 0.57421
 H1225 H 0.70383 0.03454 0.63128
 H1226 H 0.80656 0.02530 0.65773
 H1227 H 0.76876 0.00541 0.68577
 H1228 H 0.82093 0.05141 0.61796
 H1229 H 0.71779 0.06339 0.59321
 H1230 H 0.73180 0.09360 0.55609
 H1231 H 0.76912 0.11619 0.52961
 H1232 H 0.83491 0.07916 0.57916
 C1233 C 0.94486 0.64808 0.27841
 C1234 C 0.93009 0.62468 0.26823
 C1235 C 0.94333 0.59756 0.26854
 C1236 C 0.97041 0.59407 0.28042
 C1237 C 0.98453 0.61737 0.29137
 C1238 C 0.97237 0.64468 0.28952
 C1239 C 0.92930 0.57442 0.25699
 C1240 C 0.90189 0.57794 0.24578
 C1241 C 0.88798 0.60472 0.24677
 C1242 C 0.90235 0.62803 0.25768
 C1243 C 0.86001 0.60776 0.23659
 C1244 C 0.84620 0.58460 0.22499
 C1245 C 0.86050 0.55843 0.22291
 C1246 C 0.88820 0.55509 0.23345
 H1247 H 0.93514 0.66905 0.27749
 H1248 H 0.98063 0.57335 0.28128
 H1249 H 1.00530 0.61422 0.30071
 H1250 H 0.93970 0.55374 0.25668
 H1251 H 0.89199 0.64873 0.25792
 H1252 H 0.84894 0.62805 0.23741
 H1253 H 0.82478 0.58731 0.21683
 H1254 H 0.89901 0.53467 0.23201
 C1255 C 0.93439 0.35199 0.72104
 C1256 C 0.91942 0.36610 0.74118
 C1257 C 0.92974 0.36462 0.76748
 C1258 C 0.95393 0.34785 0.77339
 C1259 C 0.96909 0.33448 0.75313
 C1260 C 0.96005 0.33743 0.72680
 C1261 C 0.91679 0.38119 0.78715
 C1262 C 0.89433 0.39994 0.78068
 C1263 C 0.88322 0.40056 0.75465
 C1264 C 0.89555 0.38327 0.73514
 C1265 C 0.86088 0.41950 0.74828
 C1266 C 0.85084 0.43883 0.76709
 C1267 C 0.86285 0.43942 0.79260
 C1268 C 0.88390 0.41919 0.79950
 H1269 H 0.92756 0.35436 0.70066
 H1270 H 0.96200 0.34633 0.79344
 H1271 H 0.98882 0.32316 0.75777
 H1272 H 0.92523 0.38064 0.80715
 H1273 H 0.88758 0.38435 0.71500
 H1274 H 0.85196 0.42012 0.72849
 H1275 H 0.83446 0.45407 0.76131
 H1276 H 0.89315 0.41924 0.81919
 C1277 C 0.02005 0.64162 0.72410
 C1278 C 0.03654 0.62381 0.74062
 C1279 C 0.05634 0.60435 0.72933
 C1280 C 0.05887 0.60253 0.70187
 C1281 C 0.04191 0.61970 0.68564
 C1282 C 0.02233 0.63924 0.69651
 C1283 C 0.07322 0.58688 0.74561
 C1284 C 0.07015 0.58799 0.77308
 C1285 C 0.04986 0.60683 0.78444
 C1286 C 0.03343 0.62489 0.76816
 C1287 C 0.04617 0.60704 0.81191
 C1288 C 0.06223 0.58861 0.82790
 C1289 C 0.08271 0.57012 0.81677
 C1290 C 0.08675 0.57012 0.78933
 H1291 H 0.00518 0.65691 0.73254
 H1292 H 0.07385 0.58770 0.69291
 H1293 H 0.04406 0.61778 0.66441
 H1294 H 0.08852 0.57217 0.73688
 H1295 H 0.01802 0.63948 0.77689
 H1296 H 0.03065 0.62120 0.82100
 H1297 H 0.05879 0.58892 0.84904
 H1298 H 0.10220 0.55560 0.78057
 C1299 C 0.03537 0.33496 0.25013
 C1300 C 0.04867 0.35806 0.23770
 C1301 C 0.06330 0.37854 0.25308
 C1302 C 0.06405 0.37570 0.28063
 C1303 C 0.04989 0.35321 0.29284
 C1304 C 0.03513 0.33289 0.27777
 C1305 C 0.07665 0.40163 0.24073
 C1306 C 0.07490 0.40498 0.21323
 C1307 C 0.05970 0.38482 0.19795
 C1308 C 0.04708 0.36130 0.21021
 C1309 C 0.05714 0.38865 0.17061
 C1310 C 0.06946 0.41220 0.15848
 C1311 C 0.08503 0.43216 0.17333
 C1312 C 0.08780 0.42833 0.20076
 H1313 H 0.02513 0.31875 0.23831
 H1314 H 0.07513 0.39116 0.29275
 H1315 H 0.05007 0.35185 0.31420
 H1316 H 0.08802 0.41720 0.25254
 H1317 H 0.03557 0.34580 0.19842
 H1318 H 0.04549 0.37349 0.15861
 H1319 H 0.06716 0.41457 0.13730
 H1320 H 0.09958 0.44372 0.21242
   
