data_POSCAR
  _audit_creation_date              2014-09-24
  _audit_creation_method            'ToBaCCo'
  _symmetry_space_group_name_H-M    'P1'
  _symmetry_Int_Tables_number       1
  _symmetry_cell_setting            triclinic
  loop_
  _symmetry_equiv_pos_as_xyz
 x,y,z
_cell_length_a 79.3038
_cell_length_b 79.2972
_cell_length_c 79.3458
_cell_angle_alpha 89.981800
_cell_angle_beta 89.989300
_cell_angle_gamma 90.042800
loop_
  _atom_site_label
  _atom_site_type_symbol
  _atom_site_fract_x
  _atom_site_fract_y
  _atom_site_fract_z
C1 C 0.35049 0.35130 0.32807
 C2 C 0.36492 0.34407 0.32085
 C3 C 0.37220 0.32949 0.32784
 C4 C 0.36497 0.32229 0.34234
 C5 C 0.35054 0.32939 0.34971
 C6 C 0.34326 0.34395 0.34255
 C7 C 0.34307 0.36566 0.32090
 C8 C 0.32842 0.37274 0.32794
 C9 C 0.32134 0.36540 0.34245
 C10 C 0.32864 0.35105 0.34978
 C11 C 0.32137 0.34351 0.36404
 C12 C 0.32849 0.32892 0.37118
 C13 C 0.34314 0.32200 0.36397
 H14 H 0.37051 0.34982 0.30978
 H15 H 0.37034 0.31091 0.34767
 H16 H 0.34873 0.37135 0.30984
 H17 H 0.30991 0.37063 0.34781
 H18 H 0.30995 0.34879 0.36937
 H19 H 0.34882 0.31087 0.36950
 C20 C 0.35088 0.85111 -0.17225
 C21 C 0.36532 0.84401 -0.17959
 C22 C 0.37295 0.82938 -0.17279
 C23 C 0.36570 0.82223 -0.15814
 C24 C 0.35128 0.82924 -0.15068
 C25 C 0.34385 0.84374 -0.15775
 C26 C 0.34338 0.86551 -0.17930
 C27 C 0.32869 0.87273 -0.17222
 C28 C 0.32188 0.86514 -0.15757
 C29 C 0.32931 0.85079 -0.15037
 C30 C 0.32217 0.84317 -0.13608
 C31 C 0.32939 0.82859 -0.12904
 C32 C 0.34401 0.82177 -0.13638
 H33 H 0.37083 0.85035 -0.19034
 H34 H 0.37064 0.81067 -0.15285
 H35 H 0.34947 0.87128 -0.19005
 H36 H 0.31030 0.86978 -0.15206
 H37 H 0.31078 0.84839 -0.13064
 H38 H 0.34978 0.81066 -0.13091
 C39 C 0.85134 0.35104 -0.17100
 C40 C 0.86583 0.34388 -0.17820
 C41 C 0.87330 0.32920 -0.17135
 C42 C 0.86587 0.32207 -0.15678
 C43 C 0.85141 0.32914 -0.14946
 C44 C 0.84412 0.34368 -0.15659
 C45 C 0.84398 0.36547 -0.17812
 C46 C 0.82922 0.37273 -0.17120
 C47 C 0.82223 0.36517 -0.15663
 C48 C 0.82953 0.35078 -0.14937
 C49 C 0.82220 0.34316 -0.13517
 C50 C 0.82928 0.32854 -0.12807
 C51 C 0.84395 0.32167 -0.13527
 H52 H 0.87147 0.35021 -0.18888
 H53 H 0.87070 0.31047 -0.15146
 H54 H 0.85021 0.37123 -0.18880
 H55 H 0.81060 0.36984 -0.15126
 H56 H 0.81076 0.34842 -0.12985
 H57 H 0.84961 0.31052 -0.12975
 C58 C 0.85064 0.85165 0.32903
 C59 C 0.86495 0.84433 0.32164
 C60 C 0.87212 0.82960 0.32842
 C61 C 0.86490 0.82231 0.34288
 C62 C 0.85058 0.82947 0.35040
 C63 C 0.84339 0.84417 0.34341
 C64 C 0.84333 0.86616 0.32204
 C65 C 0.82864 0.87344 0.32907
 C66 C 0.82167 0.86579 0.34360
 C67 C 0.82886 0.85128 0.35070
 C68 C 0.82163 0.84371 0.36496
 C69 C 0.82862 0.82899 0.37195
 C70 C 0.84317 0.82200 0.36462
 H71 H 0.87057 0.85015 0.31062
 H72 H 0.87019 0.81082 0.34806
 H73 H 0.84876 0.87115 0.31055
 H74 H 0.81088 0.87130 0.34988
 H75 H 0.81053 0.84929 0.37066
 H76 H 0.84851 0.81051 0.36976
 C77 C 0.64924 0.64896 0.32774
 C78 C 0.63490 0.65628 0.32042
 C79 C 0.62762 0.67086 0.32740
 C80 C 0.63475 0.67797 0.34199
 C81 C 0.64908 0.67079 0.34945
 C82 C 0.65637 0.65623 0.34231
 C83 C 0.65666 0.63460 0.32059
 C84 C 0.67121 0.62742 0.32773
 C85 C 0.67819 0.63469 0.34232
 C86 C 0.67089 0.64904 0.34964
 C87 C 0.67805 0.65649 0.36399
 C88 C 0.67093 0.67108 0.37112
 C89 C 0.65638 0.67809 0.36380
 H90 H 0.62938 0.65060 0.30929
 H91 H 0.62937 0.68935 0.34732
 H92 H 0.65107 0.62897 0.30946
 H93 H 0.68955 0.62939 0.34777
 H94 H 0.68941 0.65114 0.36939
 H95 H 0.65070 0.68922 0.36933
 C96 C 0.64865 0.14828 -0.17215
 C97 C 0.63423 0.15547 -0.17945
 C98 C 0.62687 0.17004 -0.17253
 C99 C 0.63402 0.17729 -0.15802
 C100 C 0.64841 0.17022 -0.15057
 C101 C 0.65575 0.15565 -0.15765
 C102 C 0.65610 0.13390 -0.17924
 C103 C 0.67079 0.12663 -0.17220
 C104 C 0.67763 0.13417 -0.15754
 C105 C 0.67027 0.14854 -0.15031
 C106 C 0.67745 0.15612 -0.13603
 C107 C 0.67030 0.17073 -0.12896
 C108 C 0.65571 0.17764 -0.13629
 H109 H 0.62868 0.14969 -0.19052
 H110 H 0.62860 0.18867 -0.15275
 H111 H 0.64997 0.12817 -0.19000
 H112 H 0.68921 0.12948 -0.15206
 H113 H 0.68884 0.15086 -0.13061
 H114 H 0.64999 0.18878 -0.13081
 C115 C 0.14948 0.64900 -0.17201
 C116 C 0.13508 0.65626 -0.17928
 C117 C 0.12777 0.67083 -0.17231
 C118 C 0.13493 0.67800 -0.15777
 C119 C 0.14930 0.67085 -0.15034
 C120 C 0.15659 0.65628 -0.15747
 C121 C 0.15689 0.63463 -0.17915
 C122 C 0.17155 0.62728 -0.17213
 C123 C 0.17841 0.63474 -0.15745
 C124 C 0.17109 0.64911 -0.15016
 C125 C 0.17830 0.65661 -0.13585
 C126 C 0.17119 0.67122 -0.12873
 C127 C 0.15662 0.67820 -0.13603
 H128 H 0.12952 0.65055 -0.19038
 H129 H 0.12955 0.68938 -0.15245
 H130 H 0.15074 0.62896 -0.18993
 H131 H 0.18998 0.63001 -0.15198
 H132 H 0.18967 0.65130 -0.13045
 H133 H 0.15094 0.68933 -0.13051
 C134 C 0.14888 0.14885 0.32785
 C135 C 0.13451 0.15624 0.32063
 C136 C 0.12716 0.17094 0.32756
 C137 C 0.13460 0.17789 0.34221
 C138 C 0.14893 0.17058 0.34956
 C139 C 0.15610 0.15602 0.34235
 C140 C 0.15612 0.13439 0.32067
 C141 C 0.17073 0.12688 0.32764
 C142 C 0.17772 0.13427 0.34229
 C143 C 0.17057 0.14871 0.34958
 C144 C 0.17791 0.15611 0.36387
 C145 C 0.17097 0.17076 0.37105
 C146 C 0.15641 0.17786 0.36385
 H147 H 0.12885 0.15004 0.30988
 H148 H 0.12987 0.18949 0.34759
 H149 H 0.14991 0.12878 0.30990
 H150 H 0.18926 0.12943 0.34770
 H151 H 0.18900 0.15043 0.36947
 H152 H 0.15111 0.18927 0.36917
 C153 C 0.64841 0.35103 0.67214
 C154 C 0.63400 0.34363 0.67923
 C155 C 0.62682 0.32907 0.67207
 C156 C 0.63415 0.32207 0.65753
 C157 C 0.64855 0.32935 0.65027
 C158 C 0.65574 0.34388 0.65761
 C159 C 0.65573 0.36537 0.67948
 C160 C 0.67036 0.37263 0.67256
 C161 C 0.67754 0.36547 0.65802
 C162 C 0.67036 0.35114 0.65053
 C163 C 0.67772 0.34380 0.63623
 C164 C 0.67070 0.32925 0.62891
 C165 C 0.65605 0.32216 0.63597
 H166 H 0.62832 0.34923 0.69033
 H167 H 0.62886 0.31071 0.65207
 H168 H 0.65000 0.37091 0.69057
 H169 H 0.68896 0.37082 0.65275
 H170 H 0.68890 0.34945 0.63076
 H171 H 0.65071 0.31080 0.63057
 C172 C 0.64977 0.85163 1.17116
 C173 C 0.63530 0.84448 1.17840
 C174 C 0.62772 0.82986 1.17150
 C175 C 0.63507 0.82276 1.15688
 C176 C 0.64954 0.82980 1.14953
 C177 C 0.65695 0.84425 1.15670
 C178 C 0.65728 0.86598 1.17830
 C179 C 0.67198 0.87299 1.17126
 C180 C 0.67903 0.86557 1.15679
 C181 C 0.67166 0.85124 1.14951
 C182 C 0.67887 0.84369 1.13525
 C183 C 0.67166 0.82915 1.12811
 C184 C 0.65694 0.82234 1.13529
 H185 H 0.62973 0.85078 1.18913
 H186 H 0.63015 0.81121 1.15153
 H187 H 0.65192 0.87147 1.18960
 H188 H 0.69025 0.87098 1.15116
 H189 H 0.69010 0.84915 1.12969
 H190 H 0.65144 0.81099 1.13000
 C191 C 0.14817 0.35177 1.17157
 C192 C 0.13378 0.34434 1.17870
 C193 C 0.12650 0.32961 1.17172
 C194 C 0.13404 0.32270 1.15710
 C195 C 0.14842 0.33003 1.14984
 C196 C 0.15554 0.34459 1.15711
 C197 C 0.15537 0.36622 1.17880
 C198 C 0.16997 0.37354 1.17185
 C199 C 0.17721 0.36632 1.15738
 C200 C 0.17013 0.35190 1.15000
 C201 C 0.17756 0.34452 1.13576
 C202 C 0.17064 0.32989 1.12852
 C203 C 0.15601 0.32277 1.13561
 H204 H 0.12805 0.35052 1.18942
 H205 H 0.12935 0.31109 1.15169
 H206 H 0.14960 0.37182 1.18985
 H207 H 0.18861 0.37171 1.15209
 H208 H 0.18871 0.35021 1.13027
 H209 H 0.15074 0.31136 1.13025
 C210 C 0.14914 0.85104 0.67086
 C211 C 0.13474 0.84367 0.67805
 C212 C 0.12741 0.82894 0.67112
 C213 C 0.13491 0.82197 0.65651
 C214 C 0.14930 0.82922 0.64921
 C215 C 0.15648 0.84377 0.65642
 C216 C 0.15654 0.86538 0.67814
 C217 C 0.17118 0.87257 0.67117
 C218 C 0.17831 0.86533 0.65665
 C219 C 0.17110 0.85098 0.64928
 C220 C 0.17840 0.84360 0.63497
 C221 C 0.17136 0.82904 0.62772
 C222 C 0.15673 0.82199 0.63488
 H223 H 0.12988 0.84909 0.68958
 H224 H 0.12934 0.81117 0.65031
 H225 H 0.15110 0.87074 0.68947
 H226 H 0.18948 0.87091 0.65107
 H227 H 0.18957 0.84923 0.62944
 H228 H 0.15137 0.81061 0.62952
 C229 C 0.35205 0.64901 0.67059
 C230 C 0.36639 0.65670 0.67752
 C231 C 0.37328 0.67131 0.67018
 C232 C 0.36574 0.67808 0.65563
 C233 C 0.35141 0.67052 0.64855
 C234 C 0.34451 0.65594 0.65606
 C235 C 0.34498 0.63464 0.67812
 C236 C 0.33042 0.62710 0.67135
 C237 C 0.32305 0.63402 0.65679
 C238 C 0.32996 0.64839 0.64913
 C239 C 0.32240 0.65549 0.63482
 C240 C 0.32915 0.67008 0.62731
 C241 C 0.34373 0.67745 0.63421
 H242 H 0.37196 0.65154 0.68888
 H243 H 0.37108 0.68923 0.64978
 H244 H 0.35084 0.62929 0.68924
 H245 H 0.31168 0.62845 0.65164
 H246 H 0.31128 0.64962 0.62946
 H247 H 0.34887 0.68885 0.62867
 C248 C 0.35114 0.14909 1.17161
 C249 C 0.36554 0.15646 1.17880
 C250 C 0.37290 0.17118 1.17189
 C251 C 0.36542 0.17818 1.15729
 C252 C 0.35101 0.17094 1.15000
 C253 C 0.34382 0.15639 1.15722
 C254 C 0.34386 0.13463 1.17880
 C255 C 0.32909 0.12729 1.17197
 C256 C 0.32202 0.13480 1.15742
 C257 C 0.32920 0.14922 1.15012
 C258 C 0.32187 0.15664 1.13585
 C259 C 0.32885 0.17126 1.12865
 C260 C 0.34348 0.17829 1.13577
 H261 H 0.37124 0.15022 1.18951
 H262 H 0.37016 0.18979 1.15191
 H263 H 0.34935 0.12974 1.19029
 H264 H 0.31119 0.12923 1.15128
 H265 H 0.31071 0.15101 1.13031
 H266 H 0.34881 0.18970 1.13044
 C267 C 0.85141 0.64809 1.17166
 C268 C 0.86580 0.65547 1.17885
 C269 C 0.87296 0.67011 1.17185
 C270 C 0.86567 0.67723 1.15735
 C271 C 0.85132 0.66997 1.15000
 C272 C 0.84416 0.65533 1.15717
 C273 C 0.84414 0.63366 1.17885
 C274 C 0.82947 0.62621 1.17192
 C275 C 0.82248 0.63362 1.15727
 C276 C 0.82967 0.64805 1.14994
 C277 C 0.82233 0.65552 1.13568
 C278 C 0.82929 0.67019 1.12854
 C279 C 0.84386 0.67728 1.13574
 H280 H 0.87146 0.64980 1.18993
 H281 H 0.87094 0.68867 1.15202
 H282 H 0.85038 0.62803 1.18959
 H283 H 0.81091 0.62880 1.15188
 H284 H 0.81096 0.65012 1.13035
 H285 H 0.84944 0.68846 1.13020
 C286 C 0.85109 0.14887 0.67220
 C287 C 0.86547 0.15618 0.67944
 C288 C 0.87270 0.17080 0.67246
 C289 C 0.86546 0.17797 0.65795
 C290 C 0.85108 0.17080 0.65056
 C291 C 0.84385 0.15619 0.65770
 C292 C 0.84372 0.13446 0.67934
 C293 C 0.82911 0.12730 0.67228
 C294 C 0.82202 0.13461 0.65777
 C295 C 0.82928 0.14900 0.65045
 C296 C 0.82200 0.15650 0.63619
 C297 C 0.82906 0.17114 0.62906
 C298 C 0.84367 0.17815 0.63630
 H299 H 0.87108 0.15046 0.69051
 H300 H 0.87079 0.18939 0.65263
 H301 H 0.84938 0.12880 0.69041
 H302 H 0.81063 0.12932 0.65239
 H303 H 0.81061 0.15116 0.63085
 H304 H 0.84930 0.18932 0.63078
 C305 C 0.35001 0.35010 0.67021
 C306 C 0.34272 0.36443 0.67758
 C307 C 0.32821 0.37182 0.67056
 C308 C 0.32112 0.36478 0.65591
 C309 C 0.32825 0.35044 0.64843
 C310 C 0.34274 0.34305 0.65559
 C311 C 0.36428 0.34253 0.67741
 C312 C 0.37139 0.32795 0.67023
 C313 C 0.36413 0.32108 0.65558
 C314 C 0.34986 0.32851 0.64824
 C315 C 0.34245 0.32147 0.63381
 C316 C 0.32794 0.32871 0.62664
 C317 C 0.32099 0.34327 0.63399
 H318 H 0.34813 0.36961 0.68901
 H319 H 0.31005 0.37051 0.65031
 H320 H 0.36964 0.34776 0.68884
 H321 H 0.36964 0.30997 0.64985
 H322 H 0.34776 0.31010 0.62839
 H323 H 0.30991 0.34904 0.62844
 C324 C 0.35084 0.85076 0.16996
 C325 C 0.34349 0.86502 0.17739
 C326 C 0.32889 0.87232 0.17046
 C327 C 0.32177 0.86526 0.15584
 C328 C 0.32896 0.85098 0.14829
 C329 C 0.34354 0.84368 0.15537
 C330 C 0.36520 0.84328 0.17707
 C331 C 0.37237 0.82877 0.16983
 C332 C 0.36508 0.82187 0.15521
 C333 C 0.35073 0.82920 0.14796
 C334 C 0.34329 0.82213 0.13355
 C335 C 0.32869 0.82929 0.12647
 C336 C 0.32167 0.84378 0.13388
 H337 H 0.34893 0.87023 0.18879
 H338 H 0.31063 0.87092 0.15030
 H339 H 0.37058 0.84853 0.18847
 H340 H 0.37064 0.81080 0.14944
 H341 H 0.34864 0.81081 0.12808
 H342 H 0.31053 0.84949 0.12840
 C343 C 0.84983 0.34938 0.17044
 C344 C 0.84248 0.36368 0.17781
 C345 C 0.82789 0.37097 0.17083
 C346 C 0.82079 0.36386 0.15623
 C347 C 0.82797 0.34954 0.14874
 C348 C 0.84254 0.34226 0.15587
 C349 C 0.86417 0.34192 0.17759
 C350 C 0.87135 0.32738 0.17041
 C351 C 0.86407 0.32043 0.15581
 C352 C 0.84972 0.32774 0.14852
 C353 C 0.84229 0.32063 0.13412
 C354 C 0.82771 0.32777 0.12700
 C355 C 0.82070 0.34230 0.13435
 H356 H 0.84790 0.36893 0.18920
 H357 H 0.80966 0.36951 0.15065
 H358 H 0.86955 0.34721 0.18898
 H359 H 0.86962 0.30934 0.15008
 H360 H 0.84764 0.30929 0.12869
 H361 H 0.80957 0.34800 0.12884
 C362 C 0.85020 0.85012 0.67043
 C363 C 0.84270 0.86443 0.67762
 C364 C 0.82810 0.87154 0.67050
 C365 C 0.82112 0.86424 0.65592
 C366 C 0.82847 0.84994 0.64859
 C367 C 0.84305 0.84281 0.65588
 C368 C 0.86455 0.84283 0.67774
 C369 C 0.87187 0.82827 0.67073
 C370 C 0.86474 0.82115 0.65614
 C371 C 0.85037 0.82828 0.64872
 C372 C 0.84310 0.82098 0.63435
 C373 C 0.82851 0.82794 0.62706
 C374 C 0.82133 0.84249 0.63422
 H375 H 0.84802 0.86981 0.68899
 H376 H 0.80998 0.86976 0.65024
 H377 H 0.86982 0.84826 0.68911
 H378 H 0.87041 0.81006 0.65054
 H379 H 0.84882 0.80989 0.62881
 H380 H 0.80995 0.84779 0.62884
 C381 C 0.64976 0.64902 0.67101
 C382 C 0.65719 0.63470 0.67825
 C383 C 0.67173 0.62747 0.67112
 C384 C 0.67869 0.63465 0.65648
 C385 C 0.67141 0.64897 0.64910
 C386 C 0.65689 0.65620 0.65638
 C387 C 0.63547 0.65643 0.67831
 C388 C 0.62820 0.67098 0.67124
 C389 C 0.63531 0.67799 0.65658
 C390 C 0.64961 0.67072 0.64913
 C391 C 0.65692 0.67793 0.63472
 C392 C 0.67146 0.67084 0.62745
 C393 C 0.67855 0.65629 0.63468
 H394 H 0.65188 0.62940 0.68968
 H395 H 0.68978 0.62905 0.65079
 H396 H 0.62995 0.65083 0.68950
 H397 H 0.62995 0.68934 0.65119
 H398 H 0.65151 0.68928 0.62937
 H399 H 0.68964 0.65063 0.62905
 C400 C 0.64917 0.14948 0.17076
 C401 C 0.65649 0.13517 0.17811
 C402 C 0.67099 0.12780 0.17108
 C403 C 0.67802 0.13480 0.15638
 C404 C 0.67084 0.14912 0.14888
 C405 C 0.65636 0.15650 0.15609
 C406 C 0.63490 0.15700 0.17798
 C407 C 0.62774 0.17156 0.17082
 C408 C 0.63491 0.17843 0.15612
 C409 C 0.64917 0.17102 0.14873
 C410 C 0.65655 0.17808 0.13428
 C411 C 0.67107 0.17086 0.12709
 C412 C 0.67806 0.15632 0.13444
 H413 H 0.65087 0.12974 0.18933
 H414 H 0.68935 0.12936 0.15102
 H415 H 0.62933 0.15150 0.18919
 H416 H 0.62962 0.18978 0.15065
 H417 H 0.65122 0.18943 0.12886
 H418 H 0.68914 0.15056 0.12887
 C419 C 0.14964 0.65063 0.17079
 C420 C 0.15709 0.63633 0.17804
 C421 C 0.17166 0.62914 0.17094
 C422 C 0.17862 0.63632 0.15629
 C423 C 0.17128 0.65060 0.14887
 C424 C 0.15675 0.65782 0.15616
 C425 C 0.13529 0.65797 0.17806
 C426 C 0.12798 0.67248 0.17099
 C427 C 0.13508 0.67952 0.15634
 C428 C 0.14943 0.67232 0.14892
 C429 C 0.15672 0.67954 0.13451
 C430 C 0.17128 0.67250 0.12723
 C431 C 0.17843 0.65797 0.13446
 H432 H 0.15152 0.63077 0.18921
 H433 H 0.18998 0.63100 0.15087
 H434 H 0.12979 0.65234 0.18924
 H435 H 0.12968 0.69085 0.15094
 H436 H 0.15101 0.69062 0.12891
 H437 H 0.18979 0.65261 0.12909
 C438 C 0.14936 0.14991 0.67076
 C439 C 0.15669 0.13563 0.67817
 C440 C 0.17129 0.12832 0.67126
 C441 C 0.17843 0.13538 0.65663
 C442 C 0.17124 0.14966 0.64906
 C443 C 0.15667 0.15698 0.65617
 C444 C 0.13499 0.15737 0.67786
 C445 C 0.12783 0.17189 0.67064
 C446 C 0.13513 0.17881 0.65603
 C447 C 0.14950 0.17149 0.64879
 C448 C 0.15694 0.17858 0.63441
 C449 C 0.17155 0.17146 0.62731
 C450 C 0.17856 0.15693 0.63468
 H451 H 0.15099 0.13016 0.68932
 H452 H 0.18982 0.12998 0.65135
 H453 H 0.12960 0.15210 0.68927
 H454 H 0.12959 0.18989 0.65027
 H455 H 0.15133 0.18965 0.62869
 H456 H 0.18995 0.15149 0.62944
 C457 C 0.35116 0.64993 0.32899
 C458 C 0.34368 0.63561 0.32178
 C459 C 0.32913 0.62840 0.32894
 C460 C 0.32220 0.63560 0.34358
 C461 C 0.32953 0.64992 0.35093
 C462 C 0.34404 0.65714 0.34360
 C463 C 0.36545 0.65733 0.32164
 C464 C 0.37273 0.67190 0.32867
 C465 C 0.36563 0.67893 0.34331
 C466 C 0.35133 0.67170 0.35078
 C467 C 0.34408 0.67891 0.36520
 C468 C 0.32955 0.67184 0.37252
 C469 C 0.32241 0.65727 0.36535
 H470 H 0.34896 0.63030 0.31036
 H471 H 0.31110 0.63001 0.34929
 H472 H 0.37068 0.65197 0.31022
 H473 H 0.37128 0.69005 0.34892
 H474 H 0.34977 0.69003 0.37075
 H475 H 0.31106 0.65189 0.37075
 C476 C 0.34979 0.14927 0.83026
 C477 C 0.34225 0.13493 0.82316
 C478 C 0.32770 0.12780 0.83040
 C479 C 0.32081 0.13512 0.84500
 C480 C 0.32820 0.14947 0.85224
 C481 C 0.34272 0.15660 0.84484
 C482 C 0.36409 0.15658 0.82283
 C483 C 0.37143 0.17117 0.82974
 C484 C 0.36438 0.17832 0.84436
 C485 C 0.35007 0.17118 0.85190
 C486 C 0.34288 0.17851 0.86629
 C487 C 0.32834 0.17154 0.87369
 C488 C 0.32114 0.15695 0.86663
 H489 H 0.34750 0.12952 0.81176
 H490 H 0.30971 0.12961 0.85077
 H491 H 0.36928 0.15113 0.81143
 H492 H 0.37008 0.18946 0.84988
 H493 H 0.34862 0.18964 0.87176
 H494 H 0.30979 0.15164 0.87209
 C495 C 0.85108 0.64951 0.82957
 C496 C 0.84360 0.63520 0.82233
 C497 C 0.82908 0.62795 0.82952
 C498 C 0.82219 0.63509 0.84420
 C499 C 0.82952 0.64940 0.85157
 C500 C 0.84400 0.65667 0.84422
 C501 C 0.86534 0.65696 0.82220
 C502 C 0.87262 0.67152 0.82924
 C503 C 0.86556 0.67849 0.84393
 C504 C 0.85128 0.67121 0.85142
 C505 C 0.84407 0.67837 0.86588
 C506 C 0.82957 0.67126 0.87323
 C507 C 0.82244 0.65670 0.86603
 H508 H 0.84886 0.62992 0.81088
 H509 H 0.81112 0.62947 0.84994
 H510 H 0.87055 0.65164 0.81074
 H511 H 0.87120 0.68960 0.84956
 H512 H 0.84976 0.68948 0.87145
 H513 H 0.81111 0.65129 0.87146
 C514 C 0.85061 0.14986 0.33041
 C515 C 0.84313 0.13557 0.32315
 C516 C 0.82856 0.12837 0.33025
 C517 C 0.82159 0.13555 0.34488
 C518 C 0.82892 0.14984 0.35229
 C519 C 0.84347 0.15706 0.34501
 C520 C 0.86494 0.15725 0.32311
 C521 C 0.87224 0.17179 0.33019
 C522 C 0.86511 0.17881 0.34482
 C523 C 0.85077 0.17158 0.35224
 C524 C 0.84349 0.17877 0.36666
 C525 C 0.82893 0.17171 0.37393
 C526 C 0.82179 0.15718 0.36670
 H527 H 0.84844 0.13027 0.31173
 H528 H 0.81047 0.12997 0.35055
 H529 H 0.87019 0.15190 0.31169
 H530 H 0.87076 0.18990 0.35047
 H531 H 0.84919 0.18987 0.37225
 H532 H 0.81042 0.15180 0.37207
 C533 C 0.64946 0.35024 0.33009
 C534 C 0.65692 0.36456 0.32283
 C535 C 0.67150 0.37175 0.32993
 C536 C 0.67847 0.36455 0.34455
 C537 C 0.67117 0.35022 0.35192
 C538 C 0.65662 0.34302 0.34467
 C539 C 0.63513 0.34286 0.32280
 C540 C 0.62785 0.32830 0.32987
 C541 C 0.63500 0.32124 0.34448
 C542 C 0.64933 0.32848 0.35190
 C543 C 0.65663 0.32126 0.36630
 C544 C 0.67121 0.32832 0.37355
 C545 C 0.67833 0.34287 0.36632
 H546 H 0.65160 0.36987 0.31143
 H547 H 0.68959 0.37013 0.35022
 H548 H 0.62986 0.34823 0.31140
 H549 H 0.62936 0.31013 0.35011
 H550 H 0.65121 0.30990 0.37164
 H551 H 0.68945 0.34851 0.37193
 C552 C 0.64969 0.85017 0.83010
 C553 C 0.65722 0.86452 0.82299
 C554 C 0.67181 0.87161 0.83019
 C555 C 0.67872 0.86425 0.84477
 C556 C 0.67134 0.84990 0.85202
 C557 C 0.65678 0.84280 0.84465
 C558 C 0.63536 0.84290 0.82271
 C559 C 0.62801 0.82830 0.82963
 C560 C 0.63508 0.82112 0.84421
 C561 C 0.64943 0.82823 0.85172
 C562 C 0.65665 0.82087 0.86608
 C563 C 0.67122 0.82780 0.87344
 C564 C 0.67842 0.84239 0.86637
 H565 H 0.65196 0.86995 0.81162
 H566 H 0.68985 0.86974 0.85051
 H567 H 0.63014 0.84837 0.81133
 H568 H 0.62939 0.80999 0.84974
 H569 H 0.65090 0.80973 0.87155
 H570 H 0.68979 0.84767 0.87181
 C571 C 0.14973 0.35093 0.82984
 C572 C 0.15716 0.36522 0.82251
 C573 C 0.17172 0.37250 0.82958
 C574 C 0.17869 0.36540 0.84425
 C575 C 0.17142 0.35110 0.85169
 C576 C 0.15689 0.34381 0.84447
 C577 C 0.13543 0.34346 0.82258
 C578 C 0.12819 0.32891 0.82972
 C579 C 0.13535 0.32197 0.84438
 C580 C 0.14964 0.32930 0.85178
 C581 C 0.15696 0.32218 0.86622
 C582 C 0.17151 0.32931 0.87343
 C583 C 0.17859 0.34384 0.86613
 H584 H 0.15184 0.37046 0.81107
 H585 H 0.18979 0.37104 0.84990
 H586 H 0.13015 0.34875 0.81114
 H587 H 0.12974 0.31088 0.85008
 H588 H 0.15156 0.31083 0.87161
 H589 H 0.18969 0.34954 0.87172
 C590 C 0.14933 0.85104 0.32969
 C591 C 0.15692 0.86533 0.32254
 C592 C 0.17153 0.87238 0.32971
 C593 C 0.17843 0.86504 0.34431
 C594 C 0.17099 0.85074 0.35160
 C595 C 0.15640 0.84368 0.34425
 C596 C 0.13497 0.84379 0.32232
 C597 C 0.12759 0.82924 0.32928
 C598 C 0.13463 0.82207 0.34388
 C599 C 0.14900 0.82915 0.35137
 C600 C 0.15621 0.82179 0.36573
 C601 C 0.17081 0.82869 0.37307
 C602 C 0.17806 0.84324 0.36596
 H603 H 0.15167 0.87075 0.31115
 H604 H 0.18958 0.87050 0.35003
 H605 H 0.12978 0.84926 0.31093
 H606 H 0.12891 0.81097 0.34944
 H607 H 0.15043 0.81069 0.37123
 H608 H 0.18946 0.84849 0.37138
 O609 O 0.24885 1.01618 0.27191
 O610 O 0.27232 0.98328 0.24900
 O611 O 0.27232 1.01618 0.24900
 O612 O 0.24894 0.98329 0.27201
 O613 O 0.22940 0.98321 0.25213
 O614 O 0.25278 1.01612 0.22911
 O615 O 0.25277 0.98323 0.22913
 O616 O 0.22932 1.01609 0.25202
 Cu617 Cu 0.26258 0.99974 0.26249
 Cu618 Cu 0.23910 0.99966 0.23859
 C619 C 0.23515 1.02173 0.26580
 C620 C 0.26646 0.97766 0.23522
 C621 C 0.26646 1.02175 0.23520
 C622 C 0.23526 0.97766 0.26594
 O623 O 0.25291 0.51632 0.72895
 O624 O 0.22930 0.48355 0.75193
 O625 O 0.22959 0.51643 0.75202
 O626 O 0.25265 0.48343 0.72891
 O627 O 0.27225 0.48323 0.74872
 O628 O 0.24919 0.51625 0.77184
 O629 O 0.24891 0.48336 0.77175
 O630 O 0.27251 0.51612 0.74877
 Cu631 Cu 0.23913 0.49995 0.73845
 Cu632 Cu 0.26269 0.49972 0.76227
 C633 C 0.26666 0.52179 0.73502
 C634 C 0.23516 0.47788 0.76569
 C635 C 0.23553 0.52195 0.76580
 C636 C 0.26631 0.47771 0.73494
 O637 O 0.77193 0.01734 0.25209
 O638 O 0.74894 -0.01568 0.22886
 O639 O 0.74887 0.01721 0.22878
 O640 O 0.77206 -0.01555 0.25211
 O641 O 0.75225 -0.01561 0.27173
 O642 O 0.72906 0.01715 0.24840
 O643 O 0.72913 -0.01573 0.24849
 O644 O 0.75211 0.01728 0.27171
 Cu645 Cu 0.76245 0.00084 0.23848
 Cu646 Cu 0.73864 0.00077 0.26206
 C647 C 0.76587 0.02292 0.26579
 C648 C 0.73518 -0.02131 0.23479
 C649 C 0.73507 0.02275 0.23468
 C650 C 0.76603 -0.02115 0.26583
 O651 O 0.77166 0.51651 0.75250
 O652 O 0.74829 0.48357 0.72954
 O653 O 0.74837 0.51646 0.72942
 O654 O 0.77150 0.48361 0.75270
 O655 O 0.75183 0.48376 0.77246
 O656 O 0.72870 0.51661 0.74918
 O657 O 0.72862 0.48372 0.74930
 O658 O 0.75199 0.51665 0.77226
 Cu659 Cu 0.76194 0.50002 0.73905
 Cu660 Cu 0.73830 0.50020 0.76279
 C661 C 0.76574 0.52219 0.76622
 C662 C 0.73454 0.47805 0.73557
 C663 C 0.73466 0.52212 0.73540
 C664 C 0.76554 0.47809 0.76648
 O665 O 0.27173 0.51729 0.25136
 O666 O 0.24819 0.48456 0.22828
 O667 O 0.24862 0.51746 0.22810
 O668 O 0.27132 0.48440 0.25152
 O669 O 0.25155 0.48471 0.27118
 O670 O 0.22885 0.51778 0.24777
 O671 O 0.22842 0.48489 0.24795
 O672 O 0.25196 0.51760 0.27101
 Cu673 Cu 0.26196 0.50089 0.23783
 Cu674 Cu 0.23820 0.50128 0.26146
 C675 C 0.26579 0.52302 0.26505
 C676 C 0.23436 0.47916 0.23425
 C677 C 0.23493 0.52324 0.23402
 C678 C 0.26523 0.47893 0.26526
 O679 O 0.75163 1.01556 0.72884
 O680 O 0.72865 0.98266 0.75228
 O681 O 0.72865 1.01556 0.75222
 O682 O 0.75164 0.98266 0.72889
 O683 O 0.77153 0.98269 0.74842
 O684 O 0.74853 1.01560 0.77177
 O685 O 0.74853 0.98271 0.77181
 O686 O 0.77152 1.01559 0.74838
 Cu687 Cu 0.73814 0.99910 0.73859
 Cu688 Cu 0.76203 0.99915 0.76207
 C689 C 0.76542 1.02118 0.73470
 C690 C 0.73474 0.97710 0.76597
 C691 C 0.73474 1.02118 0.76590
 C692 C 0.76543 0.97708 0.73475
 O693 O 0.72873 0.48270 0.25205
 O694 O 0.75204 0.51541 0.22869
 O695 O 0.75194 0.48252 0.22888
 O696 O 0.72892 0.51559 0.25194
 O697 O 0.74865 0.51561 0.27163
 O698 O 0.77168 0.48252 0.24857
 O699 O 0.77178 0.51542 0.24838
 O700 O 0.74847 0.48271 0.27173
 Cu701 Cu 0.73842 0.49905 0.23841
 Cu702 Cu 0.76214 0.49906 0.26207
 C703 C 0.73469 0.47714 0.26580
 C704 C 0.76581 0.52098 0.23463
 C705 C 0.76566 0.47689 0.23487
 C706 C 0.73493 0.52123 0.26564
 O707 O 0.24758 -0.01602 0.72921
 O708 O 0.27071 0.01679 0.75260
 O709 O 0.27064 -0.01610 0.75251
 O710 O 0.24774 0.01688 0.72920
 O711 O 0.22787 0.01689 0.74876
 O712 O 0.25079 -0.01611 0.77208
 O713 O 0.25084 0.01679 0.77216
 O714 O 0.22772 -0.01601 0.74878
 Cu715 Cu 0.26117 0.00039 0.73891
 Cu716 Cu 0.23730 0.00040 0.76242
 C717 C 0.23378 -0.02160 0.73509
 C718 C 0.26464 0.02237 0.76630
 C719 C 0.26456 -0.02172 0.76619
 C720 C 0.23397 0.02250 0.73508
 O721 O 0.24776 0.27171 0.98490
 O722 O 0.27111 0.24870 1.01776
 O723 O 0.27097 0.24856 0.98490
 O724 O 0.24783 0.27179 1.01776
 O725 O 0.22815 0.25202 1.01789
 O726 O 0.25129 0.22878 0.98503
 O727 O 0.25143 0.22892 1.01790
 O728 O 0.22808 0.25194 0.98502
 Cu729 Cu 0.26140 0.26219 1.00132
 Cu730 Cu 0.23775 0.23842 1.00147
 C731 C 0.23402 0.26568 0.97936
 C732 C 0.26518 0.23496 1.02342
 C733 C 0.26501 0.23478 0.97937
 C734 C 0.23411 0.26579 1.02341
 O735 O 0.24815 0.77101 0.48401
 O736 O 0.27123 0.74760 0.51680
 O737 O 0.27131 0.74781 0.48394
 O738 O 0.24807 0.77081 0.51687
 O739 O 0.22833 0.75110 0.51673
 O740 O 0.25158 0.72809 0.48377
 O741 O 0.25149 0.72789 0.51664
 O742 O 0.22841 0.75130 0.48386
 Cu743 Cu 0.26168 0.76130 0.50042
 Cu744 Cu 0.23796 0.73761 0.50023
 C745 C 0.23441 0.76507 0.47836
 C746 C 0.26523 0.73382 0.52229
 C747 C 0.26534 0.73411 0.47825
 C748 C 0.23431 0.76481 0.52240
 O749 O 0.27194 0.75151 -0.01764
 O750 O 0.24867 0.72852 0.01536
 O751 O 0.24871 0.72833 -0.01753
 O752 O 0.27191 0.75168 0.01524
 O753 O 0.25222 0.77142 0.01509
 O754 O 0.22903 0.74807 -0.01766
 O755 O 0.22899 0.74826 0.01522
 O756 O 0.25226 0.77125 -0.01778
 Cu757 Cu 0.26229 0.73802 -0.00113
 Cu758 Cu 0.23864 0.76174 -0.00130
 C759 C 0.26599 0.76523 -0.02332
 C760 C 0.23494 0.73455 0.02091
 C761 C 0.23499 0.73430 -0.02317
 C762 C 0.26594 0.76546 0.02075
 O763 O 0.25141 0.27107 0.51526
 O764 O 0.22814 0.24786 0.48246
 O765 O 0.22841 0.24767 0.51534
 O766 O 0.25122 0.27119 0.48239
 O767 O 0.27106 0.25160 0.48219
 O768 O 0.24825 0.22809 0.51513
 O769 O 0.24798 0.22828 0.48224
 O770 O 0.27125 0.25149 0.51506
 Cu771 Cu 0.23779 0.26142 0.49888
 Cu772 Cu 0.26164 0.23789 0.49863
 C773 C 0.26522 0.26517 0.52074
 C774 C 0.23417 0.23419 0.47676
 C775 C 0.23452 0.23396 0.52085
 C776 C 0.26497 0.26533 0.47668
 O777 O 0.75164 0.72732 0.98460
 O778 O 0.72831 0.75042 1.01743
 O779 O 0.72845 0.75051 0.98456
 O780 O 0.75149 0.72723 1.01747
 O781 O 0.77122 0.74696 1.01759
 O782 O 0.74818 0.77023 0.98468
 O783 O 0.74804 0.77015 1.01754
 O784 O 0.77136 0.74705 0.98473
 Cu785 Cu 0.73798 0.73688 1.00101
 Cu786 Cu 0.76169 0.76059 1.00115
 C787 C 0.76540 0.73332 0.97908
 C788 C 0.73427 0.76416 1.02306
 C789 C 0.73446 0.76427 0.97903
 C790 C 0.76521 0.73320 1.02313
 O791 O 0.74732 0.27075 0.48517
 O792 O 0.77061 0.24775 0.51810
 O793 O 0.77061 0.24769 0.48524
 O794 O 0.74736 0.27088 0.51803
 O795 O 0.72770 0.25108 0.51813
 O796 O 0.75096 0.22788 0.48530
 O797 O 0.75096 0.22795 0.51818
 O798 O 0.72766 0.25095 0.48524
 Cu799 Cu 0.76096 0.26126 0.50163
 Cu800 Cu 0.73734 0.23747 0.50172
 C801 C 0.73360 0.26470 0.47960
 C802 C 0.76468 0.23400 0.52374
 C803 C 0.76468 0.23391 0.47968
 C804 C 0.73365 0.26487 0.52366
 O805 O 0.77080 0.25106 -0.01761
 O806 O 0.74747 0.22787 0.01519
 O807 O 0.74755 0.22790 -0.01769
 O808 O 0.77078 0.25095 0.01526
 O809 O 0.75113 0.27073 0.01527
 O810 O 0.72790 0.24767 -0.01768
 O811 O 0.72782 0.24764 0.01520
 O812 O 0.75115 0.27084 -0.01760
 Cu813 Cu 0.76113 0.23745 -0.00121
 Cu814 Cu 0.73752 0.26121 -0.00121
 C815 C 0.76489 0.26484 -0.02318
 C816 C 0.73375 0.23388 0.02079
 C817 C 0.73384 0.23392 -0.02329
 C818 C 0.76484 0.26469 0.02088
 O819 O 0.77127 0.75098 0.48286
 O820 O 0.74777 0.72800 0.51569
 O821 O 0.74796 0.72788 0.48281
 O822 O 0.77106 0.75110 0.51572
 O823 O 0.75143 0.77090 0.51555
 O824 O 0.72833 0.74767 0.48264
 O825 O 0.72814 0.74779 0.51552
 O826 O 0.75164 0.77077 0.48268
 Cu827 Cu 0.76149 0.73749 0.49929
 Cu828 Cu 0.73790 0.76128 0.49908
 C829 C 0.76538 0.76472 0.47719
 C830 C 0.73403 0.73405 0.52120
 C831 C 0.73428 0.73389 0.47711
 C832 C 0.76512 0.76489 0.52124
 O833 O 1.01588 0.27126 0.24775
 O834 O 0.98317 0.24806 0.27119
 O835 O 1.01606 0.24820 0.27108
 O836 O 0.98299 0.27110 0.24786
 O837 O 0.98301 0.25126 0.22828
 O838 O 1.01607 0.22837 0.25149
 O839 O 0.98317 0.22821 0.25161
 O840 O 1.01590 0.25143 0.22816
 Cu841 Cu 0.99953 0.26166 0.26144
 Cu842 Cu 0.99954 0.23782 0.23791
 C843 C 1.02146 0.26523 0.23403
 C844 C 0.97761 0.23426 0.26533
 C845 C 1.02169 0.23445 0.26517
 C846 C 0.97737 0.26501 0.23418
 O847 O 0.48245 0.24719 0.77079
 O848 O 0.51529 0.27048 0.74763
 O849 O 0.48240 0.27046 0.74767
 O850 O 0.51534 0.24723 0.77075
 O851 O 0.51531 0.22756 0.75099
 O852 O 0.48239 0.25079 0.72792
 O853 O 0.51528 0.25082 0.72787
 O854 O 0.48241 0.22752 0.75104
 Cu855 Cu 0.49887 0.26082 0.76120
 Cu856 Cu 0.49884 0.23719 0.73746
 C857 C 0.47685 0.23346 0.76480
 C858 C 0.52088 0.26455 0.73388
 C859 C 0.47679 0.26451 0.73393
 C860 C 0.52093 0.23351 0.76473
 O861 O -0.01588 0.27188 0.75214
 O862 O 0.01690 0.24871 0.72881
 O863 O -0.01598 0.24870 0.72895
 O864 O 0.01701 0.27190 0.75199
 O865 O 0.01708 0.25217 0.77170
 O866 O -0.01590 0.22897 0.74866
 O867 O 0.01698 0.22898 0.74852
 O868 O -0.01580 0.25215 0.77185
 Cu869 Cu 0.00050 0.26229 0.73849
 Cu870 Cu 0.00060 0.23858 0.76217
 C871 C -0.02142 0.26589 0.76590
 C872 C 0.02252 0.23497 0.73476
 C873 C -0.02155 0.23494 0.73495
 C874 C 0.02265 0.26592 0.76571
 O875 O 0.48375 0.27217 0.25140
 O876 O 0.51663 0.24920 0.22803
 O877 O 0.48374 0.24907 0.22813
 O878 O 0.51665 0.27221 0.25139
 O879 O 0.51668 0.25237 0.27099
 O880 O 0.48380 0.22925 0.24773
 O881 O 0.51669 0.22936 0.24763
 O882 O 0.48379 0.25234 0.27100
 Cu883 Cu 0.50018 0.26267 0.23776
 Cu884 Cu 0.50025 0.23883 0.26131
 C885 C 0.47817 0.26610 0.26511
 C886 C 0.52225 0.23543 0.23392
 C887 C 0.47817 0.23528 0.23404
 C888 C 0.52226 0.26615 0.26509
 O889 O 0.98353 0.75238 0.72845
 O890 O 1.01647 0.72906 0.75140
 O891 O 0.98359 0.72899 0.75144
 O892 O 1.01642 0.75242 0.72838
 O893 O 1.01644 0.77200 0.74823
 O894 O 0.98360 0.74856 0.77129
 O895 O 1.01649 0.74863 0.77125
 O896 O 0.98354 0.77195 0.74830
 Cu897 Cu 1.00000 0.73874 0.73791
 Cu898 Cu 1.00002 0.76226 0.76177
 C899 C 0.97793 0.76606 0.73453
 C900 C 1.02208 0.73493 0.76517
 C901 C 0.97801 0.73485 0.76522
 C902 C 1.02202 0.76613 0.73445
 O903 O 0.48379 0.75228 0.22753
 O904 O 0.51668 0.72912 0.25070
 O905 O 0.48380 0.72898 0.25061
 O906 O 0.51668 0.75245 0.22764
 O907 O 0.51654 0.77207 0.24745
 O908 O 0.48368 0.74860 0.27041
 O909 O 0.51656 0.74873 0.27050
 O910 O 0.48365 0.77190 0.24733
 Cu911 Cu 0.50025 0.73873 0.23712
 Cu912 Cu 0.50009 0.76231 0.26092
 C913 C 0.47812 0.76596 0.23355
 C914 C 0.52222 0.73504 0.26448
 C915 C 0.47815 0.73487 0.26436
 C916 C 0.52220 0.76619 0.23370
 O917 O -0.01663 0.77250 0.25120
 O918 O 0.01640 0.74960 0.22796
 O919 O -0.01648 0.74925 0.22807
 O920 O 0.01627 0.77283 0.25109
 O921 O 0.01649 0.75315 0.27084
 O922 O -0.01623 0.72958 0.24784
 O923 O 0.01664 0.72992 0.24772
 O924 O -0.01639 0.75283 0.27096
 Cu925 Cu -0.00014 0.76303 0.23759
 Cu926 Cu 0.00015 0.73939 0.26133
 C927 C -0.02213 0.76650 0.26497
 C928 C 0.02214 0.73592 0.23395
 C929 C -0.02192 0.73546 0.23410
 C930 C 0.02195 0.76693 0.26482
 O931 O 0.51681 0.75260 0.77059
 O932 O 0.48402 0.72948 0.74720
 O933 O 0.51690 0.72939 0.74744
 O934 O 0.48392 0.75269 0.77036
 O935 O 0.48414 0.77240 0.75063
 O936 O 0.51713 0.74909 0.72771
 O937 O 0.48424 0.74918 0.72747
 O938 O 0.51703 0.77231 0.75086
 Cu939 Cu 0.50039 0.73905 0.76089
 Cu940 Cu 0.50065 0.76273 0.73718
 C941 C 0.52250 0.76632 0.76464
 C942 C 0.47855 0.73546 0.73342
 C943 C 0.52262 0.73534 0.73374
 C944 C 0.47842 0.76645 0.76433
 C945 C 0.41423 0.30734 0.32187
 C946 C 0.41494 0.30589 0.30431
 C947 C 0.40182 0.31233 0.29444
 C948 C 0.38799 0.32011 0.30209
 C949 C 0.38709 0.32155 0.31974
 C950 C 0.40039 0.31511 0.32955
 C951 C 0.42897 0.29757 0.29636
 C952 C 0.44053 0.29050 0.28949
 C953 C 0.45387 0.28212 0.28122
 C954 C 0.46507 0.27486 0.27397
 H955 H 0.42433 0.30241 0.32963
 H956 H 0.40220 0.31121 0.28084
 H957 H 0.37784 0.32471 0.29420
 H958 H 0.40015 0.31620 0.34316
 C959 C 0.41267 0.80436 0.82093
 C960 C 0.41537 0.80643 0.80366
 C961 C 0.40426 0.81629 0.79422
 C962 C 0.39042 0.82397 0.80194
 C963 C 0.38730 0.82192 0.81940
 C964 C 0.39883 0.81200 0.82874
 C965 C 0.42931 0.79814 0.79552
 C966 C 0.44083 0.79107 0.78857
 C967 C 0.45412 0.78265 0.78028
 C968 C 0.46531 0.77532 0.77306
 H969 H 0.42129 0.79685 0.82840
 H970 H 0.40614 0.81784 0.78078
 H971 H 0.38182 0.83081 0.79389
 H972 H 0.39766 0.81047 0.84222
 C973 C -0.08711 0.30391 0.82263
 C974 C -0.08427 0.30599 0.80538
 C975 C -0.09524 0.31594 0.79588
 C976 C -0.10908 0.32371 0.80351
 C977 C -0.11234 0.32166 0.82094
 C978 C -0.10095 0.31163 0.83035
 C979 C -0.07034 0.29762 0.79732
 C980 C -0.05885 0.29050 0.79038
 C981 C -0.04560 0.28205 0.78206
 C982 C -0.03446 0.27473 0.77477
 H983 H -0.07860 0.29632 0.83015
 H984 H -0.09324 0.31750 0.78245
 H985 H -0.11757 0.33062 0.79540
 H986 H -0.10223 0.31009 0.84382
 C987 C -0.08600 0.80726 0.32206
 C988 C -0.08534 0.80604 0.30447
 C989 C -0.09846 0.81266 0.29473
 C990 C -0.11224 0.82041 0.30251
 C991 C -0.11307 0.82164 0.32018
 C992 C -0.09978 0.81501 0.32988
 C993 C -0.07136 0.79778 0.29639
 C994 C -0.05981 0.79077 0.28943
 C995 C -0.04648 0.78244 0.28109
 C996 C -0.03527 0.77523 0.27381
 H997 H -0.07590 0.80220 0.32972
 H998 H -0.09812 0.81171 0.28111
 H999 H -0.12238 0.82516 0.29471
 H1000 H -0.09998 0.81593 0.34349
 C1001 C 0.58572 0.69321 0.32123
 C1002 C 0.58514 0.69475 0.30367
 C1003 C 0.59831 0.68831 0.29387
 C1004 C 0.61205 0.68043 0.30157
 C1005 C 0.61281 0.67889 0.31923
 C1006 C 0.59946 0.68533 0.32898
 C1007 C 0.57122 0.70319 0.29567
 C1008 C 0.55972 0.71035 0.28879
 C1009 C 0.54645 0.71885 0.28052
 C1010 C 0.53529 0.72619 0.27329
 H1011 H 0.57558 0.69814 0.32894
 H1012 H 0.59803 0.68950 0.28027
 H1013 H 0.62224 0.67582 0.29374
 H1014 H 0.59960 0.68417 0.34257
 C1015 C 0.58481 0.19209 0.82134
 C1016 C 0.58414 0.19352 0.80377
 C1017 C 0.59731 0.18709 0.79395
 C1018 C 0.61113 0.17934 0.80165
 C1019 C 0.61198 0.17792 0.81931
 C1020 C 0.59863 0.18434 0.82907
 C1021 C 0.57014 0.20184 0.79578
 C1022 C 0.55858 0.20893 0.78892
 C1023 C 0.54525 0.21735 0.78069
 C1024 C 0.53404 0.22466 0.77349
 H1025 H 0.57467 0.19701 0.82906
 H1026 H 0.59696 0.18819 0.78034
 H1027 H 0.62131 0.17474 0.79380
 H1028 H 0.59884 0.18327 0.84268
 C1029 C 1.08579 0.69306 0.82163
 C1030 C 1.08515 0.69458 0.80407
 C1031 C 1.09830 0.68814 0.79423
 C1032 C 1.11208 0.68030 0.80190
 C1033 C 1.11291 0.67880 0.81955
 C1034 C 1.09958 0.68523 0.82934
 C1035 C 1.07119 0.70300 0.79611
 C1036 C 1.05967 0.71016 0.78927
 C1037 C 1.04637 0.71867 0.78107
 C1038 C 1.03518 0.72604 0.77390
 H1039 H 1.07567 0.69799 0.82937
 H1040 H 1.09797 0.68931 0.78063
 H1041 H 1.12225 0.67570 0.79404
 H1042 H 1.09977 0.68409 0.84294
 C1043 C 1.09580 0.18460 0.29483
 C1044 C 1.08487 0.19454 0.30439
 C1045 C 1.08773 0.19652 0.32164
 C1046 C 1.10153 0.18870 0.32932
 C1047 C 1.11287 0.17866 0.31987
 C1048 C 1.10961 0.17674 0.30243
 C1049 C 1.07091 0.20294 0.29639
 C1050 C 1.05938 0.21004 0.28950
 C1051 C 1.04605 0.21845 0.28123
 C1052 C 1.03484 0.22571 0.27399
 H1053 H 1.09380 0.18312 0.28141
 H1054 H 1.07924 0.20410 0.32921
 H1055 H 1.10282 0.19016 0.34281
 H1056 H 1.11807 0.16983 0.29428
 C1057 C 0.59715 0.31137 0.70518
 C1058 C 0.58410 0.30497 0.69520
 C1059 C 0.58487 0.30660 0.67765
 C1060 C 0.59871 0.31453 0.67010
 C1061 C 0.61194 0.32095 0.68003
 C1062 C 0.61098 0.31931 0.69767
 C1063 C 0.57007 0.29649 0.70301
 C1064 C 0.55850 0.28930 0.70977
 C1065 C 0.54517 0.28078 0.71792
 C1066 C 0.53397 0.27342 0.72509
 H1067 H 0.59671 0.31011 0.71877
 H1068 H 0.57482 0.30170 0.66980
 H1069 H 0.59900 0.31577 0.65651
 H1070 H 0.62107 0.32389 0.70564
 C1071 C 0.59622 0.81654 0.20425
 C1072 C 0.58520 0.80668 0.19470
 C1073 C 0.58799 0.80472 0.17744
 C1074 C 0.60185 0.81244 0.16974
 C1075 C 0.61332 0.82235 0.17919
 C1076 C 0.61009 0.82432 0.19663
 C1077 C 0.57125 0.79827 0.20273
 C1078 C 0.55974 0.79109 0.20959
 C1079 C 0.54646 0.78254 0.21780
 C1080 C 0.53528 0.77514 0.22497
 H1081 H 0.59426 0.81802 0.21768
 H1082 H 0.57944 0.79720 0.16989
 H1083 H 0.60310 0.81098 0.15626
 H1084 H 0.61863 0.83115 0.20477
 C1085 C 1.09509 0.31574 0.20432
 C1086 C 1.08424 0.30574 0.19472
 C1087 C 1.08716 0.30381 0.17747
 C1088 C 1.10095 0.31173 0.16984
 C1089 C 1.11221 0.32183 0.17934
 C1090 C 1.10888 0.32371 0.19678
 C1091 C 1.07033 0.29722 0.20268
 C1092 C 1.05885 0.29000 0.20956
 C1093 C 1.04561 0.28146 0.21785
 C1094 C 1.03448 0.27409 0.22513
 H1095 H 1.09303 0.31720 0.21774
 H1096 H 1.07874 0.29618 0.16988
 H1097 H 1.10229 0.31030 0.15636
 H1098 H 1.11728 0.33066 0.20496
 C1099 C 1.09609 0.79611 0.68471
 C1100 C 1.08505 0.80566 0.69452
 C1101 C 1.08780 0.82295 0.69642
 C1102 C 1.10163 0.83067 0.68866
 C1103 C 1.11309 0.82122 0.67875
 C1104 C 1.10992 0.80374 0.67689
 C1105 C 1.07109 0.79761 0.70288
 C1106 C 1.05956 0.79067 0.70997
 C1107 C 1.04627 0.78233 0.71838
 C1108 C 1.03510 0.77503 0.72566
 H1109 H 1.09416 0.78265 0.68328
 H1110 H 1.07923 0.83050 0.70391
 H1111 H 1.10285 0.84417 0.69006
 H1112 H 1.11848 0.79560 0.67010
 C1113 C 0.41536 0.67815 0.69198
 C1114 C 0.41577 0.69574 0.69338
 C1115 C 0.40243 0.70535 0.68698
 C1116 C 0.38869 0.69741 0.67932
 C1117 C 0.38810 0.67973 0.67795
 C1118 C 0.40162 0.67018 0.68432
 C1119 C 0.42967 0.70395 0.70165
 C1120 C 0.44115 0.71098 0.70872
 C1121 C 0.45438 0.71936 0.71716
 C1122 C 0.46552 0.72664 0.72451
 H1123 H 0.42563 0.67059 0.69688
 H1124 H 0.40257 0.71897 0.68807
 H1125 H 0.37836 0.70509 0.67476
 H1126 H 0.40161 0.65657 0.68328
 C1127 C 0.40435 0.18484 0.20452
 C1128 C 0.41523 0.19483 0.19494
 C1129 C 0.41234 0.19680 0.17770
 C1130 C 0.39854 0.18894 0.17005
 C1131 C 0.38723 0.17887 0.17953
 C1132 C 0.39054 0.17692 0.19696
 C1133 C 0.42915 0.20333 0.20291
 C1134 C 0.44065 0.21054 0.20977
 C1135 C 0.45392 0.21907 0.21800
 C1136 C 0.46509 0.22644 0.22522
 H1137 H 0.40639 0.18335 0.21795
 H1138 H 0.42079 0.20442 0.17012
 H1139 H 0.39722 0.19041 0.15657
 H1140 H 0.38211 0.16998 0.20512
 C1141 C -0.09763 0.68775 0.20520
 C1142 C -0.08459 0.69435 0.19531
 C1143 C -0.08527 0.69281 0.17775
 C1144 C -0.09899 0.68481 0.17009
 C1145 C -0.11222 0.67823 0.17993
 C1146 C -0.11135 0.67974 0.19758
 C1147 C -0.07070 0.70296 0.20321
 C1148 C -0.05925 0.71027 0.21001
 C1149 C -0.04604 0.71895 0.21819
 C1150 C -0.03493 0.72644 0.22535
 H1151 H -0.09727 0.68894 0.21880
 H1152 H -0.07523 0.69786 0.16997
 H1153 H -0.09922 0.68367 0.15650
 H1154 H -0.12144 0.67503 0.20548
 C1155 C -0.09778 0.18815 0.70587
 C1156 C -0.08468 0.19467 0.69601
 C1157 C -0.08537 0.19321 0.67844
 C1158 C -0.09916 0.18534 0.67076
 C1159 C -0.11244 0.17883 0.68057
 C1160 C -0.11157 0.18028 0.69822
 C1161 C -0.07071 0.20309 0.70395
 C1162 C -0.05917 0.21025 0.71079
 C1163 C -0.04586 0.21874 0.71900
 C1164 C -0.03466 0.22609 0.72619
 H1165 H -0.09741 0.18928 0.71947
 H1166 H -0.07528 0.19819 0.67069
 H1167 H -0.09939 0.18424 0.65715
 H1168 H -0.12170 0.17562 0.70610
 C1169 C 0.31105 0.40235 0.29462
 C1170 C 0.30457 0.41543 0.30452
 C1171 C 0.30598 0.41465 0.32209
 C1172 C 0.31379 0.40082 0.32974
 C1173 C 0.32031 0.38758 0.31989
 C1174 C 0.31887 0.38852 0.30224
 C1175 C 0.29630 0.42950 0.29659
 C1176 C 0.28931 0.44111 0.28972
 C1177 C 0.28103 0.45450 0.28143
 C1178 C 0.27387 0.46576 0.27415
 H1179 H 0.30996 0.40279 0.28102
 H1180 H 0.30102 0.42472 0.32987
 H1181 H 0.31488 0.40053 0.34334
 H1182 H 0.32353 0.37843 0.29432
 C1183 C 0.31465 -0.09574 0.79538
 C1184 C 0.30474 -0.08492 0.80508
 C1185 C 0.30289 -0.08791 0.82233
 C1186 C 0.31082 -0.10174 0.82986
 C1187 C 0.32085 -0.11297 0.82025
 C1188 C 0.32263 -0.10957 0.80282
 C1189 C 0.29624 -0.07094 0.79723
 C1190 C 0.28907 -0.05939 0.79044
 C1191 C 0.28060 -0.04606 0.78224
 C1192 C 0.27331 -0.03485 0.77503
 H1193 H 0.31604 -0.09364 0.78195
 H1194 H 0.29533 -0.07952 0.83000
 H1195 H 0.30946 -0.10314 0.84334
 H1196 H 0.32951 -0.11795 0.79456
 C1197 C 0.80357 0.41213 0.82300
 C1198 C 0.80562 0.41508 0.80577
 C1199 C 0.81562 0.40423 0.79619
 C1200 C 0.82350 0.39041 0.80375
 C1201 C 0.82151 0.38704 0.82116
 C1202 C 0.81139 0.39830 0.83064
 C1203 C 0.79720 0.42904 0.79779
 C1204 C 0.79008 0.44056 0.79090
 C1205 C 0.78164 0.45385 0.78260
 C1206 C 0.77435 0.46502 0.77534
 H1207 H 0.79593 0.42054 0.83057
 H1208 H 0.81716 0.40631 0.78278
 H1209 H 0.83045 0.38201 0.79558
 H1210 H 0.80987 0.39692 0.84411
 C1211 C 0.82269 -0.08676 0.30408
 C1212 C 0.80540 -0.08405 0.30599
 C1213 C 0.79584 -0.09516 0.31574
 C1214 C 0.80347 -0.10903 0.32347
 C1215 C 0.82094 -0.11217 0.32158
 C1216 C 0.83040 -0.10062 0.31177
 C1217 C 0.79735 -0.07010 0.29763
 C1218 C 0.79043 -0.05860 0.29052
 C1219 C 0.78212 -0.04534 0.28206
 C1220 C 0.77486 -0.03419 0.27471
 H1221 H 0.83025 -0.07814 0.29665
 H1222 H 0.78238 -0.09327 0.31716
 H1223 H 0.79532 -0.11764 0.33021
 H1224 H 0.84391 -0.10181 0.31036
 C1225 C 0.30855 0.58500 0.67805
 C1226 C 0.30713 0.58455 0.69562
 C1227 C 0.31357 0.59785 0.70527
 C1228 C 0.32128 0.61160 0.69740
 C1229 C 0.32265 0.61225 0.67972
 C1230 C 0.31626 0.59875 0.67013
 C1231 C 0.29877 0.57065 0.70378
 C1232 C 0.29162 0.55918 0.71074
 C1233 C 0.28308 0.54595 0.71904
 C1234 C 0.27565 0.53482 0.72626
 H1235 H 0.30363 0.57476 0.67046
 H1236 H 0.31247 0.59766 0.71888
 H1237 H 0.32586 0.62189 0.70511
 H1238 H 0.31730 0.59880 0.65653
 C1239 C 0.29635 1.09595 0.18569
 C1240 C 0.30596 1.08487 0.19541
 C1241 C 0.32326 1.08762 0.19723
 C1242 C 0.33093 1.10148 0.18946
 C1243 C 0.32143 1.11296 0.17964
 C1244 C 0.30393 1.10980 0.17788
 C1245 C 0.29795 1.07088 0.20375
 C1246 C 0.29102 1.05933 0.21082
 C1247 C 0.28266 1.04603 0.21919
 C1248 C 0.27535 1.03484 0.22644
 H1249 H 0.28289 1.09402 0.18433
 H1250 H 0.33085 1.07903 0.20465
 H1251 H 0.34444 1.10270 0.19079
 H1252 H 0.29575 1.11838 0.17116
 C1253 C 0.80406 0.58665 0.17788
 C1254 C 0.80603 0.58384 0.19514
 C1255 C 0.81593 0.59483 0.20468
 C1256 C 0.82376 0.60866 0.19706
 C1257 C 0.82183 0.61189 0.17961
 C1258 C 0.81184 0.60048 0.17017
 C1259 C 0.79763 0.56990 0.20318
 C1260 C 0.79049 0.55840 0.21011
 C1261 C 0.78203 0.54515 0.21845
 C1262 C 0.77469 0.53401 0.22575
 H1263 H 0.79650 0.57813 0.17033
 H1264 H 0.81741 0.59286 0.21811
 H1265 H 0.83063 0.61717 0.20520
 H1266 H 0.81038 0.60175 0.15669
 C1267 C 0.81169 1.09762 0.70553
 C1268 C 0.80524 1.08454 0.69561
 C1269 C 0.80672 1.08532 0.67804
 C1270 C 0.81457 1.09917 0.67043
 C1271 C 0.82104 1.11241 0.68031
 C1272 C 0.81954 1.11146 0.69795
 C1273 C 0.79688 1.07048 0.70350
 C1274 C 0.78981 1.05888 0.71033
 C1275 C 0.78142 1.04552 0.71857
 C1276 C 0.77417 1.03430 0.72583
 H1277 H 0.81054 1.09718 0.71913
 H1278 H 0.80179 1.07525 0.67024
 H1279 H 0.81570 1.09946 0.65683
 H1280 H 0.82416 1.12156 0.70588
 C1281 C 0.68880 0.59784 0.29451
 C1282 C 0.69514 0.58472 0.30444
 C1283 C 0.69356 0.58545 0.32200
 C1284 C 0.68570 0.59929 0.32960
 C1285 C 0.67933 0.61257 0.31972
 C1286 C 0.68094 0.61167 0.30208
 C1287 C 0.70348 0.57066 0.29657
 C1288 C 0.71055 0.55905 0.28977
 C1289 C 0.71893 0.54566 0.28158
 C1290 C 0.72618 0.53441 0.27440
 H1291 H 0.69002 0.59744 0.28092
 H1292 H 0.69841 0.57535 0.32981
 H1293 H 0.68449 0.59953 0.34319
 H1294 H 0.67639 0.62180 0.29415
 C1295 C 0.68470 1.09516 0.79531
 C1296 C 0.69461 1.08430 0.80497
 C1297 C 0.69650 1.08724 0.82222
 C1298 C 0.68861 1.10106 0.82979
 C1299 C 0.67859 1.11233 0.82023
 C1300 C 0.67676 1.10899 0.80279
 C1301 C 0.70308 1.07033 0.79707
 C1302 C 0.71023 1.05879 0.79023
 C1303 C 0.71868 1.04548 0.78199
 C1304 C 0.72597 1.03428 0.77475
 H1305 H 0.68329 1.09309 0.78188
 H1306 H 0.70406 1.07881 0.82986
 H1307 H 0.69000 1.10242 0.84328
 H1308 H 0.66989 1.11740 0.79457
 C1309 C 0.18542 0.59593 0.79524
 C1310 C 0.19531 0.58501 0.80487
 C1311 C 0.19718 0.58787 0.82213
 C1312 C 0.18930 0.60167 0.82976
 C1313 C 0.17931 0.61300 0.82024
 C1314 C 0.17750 0.60974 0.80279
 C1315 C 0.20377 0.57107 0.79691
 C1316 C 0.21093 0.55955 0.79006
 C1317 C 0.21941 0.54626 0.78182
 C1318 C 0.22672 0.53507 0.77460
 H1319 H 0.18402 0.59393 0.78181
 H1320 H 0.20472 0.57939 0.82974
 H1321 H 0.19068 0.60296 0.84325
 H1322 H 0.17064 0.61819 0.79459
 C1323 C 0.18439 1.09547 0.29498
 C1324 C 0.19427 1.08452 0.30459
 C1325 C 0.19611 1.08732 0.32186
 C1326 C 0.18826 1.10113 0.32951
 C1327 C 0.17834 1.11253 0.32000
 C1328 C 0.17649 1.10928 0.30255
 C1329 C 0.20280 1.07063 0.29662
 C1330 C 0.21008 1.05917 0.28981
 C1331 C 0.21871 1.04593 0.28164
 C1332 C 0.22618 1.03479 0.27451
 H1333 H 0.18300 1.09350 0.28154
 H1334 H 0.20363 1.07882 0.32946
 H1335 H 0.18963 1.10238 0.34300
 H1336 H 0.16966 1.11777 0.29437
 C1337 C 0.68767 0.40194 0.70617
 C1338 C 0.69420 0.41510 0.69640
 C1339 C 0.69276 0.41451 0.67883
 C1340 C 0.68491 0.40077 0.67105
 C1341 C 0.67839 0.38743 0.68077
 C1342 C 0.67981 0.38819 0.69843
 C1343 C 0.70261 0.42903 0.70444
 C1344 C 0.70976 0.44053 0.71134
 C1345 C 0.71826 0.45380 0.71961
 C1346 C 0.72563 0.46497 0.72682
 H1347 H 0.68878 0.40222 0.71978
 H1348 H 0.69776 0.42465 0.67114
 H1349 H 0.68384 0.40062 0.65744
 H1350 H 0.67514 0.37801 0.70624
 C1351 C 0.67832 -0.08495 0.19326
 C1352 C 0.69589 -0.08447 0.19489
 C1353 C 0.70564 -0.09777 0.18865
 C1354 C 0.69787 -0.11155 0.18087
 C1355 C 0.68022 -0.11221 0.17924
 C1356 C 0.67052 -0.09873 0.18549
 C1357 C 0.70395 -0.07049 0.20319
 C1358 C 0.71088 -0.05895 0.21025
 C1359 C 0.71919 -0.04563 0.21865
 C1360 C 0.72642 -0.03443 0.22594
 H1361 H 0.67066 -0.07471 0.19804
 H1362 H 0.71924 -0.09757 0.18991
 H1363 H 0.70566 -0.12183 0.17641
 H1364 H 0.65692 -0.09879 0.18426
 C1365 C 0.18718 0.40314 0.20526
 C1366 C 0.19369 0.41624 0.19539
 C1367 C 0.19223 0.41554 0.17783
 C1368 C 0.18438 0.40173 0.17015
 C1369 C 0.17790 0.38844 0.17996
 C1370 C 0.17933 0.38933 0.19762
 C1371 C 0.20216 0.43020 0.20332
 C1372 C 0.20937 0.44171 0.21014
 C1373 C 0.21795 0.45497 0.21833
 C1374 C 0.22539 0.46612 0.22550
 H1375 H 0.18831 0.40351 0.21886
 H1376 H 0.19721 0.42563 0.17007
 H1377 H 0.18330 0.40149 0.15655
 H1378 H 0.17469 0.37919 0.20550
 C1379 C 0.17713 -0.08544 0.69344
 C1380 C 0.19470 -0.08479 0.69505
 C1381 C 0.20457 -0.09798 0.68874
 C1382 C 0.19692 -0.11178 0.68090
 C1383 C 0.17927 -0.11260 0.67927
 C1384 C 0.16945 -0.09925 0.68561
 C1385 C 0.20265 -0.07077 0.70339
 C1386 C 0.20952 -0.05921 0.71047
 C1387 C 0.21777 -0.04588 0.71889
 C1388 C 0.22500 -0.03468 0.72621
 H1389 H 0.16938 -0.07529 0.69827
 H1390 H 0.21817 -0.09765 0.68998
 H1391 H 0.20481 -0.12197 0.67638
 H1392 H 0.15586 -0.09943 0.68437
 C1393 C 0.30607 0.32258 0.41302
 C1394 C 0.30464 0.30499 0.41360
 C1395 C 0.31113 0.29524 0.40042
 C1396 C 0.31897 0.30301 0.38669
 C1397 C 0.32042 0.32068 0.38594
 C1398 C 0.31391 0.33039 0.39928
 C1399 C 0.29631 0.29691 0.42756
 C1400 C 0.28925 0.28995 0.43908
 C1401 C 0.28089 0.28159 0.45239
 C1402 C 0.27367 0.27426 0.46358
 H1403 H 0.30111 0.33025 0.42317
 H1404 H 0.31002 0.28162 0.40070
 H1405 H 0.32363 0.29521 0.37651
 H1406 H 0.31500 0.34400 0.39915
 C1407 C 0.30730 0.82211 -0.08705
 C1408 C 0.30591 0.80452 -0.08649
 C1409 C 0.31236 0.79480 -0.09972
 C1410 C 0.32009 0.80262 -0.11349
 C1411 C 0.32148 0.82030 -0.11422
 C1412 C 0.31503 0.82996 -0.10082
 C1413 C 0.29762 0.79642 -0.07252
 C1414 C 0.29056 0.78948 -0.06098
 C1415 C 0.28215 0.78119 -0.04766
 C1416 C 0.27485 0.77397 -0.03645
 H1417 H 0.30236 0.82976 -0.07686
 H1418 H 0.31128 0.78118 -0.09946
 H1419 H 0.32472 0.79485 -0.12371
 H1420 H 0.31607 0.84358 -0.10093
 C1421 C 0.81179 0.29473 -0.09907
 C1422 C 0.80524 0.30443 -0.08587
 C1423 C 0.80669 0.32201 -0.08636
 C1424 C 0.81459 0.32988 -0.10002
 C1425 C 0.82115 0.32024 -0.11338
 C1426 C 0.81970 0.30256 -0.11273
 C1427 C 0.79680 0.29630 -0.07201
 C1428 C 0.78965 0.28932 -0.06056
 C1429 C 0.78115 0.28097 -0.04734
 C1430 C 0.77378 0.27368 -0.03621
 H1431 H 0.81066 0.28111 -0.09886
 H1432 H 0.80168 0.32964 -0.07620
 H1433 H 0.81569 0.34349 -0.10008
 H1434 H 0.82440 0.29481 -0.12292
 C1435 C 0.82254 0.80612 0.41358
 C1436 C 0.80496 0.80468 0.41425
 C1437 C 0.79513 0.81128 0.40118
 C1438 C 0.80282 0.81925 0.38747
 C1439 C 0.82049 0.82072 0.38665
 C1440 C 0.83027 0.81408 0.39987
 C1441 C 0.79695 0.79627 0.42819
 C1442 C 0.79001 0.78916 0.43970
 C1443 C 0.78165 0.78075 0.45297
 C1444 C 0.77432 0.77349 0.46413
 H1445 H 0.83027 0.80106 0.42365
 H1446 H 0.78152 0.81018 0.40153
 H1447 H 0.79496 0.82400 0.37738
 H1448 H 0.84388 0.81518 0.39968
 C1449 C 0.67690 0.30692 0.58701
 C1450 C 0.69446 0.30531 0.58648
 C1451 C 0.70426 0.31171 0.59968
 C1452 C 0.69655 0.31962 0.61340
 C1453 C 0.67889 0.32121 0.61411
 C1454 C 0.66915 0.31482 0.60074
 C1455 C 0.70246 0.29683 0.57258
 C1456 C 0.70933 0.28964 0.56110
 C1457 C 0.71758 0.28110 0.54785
 C1458 C 0.72481 0.27373 0.53671
 H1459 H 0.66919 0.30203 0.57686
 H1460 H 0.71787 0.31046 0.59943
 H1461 H 0.70438 0.32419 0.62360
 H1462 H 0.65555 0.31603 0.60084
 C1463 C 0.70499 0.81102 1.09900
 C1464 C 0.69512 0.80465 1.08585
 C1465 C 0.67757 0.80642 1.08639
 C1466 C 0.66991 0.81447 1.10008
 C1467 C 0.67974 0.82086 1.11340
 C1468 C 0.69737 0.81907 1.11268
 C1469 C 0.70304 0.79611 1.07195
 C1470 C 0.70989 0.78888 1.06048
 C1471 C 0.71815 0.78035 1.04724
 C1472 C 0.72541 0.77299 1.03611
 H1473 H 0.71858 0.80965 1.09875
 H1474 H 0.66980 0.80156 1.07626
 H1475 H 0.65632 0.81583 1.10019
 H1476 H 0.70526 0.82363 1.12285
 C1477 C 0.17708 0.30745 1.08672
 C1478 C 0.19466 0.30598 1.08622
 C1479 C 0.20438 0.31248 1.09943
 C1480 C 0.19658 0.32034 1.11312
 C1481 C 0.17891 0.32182 1.11380
 C1482 C 0.16924 0.31532 1.10042
 C1483 C 0.20275 0.29759 1.07233
 C1484 C 0.20970 0.29046 1.06086
 C1485 C 0.21803 0.28199 1.04762
 C1486 C 0.22529 0.27466 1.03647
 H1487 H 0.16943 0.30249 1.07656
 H1488 H 0.21799 0.31134 1.09921
 H1489 H 0.20436 0.32500 1.12333
 H1490 H 0.15563 0.31643 1.10049
 C1491 C 0.17747 0.80659 0.58589
 C1492 C 0.19504 0.80500 0.58532
 C1493 C 0.20486 0.81143 0.59849
 C1494 C 0.19717 0.81935 0.61221
 C1495 C 0.17951 0.82094 0.61295
 C1496 C 0.16974 0.81451 0.59961
 C1497 C 0.20303 0.79656 0.57140
 C1498 C 0.20992 0.78940 0.55991
 C1499 C 0.21820 0.78092 0.54664
 C1500 C 0.22546 0.77361 0.53548
 H1501 H 0.16975 0.80167 0.57575
 H1502 H 0.21847 0.81020 0.59821
 H1503 H 0.20501 0.82395 0.62239
 H1504 H 0.15614 0.81571 0.59974
 C1505 C 0.29516 0.68696 0.59820
 C1506 C 0.30480 0.69344 0.58491
 C1507 C 0.32238 0.69204 0.58531
 C1508 C 0.33032 0.68431 0.59902
 C1509 C 0.32075 0.67787 0.61250
 C1510 C 0.30307 0.67922 0.61190
 C1511 C 0.29661 0.70181 0.57105
 C1512 C 0.28962 0.70896 0.55961
 C1513 C 0.28129 0.71748 0.54641
 C1514 C 0.27403 0.72488 0.53530
 H1515 H 0.28155 0.68804 0.59804
 H1516 H 0.32996 0.69699 0.57508
 H1517 H 0.34394 0.68328 0.59903
 H1518 H 0.29537 0.67461 0.62219
 C1519 C 0.29516 0.18876 1.09956
 C1520 C 0.30490 0.19520 1.08634
 C1521 C 0.32248 0.19373 1.08684
 C1522 C 0.33030 0.18588 1.10056
 C1523 C 0.32061 0.17940 1.11394
 C1524 C 0.30295 0.18091 1.11327
 C1525 C 0.29680 0.20353 1.07240
 C1526 C 0.28981 0.21058 1.06090
 C1527 C 0.28141 0.21894 1.04764
 C1528 C 0.27408 0.22619 1.03648
 H1529 H 0.28155 0.18990 1.09933
 H1530 H 0.33014 0.19866 1.07666
 H1531 H 0.34391 0.18474 1.10063
 H1532 H 0.29516 0.17627 1.12348
 C1533 C 0.81160 0.70370 1.09934
 C1534 C 0.80521 0.69388 1.08615
 C1535 C 0.80682 0.67631 1.08671
 C1536 C 0.81473 0.66858 1.10044
 C1537 C 0.82113 0.67835 1.11379
 C1538 C 0.81950 0.69600 1.11307
 C1539 C 0.79682 0.70188 1.07220
 C1540 C 0.78971 0.70878 1.06068
 C1541 C 0.78129 0.71708 1.04739
 C1542 C 0.77400 0.72435 1.03622
 H1543 H 0.81035 0.71730 1.09907
 H1544 H 0.80194 0.66859 1.07655
 H1545 H 0.81596 0.65498 1.10055
 H1546 H 0.82408 0.70384 1.12326
 C1547 C 0.80661 0.17734 0.58724
 C1548 C 0.80506 0.19491 0.58668
 C1549 C 0.81151 0.20471 0.59985
 C1550 C 0.81942 0.19699 0.61356
 C1551 C 0.82097 0.17933 0.61430
 C1552 C 0.81451 0.16958 0.60096
 C1553 C 0.79661 0.20292 0.57276
 C1554 C 0.78944 0.20980 0.56126
 C1555 C 0.78093 0.21804 0.54799
 C1556 C 0.77357 0.22524 0.53682
 H1557 H 0.80168 0.16963 0.57710
 H1558 H 0.81031 0.21832 0.59958
 H1559 H 0.82404 0.20482 0.62375
 H1560 H 0.81569 0.15598 0.60108
 C1561 C 0.68819 0.70457 0.40061
 C1562 C 0.69454 0.69473 0.41381
 C1563 C 0.69303 0.67715 0.41316
 C1564 C 0.68527 0.66943 0.39934
 C1565 C 0.67891 0.67922 0.38597
 C1566 C 0.68043 0.69688 0.38679
 C1567 C 0.70283 0.70271 0.42784
 C1568 C 0.70987 0.70959 0.43941
 C1569 C 0.71824 0.71785 0.45277
 C1570 C 0.72549 0.72508 0.46399
 H1571 H 0.68936 0.71818 0.40095
 H1572 H 0.69788 0.66942 0.42331
 H1573 H 0.68412 0.65583 0.39915
 H1574 H 0.67588 0.70475 0.37660
 C1575 C 0.68751 0.20442 -0.09967
 C1576 C 0.69393 0.19466 -0.08644
 C1577 C 0.69247 0.17708 -0.08700
 C1578 C 0.68470 0.16927 -0.10077
 C1579 C 0.67828 0.17897 -0.11416
 C1580 C 0.67974 0.19665 -0.11343
 C1581 C 0.70224 0.20273 -0.07247
 C1582 C 0.70931 0.20965 -0.06093
 C1583 C 0.71771 0.21793 -0.04762
 C1584 C 0.72501 0.22515 -0.03641
 H1585 H 0.68864 0.21804 -0.09940
 H1586 H 0.69737 0.16941 -0.07682
 H1587 H 0.68359 0.15566 -0.10088
 H1588 H 0.67514 0.20445 -0.12365
 C1589 C 0.19344 0.67739 -0.08679
 C1590 C 0.19496 0.69497 -0.08619
 C1591 C 0.18856 0.70478 -0.09938
 C1592 C 0.18073 0.69706 -0.11315
 C1593 C 0.17921 0.67940 -0.11392
 C1594 C 0.18562 0.66964 -0.10056
 C1595 C 0.20332 0.70298 -0.07222
 C1596 C 0.21042 0.70988 -0.06070
 C1597 C 0.21886 0.71817 -0.04741
 C1598 C 0.22616 0.72543 -0.03624
 H1599 H 0.19834 0.66968 -0.07664
 H1600 H 0.18973 0.71839 -0.09909
 H1601 H 0.17615 0.70490 -0.12334
 H1602 H 0.18447 0.65604 -0.10071
 C1603 C 0.20455 0.18802 0.40043
 C1604 C 0.19475 0.19448 0.41359
 C1605 C 0.17717 0.19308 0.41295
 C1606 C 0.16940 0.18530 0.39916
 C1607 C 0.17915 0.17881 0.38584
 C1608 C 0.19682 0.18024 0.38665
 C1609 C 0.20279 0.20276 0.42760
 C1610 C 0.20972 0.20978 0.43915
 C1611 C 0.21805 0.21813 0.45248
 C1612 C 0.22532 0.22539 0.46367
 H1613 H 0.21817 0.18911 0.40076
 H1614 H 0.16946 0.19803 0.42308
 H1615 H 0.15579 0.18423 0.39898
 H1616 H 0.20466 0.17560 0.37648
 C1617 C 0.29503 0.40140 0.68822
 C1618 C 0.30500 0.41442 0.69475
 C1619 C 0.32257 0.41362 0.69324
 C1620 C 0.33015 0.39982 0.68530
 C1621 C 0.32022 0.38664 0.67875
 C1622 C 0.30257 0.38761 0.68027
 C1623 C 0.29716 0.42843 0.70319
 C1624 C 0.29038 0.44000 0.71035
 C1625 C 0.28222 0.45334 0.71881
 C1626 C 0.27506 0.46457 0.72613
 H1627 H 0.28143 0.40186 0.68938
 H1628 H 0.33041 0.42363 0.69824
 H1629 H 0.34375 0.39952 0.68415
 H1630 H 0.29461 0.37756 0.67558
 C1631 C 0.32311 0.91403 0.19328
 C1632 C 0.30555 0.91470 0.19491
 C1633 C 0.29563 0.90164 0.18840
 C1634 C 0.30321 0.88792 0.18036
 C1635 C 0.32086 0.88708 0.17872
 C1636 C 0.33073 0.90031 0.18525
 C1637 C 0.29766 0.92863 0.20343
 C1638 C 0.29084 0.94014 0.21064
 C1639 C 0.28260 0.95341 0.21915
 C1640 C 0.27535 0.96458 0.22646
 H1641 H 0.33091 0.92408 0.19826
 H1642 H 0.28202 0.90199 0.18965
 H1643 H 0.29528 0.87783 0.17569
 H1644 H 0.34433 0.90010 0.18401
 C1645 C 0.79460 0.40044 0.18848
 C1646 C 0.80452 0.41354 0.19492
 C1647 C 0.82209 0.41283 0.19337
 C1648 C 0.82972 0.39903 0.18547
 C1649 C 0.81985 0.38577 0.17900
 C1650 C 0.80220 0.38665 0.18058
 C1651 C 0.79662 0.42755 0.20330
 C1652 C 0.78980 0.43913 0.21040
 C1653 C 0.78160 0.45249 0.21881
 C1654 C 0.77442 0.46373 0.22609
 H1655 H 0.78100 0.40082 0.18968
 H1656 H 0.82988 0.42291 0.19830
 H1657 H 0.84332 0.39880 0.18429
 H1658 H 0.79427 0.37653 0.17595
 C1659 C 0.79456 0.90089 0.68790
 C1660 C 0.80438 0.91406 0.69434
 C1661 C 0.82195 0.91347 0.69280
 C1662 C 0.82969 0.89972 0.68494
 C1663 C 0.81992 0.88636 0.67851
 C1664 C 0.80226 0.88713 0.68003
 C1665 C 0.79640 0.92800 0.70278
 C1666 C 0.78955 0.93951 0.70995
 C1667 C 0.78134 0.95280 0.71847
 C1668 C 0.77417 0.96398 0.72585
 H1669 H 0.78095 0.90118 0.68909
 H1670 H 0.82968 0.92361 0.69773
 H1671 H 0.84329 0.89957 0.68379
 H1672 H 0.79442 0.87695 0.67543
 C1673 C 0.67786 0.58565 0.69365
 C1674 C 0.69544 0.58502 0.69509
 C1675 C 0.70526 0.59814 0.68855
 C1676 C 0.69756 0.61188 0.68065
 C1677 C 0.67989 0.61268 0.67921
 C1678 C 0.67012 0.59939 0.68576
 C1679 C 0.70344 0.57109 0.70352
 C1680 C 0.71034 0.55959 0.71068
 C1681 C 0.71862 0.54633 0.71916
 C1682 C 0.72586 0.53518 0.72652
 H1683 H 0.67014 0.57554 0.69866
 H1684 H 0.71887 0.59783 0.68966
 H1685 H 0.70541 0.62203 0.67596
 H1686 H 0.65651 0.59956 0.68468
 C1687 C 0.68855 0.09874 0.20476
 C1688 C 0.69488 0.08545 0.19504
 C1689 C 0.69324 0.08588 0.17748
 C1690 C 0.68537 0.09958 0.16966
 C1691 C 0.67904 0.11304 0.17933
 C1692 C 0.68069 0.11244 0.19698
 C1693 C 0.70328 0.07156 0.20313
 C1694 C 0.71042 0.06009 0.21010
 C1695 C 0.71889 0.04688 0.21847
 C1696 C 0.72622 0.03576 0.22578
 H1697 H 0.68983 0.09857 0.21836
 H1698 H 0.69807 0.07564 0.16984
 H1699 H 0.68413 0.09961 0.15607
 H1700 H 0.67617 0.12271 0.20474
 C1701 C 0.18923 0.59981 0.20439
 C1702 C 0.19557 0.58661 0.19457
 C1703 C 0.19401 0.58721 0.17701
 C1704 C 0.18618 0.60101 0.16929
 C1705 C 0.17980 0.61436 0.17907
 C1706 C 0.18140 0.61359 0.19671
 C1707 C 0.20385 0.57258 0.20256
 C1708 C 0.21084 0.56099 0.20948
 C1709 C 0.21912 0.54763 0.21782
 C1710 C 0.22629 0.53639 0.22512
 H1711 H 0.19044 0.59950 0.21799
 H1712 H 0.19886 0.57705 0.16928
 H1713 H 0.18497 0.60116 0.15570
 H1714 H 0.17685 0.62378 0.20456
 C1715 C 0.18840 0.09908 0.70503
 C1716 C 0.19477 0.08579 0.69533
 C1717 C 0.19338 0.08632 0.67776
 C1718 C 0.18568 0.10011 0.66989
 C1719 C 0.17928 0.11355 0.67954
 C1720 C 0.18070 0.11286 0.69720
 C1721 C 0.20294 0.07178 0.70347
 C1722 C 0.20987 0.06021 0.71048
 C1723 C 0.21811 0.04686 0.71888
 C1724 C 0.22527 0.03564 0.72620
 H1725 H 0.18948 0.09884 0.71864
 H1726 H 0.19825 0.07610 0.67013
 H1727 H 0.18461 0.10019 0.65629
 H1728 H 0.17612 0.12311 0.70496
 C1729 C 0.32292 0.58654 0.30651
 C1730 C 0.30534 0.58591 0.30508
 C1731 C 0.29554 0.59905 0.31161
 C1732 C 0.30327 0.61280 0.31946
 C1733 C 0.32094 0.61360 0.32089
 C1734 C 0.33069 0.60030 0.31436
 C1735 C 0.29731 0.57197 0.29669
 C1736 C 0.29038 0.56046 0.28958
 C1737 C 0.28204 0.54720 0.28114
 C1738 C 0.27472 0.53605 0.27384
 H1739 H 0.33063 0.57643 0.30152
 H1740 H 0.28193 0.59873 0.31050
 H1741 H 0.29544 0.62295 0.32414
 H1742 H 0.34430 0.60047 0.31544
 C1743 C 0.32141 0.08585 0.80817
 C1744 C 0.30383 0.08526 0.80672
 C1745 C 0.29405 0.09842 0.81321
 C1746 C 0.30181 0.11218 0.82104
 C1747 C 0.31948 0.11297 0.82246
 C1748 C 0.32920 0.09961 0.81599
 C1749 C 0.29580 0.07133 0.79830
 C1750 C 0.28891 0.05983 0.79113
 C1751 C 0.28065 0.04657 0.78261
 C1752 C 0.27343 0.03542 0.77522
 H1753 H 0.32910 0.07572 0.80320
 H1754 H 0.28044 0.09813 0.81209
 H1755 H 0.29399 0.12237 0.82568
 H1756 H 0.34281 0.09977 0.81706
 C1757 C 0.82285 0.58607 0.80712
 C1758 C 0.80526 0.58539 0.80580
 C1759 C 0.79548 0.59852 0.81235
 C1760 C 0.80322 0.61230 0.82014
 C1761 C 0.82089 0.61315 0.82148
 C1762 C 0.83063 0.59986 0.81491
 C1763 C 0.79721 0.57139 0.79752
 C1764 C 0.79027 0.55984 0.79050
 C1765 C 0.78192 0.54651 0.78216
 C1766 C 0.77462 0.53530 0.77495
 H1767 H 0.83055 0.57596 0.80211
 H1768 H 0.78186 0.59816 0.81132
 H1769 H 0.79539 0.62244 0.82485
 H1770 H 0.84425 0.60006 0.81592
 C1771 C 0.82243 0.08655 0.30773
 C1772 C 0.80486 0.08593 0.30622
 C1773 C 0.79503 0.09904 0.31274
 C1774 C 0.80273 0.11277 0.32067
 C1775 C 0.82039 0.11358 0.32216
 C1776 C 0.83016 0.10028 0.31565
 C1777 C 0.79687 0.07200 0.29775
 C1778 C 0.79002 0.06050 0.29057
 C1779 C 0.78180 0.04721 0.28204
 C1780 C 0.77461 0.03603 0.27467
 H1781 H 0.83016 0.07645 0.30274
 H1782 H 0.78142 0.09872 0.31158
 H1783 H 0.79488 0.12292 0.32533
 H1784 H 0.84377 0.10046 0.31678
 C1785 C 0.67769 0.41363 0.30749
 C1786 C 0.69527 0.41424 0.30602
 C1787 C 0.70507 0.40109 0.31251
 C1788 C 0.69735 0.38733 0.32037
 C1789 C 0.67968 0.38654 0.32185
 C1790 C 0.66993 0.39987 0.31535
 C1791 C 0.70330 0.42819 0.29763
 C1792 C 0.71023 0.43970 0.29050
 C1793 C 0.71855 0.45296 0.28203
 C1794 C 0.72583 0.46411 0.27468
 H1795 H 0.66999 0.42375 0.30252
 H1796 H 0.71868 0.40139 0.31137
 H1797 H 0.70518 0.37717 0.32503
 H1798 H 0.65632 0.39970 0.31647
 C1799 C 0.70545 0.90097 0.81293
 C1800 C 0.69567 0.91415 0.80648
 C1801 C 0.67809 0.91358 0.80799
 C1802 C 0.67031 0.89982 0.81582
 C1803 C 0.68003 0.88645 0.82225
 C1804 C 0.69770 0.88721 0.82077
 C1805 C 0.70369 0.92808 0.79804
 C1806 C 0.71057 0.93958 0.79086
 C1807 C 0.71881 0.95286 0.78231
 C1808 C 0.72600 0.96402 0.77491
 H1809 H 0.71906 0.90124 0.81176
 H1810 H 0.67040 0.92374 0.80305
 H1811 H 0.65670 0.89969 0.81694
 H1812 H 0.70551 0.87700 0.82537
 C1813 C 0.20526 0.40181 0.81208
 C1814 C 0.19546 0.41492 0.80554
 C1815 C 0.17787 0.41428 0.80696
 C1816 C 0.17012 0.40053 0.81485
 C1817 C 0.17988 0.38726 0.82143
 C1818 C 0.19755 0.38807 0.81997
 C1819 C 0.20349 0.42889 0.79716
 C1820 C 0.21045 0.44040 0.79008
 C1821 C 0.21883 0.45367 0.78169
 C1822 C 0.22619 0.46483 0.77444
 H1823 H 0.21888 0.40214 0.81098
 H1824 H 0.17016 0.42438 0.80195
 H1825 H 0.15651 0.40035 0.81594
 H1826 H 0.20539 0.37793 0.82468
 C1827 C 0.20532 0.90155 0.31243
 C1828 C 0.19561 0.91479 0.30597
 C1829 C 0.17803 0.91430 0.30745
 C1830 C 0.17018 0.90057 0.31528
 C1831 C 0.17983 0.88716 0.32173
 C1832 C 0.19750 0.88783 0.32026
 C1833 C 0.20373 0.92870 0.29760
 C1834 C 0.21070 0.94019 0.29048
 C1835 C 0.21906 0.95344 0.28204
 C1836 C 0.22637 0.96459 0.27474
 H1837 H 0.21893 0.90177 0.31128
 H1838 H 0.17040 0.92449 0.30252
 H1839 H 0.15657 0.90050 0.31639
 H1840 H 0.20526 0.87759 0.32487
 C1841 C 0.40061 0.29423 0.68746
 C1842 C 0.41380 0.30397 0.69398
 C1843 C 0.41326 0.32155 0.69257
 C1844 C 0.39953 0.32938 0.68476
 C1845 C 0.38616 0.31969 0.67824
 C1846 C 0.38689 0.30202 0.67964
 C1847 C 0.42774 0.29588 0.70233
 C1848 C 0.43924 0.28894 0.70942
 C1849 C 0.45253 0.28062 0.71784
 C1850 C 0.46370 0.27335 0.72513
 H1851 H 0.40087 0.28061 0.68854
 H1852 H 0.42341 0.32922 0.69756
 H1853 H 0.39941 0.34299 0.68370
 H1854 H 0.37669 0.29423 0.67496
 C1855 C 0.40187 0.79523 0.18696
 C1856 C 0.41500 0.80506 0.19345
 C1857 C 0.41435 0.82264 0.19204
 C1858 C 0.40055 0.83037 0.18425
 C1859 C 0.38723 0.82060 0.17776
 C1860 C 0.38808 0.80293 0.17916
 C1861 C 0.42898 0.79707 0.20183
 C1862 C 0.44052 0.79020 0.20894
 C1863 C 0.45383 0.78197 0.21740
 C1864 C 0.46502 0.77476 0.22472
 H1865 H 0.40221 0.78161 0.18805
 H1866 H 0.42446 0.83036 0.19701
 H1867 H 0.40035 0.84398 0.18319
 H1868 H 0.37792 0.79507 0.17451
 C1869 C 0.90090 0.29392 0.18762
 C1870 C 0.91403 0.30378 0.19408
 C1871 C 0.91335 0.32136 0.19262
 C1872 C 0.89953 0.32905 0.18482
 C1873 C 0.88622 0.31924 0.17837
 C1874 C 0.88709 0.30158 0.17981
 C1875 C 0.92804 0.29583 0.20245
 C1876 C 0.93961 0.28902 0.20956
 C1877 C 0.95297 0.28085 0.21802
 C1878 C 0.96421 0.27371 0.22534
 H1879 H 0.90127 0.28030 0.18875
 H1880 H 0.92345 0.32911 0.19756
 H1881 H 0.89932 0.34266 0.18373
 H1882 H 0.87694 0.29370 0.17519
 C1883 C 0.90148 0.79507 0.68830
 C1884 C 0.91456 0.80502 0.69472
 C1885 C 0.91379 0.82259 0.69317
 C1886 C 0.89996 0.83018 0.68530
 C1887 C 0.88672 0.82027 0.67885
 C1888 C 0.88766 0.80262 0.68042
 C1889 C 0.92861 0.79716 0.70308
 C1890 C 0.94020 0.79035 0.71017
 C1891 C 0.95356 0.78212 0.71855
 C1892 C 0.96479 0.77490 0.72580
 H1893 H 0.90190 0.78146 0.68949
 H1894 H 0.92386 0.83041 0.69808
 H1895 H 0.89969 0.84378 0.68412
 H1896 H 0.87755 0.79467 0.67582
 C1897 C 0.59835 0.29499 0.31222
 C1898 C 0.58530 0.30491 0.30570
 C1899 C 0.58602 0.32247 0.30727
 C1900 C 0.59979 0.33010 0.31524
 C1901 C 0.61302 0.32024 0.32175
 C1902 C 0.61211 0.30258 0.32019
 C1903 C 0.57135 0.29703 0.29717
 C1904 C 0.55983 0.29024 0.28994
 C1905 C 0.54654 0.28208 0.28137
 C1906 C 0.53535 0.27492 0.27397
 H1907 H 0.59796 0.28138 0.31101
 H1908 H 0.57598 0.33027 0.30229
 H1909 H 0.60003 0.34370 0.31641
 H1910 H 0.62220 0.29466 0.32485
 C1911 C 0.59854 0.79513 0.81172
 C1912 C 0.58550 0.80509 0.80527
 C1913 C 0.58623 0.82265 0.80692
 C1914 C 0.60000 0.83023 0.81493
 C1915 C 0.61321 0.82031 0.82139
 C1916 C 0.61230 0.80267 0.81973
 C1917 C 0.57153 0.79725 0.79675
 C1918 C 0.56000 0.79046 0.78952
 C1919 C 0.54672 0.78228 0.78096
 C1920 C 0.53556 0.77510 0.77356
 H1921 H 0.59814 0.78153 0.81045
 H1922 H 0.57618 0.83048 0.80198
 H1923 H 0.60025 0.84382 0.81618
 H1924 H 0.62239 0.79472 0.82435
 C1925 C 0.09883 0.29536 0.81233
 C1926 C 0.08572 0.30518 0.80578
 C1927 C 0.08637 0.32276 0.80720
 C1928 C 0.10012 0.33051 0.81508
 C1929 C 0.11340 0.32074 0.82164
 C1930 C 0.11258 0.30307 0.82021
 C1931 C 0.07177 0.29717 0.79737
 C1932 C 0.06025 0.29028 0.79024
 C1933 C 0.04696 0.28200 0.78180
 C1934 C 0.03576 0.27475 0.77450
 H1935 H 0.09849 0.28175 0.81123
 H1936 H 0.07628 0.33048 0.80219
 H1937 H 0.10031 0.34412 0.81616
 H1938 H 0.12271 0.29523 0.82491
 C1939 C 0.09803 0.79609 0.31146
 C1940 C 0.08501 0.80606 0.30499
 C1941 C 0.08578 0.82362 0.30658
 C1942 C 0.09957 0.83119 0.31456
 C1943 C 0.11276 0.82127 0.32106
 C1944 C 0.11182 0.80362 0.31944
 C1945 C 0.07101 0.79821 0.29652
 C1946 C 0.05947 0.79140 0.28935
 C1947 C 0.04617 0.78314 0.28089
 C1948 C 0.03501 0.77586 0.27359
 H1949 H 0.09760 0.78249 0.31023
 H1950 H 0.07575 0.83146 0.30163
 H1951 H 0.09986 0.84479 0.31578
 H1952 H 0.12188 0.79565 0.32409
 C1953 C 0.58629 0.69334 0.67731
 C1954 C 0.58572 0.69497 0.69487
 C1955 C 0.59890 0.68860 0.70470
 C1956 C 0.61265 0.68070 0.69703
 C1957 C 0.61340 0.67907 0.67938
 C1958 C 0.60004 0.68544 0.66960
 C1959 C 0.57176 0.70341 0.70283
 C1960 C 0.56024 0.71058 0.70966
 C1961 C 0.54693 0.71908 0.71786
 C1962 C 0.53574 0.72645 0.72502
 H1963 H 0.57614 0.69821 0.66958
 H1964 H 0.59862 0.68986 0.71829
 H1965 H 0.62284 0.67614 0.70488
 H1966 H 0.60017 0.68421 0.65601
 C1967 C 0.59856 0.18938 0.20425
 C1968 C 0.58534 0.19570 0.19444
 C1969 C 0.58590 0.19406 0.17688
 C1970 C 0.59964 0.18615 0.16916
 C1971 C 0.61301 0.17979 0.17894
 C1972 C 0.61230 0.18148 0.19657
 C1973 C 0.57136 0.20404 0.20244
 C1974 C 0.55982 0.21110 0.20936
 C1975 C 0.54652 0.21945 0.21771
 C1976 C 0.53534 0.22669 0.22502
 H1977 H 0.59830 0.19066 0.21785
 H1978 H 0.57572 0.19889 0.16916
 H1979 H 0.59975 0.18488 0.15558
 H1980 H 0.62250 0.17694 0.20442
 C1981 C 0.09862 0.68994 0.20447
 C1982 C 0.08539 0.69625 0.19466
 C1983 C 0.08597 0.69466 0.17710
 C1984 C 0.09976 0.68685 0.16937
 C1985 C 0.11316 0.68052 0.17914
 C1986 C 0.11241 0.68213 0.19678
 C1987 C 0.07139 0.70456 0.20266
 C1988 C 0.05983 0.71160 0.20955
 C1989 C 0.04649 0.71996 0.21785
 C1990 C 0.03527 0.72719 0.22511
 H1991 H 0.09834 0.69117 0.21807
 H1992 H 0.07579 0.69948 0.16939
 H1993 H 0.09990 0.68563 0.15578
 H1994 H 0.12263 0.67762 0.20462
 C1995 C 0.09848 0.20549 0.68786
 C1996 C 0.08532 0.19570 0.69438
 C1997 C 0.08591 0.17812 0.69294
 C1998 C 0.09966 0.17035 0.68511
 C1999 C 0.11300 0.18009 0.67860
 C2000 C 0.11222 0.19776 0.68002
 C2001 C 0.07140 0.20372 0.70280
 C2002 C 0.05992 0.21063 0.70997
 C2003 C 0.04668 0.21891 0.71848
 C2004 C 0.03555 0.22615 0.72586
 H2005 H 0.09818 0.21911 0.68897
 H2006 H 0.07579 0.17041 0.69793
 H2007 H 0.09982 0.15674 0.68404
 H2008 H 0.12240 0.20559 0.67536
 C2009 C 0.40207 0.70534 0.31100
 C2010 C 0.41516 0.69549 0.30447
 C2011 C 0.41450 0.67791 0.30599
 C2012 C 0.40076 0.67021 0.31394
 C2013 C 0.38750 0.68002 0.32049
 C2014 C 0.38834 0.69768 0.31896
 C2015 C 0.42911 0.70346 0.29603
 C2016 C 0.44062 0.71035 0.28888
 C2017 C 0.45390 0.71866 0.28042
 C2018 C 0.46507 0.72595 0.27313
 H2019 H 0.40242 0.71895 0.30983
 H2020 H 0.42457 0.67016 0.30100
 H2021 H 0.40056 0.65661 0.31509
 H2022 H 0.37822 0.70556 0.32364
 C2023 C 0.40082 0.20441 0.81179
 C2024 C 0.41387 0.19447 0.80530
 C2025 C 0.41316 0.17691 0.80693
 C2026 C 0.39941 0.16930 0.81496
 C2027 C 0.38620 0.17919 0.82148
 C2028 C 0.38709 0.19684 0.81983
 C2029 C 0.42782 0.20235 0.79677
 C2030 C 0.43933 0.20916 0.78955
 C2031 C 0.45261 0.21739 0.78101
 C2032 C 0.46378 0.22462 0.77365
 H2033 H 0.40121 0.21801 0.81053
 H2034 H 0.42320 0.16910 0.80197
 H2035 H 0.39918 0.15570 0.81620
 H2036 H 0.37700 0.20478 0.82448
 C2037 C 0.90190 0.70508 0.81171
 C2038 C 0.91501 0.69528 0.80514
 C2039 C 0.91437 0.67769 0.80656
 C2040 C 0.90063 0.66993 0.81446
 C2041 C 0.88736 0.67969 0.82106
 C2042 C 0.88817 0.69736 0.81961
 C2043 C 0.92897 0.70332 0.79677
 C2044 C 0.94049 0.71026 0.78968
 C2045 C 0.95377 0.71862 0.78128
 C2046 C 0.96494 0.72594 0.77401
 H2047 H 0.90224 0.71870 0.81061
 H2048 H 0.92446 0.66999 0.80154
 H2049 H 0.90045 0.65632 0.81555
 H2050 H 0.87805 0.70520 0.82434
 C2051 C 0.91404 0.17770 0.30755
 C2052 C 0.91474 0.19527 0.30602
 C2053 C 0.90169 0.20516 0.31258
 C2054 C 0.88794 0.19754 0.32054
 C2055 C 0.88705 0.17988 0.32206
 C2056 C 0.90028 0.17004 0.31551
 C2057 C 0.92868 0.20319 0.29750
 C2058 C 0.94017 0.21002 0.29027
 C2059 C 0.95343 0.21824 0.28169
 C2060 C 0.96457 0.22545 0.27427
 H2061 H 0.92408 0.16992 0.30253
 H2062 H 0.90207 0.21877 0.31140
 H2063 H 0.87785 0.20544 0.32524
 H2064 H 0.90004 0.15643 0.31665
 C2065 C 0.32192 0.30666 0.58457
 C2066 C 0.30434 0.30520 0.58388
 C2067 C 0.29448 0.31162 0.59702
 C2068 C 0.30215 0.31938 0.61085
 C2069 C 0.31982 0.32082 0.61173
 C2070 C 0.32962 0.31442 0.59841
 C2071 C 0.29638 0.29686 0.56987
 C2072 C 0.28952 0.28976 0.55832
 C2073 C 0.28127 0.28132 0.54501
 C2074 C 0.27405 0.27400 0.53382
 H2075 H 0.32967 0.30176 0.57446
 H2076 H 0.28087 0.31048 0.59665
 H2077 H 0.29427 0.32396 0.62102
 H2078 H 0.34323 0.31551 0.59864
 C2079 C 0.32260 0.80727 0.08439
 C2080 C 0.30503 0.80569 0.08379
 C2081 C 0.29520 0.81201 0.09699
 C2082 C 0.30288 0.81980 0.11080
 C2083 C 0.32054 0.82137 0.11159
 C2084 C 0.33032 0.81506 0.09820
 C2085 C 0.29706 0.79731 0.06980
 C2086 C 0.29020 0.79018 0.05827
 C2087 C 0.28196 0.78171 0.04497
 C2088 C 0.27475 0.77435 0.03381
 H2089 H 0.33034 0.80243 0.07423
 H2090 H 0.28160 0.81078 0.09669
 H2091 H 0.29503 0.82431 0.12101
 H2092 H 0.34392 0.81625 0.09837
 C2093 C 0.82163 0.30578 0.08490
 C2094 C 0.80406 0.30428 0.08425
 C2095 C 0.79422 0.31060 0.09745
 C2096 C 0.80191 0.31833 0.11129
 C2097 C 0.81957 0.31984 0.11212
 C2098 C 0.82935 0.31351 0.09875
 C2099 C 0.79607 0.29603 0.07020
 C2100 C 0.78918 0.28902 0.05861
 C2101 C 0.78090 0.28069 0.04525
 C2102 C 0.77366 0.27345 0.03402
 H2103 H 0.82936 0.30095 0.07474
 H2104 H 0.78061 0.30944 0.09712
 H2105 H 0.79405 0.32285 0.12149
 H2106 H 0.84296 0.31465 0.09894
 C2107 C 0.80634 0.82178 0.58507
 C2108 C 0.80490 0.80419 0.58443
 C2109 C 0.81133 0.79438 0.59760
 C2110 C 0.81910 0.80210 0.61140
 C2111 C 0.82054 0.81977 0.61222
 C2112 C 0.81410 0.82953 0.59888
 C2113 C 0.79660 0.79618 0.57043
 C2114 C 0.78955 0.78927 0.55887
 C2115 C 0.78118 0.78097 0.54555
 C2116 C 0.77391 0.77371 0.53435
 H2117 H 0.80142 0.82949 0.57493
 H2118 H 0.81022 0.78077 0.59727
 H2119 H 0.82370 0.79425 0.62158
 H2120 H 0.81519 0.84314 0.59906
 C2121 C 0.30732 0.67774 0.41452
 C2122 C 0.30574 0.69530 0.41518
 C2123 C 0.31213 0.70520 0.40204
 C2124 C 0.32000 0.69758 0.38825
 C2125 C 0.32157 0.67992 0.38740
 C2126 C 0.31519 0.67008 0.40072
 C2127 C 0.29729 0.70321 0.42915
 C2128 C 0.29011 0.71002 0.44067
 C2129 C 0.28159 0.71820 0.45397
 C2130 C 0.27422 0.72536 0.46515
 H2131 H 0.30243 0.66996 0.42463
 H2132 H 0.31090 0.71880 0.40239
 H2133 H 0.32455 0.70548 0.37809
 H2134 H 0.31637 0.65648 0.40051
 C2135 C 0.31122 0.20517 0.90307
 C2136 C 0.30485 0.19539 0.91631
 C2137 C 0.30633 0.17781 0.91575
 C2138 C 0.31407 0.17003 0.90195
 C2139 C 0.32043 0.17975 0.88854
 C2140 C 0.31896 0.19742 0.88928
 C2141 C 0.29655 0.20343 0.93029
 C2142 C 0.28949 0.21036 0.94182
 C2143 C 0.28110 0.21868 0.95512
 C2144 C 0.27382 0.22594 0.96629
 H2145 H 0.31007 0.21878 0.90334
 H2146 H 0.30146 0.17012 0.92594
 H2147 H 0.31518 0.15642 0.90182
 H2148 H 0.32351 0.20523 0.87905
 C2149 C 0.81217 0.70451 0.90287
 C2150 C 0.80582 0.69458 0.91599
 C2151 C 0.80744 0.67702 0.91529
 C2152 C 0.81528 0.66941 0.90146
 C2153 C 0.82162 0.67929 0.88815
 C2154 C 0.82002 0.69694 0.88904
 C2155 C 0.79738 0.70244 0.92999
 C2156 C 0.79020 0.70922 0.94153
 C2157 C 0.78167 0.71739 0.95483
 C2158 C 0.77429 0.72456 0.96600
 H2159 H 0.81092 0.71811 0.90324
 H2160 H 0.80258 0.66921 0.92539
 H2161 H 0.81649 0.65581 0.90121
 H2162 H 0.82454 0.70487 0.87889
 C2163 C 0.81153 0.20500 0.40353
 C2164 C 0.80508 0.19508 0.41662
 C2165 C 0.80664 0.17751 0.41591
 C2166 C 0.81451 0.16989 0.40210
 C2167 C 0.82094 0.17976 0.38882
 C2168 C 0.81940 0.19742 0.38973
 C2169 C 0.79663 0.20296 0.43060
 C2170 C 0.78944 0.20975 0.44214
 C2171 C 0.78092 0.21793 0.45544
 C2172 C 0.77355 0.22511 0.46661
 H2173 H 0.81033 0.21861 0.40392
 H2174 H 0.80171 0.16971 0.42598
 H2175 H 0.81567 0.15629 0.40185
 H2176 H 0.82400 0.20534 0.37961
 C2177 C 0.70448 0.31086 0.40314
 C2178 C 0.69456 0.30449 0.41626
 C2179 C 0.67699 0.30604 0.41554
 C2180 C 0.66937 0.31387 0.40170
 C2181 C 0.67924 0.32026 0.38841
 C2182 C 0.69689 0.31869 0.38931
 C2183 C 0.70246 0.29615 0.43031
 C2184 C 0.70929 0.28908 0.44190
 C2185 C 0.71753 0.28070 0.45525
 C2186 C 0.72476 0.27345 0.46647
 H2187 H 0.71808 0.30966 0.40353
 H2188 H 0.66920 0.30116 0.42564
 H2189 H 0.65577 0.31505 0.40146
 H2190 H 0.70482 0.32325 0.37917
 C2191 C 0.68833 0.79409 0.90275
 C2192 C 0.69473 0.80383 0.91599
 C2193 C 0.69329 0.82141 0.91544
 C2194 C 0.68555 0.82924 0.90167
 C2195 C 0.67914 0.81955 0.88826
 C2196 C 0.68059 0.80187 0.88898
 C2197 C 0.70301 0.79574 0.92995
 C2198 C 0.71005 0.78878 0.94147
 C2199 C 0.71842 0.78042 0.95476
 C2200 C 0.72568 0.77313 0.96594
 H2201 H 0.68945 0.78047 0.90300
 H2202 H 0.69819 0.82907 0.92563
 H2203 H 0.68446 0.84285 0.90156
 H2204 H 0.67601 0.79409 0.87875
 C2205 C 0.17735 0.30714 0.91547
 C2206 C 0.19492 0.30560 0.91617
 C2207 C 0.20482 0.31197 0.90304
 C2208 C 0.19722 0.31978 0.88921
 C2209 C 0.17956 0.32133 0.88832
 C2210 C 0.16971 0.31495 0.90164
 C2211 C 0.20283 0.29724 0.93019
 C2212 C 0.20967 0.29014 0.94175
 C2213 C 0.21792 0.28173 0.95508
 C2214 C 0.22516 0.27445 0.96627
 H2215 H 0.16956 0.30227 0.92558
 H2216 H 0.21843 0.31077 0.90341
 H2217 H 0.20513 0.32433 0.87905
 H2218 H 0.15611 0.31612 0.90140
 C2219 C 0.18793 0.79497 0.40236
 C2220 C 0.19442 0.80472 0.41555
 C2221 C 0.19300 0.82230 0.41500
 C2222 C 0.18521 0.83013 0.40125
 C2223 C 0.17874 0.82043 0.38788
 C2224 C 0.18014 0.80276 0.38862
 C2225 C 0.20277 0.79663 0.42948
 C2226 C 0.20987 0.78966 0.44096
 C2227 C 0.21830 0.78130 0.45420
 C2228 C 0.22560 0.77398 0.46533
 H2229 H 0.18903 0.78136 0.40262
 H2230 H 0.19796 0.82996 0.42516
 H2231 H 0.18415 0.84374 0.40113
 H2232 H 0.17551 0.79497 0.37841
 C2233 C 0.67725 0.69301 0.58539
 C2234 C 0.69482 0.69452 0.58462
 C2235 C 0.70474 0.68817 0.59775
 C2236 C 0.69715 0.68040 0.61162
 C2237 C 0.67949 0.67887 0.61255
 C2238 C 0.66962 0.68524 0.59926
 C2239 C 0.70273 0.70279 0.57053
 C2240 C 0.70958 0.70980 0.55892
 C2241 C 0.71786 0.71812 0.54554
 C2242 C 0.72514 0.72533 0.53431
 H2243 H 0.66945 0.69787 0.57528
 H2244 H 0.71835 0.68934 0.59732
 H2245 H 0.70508 0.67585 0.62175
 H2246 H 0.65601 0.68408 0.59954
 C2247 C 0.67702 0.19279 0.08493
 C2248 C 0.69459 0.19424 0.08419
 C2249 C 0.70447 0.18789 0.09735
 C2250 C 0.69683 0.18019 0.11124
 C2251 C 0.67916 0.17875 0.11216
 C2252 C 0.66934 0.18510 0.09883
 C2253 C 0.70254 0.20248 0.07011
 C2254 C 0.70941 0.20949 0.05850
 C2255 C 0.71767 0.21784 0.04512
 C2256 C 0.72491 0.22509 0.03390
 H2257 H 0.66925 0.19765 0.07481
 H2258 H 0.71808 0.18901 0.09695
 H2259 H 0.70472 0.17565 0.12140
 H2260 H 0.65573 0.18401 0.09909
 C2261 C 0.18852 0.70580 0.09749
 C2262 C 0.19491 0.69588 0.08438
 C2263 C 0.19341 0.67831 0.08516
 C2264 C 0.18562 0.67068 0.09903
 C2265 C 0.17924 0.68055 0.11231
 C2266 C 0.18074 0.69821 0.11135
 C2267 C 0.20325 0.70376 0.07032
 C2268 C 0.21034 0.71055 0.05871
 C2269 C 0.21877 0.71870 0.04532
 C2270 C 0.22609 0.72584 0.03407
 H2271 H 0.18969 0.71941 0.09705
 H2272 H 0.19829 0.67050 0.07507
 H2273 H 0.18449 0.65707 0.09931
 H2274 H 0.17617 0.70614 0.12148
 C2275 C 0.18896 0.20466 0.59758
 C2276 C 0.19535 0.19472 0.58449
 C2277 C 0.19389 0.17714 0.58533
 C2278 C 0.18611 0.16954 0.59922
 C2279 C 0.17967 0.17945 0.61245
 C2280 C 0.18118 0.19710 0.61146
 C2281 C 0.20356 0.20261 0.57036
 C2282 C 0.21051 0.20947 0.55871
 C2283 C 0.21874 0.21776 0.54528
 C2284 C 0.22588 0.22505 0.53401
 H2285 H 0.19009 0.21827 0.59710
 H2286 H 0.19878 0.16932 0.57526
 H2287 H 0.18498 0.15593 0.59954
 H2288 H 0.17659 0.20506 0.62155
   
