data_POSCAR
  _audit_creation_date              2014-09-24
  _audit_creation_method            'ToBaCCo'
  _symmetry_space_group_name_H-M    'P1'
  _symmetry_Int_Tables_number       1
  _symmetry_cell_setting            triclinic
  loop_
  _symmetry_equiv_pos_as_xyz
 x,y,z
_cell_length_a 35.3286
_cell_length_b 35.9827
_cell_length_c 43.0884
_cell_angle_alpha 90.222000
_cell_angle_beta 89.870900
_cell_angle_gamma 90.043400
loop_
  _atom_site_label
  _atom_site_type_symbol
  _atom_site_fract_x
  _atom_site_fract_y
  _atom_site_fract_z
B1 B 0.27571 0.23664 0.27222
 B2 B 0.23135 0.22141 0.26672
 B3 B 0.23821 0.26518 0.27920
 B4 B 0.27783 0.28199 0.26191
 B5 B 0.29445 0.24797 0.23784
 B6 B 0.26523 0.21034 0.24072
 B7 B 0.22344 0.26733 0.21771
 B8 B 0.26796 0.28299 0.22339
 B9 B 0.26092 0.23919 0.21079
 B10 B 0.22135 0.22216 0.22826
 B11 B 0.20478 0.25619 0.25221
 B12 B 0.23388 0.29409 0.24904
 B13 B 0.73659 0.76624 0.28400
 B14 B 0.77968 0.77976 0.27255
 B15 B 0.77239 0.73510 0.28206
 B16 B 0.72868 0.72265 0.27025
 B17 B 0.70936 0.76054 0.25289
 B18 B 0.74113 0.79615 0.25404
 B19 B 0.77229 0.74048 0.21949
 B20 B 0.72917 0.72635 0.23138
 B21 B 0.73630 0.77107 0.22159
 B22 B 0.78017 0.78369 0.23340
 B23 B 0.79960 0.74603 0.25117
 B24 B 0.76801 0.71015 0.24931
 B25 B 0.72917 0.23479 -0.28035
 B26 B 0.77362 0.22226 -0.27200
 B27 B 0.76398 0.26714 -0.27865
 B28 B 0.72087 0.27705 -0.26400
 B29 B 0.70434 0.23724 -0.24763
 B30 B 0.73729 0.20298 -0.25237
 B31 B 0.76891 0.25728 -0.21663
 B32 B 0.72447 0.27048 -0.22546
 B33 B 0.73405 0.22541 -0.21846
 B34 B 0.77735 0.21541 -0.23323
 B35 B 0.79383 0.25511 -0.24986
 B36 B 0.76125 0.28950 -0.24455
 B37 B 0.26600 0.76361 -0.27786
 B38 B 0.22117 0.77357 -0.26815
 B39 B 0.23198 0.73030 -0.27982
 B40 B 0.27562 0.71970 -0.26632
 B41 B 0.29102 0.75718 -0.24547
 B42 B 0.25693 0.79072 -0.24656
 B43 B 0.22680 0.73046 -0.21739
 B44 B 0.27175 0.72039 -0.22714
 B45 B 0.26070 0.76356 -0.21548
 B46 B 0.21714 0.77426 -0.22910
 B47 B 0.20176 0.73677 -0.24980
 B48 B 0.23581 0.70308 -0.24852
 B49 B 1.23433 1.26855 0.72262
 B50 B 1.22445 1.22456 0.73324
 B51 B 1.26914 1.23628 0.72374
 B52 B 1.27742 1.27997 0.73668
 B53 B 1.23730 1.29465 0.75513
 B54 B 1.20405 1.26035 0.75235
 B55 B 1.26367 1.23409 0.78622
 B56 B 1.27344 1.27789 0.77586
 B57 B 1.22878 1.26609 0.78523
 B58 B 1.22035 1.22252 0.77215
 B59 B 1.26068 1.20792 0.75438
 B60 B 1.29376 1.24244 0.75644
 B61 B 0.77261 0.74003 0.71717
 B62 B 0.77598 0.78511 0.72744
 B63 B 0.73338 0.76682 0.71862
 B64 B 0.73182 0.72272 0.73196
 B65 B 0.77422 0.71413 0.74943
 B66 B 0.80153 0.75311 0.74657
 B67 B 0.73960 0.77096 0.78132
 B68 B 0.73627 0.72559 0.77085
 B69 B 0.77871 0.74411 0.77976
 B70 B 0.78028 0.78828 0.76640
 B71 B 0.73791 0.79671 0.74874
 B72 B 0.71058 0.75789 0.75224
 B73 B 1.22534 0.73210 0.21799
 B74 B 1.27074 0.72202 0.22569
 B75 B 1.25863 0.76602 0.21779
 B76 B 1.21535 0.77437 0.23321
 B77 B 1.20150 0.73460 0.25134
 B78 B 1.23605 0.70190 0.24668
 B79 B 1.26613 0.76002 0.27975
 B80 B 1.22068 0.76972 0.27196
 B81 B 1.23298 0.72588 0.27997
 B82 B 1.27625 0.71752 0.26457
 B83 B 1.29006 0.75724 0.24636
 B84 B 1.25538 0.78989 0.25092
 B85 B 0.77410 1.26064 0.21762
 B86 B 0.72970 1.27323 0.22687
 B87 B 0.73837 1.22920 0.21570
 B88 B 0.78135 1.21673 0.22964
 B89 B 0.79816 1.25373 0.25031
 B90 B 0.76576 1.28883 0.24854
 B91 B 0.73256 1.23020 0.27805
 B92 B 0.77710 1.21829 0.26869
 B93 B 0.76782 1.26198 0.27997
 B94 B 0.72499 1.27439 0.26597
 B95 B 0.70817 1.23749 0.24538
 B96 B 0.74065 1.20230 0.24711
 N97 N 0.56556 1.03476 -0.03179
 N98 N 0.59491 1.04353 -0.04930
 N99 N 0.53972 1.06316 0.03245
 N100 N 0.55066 1.09141 0.04990
 N101 N 0.56517 1.03652 0.03312
 N102 N 0.59382 1.04600 0.05118
 N103 N 0.53987 1.06114 -0.03261
 N104 N 0.55118 1.08837 -0.05093
 C105 C 0.58532 1.07671 -0.06152
 C106 C 0.58412 1.08009 0.06187
 N107 N 0.43059 1.03981 0.03297
 N108 N 0.40178 1.05110 0.05023
 N109 N 0.45757 1.06312 -0.03254
 N110 N 0.44741 1.09130 -0.05018
 N111 N 0.43079 1.03772 -0.03217
 N112 N 0.40202 1.04801 -0.04971
 N113 N 0.45730 1.06528 0.03236
 N114 N 0.44698 1.09454 0.04896
 Mn115 Mn 0.49864 1.06329 -0.00009
 C116 C 0.41262 1.08505 0.06048
 C117 C 0.41304 1.08123 -0.06120
 N118 N 0.56344 0.95638 0.03423
 N119 N 0.59214 0.94702 0.05205
 N120 N 0.53694 0.92886 -0.03027
 N121 N 0.54595 0.90136 -0.04938
 N122 N 0.56327 0.95468 -0.03079
 N123 N 0.59056 0.94555 -0.05032
 N124 N 0.53693 0.93072 0.03498
 N125 N 0.54720 0.90329 0.05356
 Mn126 Mn 0.56438 0.99554 0.00120
 C127 C 0.58152 0.91420 0.06440
 C128 C 0.57927 0.91247 -0.06210
 N129 N 0.42902 0.95747 -0.03062
 N130 N 0.40040 0.94843 -0.04877
 N131 N 0.45413 0.93277 0.03487
 N132 N 0.44260 0.90582 0.05339
 N133 N 0.42889 0.95962 0.03429
 N134 N 0.39986 0.95161 0.05237
 N135 N 0.45436 0.93070 -0.03021
 N136 N 0.44336 0.90282 -0.04816
 Mn137 Mn 0.42980 0.99862 0.00112
 Mn138 Mn 0.49558 0.93046 0.00237
 Cl139 Cl 0.49708 0.99697 0.00117
 C140 C 0.40989 0.91455 -0.05996
 C141 C 0.40897 0.91829 0.06453
 N142 N 1.06876 0.53106 0.53481
 N143 N 1.09709 0.55322 0.54271
 N144 N 1.03879 0.45438 0.55583
 N145 N 1.04623 0.43022 0.57804
 N146 N 1.06510 0.45292 0.53424
 N147 N 1.09075 0.42755 0.54105
 N148 N 1.04174 0.53245 0.55579
 N149 N 1.05098 0.55560 0.57835
 C150 C 1.08536 0.56876 0.56976
 C151 C 1.07840 0.41322 0.56824
 N152 N 0.93072 0.45875 0.53299
 N153 N 0.90187 0.43701 0.54014
 N154 N 0.95946 0.53595 0.55489
 N155 N 0.95064 0.56011 0.57700
 N156 N 0.93385 0.53664 0.53283
 N157 N 0.90711 0.56111 0.53938
 N158 N 0.95663 0.45768 0.55480
 N159 N 0.94608 0.43500 0.57722
 Mn160 Mn 0.99917 0.49513 0.55556
 C161 C 0.91210 0.42189 0.56757
 C162 C 0.91812 0.57601 0.56679
 N163 N 1.06722 0.45315 0.46722
 N164 N 1.09524 0.43063 0.45941
 N165 N 1.04422 0.53190 0.44571
 N166 N 1.05483 0.55472 0.42339
 N167 N 1.07009 0.53082 0.46760
 N168 N 1.09893 0.55262 0.46058
 N169 N 1.04131 0.45374 0.44535
 N170 N 1.05116 0.43136 0.42228
 Mn171 Mn 1.06794 0.49200 0.50101
 C172 C 1.08462 0.41668 0.43157
 C173 C 1.08877 0.56782 0.43317
 N174 N 0.93538 0.53606 0.46599
 N175 N 0.90891 0.56037 0.45880
 N176 N 0.95875 0.45679 0.44463
 N177 N 0.94922 0.43296 0.42253
 N178 N 0.93220 0.45820 0.46603
 N179 N 0.90405 0.43558 0.45899
 N180 N 0.96183 0.53512 0.44451
 N181 N 0.95382 0.55892 0.42212
 Mn182 Mn 0.93293 0.49740 0.49944
 Mn183 Mn 1.00152 0.49438 0.44478
 Cl184 Cl 1.00042 0.49473 0.50017
 C185 C 0.92092 0.57488 0.43161
 C186 C 0.91518 0.41958 0.43203
 N187 N 1.05964 0.54013 0.03261
 N188 N 1.08623 0.56501 0.03864
 N189 N 1.03131 0.46410 0.05632
 N190 N 1.03668 0.43909 0.07819
 N191 N 1.05794 0.46176 0.03511
 N192 N 1.08217 0.43500 0.04204
 N193 N 1.03221 0.54250 0.05314
 N194 N 1.03918 0.56929 0.07340
 C195 C 1.07281 0.58339 0.06391
 C196 C 1.06832 0.42087 0.06894
 N197 N 0.92393 0.46332 0.03344
 N198 N 0.90045 0.43535 0.03873
 N199 N 0.95053 0.54313 0.05212
 N200 N 0.94328 0.56987 0.07231
 N201 N 0.92409 0.54170 0.03078
 N202 N 0.89805 0.56738 0.03604
 N203 N 0.95002 0.46497 0.05506
 N204 N 0.94507 0.43833 0.07554
 Mn205 Mn 0.99098 0.50379 0.05442
 C206 C 0.91417 0.41995 0.06513
 C207 C 0.91065 0.58506 0.06187
 N208 N 1.05947 0.45846 -0.03211
 N209 N 1.08561 0.43301 -0.03759
 N210 N 1.03456 0.53603 -0.05615
 N211 N 1.04188 0.56162 -0.07728
 N212 N 1.06061 0.53644 -0.03443
 N213 N 1.08638 0.56205 -0.04032
 N214 N 1.03324 0.45744 -0.05368
 N215 N 1.04059 0.43086 -0.07408
 Mn216 Mn 1.05979 0.49913 0.00029
 C217 C 1.07317 0.41559 -0.06357
 C218 C 1.07420 0.57782 -0.06697
 N219 N 0.92561 0.53820 -0.03621
 N220 N 0.90148 0.56520 -0.04252
 N221 N 0.95148 0.45853 -0.05473
 N222 N 0.94453 0.43167 -0.07493
 N223 N 0.92469 0.45994 -0.03359
 N224 N 0.89876 0.43421 -0.03894
 N225 N 0.95263 0.53691 -0.05719
 N226 N 0.94758 0.56294 -0.07828
 Mn227 Mn 0.92414 0.50076 -0.00140
 Mn228 Mn 0.99299 0.49723 -0.05578
 Cl229 Cl 0.99199 0.50025 -0.00065
 C230 C 0.91566 0.58056 -0.06879
 C231 C 0.91168 0.41648 -0.06467
 N232 N 0.53777 0.93466 0.53533
 N233 N 0.56256 0.90869 0.54273
 N234 N 0.45708 0.95914 0.55544
 N235 N 0.43404 0.94942 0.57824
 N236 N 0.45829 0.93281 0.53421
 N237 N 0.43637 0.90464 0.54214
 N238 N 0.53681 0.96084 0.55666
 N239 N 0.56075 0.95298 0.57929
 C240 C 0.57714 0.92061 0.57002
 C241 C 0.42089 0.91558 0.56939
 N242 N 0.45524 1.06515 0.53167
 N243 N 0.43208 1.09281 0.53860
 N244 N 0.53485 1.04207 0.55509
 N245 N 0.55667 1.05339 0.57817
 N246 N 0.53445 1.06710 0.53292
 N247 N 0.55574 1.09590 0.54045
 N248 N 0.45525 1.04022 0.55392
 N249 N 0.43200 1.05049 0.57646
 Mn250 Mn 0.49600 1.00056 0.55553
 C251 C 0.41722 1.08306 0.56635
 C252 C 0.56995 1.08680 0.56848
 N253 N 0.45999 0.93062 0.46691
 N254 N 0.43904 0.90179 0.45848
 N255 N 0.53967 0.95738 0.44662
 N256 N 0.56333 0.94708 0.42437
 N257 N 0.53914 0.93238 0.46876
 N258 N 0.56218 0.90463 0.46215
 N259 N 0.46012 0.95600 0.44500
 N260 N 0.43919 0.94499 0.42134
 Mn261 Mn 0.49871 0.93256 0.50134
 C262 C 0.42568 0.91140 0.43019
 C263 C 0.57759 0.91437 0.43466
 N264 N 0.53653 1.06506 0.46586
 N265 N 0.55783 1.09344 0.45715
 N266 N 0.45879 1.03718 0.44317
 N267 N 0.43990 1.04770 0.41826
 N268 N 0.45718 1.06333 0.46458
 N269 N 0.43693 1.09183 0.45472
 N270 N 0.53801 1.03824 0.44506
 N271 N 0.56029 1.04783 0.42183
 Mn272 Mn 0.49582 1.06517 0.49879
 Mn273 Mn 0.49916 0.99716 0.44486
 Cl274 Cl 0.49732 0.99889 0.50012
 C275 C 0.57300 1.08204 0.42985
 C276 C 0.42573 1.08149 0.42600
 N277 N 1.07766 1.03856 0.53343
 N278 N 1.10567 1.06119 0.54121
 N279 N 1.04199 0.96480 0.55563
 N280 N 1.04676 0.94358 0.57998
 N281 N 1.07031 0.96125 0.53605
 N282 N 1.09554 0.93762 0.54715
 N283 N 1.04935 1.04216 0.55301
 N284 N 1.05680 1.06757 0.57406
 C285 C 1.09169 1.07957 0.56633
 C286 C 1.07984 0.92638 0.57436
 N287 N 0.93526 0.97262 0.53293
 N288 N 0.90584 0.95239 0.54174
 N289 N 0.96928 1.04892 0.55164
 N290 N 0.96171 1.07163 0.57476
 N291 N 0.94231 1.04982 0.53076
 N292 N 0.91540 1.07308 0.53950
 N293 N 0.96198 0.97150 0.55402
 N294 N 0.95194 0.95010 0.57728
 Mn295 Mn 1.00571 1.00688 0.55363
 C296 C 0.91718 0.93796 0.56925
 C297 C 0.92844 1.08698 0.56673
 N298 N 1.07207 0.95772 0.46835
 N299 N 1.09598 0.93087 0.46060
 N300 N 1.05254 1.03712 0.44552
 N301 N 1.06305 1.05601 0.42099
 N302 N 1.08017 1.03497 0.46576
 N303 N 1.11063 1.05218 0.45492
 N304 N 1.04482 0.95984 0.44782
 N305 N 1.04864 0.93441 0.42626
 Mn306 Mn 1.07572 0.99802 0.50095
 C307 C 1.08022 0.91620 0.43448
 C308 C 1.09899 1.06573 0.42711
 N309 N 0.94449 1.04705 0.46379
 N310 N 0.91860 1.07003 0.45298
 N311 N 0.96583 0.96695 0.44585
 N312 N 0.95675 0.94647 0.42182
 N313 N 0.93732 0.96981 0.46527
 N314 N 0.90760 0.95151 0.45431
 N315 N 0.97276 1.04426 0.44411
 N316 N 0.96713 1.06533 0.41976
 Mn317 Mn 0.93936 1.00979 0.49820
 Mn318 Mn 1.00904 1.00213 0.44593
 Cl319 Cl 1.00746 1.00420 0.49972
 C320 C 0.93366 1.08172 0.42574
 C321 C 0.92075 0.93659 0.42736
 N322 N 0.57524 0.54270 0.03470
 N323 N 0.60174 0.56631 0.04389
 N324 N 0.54657 0.46546 0.05566
 N325 N 0.55463 0.44556 0.08031
 N326 N 0.57499 0.46526 0.03592
 N327 N 0.60324 0.44533 0.04698
 N328 N 0.54661 0.54312 0.05415
 N329 N 0.55227 0.56731 0.07648
 C330 C 0.58636 0.58194 0.06973
 C331 C 0.58971 0.43271 0.07443
 N332 N 0.43911 0.46553 0.03228
 N333 N 0.40949 0.44619 0.04187
 N334 N 0.46659 0.54330 0.05226
 N335 N 0.45750 0.56539 0.07541
 N336 N 0.44002 0.54309 0.03102
 N337 N 0.41171 0.56485 0.03964
 N338 N 0.46560 0.46557 0.05365
 N339 N 0.45484 0.44605 0.07793
 Mn340 Mn 0.50639 0.50428 0.05392
 C341 C 0.42013 0.43357 0.07015
 C342 C 0.42360 0.57910 0.06715
 N343 N 0.57785 0.46320 -0.03129
 N344 N 0.60324 0.43709 -0.03731
 N345 N 0.55185 0.54065 -0.05384
 N346 N 0.56083 0.56226 -0.07724
 N347 N 0.57862 0.54092 -0.03277
 N348 N 0.60698 0.56245 -0.04178
 N349 N 0.55105 0.46279 -0.05229
 N350 N 0.55676 0.43625 -0.07269
 Mn351 Mn 0.57721 0.50304 0.00164
 C352 C 0.58906 0.42022 -0.06303
 C353 C 0.59491 0.57616 -0.06935
 N354 N 0.44306 0.54152 -0.03648
 N355 N 0.41557 0.56286 -0.04714
 N356 N 0.47089 0.46323 -0.05499
 N357 N 0.46367 0.44089 -0.07842
 N358 N 0.44250 0.46379 -0.03528
 N359 N 0.41492 0.44189 -0.04520
 N360 N 0.47142 0.54087 -0.05623
 N361 N 0.46422 0.56178 -0.08044
 Mn362 Mn 0.44075 0.50349 -0.00215
 Mn363 Mn 0.51137 0.50189 -0.05437
 Cl364 Cl 0.50886 0.50314 -0.00022
 C365 C 0.42966 0.57581 -0.07436
 C366 C 0.42905 0.42730 -0.07191
 C367 C 0.31793 1.18354 0.13267
 C368 C 0.33323 1.21610 0.14542
 C369 C 0.31343 1.23537 0.16820
 C370 C 0.27768 1.22322 0.17855
 C371 C 0.26252 1.19131 0.16418
 N372 N 0.28293 1.17229 0.14232
 C373 C 0.34097 1.15933 0.11179
 N374 N 0.33319 1.12225 0.11008
 C375 C 0.35523 1.09809 0.09360
 C376 C 0.38780 1.11076 0.07813
 C377 C 0.39583 1.14886 0.07894
 C378 C 0.37234 1.17321 0.09527
 H379 H 0.32792 1.25831 0.17922
 H380 H 0.23557 1.18016 0.17167
 H381 H 0.34775 1.06892 0.09313
 H382 H 0.42011 1.15996 0.06669
 H383 H 0.36148 1.22548 0.13980
 H384 H 0.37899 1.20252 0.09482
 C385 C 0.82965 0.67785 0.64170
 C386 C 0.79012 0.68306 0.64028
 C387 C 0.77183 0.70468 0.66312
 C388 C 0.79268 0.72147 0.68716
 C389 C 0.83225 0.71615 0.68689
 N390 N 0.84910 0.69484 0.66487
 C391 C 0.85128 0.65243 0.62076
 N392 N 0.88656 0.64160 0.62982
 C393 C 0.90845 0.61787 0.61292
 C394 C 0.89521 0.60330 0.58477
 C395 C 0.85920 0.61447 0.57453
 C396 C 0.83715 0.63894 0.59240
 H397 H 0.74129 0.70699 0.66266
 H398 H 0.85009 0.72701 0.70507
 H399 H 0.93605 0.61022 0.62167
 H400 H 0.84791 0.60403 0.55285
 H401 H 0.77316 0.66943 0.62277
 H402 H 0.80967 0.64717 0.58388
 C403 C 0.67628 0.82906 0.14602
 C404 C 0.71547 0.82287 0.14319
 C405 C 0.73481 0.80399 0.16681
 C406 C 0.71522 0.79104 0.19307
 C407 C 0.67615 0.79884 0.19496
 N408 N 0.65811 0.81681 0.17176
 C409 C 0.65374 0.84957 0.12277
 N410 N 0.61608 0.84181 0.12010
 C411 C 0.59265 0.86136 0.10120
 C412 C 0.60664 0.89153 0.08422
 C413 C 0.64537 0.90003 0.08655
 C414 C 0.66905 0.87901 0.10559
 H415 H 0.76504 0.79984 0.16463
 H416 H 0.65963 0.79167 0.21514
 H417 H 0.56301 0.85388 0.10005
 H418 H 0.65737 0.92308 0.07377
 H419 H 0.73096 0.83227 0.12299
 H420 H 0.69857 0.88665 0.10768
 C421 C 1.17289 0.32402 0.64651
 C422 C 1.18810 0.28855 0.64096
 C423 C 1.20949 0.27116 0.66422
 C424 C 1.21623 0.28918 0.69278
 C425 C 1.20213 0.32570 0.69614
 N426 N 1.18075 0.34139 0.67370
 C427 C 1.14689 0.34293 0.62486
 N428 N 1.11836 0.36386 0.63706
 C429 C 1.09499 0.38479 0.61926
 C430 C 1.10056 0.38669 0.58710
 C431 C 1.12949 0.36497 0.57384
 C432 C 1.15246 0.34265 0.59261
 H433 H 1.21930 0.24310 0.66023
 H434 H 1.20643 0.34170 0.71709
 H435 H 1.07317 0.40118 0.63045
 H436 H 1.13473 0.36577 0.54907
 H437 H 1.18209 0.27379 0.61959
 H438 H 1.17528 0.32680 0.58224
 C439 C 0.67945 1.16187 -0.14325
 C440 C 0.71791 1.17131 -0.14020
 C441 C 0.73585 1.19155 -0.16391
 C442 C 0.71548 1.20237 -0.19038
 C443 C 0.67756 1.19040 -0.19274
 N444 N 0.66082 1.17155 -0.16940
 C445 C 0.65766 1.14157 -0.11952
 N446 N 0.61998 1.14900 -0.11684
 C447 C 0.59668 1.12928 -0.09798
 C448 C 0.61080 1.09918 -0.08114
 C449 C 0.64962 1.09101 -0.08334
 C450 C 0.67327 1.11238 -0.10232
 H451 H 0.76548 1.19859 -0.16155
 H452 H 0.66064 1.19577 -0.21306
 H453 H 0.56697 1.13654 -0.09687
 H454 H 0.66162 1.06804 -0.07054
 H455 H 0.73366 1.16370 -0.11967
 H456 H 0.70291 1.10522 -0.10449
 C457 C 1.18088 0.66112 0.35545
 C458 C 1.22051 0.65987 0.35184
 C459 C 1.23791 0.68151 0.32870
 C460 C 1.21592 0.70432 0.30943
 C461 C 1.17658 0.70535 0.31483
 N462 N 1.16056 0.68402 0.33697
 C463 C 1.15915 0.63690 0.37673
 N464 N 1.12186 0.63124 0.37025
 C465 C 1.09904 0.60972 0.38804
 C466 C 1.11337 0.59240 0.41453
 C467 C 1.15162 0.59813 0.42215
 C468 C 1.17471 0.62027 0.40323
 H469 H 1.26821 0.67955 0.32533
 H470 H 1.15797 0.72248 0.30108
 H471 H 1.06973 0.60620 0.38138
 H472 H 1.16373 0.58521 0.44249
 H473 H 1.23771 0.64148 0.36570
 H474 H 1.20400 0.62458 0.40955
 C475 C 0.31505 0.82452 -0.13881
 C476 C 0.27562 0.82768 -0.14277
 C477 C 0.25750 0.80673 -0.16593
 C478 C 0.27848 0.78261 -0.18505
 C479 C 0.31760 0.77942 -0.17928
 N480 N 0.33441 0.80003 -0.15684
 C481 C 0.33718 0.84768 -0.11677
 N482 N 0.37259 0.83613 -0.10880
 C483 C 0.39609 0.85672 -0.09062
 C484 C 0.38463 0.89167 -0.07969
 C485 C 0.34828 0.90426 -0.08756
 C486 C 0.32447 0.88240 -0.10602
 H487 H 0.22741 0.81032 -0.16947
 H488 H 0.33538 0.76147 -0.19322
 H489 H 0.42383 0.84591 -0.08506
 H490 H 0.33831 0.93112 -0.07961
 H491 H 0.25891 0.84626 -0.12851
 H492 H 0.29707 0.89325 -0.11247
 C493 C 0.82334 0.32296 0.35612
 C494 C 0.78373 0.32535 0.35308
 C495 C 0.76528 0.30430 0.33012
 C496 C 0.78610 0.28078 0.31036
 C497 C 0.82544 0.27820 0.31536
 N498 N 0.84262 0.29921 0.33735
 C499 C 0.84573 0.34732 0.37707
 N500 N 0.88278 0.35361 0.36990
 C501 C 0.90549 0.37607 0.38718
 C502 C 0.89123 0.39378 0.41373
 C503 C 0.85332 0.38720 0.42204
 C504 C 0.83044 0.36411 0.40376
 H505 H 0.73508 0.30762 0.32705
 H506 H 0.84309 0.26052 0.30106
 H507 H 0.93458 0.38016 0.38003
 H508 H 0.84121 0.40023 0.44247
 H509 H 0.76732 0.34446 0.36708
 H510 H 0.80141 0.35931 0.41069
 C511 C 1.14747 0.32098 0.14992
 C512 C 1.14981 0.33437 0.18033
 C513 C 1.17313 0.31672 0.20154
 C514 C 1.19422 0.28503 0.19306
 C515 C 1.18884 0.27082 0.16285
 N516 N 1.16677 0.28947 0.14202
 C517 C 1.12508 0.34219 0.12690
 N518 N 1.09413 0.36143 0.13681
 C519 C 1.07477 0.38510 0.11822
 C520 C 1.08708 0.39176 0.08777
 C521 C 1.11837 0.37155 0.07664
 C522 C 1.13723 0.34640 0.09607
 H523 H 1.17474 0.32861 0.22459
 H524 H 1.20359 0.24605 0.15536
 H525 H 1.05067 0.39981 0.12774
 H526 H 1.12869 0.37576 0.05323
 H527 H 1.13476 0.35921 0.18743
 H528 H 1.16205 0.33187 0.08761
 C529 C 0.66666 0.82455 0.64740
 C530 C 0.65006 0.81491 0.67568
 C531 C 0.67012 0.79357 0.69679
 C532 C 0.70739 0.78172 0.69035
 C533 C 0.72166 0.78914 0.66041
 N534 N 0.70148 0.81054 0.64010
 C535 C 0.64706 0.85138 0.62683
 N536 N 0.64271 0.84407 0.59601
 C537 C 0.62169 0.86647 0.57721
 C538 C 0.60348 0.89824 0.58928
 C539 C 0.60898 0.90695 0.62066
 C540 C 0.63052 0.88360 0.63946
 H541 H 0.65670 0.78840 0.71893
 H542 H 0.74992 0.78043 0.65402
 H543 H 0.61848 0.85899 0.55300
 H544 H 0.59566 0.93115 0.63094
 H545 H 0.62208 0.82483 0.68187
 H546 H 0.63377 0.89034 0.66383
 C547 C 1.16209 0.67478 -0.14351
 C548 C 1.18884 0.65488 -0.16068
 C549 C 1.20953 0.67281 -0.18362
 C550 C 1.20501 0.71116 -0.18892
 C551 C 1.17803 0.73022 -0.17077
 N552 N 1.15714 0.71171 -0.14904
 C553 C 1.13851 0.65487 -0.12076
 N554 N 1.10108 0.64921 -0.12661
 C555 C 1.07954 0.62590 -0.10902
 C556 C 1.09581 0.60636 -0.08424
 C557 C 1.13401 0.61294 -0.07724
 C558 C 1.15550 0.63686 -0.09563
 H559 H 1.22890 0.65627 -0.19740
 H560 H 1.17282 0.75951 -0.17437
 H561 H 1.05006 0.62185 -0.11495
 H562 H 1.14769 0.59843 -0.05837
 H563 H 1.19279 0.62537 -0.15702
 H564 H 1.18540 0.64042 -0.09094
 C565 C 0.66605 1.17083 0.34898
 C566 C 0.69309 1.15210 0.33117
 C567 C 0.71441 1.17140 0.30968
 C568 C 0.71045 1.21011 0.30610
 C569 C 0.68431 1.22837 0.32559
 N570 N 0.66281 1.20850 0.34619
 C571 C 0.64036 1.14908 0.36929
 N572 N 0.62964 1.16222 0.39769
 C573 C 0.60806 1.14155 0.41753
 C574 C 0.59637 1.10548 0.40912
 C575 C 0.60644 1.09203 0.37973
 C576 C 0.62802 1.11370 0.35979
 H577 H 0.73381 1.15536 0.29555
 H578 H 0.68007 1.25805 0.32373
 H579 H 0.60035 1.15312 0.43988
 H580 H 0.59753 1.06471 0.37202
 H581 H 0.69736 1.12243 0.33336
 H582 H 0.63498 1.10274 0.33705
 C583 C 0.82930 0.68925 0.13867
 C584 C 0.79170 0.70158 0.13540
 C585 C 0.77392 0.72009 0.16019
 C586 C 0.79312 0.72599 0.18836
 C587 C 0.83148 0.71547 0.18954
 N588 N 0.84792 0.69746 0.16537
 C589 C 0.84952 0.66557 0.11557
 N590 N 0.88634 0.65699 0.12153
 C591 C 0.90660 0.63269 0.10399
 C592 C 0.88975 0.61460 0.07871
 C593 C 0.85220 0.62368 0.07129
 C594 C 0.83191 0.64907 0.08966
 H595 H 0.74457 0.72806 0.15773
 H596 H 0.84842 0.71992 0.21006
 H597 H 0.93559 0.62683 0.11039
 H598 H 0.83814 0.61028 0.05194
 H599 H 0.77569 0.69645 0.11449
 H600 H 0.80265 0.65445 0.08403
 C601 C 0.33146 1.17887 0.64799
 C602 C 0.31560 1.21408 0.64199
 C603 C 0.29663 1.23337 0.66593
 C604 C 0.29251 1.21735 0.69547
 C605 C 0.31084 1.18306 0.70049
 N606 N 0.32880 1.16511 0.67714
 C607 C 0.35141 1.15524 0.62469
 N608 N 0.36089 1.12006 0.63338
 C609 C 0.38062 1.09636 0.61486
 C610 C 0.39269 1.10766 0.58542
 C611 C 0.38278 1.14355 0.57547
 C612 C 0.36214 1.16745 0.59498
 H613 H 0.28533 1.26068 0.66127
 H614 H 0.31070 1.16969 0.72289
 H615 H 0.38749 1.06899 0.62351
 H616 H 0.39166 1.15342 0.55289
 H617 H 0.31740 1.22665 0.61930
 H618 H 0.35568 1.19515 0.58701
 C619 C 0.82977 0.30904 -0.13822
 C620 C 0.79263 0.29598 -0.13337
 C621 C 0.77388 0.27680 -0.15726
 C622 C 0.79162 0.27095 -0.18613
 C623 C 0.82985 0.28174 -0.18875
 N624 N 0.84721 0.30051 -0.16545
 C625 C 0.85048 0.33389 -0.11627
 N626 N 0.88643 0.34417 -0.12400
 C627 C 0.90678 0.36933 -0.10736
 C628 C 0.89090 0.38654 -0.08118
 C629 C 0.85428 0.37584 -0.07209
 C630 C 0.83394 0.34964 -0.08953
 H631 H 0.74488 0.26825 -0.15354
 H632 H 0.84581 0.27711 -0.20983
 H633 H 0.93502 0.37648 -0.11510
 H634 H 0.84097 0.38845 -0.05199
 H635 H 0.77755 0.30116 -0.11196
 H636 H 0.80543 0.34293 -0.08240
 C637 C 0.33312 0.81912 0.35099
 C638 C 0.30373 0.83707 0.33551
 C639 C 0.28200 0.81766 0.31426
 C640 C 0.28811 0.77952 0.30844
 C641 C 0.31672 0.76191 0.32572
 N642 N 0.33843 0.78192 0.34619
 C643 C 0.35911 0.84154 0.37068
 N644 N 0.37083 0.82908 0.39891
 C645 C 0.39222 0.85061 0.41834
 C646 C 0.40276 0.88692 0.40971
 C647 C 0.39168 0.89967 0.38045
 C648 C 0.37014 0.87718 0.36096
 H649 H 0.26078 0.83331 0.30186
 H650 H 0.32276 0.73274 0.32209
 H651 H 0.40070 0.83953 0.44058
 H652 H 0.39952 0.92717 0.37259
 H653 H 0.29809 0.86634 0.33921
 H654 H 0.36198 0.88772 0.33844
 C655 C 1.18497 1.14140 0.33399
 C656 C 1.21120 1.16799 0.34352
 C657 C 1.22561 1.19272 0.32211
 C658 C 1.21498 1.19117 0.29061
 C659 C 1.18896 1.16360 0.28183
 N660 N 1.17432 1.14007 0.30356
 C661 C 1.16532 1.11852 0.35731
 N662 N 1.12828 1.11028 0.35272
 C663 C 1.10706 1.09324 0.37471
 C664 C 1.12291 1.08386 0.40356
 C665 C 1.16132 1.09101 0.40856
 C666 C 1.18271 1.10822 0.38540
 H667 H 1.24400 1.21411 0.33105
 H668 H 1.17952 1.16132 0.25803
 H669 H 1.07761 1.08759 0.36969
 H670 H 1.17466 1.08351 0.43025
 H671 H 1.21899 1.17129 0.36765
 H672 H 1.21240 1.11370 0.38959
 C673 C 0.68023 0.65179 -0.16314
 C674 C 0.71934 0.64816 -0.16791
 C675 C 0.73693 0.66936 -0.19080
 C676 C 0.71594 0.69487 -0.20836
 C677 C 0.67634 0.69443 -0.20517
 N678 N 0.65988 0.67375 -0.18259
 C679 C 0.66000 0.63270 -0.13776
 N680 N 0.62186 0.62890 -0.14023
 C681 C 0.60068 0.61221 -0.11805
 C682 C 0.61782 0.59805 -0.09126
 C683 C 0.65694 0.60257 -0.08756
 C684 C 0.67820 0.61995 -0.11078
 H685 H 0.76709 0.66634 -0.19402
 H686 H 0.65857 0.71232 -0.21900
 H687 H 0.57050 0.60952 -0.12170
 H688 H 0.67110 0.59201 -0.06715
 H689 H 0.73632 0.62944 -0.15417
 H690 H 0.70830 0.62353 -0.10736
 C691 C 0.83928 1.16260 0.65733
 C692 C 0.81280 1.18911 0.64845
 C693 C 0.79230 1.20755 0.67090
 C694 C 0.79777 1.20014 0.70265
 C695 C 0.82524 1.17375 0.71069
 N696 N 0.84525 1.15589 0.68805
 C697 C 0.86149 1.14314 0.63359
 N698 N 0.89814 1.13451 0.63956
 C699 C 0.92041 1.11779 0.61799
 C700 C 0.90572 1.10871 0.58865
 C701 C 0.86807 1.11736 0.58204
 C702 C 0.84577 1.13442 0.60452
 H703 H 0.77211 1.22778 0.66284
 H704 H 0.83088 1.16736 0.73475
 H705 H 0.94933 1.11112 0.62401
 H706 H 0.85563 1.11014 0.55986
 H707 H 0.80835 1.19619 0.62434
 H708 H 0.81638 1.14013 0.59934
 C709 C 0.33438 0.65832 0.15598
 C710 C 0.30772 0.68443 0.14659
 C711 C 0.28813 0.70446 0.16872
 C712 C 0.29459 0.69895 0.20063
 C713 C 0.32214 0.67284 0.20912
 N714 N 0.34129 0.65352 0.18683
 C715 C 0.35618 0.63751 0.13270
 N716 N 0.39273 0.62874 0.13890
 C717 C 0.41487 0.61095 0.11787
 C718 C 0.40025 0.60084 0.08873
 C719 C 0.36261 0.60937 0.08188
 C720 C 0.34040 0.62761 0.10387
 H721 H 0.26773 0.72431 0.16034
 H722 H 0.32846 0.66776 0.23329
 H723 H 0.44377 0.60446 0.12412
 H724 H 0.35024 0.60142 0.05986
 H725 H 0.30249 0.69006 0.12231
 H726 H 0.31109 0.63341 0.09850
 C727 C 1.15621 0.84450 0.66869
 C728 C 1.14966 0.84755 0.70082
 C729 C 1.17025 0.82519 0.72124
 C730 C 1.19709 0.79996 0.70964
 C731 C 1.20251 0.79827 0.67726
 N732 N 1.18245 0.82020 0.65810
 C733 C 1.13588 0.86640 0.64540
 N734 N 1.15260 0.87172 0.61721
 C735 C 1.13521 0.89013 0.59381
 C736 C 1.09867 0.90401 0.59817
 C737 C 1.08063 0.89822 0.62686
 C738 C 1.09914 0.87951 0.65055
 H739 H 1.16515 0.82769 0.74595
 H740 H 1.22233 0.77926 0.66669
 H741 H 1.15004 0.89410 0.57206
 H742 H 1.05225 0.90840 0.63113
 H743 H 1.12943 0.86720 0.71014
 H744 H 1.08447 0.87476 0.67224
 C745 C 0.67374 0.35109 0.16386
 C746 C 0.69716 0.32330 0.15207
 C747 C 0.71403 0.29875 0.17215
 C748 C 0.70830 0.30135 0.20435
 C749 C 0.68414 0.32950 0.21537
 N750 N 0.66729 0.35324 0.19503
 C751 C 0.65398 0.37562 0.14221
 N752 N 0.61703 0.38404 0.14738
 C753 C 0.59609 0.40253 0.12608
 C754 C 0.61227 0.41294 0.09758
 C755 C 0.65055 0.40553 0.09222
 C756 C 0.67158 0.38712 0.11458
 H757 H 0.73069 0.27703 0.16183
 H758 H 0.67854 0.33259 0.23994
 H759 H 0.56671 0.40848 0.13123
 H760 H 0.66416 0.41385 0.07079
 H761 H 0.70147 0.31963 0.12735
 H762 H 0.70118 0.38135 0.11010
 C763 C 0.84011 0.85539 0.33494
 C764 C 0.84154 0.86173 0.30279
 C765 C 0.82343 0.83704 0.28266
 C766 C 0.80402 0.80617 0.29451
 C767 C 0.80371 0.80100 0.32690
 N768 N 0.82123 0.82543 0.34590
 C769 C 0.85913 0.87953 0.35752
 N770 N 0.84564 0.88124 0.38720
 C771 C 0.86387 0.90032 0.41001
 C772 C 0.89820 0.91791 0.40343
 C773 C 0.91223 0.91678 0.37292
 C774 C 0.89279 0.89778 0.34993
 H775 H 0.82401 0.84261 0.25800
 H776 H 0.78831 0.77855 0.33760
 H777 H 0.85223 0.90068 0.43326
 H778 H 0.93864 0.93021 0.36678
 H779 H 0.85573 0.88582 0.29330
 H780 H 0.90496 0.89613 0.32690
 C781 C 0.34240 0.34682 -0.16179
 C782 C 0.34737 0.35009 -0.19403
 C783 C 0.32511 0.32870 -0.21401
 C784 C 0.29798 0.30413 -0.20196
 C785 C 0.29381 0.30234 -0.16949
 N786 N 0.31564 0.32340 -0.15063
 C787 C 0.36539 0.36768 -0.13929
 N788 N 0.35044 0.37546 -0.11081
 C789 C 0.37029 0.39380 -0.08854
 C790 C 0.40754 0.40501 -0.09444
 C791 C 0.42376 0.39643 -0.12336
 C792 C 0.40280 0.37787 -0.14585
 H793 H 0.32941 0.33127 -0.23879
 H794 H 0.27375 0.28373 -0.15875
 H795 H 0.35686 0.39985 -0.06649
 H796 H 0.45258 0.40441 -0.12879
 H797 H 0.36789 0.36913 -0.20376
 H798 H 0.41604 0.37105 -0.16781
 C799 C 1.16177 0.31830 -0.14002
 C800 C 1.15724 0.28016 -0.14587
 C801 C 1.17980 0.26280 -0.16852
 C802 C 1.20621 0.28357 -0.18575
 C803 C 1.20926 0.32184 -0.17906
 N804 N 1.18776 0.33775 -0.15656
 C805 C 1.13811 0.33873 -0.11744
 N806 N 1.15494 0.36343 -0.09782
 C807 C 1.13466 0.38658 -0.07912
 C808 C 1.09501 0.38707 -0.08072
 C809 C 1.07700 0.36164 -0.10058
 C810 C 1.09847 0.33699 -0.11865
 H811 H 1.17583 0.23345 -0.17305
 H812 H 1.22836 0.33949 -0.19199
 H813 H 1.14960 0.40591 -0.06422
 H814 H 1.04644 0.36127 -0.10247
 H815 H 1.13653 0.26407 -0.13311
 H816 H 1.08438 0.31822 -0.13458
 C817 C 0.67287 0.82078 0.35935
 C818 C 0.67024 0.78188 0.35622
 C819 C 0.69198 0.76360 0.33344
 C820 C 0.71653 0.78391 0.31418
 C821 C 0.71885 0.82263 0.31913
 N822 N 0.69725 0.83956 0.34086
 C823 C 0.64821 0.84326 0.37991
 N824 N 0.64246 0.87955 0.37229
 C825 C 0.62043 0.90273 0.38946
 C826 C 0.60278 0.88980 0.41642
 C827 C 0.60868 0.85263 0.42514
 C828 C 0.63124 0.82918 0.40687
 H829 H 0.68835 0.73400 0.33008
 H830 H 0.73664 0.84015 0.30494
 H831 H 0.61675 0.93117 0.38197
 H832 H 0.59554 0.84157 0.44587
 H833 H 0.65043 0.76598 0.37000
 H834 H 0.63567 0.80074 0.41405
 C835 C 0.84265 0.69038 -0.14502
 C836 C 0.81189 0.71335 -0.13712
 C837 C 0.79301 0.73311 -0.16042
 C838 C 0.80419 0.72978 -0.19163
 C839 C 0.83700 0.70871 -0.19789
 N840 N 0.85464 0.68970 -0.17499
 C841 C 0.86182 0.66529 -0.12266
 N842 N 0.89585 0.65046 -0.13098
 C843 C 0.91396 0.62451 -0.11366
 C844 C 0.89746 0.61115 -0.08625
 C845 C 0.86272 0.62640 -0.07675
 C846 C 0.84478 0.65342 -0.09485
 H847 H 0.76915 0.74988 -0.15387
 H848 H 0.84768 0.70550 -0.22129
 H849 H 0.94079 0.61369 -0.12180
 H850 H 0.84896 0.61677 -0.05578
 H851 H 0.80206 0.71583 -0.11342
 H852 H 0.81733 0.66356 -0.08764
 C853 C 0.34756 1.17571 0.33923
 C854 C 0.33084 1.15748 0.31414
 C855 C 0.30929 1.17719 0.29322
 C856 C 0.30305 1.21573 0.29678
 C857 C 0.31984 1.23316 0.32267
 N858 N 0.34128 1.21297 0.34309
 C859 C 0.37078 1.15374 0.36137
 N860 N 0.36991 1.16125 0.39240
 C861 C 0.38759 1.13900 0.41352
 C862 C 0.40668 1.10662 0.40377
 C863 C 0.40872 1.09911 0.37194
 C864 C 0.39144 1.12274 0.35079
 H865 H 0.29674 1.16112 0.27469
 H866 H 0.31551 1.26253 0.32681
 H867 H 0.38602 1.14609 0.43792
 H868 H 0.42397 1.07509 0.36331
 H869 H 0.33350 1.12775 0.31090
 H870 H 0.39395 1.11643 0.32629
 C871 C 1.15910 0.68073 0.14226
 C872 C 1.15306 0.71836 0.14953
 C873 C 1.17512 0.73554 0.17259
 C874 C 1.20261 0.71509 0.18880
 C875 C 1.20712 0.67732 0.18073
 N876 N 1.18606 0.66164 0.15790
 C877 C 1.13614 0.66028 0.11915
 N878 N 1.15358 0.63534 0.10004
 C879 C 1.13396 0.61218 0.08090
 C880 C 1.09426 0.61196 0.08141
 C881 C 1.07563 0.63769 0.10068
 C882 C 1.09648 0.66229 0.11926
 H883 H 1.17004 0.76446 0.17817
 H884 H 1.22718 0.65986 0.19274
 H885 H 1.14939 0.59265 0.06650
 H886 H 1.04500 0.63830 0.10176
 H887 H 1.13162 0.73423 0.13751
 H888 H 1.08180 0.68121 0.13473
 C889 C 0.66177 1.18169 0.64561
 C890 C 0.65785 1.22027 0.65039
 C891 C 0.68042 1.23824 0.67282
 C892 C 0.70706 1.21795 0.69003
 C893 C 0.71054 1.17964 0.68338
 N894 N 0.68813 1.16300 0.66212
 C895 C 0.63697 1.15926 0.62513
 N896 N 0.63258 1.12253 0.63191
 C897 C 0.61140 1.09910 0.61431
 C898 C 0.59341 1.11212 0.58759
 C899 C 0.59768 1.14984 0.57984
 C900 C 0.61925 1.17360 0.59866
 H901 H 0.67607 1.26752 0.67742
 H902 H 0.73025 1.16218 0.69572
 H903 H 0.60894 1.07027 0.62111
 H904 H 0.58418 1.16101 0.55936
 H905 H 0.63661 1.23602 0.63809
 H906 H 0.62261 1.20244 0.59217
 C907 C 0.83912 0.31454 0.14265
 C908 C 0.82109 0.28061 0.13619
 C909 C 0.80147 0.26222 0.16005
 C910 C 0.79826 0.27857 0.18969
 C911 C 0.81773 0.31222 0.19488
 N912 N 0.83728 0.32878 0.17177
 C913 C 0.86062 0.33601 0.11952
 N914 N 0.89203 0.35431 0.12943
 C915 C 0.91051 0.37946 0.11164
 C916 C 0.89652 0.38887 0.08228
 C917 C 0.86471 0.36965 0.07103
 C918 C 0.84677 0.34286 0.08956
 H919 H 0.78800 0.23592 0.15506
 H920 H 0.81772 0.32581 0.21728
 H921 H 0.93511 0.39329 0.12116
 H922 H 0.85312 0.37609 0.04844
 H923 H 0.82266 0.26829 0.11327
 H924 H 0.82126 0.32936 0.08136
 C925 C 0.32866 0.82504 0.64984
 C926 C 0.30525 0.84379 0.67082
 C927 C 0.28497 0.82396 0.69271
 C928 C 0.28718 0.78488 0.69418
 C929 C 0.31014 0.76683 0.67208
 N930 N 0.33020 0.78709 0.65080
 C931 C 0.35236 0.84706 0.62805
 N932 N 0.35746 0.88402 0.63377
 C933 C 0.37875 0.90627 0.61530
 C934 C 0.39651 0.89164 0.58891
 C935 C 0.39158 0.85364 0.58224
 C936 C 0.36972 0.83117 0.60188
 H937 H 0.26760 0.83985 0.70863
 H938 H 0.31280 0.73688 0.67216
 H939 H 0.38176 0.93535 0.62134
 H940 H 0.40501 0.84121 0.56211
 H941 H 0.30282 0.87379 0.67067
 H942 H 0.36629 0.80193 0.59658
 C943 C 0.32173 1.17554 -0.13802
 C944 C 0.34091 1.20201 -0.15576
 C945 C 0.32180 1.22129 -0.17856
 C946 C 0.28300 1.21521 -0.18403
 C947 C 0.26450 1.18867 -0.16549
 N948 N 0.28416 1.16943 -0.14346
 C949 C 0.34305 1.15258 -0.11553
 N950 N 0.33362 1.11622 -0.11130
 C951 C 0.35504 1.09299 -0.09362
 C952 C 0.38850 1.10594 -0.07965
 C953 C 0.39797 1.14350 -0.08295
 C954 C 0.37518 1.16691 -0.10045
 H955 H 0.33825 1.24034 -0.19251
 H956 H 0.23491 1.18234 -0.16919
 H957 H 0.34646 1.06427 -0.09114
 H958 H 0.42299 1.15486 -0.07194
 H959 H 0.37101 1.20667 -0.15326
 H960 H 0.38300 1.19589 -0.10240
 C961 C 0.83172 0.67246 0.35504
 C962 C 0.79190 0.67183 0.35411
 C963 C 0.77270 0.69289 0.33185
 C964 C 0.79292 0.71478 0.31057
 C965 C 0.83269 0.71542 0.31310
 N966 N 0.85065 0.69436 0.33459
 C967 C 0.85408 0.64837 0.37608
 N968 N 0.88999 0.63874 0.36763
 C969 C 0.91207 0.61596 0.38508
 C970 C 0.89828 0.60141 0.41305
 C971 C 0.86170 0.61166 0.42263
 C972 C 0.83953 0.63502 0.40427
 H973 H 0.74218 0.69102 0.33069
 H974 H 0.84982 0.73193 0.29754
 H975 H 0.94019 0.60899 0.37692
 H976 H 0.84999 0.60127 0.44417
 H977 H 0.77568 0.65414 0.36941
 H978 H 0.81156 0.64266 0.41229
 C979 C 0.67778 1.17157 0.14019
 C980 C 0.66056 1.20075 0.15644
 C981 C 0.68059 1.21967 0.17910
 C982 C 0.71845 1.21058 0.18587
 C983 C 0.73482 1.18107 0.16904
 N984 N 0.71429 1.16239 0.14709
 C985 C 0.65547 1.14913 0.11774
 N986 N 0.66316 1.11229 0.11391
 C987 C 0.64124 1.08977 0.09584
 C988 C 0.60905 1.10401 0.08092
 C989 C 0.60131 1.14200 0.08386
 C990 C 0.62459 1.16465 0.10184
 H991 H 0.66547 1.24074 0.19209
 H992 H 0.76338 1.17208 0.17400
 H993 H 0.64848 1.06065 0.09371
 H994 H 0.57732 1.15431 0.07216
 H995 H 0.63114 1.20789 0.15298
 H996 H 0.61819 1.19400 0.10332
 C997 C 1.17340 0.66785 0.64655
 C998 C 1.15491 0.69669 0.66221
 C999 C 1.17427 0.71749 0.68413
 C1000 C 1.21293 0.71121 0.69011
 C1001 C 1.23123 0.68363 0.67229
 N1002 N 1.21120 0.66261 0.65147
 C1003 C 1.15114 0.64182 0.62692
 N1004 N 1.16614 0.62700 0.60045
 C1005 C 1.14580 0.60381 0.58162
 C1006 C 1.10826 0.59427 0.58923
 C1007 C 1.09276 0.60875 0.61664
 C1008 C 1.11399 0.63225 0.63548
 H1009 H 1.15805 0.73762 0.69725
 H1010 H 1.26083 0.67748 0.67606
 H1011 H 1.15894 0.59281 0.56083
 H1012 H 1.06416 0.60182 0.62366
 H1013 H 1.12520 0.70239 0.65841
 H1014 H 1.10145 0.64247 0.65681
 C1015 C 0.67530 0.82688 -0.14386
 C1016 C 0.67788 0.78800 -0.14375
 C1017 C 0.70038 0.77000 -0.16586
 C1018 C 0.72036 0.79023 -0.18848
 C1019 C 0.71906 0.82933 -0.18606
 N1020 N 0.69677 0.84626 -0.16446
 C1021 C 0.64993 0.84757 -0.12237
 N1022 N 0.65797 0.88373 -0.11570
 C1023 C 0.63571 0.90484 -0.09683
 C1024 C 0.60272 0.88986 -0.08358
 C1025 C 0.59342 0.85286 -0.09050
 C1026 C 0.61691 0.83162 -0.10982
 H1027 H 0.70227 0.74032 -0.16452
 H1028 H 0.73456 0.84669 -0.20213
 H1029 H 0.64385 0.93332 -0.09221
 H1030 H 0.56816 0.84029 -0.08086
 H1031 H 0.66289 0.77150 -0.12676
 H1032 H 0.60878 0.80335 -0.11525
 C1033 C 1.17890 0.32181 0.35553
 C1034 C 1.16395 0.28914 0.34293
 C1035 C 1.18447 0.26941 0.32087
 C1036 C 1.22076 0.28122 0.31131
 C1037 C 1.23598 0.31264 0.32643
 N1038 N 1.21483 0.33213 0.34759
 C1039 C 1.15456 0.34626 0.37501
 N1040 N 1.16902 0.36422 0.40022
 C1041 C 1.14720 0.38636 0.41882
 C1042 C 1.10859 0.39190 0.41215
 C1043 C 1.09344 0.37417 0.38600
 C1044 C 1.11617 0.35132 0.36753
 H1045 H 1.17037 0.24620 0.30987
 H1046 H 1.26357 0.32315 0.31991
 H1047 H 1.16009 0.39994 0.43861
 H1048 H 1.06398 0.37790 0.37985
 H1049 H 1.13578 0.27973 0.34904
 H1050 H 1.10390 0.33818 0.34727
 C1051 C 0.31216 0.83110 0.14325
 C1052 C 0.27288 0.83484 0.14813
 C1053 C 0.25493 0.81316 0.17091
 C1054 C 0.27601 0.78793 0.18867
 C1055 C 0.31504 0.78485 0.18230
 N1056 N 0.33156 0.80593 0.16024
 C1057 C 0.33444 0.85376 0.12116
 N1058 N 0.36961 0.84142 0.11315
 C1059 C 0.39367 0.86132 0.09509
 C1060 C 0.38304 0.89637 0.08424
 C1061 C 0.34688 0.90980 0.09202
 C1062 C 0.32245 0.88860 0.11045
 H1063 H 0.22491 0.81672 0.17504
 H1064 H 0.33301 0.76610 0.19511
 H1065 H 0.42118 0.84983 0.08953
 H1066 H 0.33756 0.93678 0.08405
 H1067 H 0.25620 0.85418 0.13475
 H1068 H 0.29520 0.89997 0.11687
 C1069 C 0.81911 0.33127 0.64684
 C1070 C 0.77937 0.33231 0.64940
 C1071 C 0.76126 0.31134 0.67252
 C1072 C 0.78260 0.28937 0.69291
 C1073 C 0.82217 0.28871 0.68883
 N1074 N 0.83891 0.30939 0.66656
 C1075 C 0.84127 0.35450 0.62505
 N1076 N 0.87845 0.36047 0.63173
 C1077 C 0.90148 0.38133 0.61355
 C1078 C 0.88745 0.39766 0.58650
 C1079 C 0.84936 0.39149 0.57865
 C1080 C 0.82609 0.36999 0.59791
 H1081 H 0.73080 0.31295 0.67484
 H1082 H 0.84026 0.27206 0.70343
 H1083 H 0.93067 0.38522 0.62040
 H1084 H 0.83748 0.40360 0.55788
 H1085 H 0.76252 0.34991 0.63458
 H1086 H 0.79693 0.36534 0.59137
 C1087 C 1.16754 1.15961 0.66182
 C1088 C 1.20048 1.14550 0.67540
 C1089 C 1.21677 1.16440 0.70019
 C1090 C 1.20094 1.19780 0.71104
 C1091 C 1.16591 1.20884 0.69883
 N1092 N 1.15056 1.19001 0.67456
 C1093 C 1.14999 1.14161 0.63472
 N1094 N 1.11196 1.14480 0.63103
 C1095 C 1.09330 1.12722 0.60779
 C1096 C 1.11307 1.10461 0.58672
 C1097 C 1.15253 1.10261 0.58882
 C1098 C 1.17118 1.12113 0.61288
 H1099 H 1.24243 1.15335 0.71010
 H1100 H 1.15193 1.23375 0.70708
 H1101 H 1.06280 1.12973 0.60659
 H1102 H 1.16863 1.08538 0.57292
 H1103 H 1.21361 1.12020 0.66705
 H1104 H 1.20165 1.11900 0.61453
 C1105 C 0.66168 0.66216 0.16580
 C1106 C 0.64446 0.69037 0.18336
 C1107 C 0.66508 0.70852 0.20615
 C1108 C 0.70333 0.69998 0.21075
 C1109 C 0.71853 0.66941 0.19463
 N1110 N 0.69789 0.65204 0.17232
 C1111 C 0.64170 0.64379 0.14002
 N1112 N 0.66208 0.62788 0.11657
 C1113 C 0.64521 0.60979 0.09250
 C1114 C 0.60572 0.60664 0.09166
 C1115 C 0.58433 0.62356 0.11517
 C1116 C 0.60209 0.64184 0.13942
 H1117 H 0.65111 0.73003 0.21939
 H1118 H 0.74743 0.66064 0.19842
 H1119 H 0.66260 0.59665 0.07491
 H1120 H 0.55373 0.62148 0.11547
 H1121 H 0.61586 0.69957 0.17897
 H1122 H 0.58475 0.65296 0.15795
 C1123 C 1.15391 0.83032 0.34144
 C1124 C 1.14590 0.83562 0.30983
 C1125 C 1.16707 0.81655 0.28746
 C1126 C 1.19588 0.79221 0.29665
 C1127 C 1.20234 0.78769 0.32871
 N1128 N 1.18184 0.80679 0.34983
 C1129 C 1.13365 0.85007 0.36610
 N1130 N 1.15267 0.85994 0.39238
 C1131 C 1.13582 0.87917 0.41583
 C1132 C 1.09782 0.88942 0.41322
 C1133 C 1.07731 0.87759 0.38707
 C1134 C 1.09516 0.85810 0.36341
 H1135 H 1.16093 0.82096 0.26315
 H1136 H 1.22378 0.76915 0.33739
 H1137 H 1.15246 0.88770 0.43568
 H1138 H 1.04768 0.88453 0.38434
 H1139 H 1.12413 0.85480 0.30247
 H1140 H 1.07904 0.84952 0.34328
 C1141 C 0.66115 0.32996 -0.15375
 C1142 C 0.64471 0.29916 -0.16852
 C1143 C 0.66365 0.28203 -0.19290
 C1144 C 0.69965 0.29433 -0.20194
 C1145 C 0.71413 0.32658 -0.18780
 N1146 N 0.69506 0.34300 -0.16404
 C1147 C 0.64227 0.34901 -0.12768
 N1148 N 0.66339 0.36933 -0.10731
 C1149 C 0.64732 0.38996 -0.08427
 C1150 C 0.60787 0.39163 -0.08170
 C1151 C 0.58577 0.36988 -0.10164
 C1152 C 0.60274 0.34862 -0.12465
 H1153 H 0.65022 0.25863 -0.20407
 H1154 H 0.74138 0.33774 -0.19450
 H1155 H 0.66517 0.40681 -0.06944
 H1156 H 0.55514 0.37078 -0.10045
 H1157 H 0.61797 0.28763 -0.16102
 H1158 H 0.58475 0.33389 -0.14081
 C1159 C 0.84756 1.15338 0.33180
 C1160 C 0.85305 1.14930 0.29966
 C1161 C 0.82998 1.16905 0.27925
 C1162 C 0.80164 1.19263 0.29089
 C1163 C 0.79696 1.19505 0.32327
 N1164 N 0.81956 1.17569 0.34245
 C1165 C 0.87086 1.13472 0.35505
 N1166 N 0.85594 1.12976 0.38390
 C1167 C 0.87579 1.11402 0.40726
 C1168 C 0.91301 1.10248 0.40208
 C1169 C 0.92936 1.10819 0.37276
 C1170 C 0.90836 1.12429 0.34913
 H1171 H 0.83472 1.16623 0.25453
 H1172 H 0.77605 1.21294 0.33379
 H1173 H 0.86224 1.11004 0.42956
 H1174 H 0.95820 1.09972 0.36792
 H1175 H 0.87461 1.13105 0.29034
 H1176 H 0.92159 1.12898 0.32681
 C1177 C 0.34264 0.65288 -0.16559
 C1178 C 0.34785 0.65005 -0.19788
 C1179 C 0.32504 0.67101 -0.21768
 C1180 C 0.29715 0.69465 -0.20538
 C1181 C 0.29287 0.69604 -0.17290
 N1182 N 0.31520 0.67546 -0.15427
 C1183 C 0.36579 0.63246 -0.14304
 N1184 N 0.35108 0.62591 -0.11430
 C1185 C 0.37098 0.60845 -0.09172
 C1186 C 0.40810 0.59687 -0.09752
 C1187 C 0.42408 0.60395 -0.12678
 C1188 C 0.40305 0.62168 -0.14960
 H1189 H 0.32944 0.66882 -0.24249
 H1190 H 0.27219 0.71382 -0.16192
 H1191 H 0.35769 0.60349 -0.06946
 H1192 H 0.45280 0.59556 -0.13215
 H1193 H 0.36891 0.63169 -0.20780
 H1194 H 0.41616 0.62746 -0.17178
 C1195 C 0.83144 0.85835 0.66028
 C1196 C 0.79374 0.86550 0.66866
 C1197 C 0.77662 0.84386 0.69162
 C1198 C 0.79652 0.81442 0.70540
 C1199 C 0.83500 0.81041 0.69801
 N1200 N 0.85106 0.83187 0.67584
 C1201 C 0.85149 0.87903 0.63575
 N1202 N 0.88991 0.87982 0.63687
 C1203 C 0.91110 0.89752 0.61530
 C1204 C 0.89369 0.91578 0.59048
 C1205 C 0.85414 0.91462 0.58815
 C1206 C 0.83282 0.89628 0.61086
 H1207 H 0.74742 0.84939 0.69772
 H1208 H 0.85243 0.78997 0.70933
 H1209 H 0.94158 0.89758 0.61781
 H1210 H 0.83978 0.92849 0.56929
 H1211 H 0.77767 0.88747 0.65783
 H1212 H 0.80234 0.89535 0.60869
 C1213 C 0.32458 0.35935 0.15846
 C1214 C 0.29438 0.33738 0.14835
 C1215 C 0.27575 0.31466 0.16927
 C1216 C 0.28632 0.31343 0.20067
 C1217 C 0.31624 0.33666 0.21010
 N1218 N 0.33468 0.35833 0.18899
 C1219 C 0.34777 0.38035 0.13587
 N1220 N 0.38509 0.38608 0.14195
 C1221 C 0.40863 0.40272 0.12122
 C1222 C 0.39493 0.41440 0.09226
 C1223 C 0.35650 0.40936 0.08568
 C1224 C 0.33279 0.39266 0.10746
 H1225 H 0.25521 0.29592 0.15982
 H1226 H 0.32598 0.33655 0.23389
 H1227 H 0.43806 0.40661 0.12735
 H1228 H 0.34468 0.41870 0.06389
 H1229 H 0.28657 0.33568 0.12413
 H1230 H 0.30306 0.38967 0.10205
   
