data_POSCAR
  _audit_creation_date              2014-09-24
  _audit_creation_method            'ToBaCCo'
  _symmetry_space_group_name_H-M    'P1'
  _symmetry_Int_Tables_number       1
  _symmetry_cell_setting            triclinic
  loop_
  _symmetry_equiv_pos_as_xyz
 x,y,z
_cell_length_a 32.1756
_cell_length_b 32.0429
_cell_length_c 29.5320
_cell_angle_alpha 87.364100
_cell_angle_beta 88.195600
_cell_angle_gamma 89.161400
loop_
  _atom_site_label
  _atom_site_type_symbol
  _atom_site_fract_x
  _atom_site_fract_y
  _atom_site_fract_z
C1 C 0.37865 0.01238 0.32109
 C2 C 0.35535 0.04825 0.29692
 C3 C 0.34128 0.04002 0.25518
 C4 C 0.35091 -0.00495 0.24184
 C5 C 0.34777 -0.02404 0.32304
 C6 C 0.33324 -0.03368 0.28193
 C7 C 0.41212 -0.00257 0.28707
 C8 C 0.39905 -0.00917 0.24439
 H9 H 0.35452 0.07945 0.30968
 H10 H 0.33777 -0.01144 0.20871
 H11 H 0.34372 -0.04535 0.35231
 H12 H 0.44223 -0.01292 0.29867
 C13 C 0.12344 -0.02511 0.77657
 C14 C 0.15659 -0.05243 0.75573
 C15 C 0.17600 -0.03591 0.71749
 C16 C 0.15920 0.00778 0.70269
 C17 C 0.14509 0.01638 0.78325
 C18 C 0.16345 0.03360 0.74503
 C19 C 0.09509 -0.01555 0.73980
 C20 C 0.11430 0.00308 0.69896
 H21 H 0.16114 -0.08458 0.76781
 H22 H 0.17564 0.02034 0.67155
 H23 H 0.14076 0.03369 0.81379
 H24 H 0.06170 -0.01779 0.74350
 C25 C 0.60343 0.50520 0.27724
 C26 C 0.63756 0.47225 0.27072
 C27 C 0.65983 0.47450 0.23088
 C28 C 0.64718 0.51262 0.20082
 C29 C 0.62619 0.54673 0.27062
 C30 C 0.65039 0.55042 0.23161
 C31 C 0.57753 0.50433 0.23480
 C32 C 0.59989 0.50848 0.19532
 H33 H 0.64230 0.44708 0.29593
 H34 H 0.66522 0.51429 0.16833
 H35 H 0.62229 0.57175 0.29393
 H36 H 0.54402 0.50389 0.23454
 C37 C 0.88048 0.49793 0.82006
 C38 C 0.85404 0.53210 0.79739
 C39 C 0.83432 0.52132 0.75954
 C40 C 0.84126 0.47476 0.74934
 C41 C 0.84985 0.46161 0.83021
 C42 C 0.82915 0.44939 0.79354
 C43 C 0.90931 0.48128 0.78160
 C44 C 0.88930 0.46892 0.74430
 H45 H 0.85541 0.56421 0.80729
 H46 H 0.82346 0.46486 0.72020
 H47 H 0.85034 0.44222 0.86121
 H48 H 0.94279 0.48143 0.78307
 C49 C 0.29126 0.41137 0.97200
 C50 C 0.29349 0.38856 1.01846
 C51 C 0.26072 0.36351 1.02993
 C52 C 0.22928 0.36111 0.99205
 C53 C 0.28675 0.37628 0.93948
 C54 C 0.25597 0.34915 0.95042
 C55 C 0.24762 0.43305 0.97057
 C56 C 0.21502 0.40722 0.98254
 H57 H 0.31795 0.39422 1.04175
 H58 H 0.20334 0.33921 0.99975
 H59 H 0.30233 0.37633 0.90634
 H60 H 0.24286 0.46561 0.96054
 C61 C 0.79611 0.09011 0.97474
 C62 C 0.77223 0.11856 0.94175
 C63 C 0.73787 0.13747 0.95991
 C64 C 0.73036 0.12557 1.01096
 C65 C 0.80437 0.11640 1.01576
 C66 C 0.77133 0.13709 1.03261
 C67 C 0.76480 0.06035 0.99181
 C68 C 0.72855 0.07888 1.01444
 H69 H 0.78012 0.12081 0.90575
 H70 H 0.70367 0.14328 1.02489
 H71 H 0.83452 0.11816 1.03094
 H72 H 0.76419 0.02965 0.97857
 C73 C 0.28788 0.59409 0.48631
 C74 C 0.26416 0.62461 0.45482
 C75 C 0.22881 0.64217 0.47289
 C76 C 0.21932 0.62592 0.52194
 C77 C 0.29427 0.61715 0.52918
 C78 C 0.25989 0.63473 0.54772
 C79 C 0.25527 0.56118 0.50223
 C80 C 0.21781 0.57719 0.51784
 H81 H 0.27286 0.62883 0.41916
 H82 H 0.19091 0.64047 0.53687
 H83 H 0.32455 0.61998 0.54384
 H84 H 0.26188 0.52805 0.50335
 C85 C 0.78367 0.90613 0.49292
 C86 C 0.78434 0.87587 0.53432
 C87 C 0.75092 0.85058 0.54003
 C88 C 0.72057 0.85543 0.50100
 C89 C 0.77994 0.87715 0.45321
 C90 C 0.74781 0.84995 0.45773
 C91 C 0.74069 0.92847 0.49361
 C92 C 0.70754 0.90243 0.49971
 H93 H 0.80727 0.87802 0.56023
 H94 H 0.69421 0.83340 0.50390
 H95 H 0.79773 0.88112 0.42157
 H96 H 0.73679 0.96187 0.48795
 C97 C -0.00297 0.29817 0.39584
 C98 C 0.03979 0.30134 0.37101
 C99 C 0.04858 0.26947 0.34246
 C100 C 0.01396 0.23603 0.34398
 C101 C -0.03102 0.29491 0.35844
 C102 C -0.02327 0.26020 0.33093
 C103 C -0.00221 0.25565 0.42112
 C104 C 0.00768 0.22291 0.39551
 H105 H 0.06048 0.32729 0.37444
 H106 H 0.02140 0.20956 0.32200
 H107 H -0.05146 0.31991 0.34669
 H108 H -0.00630 0.25231 0.45768
 C109 C 0.00210 0.78741 0.09635
 C110 C -0.04169 0.78081 0.11600
 C111 C -0.04541 0.75116 0.15033
 C112 C -0.00571 0.72432 0.15492
 C113 C 0.03107 0.78783 0.13700
 C114 C 0.02670 0.75576 0.16791
 C115 C 0.01387 0.74579 0.07606
 C116 C 0.00901 0.71143 0.10541
 H117 H -0.06682 0.80219 0.10700
 H118 H -0.01125 0.69987 0.18165
 H119 H 0.05895 0.80650 0.13633
 H120 H 0.02574 0.74464 0.04160
 C121 C 0.48753 0.28507 0.58971
 C122 C 0.44770 0.28431 0.61819
 C123 C 0.44617 0.25611 0.65378
 C124 C 0.48211 0.22441 0.65166
 C125 C 0.52353 0.28253 0.62338
 C126 C 0.52059 0.25120 0.65581
 C127 C 0.48944 0.24222 0.56946
 C128 C 0.48481 0.21018 0.60126
 H129 H 0.42188 0.30489 0.60939
 H130 H 0.47965 0.19887 0.67823
 H131 H 0.55119 0.30134 0.61880
 H132 H 0.49614 0.23712 0.53404
 C133 C 0.50379 0.79072 0.91862
 C134 C 0.54488 0.78690 0.89090
 C135 C 0.54733 0.75384 0.86319
 C136 C 0.50802 0.72670 0.86657
 C137 C 0.47005 0.79090 0.88228
 C138 C 0.47247 0.75812 0.85464
 C139 C 0.49811 0.75069 0.94266
 C140 C 0.50141 0.71534 0.91508
 H141 H 0.56990 0.80893 0.89300
 H142 H 0.50950 0.69928 0.84486
 H143 H 0.44321 0.81147 0.88105
 H144 H 0.49459 0.74754 0.97925
 C145 C -0.22428 0.61690 0.95326
 C146 C -0.19294 0.59449 0.98317
 C147 C -0.20782 0.58111 1.02480
 C148 C -0.25480 0.59021 1.03187
 C149 C -0.25982 0.58531 0.95046
 C150 C -0.27545 0.57124 0.99165
 C151 C -0.24414 0.65143 0.98126
 C152 C -0.26026 0.63811 1.02221
 H153 H -0.16055 0.59110 0.97258
 H154 H -0.26799 0.57813 1.06504
 H155 H -0.27590 0.57966 0.91974
 H156 H -0.24211 0.68423 0.97107
 C157 C -0.25890 0.36166 0.45934
 C158 C -0.29632 0.38583 0.47707
 C159 C -0.29126 0.40449 0.51681
 C160 C -0.24776 0.39612 0.53621
 C161 C -0.22173 0.39157 0.45927
 C162 C -0.21707 0.41083 0.49848
 C163 C -0.25009 0.33146 0.49646
 C164 C -0.24170 0.34999 0.53914
 H165 H -0.32615 0.38396 0.46165
 H166 H -0.24312 0.41404 0.56655
 H167 H -0.19875 0.39415 0.43177
 H168 H -0.25364 0.29831 0.49354
 C169 C 0.25440 -0.12520 -0.04400
 C170 C 0.21630 -0.10065 -0.02765
 C171 C 0.21945 -0.08336 0.01333
 C172 C 0.26243 -0.09052 0.03350
 C173 C 0.28997 -0.09350 -0.04386
 C174 C 0.29397 -0.07523 -0.00351
 C175 C 0.26448 -0.15483 -0.00633
 C176 C 0.26884 -0.13612 0.03691
 H177 H 0.18724 -0.10079 -0.04525
 H178 H 0.26649 -0.07357 0.06492
 H179 H 0.31532 -0.09251 -0.06885
 H180 H 0.26568 -0.18823 -0.01021
 C181 C 0.27422 1.12267 0.45133
 C182 C 0.30354 1.09571 0.48026
 C183 C 0.28740 1.08226 0.52167
 C184 C 0.24274 1.09729 0.53042
 C185 C 0.23567 1.09509 0.44836
 C186 C 0.21961 1.08118 0.48952
 C187 C 0.25796 1.15785 0.48075
 C188 C 0.24404 1.14602 0.52309
 H189 H 0.33545 1.08951 0.46951
 H190 H 0.22998 1.08555 0.56385
 H191 H 0.21997 1.08961 0.41739
 H192 H 0.25407 1.18941 0.46677
 C193 C 0.15254 0.53391 0.25318
 C194 C 0.12197 0.51656 0.22087
 C195 C 0.10276 0.48044 0.23512
 C196 C 0.11435 0.46610 0.28410
 C197 C 0.12841 0.53835 0.29774
 C198 C 0.10715 0.50481 0.31348
 C199 C 0.18247 0.49675 0.26418
 C200 C 0.16257 0.46112 0.28102
 H201 H 0.12042 0.52908 0.18619
 H202 H 0.09775 0.43776 0.29743
 H203 H 0.12853 0.56673 0.31643
 H204 H 0.21548 0.49718 0.25612
 C205 C -0.14981 1.04621 0.25033
 C206 C -0.11728 1.03055 0.28342
 C207 C -0.09550 0.99565 0.27202
 C208 C -0.10794 0.98063 0.22535
 C209 C -0.12743 1.05179 0.20463
 C210 C -0.10393 1.01931 0.19286
 C211 C -0.17611 1.01010 0.24452
 C212 C -0.15288 0.97301 0.23121
 H213 H -0.11629 1.04305 0.31688
 H214 H -0.08900 0.95571 0.20984
 H215 H -0.12976 1.07992 0.18282
 H216 H -0.20881 1.00941 0.25412
 C217 C 0.33869 0.54246 -0.24680
 C218 C 0.37224 0.52913 -0.21370
 C219 C 0.39708 0.49735 -0.22648
 C220 C 0.38478 0.47951 -0.27226
 C221 C 0.36049 0.54830 -0.29374
 C222 C 0.38644 0.51734 -0.30614
 C223 C 0.31351 0.50270 -0.25239
 C224 C 0.33721 0.46860 -0.26461
 H225 H 0.37735 0.54546 -0.18301
 H226 H 0.40494 0.45451 -0.28604
 H227 H 0.35618 0.57619 -0.31542
 H228 H 0.28011 0.50127 -0.24787
 C229 C 0.64696 0.01820 -0.24423
 C230 C 0.61641 -0.00023 -0.27572
 C231 C 0.59668 -0.03578 -0.25996
 C232 C 0.60947 -0.04944 -0.21093
 C233 C 0.62259 0.02358 -0.20033
 C234 C 0.60289 -0.01016 -0.18233
 C235 C 0.67714 -0.01903 -0.23277
 C236 C 0.65773 -0.05469 -0.21502
 H237 H 0.61455 0.01160 -0.31060
 H238 H 0.59303 -0.07746 -0.19649
 H239 H 0.62288 0.05261 -0.18272
 H240 H 0.70985 -0.01904 -0.24229
 C241 C 0.01753 0.26870 0.83833
 C242 C 0.00517 0.31022 0.85844
 C243 C -0.02660 0.30664 0.89132
 C244 C -0.04662 0.26179 0.89365
 C245 C 0.02399 0.24017 0.88152
 C246 C -0.01008 0.23260 0.90799
 C247 C -0.01956 0.25693 0.81728
 C248 C -0.05506 0.25215 0.84611
 H249 H 0.02511 0.33714 0.85433
 H250 H -0.07324 0.25812 0.91808
 H251 H 0.05317 0.22425 0.88869
 H252 H -0.02201 0.26037 0.78074
 C253 C 0.55784 0.26950 0.13184
 C254 C 0.55405 0.22613 0.11337
 C255 C 0.51882 0.21976 0.09045
 C256 C 0.49010 0.25864 0.08691
 C257 C 0.55343 0.29905 0.08918
 C258 C 0.51854 0.29294 0.06528
 C259 C 0.51758 0.27724 0.15893
 C260 C 0.48197 0.27163 0.13664
 H261 H 0.57684 0.20150 0.11987
 H262 H 0.46154 0.25385 0.06777
 H263 H 0.57315 0.32527 0.08015
 H264 H 0.51770 0.28341 0.19464
 C265 C 0.05381 0.76455 0.64591
 C266 C 0.06111 0.72443 0.62083
 C267 C 0.02991 0.71358 0.59456
 C268 C -0.00637 0.74558 0.59370
 C269 C 0.04567 0.79768 0.60739
 C270 C 0.01394 0.78789 0.57991
 C271 C 0.01110 0.76222 0.66987
 C272 C -0.02044 0.74959 0.64445
 H273 H 0.08717 0.70344 0.62767
 H274 H -0.03104 0.73788 0.57019
 H275 H 0.05946 0.82836 0.60561
 H276 H 0.00633 0.77261 0.70395
 C277 C 0.53349 0.77034 0.32304
 C278 C 0.52539 0.80637 0.35500
 C279 C 0.49551 0.79880 0.38950
 C280 C 0.47463 0.75571 0.38486
 C281 C 0.54216 0.73352 0.35707
 C282 C 0.51107 0.72464 0.38769
 C283 C 0.49148 0.76242 0.30367
 C284 C 0.46059 0.75543 0.33476
 H285 H 0.54389 0.83419 0.35165
 H286 H 0.45045 0.74592 0.41019
 H287 H 0.57006 0.71420 0.35589
 H288 H 0.48573 0.76636 0.26772
 B289 B -0.01065 0.03448 1.02494
 B290 B -0.03049 0.02764 0.97396
 B291 B 0.01263 0.05685 0.97650
 B292 B 0.04205 0.03519 1.01904
 B293 B 0.01685 -0.00791 1.04023
 B294 B -0.02780 -0.01302 1.01193
 B295 B 0.03841 -0.01971 0.95160
 B296 B 0.05665 -0.01367 1.00319
 B297 B 0.01347 -0.04243 0.99879
 B298 B -0.01520 -0.02050 0.95687
 B299 B 0.00951 0.02208 0.93610
 B300 B 0.05431 0.02764 0.96423
 B301 B 0.48469 0.53481 0.52671
 B302 B 0.46142 0.52946 0.47680
 B303 B 0.50840 0.55395 0.47636
 B304 B 0.53703 0.52976 0.51761
 B305 B 0.50890 0.48953 0.54073
 B306 B 0.46206 0.48928 0.51562
 B307 B 0.52344 0.47449 0.45137
 B308 B 0.54618 0.47966 0.50205
 B309 B 0.49942 0.45545 0.50023
 B310 B 0.47063 0.47992 0.46021
 B311 B 0.49836 0.51956 0.43731
 B312 B 0.54588 0.51966 0.46284
 B313 B 0.51017 0.95777 0.57237
 B314 B 0.53217 0.96692 0.52097
 B315 B 0.48995 0.93656 0.52340
 B316 B 0.45711 0.95526 0.56494
 B317 B 0.47921 0.99771 0.58478
 B318 B 0.52541 1.00586 0.55748
 B319 B 0.46497 1.01424 0.49479
 B320 B 0.44207 1.00452 0.54562
 B321 B 0.48422 1.03421 0.54368
 B322 B 0.51741 1.01601 0.50198
 B323 B 0.49535 0.97345 0.48142
 B324 B 0.44868 0.96568 0.50906
 B325 B 0.01908 0.46339 1.06624
 B326 B 0.03865 0.46878 1.01286
 B327 B -0.00475 0.43960 1.02126
 B328 B -0.03443 0.46190 1.06245
 B329 B -0.01036 0.50471 1.07744
 B330 B 0.03468 0.51031 1.04680
 B331 B -0.02859 0.51667 0.98781
 B332 B -0.04940 0.51007 1.04059
 B333 B -0.00662 0.53921 1.03373
 B334 B 0.02407 0.51733 0.99173
 B335 B -0.00017 0.47360 0.97594
 B336 B -0.04563 0.46950 1.00667
 B337 B 0.01976 0.52212 0.48211
 B338 B 0.04702 0.50266 0.52740
 B339 B 0.00973 0.54008 0.53505
 B340 B -0.02969 0.53163 0.49988
 B341 B -0.01756 0.48802 0.47190
 B342 B 0.02987 0.47061 0.48828
 B343 B -0.02402 0.46613 0.56276
 B344 B -0.05043 0.48492 0.51730
 B345 B -0.01382 0.44772 0.50917
 B346 B 0.02609 0.45598 0.54448
 B347 B 0.01427 0.49919 0.57249
 B348 B -0.03355 0.51765 0.55533
 B349 B 0.52988 0.02010 -0.00923
 B350 B 0.56047 0.00646 0.03556
 B351 B 0.52099 0.04227 0.04192
 B352 B 0.48069 0.02794 0.01105
 B353 B 0.49415 -0.01708 -0.01284
 B354 B 0.54369 -0.03024 0.00135
 B355 B 0.49396 -0.03269 0.07864
 B356 B 0.46379 -0.01831 0.03428
 B357 B 0.50294 -0.05450 0.02754
 B358 B 0.54359 -0.04006 0.05833
 B359 B 0.52963 0.00486 0.08244
 B360 B 0.48029 0.01798 0.06833
 B361 B 0.50155 0.48221 -0.07963
 B362 B 0.46173 0.48278 -0.04014
 B363 B 0.49987 0.44530 -0.03611
 B364 B 0.54554 0.46782 -0.05380
 B365 B 0.53553 0.51871 -0.06678
 B366 B 0.48347 0.52759 -0.05920
 B367 B 0.51618 0.50416 0.02319
 B368 B 0.55517 0.50461 -0.01640
 B369 B 0.51665 0.54178 -0.01999
 B370 B 0.47172 0.51916 -0.00269
 B371 B 0.48149 0.46883 0.01026
 B372 B 0.53359 0.45940 0.00206
 B373 B -0.02033 0.98238 0.44436
 B374 B -0.04863 0.98994 0.49199
 B375 B -0.01164 0.95211 0.49306
 B376 B 0.02929 0.96886 0.45933
 B377 B 0.01788 1.01735 0.43918
 B378 B -0.03024 1.03104 0.45921
 B379 B 0.01920 1.01900 0.53244
 B380 B 0.04894 1.01055 0.48528
 B381 B 0.01237 1.04901 0.48226
 B382 B -0.02919 1.03261 0.51627
 B383 B -0.01821 0.98351 0.53616
 B384 B 0.03047 0.97009 0.51674
 B385 B 0.78952 0.24083 0.19349
 B386 B 0.78261 0.21868 0.24507
 B387 B 0.81686 0.25695 0.24068
 B388 B 0.79881 0.29274 0.20001
 B389 B 0.75186 0.27584 0.18395
 B390 B 0.74124 0.22995 0.21292
 B391 B 0.74607 0.29061 0.27466
 B392 B 0.75334 0.31293 0.22227
 B393 B 0.71904 0.27353 0.22964
 B394 B 0.73784 0.23813 0.26881
 B395 B 0.78380 0.25590 0.28450
 B396 B 0.79435 0.30169 0.25600
 B397 B 0.73487 0.76330 0.71773
 B398 B 0.74477 0.77834 0.77015
 B399 B 0.71313 0.73772 0.76545
 B400 B 0.73012 0.70925 0.72132
 B401 B 0.77302 0.73243 0.69903
 B402 B 0.78319 0.77506 0.72890
 B403 B 0.78991 0.70664 0.78535
 B404 B 0.77812 0.68974 0.73497
 B405 B 0.80989 0.73078 0.73614
 B406 B 0.79360 0.75941 0.78195
 B407 B 0.75039 0.73609 0.80515
 B408 B 0.74025 0.69341 0.77562
 B409 B 0.24793 0.26942 0.77589
 B410 B 0.24762 0.30306 0.73139
 B411 B 0.27775 0.26078 0.72669
 B412 B 0.25419 0.22050 0.75559
 B413 B 0.20833 0.23850 0.77520
 B414 B 0.20284 0.28953 0.75874
 B415 B 0.20734 0.24507 0.68218
 B416 B 0.21010 0.21116 0.72757
 B417 B 0.17854 0.25316 0.73241
 B418 B 0.20270 0.29442 0.70227
 B419 B 0.24935 0.27629 0.68305
 B420 B 0.25365 0.22480 0.69790
 B421 B 0.21442 0.72890 0.30311
 B422 B 0.22054 0.70519 0.25359
 B423 B 0.18917 0.74749 0.25518
 B424 B 0.20993 0.78210 0.28996
 B425 B 0.25428 0.76062 0.30887
 B426 B 0.26184 0.71306 0.28678
 B427 B 0.26284 0.77212 0.21631
 B428 B 0.25646 0.79708 0.26434
 B429 B 0.28755 0.75514 0.26604
 B430 B 0.26766 0.72002 0.23000
 B431 B 0.22260 0.74117 0.21039
 B432 B 0.21484 0.78859 0.23282
 B433 B 0.28929 0.73379 0.70739
 B434 B 0.28086 0.71730 0.76226
 B435 B 0.31686 0.75489 0.75037
 B436 B 0.29848 0.78615 0.70694
 B437 B 0.25180 0.76794 0.69357
 B438 B 0.24083 0.72519 0.72811
 B439 B 0.24531 0.79262 0.78085
 B440 B 0.25436 0.80928 0.72673
 B441 B 0.21846 0.77055 0.73851
 B442 B 0.23727 0.74056 0.78214
 B443 B 0.28376 0.75869 0.79576
 B444 B 0.29471 0.80121 0.76136
 B445 B 0.24759 0.28218 0.21212
 B446 B 0.25171 0.29632 0.26620
 B447 B 0.22062 0.25636 0.25629
 B448 B 0.24273 0.22864 0.21356
 B449 B 0.28814 0.25176 0.19785
 B450 B 0.29407 0.29393 0.23046
 B451 B 0.29389 0.22340 0.28566
 B452 B 0.28877 0.20875 0.23305
 B453 B 0.32012 0.24971 0.24131
 B454 B 0.29785 0.27641 0.28486
 B455 B 0.25282 0.25286 0.30072
 B456 B 0.24610 0.21150 0.26822
 B457 B 0.74759 0.78388 0.27500
 B458 B 0.75746 0.81270 0.22795
 B459 B 0.78674 0.76985 0.23463
 B460 B 0.75582 0.73301 0.26304
 B461 B 0.70681 0.75330 0.26852
 B462 B 0.70795 0.80290 0.24573
 B463 B 0.72673 0.75032 0.17774
 B464 B 0.71792 0.72176 0.22601
 B465 B 0.68849 0.76524 0.21661
 B466 B 0.71989 0.80214 0.18975
 B467 B 0.76755 0.78081 0.18388
 B468 B 0.76707 0.73169 0.20742
 B469 B 0.70137 0.22147 0.79702
 B470 B 0.71181 0.19332 0.75075
 B471 B 0.68313 0.23707 0.74390
 B472 B 0.70140 0.27298 0.77991
 B473 B 0.74289 0.25045 0.80572
 B474 B 0.74942 0.20102 0.78784
 B475 B 0.76077 0.25662 0.71408
 B476 B 0.75132 0.28388 0.76116
 B477 B 0.77974 0.23960 0.76600
 B478 B 0.76076 0.20446 0.73126
 B479 B 0.72011 0.22756 0.70552
 B480 B 0.71300 0.27666 0.72403
 C481 C 0.39625 1.01683 0.44805
 C482 C 0.37686 1.01369 0.40707
 C483 C 0.39710 1.02544 0.36617
 C484 C 0.43424 1.04928 0.36894
 C485 C 0.45467 1.05175 0.41115
 C486 C 0.43752 1.03152 0.45104
 C487 C 0.49106 1.07535 0.41191
 N488 N 0.50605 1.09519 0.37345
 N489 N 0.48693 1.09326 0.33431
 C490 C 0.45157 1.07131 0.33097
 H491 H 0.37966 1.00249 0.47663
 H492 H 0.34638 0.99987 0.40779
 H493 H 0.50666 1.07997 0.44296
 H494 H 0.43672 1.07217 0.29894
 C495 C -0.09831 0.51978 0.94365
 C496 C -0.11801 0.51067 0.90413
 C497 C -0.09759 0.51465 0.86166
 C498 C -0.05967 0.53767 0.85974
 C499 C -0.03855 0.54537 0.90062
 C500 C -0.05622 0.53219 0.94362
 C501 C -0.00114 0.56745 0.89692
 N502 N 0.01384 0.58164 0.85577
 N503 N -0.00625 0.57558 0.81799
 C504 C -0.04253 0.55457 0.81867
 H505 H -0.11536 0.51138 0.97444
 H506 H -0.14928 0.49869 0.90751
 H507 H 0.01530 0.57554 0.92636
 H508 H -0.05816 0.55261 0.78723
 C509 C 0.04467 -0.05031 0.87197
 C510 C 0.06337 -0.05244 0.82884
 C511 C 0.10587 -0.04431 0.82179
 C512 C 0.13055 -0.04384 0.86047
 C513 C 0.11152 -0.03169 0.90169
 C514 C 0.06681 -0.03645 0.90878
 C515 C 0.13856 -0.01165 0.93051
 N516 N 0.18040 -0.01400 0.92442
 N517 N 0.19788 -0.03313 0.88972
 C518 C 0.17435 -0.04799 0.85729
 H519 H 0.01137 -0.05429 0.87459
 H520 H 0.04362 -0.05808 0.80094
 H521 H 0.12835 0.00851 0.95594
 H522 H 0.19047 -0.06184 0.82926
 C523 C 0.52278 0.46010 0.36578
 C524 C 0.54003 0.47828 0.32539
 C525 C 0.58090 0.49477 0.32311
 C526 C 0.60465 0.48899 0.36260
 C527 C 0.58933 0.46236 0.39841
 C528 C 0.54598 0.45606 0.40542
 C529 C 0.61842 0.44259 0.42566
 N530 N 0.65740 0.45762 0.42684
 N531 N 0.66992 0.48905 0.39909
 C532 C 0.64516 0.50474 0.36617
 H533 H 0.48976 0.45397 0.36720
 H534 H 0.52005 0.48001 0.29685
 H535 H 0.61069 0.41454 0.44432
 H536 H 0.65820 0.52822 0.34313
 C537 C 0.54044 0.54369 0.09239
 C538 C 0.56403 0.54418 0.13112
 C539 C 0.57842 0.50691 0.15220
 C540 C 0.56251 0.46876 0.13921
 C541 C 0.53266 0.46872 0.10515
 C542 C 0.52639 0.50598 0.07663
 C543 C 0.51005 0.43138 0.10229
 N544 N 0.52176 0.39595 0.12556
 N545 N 0.55340 0.39530 0.15342
 C546 C 0.57389 0.43062 0.16136
 H547 H 0.53430 0.57305 0.07433
 H548 H 0.57102 0.57391 0.14458
 H549 H 0.48180 0.42990 0.08427
 H550 H 0.59825 0.42881 0.18556
 C551 C 0.03544 0.98785 0.61430
 C552 C 0.06063 0.98291 0.65100
 C553 C 0.09062 1.01227 0.65967
 C554 C 0.09082 1.05033 0.63182
 C555 C 0.06004 1.05723 0.59819
 C556 C 0.03717 1.02350 0.58378
 C557 C 0.05154 1.09813 0.58223
 N558 N 0.07709 1.12926 0.59243
 N559 N 0.10973 1.12178 0.61827
 C560 C 0.11781 1.08340 0.63762
 H561 H 0.01626 0.96119 0.60917
 H562 H 0.05832 0.95375 0.67103
 H563 H 0.02559 1.10518 0.56068
 H564 H 0.14484 1.07975 0.65751
 C565 C -0.08938 0.47006 0.61871
 C566 C -0.10845 0.47221 0.66097
 C567 C -0.08914 0.45748 0.70007
 C568 C -0.05051 0.43509 0.69434
 C569 C -0.03151 0.43120 0.64971
 C570 C -0.04972 0.45123 0.61080
 C571 C 0.00523 0.40729 0.64585
 N572 N 0.02258 0.38944 0.68332
 N573 N 0.00556 0.39359 0.72453
 C574 C -0.03022 0.41559 0.73126
 H575 H -0.10514 0.48863 0.59324
 H576 H -0.13722 0.49005 0.66279
 H577 H 0.01961 0.40118 0.61338
 H578 H -0.04275 0.41634 0.76539
 C579 C 0.43406 -0.06002 0.13479
 C580 C 0.41035 -0.04748 0.17239
 C581 C 0.42754 -0.02400 0.20614
 C582 C 0.47167 -0.01840 0.20331
 C583 C 0.49576 -0.03747 0.16846
 C584 C 0.47631 -0.05040 0.12893
 C585 C 0.53909 -0.04017 0.17271
 N586 N 0.55761 -0.01914 0.20514
 N587 N 0.53550 0.00450 0.23317
 C588 C 0.49338 0.00650 0.23244
 H589 H 0.41836 -0.07656 0.11014
 H590 H 0.37799 -0.05606 0.17417
 H591 H 0.55829 -0.05794 0.14965
 H592 H 0.47784 0.02873 0.25338
 C593 C 0.40408 0.43288 -0.06254
 C594 C 0.36530 0.41553 -0.05730
 C595 C 0.33123 0.43683 -0.03778
 C596 C 0.33851 0.47785 -0.02316
 C597 C 0.37793 0.49715 -0.03283
 C598 C 0.41275 0.47265 -0.04843
 C599 C 0.38067 0.54017 -0.02572
 N600 N 0.34922 0.56044 -0.00403
 N601 N 0.31496 0.54076 0.01072
 C602 C 0.30876 0.50015 0.00238
 H603 H 0.42797 0.41200 -0.07351
 H604 H 0.36376 0.38303 -0.06532
 H605 H 0.40686 0.55835 -0.03804
 H606 H 0.28116 0.48582 0.01698
 C607 C -0.10318 0.93463 0.47342
 C608 C -0.14131 0.91605 0.47221
 C609 C -0.17693 0.93322 0.49259
 C610 C -0.17166 0.96996 0.51801
 C611 C -0.13238 0.99098 0.51660
 C612 C -0.09685 0.97265 0.49454
 C613 C -0.13047 1.02934 0.53784
 N614 N -0.16350 1.04372 0.56220
 N615 N -0.19861 1.02251 0.56682
 C616 C -0.20363 0.98626 0.54602
 H617 H -0.07833 0.91845 0.45586
 H618 H -0.14188 0.88643 0.45618
 H619 H -0.10377 1.04878 0.53527
 H620 H -0.23242 0.97083 0.55276
 C621 C -0.10826 0.02014 0.95070
 C622 C -0.15039 0.03292 0.95077
 C623 C -0.16148 0.07532 0.95431
 C624 C -0.12854 0.10432 0.95185
 C625 C -0.08964 0.09050 0.96789
 C626 C -0.07659 0.04785 0.96193
 C627 C -0.06958 0.11914 0.99445
 N628 N -0.08159 0.15991 0.99402
 N629 N -0.11284 0.17421 0.96914
 C630 C -0.13621 0.14772 0.94677
 H631 H -0.10136 -0.01275 0.94729
 H632 H -0.17391 0.00929 0.94976
 H633 H -0.04470 0.11046 1.01580
 H634 H -0.16256 0.16045 0.92896
 C635 C 0.38231 0.52449 0.45762
 C636 C 0.34071 0.53827 0.45982
 C637 C 0.33054 0.58050 0.46555
 C638 C 0.36374 0.60943 0.46156
 C639 C 0.40490 0.59481 0.46917
 C640 C 0.41562 0.55137 0.46557
 C641 C 0.43110 0.62355 0.48766
 N642 N 0.42195 0.66498 0.48592
 N643 N 0.38643 0.67952 0.46936
 C644 C 0.35667 0.65309 0.45759
 H645 H 0.38766 0.49135 0.45431
 H646 H 0.31669 0.51517 0.45885
 H647 H 0.45618 0.61311 0.50788
 H648 H 0.32771 0.66671 0.44687
 C649 C 0.10814 0.54605 0.56012
 C650 C 0.14748 0.56456 0.55602
 C651 C 0.17814 0.55137 0.52463
 C652 C 0.16890 0.51481 0.50032
 C653 C 0.13061 0.49297 0.50948
 C654 C 0.09721 0.51226 0.53419
 C655 C 0.12657 0.45347 0.49132
 N656 N 0.15517 0.43965 0.46075
 N657 N 0.18747 0.46280 0.44693
 C658 C 0.19483 0.50004 0.46489
 H659 H 0.08596 0.55911 0.58373
 H660 H 0.15329 0.59055 0.57696
 H661 H 0.10157 0.43290 0.50178
 H662 H 0.21972 0.51806 0.44933
 C663 C 0.61910 0.05902 0.05569
 C664 C 0.65833 0.07692 0.05140
 C665 C 0.69275 0.05554 0.03278
 C666 C 0.68752 0.01123 0.03084
 C667 C 0.64642 -0.00632 0.03053
 C668 C 0.61037 0.01928 0.04000
 C669 C 0.64386 -0.04931 0.02296
 N670 N 0.67872 -0.07348 0.02120
 N671 N 0.71616 -0.05794 0.02693
 C672 C 0.72156 -0.01674 0.03265
 H673 H 0.59545 0.07874 0.06913
 H674 H 0.66039 0.10839 0.06239
 H675 H 0.61500 -0.06495 0.02007
 H676 H 0.75215 -0.00669 0.04101
 C677 C 0.60691 0.96611 0.48310
 C678 C 0.64834 0.95217 0.47872
 C679 C 0.66298 0.91768 0.50496
 C680 C 0.63415 0.89644 0.53461
 C681 C 0.59118 0.90571 0.53416
 C682 C 0.57771 0.94462 0.51182
 C683 C 0.56509 0.87707 0.56001
 N684 N 0.58133 0.84734 0.58846
 N685 N 0.62186 0.84451 0.59421
 C686 C 0.64796 0.86927 0.56907
 H687 H 0.59785 0.99438 0.46423
 H688 H 0.66922 0.96902 0.45522
 H689 H 0.53224 0.87848 0.56185
 H690 H 0.67846 0.87171 0.57887
 C691 C 0.11019 0.46513 0.96633
 C692 C 0.15198 0.45212 0.95985
 C693 C 0.17024 0.42200 0.98944
 C694 C 0.14457 0.40454 1.02505
 C695 C 0.10116 0.41149 1.02683
 C696 C 0.08391 0.44630 1.00049
 C697 C 0.07800 0.38462 1.05760
 N698 N 0.09739 0.36043 1.08947
 N699 N 0.13828 0.36165 1.09326
 C700 C 0.16179 0.38416 1.06268
 H701 H 0.09856 0.49056 0.94466
 H702 H 0.17038 0.46655 0.93224
 H703 H 0.04493 0.38362 1.05917
 H704 H 0.19269 0.39064 1.06986
 C705 C 0.01239 0.37341 0.49066
 C706 C 0.01750 0.34030 0.46179
 C707 C -0.01271 0.33177 0.43035
 C708 C -0.05054 0.35462 0.43324
 C709 C -0.05052 0.39453 0.45166
 C710 C -0.01988 0.40337 0.48474
 C711 C -0.08059 0.42279 0.43369
 N712 N -0.11431 0.40837 0.41313
 N713 N -0.11900 0.36785 0.40723
 C714 C -0.08823 0.34014 0.41744
 H715 H 0.03665 0.37767 0.51453
 H716 H 0.04551 0.32122 0.46387
 H717 H -0.07843 0.45590 0.43492
 H718 H -0.09290 0.30746 0.41181
 C719 C 0.47544 -0.10374 -0.03212
 C720 C 0.47838 -0.13725 -0.05974
 C721 C 0.50356 -0.17211 -0.04945
 C722 C 0.52750 -0.17109 -0.00925
 C723 C 0.52263 -0.13713 0.02064
 C724 C 0.49810 -0.10143 0.00792
 C725 C 0.54259 -0.14043 0.06234
 N726 N 0.56868 -0.17301 0.07176
 N727 N 0.57609 -0.20264 0.04235
 C728 C 0.55683 -0.20262 0.00220
 H729 H 0.45565 -0.07833 -0.04424
 H730 H 0.46168 -0.13377 -0.09070
 H731 H 0.53678 -0.11829 0.08825
 H732 H 0.56501 -0.22727 -0.02024
 C733 C 0.02016 -0.09785 1.06496
 C734 C 0.01660 -0.13588 1.08772
 C735 C 0.00385 -0.17163 1.06670
 C736 C -0.01152 -0.16583 1.02203
 C737 C -0.00798 -0.12594 0.99786
 C738 C 0.00840 -0.09084 1.01965
 C739 C -0.02079 -0.12326 0.95274
 N740 N -0.03839 -0.15639 0.93428
 N741 N -0.04415 -0.19235 0.95774
 C742 C -0.03159 -0.19810 1.00092
 H743 H 0.03310 -0.07393 1.08464
 H744 H 0.02356 -0.13611 1.12327
 H745 H -0.01686 -0.09566 0.93150
 H746 H -0.03848 -0.22757 1.01837
 C747 C 0.49418 0.40073 0.56670
 C748 C 0.49403 0.36128 0.58625
 C749 C 0.48685 0.32615 0.56135
 C750 C 0.47245 0.33317 0.51643
 C751 C 0.47617 0.37382 0.49448
 C752 C 0.48896 0.40830 0.51983
 C753 C 0.46681 0.37793 0.44826
 N754 N 0.45052 0.34553 0.42721
 N755 N 0.44285 0.30917 0.44916
 C756 C 0.45273 0.30210 0.49311
 H757 H 0.50095 0.42475 0.58970
 H758 H 0.49953 0.35848 0.62229
 H759 H 0.47165 0.40627 0.42839
 H760 H 0.44295 0.27311 0.50955
 C761 C 0.51198 1.10977 0.54349
 C762 C 0.51176 1.15137 0.55535
 C763 C 0.48358 1.16587 0.58840
 C764 C 0.45639 1.13743 0.61108
 C765 C 0.46094 1.09394 0.60502
 C766 C 0.48595 1.08018 0.56619
 C767 C 0.43756 1.06785 0.63660
 N768 N 0.40794 1.08413 0.66449
 N769 N 0.39968 1.12477 0.66396
 C770 C 0.42260 1.15177 0.63765
 H771 H 0.53270 1.10092 0.51589
 H772 H 0.53356 1.17251 0.53801
 H773 H 0.44107 1.03496 0.64109
 H774 H 0.41312 1.18409 0.63604
 C775 C 0.01500 0.61867 1.02664
 C776 C 0.02012 0.65890 1.04269
 C777 C 0.01465 0.66706 1.08934
 C778 C 0.00762 0.63203 1.11884
 C779 C -0.00973 0.59577 1.10204
 C780 C -0.00230 0.58632 1.05470
 C781 C -0.03354 0.57173 1.13460
 N782 N -0.02791 0.57561 1.17955
 N783 N -0.00176 0.60339 1.19420
 C784 C 0.01685 0.63150 1.16489
 H785 H 0.02193 0.61374 0.99122
 H786 H 0.02843 0.68317 1.01771
 H787 H -0.05673 0.55016 1.12547
 H788 H 0.03810 0.65365 1.17763
 C789 C 0.54658 0.61053 -0.05692
 C790 C 0.53890 0.64944 -0.07830
 C791 C 0.50503 0.67438 -0.06500
 C792 C 0.47876 0.65931 -0.02819
 C793 C 0.48699 0.61967 -0.00585
 C794 C 0.51940 0.59301 -0.02280
 C795 C 0.46160 0.60801 0.03228
 N796 N 0.42845 0.63200 0.04439
 N797 N 0.41873 0.66708 0.02109
 C798 C 0.44239 0.68128 -0.01492
 H799 H 0.57276 0.59271 -0.07004
 H800 H 0.56052 0.66047 -0.10494
 H801 H 0.46776 0.58033 0.05309
 H802 H 0.43201 0.70926 -0.03326
 C803 C -0.01113 1.12721 0.47477
 C804 C -0.01490 1.16642 0.45240
 C805 C 0.01359 1.18009 0.41804
 C806 C 0.04762 1.15356 0.40770
 C807 C 0.04904 1.11142 0.42578
 C808 C 0.01944 1.09777 0.46185
 C809 C 0.08031 1.08557 0.40594
 N810 N 0.11015 1.10173 0.37723
 N811 N 0.11114 1.14211 0.36550
 C812 C 0.08104 1.16841 0.38006
 H813 H -0.03449 1.11901 0.50072
 H814 H -0.04096 1.18626 0.46195
 H815 H 0.08296 1.05280 0.41219
 H816 H 0.08422 1.20080 0.37096
 C817 C 0.79553 0.63435 0.82852
 C818 C 0.79014 0.61339 0.86986
 C819 C 0.79646 0.63390 0.90937
 C820 C 0.82131 0.67059 0.90604
 C821 C 0.82858 0.69128 0.86299
 C822 C 0.80972 0.67596 0.82456
 C823 C 0.85410 0.72652 0.86015
 N824 N 0.87033 0.74082 0.89820
 N825 N 0.86282 0.72210 0.93876
 C826 C 0.83897 0.68756 0.94393
 H827 H 0.78158 0.61910 0.80164
 H828 H 0.77685 0.58257 0.87044
 H829 H 0.86263 0.74176 0.82791
 H830 H 0.83462 0.67341 0.97745
 C831 C 0.29065 0.14918 0.32652
 C832 C 0.28494 0.12514 0.36617
 C833 C 0.29539 0.14066 0.40737
 C834 C 0.32213 0.17611 0.40599
 C835 C 0.32744 0.20131 0.36520
 C836 C 0.30771 0.18980 0.32578
 C837 C 0.35154 0.23756 0.36385
 N838 N 0.37050 0.24675 0.40383
 N839 N 0.36644 0.22205 0.44287
 C840 C 0.34291 0.18743 0.44426
 H841 H 0.27605 0.13713 0.29781
 H842 H 0.26908 0.09579 0.36443
 H843 H 0.37033 0.25663 0.38334
 H844 H 0.34057 0.16881 0.47522
 C845 C 0.72035 0.29144 0.35931
 C846 C 0.72159 0.30570 0.40345
 C847 C 0.73304 0.34681 0.41127
 C848 C 0.73795 0.37474 0.37273
 C849 C 0.74586 0.35871 0.32926
 C850 C 0.73482 0.31593 0.32114
 C851 C 0.76683 0.38649 0.29781
 N852 N 0.76866 0.42787 0.30473
 N853 N 0.75364 0.44367 0.34262
 C854 C 0.73866 0.41845 0.37692
 H855 H 0.71171 0.25926 0.35586
 H856 H 0.71356 0.28407 0.43138
 H857 H 0.78340 0.37703 0.26839
 H858 H 0.72962 0.43280 0.40790
 C859 C 0.25504 0.85930 0.82692
 C860 C 0.26178 0.87510 0.86929
 C861 C 0.24533 0.85585 0.90974
 C862 C 0.21528 0.82393 0.90469
 C863 C 0.20764 0.80906 0.86084
 C864 C 0.23159 0.82306 0.82220
 C865 C 0.17440 0.78222 0.85643
 N866 N 0.15218 0.76783 0.89342
 N867 N 0.16075 0.77939 0.93473
 C868 C 0.19120 0.80700 0.94157
 H869 H 0.27137 0.87404 0.79803
 H870 H 0.28057 0.90268 0.86954
 H871 H 0.16446 0.77522 0.82347
 H872 H 0.19519 0.81596 0.97569
 C873 C 0.25816 0.83800 0.16036
 C874 C 0.25684 0.85838 0.11826
 C875 C 0.27497 0.84143 0.07940
 C876 C 0.29801 0.80306 0.08573
 C877 C 0.29770 0.78086 0.12938
 C878 C 0.27550 0.79748 0.16734
 C879 C 0.32159 0.74390 0.13376
 N880 N 0.34460 0.73034 0.09802
 N881 N 0.34605 0.75152 0.05822
 C882 C 0.32419 0.78755 0.05111
 H883 H 0.24188 0.85402 0.18709
 H884 H 0.23820 0.88672 0.11653
 H885 H 0.32418 0.72662 0.16560
 H886 H 0.32922 0.80450 0.01907
 C887 C 0.77147 0.32357 0.66165
 C888 C 0.76698 0.34573 0.62102
 C889 C 0.77096 0.32676 0.57942
 C890 C 0.78614 0.28441 0.58105
 C891 C 0.78534 0.25994 0.62317
 C892 C 0.77663 0.27967 0.66511
 C893 C 0.79364 0.21681 0.62093
 N894 N 0.80768 0.20071 0.58159
 N895 N 0.81382 0.22464 0.54407
 C896 C 0.80419 0.26594 0.54270
 H897 H 0.76396 0.34169 0.69031
 H898 H 0.75663 0.37751 0.62434
 H899 H 0.79003 0.19544 0.64965
 H900 H 0.81216 0.28413 0.51206
 C901 C 0.18494 0.18920 0.62330
 C902 C 0.19823 0.16436 0.58823
 C903 C 0.22922 0.17723 0.55729
 C904 C 0.24269 0.21960 0.55946
 C905 C 0.22337 0.24664 0.59152
 C906 C 0.19948 0.22966 0.62949
 C907 C 0.23036 0.28975 0.58557
 N908 N 0.26011 0.30401 0.55554
 N909 N 0.28293 0.27796 0.53087
 C910 C 0.27574 0.23631 0.53248
 H911 H 0.16486 0.17383 0.64616
 H912 H 0.18517 0.13362 0.58694
 H913 H 0.21309 0.31197 0.60554
 H914 H 0.29674 0.21685 0.51372
 C915 C 0.74739 0.68415 0.13270
 C916 C 0.74583 0.65647 0.09942
 C917 C 0.72957 0.66777 0.05814
 C918 C 0.71004 0.70793 0.05233
 C919 C 0.70948 0.73654 0.08845
 C920 C 0.72810 0.72456 0.13030
 C921 C 0.68954 0.77540 0.08134
 N922 N 0.67126 0.78499 0.04137
 N923 N 0.67092 0.75811 0.00829
 C924 C 0.68932 0.71986 0.01256
 H925 H 0.76236 0.67051 0.16209
 H926 H 0.76036 0.62624 0.10606
 H927 H 0.68811 0.79826 0.10696
 H928 H 0.68670 0.69881 -0.01475
 C929 C 0.22425 0.62762 0.22656
 C930 C 0.20991 0.58625 0.22610
 C931 C 0.16790 0.57745 0.23620
 C932 C 0.14046 0.61203 0.24162
 C933 C 0.15679 0.64875 0.25786
 C934 C 0.19922 0.65958 0.24561
 C935 C 0.12976 0.67057 0.28752
 N936 N 0.08835 0.66326 0.28924
 N937 N 0.07211 0.63381 0.26535
 C938 C 0.09681 0.60807 0.24110
 H939 H 0.25655 0.63334 0.21728
 H940 H 0.23184 0.56134 0.21894
 H941 H 0.13978 0.69477 0.30791
 H942 H 0.08216 0.58337 0.22427
 C943 C 0.71890 0.11279 0.73570
 C944 C 0.70492 0.07139 0.73514
 C945 C 0.66235 0.06219 0.73923
 C946 C 0.63379 0.09676 0.74038
 C947 C 0.64813 0.13634 0.75217
 C948 C 0.69164 0.14638 0.74567
 C949 C 0.61817 0.16247 0.77334
 N950 N 0.57710 0.15423 0.77245
 N951 N 0.56350 0.12051 0.75352
 C952 C 0.59033 0.09167 0.73720
 H953 H 0.75201 0.11789 0.73157
 H954 H 0.72785 0.04657 0.73279
 H955 H 0.62611 0.18981 0.79024
 H956 H 0.57689 0.06477 0.72346
 C957 C 0.77670 0.13929 0.26951
 C958 C 0.79144 0.09781 0.27233
 C959 C 0.83375 0.08903 0.26364
 C960 C 0.86106 0.12320 0.25551
 C961 C 0.84429 0.16024 0.23658
 C962 C 0.80208 0.17147 0.25025
 C963 C 0.87163 0.18334 0.20618
 N964 N 0.91306 0.17535 0.20512
 N965 N 0.92949 0.14497 0.23101
 C966 C 0.90499 0.11902 0.25686
 H967 H 0.74448 0.14563 0.27878
 H968 H 0.76980 0.07297 0.28083
 H969 H 0.86257 0.20954 0.18523
 H970 H 0.92046 0.09492 0.27661
 C971 C 0.33429 0.65826 0.75697
 C972 C 0.34819 0.61803 0.75767
 C973 C 0.32114 0.58476 0.76745
 C974 C 0.28372 0.59376 0.79209
 C975 C 0.27076 0.63652 0.79663
 C976 C 0.29521 0.66944 0.77524
 C977 C 0.23480 0.64408 0.82346
 N978 N 0.21334 0.61180 0.84356
 N979 N 0.22577 0.57232 0.83965
 C980 C 0.26049 0.56228 0.81518
 H981 H 0.35451 0.68011 0.73874
 H982 H 0.37976 0.61298 0.74498
 H983 H 0.22462 0.67493 0.83130
 H984 H 0.27073 0.53015 0.81664
 C985 C 0.25705 0.38399 0.71661
 C986 C 0.27857 0.42190 0.71526
 C987 C 0.31773 0.42557 0.73467
 C988 C 0.33454 0.38936 0.75749
 C989 C 0.31154 0.35144 0.76267
 C990 C 0.27254 0.34757 0.73892
 C991 C 0.33100 0.31851 0.78906
 N992 N 0.36874 0.32251 0.80667
 N993 N 0.39035 0.35683 0.79910
 C994 C 0.37483 0.38935 0.77439
 H995 H 0.22808 0.38309 0.69898
 H996 H 0.26464 0.44876 0.69772
 H997 H 0.32007 0.28783 0.79410
 H998 H 0.39554 0.41361 0.76724
 C999 C 0.76706 0.89308 0.21297
 C1000 C 0.78859 0.93063 0.21298
 C1001 C 0.82816 0.93299 0.23171
 C1002 C 0.84447 0.89619 0.25476
 C1003 C 0.81843 0.86084 0.26315
 C1004 C 0.78110 0.85706 0.23696
 C1005 C 0.83337 0.82961 0.29472
 N1006 N 0.87136 0.83127 0.31231
 N1007 N 0.89714 0.86154 0.29990
 C1008 C 0.88553 0.89278 0.27087
 H1009 H 0.73885 0.89232 0.19395
 H1010 H 0.77522 0.95773 0.19525
 H1011 H 0.81834 0.80159 0.30379
 H1012 H 0.91011 0.91239 0.26031
 C1013 C 0.68100 0.83122 0.76720
 C1014 C 0.66067 0.86955 0.77071
 C1015 C 0.67921 0.90301 0.79045
 C1016 C 0.71716 0.89468 0.81314
 C1017 C 0.73648 0.85373 0.81308
 C1018 C 0.71989 0.82173 0.78683
 C1019 C 0.77248 0.84708 0.83825
 N1020 N 0.78872 0.87876 0.86059
 N1021 N 0.77144 0.91677 0.85968
 C1022 C 0.73633 0.92575 0.83681
 H1023 H 0.66647 0.80997 0.74559
 H1024 H 0.63128 0.87386 0.75413
 H1025 H 0.78738 0.81692 0.84164
 H1026 H 0.72363 0.95702 0.83780
 C1027 C 0.18988 0.34994 0.25720
 C1028 C 0.16822 0.38723 0.26156
 C1029 C 0.18391 0.41927 0.28592
 C1030 C 0.21964 0.41057 0.31199
 C1031 C 0.24034 0.37048 0.31076
 C1032 C 0.22662 0.33979 0.28086
 C1033 C 0.27415 0.36339 0.33926
 N1034 N 0.28681 0.39387 0.36587
 N1035 N 0.26792 0.43108 0.36635
 C1036 C 0.23475 0.44041 0.34046
 H1037 H 0.17774 0.32969 0.23278
 H1038 H 0.14023 0.39204 0.24251
 H1039 H 0.29011 0.33383 0.34205
 H1040 H 0.21999 0.47079 0.34308
 C1041 C 0.10683 0.28971 0.75034
 C1042 C 0.07069 0.29619 0.77725
 C1043 C 0.05406 0.26327 0.80457
 C1044 C 0.07283 0.22323 0.80110
 C1045 C 0.11510 0.22090 0.78875
 C1046 C 0.13141 0.25282 0.75619
 C1047 C 0.13675 0.18610 0.80977
 N1048 N 0.11573 0.15314 0.82893
 N1049 N 0.07457 0.15234 0.83011
 C1050 C 0.05233 0.18594 0.81536
 H1051 H 0.11767 0.31536 0.72811
 H1052 H 0.05546 0.32654 0.77608
 H1053 H 0.16953 0.18169 0.81023
 H1054 H 0.01923 0.18460 0.82007
 C1055 C 0.61722 0.73215 0.24208
 C1056 C 0.58181 0.73455 0.26914
 C1057 C 0.56656 0.77284 0.28398
 C1058 C 0.57921 0.80893 0.25747
 C1059 C 0.61420 0.80621 0.22619
 C1060 C 0.63724 0.76775 0.22281
 C1061 C 0.62464 0.84205 0.19932
 N1062 N 0.60235 0.87793 0.20362
 N1063 N 0.56977 0.88028 0.23236
 C1064 C 0.55717 0.84698 0.25895
 H1065 H 0.63052 0.70168 0.24214
 H1066 H 0.56857 0.70525 0.28184
 H1067 H 0.64907 0.84152 0.17356
 H1068 H 0.52888 0.85023 0.27910
 C1069 C 0.66455 0.30064 0.17098
 C1070 C 0.62875 0.29833 0.14685
 C1071 C 0.59631 0.27220 0.16155
 C1072 C 0.60083 0.24891 0.20406
 C1073 C 0.63687 0.25377 0.23048
 C1074 C 0.67083 0.27760 0.21238
 C1075 C 0.63732 0.23460 0.27425
 N1076 N 0.60618 0.20898 0.28900
 N1077 N 0.57431 0.20158 0.26311
 C1078 C 0.57068 0.22043 0.22140
 H1079 H 0.68847 0.32003 0.15493
 H1080 H 0.62840 0.31611 0.11507
 H1081 H 0.66114 0.24078 0.29766
 H1082 H 0.54404 0.21287 0.20268
 C1083 C 0.16309 0.78661 0.67706
 C1084 C 0.12495 0.78881 0.65748
 C1085 C 0.09045 0.76906 0.67750
 C1086 C 0.09647 0.74441 0.71919
 C1087 C 0.13617 0.74378 0.74050
 C1088 C 0.16976 0.76862 0.72105
 C1089 C 0.14106 0.71559 0.77837
 N1090 N 0.10932 0.69215 0.79542
 N1091 N 0.07251 0.69363 0.77678
 C1092 C 0.06517 0.71831 0.73961
 H1093 H 0.18778 0.80096 0.65647
 H1094 H 0.12381 0.80383 0.62398
 H1095 H 0.16914 0.71072 0.79548
 H1096 H 0.03475 0.71565 0.72757
 C1097 C 0.88371 0.76164 0.72272
 C1098 C 0.92245 0.76740 0.70106
 C1099 C 0.93629 0.74290 0.66502
 C1100 C 0.90834 0.71330 0.64941
 C1101 C 0.86632 0.71192 0.66625
 C1102 C 0.85467 0.73386 0.70711
 C1103 C 0.83913 0.68707 0.64170
 N1104 N 0.85393 0.66167 0.60948
 N1105 N 0.89409 0.65924 0.59880
 C1106 C 0.92146 0.68382 0.61808
 H1107 H 0.87609 0.78034 0.75153
 H1108 H 0.94165 0.79161 0.71327
 H1109 H 0.80640 0.68553 0.64681
 H1110 H 0.95315 0.67926 0.60929
 C1111 C 0.37722 0.23299 0.17874
 C1112 C 0.41318 0.23956 0.15236
 C1113 C 0.44073 0.27077 0.16182
 C1114 C 0.43071 0.29628 0.19907
 C1115 C 0.39662 0.28612 0.22966
 C1116 C 0.36782 0.25476 0.21881
 C1117 C 0.39272 0.30858 0.26947
 N1118 N 0.41732 0.34176 0.27532
 N1119 N 0.44597 0.35395 0.24427
 C1120 C 0.45324 0.33256 0.20628
 H1121 H 0.35635 0.21014 0.16678
 H1122 H 0.41944 0.21949 0.12436
 H1123 H 0.37145 0.29979 0.29674
 H1124 H 0.47636 0.34430 0.18186
 C1125 C 0.36354 0.72707 0.27420
 C1126 C 0.40361 0.72538 0.29136
 C1127 C 0.41718 0.75620 0.31948
 C1128 C 0.39034 0.78961 0.32923
 C1129 C 0.34747 0.78683 0.32089
 C1130 C 0.33416 0.75735 0.28783
 C1131 C 0.32167 0.81502 0.34562
 N1132 N 0.33813 0.84793 0.36570
 N1133 N 0.37872 0.85453 0.36445
 C1134 C 0.40539 0.82663 0.34621
 H1135 H 0.35522 0.70370 0.25085
 H1136 H 0.42466 0.70056 0.28135
 H1137 H 0.28873 0.81355 0.34923
 H1138 H 0.43797 0.83365 0.34517
 C1139 C 0.83145 0.25474 0.82951
 C1140 C 0.86956 0.25673 0.84942
 C1141 C 0.90579 0.24277 0.82766
 C1142 C 0.90143 0.22078 0.78660
 C1143 C 0.86257 0.22088 0.76473
 C1144 C 0.82653 0.23825 0.78630
 C1145 C 0.86180 0.20443 0.72140
 N1146 N 0.89535 0.18422 0.70392
 N1147 N 0.93004 0.17949 0.72680
 C1148 C 0.93396 0.19658 0.76744
 H1149 H 0.80601 0.26852 0.84857
 H1150 H 0.87009 0.27152 0.88131
 H1151 H 0.83565 0.20823 0.70053
 H1152 H 0.96218 0.18998 0.78462
 C1153 C 0.51510 0.93395 0.65984
 C1154 C 0.53419 0.93475 0.70249
 C1155 C 0.57761 0.93779 0.70510
 C1156 C 0.60078 0.93480 0.66423
 C1157 C 0.58219 0.95023 0.62390
 C1158 C 0.53759 0.94439 0.61873
 C1159 C 0.60944 0.97457 0.59473
 N1160 N 0.65116 0.97271 0.59950
 N1161 N 0.66815 0.95021 0.63301
 C1162 C 0.64427 0.93056 0.66539
 H1163 H 0.48161 0.93108 0.65965
 H1164 H 0.51481 0.93602 0.73305
 H1165 H 0.59978 0.99576 0.56830
 H1166 H 0.65928 0.91634 0.69435
 C1167 C 0.02532 0.44282 1.15364
 C1168 C 0.04360 0.44685 1.19612
 C1169 C 0.08634 0.45385 1.19893
 C1170 C 0.11075 0.45167 1.15868
 C1171 C 0.09189 0.46100 1.11661
 C1172 C 0.04750 0.45270 1.11226
 C1173 C 0.11884 0.48138 1.08355
 N1174 N 0.16051 0.48206 1.08864
 N1175 N 0.17799 0.46592 1.12560
 C1176 C 0.15444 0.45050 1.16078
 H1177 H -0.00785 0.43764 1.15349
 H1178 H 0.02379 0.44741 1.22641
 H1179 H 0.10916 0.49711 1.05328
 H1180 H 0.16983 0.44118 1.19142
 C1181 C -0.07971 0.03908 1.07133
 C1182 C -0.09888 0.02511 1.11144
 C1183 C -0.07780 0.02442 1.15173
 C1184 C -0.03786 0.04234 1.15218
 C1185 C -0.01794 0.05632 1.11074
 C1186 C -0.03718 0.04981 1.06897
 C1187 C 0.02025 0.07674 1.11279
 N1188 N 0.03791 0.08121 1.15335
 N1189 N 0.01983 0.06688 1.19205
 C1190 C -0.01748 0.04770 1.19287
 H1191 H -0.09757 0.03537 1.04183
 H1192 H -0.13095 0.01514 1.11112
 H1193 H 0.03538 0.09065 1.08283
 H1194 H -0.03095 0.03709 1.22526
 C1195 C 0.41810 0.55387 0.57512
 C1196 C 0.39506 0.54016 0.61334
 C1197 C 0.41417 0.52410 0.65236
 C1198 C 0.45835 0.52542 0.65294
 C1199 C 0.48129 0.54448 0.61554
 C1200 C 0.46203 0.55238 0.57312
 C1201 C 0.52371 0.55206 0.62079
 N1202 N 0.54298 0.53681 0.65830
 N1203 N 0.52248 0.51479 0.69090
 C1204 C 0.48100 0.50830 0.68916
 H1205 H 0.40004 0.56125 0.54632
 H1206 H 0.36141 0.54120 0.61192
 H1207 H 0.54158 0.56986 0.59524
 H1208 H 0.46642 0.48947 0.71583
 C1209 C 0.47066 0.44352 -0.14405
 C1210 C 0.43779 0.45090 -0.17284
 C1211 C 0.43508 0.48775 -0.20022
 C1212 C 0.46663 0.51792 -0.19713
 C1213 C 0.49848 0.51083 -0.16556
 C1214 C 0.49532 0.47650 -0.13318
 C1215 C 0.53242 0.53815 -0.16806
 N1216 N 0.53163 0.57293 -0.19594
 N1217 N 0.49962 0.58174 -0.22233
 C1218 C 0.46708 0.55553 -0.22382
 H1219 H 0.47287 0.41402 -0.12520
 H1220 H 0.41245 0.42969 -0.16862
 H1221 H 0.56032 0.53137 -0.14963
 H1222 H 0.44279 0.56362 -0.24719
 C1223 C -0.01839 0.96305 0.35858
 C1224 C -0.03532 0.96471 0.31502
 C1225 C -0.07848 0.96949 0.31052
 C1226 C -0.10357 0.96684 0.35033
 C1227 C -0.08650 0.98364 0.38821
 C1228 C -0.04314 0.97453 0.39667
 C1229 C -0.11335 1.01196 0.41097
 N1230 N -0.15511 1.01046 0.40618
 N1231 N -0.17169 0.98552 0.37710
 C1232 C -0.14708 0.96350 0.34867
 H1233 H 0.01482 0.95822 0.36144
 H1234 H -0.01481 0.96517 0.28523
 H1235 H -0.10291 1.03467 0.43328
 H1236 H -0.16144 0.94764 0.32214
 C1237 C 0.08314 0.54004 0.43041
 C1238 C 0.10336 0.52143 0.39384
 C1239 C 0.08168 0.51000 0.35585
 C1240 C 0.03892 0.52091 0.35445
 C1241 C 0.01841 0.53811 0.39296
 C1242 C 0.03988 0.54143 0.43431
 C1243 C -0.02300 0.55191 0.38876
 N1244 N -0.04291 0.54714 0.34956
 N1245 N -0.02407 0.52992 0.31408
 C1246 C 0.01615 0.51679 0.31512
 H1247 H 0.10124 0.55116 0.45715
 H1248 H 0.13681 0.51808 0.39386
 H1249 H -0.03932 0.56735 0.41591
 H1250 H 0.03003 0.50354 0.28516
 C1251 C 0.52182 0.02350 -0.09721
 C1252 C 0.54010 0.00307 -0.13418
 C1253 C 0.58305 -0.00519 -0.13655
 C1254 C 0.60753 0.01134 -0.10249
 C1255 C 0.58880 0.03673 -0.06947
 C1256 C 0.54585 0.03537 -0.06046
 C1257 C 0.61346 0.06510 -0.04876
 N1258 N 0.65532 0.06270 -0.05452
 N1259 N 0.67368 0.03422 -0.08017
 C1260 C 0.65110 0.00813 -0.10412
 H1261 H 0.48820 0.02571 -0.09495
 H1262 H 0.52075 -0.00534 -0.16162
 H1263 H 0.59963 0.08860 -0.02760
 H1264 H 0.66708 -0.01314 -0.12620
 C1265 C 0.61033 0.55584 0.01030
 C1266 C 0.64991 0.57224 0.01129
 C1267 C 0.68438 0.54954 -0.00379
 C1268 C 0.67948 0.50779 -0.01566
 C1269 C 0.63907 0.48995 -0.01471
 C1270 C 0.60315 0.51580 -0.00538
 C1271 C 0.63703 0.44685 -0.02229
 N1272 N 0.67194 0.42473 -0.03304
 N1273 N 0.70919 0.44227 -0.03608
 C1274 C 0.71417 0.48299 -0.02757
 H1275 H 0.58528 0.57617 0.02034
 H1276 H 0.65333 0.60400 0.02164
 H1277 H 0.60885 0.42952 -0.01799
 H1278 H 0.74531 0.49539 -0.02932
 C1279 C 0.10593 1.06448 0.50199
 C1280 C 0.14500 1.08109 0.50501
 C1281 C 0.17997 1.05816 0.49333
 C1282 C 0.17530 1.01631 0.48074
 C1283 C 0.13470 0.99838 0.47941
 C1284 C 0.09851 1.02351 0.48878
 C1285 C 0.13264 0.95620 0.46855
 N1286 N 0.16790 0.93426 0.45871
 N1287 N 0.20534 0.95135 0.45915
 C1288 C 0.21023 0.99158 0.46986
 H1289 H 0.08128 1.08606 0.50780
 H1290 H 0.14767 1.11338 0.51391
 H1291 H 0.10384 0.93981 0.46839
 H1292 H 0.24140 1.00377 0.47035
 C1293 C 0.13098 -0.01209 1.03854
 C1294 C 0.17197 -0.02754 1.04308
 C1295 C 0.18071 -0.07009 1.03826
 C1296 C 0.14685 -0.09677 1.03599
 C1297 C 0.11063 -0.08059 1.01573
 C1298 C 0.10008 -0.03695 1.02001
 C1299 C 0.09013 -0.10887 0.98920
 N1300 N 0.09716 -0.15063 0.99493
 N1301 N 0.12639 -0.16596 1.02212
 C1302 C 0.15233 -0.14016 1.04220
 H1303 H 0.12543 0.02095 1.04259
 H1304 H 0.19707 -0.00586 1.04644
 H1305 H 0.06834 -0.09899 0.96427
 H1306 H 0.17868 -0.15328 1.06009
 C1307 C 0.62495 0.48362 0.52424
 C1308 C 0.66513 0.46726 0.53165
 C1309 C 0.67172 0.42427 0.53949
 C1310 C 0.63654 0.39905 0.54626
 C1311 C 0.59822 0.41320 0.52818
 C1312 C 0.59053 0.45721 0.51901
 C1313 C 0.57409 0.38165 0.51144
 N1314 N 0.58101 0.34082 0.52355
 N1315 N 0.61284 0.32886 0.54892
 C1316 C 0.64147 0.35676 0.56014
 H1317 H 0.62210 0.51698 0.51743
 H1318 H 0.69153 0.48774 0.52659
 H1319 H 0.55385 0.38872 0.48398
 H1320 H 0.66933 0.34562 0.57672
 C1321 C -0.10861 0.42993 0.53148
 C1322 C -0.14729 0.41233 0.52822
 C1323 C -0.17901 0.43415 0.50658
 C1324 C -0.17248 0.47574 0.49019
 C1325 C -0.13312 0.49501 0.49503
 C1326 C -0.09948 0.47108 0.51446
 C1327 C -0.12967 0.53716 0.47976
 N1328 N -0.16217 0.55751 0.46009
 N1329 N -0.19829 0.53897 0.45472
 C1330 C -0.20457 0.49881 0.46916
 H1331 H -0.08519 0.40975 0.54662
 H1332 H -0.15179 0.38033 0.54077
 H1333 H -0.10240 0.55500 0.48383
 H1334 H -0.23474 0.48540 0.46453
 C1335 C 0.40462 -0.07249 0.02956
 C1336 C 0.36591 -0.08611 0.01839
 C1337 C 0.33409 -0.05780 0.00856
 C1338 C 0.34058 -0.01480 0.01305
 C1339 C 0.38042 -0.00039 0.02517
 C1340 C 0.41438 -0.02983 0.03068
 C1341 C 0.38354 0.04268 0.03241
 N1342 N 0.35059 0.06885 0.02557
 N1343 N 0.31422 0.05524 0.01248
 C1344 C 0.30806 0.01428 0.00612
 H1345 H 0.42656 -0.09663 0.03903
 H1346 H 0.36073 -0.11941 0.01750
 H1347 H 0.41082 0.05628 0.04503
 H1348 H 0.27767 0.00473 -0.00385
 C1349 C 0.36134 1.00296 0.56382
 C1350 C 0.32097 1.02051 0.56082
 C1351 C 0.31548 1.06412 0.55663
 C1352 C 0.35003 1.08863 0.56262
 C1353 C 0.38832 1.07256 0.54671
 C1354 C 0.39657 1.02804 0.55358
 C1355 C 0.41284 1.10200 0.52101
 N1356 N 0.40579 1.14364 0.52463
 N1357 N 0.37362 1.15816 0.54884
 C1358 C 0.34485 1.13179 0.56757
 H1359 H 0.36469 0.96931 0.56746
 H1360 H 0.29471 1.00020 0.55770
 H1361 H 0.43853 1.09346 0.49951
 H1362 H 0.31639 1.14447 0.58228
 C1363 C -0.12915 0.50621 1.06401
 C1364 C -0.17014 0.52255 1.06409
 C1365 C -0.17732 0.56586 1.05917
 C1366 C -0.14266 0.59167 1.06216
 C1367 C -0.10417 0.57616 1.04576
 C1368 C -0.09499 0.53214 1.05148
 C1369 C -0.08044 0.60534 1.01935
 N1370 N -0.08713 0.64695 1.02321
 N1371 N -0.11902 0.66134 1.04787
 C1372 C -0.14783 0.63491 1.06654
 H1373 H -0.12489 0.47265 1.06754
 H1374 H -0.19591 0.50127 1.06317
 H1375 H -0.05716 0.59610 0.99506
 H1376 H -0.17550 0.64781 1.08189
 C1377 C 0.02295 0.61934 0.52268
 C1378 C 0.02736 0.66032 0.53581
 C1379 C 0.02671 0.66950 0.58158
 C1380 C 0.02087 0.63683 0.61516
 C1381 C 0.01213 0.59579 0.60240
 C1382 C 0.01530 0.58625 0.55471
 C1383 C -0.00013 0.56713 0.63870
 N1384 N 0.00265 0.57685 0.68248
 N1385 N 0.01327 0.61458 0.69379
 C1386 C 0.02082 0.64498 0.66177
 H1387 H 0.02469 0.61376 0.48678
 H1388 H 0.03183 0.68510 0.50998
 H1389 H -0.01432 0.53787 0.63508
 H1390 H 0.02561 0.67525 0.67352
 C1391 C 0.51667 0.12303 0.02198
 C1392 C 0.51211 0.16523 0.03277
 C1393 C 0.50883 0.17655 0.07808
 C1394 C 0.50973 0.14482 0.11257
 C1395 C 0.52279 0.10390 0.10238
 C1396 C 0.52251 0.09126 0.05599
 C1397 C 0.53841 0.07924 0.13932
 N1398 N 0.53339 0.09161 0.18242
 N1399 N 0.51470 0.12753 0.19170
 C1400 C 0.50226 0.15442 0.15810
 H1401 H 0.51680 0.11536 -0.01336
 H1402 H 0.51217 0.18920 0.00569
 H1403 H 0.55814 0.05247 0.13508
 H1404 H 0.48817 0.18387 0.16700
 C1405 C 0.02462 0.13893 0.98207
 C1406 C 0.01442 0.18079 0.96876
 C1407 C -0.01169 0.19014 0.93189
 C1408 C -0.02421 0.15614 0.90712
 C1409 C -0.00365 0.11732 0.91222
 C1410 C 0.01404 0.10560 0.95508
 C1411 C -0.00317 0.09262 0.87383
 N1412 N -0.03240 0.09906 0.84211
 N1413 N -0.06012 0.13004 0.84525
 C1414 C -0.05663 0.15906 0.87681
 H1415 H 0.04034 0.13265 1.01353
 H1416 H 0.02635 0.20594 0.98767
 H1417 H 0.02067 0.06938 0.86784
 H1418 H -0.08040 0.18243 0.88036
 C1419 C 0.52307 0.63616 0.47717
 C1420 C 0.51880 0.67669 0.45689
 C1421 C 0.50943 0.68251 0.41077
 C1422 C 0.50869 0.64733 0.38391
 C1423 C 0.52004 0.60789 0.40288
 C1424 C 0.51866 0.60052 0.45152
 C1425 C 0.53581 0.57904 0.37170
 N1426 N 0.53001 0.58512 0.32664
 N1427 N 0.51151 0.61952 0.30997
 C1428 C 0.50069 0.65095 0.33715
 H1429 H 0.52669 0.63266 0.51349
 H1430 H 0.52202 0.70353 0.47741
 H1431 H 0.55437 0.55271 0.38220
 H1432 H 0.48761 0.67888 0.32163
 C1433 C 0.52318 0.88422 0.46521
 C1434 C 0.52536 0.85099 0.43760
 C1435 C 0.49063 0.82727 0.42964
 C1436 C 0.45497 0.83337 0.45960
 C1437 C 0.45637 0.86300 0.49517
 C1438 C 0.49024 0.89127 0.49678
 C1439 C 0.42269 0.86448 0.52649
 N1440 N 0.38839 0.84168 0.52071
 N1441 N 0.38551 0.81723 0.48584
 C1442 C 0.41729 0.81248 0.45528
 H1443 H 0.54739 0.90587 0.45738
 H1444 H 0.55471 0.84666 0.41956
 H1445 H 0.42322 0.88302 0.55585
 H1446 H 0.41147 0.79369 0.42740
 C1447 C 0.02108 0.37466 0.97541
 C1448 C 0.01538 0.34425 0.94481
 C1449 C -0.02426 0.33337 0.93200
 C1450 C -0.05841 0.34791 0.95879
 C1451 C -0.05160 0.37387 0.99626
 C1452 C -0.01143 0.39194 1.00189
 C1453 C -0.08594 0.38199 1.02533
 N1454 N -0.12452 0.36988 1.01474
 N1455 N -0.13115 0.34969 0.97729
 C1456 C -0.09940 0.33852 0.94894
 H1457 H 0.05172 0.38594 0.97391
 H1458 H 0.04304 0.33191 0.92806
 H1459 H -0.08256 0.39728 1.05667
 H1460 H -0.10643 0.32306 0.91866
 C1461 C 0.46343 0.37936 0.00112
 C1462 C 0.46997 0.34384 0.02910
 C1463 C 0.50728 0.32140 0.02612
 C1464 C 0.53495 0.33062 -0.01122
 C1465 C 0.52771 0.36636 -0.04063
 C1466 C 0.49433 0.39441 -0.03072
 C1467 C 0.55480 0.37313 -0.07837
 N1468 N 0.58754 0.34681 -0.08526
 N1469 N 0.59489 0.31408 -0.05707
 C1470 C 0.56979 0.30511 -0.02029
 H1471 H 0.43655 0.39827 0.00992
 H1472 H 0.44768 0.33671 0.05654
 H1473 H 0.54955 0.39840 -0.10309
 H1474 H 0.57667 0.27758 0.00089
 C1475 C 0.01329 0.87473 0.49046
 C1476 C 0.02154 0.83565 0.51147
 C1477 C -0.00384 0.81982 0.54723
 C1478 C -0.04044 0.84222 0.55862
 C1479 C -0.04447 0.88512 0.54457
 C1480 C -0.01717 0.90223 0.50838
 C1481 C -0.07486 0.90810 0.56934
 N1482 N -0.10307 0.88851 0.59758
 N1483 N -0.10257 0.84735 0.60465
 C1484 C -0.07210 0.82366 0.58611
 H1485 H 0.03449 0.88504 0.46320
 H1486 H 0.04931 0.81854 0.50123
 H1487 H -0.07743 0.94115 0.56798
 H1488 H -0.07389 0.79051 0.59165
 C1489 C 0.22622 0.29197 0.12898
 C1490 C 0.23511 0.30781 0.08507
 C1491 C 0.25254 0.34718 0.07736
 C1492 C 0.25664 0.37293 0.11469
 C1493 C 0.25353 0.35534 0.15964
 C1494 C 0.23814 0.31296 0.16751
 C1495 C 0.26764 0.38132 0.19353
 N1496 N 0.27566 0.42224 0.18447
 N1497 N 0.27199 0.43968 0.14326
 C1498 C 0.26260 0.41649 0.10816
 H1499 H 0.21468 0.26045 0.13209
 H1500 H 0.22893 0.28866 0.05682
 H1501 H 0.27421 0.37078 0.22686
 H1502 H 0.25870 0.43277 0.07579
 C1503 C 0.71200 0.77597 0.63518
 C1504 C 0.72190 0.79291 0.59174
 C1505 C 0.73949 0.83239 0.58600
 C1506 C 0.74138 0.85722 0.62420
 C1507 C 0.73935 0.83842 0.66824
 C1508 C 0.72400 0.79565 0.67470
 C1509 C 0.75623 0.86335 0.70175
 N1510 N 0.76271 0.90474 0.69410
 N1511 N 0.75562 0.92353 0.65422
 C1512 C 0.74510 0.90099 0.61907
 H1513 H 0.70067 0.74430 0.63726
 H1514 H 0.71658 0.77470 0.56253
 H1515 H 0.76782 0.85159 0.73274
 H1516 H 0.73843 0.91745 0.58766
 C1517 C 0.27750 0.66281 0.66770
 C1518 C 0.26255 0.64325 0.63026
 C1519 C 0.26610 0.66179 0.58675
 C1520 C 0.28866 0.69957 0.58099
 C1521 C 0.30542 0.71883 0.61908
 C1522 C 0.29663 0.70270 0.66419
 C1523 C 0.33095 0.75356 0.61036
 N1524 N 0.33702 0.76957 0.56744
 N1525 N 0.31961 0.75295 0.53230
 C1526 C 0.29576 0.71850 0.53758
 H1527 H 0.26970 0.64770 0.70004
 H1528 H 0.24817 0.61295 0.63541
 H1529 H 0.34753 0.76702 0.63693
 H1530 H 0.28259 0.70618 0.50781
 C1531 C 0.77681 0.17096 0.15099
 C1532 C 0.76737 0.14928 0.11334
 C1533 C 0.77673 0.16546 0.07022
 C1534 C 0.79843 0.20387 0.06519
 C1535 C 0.80847 0.22642 0.10416
 C1536 C 0.79553 0.21124 0.14845
 C1537 C 0.83164 0.26307 0.09700
 N1538 N 0.84251 0.27698 0.05426
 N1539 N 0.83190 0.25675 0.01806
 C1540 C 0.81026 0.22074 0.02208
 H1541 H 0.76477 0.15657 0.18205
 H1542 H 0.75239 0.11922 0.11811
 H1543 H 0.84259 0.28005 0.12479
 H1544 H 0.80237 0.20565 -0.00846
 C1545 C 0.68266 0.15848 0.85323
 C1546 C 0.69594 0.13820 0.89248
 C1547 C 0.70862 0.16016 0.92897
 C1548 C 0.70107 0.20378 0.92801
 C1549 C 0.68632 0.22472 0.88757
 C1550 C 0.68299 0.20236 0.84684
 C1551 C 0.67796 0.26778 0.88874
 N1552 N 0.68605 0.28865 0.92636
 N1553 N 0.70150 0.26934 0.96316
 C1554 C 0.70936 0.22762 0.96522
 H1555 H 0.67991 0.13801 0.82648
 H1556 H 0.70229 0.10509 0.89134
 H1557 H 0.66433 0.28486 0.86044
 H1558 H 0.72138 0.21341 0.99608
 C1559 C 0.19798 0.72761 0.39176
 C1560 C 0.20044 0.70812 0.43559
 C1561 C 0.19905 0.66437 0.44155
 C1562 C 0.18913 0.64226 0.40367
 C1563 C 0.20301 0.65891 0.36095
 C1564 C 0.20240 0.70384 0.35242
 C1565 C 0.22287 0.62925 0.33350
 N1566 N 0.21620 0.58778 0.34119
 N1567 N 0.19386 0.57348 0.37703
 C1568 C 0.18016 0.59967 0.40899
 H1569 H 0.19886 0.76139 0.38877
 H1570 H 0.20697 0.72688 0.46403
 H1571 H 0.24607 0.63752 0.30831
 H1572 H 0.16609 0.58705 0.44017
 C1573 C 0.76418 0.77925 0.36145
 C1574 C 0.76278 0.79228 0.40606
 C1575 C 0.73673 0.82540 0.41866
 C1576 C 0.71079 0.84421 0.38625
 C1577 C 0.71920 0.83846 0.33963
 C1578 C 0.74513 0.80311 0.32623
 C1579 C 0.70136 0.86938 0.30983
 N1580 N 0.67176 0.89641 0.32480
 N1581 N 0.65944 0.89632 0.36809
 C1582 C 0.67815 0.87108 0.39932
 H1583 H 0.78295 0.75196 0.35385
 H1584 H 0.78295 0.77713 0.43068
 H1585 H 0.71050 0.87390 0.27508
 H1586 H 0.66685 0.87133 0.43387
 C1587 C 0.23246 0.32620 0.83626
 C1588 C 0.22630 0.34083 0.87885
 C1589 C 0.24452 0.32065 0.91557
 C1590 C 0.26533 0.28189 0.90979
 C1591 C 0.26827 0.26423 0.86616
 C1592 C 0.25161 0.28671 0.82784
 C1593 C 0.29003 0.22610 0.86259
 N1594 N 0.30709 0.20715 0.89975
 N1595 N 0.30418 0.22373 0.94028
 C1596 C 0.28412 0.26061 0.94648
 H1597 H 0.22071 0.34704 0.80973
 H1598 H 0.21189 0.37145 0.88211
 H1599 H 0.29498 0.21167 0.83071
 H1600 H 0.28252 0.27284 0.98008
 C1601 C 0.75041 0.36181 0.78763
 C1602 C 0.76790 0.40066 0.79623
 C1603 C 0.81098 0.40666 0.79217
 C1604 C 0.83633 0.37295 0.77899
 C1605 C 0.81838 0.33726 0.76122
 C1606 C 0.77461 0.32889 0.76972
 C1607 C 0.84568 0.31302 0.73443
 N1608 N 0.88740 0.31804 0.73496
 N1609 N 0.90409 0.34707 0.75904
 C1610 C 0.87982 0.37465 0.78127
 H1611 H 0.71724 0.35825 0.79340
 H1612 H 0.74767 0.42612 0.80634
 H1613 H 0.83540 0.28894 0.71421
 H1614 H 0.89464 0.39771 0.80041
 C1615 C 0.25547 0.87714 0.28194
 C1616 C 0.27271 0.91684 0.28636
 C1617 C 0.31488 0.92425 0.27592
 C1618 C 0.33976 0.89095 0.26051
 C1619 C 0.32137 0.85320 0.24819
 C1620 C 0.27878 0.84389 0.26366
 C1621 C 0.34814 0.82629 0.22323
 N1622 N 0.38951 0.83313 0.21875
 N1623 N 0.40689 0.86512 0.23734
 C1624 C 0.38339 0.89358 0.25903
 H1625 H 0.22338 0.87251 0.29292
 H1626 H 0.25323 0.94167 0.29943
 H1627 H 0.33869 0.79814 0.20945
 H1628 H 0.39920 0.91703 0.27634
 C1629 C 0.19707 0.86336 0.70543
 C1630 C 0.18088 0.89860 0.68369
 C1631 C 0.20152 0.93548 0.68981
 C1632 C 0.24508 0.93288 0.69472
 C1633 C 0.26516 0.89291 0.70143
 C1634 C 0.23986 0.85655 0.70944
 C1635 C 0.30876 0.89239 0.70354
 N1636 N 0.33000 0.92879 0.70100
 N1637 N 0.31079 0.96581 0.69663
 C1638 C 0.26891 0.96907 0.69384
 H1639 H 0.17487 0.84446 0.72430
 H1640 H 0.14735 0.89980 0.68032
 H1641 H 0.32650 0.86393 0.70727
 H1642 H 0.25454 0.99972 0.68964
 C1643 C 0.69116 0.36346 0.23582
 C1644 C 0.66740 0.39884 0.23222
 C1645 C 0.68454 0.43674 0.21713
 C1646 C 0.72498 0.43578 0.19601
 C1647 C 0.74697 0.39649 0.19183
 C1648 C 0.73053 0.35927 0.21397
 C1649 C 0.78575 0.39696 0.16874
 N1650 N 0.80230 0.43372 0.15298
 N1651 N 0.78291 0.47014 0.15900
 C1652 C 0.74506 0.47245 0.18032
 H1653 H 0.67728 0.33932 0.25765
 H1654 H 0.63610 0.39695 0.24680
 H1655 H 0.80329 0.36877 0.16312
 H1656 H 0.73144 0.50293 0.18515
 C1657 C 0.71289 0.64405 0.25547
 C1658 C 0.69962 0.60284 0.25562
 C1659 C 0.67474 0.58896 0.22138
 C1660 C 0.66488 0.61695 0.18500
 C1661 C 0.67231 0.66022 0.18828
 C1662 C 0.69932 0.67426 0.22298
 C1663 C 0.65099 0.68717 0.15711
 N1664 N 0.63108 0.67203 0.12182
 N1665 N 0.62964 0.63139 0.11572
 C1666 C 0.64603 0.60347 0.14601
 H1667 H 0.73260 0.65243 0.28255
 H1668 H 0.70771 0.58172 0.28380
 H1669 H 0.65073 0.72028 0.15856
 H1670 H 0.64415 0.57128 0.13868
 C1671 C 0.22437 0.13170 0.73267
 C1672 C 0.21411 0.08990 0.73861
 C1673 C 0.17270 0.07813 0.74196
 C1674 C 0.14062 0.10837 0.73699
 C1675 C 0.15097 0.15006 0.72417
 C1676 C 0.19364 0.16317 0.72686
 C1677 C 0.11797 0.17602 0.70811
 N1678 N 0.07813 0.16286 0.71057
 N1679 N 0.06841 0.12507 0.72753
 C1680 C 0.09819 0.09751 0.74109
 H1681 H 0.25709 0.13909 0.73261
 H1682 H 0.23872 0.06657 0.74156
 H1683 H 0.12335 0.20635 0.69210
 H1684 H 0.08817 0.06722 0.75382
 C1685 C 0.27955 0.13093 0.21101
 C1686 C 0.29043 0.08817 0.21569
 C1687 C 0.33181 0.07589 0.22277
 C1688 C 0.36193 0.10698 0.21852
 C1689 C 0.35014 0.14770 0.23021
 C1690 C 0.30800 0.16203 0.22222
 C1691 C 0.38074 0.16906 0.25309
 N1692 N 0.42117 0.15660 0.25056
 N1693 N 0.43274 0.12197 0.23025
 C1694 C 0.40420 0.09617 0.21467
 H1695 H 0.24721 0.13903 0.20587
 H1696 H 0.26613 0.06507 0.21757
 H1697 H 0.37384 0.19497 0.27358
 H1698 H 0.41422 0.06647 0.20197
 C1699 C 0.76755 0.61036 0.71791
 C1700 C 0.77923 0.56773 0.72369
 C1701 C 0.82130 0.55590 0.72654
 C1702 C 0.85070 0.58726 0.71705
 C1703 C 0.83973 0.62864 0.72741
 C1704 C 0.79671 0.64240 0.72378
 C1705 C 0.87242 0.65143 0.74505
 N1706 N 0.91258 0.63923 0.73862
 N1707 N 0.92244 0.60357 0.71957
 C1708 C 0.89268 0.57664 0.70930
 H1709 H 0.73473 0.61798 0.71637
 H1710 H 0.75531 0.54454 0.72974
 H1711 H 0.86761 0.67834 0.76447
 H1712 H 0.90192 0.54627 0.69817
 C1713 C 0.86021 0.73029 0.23002
 C1714 C 0.89959 0.72322 0.20851
 C1715 C 0.92173 0.75672 0.18759
 C1716 C 0.90549 0.79699 0.19436
 C1717 C 0.86204 0.80151 0.19820
 C1718 C 0.83831 0.76896 0.22323
 C1719 C 0.84649 0.83645 0.17226
 N1720 N 0.87171 0.86885 0.15948
 N1721 N 0.91199 0.86790 0.16823
 C1722 C 0.92985 0.83282 0.18636
 H1723 H 0.84460 0.70377 0.24659
 H1724 H 0.91165 0.69161 0.20658
 H1725 H 0.81516 0.83960 0.16166
 H1726 H 0.96333 0.83130 0.18868
 C1727 C 0.35238 0.22709 0.72603
 C1728 C 0.39442 0.22492 0.71184
 C1729 C 0.41327 0.25997 0.69039
 C1730 C 0.39164 0.29822 0.69217
 C1731 C 0.34833 0.29714 0.69045
 C1732 C 0.32743 0.26239 0.71374
 C1733 C 0.33003 0.33066 0.66477
 N1734 N 0.35194 0.36589 0.65410
 N1735 N 0.39137 0.36942 0.66552
 C1736 C 0.41199 0.33665 0.68522
 H1737 H 0.33876 0.19975 0.74315
 H1738 H 0.41121 0.19559 0.71567
 H1739 H 0.29880 0.33061 0.65347
 H1740 H 0.44503 0.33902 0.69033
 C1741 C 0.37166 0.72551 0.80865
 C1742 C 0.40810 0.72506 0.83271
 C1743 C 0.43987 0.75253 0.82070
 C1744 C 0.43573 0.77917 0.78129
 C1745 C 0.39959 0.77745 0.75415
 C1746 C 0.36552 0.75100 0.76855
 C1747 C 0.39898 0.80351 0.71451
 N1748 N 0.43056 0.83014 0.70395
 N1749 N 0.46317 0.83269 0.73020
 C1750 C 0.46675 0.80826 0.76851
 H1751 H 0.34700 0.70690 0.82423
 H1752 H 0.40986 0.70557 0.86362
 H1753 H 0.37448 0.80293 0.69112
 H1754 H 0.49406 0.81154 0.78844
 C1755 C 0.89511 0.27856 0.24653
 C1756 C 0.93414 0.27964 0.26640
 C1757 C 0.94659 0.24940 0.29957
 C1758 C 0.91847 0.21741 0.31229
 C1759 C 0.87581 0.22187 0.30094
 C1760 C 0.86402 0.25098 0.26331
 C1761 C 0.84806 0.19686 0.32904
 N1762 N 0.86230 0.16598 0.35758
 N1763 N 0.90256 0.15833 0.36198
 C1764 C 0.93105 0.18288 0.34010
 H1765 H 0.88816 0.30187 0.22002
 H1766 H 0.95476 0.30511 0.25640
 H1767 H 0.81511 0.19937 0.32943
 H1768 H 0.96320 0.17476 0.34431
 C1769 C 0.16397 0.26945 0.32048
 C1770 C 0.12476 0.27305 0.34034
 C1771 C 0.08922 0.26656 0.31630
 C1772 C 0.09411 0.25693 0.26980
 C1773 C 0.13494 0.25257 0.24904
 C1774 C 0.17116 0.25871 0.27464
 C1775 C 0.13752 0.24291 0.20315
 N1776 N 0.10251 0.23885 0.17947
 N1777 N 0.06484 0.24394 0.19844
 C1778 C 0.05949 0.25300 0.24261
 H1779 H 0.18869 0.27633 0.34269
 H1780 H 0.12236 0.28046 0.37579
 H1781 H 0.16672 0.23863 0.18557
 H1782 H 0.02826 0.25789 0.25561
 C1783 C 0.66128 0.74121 0.83580
 C1784 C 0.62319 0.74439 0.85857
 C1785 C 0.58608 0.74476 0.83568
 C1786 C 0.58794 0.73984 0.78798
 C1787 C 0.62738 0.73671 0.76408
 C1788 C 0.66527 0.73820 0.78804
 C1789 C 0.62704 0.73320 0.71683
 N1790 N 0.59060 0.73266 0.69511
 N1791 N 0.55417 0.73545 0.71734
 C1792 C 0.55166 0.73905 0.76284
 H1793 H 0.68770 0.74226 0.85727
 H1794 H 0.62286 0.74745 0.89501
 H1795 H 0.65503 0.73099 0.69662
 H1796 H 0.52130 0.74109 0.77867
 C1797 C 0.60818 0.26647 0.73431
 C1798 C 0.56893 0.26967 0.71543
 C1799 C 0.55607 0.24045 0.68516
 C1800 C 0.58314 0.20746 0.67399
 C1801 C 0.62571 0.20919 0.68440
 C1802 C 0.63792 0.23703 0.71950
 C1803 C 0.65234 0.18162 0.65961
 N1804 N 0.63660 0.15126 0.63503
 N1805 N 0.59604 0.14614 0.63225
 C1806 C 0.56894 0.17301 0.65138
 H1807 H 0.61589 0.28866 0.75922
 H1808 H 0.54851 0.29547 0.72408
 H1809 H 0.68529 0.18154 0.65869
 H1810 H 0.53674 0.16588 0.65074
 C1811 C 0.13335 0.72562 0.19873
 C1812 C 0.09480 0.72475 0.17974
 C1813 C 0.06137 0.74636 0.19838
 C1814 C 0.06611 0.76652 0.23951
 C1815 C 0.10545 0.76591 0.26076
 C1816 C 0.14071 0.74680 0.23894
 C1817 C 0.10727 0.78394 0.30319
 N1818 N 0.07313 0.80290 0.32148
 N1819 N 0.03702 0.80476 0.30062
 C1820 C 0.03235 0.78717 0.26029
 H1821 H 0.15751 0.70880 0.18073
 H1822 H 0.09190 0.70953 0.14796
 H1823 H 0.13474 0.78223 0.32293
 H1824 H 0.00209 0.78856 0.24529
   
