data_POSCAR
  _audit_creation_date              2014-09-24
  _audit_creation_method            'ToBaCCo'
  _symmetry_space_group_name_H-M    'P1'
  _symmetry_Int_Tables_number       1
  _symmetry_cell_setting            triclinic
  loop_
  _symmetry_equiv_pos_as_xyz
 x,y,z
_cell_length_a 68.1996
_cell_length_b 68.2131
_cell_length_c 68.2199
_cell_angle_alpha 89.972700
_cell_angle_beta 89.967100
_cell_angle_gamma 90.004900
loop_
  _atom_site_label
  _atom_site_type_symbol
  _atom_site_fract_x
  _atom_site_fract_y
  _atom_site_fract_z
C1 C 0.20524 0.19595 0.22447
 C2 C 0.18934 0.19919 0.23712
 C3 C 0.17664 0.21501 0.23392
 C4 C 0.17971 0.22770 0.21806
 C5 C 0.19553 0.22467 0.20527
 C6 C 0.20837 0.20873 0.20846
 C7 C 0.21805 0.18015 0.22752
 C8 C 0.23387 0.17705 0.21479
 C9 C 0.23701 0.18970 0.19891
 C10 C 0.22434 0.20556 0.19563
 C11 C 0.22734 0.21832 0.17978
 C12 C 0.21459 0.23411 0.17665
 C13 C 0.19874 0.23728 0.18934
 H14 H 0.18683 0.18945 0.24944
 H15 H 0.16978 0.23990 0.21572
 H16 H 0.21575 0.17027 0.23977
 H17 H 0.24931 0.18716 0.18914
 H18 H 0.23956 0.21600 0.16987
 H19 H 0.18896 0.24955 0.18678
 C20 C 0.70507 0.69551 0.72412
 C21 C 0.68918 0.69873 0.73678
 C22 C 0.67646 0.71454 0.73362
 C23 C 0.67952 0.72726 0.71778
 C24 C 0.69534 0.72426 0.70497
 C25 C 0.70819 0.70832 0.70813
 C26 C 0.71790 0.67972 0.72715
 C27 C 0.73372 0.67665 0.71441
 C28 C 0.73685 0.68933 0.69855
 C29 C 0.72416 0.70519 0.69530
 C30 C 0.72715 0.71797 0.67946
 C31 C 0.71439 0.73376 0.67637
 C32 C 0.69854 0.73690 0.68906
 H33 H 0.68668 0.68896 0.74909
 H34 H 0.66959 0.73946 0.71546
 H35 H 0.71561 0.66982 0.73938
 H36 H 0.74914 0.68682 0.68877
 H37 H 0.73937 0.71568 0.66955
 H38 H 0.68875 0.74917 0.68653
 C39 C 0.29427 0.80470 0.72453
 C40 C 0.31014 0.80142 0.73719
 C41 C 0.32278 0.78554 0.73406
 C42 C 0.31968 0.77281 0.71826
 C43 C 0.30389 0.77587 0.70545
 C44 C 0.29110 0.79187 0.70857
 C45 C 0.28152 0.82055 0.72752
 C46 C 0.26570 0.82368 0.71478
 C47 C 0.26254 0.81098 0.69894
 C48 C 0.27516 0.79506 0.69574
 C49 C 0.27212 0.78225 0.67994
 C50 C 0.28482 0.76640 0.67688
 C51 C 0.30063 0.76321 0.68958
 H52 H 0.31268 0.81119 0.74947
 H53 H 0.32956 0.76056 0.71597
 H54 H 0.28389 0.83044 0.73976
 H55 H 0.25027 0.81348 0.68913
 H56 H 0.25992 0.78459 0.67002
 H57 H 0.31038 0.75089 0.68708
 C58 C 0.79529 0.30437 0.22425
 C59 C 0.81113 0.30117 0.23696
 C60 C 0.82387 0.28534 0.23387
 C61 C 0.82084 0.27259 0.21805
 C62 C 0.80507 0.27558 0.20520
 C63 C 0.79221 0.29153 0.20829
 C64 C 0.78245 0.32017 0.22721
 C65 C 0.76667 0.32322 0.21443
 C66 C 0.76359 0.31052 0.19859
 C67 C 0.77628 0.29465 0.19542
 C68 C 0.77334 0.28183 0.17962
 C69 C 0.78609 0.26603 0.17659
 C70 C 0.80190 0.26291 0.18933
 H71 H 0.81355 0.31099 0.24924
 H72 H 0.83075 0.26035 0.21574
 H73 H 0.78470 0.33009 0.23942
 H74 H 0.75133 0.31301 0.18879
 H75 H 0.76114 0.28412 0.16967
 H76 H 0.81169 0.25062 0.18685
 C77 C 0.79520 0.69592 0.27508
 C78 C 0.81113 0.69910 0.26245
 C79 C 0.82381 0.71498 0.26556
 C80 C 0.82064 0.72779 0.28131
 C81 C 0.80478 0.72480 0.29408
 C82 C 0.79198 0.70881 0.29097
 C83 C 0.78242 0.68007 0.27211
 C84 C 0.76656 0.67703 0.28481
 C85 C 0.76334 0.68978 0.30057
 C86 C 0.77597 0.70570 0.30376
 C87 C 0.77288 0.71856 0.31950
 C88 C 0.78559 0.73440 0.32255
 C89 C 0.80147 0.73752 0.30989
 H90 H 0.81366 0.68924 0.25023
 H91 H 0.83050 0.74005 0.28364
 H92 H 0.78479 0.67011 0.25995
 H93 H 0.75102 0.68729 0.31032
 H94 H 0.76063 0.71627 0.32939
 H95 H 0.81122 0.74983 0.31239
 C96 C 0.29506 0.19615 -0.22482
 C97 C 0.31102 0.19934 -0.23741
 C98 C 0.32370 0.21520 -0.23427
 C99 C 0.32052 0.22799 -0.21850
 C100 C 0.30462 0.22501 -0.20577
 C101 C 0.29182 0.20903 -0.20892
 C102 C 0.28228 0.18033 -0.22783
 C103 C 0.26639 0.17728 -0.21517
 C104 C 0.26314 0.19002 -0.19940
 C105 C 0.27578 0.20592 -0.19617
 C106 C 0.27268 0.21877 -0.18042
 C107 C 0.28539 0.23460 -0.17733
 C108 C 0.30130 0.23771 -0.18995
 H109 H 0.31356 0.18949 -0.24964
 H110 H 0.33039 0.24024 -0.21614
 H111 H 0.28466 0.17037 -0.24000
 H112 H 0.25080 0.18753 -0.18968
 H113 H 0.26040 0.21649 -0.17056
 H114 H 0.31106 0.25001 -0.18742
 C115 C 0.70508 0.30390 -0.22445
 C116 C 0.68920 0.30066 -0.23711
 C117 C 0.67653 0.28477 -0.23398
 C118 C 0.67965 0.27202 -0.21817
 C119 C 0.69545 0.27505 -0.20537
 C120 C 0.70824 0.29106 -0.20850
 C121 C 0.71785 0.31975 -0.22744
 C122 C 0.73365 0.32285 -0.21471
 C123 C 0.73682 0.31014 -0.19889
 C124 C 0.72420 0.29422 -0.19567
 C125 C 0.72724 0.28140 -0.17988
 C126 C 0.71454 0.26555 -0.17681
 C127 C 0.69871 0.26238 -0.18950
 H128 H 0.68671 0.31048 -0.24938
 H129 H 0.66978 0.25975 -0.21583
 H130 H 0.71552 0.32967 -0.23965
 H131 H 0.74910 0.31267 -0.18911
 H132 H 0.73945 0.28372 -0.16997
 H133 H 0.68897 0.25006 -0.18699
 C134 C 0.20552 0.80461 0.27515
 C135 C 0.18968 0.80132 0.26246
 C136 C 0.17703 0.78544 0.26558
 C137 C 0.18010 0.77272 0.28141
 C138 C 0.19586 0.77579 0.29425
 C139 C 0.20865 0.79180 0.29113
 C140 C 0.21827 0.82047 0.27216
 C141 C 0.23405 0.82362 0.28494
 C142 C 0.23718 0.81093 0.30081
 C143 C 0.22456 0.79500 0.30400
 C144 C 0.22756 0.78221 0.31983
 C145 C 0.21486 0.76635 0.32289
 C146 C 0.19908 0.76315 0.31015
 H147 H 0.18716 0.81108 0.25015
 H148 H 0.17022 0.76047 0.28370
 H149 H 0.21593 0.83035 0.25991
 H150 H 0.24942 0.81344 0.31065
 H151 H 0.23973 0.78456 0.32978
 H152 H 0.18934 0.75082 0.31265
 C153 C 0.44608 0.45549 0.47488
 C154 C 0.44930 0.43962 0.48756
 C155 C 0.46513 0.42692 0.48441
 C156 C 0.47785 0.42996 0.46857
 C157 C 0.47484 0.44576 0.45574
 C158 C 0.45889 0.45860 0.45889
 C159 C 0.43027 0.46831 0.47789
 C160 C 0.42719 0.48411 0.46512
 C161 C 0.43987 0.48722 0.44926
 C162 C 0.45575 0.47455 0.44603
 C163 C 0.46853 0.47752 0.43019
 C164 C 0.48433 0.46477 0.42711
 C165 C 0.48749 0.44895 0.43983
 H166 H 0.43954 0.43713 0.49987
 H167 H 0.49006 0.42003 0.46626
 H168 H 0.42037 0.46603 0.49012
 H169 H 0.43735 0.49949 0.43946
 H170 H 0.46622 0.48973 0.42026
 H171 H 0.49976 0.43916 0.43731
 C172 C -0.05439 -0.04487 0.97426
 C173 C -0.05120 -0.06081 0.98687
 C174 C -0.03538 -0.07352 0.98367
 C175 C -0.02264 -0.07041 0.96786
 C176 C -0.02561 -0.05454 0.95512
 C177 C -0.04155 -0.04170 0.95830
 C178 C -0.07018 -0.03205 0.97732
 C179 C -0.07324 -0.01617 0.96463
 C180 C -0.06051 -0.01299 0.94880
 C181 C -0.04465 -0.02568 0.94553
 C182 C -0.03184 -0.02264 0.92973
 C183 C -0.01605 -0.03540 0.92660
 C184 C -0.01294 -0.05129 0.93924
 H185 H -0.06098 -0.06335 0.99915
 H186 H -0.01044 -0.08034 0.96552
 H187 H -0.08008 -0.03442 0.98956
 H188 H -0.06296 -0.00068 0.93902
 H189 H -0.03411 -0.01038 0.91985
 H190 H -0.00067 -0.06108 0.93669
 C191 C 1.05424 0.54451 0.97502
 C192 C 1.05099 0.56037 0.98770
 C193 C 1.03512 0.57306 0.98457
 C194 C 1.02239 0.56998 0.96874
 C195 C 1.02543 0.55418 0.95593
 C196 C 1.04142 0.54138 0.95905
 C197 C 1.07008 0.53173 0.97801
 C198 C 1.07320 0.51593 0.96525
 C199 C 1.06049 0.51280 0.94941
 C200 C 1.04459 0.52544 0.94621
 C201 C 1.03179 0.52243 0.93040
 C202 C 1.01596 0.53515 0.92734
 C203 C 1.01279 0.55096 0.94004
 H204 H 1.06079 0.56285 0.99998
 H205 H 1.01014 0.57985 0.96639
 H206 H 1.07996 0.53408 0.99025
 H207 H 1.06299 0.50054 0.93958
 H208 H 1.03412 0.51023 0.92048
 H209 H 1.00048 0.56072 0.93754
 C210 C 0.55431 0.04428 0.47492
 C211 C 0.55108 0.06016 0.48759
 C212 C 0.53522 0.07283 0.48449
 C213 C 0.52246 0.06974 0.46871
 C214 C 0.52546 0.05394 0.45590
 C215 C 0.54146 0.04114 0.45899
 C216 C 0.57016 0.03151 0.47789
 C217 C 0.57325 0.01570 0.46513
 C218 C 0.56051 0.01255 0.44932
 C219 C 0.54460 0.02519 0.44615
 C220 C 0.53176 0.02218 0.43037
 C221 C 0.51592 0.03489 0.42734
 C222 C 0.51277 0.05071 0.44004
 H223 H 0.56088 0.06268 0.49986
 H224 H 0.51022 0.07964 0.46643
 H225 H 0.58007 0.03387 0.49010
 H226 H 0.56298 0.00029 0.43950
 H227 H 0.53407 0.00997 0.42045
 H228 H 0.50046 0.06047 0.43756
 C229 C -0.05459 0.04509 0.52571
 C230 C -0.05140 0.06104 0.51310
 C231 C -0.03555 0.07372 0.51624
 C232 C -0.02277 0.07057 0.53200
 C233 C -0.02573 0.05470 0.54474
 C234 C -0.04171 0.04188 0.54161
 C235 C -0.07041 0.03230 0.52270
 C236 C -0.07344 0.01642 0.53538
 C237 C -0.06070 0.01321 0.55116
 C238 C -0.04480 0.02586 0.55438
 C239 C -0.03195 0.02278 0.57013
 C240 C -0.01612 0.03551 0.57320
 C241 C -0.01302 0.05140 0.56056
 H242 H -0.06122 0.06360 0.50086
 H243 H -0.01054 0.08047 0.53429
 H244 H -0.08036 0.03466 0.51053
 H245 H -0.06318 0.00087 0.56089
 H246 H -0.03422 0.01051 0.58000
 H247 H -0.00072 0.06117 0.56307
 C248 C 0.44562 0.54507 0.02543
 C249 C 0.44886 0.56095 0.01276
 C250 C 0.46473 0.57363 0.01587
 C251 C 0.47749 0.57052 0.03168
 C252 C 0.47446 0.55470 0.04449
 C253 C 0.45846 0.54191 0.04138
 C254 C 0.42978 0.53230 0.02246
 C255 C 0.42669 0.51649 0.03520
 C256 C 0.43939 0.51331 0.05102
 C257 C 0.45530 0.52595 0.05421
 C258 C 0.46812 0.52291 0.07000
 C259 C 0.48396 0.53562 0.07305
 C260 C 0.48713 0.55145 0.06035
 H261 H 0.43904 0.56344 0.00050
 H262 H 0.48975 0.58038 0.03401
 H263 H 0.41986 0.53462 0.01026
 H264 H 0.43686 0.50103 0.06080
 H265 H 0.46580 0.51069 0.07992
 H266 H 0.49944 0.56120 0.06285
 C267 C 0.55469 -0.04519 0.02614
 C268 C 0.55142 -0.06104 0.01347
 C269 C 0.53553 -0.07369 0.01661
 C270 C 0.52279 -0.07059 0.03242
 C271 C 0.52585 -0.05480 0.04524
 C272 C 0.54186 -0.04203 0.04211
 C273 C 0.57055 -0.03243 0.02315
 C274 C 0.57367 -0.01664 0.03589
 C275 C 0.56097 -0.01347 0.05173
 C276 C 0.54504 -0.02608 0.05495
 C277 C 0.53223 -0.02305 0.07075
 C278 C 0.51637 -0.03574 0.07382
 C279 C 0.51318 -0.05156 0.06112
 H280 H 0.56119 -0.06357 0.00118
 H281 H 0.51054 -0.08046 0.03471
 H282 H 0.58046 -0.03475 0.01093
 H283 H 0.56352 -0.00120 0.06151
 H284 H 0.53457 -0.01085 0.08067
 H285 H 0.50086 -0.06129 0.06362
 C286 C 1.05408 0.45515 0.52518
 C287 C 1.05078 0.43934 0.51246
 C288 C 1.03490 0.42666 0.51560
 C289 C 1.02222 0.42970 0.53150
 C290 C 1.02532 0.44545 0.54435
 C291 C 1.04132 0.45824 0.54121
 C292 C 1.06992 0.46793 0.52217
 C293 C 1.07309 0.48367 0.53496
 C294 C 1.06045 0.48677 0.55086
 C295 C 1.04454 0.47414 0.55409
 C296 C 1.03180 0.47710 0.56996
 C297 C 1.01596 0.46440 0.57305
 C298 C 1.01272 0.44863 0.56030
 H299 H 1.06054 0.43690 0.50013
 H300 H 1.00996 0.41984 0.53385
 H301 H 1.07979 0.46566 0.50990
 H302 H 1.06303 0.49900 0.56068
 H303 H 1.03418 0.48927 0.57992
 H304 H 1.00041 0.43888 0.56282
 C305 C 0.40478 0.00893 0.22407
 H306 H 0.40556 0.02223 0.23266
 C307 C 0.41762 0.00611 0.20838
 H308 H 0.42831 0.01730 0.20478
 C309 C 0.39009 -0.02209 0.21841
 H310 H 0.37958 -0.03318 0.22253
 C311 C 0.40267 -0.02549 0.20260
 H312 H 0.40167 -0.03910 0.19449
 N313 N 0.39121 -0.00499 0.22864
 C314 C 0.34476 0.02634 0.25953
 H315 H 0.34392 0.01774 0.27284
 C316 C 0.33202 0.04212 0.25673
 H317 H 0.32136 0.04577 0.26792
 C318 C 0.35948 0.03195 0.22852
 H319 H 0.36997 0.02777 0.21742
 C320 C 0.34701 0.04784 0.22513
 H321 H 0.34807 0.05596 0.21152
 Zn322 Zn 0.37469 -0.00018 0.25043
 N323 N 0.35829 0.02171 0.24561
 C324 C 0.39004 0.02165 0.28251
 N325 N 0.39112 0.00454 0.27229
 C326 C 0.40457 -0.00945 0.27692
 C327 C 0.41735 -0.00670 0.29267
 C328 C 0.40256 0.02498 0.29837
 C329 C 0.34466 -0.02652 0.24117
 C330 C 0.33183 -0.04223 0.24390
 C331 C 0.34659 -0.04806 0.27557
 C332 C 0.35917 -0.03223 0.27225
 N333 N 0.35814 -0.02197 0.25516
 H334 H 0.37962 0.03280 0.27834
 H335 H 0.40532 -0.02276 0.26833
 H336 H 0.42795 -0.01795 0.29631
 H337 H 0.40159 0.03861 0.30647
 H338 H 0.34395 -0.01791 0.22787
 H339 H 0.32121 -0.04583 0.23265
 H340 H 0.34754 -0.05620 0.28918
 H341 H 0.36962 -0.02811 0.28340
 C342 C 0.33321 0.05298 0.23939
 C343 C 0.41652 -0.01124 0.19752
 C344 C 0.33285 -0.05312 0.26124
 C345 C 0.41629 0.01066 0.30351
 C346 C 0.09547 -0.00916 0.72338
 H347 H 0.09469 -0.02246 0.73199
 C348 C 0.08266 -0.00638 0.70766
 H349 H 0.07201 -0.01760 0.70406
 C350 C 0.11010 0.02189 0.71769
 H351 H 0.12057 0.03301 0.72182
 C352 C 0.09756 0.02525 0.70185
 H353 H 0.09855 0.03886 0.69372
 N354 N 0.10899 0.00479 0.72795
 C355 C 0.15542 -0.02640 0.75897
 H356 H 0.15620 -0.01780 0.77227
 C357 C 0.16821 -0.04215 0.75620
 H358 H 0.17884 -0.04577 0.76743
 C359 C 0.14082 -0.03204 0.72793
 H360 H 0.13035 -0.02789 0.71681
 C361 C 0.15334 -0.04790 0.72458
 H362 H 0.15234 -0.05602 0.71097
 Zn363 Zn 0.12545 0.00003 0.74978
 N364 N 0.14192 -0.02180 0.74502
 C365 C 0.11006 -0.02183 0.78186
 N366 N 0.10896 -0.00474 0.77161
 C367 C 0.09545 0.00921 0.77619
 C368 C 0.08262 0.00643 0.79191
 C369 C 0.09750 -0.02521 0.79769
 C370 C 0.15544 0.02646 0.74058
 C371 C 0.16822 0.04221 0.74333
 C372 C 0.15331 0.04799 0.77495
 C373 C 0.14079 0.03213 0.77161
 N374 N 0.14192 0.02187 0.75453
 H375 H 0.12054 -0.03295 0.77772
 H376 H 0.09468 0.02252 0.76759
 H377 H 0.07197 0.01764 0.79552
 H378 H 0.09849 -0.03882 0.80581
 H379 H 0.15623 0.01786 0.72728
 H380 H 0.17887 0.04583 0.73211
 H381 H 0.15230 0.05612 0.78855
 H382 H 0.13032 0.02798 0.78273
 C383 C 0.16711 -0.05302 0.73887
 C384 C 0.08376 0.01096 0.69678
 C385 C 0.16710 0.05309 0.76066
 C386 C 0.08371 -0.01092 0.80278
 C387 C 0.59528 0.49091 0.22344
 H388 H 0.59451 0.47759 0.23201
 C389 C 0.58247 0.49371 0.20772
 H390 H 0.57182 0.48249 0.20410
 C391 C 0.60989 0.52197 0.21780
 H392 H 0.62037 0.53308 0.22195
 C393 C 0.59734 0.52536 0.20198
 H394 H 0.59834 0.53898 0.19387
 N395 N 0.60879 0.50485 0.22802
 C396 C 0.65526 0.47360 0.25892
 H397 H 0.65605 0.48217 0.27224
 C398 C 0.66806 0.45786 0.25611
 H399 H 0.67871 0.45422 0.26731
 C400 C 0.64063 0.46801 0.22788
 H401 H 0.63015 0.47218 0.21678
 C402 C 0.65316 0.45217 0.22448
 H403 H 0.65216 0.44407 0.21086
 Zn404 Zn 0.62529 0.50004 0.24982
 N405 N 0.64175 0.47821 0.24499
 C406 C 0.60995 0.47812 0.28188
 N407 N 0.60884 0.49524 0.27168
 C408 C 0.59536 0.50920 0.27632
 C409 C 0.58258 0.50640 0.29208
 C410 C 0.59744 0.47473 0.29775
 C411 C 0.65527 0.52646 0.24060
 C412 C 0.66809 0.54218 0.24336
 C413 C 0.65327 0.54791 0.27503
 C414 C 0.64071 0.53208 0.27168
 N415 N 0.64178 0.52186 0.25458
 H416 H 0.62040 0.46700 0.27769
 H417 H 0.59458 0.52252 0.26775
 H418 H 0.57195 0.51762 0.29574
 H419 H 0.59843 0.46110 0.30584
 H420 H 0.65602 0.51788 0.22729
 H421 H 0.67872 0.54580 0.23212
 H422 H 0.65230 0.55601 0.28865
 H423 H 0.63026 0.52792 0.28282
 C424 C 0.66695 0.44703 0.23875
 C425 C 0.58356 0.51107 0.19687
 C426 C 0.66704 0.55302 0.26072
 C427 C 0.58367 0.48903 0.30291
 C428 C 0.90503 0.50893 0.72384
 H429 H 0.90582 0.52225 0.73240
 C430 C 0.91784 0.50611 0.70811
 H431 H 0.92850 0.51732 0.70447
 C432 C 0.89039 0.47789 0.71826
 H433 H 0.87990 0.46678 0.72243
 C434 C 0.90293 0.47448 0.70243
 H435 H 0.90192 0.46086 0.69433
 N436 N 0.89150 0.49500 0.72846
 C437 C 0.84504 0.52632 0.75933
 H438 H 0.84423 0.51776 0.77267
 C439 C 0.83226 0.54206 0.75649
 H440 H 0.82159 0.54572 0.76769
 C441 C 0.85971 0.53188 0.72829
 H442 H 0.87020 0.52769 0.71719
 C443 C 0.84720 0.54773 0.72486
 H444 H 0.84822 0.55581 0.71122
 Zn445 Zn 0.87499 0.49984 0.75026
 N446 N 0.85857 0.52169 0.74541
 C447 C 0.89034 0.52174 0.78230
 N448 N 0.89143 0.50461 0.77210
 C449 C 0.90489 0.49064 0.77676
 C450 C 0.91766 0.49342 0.79251
 C451 C 0.90285 0.52510 0.79815
 C452 C 0.84499 0.47346 0.74107
 C453 C 0.83216 0.45774 0.74383
 C454 C 0.84695 0.45198 0.77550
 C455 C 0.85951 0.46781 0.77215
 N456 N 0.85847 0.47804 0.75504
 H457 H 0.87991 0.53287 0.77810
 H458 H 0.90565 0.47731 0.76820
 H459 H 0.92826 0.48218 0.79618
 H460 H 0.90187 0.53874 0.80623
 H461 H 0.84426 0.48205 0.72775
 H462 H 0.82154 0.45413 0.73259
 H463 H 0.84789 0.44387 0.78912
 H464 H 0.86996 0.47195 0.78328
 C465 C 0.83339 0.55288 0.73911
 C466 C 0.91673 0.48875 0.69729
 C467 C 0.83319 0.44688 0.76119
 C468 C 0.91658 0.51079 0.80332
 C469 C 0.22308 0.40543 0.00900
 H470 H 0.23167 0.40615 0.02231
 C471 C 0.20733 0.41822 0.00628
 H472 H 0.20369 0.42880 0.01755
 C473 C 0.21746 0.39095 -0.02210
 H474 H 0.22162 0.38054 -0.03326
 C475 C 0.20160 0.40348 -0.02541
 H476 H 0.19348 0.40253 -0.03902
 N477 N 0.22769 0.39199 -0.00500
 C478 C 0.25876 0.34545 0.02601
 H479 H 0.27208 0.34473 0.01740
 C480 C 0.25601 0.33260 0.04171
 H481 H 0.26725 0.32197 0.04529
 C482 C 0.22769 0.36000 0.03172
 H483 H 0.21655 0.37046 0.02761
 C484 C 0.22435 0.34741 0.04753
 H485 H 0.21074 0.34836 0.05567
 Zn486 Zn 0.24955 0.37552 -0.00030
 N487 N 0.24479 0.35895 0.02147
 C488 C 0.28160 0.39083 0.02162
 N489 N 0.27137 0.39200 0.00452
 C490 C 0.27596 0.40556 -0.00938
 C491 C 0.29170 0.41835 -0.00657
 C492 C 0.29745 0.40335 0.02502
 C493 C 0.24040 0.34566 -0.02685
 C494 C 0.24321 0.33292 -0.04262
 C495 C 0.27485 0.34784 -0.04831
 C496 C 0.27146 0.36031 -0.03243
 N497 N 0.25434 0.35915 -0.02220
 H498 H 0.27745 0.38032 0.03270
 H499 H 0.26737 0.40638 -0.02269
 H500 H 0.29532 0.42903 -0.01775
 H501 H 0.30556 0.40231 0.03862
 H502 H 0.22708 0.34483 -0.01826
 H503 H 0.23200 0.32228 -0.04628
 H504 H 0.28847 0.34888 -0.05641
 H505 H 0.28257 0.37077 -0.02823
 C506 C 0.23867 0.33364 0.05259
 C507 C 0.19647 0.41719 -0.01106
 C508 C 0.26057 0.33407 -0.05347
 C509 C 0.30256 0.41719 0.01077
 C510 C 0.72433 0.09438 -0.00894
 H511 H 0.73288 0.09359 -0.02228
 C512 C 0.70860 0.08157 -0.00608
 H513 H 0.70496 0.07091 -0.01726
 C514 C 0.71876 0.10904 0.02209
 H515 H 0.72293 0.11953 0.03317
 C516 C 0.70293 0.09650 0.02554
 H517 H 0.69484 0.09752 0.03918
 N518 N 0.72895 0.10791 0.00496
 C519 C 0.75976 0.15435 -0.02648
 H520 H 0.77311 0.15516 -0.01796
 C521 C 0.75688 0.16713 -0.04222
 H522 H 0.76806 0.17779 -0.04592
 C523 C 0.72869 0.13969 -0.03192
 H524 H 0.71761 0.12921 -0.02769
 C525 C 0.72523 0.15220 -0.04776
 H526 H 0.71157 0.15117 -0.05580
 Zn527 Zn 0.75074 0.12441 0.00006
 N528 N 0.74585 0.14083 -0.02178
 C529 C 0.78276 0.10906 -0.02191
 N530 N 0.77258 0.10797 -0.00476
 C531 C 0.77725 0.09450 0.00920
 C532 C 0.79300 0.08172 0.00639
 C533 C 0.79862 0.09654 -0.02531
 C534 C 0.74160 0.15442 0.02644
 C535 C 0.74441 0.16726 0.04213
 C536 C 0.77610 0.15245 0.04780
 C537 C 0.77270 0.13988 0.03200
 N538 N 0.75556 0.14093 0.02183
 H539 H 0.77855 0.11950 -0.03303
 H540 H 0.76871 0.09374 0.02255
 H541 H 0.79667 0.07111 0.01762
 H542 H 0.80668 0.09752 -0.03896
 H543 H 0.72826 0.15515 0.01790
 H544 H 0.73318 0.17788 0.04577
 H545 H 0.78974 0.15150 0.05587
 H546 H 0.78383 0.12942 0.02783
 C547 C 0.73947 0.16600 -0.05297
 C548 C 0.69778 0.08269 0.01130
 C549 C 0.76179 0.16622 0.05293
 C550 C 0.80380 0.08279 -0.01100
 C551 C 0.22364 0.59513 0.49070
 H552 H 0.23227 0.59438 0.47741
 C553 C 0.20792 0.58229 0.49344
 H554 H 0.20436 0.57164 0.48222
 C555 C 0.21787 0.60971 0.52174
 H556 H 0.22196 0.62018 0.53286
 C557 C 0.20204 0.59713 0.52507
 H558 H 0.19388 0.59810 0.53866
 N559 N 0.22816 0.60864 0.50466
 C560 C 0.25916 0.65517 0.47354
 H561 H 0.27245 0.65598 0.48217
 C562 C 0.25640 0.66797 0.45780
 H563 H 0.26761 0.67865 0.45421
 C564 C 0.22816 0.64049 0.46782
 H565 H 0.21705 0.62999 0.47195
 C566 C 0.22481 0.65302 0.45197
 H567 H 0.21122 0.65200 0.44382
 Zn568 Zn 0.24997 0.62516 0.49994
 N569 N 0.24523 0.64163 0.47810
 C570 C 0.28216 0.60988 0.47816
 N571 N 0.27186 0.60874 0.49523
 C572 C 0.27643 0.59524 0.50919
 C573 C 0.29221 0.58248 0.50645
 C574 C 0.29804 0.59739 0.47484
 C575 C 0.24065 0.65510 0.52634
 C576 C 0.24335 0.66790 0.54209
 C577 C 0.27501 0.65309 0.54791
 C578 C 0.27172 0.64056 0.53206
 N579 N 0.25464 0.64163 0.52178
 H580 H 0.27802 0.62035 0.46703
 H581 H 0.26780 0.59444 0.52247
 H582 H 0.29581 0.57184 0.51768
 H583 H 0.30621 0.59841 0.46125
 H584 H 0.22736 0.65585 0.51772
 H585 H 0.23210 0.67852 0.54568
 H586 H 0.28861 0.65213 0.55606
 H587 H 0.28287 0.63012 0.52793
 C588 C 0.23908 0.66684 0.44690
 C589 C 0.19701 0.58334 0.51077
 C590 C 0.26068 0.66684 0.55298
 C591 C 0.30313 0.58361 0.48914
 C592 C 0.72315 0.90522 0.50885
 H593 H 0.73173 0.90594 0.52217
 C594 C 0.70740 0.91801 0.50613
 H595 H 0.70375 0.92859 0.51739
 C596 C 0.71754 0.89075 0.47774
 H597 H 0.72172 0.88033 0.46658
 C598 C 0.70168 0.90328 0.47443
 H599 H 0.69358 0.90234 0.46081
 N600 N 0.72777 0.89178 0.49485
 C601 C 0.75878 0.84522 0.52588
 H602 H 0.77210 0.84449 0.51730
 C603 C 0.75600 0.83237 0.54158
 H604 H 0.76723 0.82173 0.54518
 C605 C 0.72770 0.85978 0.53156
 H606 H 0.71658 0.87026 0.52744
 C607 C 0.72433 0.84719 0.54736
 H608 H 0.71071 0.84815 0.55548
 Zn609 Zn 0.74961 0.87531 0.49957
 N610 N 0.74482 0.85873 0.52133
 C611 C 0.78164 0.89060 0.52153
 N612 N 0.77142 0.89177 0.50443
 C613 C 0.77603 0.90534 0.49053
 C614 C 0.79176 0.91813 0.49338
 C615 C 0.79748 0.90312 0.52496
 C616 C 0.74049 0.84545 0.47300
 C617 C 0.74331 0.83272 0.45722
 C618 C 0.77496 0.84764 0.45158
 C619 C 0.77155 0.86010 0.46747
 N620 N 0.75443 0.85894 0.47767
 H621 H 0.77748 0.88008 0.53260
 H622 H 0.76746 0.90617 0.47722
 H623 H 0.79540 0.92883 0.48220
 H624 H 0.80558 0.90207 0.53857
 H625 H 0.72716 0.84462 0.48157
 H626 H 0.73211 0.82209 0.45354
 H627 H 0.78860 0.84868 0.44349
 H628 H 0.78266 0.87056 0.47168
 C629 C 0.73864 0.83341 0.55244
 C630 C 0.69655 0.91698 0.48877
 C631 C 0.76069 0.83387 0.44640
 C632 C 0.80260 0.91697 0.51073
 C633 C 0.00870 0.22444 0.40506
 H634 H 0.02200 0.23305 0.40582
 C635 C 0.00592 0.20873 0.41789
 H636 H 0.01713 0.20514 0.42855
 C637 C -0.02233 0.21873 0.39043
 H638 H -0.03344 0.22285 0.37994
 C639 C -0.02570 0.20291 0.40300
 H640 H -0.03930 0.19477 0.40201
 N641 N -0.00524 0.22899 0.39153
 C642 C 0.02604 0.25987 0.34502
 H643 H 0.01745 0.27318 0.34419
 C644 C 0.04179 0.25704 0.33224
 H645 H 0.04543 0.26823 0.32156
 C646 C 0.03165 0.22885 0.35973
 H647 H 0.02747 0.21776 0.37022
 C648 C 0.04751 0.22544 0.34722
 H649 H 0.05561 0.21182 0.34826
 Zn650 Zn -0.00045 0.25077 0.37499
 N651 N 0.02142 0.24595 0.35856
 C652 C 0.02139 0.28289 0.39027
 N653 N 0.00429 0.27266 0.39138
 C654 C -0.00970 0.27729 0.40485
 C655 C -0.00693 0.29305 0.41761
 C656 C 0.02474 0.29875 0.40277
 C657 C -0.02680 0.24147 0.34501
 C658 C -0.04251 0.24419 0.33217
 C659 C -0.04834 0.27587 0.34692
 C660 C -0.03252 0.27256 0.35950
 N661 N -0.02225 0.25547 0.35847
 H662 H 0.03254 0.27871 0.37984
 H663 H -0.02301 0.26870 0.40563
 H664 H -0.01817 0.29669 0.42823
 H665 H 0.03837 0.30686 0.40178
 H666 H -0.01819 0.22817 0.34430
 H667 H -0.04609 0.23293 0.32157
 H668 H -0.05647 0.28948 0.34785
 H669 H -0.02840 0.28372 0.36993
 C670 C 0.05264 0.23969 0.33339
 C671 C -0.01142 0.19784 0.41681
 C672 C -0.05340 0.26153 0.33318
 C673 C 0.01043 0.30389 0.41652
 C674 C -0.00927 0.72282 0.09493
 H675 H -0.02259 0.73140 0.09415
 C676 C -0.00651 0.70704 0.08218
 H677 H -0.01775 0.70338 0.07159
 C678 C 0.02182 0.71725 0.10947
 H679 H 0.03297 0.72145 0.11989
 C680 C 0.02517 0.70137 0.09699
 H681 H 0.03880 0.69327 0.09798
 N682 N 0.00471 0.72747 0.10837
 C683 C -0.02639 0.75866 0.15477
 H684 H -0.01779 0.77198 0.15546
 C685 C -0.04210 0.75595 0.16762
 H686 H -0.04570 0.76721 0.17821
 C687 C -0.03207 0.72755 0.14032
 H688 H -0.02795 0.71639 0.12989
 C689 C -0.04790 0.72425 0.15291
 H690 H -0.05603 0.71063 0.15199
 Zn691 Zn -0.00003 0.74937 0.12476
 N692 N -0.02183 0.74466 0.14132
 C693 C -0.02195 0.78138 0.10934
 N694 N -0.00486 0.77114 0.10821
 C695 C 0.00906 0.77569 0.09465
 C696 C 0.00626 0.79141 0.08182
 C697 C -0.02534 0.79720 0.09678
 C698 C 0.02649 0.74033 0.15469
 C699 C 0.04226 0.74317 0.16742
 C700 C 0.04795 0.77475 0.15239
 C701 C 0.03207 0.77133 0.13992
 N702 N 0.02184 0.75422 0.14114
 H703 H -0.03305 0.77726 0.11986
 H704 H 0.02237 0.76710 0.09385
 H705 H 0.01746 0.79500 0.07114
 H706 H -0.03895 0.80533 0.09780
 H707 H 0.01790 0.72701 0.15555
 H708 H 0.04591 0.73200 0.17810
 H709 H 0.05605 0.78837 0.15131
 H710 H 0.02788 0.78240 0.12942
 C711 C -0.05298 0.73860 0.16663
 C712 C 0.01085 0.69620 0.08327
 C713 C 0.05310 0.76052 0.16622
 C714 C -0.01108 0.80228 0.08294
 C715 C 0.49110 0.22350 0.59565
 H716 H 0.47781 0.23213 0.59488
 C717 C 0.49383 0.20776 0.58286
 H718 H 0.48260 0.20417 0.57223
 C719 C 0.52214 0.21776 0.61025
 H720 H 0.53327 0.22188 0.62071
 C721 C 0.52546 0.20191 0.59772
 H722 H 0.53905 0.19375 0.59871
 N723 N 0.50507 0.22805 0.60915
 C724 C 0.47393 0.25910 0.65561
 H725 H 0.48256 0.27238 0.65640
 C726 C 0.45817 0.25635 0.66840
 H727 H 0.45457 0.26757 0.67904
 C728 C 0.46822 0.22807 0.64099
 H729 H 0.47235 0.21695 0.63052
 C730 C 0.45235 0.22474 0.65351
 H731 H 0.44419 0.21115 0.65251
 Zn732 Zn 0.50035 0.24988 0.62562
 N733 N 0.47850 0.24514 0.64211
 C734 C 0.47852 0.28199 0.61028
 N735 N 0.49560 0.27173 0.60915
 C736 C 0.50956 0.27632 0.59564
 C737 C 0.50680 0.29206 0.58284
 C738 C 0.47517 0.29785 0.59775
 C739 C 0.52677 0.24064 0.65557
 C740 C 0.54252 0.24339 0.66835
 C741 C 0.54834 0.27502 0.65346
 C742 C 0.53247 0.27169 0.64095
 N743 N 0.52220 0.25461 0.64207
 H744 H 0.46739 0.27785 0.62075
 H745 H 0.52286 0.26771 0.59485
 H746 H 0.51802 0.29567 0.57219
 H747 H 0.46156 0.30598 0.59875
 H748 H 0.51815 0.22735 0.65636
 H749 H 0.54612 0.23216 0.67899
 H750 H 0.55648 0.28861 0.65245
 H751 H 0.52834 0.28282 0.63048
 C752 C 0.44726 0.23903 0.66729
 C753 C 0.51115 0.19684 0.58395
 C754 C 0.55342 0.26071 0.66724
 C755 C 0.48946 0.30294 0.58395
 C756 C 0.50889 0.72324 0.90510
 H757 H 0.52222 0.73182 0.90584
 C758 C 0.50612 0.70750 0.91790
 H759 H 0.51737 0.70385 0.92850
 C760 C 0.47779 0.71766 0.89059
 H761 H 0.46664 0.72184 0.88016
 C762 C 0.47443 0.70180 0.90313
 H763 H 0.46080 0.69371 0.90217
 N764 N 0.49491 0.72787 0.89165
 C765 C 0.52606 0.75891 0.84516
 H766 H 0.51748 0.77224 0.84442
 C767 C 0.54177 0.75614 0.83232
 H768 H 0.54539 0.76737 0.82169
 C769 C 0.53168 0.72783 0.85971
 H770 H 0.52753 0.71669 0.87017
 C771 C 0.54750 0.72446 0.84714
 H772 H 0.55560 0.71084 0.84809
 Zn773 Zn 0.49967 0.74972 0.87519
 N774 N 0.52147 0.74494 0.85866
 C775 C 0.52163 0.78173 0.89053
 N776 N 0.50451 0.77152 0.89166
 C777 C 0.49058 0.77612 0.90520
 C778 C 0.49340 0.79183 0.91800
 C779 C 0.52504 0.79755 0.90308
 C780 C 0.47317 0.74061 0.84528
 C781 C 0.45742 0.74344 0.83251
 C782 C 0.45176 0.77508 0.84740
 C783 C 0.46761 0.77167 0.85990
 N784 N 0.47781 0.75454 0.85878
 H785 H 0.53273 0.77757 0.88004
 H786 H 0.47725 0.76755 0.90599
 H787 H 0.48220 0.79545 0.92867
 H788 H 0.53867 0.80565 0.90206
 H789 H 0.48173 0.72728 0.84448
 H790 H 0.45376 0.73223 0.82187
 H791 H 0.44368 0.78871 0.84840
 H792 H 0.47181 0.78277 0.87036
 C793 C 0.55261 0.73877 0.83336
 C794 C 0.48875 0.69666 0.91686
 C795 C 0.44660 0.76081 0.83362
 C796 C 0.51077 0.80266 0.91689
 C797 C 0.16037 0.21823 0.24698
 C798 C 0.14674 0.22094 0.25791
 C799 C 0.13048 0.22418 0.27096
 C800 C 0.12655 0.21079 0.28604
 C801 C 0.11074 0.21394 0.29872
 C802 C 0.09880 0.23050 0.29638
 C803 C 0.10274 0.24389 0.28130
 C804 C 0.11855 0.24074 0.26861
 C805 C 0.08253 0.23373 0.30942
 C806 C 0.06891 0.23645 0.32035
 H807 H 0.13568 0.19795 0.28798
 H808 H 0.10782 0.20350 0.31033
 H809 H 0.09360 0.25673 0.27935
 H810 H 0.12146 0.25118 0.25700
 C811 C 0.66020 0.71772 0.74668
 C812 C 0.64658 0.72039 0.75764
 C813 C 0.63034 0.72357 0.77072
 C814 C 0.62612 0.70985 0.78542
 C815 C 0.61032 0.71294 0.79814
 C816 C 0.59869 0.72976 0.79621
 C817 C 0.60291 0.74347 0.78150
 C818 C 0.61870 0.74038 0.76878
 C819 C 0.58244 0.73293 0.80929
 C820 C 0.56884 0.73559 0.82026
 H821 H 0.63502 0.69680 0.78705
 H822 H 0.60719 0.70224 0.80946
 H823 H 0.59400 0.75653 0.77988
 H824 H 0.62183 0.75108 0.75746
 C825 C 0.33902 0.78229 0.74713
 C826 C 0.35262 0.77957 0.75808
 C827 C 0.36887 0.77633 0.77113
 C828 C 0.37277 0.78971 0.78621
 C829 C 0.38855 0.78656 0.79891
 C830 C 0.40050 0.77001 0.79658
 C831 C 0.39660 0.75663 0.78150
 C832 C 0.38081 0.75978 0.76880
 C833 C 0.41674 0.76676 0.80964
 C834 C 0.43035 0.76405 0.82057
 H835 H 0.36362 0.80255 0.78815
 H836 H 0.39144 0.79700 0.81052
 H837 H 0.40574 0.74379 0.77957
 H838 H 0.37793 0.74935 0.75719
 C839 C -0.16078 0.28234 0.24629
 C840 C -0.14720 0.27969 0.25728
 C841 C -0.13099 0.27654 0.27040
 C842 C -0.12733 0.28986 0.28559
 C843 C -0.11157 0.28680 0.29835
 C844 C -0.09942 0.27042 0.29597
 C845 C -0.10308 0.25710 0.28077
 C846 C -0.11884 0.26015 0.26802
 C847 C -0.08321 0.26728 0.30909
 C848 C -0.06962 0.26465 0.32008
 H849 H -0.13663 0.30258 0.28757
 H850 H -0.10887 0.29720 0.31005
 H851 H -0.09378 0.24438 0.27880
 H852 H -0.12154 0.24977 0.25632
 C853 C -0.16076 0.71797 0.25323
 C854 C -0.14710 0.72060 0.24230
 C855 C -0.13081 0.72372 0.22926
 C856 C -0.12643 0.74265 0.22257
 C857 C -0.11061 0.74567 0.20987
 C858 C -0.09911 0.72978 0.20379
 C859 C -0.10348 0.71085 0.21048
 C860 C -0.11930 0.70783 0.22319
 C861 C -0.08284 0.73288 0.19071
 C862 C -0.06922 0.73548 0.17973
 H863 H -0.13524 0.75504 0.22717
 H864 H -0.10736 0.76036 0.20478
 H865 H -0.09467 0.69846 0.20588
 H866 H -0.12255 0.69313 0.22827
 C867 C 0.33917 0.21819 0.75344
 C868 C 0.35285 0.22083 0.74256
 C869 C 0.36918 0.22398 0.72956
 C870 C 0.36916 0.21561 0.71081
 C871 C 0.38503 0.21867 0.69817
 C872 C 0.40097 0.23011 0.70423
 C873 C 0.40099 0.23848 0.72298
 C874 C 0.38512 0.23543 0.73562
 C875 C 0.41729 0.23326 0.69123
 C876 C 0.43096 0.23589 0.68032
 H877 H 0.35691 0.20674 0.70597
 H878 H 0.38487 0.21213 0.68370
 H879 H 0.41324 0.24736 0.72782
 H880 H 0.38528 0.24196 0.75009
 C881 C 0.66114 0.28173 0.75366
 C882 C 0.64752 0.27905 0.74272
 C883 C 0.63127 0.27587 0.72967
 C884 C 0.61943 0.25922 0.73184
 C885 C 0.60362 0.25613 0.71915
 C886 C 0.59959 0.26968 0.70425
 C887 C 0.61143 0.28633 0.70208
 C888 C 0.62724 0.28941 0.71476
 C889 C 0.58332 0.26651 0.69121
 C890 C 0.56969 0.26386 0.68028
 H891 H 0.62242 0.24865 0.74332
 H892 H 0.59456 0.24320 0.72096
 H893 H 0.60844 0.29690 0.69060
 H894 H 0.63630 0.30234 0.71295
 C895 C 0.16081 0.78218 0.25250
 C896 C 0.14721 0.77944 0.24155
 C897 C 0.13097 0.77616 0.22850
 C898 C 0.12686 0.78967 0.21359
 C899 C 0.11105 0.78648 0.20092
 C900 C 0.09930 0.76978 0.20312
 C901 C 0.10342 0.75626 0.21804
 C902 C 0.11922 0.75945 0.23070
 C903 C 0.08303 0.76651 0.19011
 C904 C 0.06939 0.76378 0.17921
 H905 H 0.13585 0.80264 0.21176
 H906 H 0.10800 0.79702 0.18944
 H907 H 0.09442 0.74330 0.21987
 H908 H 0.12227 0.74891 0.24219
 C909 C 0.24694 0.16080 0.21803
 C910 C 0.25787 0.14719 0.22075
 C911 C 0.27092 0.13093 0.22399
 C912 C 0.26857 0.11899 0.24054
 C913 C 0.28124 0.10317 0.24368
 C914 C 0.29630 0.09922 0.23027
 C915 C 0.29864 0.11116 0.21372
 C916 C 0.28598 0.12698 0.21058
 C917 C 0.30931 0.08294 0.23348
 C918 C 0.32021 0.06928 0.23617
 H919 H 0.25697 0.12191 0.25100
 H920 H 0.27929 0.09403 0.25653
 H921 H 0.31024 0.10824 0.20325
 H922 H 0.28792 0.13612 0.19773
 C923 C 0.74681 0.66042 0.71763
 C924 C 0.75777 0.64683 0.72034
 C925 C 0.77085 0.63059 0.72358
 C926 C 0.76867 0.61880 0.74026
 C927 C 0.78138 0.60302 0.74342
 C928 C 0.79632 0.59897 0.72990
 C929 C 0.79849 0.61076 0.71322
 C930 C 0.78578 0.62654 0.71006
 C931 C 0.80939 0.58273 0.73314
 C932 C 0.82033 0.56912 0.73586
 H933 H 0.75717 0.62180 0.75081
 H934 H 0.77957 0.59399 0.75636
 H935 H 0.80999 0.60776 0.70267
 H936 H 0.78759 0.63557 0.69712
 C937 C 0.74668 0.33914 0.78211
 C938 C 0.75761 0.35278 0.77946
 C939 C 0.77065 0.36906 0.77631
 C940 C 0.78558 0.37305 0.78983
 C941 C 0.79827 0.38886 0.78677
 C942 C 0.79609 0.40075 0.77016
 C943 C 0.78116 0.39677 0.75663
 C944 C 0.76847 0.38095 0.75970
 C945 C 0.80916 0.41702 0.76699
 C946 C 0.82011 0.43064 0.76435
 H947 H 0.78740 0.36394 0.80272
 H948 H 0.80977 0.39181 0.79732
 H949 H 0.77934 0.40587 0.74374
 H950 H 0.75698 0.37800 0.74915
 C951 C 0.24637 -0.16095 0.28195
 C952 C 0.25729 -0.14729 0.27932
 C953 C 0.27033 -0.13100 0.27619
 C954 C 0.26814 -0.11907 0.25961
 C955 C 0.28082 -0.10324 0.25657
 C956 C 0.29575 -0.09928 0.27011
 C957 C 0.29794 -0.11121 0.28669
 C958 C 0.28526 -0.12704 0.28972
 C959 C 0.30882 -0.08301 0.26698
 C960 C 0.31977 -0.06938 0.26436
 H961 H 0.25665 -0.12201 0.24905
 H962 H 0.27900 -0.09412 0.24370
 H963 H 0.30944 -0.10827 0.29724
 H964 H 0.28708 -0.13617 0.30259
 C965 C 0.25339 -0.16089 0.71778
 C966 C 0.24248 -0.14723 0.72045
 C967 C 0.22946 -0.13095 0.72364
 C968 C 0.23189 -0.11890 0.74009
 C969 C 0.21923 -0.10306 0.74319
 C970 C 0.20409 -0.09922 0.72985
 C971 C 0.20167 -0.11127 0.71340
 C972 C 0.21432 -0.12710 0.71030
 C973 C 0.19107 -0.08293 0.73304
 C974 C 0.18015 -0.06929 0.73570
 H975 H 0.24354 -0.12174 0.75050
 H976 H 0.22123 -0.09384 0.75596
 H977 H 0.19001 -0.10842 0.70300
 H978 H 0.21232 -0.13633 0.69754
 C979 C 0.75357 0.33946 0.21759
 C980 C 0.74260 0.35306 0.22024
 C981 C 0.72952 0.36929 0.22343
 C982 C 0.72803 0.38422 0.20939
 C983 C 0.71531 0.40001 0.21249
 C984 C 0.70404 0.40093 0.22964
 C985 C 0.70552 0.38600 0.24368
 C986 C 0.71824 0.37021 0.24057
 C987 C 0.69096 0.41717 0.23284
 C988 C 0.68002 0.43079 0.23553
 H989 H 0.73668 0.38365 0.19608
 H990 H 0.71427 0.41147 0.20154
 H991 H 0.69687 0.38657 0.25699
 H992 H 0.71928 0.35875 0.25152
 C993 C 0.75353 0.66074 0.28164
 C994 C 0.74261 0.64710 0.27900
 C995 C 0.72956 0.63083 0.27585
 C996 C 0.71455 0.62689 0.28932
 C997 C 0.70187 0.61107 0.28625
 C998 C 0.70413 0.59914 0.26970
 C999 C 0.71914 0.60307 0.25622
 C1000 C 0.73183 0.61889 0.25929
 C1001 C 0.69107 0.58288 0.26653
 C1002 C 0.68012 0.56927 0.26387
 H1003 H 0.71267 0.63603 0.30217
 H1004 H 0.69031 0.60816 0.29676
 H1005 H 0.72102 0.59394 0.24337
 H1006 H 0.74339 0.62180 0.24878
 C1007 C 0.25336 0.16099 0.78164
 C1008 C 0.24245 0.14734 0.77897
 C1009 C 0.22943 0.13105 0.77580
 C1010 C 0.23188 0.11898 0.75937
 C1011 C 0.21923 0.10314 0.75629
 C1012 C 0.20408 0.09931 0.76963
 C1013 C 0.20163 0.11138 0.78606
 C1014 C 0.21428 0.12722 0.78914
 C1015 C 0.19106 0.08302 0.76646
 C1016 C 0.18014 0.06937 0.76381
 H1017 H 0.24355 0.12181 0.74897
 H1018 H 0.22125 0.09390 0.74354
 H1019 H 0.18996 0.10855 0.79647
 H1020 H 0.21226 0.13646 0.80190
 C1021 C 0.21777 0.24713 0.16035
 C1022 C 0.22042 0.25804 0.14670
 C1023 C 0.22357 0.27109 0.13041
 C1024 C 0.21004 0.28601 0.12642
 C1025 C 0.21310 0.29870 0.11060
 C1026 C 0.22972 0.29652 0.09871
 C1027 C 0.24325 0.28159 0.10270
 C1028 C 0.24019 0.26890 0.11852
 C1029 C 0.23288 0.30958 0.08245
 C1030 C 0.23552 0.32054 0.06883
 H1031 H 0.19714 0.28783 0.13552
 H1032 H 0.20254 0.31019 0.10764
 H1033 H 0.25615 0.27977 0.09360
 H1034 H 0.25075 0.25741 0.12148
 C1035 C 0.71756 0.74681 0.66009
 C1036 C 0.72022 0.75775 0.64645
 C1037 C 0.72340 0.77081 0.63019
 C1038 C 0.70986 0.78572 0.62617
 C1039 C 0.71295 0.79842 0.61037
 C1040 C 0.72960 0.79627 0.59852
 C1041 C 0.74315 0.78136 0.60254
 C1042 C 0.74005 0.76865 0.61835
 C1043 C 0.73279 0.80935 0.58228
 C1044 C 0.73546 0.82031 0.56867
 H1045 H 0.69693 0.78751 0.63524
 H1046 H 0.70239 0.80990 0.60739
 H1047 H 0.75607 0.77956 0.59348
 H1048 H 0.75062 0.75717 0.62133
 C1049 C 0.78232 0.74751 0.33875
 C1050 C 0.77957 0.75847 0.35233
 C1051 C 0.77628 0.77154 0.36856
 C1052 C 0.75948 0.76947 0.38020
 C1053 C 0.75630 0.78215 0.39600
 C1054 C 0.76991 0.79695 0.40020
 C1055 C 0.78671 0.79902 0.38855
 C1056 C 0.78989 0.78634 0.37276
 C1057 C 0.76665 0.80997 0.41647
 C1058 C 0.76393 0.82087 0.43011
 H1059 H 0.74887 0.75807 0.37708
 H1060 H 0.74326 0.78042 0.40491
 H1061 H 0.79732 0.81042 0.39168
 H1062 H 0.80293 0.78807 0.36385
 C1063 C 0.28211 0.24769 -0.16112
 C1064 C 0.27936 0.25865 -0.14753
 C1065 C 0.27609 0.27171 -0.13131
 C1066 C 0.25930 0.26964 -0.11964
 C1067 C 0.25613 0.28233 -0.10385
 C1068 C 0.26974 0.29713 -0.09966
 C1069 C 0.28653 0.29920 -0.11133
 C1070 C 0.28969 0.28652 -0.12712
 C1071 C 0.26650 0.31016 -0.08339
 C1072 C 0.26379 0.32106 -0.06975
 H1073 H 0.24869 0.25824 -0.12275
 H1074 H 0.24310 0.28059 -0.09492
 H1075 H 0.29714 0.31060 -0.10821
 H1076 H 0.30273 0.28825 -0.13605
 C1077 C 0.71777 0.25247 -0.16057
 C1078 C 0.72050 0.24153 -0.14696
 C1079 C 0.72377 0.22848 -0.13072
 C1080 C 0.74033 0.23083 -0.11881
 C1081 C 0.74351 0.21813 -0.10302
 C1082 C 0.73014 0.20304 -0.09907
 C1083 C 0.71358 0.20069 -0.11098
 C1084 C 0.71039 0.21338 -0.12677
 C1085 C 0.73342 0.18998 -0.08283
 C1086 C 0.73617 0.17905 -0.06922
 H1087 H 0.75076 0.24245 -0.12173
 H1088 H 0.75637 0.22008 -0.09390
 H1089 H 0.70314 0.18907 -0.10806
 H1090 H 0.69754 0.21144 -0.13589
 C1091 C 0.21804 0.75331 0.33917
 C1092 C 0.22071 0.74238 0.35280
 C1093 C 0.22390 0.72932 0.36906
 C1094 C 0.24040 0.73166 0.38105
 C1095 C 0.24350 0.71897 0.39686
 C1096 C 0.23009 0.70390 0.40075
 C1097 C 0.21358 0.70156 0.38875
 C1098 C 0.21049 0.71424 0.37294
 C1099 C 0.23326 0.69085 0.41702
 C1100 C 0.23591 0.67991 0.43064
 H1101 H 0.25086 0.74328 0.37818
 H1102 H 0.25631 0.72091 0.40604
 H1103 H 0.20313 0.68994 0.39163
 H1104 H 0.19768 0.71230 0.36376
 C1105 C 0.28160 0.75334 0.66063
 C1106 C 0.27892 0.74240 0.64702
 C1107 C 0.27574 0.72934 0.63078
 C1108 C 0.28932 0.71446 0.62673
 C1109 C 0.28624 0.70177 0.61093
 C1110 C 0.26957 0.70390 0.59912
 C1111 C 0.25600 0.71877 0.60317
 C1112 C 0.25907 0.73147 0.61897
 C1113 C 0.26642 0.69084 0.58286
 C1114 C 0.26379 0.67990 0.56924
 H1115 H 0.30225 0.71269 0.63577
 H1116 H 0.29683 0.69032 0.60793
 H1117 H 0.24306 0.72055 0.59413
 H1118 H 0.24849 0.74292 0.62197
 C1119 C 0.78295 0.25294 0.16035
 C1120 C 0.78030 0.24198 0.14676
 C1121 C 0.77712 0.22890 0.13053
 C1122 C 0.78955 0.21279 0.12770
 C1123 C 0.78645 0.20006 0.11193
 C1124 C 0.77090 0.20339 0.09893
 C1125 C 0.75847 0.21950 0.10176
 C1126 C 0.76157 0.23223 0.11752
 C1127 C 0.76769 0.19029 0.08272
 C1128 C 0.76500 0.17931 0.06914
 H1129 H 0.80161 0.21008 0.13767
 H1130 H 0.79614 0.18765 0.10988
 H1131 H 0.74641 0.22221 0.09179
 H1132 H 0.75188 0.24464 0.11957
 C1133 C 0.46832 0.41066 0.49748
 C1134 C 0.47099 0.39705 0.50843
 C1135 C 0.47420 0.38079 0.52149
 C1136 C 0.49107 0.36923 0.51958
 C1137 C 0.49418 0.35341 0.53226
 C1138 C 0.48043 0.34910 0.54691
 C1139 C 0.46355 0.36066 0.54882
 C1140 C 0.46045 0.37647 0.53613
 C1141 C 0.48362 0.33283 0.55996
 C1142 C 0.48629 0.31921 0.57089
 H1143 H 0.50180 0.37243 0.50830
 H1144 H 0.50728 0.34457 0.53066
 H1145 H 0.45283 0.35745 0.56009
 H1146 H 0.44735 0.38532 0.53774
 C1147 C -0.03222 0.91016 -0.00333
 C1148 C -0.02956 0.89650 0.00756
 C1149 C -0.02638 0.88019 0.02057
 C1150 C -0.00952 0.86861 0.01862
 C1151 C -0.00642 0.85277 0.03127
 C1152 C -0.02016 0.84845 0.04592
 C1153 C -0.03702 0.86002 0.04786
 C1154 C -0.04013 0.87586 0.03521
 C1155 C -0.01696 0.83217 0.05895
 C1156 C -0.01428 0.81854 0.06988
 H1157 H 0.00121 0.87184 0.00734
 H1158 H 0.00667 0.84392 0.02964
 H1159 H -0.04775 0.85680 0.05914
 H1160 H -0.05321 0.88471 0.03684
 C1161 C 0.03207 0.58844 -0.00306
 C1162 C 0.02937 0.60206 0.00788
 C1163 C 0.02615 0.61831 0.02092
 C1164 C 0.01521 0.63453 0.01465
 C1165 C 0.01209 0.65034 0.02732
 C1166 C 0.01989 0.65000 0.04632
 C1167 C 0.03082 0.63377 0.05259
 C1168 C 0.03394 0.61796 0.03992
 C1169 C 0.01670 0.66627 0.05934
 C1170 C 0.01403 0.67991 0.07025
 H1171 H 0.00912 0.63495 -0.00001
 H1172 H 0.00362 0.66282 0.02232
 H1173 H 0.03692 0.63335 0.06724
 H1174 H 0.04241 0.60549 0.04491
 C1175 C 0.53203 0.08908 0.49755
 C1176 C 0.52937 0.10270 0.50849
 C1177 C 0.52620 0.11896 0.52153
 C1178 C 0.51597 0.13554 0.51503
 C1179 C 0.51290 0.15136 0.52770
 C1180 C 0.52006 0.15066 0.54694
 C1181 C 0.53029 0.13408 0.55345
 C1182 C 0.53335 0.11826 0.54077
 C1183 C 0.51691 0.16693 0.55998
 C1184 C 0.51428 0.18057 0.57091
 H1185 H 0.51038 0.13624 0.50018
 H1186 H 0.50498 0.16411 0.52252
 H1187 H 0.53588 0.13338 0.56830
 H1188 H 0.54129 0.10551 0.54595
 C1189 C -0.03239 0.09002 0.50322
 C1190 C -0.02974 0.10368 0.49231
 C1191 C -0.02656 0.11996 0.47928
 C1192 C -0.01805 0.11689 0.46084
 C1193 C -0.01497 0.13271 0.44816
 C1194 C -0.02040 0.15168 0.45387
 C1195 C -0.02891 0.15476 0.47231
 C1196 C -0.03199 0.13893 0.48499
 C1197 C -0.01724 0.16796 0.44082
 C1198 C -0.01459 0.18159 0.42988
 H1199 H -0.01380 0.10228 0.45627
 H1200 H -0.00838 0.13017 0.43393
 H1201 H -0.03316 0.16937 0.47688
 H1202 H -0.03858 0.14147 0.49922
 C1203 C 0.46777 0.58902 1.00350
 C1204 C 0.47043 0.60264 0.99254
 C1205 C 0.47360 0.61888 0.97946
 C1206 C 0.45997 0.62298 0.96465
 C1207 C 0.46304 0.63877 0.95193
 C1208 C 0.47976 0.65053 0.95397
 C1209 C 0.49340 0.64644 0.96877
 C1210 C 0.49032 0.63064 0.98149
 C1211 C 0.48292 0.66679 0.94088
 C1212 C 0.48558 0.68040 0.92993
 H1213 H 0.44699 0.61398 0.96295
 H1214 H 0.45241 0.64181 0.94054
 H1215 H 0.50638 0.65544 0.97047
 H1216 H 0.50096 0.62761 0.99288
 C1217 C 0.53228 0.91009 1.00353
 C1218 C 0.52955 0.89650 0.99257
 C1219 C 0.52630 0.88029 0.97949
 C1220 C 0.50941 0.86875 0.98139
 C1221 C 0.50625 0.85299 0.96867
 C1222 C 0.51997 0.84870 0.95400
 C1223 C 0.53687 0.86023 0.95210
 C1224 C 0.54003 0.87599 0.96481
 C1225 C 0.51672 0.83248 0.94092
 C1226 C 0.51401 0.81889 0.92996
 H1227 H 0.49870 0.87195 0.99269
 H1228 H 0.49313 0.84417 0.97028
 H1229 H 0.54758 0.85704 0.94080
 H1230 H 0.55314 0.88482 0.96321
 C1231 C 0.03180 0.41133 0.50319
 C1232 C 0.02906 0.39776 0.49220
 C1233 C 0.02581 0.38157 0.47910
 C1234 C 0.00884 0.37013 0.48088
 C1235 C 0.00570 0.35437 0.46815
 C1236 C 0.01951 0.34999 0.45359
 C1237 C 0.03648 0.36143 0.45180
 C1238 C 0.03962 0.37719 0.46453
 C1239 C 0.01630 0.33375 0.44052
 C1240 C 0.01361 0.32015 0.42957
 H1241 H -0.00193 0.37338 0.49210
 H1242 H -0.00747 0.34561 0.46967
 H1243 H 0.04726 0.35817 0.44059
 H1244 H 0.05280 0.38595 0.46302
 C1245 C 0.41093 0.49717 0.46831
 C1246 C 0.39731 0.50812 0.47096
 C1247 C 0.38105 0.52119 0.47411
 C1248 C 0.36926 0.51911 0.49081
 C1249 C 0.35344 0.53180 0.49387
 C1250 C 0.34935 0.54662 0.48024
 C1251 C 0.36115 0.54869 0.46354
 C1252 C 0.37696 0.53600 0.46049
 C1253 C 0.33307 0.55966 0.48337
 C1254 C 0.31942 0.57058 0.48600
 H1255 H 0.37229 0.50770 0.50144
 H1256 H 0.34442 0.53006 0.50683
 H1257 H 0.35811 0.56010 0.45291
 H1258 H 0.38599 0.53774 0.44752
 C1259 C 0.91139 -0.00379 -0.03231
 C1260 C 0.89779 0.00718 -0.02960
 C1261 C 0.88156 0.02026 -0.02638
 C1262 C 0.87598 0.03354 -0.04103
 C1263 C 0.86020 0.04625 -0.03790
 C1264 C 0.84992 0.04573 -0.02012
 C1265 C 0.85549 0.03245 -0.00547
 C1266 C 0.87128 0.01974 -0.00860
 C1267 C 0.83367 0.05880 -0.01691
 C1268 C 0.82005 0.06974 -0.01422
 H1269 H 0.88383 0.03406 -0.05483
 H1270 H 0.85601 0.05646 -0.04933
 H1271 H 0.84765 0.03193 0.00833
 H1272 H 0.87546 0.00953 0.00283
 C1273 C 0.58997 -0.00362 0.03270
 C1274 C 0.60362 0.00728 0.03001
 C1275 C 0.61991 0.02030 0.02680
 C1276 C 0.62005 0.03893 0.03545
 C1277 C 0.63588 0.05159 0.03231
 C1278 C 0.65163 0.04568 0.02052
 C1279 C 0.65149 0.02705 0.01187
 C1280 C 0.63566 0.01439 0.01501
 C1281 C 0.66790 0.05872 0.01727
 C1282 C 0.68153 0.06964 0.01455
 H1283 H 0.60795 0.04365 0.04459
 H1284 H 0.63584 0.06597 0.03907
 H1285 H 0.66359 0.02234 0.00272
 H1286 H 0.63570 0.00002 0.00825
 C1287 C 0.08937 0.49671 0.53176
 C1288 C 0.10300 0.50765 0.52909
 C1289 C 0.11926 0.52072 0.52592
 C1290 C 0.12330 0.53558 0.53949
 C1291 C 0.13909 0.54829 0.53641
 C1292 C 0.15092 0.54619 0.51973
 C1293 C 0.14688 0.53132 0.50616
 C1294 C 0.13108 0.51861 0.50925
 C1295 C 0.16716 0.55928 0.51656
 C1296 C 0.18077 0.57025 0.51391
 H1297 H 0.11425 0.53734 0.55243
 H1298 H 0.14209 0.55974 0.54699
 H1299 H 0.15592 0.52956 0.49322
 H1300 H 0.12808 0.50716 0.49866
 C1301 C 0.08862 0.50359 -0.03175
 C1302 C 0.10226 0.49267 -0.02912
 C1303 C 0.11854 0.47962 -0.02599
 C1304 C 0.13036 0.48172 -0.00933
 C1305 C 0.14619 0.46904 -0.00630
 C1306 C 0.15027 0.45422 -0.01991
 C1307 C 0.13845 0.45212 -0.03657
 C1308 C 0.12262 0.46480 -0.03961
 C1309 C 0.16655 0.44118 -0.01680
 C1310 C 0.18019 0.43024 -0.01419
 H1311 H 0.12734 0.49313 0.00129
 H1312 H 0.15524 0.47079 0.00663
 H1313 H 0.14147 0.44071 -0.04720
 H1314 H 0.11357 0.46305 -0.05254
 C1315 C 0.58868 1.00336 0.46810
 C1316 C 0.60232 0.99244 0.47073
 C1317 C 0.61861 0.97940 0.47385
 C1318 C 0.63046 0.98153 0.49048
 C1319 C 0.64630 0.96886 0.49351
 C1320 C 0.65034 0.95400 0.47992
 C1321 C 0.63848 0.95187 0.46329
 C1322 C 0.62265 0.96454 0.46026
 C1323 C 0.66663 0.94096 0.48303
 C1324 C 0.68027 0.93003 0.48565
 H1325 H 0.62747 0.99297 0.50108
 H1326 H 0.65537 0.97064 0.50642
 H1327 H 0.64148 0.94043 0.45269
 H1328 H 0.61358 0.96277 0.44735
 C1329 C 0.91029 1.00337 0.53218
 C1330 C 0.89666 0.99245 0.52949
 C1331 C 0.88040 0.97941 0.52626
 C1332 C 0.87634 0.96445 0.53974
 C1333 C 0.86054 0.95177 0.53660
 C1334 C 0.84872 0.95400 0.51995
 C1335 C 0.85277 0.96897 0.50646
 C1336 C 0.86858 0.98164 0.50961
 C1337 C 0.83247 0.94095 0.51670
 C1338 C 0.81885 0.93002 0.51397
 H1339 H 0.88539 0.96259 0.55266
 H1340 H 0.85754 0.94024 0.54711
 H1341 H 0.84373 0.97082 0.49354
 H1342 H 0.87159 0.99316 0.49909
 C1343 C 0.41040 0.50345 0.03203
 C1344 C 0.39675 0.49254 0.02936
 C1345 C 0.38047 0.47953 0.02615
 C1346 C 0.36865 0.48175 0.00950
 C1347 C 0.35282 0.46909 0.00638
 C1348 C 0.34874 0.45417 0.01990
 C1349 C 0.36055 0.45195 0.03655
 C1350 C 0.37638 0.46460 0.03967
 C1351 C 0.33246 0.44115 0.01668
 C1352 C 0.31882 0.43023 0.01398
 H1353 H 0.37168 0.49324 -0.00105
 H1354 H 0.34379 0.47094 -0.00655
 H1355 H 0.35752 0.44046 0.04709
 H1356 H 0.38542 0.46276 0.05260
 C1357 C 0.49737 0.46793 0.41082
 C1358 C 0.50829 0.47058 0.39717
 C1359 C 0.52132 0.47376 0.38087
 C1360 C 0.51900 0.49030 0.36891
 C1361 C 0.53166 0.49339 0.35307
 C1362 C 0.54669 0.47996 0.34913
 C1363 C 0.54901 0.46342 0.36109
 C1364 C 0.53635 0.46032 0.37693
 C1365 C 0.55972 0.48314 0.33284
 C1366 C 0.57064 0.48582 0.31919
 H1367 H 0.50742 0.50078 0.37183
 H1368 H 0.52974 0.50623 0.34392
 H1369 H 0.56058 0.45293 0.35817
 H1370 H 0.53827 0.44748 0.38609
 C1371 C -0.00297 -0.03217 0.91035
 C1372 C 0.00798 -0.02947 0.89674
 C1373 C 0.02107 -0.02626 0.88050
 C1374 C 0.01880 -0.00969 0.86856
 C1375 C 0.03152 -0.00657 0.85278
 C1376 C 0.04656 -0.02001 0.84887
 C1377 C 0.04884 -0.03657 0.86081
 C1378 C 0.03611 -0.03969 0.87659
 C1379 C 0.05965 -0.01680 0.83262
 C1380 C 0.07062 -0.01412 0.81902
 H1381 H 0.00722 0.00078 0.87146
 H1382 H 0.02964 0.00628 0.84364
 H1383 H 0.06042 -0.04705 0.85791
 H1384 H 0.03800 -0.05255 0.88573
 C1385 C -0.00301 0.03224 0.58940
 C1386 C 0.00798 0.02953 0.60296
 C1387 C 0.02110 0.02629 0.61916
 C1388 C 0.01858 0.00994 0.63134
 C1389 C 0.03132 0.00681 0.64709
 C1390 C 0.04663 0.02002 0.65073
 C1391 C 0.04914 0.03637 0.63854
 C1392 C 0.03640 0.03950 0.62279
 C1393 C 0.05972 0.01682 0.66695
 C1394 C 0.07068 0.01415 0.68055
 H1395 H 0.00679 -0.00036 0.62866
 H1396 H 0.02925 -0.00588 0.65643
 H1397 H 0.06093 0.04668 0.64122
 H1398 H 0.03848 0.05219 0.61346
 C1399 C 0.49704 0.53239 0.08929
 C1400 C 0.50798 0.52969 0.10289
 C1401 C 0.52104 0.52647 0.11914
 C1402 C 0.51847 0.51013 0.13133
 C1403 C 0.53117 0.50700 0.14712
 C1404 C 0.54648 0.52019 0.15079
 C1405 C 0.54904 0.53653 0.13860
 C1406 C 0.53635 0.53966 0.12280
 C1407 C 0.55954 0.51697 0.16703
 C1408 C 0.57049 0.51427 0.18063
 H1409 H 0.50668 0.49984 0.12863
 H1410 H 0.52905 0.49432 0.15646
 H1411 H 0.56084 0.54682 0.14130
 H1412 H 0.53847 0.55234 0.11347
 C1413 C 0.50329 -0.03252 0.09006
 C1414 C 0.49233 -0.02982 0.10367
 C1415 C 0.47924 -0.02661 0.11990
 C1416 C 0.46568 -0.04111 0.12522
 C1417 C 0.45295 -0.03799 0.14099
 C1418 C 0.45372 -0.02036 0.15150
 C1419 C 0.46727 -0.00587 0.14618
 C1420 C 0.48001 -0.00899 0.13041
 C1421 C 0.44061 -0.01716 0.16773
 C1422 C 0.42963 -0.01446 0.18131
 H1423 H 0.46496 -0.05479 0.11719
 H1424 H 0.44252 -0.04929 0.14499
 H1425 H 0.46799 0.00781 0.15421
 H1426 H 0.49043 0.00232 0.12641
 C1427 C 1.00296 0.46756 0.58937
 C1428 C 0.99207 0.47022 0.60304
 C1429 C 0.97907 0.47340 0.61935
 C1430 C 0.96410 0.45992 0.62339
 C1431 C 0.95145 0.46303 0.63923
 C1432 C 0.95373 0.47963 0.65110
 C1433 C 0.96871 0.49311 0.64707
 C1434 C 0.98135 0.49000 0.63123
 C1435 C 0.94070 0.48285 0.66739
 C1436 C 0.92978 0.48554 0.68102
 H1437 H 0.96221 0.44704 0.61430
 H1438 H 0.93992 0.45252 0.64222
 H1439 H 0.97060 0.50599 0.65616
 H1440 H 0.99288 0.50052 0.62824
 C1441 C 1.00290 0.53195 0.91108
 C1442 C 0.99198 0.52927 0.89746
 C1443 C 0.97894 0.52607 0.88119
 C1444 C 0.97452 0.50695 0.87516
 C1445 C 0.96185 0.50384 0.85935
 C1446 C 0.95356 0.51984 0.84950
 C1447 C 0.95798 0.53897 0.85553
 C1448 C 0.97065 0.54208 0.87135
 C1449 C 0.94053 0.51664 0.83323
 C1450 C 0.92961 0.51397 0.81960
 H1451 H 0.98085 0.49446 0.88268
 H1452 H 0.95853 0.48899 0.85481
 H1453 H 0.95165 0.55145 0.84802
 H1454 H 0.97397 0.55693 0.87589
 C1455 C 0.50283 0.03169 0.41111
 C1456 C 0.49187 0.02901 0.39751
 C1457 C 0.47880 0.02583 0.38128
 C1458 C 0.46428 0.03968 0.37688
 C1459 C 0.45158 0.03659 0.36109
 C1460 C 0.45334 0.01964 0.34964
 C1461 C 0.46785 0.00579 0.35404
 C1462 C 0.48056 0.00888 0.36983
 C1463 C 0.44028 0.01647 0.33339
 C1464 C 0.42934 0.01381 0.31977
 H1465 H 0.46279 0.05284 0.38564
 H1466 H 0.44040 0.04740 0.35782
 H1467 H 0.46934 -0.00737 0.34527
 H1468 H 0.49173 -0.00193 0.37310
   
