data_POSCAR
  _audit_creation_date              2014-09-24
  _audit_creation_method            'ToBaCCo'
  _symmetry_space_group_name_H-M    'P1'
  _symmetry_Int_Tables_number       1
  _symmetry_cell_setting            triclinic
  loop_
  _symmetry_equiv_pos_as_xyz
 x,y,z
_cell_length_a 48.1045
_cell_length_b 48.0946
_cell_length_c 49.0833
_cell_angle_alpha 90.274800
_cell_angle_beta 90.513800
_cell_angle_gamma 89.792000
loop_
  _atom_site_label
  _atom_site_type_symbol
  _atom_site_fract_x
  _atom_site_fract_y
  _atom_site_fract_z
N1 N 0.35019 1.35479 0.34972
 N2 N 0.34889 0.85011 0.84074
 N3 N 0.84070 1.34624 0.83311
 N4 N 0.86128 0.85607 0.35204
 N5 N 0.66484 0.65944 0.33658
 N6 N 0.63937 0.13573 0.85079
 N7 N 1.15912 0.65755 0.84656
 N8 N 1.15963 0.16452 0.33603
 N9 N 0.65508 1.34991 0.65617
 N10 N 0.64339 0.84818 1.15373
 N11 N 1.15099 1.35041 1.14943
 N12 N 1.15239 0.85278 0.65691
 N13 N 0.34804 0.66107 0.65898
 N14 N 0.33882 0.15708 1.16396
 N15 N 0.84383 0.65747 1.15812
 N16 N 0.85325 0.15575 0.65423
 N17 N 1.35610 0.35074 0.64955
 N18 N 1.35315 0.85463 1.14376
 N19 N 0.83412 0.33865 1.16478
 N20 N 0.85840 0.86255 0.64796
 N21 N 0.64459 0.64346 0.65400
 N22 N 0.66253 1.15802 1.16598
 N23 N 0.16337 0.65951 1.15976
 N24 N 0.15301 1.14749 0.65805
 N25 N 1.34539 0.65543 0.34284
 N26 N 1.34250 1.15138 0.83793
 N27 N 0.84594 0.65368 0.84345
 N28 N 0.85972 1.14505 0.35093
 N29 N 0.66335 0.33929 0.33900
 N30 N 0.64275 0.84614 0.84581
 N31 N 0.15157 0.34610 0.84875
 N32 N 0.14592 0.84772 0.34703
 O33 O 0.97638 0.89674 0.86972
 O34 O 0.97795 0.86386 0.83827
 C35 C 0.96794 0.88657 0.84725
 C36 C 0.94607 0.90117 0.83154
 C37 C 0.94026 0.89339 0.80456
 H38 H 0.95197 0.87658 0.79536
 O39 O 1.02097 1.09926 0.86539
 O40 O 1.02038 1.13044 0.83262
 C41 C 1.03079 1.10868 0.84339
 C42 C 1.05510 1.09495 0.83045
 C43 C 1.06609 1.10625 0.80663
 H44 H 1.05590 1.12391 0.79717
 O45 O 0.85967 0.96511 0.90042
 O46 O 0.82846 0.96384 0.86727
 C47 C 0.83788 0.95468 0.88973
 C48 C 0.82370 0.93111 0.90294
 C49 C 0.79965 0.91984 0.89112
 H50 H 0.79074 0.92941 0.87308
 O51 O 1.13716 1.02995 0.90463
 O52 O 1.16947 1.03083 0.87311
 C53 C 1.15897 1.04067 0.89485
 C54 C 1.17130 1.06561 0.90831
 C55 C 1.19540 1.07814 0.89799
 H56 H 1.20577 1.06885 0.88067
 O57 O 0.89996 0.85892 0.97495
 O58 O 0.87007 0.82425 0.97504
 C59 C 0.89230 0.83518 0.96647
 C60 C 0.90890 0.82035 0.94590
 C61 C 0.90138 0.79345 0.93786
 H62 H 0.88394 0.78336 0.94747
 O63 O 1.08884 1.14229 0.97362
 O64 O 1.11936 1.17639 0.97447
 C65 C 1.09729 1.16555 0.96492
 C66 C 1.08187 1.17983 0.94292
 C67 C 1.08944 1.20666 0.93513
 H68 H 1.10612 1.21716 0.94595
 O69 O 0.89657 1.02102 0.86446
 O70 O 0.86510 1.01904 0.83156
 C71 C 0.88687 1.02973 0.84186
 C72 C 0.90030 1.05305 0.82758
 C73 C 0.88899 1.06263 0.80292
 H74 H 0.87134 1.05207 0.79380
 O75 O 1.10137 0.97343 0.86792
 O76 O 1.13333 0.97385 0.83603
 C77 C 1.11132 0.96360 0.84600
 C78 C 1.09763 0.93927 0.83283
 C79 C 1.10802 0.92755 0.80854
 H80 H 1.12563 0.93691 0.79853
 O81 O 1.03018 0.86011 0.90896
 O82 O 1.03154 0.82681 0.87793
 C83 C 1.04021 0.83735 0.90019
 C84 C 1.06265 0.82350 0.91580
 C85 C 1.07259 0.79722 0.90798
 H86 H 1.06308 0.78644 0.89087
 O87 O 0.96399 1.13772 0.89841
 O88 O 0.96340 1.16910 0.86581
 C89 C 0.95391 1.15979 0.88803
 C90 C 0.93066 1.17422 0.90198
 C91 C 0.92033 1.20008 0.89291
 H92 H 0.92980 1.21015 0.87563
 O93 O 0.85792 1.09565 0.96962
 O94 O 0.82414 1.12678 0.96878
 C95 C 0.83499 1.10435 0.95999
 C96 C 0.82101 1.08886 0.93782
 C97 C 0.79616 1.09909 0.92690
 H98 H 0.78656 1.11736 0.93582
 O99 O 1.14020 0.90306 0.97760
 O100 O 1.17348 0.87147 0.97929
 C101 C 1.16287 0.89310 0.96853
 C102 C 1.17662 0.90634 0.94481
 C103 C 1.20029 0.89408 0.93310
 H104 H 1.20915 0.87552 0.94214
 O105 O 0.96659 1.09789 0.86281
 O106 O 0.96570 1.12895 0.82993
 C107 C 0.95694 1.10642 0.84018
 C108 C 0.93460 1.09041 0.82635
 C109 C 0.92305 1.09953 0.80149
 H110 H 0.93127 1.11783 0.79166
 O111 O 1.03052 0.89748 0.87109
 O112 O 1.03192 0.86423 0.84002
 C113 C 1.04067 0.88730 0.84939
 C114 C 1.06324 0.90196 0.83505
 C115 C 1.07392 0.89068 0.81095
 H116 H 1.06470 0.87205 0.80236
 O117 O 1.13997 0.97513 0.90492
 O118 O 1.17215 0.97556 0.87328
 C119 C 1.16261 0.96569 0.89529
 C120 C 1.17704 0.94210 0.90926
 C121 C 1.20101 0.92957 0.89809
 H122 H 1.21003 0.93796 0.87974
 O123 O 0.85797 1.01952 0.90071
 O124 O 0.82649 1.01833 0.86779
 C125 C 0.83551 1.02846 0.89015
 C126 C 0.82070 1.05176 0.90361
 C127 C 0.79566 1.06250 0.89279
 H128 H 0.78611 1.05298 0.87500
 O129 O 0.89222 1.13686 0.96953
 O130 O 0.85855 1.16812 0.96897
 C131 C 0.88149 1.15899 0.95994
 C132 C 0.89552 1.17380 0.93758
 C133 C 0.88555 1.19959 0.92842
 H134 H 0.86761 1.20878 0.93816
 O135 O 1.10270 0.86473 0.98066
 O136 O 1.13582 0.83295 0.98261
 C137 C 1.11285 0.84169 0.97287
 C138 C 1.09809 0.82550 0.95163
 C139 C 1.10767 0.79913 0.94373
 H140 H 1.12571 0.79026 0.95383
 O141 O 1.09903 1.02786 0.86719
 O142 O 1.13111 1.02863 0.83543
 C143 C 1.10827 1.03763 0.84503
 C144 C 1.09283 1.06041 0.83089
 C145 C 1.10334 1.07222 0.80684
 H146 H 1.12224 1.06409 0.79793
 O147 O 0.89977 0.96699 0.86558
 O148 O 0.86877 0.96520 0.83224
 C149 C 0.89155 0.95704 0.84294
 C150 C 0.90859 0.93550 0.82934
 C151 C 0.90301 0.92741 0.80232
 H152 H 0.88636 0.93746 0.79104
 O153 O 1.01785 1.13987 0.90004
 O154 O 1.01749 1.17132 0.86749
 C155 C 1.02657 1.16262 0.89031
 C156 C 1.04785 1.17849 0.90575
 C157 C 1.05615 1.20530 0.89776
 H158 H 1.04665 1.21503 0.88010
 O159 O 0.97615 0.85842 0.90666
 O160 O 0.97753 0.82537 0.87538
 C161 C 0.96744 0.83538 0.89714
 C162 C 0.94506 0.82042 0.91138
 C163 C 0.93667 0.79365 0.90299
 H164 H 0.94684 0.78345 0.88604
 O165 O 1.12958 1.10645 0.97321
 O166 O 1.16009 1.14054 0.97358
 C167 C 1.15167 1.11737 0.96411
 C168 C 1.16737 1.10327 0.94192
 C169 C 1.19160 1.11528 0.93141
 H170 H 1.19951 1.13413 0.94068
 O171 O 0.85839 0.89322 0.97173
 O172 O 0.82828 0.85879 0.97124
 C173 C 0.83688 0.88167 0.96160
 C174 C 0.82271 0.89504 0.93791
 C175 C 0.79831 0.88400 0.92575
 H176 H 0.78873 0.86562 0.93413
 Cu177 Cu 1.00312 0.88146 0.89231
 Cu178 Cu 1.00488 0.84177 0.85471
 Cu179 Cu 0.99234 1.11559 0.88492
 Cu180 Cu 0.99173 1.15291 0.84549
 Cu181 Cu 0.88156 0.99328 0.88618
 Cu182 Cu 0.84399 0.99133 0.84646
 Cu183 Cu 1.11631 1.00150 0.88934
 Cu184 Cu 1.15477 1.00232 0.85137
 C185 C 0.93039 0.92246 0.84367
 H186 H 0.93467 0.92834 0.86463
 C187 C 0.91904 0.90663 0.78966
 C188 C 1.06854 1.07191 0.84246
 H189 H 1.06051 1.06342 0.86120
 C190 C 1.09033 1.09546 0.79496
 C191 C 0.83493 0.91875 0.92635
 H192 H 0.85380 0.92725 0.93517
 C193 C 0.78691 0.89625 0.90203
 C194 C 1.15756 1.07833 0.93035
 H195 H 1.13871 1.06915 0.93811
 C196 C 1.20560 1.10318 0.90916
 C197 C 0.93110 0.83350 0.93298
 H198 H 0.93688 0.85437 0.93912
 C199 C 0.91506 0.77997 0.91649
 C200 C 1.06074 1.16611 0.92849
 H201 H 1.05500 1.14525 0.93443
 C202 C 1.07665 1.21965 0.91276
 C203 C 0.92320 1.06694 0.83910
 H204 H 0.93161 1.05995 0.85845
 C205 C 0.89997 1.08594 0.78994
 C206 C 1.07507 0.92635 0.84577
 H207 H 1.06715 0.93487 0.86465
 C208 C 1.09646 0.90298 0.79777
 C209 C 1.07530 0.83729 0.93785
 H210 H 1.06805 0.85783 0.94362
 C211 C 1.09494 0.78480 0.92198
 C212 C 0.91823 1.16151 0.92447
 H213 H 0.92578 1.14148 0.93138
 C214 C 0.89799 1.21317 0.90633
 C215 C 0.83306 1.06502 0.92630
 H216 H 0.85261 1.05735 0.93447
 C217 C 0.78367 1.08648 0.90421
 C218 C 1.16527 0.93036 0.93276
 H219 H 1.14669 0.93955 0.94132
 C220 C 1.21251 0.90528 0.90963
 O221 O 1.02567 0.90638 1.13977
 O222 O 1.02613 0.87479 1.17218
 C223 C 1.03520 0.89735 1.16230
 C224 C 1.05771 0.91291 1.17646
 C225 C 1.06781 0.90472 1.20224
 H226 H 1.05848 0.88724 1.21254
 O227 O 0.96265 1.09914 1.13409
 O228 O 0.96053 1.13142 1.16609
 C229 C 0.95224 1.10847 1.15600
 C230 C 0.93006 1.09252 1.16955
 C231 C 0.92182 1.09910 1.19624
 H232 H 0.93212 1.11573 1.20730
 O233 O 0.85460 1.02185 1.09103
 O234 O 0.82174 1.02227 1.12211
 C235 C 0.83172 1.03114 1.09990
 C236 C 0.81693 1.05322 1.08494
 C237 C 0.79058 1.06165 1.09346
 H238 H 0.78075 1.05099 1.11019
 O239 O 1.13525 0.98196 1.10129
 O240 O 1.16787 0.98419 1.13310
 C241 C 1.15858 0.97413 1.11085
 C242 C 1.17479 0.95280 1.09613
 C243 C 1.20205 0.94631 1.10433
 H244 H 1.21138 0.95733 1.12136
 O245 O 1.10418 0.86723 1.03360
 O246 O 1.13772 0.83594 1.03576
 C247 C 1.11476 0.84557 1.04438
 C248 C 1.10039 0.83198 1.06751
 C249 C 1.11157 0.80804 1.08015
 H250 H 1.13056 0.79871 1.07261
 O251 O 0.89297 1.13648 1.02276
 O252 O 0.85917 1.16759 1.02209
 C253 C 0.88210 1.15872 1.03176
 C254 C 0.89590 1.17390 1.05427
 C255 C 0.88572 1.19975 1.06312
 H256 H 0.86789 1.20886 1.05288
 O257 O 0.89301 0.97023 1.13095
 O258 O 0.86015 0.97065 1.16203
 C259 C 0.88330 0.96165 1.15330
 C260 C 0.89881 0.94070 1.16915
 C261 C 0.88867 0.93173 1.19421
 H262 H 0.87010 0.94126 1.20244
 O263 O 1.09449 1.03420 1.13815
 O264 O 1.12675 1.03633 1.17032
 C265 C 1.10356 1.04427 1.16047
 C266 C 1.08708 1.06576 1.17472
 C267 C 1.09565 1.07628 1.20017
 H268 H 1.11419 1.06804 1.20994
 O269 O 0.97361 0.86658 1.10043
 O270 O 0.97418 0.83473 1.13259
 C271 C 0.96472 0.84385 1.11002
 C272 C 0.94268 0.82807 1.09531
 C273 C 0.93497 0.80172 1.10464
 H274 H 0.94557 0.79296 1.12218
 O275 O 1.01664 1.13838 1.09862
 O276 O 1.01450 1.17106 1.13022
 C277 C 1.02492 1.16142 1.10837
 C278 C 1.04722 1.17692 1.09445
 C279 C 1.05561 1.20301 1.10432
 H280 H 1.04536 1.21198 1.12187
 O281 O 0.85706 0.89574 1.02475
 O282 O 0.82706 0.86117 1.02464
 C283 C 0.83504 0.88464 1.03359
 C284 C 0.81933 0.89861 1.05538
 C285 C 0.79503 0.88675 1.06557
 H286 H 0.78662 0.86827 1.05593
 O287 O 1.12892 1.10564 1.02636
 O288 O 1.15963 1.13960 1.02666
 C289 C 1.15094 1.11660 1.03584
 C290 C 1.16600 1.10328 1.05858
 C291 C 1.19064 1.11506 1.06854
 H292 H 1.19965 1.13258 1.05807
 O293 O 1.01675 1.10174 1.13701
 O294 O 1.01456 1.13427 1.16876
 C295 C 1.02519 1.11202 1.15948
 C296 C 1.04827 1.09852 1.17442
 C297 C 1.05690 1.10862 1.19997
 H298 H 1.04588 1.12589 1.20917
 O299 O 0.97135 0.90386 1.13861
 O300 O 0.97175 0.87214 1.17090
 C301 C 0.96154 0.89405 1.16051
 C302 C 0.93726 0.90777 1.17318
 C303 C 0.92674 0.89883 1.19835
 H304 H 0.93709 0.88227 1.20942
 O305 O 1.13208 1.03576 1.10081
 O306 O 1.16452 1.03813 1.13279
 C307 C 1.15417 1.04655 1.11038
 C308 C 1.16750 1.06947 1.09546
 C309 C 1.19213 1.08171 1.10532
 H310 H 1.20192 1.07392 1.12374
 O311 O 0.85329 0.96790 1.09499
 O312 O 0.82039 0.96834 1.12600
 C313 C 0.83072 0.95829 1.10441
 C314 C 0.81710 0.93462 1.09039
 C315 C 0.79266 0.92251 1.10048
 H316 H 0.78273 0.93124 1.11832
 O317 O 1.08987 1.14263 1.02701
 O318 O 1.12055 1.17660 1.02764
 C319 C 1.09863 1.16553 1.03690
 C320 C 1.08346 1.17898 1.05979
 C321 C 1.09191 1.20492 1.07041
 H322 H 1.10933 1.21569 1.06150
 O323 O 0.89816 0.86111 1.02774
 O324 O 0.86840 0.82634 1.02794
 C325 C 0.89005 0.83817 1.03755
 C326 C 0.90587 0.82535 1.06049
 C327 C 0.89837 0.79907 1.07050
 H328 H 0.88118 0.78788 1.06124
 O329 O 1.09694 0.98040 1.13803
 O330 O 1.12929 0.98239 1.17010
 C331 C 1.10704 0.97191 1.16047
 C332 C 1.09288 0.94944 1.17533
 C333 C 1.10236 0.94131 1.20117
 H334 H 1.12001 0.95181 1.21036
 O335 O 0.89048 1.02404 1.13067
 O336 O 0.85767 1.02429 1.16181
 C337 C 0.88035 1.03366 1.15262
 C338 C 0.89504 1.05592 1.16771
 C339 C 0.88722 1.06264 1.19438
 H340 H 0.87028 1.05150 1.20370
 O341 O 0.96271 1.13790 1.09759
 O342 O 0.96047 1.17039 1.12938
 C343 C 0.95231 1.16035 1.10676
 C344 C 0.93012 1.17454 1.09117
 C345 C 0.91971 1.20036 1.09983
 H346 H 0.92869 1.21046 1.11760
 O347 O 1.02813 0.86802 1.10289
 O348 O 1.02852 0.83637 1.13524
 C349 C 1.03845 0.84619 1.11342
 C350 C 1.06290 0.83255 1.10096
 C351 C 1.07457 0.80901 1.11333
 H352 H 1.06486 0.80017 1.13114
 O353 O 1.13985 0.90743 1.03074
 O354 O 1.17364 0.87636 1.03259
 C355 C 1.16293 0.89920 1.04047
 C356 C 1.17694 0.91608 1.06170
 C357 C 1.20407 0.90968 1.07030
 H358 H 1.21527 0.89276 1.06064
 O359 O 0.85525 1.09801 1.02222
 O360 O 0.82140 1.12907 1.02146
 C361 C 0.83193 1.10681 1.03079
 C362 C 0.81719 1.09102 1.05200
 C363 C 0.79101 1.09977 1.06144
 H364 H 0.78117 1.11819 1.05309
 Cu365 Cu 0.99960 0.88947 1.11727
 Cu366 Cu 1.00015 0.85124 1.15587
 Cu367 Cu 0.98984 1.11596 1.11370
 Cu368 Cu 0.98728 1.15506 1.15182
 Cu369 Cu 0.88125 0.88082 0.99973
 Cu370 Cu 0.84542 0.83915 0.99970
 Cu371 Cu 1.11844 0.88874 1.00551
 Cu372 Cu 1.15858 0.85109 1.00776
 Cu373 Cu 0.87809 1.11373 0.99623
 Cu374 Cu 0.83743 1.15105 0.99522
 Cu375 Cu 1.10618 1.12089 0.99990
 Cu376 Cu 1.14300 1.16167 1.00054
 Cu377 Cu 0.87607 0.99589 1.10869
 Cu378 Cu 0.83662 0.99651 1.14608
 Cu379 Cu 1.11144 1.00788 1.11634
 Cu380 Cu 1.15041 1.01040 1.15482
 C381 C 1.07031 0.93544 1.16334
 H382 H 1.06306 0.94159 1.14330
 C383 C 1.08989 0.91912 1.21487
 C384 C 0.91671 1.07070 1.15556
 H385 H 0.92273 1.06563 1.13490
 C386 C 0.90073 1.08388 1.20897
 C387 C 0.82990 1.06759 1.06380
 H388 H 0.85042 1.06117 1.05729
 C389 C 0.77755 1.08489 1.08198
 C390 C 1.16258 0.93789 1.07452
 H391 H 1.14142 0.94262 1.06832
 C392 C 1.21686 0.92487 1.09141
 C393 C 1.07587 0.84387 1.07802
 H394 H 1.06723 0.86242 1.06875
 C395 C 1.09888 0.79679 1.10333
 C396 C 0.91835 1.16166 1.06817
 H397 H 0.92603 1.14151 1.06167
 C398 C 0.89765 1.21322 1.08582
 C399 C 0.92321 0.92885 1.15889
 H400 H 0.93085 0.93554 1.13930
 C401 C 0.90219 0.91058 1.20878
 C402 C 1.06319 1.07679 1.16219
 H403 H 1.05677 1.06916 1.14231
 C404 C 1.08054 1.09758 1.21302
 C405 C 0.92824 0.83962 1.07297
 H406 H 0.93393 0.86006 1.06577
 C407 C 0.91304 0.78700 1.09233
 C408 C 1.06100 1.16525 1.07196
 H409 H 1.05466 1.14505 1.06433
 C410 C 1.07783 1.21720 1.09247
 C411 C 0.82997 0.92268 1.06765
 H412 H 0.84903 0.93157 1.06004
 C413 C 0.78172 0.89831 1.08831
 C414 C 1.15469 1.08030 1.07195
 H415 H 1.13537 1.07144 1.06454
 C416 C 1.20353 1.10480 1.09214
 O417 O 0.97506 0.39876 0.36559
 O418 O 0.97527 0.36494 0.33509
 C419 C 0.96573 0.38806 0.34369
 C420 C 0.94321 0.40248 0.32847
 C421 C 0.93370 0.39222 0.30330
 H422 H 0.94318 0.37364 0.29493
 O423 O 1.02820 0.60156 0.36292
 O424 O 1.02801 0.63514 0.33249
 C425 C 1.03732 0.61198 0.34100
 C426 C 1.05943 0.59731 0.32567
 C427 C 1.06851 0.60748 0.30056
 H428 H 1.05877 0.62587 0.29208
 O429 O 0.86580 0.47355 0.39918
 O430 O 0.83275 0.47370 0.36774
 C431 C 0.84276 0.46451 0.38997
 C432 C 0.82785 0.44283 0.40525
 C433 C 0.80149 0.43347 0.39672
 H434 H 0.79153 0.44244 0.37892
 O435 O 1.13542 0.52703 0.39835
 O436 O 1.16845 0.52618 0.36750
 C437 C 1.15857 0.53573 0.38963
 C438 C 1.17426 0.55716 0.40516
 C439 C 1.20030 0.56569 0.39589
 H440 H 1.20849 0.55663 0.37738
 O441 O 0.90196 0.36503 0.47349
 O442 O 0.86922 0.33301 0.47349
 C443 C 0.89187 0.34242 0.46434
 C444 C 0.90614 0.32704 0.44246
 C445 C 0.89515 0.30189 0.43285
 H446 H 0.87699 0.29319 0.44249
 O447 O 1.10363 0.63304 0.47674
 O448 O 1.13661 0.66475 0.47642
 C449 C 1.11367 0.65532 0.46725
 C450 C 1.09920 0.67013 0.44476
 C451 C 1.11033 0.69501 0.43502
 H452 H 1.12838 0.70394 0.44502
 O453 O 0.90410 0.52699 0.36207
 O454 O 0.87140 0.52702 0.33029
 C455 C 0.89403 0.53653 0.34000
 C456 C 0.90836 0.55948 0.32597
 C457 C 0.89966 0.56788 0.29999
 H458 H 0.88271 0.55698 0.28999
 O459 O 1.09879 0.47255 0.35933
 O460 O 1.13158 0.47172 0.32827
 C461 C 1.10907 0.46220 0.33773
 C462 C 1.09513 0.43802 0.32454
 C463 C 1.10515 0.42596 0.30021
 H464 H 1.12269 0.43513 0.28993
 O465 O 1.02941 0.36322 0.40529
 O466 O 1.02988 0.32909 0.37514
 C467 C 1.03924 0.34025 0.39693
 C468 C 1.06227 0.32677 0.41227
 C469 C 1.07280 0.30095 0.40366
 H470 H 1.06339 0.29043 0.38635
 O471 O 0.97503 0.63912 0.40227
 O472 O 0.97509 0.67297 0.37215
 C473 C 0.96580 0.66239 0.39389
 C474 C 0.94373 0.67692 0.40943
 C475 C 0.93512 0.70401 0.40242
 H476 H 0.94505 0.71477 0.38580
 O477 O 0.86579 0.59952 0.47545
 O478 O 0.83303 0.63167 0.47371
 C479 C 0.84333 0.60888 0.46523
 C480 C 0.82919 0.59366 0.44284
 C481 C 0.80272 0.60224 0.43414
 H482 H 0.79257 0.61946 0.44436
 O483 O 1.13900 0.40571 0.47851
 O484 O 1.17262 0.37446 0.47833
 C485 C 1.16148 0.39631 0.46863
 C486 C 1.17441 0.40969 0.44476
 C487 C 1.19917 0.39854 0.43459
 H488 H 1.20955 0.38178 0.44535
 O489 O 0.97421 0.60194 0.36375
 O490 O 0.97382 0.63539 0.33320
 C491 C 0.96455 0.61236 0.34189
 C492 C 0.94224 0.59729 0.32690
 C493 C 0.93295 0.60571 0.30089
 H494 H 0.94224 0.62357 0.29120
 O495 O 1.02906 0.39767 0.36467
 O496 O 1.02935 0.36357 0.33447
 C497 C 1.03848 0.38680 0.34295
 C498 C 1.06069 0.40096 0.32769
 C499 C 1.07085 0.38929 0.30353
 H500 H 1.06130 0.37062 0.29538
 O501 O 1.13507 0.47333 0.39872
 O502 O 1.16812 0.47225 0.36789
 C503 C 1.15797 0.46359 0.39016
 C504 C 1.17266 0.44173 0.40607
 C505 C 1.19758 0.43004 0.39633
 H506 H 1.20639 0.43723 0.37740
 O507 O 0.86723 0.52731 0.40001
 O508 O 0.83420 0.52768 0.36855
 C509 C 0.84442 0.53690 0.39081
 C510 C 0.82981 0.55913 0.40608
 C511 C 0.80346 0.56845 0.39744
 H512 H 0.79354 0.55914 0.37972
 O513 O 0.90288 0.63860 0.47598
 O514 O 0.87011 0.67078 0.47437
 C515 C 0.89319 0.66109 0.46624
 C516 C 0.90858 0.67613 0.44503
 C517 C 0.90066 0.70326 0.43807
 H518 H 0.88359 0.71317 0.44866
 O519 O 1.10265 0.36625 0.47938
 O520 O 1.13624 0.33492 0.47875
 C521 C 1.11296 0.34390 0.46991
 C522 C 1.09815 0.32852 0.44793
 C523 C 1.10820 0.30261 0.43905
 H524 H 1.12650 0.29376 0.44870
 O525 O 1.09891 0.52741 0.35910
 O526 O 1.13168 0.52697 0.32802
 C527 C 1.10919 0.53705 0.33733
 C528 C 1.09497 0.56081 0.32364
 C529 C 1.10421 0.57166 0.29863
 H530 H 1.12166 0.56210 0.28836
 O531 O 0.90362 0.47251 0.36200
 O532 O 0.87081 0.47233 0.33035
 C533 C 0.89340 0.46261 0.34008
 C534 C 0.90771 0.43899 0.32651
 C535 C 0.89833 0.42831 0.30131
 H536 H 0.88087 0.43803 0.29096
 O537 O 1.02937 0.63678 0.40296
 O538 O 1.02975 0.67053 0.37273
 C539 C 1.03944 0.65940 0.39435
 C540 C 1.06316 0.67236 0.40920
 C541 C 1.07481 0.69729 0.39981
 H542 H 1.06596 0.70756 0.38214
 O543 O 0.97509 0.36074 0.40268
 O544 O 0.97547 0.32671 0.37242
 C545 C 0.96566 0.33768 0.39383
 C546 C 0.94235 0.32423 0.40810
 C547 C 0.93103 0.29890 0.39868
 H548 H 0.94012 0.28829 0.38137
 O549 O 1.14238 0.59559 0.47624
 O550 O 1.17546 0.62717 0.47607
 C551 C 1.16482 0.60505 0.46638
 C552 C 1.17790 0.59076 0.44270
 C553 C 1.20404 0.59919 0.43278
 H554 H 1.21545 0.61559 0.44307
 O555 O 0.86495 0.40418 0.47370
 O556 O 0.83232 0.37204 0.47366
 C557 C 0.84222 0.39454 0.46445
 C558 C 0.82752 0.40913 0.44222
 C559 C 0.80109 0.40037 0.43378
 H560 H 0.79118 0.38332 0.44423
 Cu561 Cu 1.00213 0.38341 0.38765
 Cu562 Cu 1.00258 0.34264 0.35131
 Cu563 Cu 1.00160 0.61654 0.38600
 Cu564 Cu 1.00162 0.65699 0.34971
 Cu565 Cu 0.88859 0.49998 0.38385
 Cu566 Cu 0.84907 0.50028 0.34594
 Cu567 Cu 1.11349 0.50016 0.38165
 Cu568 Cu 1.15317 0.49925 0.34473
 C569 C 0.93034 0.42607 0.33968
 H570 H 0.93746 0.43391 0.35924
 C571 C 0.91151 0.40515 0.28935
 C572 C 1.07245 0.57376 0.33674
 H573 H 1.06552 0.56600 0.35620
 C574 C 1.09069 0.59477 0.28672
 C575 C 0.84056 0.43067 0.42816
 H576 H 0.86111 0.43733 0.43453
 C577 C 0.78787 0.41246 0.41117
 C578 C 1.16336 0.56952 0.42880
 H579 H 1.14314 0.56311 0.43594
 C580 C 1.21559 0.58631 0.40962
 C581 C 0.92984 0.33797 0.43016
 H582 H 0.93808 0.35766 0.43730
 C583 C 0.90713 0.28788 0.41079
 C584 C 1.07548 0.65896 0.43183
 H585 H 1.06706 0.63947 0.43895
 C586 C 1.09866 0.70843 0.41236
 C587 C 0.92987 0.57403 0.33908
 H588 H 0.93649 0.56765 0.35926
 C589 C 0.91196 0.59071 0.28711
 C590 C 1.07273 0.42541 0.33786
 H591 H 1.06516 0.43417 0.35677
 C592 C 1.09324 0.40131 0.28976
 C593 C 1.07492 0.34029 0.43464
 H594 H 1.06728 0.36046 0.44112
 C595 C 1.09563 0.28868 0.41698
 C596 C 0.93043 0.66326 0.43095
 H597 H 0.93648 0.64222 0.43622
 C598 C 0.91387 0.71744 0.41699
 C599 C 0.84247 0.57176 0.42898
 H600 H 0.86302 0.56516 0.43549
 C601 C 0.78972 0.58976 0.41158
 C602 C 1.16125 0.43144 0.43045
 H603 H 1.14177 0.43978 0.43787
 C604 C 1.21051 0.40808 0.41027
 O605 O 1.03032 0.40009 0.63752
 O606 O 1.02866 0.36795 0.66938
 C607 C 1.03822 0.39071 0.66047
 C608 C 1.05891 0.40637 0.67677
 C609 C 1.06600 0.39796 0.70321
 H610 H 1.05604 0.37986 0.71176
 O611 O 0.97307 0.60655 0.63552
 O612 O 0.97250 0.63946 0.66693
 C613 C 0.96294 0.61677 0.65719
 C614 C 0.93941 0.60226 0.67053
 C615 C 0.92703 0.61306 0.69432
 H616 H 0.93505 0.63183 0.70375
 O617 O 0.86093 0.53031 0.59883
 O618 O 0.82914 0.53005 0.63091
 C619 C 0.83842 0.53973 0.60875
 C620 C 0.82392 0.56293 0.59460
 C621 C 0.79882 0.57440 0.60432
 H622 H 0.78895 0.56550 0.62199
 O623 O 1.13606 0.47543 0.60702
 O624 O 1.16787 0.47554 0.63968
 C625 C 1.15856 0.46606 0.61716
 C626 C 1.17391 0.44369 0.60289
 C627 C 1.19873 0.43333 0.61403
 H628 H 1.20711 0.44254 0.63252
 O629 O 1.10495 0.36512 0.53229
 O630 O 1.13867 0.33394 0.53148
 C631 C 1.11588 0.34273 0.54111
 C632 C 1.10240 0.32732 0.56339
 C633 C 1.11428 0.30288 0.57384
 H634 H 1.13265 0.29435 0.56428
 O635 O 0.90145 0.64021 0.52891
 O636 O 0.86860 0.67227 0.52699
 C637 C 0.89119 0.66311 0.53714
 C638 C 0.90535 0.67894 0.55913
 C639 C 0.89404 0.70398 0.56881
 H640 H 0.87544 0.71237 0.55930
 O641 O 0.90177 0.47653 0.63425
 O642 O 0.87028 0.47582 0.66659
 C643 C 0.89276 0.46661 0.65640
 C644 C 0.90824 0.44372 0.67006
 C645 C 0.90003 0.43431 0.69587
 H646 H 0.88275 0.44416 0.70617
 O647 O 1.09813 0.53051 0.64325
 O648 O 1.12984 0.53084 0.67597
 C649 C 1.10750 0.54035 0.66555
 C650 C 1.09246 0.56346 0.67905
 C651 C 1.10033 0.57282 0.70519
 H652 H 1.11713 0.56253 0.71604
 O653 O 0.97838 0.36198 0.59721
 O654 O 0.97699 0.32938 0.62861
 C655 C 0.96843 0.33943 0.60616
 C656 C 0.94606 0.32536 0.59064
 C657 C 0.93710 0.29865 0.59787
 H658 H 0.94726 0.28769 0.61444
 O659 O 1.02952 0.64205 0.59974
 O660 O 1.03015 0.67510 0.63098
 C661 C 1.04007 0.66419 0.60941
 C662 C 1.06468 0.67654 0.59577
 C663 C 1.07716 0.70109 0.60577
 H664 H 1.06833 0.71171 0.62319
 O665 O 0.86423 0.40322 0.52675
 O666 O 0.83184 0.37086 0.52642
 C667 C 0.84155 0.39349 0.53571
 C668 C 0.82648 0.40833 0.55744
 C669 C 0.80013 0.39933 0.56547
 H670 H 0.79071 0.38165 0.55528
 O671 O 1.14287 0.59597 0.53032
 O672 O 1.17588 0.62762 0.52999
 C673 C 1.16550 0.60568 0.53990
 C674 C 1.17903 0.59185 0.56359
 C675 C 1.20515 0.60053 0.57366
 H676 H 1.21633 0.61693 0.56345
 O677 O 1.02699 0.60584 0.63855
 O678 O 1.02677 0.63869 0.67004
 C679 C 1.03581 0.61557 0.66112
 C680 C 1.05720 0.60010 0.67682
 C681 C 1.06517 0.60901 0.70299
 H682 H 1.05523 0.62715 0.71177
 O683 O 0.97677 0.40127 0.63329
 O684 O 0.97511 0.36898 0.66500
 C685 C 0.96646 0.39187 0.65506
 C686 C 0.94418 0.40748 0.66916
 C687 C 0.93594 0.39893 0.69506
 H688 H 0.94605 0.38121 0.70450
 O689 O 1.13701 0.52905 0.60681
 O690 O 1.16893 0.52933 0.63934
 C691 C 1.15984 0.53801 0.61652
 C692 C 1.17586 0.55884 0.60117
 C693 C 1.20210 0.56731 0.61054
 H694 H 1.21071 0.55831 0.62897
 O695 O 0.86228 0.47627 0.59808
 O696 O 0.83045 0.47573 0.63013
 C697 C 0.83996 0.46652 0.60778
 C698 C 0.82555 0.44382 0.59304
 C699 C 0.79927 0.43428 0.60119
 H700 H 0.78886 0.44404 0.61825
 O701 O 1.10495 0.63458 0.52995
 O702 O 1.13799 0.66621 0.52951
 C703 C 1.11524 0.65716 0.53901
 C704 C 1.10123 0.67277 0.56133
 C705 C 1.11305 0.69739 0.57151
 H706 H 1.13138 0.70561 0.56184
 O707 O 0.90348 0.36588 0.52627
 O708 O 0.87106 0.33353 0.52593
 C709 C 0.89402 0.34301 0.53491
 C710 C 0.90967 0.32733 0.55577
 C711 C 0.90127 0.30052 0.56292
 H712 H 0.88344 0.29127 0.55281
 O713 O 1.09860 0.47608 0.64435
 O714 O 1.13015 0.47633 0.67722
 C715 C 1.10794 0.46667 0.66680
 C716 C 1.09309 0.44363 0.68016
 C717 C 1.10030 0.43470 0.70658
 H718 H 1.11648 0.44535 0.71799
 O719 O 0.90110 0.53116 0.63400
 O720 O 0.86944 0.53057 0.66619
 C721 C 0.89138 0.54080 0.65607
 C722 C 0.90481 0.56488 0.66968
 C723 C 0.89274 0.57623 0.69305
 H724 H 0.87453 0.56661 0.70175
 O725 O 0.97493 0.64531 0.59927
 O726 O 0.97504 0.67859 0.63029
 C727 C 0.96549 0.66828 0.60829
 C728 C 0.94216 0.68208 0.59363
 C729 C 0.93067 0.70737 0.60296
 H730 H 0.93989 0.71800 0.62031
 O731 O 1.03267 0.36127 0.60078
 O732 O 1.03156 0.32901 0.63248
 C733 C 1.04212 0.33886 0.61099
 C734 C 1.06622 0.32507 0.59784
 C735 C 1.07841 0.30052 0.60825
 H736 H 1.06953 0.29057 0.62589
 O737 O 1.14113 0.40494 0.53250
 O738 O 1.17473 0.37366 0.53206
 C739 C 1.16398 0.39559 0.54202
 C740 C 1.17724 0.40966 0.56582
 C741 C 1.20231 0.39963 0.57732
 H742 H 1.21301 0.38222 0.56798
 O743 O 0.86314 0.60229 0.52869
 O744 O 0.83044 0.63448 0.52664
 C745 C 0.84021 0.61233 0.53695
 C746 C 0.82520 0.59860 0.55934
 C747 C 0.80034 0.60986 0.56932
 H748 H 0.79130 0.62795 0.55956
 Cu749 Cu 1.00484 0.38418 0.61382
 Cu750 Cu 1.00280 0.34550 0.65200
 Cu751 Cu 1.00114 0.62183 0.61506
 Cu752 Cu 1.00115 0.66136 0.65258
 Cu753 Cu 0.88691 0.38792 0.50015
 Cu754 Cu 0.84778 0.34915 0.49994
 Cu755 Cu 1.11869 0.38879 0.50588
 Cu756 Cu 1.15910 0.35132 0.50495
 Cu757 Cu 0.88657 0.61684 0.50251
 Cu758 Cu 0.84719 0.65545 0.50012
 Cu759 Cu 1.12039 0.61141 0.50342
 Cu760 Cu 1.15978 0.64954 0.50293
 Cu761 Cu 0.88464 0.50355 0.61306
 Cu762 Cu 0.84681 0.50290 0.65186
 Cu763 Cu 1.11406 0.50283 0.62226
 Cu764 Cu 1.15235 0.50312 0.66140
 C765 C 1.07222 0.42945 0.66560
 H766 H 1.06691 0.43588 0.64508
 C767 C 1.08644 0.41213 0.71841
 C768 C 0.92819 0.57796 0.65853
 H769 H 0.93721 0.56958 0.64008
 C770 C 0.90345 0.60023 0.70529
 C771 C 0.83662 0.57507 0.57193
 H772 H 0.85606 0.56668 0.56450
 C773 C 0.78707 0.59812 0.59190
 C774 C 1.16340 0.43188 0.57870
 H775 H 1.14394 0.43952 0.57031
 C776 C 1.21291 0.41116 0.60168
 C777 C 1.07832 0.33798 0.57531
 H778 H 1.06936 0.35702 0.56738
 C779 C 1.10275 0.28943 0.59650
 C780 C 0.92951 0.66834 0.57147
 H781 H 0.93796 0.64872 0.56437
 C782 C 0.90636 0.71824 0.59082
 C783 C 0.93054 0.43023 0.65690
 H784 H 0.93675 0.43688 0.63680
 C785 C 0.91408 0.41219 0.70855
 C786 C 1.07068 0.57707 0.66520
 H787 H 1.06480 0.57028 0.64488
 C788 C 1.08652 0.59536 0.71747
 C789 C 0.93239 0.33943 0.56936
 H790 H 0.93877 0.36027 0.56404
 C791 C 0.91493 0.28600 0.58381
 C792 C 1.07694 0.66262 0.57348
 H793 H 1.06792 0.64345 0.56592
 C794 C 1.10162 0.71147 0.59399
 C795 C 0.83881 0.43082 0.57101
 H796 H 0.85925 0.43767 0.56491
 C797 C 0.78625 0.41227 0.58714
 C798 C 1.16471 0.57085 0.57746
 H799 H 1.14437 0.56443 0.57026
 C800 C 1.21698 0.58798 0.59691
 O801 O 0.59622 1.02766 0.63490
 O802 O 0.62645 1.02813 0.66893
 C803 C 0.60419 1.03718 0.65782
 C804 C 0.58728 1.05902 0.67146
 C805 C 0.59337 1.06761 0.69829
 H806 H 0.61054 1.05817 0.70934
 O807 O 0.39283 0.97158 0.62421
 O808 O 0.35937 0.97178 0.65462
 C809 C 0.38256 0.96249 0.64618
 C810 C 0.39751 0.94076 0.66204
 C811 C 0.38801 0.93322 0.68791
 H812 H 0.36988 0.94350 0.69622
 O813 O 0.52149 1.13848 0.59665
 O814 O 0.51896 1.17042 0.62891
 C815 C 0.53016 1.16099 0.60742
 C816 C 0.55392 1.17605 0.59531
 C817 C 0.56200 1.20208 0.60572
 H818 H 0.55045 1.21119 0.62237
 O819 O 0.47151 0.86362 0.59300
 O820 O 0.46918 0.83132 0.62461
 C821 C 0.46105 0.84130 0.60186
 C822 C 0.43877 0.82721 0.58590
 C823 C 0.42860 0.80139 0.59443
 H824 H 0.43766 0.79141 0.61217
 O825 O 0.64099 1.10366 0.53325
 O826 O 0.67281 1.13647 0.53586
 C827 C 0.66308 1.11339 0.54389
 C828 C 0.67696 1.09755 0.56604
 C829 C 0.70336 1.10507 0.57621
 H830 H 0.71418 1.12258 0.56750
 O831 O 0.35863 0.89998 0.51404
 O832 O 0.32761 0.86638 0.51202
 C833 C 0.33598 0.88931 0.52195
 C834 C 0.32000 0.90331 0.54372
 C835 C 0.29463 0.89246 0.55283
 H836 H 0.28608 0.87409 0.54311
 O837 O 0.46473 1.10003 0.62980
 O838 O 0.46257 1.13202 0.66205
 C839 C 0.45376 1.10956 0.65147
 C840 C 0.43001 1.09477 0.66394
 C841 C 0.41778 1.10461 0.68820
 H842 H 0.42625 1.12270 0.69851
 O843 O 0.52383 0.90037 0.63437
 O844 O 0.52207 0.86848 0.66640
 C845 C 0.53227 0.89086 0.65709
 C846 C 0.55459 0.90593 0.67218
 C847 C 0.56339 0.89776 0.69847
 H848 H 0.55360 0.88032 0.70839
 O849 O 0.63697 0.97332 0.60051
 O850 O 0.66751 0.97303 0.63426
 C851 C 0.65885 0.96345 0.61152
 C852 C 0.67354 0.93998 0.59794
 C853 C 0.69892 0.92943 0.60822
 H854 H 0.70877 0.93908 0.62579
 O855 O 0.35524 1.02570 0.58547
 O856 O 0.32161 1.02570 0.61570
 C857 C 0.33235 1.03540 0.59417
 C858 C 0.31863 1.05881 0.57960
 C859 C 0.29345 1.07013 0.58901
 H860 H 0.28336 1.06101 0.60645
 O861 O 0.39749 1.13599 0.51610
 O862 O 0.36500 1.16841 0.51418
 C863 C 0.38720 1.15865 0.52473
 C864 C 0.40070 1.17332 0.54781
 C865 C 0.38998 1.19872 0.55710
 H866 H 0.37285 1.20835 0.54619
 O867 O 0.60030 0.85955 0.52875
 O868 O 0.63253 0.82686 0.53017
 C869 C 0.60984 0.83708 0.53878
 C870 C 0.59508 0.82314 0.56136
 C871 C 0.60613 0.79883 0.57296
 H872 H 0.62473 0.78955 0.56450
 O873 O 0.39188 1.02585 0.62433
 O874 O 0.35822 1.02580 0.65456
 C875 C 0.38107 1.03542 0.64597
 C876 C 0.39462 1.05850 0.66097
 C877 C 0.38277 1.06865 0.68504
 H878 H 0.36463 1.05850 0.69325
 O879 O 0.59699 0.97360 0.63563
 O880 O 0.62742 0.97413 0.66950
 C881 C 0.60538 0.96461 0.65860
 C882 C 0.58983 0.94251 0.67269
 C883 C 0.59768 0.93462 0.69909
 H884 H 0.61463 0.94529 0.70935
 O885 O 0.52559 0.86059 0.59841
 O886 O 0.52365 0.82843 0.63015
 C887 C 0.53450 0.83791 0.60860
 C888 C 0.55829 0.82318 0.59558
 C889 C 0.56954 0.79846 0.60667
 H890 H 0.56022 0.78918 0.62444
 O891 O 0.46722 1.13716 0.59164
 O892 O 0.46479 1.16921 0.62381
 C893 C 0.45685 1.15956 0.60087
 C894 C 0.43471 1.17390 0.58511
 C895 C 0.42359 1.19933 0.59418
 H896 H 0.43189 1.20911 0.61243
 O897 O 0.35848 1.09918 0.51437
 O898 O 0.32581 1.13141 0.51246
 C899 C 0.33540 1.10900 0.52249
 C900 C 0.32006 1.09466 0.54441
 C901 C 0.29471 1.10543 0.55393
 H902 H 0.28598 1.12392 0.54464
 O903 O 0.63733 0.89829 0.52994
 O904 O 0.66963 0.86565 0.53162
 C905 C 0.65947 0.88845 0.54034
 C906 C 0.67329 0.90325 0.56318
 C907 C 0.69827 0.89295 0.57391
 H908 H 0.70791 0.87480 0.56477
 O909 O 0.46925 0.89998 0.63187
 O910 O 0.46724 0.86809 0.66389
 C911 C 0.45824 0.89055 0.65340
 C912 C 0.43432 0.90557 0.66580
 C913 C 0.42413 0.89808 0.69161
 H914 H 0.43422 0.88163 0.70304
 O915 O 0.51910 1.09826 0.63142
 O916 O 0.51685 1.13005 0.66386
 C917 C 0.52711 1.10763 0.65435
 C918 C 0.54905 1.09276 0.66984
 C919 C 0.55514 1.10061 0.69674
 H920 H 0.54326 1.11710 0.70628
 O921 O 0.35499 0.97121 0.58592
 O922 O 0.32147 0.97116 0.61626
 C923 C 0.33213 0.96161 0.59457
 C924 C 0.31835 0.93860 0.57959
 C925 C 0.29314 0.92739 0.58862
 H926 H 0.28300 0.93642 0.60620
 O927 O 0.63745 1.02782 0.60112
 O928 O 0.66798 1.02758 0.63489
 C929 C 0.65952 1.03714 0.61224
 C930 C 0.67518 1.05976 0.59907
 C931 C 0.70158 1.06736 0.60882
 H932 H 0.71063 1.05617 0.62583
 O933 O 0.39929 0.86453 0.51693
 O934 O 0.36842 0.83079 0.51494
 C935 C 0.39009 0.84154 0.52564
 C936 C 0.40431 0.82733 0.54874
 C937 C 0.39470 0.80139 0.55762
 H938 H 0.37716 0.79181 0.54734
 O939 O 0.60158 1.14053 0.53223
 O940 O 0.63286 1.17384 0.53484
 C941 C 0.61005 1.16327 0.54256
 C942 C 0.59325 1.17716 0.56401
 C943 C 0.60106 1.20319 0.57486
 H944 H 0.61929 1.21360 0.56713
 Cu945 Cu 0.61399 1.00061 0.61457
 Cu946 Cu 0.65045 1.00079 0.65523
 Cu947 Cu 0.37700 0.99847 0.60185
 Cu948 Cu 0.33679 0.99852 0.63828
 Cu949 Cu 0.49328 1.11533 0.60915
 Cu950 Cu 0.49062 1.15361 0.64786
 Cu951 Cu 0.49788 0.88434 0.61139
 Cu952 Cu 0.49527 0.84588 0.64940
 C953 C 0.56493 1.07167 0.65747
 H954 H 0.56034 1.06562 0.63663
 C955 C 0.57710 1.08811 0.71114
 C956 C 0.42091 0.92710 0.65132
 H957 H 0.42828 0.93276 0.63132
 C958 C 0.40128 0.91220 0.70301
 C959 C 0.56948 1.16394 0.57425
 H960 H 0.56348 1.14376 0.56632
 C961 C 0.58535 1.21599 0.59552
 C962 C 0.42661 0.83998 0.56286
 H963 H 0.43397 0.86012 0.55637
 C964 C 0.40674 0.78828 0.58036
 C965 C 0.66325 1.07470 0.57748
 H966 H 0.64275 1.06898 0.57010
 C967 C 0.71604 1.08972 0.59734
 C968 C 0.33137 0.92661 0.55696
 H969 H 0.35107 0.93483 0.55023
 C970 C 0.28101 0.90442 0.57529
 C971 C 0.41834 1.07155 0.65064
 H972 H 0.42727 1.06406 0.63179
 C973 C 0.39388 1.09184 0.69862
 C974 C 0.56799 0.92841 0.65958
 H975 H 0.56194 0.93451 0.63915
 C976 C 0.58467 0.91243 0.71215
 C977 C 0.66112 0.92685 0.57518
 H978 H 0.64149 0.93453 0.56723
 C979 C 0.71112 0.90571 0.59636
 C980 C 0.33162 1.07113 0.55716
 H981 H 0.35130 1.06292 0.55013
 C982 C 0.28125 1.09333 0.57622
 C983 C 0.42324 1.16117 0.56176
 H984 H 0.43129 1.14129 0.55493
 C985 C 0.40099 1.21166 0.58047
 C986 C 0.57112 0.83506 0.57274
 H987 H 0.56292 0.85418 0.56423
 C988 C 0.59374 0.78642 0.59563
 O989 O 0.61247 0.97440 0.37237
 O990 O 0.64581 0.97458 0.34182
 C991 C 0.62285 0.96513 0.35042
 C992 C 0.60847 0.94277 0.33494
 C993 C 0.61900 0.93376 0.30981
 H994 H 0.63686 0.94411 0.30132
 O995 O 0.40843 1.02537 0.35639
 O996 O 0.37840 1.02646 0.32219
 C997 C 0.40023 1.03560 0.33393
 C998 C 0.41597 1.05874 0.32170
 C999 C 0.40746 1.07017 0.29670
 H1000 H 0.38968 1.06158 0.28592
 O1001 O 0.47825 1.13780 0.40056
 O1002 O 0.48044 1.16955 0.36837
 C1003 C 0.46913 1.15997 0.38959
 C1004 C 0.44453 1.17428 0.40097
 C1005 C 0.43470 1.19905 0.38932
 H1006 H 0.44618 1.20852 0.37293
 O1007 O 0.53293 0.86270 0.39966
 O1008 O 0.53504 0.83054 0.36754
 C1009 C 0.54264 0.83987 0.39062
 C1010 C 0.56351 0.82422 0.40661
 C1011 C 0.57201 0.79782 0.39786
 H1012 H 0.56249 0.78867 0.37986
 O1013 O 0.64110 0.89698 0.47711
 O1014 O 0.67308 0.86406 0.47878
 C1015 C 0.66416 0.88691 0.46916
 C1016 C 0.68054 0.90151 0.44811
 C1017 C 0.70565 0.89008 0.43880
 H1018 H 0.71364 0.87137 0.44823
 O1019 O 0.36223 1.09753 0.46137
 O1020 O 0.32938 1.12957 0.45936
 C1021 C 0.33995 1.10690 0.45085
 C1022 C 0.32664 1.09154 0.42809
 C1023 C 0.30068 1.09995 0.41772
 H1024 H 0.28985 1.11730 0.42703
 O1025 O 0.53614 1.09932 0.36902
 O1026 O 0.53777 1.13123 0.33695
 C1027 C 0.54678 1.10880 0.34740
 C1028 C 0.56998 1.09395 0.33409
 C1029 C 0.57800 1.10171 0.30789
 H1030 H 0.56694 1.11836 0.29764
 O1031 O 0.48257 0.90140 0.35748
 O1032 O 0.48525 0.86913 0.32552
 C1033 C 0.47506 0.89170 0.33441
 C1034 C 0.45353 0.90630 0.31824
 C1035 C 0.44621 0.89695 0.29200
 H1036 H 0.45714 0.87939 0.28324
 O1037 O 0.64962 1.02878 0.41119
 O1038 O 0.68299 1.02904 0.38072
 C1039 C 0.67219 1.03880 0.40231
 C1040 C 0.68515 1.06289 0.41658
 C1041 C 0.70993 1.07469 0.40702
 H1042 H 0.72049 1.06532 0.38985
 O1043 O 0.36823 0.97000 0.38850
 O1044 O 0.33810 0.97058 0.35438
 C1045 C 0.34640 0.96069 0.37703
 C1046 C 0.33084 0.93789 0.39008
 C1047 C 0.30587 0.92814 0.37869
 H1048 H 0.29740 0.93818 0.36072
 O1049 O 0.60443 1.14163 0.47930
 O1050 O 0.63551 1.17517 0.48137
 C1051 C 0.61369 1.16467 0.47078
 C1052 C 0.59898 1.17867 0.44794
 C1053 C 0.60746 1.20484 0.43826
 H1054 H 0.62480 1.21551 0.44784
 O1055 O 0.40214 0.86392 0.46387
 O1056 O 0.37130 0.83012 0.46193
 C1057 C 0.39399 0.84081 0.45415
 C1058 C 0.41056 0.82649 0.43306
 C1059 C 0.40339 0.79958 0.42464
 H1060 H 0.38635 0.78883 0.43429
 O1061 O 0.40784 0.97144 0.35311
 O1062 O 0.37796 0.97224 0.31878
 C1063 C 0.39993 0.96269 0.32983
 C1064 C 0.41630 0.94076 0.31604
 C1065 C 0.40900 0.93103 0.28987
 H1066 H 0.39157 0.94032 0.27909
 O1067 O 0.61304 1.02834 0.37206
 O1068 O 0.64619 1.02863 0.34132
 C1069 C 0.62310 1.03776 0.35012
 C1070 C 0.60766 1.05974 0.33512
 C1071 C 0.61568 1.06816 0.30884
 H1072 H 0.63335 1.05844 0.29905
 O1073 O 0.47901 0.86461 0.39572
 O1074 O 0.48124 0.83216 0.36389
 C1075 C 0.47025 0.84200 0.38539
 C1076 C 0.44707 0.82721 0.39867
 C1077 C 0.43892 0.80051 0.38994
 H1078 H 0.44946 0.79037 0.37316
 O1079 O 0.53256 1.13842 0.40570
 O1080 O 0.53420 1.17017 0.37348
 C1081 C 0.54215 1.16106 0.39651
 C1082 C 0.56335 1.17675 0.41216
 C1083 C 0.57161 1.20303 0.40327
 H1084 H 0.56165 1.21206 0.38549
 O1085 O 0.36205 0.89978 0.46090
 O1086 O 0.33101 0.86621 0.45868
 C1087 C 0.34060 0.88902 0.44986
 C1088 C 0.32757 0.90294 0.42595
 C1089 C 0.30244 0.89344 0.41427
 H1090 H 0.29166 0.87609 0.42332
 O1091 O 0.64307 1.10416 0.48040
 O1092 O 0.67454 1.13734 0.48248
 C1093 C 0.66577 1.11457 0.47233
 C1094 C 0.68166 1.10030 0.45047
 C1095 C 0.70633 1.11183 0.44047
 H1096 H 0.71446 1.13066 0.44967
 O1097 O 0.53652 0.90249 0.36442
 O1098 O 0.53913 0.87039 0.33230
 C1099 C 0.54792 0.89283 0.34317
 C1100 C 0.57196 0.90756 0.33132
 C1101 C 0.58291 0.89890 0.30624
 H1102 H 0.57337 0.88174 0.29530
 O1103 O 0.48199 1.09878 0.36422
 O1104 O 0.48422 1.13077 0.33226
 C1105 C 0.47422 1.10825 0.34124
 C1106 C 0.45259 1.09370 0.32509
 C1107 C 0.44408 1.10445 0.29980
 H1108 H 0.45415 1.12273 0.29175
 O1109 O 0.36707 1.02403 0.38964
 O1110 O 0.33677 1.02473 0.35564
 C1111 C 0.34495 1.03353 0.37879
 C1112 C 0.32900 1.05549 0.39297
 C1113 C 0.30294 1.06405 0.38297
 H1114 H 0.29425 1.05405 0.36503
 O1115 O 0.64991 0.97388 0.41035
 O1116 O 0.68347 0.97377 0.38008
 C1117 C 0.67250 0.96377 0.40136
 C1118 C 0.68509 0.93927 0.41519
 C1119 C 0.71013 0.92732 0.40599
 H1120 H 0.72114 0.93683 0.38930
 O1121 O 0.60233 0.85930 0.47526
 O1122 O 0.63431 0.82637 0.47675
 C1123 C 0.61225 0.83653 0.46636
 C1124 C 0.59814 0.82239 0.44322
 C1125 C 0.60696 0.79611 0.43369
 H1126 H 0.62407 0.78543 0.44367
 O1127 O 0.39835 1.13746 0.46318
 O1128 O 0.36572 1.16971 0.46098
 C1129 C 0.38893 1.16002 0.45321
 C1130 C 0.40507 1.17451 0.43194
 C1131 C 0.39556 1.19952 0.42013
 H1132 H 0.37645 1.20905 0.42712
 Cu1133 Cu 0.62813 1.00144 0.39470
 Cu1134 Cu 0.66813 1.00152 0.35810
 Cu1135 Cu 0.39091 0.99755 0.37531
 Cu1136 Cu 0.35478 0.99861 0.33430
 Cu1137 Cu 0.61940 1.11925 0.50611
 Cu1138 Cu 0.65709 1.15906 0.50893
 Cu1139 Cu 0.61692 0.88167 0.50242
 Cu1140 Cu 0.65557 0.84244 0.50448
 Cu1141 Cu 0.38237 1.11431 0.48885
 Cu1142 Cu 0.34317 1.15299 0.48654
 Cu1143 Cu 0.38348 0.88553 0.48914
 Cu1144 Cu 0.34650 0.84498 0.48672
 Cu1145 Cu 0.50707 1.11540 0.38821
 Cu1146 Cu 0.50949 1.15364 0.34958
 Cu1147 Cu 0.50746 0.88608 0.38247
 Cu1148 Cu 0.51044 0.84739 0.34406
 C1149 C 0.58480 0.92965 0.34548
 H1150 H 0.57674 0.93625 0.36501
 C1151 C 0.60653 0.91171 0.29545
 C1152 C 0.43871 1.07056 0.33570
 H1153 H 0.44499 1.06238 0.35535
 C1154 C 0.42147 1.09296 0.28562
 C1155 C 0.42971 1.16230 0.42234
 H1156 H 0.43702 1.14292 0.43103
 C1157 C 0.41015 1.21172 0.39852
 C1158 C 0.57625 0.83612 0.42959
 H1159 H 0.56977 0.85663 0.43624
 C1160 C 0.59355 0.78356 0.41123
 C1161 C 0.67061 0.92621 0.43636
 H1162 H 0.65106 0.93488 0.44324
 C1163 C 0.72043 0.90248 0.41746
 C1164 C 0.34049 1.06908 0.41578
 H1165 H 0.36075 1.06278 0.42338
 C1166 C 0.28858 1.08617 0.39533
 C1167 C 0.58462 1.07269 0.34744
 H1168 H 0.57845 1.06672 0.36775
 C1169 C 0.60047 1.08881 0.29492
 C1170 C 0.43880 0.92846 0.32983
 H1171 H 0.44422 0.93547 0.35020
 C1172 C 0.42406 0.90928 0.27756
 C1173 C 0.67139 1.07573 0.43849
 H1174 H 0.65209 1.06703 0.44572
 C1175 C 0.72048 1.09936 0.41858
 C1176 C 0.34138 0.92528 0.41374
 H1177 H 0.36087 0.93253 0.42236
 C1178 C 0.29155 0.90583 0.39046
 C1179 C 0.57675 1.16495 0.43479
 H1180 H 0.57046 1.14453 0.44155
 C1181 C 0.59347 1.21728 0.41614
 C1182 C 0.43273 0.84000 0.42030
 H1183 H 0.43840 0.86079 0.42679
 C1184 C 0.41741 0.78657 0.40323
 O1185 O 0.46105 0.39511 0.86620
 O1186 O 0.45784 0.36312 0.83400
 C1187 C 0.45011 0.38615 0.84422
 C1188 C 0.42800 0.40273 0.83077
 C1189 C 0.41859 0.39633 0.80428
 H1190 H 0.42796 0.37921 0.79322
 O1191 O 0.51650 0.59745 0.86468
 O1192 O 0.51562 0.62949 0.83270
 C1193 C 0.52492 0.60657 0.84197
 C1194 C 0.54616 0.59085 0.82636
 C1195 C 0.55378 0.59995 0.80039
 H1196 H 0.54369 0.61809 0.79175
 O1197 O 0.35773 0.47160 0.91078
 O1198 O 0.32282 0.47212 0.88134
 C1199 C 0.33423 0.46255 0.90278
 C1200 C 0.31991 0.44050 0.91816
 C1201 C 0.29296 0.43265 0.91047
 H1202 H 0.28280 0.44305 0.89355
 O1203 O 0.63131 0.52004 0.89233
 O1204 O 0.66099 0.51885 0.85838
 C1205 C 0.65342 0.52869 0.88120
 C1206 C 0.67008 0.55081 0.89471
 C1207 C 0.69561 0.55935 0.88390
 H1208 H 0.70320 0.54939 0.86559
 O1209 O 0.39556 0.35875 0.98077
 O1210 O 0.36216 0.32758 0.98299
 C1211 C 0.38429 0.33652 0.97214
 C1212 C 0.39661 0.32156 0.94867
 C1213 C 0.38562 0.29607 0.93964
 H1214 H 0.36836 0.28695 0.95038
 O1215 O 0.60049 0.62916 0.96718
 O1216 O 0.63332 0.66094 0.96516
 C1217 C 0.60982 0.65162 0.95746
 C1218 C 0.59385 0.66692 0.93644
 C1219 C 0.60477 0.69149 0.92597
 H1220 H 0.62373 0.69992 0.93467
 O1221 O 0.39169 0.52638 0.87074
 O1222 O 0.35646 0.52666 0.84166
 C1223 C 0.37975 0.53613 0.84958
 C1224 C 0.39276 0.55916 0.83444
 C1225 C 0.38090 0.56893 0.81003
 H1226 H 0.36277 0.55865 0.80157
 O1227 O 0.58859 0.46654 0.85805
 O1228 O 0.61815 0.46561 0.82400
 C1229 C 0.59644 0.45644 0.83538
 C1230 C 0.58090 0.43300 0.82272
 C1231 C 0.59004 0.42094 0.79820
 H1232 H 0.60780 0.42962 0.78786
 O1233 O 0.51616 0.35524 0.90065
 O1234 O 0.51277 0.32285 0.86885
 C1235 C 0.52430 0.33240 0.89032
 C1236 C 0.54811 0.31734 0.90275
 C1237 C 0.55753 0.29238 0.89122
 H1238 H 0.54619 0.28329 0.87424
 O1239 O 0.46555 0.63885 0.90340
 O1240 O 0.46470 0.67109 0.87165
 C1241 C 0.45598 0.66165 0.89414
 C1242 C 0.43376 0.67649 0.90937
 C1243 C 0.42147 0.70114 0.89943
 H1244 H 0.42903 0.71031 0.88080
 O1245 O 0.36283 0.60115 0.98253
 O1246 O 0.32964 0.63279 0.98507
 C1247 C 0.33919 0.61032 0.97503
 C1248 C 0.32316 0.59476 0.95402
 C1249 C 0.29642 0.60353 0.94567
 H1250 H 0.28696 0.62174 0.95483
 O1251 O 0.63050 0.39210 0.96520
 O1252 O 0.66294 0.35964 0.96370
 C1253 C 0.65240 0.38212 0.95471
 C1254 C 0.66544 0.39611 0.93129
 C1255 C 0.68935 0.38461 0.91972
 H1256 H 0.69891 0.36639 0.92880
 O1257 O 0.46256 0.60012 0.86659
 O1258 O 0.46147 0.63214 0.83460
 C1259 C 0.45205 0.60986 0.84479
 C1260 C 0.42821 0.59528 0.83188
 C1261 C 0.41625 0.60465 0.80731
 H1262 H 0.42501 0.62245 0.79706
 O1263 O 0.51498 0.39347 0.86387
 O1264 O 0.51184 0.36113 0.83200
 C1265 C 0.52274 0.38335 0.84122
 C1266 C 0.54519 0.39707 0.82583
 C1267 C 0.55476 0.38530 0.80138
 H1268 H 0.54471 0.36695 0.79316
 O1269 O 0.62886 0.46585 0.89333
 O1270 O 0.65862 0.46446 0.85945
 C1271 C 0.65027 0.45537 0.88227
 C1272 C 0.66482 0.43178 0.89582
 C1273 C 0.68907 0.41993 0.88466
 H1274 H 0.69806 0.42861 0.86643
 O1275 O 0.35854 0.52571 0.91207
 O1276 O 0.32336 0.52585 0.88292
 C1277 C 0.33504 0.53504 0.90446
 C1278 C 0.32127 0.55733 0.92019
 C1279 C 0.29442 0.56579 0.91285
 H1280 H 0.28359 0.55521 0.89637
 O1281 O 0.39983 0.63980 0.97934
 O1282 O 0.36692 0.67169 0.98210
 C1283 C 0.38865 0.66213 0.97080
 C1284 C 0.40061 0.67646 0.94692
 C1285 C 0.38850 0.70091 0.93663
 H1286 H 0.37111 0.71023 0.94719
 O1287 O 0.59399 0.35277 0.96731
 O1288 O 0.62628 0.32020 0.96542
 C1289 C 0.60313 0.33011 0.95730
 C1290 C 0.58688 0.31595 0.93537
 C1291 C 0.59603 0.29079 0.92348
 H1292 H 0.61480 0.28080 0.93096
 O1293 O 0.58896 0.52122 0.85911
 O1294 O 0.61844 0.52041 0.82499
 C1295 C 0.59699 0.53064 0.83640
 C1296 C 0.58156 0.55412 0.82355
 C1297 C 0.58906 0.56396 0.79768
 H1298 H 0.60576 0.55395 0.78664
 O1299 O 0.39245 0.47199 0.87049
 O1300 O 0.35750 0.47265 0.84108
 C1301 C 0.38084 0.46302 0.84885
 C1302 C 0.39439 0.44074 0.83296
 C1303 C 0.38531 0.43428 0.80644
 H1304 H 0.36841 0.44609 0.79742
 O1305 O 0.51994 0.63591 0.90140
 O1306 O 0.51953 0.66821 0.86968
 C1307 C 0.53009 0.65780 0.89120
 C1308 C 0.55512 0.67038 0.90399
 C1309 C 0.56678 0.69488 0.89347
 H1310 H 0.55690 0.70538 0.87645
 O1311 O 0.46194 0.35715 0.90375
 O1312 O 0.45845 0.32493 0.87180
 C1313 C 0.45096 0.33496 0.89461
 C1314 C 0.42894 0.32104 0.91049
 C1315 C 0.41755 0.29566 0.90166
 H1316 H 0.42546 0.28573 0.88343
 O1317 O 0.63980 0.59214 0.96436
 O1318 O 0.67269 0.62386 0.96243
 C1319 C 0.66182 0.60150 0.95360
 C1320 C 0.67428 0.58650 0.93013
 C1321 C 0.69981 0.59484 0.91899
 H1322 H 0.71113 0.61192 0.92826
 O1323 O 0.35872 0.39789 0.98283
 O1324 O 0.32501 0.36706 0.98495
 C1325 C 0.33514 0.38905 0.97482
 C1326 C 0.31997 0.40433 0.95303
 C1327 C 0.29302 0.39637 0.94455
 H1328 H 0.28271 0.37913 0.95430
 Cu1329 Cu 0.48871 0.37843 0.88686
 Cu1330 Cu 0.48482 0.33970 0.84852
 Cu1331 Cu 0.49109 0.61501 0.88729
 Cu1332 Cu 0.49032 0.65353 0.84902
 Cu1333 Cu 0.37876 0.49883 0.89386
 Cu1334 Cu 0.33649 0.49932 0.85885
 Cu1335 Cu 0.60647 0.49358 0.87903
 Cu1336 Cu 0.64192 0.49229 0.83826
 C1337 C 0.41593 0.42513 0.84478
 H1338 H 0.42279 0.42995 0.86534
 C1339 C 0.39753 0.41231 0.79177
 C1340 C 0.55991 0.56766 0.83766
 H1341 H 0.55428 0.56065 0.85781
 C1342 C 0.57503 0.58665 0.78586
 C1343 C 0.33312 0.42655 0.93973
 H1344 H 0.35401 0.43253 0.94564
 C1345 C 0.27926 0.41085 0.92353
 C1346 C 0.65983 0.56429 0.91798
 H1347 H 0.64002 0.55799 0.92620
 C1348 C 0.71090 0.58116 0.89603
 C1349 C 0.41849 0.33366 0.93416
 H1350 H 0.42687 0.35344 0.94085
 C1351 C 0.39606 0.28287 0.91621
 C1352 C 0.56884 0.65658 0.92557
 H1353 H 0.56052 0.63733 0.93338
 C1354 C 0.59191 0.70518 0.90413
 C1355 C 0.41644 0.57236 0.84506
 H1356 H 0.42533 0.56515 0.86413
 C1357 C 0.39240 0.59173 0.79636
 C1358 C 0.55829 0.42100 0.83626
 H1359 H 0.55139 0.42985 0.85539
 C1360 C 0.57739 0.39685 0.78761
 C1361 C 0.56275 0.32883 0.92492
 H1362 H 0.55578 0.34839 0.93355
 C1363 C 0.58160 0.27911 0.90111
 C1364 C 0.42329 0.66462 0.93327
 H1365 H 0.43235 0.64549 0.94087
 C1366 C 0.39857 0.71334 0.91277
 C1367 C 0.33531 0.57151 0.94118
 H1368 H 0.35615 0.56501 0.94683
 C1369 C 0.28188 0.58877 0.92533
 C1370 C 0.65335 0.41979 0.91934
 H1371 H 0.63451 0.42840 0.92793
 C1372 C 0.70111 0.39609 0.89639
 O1373 O 0.53528 0.39517 1.13485
 O1374 O 0.53733 0.36306 1.16676
 C1375 C 0.54620 0.38551 1.15648
 C1376 C 0.56957 0.40059 1.16953
 C1377 C 0.57965 0.39291 1.19541
 H1378 H 0.56996 0.37598 1.20624
 O1379 O 0.48368 0.59997 1.13773
 O1380 O 0.48697 0.63311 1.16879
 C1381 C 0.47596 0.61074 1.16013
 C1382 C 0.45339 0.59744 1.17571
 C1383 C 0.44224 0.61039 1.19892
 H1384 H 0.45109 0.62973 1.20626
 O1385 O 0.37436 0.52603 1.10787
 O1386 O 0.34337 0.52683 1.14073
 C1387 C 0.35217 0.53575 1.11805
 C1388 C 0.33652 0.55792 1.10372
 C1389 C 0.31023 0.56585 1.11312
 H1390 H 0.30151 0.55546 1.13059
 O1391 O 0.64058 0.46826 1.08897
 O1392 O 0.67541 0.46718 1.11848
 C1393 C 0.66363 0.45817 1.09687
 C1394 C 0.67676 0.43521 1.08144
 C1395 C 0.70326 0.42612 1.08916
 H1396 H 0.71435 0.43670 1.10548
 O1397 O 0.59673 0.35400 1.02047
 O1398 O 0.62903 0.32140 1.01873
 C1399 C 0.60713 0.33143 1.02926
 C1400 C 0.59412 0.31725 1.05255
 C1401 C 0.60428 0.29151 1.06174
 H1402 H 0.62146 0.28178 1.05122
 O1403 O 0.40492 0.63992 1.03232
 O1404 O 0.37210 0.67187 1.03547
 C1405 C 0.39570 0.66231 1.04274
 C1406 C 0.41237 0.67655 1.06417
 C1407 C 0.40369 0.70205 1.07552
 H1408 H 0.38508 0.71220 1.06787
 O1409 O 0.41263 0.47173 1.14515
 O1410 O 0.38202 0.47279 1.17830
 C1411 C 0.40380 0.46260 1.16771
 C1412 C 0.41866 0.43925 1.18107
 C1413 C 0.41058 0.42930 1.20671
 H1414 H 0.39375 0.43938 1.21751
 O1415 O 0.60810 0.52307 1.13024
 O1416 O 0.64273 0.52186 1.15996
 C1417 C 0.61967 0.53198 1.15191
 C1418 C 0.60633 0.55473 1.16746
 C1419 C 0.61680 0.56316 1.19297
 H1420 H 0.63482 0.55264 1.20142
 O1421 O 0.47745 0.35874 1.10124
 O1422 O 0.47953 0.32619 1.13270
 C1423 C 0.46848 0.33625 1.11125
 C1424 C 0.44459 0.32199 1.09817
 C1425 C 0.43577 0.29610 1.10774
 H1426 H 0.44702 0.28602 1.12420
 O1427 O 0.53664 0.63426 1.09617
 O1428 O 0.54028 0.66734 1.12725
 C1429 C 0.54769 0.65664 1.10470
 C1430 C 0.56965 0.67016 1.08849
 C1431 C 0.57964 0.69649 1.09604
 H1432 H 0.57064 0.70718 1.11334
 O1433 O 0.36326 0.39898 1.03588
 O1434 O 0.32961 0.36811 1.03832
 C1435 C 0.34115 0.39029 1.04684
 C1436 C 0.32935 0.40569 1.07028
 C1437 C 0.30403 0.39746 1.08180
 H1438 H 0.29257 0.38023 1.07297
 O1439 O 0.64282 0.59149 1.01775
 O1440 O 0.67537 0.62357 1.01578
 C1441 C 0.66595 0.60128 1.02586
 C1442 C 0.68149 0.58724 1.04803
 C1443 C 0.70716 0.59766 1.05715
 H1444 H 0.71591 0.61561 1.04719
 O1445 O 0.53760 0.59771 1.13478
 O1446 O 0.54104 0.63060 1.16609
 C1447 C 0.54883 0.60740 1.15632
 C1448 C 0.57160 0.59172 1.16962
 C1449 C 0.58224 0.59992 1.19513
 H1450 H 0.57301 0.61744 1.20570
 O1451 O 0.48162 0.39605 1.13930
 O1452 O 0.48357 0.36367 1.17095
 C1453 C 0.47400 0.38660 1.16217
 C1454 C 0.45332 0.40216 1.17830
 C1455 C 0.44546 0.39284 1.20414
 H1456 H 0.45523 0.37448 1.21268
 O1457 O 0.64476 0.52222 1.09172
 O1458 O 0.67944 0.52111 1.12139
 C1459 C 0.66834 0.53094 1.09995
 C1460 C 0.68255 0.55316 1.08469
 C1461 C 0.70824 0.56394 1.09368
 H1462 H 0.71834 0.55530 1.11157
 O1463 O 0.37299 0.47202 1.10892
 O1464 O 0.34236 0.47306 1.14208
 C1465 C 0.35066 0.46329 1.11948
 C1466 C 0.33430 0.44121 1.10576
 C1467 C 0.30895 0.43277 1.11682
 H1468 H 0.30088 0.44349 1.13453
 O1469 O 0.60581 0.63071 1.01999
 O1470 O 0.63833 0.66281 1.01779
 C1471 C 0.61632 0.65342 1.02846
 C1472 C 0.60307 0.66875 1.05123
 C1473 C 0.61268 0.69524 1.05907
 H1474 H 0.62972 0.70457 1.04819
 O1475 O 0.39926 0.35908 1.03388
 O1476 O 0.36592 0.32787 1.03639
 C1477 C 0.38947 0.33704 1.04418
 C1478 C 0.40554 0.32246 1.06581
 C1479 C 0.39654 0.29689 1.07633
 H1480 H 0.37782 0.28724 1.06836
 O1481 O 0.60780 0.46879 1.13054
 O1482 O 0.64253 0.46777 1.16018
 C1483 C 0.61904 0.45898 1.15200
 C1484 C 0.60489 0.43682 1.16735
 C1485 C 0.61463 0.42896 1.19323
 H1486 H 0.63252 0.43944 1.20194
 O1487 O 0.41311 0.52632 1.14467
 O1488 O 0.38221 0.52739 1.17758
 C1489 C 0.40417 0.53668 1.16681
 C1490 C 0.41865 0.56074 1.17932
 C1491 C 0.40802 0.57376 1.20274
 H1492 H 0.38996 0.56520 1.21269
 O1493 O 0.48254 0.63693 1.09965
 O1494 O 0.48625 0.67005 1.13069
 C1495 C 0.47467 0.66010 1.10945
 C1496 C 0.45113 0.67519 1.09672
 C1497 C 0.44210 0.70051 1.10781
 H1498 H 0.45346 0.70975 1.12469
 O1499 O 0.53130 0.35667 1.09797
 O1500 O 0.53350 0.32434 1.12964
 C1501 C 0.54106 0.33383 1.10680
 C1502 C 0.56188 0.31854 1.09061
 C1503 C 0.57219 0.29277 1.09949
 H1504 H 0.56400 0.28350 1.11780
 O1505 O 0.63510 0.39159 1.01832
 O1506 O 0.66763 0.35922 1.01693
 C1507 C 0.65832 0.38196 1.02661
 C1508 C 0.67424 0.39730 1.04799
 C1509 C 0.70057 0.38786 1.05697
 H1510 H 0.70970 0.36924 1.04827
 O1511 O 0.36831 0.60070 1.03533
 O1512 O 0.33510 0.63229 1.03809
 C1513 C 0.34627 0.60981 1.04633
 C1514 C 0.33366 0.59426 1.06910
 C1515 C 0.30745 0.60203 1.07909
 H1516 H 0.29618 0.61916 1.06983
 Cu1517 Cu 0.50623 0.37991 1.11516
 Cu1518 Cu 0.50868 0.34099 1.15317
 Cu1519 Cu 0.50981 0.61387 1.11397
 Cu1520 Cu 0.51407 0.65365 1.15129
 Cu1521 Cu 0.38251 0.38175 1.00809
 Cu1522 Cu 0.34230 0.34454 1.01091
 Cu1523 Cu 0.61082 0.37580 0.99303
 Cu1524 Cu 0.64977 0.33690 0.99105
 Cu1525 Cu 0.38730 0.61730 1.00710
 Cu1526 Cu 0.34767 0.65540 1.01055
 Cu1527 Cu 0.61908 0.60754 0.99253
 Cu1528 Cu 0.65822 0.64596 0.99002
 Cu1529 Cu 0.39656 0.49884 1.12350
 Cu1530 Cu 0.35945 0.50011 1.16304
 Cu1531 Cu 0.62179 0.49584 1.10746
 Cu1532 Cu 0.66354 0.49428 1.14292
 C1533 C 0.58216 0.42275 1.15582
 H1534 H 0.57472 0.42861 1.13575
 C1535 C 0.60190 0.40731 1.20762
 C1536 C 0.44155 0.57254 1.16622
 H1537 H 0.44959 0.56280 1.14796
 C1538 C 0.41937 0.59881 1.21241
 C1539 C 0.34799 0.57197 1.08143
 H1540 H 0.36839 0.56607 1.07419
 C1541 C 0.29548 0.58768 1.10085
 C1542 C 0.66253 0.42107 1.06044
 H1543 H 0.64195 0.42807 1.05442
 C1544 C 0.71520 0.40255 1.07730
 C1545 C 0.57267 0.33040 1.06691
 H1546 H 0.56506 0.35049 1.06020
 C1547 C 0.59330 0.27901 1.08514
 C1548 C 0.43632 0.66349 1.07477
 H1549 H 0.44295 0.64365 1.06651
 C1550 C 0.41834 0.71392 1.09757
 C1551 C 0.44020 0.42564 1.16721
 H1552 H 0.44612 0.43276 1.14718
 C1553 C 0.42416 0.40628 1.21850
 C1554 C 0.58353 0.56891 1.15616
 H1555 H 0.57559 0.56273 1.13633
 C1556 C 0.60464 0.58556 1.20717
 C1557 C 0.42965 0.33478 1.07688
 H1558 H 0.43638 0.35480 1.06944
 C1559 C 0.41182 0.28351 1.09700
 C1560 C 0.58133 0.65654 1.06590
 H1561 H 0.57397 0.63605 1.06017
 C1562 C 0.60096 0.70933 1.08139
 C1563 C 0.34427 0.42773 1.08235
 H1564 H 0.36403 0.43393 1.07394
 C1565 C 0.29387 0.41070 1.10527
 C1566 C 0.66959 0.56476 1.06166
 H1567 H 0.64960 0.55690 1.05489
 C1568 C 0.72084 0.58608 1.07988
 C1569 C 1.11085 1.13490 1.28562
 C1570 C 1.12913 1.12412 1.26609
 N1571 N 1.15696 1.12667 1.26991
 C1572 C 1.16739 1.13954 1.29246
 C1573 C 1.14916 1.15039 1.31214
 N1574 N 1.12123 1.14776 1.30814
 N1575 N 1.08301 1.13258 1.28162
 C1576 C 1.07258 1.12022 1.25877
 C1577 C 1.09084 1.10974 1.23891
 N1578 N 1.11875 1.11182 1.24329
 H1579 H 1.18967 1.14164 1.29483
 H1580 H 1.05028 1.11855 1.25624
 C1581 C 1.11293 0.62883 0.79336
 C1582 C 1.13199 0.61595 0.77586
 N1583 N 1.15943 0.61578 0.78258
 C1584 C 1.16873 0.62829 0.80584
 C1585 C 1.14976 0.64195 0.82307
 N1586 N 1.12221 0.64154 0.81640
 N1587 N 1.08554 0.62922 0.78662
 C1588 C 1.07634 0.61782 0.76284
 C1589 C 1.09545 0.60571 0.74467
 N1590 N 1.12286 0.60475 0.75195
 H1591 H 1.19078 0.62834 0.81038
 H1592 H 1.05432 0.61838 0.75816
 C1593 C 0.59735 1.11711 0.79041
 C1594 C 0.61819 1.11042 0.77157
 N1595 N 0.64526 1.11362 0.77861
 C1596 C 0.65255 1.12279 0.80383
 C1597 C 0.63182 1.12884 0.82313
 N1598 N 0.60459 1.12610 0.81580
 N1599 N 0.57026 1.11391 0.78317
 C1600 C 0.56307 1.10442 0.75793
 C1601 C 0.58395 1.09763 0.73905
 N1602 N 0.61105 1.10078 0.74649
 H1603 H 0.67436 1.12499 0.80892
 H1604 H 0.54130 1.10193 0.75278
 C1605 C 0.63822 0.61287 1.28280
 C1606 C 0.62501 0.63162 1.26513
 N1607 N 0.62392 0.65903 1.27186
 C1608 C 0.63580 0.66859 1.29537
 C1609 C 0.64964 0.64990 1.31288
 N1610 N 0.65023 0.62240 1.30609
 N1611 N 0.63952 0.58552 1.27608
 C1612 C 0.62855 0.57604 1.25220
 C1613 C 0.61585 0.59483 1.23396
 N1614 N 0.61416 0.62222 1.24118
 H1615 H 0.63521 0.69062 1.29988
 H1616 H 0.62963 0.55404 1.24769
 C1617 C 0.86723 0.88412 1.28301
 C1618 C 0.89621 0.88571 1.28009
 N1619 N 0.91305 0.87885 1.30137
 C1620 C 0.90218 0.87016 1.32534
 C1621 C 0.87319 0.86825 1.32816
 N1622 N 0.85641 0.87542 1.30688
 N1623 N 0.85036 0.89050 1.26170
 C1624 C 0.86109 0.89867 1.23757
 C1625 C 0.89012 0.90066 1.23454
 N1626 N 0.90701 0.89391 1.25595
 H1627 H 0.91594 0.86430 1.34192
 H1628 H 0.84704 0.90328 1.22085
 C1629 C 0.88704 0.37580 0.78174
 C1630 C 0.86780 0.38571 0.76235
 N1631 N 0.84021 0.38212 0.76640
 C1632 C 0.83095 0.36910 0.78904
 C1633 C 0.85014 0.35915 0.80852
 N1634 N 0.87781 0.36276 0.80435
 N1635 N 0.91463 0.37929 0.77759
 C1636 C 0.92390 0.39186 0.75469
 C1637 C 0.90471 0.40128 0.73493
 N1638 N 0.87704 0.39816 0.73944
 H1639 H 0.80883 0.36645 0.79187
 H1640 H 0.94605 0.39424 0.75183
 C1641 C 0.36963 0.89142 0.78082
 C1642 C 0.37936 0.87064 0.76311
 N1643 N 0.37800 0.84362 0.77079
 C1644 C 0.36769 0.83646 0.79549
 C1645 C 0.35844 0.85726 0.81370
 N1646 N 0.35947 0.88430 0.80557
 N1647 N 0.37082 0.91844 0.77313
 C1648 C 0.38113 0.92565 0.74845
 C1649 C 0.39083 0.90490 0.73047
 N1650 N 0.38980 0.87780 0.73844
 H1651 H 0.36681 0.81472 0.80096
 H1652 H 0.38197 0.94741 0.74306
 C1653 C 0.39694 0.37359 1.29368
 C1654 C 0.37787 0.38357 1.27418
 N1655 N 0.35026 0.38249 1.27925
 C1656 C 0.34080 0.37231 1.30316
 C1657 C 0.35980 0.36307 1.32322
 N1658 N 0.38753 0.36366 1.31779
 N1659 N 0.42456 0.37453 1.28837
 C1660 C 0.43397 0.38497 1.26444
 C1661 C 0.41490 0.39521 1.24496
 N1662 N 0.38724 0.39423 1.25045
 H1663 H 0.31864 0.37179 1.30668
 H1664 H 0.45612 0.38560 1.26084
 C1665 C 0.86160 1.11801 0.71874
 C1666 C 0.89070 1.11630 0.72101
 N1667 N 0.90669 1.12557 0.70038
 C1668 C 0.89494 1.13707 0.67781
 C1669 C 0.86582 1.13990 0.67592
 N1670 N 0.84983 1.12989 0.69639
 N1671 N 0.84562 1.10877 0.73942
 C1672 C 0.85741 1.09800 0.76233
 C1673 C 0.88658 1.09669 0.76490
 N1674 N 0.90250 1.10592 0.74404
 H1675 H 0.90818 1.14468 0.66180
 H1676 H 0.84412 1.09119 0.77866
 C1677 C 0.87705 0.61449 0.21120
 C1678 C 0.88581 0.63471 0.23012
 N1679 N 0.88120 0.66200 0.22471
 C1680 C 0.86807 0.66998 0.20133
 C1681 C 0.85882 0.64973 0.18254
 N1682 N 0.86371 0.62241 0.18801
 N1683 N 0.88153 0.58722 0.21655
 C1684 C 0.89381 0.57914 0.24026
 C1685 C 0.90173 0.59922 0.25981
 N1686 N 0.89785 0.62666 0.25400
 H1687 H 0.86433 0.69185 0.19770
 H1688 H 0.89702 0.55719 0.24394
 C1689 C 0.38950 1.13232 0.21502
 C1690 C 0.37177 1.12122 0.23474
 N1691 N 0.34386 1.12335 0.23145
 C1692 C 0.33279 1.13571 0.20905
 C1693 C 0.35039 1.14611 0.18878
 N1694 N 0.37846 1.14448 0.19244
 N1695 N 0.41746 1.13024 0.21856
 C1696 C 0.42847 1.11760 0.24095
 C1697 C 0.41069 1.10629 0.26063
 N1698 N 0.38272 1.10845 0.25690
 H1699 H 0.31043 1.13707 0.20681
 H1700 H 0.45082 1.11609 0.24318
 C1701 C 0.35535 0.62387 0.72420
 C1702 C 0.38436 0.62314 0.72753
 N1703 N 0.40078 0.63332 0.70763
 C1704 C 0.38952 0.64470 0.68475
 C1705 C 0.36042 0.64641 0.68168
 N1706 N 0.34403 0.63555 0.70147
 N1707 N 0.33896 0.61369 0.74415
 C1708 C 0.35024 0.60288 0.76733
 C1709 C 0.37935 0.60242 0.77095
 N1710 N 0.39564 0.61265 0.75079
 H1711 H 0.40314 0.65280 0.66929
 H1712 H 0.33655 0.59542 0.78303
 C1713 C 1.12579 0.86344 0.72622
 C1714 C 1.12405 0.89258 0.72776
 N1715 N 1.13097 0.90799 0.70575
 C1716 C 1.13970 0.89558 0.68234
 C1717 C 1.14159 0.86641 0.68082
 N1718 N 1.13448 0.85106 0.70289
 N1719 N 1.11904 0.84798 0.74817
 C1720 C 1.11025 0.86025 0.77154
 C1721 C 1.10793 0.88944 0.77311
 N1722 N 1.11518 0.90493 0.75112
 H1723 H 1.14530 0.90827 0.66511
 H1724 H 1.10514 0.84730 0.78874
 C1725 C 1.12200 0.36114 0.21799
 C1726 C 1.12107 0.39031 0.21974
 N1727 N 1.12890 0.40564 0.19800
 C1728 C 1.13789 0.39318 0.17473
 C1729 C 1.13922 0.36394 0.17298
 N1730 N 1.13100 0.34865 0.19476
 N1731 N 1.11440 0.34579 0.23976
 C1732 C 1.10563 0.35819 0.26310
 C1733 C 1.10424 0.38744 0.26493
 N1734 N 1.11227 0.40279 0.24309
 H1735 H 1.14420 0.40594 0.15779
 H1736 H 1.09996 0.34527 0.28015
 C1737 C 0.63929 0.88151 0.22112
 C1738 C 0.61061 0.88098 0.22596
 N1739 N 0.59315 0.87028 0.20675
 C1740 C 0.60316 0.85986 0.18295
 C1741 C 0.63195 0.85998 0.17823
 N1742 N 0.64928 0.87101 0.19748
 N1743 N 0.65677 0.89204 0.24034
 C1744 C 0.64688 0.90215 0.26427
 C1745 C 0.61810 0.90167 0.26931
 N1746 N 0.60071 0.89095 0.24990
 H1747 H 0.58889 0.85141 0.16791
 H1748 H 0.66149 0.90981 0.27938
 C1749 C 0.61317 0.35841 0.71818
 C1750 C 0.61218 0.38748 0.72076
 N1751 N 0.62379 0.40354 0.70133
 C1752 C 0.63684 0.39185 0.67965
 C1753 C 0.63877 0.36269 0.67740
 N1754 N 0.62650 0.34667 0.69668
 N1755 N 0.60169 0.34241 0.73777
 C1756 C 0.58941 0.35412 0.75991
 C1757 C 0.58878 0.38330 0.76285
 N1758 N 0.60024 0.39919 0.74301
 H1759 H 0.64609 0.40517 0.66455
 H1760 H 0.58112 0.34071 0.77546
 C1761 C 1.27377 1.14527 1.12578
 C1762 C 1.27128 1.11625 1.12707
 N1763 N 1.29152 1.10109 1.13949
 C1764 C 1.31395 1.11373 1.15107
 C1765 C 1.31614 1.14294 1.15048
 N1766 N 1.29603 1.15785 1.13742
 N1767 N 1.25354 1.16052 1.11354
 C1768 C 1.23084 1.14805 1.10244
 C1769 C 1.22820 1.11891 1.10362
 N1770 N 1.24856 1.10374 1.11608
 H1771 H 1.32983 1.10114 1.16079
 H1772 H 1.21479 1.16089 1.09334
 C1773 C 1.29279 0.61485 0.63278
 C1774 C 1.27379 0.63409 0.62177
 N1775 N 1.27919 0.66167 0.62380
 C1776 C 1.30283 0.67093 0.63614
 C1777 C 1.32220 0.65175 0.64692
 N1778 N 1.31650 0.62406 0.64506
 N1779 N 1.28723 0.58727 0.63096
 C1780 C 1.26341 0.57805 0.61891
 C1781 C 1.24412 0.59727 0.60812
 N1782 N 1.24999 0.62492 0.60970
 H1783 H 1.30645 0.69308 0.63757
 H1784 H 1.25953 0.55592 0.61782
 C1785 C 0.79461 1.11260 0.63032
 C1786 C 0.77614 1.13279 0.62017
 N1787 N 0.78319 1.16004 0.62163
 C1788 C 0.80793 1.16804 0.63266
 C1789 C 0.82667 1.14787 0.64276
 N1790 N 0.81935 1.12054 0.64139
 N1791 N 0.78754 1.08536 0.62886
 C1792 C 0.76271 1.07738 0.61799
 C1793 C 0.74386 1.09758 0.60815
 N1794 N 0.75130 1.12487 0.60935
 H1795 H 0.81279 1.18996 0.63375
 H1796 H 0.75789 1.05545 0.61689
 C1797 C 0.79367 0.62508 1.11051
 C1798 C 0.77534 0.61190 1.12795
 N1799 N 0.78075 0.61304 1.15629
 C1800 C 0.80342 0.62746 1.16726
 C1801 C 0.82089 0.64078 1.14840
 N1802 N 0.81568 0.63906 1.12105
 N1803 N 0.78898 0.62420 1.08323
 C1804 C 0.76628 0.61107 1.07273
 C1805 C 0.74712 0.59845 1.09034
 N1806 N 0.75247 0.59891 1.11769
 H1807 H 0.78546 0.61472 1.16991
 H1808 H 0.76328 0.61060 1.05087
 C1809 C 1.28113 0.86316 0.87361
 C1810 C 1.28078 0.89228 0.87565
 N1811 N 1.30298 0.90690 0.86673
 C1812 C 1.32536 0.89381 0.85559
 C1813 C 1.32561 0.86461 0.85288
 N1814 N 1.30339 0.85005 0.86229
 N1815 N 1.25922 0.84846 0.88301
 C1816 C 1.23703 0.86148 0.89449
 C1817 C 1.23646 0.89072 0.89667
 N1818 N 1.25847 0.90541 0.88695
 H1819 H 1.34296 0.90609 0.84941
 H1820 H 1.21983 0.84910 0.90158
 C1821 C 1.28182 0.36701 0.38035
 C1822 C 1.28002 0.39618 0.37991
 N1823 N 1.30168 0.41117 0.37039
 C1824 C 1.32498 0.39829 0.36110
 C1825 C 1.32666 0.36907 0.36122
 N1826 N 1.30496 0.35418 0.37095
 N1827 N 1.26029 0.35194 0.38987
 C1828 C 1.23704 0.36470 0.39924
 C1829 C 1.23516 0.39392 0.39907
 N1830 N 1.25672 0.40900 0.38918
 H1831 H 1.34194 0.41063 0.35343
 H1832 H 1.22011 0.35213 0.40663
 C1833 C 0.79380 0.86462 0.38637
 C1834 C 0.79025 0.89359 0.38574
 N1835 N 0.81041 0.90966 0.37486
 C1836 C 0.83385 0.89807 0.36435
 C1837 C 0.83741 0.86897 0.36460
 N1838 N 0.81720 0.85299 0.37585
 N1839 N 0.77350 0.84853 0.39690
 C1840 C 0.74985 0.86004 0.40700
 C1841 C 0.74616 0.88917 0.40669
 N1842 N 0.76661 0.90516 0.39583
 H1843 H 0.84951 0.91143 0.35575
 H1844 H 0.73391 0.84641 0.41462
 C1845 C 0.77257 0.35620 0.86499
 C1846 C 0.77164 0.38529 0.86792
 N1847 N 0.79414 0.40060 0.86117
 C1848 C 0.81735 0.38821 0.85116
 C1849 C 0.81811 0.35915 0.84751
 N1850 N 0.79567 0.34381 0.85477
 N1851 N 0.75006 0.34089 0.87167
 C1852 C 0.72670 0.35330 0.88133
 C1853 C 0.72567 0.38243 0.88435
 N1854 N 0.74825 0.39775 0.87744
 H1855 H 0.83486 0.40091 0.84542
 H1856 H 0.70904 0.34056 0.88654
 C1857 C 0.71073 0.85862 1.12036
 C1858 C 0.71263 0.88774 1.12008
 N1859 N 0.69137 0.90328 1.13001
 C1860 C 0.66841 0.89099 1.14044
 C1861 C 0.66660 0.86177 1.14115
 N1862 N 0.68789 0.84634 1.13088
 N1863 N 0.73197 0.84305 1.11056
 C1864 C 0.75501 0.85525 1.10029
 C1865 C 0.75701 0.88448 1.09976
 N1866 N 0.73569 0.90000 1.10990
 H1867 H 0.65178 0.90387 1.14828
 H1868 H 0.77175 0.84219 1.09299
 C1869 C 0.70973 0.37786 0.61209
 C1870 C 0.72889 0.38816 0.63137
 N1871 N 0.72340 0.38576 0.65833
 C1872 C 0.69962 0.37350 0.66688
 C1873 C 0.68042 0.36306 0.64763
 N1874 N 0.68604 0.36554 0.62061
 N1875 N 0.71524 0.38014 0.58516
 C1876 C 0.73926 0.39186 0.57658
 C1877 C 0.75887 0.40165 0.59580
 N1878 N 0.75297 0.39978 0.62283
 H1879 H 0.69578 0.37166 0.68849
 H1880 H 0.74301 0.39342 0.55493
 C1881 C 0.20681 0.87052 0.60735
 C1882 C 0.22709 0.88244 0.62443
 N1883 N 0.22300 0.88341 0.65169
 C1884 C 0.19931 0.87336 0.66272
 C1885 C 0.17845 0.86200 0.64571
 N1886 N 0.18293 0.86063 0.61831
 N1887 N 0.21113 0.86953 0.58005
 C1888 C 0.23479 0.87997 0.56906
 C1889 C 0.25509 0.89220 0.58614
 N1890 N 0.25054 0.89304 0.61348
 H1891 H 0.19673 0.87435 0.68457
 H1892 H 0.23740 0.87924 0.54721
 C1893 C 0.21956 0.38266 1.14153
 C1894 C 0.22283 0.38176 1.11315
 N1895 N 0.20206 0.37150 1.09718
 C1896 C 0.17824 0.36182 1.10837
 C1897 C 0.17509 0.36230 1.13684
 N1898 N 0.19587 0.37292 1.15270
 N1899 N 0.24038 0.39262 1.15753
 C1900 C 0.26439 0.40185 1.14647
 C1901 C 0.26783 0.40111 1.11798
 N1902 N 0.24685 0.39090 1.10205
 H1903 H 0.16201 0.35356 1.09528
 H1904 H 0.28079 0.40911 1.15990
 C1905 C 0.71033 1.12528 0.87607
 C1906 C 0.71173 1.09616 0.87818
 N1907 N 0.68886 1.08073 0.87226
 C1908 C 0.66473 1.09314 0.86417
 C1909 C 0.66338 1.12225 0.86219
 N1910 N 0.68629 1.13760 0.86817
 N1911 N 0.73315 1.14079 0.88148
 C1912 C 0.75728 1.12858 0.88945
 C1913 C 0.75864 1.09950 0.89241
 N1914 N 0.73583 1.08388 0.88640
 H1915 H 0.64686 1.08052 0.85898
 H1916 H 0.77518 1.14149 0.89379
 C1917 C 0.71507 0.62602 0.38283
 C1918 C 0.73522 0.61632 0.36455
 N1919 N 0.73158 0.62041 0.33742
 C1920 C 0.70871 0.63392 0.32773
 C1921 C 0.68862 0.64393 0.34603
 N1922 N 0.69236 0.63964 0.37320
 N1923 N 0.71884 0.62226 0.40997
 C1924 C 0.74217 0.60968 0.41975
 C1925 C 0.76283 0.60065 0.40157
 N1926 N 0.75861 0.60392 0.37431
 H1927 H 0.70648 0.63737 0.30605
 H1928 H 0.74468 0.60705 0.44152
 C1929 C 0.21311 1.11599 0.36133
 C1930 C 0.23225 1.13423 0.37353
 N1931 N 0.22703 1.16197 0.37360
 C1932 C 0.20349 1.17235 0.36193
 C1933 C 0.18422 1.15415 0.34961
 N1934 N 0.18962 1.12632 0.34969
 N1935 N 0.21852 1.08829 0.36094
 C1936 C 0.24240 1.07798 0.37198
 C1937 C 0.26186 1.09623 0.38395
 N1938 N 0.25606 1.12397 0.38456
 H1939 H 0.20012 1.19460 0.36180
 H1940 H 0.24602 1.05577 0.37156
 C1941 C 0.20823 0.61433 0.88562
 C1942 C 0.22891 0.63377 0.89255
 N1943 N 0.22631 0.66045 0.88404
 C1944 C 0.20396 0.66858 0.86891
 C1945 C 0.18339 0.64911 0.86171
 N1946 N 0.18602 0.62238 0.87032
 N1947 N 0.21086 0.58764 0.89402
 C1948 C 0.23358 0.57930 0.90848
 C1949 C 0.25483 0.59844 0.91461
 N1950 N 0.25178 0.62538 0.90672
 H1951 H 0.20223 0.68999 0.86239
 H1952 H 0.23547 0.55772 0.91442
 C1953 C 1.10456 1.29362 1.12725
 C1954 C 1.12385 1.27358 1.11843
 N1955 N 1.15143 1.27852 1.12144
 C1956 C 1.16066 1.30280 1.13242
 C1957 C 1.14149 1.32339 1.14055
 N1958 N 1.11376 1.31808 1.13802
 N1959 N 1.07696 1.28851 1.12432
 C1960 C 1.06778 1.26428 1.11306
 C1961 C 1.08706 1.24418 1.10406
 N1962 N 1.11472 1.24949 1.10698
 H1963 H 1.18280 1.30621 1.13441
 H1964 H 1.04565 1.26088 1.11087
 C1965 C 1.14157 0.78396 0.62501
 C1966 C 1.11261 0.78105 0.62659
 N1967 N 1.09728 0.80182 0.63783
 C1968 C 1.10959 0.82532 0.64762
 C1969 C 1.13867 0.82836 0.64610
 N1970 N 1.15389 0.80744 0.63469
 N1971 N 1.15697 0.76313 0.61409
 C1972 C 1.14477 0.73961 0.60434
 C1973 C 1.11561 0.73668 0.60531
 N1974 N 1.10030 0.75756 0.61675
 H1975 H 1.09680 0.84155 0.65638
 H1976 H 1.15786 0.72327 0.59627
 C1977 C 0.61035 1.29313 0.63046
 C1978 C 0.63006 1.27430 0.62023
 N1979 N 0.65749 1.28053 0.62211
 C1980 C 0.66615 1.30479 0.63368
 C1981 C 0.64649 1.32389 0.64394
 N1982 N 0.61895 1.31738 0.64208
 N1983 N 0.58292 1.28690 0.62855
 C1984 C 0.57427 1.26256 0.61712
 C1985 C 0.59395 1.24331 0.60717
 N1986 N 0.62146 1.24994 0.60886
 H1987 H 0.68819 1.30898 0.63510
 H1988 H 0.55221 1.25849 0.61563
 C1989 C 0.62830 0.78879 1.10813
 C1990 C 0.61851 0.76904 1.12659
 N1991 N 0.61742 0.77538 1.15350
 C1992 C 0.62547 0.80074 1.16284
 C1993 C 0.63488 0.82095 1.14440
 N1994 N 0.63623 0.81426 1.11740
 N1995 N 0.62947 0.78225 1.08121
 C1996 C 0.62125 0.75683 1.07192
 C1997 C 0.61120 0.73698 1.09039
 N1998 N 0.61014 0.74380 1.11733
 H1999 H 0.62472 0.80498 1.18448
 H2000 H 0.62194 0.75249 1.05029
 C2001 C 0.86412 1.29000 0.87888
 C2002 C 0.87626 1.27121 0.86050
 N2003 N 0.87643 1.27735 0.83355
 C2004 C 0.86509 1.30145 0.82413
 C2005 C 0.85283 1.32044 0.84248
 N2006 N 0.85265 1.31404 0.86951
 N2007 N 0.86406 1.28393 0.90583
 C2008 C 0.87524 1.25977 0.91525
 C2009 C 0.88695 1.24047 0.89686
 N2010 N 0.88734 1.24696 0.86984
 H2011 H 0.86535 1.30557 0.80249
 H2012 H 0.87511 1.25585 0.93692
 C2013 C 0.88319 0.79689 0.39467
 C2014 C 0.89142 0.77748 0.37480
 N2015 N 0.88867 0.78386 0.34806
 C2016 C 0.87835 0.80890 0.34022
 C2017 C 0.87049 0.82870 0.36001
 N2018 N 0.87295 0.82204 0.38688
 N2019 N 0.88585 0.79036 0.42142
 C2020 C 0.89613 0.76521 0.42921
 C2021 C 0.90422 0.74561 0.40934
 N2022 N 0.90175 0.75242 0.38255
 H2023 H 0.87639 0.81337 0.31870
 H2024 H 0.89807 0.76063 0.45071
 C2025 C 0.38167 1.28545 0.35988
 C2026 C 0.37971 1.28236 0.38823
 N2027 N 0.36908 1.30344 0.40341
 C2028 C 0.36001 1.32734 0.39152
 C2029 C 0.36138 1.33039 0.36300
 N2030 N 0.37246 1.30926 0.34793
 N2031 N 0.39240 1.26444 0.34470
 C2032 C 0.40145 1.24054 0.35656
 C2033 C 0.39967 1.23731 0.38503
 N2034 N 0.38862 1.25841 0.40014
 H2035 H 0.35168 1.34377 0.40422
 H2036 H 0.40967 1.22409 0.34382
 C2037 C 0.35898 0.78497 0.87945
 C2038 C 0.38795 0.78160 0.87817
 N2039 N 0.40346 0.80138 0.86595
 C2040 C 0.39130 0.82416 0.85457
 C2041 C 0.36217 0.82731 0.85502
 N2042 N 0.34673 0.80762 0.86782
 N2043 N 0.34351 0.76516 0.89169
 C2044 C 0.35564 0.74215 0.90272
 C2045 C 0.38471 0.73852 0.90136
 N2046 N 0.40009 0.75850 0.88896
 H2047 H 0.40418 0.83952 0.84482
 H2048 H 0.34258 0.72658 0.91189
 C2049 C 1.13011 0.70958 0.89345
 C2050 C 1.11776 0.72850 0.87533
 N2051 N 1.11843 0.72336 0.84813
 C2052 C 1.13107 0.70016 0.83818
 C2053 C 1.14369 0.68124 0.85629
 N2054 N 1.14279 0.68654 0.88355
 N2055 N 1.12985 0.71490 0.92060
 C2056 C 1.11813 0.73857 0.93050
 C2057 C 1.10625 0.75795 0.91237
 N2058 N 1.10615 0.75217 0.88516
 H2059 H 1.13195 0.69694 0.81638
 H2060 H 1.11812 0.74217 0.95227
 C2061 C 1.13188 0.21510 0.38539
 C2062 C 1.11889 0.23445 0.36814
 N2063 N 1.11897 0.23020 0.34080
 C2064 C 1.13161 0.20748 0.32986
 C2065 C 1.14487 0.18809 0.34705
 N2066 N 1.14454 0.19246 0.37450
 N2067 N 1.13208 0.21954 0.41271
 C2068 C 1.12016 0.24270 0.42358
 C2069 C 1.10753 0.26244 0.40632
 N2070 N 1.10705 0.25756 0.37896
 H2071 H 1.13183 0.20489 0.30796
 H2072 H 1.12050 0.24555 0.44546
 C2073 C 0.61978 0.70989 0.37178
 C2074 C 0.63935 0.72895 0.38208
 N2075 N 0.66678 0.72474 0.37729
 C2076 C 0.67553 0.70238 0.36261
 C2077 C 0.65597 0.68340 0.35198
 N2078 N 0.62848 0.68766 0.35694
 N2079 N 0.59236 0.71414 0.37643
 C2080 C 0.58352 0.73692 0.39039
 C2081 C 0.60295 0.75659 0.39998
 N2082 N 0.63053 0.75188 0.39583
 H2083 H 0.69752 0.69954 0.35897
 H2084 H 0.56146 0.73997 0.39346
 C2085 C 0.60877 0.20528 0.86162
 C2086 C 0.61050 0.20793 0.89011
 N2087 N 0.62053 0.18643 0.90508
 C2088 C 0.62923 0.16253 0.89288
 C2089 C 0.62802 0.15991 0.86427
 N2090 N 0.61757 0.18145 0.84938
 N2091 N 0.59883 0.22678 0.84662
 C2092 C 0.59032 0.25075 0.85878
 C2093 C 0.59177 0.25351 0.88737
 N2094 N 0.60206 0.23193 0.90232
 H2095 H 0.63728 0.14581 0.90536
 H2096 H 0.58273 0.26759 0.84617
 C2097 C 0.88830 0.71110 1.12800
 C2098 C 0.86852 0.72932 1.11670
 N2099 N 0.84107 0.72327 1.11866
 C2100 C 0.83249 0.69988 1.13153
 C2101 C 0.85226 0.68170 1.14315
 N2102 N 0.87976 0.68786 1.14100
 N2103 N 0.91572 0.71718 1.12623
 C2104 C 0.92430 0.74095 1.11411
 C2105 C 0.90454 0.75975 1.10343
 N2106 N 0.87704 0.75319 1.10474
 H2107 H 0.81047 0.69580 1.13322
 H2108 H 0.94634 0.74514 1.11296
 C2109 C 0.88083 0.20976 0.60930
 C2110 C 0.89182 0.22878 0.62830
 N2111 N 0.89007 0.22340 0.65532
 C2112 C 0.87778 0.19981 0.66423
 C2113 C 0.86668 0.18073 0.64527
 N2114 N 0.86850 0.18622 0.61818
 N2115 N 0.88235 0.21531 0.58230
 C2116 C 0.89397 0.23928 0.57341
 C2117 C 0.90447 0.25867 0.59242
 N2118 N 0.90334 0.25272 0.61946
 H2119 H 0.87636 0.19607 0.68590
 H2120 H 0.89488 0.24318 0.55174
 C2121 C 0.37326 0.71333 0.61068
 C2122 C 0.38449 0.73343 0.62837
 N2123 N 0.38389 0.72926 0.65568
 C2124 C 0.37250 0.70585 0.66613
 C2125 C 0.36120 0.68562 0.64848
 N2126 N 0.36188 0.68996 0.62108
 N2127 N 0.37364 0.71765 0.58339
 C2128 C 0.38452 0.74134 0.57295
 C2129 C 0.39552 0.76175 0.59064
 N2130 N 0.39535 0.75705 0.61798
 H2131 H 0.37187 0.70320 0.68800
 H2132 H 0.38477 0.74403 0.55109
 C2133 C 0.38462 0.20863 1.13254
 C2134 C 0.36654 0.23148 1.12978
 N2135 N 0.34031 0.22986 1.13954
 C2136 C 0.33115 0.20623 1.15151
 C2137 C 0.34882 0.18295 1.15341
 N2138 N 0.37533 0.18484 1.14412
 N2139 N 0.41109 0.21056 1.12342
 C2140 C 0.42031 0.23433 1.11168
 C2141 C 0.40214 0.25709 1.10856
 N2142 N 0.37561 0.25506 1.11773
 H2143 H 0.31021 0.20553 1.15932
 H2144 H 0.44157 0.23544 1.10471
 C2145 C 1.12219 1.13594 0.72546
 C2146 C 1.12211 1.10678 0.72696
 N2147 N 1.13160 1.09158 0.70557
 C2148 C 1.14130 1.10424 0.68283
 C2149 C 1.14165 1.13347 0.68138
 N2150 N 1.13194 1.14858 0.70282
 N2151 N 1.11269 1.15120 0.74673
 C2152 C 1.10281 1.13866 0.76938
 C2153 C 1.10233 1.10941 0.77095
 N2154 N 1.11227 1.09416 0.74965
 H2155 H 1.14877 1.09168 0.66606
 H2156 H 1.09551 1.15143 0.78607
 C2157 C 1.11740 0.63215 0.21319
 C2158 C 1.13679 0.62161 0.23210
 N2159 N 1.16434 0.62444 0.22727
 C2160 C 1.17343 0.63707 0.20429
 C2161 C 1.15413 0.64738 0.18499
 N2162 N 1.12644 0.64476 0.19014
 N2163 N 1.08984 0.62941 0.21811
 C2164 C 1.08077 0.61693 0.24118
 C2165 C 1.10009 0.60661 0.26043
 N2166 N 1.12776 0.60910 0.25520
 H2167 H 1.19556 0.63907 0.20113
 H2168 H 1.05864 0.61505 0.24444
 C2169 C 0.62169 1.12370 0.21906
 C2170 C 0.64258 1.11543 0.23755
 N2171 N 0.66957 1.12083 0.23184
 C2172 C 0.67660 1.13431 0.20860
 C2173 C 0.65566 1.14325 0.19041
 N2174 N 0.62865 1.13752 0.19609
 N2175 N 0.59473 1.11819 0.22458
 C2176 C 0.58758 1.10547 0.24812
 C2177 C 0.60827 1.09832 0.26738
 N2178 N 0.63543 1.10311 0.26135
 H2179 H 0.69825 1.13851 0.20457
 H2180 H 0.56583 1.10157 0.25203
 C2181 C 0.59986 0.62029 0.71026
 C2182 C 0.61954 0.60935 0.72860
 N2183 N 0.64693 0.61039 0.72244
 C2184 C 0.65555 0.62164 0.69862
 C2185 C 0.63588 0.63228 0.67987
 N2186 N 0.60844 0.63148 0.68644
 N2187 N 0.57246 0.61939 0.71649
 C2188 C 0.56384 0.60828 0.74037
 C2189 C 0.58353 0.59752 0.75901
 N2190 N 0.61097 0.59822 0.75246
 H2191 H 0.67756 0.62232 0.69438
 H2192 H 0.54183 0.60773 0.74467
 C2193 C 0.89949 0.88018 0.70939
 C2194 C 0.87888 0.89064 0.72673
 N2195 N 0.85212 0.89171 0.71799
 C2196 C 0.84498 0.88285 0.69260
 C2197 C 0.86558 0.87235 0.67496
 N2198 N 0.89239 0.87121 0.68405
 N2199 N 0.92627 0.87917 0.71819
 C2200 C 0.93335 0.88788 0.74370
 C2201 C 0.91262 0.89794 0.76136
 N2202 N 0.88587 0.89922 0.75219
 H2203 H 0.82336 0.88367 0.68643
 H2204 H 0.95496 0.88715 0.74994
 C2205 C 0.88208 0.36847 0.21587
 C2206 C 0.86370 0.38218 0.23348
 N2207 N 0.83606 0.38234 0.22756
 C2208 C 0.82594 0.36910 0.20500
 C2209 C 0.84425 0.35468 0.18768
 N2210 N 0.87198 0.35503 0.19356
 N2211 N 0.90968 0.36823 0.22167
 C2212 C 0.91977 0.38060 0.24463
 C2213 C 0.90138 0.39357 0.26297
 N2214 N 0.87371 0.39434 0.25662
 H2215 H 0.80378 0.36917 0.20104
 H2216 H 0.94194 0.38017 0.24848
 C2217 C 0.39856 0.87672 0.20082
 C2218 C 0.37915 0.88755 0.21925
 N2219 N 0.35171 0.88702 0.21280
 C2220 C 0.34273 0.87633 0.18863
 C2221 C 0.36210 0.86576 0.16977
 N2222 N 0.38966 0.86610 0.17656
 N2223 N 0.42600 0.87705 0.20748
 C2224 C 0.43490 0.88756 0.23182
 C2225 C 0.41546 0.89834 0.25046
 N2226 N 0.38800 0.89812 0.24348
 H2227 H 0.32065 0.87587 0.18435
 H2228 H 0.45693 0.88774 0.23639
 C2229 C 0.37082 0.39201 0.71149
 C2230 C 0.37981 0.37131 0.72966
 N2231 N 0.38004 0.34436 0.72150
 C2232 C 0.37201 0.33712 0.69585
 C2233 C 0.36356 0.35782 0.67726
 N2234 N 0.36293 0.38485 0.68574
 N2235 N 0.37058 0.41896 0.71979
 C2236 C 0.37888 0.42617 0.74544
 C2237 C 0.38799 0.40546 0.76373
 N2238 N 0.38823 0.37849 0.75517
 H2239 H 0.37224 0.31540 0.69002
 H2240 H 0.37887 0.44790 0.75122
 C2241 C 1.12369 0.89329 1.29074
 C2242 C 1.11420 0.87377 1.27143
 N2243 N 1.11640 0.84625 1.27687
 C2244 C 1.12733 0.83731 1.30089
 C2245 C 1.13635 0.85676 1.32060
 N2246 N 1.13451 0.88440 1.31486
 N2247 N 1.12149 0.92082 1.28520
 C2248 C 1.11041 0.92974 1.26118
 C2249 C 1.10097 0.91023 1.24171
 N2250 N 1.10304 0.88264 1.24750
 H2251 H 1.12877 0.81521 1.30472
 H2252 H 1.10878 0.95184 1.25745
 C2253 C 1.10881 0.37816 0.79488
 C2254 C 1.12908 0.38981 0.77806
 N2255 N 1.15629 0.38812 0.78552
 C2256 C 1.16416 0.37496 0.80886
 C2257 C 1.14392 0.36257 0.82537
 N2258 N 1.11667 0.36475 0.81793
 N2259 N 1.08165 0.37954 0.78743
 C2260 C 1.07381 0.39146 0.76354
 C2261 C 1.09410 0.40220 0.74599
 N2262 N 1.12132 0.40148 0.75398
 H2263 H 1.18603 0.37335 0.81397
 H2264 H 1.05196 0.39218 0.75814
 C2265 C 0.61794 0.88970 0.78912
 C2266 C 0.61291 0.86952 0.76885
 N2267 N 0.61973 0.84262 0.77367
 C2268 C 0.63088 0.83484 0.79800
 C2269 C 0.63531 0.85481 0.81867
 N2270 N 0.62888 0.88191 0.81360
 N2271 N 0.61113 0.91662 0.78421
 C2272 C 0.59974 0.92432 0.75992
 C2273 C 0.59467 0.90419 0.73955
 N2274 N 0.60138 0.87717 0.74463
 H2275 H 0.63563 0.81314 0.80152
 H2276 H 0.59473 0.94599 0.75647
 C2277 C 0.63497 0.38334 1.28434
 C2278 C 0.62269 0.36363 1.26692
 N2279 N 0.62275 0.33641 1.27417
 C2280 C 0.63489 0.32797 1.29791
 C2281 C 0.64786 0.34762 1.31510
 N2282 N 0.64729 0.37492 1.30783
 N2283 N 0.63512 0.41051 1.27714
 C2284 C 0.62402 0.41889 1.25300
 C2285 C 0.61245 0.39913 1.23494
 N2286 N 0.61176 0.37192 1.24264
 H2287 H 0.63521 0.30607 1.30286
 H2288 H 0.62427 0.44077 1.24805
 C2289 C 0.87550 1.10392 1.28923
 C2290 C 0.88482 1.12460 1.27147
 N2291 N 0.88532 1.15146 1.27990
 C2292 C 0.87711 1.15859 1.30540
 C2293 C 0.86801 1.13790 1.32353
 N2294 N 0.86729 1.11101 1.31473
 N2295 N 0.87501 1.07705 1.28076
 C2296 C 0.88322 1.06992 1.25523
 C2297 C 0.89232 1.09065 1.23719
 N2298 N 0.89302 1.11754 1.24598
 H2299 H 0.87752 1.18026 1.31140
 H2300 H 0.88293 1.04824 1.24926
 C2301 C 0.85955 0.62784 0.77447
 C2302 C 0.88813 0.62174 0.77626
 N2303 N 0.90139 0.62382 0.80067
 C2304 C 0.88752 0.63226 0.82326
 C2305 C 0.85911 0.63911 0.82142
 N2306 N 0.84574 0.63655 0.79699
 N2307 N 0.84629 0.62583 0.75005
 C2308 C 0.86025 0.61784 0.72737
 C2309 C 0.88885 0.61179 0.72905
 N2310 N 0.90214 0.61388 0.75356
 H2311 H 0.89872 0.63468 0.84234
 H2312 H 0.84912 0.61597 0.70817
 C2313 C 0.35352 1.12116 0.76975
 C2314 C 0.38268 1.12088 0.76824
 N2315 N 0.39797 1.12961 0.79000
 C2316 C 0.38544 1.13884 0.81309
 C2317 C 0.35622 1.13950 0.81455
 N2318 N 0.34098 1.13048 0.79275
 N2319 N 0.33820 1.11256 0.74801
 C2320 C 0.35065 1.10344 0.72488
 C2321 C 0.37990 1.10282 0.72328
 N2322 N 0.39520 1.11180 0.74509
 H2323 H 0.39807 1.14592 0.83009
 H2324 H 0.33779 1.09695 0.70782
 C2325 C 0.37974 0.64099 1.27745
 C2326 C 0.38286 0.61205 1.27792
 N2327 N 0.37339 0.59761 1.29965
 C2328 C 0.36077 0.61080 1.32088
 C2329 C 0.35701 0.63991 1.32024
 N2330 N 0.36699 0.65406 1.29843
 N2331 N 0.38982 0.65568 1.25621
 C2332 C 0.40296 0.64270 1.23530
 C2333 C 0.40610 0.61359 1.23549
 N2334 N 0.39576 0.59894 1.25688
 H2335 H 0.35485 0.59867 1.33831
 H2336 H 0.41032 0.65497 1.21843
 C2337 C 1.11351 1.29536 0.88976
 C2338 C 1.10520 1.27590 0.86988
 N2339 N 1.11154 1.28037 0.84337
 C2340 C 1.12602 1.30329 0.83588
 C2341 C 1.13493 1.32246 0.85584
 N2342 N 1.12830 1.31800 0.88235
 N2343 N 1.10734 1.29093 0.91626
 C2344 C 1.09390 1.26752 0.92396
 C2345 C 1.08667 1.24728 0.90432
 N2346 N 1.09213 1.25225 0.87760
 H2347 H 1.13117 1.30621 0.81467
 H2348 H 1.08958 1.26437 0.94532
 C2349 C 1.13681 0.78038 0.38075
 C2350 C 1.10774 0.77781 0.38070
 N2351 N 1.09177 0.79862 0.37036
 C2352 C 1.10360 0.82180 0.35985
 C2353 C 1.13273 0.82425 0.35956
 N2354 N 1.14860 0.80342 0.37017
 N2355 N 1.15282 0.75957 0.39089
 C2356 C 1.14111 0.73628 0.40115
 C2357 C 1.11196 0.73358 0.40132
 N2358 N 1.09598 0.75449 0.39088
 H2359 H 1.09048 0.83810 0.35159
 H2360 H 1.15452 0.71985 0.40865
 C2361 C 0.61898 1.29008 0.37570
 C2362 C 0.63874 1.27128 0.38618
 N2363 N 0.66611 1.27539 0.38117
 C2364 C 0.67461 1.29736 0.36607
 C2365 C 0.65483 1.31597 0.35517
 N2366 N 0.62741 1.31186 0.36039
 N2367 N 0.59162 1.28599 0.38062
 C2368 C 0.58302 1.26358 0.39497
 C2369 C 0.60263 1.24406 0.40461
 N2370 N 0.63016 1.24866 0.40025
 H2371 H 0.69654 1.30009 0.36224
 H2372 H 0.56101 1.26066 0.39827
 C2373 C 0.63164 0.77670 0.87388
 C2374 C 0.60248 0.77535 0.87470
 N2375 N 0.58714 0.79755 0.86640
 C2376 C 0.59969 0.82099 0.85729
 C2377 C 0.62886 0.82237 0.85673
 N2378 N 0.64411 0.80011 0.86505
 N2379 N 0.64707 0.75445 0.88156
 C2380 C 0.63472 0.73098 0.89055
 C2381 C 0.60552 0.72975 0.89232
 N2382 N 0.59006 0.75196 0.88397
 H2383 H 0.58714 0.83840 0.85051
 H2384 H 0.64766 0.71347 0.89626
 C2385 C 0.86229 1.28755 1.11649
 C2386 C 0.87506 1.26836 1.13403
 N2387 N 0.87503 1.27306 1.16133
 C2388 C 0.86259 1.29609 1.17192
 C2389 C 0.84948 1.31524 1.15439
 N2390 N 0.84975 1.31036 1.12704
 N2391 N 0.86207 1.28278 1.08924
 C2392 C 0.87374 1.25939 1.07867
 C2393 C 0.88603 1.23969 1.09620
 N2394 N 0.88658 1.24493 1.12352
 H2395 H 0.86224 1.29901 1.19378
 H2396 H 0.87345 1.25635 1.05682
 C2397 C 0.86785 0.79179 0.62040
 C2398 C 0.89689 0.79013 0.61810
 N2399 N 0.91260 0.81257 0.62482
 C2400 C 0.90062 0.83647 0.63407
 C2401 C 0.87157 0.83801 0.63701
 N2402 N 0.85591 0.81556 0.62981
 N2403 N 0.85207 0.76953 0.61340
 C2404 C 0.86395 0.74569 0.60404
 C2405 C 0.89306 0.74386 0.60160
 N2406 N 0.90885 0.76623 0.60889
 H2407 H 0.91364 0.85413 0.63887
 H2408 H 0.85078 0.72823 0.59882
 C2409 C 0.36441 1.28483 0.61243
 C2410 C 0.39324 1.28054 0.61422
 N2411 N 0.40946 1.29988 0.62675
 C2412 C 0.39806 1.32321 0.63782
 C2413 C 0.36911 1.32728 0.63648
 N2414 N 0.35305 1.30795 0.62361
 N2415 N 0.34812 1.26548 0.60015
 C2416 C 0.35933 1.24194 0.58948
 C2417 C 0.38825 1.23745 0.59120
 N2418 N 0.40448 1.25695 0.60369
 H2419 H 0.41133 1.33831 0.64785
 H2420 H 0.34563 1.22665 0.58037
 C2421 C 0.38934 0.78780 1.13513
 C2422 C 0.38940 0.78505 1.10661
 N2423 N 0.37971 0.80619 1.09097
 C2424 C 0.36937 0.82972 1.10256
 C2425 C 0.36813 0.83207 1.13115
 N2426 N 0.37856 0.81107 1.14673
 N2427 N 0.39904 0.76666 1.15077
 C2428 C 0.40872 0.74284 1.13921
 C2429 C 0.40840 0.73980 1.11065
 N2430 N 0.39870 0.76111 1.09504
 H2431 H 0.36132 0.84609 1.08963
 H2432 H 0.41601 0.72622 1.15226
 C2433 C 0.87814 0.70529 0.88923
 C2434 C 0.88712 0.72537 0.87056
 N2435 N 0.88201 0.72167 0.84358
 C2436 C 0.86834 0.69878 0.83439
 C2437 C 0.85921 0.67869 0.85301
 N2438 N 0.86441 0.68243 0.88007
 N2439 N 0.88314 0.70910 0.91622
 C2440 C 0.89623 0.73233 0.92546
 C2441 C 0.90460 0.75283 0.90689
 N2442 N 0.90005 0.74864 0.87979
 H2443 H 0.86457 0.69622 0.81276
 H2444 H 0.89963 0.73502 0.94714
 C2445 C 0.86870 0.21428 0.38176
 C2446 C 0.89781 0.21626 0.38324
 N2447 N 0.91365 0.19425 0.37547
 C2448 C 0.90167 0.17048 0.36598
 C2449 C 0.87254 0.16862 0.36406
 N2450 N 0.85677 0.19065 0.37214
 N2451 N 0.85283 0.23630 0.38925
 C2452 C 0.86469 0.26020 0.39838
 C2453 C 0.89387 0.26230 0.40009
 N2454 N 0.90975 0.24020 0.39228
 H2455 H 0.91468 0.15336 0.35941
 H2456 H 0.85143 0.27750 0.40395
 C2457 C 0.38471 0.70864 0.38062
 C2458 C 0.38308 0.73133 0.36271
 N2459 N 0.36882 0.72872 0.33887
 C2460 C 0.35627 0.70437 0.33200
 C2461 C 0.35824 0.68151 0.34967
 N2462 N 0.37230 0.68429 0.37370
 N2463 N 0.39820 0.71153 0.40486
 C2464 C 0.40992 0.73617 0.41214
 C2465 C 0.40824 0.75889 0.39432
 N2466 N 0.39487 0.75591 0.36995
 H2467 H 0.34469 0.70286 0.31306
 H2468 H 0.42004 0.73822 0.43184
 C2469 C 0.36234 0.20713 0.88614
 C2470 C 0.37242 0.22745 0.86838
 N2471 N 0.37163 0.22283 0.84112
 C2472 C 0.36151 0.19863 0.83075
 C2473 C 0.35189 0.17786 0.84844
 N2474 N 0.35236 0.18281 0.87583
 N2475 N 0.36319 0.21187 0.91342
 C2476 C 0.37366 0.23602 0.92377
 C2477 C 0.38396 0.25642 0.90601
 N2478 N 0.38303 0.25142 0.87867
 H2479 H 0.36108 0.19556 0.80891
 H2480 H 0.37447 0.23892 0.94562
 C2481 C 1.13036 0.72720 1.14648
 C2482 C 1.12683 0.72612 1.11802
 N2483 N 1.13309 0.70233 1.10441
 C2484 C 1.14326 0.67979 1.11786
 C2485 C 1.14769 0.68105 1.14624
 N2486 N 1.14085 0.70478 1.15992
 N2487 N 1.12413 0.75100 1.16008
 C2488 C 1.11444 0.77372 1.14657
 C2489 C 1.11101 0.77280 1.11805
 N2490 N 1.11736 0.74890 1.10444
 H2491 H 1.14880 0.66130 1.10646
 H2492 H 1.10953 0.79240 1.15796
 C2493 C 1.14245 0.21671 0.62729
 C2494 C 1.11343 0.21963 0.62831
 N2495 N 1.09798 0.19870 0.63870
 C2496 C 1.11022 0.17506 0.64824
 C2497 C 1.13937 0.17203 0.64738
 N2498 N 1.15471 0.19309 0.63675
 N2499 N 1.15795 0.23764 0.61709
 C2500 C 1.14580 0.26126 0.60753
 C2501 C 1.11660 0.26422 0.60795
 N2502 N 1.10117 0.24324 0.61867
 H2503 H 1.09732 0.15871 0.65629
 H2504 H 1.15892 0.27764 0.59992
 C2505 C 0.63340 0.71464 0.62812
 C2506 C 0.60456 0.71492 0.62333
 N2507 N 0.58966 0.69152 0.62797
 C2508 C 0.60219 0.66799 0.63746
 C2509 C 0.63100 0.66776 0.64284
 N2510 N 0.64591 0.69121 0.63778
 N2511 N 0.64844 0.73781 0.62299
 C2512 C 0.63604 0.76118 0.61309
 C2513 C 0.60715 0.76162 0.60812
 N2514 N 0.59206 0.73836 0.61355
 H2515 H 0.58980 0.64957 0.64051
 H2516 H 0.64863 0.77929 0.60910
 C2517 C 0.63007 0.20584 1.11701
 C2518 C 0.61740 0.22529 1.13427
 N2519 N 0.61833 0.22140 1.16167
 C2520 C 0.63178 0.19907 1.17261
 C2521 C 0.64521 0.17996 1.15534
 N2522 N 0.64373 0.18385 1.12790
 N2523 N 0.62939 0.20973 1.08967
 C2524 C 0.61705 0.23259 1.07873
 C2525 C 0.60511 0.25276 1.09596
 N2526 N 0.60531 0.24828 1.12340
 H2527 H 0.63287 0.19684 1.19451
 H2528 H 0.61667 0.23489 1.05683
 C2529 C 1.27629 1.14184 0.87417
 C2530 C 1.27270 1.11297 0.87252
 N2531 N 1.29203 1.09723 0.85955
 C2532 C 1.31478 1.10906 0.84810
 C2533 C 1.31852 1.13808 0.84968
 N2534 N 1.29901 1.15368 0.86283
 N2535 N 1.25690 1.15764 0.88690
 C2536 C 1.23412 1.14591 0.89828
 C2537 C 1.23044 1.11682 0.89708
 N2538 N 1.24995 1.10116 0.88393
 H2539 H 1.32994 1.09590 0.83816
 H2540 H 1.21886 1.15937 0.90762
 C2541 C 1.29075 0.61095 0.37236
 C2542 C 1.27393 0.63059 0.38562
 N2543 N 1.28104 0.65784 0.38491
 C2544 C 1.30414 0.66635 0.37151
 C2545 C 1.32099 0.64675 0.35775
 N2546 N 1.31356 0.61948 0.35864
 N2547 N 1.28393 0.58367 0.37322
 C2548 C 1.26066 0.57514 0.38620
 C2549 C 1.24294 0.59483 0.39858
 N2550 N 1.25035 0.62218 0.39828
 H2551 H 1.30896 0.68829 0.37124
 H2552 H 1.25589 0.55318 0.38653
 C2553 C 0.79193 1.13681 0.38442
 C2554 C 0.78976 1.10780 0.38611
 N2555 N 0.81081 1.09159 0.37674
 C2556 C 0.83381 1.10307 0.36546
 C2557 C 0.83583 1.13217 0.36313
 N2558 N 0.81478 1.14827 0.37299
 N2559 N 0.77107 1.15306 0.39404
 C2560 C 0.74809 1.14164 0.40533
 C2561 C 0.74567 1.11251 0.40704
 N2562 N 0.76670 1.09632 0.39720
 H2563 H 0.85048 1.08961 0.35882
 H2564 H 0.73164 1.15522 0.41233
 C2565 C 0.78751 0.60812 0.86231
 C2566 C 0.77024 0.62663 0.87649
 N2567 N 0.77793 0.65361 0.87930
 C2568 C 0.80219 0.66292 0.86872
 C2569 C 0.81982 0.64443 0.85457
 N2570 N 0.81180 0.61737 0.85166
 N2571 N 0.77981 0.58111 0.85964
 C2572 C 0.75555 0.57180 0.87031
 C2573 C 0.73788 0.59036 0.88434
 N2574 N 0.74598 0.61739 0.88714
 H2575 H 0.80750 0.68463 0.87117
 H2576 H 0.75044 0.55002 0.86816
 C2577 C 1.29586 0.90007 1.12110
 C2578 C 1.27691 0.88057 1.11059
 N2579 N 1.28342 0.85314 1.11087
 C2580 C 1.30809 0.84423 1.12127
 C2581 C 1.32724 0.86367 1.13179
 N2582 N 1.32058 0.89122 1.13142
 N2583 N 1.28904 0.92747 1.12119
 C2584 C 1.26396 0.93626 1.11147
 C2585 C 1.24480 0.91670 1.10117
 N2586 N 1.25198 0.88932 1.10087
 H2587 H 1.31258 0.82217 1.12171
 H2588 H 1.25917 0.95825 1.11167
 C2589 C 1.28617 0.38073 0.64001
 C2590 C 1.28460 0.38321 0.61152
 N2591 N 1.30696 0.37620 0.59628
 C2592 C 1.33070 0.36649 0.60818
 C2593 C 1.33220 0.36345 0.63670
 N2594 N 1.30980 0.37091 0.65190
 N2595 N 1.26384 0.38765 0.65529
 C2596 C 1.24003 0.39713 0.64344
 C2597 C 1.23832 0.39985 0.61489
 N2598 N 1.26075 0.39260 0.59960
 H2599 H 1.34816 0.36088 0.59552
 H2600 H 1.22250 0.40226 0.65620
 C2601 C 0.78664 0.86929 0.62284
 C2602 C 0.78478 0.89810 0.61844
 N2603 N 0.80771 0.91411 0.62191
 C2604 C 0.83232 0.90267 0.62995
 C2605 C 0.83412 0.87394 0.63484
 N2606 N 0.81114 0.85790 0.63108
 N2607 N 0.76374 0.85325 0.61951
 C2608 C 0.73907 0.86466 0.61174
 C2609 C 0.73709 0.89348 0.60720
 N2610 N 0.76008 0.90957 0.61077
 H2611 H 0.85017 0.91590 0.63338
 H2612 H 0.72114 0.85135 0.60901
 C2613 C 0.78717 0.37873 1.12048
 C2614 C 0.76507 0.35998 1.11686
 N2615 N 0.76578 0.33511 1.12979
 C2616 C 0.78765 0.32811 1.14611
 C2617 C 0.80966 0.34691 1.14993
 N2618 N 0.80894 0.37181 1.13691
 N2619 N 0.78644 0.40361 1.10762
 C2620 C 0.76431 0.41088 1.09178
 C2621 C 0.74176 0.39254 1.08875
 N2622 N 0.74280 0.36736 1.10127
 H2623 H 0.78810 0.30799 1.15588
 H2624 H 0.76377 0.43124 1.08246
 C2625 C 0.70785 1.11275 1.12556
 C2626 C 0.72805 1.13165 1.11675
 N2627 N 0.72643 1.15871 1.12452
 C2628 C 0.70549 1.16772 1.14076
 C2629 C 0.68548 1.14876 1.14984
 N2630 N 0.68712 1.12168 1.14196
 N2631 N 0.70945 1.08571 1.11782
 C2632 C 0.73076 1.07652 1.10219
 C2633 C 0.75163 1.09514 1.09421
 N2634 N 0.74953 1.12241 1.10143
 H2635 H 0.70442 1.18941 1.14664
 H2636 H 0.73186 1.05471 1.09672
 C2637 C 0.71322 0.63580 0.62169
 C2638 C 0.71593 0.60671 0.62046
 N2639 N 0.69459 0.59054 0.62871
 C2640 C 0.67086 0.60209 0.63855
 C2641 C 0.66829 0.63121 0.64057
 N2642 N 0.68958 0.64740 0.63178
 N2643 N 0.73459 0.65195 0.61344
 C2644 C 0.75848 0.64040 0.60392
 C2645 C 0.76137 0.61123 0.60268
 N2646 N 0.73989 0.59512 0.61114
 H2647 H 0.65428 0.58871 0.64533
 H2648 H 0.77521 0.65389 0.59776
 C2649 C 0.20721 1.12831 0.60849
 C2650 C 0.22762 1.11663 0.62560
 N2651 N 0.22371 1.11645 0.65292
 C2652 C 0.20011 1.12703 0.66394
 C2653 C 0.17913 1.13808 0.64689
 N2654 N 0.18342 1.13869 0.61946
 N2655 N 0.21131 1.12854 0.58116
 C2656 C 0.23487 1.11763 0.57016
 C2657 C 0.25530 1.10567 0.58724
 N2658 N 0.25099 1.10553 0.61464
 H2659 H 0.19762 1.12661 0.68582
 H2660 H 0.23732 1.11784 0.54827
 C2661 C 0.21911 0.61375 1.13476
 C2662 C 0.23769 0.63309 1.12383
 N2663 N 0.23158 0.66062 1.12499
 C2664 C 0.20767 0.66970 1.13660
 C2665 C 0.18900 0.65039 1.14762
 N2666 N 0.19524 0.62279 1.14639
 N2667 N 0.22527 0.58624 1.13362
 C2668 C 0.24937 0.57717 1.12235
 C2669 C 0.26832 0.59653 1.11179
 N2670 N 0.26177 0.62408 1.11263
 H2671 H 0.20332 0.69178 1.13743
 H2672 H 0.25361 0.55507 1.12158
 C2673 C 0.71441 0.86976 0.85956
 C2674 C 0.71464 0.87162 0.88817
 N2675 N 0.69097 0.86627 0.90200
 C2676 C 0.66721 0.85891 0.88861
 C2677 C 0.66689 0.85682 0.85996
 N2678 N 0.69064 0.86244 0.84612
 N2679 N 0.73807 0.87494 0.84571
 C2680 C 0.76183 0.88230 0.85905
 C2681 C 0.76212 0.88477 0.88769
 N2682 N 0.73839 0.87913 0.90159
 H2683 H 0.64874 0.85439 0.90018
 H2684 H 0.78031 0.88655 0.84737
 C2685 C 0.71341 0.37494 0.38391
 C2686 C 0.73318 0.38427 0.36520
 N2687 N 0.72929 0.37922 0.33821
 C2688 C 0.70658 0.36511 0.32909
 C2689 C 0.68693 0.35542 0.34783
 N2690 N 0.69089 0.36069 0.37485
 N2691 N 0.71738 0.37968 0.41091
 C2692 C 0.74057 0.39283 0.42015
 C2693 C 0.76092 0.40140 0.40157
 N2694 N 0.75647 0.39720 0.37443
 H2695 H 0.70418 0.36093 0.30752
 H2696 H 0.74327 0.39618 0.44183
 C2697 C 0.21605 0.87777 0.35433
 C2698 C 0.21967 0.87789 0.38275
 N2699 N 0.19866 0.86918 0.39883
 C2700 C 0.17431 0.86004 0.38779
 C2701 C 0.17071 0.85936 0.35926
 N2702 N 0.19177 0.86853 0.34324
 N2703 N 0.23710 0.88638 0.33825
 C2704 C 0.26155 0.89527 0.34927
 C2705 C 0.26531 0.89561 0.37780
 N2706 N 0.24414 0.88669 0.39381
 H2707 H 0.15796 0.85315 0.40113
 H2708 H 0.27801 0.90163 0.33580
 C2709 C 0.20310 0.38804 0.88637
 C2710 C 0.22178 0.36753 0.89558
 N2711 N 0.21645 0.34038 0.89005
 C2712 C 0.19347 0.33283 0.87548
 C2713 C 0.17517 0.35339 0.86553
 N2714 N 0.18043 0.38056 0.87145
 N2715 N 0.20835 0.41517 0.89181
 C2716 C 0.23184 0.42286 0.90536
 C2717 C 0.25138 0.40255 0.91345
 N2718 N 0.24557 0.37522 0.90873
 H2719 H 0.18988 0.31107 0.87104
 H2720 H 0.23564 0.44473 0.90907
   
