data_POSCAR
  _audit_creation_date              2014-09-24
  _audit_creation_method            'ToBaCCo'
  _symmetry_space_group_name_H-M    'P1'
  _symmetry_Int_Tables_number       1
  _symmetry_cell_setting            triclinic
  loop_
  _symmetry_equiv_pos_as_xyz
 x,y,z
_cell_length_a 62.5557
_cell_length_b 62.5499
_cell_length_c 62.5489
_cell_angle_alpha 90.018900
_cell_angle_beta 90.018700
_cell_angle_gamma 90.002400
loop_
  _atom_site_label
  _atom_site_type_symbol
  _atom_site_fract_x
  _atom_site_fract_y
  _atom_site_fract_z
O1 O 0.23261 1.02055 0.02047
 O2 O 0.23261 0.97896 -0.02126
 O3 O 0.23239 0.97893 0.02035
 O4 O 0.23240 1.02058 -0.02114
 O5 O 0.26766 1.02061 -0.02117
 O6 O 0.26765 0.97889 0.02040
 O7 O 0.26783 0.97898 -0.02121
 O8 O 0.26787 1.02050 0.02045
 Cu9 Cu 0.22897 0.99975 -0.00040
 Cu10 Cu 0.27128 0.99974 -0.00038
 C11 C 0.25026 1.02765 0.02761
 C12 C 0.25024 0.97180 -0.02842
 C13 C 0.25000 0.97176 0.02749
 C14 C 0.25001 1.02774 -0.02827
 O15 O 0.73287 0.52086 0.52078
 O16 O 0.73285 0.47927 0.47905
 O17 O 0.73266 0.47923 0.52068
 O18 O 0.73267 0.52091 0.47915
 O19 O 0.76792 0.52093 0.47912
 O20 O 0.76791 0.47919 0.52072
 O21 O 0.76811 0.47930 0.47909
 O22 O 0.76813 0.52082 0.52076
 Cu23 Cu 0.72923 0.50007 0.49992
 Cu24 Cu 0.77155 0.50006 0.49992
 C25 C 0.75052 0.52796 0.52792
 C26 C 0.75050 0.47216 0.47193
 C27 C 0.75027 0.47205 0.52782
 C28 C 0.75028 0.52807 0.47201
 O29 O 0.73192 0.97926 1.02144
 O30 O 0.73193 1.02077 0.97976
 O31 O 0.73217 0.97914 0.97981
 O32 O 0.73206 1.02089 1.02139
 O33 O 0.76728 1.02090 1.02144
 O34 O 0.76743 0.97921 0.97992
 O35 O 0.76718 1.02085 0.97980
 O36 O 0.76714 0.97927 1.02155
 Cu37 Cu 0.72850 1.00001 1.00059
 Cu38 Cu 0.77078 1.00007 1.00069
 C39 C 0.74950 0.97210 1.02868
 C40 C 0.74954 1.02793 0.97263
 C41 C 0.74984 0.97202 0.97275
 C42 C 0.74966 1.02809 1.02858
 O43 O 0.26710 0.47936 0.52083
 O44 O 0.26705 0.52090 0.47911
 O45 O 0.26722 0.52097 0.52073
 O46 O 0.26731 0.47928 0.47921
 O47 O 0.23206 0.47919 0.47915
 O48 O 0.23197 0.52094 0.52074
 O49 O 0.23179 0.52081 0.47912
 O50 O 0.23184 0.47933 0.52077
 Cu51 Cu 0.27071 0.50013 0.49997
 Cu52 Cu 0.22838 0.50006 0.49994
 C53 C 0.24946 0.47222 0.52794
 C54 C 0.24939 0.52797 0.47197
 C55 C 0.24960 0.52810 0.52786
 C56 C 0.24972 0.47208 0.47207
 O57 O 1.02060 0.26749 0.02035
 O58 O 0.97889 0.26751 -0.02112
 O59 O 0.97899 0.26723 0.02050
 O60 O 1.02050 0.26739 -0.02126
 O61 O 1.02052 0.23213 -0.02132
 O62 O 0.97907 0.23197 0.02037
 O63 O 0.97890 0.23228 -0.02124
 O64 O 1.02069 0.23223 0.02029
 Cu65 Cu 0.99974 0.27094 -0.00037
 Cu66 Cu 0.99980 0.22862 -0.00048
 C67 C 1.02780 0.24988 0.02744
 C68 C 0.97169 0.24992 -0.02833
 C69 C 0.97192 0.24956 0.02759
 C70 C 1.02763 0.24977 -0.02844
 O71 O 0.52088 0.76771 0.52076
 O72 O 0.47916 0.76771 0.47930
 O73 O 0.47926 0.76747 0.52093
 O74 O 0.52079 0.76758 0.47913
 O75 O 0.52080 0.73232 0.47910
 O76 O 0.47933 0.73221 0.52084
 O77 O 0.47917 0.73245 0.47921
 O78 O 0.52096 0.73245 0.52074
 Cu79 Cu 0.50002 0.77115 0.50003
 Cu80 Cu 0.50007 0.72883 0.49996
 C81 C 0.52807 0.75010 0.52786
 C82 C 0.47200 0.75010 0.47214
 C83 C 0.47218 0.74981 0.52804
 C84 C 0.52792 0.74995 0.47196
 O85 O 0.02096 0.76743 -0.02155
 O86 O -0.02079 0.76750 0.02002
 O87 O 0.02084 0.76763 0.02009
 O88 O -0.02067 0.76766 -0.02161
 O89 O -0.02075 0.73244 -0.02165
 O90 O 0.02082 0.73237 0.02011
 O91 O -0.02081 0.73224 0.01998
 O92 O 0.02088 0.73220 -0.02153
 Cu93 Cu 0.00009 0.77108 -0.00077
 Cu94 Cu 0.00004 0.72879 -0.00077
 C95 C 0.02812 0.74979 -0.02870
 C96 C -0.02795 0.74986 0.02712
 C97 C 0.02795 0.75001 0.02726
 C98 C -0.02788 0.75007 -0.02882
 O99 O 0.52102 0.26730 0.47914
 O100 O 0.47931 0.26734 0.52068
 O101 O 0.52092 0.26750 0.52076
 O102 O 0.47941 0.26751 0.47907
 O103 O 0.47936 0.23225 0.47904
 O104 O 0.52094 0.23224 0.52080
 O105 O 0.47932 0.23208 0.52065
 O106 O 0.52097 0.23204 0.47917
 Cu107 Cu 0.50017 0.27095 0.49991
 Cu108 Cu 0.50015 0.22862 0.49992
 C109 C 0.52814 0.24965 0.47204
 C110 C 0.47217 0.24970 0.52778
 C111 C 0.52805 0.24989 0.52793
 C112 C 0.47227 0.24989 0.47190
 O113 O 1.02049 0.02059 0.23306
 O114 O 0.97892 -0.02119 0.23310
 O115 O 0.97888 0.02044 0.23286
 O116 O 1.02054 -0.02104 0.23283
 O117 O 1.02061 -0.02107 0.26809
 O118 O 0.97887 0.02048 0.26812
 O119 O 0.97899 -0.02114 0.26832
 O120 O 1.02049 0.02056 0.26832
 Cu121 Cu 0.99970 -0.00030 0.22943
 Cu122 Cu 0.99974 -0.00029 0.27174
 C123 C 1.02761 0.02773 0.25071
 C124 C 0.97179 -0.02836 0.25073
 C125 C 0.97173 0.02758 0.25047
 C126 C 1.02773 -0.02817 0.25043
 O127 O 0.52085 0.52100 0.73345
 O128 O 0.47932 0.47925 0.73342
 O129 O 0.47923 0.52088 0.73323
 O130 O 0.52093 0.47938 0.73320
 O131 O 0.52099 0.47933 0.76846
 O132 O 0.47920 0.52091 0.76849
 O133 O 0.47937 0.47928 0.76869
 O134 O 0.52083 0.52095 0.76871
 Cu135 Cu 0.50008 0.50013 0.72979
 Cu136 Cu 0.50010 0.50012 0.77212
 C137 C 0.52795 0.52812 0.75110
 C138 C 0.47223 0.47211 0.75107
 C139 C 0.47206 0.52802 0.75084
 C140 C 0.52812 0.47224 0.75080
 O141 O 0.97896 1.02134 0.73180
 O142 O 1.02042 0.97960 0.73189
 O143 O 0.97880 0.97972 0.73208
 O144 O 1.02059 1.02122 0.73201
 O145 O 1.02055 1.02127 0.76727
 O146 O 0.97883 0.97984 0.76734
 O147 O 1.02045 0.97965 0.76715
 O148 O 0.97892 1.02146 0.76703
 Cu149 Cu 0.99969 1.00046 0.72842
 Cu150 Cu 0.99969 1.00056 0.77072
 C151 C 0.97179 1.02860 0.74938
 C152 C 1.02754 0.97246 0.74952
 C153 C 0.97167 0.97266 0.74974
 C154 C 1.02773 1.02835 0.74965
 O155 O 0.47931 0.52101 0.26683
 O156 O 0.52081 0.47923 0.26692
 O157 O 0.52093 0.52086 0.26708
 O158 O 0.47919 0.47939 0.26709
 O159 O 0.47917 0.47930 0.23183
 O160 O 0.52098 0.52084 0.23182
 O161 O 0.52079 0.47921 0.23166
 O162 O 0.47936 0.52092 0.23157
 Cu163 Cu 0.50006 0.50013 0.27051
 Cu164 Cu 0.50008 0.50006 0.22819
 C165 C 0.47223 0.52812 0.24916
 C166 C 0.52790 0.47207 0.24928
 C167 C 0.52812 0.52797 0.24947
 C168 C 0.47202 0.47223 0.24948
 O169 O 0.25033 0.19456 0.22020
 O170 O 0.27349 0.18830 0.24992
 O171 O 0.19452 0.22042 0.25078
 O172 O 0.18653 0.24815 0.27161
 O173 O 0.22049 0.25035 0.19427
 O174 O 0.25013 0.27364 0.18823
 O175 O 0.25081 0.27928 0.30527
 O176 O 0.22588 0.25142 0.31107
 O177 O 0.30517 0.25067 0.27939
 O178 O 0.31202 0.22670 0.24898
 O179 O 0.27935 0.30522 0.25070
 O180 O 0.24895 0.31200 0.22671
 O181 O 0.25076 0.30498 0.27964
 O182 O 0.22604 0.31146 0.24912
 O183 O 0.30507 0.27962 0.25068
 O184 O 0.31151 0.24899 0.22604
 O185 O 0.27957 0.25087 0.30512
 O186 O 0.25018 0.22606 0.31162
 O187 O 0.25048 0.22023 0.19448
 O188 O 0.27402 0.25009 0.18852
 O189 O 0.19475 0.25009 0.21989
 O190 O 0.18984 0.27518 0.24974
 O191 O 0.22015 0.19467 0.25024
 O192 O 0.24996 0.18858 0.27374
 Zr193 Zr 0.24914 0.21173 0.24913
 O194 O 0.26923 0.22998 0.26901
 Zr195 Zr 0.21166 0.24929 0.24901
 O196 O 0.22997 0.26907 0.26928
 Zr197 Zr 0.24932 0.24921 0.21156
 O198 O 0.26917 0.26928 0.22992
 Zr199 Zr 0.25062 0.25045 0.28805
 O200 O 0.23027 0.23040 0.26986
 Zr201 Zr 0.28808 0.25059 0.25041
 O202 O 0.26993 0.23030 0.23027
 Zr203 Zr 0.25044 0.28804 0.25057
 O204 O 0.23040 0.26990 0.23015
 O205 O 0.22935 0.22940 0.22919
 O206 O 0.27058 0.27057 0.27053
 C207 C 0.25087 0.20058 0.20055
 C208 C 0.20052 0.20075 0.25101
 C209 C 0.20083 0.25066 0.20026
 C210 C 0.25089 0.29893 0.29928
 C211 C 0.29919 0.25085 0.29905
 C212 C 0.29900 0.29924 0.25077
 H213 H 0.27815 0.22027 0.27770
 H214 H 0.27795 0.27815 0.22025
 H215 H 0.22022 0.22021 0.22010
 H216 H 0.22038 0.27777 0.27835
 H217 H 0.21490 0.24100 0.30641
 H218 H 0.19123 0.25630 0.28432
 H219 H 0.30881 0.26083 0.21591
 H220 H 0.28520 0.24007 0.19351
 H221 H 0.26144 0.21553 0.30814
 H222 H 0.24003 0.19363 0.28499
 H223 H 0.26003 0.30875 0.21591
 H224 H 0.24051 0.28509 0.19339
 H225 H 0.28501 0.19349 0.24041
 H226 H 0.30875 0.21590 0.26004
 H227 H 0.19417 0.28522 0.23831
 H228 H 0.21594 0.30869 0.26096
 O229 O 0.74977 0.80567 0.22024
 O230 O 0.72666 0.81191 0.24999
 O231 O 0.80562 0.77976 0.25075
 O232 O 0.81364 0.75203 0.27154
 O233 O 0.77956 0.74987 0.19422
 O234 O 0.74990 0.72660 0.18818
 O235 O 0.74938 0.72089 0.30523
 O236 O 0.77433 0.74875 0.31104
 O237 O 0.69499 0.74954 0.27942
 O238 O 0.68813 0.77353 0.24902
 O239 O 0.72076 0.69500 0.25064
 O240 O 0.75110 0.68820 0.22664
 O241 O 0.74940 0.69520 0.27957
 O242 O 0.77408 0.68876 0.24900
 O243 O 0.69505 0.72060 0.25067
 O244 O 0.68857 0.75123 0.22608
 O245 O 0.72062 0.74932 0.30513
 O246 O 0.75003 0.77412 0.31163
 O247 O 0.74959 0.78002 0.19449
 O248 O 0.72602 0.75016 0.18851
 O249 O 0.80534 0.75010 0.21982
 O250 O 0.81027 0.72500 0.24965
 O251 O 0.77999 0.80553 0.25026
 O252 O 0.75023 0.81161 0.27379
 Zr253 Zr 0.75100 0.78848 0.24915
 O254 O 0.73093 0.77022 0.26903
 Zr255 Zr 0.78846 0.75090 0.24896
 O256 O 0.77018 0.73112 0.26923
 Zr257 Zr 0.75076 0.75102 0.21154
 O258 O 0.73093 0.73094 0.22989
 Zr259 Zr 0.74955 0.74973 0.28804
 O260 O 0.76989 0.76978 0.26984
 Zr261 Zr 0.71205 0.74963 0.25042
 O262 O 0.73017 0.76992 0.23028
 Zr263 Zr 0.74967 0.71216 0.25051
 O264 O 0.76969 0.73031 0.23009
 O265 O 0.77076 0.77081 0.22917
 O266 O 0.72956 0.72962 0.27051
 C267 C 0.74920 0.79966 0.20058
 C268 C 0.79962 0.79943 0.25101
 C269 C 0.79923 0.74955 0.20019
 C270 C 0.74929 0.70124 0.29922
 C271 C 0.70099 0.74935 0.29907
 C272 C 0.70111 0.70097 0.25073
 H273 H 0.72202 0.77993 0.27774
 H274 H 0.72213 0.72208 0.22022
 H275 H 0.77988 0.78000 0.22008
 H276 H 0.77977 0.72241 0.27828
 H277 H 0.78531 0.75916 0.30638
 H278 H 0.80895 0.74389 0.28425
 H279 H 0.69128 0.73942 0.21592
 H280 H 0.71485 0.76019 0.19353
 H281 H 0.73876 0.78464 0.30818
 H282 H 0.76016 0.80655 0.28503
 H283 H 0.74004 0.69149 0.21583
 H284 H 0.75953 0.71514 0.19332
 H285 H 0.71512 0.80672 0.24047
 H286 H 0.69140 0.78432 0.26012
 H287 H 0.80593 0.71497 0.23820
 H288 H 0.78418 0.69149 0.26086
 O289 O 0.74984 0.19463 0.77981
 O290 O 0.72667 0.18836 0.75008
 O291 O 0.80565 0.22049 0.74921
 O292 O 0.81364 0.24820 0.72838
 O293 O 0.77967 0.25045 0.80572
 O294 O 0.75003 0.27374 0.81176
 O295 O 0.74937 0.27931 0.69471
 O296 O 0.77431 0.25143 0.68894
 O297 O 0.69501 0.25070 0.72059
 O298 O 0.68815 0.22676 0.75100
 O299 O 0.72081 0.30528 0.74929
 O300 O 0.75120 0.31209 0.77326
 O301 O 0.74941 0.30503 0.72034
 O302 O 0.77413 0.31152 0.75088
 O303 O 0.69510 0.27967 0.74931
 O304 O 0.68865 0.24906 0.77394
 O305 O 0.72060 0.25088 0.69487
 O306 O 0.74998 0.22609 0.68836
 O307 O 0.74969 0.22032 0.80552
 O308 O 0.72614 0.25019 0.81147
 O309 O 0.80541 0.25018 0.78010
 O310 O 0.81033 0.27524 0.75026
 O311 O 0.78002 0.19473 0.74976
 O312 O 0.75022 0.18861 0.72627
 Zr313 Zr 0.75103 0.21178 0.75087
 O314 O 0.73094 0.23003 0.73098
 Zr315 Zr 0.78850 0.24936 0.75098
 O316 O 0.77020 0.26912 0.73071
 Zr317 Zr 0.75085 0.24929 0.78843
 O318 O 0.73100 0.26935 0.77007
 Zr319 Zr 0.74955 0.25049 0.71194
 O320 O 0.76990 0.23045 0.73014
 Zr321 Zr 0.71209 0.25064 0.74957
 O322 O 0.73023 0.23037 0.76973
 Zr323 Zr 0.74972 0.28811 0.74941
 O324 O 0.76976 0.26997 0.76984
 O325 O 0.77082 0.22948 0.77081
 O326 O 0.72959 0.27062 0.72945
 C327 C 0.74929 0.20067 0.79946
 C328 C 0.79964 0.20082 0.74898
 C329 C 0.79933 0.25076 0.79973
 C330 C 0.74929 0.29896 0.70070
 C331 C 0.70098 0.25087 0.70094
 C332 C 0.70116 0.29930 0.74923
 H333 H 0.72203 0.22031 0.72229
 H334 H 0.72222 0.27823 0.77974
 H335 H 0.77995 0.22029 0.77990
 H336 H 0.77979 0.27782 0.72164
 H337 H 0.78528 0.24100 0.69360
 H338 H 0.80894 0.25634 0.71568
 H339 H 0.69137 0.26089 0.78408
 H340 H 0.71496 0.24016 0.80649
 H341 H 0.73875 0.21555 0.69186
 H342 H 0.76013 0.19366 0.71501
 H343 H 0.74014 0.30882 0.78408
 H344 H 0.75966 0.28519 0.80660
 H345 H 0.71515 0.19356 0.75960
 H346 H 0.69143 0.21594 0.73994
 H347 H 0.80599 0.28529 0.76169
 H348 H 0.78422 0.30875 0.73902
 O349 O 0.25031 0.80551 0.77996
 O350 O 0.27356 0.81183 0.75036
 O351 O 0.19444 0.77974 0.74911
 O352 O 0.18671 0.75202 0.72802
 O353 O 0.22030 0.74970 0.80559
 O354 O 0.25004 0.72636 0.81164
 O355 O 0.25047 0.72072 0.69480
 O356 O 0.22550 0.74933 0.68935
 O357 O 0.30513 0.74946 0.72064
 O358 O 0.31187 0.77363 0.75078
 O359 O 0.27941 0.69499 0.74940
 O360 O 0.24887 0.68834 0.77357
 O361 O 0.25072 0.69507 0.72048
 O362 O 0.22620 0.68850 0.75089
 O363 O 0.30508 0.72064 0.74947
 O364 O 0.31144 0.75140 0.77400
 O365 O 0.27955 0.74883 0.69489
 O366 O 0.25380 0.77332 0.68811
 O367 O 0.25030 0.77981 0.80564
 O368 O 0.27379 0.75007 0.81162
 O369 O 0.19465 0.74999 0.77986
 O370 O 0.18968 0.72522 0.74974
 O371 O 0.22003 0.80549 0.75027
 O372 O 0.25096 0.81213 0.72679
 Zr373 Zr 0.24911 0.78850 0.75093
 O374 O 0.26907 0.77016 0.73098
 Zr375 Zr 0.21167 0.75094 0.75081
 O376 O 0.22999 0.73101 0.73073
 Zr377 Zr 0.24921 0.75091 0.78843
 O378 O 0.26915 0.73091 0.77012
 Zr379 Zr 0.25066 0.74958 0.71198
 O380 O 0.23030 0.76992 0.72997
 Zr381 Zr 0.28803 0.74963 0.74961
 O382 O 0.26986 0.76985 0.76980
 Zr383 Zr 0.25045 0.71208 0.74951
 O384 O 0.23029 0.73028 0.76976
 O385 O 0.22930 0.77076 0.77078
 O386 O 0.27059 0.72952 0.72955
 C387 C 0.25076 0.79945 0.79961
 C388 C 0.20042 0.79941 0.74923
 C389 C 0.20066 0.74938 0.79952
 C390 C 0.25065 0.70108 0.70083
 C391 C 0.29917 0.74901 0.70098
 C392 C 0.29905 0.70100 0.74938
 H393 H 0.27773 0.77983 0.72196
 H394 H 0.27795 0.72208 0.77981
 H395 H 0.22014 0.77988 0.77990
 H396 H 0.22039 0.72231 0.72168
 H397 H 0.21592 0.76139 0.69301
 H398 H 0.19202 0.74490 0.71495
 H399 H 0.30877 0.73959 0.78416
 H400 H 0.28505 0.75999 0.80660
 H401 H 0.24518 0.78565 0.69288
 H402 H 0.23840 0.81028 0.71734
 H403 H 0.26027 0.69136 0.78411
 H404 H 0.24028 0.71500 0.80651
 H405 H 0.28500 0.80660 0.75997
 H406 H 0.30840 0.78441 0.73976
 H407 H 0.19398 0.71502 0.76105
 H408 H 0.21590 0.69145 0.73926
 O409 O 0.24976 0.30540 0.72038
 O410 O 0.22661 0.31168 0.75008
 O411 O 0.30553 0.27946 0.75100
 O412 O 0.31352 0.25172 0.77177
 O413 O 0.27956 0.24959 0.69442
 O414 O 0.24990 0.22634 0.68832
 O415 O 0.24918 0.22067 0.80535
 O416 O 0.27413 0.24851 0.81121
 O417 O 0.19487 0.24935 0.77943
 O418 O 0.18807 0.27336 0.74902
 O419 O 0.22064 0.19480 0.75073
 O420 O 0.25101 0.18797 0.72677
 O421 O 0.24921 0.19499 0.77968
 O422 O 0.27394 0.18849 0.74917
 O423 O 0.19496 0.22043 0.75071
 O424 O 0.18852 0.25103 0.72610
 O425 O 0.22045 0.24910 0.80519
 O426 O 0.24986 0.27389 0.81175
 O427 O 0.24960 0.27974 0.69463
 O428 O 0.22604 0.24991 0.68860
 O429 O 0.30529 0.24981 0.72007
 O430 O 0.31016 0.22471 0.74990
 O431 O 0.27993 0.30524 0.75044
 O432 O 0.25013 0.31138 0.77391
 Zr433 Zr 0.25093 0.28823 0.74928
 O434 O 0.23082 0.27000 0.76913
 Zr435 Zr 0.28837 0.25062 0.74917
 O436 O 0.27004 0.23086 0.76940
 Zr437 Zr 0.25073 0.25076 0.71167
 O438 O 0.23086 0.23071 0.72999
 Zr439 Zr 0.24940 0.24951 0.78816
 O440 O 0.26978 0.26953 0.77001
 Zr441 Zr 0.21196 0.24943 0.75047
 O442 O 0.23013 0.26969 0.73037
 Zr443 Zr 0.24956 0.21193 0.75064
 O444 O 0.26963 0.23005 0.73025
 O445 O 0.27071 0.27054 0.72935
 O446 O 0.22943 0.22942 0.77059
 C447 C 0.24921 0.29938 0.70072
 C448 C 0.29954 0.29913 0.75124
 C449 C 0.29921 0.24925 0.70043
 C450 C 0.24908 0.20103 0.79932
 C451 C 0.20084 0.24914 0.79909
 C452 C 0.20100 0.20080 0.75080
 H453 H 0.22191 0.27972 0.77782
 H454 H 0.22207 0.22185 0.72030
 H455 H 0.27986 0.27972 0.72027
 H456 H 0.27962 0.22215 0.77846
 H457 H 0.28513 0.25891 0.80657
 H458 H 0.30879 0.24361 0.78449
 H459 H 0.19124 0.23922 0.71595
 H460 H 0.21486 0.25993 0.69359
 H461 H 0.23859 0.28441 0.80829
 H462 H 0.26003 0.30631 0.78518
 H463 H 0.23995 0.19124 0.71596
 H464 H 0.25950 0.21487 0.69348
 H465 H 0.21508 0.30651 0.74055
 H466 H 0.19131 0.28412 0.76014
 H467 H 0.30584 0.21468 0.73844
 H468 H 0.28402 0.19122 0.76105
 O469 O 0.75060 0.69477 0.72059
 O470 O 0.77380 0.68850 0.75028
 O471 O 0.69481 0.72056 0.75128
 O472 O 0.68676 0.74826 0.77207
 O473 O 0.72069 0.75055 0.69475
 O474 O 0.75030 0.77387 0.68870
 O475 O 0.75107 0.77938 0.80577
 O476 O 0.72619 0.75148 0.81156
 O477 O 0.80543 0.75086 0.77979
 O478 O 0.81226 0.72692 0.74932
 O479 O 0.77951 0.80540 0.75119
 O480 O 0.74914 0.81223 0.72729
 O481 O 0.75096 0.80511 0.78016
 O482 O 0.72618 0.81156 0.74964
 O483 O 0.80526 0.77983 0.75112
 O484 O 0.81175 0.74927 0.72645
 O485 O 0.77987 0.75101 0.80555
 O486 O 0.75050 0.72614 0.81204
 O487 O 0.75070 0.72046 0.69490
 O488 O 0.77422 0.75036 0.68895
 O489 O 0.69497 0.75024 0.72039
 O490 O 0.69008 0.77532 0.75029
 O491 O 0.72046 0.69483 0.75067
 O492 O 0.75029 0.68872 0.77412
 Zr493 Zr 0.74943 0.71190 0.74954
 O494 O 0.76952 0.73015 0.76943
 Zr495 Zr 0.71191 0.74944 0.74950
 O496 O 0.73020 0.76920 0.76979
 Zr497 Zr 0.74953 0.74942 0.71201
 O498 O 0.76936 0.76949 0.73038
 Zr499 Zr 0.75090 0.75057 0.78851
 O500 O 0.73055 0.73054 0.77030
 Zr501 Zr 0.78832 0.75079 0.75083
 O502 O 0.77018 0.73052 0.73067
 Zr503 Zr 0.75064 0.78821 0.75107
 O504 O 0.73060 0.77008 0.73063
 O505 O 0.72960 0.72958 0.72964
 O506 O 0.77082 0.77073 0.77099
 C507 C 0.75112 0.70081 0.70095
 C508 C 0.70084 0.70091 0.75149
 C509 C 0.70104 0.75084 0.70075
 C510 C 0.75112 0.79904 0.79979
 C511 C 0.79948 0.75102 0.79945
 C512 C 0.79916 0.79944 0.75124
 H513 H 0.77845 0.72044 0.77810
 H514 H 0.77813 0.77839 0.72071
 H515 H 0.72046 0.72039 0.72055
 H516 H 0.72062 0.77788 0.77887
 H517 H 0.71520 0.74108 0.80689
 H518 H 0.69149 0.75633 0.78483
 H519 H 0.80899 0.76109 0.71631
 H520 H 0.78541 0.74033 0.69391
 H521 H 0.76181 0.71567 0.80857
 H522 H 0.74040 0.69376 0.78540
 H523 H 0.76014 0.80895 0.71642
 H524 H 0.74067 0.78532 0.69388
 H525 H 0.78531 0.69371 0.74075
 H526 H 0.80904 0.71612 0.76041
 H527 H 0.69436 0.78535 0.73882
 H528 H 0.71614 0.80883 0.76154
 O529 O 0.24949 0.69461 0.27937
 O530 O 0.22638 0.68829 0.24963
 O531 O 0.30530 0.72052 0.24883
 O532 O 0.31333 0.74825 0.22807
 O533 O 0.27925 0.75043 0.30534
 O534 O 0.24958 0.77371 0.31133
 O535 O 0.24903 0.77923 0.19430
 O536 O 0.27399 0.75140 0.18853
 O537 O 0.19468 0.75060 0.22011
 O538 O 0.18785 0.72659 0.25056
 O539 O 0.22041 0.80517 0.24884
 O540 O 0.25074 0.81205 0.27283
 O541 O 0.24902 0.80495 0.21993
 O542 O 0.27371 0.81148 0.25049
 O543 O 0.19472 0.77954 0.24883
 O544 O 0.18823 0.74896 0.27342
 O545 O 0.22030 0.75080 0.19441
 O546 O 0.24974 0.72600 0.18797
 O547 O 0.24929 0.72029 0.30509
 O548 O 0.22573 0.75013 0.31104
 O549 O 0.30502 0.75019 0.27975
 O550 O 0.30992 0.77529 0.24989
 O551 O 0.27970 0.69474 0.24937
 O552 O 0.24994 0.68857 0.22585
 Zr553 Zr 0.25070 0.71175 0.25045
 O554 O 0.23061 0.72995 0.23053
 Zr555 Zr 0.28814 0.74936 0.25061
 O556 O 0.26984 0.76909 0.23031
 Zr557 Zr 0.25044 0.74925 0.28802
 O558 O 0.23059 0.76927 0.26963
 Zr559 Zr 0.24923 0.75042 0.21152
 O560 O 0.26959 0.73043 0.22975
 Zr561 Zr 0.21173 0.75054 0.24911
 O562 O 0.22987 0.73031 0.26929
 Zr563 Zr 0.24933 0.78804 0.24900
 O564 O 0.26937 0.76996 0.26946
 O565 O 0.27045 0.72946 0.27041
 O566 O 0.22923 0.77053 0.22902
 C567 C 0.24891 0.70065 0.29902
 C568 C 0.29931 0.70085 0.24859
 C569 C 0.29891 0.75076 0.29937
 C570 C 0.24892 0.79888 0.20030
 C571 C 0.20068 0.75077 0.20047
 C572 C 0.20077 0.79916 0.24875
 H573 H 0.22172 0.72022 0.22183
 H574 H 0.22179 0.77815 0.27929
 H575 H 0.27959 0.72028 0.27951
 H576 H 0.27943 0.77779 0.22125
 H577 H 0.28499 0.74101 0.19321
 H578 H 0.30862 0.75633 0.21533
 H579 H 0.19096 0.76075 0.28360
 H580 H 0.21455 0.74011 0.30603
 H581 H 0.23844 0.71550 0.19140
 H582 H 0.25985 0.69363 0.21460
 H583 H 0.23970 0.80875 0.28365
 H584 H 0.25922 0.78516 0.30620
 H585 H 0.21483 0.69348 0.25912
 H586 H 0.19108 0.71584 0.23941
 H587 H 0.30559 0.78531 0.26135
 H588 H 0.28380 0.80874 0.23863
 O589 O 0.75046 0.30515 0.27944
 O590 O 0.77368 0.31141 0.24978
 O591 O 0.69454 0.27938 0.24870
 O592 O 0.68671 0.25165 0.22769
 O593 O 0.72049 0.24937 0.30517
 O594 O 0.75022 0.22606 0.31121
 O595 O 0.75039 0.22027 0.19436
 O596 O 0.72542 0.24892 0.18894
 O597 O 0.80511 0.24901 0.22009
 O598 O 0.81194 0.27319 0.25017
 O599 O 0.77940 0.19460 0.24893
 O600 O 0.74892 0.18796 0.27315
 O601 O 0.75067 0.19465 0.22007
 O602 O 0.72618 0.18816 0.25055
 O603 O 0.80509 0.22023 0.24893
 O604 O 0.81153 0.25100 0.27342
 O605 O 0.77948 0.24837 0.19439
 O606 O 0.75375 0.27285 0.18760
 O607 O 0.75048 0.27948 0.30514
 O608 O 0.77399 0.24973 0.31109
 O609 O 0.69479 0.24966 0.27949
 O610 O 0.68973 0.22487 0.24941
 O611 O 0.72015 0.30512 0.24980
 O612 O 0.75103 0.31174 0.22628
 Zr613 Zr 0.74921 0.28811 0.25043
 O614 O 0.76910 0.26974 0.23045
 Zr615 Zr 0.71174 0.25058 0.25041
 O616 O 0.72999 0.23062 0.23031
 Zr617 Zr 0.74935 0.25057 0.28796
 O618 O 0.76922 0.23053 0.26963
 Zr619 Zr 0.75063 0.24915 0.21151
 O620 O 0.73034 0.26953 0.22953
 Zr621 Zr 0.78807 0.24923 0.24907
 O622 O 0.76997 0.26948 0.26928
 Zr623 Zr 0.75046 0.21170 0.24908
 O624 O 0.73038 0.22993 0.26936
 O625 O 0.72942 0.27040 0.27032
 O626 O 0.77058 0.22911 0.22908
 C627 C 0.75094 0.29912 0.29909
 C628 C 0.70054 0.29904 0.24879
 C629 C 0.70085 0.24906 0.29913
 C630 C 0.75058 0.20064 0.20042
 C631 C 0.79910 0.24854 0.20045
 C632 C 0.79904 0.20060 0.24887
 H633 H 0.77775 0.27939 0.22141
 H634 H 0.77804 0.22170 0.27932
 H635 H 0.72028 0.27954 0.27946
 H636 H 0.72035 0.22191 0.22129
 H637 H 0.71586 0.26100 0.19261
 H638 H 0.69200 0.24455 0.21460
 H639 H 0.80887 0.23919 0.28359
 H640 H 0.78523 0.25967 0.30606
 H641 H 0.74519 0.28521 0.19239
 H642 H 0.73847 0.30987 0.21683
 H643 H 0.76032 0.19100 0.28368
 H644 H 0.74046 0.21468 0.30611
 H645 H 0.78512 0.30621 0.25941
 H646 H 0.80844 0.28399 0.23916
 H647 H 0.69403 0.21468 0.26073
 H648 H 0.71589 0.19107 0.23889
 C649 C 0.23118 0.06831 0.06837
 C650 C 0.25060 0.07616 0.07624
 C651 C 0.26988 0.06816 0.06824
 C652 C 0.26979 0.05237 0.05242
 C653 C 0.25035 0.04436 0.04438
 C654 C 0.23103 0.05251 0.05254
 C655 C 0.25076 0.09242 0.09252
 C656 C 0.25095 0.10605 0.10615
 C657 C 0.25121 0.12200 0.12211
 C658 C 0.25141 0.13564 0.13573
 C659 C 0.25159 0.15192 0.15198
 C660 C 0.25166 0.17353 0.14621
 C661 C 0.25159 0.18937 0.16199
 C662 C 0.25144 0.18380 0.18380
 C663 C 0.25147 0.16199 0.18942
 C664 C 0.25154 0.14619 0.17360
 H665 H 0.21615 0.07440 0.07446
 H666 H 0.28501 0.07412 0.07422
 H667 H 0.28493 0.04645 0.04649
 H668 H 0.21580 0.04670 0.04670
 H669 H 0.25169 0.17814 0.12952
 H670 H 0.25154 0.20596 0.15706
 H671 H 0.25133 0.15710 0.20602
 H672 H 0.25148 0.12950 0.17824
 C673 C 0.73144 0.56862 0.56868
 C674 C 0.75086 0.57647 0.57655
 C675 C 0.77015 0.56847 0.56855
 C676 C 0.77005 0.55269 0.55272
 C677 C 0.75061 0.54468 0.54469
 C678 C 0.73129 0.55283 0.55285
 C679 C 0.75102 0.59273 0.59284
 C680 C 0.75121 0.60635 0.60647
 C681 C 0.75147 0.62230 0.62243
 C682 C 0.75166 0.63592 0.63606
 C683 C 0.75184 0.65219 0.65234
 C684 C 0.75188 0.67381 0.64658
 C685 C 0.75180 0.68963 0.66237
 C686 C 0.75168 0.68404 0.68418
 C687 C 0.75174 0.66223 0.68978
 C688 C 0.75182 0.64644 0.67395
 H689 H 0.71641 0.57471 0.57477
 H690 H 0.78527 0.57444 0.57453
 H691 H 0.78520 0.54676 0.54679
 H692 H 0.71607 0.54702 0.54701
 H693 H 0.75189 0.67843 0.62989
 H694 H 0.75173 0.70623 0.65746
 H695 H 0.75162 0.65733 0.70638
 H696 H 0.75178 0.62975 0.67857
 C697 C 0.72993 0.93228 0.06845
 C698 C 0.74921 0.92431 0.07647
 C699 C 0.76861 0.93221 0.06865
 C700 C 0.76876 0.94803 0.05285
 C701 C 0.74942 0.95621 0.04460
 C702 C 0.72999 0.94809 0.05266
 C703 C 0.74907 0.90801 0.09272
 C704 C 0.74890 0.89435 0.10632
 C705 C 0.74869 0.87836 0.12224
 C706 C 0.74852 0.86470 0.13584
 C707 C 0.74839 0.84839 0.15208
 C708 C 0.74847 0.85409 0.17371
 C709 C 0.74858 0.83827 0.18950
 C710 C 0.74862 0.81647 0.18385
 C711 C 0.74843 0.81092 0.16202
 C712 C 0.74832 0.82679 0.14628
 H713 H 0.71481 0.92627 0.07440
 H714 H 0.78364 0.92614 0.07476
 H715 H 0.78405 0.95379 0.04714
 H716 H 0.71476 0.95390 0.04679
 H717 H 0.74853 0.87077 0.17838
 H718 H 0.74874 0.84315 0.20611
 H719 H 0.74848 0.79433 0.15707
 H720 H 0.74826 0.82219 0.12957
 C721 C 0.26863 0.43164 0.56870
 C722 C 0.24922 0.42376 0.57655
 C723 C 0.22992 0.43171 0.56854
 C724 C 0.22998 0.44749 0.55272
 C725 C 0.24941 0.45552 0.54470
 C726 C 0.26874 0.44742 0.55287
 C727 C 0.24910 0.40751 0.59282
 C728 C 0.24894 0.39390 0.60644
 C729 C 0.24872 0.37795 0.62238
 C730 C 0.24856 0.36432 0.63598
 C731 C 0.24842 0.34804 0.65222
 C732 C 0.24836 0.32644 0.64642
 C733 C 0.24847 0.31060 0.66218
 C734 C 0.24864 0.31617 0.68400
 C735 C 0.24860 0.33797 0.68964
 C736 C 0.24850 0.35377 0.67384
 H737 H 0.28367 0.42559 0.57480
 H738 H 0.21481 0.42572 0.57451
 H739 H 0.21483 0.45338 0.54678
 H740 H 0.28396 0.45327 0.54705
 H741 H 0.24831 0.32184 0.62972
 H742 H 0.24851 0.29400 0.65724
 H743 H 0.24876 0.34285 0.70624
 H744 H 0.24855 0.37046 0.67850
 C745 C 0.76869 0.06856 0.93186
 C746 C 0.74929 0.07639 0.92393
 C747 C 0.72999 0.06839 0.93191
 C748 C 0.73006 0.05262 0.94775
 C749 C 0.74948 0.04464 0.95584
 C750 C 0.76881 0.05279 0.94771
 C751 C 0.74916 0.09262 0.90762
 C752 C 0.74900 0.10623 0.89397
 C753 C 0.74879 0.12216 0.87799
 C754 C 0.74863 0.13577 0.86435
 C755 C 0.74850 0.15204 0.84807
 C756 C 0.74857 0.14630 0.82645
 C757 C 0.74868 0.16208 0.81063
 C758 C 0.74872 0.18390 0.81622
 C759 C 0.74854 0.18949 0.83804
 C760 C 0.74844 0.17366 0.85382
 H761 H 0.78373 0.07464 0.92580
 H762 H 0.71488 0.07433 0.92589
 H763 H 0.71490 0.04670 0.95366
 H764 H 0.78403 0.04699 0.95359
 H765 H 0.74863 0.12960 0.82182
 H766 H 0.74884 0.15717 0.79402
 H767 H 0.74859 0.20609 0.84295
 H768 H 0.74839 0.17829 0.87051
 C769 C 0.22975 0.56840 0.43132
 C770 C 0.24904 0.57641 0.42333
 C771 C 0.26846 0.56859 0.43122
 C772 C 0.26861 0.55282 0.44705
 C773 C 0.24930 0.54466 0.45520
 C774 C 0.22986 0.55263 0.44715
 C775 C 0.24887 0.59264 0.40705
 C776 C 0.24869 0.60624 0.39341
 C777 C 0.24844 0.62217 0.37746
 C778 C 0.24826 0.63578 0.36383
 C779 C 0.24811 0.65204 0.34758
 C780 C 0.24802 0.67365 0.35335
 C781 C 0.24812 0.68948 0.33758
 C782 C 0.24833 0.68388 0.31576
 C783 C 0.24831 0.66207 0.31015
 C784 C 0.24820 0.64629 0.32596
 H785 H 0.21463 0.57434 0.42532
 H786 H 0.28348 0.57469 0.42513
 H787 H 0.28384 0.54703 0.45290
 H788 H 0.21471 0.54670 0.45308
 H789 H 0.24795 0.67827 0.37004
 H790 H 0.24816 0.70608 0.34250
 H791 H 0.24848 0.65717 0.29355
 H792 H 0.24828 0.62960 0.32133
 C793 C 0.23111 0.93184 0.93169
 C794 C 0.25051 0.92395 0.92384
 C795 C 0.26980 0.93196 0.93182
 C796 C 0.26974 0.94779 0.94760
 C797 C 0.25031 0.95589 0.95568
 C798 C 0.23097 0.94767 0.94747
 C799 C 0.25065 0.90764 0.90761
 C800 C 0.25083 0.89398 0.89401
 C801 C 0.25107 0.87800 0.87809
 C802 C 0.25127 0.86435 0.86448
 C803 C 0.25144 0.84807 0.84822
 C804 C 0.25149 0.85381 0.82661
 C805 C 0.25142 0.83803 0.81078
 C806 C 0.25130 0.81622 0.81638
 C807 C 0.25136 0.81063 0.83819
 C808 C 0.25143 0.82646 0.85397
 H809 H 0.21608 0.92574 0.92561
 H810 H 0.28491 0.92596 0.92585
 H811 H 0.28497 0.95363 0.95343
 H812 H 0.21568 0.95343 0.95321
 H813 H 0.25149 0.87051 0.82198
 H814 H 0.25135 0.84293 0.79418
 H815 H 0.25125 0.79403 0.84310
 H816 H 0.25139 0.82183 0.87067
 C817 C 0.73137 0.43146 0.43121
 C818 C 0.75079 0.42358 0.42335
 C819 C 0.77008 0.43159 0.43135
 C820 C 0.77000 0.44740 0.44715
 C821 C 0.75057 0.45542 0.45517
 C822 C 0.73124 0.44727 0.44702
 C823 C 0.75093 0.40730 0.40710
 C824 C 0.75111 0.39365 0.39349
 C825 C 0.75135 0.37768 0.37755
 C826 C 0.75154 0.36404 0.36394
 C827 C 0.75170 0.34776 0.34768
 C828 C 0.75170 0.35349 0.32606
 C829 C 0.75161 0.33770 0.31025
 C830 C 0.75151 0.31589 0.31585
 C831 C 0.75161 0.31031 0.33767
 C832 C 0.75170 0.32615 0.35344
 H833 H 0.71634 0.42537 0.42513
 H834 H 0.78520 0.42561 0.42538
 H835 H 0.78515 0.45332 0.45308
 H836 H 0.71602 0.45310 0.45284
 H837 H 0.75169 0.37018 0.32143
 H838 H 0.75151 0.34260 0.29364
 H839 H 0.75151 0.29371 0.34258
 H840 H 0.75169 0.32153 0.37014
 C841 C 0.06867 0.23075 0.06797
 C842 C 0.07652 0.25016 0.07585
 C843 C 0.06847 0.26946 0.06792
 C844 C 0.05262 0.26938 0.05217
 C845 C 0.04460 0.24995 0.04412
 C846 C 0.05280 0.23062 0.05220
 C847 C 0.09283 0.25030 0.09209
 C848 C 0.10648 0.25049 0.10569
 C849 C 0.12244 0.25075 0.12163
 C850 C 0.13607 0.25096 0.13526
 C851 C 0.15231 0.25117 0.15156
 C852 C 0.14653 0.25111 0.17316
 C853 C 0.16228 0.25109 0.18901
 C854 C 0.18410 0.25112 0.18346
 C855 C 0.18973 0.25128 0.16166
 C856 C 0.17393 0.25130 0.14584
 H857 H 0.07479 0.21571 0.07400
 H858 H 0.07444 0.28458 0.07391
 H859 H 0.04665 0.28453 0.04630
 H860 H 0.04698 0.21540 0.04636
 H861 H 0.12983 0.25100 0.17775
 H862 H 0.15735 0.25095 0.20560
 H863 H 0.20634 0.25128 0.15678
 H864 H 0.17859 0.25134 0.12916
 C865 C 0.56889 0.73099 0.56845
 C866 C 0.57675 0.75040 0.57632
 C867 C 0.56872 0.76970 0.56837
 C868 C 0.55288 0.76961 0.55259
 C869 C 0.54486 0.75018 0.54456
 C870 C 0.55305 0.73085 0.55267
 C871 C 0.59304 0.75055 0.59258
 C872 C 0.60667 0.75074 0.60620
 C873 C 0.62262 0.75098 0.62215
 C874 C 0.63624 0.75119 0.63579
 C875 C 0.65249 0.75138 0.65208
 C876 C 0.64671 0.75128 0.67368
 C877 C 0.66248 0.75125 0.68953
 C878 C 0.68429 0.75131 0.68396
 C879 C 0.68991 0.75150 0.66216
 C880 C 0.67411 0.75153 0.64635
 H881 H 0.57500 0.71596 0.57450
 H882 H 0.57469 0.78482 0.57435
 H883 H 0.54693 0.78476 0.54670
 H884 H 0.54722 0.71563 0.54683
 H885 H 0.63002 0.75115 0.67829
 H886 H 0.65755 0.75107 0.70612
 H887 H 0.70652 0.75153 0.65728
 H888 H 0.67875 0.75161 0.62967
 C889 C 0.06816 0.76888 0.93149
 C890 C 0.07603 0.74948 0.92364
 C891 C 0.06800 0.73019 0.93159
 C892 C 0.05216 0.73026 0.94735
 C893 C 0.04405 0.74970 0.95544
 C894 C 0.05231 0.76903 0.94726
 C895 C 0.09235 0.74933 0.90741
 C896 C 0.10601 0.74917 0.89381
 C897 C 0.12201 0.74895 0.87790
 C898 C 0.13566 0.74878 0.86430
 C899 C 0.15197 0.74864 0.84805
 C900 C 0.17357 0.74851 0.85384
 C901 C 0.18942 0.74860 0.83808
 C902 C 0.18387 0.74883 0.81626
 C903 C 0.16206 0.74888 0.81063
 C904 C 0.14625 0.74879 0.82643
 H905 H 0.07427 0.78391 0.92544
 H906 H 0.07399 0.71508 0.92562
 H907 H 0.04629 0.71504 0.95316
 H908 H 0.04656 0.78433 0.95300
 H909 H 0.17818 0.74840 0.87054
 H910 H 0.20602 0.74858 0.84302
 H911 H 0.15718 0.74908 0.79402
 H912 H 0.12957 0.74890 0.82176
 C913 C 0.56884 0.26873 0.43137
 C914 C 0.57669 0.24931 0.42351
 C915 C 0.56869 0.23002 0.43151
 C916 C 0.55290 0.23011 0.44731
 C917 C 0.54489 0.24955 0.45532
 C918 C 0.55304 0.26888 0.44718
 C919 C 0.59293 0.24915 0.40724
 C920 C 0.60653 0.24897 0.39361
 C921 C 0.62246 0.24873 0.37765
 C922 C 0.63606 0.24854 0.36402
 C923 C 0.65230 0.24838 0.34774
 C924 C 0.67391 0.24822 0.35349
 C925 C 0.68972 0.24829 0.33770
 C926 C 0.68410 0.24853 0.31590
 C927 C 0.66229 0.24859 0.31031
 C928 C 0.64652 0.24851 0.32614
 H929 H 0.57493 0.28376 0.42528
 H930 H 0.57466 0.21489 0.42553
 H931 H 0.54697 0.21497 0.45323
 H932 H 0.54722 0.28410 0.45300
 H933 H 0.67856 0.24812 0.37018
 H934 H 0.70632 0.24827 0.34260
 H935 H 0.65737 0.24879 0.29371
 H936 H 0.62983 0.24864 0.32152
 C937 C 0.93136 0.73035 0.06761
 C938 C 0.92338 0.74966 0.07560
 C939 C 0.93130 0.76905 0.06774
 C940 C 0.94713 0.76916 0.05196
 C941 C 0.95527 0.74982 0.04382
 C942 C 0.94719 0.73040 0.05183
 C943 C 0.90710 0.74955 0.09186
 C944 C 0.89347 0.74940 0.10549
 C945 C 0.87753 0.74920 0.12146
 C946 C 0.86393 0.74905 0.13511
 C947 C 0.84770 0.74891 0.15143
 C948 C 0.85351 0.74899 0.17303
 C949 C 0.83778 0.74906 0.18890
 C950 C 0.81595 0.74906 0.18337
 C951 C 0.81029 0.74889 0.16157
 C952 C 0.82607 0.74882 0.14574
 H953 H 0.92536 0.71524 0.07358
 H954 H 0.92523 0.78410 0.07382
 H955 H 0.95299 0.78437 0.04614
 H956 H 0.95310 0.71524 0.04592
 H957 H 0.87022 0.74907 0.17761
 H958 H 0.84274 0.74921 0.20549
 H959 H 0.79367 0.74891 0.15671
 H960 H 0.82139 0.74876 0.12906
 C961 C 0.43150 0.23014 0.56821
 C962 C 0.42349 0.24945 0.57618
 C963 C 0.43139 0.26886 0.56834
 C964 C 0.44724 0.26898 0.55258
 C965 C 0.45539 0.24964 0.54446
 C966 C 0.44734 0.23021 0.55246
 C967 C 0.40720 0.24932 0.59240
 C968 C 0.39356 0.24916 0.60599
 C969 C 0.37760 0.24894 0.62191
 C970 C 0.36398 0.24876 0.63553
 C971 C 0.34773 0.24861 0.65180
 C972 C 0.35352 0.24868 0.67340
 C973 C 0.33776 0.24874 0.68924
 C974 C 0.31594 0.24875 0.68366
 C975 C 0.31031 0.24859 0.66185
 C976 C 0.32612 0.24852 0.64606
 H977 H 0.42549 0.21503 0.57418
 H978 H 0.42530 0.28390 0.57440
 H979 H 0.45309 0.28419 0.54677
 H980 H 0.45327 0.21506 0.54656
 H981 H 0.37021 0.24875 0.67801
 H982 H 0.34269 0.24889 0.70583
 H983 H 0.29371 0.24861 0.65696
 H984 H 0.32147 0.24847 0.62937
 C985 C 0.93164 0.23084 0.93185
 C986 C 0.92372 0.25024 0.92407
 C987 C 0.93171 0.26952 0.93208
 C988 C 0.94758 0.26945 0.94782
 C989 C 0.95573 0.25001 0.95583
 C990 C 0.94751 0.23068 0.94760
 C991 C 0.90739 0.25040 0.90785
 C992 C 0.89373 0.25059 0.89426
 C993 C 0.87775 0.25086 0.87833
 C994 C 0.86412 0.25108 0.86471
 C995 C 0.84787 0.25128 0.84843
 C996 C 0.82625 0.25141 0.85414
 C997 C 0.81044 0.25139 0.83833
 C998 C 0.81607 0.25123 0.81653
 C999 C 0.83789 0.25120 0.81097
 C1000 C 0.85365 0.25122 0.82682
 H1001 H 0.92555 0.21581 0.92575
 H1002 H 0.92568 0.28464 0.92615
 H1003 H 0.95341 0.28467 0.95367
 H1004 H 0.95330 0.21538 0.95328
 H1005 H 0.82160 0.25145 0.87083
 H1006 H 0.79384 0.25139 0.84321
 H1007 H 0.84282 0.25106 0.79438
 H1008 H 0.87034 0.25112 0.82222
 C1009 C 0.43114 0.73099 0.43158
 C1010 C 0.42322 0.75040 0.42378
 C1011 C 0.43124 0.76970 0.43177
 C1012 C 0.44711 0.76961 0.44751
 C1013 C 0.45519 0.75018 0.45547
 C1014 C 0.44702 0.73085 0.44733
 C1015 C 0.40690 0.75055 0.40756
 C1016 C 0.39324 0.75073 0.39397
 C1017 C 0.37727 0.75098 0.37804
 C1018 C 0.36364 0.75117 0.36441
 C1019 C 0.34740 0.75135 0.34811
 C1020 C 0.32578 0.75145 0.35381
 C1021 C 0.30999 0.75140 0.33798
 C1022 C 0.31563 0.75125 0.31619
 C1023 C 0.33746 0.75125 0.31065
 C1024 C 0.35320 0.75130 0.32651
 H1025 H 0.42505 0.71595 0.42550
 H1026 H 0.42522 0.78482 0.42584
 H1027 H 0.45304 0.78476 0.45343
 H1028 H 0.45289 0.71563 0.45311
 H1029 H 0.32111 0.75148 0.37049
 H1030 H 0.29338 0.75138 0.34285
 H1031 H 0.34240 0.75112 0.29406
 H1032 H 0.36990 0.75122 0.32193
 C1033 C 0.06822 0.06853 0.23161
 C1034 C 0.07608 0.07642 0.25103
 C1035 C 0.06810 0.06840 0.27032
 C1036 C 0.05233 0.05256 0.27022
 C1037 C 0.04432 0.04451 0.25079
 C1038 C 0.05244 0.05269 0.23147
 C1039 C 0.09233 0.09272 0.25118
 C1040 C 0.10595 0.10636 0.25137
 C1041 C 0.12190 0.12232 0.25162
 C1042 C 0.13554 0.13595 0.25180
 C1043 C 0.15183 0.15220 0.25196
 C1044 C 0.17344 0.14642 0.25174
 C1045 C 0.18929 0.16219 0.25161
 C1046 C 0.18373 0.18401 0.25169
 C1047 C 0.16193 0.18963 0.25202
 C1048 C 0.14612 0.17383 0.25215
 H1049 H 0.07429 0.07463 0.21658
 H1050 H 0.07407 0.07438 0.28544
 H1051 H 0.04643 0.04662 0.28537
 H1052 H 0.04662 0.04685 0.21624
 H1053 H 0.17804 0.12972 0.25159
 H1054 H 0.20588 0.15725 0.25133
 H1055 H 0.15705 0.20624 0.25205
 H1056 H 0.12944 0.17848 0.25230
 C1057 C 0.56859 0.56887 0.73204
 C1058 C 0.57644 0.57672 0.75147
 C1059 C 0.56845 0.56871 0.77076
 C1060 C 0.55266 0.55290 0.77065
 C1061 C 0.54466 0.54489 0.75120
 C1062 C 0.55280 0.55305 0.73188
 C1063 C 0.59271 0.59298 0.75165
 C1064 C 0.60633 0.60659 0.75185
 C1065 C 0.62229 0.62252 0.75212
 C1066 C 0.63592 0.63613 0.75232
 C1067 C 0.65221 0.65237 0.75248
 C1068 C 0.67380 0.64659 0.75222
 C1069 C 0.68964 0.66235 0.75207
 C1070 C 0.68407 0.68417 0.75219
 C1071 C 0.66227 0.68979 0.75257
 C1072 C 0.64648 0.67399 0.75271
 H1073 H 0.57468 0.57497 0.71702
 H1074 H 0.57442 0.57469 0.78589
 H1075 H 0.54674 0.54697 0.78579
 H1076 H 0.54698 0.54723 0.71665
 H1077 H 0.67841 0.62989 0.75203
 H1078 H 0.70623 0.65742 0.75175
 H1079 H 0.65738 0.70640 0.75264
 H1080 H 0.62979 0.67863 0.75291
 C1081 C 0.93210 0.06847 0.72971
 C1082 C 0.92412 0.07652 0.74898
 C1083 C 0.93197 0.06868 0.76839
 C1084 C 0.94774 0.05284 0.76858
 C1085 C 0.95594 0.04455 0.74927
 C1086 C 0.94786 0.05263 0.72981
 C1087 C 0.90786 0.09282 0.74880
 C1088 C 0.89424 0.10646 0.74860
 C1089 C 0.87829 0.12241 0.74835
 C1090 C 0.86465 0.13603 0.74816
 C1091 C 0.84835 0.15228 0.74801
 C1092 C 0.85405 0.17391 0.74782
 C1093 C 0.83824 0.18971 0.74796
 C1094 C 0.81644 0.18408 0.74830
 C1095 C 0.81089 0.16225 0.74837
 C1096 C 0.82674 0.14650 0.74823
 H1097 H 0.92613 0.07443 0.71458
 H1098 H 0.92589 0.07481 0.78341
 H1099 H 0.95347 0.04711 0.78389
 H1100 H 0.95368 0.04674 0.71460
 H1101 H 0.87074 0.17857 0.74766
 H1102 H 0.84312 0.20632 0.74793
 H1103 H 0.79430 0.15731 0.74866
 H1104 H 0.82214 0.12980 0.74839
 C1105 C 0.43180 0.56873 0.22945
 C1106 C 0.42380 0.57677 0.24873
 C1107 C 0.43162 0.56893 0.26817
 C1108 C 0.44740 0.55310 0.26835
 C1109 C 0.45554 0.54490 0.24904
 C1110 C 0.44757 0.55290 0.22959
 C1111 C 0.40755 0.59304 0.24853
 C1112 C 0.39393 0.60666 0.24831
 C1113 C 0.37797 0.62259 0.24803
 C1114 C 0.36433 0.63618 0.24782
 C1115 C 0.34803 0.65240 0.24765
 C1116 C 0.32644 0.64658 0.24785
 C1117 C 0.31058 0.66232 0.24798
 C1118 C 0.31612 0.68414 0.24792
 C1119 C 0.33790 0.68981 0.24759
 C1120 C 0.35373 0.67403 0.24747
 H1121 H 0.42585 0.57469 0.21432
 H1122 H 0.42553 0.57505 0.28318
 H1123 H 0.45319 0.54728 0.28359
 H1124 H 0.45349 0.54694 0.21445
 H1125 H 0.32186 0.62988 0.24800
 H1126 H 0.29399 0.65736 0.24825
 H1127 H 0.34277 0.70642 0.24757
 H1128 H 0.37041 0.67870 0.24732
 C1129 C 0.06799 0.93171 0.73001
 C1130 C 0.07597 0.92373 0.74932
 C1131 C 0.06812 0.93166 0.76872
 C1132 C 0.05236 0.94752 0.76882
 C1133 C 0.04423 0.95566 0.74948
 C1134 C 0.05223 0.94756 0.73006
 C1135 C 0.09221 0.90742 0.74921
 C1136 C 0.10582 0.89377 0.74905
 C1137 C 0.12177 0.87781 0.74883
 C1138 C 0.13540 0.86419 0.74866
 C1139 C 0.15171 0.84794 0.74850
 C1140 C 0.17331 0.85373 0.74898
 C1141 C 0.18916 0.83797 0.74906
 C1142 C 0.18362 0.81615 0.74867
 C1143 C 0.16182 0.81052 0.74810
 C1144 C 0.14601 0.82631 0.74802
 H1145 H 0.07395 0.92569 0.71490
 H1146 H 0.07419 0.92559 0.78377
 H1147 H 0.04655 0.95340 0.78403
 H1148 H 0.04633 0.95347 0.71490
 H1149 H 0.17790 0.87043 0.74936
 H1150 H 0.20575 0.84292 0.74953
 H1151 H 0.15695 0.79391 0.74782
 H1152 H 0.12933 0.82165 0.74766
 C1153 C 0.56843 0.43125 0.26845
 C1154 C 0.57627 0.42334 0.24905
 C1155 C 0.56830 0.43134 0.22974
 C1156 C 0.55256 0.44720 0.22981
 C1157 C 0.54457 0.45527 0.24923
 C1158 C 0.55268 0.44711 0.26857
 C1159 C 0.59248 0.40704 0.24891
 C1160 C 0.60607 0.39339 0.24873
 C1161 C 0.62200 0.37743 0.24848
 C1162 C 0.63561 0.36381 0.24828
 C1163 C 0.65189 0.34757 0.24810
 C1164 C 0.64616 0.32595 0.24764
 C1165 C 0.66196 0.31015 0.24771
 C1166 C 0.68376 0.31578 0.24824
 C1167 C 0.68933 0.33759 0.24859
 C1168 C 0.67349 0.35335 0.24853
 H1169 H 0.57450 0.42516 0.28349
 H1170 H 0.57426 0.42533 0.21463
 H1171 H 0.54667 0.45313 0.21465
 H1172 H 0.54687 0.45298 0.28379
 H1173 H 0.62948 0.32130 0.24732
 H1174 H 0.65708 0.29354 0.24746
 H1175 H 0.70591 0.34252 0.24903
 H1176 H 0.67809 0.37005 0.24889
 C1177 C 0.93193 0.93161 0.23165
 C1178 C 0.92410 0.92374 0.25105
 C1179 C 0.93210 0.93175 0.27033
 C1180 C 0.94787 0.94759 0.27026
 C1181 C 0.95593 0.95570 0.25081
 C1182 C 0.94771 0.94746 0.23149
 C1183 C 0.90785 0.90744 0.25121
 C1184 C 0.89423 0.89380 0.25139
 C1185 C 0.87827 0.87784 0.25164
 C1186 C 0.86463 0.86422 0.25183
 C1187 C 0.84833 0.84797 0.25198
 C1188 C 0.82673 0.85376 0.25179
 C1189 C 0.81087 0.83800 0.25165
 C1190 C 0.81642 0.81617 0.25169
 C1191 C 0.83822 0.81054 0.25200
 C1192 C 0.85403 0.82634 0.25214
 H1193 H 0.92584 0.92551 0.21662
 H1194 H 0.92614 0.92576 0.28545
 H1195 H 0.95371 0.95344 0.28548
 H1196 H 0.95343 0.95321 0.21619
 H1197 H 0.82213 0.87046 0.25165
 H1198 H 0.79428 0.84294 0.25139
 H1199 H 0.84310 0.79393 0.25201
 H1200 H 0.87072 0.82168 0.25228
 C1201 C 0.43168 0.43127 0.73197
 C1202 C 0.42387 0.42338 0.75139
 C1203 C 0.43185 0.43141 0.77069
 C1204 C 0.44759 0.44727 0.77059
 C1205 C 0.45556 0.45531 0.75115
 C1206 C 0.44743 0.44713 0.73183
 C1207 C 0.40766 0.40708 0.75155
 C1208 C 0.39406 0.39343 0.75174
 C1209 C 0.37814 0.37746 0.75199
 C1210 C 0.36452 0.36385 0.75217
 C1211 C 0.34823 0.34761 0.75231
 C1212 C 0.32664 0.35342 0.75209
 C1213 C 0.31078 0.33767 0.75192
 C1214 C 0.31633 0.31585 0.75197
 C1215 C 0.33813 0.31020 0.75231
 C1216 C 0.35394 0.32599 0.75247
 H1217 H 0.42561 0.42516 0.71694
 H1218 H 0.42590 0.42542 0.78581
 H1219 H 0.45350 0.45322 0.78574
 H1220 H 0.45322 0.45298 0.71660
 H1221 H 0.32205 0.37012 0.75195
 H1222 H 0.29420 0.34262 0.75164
 H1223 H 0.34300 0.29359 0.75232
 H1224 H 0.37062 0.32133 0.75263
 C1225 C 0.06826 0.26904 0.93090
 C1226 C 0.07615 0.24965 0.92299
 C1227 C 0.06817 0.23032 0.93093
 C1228 C 0.05237 0.23035 0.94672
 C1229 C 0.04433 0.24975 0.95480
 C1230 C 0.05245 0.26911 0.94670
 C1231 C 0.09244 0.24956 0.90676
 C1232 C 0.10610 0.24943 0.89318
 C1233 C 0.12209 0.24923 0.87728
 C1234 C 0.13575 0.24907 0.86370
 C1235 C 0.15207 0.24892 0.84750
 C1236 C 0.17366 0.24874 0.85334
 C1237 C 0.18954 0.24875 0.83762
 C1238 C 0.18401 0.24896 0.81579
 C1239 C 0.16223 0.24904 0.81010
 C1240 C 0.14639 0.24903 0.82587
 H1241 H 0.07433 0.28409 0.92487
 H1242 H 0.07417 0.21523 0.92491
 H1243 H 0.04647 0.21518 0.95260
 H1244 H 0.04661 0.28431 0.95258
 H1245 H 0.17823 0.24863 0.87005
 H1246 H 0.20612 0.24864 0.84259
 H1247 H 0.15738 0.24916 0.79348
 H1248 H 0.12972 0.24915 0.82118
 C1249 C 0.56855 0.76918 0.43123
 C1250 C 0.57644 0.74979 0.42331
 C1251 C 0.56846 0.73047 0.43128
 C1252 C 0.55267 0.73051 0.44710
 C1253 C 0.54463 0.74992 0.45518
 C1254 C 0.55275 0.76926 0.44705
 C1255 C 0.59272 0.74970 0.40704
 C1256 C 0.60636 0.74956 0.39342
 C1257 C 0.62233 0.74938 0.37748
 C1258 C 0.63598 0.74923 0.36387
 C1259 C 0.65228 0.74909 0.34762
 C1260 C 0.67389 0.74893 0.35340
 C1261 C 0.68974 0.74895 0.33764
 C1262 C 0.68419 0.74915 0.31582
 C1263 C 0.66238 0.74923 0.31019
 C1264 C 0.64657 0.74920 0.32599
 H1265 H 0.57461 0.78423 0.42517
 H1266 H 0.57445 0.71537 0.42528
 H1267 H 0.54678 0.71534 0.45300
 H1268 H 0.54691 0.78447 0.45291
 H1269 H 0.67850 0.74882 0.37010
 H1270 H 0.70634 0.74885 0.34258
 H1271 H 0.65750 0.74935 0.29358
 H1272 H 0.62989 0.74931 0.32132
 C1273 C 0.93217 0.73097 0.93126
 C1274 C 0.92431 0.75037 0.92340
 C1275 C 0.93233 0.76965 0.93138
 C1276 C 0.94815 0.76959 0.94717
 C1277 C 0.95623 0.75015 0.95527
 C1278 C 0.94800 0.73082 0.94706
 C1279 C 0.90799 0.75051 0.90717
 C1280 C 0.89432 0.75067 0.89358
 C1281 C 0.87831 0.75090 0.87768
 C1282 C 0.86463 0.75107 0.86410
 C1283 C 0.84829 0.75124 0.84789
 C1284 C 0.82670 0.75138 0.85372
 C1285 C 0.81081 0.75137 0.83799
 C1286 C 0.81632 0.75121 0.81616
 C1287 C 0.83811 0.75116 0.81048
 C1288 C 0.85396 0.75117 0.82625
 H1289 H 0.92606 0.71594 0.92519
 H1290 H 0.92635 0.78477 0.92539
 H1291 H 0.95400 0.78482 0.95299
 H1292 H 0.95373 0.71552 0.95281
 H1293 H 0.82214 0.75144 0.87043
 H1294 H 0.79423 0.75144 0.84296
 H1295 H 0.84295 0.75108 0.79386
 H1296 H 0.87063 0.75108 0.82156
 C1297 C 0.43161 0.23077 0.43114
 C1298 C 0.42375 0.25018 0.42326
 C1299 C 0.43175 0.26948 0.43126
 C1300 C 0.44754 0.26940 0.44708
 C1301 C 0.45555 0.24997 0.45512
 C1302 C 0.44740 0.23064 0.44697
 C1303 C 0.40748 0.25031 0.40698
 C1304 C 0.39385 0.25048 0.39335
 C1305 C 0.37788 0.25070 0.37741
 C1306 C 0.36423 0.25088 0.36380
 C1307 C 0.34792 0.25106 0.34756
 C1308 C 0.32633 0.25122 0.35335
 C1309 C 0.31046 0.25122 0.33760
 C1310 C 0.31600 0.25103 0.31578
 C1311 C 0.33780 0.25096 0.31014
 C1312 C 0.35362 0.25096 0.32593
 H1313 H 0.42552 0.21573 0.42505
 H1314 H 0.42578 0.28459 0.42527
 H1315 H 0.45346 0.28455 0.45301
 H1316 H 0.45322 0.21542 0.45281
 H1317 H 0.32174 0.25131 0.37006
 H1318 H 0.29387 0.25132 0.34255
 H1319 H 0.34267 0.25085 0.29352
 H1320 H 0.37030 0.25085 0.32127
 C1321 C 0.06850 0.73082 0.06808
 C1322 C 0.07637 0.75022 0.07599
 C1323 C 0.06843 0.76953 0.06797
 C1324 C 0.05268 0.76947 0.05212
 C1325 C 0.04465 0.75006 0.04405
 C1326 C 0.05274 0.73072 0.05222
 C1327 C 0.09260 0.75033 0.09231
 C1328 C 0.10620 0.75048 0.10598
 C1329 C 0.12213 0.75068 0.12196
 C1330 C 0.13574 0.75084 0.13560
 C1331 C 0.15202 0.75099 0.15188
 C1332 C 0.17363 0.75117 0.14612
 C1333 C 0.18946 0.75116 0.16189
 C1334 C 0.18389 0.75095 0.18371
 C1335 C 0.16208 0.75086 0.18931
 C1336 C 0.14629 0.75088 0.17349
 H1337 H 0.07454 0.71578 0.07418
 H1338 H 0.07441 0.78464 0.07398
 H1339 H 0.04680 0.78464 0.04618
 H1340 H 0.04691 0.71550 0.04636
 H1341 H 0.17824 0.75128 0.12942
 H1342 H 0.20606 0.75127 0.15698
 H1343 H 0.15719 0.75074 0.20592
 H1344 H 0.12960 0.75075 0.17813
 C1345 C 0.56865 0.23076 0.56874
 C1346 C 0.57651 0.25016 0.57663
 C1347 C 0.56854 0.26947 0.56861
 C1348 C 0.55277 0.26939 0.55277
 C1349 C 0.54475 0.24996 0.54472
 C1350 C 0.55287 0.23063 0.55289
 C1351 C 0.59276 0.25030 0.59293
 C1352 C 0.60638 0.25047 0.60657
 C1353 C 0.62233 0.25069 0.62253
 C1354 C 0.63597 0.25087 0.63616
 C1355 C 0.65227 0.25105 0.65241
 C1356 C 0.64656 0.25096 0.67403
 C1357 C 0.66238 0.25096 0.68983
 C1358 C 0.68418 0.25104 0.68420
 C1359 C 0.68972 0.25122 0.66238
 C1360 C 0.67387 0.25122 0.64662
 H1361 H 0.57471 0.21572 0.57483
 H1362 H 0.57452 0.28458 0.57461
 H1363 H 0.54687 0.28454 0.54684
 H1364 H 0.54705 0.21541 0.54704
 H1365 H 0.62988 0.25084 0.67869
 H1366 H 0.65750 0.25086 0.70645
 H1367 H 0.70631 0.25133 0.65744
 H1368 H 0.67846 0.25131 0.62992
 C1369 C 0.93148 0.22981 0.06817
 C1370 C 0.92347 0.24908 0.07622
 C1371 C 0.93129 0.26852 0.06840
 C1372 C 0.94707 0.26871 0.05257
 C1373 C 0.95522 0.24942 0.04436
 C1374 C 0.94725 0.22995 0.05235
 C1375 C 0.90722 0.24888 0.09250
 C1376 C 0.89361 0.24867 0.10612
 C1377 C 0.87766 0.24840 0.12207
 C1378 C 0.86404 0.24820 0.13568
 C1379 C 0.84776 0.24804 0.15192
 C1380 C 0.85349 0.24847 0.17354
 C1381 C 0.83769 0.24854 0.18934
 C1382 C 0.81589 0.24821 0.18371
 C1383 C 0.81032 0.24766 0.16190
 C1384 C 0.82616 0.24759 0.14614
 H1385 H 0.92553 0.21467 0.07412
 H1386 H 0.92519 0.28353 0.07453
 H1387 H 0.95286 0.28396 0.04677
 H1388 H 0.95318 0.21482 0.04638
 H1389 H 0.87017 0.24881 0.17819
 H1390 H 0.84258 0.24893 0.20595
 H1391 H 0.79373 0.24735 0.15697
 H1392 H 0.82155 0.24723 0.12944
 C1393 C 0.43173 0.73013 0.56871
 C1394 C 0.42373 0.74941 0.57675
 C1395 C 0.43156 0.76884 0.56889
 C1396 C 0.44733 0.76900 0.55304
 C1397 C 0.45548 0.74969 0.54484
 C1398 C 0.44750 0.73025 0.55287
 C1399 C 0.40747 0.74924 0.59305
 C1400 C 0.39385 0.74906 0.60668
 C1401 C 0.37788 0.74883 0.62264
 C1402 C 0.36424 0.74866 0.63625
 C1403 C 0.34793 0.74853 0.65249
 C1404 C 0.35362 0.74895 0.67412
 C1405 C 0.33779 0.74903 0.68991
 C1406 C 0.31599 0.74870 0.68426
 C1407 C 0.31046 0.74816 0.66243
 C1408 C 0.32633 0.74808 0.64669
 H1409 H 0.42578 0.71500 0.57467
 H1410 H 0.42548 0.78386 0.57500
 H1411 H 0.45313 0.78424 0.54722
 H1412 H 0.45342 0.71511 0.54691
 H1413 H 0.37029 0.74928 0.67880
 H1414 H 0.34265 0.74941 0.70652
 H1415 H 0.29388 0.74785 0.65748
 H1416 H 0.32174 0.74773 0.62999
 C1417 C 0.26913 0.06859 0.93121
 C1418 C 0.24972 0.07649 0.92338
 C1419 C 0.23042 0.06845 0.93133
 C1420 C 0.23051 0.05259 0.94706
 C1421 C 0.24994 0.04453 0.95505
 C1422 C 0.26926 0.05271 0.94695
 C1423 C 0.24957 0.09282 0.90719
 C1424 C 0.24939 0.10650 0.89363
 C1425 C 0.24915 0.12249 0.87773
 C1426 C 0.24896 0.13614 0.86415
 C1427 C 0.24878 0.15242 0.84790
 C1428 C 0.24888 0.14667 0.82628
 C1429 C 0.24890 0.16246 0.81047
 C1430 C 0.24885 0.18427 0.81608
 C1431 C 0.24865 0.18986 0.83790
 C1432 C 0.24862 0.17403 0.85367
 H1433 H 0.28416 0.07470 0.92516
 H1434 H 0.21530 0.07446 0.92538
 H1435 H 0.21536 0.04664 0.95295
 H1436 H 0.28449 0.04686 0.95276
 H1437 H 0.24899 0.12998 0.82164
 H1438 H 0.24902 0.15755 0.79387
 H1439 H 0.24855 0.20646 0.84281
 H1440 H 0.24853 0.17865 0.87037
 C1441 C 0.73069 0.56874 0.43152
 C1442 C 0.74999 0.57676 0.42354
 C1443 C 0.76940 0.56887 0.43140
 C1444 C 0.76953 0.55302 0.44717
 C1445 C 0.75020 0.54485 0.45530
 C1446 C 0.73078 0.55290 0.44729
 C1447 C 0.74985 0.59307 0.40729
 C1448 C 0.74968 0.60672 0.39368
 C1449 C 0.74945 0.62270 0.37774
 C1450 C 0.74926 0.63634 0.36412
 C1451 C 0.74908 0.65262 0.34785
 C1452 C 0.74892 0.67424 0.35360
 C1453 C 0.74892 0.69007 0.33781
 C1454 C 0.74910 0.68447 0.31599
 C1455 C 0.74917 0.66266 0.31040
 C1456 C 0.74916 0.64687 0.32623
 H1457 H 0.71558 0.57473 0.42555
 H1458 H 0.78443 0.57496 0.42533
 H1459 H 0.78475 0.54718 0.45299
 H1460 H 0.71562 0.54697 0.45319
 H1461 H 0.74883 0.67887 0.37029
 H1462 H 0.74882 0.70667 0.34272
 H1463 H 0.74927 0.65774 0.29380
 H1464 H 0.74927 0.63018 0.32160
 C1465 C 0.73040 0.06808 0.06837
 C1466 C 0.74977 0.07600 0.07627
 C1467 C 0.76909 0.06802 0.06834
 C1468 C 0.76908 0.05217 0.05258
 C1469 C 0.74968 0.04403 0.04445
 C1470 C 0.73031 0.05224 0.05260
 C1471 C 0.74985 0.09232 0.09251
 C1472 C 0.74999 0.10598 0.10611
 C1473 C 0.75019 0.12197 0.12203
 C1474 C 0.75037 0.13563 0.13563
 C1475 C 0.75056 0.15193 0.15187
 C1476 C 0.75063 0.17354 0.14609
 C1477 C 0.75068 0.18939 0.16185
 C1478 C 0.75065 0.18384 0.18367
 C1479 C 0.75066 0.16204 0.18930
 C1480 C 0.75061 0.14623 0.17350
 H1481 H 0.71535 0.07416 0.07441
 H1482 H 0.78418 0.07404 0.07435
 H1483 H 0.78433 0.04635 0.04679
 H1484 H 0.71504 0.04645 0.04683
 H1485 H 0.75061 0.17813 0.12939
 H1486 H 0.75072 0.20599 0.15691
 H1487 H 0.75068 0.15716 0.20591
 H1488 H 0.75057 0.12954 0.17816
 C1489 C 0.23039 0.56880 0.56854
 C1490 C 0.24978 0.57670 0.57643
 C1491 C 0.26910 0.56874 0.56844
 C1492 C 0.26905 0.55293 0.55263
 C1493 C 0.24964 0.54487 0.54459
 C1494 C 0.23029 0.55298 0.55273
 C1495 C 0.24989 0.59297 0.59271
 C1496 C 0.25005 0.60659 0.60635
 C1497 C 0.25026 0.62254 0.62231
 C1498 C 0.25046 0.63617 0.63595
 C1499 C 0.25066 0.65244 0.65222
 C1500 C 0.25076 0.67406 0.64647
 C1501 C 0.25080 0.68989 0.66225
 C1502 C 0.25075 0.68430 0.68406
 C1503 C 0.25074 0.66249 0.68966
 C1504 C 0.25069 0.64670 0.67384
 H1505 H 0.21534 0.57485 0.57462
 H1506 H 0.28420 0.57474 0.57443
 H1507 H 0.28421 0.54703 0.54672
 H1508 H 0.21509 0.54712 0.54689
 H1509 H 0.25075 0.67868 0.62977
 H1510 H 0.25086 0.70649 0.65734
 H1511 H 0.25073 0.65759 0.70626
 H1512 H 0.25063 0.63001 0.67847
 C1513 C 0.73085 0.93120 0.93209
 C1514 C 0.75028 0.92333 0.92428
 C1515 C 0.76955 0.93137 0.93230
 C1516 C 0.76942 0.94721 0.94807
 C1517 C 0.74997 0.95524 0.95604
 C1518 C 0.73067 0.94704 0.94787
 C1519 C 0.75047 0.90704 0.90802
 C1520 C 0.75068 0.89340 0.89441
 C1521 C 0.75095 0.87744 0.87845
 C1522 C 0.75116 0.86382 0.86481
 C1523 C 0.75135 0.84757 0.84851
 C1524 C 0.75123 0.85335 0.82691
 C1525 C 0.75122 0.83760 0.81105
 C1526 C 0.75133 0.81577 0.81660
 C1527 C 0.75156 0.81014 0.83840
 C1528 C 0.75156 0.82594 0.85422
 H1529 H 0.71583 0.92508 0.92598
 H1530 H 0.78469 0.92540 0.92637
 H1531 H 0.78455 0.95317 0.95402
 H1532 H 0.71543 0.95287 0.95365
 H1533 H 0.75108 0.87005 0.82231
 H1534 H 0.75108 0.84253 0.79446
 H1535 H 0.75169 0.79353 0.84327
 H1536 H 0.75168 0.82129 0.87090
 C1537 C 0.23069 0.43122 0.43145
 C1538 C 0.25011 0.42337 0.42362
 C1539 C 0.26939 0.43142 0.43161
 C1540 C 0.26928 0.44727 0.44737
 C1541 C 0.24983 0.45529 0.45536
 C1542 C 0.23052 0.44708 0.44722
 C1543 C 0.25029 0.40705 0.40738
 C1544 C 0.25048 0.39340 0.39378
 C1545 C 0.25074 0.37742 0.37784
 C1546 C 0.25094 0.36378 0.36422
 C1547 C 0.25113 0.34751 0.34794
 C1548 C 0.25103 0.35328 0.32633
 C1549 C 0.25102 0.33750 0.31049
 C1550 C 0.25110 0.31568 0.31607
 C1551 C 0.25130 0.31008 0.33787
 C1552 C 0.25131 0.32590 0.35367
 H1553 H 0.21567 0.42510 0.42538
 H1554 H 0.28452 0.42545 0.42566
 H1555 H 0.28441 0.45324 0.45329
 H1556 H 0.21529 0.45290 0.45302
 H1557 H 0.25090 0.36997 0.32172
 H1558 H 0.25090 0.34242 0.29389
 H1559 H 0.25141 0.29347 0.34277
 H1560 H 0.25141 0.32126 0.37036
 C1561 C 0.23038 0.93114 0.06795
 C1562 C 0.24968 0.92312 0.07594
 C1563 C 0.26909 0.93099 0.06810
 C1564 C 0.26923 0.94682 0.05233
 C1565 C 0.24991 0.95499 0.04419
 C1566 C 0.23048 0.94696 0.05219
 C1567 C 0.24952 0.90684 0.09218
 C1568 C 0.24933 0.89321 0.10579
 C1569 C 0.24908 0.87726 0.12173
 C1570 C 0.24888 0.86364 0.13536
 C1571 C 0.24868 0.84740 0.15164
 C1572 C 0.24876 0.85319 0.17324
 C1573 C 0.24876 0.83743 0.18908
 C1574 C 0.24871 0.81561 0.18351
 C1575 C 0.24853 0.80998 0.16171
 C1576 C 0.24853 0.82578 0.14591
 H1577 H 0.21526 0.92515 0.07391
 H1578 H 0.28412 0.92489 0.07418
 H1579 H 0.28446 0.95266 0.04652
 H1580 H 0.21533 0.95290 0.04627
 H1581 H 0.24887 0.86989 0.17785
 H1582 H 0.24887 0.84237 0.20568
 H1583 H 0.24844 0.79337 0.15682
 H1584 H 0.24845 0.82113 0.12922
 C1585 C 0.76937 0.43124 0.56844
 C1586 C 0.74996 0.42336 0.57629
 C1587 C 0.73067 0.43138 0.56830
 C1588 C 0.73076 0.44723 0.55254
 C1589 C 0.75019 0.45527 0.54453
 C1590 C 0.76951 0.44709 0.55267
 C1591 C 0.74982 0.40705 0.59254
 C1592 C 0.74964 0.39340 0.60615
 C1593 C 0.74941 0.37743 0.62209
 C1594 C 0.74922 0.36380 0.63572
 C1595 C 0.74904 0.34753 0.65201
 C1596 C 0.74887 0.32590 0.64629
 C1597 C 0.74888 0.31010 0.66209
 C1598 C 0.74908 0.31571 0.68390
 C1599 C 0.74915 0.33754 0.68947
 C1600 C 0.74914 0.35330 0.67363
 H1601 H 0.78440 0.42514 0.57452
 H1602 H 0.71555 0.42540 0.57426
 H1603 H 0.71561 0.45316 0.54663
 H1604 H 0.78473 0.45293 0.54686
 H1605 H 0.74877 0.32125 0.62960
 H1606 H 0.74878 0.29349 0.65720
 H1607 H 0.74927 0.34247 0.70607
 H1608 H 0.74926 0.37000 0.67824
 C1609 C 0.06861 0.06881 0.73049
 C1610 C 0.07651 0.07667 0.74989
 C1611 C 0.06847 0.06875 0.76920
 C1612 C 0.05259 0.05303 0.76913
 C1613 C 0.04454 0.04501 0.74971
 C1614 C 0.05273 0.05308 0.73037
 C1615 C 0.09285 0.09286 0.75002
 C1616 C 0.10652 0.10643 0.75020
 C1617 C 0.12251 0.12233 0.75045
 C1618 C 0.13615 0.13593 0.75066
 C1619 C 0.15242 0.15219 0.75088
 C1620 C 0.17403 0.14644 0.75094
 C1621 C 0.18985 0.16222 0.75098
 C1622 C 0.18425 0.18403 0.75094
 C1623 C 0.16244 0.18962 0.75097
 C1624 C 0.14666 0.17380 0.75093
 H1625 H 0.07473 0.07483 0.71545
 H1626 H 0.07447 0.07473 0.78431
 H1627 H 0.04664 0.04717 0.78429
 H1628 H 0.04688 0.04725 0.71515
 H1629 H 0.17866 0.12974 0.75091
 H1630 H 0.20646 0.15732 0.75099
 H1631 H 0.15753 0.20623 0.75098
 H1632 H 0.12997 0.17842 0.75090
 C1633 C 0.56894 0.56857 0.23036
 C1634 C 0.57681 0.57645 0.24977
 C1635 C 0.56878 0.56848 0.26907
 C1636 C 0.55295 0.55270 0.26898
 C1637 C 0.54491 0.54467 0.24955
 C1638 C 0.55309 0.55279 0.23022
 C1639 C 0.59310 0.59271 0.24992
 C1640 C 0.60674 0.60634 0.25011
 C1641 C 0.62270 0.62231 0.25037
 C1642 C 0.63632 0.63595 0.25058
 C1643 C 0.65257 0.65225 0.25080
 C1644 C 0.67420 0.64655 0.25084
 C1645 C 0.69000 0.66236 0.25089
 C1646 C 0.68437 0.68417 0.25087
 C1647 C 0.66255 0.68972 0.25092
 C1648 C 0.64679 0.67386 0.25088
 H1649 H 0.57504 0.57463 0.21532
 H1650 H 0.57476 0.57446 0.28419
 H1651 H 0.54701 0.54681 0.28413
 H1652 H 0.54726 0.54696 0.21500
 H1653 H 0.67885 0.62986 0.25080
 H1654 H 0.70661 0.65748 0.25089
 H1655 H 0.65761 0.70631 0.25094
 H1656 H 0.63009 0.67846 0.25086
 C1657 C 0.06836 0.93140 0.23076
 C1658 C 0.07641 0.92342 0.25004
 C1659 C 0.06856 0.93125 0.26947
 C1660 C 0.05271 0.94701 0.26964
 C1661 C 0.04451 0.95514 0.25033
 C1662 C 0.05252 0.94715 0.23088
 C1663 C 0.09271 0.90719 0.24986
 C1664 C 0.10636 0.89360 0.24962
 C1665 C 0.12233 0.87767 0.24931
 C1666 C 0.13595 0.86406 0.24904
 C1667 C 0.15221 0.84779 0.24876
 C1668 C 0.17382 0.85354 0.24869
 C1669 C 0.18964 0.83775 0.24861
 C1670 C 0.18402 0.81594 0.24861
 C1671 C 0.16221 0.81035 0.24858
 C1672 C 0.14644 0.82619 0.24866
 H1673 H 0.07433 0.92544 0.21563
 H1674 H 0.07468 0.92517 0.28450
 H1675 H 0.04689 0.95282 0.28488
 H1676 H 0.04656 0.95306 0.21574
 H1677 H 0.17846 0.87023 0.24875
 H1678 H 0.20624 0.84264 0.24860
 H1679 H 0.15729 0.79376 0.24855
 H1680 H 0.12975 0.82157 0.24870
 C1681 C 0.56895 0.43161 0.76986
 C1682 C 0.57682 0.42377 0.75043
 C1683 C 0.56879 0.43177 0.73115
 C1684 C 0.55294 0.44754 0.73126
 C1685 C 0.54491 0.45554 0.75070
 C1686 C 0.55310 0.44739 0.77001
 C1687 C 0.59313 0.40752 0.75025
 C1688 C 0.60677 0.39390 0.75004
 C1689 C 0.62274 0.37795 0.74974
 C1690 C 0.63636 0.36431 0.74949
 C1691 C 0.65262 0.34801 0.74923
 C1692 C 0.64684 0.32640 0.74916
 C1693 C 0.66260 0.31055 0.74909
 C1694 C 0.68442 0.31610 0.74910
 C1695 C 0.69005 0.33791 0.74907
 C1696 C 0.67424 0.35372 0.74915
 H1697 H 0.57506 0.42553 0.78488
 H1698 H 0.57476 0.42582 0.71602
 H1699 H 0.54699 0.45346 0.71612
 H1700 H 0.54727 0.45319 0.78525
 H1701 H 0.63014 0.32180 0.74921
 H1702 H 0.65766 0.29396 0.74907
 H1703 H 0.70665 0.34279 0.74905
 H1704 H 0.67890 0.37041 0.74919
 C1705 C 0.93115 0.06810 0.23086
 C1706 C 0.92316 0.07612 0.25015
 C1707 C 0.93103 0.06827 0.26957
 C1708 C 0.94683 0.05246 0.26972
 C1709 C 0.95497 0.04430 0.25039
 C1710 C 0.94694 0.05230 0.23095
 C1711 C 0.90692 0.09240 0.24998
 C1712 C 0.89332 0.10604 0.24976
 C1713 C 0.87740 0.12201 0.24945
 C1714 C 0.86380 0.13565 0.24920
 C1715 C 0.84756 0.15194 0.24893
 C1716 C 0.85335 0.17354 0.24883
 C1717 C 0.83759 0.18939 0.24874
 C1718 C 0.81578 0.18382 0.24876
 C1719 C 0.81014 0.16201 0.24877
 C1720 C 0.82594 0.14621 0.24886
 H1721 H 0.92516 0.07406 0.21573
 H1722 H 0.92495 0.07438 0.28460
 H1723 H 0.95267 0.04665 0.28494
 H1724 H 0.95286 0.04636 0.21581
 H1725 H 0.87005 0.17814 0.24887
 H1726 H 0.84252 0.20598 0.24870
 H1727 H 0.79354 0.15713 0.24875
 H1728 H 0.82129 0.12952 0.24892
 C1729 C 0.43142 0.56854 0.73125
 C1730 C 0.42342 0.57655 0.75054
 C1731 C 0.43130 0.56869 0.76996
 C1732 C 0.44712 0.55289 0.77009
 C1733 C 0.45528 0.54474 0.75077
 C1734 C 0.44724 0.55275 0.73134
 C1735 C 0.40714 0.59282 0.75039
 C1736 C 0.39351 0.60646 0.75019
 C1737 C 0.37755 0.62242 0.74990
 C1738 C 0.36393 0.63606 0.74967
 C1739 C 0.34766 0.65235 0.74943
 C1740 C 0.32604 0.64661 0.74933
 C1741 C 0.31022 0.66241 0.74925
 C1742 C 0.31582 0.68422 0.74928
 C1743 C 0.33763 0.68980 0.74929
 C1744 C 0.35341 0.67396 0.74937
 H1745 H 0.42544 0.57451 0.71613
 H1746 H 0.42521 0.57477 0.78499
 H1747 H 0.45296 0.54707 0.78532
 H1748 H 0.45317 0.54683 0.71619
 H1749 H 0.32140 0.62992 0.74936
 H1750 H 0.29361 0.65751 0.74921
 H1751 H 0.34255 0.70640 0.74927
 H1752 H 0.37011 0.67858 0.74942
 C1753 C 0.93094 0.93195 0.73070
 C1754 C 0.92309 0.92414 0.75013
 C1755 C 0.93108 0.93219 0.76942
 C1756 C 0.94687 0.94799 0.76930
 C1757 C 0.95490 0.95596 0.74985
 C1758 C 0.94675 0.94776 0.73054
 C1759 C 0.90685 0.90785 0.75032
 C1760 C 0.89326 0.89420 0.75053
 C1761 C 0.87736 0.87821 0.75082
 C1762 C 0.86379 0.86454 0.75106
 C1763 C 0.84758 0.84822 0.75131
 C1764 C 0.85342 0.82663 0.75133
 C1765 C 0.83769 0.81075 0.75138
 C1766 C 0.81587 0.81627 0.75139
 C1767 C 0.81019 0.83806 0.75147
 C1768 C 0.82595 0.85390 0.75142
 H1769 H 0.92486 0.92582 0.71568
 H1770 H 0.92510 0.92625 0.78455
 H1771 H 0.95280 0.95395 0.78444
 H1772 H 0.95258 0.95355 0.71530
 H1773 H 0.87012 0.82206 0.75126
 H1774 H 0.84266 0.79416 0.75136
 H1775 H 0.79357 0.84290 0.75152
 H1776 H 0.82127 0.87057 0.75142
 C1777 C 0.43120 0.43158 0.23039
 C1778 C 0.42331 0.42376 0.24981
 C1779 C 0.43132 0.43178 0.26910
 C1780 C 0.44716 0.44755 0.26900
 C1781 C 0.45522 0.45553 0.24957
 C1782 C 0.44705 0.44736 0.23025
 C1783 C 0.40701 0.40750 0.24997
 C1784 C 0.39337 0.39388 0.25016
 C1785 C 0.37741 0.37792 0.25042
 C1786 C 0.36379 0.36428 0.25064
 C1787 C 0.34754 0.34797 0.25085
 C1788 C 0.35332 0.32636 0.25091
 C1789 C 0.33757 0.31051 0.25095
 C1790 C 0.31574 0.31605 0.25092
 C1791 C 0.31011 0.33786 0.25096
 C1792 C 0.32591 0.35368 0.25092
 H1793 H 0.42511 0.42549 0.21536
 H1794 H 0.42533 0.42584 0.28422
 H1795 H 0.45309 0.45348 0.28415
 H1796 H 0.45290 0.45315 0.21502
 H1797 H 0.37002 0.32176 0.25087
 H1798 H 0.34250 0.29391 0.25095
 H1799 H 0.29350 0.34273 0.25098
 H1800 H 0.32125 0.37036 0.25090
   
