data_POSCAR
  _audit_creation_date              2014-09-24
  _audit_creation_method            'ToBaCCo'
  _symmetry_space_group_name_H-M    'P1'
  _symmetry_Int_Tables_number       1
  _symmetry_cell_setting            triclinic
  loop_
  _symmetry_equiv_pos_as_xyz
 x,y,z
_cell_length_a 40.7754
_cell_length_b 42.2613
_cell_length_c 52.9732
_cell_angle_alpha 89.992100
_cell_angle_beta 90.138100
_cell_angle_gamma 89.989800
loop_
  _atom_site_label
  _atom_site_type_symbol
  _atom_site_fract_x
  _atom_site_fract_y
  _atom_site_fract_z
Zr1 Zr 0.25495 0.24823 0.29726
 O2 O 0.28234 0.27493 0.32376
 O3 O 0.22659 0.21967 0.32113
 O4 O 0.22492 0.27948 0.31778
 O5 O 0.31596 0.19311 0.28682
 O6 O 0.19531 0.30607 0.28787
 O7 O 0.28846 0.21965 0.31777
 O8 O 0.19325 0.19300 0.29373
 O9 O 0.21001 0.24881 0.27789
 O10 O 0.25269 0.20562 0.27737
 O11 O 0.25596 0.28874 0.27404
 O12 O 0.29708 0.24760 0.27426
 Zr13 Zr 0.25051 0.24469 0.20950
 Zr14 Zr 0.21217 0.28768 0.25309
 Zr15 Zr 0.29274 0.20580 0.25312
 Zr16 Zr 0.20888 0.20684 0.25726
 O17 O 0.34444 0.20764 0.24964
 O18 O 0.15800 0.21681 0.25933
 O19 O 0.24896 0.20384 0.23231
 O20 O 0.20851 0.24554 0.23250
 O21 O 0.25264 0.28790 0.22874
 O22 O 0.29484 0.24458 0.22922
 C23 C 0.20371 0.19975 0.31606
 C24 C 0.31082 0.20039 0.30998
 C25 C 0.20357 0.30032 0.31097
 O26 O 0.16037 0.28504 0.25293
 O27 O 0.19446 0.30530 0.21787
 O28 O 0.22099 0.27540 0.18851
 C29 C 0.20080 0.29734 0.19478
 O30 O 0.31955 0.30693 0.28156
 Zr31 Zr 0.29606 0.28653 0.24960
 O32 O 0.28105 0.27139 0.18564
 O33 O 0.21756 0.33746 0.25318
 O34 O 0.28865 0.33606 0.24684
 O35 O 0.34748 0.27931 0.24799
 O36 O 0.31213 0.29993 0.21337
 C37 C 0.30399 0.29126 0.19092
 O38 O 0.22092 0.21995 0.18315
 O39 O 0.28713 0.15620 0.25649
 O40 O 0.27760 0.21122 0.18889
 O41 O 0.30653 0.18443 0.21897
 O42 O 0.21324 0.15693 0.25982
 O43 O 0.18699 0.18468 0.22538
 C44 C 0.29826 0.18995 0.19595
 H45 H 0.25375 0.18670 0.28835
 H46 H 0.18824 0.24512 0.22217
 H47 H 0.31439 0.24269 0.21830
 H48 H 0.25757 0.30831 0.28423
 H49 H 0.14691 0.19733 0.26526
 H50 H 0.15222 0.30713 0.25320
 H51 H 0.19515 0.34649 0.25246
 H52 H 0.30952 0.34553 0.24099
 H53 H 0.19167 0.14849 0.26517
 H54 H 0.30951 0.14708 0.25674
 H55 H 0.35252 0.18551 0.24972
 H56 H 0.35766 0.29950 0.24260
 H57 H 0.16765 0.17233 0.23087
 H58 H 0.22838 0.22598 0.16598
 H59 H 0.27536 0.26804 0.34083
 H60 H 0.33353 0.32478 0.27604
 Zr61 Zr 0.77257 0.74642 0.28959
 O62 O 0.75037 0.72418 0.32106
 O63 O 0.80709 0.77632 0.30738
 O64 O 0.80538 0.71704 0.30942
 O65 O 0.71342 0.80425 0.28129
 O66 O 0.82942 0.68684 0.27896
 O67 O 0.74302 0.77740 0.31100
 O68 O 0.83512 0.79783 0.27441
 O69 O 0.81336 0.74193 0.26595
 O70 O 0.77251 0.78624 0.26623
 O71 O 0.76571 0.70340 0.27020
 O72 O 0.72661 0.74580 0.27103
 Zr73 Zr 0.76175 0.73891 0.20215
 Zr74 Zr 0.80549 0.70030 0.24540
 Zr75 Zr 0.72834 0.78473 0.24653
 Zr76 Zr 0.81194 0.78078 0.24175
 O77 O 0.67656 0.78359 0.24881
 O78 O 0.86250 0.76961 0.23886
 O79 O 0.76792 0.78224 0.22128
 O80 O 0.80719 0.73907 0.22085
 O81 O 0.76143 0.69866 0.22512
 O82 O 0.72096 0.74338 0.22576
 C83 C 0.82964 0.79429 0.29812
 C84 C 0.72163 0.79822 0.30428
 C85 C 0.82570 0.69566 0.30202
 O86 O 0.85669 0.70037 0.23894
 O87 O 0.81514 0.67671 0.21126
 O88 O 0.78689 0.70413 0.18121
 C89 C 0.80607 0.68157 0.18828
 O90 O 0.70218 0.68995 0.28477
 Zr91 Zr 0.72179 0.70419 0.24941
 O92 O 0.72782 0.70992 0.18373
 O93 O 0.79878 0.65122 0.25140
 O94 O 0.72704 0.65436 0.25171
 O95 O 0.67068 0.71342 0.25041
 O96 O 0.70126 0.68482 0.21587
 C97 C 0.70690 0.68988 0.19223
 O98 O 0.78713 0.75879 0.17112
 O99 O 0.73518 0.83435 0.24493
 O100 O 0.73287 0.77153 0.18185
 O101 O 0.71033 0.80281 0.21235
 O102 O 0.80935 0.83090 0.24097
 O103 O 0.82749 0.79801 0.20604
 C104 C 0.71494 0.79486 0.18921
 H105 H 0.77422 0.80639 0.27567
 H106 H 0.82551 0.73721 0.20871
 H107 H 0.69999 0.74443 0.21635
 H108 H 0.76544 0.68537 0.28214
 H109 H 0.87498 0.78948 0.24141
 H110 H 0.86415 0.67812 0.24032
 H111 H 0.82048 0.64108 0.24910
 H112 H 0.70516 0.64493 0.24857
 H113 H 0.83198 0.83912 0.24293
 H114 H 0.71318 0.84414 0.24643
 H115 H 0.66894 0.80581 0.24757
 H116 H 0.65923 0.69307 0.24740
 H117 H 0.84774 0.81066 0.20819
 H118 H 0.77658 0.75071 0.15549
 H119 H 0.76068 0.73302 0.33653
 H120 H 0.68595 0.67285 0.28207
 Zr121 Zr 0.73040 0.25852 -0.29997
 O122 O 0.70303 0.28653 -0.32561
 O123 O 0.76006 0.23202 -0.32450
 O124 O 0.76109 0.29026 -0.31947
 O125 O 0.66917 0.20285 -0.29241
 O126 O 0.79112 0.31436 -0.28854
 O127 O 0.69818 0.23065 -0.32181
 O128 O 0.79432 0.20603 -0.29739
 O129 O 0.77490 0.25811 -0.28019
 O130 O 0.73250 0.21490 -0.28149
 O131 O 0.72874 0.29788 -0.27563
 O132 O 0.68782 0.25662 -0.27741
 Zr133 Zr 0.73396 0.25083 -0.21244
 Zr134 Zr 0.77231 0.29579 -0.25456
 Zr135 Zr 0.69187 0.21374 -0.25764
 Zr136 Zr 0.77595 0.21525 -0.26088
 O137 O 0.64027 0.21567 -0.25371
 O138 O 0.82709 0.22434 -0.26031
 O139 O 0.73551 0.21114 -0.23657
 O140 O 0.77612 0.25284 -0.23511
 O141 O 0.73170 0.29477 -0.23048
 O142 O 0.68956 0.25131 -0.23219
 C143 C 0.78459 0.21387 -0.31967
 C144 C 0.67553 0.21105 -0.31532
 C145 C 0.78348 0.30957 -0.31185
 O146 O 0.82413 0.29352 -0.25330
 O147 O 0.78909 0.31221 -0.21906
 O148 O 0.76361 0.28056 -0.19036
 C149 C 0.78321 0.30319 -0.19623
 O150 O 0.66415 0.31497 -0.28288
 Zr151 Zr 0.68832 0.29422 -0.25137
 O152 O 0.70422 0.27726 -0.18789
 O153 O 0.76657 0.34554 -0.25412
 O154 O 0.69488 0.34386 -0.24853
 O155 O 0.63708 0.28631 -0.24881
 O156 O 0.67369 0.30771 -0.21464
 C157 C 0.68255 0.29869 -0.19239
 O158 O 0.76332 0.22519 -0.18647
 O159 O 0.69697 0.16440 -0.26324
 O160 O 0.70776 0.21550 -0.19333
 O161 O 0.67945 0.18946 -0.22420
 O162 O 0.77190 0.16579 -0.26690
 O163 O 0.79546 0.19045 -0.22933
 C164 C 0.68845 0.19347 -0.20109
 H165 H 0.73207 0.19672 -0.29327
 H166 H 0.79626 0.25198 -0.22466
 H167 H 0.67028 0.24898 -0.22102
 H168 H 0.72732 0.31783 -0.28536
 H169 H 0.83827 0.20508 -0.26660
 H170 H 0.83220 0.31564 -0.25303
 H171 H 0.78890 0.35466 -0.25288
 H172 H 0.67391 0.35301 -0.24254
 H173 H 0.79379 0.15806 -0.27217
 H174 H 0.67451 0.15547 -0.26365
 H175 H 0.63219 0.19360 -0.25474
 H176 H 0.62690 0.30621 -0.24277
 H177 H 0.81440 0.17750 -0.23480
 H178 H 0.75568 0.23054 -0.16921
 H179 H 0.71034 0.28081 -0.34286
 H180 H 0.64901 0.33169 -0.27693
 Zr181 Zr 0.25175 0.76663 -0.28820
 O182 O 0.27979 0.74526 -0.31717
 O183 O 0.21788 0.79283 -0.30957
 O184 O 0.22422 0.73383 -0.30951
 O185 O 0.30626 0.82754 -0.27645
 O186 O 0.19898 0.70285 -0.28006
 O187 O 0.28169 0.79952 -0.30787
 O188 O 0.18410 0.81426 -0.28009
 O189 O 0.20844 0.76007 -0.26761
 O190 O 0.24610 0.80723 -0.26616
 O191 O 0.25854 0.72474 -0.26724
 O192 O 0.29488 0.76984 -0.26630
 Zr193 Zr 0.25235 0.76261 -0.20018
 Zr194 Zr 0.21629 0.71985 -0.24505
 Zr195 Zr 0.28730 0.80920 -0.24285
 Zr196 Zr 0.20405 0.80002 -0.24485
 O197 O 0.33911 0.81230 -0.24133
 O198 O 0.15433 0.78533 -0.24550
 O199 O 0.24497 0.80486 -0.22074
 O200 O 0.20938 0.75962 -0.22216
 O201 O 0.25794 0.72159 -0.22186
 O202 O 0.29512 0.76892 -0.22115
 C203 C 0.19285 0.80967 -0.30324
 C204 C 0.30178 0.82107 -0.29994
 C205 C 0.20517 0.71087 -0.30304
 O206 O 0.16454 0.71715 -0.24319
 O207 O 0.20267 0.69771 -0.21064
 O208 O 0.22651 0.72784 -0.18015
 C209 C 0.20858 0.70436 -0.18720
 O210 O 0.32344 0.71465 -0.27757
 Zr211 Zr 0.29961 0.72912 -0.24385
 O212 O 0.28694 0.73667 -0.17886
 O213 O 0.22695 0.67101 -0.24811
 O214 O 0.29789 0.67898 -0.24435
 O215 O 0.35002 0.74139 -0.24261
 O216 O 0.31867 0.71350 -0.20905
 C217 C 0.31110 0.71908 -0.18590
 O218 O 0.22241 0.78223 -0.17153
 O219 O 0.27605 0.85807 -0.24290
 O220 O 0.27721 0.79686 -0.17860
 O221 O 0.30118 0.82886 -0.20793
 O222 O 0.20343 0.85020 -0.24529
 O223 O 0.18198 0.81768 -0.21137
 C224 C 0.29509 0.82061 -0.18504
 H225 H 0.24430 0.82682 -0.27632
 H226 H 0.18977 0.75720 -0.21134
 H227 H 0.31501 0.77169 -0.21064
 H228 H 0.26158 0.70628 -0.27849
 H229 H 0.14086 0.80400 -0.25008
 H230 H 0.15874 0.69444 -0.24445
 H231 H 0.20569 0.65970 -0.24729
 H232 H 0.32003 0.67118 -0.23975
 H233 H 0.18091 0.85694 -0.24988
 H234 H 0.29726 0.86949 -0.24329
 H235 H 0.34476 0.83507 -0.24025
 H236 H 0.36256 0.72183 -0.23888
 H237 H 0.16161 0.82920 -0.21577
 H238 H 0.23155 0.77543 -0.15501
 H239 H 0.27092 0.75293 -0.33353
 H240 H 0.33976 0.69803 -0.27358
 Zr241 Zr 1.25539 1.23838 0.79122
 O242 O 1.22961 1.21066 0.81794
 O243 O 1.28156 1.26920 0.81479
 O244 O 1.28791 1.21232 0.81384
 O245 O 1.19274 1.29138 0.77870
 O246 O 1.31923 1.18509 0.78561
 O247 O 1.21939 1.26461 0.81008
 O248 O 1.31401 1.29605 0.78714
 O249 O 1.30072 1.24043 0.77298
 O250 O 1.25513 1.28007 0.77006
 O251 O 1.25807 1.19660 0.76991
 O252 O 1.21392 1.23485 0.76752
 Zr253 Zr 1.26275 1.23715 0.70359
 Zr254 Zr 1.30225 1.20019 0.75013
 Zr255 Zr 1.21584 1.27581 0.74512
 Zr256 Zr 1.29932 1.28100 0.75072
 O257 O 1.16464 1.26918 0.74138
 O258 O 1.35097 1.27580 0.75292
 O259 O 1.26002 1.27936 0.72493
 O260 O 1.30365 1.24095 0.72768
 O261 O 1.26318 1.19539 0.72478
 O262 O 1.21773 1.23541 0.72242
 C263 C 1.30419 1.28936 0.80966
 C264 C 1.19756 1.28415 0.80209
 C265 C 1.31091 1.19277 0.80819
 O266 O 1.35367 1.20672 0.75151
 O267 O 1.32335 1.18223 0.71714
 O268 O 1.29582 1.20630 0.68488
 C269 C 1.31769 1.18701 0.69358
 O270 O 1.19356 1.17734 0.77649
 Zr271 Zr 1.21893 1.19467 0.74433
 O272 O 1.23575 1.20677 0.68028
 O273 O 1.30056 1.15018 0.75171
 O274 O 1.22893 1.14553 0.74695
 O275 O 1.16766 1.19734 0.73780
 O276 O 1.21019 1.17433 0.70851
 C277 C 1.21790 1.18277 0.68592
 O278 O 1.29107 1.26246 0.67692
 O279 O 1.21700 1.32587 0.74591
 O280 O 1.23295 1.26674 0.68105
 O281 O 1.20260 1.29446 0.70970
 O282 O 1.29068 1.33044 0.75249
 O283 O 1.31941 1.30355 0.71840
 C284 C 1.21138 1.28779 0.68696
 H285 H 1.25279 1.29936 0.78049
 H286 H 1.32425 1.24223 0.71787
 H287 H 1.19874 1.23475 0.71075
 H288 H 1.25767 1.17772 0.78097
 H289 H 1.36014 1.29640 0.75843
 H290 H 1.36365 1.18540 0.75294
 H291 H 1.32357 1.14269 0.75255
 H292 H 1.20914 1.13412 0.74099
 H293 H 1.31128 1.34055 0.75832
 H294 H 1.19393 1.33320 0.74517
 H295 H 1.15481 1.29056 0.74015
 H296 H 1.16011 1.17581 0.73318
 H297 H 1.33667 1.31863 0.72374
 H298 H 1.28503 1.25426 0.65999
 H299 H 1.23542 1.21873 0.83496
 H300 H 1.17994 1.15894 0.77159
 Zr301 Zr 0.73620 0.74498 0.79684
 O302 O 0.75563 0.76975 0.82824
 O303 O 0.70373 0.71413 0.81476
 O304 O 0.70027 0.77292 0.81489
 O305 O 0.80030 0.69168 0.79141
 O306 O 0.67678 0.80111 0.78289
 O307 O 0.76654 0.71623 0.81966
 O308 O 0.67882 0.68866 0.78201
 O309 O 0.69625 0.74475 0.77191
 O310 O 0.74130 0.70442 0.77456
 O311 O 0.73927 0.78768 0.77668
 O312 O 0.78282 0.74861 0.77991
 Zr313 Zr 0.75139 0.75119 0.70968
 Zr314 Zr 0.70098 0.78593 0.75022
 Zr315 Zr 0.78600 0.70917 0.75586
 Zr316 Zr 0.70280 0.70519 0.74900
 O317 O 0.83731 0.71464 0.76000
 O318 O 0.65170 0.71151 0.74341
 O319 O 0.74770 0.70774 0.72939
 O320 O 0.70518 0.74622 0.72694
 O321 O 0.74592 0.79175 0.73185
 O322 O 0.79065 0.75090 0.73509
 C323 C 0.68270 0.69450 0.80576
 C324 C 0.78989 0.69695 0.81396
 C325 C 0.68003 0.79382 0.80632
 O326 O 0.64982 0.78016 0.74522
 O327 O 0.68643 0.80327 0.71464
 O328 O 0.72224 0.78100 0.68679
 C329 C 0.69725 0.79838 0.69215
 O330 O 0.80014 0.80504 0.79450
 Zr331 Zr 0.78422 0.79011 0.75817
 O332 O 0.78326 0.78419 0.69254
 O333 O 0.70333 0.83589 0.75176
 O334 O 0.77475 0.83937 0.76070
 O335 O 0.83602 0.78632 0.76035
 O336 O 0.80347 0.81198 0.72598
 C337 C 0.80072 0.80657 0.70223
 O338 O 0.73182 0.72721 0.67791
 O339 O 0.78363 0.65916 0.75470
 O340 O 0.78649 0.72303 0.69131
 O341 O 0.80766 0.69179 0.72248
 O342 O 0.71077 0.65563 0.75039
 O343 O 0.69052 0.68420 0.71376
 C344 C 0.80535 0.70073 0.69930
 H345 H 0.74069 0.68458 0.78448
 H346 H 0.68738 0.74517 0.71424
 H347 H 0.81226 0.75192 0.72666
 H348 H 0.73737 0.80621 0.78802
 H349 H 0.64091 0.69098 0.74692
 H350 H 0.64000 0.80163 0.74523
 H351 H 0.68061 0.84373 0.74949
 H352 H 0.79602 0.85053 0.75913
 H353 H 0.68917 0.64543 0.75306
 H354 H 0.80628 0.65123 0.75724
 H355 H 0.84688 0.69309 0.75953
 H356 H 0.84517 0.80791 0.75839
 H357 H 0.67220 0.66911 0.71614
 H358 H 0.74222 0.73634 0.66263
 H359 H 0.74523 0.76087 0.84361
 H360 H 0.81523 0.82326 0.79275
 Zr361 Zr 1.23314 0.75848 0.20176
 O362 O 1.20622 0.78320 0.17376
 O363 O 1.26628 0.73267 0.17965
 O364 O 1.26372 0.78972 0.18196
 O365 O 1.17864 0.69653 0.20926
 O366 O 1.28710 0.82023 0.21259
 O367 O 1.20393 0.72788 0.18011
 O368 O 1.29973 0.70984 0.20896
 O369 O 1.27604 0.76294 0.22310
 O370 O 1.23779 0.71645 0.22220
 O371 O 1.22626 0.79924 0.22381
 O372 O 1.18934 0.75438 0.22259
 Zr373 Zr 1.23092 0.75728 0.28957
 Zr374 Zr 1.26817 0.80201 0.24657
 Zr375 Zr 1.19593 0.71340 0.24444
 Zr376 Zr 1.27940 0.72175 0.24445
 O377 O 1.14410 0.71151 0.24539
 O378 O 1.32942 0.73542 0.24526
 O379 O 1.23786 0.71615 0.26749
 O380 O 1.27423 0.76098 0.26827
 O381 O 1.22623 0.79951 0.26925
 O382 O 1.18836 0.75252 0.26778
 C383 C 1.29108 0.71558 0.18596
 C384 C 1.18451 0.70524 0.18636
 C385 C 1.28313 0.81183 0.18942
 O386 O 1.31993 0.80418 0.24923
 O387 O 1.28226 0.82172 0.28132
 O388 O 1.25756 0.79091 0.31101
 C389 C 1.27634 0.81403 0.30436
 O390 O 1.16108 0.80956 0.21310
 Zr391 Zr 1.18471 0.79378 0.24662
 O392 O 1.19683 0.78262 0.31128
 O393 O 1.25783 0.85103 0.24506
 O394 O 1.18676 0.84391 0.24704
 O395 O 1.13412 0.78225 0.24780
 O396 O 1.16637 0.80887 0.28188
 C397 C 1.17381 0.80189 0.30486
 O398 O 1.25971 0.73557 0.31803
 O399 O 1.20577 0.66429 0.24234
 O400 O 1.20474 0.72214 0.30936
 O401 O 1.18323 0.69073 0.27842
 O402 O 1.27943 0.67167 0.24198
 O403 O 1.30020 0.70185 0.27768
 C404 C 1.18840 0.69782 0.30173
 H405 H 1.23969 0.69745 0.21138
 H406 H 1.29373 0.76248 0.27938
 H407 H 1.16839 0.74944 0.27809
 H408 H 1.22392 0.81826 0.21302
 H409 H 1.34257 0.71677 0.24019
 H410 H 1.32608 0.82686 0.24865
 H411 H 1.27918 0.86215 0.24618
 H412 H 1.16464 0.85172 0.25163
 H413 H 1.30195 0.66502 0.23740
 H414 H 1.18427 0.65340 0.24138
 H415 H 1.13806 0.68881 0.24543
 H416 H 1.12199 0.80186 0.25206
 H417 H 1.32040 0.69010 0.27325
 H418 H 1.25038 0.74195 0.33456
 H419 H 1.21511 0.77675 0.15712
 H420 H 1.14456 0.82585 0.21740
 Zr421 Zr 0.75496 1.25921 0.21013
 O422 O 0.78760 1.23740 0.18443
 O423 O 0.72252 1.28227 0.18551
 O424 O 0.73030 1.22470 0.18830
 O425 O 0.80283 1.32541 0.22174
 O426 O 0.70637 1.19271 0.21770
 O427 O 0.78339 1.29295 0.19069
 O428 O 0.68397 1.30251 0.21208
 O429 O 0.71014 1.25146 0.22826
 O430 O 0.74480 1.30066 0.23021
 O431 O 0.76229 1.21906 0.23292
 O432 O 0.79564 1.26636 0.23425
 Zr433 Zr 0.74636 1.26043 0.29770
 Zr434 Zr 0.71822 1.21311 0.25261
 Zr435 Zr 0.78355 1.30664 0.25560
 Zr436 Zr 0.70111 1.29236 0.24906
 O437 O 0.83494 1.31232 0.25885
 O438 O 0.65237 1.27517 0.24643
 O439 O 0.73915 1.30114 0.27522
 O440 O 0.70618 1.25356 0.27339
 O441 O 0.75690 1.21875 0.27807
 O442 O 0.79103 1.26783 0.27928
 C443 C 0.69572 1.29733 0.18984
 C444 C 0.80004 1.31703 0.19840
 C445 C 0.71303 1.20048 0.19481
 O446 O 0.66670 1.20743 0.25140
 O447 O 0.70333 1.19170 0.28670
 O448 O 0.71914 1.22619 0.31753
 C449 C 0.70525 1.20056 0.30993
 O450 O 0.82936 1.21360 0.22714
 Zr451 Zr 0.80039 1.22724 0.25861
 O452 O 0.77734 1.23496 0.32201
 O453 O 0.73202 1.16483 0.25216
 O454 O 0.80214 1.17710 0.25876
 O455 O 0.84960 1.24222 0.26381
 O456 O 0.81489 1.21303 0.29528
 C457 C 0.80270 1.21787 0.31738
 O458 O 0.71322 1.28194 0.32320
 O459 O 0.76948 1.35478 0.25419
 O460 O 0.76977 1.29518 0.31964
 O461 O 0.79383 1.32802 0.29094
 O462 O 0.69719 1.34226 0.24594
 O463 O 0.67522 1.31090 0.28054
 C464 C 0.78740 1.31936 0.31378
 H465 H 0.74252 1.31954 0.21929
 H466 H 0.68561 1.25058 0.28300
 H467 H 0.80966 1.27152 0.29091
 H468 H 0.76759 1.20027 0.22254
 H469 H 0.63846 1.29282 0.24032
 H470 H 0.66245 1.18435 0.25091
 H471 H 0.71149 1.15226 0.25206
 H472 H 0.82404 1.17082 0.26518
 H473 H 0.67471 1.34708 0.23990
 H474 H 0.79002 1.36731 0.25450
 H475 H 0.83921 1.33539 0.25951
 H476 H 0.86244 1.22351 0.26927
 H477 H 0.65467 1.32101 0.27465
 H478 H 0.72032 1.27612 0.34051
 H479 H 0.78013 1.24313 0.16718
 H480 H 0.84643 1.19844 0.23272
 O481 O 0.49550 1.06039 0.03387
 O482 O 0.52605 0.95294 0.04251
 O483 O 0.45634 0.98784 0.04014
 O484 O 0.56730 1.02553 0.03244
 O485 O 0.47091 0.94293 0.02755
 O486 O 0.54900 1.06546 0.01345
 O487 O 0.57131 0.97081 0.02748
 O488 O 0.44960 1.03895 0.02447
 C489 C 0.46637 1.05548 0.03923
 C490 C 0.55584 0.95778 0.04514
 C491 C 0.45723 0.95921 0.04392
 C492 C 0.56497 1.05448 0.03137
 O493 O 0.52155 1.05190 -0.03086
 O494 O 0.49321 0.94370 -0.02032
 O495 O 0.45239 1.01553 -0.02434
 O496 O 0.56330 0.97819 -0.02452
 O497 O 0.54827 0.93892 -0.00324
 O498 O 0.46835 1.06040 -0.01248
 O499 O 0.56834 1.03353 -0.01955
 O500 O 0.44807 0.96416 -0.00841
 Co501 Co 0.50864 1.05375 0.00160
 Co502 Co 0.50947 0.95050 0.01102
 Co503 Co 0.45683 1.00165 0.00781
 Co504 Co 0.56225 1.00199 0.00411
 O505 O 0.50934 1.00202 0.00616
 C506 C 0.55052 1.04620 -0.03608
 C507 C 0.46375 0.94853 -0.02437
 C508 C 0.45431 1.04403 -0.02864
 C509 C 0.56099 0.94926 -0.02274
 O510 O 0.96970 0.56031 0.52828
 O511 O 1.04558 0.44072 0.51940
 O512 O 0.94524 0.46408 0.52196
 O513 O 1.07020 0.53750 0.52545
 O514 O 0.99038 0.44519 0.53473
 O515 O 1.02487 0.55265 0.54099
 O516 O 1.06445 0.48301 0.53545
 O517 O 0.95236 0.51548 0.54000
 C518 C 0.95586 0.54389 0.54464
 C519 C 1.06073 0.45412 0.53691
 C520 C 0.96064 0.44859 0.53810
 C521 C 1.05483 0.54997 0.54328
 O522 O 1.04439 0.56423 0.49290
 O523 O 0.96848 0.44426 0.48552
 O524 O 0.94425 0.54078 0.49285
 O525 O 1.06909 0.46795 0.48548
 O526 O 1.02328 0.45147 0.47156
 O527 O 0.98896 0.55910 0.47883
 O528 O 1.06228 0.52291 0.47510
 O529 O 0.95042 0.48954 0.47499
 Co530 Co 1.00696 0.55354 0.50983
 Co531 Co 1.00692 0.45093 0.50321
 Co532 Co 0.95385 0.50249 0.50739
 Co533 Co 1.06071 0.50283 0.50542
 O534 O 1.00715 0.50242 0.50645
 C535 C 1.05841 0.55187 0.47452
 C536 C 0.95324 0.46116 0.47006
 C537 C 0.95901 0.55633 0.47644
 C538 C 1.05298 0.45498 0.46824
 O539 O 1.01430 0.45496 0.04343
 O540 O 1.02348 0.52729 -0.05707
 O541 O 1.03414 0.43155 -0.03096
 O542 O 1.02931 0.55013 0.01850
 O543 O 1.04871 0.47575 -0.04804
 O544 O 1.04058 0.50652 0.03750
 O545 O 1.04470 0.54351 -0.02379
 O546 O 1.04074 0.43670 0.01312
 C547 C 1.03916 0.44124 0.03610
 C548 C 1.04676 0.54077 -0.04689
 C549 C 1.05422 0.44721 -0.04416
 C550 C 1.04715 0.53473 0.03356
 O551 O 0.98195 0.53220 0.03865
 O552 O 0.99146 0.44991 -0.05603
 O553 O 0.97190 0.43398 0.01912
 O554 O 0.97737 0.54743 -0.03779
 O555 O 0.96493 0.50200 -0.05333
 O556 O 0.95688 0.47942 0.03392
 O557 O 0.96273 0.54563 0.00387
 O558 O 0.96504 0.43527 -0.02472
 Co559 Co 0.99891 0.49315 0.03366
 Co560 Co 1.00672 0.48904 -0.04891
 Co561 Co 1.00301 0.43944 -0.00607
 Co562 Co 1.00364 0.54170 -0.00961
 O563 O 1.00307 0.49085 -0.00769
 C564 C 0.95928 0.54453 0.02684
 C565 C 0.96620 0.43787 -0.04783
 C566 C 0.95153 0.45056 0.03128
 C567 C 0.95817 0.53043 -0.05055
 O568 O 0.55613 0.95823 0.52600
 O569 O 0.55419 1.01715 0.46033
 O570 O 0.52486 0.92212 0.46650
 O571 O 0.51918 1.05313 0.51333
 O572 O 0.55691 0.96115 0.46200
 O573 O 0.55096 1.01836 0.53209
 O574 O 0.51786 1.05223 0.46658
 O575 O 0.52500 0.92008 0.51280
 C576 C 0.55142 0.92946 0.52273
 C577 C 0.54633 1.04528 0.45983
 C578 C 0.55249 0.93237 0.46041
 C579 C 0.54362 1.04639 0.52704
 O580 O 0.48902 1.01112 0.54482
 O581 O 0.49689 0.95719 0.43911
 O582 O 0.46219 0.94009 0.51275
 O583 O 0.45833 1.02444 0.46832
 O584 O 0.49331 1.01439 0.43907
 O585 O 0.49461 0.95245 0.54298
 O586 O 0.45857 1.03254 0.51529
 O587 O 0.46276 0.94604 0.46804
 Co588 Co 0.52143 0.98484 0.53204
 Co589 Co 0.52375 0.98725 0.45351
 Co590 Co 0.49511 0.93669 0.49003
 Co591 Co 0.49021 1.03529 0.49062
 O592 O 0.50745 0.98620 0.49177
 C593 C 0.46387 1.02655 0.53802
 C594 C 0.46866 0.94866 0.44529
 C595 C 0.46748 0.94185 0.53568
 C596 C 0.46491 1.02279 0.44555
 O597 O 1.05461 1.02105 0.47404
 O598 O 0.92094 1.02182 0.52524
 O599 O 0.95774 1.05232 0.47410
 O600 O 1.02205 1.05048 0.54181
 O601 O 0.91951 1.01939 0.47940
 O602 O 1.05878 1.02309 0.52083
 O603 O 0.96025 1.05350 0.53577
 O604 O 1.01513 1.05341 0.46846
 C605 C 1.04482 1.04805 0.46760
 C606 C 0.93038 1.04851 0.53317
 C607 C 0.92819 1.04668 0.47321
 C608 C 1.05103 1.04578 0.53509
 O609 O 1.04257 0.96375 0.52524
 O610 O 0.94877 0.96115 0.48166
 O611 O 1.01424 0.99425 0.44881
 O612 O 0.95583 0.99514 0.55463
 O613 O 0.94706 0.96179 0.52569
 O614 O 1.03169 0.96155 0.47722
 O615 O 1.01639 0.99062 0.55453
 O616 O 0.95531 0.99362 0.45159
 Co617 Co 1.04113 0.99355 0.49933
 Co618 Co 0.93858 0.99252 0.50295
 Co619 Co 0.98567 1.02202 0.46415
 Co620 Co 0.98832 1.02109 0.54235
 O621 O 0.98895 1.00711 0.50244
 C622 C 1.03493 0.96805 0.54798
 C623 C 0.94927 0.96605 0.45878
 C624 C 1.02557 0.96748 0.45466
 C625 C 0.94833 0.96764 0.54837
 O626 O 0.54753 0.53690 -0.00897
 O627 O 0.43399 0.53888 0.02121
 O628 O 0.47762 0.54745 -0.03635
 O629 O 0.50186 0.53358 0.05044
 O630 O 0.43037 0.53436 -0.02177
 O631 O 0.54827 0.52100 0.03338
 O632 O 0.44618 0.51130 0.05226
 O633 O 0.53019 0.51991 -0.04332
 C634 C 0.54480 0.54094 -0.03186
 C635 C 0.43533 0.53660 0.04428
 C636 C 0.44846 0.55439 -0.03242
 C637 C 0.53182 0.53852 0.04803
 O638 O 0.54215 0.45718 0.01791
 O639 O 0.43120 0.46720 -0.01715
 O640 O 0.50066 0.46554 -0.04336
 O641 O 0.47002 0.45471 0.04206
 O642 O 0.42535 0.47253 0.02592
 O643 O 0.54731 0.47259 -0.02461
 O644 O 0.52468 0.47615 0.05161
 O645 O 0.44816 0.49379 -0.04727
 Co646 Co 0.54106 0.49721 0.00429
 Co647 Co 0.43529 0.50294 0.00214
 Co648 Co 0.48894 0.50611 -0.03798
 Co649 Co 0.48577 0.49453 0.04440
 O650 O 0.48781 0.50023 0.00322
 C651 C 0.53795 0.45382 0.04076
 C652 C 0.43444 0.46948 -0.04012
 C653 C 0.52955 0.45703 -0.03983
 C654 C 0.44064 0.45061 0.03682
 C655 C 0.31447 1.14774 0.13460
 C656 C 0.34744 1.13778 0.13758
 C657 C 0.36391 1.14596 0.16024
 C658 C 0.34727 1.16190 0.17953
 C659 C 0.31465 1.17139 0.17624
 C660 C 0.29852 1.16451 0.15361
 C661 C 0.39704 1.13872 0.16337
 C662 C 0.41462 1.12432 0.14412
 C663 C 0.39930 1.11552 0.12127
 C664 C 0.36478 1.12079 0.11857
 C665 C 0.34857 1.10838 0.09722
 C666 C 0.36565 1.09254 0.07856
 C667 C 0.39958 1.08920 0.08008
 C668 C 0.41713 1.10102 0.10117
 C669 C 0.45182 1.09833 0.10093
 C670 C 0.46805 1.08386 0.08076
 C671 C 0.45020 1.07140 0.06051
 C672 C 0.41601 1.07414 0.06037
 H673 H 0.30068 1.14397 0.11749
 H674 H 0.36011 1.16797 0.19683
 H675 H 0.27343 1.17210 0.15059
 H676 H 0.40971 1.14481 0.18072
 H677 H 0.44009 1.11953 0.14800
 H678 H 0.32237 1.10964 0.09474
 H679 H 0.35216 1.08319 0.06256
 H680 H 0.46712 1.10783 0.11571
 H681 H 0.49457 1.08221 0.08108
 H682 H 0.40202 1.06500 0.04453
 C683 C 0.85647 0.68689 0.64110
 C684 C 0.86607 0.65485 0.64367
 C685 C 0.85441 0.63785 0.66491
 C686 C 0.83536 0.65307 0.68338
 C687 C 0.82626 0.68484 0.68047
 C688 C 0.83676 0.70144 0.65913
 C689 C 0.86138 0.60568 0.66740
 C690 C 0.87874 0.58964 0.64881
 C691 C 0.89088 0.60552 0.62732
 C692 C 0.88598 0.63898 0.62549
 C693 C 0.90149 0.65559 0.60574
 C694 C 0.91953 0.63991 0.58750
 C695 C 0.92229 0.60706 0.58786
 C696 C 0.90798 0.58922 0.60764
 C697 C 0.91063 0.55578 0.60638
 C698 C 0.92652 0.54098 0.58619
 C699 C 0.94060 0.55896 0.56685
 C700 C 0.93885 0.59200 0.56812
 H701 H 0.86286 0.70112 0.62497
 H702 H 0.82678 0.63992 0.69966
 H703 H 0.82985 0.72597 0.65640
 H704 H 0.85270 0.59256 0.68366
 H705 H 0.88293 0.56481 0.65210
 H706 H 0.90077 0.68099 0.60415
 H707 H 0.93090 0.65366 0.57262
 H708 H 0.89972 0.54037 0.62022
 H709 H 0.92746 0.51536 0.58556
 H710 H 0.94951 0.60617 0.55317
 C711 C 0.69753 0.83785 0.12824
 C712 C 0.66908 0.85547 0.13436
 C713 C 0.65474 0.85061 0.15838
 C714 C 0.66975 0.83063 0.17601
 C715 C 0.69849 0.81424 0.16993
 C716 C 0.71186 0.81747 0.14580
 C717 C 0.62554 0.86572 0.16476
 C718 C 0.60953 0.88493 0.14746
 C719 C 0.62281 0.89058 0.12331
 C720 C 0.65402 0.87715 0.11727
 C721 C 0.66945 0.88632 0.09462
 C722 C 0.65405 0.90643 0.07767
 C723 C 0.62235 0.91730 0.08224
 C724 C 0.60607 0.90939 0.10501
 C725 C 0.57318 0.91951 0.10798
 C726 C 0.55714 0.93615 0.08885
 C727 C 0.57356 0.94383 0.06655
 C728 C 0.60642 0.93512 0.06366
 H729 H 0.70891 0.83881 0.10992
 H730 H 0.65886 0.82767 0.19453
 H731 H 0.73391 0.80473 0.14063
 H732 H 0.61465 0.86228 0.18321
 H733 H 0.58715 0.89582 0.15386
 H734 H 0.69391 0.87890 0.08972
 H735 H 0.66674 0.91277 0.06043
 H736 H 0.55863 0.91359 0.12426
 H737 H 0.53158 0.94248 0.09129
 H738 H 0.61906 0.94055 0.04619
 C739 C 1.17411 0.30784 0.62329
 C740 C 1.15891 0.33744 0.62799
 C741 C 1.16331 0.35106 0.65223
 C742 C 1.18062 0.33483 0.67113
 C743 C 1.19473 0.30522 0.66637
 C744 C 1.19180 0.29214 0.64218
 C745 C 1.15029 0.38077 0.65763
 C746 C 1.13334 0.39773 0.63938
 C747 C 1.12804 0.38528 0.61498
 C748 C 1.13985 0.35411 0.60952
 C749 C 1.13157 0.34043 0.58603
 C750 C 1.11313 0.35686 0.56824
 C751 C 1.10301 0.38787 0.57275
 C752 C 1.11078 0.40277 0.59600
 C753 C 1.10156 0.43486 0.59905
 C754 C 1.08513 0.45115 0.57994
 C755 C 1.07689 0.43607 0.55729
 C756 C 1.08558 0.40428 0.55390
 H757 H 1.17317 0.29636 0.60515
 H758 H 1.18323 0.34544 0.68968
 H759 H 1.20265 0.26935 0.63796
 H760 H 1.15341 0.39117 0.67619
 H761 H 1.12383 0.42030 0.64530
 H762 H 1.13830 0.31659 0.58105
 H763 H 1.10717 0.34528 0.55055
 H764 H 1.10756 0.44844 0.61563
 H765 H 1.07890 0.47580 0.58288
 H766 H 1.07975 0.39262 0.53622
 C767 C 0.68393 1.14395 -0.14207
 C768 C 0.65232 1.13032 -0.14371
 C769 C 0.63260 1.13810 -0.16493
 C770 C 0.64486 1.15774 -0.18411
 C771 C 0.67606 1.17128 -0.18191
 C772 C 0.69537 1.16425 -0.16078
 C773 C 0.60051 1.12688 -0.16655
 C774 C 0.58687 1.10952 -0.14693
 C775 C 0.60533 1.10178 -0.12519
 C776 C 0.63920 1.11044 -0.12444
 C777 C 0.65882 1.09896 -0.10446
 C778 C 0.64531 1.08180 -0.08476
 C779 C 0.61169 1.07606 -0.08389
 C780 C 0.59112 1.08583 -0.10408
 C781 C 0.55698 1.08055 -0.10170
 C782 C 0.54398 1.06695 -0.07989
 C783 C 0.56452 1.05770 -0.06000
 C784 C 0.59843 1.06150 -0.06244
 H785 H 0.69994 1.14046 -0.12610
 H786 H 0.62962 1.16352 -0.20028
 H787 H 0.71956 1.17454 -0.15867
 H788 H 0.58541 1.13239 -0.18285
 H789 H 0.56185 1.10200 -0.14952
 H790 H 0.68498 1.10246 -0.10371
 H791 H 0.66124 1.07381 -0.06963
 H792 H 0.53951 1.08796 -0.11579
 H793 H 0.51762 1.06422 -0.07841
 H794 H 0.61448 1.05458 -0.04704
 C795 C 1.15295 0.62507 0.33317
 C796 C 1.14518 0.63618 0.35766
 C797 C 1.15172 0.66845 0.36313
 C798 C 1.16654 0.68813 0.34510
 C799 C 1.17408 0.67667 0.32102
 C800 C 1.16694 0.64508 0.31520
 C801 C 1.14317 0.68107 0.38649
 C802 C 1.12747 0.66266 0.40445
 C803 C 1.12030 0.63044 0.39997
 C804 C 1.13065 0.61661 0.37667
 C805 C 1.12669 0.58365 0.37338
 C806 C 1.11252 0.56493 0.39197
 C807 C 1.10082 0.57833 0.41425
 C808 C 1.10383 0.61140 0.41831
 C809 C 1.08976 0.62415 0.44045
 C810 C 1.07475 0.60471 0.45822
 C811 C 1.07323 0.57190 0.45473
 C812 C 1.08609 0.55883 0.43255
 H813 H 1.14776 0.60128 0.32706
 H814 H 1.17143 0.71272 0.34964
 H815 H 1.17232 0.63568 0.29664
 H816 H 1.14833 0.70564 0.39086
 H817 H 1.12209 0.67426 0.42206
 H818 H 1.13522 0.57134 0.35685
 H819 H 1.11041 0.53968 0.38875
 H820 H 1.08933 0.64914 0.44444
 H821 H 1.06454 0.61555 0.47499
 H822 H 1.08447 0.53351 0.42947
 C823 C 0.31133 0.85844 -0.12172
 C824 C 0.34342 0.87071 -0.12478
 C825 C 0.35912 0.86596 -0.14833
 C826 C 0.34256 0.85091 -0.16820
 C827 C 0.31093 0.83883 -0.16474
 C828 C 0.29558 0.84249 -0.14136
 C829 C 0.39149 0.87563 -0.15178
 C830 C 0.40919 0.88894 -0.13205
 C831 C 0.39470 0.89415 -0.10824
 C832 C 0.36076 0.88659 -0.10505
 C833 C 0.34512 0.89562 -0.08244
 C834 C 0.36233 0.91036 -0.06316
 C835 C 0.39591 0.91578 -0.06529
 C836 C 0.41283 0.90725 -0.08762
 C837 C 0.44730 0.91157 -0.08810
 C838 C 0.46391 0.92453 -0.06745
 C839 C 0.44670 0.93394 -0.04593
 C840 C 0.41271 0.92956 -0.04501
 H841 H 0.29823 0.85967 -0.10411
 H842 H 0.35487 0.84739 -0.18612
 H843 H 0.27129 0.83289 -0.13823
 H844 H 0.40354 0.87224 -0.16980
 H845 H 0.43404 0.89577 -0.13626
 H846 H 0.31922 0.89247 -0.07937
 H847 H 0.34926 0.91712 -0.04620
 H848 H 0.46223 0.90442 -0.10386
 H849 H 0.49028 0.92751 -0.06843
 H850 H 0.39931 0.93635 -0.02819
 C851 C 0.82406 0.33543 0.37805
 C852 C 0.84198 0.36363 0.37419
 C853 C 0.83819 0.37932 0.35069
 C854 C 0.81956 0.36549 0.33116
 C855 C 0.80350 0.33649 0.33490
 C856 C 0.80524 0.32222 0.35878
 C857 C 0.85342 0.40847 0.34674
 C858 C 0.87215 0.42254 0.36566
 C859 C 0.87748 0.40734 0.38907
 C860 C 0.86332 0.37676 0.39291
 C861 C 0.87185 0.35977 0.41492
 C862 C 0.89255 0.37259 0.43302
 C863 C 0.90483 0.40316 0.43037
 C864 C 0.89708 0.42129 0.40860
 C865 C 0.90871 0.45287 0.40764
 C866 C 0.92720 0.46561 0.42745
 C867 C 0.93533 0.44721 0.44853
 C868 C 0.92442 0.41587 0.44969
 H869 H 0.82380 0.32309 0.39585
 H870 H 0.81798 0.37709 0.31294
 H871 H 0.79284 0.30004 0.36247
 H872 H 0.85067 0.42066 0.32886
 H873 H 0.88320 0.44494 0.36100
 H874 H 0.86377 0.33589 0.41833
 H875 H 0.89860 0.35854 0.44952
 H876 H 0.90299 0.46866 0.39228
 H877 H 0.93508 0.49006 0.42632
 H878 H 0.93009 0.40169 0.46621
 C879 C 1.17273 0.31715 0.12826
 C880 C 1.15300 0.34433 0.13155
 C881 C 1.14964 0.35626 0.15650
 C882 C 1.16489 0.34102 0.17714
 C883 C 1.18409 0.31390 0.17347
 C884 C 1.18786 0.30240 0.14875
 C885 C 1.13102 0.38336 0.16075
 C886 C 1.11541 0.39884 0.14096
 C887 C 1.11747 0.38770 0.11582
 C888 C 1.13643 0.35988 0.11104
 C889 C 1.13768 0.34825 0.08600
 C890 C 1.12049 0.36275 0.06644
 C891 C 1.10160 0.38968 0.07078
 C892 C 1.10043 0.40295 0.09543
 C893 C 1.08168 0.43074 0.09872
 C894 C 1.06324 0.44330 0.07900
 C895 C 1.06303 0.42930 0.05502
 C896 C 1.08313 0.40296 0.05076
 H897 H 1.17722 0.30662 0.11010
 H898 H 1.16193 0.35041 0.19604
 H899 H 1.20259 0.28160 0.14503
 H900 H 1.12835 0.39271 0.17970
 H901 H 1.10133 0.41933 0.14622
 H902 H 1.15127 0.32742 0.08084
 H903 H 1.12173 0.35251 0.04771
 H904 H 1.08022 0.44327 0.11637
 H905 H 1.04842 0.46399 0.08282
 H906 H 1.08326 0.39198 0.03227
 C907 C 0.62432 0.82246 0.65287
 C908 C 0.63865 0.83313 0.63014
 C909 C 0.67338 0.83433 0.62881
 C910 C 0.69272 0.82276 0.64890
 C911 C 0.67791 0.81179 0.67110
 C912 C 0.64368 0.81229 0.67299
 C913 C 0.68845 0.84737 0.60758
 C914 C 0.66980 0.86049 0.58813
 C915 C 0.63517 0.85966 0.58865
 C916 C 0.61956 0.84370 0.60913
 C917 C 0.58541 0.83846 0.60782
 C918 C 0.56670 0.85066 0.58820
 C919 C 0.58102 0.86944 0.56963
 C920 C 0.61547 0.87433 0.56951
 C921 C 0.62842 0.89532 0.55121
 C922 C 0.60771 0.91190 0.53477
 C923 C 0.57378 0.90706 0.53529
 C924 C 0.56075 0.88482 0.55203
 H925 H 0.59819 0.82260 0.65597
 H926 H 0.71925 0.82288 0.64749
 H927 H 0.63168 0.80404 0.68999
 H928 H 0.71496 0.84824 0.60628
 H929 H 0.68321 0.87042 0.57251
 H930 H 0.57252 0.82435 0.62155
 H931 H 0.54048 0.84640 0.58816
 H932 H 0.65415 0.90106 0.55030
 H933 H 0.61810 0.92948 0.52223
 H934 H 0.53436 0.88172 0.55296
 C935 C 1.18406 0.67610 -0.12403
 C936 C 1.16414 0.64971 -0.12979
 C937 C 1.16134 0.64092 -0.15555
 C938 C 1.17611 0.65913 -0.17468
 C939 C 1.19501 0.68607 -0.16883
 C940 C 1.19923 0.69368 -0.14306
 C941 C 1.14353 0.61404 -0.16221
 C942 C 1.12831 0.59567 -0.14396
 C943 C 1.12951 0.60386 -0.11810
 C944 C 1.14693 0.63182 -0.11094
 C945 C 1.14546 0.64154 -0.08541
 C946 C 1.12712 0.62492 -0.06762
 C947 C 1.11034 0.59736 -0.07424
 C948 C 1.11249 0.58580 -0.09937
 C949 C 1.09699 0.55673 -0.10485
 C950 C 1.07746 0.54171 -0.08703
 C951 C 1.07292 0.55453 -0.06290
 C952 C 1.09054 0.58178 -0.05618
 H953 H 1.18882 0.68361 -0.10494
 H954 H 1.17281 0.65205 -0.19421
 H955 H 1.21400 0.71374 -0.13729
 H956 H 1.14125 0.60710 -0.18184
 H957 H 1.11456 0.57575 -0.15096
 H958 H 1.15717 0.66281 -0.07873
 H959 H 1.12587 0.63393 -0.04849
 H960 H 1.09921 0.54499 -0.12281
 H961 H 1.06496 0.52018 -0.09253
 H962 H 1.08755 0.59170 -0.03746
 C963 C 0.67923 1.12654 0.34428
 C964 C 0.66154 1.13856 0.36517
 C965 C 0.65812 1.17186 0.36724
 C966 C 0.67342 1.19207 0.34973
 C967 C 0.69062 1.17960 0.32912
 C968 C 0.69317 1.14678 0.32650
 C969 C 0.63889 1.18472 0.38645
 C970 C 0.62175 1.16525 0.40301
 C971 C 0.62429 1.13197 0.40164
 C972 C 0.64616 1.11860 0.38344
 C973 C 0.65222 1.08575 0.38422
 C974 C 0.63582 1.06626 0.40103
 C975 C 0.61215 1.07852 0.41726
 C976 C 0.60584 1.11150 0.41786
 C977 C 0.58041 1.12230 0.43394
 C978 C 0.56168 1.10103 0.44821
 C979 C 0.56814 1.06851 0.44735
 C980 C 0.59404 1.05764 0.43232
 H981 H 0.68168 1.10158 0.34059
 H982 H 0.67090 1.21751 0.35157
 H983 H 0.70620 1.13670 0.31061
 H984 H 0.63634 1.21015 0.38829
 H985 H 0.60720 1.17700 0.41714
 H986 H 0.67013 1.07441 0.37235
 H987 H 0.64112 1.04112 0.40082
 H988 H 0.57341 1.14685 0.43504
 H989 H 0.54166 1.11000 0.45955
 H990 H 0.59910 1.03247 0.43125
 C991 C 0.84665 0.61033 0.15886
 C992 C 0.84746 0.61807 0.13288
 C993 C 0.83301 0.64708 0.12525
 C994 C 0.81840 0.66726 0.14315
 C995 C 0.81885 0.65954 0.16892
 C996 C 0.83274 0.63074 0.17643
 C997 C 0.83413 0.65623 0.09995
 C998 C 0.85082 0.63809 0.08221
 C999 C 0.86664 0.60961 0.08903
 C1000 C 0.86348 0.59871 0.11453
 C1001 C 0.87706 0.56908 0.12101
 C1002 C 0.89601 0.55222 0.10409
 C1003 C 0.90183 0.56389 0.07996
 C1004 C 0.88638 0.59205 0.07156
 C1005 C 0.89267 0.60195 0.04639
 C1006 C 0.91500 0.58558 0.03107
 C1007 C 0.93167 0.55914 0.04045
 C1008 C 0.92409 0.54792 0.06454
 H1009 H 0.85753 0.58920 0.16653
 H1010 H 0.80779 0.68954 0.13710
 H1011 H 0.83325 0.62395 0.19615
 H1012 H 0.82283 0.67819 0.09391
 H1013 H 0.85115 0.64725 0.06324
 H1014 H 0.87381 0.55821 0.13921
 H1015 H 0.90697 0.53013 0.11024
 H1016 H 0.88163 0.62275 0.03826
 H1017 H 0.92040 0.59452 0.01237
 H1018 H 0.93666 0.52721 0.07177
 C1019 C 0.38849 1.13916 0.66836
 C1020 C 0.37671 1.12807 0.64483
 C1021 C 0.34518 1.13850 0.63693
 C1022 C 0.32635 1.15880 0.65227
 C1023 C 0.33819 1.16861 0.67584
 C1024 C 0.36948 1.15881 0.68351
 C1025 C 0.33239 1.12826 0.61393
 C1026 C 0.35008 1.10793 0.59848
 C1027 C 0.38159 1.09688 0.60538
 C1028 C 0.39509 1.10705 0.62900
 C1029 C 0.42653 1.09591 0.63598
 C1030 C 0.44459 1.07629 0.62027
 C1031 C 0.43219 1.06675 0.59698
 C1032 C 0.40034 1.07646 0.58929
 C1033 C 0.38897 1.06582 0.56548
 C1034 C 0.40912 1.04817 0.54957
 C1035 C 0.44104 1.03993 0.55685
 C1036 C 0.45204 1.04839 0.58095
 H1037 H 0.41216 1.13296 0.67588
 H1038 H 0.30204 1.16607 0.64626
 H1039 H 0.37937 1.16625 0.70156
 H1040 H 0.30832 1.13602 0.60778
 H1041 H 0.33821 1.10141 0.58108
 H1042 H 0.43827 1.10208 0.65351
 H1043 H 0.46881 1.06884 0.62632
 H1044 H 0.36498 1.07133 0.55820
 H1045 H 0.39993 1.04166 0.53107
 H1046 H 0.47681 1.04229 0.58668
 C1047 C 0.81497 0.32279 -0.13059
 C1048 C 0.83528 0.34939 -0.13495
 C1049 C 0.83699 0.36110 -0.16004
 C1050 C 0.81971 0.34632 -0.17975
 C1051 C 0.80034 0.31959 -0.17519
 C1052 C 0.79787 0.30829 -0.15035
 C1053 C 0.85618 0.38741 -0.16552
 C1054 C 0.87488 0.40179 -0.14693
 C1055 C 0.87542 0.39024 -0.12188
 C1056 C 0.85444 0.36432 -0.11554
 C1057 C 0.85369 0.35407 -0.09012
 C1058 C 0.87371 0.36772 -0.07177
 C1059 C 0.89561 0.39184 -0.07794
 C1060 C 0.89662 0.40352 -0.10309
 C1061 C 0.91975 0.42734 -0.10866
 C1062 C 0.94130 0.43837 -0.09038
 C1063 C 0.94065 0.42671 -0.06565
 C1064 C 0.91720 0.40382 -0.05931
 H1065 H 0.81207 0.31224 -0.11223
 H1066 H 0.82167 0.35556 -0.19878
 H1067 H 0.78298 0.28775 -0.14610
 H1068 H 0.85708 0.39685 -0.18454
 H1069 H 0.88867 0.42210 -0.15298
 H1070 H 0.83789 0.33533 -0.08372
 H1071 H 0.87251 0.35878 -0.05261
 H1072 H 0.92279 0.43743 -0.12715
 H1073 H 0.95898 0.45610 -0.09592
 H1074 H 0.91662 0.39447 -0.04025
 C1075 C 0.30661 0.84246 0.36845
 C1076 C 0.33085 0.86507 0.36183
 C1077 C 0.33543 0.87140 0.33581
 C1078 C 0.31668 0.85563 0.31748
 C1079 C 0.29347 0.83262 0.32426
 C1080 C 0.28841 0.82651 0.34996
 C1081 C 0.35920 0.89298 0.32804
 C1082 C 0.37969 0.90759 0.34542
 C1083 C 0.37701 0.90145 0.37152
 C1084 C 0.35130 0.88087 0.37996
 C1085 C 0.34708 0.87666 0.40618
 C1086 C 0.36808 0.89075 0.42353
 C1087 C 0.39442 0.90924 0.41555
 C1088 C 0.39931 0.91503 0.38947
 C1089 C 0.42698 0.93339 0.38249
 C1090 C 0.44899 0.94479 0.40061
 C1091 C 0.44411 0.93864 0.42626
 C1092 C 0.41636 0.92137 0.43361
 H1093 H 0.30167 0.83584 0.38770
 H1094 H 0.32103 0.86071 0.29770
 H1095 H 0.27070 0.80891 0.35585
 H1096 H 0.36248 0.89821 0.30817
 H1097 H 0.39737 0.92381 0.33770
 H1098 H 0.32756 0.86264 0.41402
 H1099 H 0.36402 0.88655 0.44347
 H1100 H 0.43298 0.93863 0.36316
 H1101 H 0.47017 0.95816 0.39445
 H1102 H 0.41238 0.91635 0.45345
 C1103 C 1.19500 1.13980 0.36810
 C1104 C 1.16238 1.14467 0.37640
 C1105 C 1.14447 1.16998 0.36533
 C1106 C 1.15798 1.18792 0.34558
 C1107 C 1.18980 1.18195 0.33723
 C1108 C 1.20842 1.15833 0.34888
 C1109 C 1.11303 1.17709 0.37381
 C1110 C 1.09875 1.15964 0.39305
 C1111 C 1.11503 1.13357 0.40413
 C1112 C 1.14691 1.12529 0.39511
 C1113 C 1.16154 1.09719 0.40425
 C1114 C 1.14524 1.07744 0.42111
 C1115 C 1.11433 1.08547 0.43035
 C1116 C 1.09959 1.11445 0.42293
 C1117 C 1.06960 1.12289 0.43436
 C1118 C 1.05326 1.10190 0.45016
 C1119 C 1.06618 1.07183 0.45534
 C1120 C 1.09750 1.06425 0.44629
 H1121 H 1.21090 1.12218 0.37628
 H1122 H 1.14382 1.20663 0.33673
 H1123 H 1.23331 1.15380 0.34273
 H1124 H 1.09923 1.19637 0.36545
 H1125 H 1.07410 1.16633 0.39800
 H1126 H 1.18505 1.08894 0.39776
 H1127 H 1.15688 1.05550 0.42682
 H1128 H 1.05799 1.14550 0.43141
 H1129 H 1.02963 1.10893 0.45761
 H1130 H 1.10807 1.04134 0.45063
 C1131 C 0.61375 0.64566 -0.16643
 C1132 C 0.62114 0.64588 -0.14025
 C1133 C 0.64993 0.66185 -0.13238
 C1134 C 0.66960 0.67779 -0.15000
 C1135 C 0.66175 0.67755 -0.17584
 C1136 C 0.63378 0.66116 -0.18382
 C1137 C 0.65922 0.66154 -0.10701
 C1138 C 0.64117 0.64475 -0.08926
 C1139 C 0.61248 0.62816 -0.09612
 C1140 C 0.60151 0.63003 -0.12182
 C1141 C 0.57124 0.61603 -0.12827
 C1142 C 0.55356 0.59860 -0.11087
 C1143 C 0.56535 0.59424 -0.08641
 C1144 C 0.59453 0.60937 -0.07833
 C1145 C 0.60495 0.60397 -0.05305
 C1146 C 0.58796 0.58303 -0.03720
 C1147 C 0.56021 0.56705 -0.04605
 C1148 C 0.54848 0.57376 -0.07032
 H1149 H 0.59312 0.63309 -0.17423
 H1150 H 0.69144 0.69003 -0.14355
 H1151 H 0.62718 0.66039 -0.20363
 H1152 H 0.68112 0.67390 -0.10085
 H1153 H 0.65028 0.64543 -0.07016
 H1154 H 0.56031 0.61824 -0.14672
 H1155 H 0.53076 0.58770 -0.11685
 H1156 H 0.62677 0.61454 -0.04525
 H1157 H 0.59741 0.57825 -0.01845
 H1158 H 0.52669 0.56187 -0.07720
 C1159 C 0.85582 1.19176 0.63911
 C1160 C 0.84109 1.17242 0.62042
 C1161 C 0.80671 1.16755 0.62167
 C1162 C 0.78793 1.18264 0.64042
 C1163 C 0.80325 1.20104 0.65899
 C1164 C 0.83716 1.20541 0.65822
 C1165 C 0.79153 1.14676 0.60481
 C1166 C 0.81000 1.12919 0.58773
 C1167 C 0.84437 1.13275 0.58618
 C1168 C 0.85967 1.15643 0.60149
 C1169 C 0.89312 1.16323 0.59753
 C1170 C 0.91185 1.14540 0.58103
 C1171 C 0.89819 1.11978 0.56822
 C1172 C 0.86420 1.11322 0.57019
 C1173 C 0.85200 1.08636 0.55713
 C1174 C 0.87313 1.06610 0.54395
 C1175 C 0.90687 1.07222 0.54304
 C1176 C 0.91886 1.09991 0.55432
 H1177 H 0.88192 1.19550 0.64026
 H1178 H 0.76168 1.17874 0.64139
 H1179 H 0.84933 1.21930 0.67267
 H1180 H 0.76522 1.14315 0.60545
 H1181 H 0.79658 1.11317 0.57571
 H1182 H 0.90551 1.18254 0.60680
 H1183 H 0.93766 1.15103 0.57903
 H1184 H 0.82659 1.07943 0.55786
 H1185 H 0.86319 1.04493 0.53532
 H1186 H 0.94489 1.10512 0.55363
 C1187 C 0.31694 0.68684 0.12108
 C1188 C 0.34399 0.66699 0.12669
 C1189 C 0.35434 0.66520 0.15224
 C1190 C 0.33780 0.68198 0.17118
 C1191 C 0.31031 0.70053 0.16546
 C1192 C 0.30045 0.70322 0.14016
 C1193 C 0.38080 0.64616 0.15899
 C1194 C 0.39620 0.62730 0.14123
 C1195 C 0.38571 0.62671 0.11581
 C1196 C 0.36038 0.64808 0.10810
 C1197 C 0.35211 0.64946 0.08220
 C1198 C 0.36681 0.62951 0.06465
 C1199 C 0.38977 0.60693 0.07220
 C1200 C 0.39955 0.60521 0.09791
 C1201 C 0.42181 0.58109 0.10489
 C1202 C 0.43340 0.55953 0.08724
 C1203 C 0.42376 0.56124 0.06191
 C1204 C 0.40239 0.58542 0.05433
 H1205 H 0.30725 0.68957 0.10228
 H1206 H 0.34594 0.67981 0.19061
 H1207 H 0.27937 0.71747 0.13506
 H1208 H 0.38932 0.64530 0.17838
 H1209 H 0.41652 0.61349 0.14813
 H1210 H 0.33432 0.66586 0.07479
 H1211 H 0.35944 0.63124 0.04502
 H1212 H 0.42992 0.57733 0.12401
 H1213 H 0.44989 0.54110 0.09363
 H1214 H 0.39461 0.58674 0.03477
 C1215 C 1.16683 0.83502 0.63315
 C1216 C 1.13981 0.85501 0.63831
 C1217 C 1.13045 0.85855 0.66391
 C1218 C 1.14783 0.84305 0.68333
 C1219 C 1.17517 0.82371 0.67802
 C1220 C 1.18401 0.81983 0.65250
 C1221 C 1.10393 0.87787 0.67012
 C1222 C 1.08675 0.89429 0.65161
 C1223 C 1.09536 0.89214 0.62585
 C1224 C 1.12210 0.87185 0.61905
 C1225 C 1.13047 0.86937 0.59325
 C1226 C 1.11408 0.88664 0.57484
 C1227 C 1.08860 0.90710 0.58118
 C1228 C 1.07849 0.90993 0.60669
 C1229 C 1.05225 0.93094 0.61189
 C1230 C 1.03772 0.94899 0.59278
 C1231 C 1.04848 0.94672 0.56774
 C1232 C 1.07358 0.92519 0.56206
 H1233 H 1.17570 0.83072 0.61435
 H1234 H 1.14006 0.84654 0.70271
 H1235 H 1.20464 0.80512 0.64717
 H1236 H 1.09650 0.88059 0.68964
 H1237 H 1.06684 0.90876 0.65826
 H1238 H 1.14990 0.85438 0.58652
 H1239 H 1.12175 0.88418 0.55535
 H1240 H 1.04256 0.93441 0.63057
 H1241 H 1.01817 0.96518 0.59777
 H1242 H 1.08219 0.92312 0.54278
 C1243 C 0.67683 0.32773 0.12392
 C1244 C 0.64399 0.33835 0.12611
 C1245 C 0.62811 0.33347 0.14961
 C1246 C 0.64485 0.31968 0.17006
 C1247 C 0.67761 0.31022 0.16777
 C1248 C 0.69319 0.31388 0.14437
 C1249 C 0.59564 0.34273 0.15282
 C1250 C 0.57884 0.35821 0.13370
 C1251 C 0.59402 0.36548 0.11045
 C1252 C 0.62670 0.35436 0.10619
 C1253 C 0.64115 0.36031 0.08242
 C1254 C 0.62510 0.37811 0.06402
 C1255 C 0.59414 0.39095 0.06852
 C1256 C 0.57791 0.38431 0.09164
 C1257 C 0.54684 0.39827 0.09555
 C1258 C 0.53368 0.41939 0.07817
 C1259 C 0.55019 0.42683 0.05583
 C1260 C 0.57994 0.41163 0.05058
 H1261 H 0.69083 0.33022 0.10683
 H1262 H 0.63233 0.31658 0.18793
 H1263 H 0.71850 0.30671 0.14197
 H1264 H 0.58313 0.33841 0.17053
 H1265 H 0.55387 0.36439 0.13797
 H1266 H 0.66521 0.35188 0.07748
 H1267 H 0.63755 0.38268 0.04633
 H1268 H 0.53256 0.39473 0.11237
 H1269 H 0.51082 0.43100 0.08279
 H1270 H 0.59308 0.41757 0.03345
 C1271 C 0.88774 0.85754 0.32144
 C1272 C 0.88525 0.85500 0.34796
 C1273 C 0.86624 0.82974 0.35784
 C1274 C 0.84863 0.80951 0.34167
 C1275 C 0.85004 0.81354 0.31545
 C1276 C 0.87043 0.83724 0.30560
 C1277 C 0.86443 0.82514 0.38383
 C1278 C 0.88063 0.84530 0.40035
 C1279 C 0.89878 0.87154 0.39151
 C1280 C 0.90060 0.87682 0.36489
 C1281 C 0.91649 0.90445 0.35614
 C1282 C 0.92952 0.92650 0.37276
 C1283 C 0.92812 0.92162 0.39872
 C1284 C 0.91389 0.89350 0.40846
 C1285 C 0.91505 0.88877 0.43486
 C1286 C 0.92751 0.91198 0.45086
 C1287 C 0.93930 0.94068 0.44122
 C1288 C 0.94027 0.94506 0.41507
 H1289 H 0.90293 0.87487 0.31223
 H1290 H 0.83348 0.79089 0.34954
 H1291 H 0.87263 0.84071 0.28542
 H1292 H 0.85009 0.80582 0.39153
 H1293 H 0.87728 0.84032 0.42011
 H1294 H 0.91812 0.91051 0.33644
 H1295 H 0.94061 0.94779 0.36518
 H1296 H 0.90663 0.86740 0.44381
 H1297 H 0.92719 0.90762 0.47101
 H1298 H 0.94997 0.96694 0.40744
 C1299 C 0.32142 0.32068 -0.12443
 C1300 C 0.34839 0.34117 -0.12846
 C1301 C 0.36093 0.34332 -0.15337
 C1302 C 0.34679 0.32603 -0.17317
 C1303 C 0.31973 0.30639 -0.16897
 C1304 C 0.30744 0.30363 -0.14436
 C1305 C 0.38744 0.36294 -0.15861
 C1306 C 0.40096 0.38183 -0.13998
 C1307 C 0.38838 0.38193 -0.11516
 C1308 C 0.36282 0.36014 -0.10893
 C1309 C 0.35259 0.35825 -0.08349
 C1310 C 0.36589 0.37788 -0.06500
 C1311 C 0.38924 0.40072 -0.07115
 C1312 C 0.40058 0.40319 -0.09640
 C1313 C 0.42285 0.42771 -0.10214
 C1314 C 0.43346 0.44860 -0.08367
 C1315 C 0.42277 0.44591 -0.05867
 C1316 C 0.40084 0.42165 -0.05237
 H1317 H 0.31006 0.31778 -0.10624
 H1318 H 0.35679 0.32824 -0.19204
 H1319 H 0.28653 0.28860 -0.14048
 H1320 H 0.39763 0.36407 -0.17748
 H1321 H 0.42167 0.39589 -0.14568
 H1322 H 0.33442 0.34157 -0.07717
 H1323 H 0.35721 0.37563 -0.04575
 H1324 H 0.43179 0.43226 -0.12089
 H1325 H 0.45025 0.46716 -0.08919
 H1326 H 0.39213 0.41962 -0.03312
 C1327 C 1.15158 0.29836 -0.13735
 C1328 C 1.14680 0.33155 -0.13756
 C1329 C 1.15833 0.34864 -0.15885
 C1330 C 1.17292 0.33277 -0.17928
 C1331 C 1.17783 0.30005 -0.17843
 C1332 C 1.16717 0.28306 -0.15733
 C1333 C 1.15593 0.38152 -0.15942
 C1334 C 1.14282 0.39805 -0.13917
 C1335 C 1.13063 0.38221 -0.11768
 C1336 C 1.13155 0.34836 -0.11727
 C1337 C 1.11644 0.33245 -0.09692
 C1338 C 1.10055 0.34894 -0.07785
 C1339 C 1.09990 0.38190 -0.07780
 C1340 C 1.11609 0.39905 -0.09711
 C1341 C 1.11655 0.43245 -0.09517
 C1342 C 1.09858 0.44801 -0.07654
 C1343 C 1.07977 0.43092 -0.05913
 C1344 C 1.08189 0.39782 -0.05911
 H1345 H 1.14469 0.28362 -0.12165
 H1346 H 1.18200 0.34610 -0.19532
 H1347 H 1.17130 0.25777 -0.15617
 H1348 H 1.16464 0.39471 -0.17563
 H1349 H 1.14156 0.42337 -0.14134
 H1350 H 1.11521 0.30705 -0.09568
 H1351 H 1.08834 0.33567 -0.06310
 H1352 H 1.13018 0.44726 -0.10796
 H1353 H 1.09821 0.47363 -0.07657
 H1354 H 1.06797 0.38431 -0.04542
 C1355 C 0.68713 0.86831 0.33939
 C1356 C 0.67346 0.85438 0.36129
 C1357 C 0.67559 0.82103 0.36383
 C1358 C 0.69255 0.80285 0.34577
 C1359 C 0.70575 0.81718 0.32420
 C1360 C 0.70260 0.84989 0.32109
 C1361 C 0.66013 0.80601 0.38405
 C1362 C 0.64142 0.82319 0.40123
 C1363 C 0.63863 0.85643 0.39950
 C1364 C 0.65670 0.87234 0.38016
 C1365 C 0.65774 0.90571 0.38047
 C1366 C 0.64001 0.92303 0.39800
 C1367 C 0.61977 0.90793 0.41541
 C1368 C 0.61853 0.87442 0.41644
 C1369 C 0.59618 0.86049 0.43365
 C1370 C 0.57543 0.87919 0.44856
 C1371 C 0.57691 0.91225 0.44733
 C1372 C 0.59989 0.92636 0.43122
 H1373 H 0.68510 0.89322 0.33534
 H1374 H 0.69433 0.77739 0.34794
 H1375 H 0.71231 0.86131 0.30439
 H1376 H 0.66175 0.78055 0.38623
 H1377 H 0.62999 0.80983 0.41615
 H1378 H 0.67277 0.91918 0.36766
 H1379 H 0.64144 0.94864 0.39740
 H1380 H 0.59302 0.83524 0.43514
 H1381 H 0.55772 0.86774 0.46073
 H1382 H 0.60101 0.95194 0.42984
 C1383 C 0.82687 0.67457 -0.12287
 C1384 C 0.83884 0.64360 -0.12760
 C1385 C 0.83178 0.62999 -0.15146
 C1386 C 0.81579 0.64762 -0.17021
 C1387 C 0.80544 0.67863 -0.16556
 C1388 C 0.81025 0.69166 -0.14158
 C1389 C 0.84107 0.59898 -0.15672
 C1390 C 0.85784 0.58108 -0.13897
 C1391 C 0.86691 0.59387 -0.11535
 C1392 C 0.85780 0.62585 -0.10973
 C1393 C 0.86927 0.63944 -0.08701
 C1394 C 0.88977 0.62281 -0.07075
 C1395 C 0.89883 0.59169 -0.07600
 C1396 C 0.88633 0.57627 -0.09775
 C1397 C 0.89445 0.54397 -0.10121
 C1398 C 0.91644 0.52873 -0.08508
 C1399 C 0.93099 0.54499 -0.06496
 C1400 C 0.92116 0.57616 -0.05999
 H1401 H 0.82972 0.68617 -0.10489
 H1402 H 0.81126 0.63708 -0.18857
 H1403 H 0.80186 0.71543 -0.13747
 H1404 H 0.83550 0.58843 -0.17489
 H1405 H 0.86465 0.55762 -0.14488
 H1406 H 0.86406 0.66354 -0.08176
 H1407 H 0.89897 0.63462 -0.05400
 H1408 H 0.88440 0.52981 -0.11625
 H1409 H 0.92297 0.50442 -0.08900
 H1410 H 0.93163 0.58869 -0.04402
 C1411 C 0.38633 1.16244 0.33621
 C1412 C 0.37351 1.14176 0.35473
 C1413 C 0.33980 1.14485 0.36099
 C1414 C 0.31958 1.16632 0.34787
 C1415 C 0.33242 1.18454 0.32822
 C1416 C 0.36596 1.18305 0.32301
 C1417 C 0.32621 1.12571 0.37965
 C1418 C 0.34519 1.10339 0.39224
 C1419 C 0.37868 1.09890 0.38637
 C1420 C 0.39290 1.11805 0.36698
 C1421 C 0.42586 1.11246 0.36012
 C1422 C 0.44488 1.09019 0.37258
 C1423 C 0.43199 1.07256 0.39240
 C1424 C 0.39860 1.07618 0.39939
 C1425 C 0.38695 1.05756 0.41972
 C1426 C 0.40818 1.03830 0.43355
 C1427 C 0.44146 1.03634 0.42733
 C1428 C 0.45288 1.05234 0.40601
 H1429 H 0.41184 1.16298 0.33105
 H1430 H 0.29352 1.16736 0.35181
 H1431 H 0.37629 1.19721 0.30793
 H1432 H 0.30050 1.12791 0.38453
 H1433 H 0.33260 1.08969 0.40633
 H1434 H 0.43788 1.12481 0.34498
 H1435 H 0.47024 1.08721 0.36693
 H1436 H 0.36196 1.05829 0.42619
 H1437 H 0.39881 1.02591 0.44993
 H1438 H 0.47869 1.05105 0.40119
 C1439 C 1.14755 0.68629 0.12267
 C1440 C 1.14039 0.65360 0.12470
 C1441 C 1.14862 0.63820 0.14767
 C1442 C 1.16192 0.65533 0.16799
 C1443 C 1.16858 0.68768 0.16561
 C1444 C 1.16159 0.70286 0.14274
 C1445 C 1.14378 0.60572 0.15022
 C1446 C 1.13105 0.58797 0.13046
 C1447 C 1.12175 0.60221 0.10741
 C1448 C 1.12558 0.63571 0.10475
 C1449 C 1.11349 0.65033 0.08262
 C1450 C 1.09767 0.63301 0.06395
 C1451 C 1.09409 0.60034 0.06615
 C1452 C 1.10726 0.58426 0.08737
 C1453 C 1.10485 0.55086 0.08779
 C1454 C 1.08721 0.53465 0.06928
 C1455 C 1.07153 0.55104 0.04969
 C1456 C 1.07630 0.58377 0.04764
 H1457 H 1.14337 0.69966 0.10566
 H1458 H 1.16801 0.64327 0.18545
 H1459 H 1.16693 0.72780 0.14037
 H1460 H 1.15003 0.59381 0.16771
 H1461 H 1.12766 0.56314 0.13423
 H1462 H 1.11459 0.67550 0.07957
 H1463 H 1.08783 0.64542 0.04770
 H1464 H 1.11607 0.53655 0.10227
 H1465 H 1.08481 0.50924 0.07092
 H1466 H 1.06489 0.59665 0.03223
 C1467 C 0.60328 1.17649 0.64944
 C1468 C 0.61774 1.16538 0.62683
 C1469 C 0.65200 1.16972 0.62375
 C1470 C 0.67043 1.18595 0.64214
 C1471 C 0.65568 1.19641 0.66449
 C1472 C 0.62211 1.19136 0.66802
 C1473 C 0.66781 1.15715 0.60268
 C1474 C 0.65068 1.13900 0.58516
 C1475 C 0.61664 1.13371 0.58755
 C1476 C 0.59960 1.14895 0.60774
 C1477 C 0.56502 1.14738 0.60813
 C1478 C 0.54777 1.12979 0.59037
 C1479 C 0.56426 1.11225 0.57207
 C1480 C 0.59897 1.11369 0.57046
 C1481 C 0.61462 1.09369 0.55269
 C1482 C 0.59650 1.07265 0.53780
 C1483 C 0.56232 1.07176 0.53942
 C1484 C 0.54626 1.09217 0.55608
 H1485 H 0.57776 1.17287 0.65380
 H1486 H 0.69660 1.18920 0.63957
 H1487 H 0.61033 1.19899 0.68530
 H1488 H 0.69394 1.16059 0.60008
 H1489 H 0.66470 1.12993 0.56952
 H1490 H 0.55049 1.16013 0.62172
 H1491 H 0.52123 1.12907 0.59153
 H1492 H 0.64091 1.09243 0.55089
 H1493 H 0.60927 1.05649 0.52535
 H1494 H 0.51978 1.09073 0.55787
 C1495 C 0.84274 0.38644 0.16703
 C1496 C 0.84596 0.37628 0.14167
 C1497 C 0.83457 0.34551 0.13558
 C1498 C 0.81953 0.32645 0.15401
 C1499 C 0.81632 0.33701 0.17901
 C1500 C 0.82829 0.36709 0.18527
 C1501 C 0.83844 0.33376 0.11116
 C1502 C 0.85450 0.35136 0.09279
 C1503 C 0.86672 0.38196 0.09794
 C1504 C 0.86087 0.39522 0.12240
 C1505 C 0.86996 0.42700 0.12672
 C1506 C 0.88613 0.44458 0.10844
 C1507 C 0.89450 0.43113 0.08530
 C1508 C 0.88481 0.39970 0.07956
 C1509 C 0.89498 0.38695 0.05609
 C1510 C 0.91512 0.40419 0.03977
 C1511 C 0.92524 0.43489 0.04592
 C1512 C 0.91380 0.44859 0.06833
 H1513 H 0.85179 0.40894 0.17357
 H1514 H 0.81070 0.30311 0.14888
 H1515 H 0.82631 0.37594 0.20440
 H1516 H 0.82947 0.31040 0.10628
 H1517 H 0.85651 0.34043 0.07449
 H1518 H 0.86457 0.43920 0.14407
 H1519 H 0.89301 0.46876 0.11278
 H1520 H 0.88922 0.36316 0.05030
 H1521 H 0.92374 0.39302 0.02262
 H1522 H 0.92188 0.47213 0.07350
 C1523 C 0.36217 0.87751 0.67501
 C1524 C 0.36097 0.87170 0.64881
 C1525 C 0.33727 0.84977 0.63990
 C1526 C 0.31715 0.83299 0.65692
 C1527 C 0.31967 0.83798 0.68315
 C1528 C 0.34210 0.86109 0.69167
 C1529 C 0.33396 0.84451 0.61404
 C1530 C 0.35358 0.86047 0.59679
 C1531 C 0.37807 0.88197 0.60476
 C1532 C 0.38240 0.88701 0.63125
 C1533 C 0.40862 0.90643 0.63936
 C1534 C 0.42971 0.92068 0.62227
 C1535 C 0.42531 0.91676 0.59639
 C1536 C 0.39903 0.89793 0.58719
 C1537 C 0.39488 0.89591 0.56073
 C1538 C 0.41669 0.91076 0.54430
 C1539 C 0.44346 0.92813 0.55352
 C1540 C 0.44736 0.93137 0.57964
 H1541 H 0.37810 0.89493 0.68338
 H1542 H 0.29975 0.81589 0.64956
 H1543 H 0.34472 0.86663 0.71156
 H1544 H 0.31592 0.82784 0.60700
 H1545 H 0.34955 0.85463 0.57725
 H1546 H 0.41429 0.91038 0.65896
 H1547 H 0.44976 0.93496 0.62945
 H1548 H 0.37490 0.88328 0.55203
 H1549 H 0.41275 0.90816 0.52418
 H1550 H 0.46769 0.94515 0.58698
 C1551 C 0.35068 1.18079 -0.12835
 C1552 C 0.36464 1.15027 -0.13078
 C1553 C 0.35930 1.13358 -0.15363
 C1554 C 0.34230 1.14782 -0.17362
 C1555 C 0.32908 1.17816 -0.17092
 C1556 C 0.33305 1.19436 -0.14811
 C1557 C 0.37062 1.10266 -0.15636
 C1558 C 0.38631 1.08741 -0.13654
 C1559 C 0.39229 1.10304 -0.11344
 C1560 C 0.38296 1.13553 -0.11110
 C1561 C 0.39280 1.15241 -0.08939
 C1562 C 0.40980 1.13768 -0.07004
 C1563 C 0.41682 1.10547 -0.07122
 C1564 C 0.40781 1.08747 -0.09272
 C1565 C 0.41401 1.05447 -0.09225
 C1566 C 0.42897 1.04030 -0.07140
 C1567 C 0.43849 1.05857 -0.05065
 C1568 C 0.43256 1.09113 -0.05075
 H1569 H 0.35211 1.19444 -0.11120
 H1570 H 0.33865 1.13496 -0.19112
 H1571 H 0.32272 1.21778 -0.14561
 H1572 H 0.36679 1.08988 -0.17387
 H1573 H 0.39437 1.06356 -0.14017
 H1574 H 0.38856 1.17740 -0.08710
 H1575 H 0.41703 1.15158 -0.05374
 H1576 H 0.40674 1.03883 -0.10731
 H1577 H 0.43319 1.01498 -0.07155
 H1578 H 0.43952 1.10531 -0.03454
 C1579 C 0.89571 0.65220 0.33367
 C1580 C 0.88426 0.64877 0.35874
 C1581 C 0.85266 0.66081 0.36446
 C1582 C 0.83423 0.67680 0.34609
 C1583 C 0.84596 0.67995 0.32143
 C1584 C 0.87668 0.66732 0.31533
 C1585 C 0.83934 0.65652 0.38841
 C1586 C 0.85617 0.63950 0.40668
 C1587 C 0.88759 0.62685 0.40192
 C1588 C 0.90265 0.63314 0.37810
 C1589 C 0.93570 0.62415 0.37464
 C1590 C 0.95314 0.60868 0.39355
 C1591 C 0.93803 0.60046 0.41621
 C1592 C 0.90476 0.60870 0.42045
 C1593 C 0.88976 0.59779 0.44286
 C1594 C 0.90745 0.58051 0.46064
 C1595 C 0.94069 0.57382 0.45693
 C1596 C 0.95591 0.58380 0.43465
 H1597 H 0.91881 0.64261 0.32744
 H1598 H 0.81018 0.68601 0.35082
 H1599 H 0.88613 0.66927 0.29630
 H1600 H 0.81535 0.66596 0.39296
 H1601 H 0.84425 0.63751 0.42474
 H1602 H 0.94917 0.62969 0.35773
 H1603 H 0.97860 0.60261 0.39021
 H1604 H 0.86415 0.60142 0.44691
 H1605 H 0.89504 0.57265 0.47759
 H1606 H 0.98150 0.57808 0.43146
 C1607 C 0.68103 1.12747 0.16236
 C1608 C 0.66930 1.13930 0.13905
 C1609 C 0.67323 1.17211 0.13415
 C1610 C 0.68898 1.19186 0.15180
 C1611 C 0.69972 1.17967 0.17496
 C1612 C 0.69572 1.14740 0.17997
 C1613 C 0.66070 1.18519 0.11198
 C1614 C 0.64324 1.16671 0.09491
 C1615 C 0.63826 1.13404 0.09908
 C1616 C 0.65291 1.11985 0.12088
 C1617 C 0.65086 1.08668 0.12375
 C1618 C 0.63389 1.06812 0.10657
 C1619 C 0.61782 1.08177 0.08607
 C1620 C 0.61945 1.11494 0.08207
 C1621 C 0.60161 1.12759 0.06143
 C1622 C 0.58373 1.10798 0.04526
 C1623 C 0.58305 1.07519 0.04900
 C1624 C 0.60007 1.06228 0.06952
 H1625 H 0.67820 1.10318 0.16808
 H1626 H 0.69155 1.21696 0.14801
 H1627 H 0.70378 1.13749 0.19781
 H1628 H 0.66383 1.21017 0.10800
 H1629 H 0.63439 1.17872 0.07831
 H1630 H 0.66276 1.07409 0.13889
 H1631 H 0.63305 1.04274 0.10954
 H1632 H 0.60044 1.15257 0.05749
 H1633 H 0.57048 1.11859 0.02966
 H1634 H 0.59939 1.03693 0.07272
 C1635 C 1.19010 0.67234 0.63337
 C1636 C 1.16222 0.65321 0.63797
 C1637 C 1.14770 0.65492 0.66223
 C1638 C 1.16178 0.67365 0.68131
 C1639 C 1.18981 0.69190 0.67657
 C1640 C 1.20347 0.69140 0.65233
 C1641 C 1.11916 0.63796 0.66736
 C1642 C 1.10411 0.61986 0.64877
 C1643 C 1.11760 0.61725 0.62434
 C1644 C 1.14797 0.63295 0.61925
 C1645 C 1.16339 0.62738 0.59582
 C1646 C 1.14904 0.60822 0.57758
 C1647 C 1.11837 0.59456 0.58157
 C1648 C 1.10195 0.59916 0.60488
 C1649 C 1.07006 0.58625 0.60740
 C1650 C 1.05525 0.56977 0.58758
 C1651 C 1.07183 0.56500 0.56480
 C1652 C 1.10364 0.57696 0.56208
 H1653 H 1.20179 0.67362 0.61519
 H1654 H 1.15063 0.67426 0.69988
 H1655 H 1.22497 0.70544 0.64805
 H1656 H 1.10806 0.63898 0.68592
 H1657 H 1.08227 0.60742 0.65440
 H1658 H 1.18712 0.63694 0.59121
 H1659 H 1.16185 0.60460 0.55990
 H1660 H 1.05533 0.58953 0.62405
 H1661 H 1.03048 0.56100 0.58998
 H1662 H 1.11637 0.57386 0.54429
 C1663 C 0.62873 0.85953 -0.16617
 C1664 C 0.62960 0.85283 -0.14004
 C1665 C 0.64404 0.82387 -0.13226
 C1666 C 0.65955 0.80406 -0.14984
 C1667 C 0.66034 0.81221 -0.17546
 C1668 C 0.64388 0.83958 -0.18347
 C1669 C 0.64353 0.81515 -0.10691
 C1670 C 0.62907 0.83457 -0.08900
 C1671 C 0.61539 0.86415 -0.09567
 C1672 C 0.61673 0.87390 -0.12148
 C1673 C 0.60644 0.90486 -0.12773
 C1674 C 0.59475 0.92547 -0.10947
 C1675 C 0.59190 0.91583 -0.08444
 C1676 C 0.60136 0.88476 -0.07726
 C1677 C 0.59605 0.87552 -0.05194
 C1678 C 0.58293 0.89659 -0.03449
 C1679 C 0.57497 0.92757 -0.04152
 C1680 C 0.57946 0.93711 -0.06652
 H1681 H 0.61642 0.87992 -0.17389
 H1682 H 0.67155 0.78258 -0.14347
 H1683 H 0.64343 0.84626 -0.20321
 H1684 H 0.65448 0.79304 -0.10082
 H1685 H 0.63025 0.82623 -0.06981
 H1686 H 0.60830 0.91440 -0.14653
 H1687 H 0.58764 0.94918 -0.11508
 H1688 H 0.60100 0.85199 -0.04511
 H1689 H 0.57918 0.88860 -0.01527
 H1690 H 0.57261 0.96091 -0.07213
 C1691 C 1.19067 0.34147 0.37364
 C1692 C 1.16074 0.35782 0.37001
 C1693 C 1.14423 0.35359 0.34665
 C1694 C 1.15828 0.33511 0.32737
 C1695 C 1.18824 0.31950 0.33121
 C1696 C 1.20398 0.32262 0.35463
 C1697 C 1.11372 0.36769 0.34270
 C1698 C 1.09870 0.38521 0.36165
 C1699 C 1.11415 0.39019 0.38522
 C1700 C 1.14637 0.37759 0.38896
 C1701 C 1.16338 0.38560 0.41131
 C1702 C 1.14891 0.40402 0.42992
 C1703 C 1.11668 0.41455 0.42738
 C1704 C 1.09864 0.40759 0.40512
 C1705 C 1.06547 0.41754 0.40409
 C1706 C 1.05103 0.43338 0.42438
 C1707 C 1.06915 0.44040 0.44615
 C1708 C 1.10217 0.43141 0.44732
 H1709 H 1.20411 0.34214 0.39117
 H1710 H 1.14560 0.33249 0.30948
 H1711 H 1.22705 0.31073 0.35824
 H1712 H 1.10102 0.36476 0.32484
 H1713 H 1.07519 0.39529 0.35699
 H1714 H 1.18838 0.37858 0.41478
 H1715 H 1.16296 0.40953 0.44676
 H1716 H 1.04965 0.41242 0.38830
 H1717 H 1.02537 0.43991 0.42312
 H1718 H 1.11623 0.43632 0.46428
 C1719 C 0.33107 0.82576 0.12973
 C1720 C 0.34599 0.85545 0.13427
 C1721 C 0.33750 0.87178 0.15670
 C1722 C 0.31677 0.85765 0.17457
 C1723 C 0.30318 0.82773 0.17010
 C1724 C 0.31003 0.81226 0.14735
 C1725 C 0.34981 0.90203 0.16122
 C1726 C 0.36990 0.91684 0.14368
 C1727 C 0.37943 0.90138 0.12123
 C1728 C 0.36859 0.86960 0.11713
 C1729 C 0.38130 0.85269 0.09638
 C1730 C 0.40260 0.86678 0.07945
 C1731 C 0.41143 0.89843 0.08213
 C1732 C 0.39982 0.91640 0.10288
 C1733 C 0.40841 0.94888 0.10391
 C1734 C 0.42752 0.96268 0.08503
 C1735 C 0.43905 0.94453 0.06483
 C1736 C 0.43137 0.91232 0.06376
 H1737 H 0.33466 0.81258 0.11255
 H1738 H 0.31111 0.87003 0.19196
 H1739 H 0.29964 0.78919 0.14334
 H1740 H 0.34351 0.91460 0.17838
 H1741 H 0.37841 0.94016 0.14864
 H1742 H 0.37596 0.82808 0.09304
 H1743 H 0.41177 0.85287 0.06378
 H1744 H 0.39979 0.96452 0.11852
 H1745 H 0.43298 0.98774 0.08609
 H1746 H 0.43988 0.89821 0.04797
 C1747 C 0.80428 0.35069 0.62684
 C1748 C 0.83686 0.36114 0.63098
 C1749 C 0.85190 0.35325 0.65430
 C1750 C 0.83418 0.33713 0.67307
 C1751 C 0.80180 0.32736 0.66870
 C1752 C 0.78724 0.33397 0.64535
 C1753 C 0.88464 0.36119 0.65868
 C1754 C 0.90311 0.37628 0.64022
 C1755 C 0.88920 0.38502 0.61681
 C1756 C 0.85513 0.37856 0.61260
 C1757 C 0.84024 0.39033 0.59044
 C1758 C 0.85813 0.40691 0.57257
 C1759 C 0.89168 0.41181 0.57570
 C1760 C 0.90795 0.40057 0.59761
 C1761 C 0.94241 0.40500 0.59909
 C1762 C 0.95958 0.42036 0.57978
 C1763 C 0.94301 0.43213 0.55861
 C1764 C 0.90903 0.42783 0.55680
 H1765 H 0.79149 0.35428 0.60925
 H1766 H 0.84591 0.33149 0.69091
 H1767 H 0.76238 0.32636 0.64139
 H1768 H 0.89628 0.35529 0.67649
 H1769 H 0.92816 0.38159 0.64517
 H1770 H 0.81441 0.38794 0.58663
 H1771 H 0.84554 0.41571 0.55593
 H1772 H 0.95691 0.39623 0.61462
 H1773 H 0.98591 0.42319 0.58150
 H1774 H 0.89603 0.43647 0.54030
 C1775 C 1.19329 1.11222 0.64693
 C1776 C 1.17748 1.12643 0.62599
 C1777 C 1.17557 1.15995 0.62525
 C1778 C 1.19029 1.17824 0.64424
 C1779 C 1.20505 1.16363 0.66505
 C1780 C 1.20639 1.13064 0.66632
 C1781 C 1.15800 1.17495 0.60605
 C1782 C 1.14025 1.15736 0.58858
 C1783 C 1.14063 1.12398 0.58908
 C1784 C 1.16183 1.10845 0.60664
 C1785 C 1.16641 1.07547 0.60440
 C1786 C 1.14848 1.05782 0.58713
 C1787 C 1.12448 1.07217 0.57222
 C1788 C 1.12014 1.10548 0.57294
 C1789 C 1.09388 1.11864 0.55889
 C1790 C 1.07210 1.09924 0.54569
 C1791 C 1.07665 1.06648 0.54523
 C1792 C 1.10355 1.05315 0.55767
 H1793 H 1.19444 1.08693 0.64949
 H1794 H 1.18882 1.20386 0.64353
 H1795 H 1.21759 1.11906 0.68243
 H1796 H 1.15683 1.20056 0.60514
 H1797 H 1.12681 1.17057 0.57454
 H1798 H 1.18414 1.06272 0.61561
 H1799 H 1.15235 1.03246 0.58631
 H1800 H 1.08820 1.14355 0.55914
 H1801 H 1.05108 1.10976 0.53635
 H1802 H 1.10654 1.02764 0.55772
 C1803 C 0.68636 0.64771 0.13142
 C1804 C 0.65350 0.63800 0.13509
 C1805 C 0.63831 0.64614 0.15830
 C1806 C 0.65598 0.66216 0.17727
 C1807 C 0.68847 0.67151 0.17317
 C1808 C 0.70333 0.66427 0.15008
 C1809 C 0.60547 0.63855 0.16236
 C1810 C 0.58711 0.62339 0.14383
 C1811 C 0.60116 0.61438 0.12055
 C1812 C 0.63519 0.62086 0.11647
 C1813 C 0.64997 0.60932 0.09420
 C1814 C 0.63225 0.59209 0.07652
 C1815 C 0.59893 0.58626 0.07990
 C1816 C 0.58261 0.59810 0.10156
 C1817 C 0.54837 0.59296 0.10328
 C1818 C 0.53175 0.57495 0.08523
 C1819 C 0.54852 0.56147 0.06483
 C1820 C 0.58199 0.56797 0.06195
 H1821 H 0.69952 0.64361 0.11413
 H1822 H 0.64415 0.66818 0.19494
 H1823 H 0.72841 0.67137 0.14641
 H1824 H 0.59369 0.64465 0.18003
 H1825 H 0.56206 0.61818 0.14867
 H1826 H 0.67567 0.61223 0.09019
 H1827 H 0.64487 0.58313 0.06001
 H1828 H 0.53367 0.60249 0.11834
 H1829 H 0.50578 0.57078 0.08776
 H1830 H 0.59513 0.55813 0.04599
 C1831 C 1.14335 0.82494 0.36995
 C1832 C 1.11828 0.84716 0.36448
 C1833 C 1.11166 0.85375 0.33872
 C1834 C 1.12942 0.83863 0.31950
 C1835 C 1.15443 0.81699 0.32527
 C1836 C 1.16101 0.81022 0.35068
 C1837 C 1.08761 0.87573 0.33218
 C1838 C 1.07074 0.89239 0.35060
 C1839 C 1.07707 0.88755 0.37653
 C1840 C 1.10027 0.86364 0.38360
 C1841 C 1.10487 0.85723 0.40953
 C1842 C 1.08901 0.87479 0.42796
 C1843 C 1.06814 0.89959 0.42141
 C1844 C 1.06142 0.90614 0.39565
 C1845 C 1.04026 0.93187 0.39018
 C1846 C 1.02779 0.95098 0.40940
 C1847 C 1.03542 0.94491 0.43471
 C1848 C 1.05481 0.91854 0.44060
 H1849 H 1.15050 0.81880 0.38890
 H1850 H 1.12396 0.84417 0.29995
 H1851 H 1.18014 0.79363 0.35581
 H1852 H 1.08212 0.88054 0.31251
 H1853 H 1.05273 0.90896 0.34379
 H1854 H 1.12069 0.83868 0.41632
 H1855 H 1.09381 0.86934 0.44763
 H1856 H 1.03374 0.93870 0.37124
 H1857 H 1.01276 0.97114 0.40431
 H1858 H 1.06088 0.91356 0.46014
 C1859 C 0.66949 0.33562 -0.12804
 C1860 C 0.63680 0.34692 -0.12968
 C1861 C 0.61893 0.33990 -0.15200
 C1862 C 0.63400 0.32424 -0.17228
 C1863 C 0.66661 0.31412 -0.17058
 C1864 C 0.68397 0.31933 -0.14813
 C1865 C 0.58614 0.34877 -0.15414
 C1866 C 0.57050 0.36466 -0.13468
 C1867 C 0.58737 0.37319 -0.11238
 C1868 C 0.62131 0.36497 -0.11012
 C1869 C 0.63888 0.37615 -0.08889
 C1870 C 0.62404 0.39520 -0.07079
 C1871 C 0.59087 0.40302 -0.07257
 C1872 C 0.57176 0.39102 -0.09282
 C1873 C 0.53777 0.39774 -0.09279
 C1874 C 0.52410 0.41780 -0.07478
 C1875 C 0.54360 0.43185 -0.05606
 C1876 C 0.57685 0.42347 -0.05455
 H1877 H 0.68441 0.33867 -0.11141
 H1878 H 0.62020 0.31968 -0.18943
 H1879 H 0.70915 0.31143 -0.14630
 H1880 H 0.57235 0.34341 -0.17114
 H1881 H 0.54535 0.37111 -0.13820
 H1882 H 0.66467 0.37170 -0.08625
 H1883 H 0.63880 0.40408 -0.05529
 H1884 H 0.52100 0.38791 -0.10643
 H1885 H 0.49817 0.42303 -0.07604
 H1886 H 0.59208 0.43362 -0.03983
 C1887 C 0.86894 1.19120 0.36213
 C1888 C 0.85173 1.17124 0.37902
 C1889 C 0.81768 1.16671 0.37488
 C1890 C 0.80146 1.18316 0.35542
 C1891 C 0.81910 1.20261 0.33889
 C1892 C 0.85284 1.20625 0.34223
 C1893 C 0.80031 1.14516 0.38971
 C1894 C 0.81632 1.12681 0.40778
 C1895 C 0.85021 1.13040 0.41250
 C1896 C 0.86754 1.15455 0.39909
 C1897 C 0.90011 1.16139 0.40622
 C1898 C 0.91621 1.14347 0.42429
 C1899 C 0.90083 1.11762 0.43550
 C1900 C 0.86757 1.11066 0.43003
 C1901 C 0.85376 1.08334 0.44142
 C1902 C 0.87282 1.06316 0.45654
 C1903 C 0.90591 1.06993 0.46115
 C1904 C 0.91921 1.09794 0.45138
 H1905 H 0.89512 1.19455 0.36311
 H1906 H 0.77536 1.17979 0.35240
 H1907 H 0.86683 1.22086 0.32934
 H1908 H 0.77424 1.14170 0.38676
 H1909 H 0.80135 1.11034 0.41817
 H1910 H 0.91369 1.18094 0.39840
 H1911 H 0.94143 1.14928 0.42888
 H1912 H 0.82883 1.07603 0.43793
 H1913 H 0.86198 1.04164 0.46384
 H1914 H 0.94479 1.10357 0.45483
 C1915 C 0.38514 0.68127 -0.15530
 C1916 C 0.37439 0.67501 -0.13045
 C1917 C 0.34198 0.68414 -0.12396
 C1918 C 0.32162 0.69941 -0.14172
 C1919 C 0.33258 0.70475 -0.16642
 C1920 C 0.36454 0.69569 -0.17287
 C1921 C 0.32979 0.67726 -0.10001
 C1922 C 0.34831 0.65992 -0.08281
 C1923 C 0.38025 0.64929 -0.08872
 C1924 C 0.39420 0.65869 -0.11230
 C1925 C 0.42734 0.65109 -0.11709
 C1926 C 0.44530 0.63231 -0.10061
 C1927 C 0.43095 0.62013 -0.07884
 C1928 C 0.39847 0.62893 -0.07222
 C1929 C 0.38502 0.61545 -0.05006
 C1930 C 0.40224 0.59270 -0.03627
 C1931 C 0.43360 0.58300 -0.04373
 C1932 C 0.44841 0.59792 -0.06435
 H1933 H 0.40893 0.67435 -0.16214
 H1934 H 0.29684 0.70611 -0.13657
 H1935 H 0.37381 0.69965 -0.19176
 H1936 H 0.30525 0.68456 -0.09474
 H1937 H 0.33687 0.65529 -0.06488
 H1938 H 0.44026 0.65934 -0.13354
 H1939 H 0.47038 0.62634 -0.10544
 H1940 H 0.36059 0.62065 -0.04359
 H1941 H 0.39037 0.58167 -0.02025
 H1942 H 0.47265 0.59055 -0.07030
 C1943 C 0.84733 0.87819 0.67969
 C1944 C 0.85745 0.86946 0.65515
 C1945 C 0.84762 0.83928 0.64605
 C1946 C 0.82846 0.81898 0.66108
 C1947 C 0.81920 0.82802 0.68545
 C1948 C 0.82872 0.85781 0.69445
 C1949 C 0.85707 0.82942 0.62208
 C1950 C 0.87590 0.84883 0.60673
 C1951 C 0.88611 0.87918 0.61475
 C1952 C 0.87676 0.88966 0.63939
 C1953 C 0.88674 0.92012 0.64735
 C1954 C 0.90420 0.94011 0.63158
 C1955 C 0.91282 0.93061 0.60734
 C1956 C 0.90465 0.89977 0.59873
 C1957 C 0.91490 0.89113 0.57419
 C1958 C 0.93035 0.91288 0.55845
 C1959 C 0.93654 0.94384 0.56659
 C1960 C 0.92877 0.95224 0.59139
 H1961 H 0.85338 0.90052 0.68826
 H1962 H 0.82138 0.79589 0.65399
 H1963 H 0.82170 0.86559 0.71316
 H1964 H 0.84973 0.80639 0.61501
 H1965 H 0.88169 0.83931 0.58844
 H1966 H 0.88106 0.92967 0.66564
 H1967 H 0.91067 0.96350 0.63837
 H1968 H 0.91093 0.86798 0.56629
 H1969 H 0.93672 0.90558 0.53947
 H1970 H 0.93381 0.97607 0.59793
 C1971 C 0.37735 0.32020 0.15491
 C1972 C 0.36380 0.32945 0.13146
 C1973 C 0.32951 0.32570 0.12786
 C1974 C 0.31002 0.31208 0.14687
 C1975 C 0.32395 0.30383 0.17013
 C1976 C 0.35764 0.30793 0.17391
 C1977 C 0.31480 0.33653 0.10567
 C1978 C 0.33294 0.35306 0.08779
 C1979 C 0.36690 0.35833 0.09106
 C1980 C 0.38291 0.34403 0.11218
 C1981 C 0.41745 0.34523 0.11356
 C1982 C 0.43549 0.36304 0.09658
 C1983 C 0.41977 0.38070 0.07793
 C1984 C 0.38535 0.37812 0.07443
 C1985 C 0.37067 0.39715 0.05554
 C1986 C 0.38909 0.41940 0.04219
 C1987 C 0.42272 0.42297 0.04687
 C1988 C 0.43815 0.40226 0.06372
 H1989 H 0.40285 0.32348 0.15961
 H1990 H 0.28384 0.30922 0.14401
 H1991 H 0.36888 0.30155 0.19175
 H1992 H 0.28872 0.33332 0.10256
 H1993 H 0.31969 0.36128 0.07143
 H1994 H 0.43131 0.33249 0.12762
 H1995 H 0.46191 0.36415 0.09883
 H1996 H 0.34471 0.39686 0.05171
 H1997 H 0.37661 0.43485 0.02897
 H1998 H 0.46422 0.40441 0.06715
   
