data_POSCAR
  _audit_creation_date              2014-09-24
  _audit_creation_method            'ToBaCCo'
  _symmetry_space_group_name_H-M    'P1'
  _symmetry_Int_Tables_number       1
  _symmetry_cell_setting            triclinic
  loop_
  _symmetry_equiv_pos_as_xyz
 x,y,z
_cell_length_a 57.9842
_cell_length_b 57.6915
_cell_length_c 60.7057
_cell_angle_alpha 89.990800
_cell_angle_beta 90.190900
_cell_angle_gamma 90.283500
loop_
  _atom_site_label
  _atom_site_type_symbol
  _atom_site_fract_x
  _atom_site_fract_y
  _atom_site_fract_z
O1 O 0.34750 0.31357 -0.01937
 O2 O 0.31527 0.34837 0.02100
 O3 O 0.34575 0.31554 0.02344
 O4 O 0.31856 0.34776 -0.02176
 O5 O 0.28977 0.32268 -0.02246
 O6 O 0.31767 0.28961 0.02243
 O7 O 0.28700 0.32264 0.02009
 O8 O 0.31898 0.28811 -0.02025
 Cu9 Cu 0.33461 0.33385 0.00091
 Cu10 Cu 0.30052 0.30319 -0.00017
 C11 C 0.33877 0.29477 -0.02658
 C12 C 0.29551 0.34148 0.02732
 C13 C 0.33658 0.29699 0.03056
 C14 C 0.29936 0.34106 -0.02971
 O15 O 0.68163 0.64452 0.02026
 O16 O 0.64992 0.67424 -0.02397
 O17 O 0.68254 0.64343 -0.02280
 O18 O 0.64950 0.67570 0.01892
 O19 O 0.67572 0.70353 0.01835
 O20 O 0.70901 0.67095 -0.02276
 O21 O 0.67624 0.70199 -0.02428
 O22 O 0.70798 0.67224 0.02000
 Cu23 Cu 0.66329 0.65667 -0.00190
 Cu24 Cu 0.69490 0.68992 -0.00224
 C25 C 0.70019 0.65330 0.02773
 C26 C 0.65752 0.69331 -0.03154
 C27 C 0.70155 0.65159 -0.02988
 C28 C 0.65692 0.69523 0.02566
 O29 O 0.64518 0.32418 1.02034
 O30 O 0.67512 0.35566 0.97616
 O31 O 0.64528 0.32219 0.97804
 O32 O 0.67514 0.35851 1.01884
 O33 O 0.70297 0.33277 1.02145
 O34 O 0.67431 0.29756 0.97848
 O35 O 0.70431 0.33137 0.97856
 O36 O 0.67346 0.29870 1.02159
 Cu37 Cu 0.65738 0.34273 0.99831
 Cu38 Cu 0.69163 0.31256 1.00018
 C39 C 0.65399 0.30582 1.02820
 C40 C 0.69487 0.34898 0.96986
 C41 C 0.65471 0.30377 0.97118
 C42 C 0.69414 0.35197 1.02721
 O43 O 0.32317 0.64924 0.97202
 O44 O 0.35234 0.68259 1.01573
 O45 O 0.32309 0.64881 1.01497
 O46 O 0.35333 0.68341 0.97322
 O47 O 0.32421 0.70788 0.97190
 O48 O 0.29469 0.67405 1.01523
 O49 O 0.32438 0.70840 1.01483
 O50 O 0.29414 0.67380 0.97257
 Cu51 Cu 0.34081 0.66345 0.99384
 Cu52 Cu 0.30650 0.69357 0.99356
 C53 C 0.30341 0.65549 0.96519
 C54 C 0.34345 0.70130 1.02263
 C55 C 0.30381 0.65551 1.02246
 C56 C 0.34413 0.70167 0.96562
 O57 O 0.02847 0.33516 0.36100
 O58 O -0.01783 0.36674 0.33245
 O59 O -0.01600 0.33500 0.36318
 O60 O 0.02722 0.36691 0.33085
 O61 O 0.02643 0.33942 0.30559
 O62 O -0.01879 0.30866 0.33701
 O63 O -0.01833 0.34017 0.30631
 O64 O 0.02607 0.30730 0.33617
 Cu65 Cu 0.00553 0.35374 0.34937
 Cu66 Cu 0.00374 0.32117 0.31870
 C67 C 0.03488 0.31562 0.35367
 C68 C -0.02580 0.35899 0.31435
 C69 C -0.02482 0.31634 0.35576
 C70 C 0.03440 0.35855 0.31279
 O71 O 0.02148 0.66934 0.64251
 O72 O -0.02578 0.64410 0.67513
 O73 O -0.02335 0.67238 0.64198
 O74 O 0.01880 0.64095 0.67609
 O75 O 0.02176 0.67117 0.69824
 O76 O -0.02181 0.70192 0.66495
 O77 O -0.02322 0.67327 0.69853
 O78 O 0.02267 0.69948 0.66487
 Cu79 Cu -0.00234 0.65373 0.65663
 Cu80 Cu -0.00001 0.68940 0.68399
 C81 C 0.02987 0.68894 0.64789
 C82 C -0.03239 0.65422 0.69255
 C83 C -0.02982 0.69257 0.64754
 C84 C 0.02749 0.65069 0.69297
 O85 O 0.97758 0.67224 0.35819
 O86 O 1.01821 0.63882 0.32483
 O87 O 1.02240 0.66809 0.35764
 O88 O 0.97406 0.64364 0.32546
 O89 O 0.97742 0.67226 0.30154
 O90 O 1.02439 0.69758 0.33465
 O91 O 1.02196 0.66831 0.30190
 O92 O 0.97983 0.70127 0.33461
 Cu93 Cu 0.99790 0.65283 0.34396
 Cu94 Cu 1.00119 0.68780 0.31585
 C95 C 0.97158 0.69237 0.35206
 C96 C 1.02678 0.64767 0.30754
 C97 C 1.03148 0.68726 0.35187
 C98 C 0.96776 0.65357 0.30777
 O99 O 0.97738 0.32211 0.63957
 O100 O 1.02437 0.35162 0.66974
 O101 O 1.02232 0.31932 0.64010
 O102 O 0.98004 0.35525 0.66921
 O103 O 0.97675 0.32855 0.69508
 O104 O 1.02024 0.29306 0.66638
 O105 O 1.02142 0.32575 0.69638
 O106 O 0.97565 0.29549 0.66561
 Cu107 Cu 1.00115 0.33965 0.65196
 Cu108 Cu 0.99828 0.30807 0.68348
 C109 C 0.96878 0.30349 0.64726
 C110 C 1.03065 0.34392 0.68842
 C111 C 1.02864 0.30005 0.64820
 C112 C 0.97144 0.34826 0.68725
 O113 O 0.33845 -0.02463 0.36074
 O114 O 0.36403 0.02248 0.32752
 O115 O 0.33502 0.02047 0.35984
 O116 O 0.36845 -0.02208 0.32847
 O117 O 0.33961 -0.02629 0.30495
 O118 O 0.30646 0.01749 0.33589
 O119 O 0.33582 0.01860 0.30330
 O120 O 0.30969 -0.02727 0.33699
 Cu121 Cu 0.35432 -0.00073 0.34660
 Cu122 Cu 0.32004 -0.00472 0.31788
 C123 C 0.31944 -0.03372 0.35469
 C124 C 0.35438 0.02839 0.30956
 C125 C 0.31511 0.02638 0.35323
 C126 C 0.35993 -0.03125 0.31124
 O127 O 0.64485 0.02568 0.67376
 O128 O 0.67966 -0.01749 0.64415
 O129 O 0.64783 -0.01931 0.67405
 O130 O 0.67614 0.02721 0.64278
 O131 O 0.70245 0.03099 0.66893
 O132 O 0.67491 -0.01701 0.69960
 O133 O 0.70698 -0.01396 0.66932
 O134 O 0.67142 0.02759 0.69982
 Cu135 Cu 0.65941 0.00382 0.65613
 Cu136 Cu 0.69170 0.00715 0.68695
 C137 C 0.65201 0.03366 0.69209
 C138 C 0.69944 -0.02287 0.65156
 C139 C 0.65643 -0.02610 0.69217
 C140 C 0.69414 0.03698 0.65039
 O141 O 0.32069 1.01950 0.64798
 O142 O 0.35394 0.97780 0.68114
 O143 O 0.32449 0.97442 0.64860
 O144 O 0.35117 1.02215 0.67951
 O145 O 0.32294 1.02085 0.70380
 O146 O 0.29572 0.97320 0.67227
 O147 O 0.32520 0.97559 0.70485
 O148 O 0.29245 1.01787 0.67221
 Cu149 Cu 0.34034 0.99859 0.66180
 Cu150 Cu 0.30626 0.99670 0.69075
 C151 C 0.30084 1.02577 0.65443
 C152 C 0.34528 0.96976 0.69877
 C153 C 0.30546 0.96579 0.65494
 C154 C 0.34190 1.02943 0.69707
 O155 O 0.65251 0.97192 0.31402
 O156 O 0.67998 1.01960 0.34501
 O157 O 0.64717 1.01645 0.31494
 O158 O 0.68404 0.97498 0.34422
 O159 O 0.71091 0.97926 0.31887
 O160 O 0.67339 1.02030 0.28889
 O161 O 0.70549 1.02409 0.31851
 O162 O 0.67890 0.97561 0.28814
 Cu163 Cu 0.66328 0.99549 0.33214
 Cu164 Cu 0.69484 1.00009 0.30101
 C165 C 0.66096 0.96571 0.29567
 C166 C 0.69756 1.02995 0.33716
 C167 C 0.65374 1.02518 0.29679
 C168 C 0.70386 0.97019 0.33674
 O169 O 0.82501 0.86141 0.52048
 O170 O 0.85971 0.83175 0.47850
 O171 O 0.82607 0.86127 0.47747
 O172 O 0.85870 0.83169 0.52144
 O173 O 0.83368 0.80276 0.52066
 O174 O 0.80084 0.83251 0.47713
 O175 O 0.83459 0.80289 0.47801
 O176 O 0.79981 0.83264 0.51986
 Cu177 Cu 0.84488 0.84943 0.49958
 Cu178 Cu 0.81470 0.81482 0.49890
 C179 C 0.80639 0.85219 0.52723
 C180 C 0.85310 0.81221 0.47111
 C181 C 0.80785 0.85193 0.46980
 C182 C 0.85190 0.81203 0.52839
 O183 O 0.14562 0.17344 0.47755
 O184 O 0.17917 0.14339 0.52042
 O185 O 0.14741 0.17520 0.52044
 O186 O 0.17665 0.14109 0.47764
 O187 O 0.20399 0.16773 0.47552
 O188 O 0.17436 0.20221 0.51794
 O189 O 0.20631 0.17021 0.51808
 O190 O 0.17281 0.20023 0.47533
 Cu191 Cu 0.15949 0.15559 0.49927
 Cu192 Cu 0.19209 0.18778 0.49652
 C193 C 0.15346 0.19205 0.46918
 C194 C 0.19860 0.15155 0.52641
 C195 C 0.15572 0.19465 0.52633
 C196 C 0.19539 0.14847 0.46936
 O197 O 0.14486 0.82184 0.51853
 O198 O 0.17910 0.85333 0.47739
 O199 O 0.14719 0.82173 0.47574
 O200 O 0.17640 0.85358 0.52021
 O201 O 0.20329 0.82669 0.52179
 O202 O 0.17358 0.79433 0.47748
 O203 O 0.20596 0.82641 0.47903
 O204 O 0.17140 0.79460 0.52015
 Cu205 Cu 0.15923 0.84034 0.49776
 Cu206 Cu 0.19127 0.80779 0.49972
 C207 C 0.15223 0.80286 0.52639
 C208 C 0.19842 0.84538 0.47126
 C209 C 0.15519 0.80251 0.46915
 C210 C 0.19479 0.84563 0.52864
 O211 O 0.85103 0.18105 0.51449
 O212 O 0.82301 0.14589 0.47142
 O213 O 0.85369 0.17978 0.47183
 O214 O 0.82138 0.14706 0.51350
 O215 O 0.79362 0.17313 0.51248
 O216 O 0.82490 0.20448 0.46853
 O217 O 0.79453 0.17111 0.46953
 O218 O 0.82365 0.20728 0.51133
 Cu219 Cu 0.84019 0.16098 0.49293
 Cu220 Cu 0.80635 0.19159 0.49028
 C221 C 0.84231 0.20033 0.52007
 C222 C 0.80369 0.15218 0.46358
 C223 C 0.84489 0.19768 0.46308
 C224 C 0.80196 0.15436 0.52000
 O225 O 0.48616 0.87051 0.83380
 O226 O 0.53008 0.83669 0.86327
 O227 O 0.53071 0.86762 0.83264
 O228 O 0.48548 0.83903 0.86527
 O229 O 0.48209 0.81167 0.84003
 O230 O 0.52760 0.84031 0.80734
 O231 O 0.52689 0.80887 0.83848
 O232 O 0.48281 0.84271 0.80898
 Cu233 Cu 0.50823 0.85624 0.85128
 Cu234 Cu 0.50456 0.82311 0.82119
 C235 C 0.47720 0.86253 0.81622
 C236 C 0.53603 0.81702 0.85591
 C237 C 0.53692 0.85888 0.81442
 C238 C 0.47626 0.82035 0.85840
 O239 O 0.51709 0.17581 0.14219
 O240 O 0.47543 0.14872 0.17986
 O241 O 0.47292 0.17838 0.14793
 O242 O 0.51958 0.14548 0.17451
 O243 O 0.52556 0.17425 0.19786
 O244 O 0.47851 0.20702 0.17147
 O245 O 0.48124 0.17689 0.20386
 O246 O 0.52292 0.20413 0.16605
 Cu247 Cu 0.49581 0.15923 0.15873
 Cu248 Cu 0.50253 0.19346 0.18720
 C249 C 0.52695 0.19470 0.14758
 C250 C 0.47133 0.15805 0.19837
 C251 C 0.46780 0.19839 0.15507
 C252 C 0.53039 0.15414 0.19081
 O253 O 0.52129 0.13881 0.83110
 O254 O 0.47407 0.16972 0.85909
 O255 O 0.47679 0.13744 0.82894
 O256 O 0.51846 0.16961 0.86252
 O257 O 0.52157 0.19627 0.83657
 O258 O 0.47641 0.16566 0.80436
 O259 O 0.47688 0.19788 0.83463
 O260 O 0.52121 0.16542 0.80499
 Cu261 Cu 0.49750 0.15114 0.84794
 Cu262 Cu 0.49916 0.18406 0.81759
 C263 C 0.52888 0.14660 0.81290
 C264 C 0.46788 0.18946 0.85191
 C265 C 0.46946 0.14592 0.81098
 C266 C 0.52715 0.18838 0.85541
 O267 O 0.47844 0.81526 0.14871
 O268 O 0.52549 0.84322 0.17998
 O269 O 0.52327 0.81281 0.14844
 O270 O 0.48089 0.84594 0.18046
 O271 O 0.47829 0.81722 0.20437
 O272 O 0.52221 0.78489 0.17325
 O273 O 0.52324 0.81568 0.20512
 O274 O 0.47768 0.78664 0.17282
 Cu275 Cu 0.50213 0.83212 0.16193
 Cu276 Cu 0.50025 0.79832 0.19140
 C277 C 0.47032 0.79593 0.15520
 C278 C 0.53217 0.83441 0.19808
 C279 C 0.52995 0.79315 0.15531
 C280 C 0.47236 0.83726 0.19787
 O281 O 0.85015 0.52318 0.81487
 O282 O 0.82558 0.47608 0.84831
 O283 O 0.85435 0.47840 0.81526
 O284 O 0.82122 0.52093 0.84747
 O285 O 0.79247 0.51795 0.82372
 O286 O 0.82474 0.47393 0.79266
 O287 O 0.79604 0.47346 0.82542
 O288 O 0.82184 0.51907 0.79079
 Cu289 Cu 0.84074 0.49997 0.83381
 Cu290 Cu 0.80591 0.49586 0.80571
 C291 C 0.84041 0.52894 0.79694
 C292 C 0.80639 0.46702 0.84284
 C293 C 0.84513 0.46880 0.79856
 C294 C 0.80109 0.52658 0.84118
 O295 O 0.17630 0.48211 0.14135
 O296 O 0.14291 0.52539 0.17221
 O297 O 0.17277 0.52714 0.14018
 O298 O 0.14541 0.48057 0.17218
 O299 O 0.17242 0.48392 0.19770
 O300 O 0.20157 0.52858 0.16402
 O301 O 0.17170 0.52909 0.19587
 O302 O 0.20375 0.48390 0.16656
 Cu303 Cu 0.15657 0.50359 0.15398
 Cu304 Cu 0.19014 0.50656 0.18356
 C305 C 0.19576 0.47559 0.14872
 C306 C 0.15172 0.53472 0.18926
 C307 C 0.19200 0.53556 0.14637
 C308 C 0.15394 0.47455 0.19058
 O309 O 0.85117 0.47930 0.18087
 O310 O 0.81732 0.52418 0.15289
 O311 O 0.84784 0.52414 0.18413
 O312 O 0.81978 0.47962 0.14976
 O313 O 0.79346 0.47423 0.17550
 O314 O 0.81995 0.52081 0.20859
 O315 O 0.78917 0.51923 0.17685
 O316 O 0.82452 0.47637 0.20661
 Cu317 Cu 0.83681 0.50213 0.16444
 Cu318 Cu 0.80395 0.49728 0.19435
 C319 C 0.84394 0.47055 0.19878
 C320 C 0.79732 0.52913 0.15982
 C321 C 0.83868 0.53012 0.20224
 C322 C 0.80185 0.46933 0.15679
 O323 O 0.13543 0.47184 0.82969
 O324 O 0.16426 0.51867 0.86078
 O325 O 0.13288 0.51645 0.82950
 O326 O 0.16560 0.47332 0.86103
 O327 O 0.19329 0.47429 0.83618
 O328 O 0.16095 0.51881 0.80510
 O329 O 0.19230 0.51934 0.83631
 O330 O 0.16268 0.47381 0.80445
 Cu331 Cu 0.14684 0.49510 0.84782
 Cu332 Cu 0.18011 0.49675 0.81806
 C333 C 0.14402 0.46502 0.81160
 C334 C 0.18341 0.52677 0.85402
 C335 C 0.14104 0.52469 0.81175
 C336 C 0.18484 0.46616 0.85390
 C337 C 0.25827 0.35156 0.04551
 C338 C 0.24523 0.36551 0.05948
 C339 C 0.25570 0.38351 0.07132
 C340 C 0.27951 0.38746 0.06906
 C341 C 0.29255 0.37371 0.05484
 C342 C 0.28203 0.35564 0.04289
 N343 N 0.24165 0.39791 0.08493
 N344 N 0.25027 0.41250 0.09837
 C345 C 0.23611 0.42746 0.11133
 C346 C 0.24632 0.44056 0.12814
 C347 C 0.23310 0.45585 0.14064
 C348 C 0.20944 0.45854 0.13624
 C349 C 0.19919 0.44530 0.11939
 C350 C 0.21238 0.42977 0.10711
 H351 H 0.24965 0.33786 0.03643
 H352 H 0.22688 0.36237 0.06103
 H353 H 0.28796 0.40138 0.07798
 H354 H 0.31082 0.37724 0.05318
 H355 H 0.26460 0.43897 0.13149
 H356 H 0.24151 0.46591 0.15343
 H357 H 0.18100 0.44698 0.11565
 H358 H 0.20412 0.41990 0.09410
 C359 C 0.73588 0.64743 0.05033
 C360 C 0.74823 0.63541 0.06646
 C361 C 0.73782 0.61734 0.07820
 C362 C 0.71474 0.61141 0.07373
 C363 C 0.70245 0.62321 0.05740
 C364 C 0.71294 0.64127 0.04545
 N365 N 0.75138 0.60455 0.09369
 N366 N 0.74260 0.58965 0.10669
 C367 C 0.75663 0.57601 0.12114
 C368 C 0.74603 0.56164 0.13673
 C369 C 0.75928 0.54692 0.14996
 C370 C 0.78336 0.54614 0.14749
 C371 C 0.79397 0.56095 0.13213
 C372 C 0.78076 0.57583 0.11916
 H373 H 0.74445 0.66121 0.04136
 H374 H 0.76604 0.64004 0.06969
 H375 H 0.70638 0.59738 0.08251
 H376 H 0.68477 0.61814 0.05407
 H377 H 0.72744 0.56158 0.13836
 H378 H 0.75063 0.53563 0.16159
 H379 H 0.81250 0.56080 0.12992
 H380 H 0.78937 0.58672 0.10718
 C381 C 0.69479 0.37752 0.93888
 C382 C 0.70625 0.39024 0.92266
 C383 C 0.73005 0.38796 0.91986
 C384 C 0.74232 0.37231 0.93316
 C385 C 0.73082 0.35930 0.94919
 C386 C 0.70697 0.36198 0.95237
 N387 N 0.74132 0.40209 0.90376
 N388 N 0.76317 0.40368 0.90248
 C389 C 0.77405 0.41828 0.88649
 C390 C 0.79762 0.42319 0.88856
 C391 C 0.80833 0.43875 0.87414
 C392 C 0.79562 0.44935 0.85717
 C393 C 0.77215 0.44374 0.85466
 C394 C 0.76141 0.42846 0.86926
 H395 H 0.67639 0.37984 0.94085
 H396 H 0.69663 0.40223 0.91248
 H397 H 0.76075 0.37021 0.93121
 H398 H 0.74064 0.34747 0.95937
 H399 H 0.80754 0.41542 0.90175
 H400 H 0.82646 0.44267 0.87642
 H401 H 0.76190 0.45166 0.84178
 H402 H 0.74319 0.42482 0.86725
 C403 C 0.30231 0.62384 0.93690
 C404 C 0.29006 0.60931 0.92256
 C405 C 0.26612 0.61136 0.92037
 C406 C 0.25456 0.62868 0.93221
 C407 C 0.26683 0.64347 0.94629
 C408 C 0.29079 0.64099 0.94902
 N409 N 0.25395 0.59539 0.90644
 N410 N 0.23206 0.59356 0.90666
 C411 C 0.21999 0.57742 0.89281
 C412 C 0.19655 0.57314 0.89661
 C413 C 0.18453 0.55676 0.88396
 C414 C 0.19575 0.54466 0.86702
 C415 C 0.21917 0.54939 0.86294
 C416 C 0.23123 0.56551 0.87579
 H417 H 0.32076 0.62157 0.93861
 H418 H 0.29916 0.59607 0.91347
 H419 H 0.23607 0.63068 0.93070
 H420 H 0.25746 0.65645 0.95547
 H421 H 0.18769 0.58223 0.90966
 H422 H 0.16649 0.55355 0.88744
 H423 H 0.22832 0.54032 0.85005
 H424 H 0.24931 0.56860 0.87247
 C425 C 0.06672 0.31334 0.38144
 C426 C 0.08234 0.30052 0.39400
 C427 C 0.08358 0.27645 0.39160
 C428 C 0.06955 0.26532 0.37588
 C429 C 0.05419 0.27817 0.36303
 C430 C 0.05236 0.30227 0.36595
 N431 N 0.09865 0.26373 0.40580
 N432 N 0.09761 0.24176 0.40749
 C433 C 0.11250 0.22928 0.42208
 C434 C 0.10767 0.20598 0.42660
 C435 C 0.12107 0.19373 0.44180
 C436 C 0.13980 0.20458 0.45244
 C437 C 0.14500 0.22780 0.44738
 C438 C 0.13139 0.24010 0.43244
 H439 H 0.06577 0.33190 0.38395
 H440 H 0.09311 0.30927 0.40603
 H441 H 0.07032 0.24672 0.37368
 H442 H 0.04328 0.26919 0.35126
 H443 H 0.09316 0.19746 0.41869
 H444 H 0.11673 0.17583 0.44529
 H445 H 0.15929 0.23663 0.45534
 H446 H 0.13552 0.25808 0.42913
 C447 C 0.05929 0.68718 0.61772
 C448 C 0.07524 0.69809 0.60386
 C449 C 0.07955 0.72189 0.60578
 C450 C 0.06831 0.73461 0.62227
 C451 C 0.05266 0.72369 0.63633
 C452 C 0.04771 0.69994 0.63399
 N453 N 0.09478 0.73295 0.59046
 N454 N 0.09571 0.75492 0.58879
 C455 C 0.11054 0.76651 0.57352
 C456 C 0.10738 0.79021 0.56988
 C457 C 0.12095 0.80202 0.55456
 C458 C 0.13824 0.79034 0.54287
 C459 C 0.14175 0.76661 0.54689
 C460 C 0.12787 0.75471 0.56199
 H461 H 0.05590 0.66884 0.61560
 H462 H 0.08382 0.68810 0.59124
 H463 H 0.07147 0.75301 0.62418
 H464 H 0.04399 0.73400 0.64867
 H465 H 0.09410 0.79947 0.57872
 H466 H 0.11795 0.82033 0.55191
 H467 H 0.15493 0.75717 0.53808
 H468 H 0.13067 0.73638 0.56464
 C469 C 0.94138 0.69398 0.38125
 C470 C 0.92623 0.70638 0.39457
 C471 C 0.92471 0.73047 0.39272
 C472 C 0.93814 0.74211 0.37693
 C473 C 0.95308 0.72968 0.36334
 C474 C 0.95503 0.70551 0.36557
 N475 N 0.90972 0.74264 0.40734
 N476 N 0.90996 0.76461 0.40906
 C477 C 0.89500 0.77643 0.42399
 C478 C 0.89865 0.80002 0.42808
 C479 C 0.88498 0.81176 0.44334
 C480 C 0.86719 0.80006 0.45452
 C481 C 0.86324 0.77648 0.45000
 C482 C 0.87710 0.76472 0.43497
 H483 H 0.94241 0.67536 0.38325
 H484 H 0.91591 0.69724 0.40665
 H485 H 0.93715 0.76075 0.37516
 H486 H 0.96342 0.73901 0.35142
 H487 H 0.91237 0.80923 0.41970
 H488 H 0.88835 0.82995 0.44640
 H489 H 0.84970 0.76699 0.45838
 H490 H 0.87388 0.74648 0.43200
 C491 C 0.94595 0.26740 0.64008
 C492 C 0.93060 0.25443 0.62724
 C493 C 0.91986 0.26434 0.60890
 C494 C 0.92446 0.28762 0.60358
 C495 C 0.94011 0.30056 0.61624
 C496 C 0.95114 0.29051 0.63454
 N497 N 0.90540 0.25000 0.59538
 N498 N 0.89258 0.25814 0.58022
 C499 C 0.87924 0.24325 0.56617
 C500 C 0.86244 0.25289 0.55238
 C501 C 0.84990 0.23885 0.53781
 C502 C 0.85433 0.21495 0.53653
 C503 C 0.87108 0.20529 0.55051
 C504 C 0.88332 0.21927 0.56531
 H505 H 0.95424 0.25911 0.65399
 H506 H 0.92726 0.23648 0.63144
 H507 H 0.91645 0.29559 0.58936
 H508 H 0.94375 0.31833 0.61159
 H509 H 0.85920 0.27136 0.55282
 H510 H 0.83719 0.24679 0.52714
 H511 H 0.87483 0.18692 0.54992
 H512 H 0.89632 0.21141 0.57571
 C513 C 0.35763 0.04944 0.27367
 C514 C 0.36870 0.06535 0.25991
 C515 C 0.38713 0.07873 0.26777
 C516 C 0.39427 0.07627 0.28979
 C517 C 0.38339 0.06015 0.30354
 C518 C 0.36508 0.04642 0.29555
 N519 N 0.39909 0.09357 0.25273
 N520 N 0.41443 0.10802 0.25895
 C521 C 0.42720 0.12163 0.24342
 C522 C 0.44185 0.13924 0.25108
 C523 C 0.45569 0.15172 0.23637
 C524 C 0.45530 0.14645 0.21375
 C525 C 0.44027 0.12904 0.20607
 C526 C 0.42625 0.11683 0.22074
 H527 H 0.34364 0.03908 0.26700
 H528 H 0.36313 0.06702 0.24294
 H529 H 0.40859 0.08635 0.29619
 H530 H 0.38947 0.05826 0.32032
 H531 H 0.44281 0.14305 0.26853
 H532 H 0.46719 0.16496 0.24276
 H533 H 0.43954 0.12465 0.18874
 H534 H 0.41513 0.10323 0.21440
 C535 C 0.61887 0.06124 0.69487
 C536 C 0.60468 0.07571 0.70731
 C537 C 0.60853 0.07853 0.72993
 C538 C 0.62718 0.06717 0.73996
 C539 C 0.64160 0.05301 0.72749
 C540 C 0.63744 0.04969 0.70487
 N541 N 0.59315 0.09273 0.74237
 N542 N 0.59303 0.09265 0.76334
 C543 C 0.57762 0.10690 0.77569
 C544 C 0.57468 0.10262 0.79821
 C545 C 0.55898 0.11562 0.81048
 C546 C 0.54628 0.13343 0.80041
 C547 C 0.54974 0.13807 0.77792
 C548 C 0.56514 0.12484 0.76562
 H549 H 0.61530 0.05906 0.67747
 H550 H 0.59038 0.08444 0.69940
 H551 H 0.63057 0.06920 0.75740
 H552 H 0.65573 0.04426 0.73567
 H553 H 0.58426 0.08887 0.80616
 H554 H 0.55672 0.11170 0.82779
 H555 H 0.54014 0.15162 0.76967
 H556 H 0.56722 0.12857 0.74827
 C557 C 0.34819 0.93676 0.72535
 C558 C 0.36129 0.92240 0.73906
 C559 C 0.38517 0.92564 0.74084
 C560 C 0.39600 0.94286 0.72813
 C561 C 0.38303 0.95674 0.71394
 C562 C 0.35899 0.95402 0.71266
 N563 N 0.39816 0.91132 0.75553
 N564 N 0.41717 0.91833 0.76376
 C565 C 0.43103 0.90403 0.77772
 C566 C 0.44759 0.91452 0.79129
 C567 C 0.46207 0.90102 0.80445
 C568 C 0.46061 0.87672 0.80371
 C569 C 0.44395 0.86619 0.79009
 C570 C 0.42907 0.87975 0.77736
 H571 H 0.32968 0.93432 0.72456
 H572 H 0.35279 0.90910 0.74870
 H573 H 0.41448 0.94547 0.72909
 H574 H 0.39170 0.97002 0.70440
 H575 H 0.44931 0.93322 0.79160
 H576 H 0.47490 0.90954 0.81466
 H577 H 0.44251 0.84748 0.78924
 H578 H 0.41650 0.87130 0.76682
 C579 C 0.65432 0.94445 0.26022
 C580 C 0.64188 0.92848 0.24750
 C581 C 0.62456 0.91486 0.25705
 C582 C 0.62004 0.91710 0.27968
 C583 C 0.63225 0.93327 0.29236
 C584 C 0.64935 0.94731 0.28271
 N585 N 0.61093 0.90002 0.24323
 N586 N 0.59662 0.88541 0.25104
 C587 C 0.58193 0.87167 0.23715
 C588 C 0.56879 0.85385 0.24654
 C589 C 0.55311 0.84119 0.23370
 C590 C 0.55007 0.84646 0.21126
 C591 C 0.56357 0.86413 0.20180
 C592 C 0.57946 0.87655 0.21459
 H593 H 0.66731 0.95508 0.25228
 H594 H 0.64546 0.92698 0.23006
 H595 H 0.60664 0.90684 0.28741
 H596 H 0.62807 0.93503 0.30965
 H597 H 0.57046 0.85000 0.26393
 H598 H 0.54289 0.82775 0.24148
 H599 H 0.56166 0.86854 0.18455
 H600 H 0.58934 0.89034 0.20697
 C601 C 0.34613 0.25678 0.95495
 C602 C 0.35914 0.24278 0.94097
 C603 C 0.37781 0.25208 0.92937
 C604 C 0.38342 0.27567 0.93193
 C605 C 0.37065 0.28961 0.94618
 C606 C 0.35189 0.28029 0.95785
 N607 N 0.39122 0.23716 0.91566
 N608 N 0.40589 0.24519 0.90208
 C609 C 0.42015 0.23052 0.88895
 C610 C 0.43320 0.24051 0.87210
 C611 C 0.44820 0.22699 0.85964
 C612 C 0.45066 0.20320 0.86409
 C613 C 0.43733 0.19311 0.88089
 C614 C 0.42207 0.20664 0.89315
 H615 H 0.33185 0.24908 0.96384
 H616 H 0.35472 0.22461 0.93921
 H617 H 0.39788 0.28322 0.92322
 H618 H 0.37546 0.30767 0.94807
 H619 H 0.43192 0.25890 0.86877
 H620 H 0.45832 0.23531 0.84691
 H621 H 0.43886 0.17484 0.88468
 H622 H 0.41220 0.19857 0.90620
 C623 C 0.62622 0.69454 0.93994
 C624 C 0.61264 0.70677 0.92488
 C625 C 0.61650 0.73043 0.92132
 C626 C 0.63471 0.74162 0.93242
 C627 C 0.64851 0.72935 0.94725
 C628 C 0.64415 0.70578 0.95145
 N629 N 0.60116 0.74287 0.90712
 N630 N 0.60126 0.76490 0.90630
 C631 C 0.58564 0.77763 0.89264
 C632 C 0.58398 0.80159 0.89560
 C633 C 0.56798 0.81443 0.88352
 C634 C 0.55358 0.80349 0.86797
 C635 C 0.55573 0.77950 0.86455
 C636 C 0.57153 0.76661 0.87691
 H637 H 0.62253 0.67636 0.94275
 H638 H 0.59868 0.69795 0.91640
 H639 H 0.63810 0.75989 0.92986
 H640 H 0.66217 0.73849 0.95589
 H641 H 0.59479 0.81026 0.90766
 H642 H 0.56682 0.83291 0.88642
 H643 H 0.54483 0.77062 0.85270
 H644 H 0.57259 0.74809 0.87429
 C645 C 0.35097 0.73864 0.04261
 C646 C 0.36352 0.75171 0.05799
 C647 C 0.38057 0.74125 0.07093
 C648 C 0.38496 0.71747 0.06835
 C649 C 0.37272 0.70450 0.05277
 C650 C 0.35567 0.71495 0.03968
 N651 N 0.39384 0.75515 0.08592
 N652 N 0.40687 0.74598 0.10036
 C653 C 0.42131 0.75934 0.11476
 C654 C 0.43248 0.74809 0.13214
 C655 C 0.44788 0.76018 0.14570
 C656 C 0.45265 0.78375 0.14185
 C657 C 0.44115 0.79514 0.12455
 C658 C 0.42548 0.78306 0.11117
 H659 H 0.33800 0.74717 0.03266
 H660 H 0.36004 0.77004 0.05975
 H661 H 0.39816 0.70900 0.07806
 H662 H 0.37666 0.68627 0.05092
 H663 H 0.42947 0.72980 0.13500
 H664 H 0.45653 0.75088 0.15881
 H665 H 0.44445 0.81329 0.12121
 H666 H 0.41712 0.79208 0.09772
 C667 C 0.65286 0.27968 0.06108
 C668 C 0.64050 0.26659 0.07649
 C669 C 0.61641 0.26537 0.07534
 C670 C 0.60468 0.27800 0.05904
 C671 C 0.61696 0.29162 0.04406
 C672 C 0.64116 0.29236 0.04479
 N673 N 0.60409 0.25145 0.09092
 N674 N 0.58428 0.24314 0.08637
 C675 C 0.57108 0.23012 0.10198
 C676 C 0.55331 0.21571 0.09433
 C677 C 0.53945 0.20352 0.10918
 C678 C 0.54277 0.20615 0.13198
 C679 C 0.56062 0.22063 0.13965
 C680 C 0.57488 0.23233 0.12475
 H681 H 0.67152 0.28008 0.06199
 H682 H 0.64971 0.25702 0.08907
 H683 H 0.58604 0.27748 0.05803
 H684 H 0.60758 0.30116 0.03157
 H685 H 0.55017 0.21399 0.07681
 H686 H 0.52568 0.19263 0.10287
 H687 H 0.56350 0.22292 0.15715
 H688 H 0.58840 0.24357 0.13099
 C689 C 0.26334 0.04448 0.64481
 C690 C 0.25006 0.05907 0.63157
 C691 C 0.26029 0.07173 0.61455
 C692 C 0.28411 0.06969 0.61084
 C693 C 0.29739 0.05484 0.62389
 C694 C 0.28711 0.04204 0.64098
 N695 N 0.24598 0.08586 0.60083
 N696 N 0.25431 0.10011 0.58695
 C697 C 0.23984 0.11348 0.57269
 C698 C 0.24972 0.13118 0.56006
 C699 C 0.23620 0.14396 0.54538
 C700 C 0.21258 0.13896 0.54288
 C701 C 0.20266 0.12126 0.55569
 C702 C 0.21614 0.10870 0.57057
 H703 H 0.25489 0.03476 0.65777
 H704 H 0.23170 0.06044 0.63451
 H705 H 0.29236 0.07923 0.59767
 H706 H 0.31566 0.05333 0.62058
 H707 H 0.26797 0.13496 0.56150
 H708 H 0.24435 0.15741 0.53565
 H709 H 0.18450 0.11704 0.55414
 H710 H 0.20813 0.09501 0.58010
 C711 C 0.72611 0.06123 0.33967
 C712 C 0.73801 0.07784 0.35209
 C713 C 0.73339 0.08046 0.37453
 C714 C 0.71582 0.06719 0.38424
 C715 C 0.70325 0.05118 0.37167
 C716 C 0.70865 0.04752 0.34932
 N717 N 0.74708 0.09620 0.38731
 N718 N 0.75242 0.09154 0.40716
 C719 C 0.76574 0.10709 0.42050
 C720 C 0.77887 0.09803 0.43782
 C721 C 0.79190 0.11272 0.45132
 C722 C 0.79132 0.13682 0.44814
 C723 C 0.77793 0.14596 0.43091
 C724 C 0.76549 0.13115 0.41693
 H725 H 0.73065 0.05915 0.32248
 H726 H 0.75146 0.08809 0.34442
 H727 H 0.71186 0.06922 0.40155
 H728 H 0.68994 0.04106 0.37974
 H729 H 0.77910 0.07952 0.44076
 H730 H 0.80186 0.10533 0.46468
 H731 H 0.77718 0.16451 0.42825
 H732 H 0.75526 0.13847 0.40373
 C733 C 0.73778 0.95938 0.64338
 C734 C 0.75174 0.94486 0.63078
 C735 C 0.74215 0.93119 0.61404
 C736 C 0.71827 0.93206 0.61006
 C737 C 0.70433 0.94682 0.62244
 C738 C 0.71396 0.96072 0.63915
 N739 N 0.75707 0.91734 0.60075
 N740 N 0.74931 0.90231 0.58726
 C741 C 0.76420 0.88928 0.57320
 C742 C 0.75503 0.87066 0.56123
 C743 C 0.76887 0.85822 0.54665
 C744 C 0.79210 0.86451 0.54355
 C745 C 0.80131 0.88313 0.55570
 C746 C 0.78753 0.89534 0.57051
 H747 H 0.74571 0.96997 0.65607
 H748 H 0.77012 0.94439 0.63393
 H749 H 0.71048 0.92173 0.59712
 H750 H 0.68604 0.94745 0.61884
 H751 H 0.73705 0.86589 0.56311
 H752 H 0.76126 0.84402 0.53744
 H753 H 0.81915 0.88834 0.55369
 H754 H 0.79497 0.90977 0.57950
 C755 C 0.31957 0.93829 0.38647
 C756 C 0.30808 0.92243 0.40009
 C757 C 0.28488 0.91684 0.39622
 C758 C 0.27348 0.92670 0.37807
 C759 C 0.28498 0.94226 0.36432
 C760 C 0.30804 0.94851 0.36853
 N761 N 0.27298 0.90181 0.41121
 N762 N 0.25110 0.90000 0.41073
 C763 C 0.23840 0.88545 0.42549
 C764 C 0.21448 0.88809 0.42659
 C765 C 0.20148 0.87495 0.44138
 C766 C 0.21221 0.85856 0.45507
 C767 C 0.23620 0.85547 0.45356
 C768 C 0.24926 0.86897 0.43899
 H769 H 0.33735 0.94271 0.39008
 H770 H 0.31708 0.91493 0.41401
 H771 H 0.25560 0.92256 0.37462
 H772 H 0.27559 0.94982 0.35066
 H773 H 0.20594 0.90069 0.41620
 H774 H 0.18302 0.87760 0.44209
 H775 H 0.24490 0.84300 0.46398
 H776 H 0.26775 0.86658 0.43831
 C777 C 0.06198 0.37384 0.69134
 C778 C 0.07741 0.38705 0.70393
 C779 C 0.07914 0.38359 0.72668
 C780 C 0.06589 0.36607 0.73667
 C781 C 0.05070 0.35262 0.72405
 C782 C 0.04828 0.35665 0.70132
 N783 N 0.09366 0.39869 0.73937
 N784 N 0.09288 0.39917 0.76031
 C785 C 0.10687 0.41471 0.77307
 C786 C 0.10214 0.41734 0.79551
 C787 C 0.11440 0.43350 0.80815
 C788 C 0.13190 0.44705 0.79855
 C789 C 0.13712 0.44385 0.77616
 C790 C 0.12460 0.42792 0.76347
 H791 H 0.06055 0.37728 0.67385
 H792 H 0.08756 0.40048 0.69605
 H793 H 0.06702 0.36299 0.75423
 H794 H 0.04034 0.33954 0.73222
 H795 H 0.08852 0.40724 0.80309
 H796 H 0.11007 0.43549 0.82538
 H797 H 0.15047 0.45408 0.76831
 H798 H 0.12862 0.42611 0.74615
 C799 C 0.03900 0.60925 0.29321
 C800 C 0.05219 0.59563 0.27911
 C801 C 0.06882 0.60583 0.26555
 C802 C 0.07203 0.62999 0.26602
 C803 C 0.05840 0.64374 0.27975
 C804 C 0.04182 0.63344 0.29351
 N805 N 0.08182 0.59127 0.25121
 N806 N 0.10091 0.59761 0.24284
 C807 C 0.11325 0.58265 0.22831
 C808 C 0.13720 0.58503 0.22652
 C809 C 0.14979 0.56951 0.21366
 C810 C 0.13844 0.55187 0.20184
 C811 C 0.11432 0.55012 0.20292
 C812 C 0.10183 0.56522 0.21627
 H813 H 0.02617 0.60090 0.30348
 H814 H 0.04954 0.57704 0.27880
 H815 H 0.08471 0.63821 0.25552
 H816 H 0.06084 0.66237 0.27967
 H817 H 0.14616 0.59845 0.23568
 H818 H 0.16838 0.57125 0.21297
 H819 H 0.10521 0.53661 0.19400
 H820 H 0.08328 0.56324 0.21727
 C821 C 0.94364 0.38954 0.31294
 C822 C 0.92697 0.40210 0.30136
 C823 C 0.92292 0.39768 0.27901
 C824 C 0.93540 0.38014 0.26839
 C825 C 0.95181 0.36735 0.28001
 C826 C 0.95626 0.37206 0.30235
 N827 N 0.90644 0.41148 0.26736
 N828 N 0.90493 0.41110 0.24645
 C829 C 0.88865 0.42500 0.23467
 C830 C 0.89132 0.42783 0.21194
 C831 C 0.87657 0.44239 0.20014
 C832 C 0.85858 0.45399 0.21090
 C833 C 0.85543 0.45048 0.23361
 C834 C 0.87046 0.43624 0.24546
 H835 H 0.94662 0.39348 0.33016
 H836 H 0.91743 0.41557 0.30971
 H837 H 0.93250 0.37634 0.25114
 H838 H 0.96129 0.35401 0.27140
 H839 H 0.90525 0.41919 0.20345
 H840 H 0.87934 0.44470 0.18264
 H841 H 0.84176 0.45927 0.24234
 H842 H 0.86798 0.43418 0.26302
 C843 C 0.94650 0.65005 0.72828
 C844 C 0.93065 0.63841 0.74167
 C845 C 0.91728 0.62021 0.73318
 C846 C 0.91964 0.61398 0.71093
 C847 C 0.93569 0.62538 0.69761
 C848 C 0.94947 0.64336 0.70621
 N849 N 0.90268 0.60734 0.74775
 N850 N 0.88826 0.59234 0.74074
 C851 C 0.87495 0.57824 0.75543
 C852 C 0.85747 0.56405 0.74682
 C853 C 0.84555 0.54860 0.76046
 C854 C 0.85127 0.54685 0.78292
 C855 C 0.86847 0.56150 0.79162
 C856 C 0.88013 0.57715 0.77803
 H857 H 0.95693 0.66377 0.73539
 H858 H 0.92907 0.64328 0.75882
 H859 H 0.90959 0.59987 0.70402
 H860 H 0.93754 0.61990 0.68064
 H861 H 0.85340 0.56466 0.72940
 H862 H 0.83245 0.53746 0.75329
 H863 H 0.87318 0.56060 0.80888
 H864 H 0.89366 0.58786 0.78506
 C865 C 0.73647 0.64693 0.94800
 C866 C 0.74953 0.63423 0.93295
 C867 C 0.74074 0.61382 0.92369
 C868 C 0.71866 0.60606 0.92979
 C869 C 0.70572 0.61848 0.94517
 C870 C 0.71442 0.63914 0.95450
 N871 N 0.75476 0.60099 0.90864
 N872 N 0.74646 0.58503 0.89645
 C873 C 0.76059 0.57153 0.88203
 C874 C 0.74997 0.55749 0.86614
 C875 C 0.76319 0.54340 0.85239
 C876 C 0.78732 0.54279 0.85462
 C877 C 0.79798 0.55702 0.87051
 C878 C 0.78475 0.57141 0.88400
 H879 H 0.74388 0.66267 0.95477
 H880 H 0.76655 0.64034 0.92844
 H881 H 0.71157 0.59022 0.92296
 H882 H 0.68886 0.61187 0.94966
 H883 H 0.73136 0.55737 0.86452
 H884 H 0.75446 0.53252 0.84042
 H885 H 0.81654 0.55692 0.87260
 H886 H 0.79335 0.58203 0.89626
 C887 C 0.29983 0.37388 0.94477
 C888 C 0.28868 0.38795 0.92938
 C889 C 0.26597 0.38321 0.92299
 C890 C 0.25474 0.36353 0.93150
 C891 C 0.26602 0.34910 0.94659
 C892 C 0.28858 0.35436 0.95382
 N893 N 0.25451 0.39909 0.90853
 N894 N 0.23272 0.39886 0.90598
 C895 C 0.22112 0.41508 0.89197
 C896 C 0.19720 0.41731 0.89378
 C897 C 0.18543 0.43387 0.88134
 C898 C 0.19739 0.44823 0.86650
 C899 C 0.22134 0.44554 0.86421
 C900 C 0.23317 0.42923 0.87701
 H901 H 0.31723 0.37849 0.94970
 H902 H 0.29754 0.40303 0.92288
 H903 H 0.23721 0.35942 0.92665
 H904 H 0.25676 0.33424 0.95305
 H905 H 0.18772 0.40650 0.90522
 H906 H 0.16695 0.43543 0.88333
 H907 H 0.23098 0.45639 0.85292
 H908 H 0.25168 0.42774 0.87527
 C909 C 0.30344 0.62270 0.04794
 C910 C 0.29220 0.60920 0.06373
 C911 C 0.26977 0.61452 0.07028
 C912 C 0.25878 0.63401 0.06128
 C913 C 0.27016 0.64787 0.04577
 C914 C 0.29257 0.64223 0.03865
 N915 N 0.25850 0.59961 0.08577
 N916 N 0.23687 0.60032 0.08913
 C917 C 0.22584 0.58505 0.10449
 C918 C 0.20188 0.58222 0.10350
 C919 C 0.19080 0.56629 0.11728
 C920 C 0.20351 0.55328 0.13263
 C921 C 0.22748 0.55674 0.13413
 C922 C 0.23859 0.57234 0.12004
 H923 H 0.32069 0.61778 0.04308
 H924 H 0.30084 0.59424 0.07060
 H925 H 0.24146 0.63852 0.06623
 H926 H 0.26119 0.66274 0.03909
 H927 H 0.19187 0.59195 0.09162
 H928 H 0.17229 0.56407 0.11585
 H929 H 0.23771 0.54690 0.14577
 H930 H 0.25713 0.57435 0.12120
 C931 C 0.69793 0.38899 0.04648
 C932 C 0.70997 0.40359 0.06086
 C933 C 0.72926 0.39553 0.07232
 C934 C 0.73668 0.37267 0.06908
 C935 C 0.72514 0.35822 0.05414
 C936 C 0.70554 0.36618 0.04262
 N937 N 0.74155 0.41114 0.08645
 N938 N 0.75329 0.40415 0.10288
 C939 C 0.76615 0.42016 0.11613
 C940 C 0.76890 0.41587 0.13869
 C941 C 0.78049 0.43192 0.15206
 C942 C 0.79027 0.45198 0.14280
 C943 C 0.78822 0.45582 0.12005
 C944 C 0.77594 0.44020 0.10686
 H945 H 0.68303 0.39586 0.03793
 H946 H 0.70418 0.42124 0.06318
 H947 H 0.75174 0.36623 0.07767
 H948 H 0.73153 0.34080 0.05170
 H949 H 0.76148 0.40043 0.14599
 H950 H 0.78196 0.42862 0.16958
 H951 H 0.79554 0.47124 0.11262
 H952 H 0.77419 0.44366 0.08940
 C953 C 0.94433 0.69393 0.61562
 C954 C 0.92924 0.70614 0.60193
 C955 C 0.92423 0.72939 0.60615
 C956 C 0.93398 0.74023 0.62471
 C957 C 0.94876 0.72794 0.63870
 C958 C 0.95442 0.70467 0.63418
 N959 N 0.90946 0.74158 0.59119
 N960 N 0.90763 0.76356 0.59134
 C961 C 0.89289 0.77550 0.57616
 C962 C 0.89532 0.79951 0.57367
 C963 C 0.88193 0.81148 0.55823
 C964 C 0.86553 0.79963 0.54530
 C965 C 0.86270 0.77561 0.54825
 C966 C 0.87637 0.76361 0.56341
 H967 H 0.94807 0.67606 0.61156
 H968 H 0.92176 0.69758 0.58771
 H969 H 0.93021 0.75818 0.62838
 H970 H 0.95608 0.73686 0.65280
 H971 H 0.90796 0.80889 0.58342
 H972 H 0.88442 0.83000 0.55639
 H973 H 0.85025 0.76599 0.53849
 H974 H 0.87408 0.74506 0.56512
 C975 C 0.95513 0.31036 0.39066
 C976 C 0.94036 0.29725 0.40391
 C977 C 0.92855 0.27814 0.39525
 C978 C 0.93175 0.27205 0.37310
 C979 C 0.94713 0.28468 0.35994
 C980 C 0.95910 0.30402 0.36857
 N981 N 0.91442 0.26451 0.40960
 N982 N 0.89737 0.25256 0.40269
 C983 C 0.88441 0.23829 0.41750
 C984 C 0.86077 0.23481 0.41391
 C985 C 0.84772 0.22167 0.42879
 C986 C 0.85842 0.21109 0.44696
 C987 C 0.88226 0.21397 0.45011
 C988 C 0.89510 0.22774 0.43568
 H989 H 0.96400 0.32502 0.39802
 H990 H 0.93809 0.30202 0.42102
 H991 H 0.92292 0.25715 0.36619
 H992 H 0.94961 0.27925 0.34304
 H993 H 0.85236 0.24279 0.39989
 H994 H 0.82936 0.21959 0.42604
 H995 H 0.89084 0.20607 0.46408
 H996 H 0.91340 0.23003 0.43860
 C997 C 0.05032 0.26390 0.64414
 C998 C 0.06549 0.25002 0.63211
 C999 C 0.07579 0.25842 0.61286
 C1000 C 0.07072 0.28098 0.60570
 C1001 C 0.05525 0.29473 0.61743
 C1002 C 0.04472 0.28638 0.63680
 N1003 N 0.09054 0.24352 0.60039
 N1004 N 0.10360 0.25136 0.58527
 C1005 C 0.11748 0.23659 0.57181
 C1006 C 0.13443 0.24658 0.55842
 C1007 C 0.14739 0.23285 0.54412
 C1008 C 0.14325 0.20887 0.54268
 C1009 C 0.12636 0.19882 0.55630
 C1010 C 0.11370 0.21253 0.57088
 H1011 H 0.04262 0.25677 0.65891
 H1012 H 0.06919 0.23262 0.63776
 H1013 H 0.07834 0.28781 0.59078
 H1014 H 0.05153 0.31191 0.61120
 H1015 H 0.13743 0.26511 0.55891
 H1016 H 0.16017 0.24110 0.53375
 H1017 H 0.12283 0.18038 0.55557
 H1018 H 0.10057 0.20444 0.58097
 C1019 C 0.05775 0.68611 0.38358
 C1020 C 0.07424 0.69696 0.39700
 C1021 C 0.08207 0.71935 0.39211
 C1022 C 0.07391 0.73049 0.37308
 C1023 C 0.05772 0.71958 0.35946
 C1024 C 0.04902 0.69741 0.36474
 N1025 N 0.09748 0.73081 0.40710
 N1026 N 0.10111 0.75255 0.40596
 C1027 C 0.11595 0.76461 0.42100
 C1028 C 0.11476 0.78880 0.42191
 C1029 C 0.12778 0.80114 0.43738
 C1030 C 0.14264 0.78948 0.45191
 C1031 C 0.14448 0.76524 0.45046
 C1032 C 0.13105 0.75284 0.43524
 H1033 H 0.05167 0.66900 0.38817
 H1034 H 0.08045 0.68817 0.41161
 H1035 H 0.07984 0.74774 0.36884
 H1036 H 0.05161 0.72888 0.34508
 H1037 H 0.10323 0.79804 0.41098
 H1038 H 0.12613 0.81982 0.43807
 H1039 H 0.15574 0.75583 0.46153
 H1040 H 0.13232 0.73413 0.43473
 C1041 C 0.62735 0.94184 0.69485
 C1042 C 0.61452 0.92601 0.70726
 C1043 C 0.61815 0.92402 0.72996
 C1044 C 0.63555 0.93740 0.74006
 C1045 C 0.64865 0.95301 0.72760
 C1046 C 0.64434 0.95573 0.70495
 N1047 N 0.60321 0.90923 0.74248
 N1048 N 0.60292 0.90964 0.76343
 C1049 C 0.58740 0.89557 0.77603
 C1050 C 0.58528 0.89985 0.79860
 C1051 C 0.56909 0.88770 0.81113
 C1052 C 0.55490 0.87074 0.80131
 C1053 C 0.55757 0.86590 0.77877
 C1054 C 0.57359 0.87833 0.76617
 H1055 H 0.62372 0.94347 0.67741
 H1056 H 0.60119 0.91577 0.69929
 H1057 H 0.63874 0.93608 0.75759
 H1058 H 0.66159 0.96352 0.73583
 H1059 H 0.59583 0.91307 0.80638
 H1060 H 0.56754 0.89171 0.82849
 H1061 H 0.54687 0.85296 0.77076
 H1062 H 0.57497 0.87467 0.74874
 C1063 C 0.39829 0.95541 0.29809
 C1064 C 0.41198 0.94123 0.28493
 C1065 C 0.40196 0.92374 0.27210
 C1066 C 0.37789 0.92069 0.27233
 C1067 C 0.36407 0.93533 0.28506
 C1068 C 0.37419 0.95277 0.29812
 N1069 N 0.41659 0.90990 0.25852
 N1070 N 0.41063 0.89005 0.25126
 C1071 C 0.42562 0.87706 0.23724
 C1072 C 0.42363 0.85287 0.23650
 C1073 C 0.43886 0.83981 0.22372
 C1074 C 0.45580 0.85088 0.21093
 C1075 C 0.45727 0.87518 0.21115
 C1076 C 0.44250 0.88816 0.22440
 H1077 H 0.40652 0.96886 0.30783
 H1078 H 0.43049 0.94380 0.28479
 H1079 H 0.36980 0.90738 0.26234
 H1080 H 0.34553 0.93298 0.28479
 H1081 H 0.41065 0.84412 0.24627
 H1082 H 0.43732 0.82109 0.22373
 H1083 H 0.47024 0.88412 0.20150
 H1084 H 0.44420 0.90685 0.22457
 C1085 C 0.61406 0.03798 0.28668
 C1086 C 0.59904 0.05168 0.27430
 C1087 C 0.60766 0.06865 0.26004
 C1088 C 0.63163 0.07167 0.25806
 C1089 C 0.64673 0.05753 0.27003
 C1090 C 0.63805 0.04062 0.28451
 N1091 N 0.59171 0.08213 0.24742
 N1092 N 0.59712 0.10155 0.23890
 C1093 C 0.58089 0.11438 0.22596
 C1094 C 0.58333 0.13846 0.22421
 C1095 C 0.56696 0.15148 0.21267
 C1096 C 0.54832 0.14045 0.20210
 C1097 C 0.54638 0.11620 0.20319
 C1098 C 0.56237 0.10328 0.21526
 H1099 H 0.60692 0.02493 0.29756
 H1100 H 0.58060 0.04914 0.27588
 H1101 H 0.63864 0.08459 0.24698
 H1102 H 0.66515 0.05988 0.26806
 H1103 H 0.59758 0.14720 0.23233
 H1104 H 0.56886 0.17016 0.21199
 H1105 H 0.53210 0.10731 0.19526
 H1106 H 0.56029 0.08465 0.21623
 C1107 C 0.34188 0.06233 0.72422
 C1108 C 0.35387 0.07866 0.73702
 C1109 C 0.37800 0.07974 0.73633
 C1110 C 0.38999 0.06504 0.72200
 C1111 C 0.37805 0.04922 0.70883
 C1112 C 0.35393 0.04742 0.71007
 N1113 N 0.39028 0.09513 0.75074
 N1114 N 0.41041 0.08984 0.75738
 C1115 C 0.42413 0.10445 0.77124
 C1116 C 0.44141 0.09422 0.78396
 C1117 C 0.45572 0.10780 0.79723
 C1118 C 0.45345 0.13201 0.79744
 C1119 C 0.43629 0.14241 0.78443
 C1120 C 0.42144 0.12865 0.77160
 H1121 H 0.32327 0.06132 0.72537
 H1122 H 0.34443 0.08994 0.74799
 H1123 H 0.40862 0.06574 0.72106
 H1124 H 0.38778 0.03789 0.69813
 H1125 H 0.44372 0.07560 0.78363
 H1126 H 0.46897 0.09940 0.80695
 H1127 H 0.43428 0.16107 0.78434
 H1128 H 0.40830 0.13686 0.76162
 C1129 C 0.64789 0.73231 0.04519
 C1130 C 0.63479 0.74510 0.06012
 C1131 C 0.61737 0.73439 0.07239
 C1132 C 0.61307 0.71058 0.06950
 C1133 C 0.62593 0.69781 0.05432
 C1134 C 0.64349 0.70855 0.04200
 N1135 N 0.60390 0.74819 0.08710
 N1136 N 0.59010 0.73928 0.10104
 C1137 C 0.57605 0.75327 0.11511
 C1138 C 0.56379 0.74266 0.13221
 C1139 C 0.54926 0.75571 0.14570
 C1140 C 0.54648 0.77961 0.14203
 C1141 C 0.55895 0.79025 0.12494
 C1142 C 0.57371 0.77724 0.11167
 H1143 H 0.66121 0.74110 0.03587
 H1144 H 0.63820 0.76346 0.06213
 H1145 H 0.59958 0.70194 0.07871
 H1146 H 0.62218 0.67953 0.05225
 H1147 H 0.56538 0.72420 0.13500
 H1148 H 0.53978 0.74699 0.15865
 H1149 H 0.55720 0.80863 0.12172
 H1150 H 0.58293 0.78583 0.09849
 C1151 C 0.34289 0.26032 0.05194
 C1152 C 0.35550 0.24737 0.06727
 C1153 C 0.37354 0.25763 0.07922
 C1154 C 0.37864 0.28121 0.07593
 C1155 C 0.36627 0.29408 0.06043
 C1156 C 0.34842 0.28372 0.04810
 N1157 N 0.38728 0.24353 0.09355
 N1158 N 0.40240 0.25222 0.10642
 C1159 C 0.41725 0.23816 0.11972
 C1160 C 0.43169 0.24889 0.13522
 C1161 C 0.44764 0.23588 0.14728
 C1162 C 0.44962 0.21189 0.14376
 C1163 C 0.43478 0.20108 0.12848
 C1164 C 0.41866 0.21407 0.11664
 H1165 H 0.32930 0.25184 0.04263
 H1166 H 0.35146 0.22918 0.06959
 H1167 H 0.39257 0.28952 0.08488
 H1168 H 0.37088 0.31210 0.05790
 H1169 H 0.43084 0.26746 0.13767
 H1170 H 0.45889 0.24471 0.15886
 H1171 H 0.43584 0.18262 0.12546
 H1172 H 0.40776 0.20539 0.10468
 C1173 C 0.65441 0.27591 0.93944
 C1174 C 0.64232 0.26262 0.92386
 C1175 C 0.61816 0.26210 0.92396
 C1176 C 0.60617 0.27553 0.93941
 C1177 C 0.61818 0.28924 0.95454
 C1178 C 0.64239 0.28940 0.95483
 N1179 N 0.60595 0.24781 0.90852
 N1180 N 0.58582 0.24037 0.91302
 C1181 C 0.57227 0.22680 0.89809
 C1182 C 0.55457 0.21305 0.90669
 C1183 C 0.54035 0.20016 0.89272
 C1184 C 0.54314 0.20138 0.86978
 C1185 C 0.56078 0.21539 0.86105
 C1186 C 0.57551 0.22782 0.87517
 H1187 H 0.67309 0.27590 0.93928
 H1188 H 0.65175 0.25238 0.91200
 H1189 H 0.58750 0.27555 0.93966
 H1190 H 0.60852 0.29944 0.96626
 H1191 H 0.55183 0.21231 0.92431
 H1192 H 0.52673 0.18968 0.89985
 H1193 H 0.56322 0.21660 0.84341
 H1194 H 0.58897 0.23862 0.86822
 C1195 C 0.34590 0.72955 0.93392
 C1196 C 0.35863 0.74365 0.91957
 C1197 C 0.38267 0.74518 0.92160
 C1198 C 0.39396 0.73183 0.93765
 C1199 C 0.38136 0.71725 0.95152
 C1200 C 0.35721 0.71618 0.94997
 N1201 N 0.39543 0.76017 0.90725
 N1202 N 0.41469 0.76877 0.91330
 C1203 C 0.42868 0.78278 0.89914
 C1204 C 0.44540 0.79728 0.90859
 C1205 C 0.46030 0.81018 0.89528
 C1206 C 0.45914 0.80822 0.87224
 C1207 C 0.44228 0.79372 0.86274
 C1208 C 0.42695 0.78129 0.87610
 H1209 H 0.32729 0.72895 0.93239
 H1210 H 0.34974 0.75377 0.90718
 H1211 H 0.41255 0.73256 0.93934
 H1212 H 0.39047 0.70722 0.96384
 H1213 H 0.44698 0.79843 0.92633
 H1214 H 0.47327 0.82106 0.90302
 H1215 H 0.44106 0.79193 0.84501
 H1216 H 0.41428 0.76998 0.86848
 C1217 C 0.74288 0.95441 0.34650
 C1218 C 0.75702 0.94083 0.36003
 C1219 C 0.74737 0.92670 0.37639
 C1220 C 0.72329 0.92605 0.37887
 C1221 C 0.70920 0.93982 0.36561
 C1222 C 0.71884 0.95432 0.34943
 N1223 N 0.76223 0.91401 0.39092
 N1224 N 0.75425 0.89902 0.40431
 C1225 C 0.76844 0.88692 0.41982
 C1226 C 0.75884 0.86841 0.43157
 C1227 C 0.77177 0.85680 0.44756
 C1228 C 0.79450 0.86379 0.45232
 C1229 C 0.80416 0.88238 0.44044
 C1230 C 0.79128 0.89378 0.42422
 H1231 H 0.75078 0.96551 0.33425
 H1232 H 0.77555 0.94154 0.35797
 H1233 H 0.71538 0.91534 0.39143
 H1234 H 0.69073 0.93932 0.36821
 H1235 H 0.74121 0.86305 0.42841
 H1236 H 0.76381 0.84262 0.45647
 H1237 H 0.82166 0.88811 0.44370
 H1238 H 0.79901 0.90816 0.41543
 C1239 C 0.30710 0.93499 0.62598
 C1240 C 0.29623 0.91887 0.61220
 C1241 C 0.27241 0.91523 0.61353
 C1242 C 0.25963 0.92721 0.62949
 C1243 C 0.27054 0.94306 0.64353
 C1244 C 0.29432 0.94744 0.64161
 N1245 N 0.26151 0.90012 0.59790
 N1246 N 0.23972 0.89961 0.59538
 C1247 C 0.22868 0.88506 0.57938
 C1248 C 0.20535 0.88863 0.57467
 C1249 C 0.19431 0.87572 0.55825
 C1250 C 0.20639 0.85870 0.54648
 C1251 C 0.22968 0.85467 0.55165
 C1252 C 0.24081 0.86788 0.56787
 H1253 H 0.32547 0.93793 0.62421
 H1254 H 0.30626 0.90971 0.59999
 H1255 H 0.24119 0.92457 0.63090
 H1256 H 0.26025 0.95244 0.65539
 H1257 H 0.19583 0.90181 0.58345
 H1258 H 0.17631 0.87909 0.55474
 H1259 H 0.23941 0.84168 0.54283
 H1260 H 0.25886 0.86477 0.57130
 C1261 C 0.31337 0.05803 0.38129
 C1262 C 0.30098 0.07378 0.39404
 C1263 C 0.27699 0.07517 0.39211
 C1264 C 0.26547 0.06098 0.37674
 C1265 C 0.27790 0.04545 0.36369
 C1266 C 0.30195 0.04362 0.36605
 N1267 N 0.26484 0.09073 0.40626
 N1268 N 0.24298 0.09038 0.40809
 C1269 C 0.23113 0.10583 0.42261
 C1270 C 0.20779 0.10183 0.42709
 C1271 C 0.19607 0.11581 0.44214
 C1272 C 0.20747 0.13430 0.45272
 C1273 C 0.23075 0.13867 0.44773
 C1274 C 0.24253 0.12448 0.43292
 H1275 H 0.33189 0.05712 0.38339
 H1276 H 0.31005 0.08465 0.40579
 H1277 H 0.24691 0.06183 0.37490
 H1278 H 0.26865 0.03452 0.35211
 H1279 H 0.19880 0.08755 0.41924
 H1280 H 0.17811 0.11208 0.44556
 H1281 H 0.24001 0.15275 0.45564
 H1282 H 0.26056 0.12798 0.42965
 C1283 C 0.71928 0.07237 0.64710
 C1284 C 0.73098 0.08871 0.63415
 C1285 C 0.73001 0.08737 0.61113
 C1286 C 0.71640 0.07009 0.60115
 C1287 C 0.70422 0.05420 0.61403
 C1288 C 0.70585 0.05493 0.63711
 N1289 N 0.74343 0.10309 0.59807
 N1290 N 0.75033 0.09714 0.57903
 C1291 C 0.76341 0.11210 0.56498
 C1292 C 0.77708 0.10206 0.54869
 C1293 C 0.78994 0.11593 0.53443
 C1294 C 0.78875 0.14018 0.53578
 C1295 C 0.77469 0.15036 0.55188
 C1296 C 0.76233 0.13638 0.56666
 H1297 H 0.72071 0.07334 0.66487
 H1298 H 0.74139 0.10197 0.64204
 H1299 H 0.71524 0.06887 0.58338
 H1300 H 0.69405 0.04090 0.60591
 H1301 H 0.77790 0.08337 0.54717
 H1302 H 0.80046 0.10768 0.52200
 H1303 H 0.77351 0.16904 0.55317
 H1304 H 0.75162 0.14444 0.57903
 C1305 C 0.94689 0.64941 0.27182
 C1306 C 0.93111 0.63782 0.25823
 C1307 C 0.91749 0.61981 0.26661
 C1308 C 0.91953 0.61370 0.28894
 C1309 C 0.93552 0.62506 0.30248
 C1310 C 0.94955 0.64285 0.29399
 N1311 N 0.90290 0.60703 0.25186
 N1312 N 0.88822 0.59226 0.25874
 C1313 C 0.87478 0.57832 0.24395
 C1314 C 0.85687 0.56469 0.25242
 C1315 C 0.84456 0.54956 0.23870
 C1316 C 0.85029 0.54758 0.21629
 C1317 C 0.86801 0.56160 0.20774
 C1318 C 0.88008 0.57695 0.22141
 H1319 H 0.95753 0.66298 0.26478
 H1320 H 0.92977 0.64261 0.24103
 H1321 H 0.90927 0.59973 0.29577
 H1322 H 0.93715 0.61967 0.31950
 H1323 H 0.85270 0.56552 0.26977
 H1324 H 0.83107 0.53890 0.24578
 H1325 H 0.87276 0.56049 0.19053
 H1326 H 0.89396 0.58723 0.21451
 C1327 C 0.95811 0.38784 0.69747
 C1328 C 0.94456 0.40269 0.71010
 C1329 C 0.92806 0.39374 0.72458
 C1330 C 0.92532 0.36959 0.72645
 C1331 C 0.93933 0.35466 0.71423
 C1332 C 0.95583 0.36368 0.69959
 N1333 N 0.91494 0.40954 0.73765
 N1334 N 0.89580 0.40399 0.74643
 C1335 C 0.88342 0.42003 0.75994
 C1336 C 0.85952 0.41755 0.76221
 C1337 C 0.84698 0.43350 0.77468
 C1338 C 0.85833 0.45173 0.78567
 C1339 C 0.88240 0.45380 0.78389
 C1340 C 0.89482 0.43825 0.77090
 H1341 H 0.97085 0.39526 0.68649
 H1342 H 0.94690 0.42126 0.70860
 H1343 H 0.91278 0.36233 0.73771
 H1344 H 0.93728 0.33611 0.71619
 H1345 H 0.85055 0.40353 0.75392
 H1346 H 0.82845 0.43148 0.77591
 H1347 H 0.89153 0.46775 0.79215
 H1348 H 0.91333 0.44036 0.76953
 C1349 C 0.06138 0.64959 0.71869
 C1350 C 0.07676 0.63727 0.73207
 C1351 C 0.07457 0.61321 0.73434
 C1352 C 0.05729 0.60143 0.72246
 C1353 C 0.04235 0.61362 0.70861
 C1354 C 0.04406 0.63784 0.70682
 N1355 N 0.08983 0.60101 0.74886
 N1356 N 0.08379 0.58184 0.75753
 C1357 C 0.09863 0.56867 0.77160
 C1358 C 0.08871 0.55236 0.78577
 C1359 C 0.10257 0.53864 0.79930
 C1360 C 0.12671 0.54052 0.79840
 C1361 C 0.13673 0.55683 0.78407
 C1362 C 0.12276 0.57105 0.77094
 H1363 H 0.06311 0.66825 0.71748
 H1364 H 0.09006 0.64654 0.74108
 H1365 H 0.05542 0.58281 0.72381
 H1366 H 0.02911 0.60418 0.69969
 H1367 H 0.07015 0.55030 0.78633
 H1368 H 0.09439 0.52605 0.81001
 H1369 H 0.15530 0.55856 0.78305
 H1370 H 0.13077 0.58343 0.75992
 C1371 C 0.06455 0.38962 0.30982
 C1372 C 0.08052 0.40243 0.29757
 C1373 C 0.08401 0.39754 0.27526
 C1374 C 0.07175 0.37915 0.26542
 C1375 C 0.05598 0.36611 0.27774
 C1376 C 0.05199 0.37142 0.30000
 N1377 N 0.09940 0.41199 0.26287
 N1378 N 0.10071 0.41076 0.24198
 C1379 C 0.11552 0.42563 0.22941
 C1380 C 0.11274 0.42638 0.20654
 C1381 C 0.12558 0.44197 0.19388
 C1382 C 0.14177 0.45686 0.20388
 C1383 C 0.14521 0.45547 0.22678
 C1384 C 0.13205 0.44010 0.23950
 H1385 H 0.06197 0.39405 0.32697
 H1386 H 0.08986 0.41654 0.30535
 H1387 H 0.07420 0.37499 0.24820
 H1388 H 0.04655 0.35222 0.26971
 H1389 H 0.10010 0.41530 0.19858
 H1390 H 0.12264 0.44255 0.17626
 H1391 H 0.15751 0.46678 0.23493
 H1392 H 0.13457 0.43975 0.25717
   
