data_POSCAR
  _audit_creation_date              2014-09-24
  _audit_creation_method            'ToBaCCo'
  _symmetry_space_group_name_H-M    'P1'
  _symmetry_Int_Tables_number       1
  _symmetry_cell_setting            triclinic
  loop_
  _symmetry_equiv_pos_as_xyz
 x,y,z
_cell_length_a 42.9132
_cell_length_b 42.4833
_cell_length_c 42.5580
_cell_angle_alpha 89.641400
_cell_angle_beta 90.454600
_cell_angle_gamma 90.347500
loop_
  _atom_site_label
  _atom_site_type_symbol
  _atom_site_fract_x
  _atom_site_fract_y
  _atom_site_fract_z
C1 C 0.24592 0.95950 0.00537
 C2 C 0.24044 0.96705 -0.02683
 C3 C 0.24733 0.99798 -0.03744
 C4 C 0.25954 1.02161 -0.01744
 C5 C 0.26483 1.01320 0.01455
 C6 C 0.25777 0.98279 0.02514
 H7 H 0.26233 0.97692 0.04960
 H8 H 0.24338 1.00352 -0.06196
 C9 C 0.72175 0.46277 0.47920
 C10 C 0.72832 0.46819 0.51141
 C11 C 0.72899 0.49912 0.52282
 C12 C 0.72289 0.52507 0.50333
 C13 C 0.71555 0.51957 0.47138
 C14 C 0.71529 0.48872 0.45981
 H15 H 0.70955 0.48490 0.43526
 H16 H 0.73413 0.50297 0.54749
 C17 C 0.78332 0.97723 1.01097
 C18 C 0.77651 1.00925 1.01839
 C19 C 0.77563 1.03115 0.99340
 C20 C 0.78187 1.02281 0.96227
 C21 C 0.78600 0.99091 0.95453
 C22 C 0.78726 0.96894 0.97917
 H23 H 0.79068 0.94443 0.97320
 H24 H 0.77346 1.05605 0.99844
 C25 C 0.26090 0.46263 0.47577
 C26 C 0.25368 0.49305 0.46425
 C27 C 0.24964 0.51730 0.48594
 C28 C 0.25337 0.51252 0.51832
 C29 C 0.25636 0.48150 0.53012
 C30 C 0.25993 0.45702 0.50841
 H31 H 0.26395 0.43335 0.51716
 H32 H 0.24650 0.54119 0.47732
 C33 C 0.96795 0.24984 0.04490
 C34 C 0.97214 0.25610 0.01236
 C35 C 1.00270 0.25627 0.00026
 C36 C 1.02952 0.25525 0.01976
 C37 C 1.02477 0.25180 0.05273
 C38 C 0.99443 0.24723 0.06413
 H39 H 0.99153 0.24200 0.08891
 H40 H 1.00568 0.26215 -0.02433
 C41 C 0.45959 0.75073 0.46410
 C42 C 0.45707 0.75626 0.49675
 C43 C 0.48430 0.75759 0.51518
 C44 C 0.51382 0.75249 0.50245
 C45 C 0.51653 0.74948 0.46954
 C46 C 0.48933 0.74883 0.45089
 H47 H 0.49129 0.74424 0.42594
 H48 H 0.48257 0.76169 0.54023
 C49 C -0.03563 0.75229 0.00511
 C50 C -0.00365 0.75090 0.01398
 C51 C 0.01881 0.75229 -0.00978
 C52 C 0.01099 0.75528 -0.04181
 C53 C -0.02005 0.76378 -0.04950
 C54 C -0.04269 0.76184 -0.02604
 H55 H -0.06665 0.76684 -0.03262
 H56 H 0.04308 0.74879 -0.00331
 C57 C 0.52031 0.23032 0.51122
 C58 C 0.48766 0.23273 0.50699
 C59 C 0.46948 0.24443 0.53181
 C60 C 0.48283 0.25334 0.56077
 C61 C 0.51556 0.25057 0.56478
 C62 C 0.53357 0.23950 0.53986
 H63 H 0.55850 0.23676 0.54318
 H64 H 0.44447 0.24634 0.52867
 C65 C 1.02585 -0.00771 0.26458
 C66 C 1.02823 -0.03917 0.25369
 C67 C 1.00228 -0.05379 0.24009
 C68 C 0.97368 -0.03847 0.23630
 C69 C 0.97068 -0.00763 0.24807
 C70 C 0.99662 0.00722 0.26203
 H71 H 0.99392 0.03106 0.27050
 H72 H 1.00471 -0.07775 0.23181
 C73 C 0.47793 0.52216 0.74760
 C74 C 0.48384 0.55468 0.74338
 C75 C 0.51495 0.56494 0.74011
 C76 C 0.54052 0.54459 0.74436
 C77 C 0.53429 0.51232 0.75042
 C78 C 0.50331 0.50159 0.74988
 H79 H 0.49888 0.47682 0.75457
 H80 H 0.51930 0.58989 0.73670
 C81 C 1.02229 1.00432 0.73665
 C82 C 0.99008 1.01042 0.73328
 C83 C 0.97825 1.03911 0.74366
 C84 C 0.99725 1.06303 0.75644
 C85 C 1.02998 1.05738 0.75882
 C86 C 1.04173 1.02811 0.74908
 H87 H 1.06649 1.02370 0.75152
 H88 H 0.95358 1.04324 0.74001
 C89 C 0.51574 0.44997 0.24181
 C90 C 0.48386 0.45048 0.25001
 C91 C 0.46715 0.47829 0.24617
 C92 C 0.48099 0.50549 0.23405
 C93 C 0.51364 0.50651 0.22937
 C94 C 0.53058 0.47831 0.23314
 H95 H 0.55525 0.47811 0.22786
 H96 H 0.44235 0.47841 0.25101
 O97 O 0.26286 0.13077 0.22571
 O98 O 0.30123 0.12191 0.26874
 O99 O 0.18471 0.16609 0.27938
 O100 O 0.17774 0.20510 0.31343
 O101 O 0.21323 0.21397 0.19440
 O102 O 0.25647 0.24806 0.18224
 O103 O 0.27681 0.25302 0.35182
 O104 O 0.23998 0.21244 0.36432
 O105 O 0.34985 0.20616 0.30597
 O106 O 0.35296 0.17431 0.25753
 O107 O 0.30959 0.29095 0.27263
 O108 O 0.26546 0.29794 0.23374
 O109 O 0.27034 0.29131 0.31468
 O110 O 0.22936 0.29865 0.27563
 O111 O 0.34597 0.25227 0.26994
 O112 O 0.35129 0.21160 0.22793
 O113 O 0.31717 0.21094 0.34750
 O114 O 0.27890 0.17407 0.36094
 O115 O 0.25730 0.16933 0.18881
 O116 O 0.28945 0.21278 0.17749
 O117 O 0.18085 0.21436 0.23645
 O118 O 0.17752 0.24562 0.28286
 O119 O 0.22244 0.12887 0.27722
 O120 O 0.26563 0.11445 0.29947
 Zr121 Zr 0.26368 0.15403 0.26925
 O122 O 0.29565 0.17995 0.29653
 Zr123 Zr 0.20978 0.20879 0.27605
 O124 O 0.23981 0.23784 0.30270
 Zr125 Zr 0.25783 0.21067 0.21527
 O126 O 0.29037 0.23894 0.23971
 Zr127 Zr 0.27238 0.21028 0.32717
 O128 O 0.24017 0.18068 0.30331
 Zr129 Zr 0.32041 0.21031 0.26653
 O130 O 0.29053 0.18200 0.23883
 Zr131 Zr 0.26674 0.26631 0.27256
 O132 O 0.23380 0.24013 0.24611
 O133 O 0.23162 0.18032 0.24336
 O134 O 0.29846 0.23950 0.29841
 C135 C 0.26144 0.14063 0.19715
 C136 C 0.19407 0.13741 0.28069
 C137 C 0.18629 0.21701 0.20692
 C138 C 0.27487 0.28201 0.34305
 C139 C 0.34435 0.20800 0.33547
 C140 C 0.33788 0.28114 0.27239
 H141 H 0.30930 0.16521 0.30823
 H142 H 0.30189 0.25256 0.22483
 H143 H 0.21682 0.16718 0.23109
 H144 H 0.22736 0.25076 0.31717
 H145 H 0.22458 0.19537 0.36075
 H146 H 0.18686 0.21650 0.33151
 H147 H 0.34755 0.23124 0.21594
 H148 H 0.30816 0.20103 0.18441
 H149 H 0.26261 0.15802 0.35686
 H150 H 0.27178 0.12243 0.32039
 H151 H 0.27360 0.31869 0.24063
 H152 H 0.24247 0.26422 0.19090
 H153 H 0.31398 0.12709 0.25011
 H154 H 0.35157 0.15876 0.27488
 H155 H 0.18351 0.26296 0.26846
 H156 H 0.23792 0.31996 0.27986
 O157 O 0.74582 0.82535 0.19211
 O158 O 0.71376 0.83628 0.23813
 O159 O 0.82315 0.77733 0.22721
 O160 O 0.83126 0.73574 0.26157
 O161 O 0.77374 0.73710 0.15074
 O162 O 0.72362 0.71163 0.14419
 O163 O 0.74055 0.69717 0.31480
 O164 O 0.78280 0.73502 0.31977
 O165 O 0.66312 0.74629 0.28598
 O166 O 0.65554 0.78992 0.24367
 O167 O 0.68523 0.66747 0.23584
 O168 O 0.72545 0.65682 0.19563
 O169 O 0.72368 0.66307 0.27721
 O170 O 0.76369 0.65064 0.23568
 O171 O 0.65311 0.70988 0.23808
 O172 O 0.64507 0.75729 0.21026
 O173 O 0.70434 0.74037 0.31944
 O174 O 0.74517 0.77435 0.32646
 O175 O 0.73957 0.78816 0.15415
 O176 O 0.69643 0.75177 0.14749
 O177 O 0.81464 0.73415 0.18499
 O178 O 0.82188 0.69702 0.22691
 O179 O 0.79059 0.81914 0.23250
 O180 O 0.75008 0.83315 0.27017
 Zr181 Zr 0.74589 0.79898 0.23437
 O182 O 0.71708 0.77450 0.26619
 Zr183 Zr 0.79359 0.73758 0.22922
 O184 O 0.76615 0.71014 0.25993
 Zr185 Zr 0.73446 0.74558 0.17878
 O186 O 0.70443 0.71953 0.20761
 Zr187 Zr 0.74309 0.74029 0.29045
 O188 O 0.77307 0.76792 0.26214
 Zr189 Zr 0.68334 0.74903 0.24072
 O190 O 0.71032 0.77609 0.20878
 Zr191 Zr 0.73035 0.68735 0.23466
 O192 O 0.76038 0.71136 0.20325
 O193 O 0.76879 0.77010 0.20285
 O194 O 0.70804 0.71596 0.26662
 C195 C 0.74470 0.81648 0.16327
 C196 C 0.81761 0.80705 0.22864
 C197 C 0.80291 0.73378 0.15715
 C198 C 0.72933 0.67057 0.30590
 C199 C 0.67513 0.74216 0.31354
 C200 C 0.65810 0.68014 0.23612
 H201 H 0.70761 0.78937 0.28108
 H202 H 0.68916 0.70879 0.19376
 H203 H 0.78288 0.78155 0.18845
 H204 H 0.77922 0.69482 0.27157
 H205 H 0.79769 0.75190 0.31387
 H206 H 0.82518 0.72136 0.27886
 H207 H 0.64951 0.74618 0.19046
 H208 H 0.68437 0.76986 0.15535
 H209 H 0.75935 0.79116 0.31905
 H210 H 0.76864 0.82775 0.28299
 H211 H 0.71690 0.63638 0.20304
 H212 H 0.73581 0.69263 0.14959
 H213 H 0.69639 0.83155 0.22342
 H214 H 0.65960 0.79985 0.26427
 H215 H 0.81056 0.68169 0.21356
 H216 H 0.75313 0.63104 0.24271
 O217 O 0.77359 0.20651 0.83204
 O218 O 0.74331 0.18378 0.79436
 O219 O 0.84583 0.25095 0.77656
 O220 O 0.84767 0.29042 0.73898
 O221 O 0.80556 0.30129 0.85483
 O222 O 0.76013 0.32557 0.86494
 O223 O 0.74912 0.30725 0.69130
 O224 O 0.78147 0.26654 0.68338
 O225 O 0.67570 0.26278 0.74553
 O226 O 0.67139 0.23752 0.79159
 O227 O 0.70596 0.35376 0.76383
 O228 O 0.74680 0.37281 0.79942
 O229 O 0.74611 0.35170 0.72070
 O230 O 0.78544 0.36969 0.75993
 O231 O 0.67490 0.31337 0.78018
 O232 O 0.67792 0.27077 0.82498
 O233 O 0.70795 0.26364 0.70348
 O234 O 0.75800 0.22779 0.69875
 O235 O 0.77229 0.24887 0.86458
 O236 O 0.72867 0.28839 0.86809
 O237 O 0.84170 0.29774 0.81626
 O238 O 0.83972 0.32999 0.76605
 O239 O 0.81613 0.20745 0.78540
 O240 O 0.76959 0.18789 0.75428
 Zr241 Zr 0.76976 0.22524 0.78694
 O242 O 0.73319 0.24251 0.75852
 Zr243 Zr 0.81450 0.28806 0.77539
 O244 O 0.78169 0.30606 0.74324
 Zr245 Zr 0.76397 0.28741 0.83367
 O246 O 0.73024 0.30928 0.80493
 Zr247 Zr 0.75317 0.27055 0.72351
 O248 O 0.79029 0.25197 0.75100
 Zr249 Zr 0.70447 0.27363 0.78334
 O250 O 0.73724 0.25132 0.81325
 Zr251 Zr 0.75071 0.33473 0.76759
 O252 O 0.78460 0.31771 0.80003
 O253 O 0.79568 0.25951 0.81009
 O254 O 0.72272 0.30035 0.74655
 C255 C 0.77447 0.21915 0.85922
 C256 C 0.84259 0.22124 0.78046
 C257 C 0.83358 0.30277 0.84490
 C258 C 0.74763 0.33713 0.69428
 C259 C 0.68088 0.26041 0.71614
 C260 C 0.67950 0.34224 0.77178
 H261 H 0.72106 0.22471 0.74974
 H262 H 0.71724 0.32309 0.81803
 H263 H 0.81182 0.25032 0.82407
 H264 H 0.79340 0.31798 0.72710
 H265 H 0.80129 0.27740 0.68850
 H266 H 0.84129 0.27446 0.72332
 H267 H 0.67592 0.29232 0.83340
 H268 H 0.71893 0.26721 0.86862
 H269 H 0.73830 0.21574 0.70068
 H270 H 0.78593 0.19273 0.73865
 H271 H 0.73893 0.39151 0.78785
 H272 H 0.76241 0.34482 0.85192
 H273 H 0.72405 0.19037 0.80506
 H274 H 0.68184 0.21744 0.78691
 H275 H 0.83500 0.34486 0.78317
 H276 H 0.77562 0.38841 0.75009
 O277 O 0.21899 0.83649 0.77553
 O278 O 0.25071 0.85428 0.73176
 O279 O 0.14397 0.78990 0.72366
 O280 O 0.13738 0.74740 0.69444
 O281 O 0.19063 0.74197 0.80569
 O282 O 0.24127 0.71967 0.81331
 O283 O 0.23738 0.72281 0.64195
 O284 O 0.19125 0.75679 0.63765
 O285 O 0.30776 0.77269 0.67916
 O286 O 0.31243 0.81014 0.72606
 O287 O 0.28604 0.68646 0.72011
 O288 O 0.24591 0.67067 0.75739
 O289 O 0.24456 0.68297 0.67731
 O290 O 0.20659 0.66762 0.71813
 O291 O 0.31605 0.73070 0.72344
 O292 O 0.32111 0.77495 0.75655
 O293 O 0.26831 0.77362 0.64322
 O294 O 0.22175 0.79897 0.63559
 O295 O 0.22234 0.79532 0.80982
 O296 O 0.26647 0.76109 0.81532
 O297 O 0.15134 0.74482 0.76957
 O298 O 0.14916 0.70862 0.72469
 O299 O 0.17496 0.83282 0.73189
 O300 O 0.21502 0.85216 0.69805
 Zr301 Zr 0.22033 0.81493 0.73082
 O302 O 0.25183 0.79552 0.69866
 Zr303 Zr 0.17482 0.75134 0.72687
 O304 O 0.20515 0.72874 0.69562
 Zr305 Zr 0.23056 0.75640 0.78130
 O306 O 0.26317 0.73499 0.75211
 Zr307 Zr 0.22893 0.76288 0.66945
 O308 O 0.19646 0.78570 0.69845
 Zr309 Zr 0.28498 0.76863 0.72309
 O310 O 0.25537 0.79090 0.75584
 Zr311 Zr 0.24008 0.70456 0.72096
 O312 O 0.20739 0.72389 0.75234
 O313 O 0.19639 0.78214 0.75793
 O314 O 0.26346 0.73715 0.69261
 C315 C 0.21893 0.82462 0.80345
 C316 C 0.14836 0.81972 0.72701
 C317 C 0.16185 0.74010 0.79750
 C318 C 0.24280 0.69393 0.64927
 C319 C 0.29714 0.77526 0.65085
 C320 C 0.31252 0.70063 0.72306
 H321 H 0.26166 0.81267 0.68640
 H322 H 0.27809 0.72355 0.76577
 H323 H 0.18101 0.79202 0.77195
 H324 H 0.19323 0.71425 0.68186
 H325 H 0.17413 0.77037 0.64501
 H326 H 0.14561 0.73787 0.67508
 H327 H 0.31573 0.76177 0.77498
 H328 H 0.27833 0.78040 0.80984
 H329 H 0.22971 0.81883 0.64468
 H330 H 0.20058 0.84446 0.68151
 H331 H 0.25414 0.65098 0.74829
 H332 H 0.23085 0.70048 0.80525
 H333 H 0.26858 0.84835 0.74535
 H334 H 0.30786 0.82333 0.70737
 H335 H 0.15790 0.69439 0.74098
 H336 H 0.21687 0.64832 0.71049
 O337 O 0.25242 0.37074 0.75133
 O338 O 0.21505 0.37173 0.79769
 O339 O 0.33544 0.33821 0.78791
 O340 O 0.35130 0.29692 0.81926
 O341 O 0.29557 0.29173 0.70748
 O342 O 0.25110 0.25510 0.70183
 O343 O 0.26824 0.24058 0.87099
 O344 O 0.30281 0.28316 0.87802
 O345 O 0.18301 0.28076 0.84383
 O346 O 0.16924 0.31973 0.79814
 O347 O 0.21872 0.20407 0.79367
 O348 O 0.25690 0.20223 0.75095
 O349 O 0.26352 0.20425 0.83201
 O350 O 0.29784 0.20007 0.79072
 O351 O 0.18034 0.24004 0.80046
 O352 O 0.16336 0.28121 0.76893
 O353 O 0.22440 0.28113 0.87752
 O354 O 0.26235 0.31861 0.88418
 O355 O 0.25000 0.33468 0.71206
 O356 O 0.21723 0.29000 0.70344
 O357 O 0.33526 0.29634 0.74298
 O358 O 0.34911 0.25886 0.78396
 O359 O 0.29546 0.37180 0.79708
 O360 O 0.25448 0.38142 0.82538
 Zr361 Zr 0.25550 0.34389 0.79303
 O362 O 0.23172 0.31420 0.82457
 Zr363 Zr 0.31370 0.29326 0.78694
 O364 O 0.29119 0.26042 0.81651
 Zr365 Zr 0.25484 0.29106 0.73580
 O366 O 0.22907 0.25959 0.76449
 Zr367 Zr 0.26311 0.28443 0.84822
 O368 O 0.28753 0.31773 0.82052
 Zr369 Zr 0.20314 0.28374 0.79843
 O370 O 0.22506 0.31545 0.76649
 Zr371 Zr 0.25994 0.23177 0.79090
 O372 O 0.28611 0.26155 0.76027
 O373 O 0.28376 0.32134 0.76083
 O374 O 0.23282 0.25460 0.82403
 C375 C 0.25048 0.36319 0.72216
 C376 C 0.32436 0.36586 0.79292
 C377 C 0.32471 0.29452 0.71476
 C378 C 0.26735 0.21207 0.86095
 C379 C 0.19505 0.28039 0.87169
 C380 C 0.19009 0.21169 0.79803
 H381 H 0.21978 0.32714 0.83944
 H382 H 0.21548 0.24632 0.75106
 H383 H 0.29562 0.33611 0.74733
 H384 H 0.30698 0.24746 0.82755
 H385 H 0.31616 0.30129 0.87207
 H386 H 0.34804 0.28097 0.83598
 H387 H 0.17071 0.27488 0.74796
 H388 H 0.20062 0.30316 0.71247
 H389 H 0.27543 0.33644 0.87690
 H390 H 0.25118 0.37192 0.84635
 H391 H 0.25516 0.18014 0.75845
 H392 H 0.26830 0.24022 0.70613
 H393 H 0.20211 0.36841 0.77861
 H394 H 0.17095 0.33104 0.81834
 H395 H 0.34376 0.24502 0.76608
 H396 H 0.31007 0.20487 0.77166
 O397 O 0.76398 0.69474 0.66504
 O398 O 0.81228 0.69302 0.70141
 O399 O 0.69283 0.72455 0.72475
 O400 O 0.68373 0.76534 0.75745
 O401 O 0.71070 0.77237 0.63584
 O402 O 0.75024 0.81190 0.62101
 O403 O 0.78001 0.82152 0.78860
 O404 O 0.74659 0.77790 0.80305
 O405 O 0.85352 0.78467 0.74003
 O406 O 0.85647 0.74711 0.69246
 O407 O 0.80331 0.86090 0.70173
 O408 O 0.75396 0.86261 0.67119
 O409 O 0.77369 0.85840 0.75002
 O410 O 0.72439 0.86027 0.71853
 O411 O 0.84351 0.82630 0.69870
 O412 O 0.85259 0.78523 0.66249
 O413 O 0.82280 0.78038 0.78325
 O414 O 0.78758 0.74274 0.79861
 O415 O 0.75483 0.73298 0.62845
 O416 O 0.78564 0.77791 0.61397
 O417 O 0.68116 0.76633 0.67970
 O418 O 0.67747 0.80394 0.72270
 O419 O 0.73407 0.69119 0.72178
 O420 O 0.78188 0.68140 0.73745
 Zr421 Zr 0.77144 0.71992 0.70762
 O422 O 0.80206 0.74954 0.73296
 Zr423 Zr 0.71275 0.76971 0.71764
 O424 O 0.74151 0.80212 0.74187
 Zr425 Zr 0.75666 0.77487 0.65384
 O426 O 0.78796 0.80625 0.67577
 Zr427 Zr 0.77759 0.77791 0.76463
 O428 O 0.74740 0.74488 0.74285
 Zr429 Zr 0.82232 0.78163 0.70134
 O430 O 0.79364 0.75004 0.67530
 Zr431 Zr 0.76399 0.83206 0.70957
 O432 O 0.73181 0.80254 0.68559
 O433 O 0.73552 0.74303 0.68447
 O434 O 0.79950 0.80902 0.73404
 C435 C 0.75713 0.70408 0.63690
 C436 C 0.70517 0.69701 0.72652
 C437 C 0.68455 0.76768 0.64970
 C438 C 0.77899 0.85025 0.77864
 C439 C 0.84935 0.78337 0.76993
 C440 C 0.83234 0.85428 0.69886
 H441 H 0.81777 0.73652 0.74403
 H442 H 0.79711 0.82034 0.65966
 H443 H 0.72084 0.72802 0.67449
 H444 H 0.72917 0.81445 0.75694
 H445 H 0.73208 0.75997 0.79989
 H446 H 0.69122 0.78059 0.77331
 H447 H 0.84067 0.79511 0.64513
 H448 H 0.80368 0.76405 0.61823
 H449 H 0.77334 0.72489 0.79418
 H450 H 0.78885 0.69043 0.75769
 H451 H 0.75936 0.88447 0.67732
 H452 H 0.73355 0.82543 0.62932
 H453 H 0.81990 0.69752 0.67994
 H454 H 0.85944 0.73465 0.71196
 H455 H 0.68032 0.81958 0.70561
 H456 H 0.73149 0.88212 0.72260
 O457 O 0.23823 0.63405 0.27039
 O458 O 0.19876 0.62659 0.23244
 O459 O 0.31615 0.66770 0.22391
 O460 O 0.32772 0.70864 0.18937
 O461 O 0.28501 0.71434 0.30641
 O462 O 0.24584 0.74949 0.31814
 O463 O 0.23612 0.75651 0.14399
 O464 O 0.26155 0.71156 0.13109
 O465 O 0.15409 0.72145 0.19063
 O466 O 0.14334 0.69335 0.23413
 O467 O 0.20478 0.80118 0.22235
 O468 O 0.24777 0.80530 0.26013
 O469 O 0.24216 0.79600 0.17940
 O470 O 0.28505 0.79866 0.21956
 O471 O 0.16338 0.76821 0.22897
 O472 O 0.15526 0.72288 0.27076
 O473 O 0.18769 0.71855 0.14967
 O474 O 0.23066 0.67653 0.14001
 O475 O 0.24189 0.67160 0.30827
 O476 O 0.20684 0.71883 0.31665
 O477 O 0.32119 0.71173 0.26765
 O478 O 0.32873 0.74665 0.22027
 O479 O 0.27597 0.63246 0.22179
 O480 O 0.22627 0.62686 0.19238
 Zr481 Zr 0.23543 0.65980 0.22843
 O482 O 0.20542 0.68865 0.20178
 Zr483 Zr 0.29414 0.71131 0.22530
 O484 O 0.26771 0.74052 0.19540
 Zr485 Zr 0.24239 0.71496 0.28277
 O486 O 0.21580 0.74767 0.25662
 Zr487 Zr 0.23272 0.71537 0.17089
 O488 O 0.26302 0.68512 0.19639
 Zr489 Zr 0.18327 0.72236 0.23002
 O490 O 0.20875 0.68932 0.25752
 Zr491 Zr 0.24326 0.77194 0.22337
 O492 O 0.27090 0.74357 0.25367
 O493 O 0.26783 0.68405 0.25564
 O494 O 0.20902 0.74823 0.19744
 C495 C 0.24120 0.64269 0.29905
 C496 C 0.30515 0.63975 0.22139
 C497 C 0.31314 0.71261 0.29681
 C498 C 0.24007 0.78555 0.15106
 C499 C 0.16005 0.71983 0.16130
 C500 C 0.17561 0.79580 0.22516
 H501 H 0.19011 0.67512 0.19070
 H502 H 0.20575 0.76259 0.27107
 H503 H 0.28155 0.67004 0.26811
 H504 H 0.28200 0.75172 0.18096
 H505 H 0.28271 0.71808 0.13785
 H506 H 0.31801 0.69622 0.17226
 H507 H 0.15750 0.74381 0.28061
 H508 H 0.19263 0.70063 0.31367
 H509 H 0.20992 0.66648 0.14222
 H510 H 0.24210 0.63042 0.17593
 H511 H 0.24466 0.82673 0.25130
 H512 H 0.25562 0.76812 0.30810
 H513 H 0.18427 0.63490 0.24833
 H514 H 0.14997 0.67188 0.22847
 H515 H 0.32672 0.76099 0.23839
 H516 H 0.27980 0.82023 0.21236
 O517 O 0.72720 0.29294 0.31213
 O518 O 0.75998 0.30422 0.26534
 O519 O 0.64933 0.24508 0.26779
 O520 O 0.63867 0.20019 0.24484
 O521 O 0.69790 0.20453 0.35258
 O522 O 0.74840 0.17821 0.35825
 O523 O 0.73538 0.16562 0.18858
 O524 O 0.69043 0.20115 0.18296
 O525 O 0.80917 0.22192 0.21727
 O526 O 0.81706 0.25844 0.26469
 O527 O 0.78481 0.13559 0.26456
 O528 O 0.74819 0.12595 0.30837
 O529 O 0.74391 0.12994 0.22778
 O530 O 0.70586 0.12041 0.27131
 O531 O 0.81706 0.17762 0.25623
 O532 O 0.82849 0.21814 0.29205
 O533 O 0.76898 0.21259 0.18342
 O534 O 0.72571 0.24336 0.17629
 O535 O 0.73288 0.25521 0.34984
 O536 O 0.77478 0.21926 0.35673
 O537 O 0.65692 0.20505 0.31829
 O538 O 0.65158 0.16402 0.27661
 O539 O 0.68211 0.28735 0.26836
 O540 O 0.72318 0.30377 0.23534
 Zr541 Zr 0.72682 0.26737 0.26925
 O542 O 0.75531 0.24339 0.23706
 Zr543 Zr 0.67851 0.20589 0.27385
 O544 O 0.70574 0.17902 0.24302
 Zr545 Zr 0.73735 0.21338 0.32463
 O546 O 0.76745 0.18776 0.29561
 Zr547 Zr 0.72975 0.20900 0.21227
 O548 O 0.70010 0.23618 0.24090
 Zr549 Zr 0.78879 0.21753 0.26235
 O550 O 0.76219 0.24408 0.29467
 Zr551 Zr 0.74071 0.15602 0.26907
 O552 O 0.71095 0.17951 0.30036
 O553 O 0.70307 0.23850 0.30057
 O554 O 0.76378 0.18459 0.23670
 C555 C 0.72906 0.28387 0.34107
 C556 C 0.65485 0.27483 0.26630
 C557 C 0.66859 0.20307 0.34615
 C558 C 0.74204 0.13774 0.19867
 C559 C 0.79789 0.21799 0.18940
 C560 C 0.81133 0.14790 0.25793
 H561 H 0.76479 0.25891 0.22252
 H562 H 0.78311 0.17650 0.30857
 H563 H 0.68878 0.25056 0.31404
 H564 H 0.69260 0.16373 0.23139
 H565 H 0.67463 0.21686 0.18894
 H566 H 0.64579 0.19107 0.22484
 H567 H 0.82088 0.21505 0.31370
 H568 H 0.78742 0.23721 0.34894
 H569 H 0.70952 0.25826 0.18301
 H570 H 0.70933 0.29584 0.21846
 H571 H 0.75508 0.10515 0.30070
 H572 H 0.73436 0.16013 0.35405
 H573 H 0.77576 0.30079 0.28208
 H574 H 0.81129 0.27200 0.24660
 H575 H 0.65959 0.15173 0.29476
 H576 H 0.71526 0.10012 0.26520
 C577 C 0.26274 0.07430 0.07766
 C578 C 0.28769 0.06451 0.09568
 C579 C 0.30823 0.04140 0.08618
 C580 C 0.30201 0.02671 0.05751
 C581 C 0.27534 0.03496 0.03939
 C582 C 0.25597 0.05979 0.04906
 O583 O 0.24552 0.09579 0.09176
 C584 C 0.25970 0.09926 0.11937
 C585 C 0.28535 0.08028 0.12303
 C586 C 0.30227 0.07818 0.15090
 C587 C 0.29286 0.09708 0.17586
 C588 C 0.26735 0.11787 0.17225
 C589 C 0.25043 0.11894 0.14364
 H590 H 0.32761 0.03410 0.10088
 H591 H 0.31674 0.00749 0.05026
 H592 H 0.23507 0.06587 0.03600
 H593 H 0.32196 0.06253 0.15335
 H594 H 0.30616 0.09643 0.19759
 H595 H 0.23080 0.13457 0.14045
 C596 C 0.74517 0.59401 0.55502
 C597 C 0.72101 0.61421 0.54875
 C598 C 0.69718 0.60725 0.52752
 C599 C 0.69811 0.57808 0.51229
 C600 C 0.72312 0.55695 0.51774
 C601 C 0.74708 0.56534 0.53939
 O602 O 0.76450 0.60440 0.57728
 C603 C 0.75231 0.63189 0.58518
 C604 C 0.72582 0.63900 0.56814
 C605 C 0.70915 0.66650 0.57236
 C606 C 0.72029 0.68765 0.59494
 C607 C 0.74733 0.68085 0.61318
 C608 C 0.76349 0.65238 0.60843
 H609 H 0.67801 0.62328 0.52357
 H610 H 0.67886 0.57163 0.49703
 H611 H 0.76629 0.54965 0.54446
 H612 H 0.68834 0.67152 0.55874
 H613 H 0.70747 0.70920 0.59863
 H614 H 0.78412 0.64663 0.62205
 C615 C 0.76396 0.92258 0.07713
 C616 C 0.78667 0.90042 0.07277
 C617 C 0.80927 0.90288 0.04986
 C618 C 0.80829 0.92917 0.03012
 C619 C 0.78474 0.95244 0.03323
 C620 C 0.76235 0.94905 0.05752
 O621 O 0.74430 0.91488 0.10000
 C622 C 0.75489 0.88719 0.11004
 C623 C 0.78069 0.87741 0.09385
 C624 C 0.79492 0.84862 0.09893
 C625 C 0.78204 0.82890 0.12175
 C626 C 0.75571 0.83837 0.13914
 C627 C 0.74200 0.86809 0.13359
 H628 H 0.82692 0.88504 0.04710
 H629 H 0.82619 0.93149 0.01243
 H630 H 0.74351 0.96564 0.06017
 H631 H 0.81500 0.84144 0.08558
 H632 H 0.79282 0.80628 0.12623
 H633 H 0.72181 0.87564 0.14657
 C634 C 0.24225 0.43688 0.60577
 C635 C 0.26154 0.45266 0.62631
 C636 C 0.27931 0.47867 0.61727
 C637 C 0.27726 0.48864 0.58573
 C638 C 0.25695 0.47317 0.56421
 C639 C 0.23907 0.44704 0.57474
 O640 O 0.22954 0.41108 0.61809
 C641 C 0.24096 0.41053 0.64716
 C642 C 0.26038 0.43566 0.65351
 C643 C 0.27558 0.43922 0.68225
 C644 C 0.27084 0.41582 0.70520
 C645 C 0.25176 0.38911 0.69886
 C646 C 0.23644 0.38661 0.66942
 H647 H 0.29515 0.49007 0.63357
 H648 H 0.29232 0.50759 0.57797
 H649 H 0.22390 0.43421 0.55882
 H650 H 0.29097 0.45900 0.68665
 H651 H 0.28309 0.41786 0.72745
 H652 H 0.22201 0.36638 0.66381
 C653 C 0.77125 0.09822 0.91870
 C654 C 0.80080 0.11062 0.92212
 C655 C 0.82581 0.09307 0.93323
 C656 C 0.81971 0.06205 0.94285
 C657 C 0.78911 0.04930 0.94114
 C658 C 0.76466 0.06741 0.92819
 O659 O 0.75093 0.11876 0.90721
 C660 C 0.76796 0.14468 0.90355
 C661 C 0.79854 0.14112 0.91275
 C662 C 0.82049 0.16530 0.91052
 C663 C 0.81094 0.19368 0.89643
 C664 C 0.78008 0.19700 0.88492
 C665 C 0.75806 0.17260 0.88954
 H666 H 0.84887 0.10326 0.93560
 H667 H 0.83829 0.04863 0.95381
 H668 H 0.74092 0.05862 0.92783
 H669 H 0.84444 0.16191 0.91788
 H670 H 0.82816 0.21187 0.89189
 H671 H 0.73472 0.17420 0.87978
 C672 C 0.23619 0.54159 0.39301
 C673 C 0.26437 0.54032 0.37799
 C674 C 0.28794 0.51968 0.38711
 C675 C 0.28292 0.50086 0.41394
 C676 C 0.25463 0.50290 0.43075
 C677 C 0.23041 0.52243 0.41904
 O678 O 0.21798 0.56467 0.38257
 C679 C 0.23508 0.57849 0.36053
 C680 C 0.26368 0.56445 0.35683
 C681 C 0.28601 0.57605 0.33625
 C682 C 0.27828 0.60267 0.31825
 C683 C 0.24890 0.61740 0.32141
 C684 C 0.22696 0.60528 0.34296
 H685 H 0.31018 0.51959 0.37529
 H686 H 0.30199 0.48689 0.42310
 H687 H 0.20901 0.52527 0.43201
 H688 H 0.30851 0.56494 0.33403
 H689 H 0.29503 0.61170 0.30147
 H690 H 0.20430 0.61599 0.34554
 C691 C 0.22975 0.92101 0.89971
 C692 C 0.20777 0.89941 0.90917
 C693 C 0.19474 0.89956 0.93895
 C694 C 0.20507 0.92273 0.96002
 C695 C 0.22861 0.94485 0.95134
 C696 C 0.24043 0.94412 0.92023
 O697 O 0.24033 0.91589 0.87098
 C698 C 0.22475 0.89036 0.86210
 C699 C 0.20457 0.87932 0.88469
 C700 C 0.18759 0.85160 0.88136
 C701 C 0.19196 0.83432 0.85384
 C702 C 0.21279 0.84510 0.83031
 C703 C 0.22897 0.87385 0.83418
 H704 H 0.17738 0.88231 0.94582
 H705 H 0.19440 0.92354 0.98295
 H706 H 0.25895 0.95974 0.91262
 H707 H 0.17229 0.84308 0.89968
 H708 H 0.17951 0.81224 0.85100
 H709 H 0.24553 0.88213 0.81689
 C710 C 0.73032 0.39597 0.42125
 C711 C 0.71392 0.37247 0.43618
 C712 C 0.69999 0.37656 0.46528
 C713 C 0.70288 0.40620 0.47951
 C714 C 0.72016 0.43079 0.46494
 C715 C 0.73411 0.42535 0.43532
 O716 O 0.74089 0.38754 0.39324
 C717 C 0.73100 0.35798 0.39045
 C718 C 0.71456 0.34764 0.41623
 C719 C 0.70234 0.31741 0.41860
 C720 C 0.70744 0.29688 0.39354
 C721 C 0.72415 0.30686 0.36650
 C722 C 0.73585 0.33805 0.36481
 H723 H 0.68677 0.35781 0.47633
 H724 H 0.69114 0.41014 0.50154
 H725 H 0.74723 0.44364 0.42340
 H726 H 0.68950 0.30981 0.43911
 H727 H 0.69808 0.27318 0.39507
 H728 H 0.74878 0.34626 0.34458
 C729 C 0.09495 0.23424 0.10485
 C730 C 0.08975 0.25582 0.12817
 C731 C 0.06572 0.27745 0.12711
 C732 C 0.04563 0.27648 0.10120
 C733 C 0.04947 0.25381 0.07720
 C734 C 0.07480 0.23254 0.07878
 O735 O 0.11924 0.21575 0.11106
 C736 C 0.12922 0.22583 0.13899
 C737 C 0.11160 0.25007 0.15043
 C738 C 0.11644 0.26330 0.17978
 C739 C 0.14071 0.25126 0.19820
 C740 C 0.15996 0.22687 0.18689
 C741 C 0.15430 0.21398 0.15671
 H742 H 0.06230 0.29422 0.14579
 H743 H 0.02642 0.29290 0.10012
 H744 H 0.07804 0.21486 0.06091
 H745 H 0.10189 0.28208 0.18831
 H746 H 0.14497 0.26148 0.22110
 H747 H 0.16857 0.19522 0.14766
 C748 C 0.58817 0.76121 0.55094
 C749 C 0.58256 0.73839 0.57331
 C750 C 0.55678 0.71859 0.57252
 C751 C 0.53534 0.72285 0.54802
 C752 C 0.53969 0.74684 0.52509
 C753 C 0.56684 0.76604 0.52620
 O754 O 0.61391 0.77789 0.55694
 C755 C 0.62446 0.76541 0.58377
 C756 C 0.60582 0.74136 0.59473
 C757 C 0.61106 0.72606 0.62317
 C758 C 0.63671 0.73579 0.64114
 C759 C 0.65689 0.76003 0.63033
 C760 C 0.65084 0.77496 0.60101
 H761 H 0.55298 0.70085 0.59048
 H762 H 0.51474 0.70798 0.54731
 H763 H 0.57050 0.78474 0.50921
 H764 H 0.59573 0.70750 0.63140
 H765 H 0.64122 0.72399 0.66332
 H766 H 0.66579 0.79364 0.59231
 C767 C 0.06120 0.75032 0.88694
 C768 C 0.07897 0.72473 0.89513
 C769 C 0.07510 0.70822 0.92294
 C770 C 0.05196 0.71855 0.94326
 C771 C 0.03325 0.74541 0.93594
 C772 C 0.03817 0.76126 0.90696
 O773 O 0.06999 0.76376 0.86020
 C774 C 0.09387 0.74625 0.85149
 C775 C 0.10039 0.72214 0.87219
 C776 C 0.12602 0.70257 0.86920
 C777 C 0.14595 0.70829 0.84388
 C778 C 0.13951 0.73283 0.82217
 C779 C 0.11290 0.75181 0.82571
 H780 H 0.08953 0.68821 0.92893
 H781 H 0.04839 0.70510 0.96464
 H782 H 0.02668 0.78287 0.90090
 H783 H 0.13102 0.68424 0.88625
 H784 H 0.16656 0.69395 0.84133
 H785 H 0.10818 0.77131 0.80988
 C786 C 0.56899 0.21968 0.43792
 C787 C 0.58787 0.19545 0.44786
 C788 C 0.58450 0.18059 0.47679
 C789 C 0.56109 0.19147 0.49662
 C790 C 0.54177 0.21703 0.48753
 C791 C 0.54548 0.23105 0.45746
 O792 O 0.57710 0.23122 0.40999
 C793 C 0.60170 0.21402 0.40234
 C794 C 0.60931 0.19197 0.42489
 C795 C 0.63545 0.17293 0.42293
 C796 C 0.65465 0.17675 0.39666
 C797 C 0.64718 0.19892 0.37279
 C798 C 0.62012 0.21766 0.37552
 H799 H 0.59980 0.16171 0.48412
 H800 H 0.55845 0.18057 0.51953
 H801 H 0.53146 0.25094 0.45018
 H802 H 0.64125 0.15622 0.44133
 H803 H 0.67537 0.16246 0.39485
 H804 H 0.61435 0.23528 0.35796
 C805 C 0.91019 0.74173 0.07318
 C806 C 0.88611 0.72647 0.05803
 C807 C 0.88716 0.71794 0.02679
 C808 C 0.91388 0.72598 0.01008
 C809 C 0.93921 0.74269 0.02441
 C810 C 0.93744 0.74994 0.05694
 O811 O 0.90338 0.74886 0.10273
 C812 C 0.87443 0.73790 0.10599
 C813 C 0.86289 0.72410 0.07919
 C814 C 0.83254 0.71279 0.07644
 C815 C 0.81308 0.71590 0.10246
 C816 C 0.82430 0.72982 0.13057
 C817 C 0.85559 0.74069 0.13245
 H818 H 0.86786 0.70586 0.01549
 H819 H 0.91482 0.71881 -0.01427
 H820 H 0.95546 0.76341 0.06874
 H821 H 0.82396 0.70250 0.05482
 H822 H 0.78926 0.70749 0.10069
 H823 H 0.86463 0.75187 0.15343
 C824 C 0.41436 0.26544 0.61577
 C825 C 0.42297 0.29329 0.62971
 C826 C 0.45076 0.30884 0.62279
 C827 C 0.47039 0.29531 0.60037
 C828 C 0.46222 0.26658 0.58550
 C829 C 0.43363 0.25152 0.59340
 O830 O 0.38736 0.25411 0.62635
 C831 C 0.37871 0.27531 0.64744
 C832 C 0.39976 0.29975 0.65029
 C833 C 0.39615 0.32390 0.67180
 C834 C 0.37027 0.32248 0.69170
 C835 C 0.34837 0.29739 0.68974
 C836 C 0.35235 0.27369 0.66683
 H837 H 0.45707 0.33069 0.63418
 H838 H 0.49178 0.30744 0.59426
 H839 H 0.42675 0.22951 0.58261
 H840 H 0.41315 0.34273 0.67381
 H841 H 0.36764 0.34054 0.70930
 H842 H 0.33650 0.25381 0.66541
 C843 C 0.92554 0.27326 0.94020
 C844 C 0.90622 0.29617 0.95141
 C845 C 0.90547 0.30459 0.98289
 C846 C 0.92632 0.28959 1.00355
 C847 C 0.94778 0.26683 0.99248
 C848 C 0.94679 0.25838 0.96018
 O849 O 0.92113 0.26735 0.90985
 C850 C 0.89867 0.28722 0.90165
 C851 C 0.88910 0.30566 0.92621
 C852 C 0.86512 0.32727 0.92339
 C853 C 0.84919 0.32874 0.89460
 C854 C 0.85718 0.30852 0.86949
 C855 C 0.88315 0.28836 0.87263
 H856 H 0.88965 0.32240 0.99120
 H857 H 0.92703 0.29736 1.02773
 H858 H 0.96211 0.24062 0.95083
 H859 H 0.85795 0.34143 0.94309
 H860 H 0.82913 0.34399 0.89257
 H861 H 0.88905 0.27192 0.85429
 C862 C 0.40604 0.74194 0.39350
 C863 C 0.38863 0.71640 0.40298
 C864 C 0.39129 0.70301 0.43279
 C865 C 0.41351 0.71588 0.45344
 C866 C 0.43254 0.74162 0.44405
 C867 C 0.42842 0.75506 0.41368
 O868 O 0.39932 0.75136 0.36433
 C869 C 0.37727 0.73117 0.35517
 C870 C 0.37018 0.70919 0.37798
 C871 C 0.34760 0.68604 0.37388
 C872 C 0.33072 0.68625 0.34561
 C873 C 0.33657 0.70932 0.32208
 C874 C 0.36075 0.73171 0.32655
 H875 H 0.37717 0.68298 0.43968
 H876 H 0.41687 0.70491 0.47624
 H877 H 0.44285 0.77451 0.40579
 H878 H 0.34248 0.66902 0.39218
 H879 H 0.31205 0.66923 0.34252
 H880 H 0.36511 0.75005 0.30933
 C881 C 0.08316 0.05720 0.27663
 C882 C 0.10584 0.04176 0.29351
 C883 C 0.10265 0.01071 0.30345
 C884 C 0.07522 -0.00535 0.29500
 C885 C 0.05184 0.00946 0.27622
 C886 C 0.05574 0.04174 0.26797
 O887 O 0.09145 0.08613 0.26800
 C888 C 0.12010 0.08897 0.27960
 C889 C 0.13001 0.06241 0.29536
 C890 C 0.16001 0.05931 0.30739
 C891 C 0.18072 0.08451 0.30280
 C892 C 0.17112 0.11219 0.28661
 C893 C 0.14017 0.11459 0.27525
 H894 H 0.12083 -0.00090 0.31685
 H895 H 0.07228 -0.02932 0.30324
 H896 H 0.03915 0.05397 0.25308
 H897 H 0.16743 0.03797 0.31920
 H898 H 0.20435 0.08237 0.31165
 H899 H 0.13242 0.13512 0.26223
 C900 C 0.60667 0.60110 0.72722
 C901 C 0.62678 0.59470 0.75168
 C902 C 0.62124 0.57069 0.77339
 C903 C 0.59348 0.55315 0.77022
 C904 C 0.57232 0.55916 0.74505
 C905 C 0.57970 0.58314 0.72290
 O906 O 0.61480 0.62636 0.71059
 C907 C 0.64069 0.63618 0.72481
 C908 C 0.64925 0.61744 0.74990
 C909 C 0.67559 0.62360 0.76819
 C910 C 0.69391 0.64994 0.76012
 C911 C 0.68515 0.66995 0.73479
 C912 C 0.65809 0.66299 0.71694
 H913 H 0.63698 0.56662 0.79298
 H914 H 0.58785 0.53619 0.78838
 H915 H 0.56398 0.58882 0.70368
 H916 H 0.68193 0.60857 0.78781
 H917 H 0.71472 0.65503 0.77378
 H918 H 0.65114 0.67768 0.69726
 C919 C 0.93569 0.12028 0.77835
 C920 C 0.95012 0.14815 0.77084
 C921 C 0.98070 0.14983 0.76036
 C922 C 0.99691 0.12147 0.75670
 C923 C 0.98267 0.09198 0.76406
 C924 C 0.95162 0.09198 0.77588
 O925 O 0.90576 0.12352 0.78551
 C926 C 0.90112 0.15425 0.78231
 C927 C 0.92766 0.17030 0.77355
 C928 C 0.92806 0.20236 0.76751
 C929 C 0.89999 0.21860 0.77045
 C930 C 0.87187 0.20275 0.77901
 C931 C 0.87265 0.16996 0.78525
 H932 H 0.99123 0.17208 0.75371
 H933 H 1.01962 0.12269 0.74596
 H934 H 0.93968 0.07041 0.78237
 H935 H 0.94916 0.21441 0.76035
 H936 H 0.90029 0.24362 0.76546
 H937 H 0.85178 0.15703 0.79157
 C938 C 0.41926 0.56734 0.23237
 C939 C 0.40448 0.55930 0.20467
 C940 C 0.41644 0.53747 0.18394
 C941 C 0.44406 0.52230 0.19273
 C942 C 0.45889 0.52899 0.22188
 C943 C 0.44671 0.55231 0.24172
 O944 O 0.40346 0.58811 0.24898
 C945 C 0.37813 0.59297 0.23154
 C946 C 0.37739 0.57557 0.20441
 C947 C 0.35220 0.57582 0.18357
 C948 C 0.32716 0.59567 0.19049
 C949 C 0.32817 0.61487 0.21753
 C950 C 0.35382 0.61325 0.23852
 H951 H 0.40432 0.53142 0.16239
 H952 H 0.45286 0.50378 0.17791
 H953 H 0.45699 0.55689 0.26457
 H954 H 0.35199 0.56152 0.16261
 H955 H 0.30772 0.59721 0.17417
 H956 H 0.35500 0.62782 0.25930
 C957 C 0.06993 0.92974 0.74129
 C958 C 0.06138 0.91510 0.71378
 C959 C 0.04120 0.92887 0.69201
 C960 C 0.02904 0.95862 0.69916
 C961 C 0.03628 0.97349 0.72817
 C962 C 0.05738 0.95876 0.74928
 O963 O 0.09117 0.91398 0.75771
 C964 C 0.09604 0.88871 0.74031
 C965 C 0.07808 0.88794 0.71339
 C966 C 0.07996 0.86366 0.69164
 C967 C 0.10179 0.83970 0.69752
 C968 C 0.12154 0.84097 0.72434
 C969 C 0.11824 0.86558 0.74624
 H970 H 0.03554 0.91744 0.67002
 H971 H 0.01411 0.97007 0.68203
 H972 H 0.06383 0.96955 0.77140
 H973 H 0.06565 0.86352 0.67058
 H974 H 0.10456 0.82120 0.68039
 H975 H 0.13336 0.86727 0.76667
 C976 C 0.57564 0.38605 0.25486
 C977 C 0.56140 0.36149 0.23933
 C978 C 0.53369 0.36481 0.22260
 C979 C 0.51969 0.39450 0.22246
 C980 C 0.53294 0.41985 0.23972
 C981 C 0.56177 0.41572 0.25554
 O982 O 0.60236 0.37795 0.26856
 C983 C 0.60487 0.34762 0.26165
 C984 C 0.58022 0.33637 0.24411
 C985 C 0.57774 0.30517 0.23474
 C986 C 0.60196 0.28478 0.24335
 C987 C 0.62822 0.29597 0.26054
 C988 C 0.62951 0.32787 0.27000
 H989 H 0.52323 0.34527 0.21011
 H990 H 0.49811 0.39763 0.20949
 H991 H 0.57254 0.43471 0.26863
 H992 H 0.55797 0.29687 0.22111
 H993 H 0.60073 0.26053 0.23571
 H994 H 0.64921 0.33708 0.28317
 C995 C 0.90055 0.91632 0.22841
 C996 C 0.90876 0.89674 0.20423
 C997 C 0.93550 0.90102 0.18668
 C998 C 0.95570 0.92528 0.19565
 C999 C 0.94916 0.94452 0.22206
 C1000 C 0.92011 0.94116 0.23740
 O1001 O 0.87573 0.90610 0.24398
 C1002 C 0.86851 0.87937 0.22955
 C1003 C 0.88819 0.87252 0.20522
 C1004 C 0.88716 0.84417 0.18911
 C1005 C 0.86445 0.82215 0.19805
 C1006 C 0.84332 0.82899 0.22245
 C1007 C 0.84529 0.85807 0.23836
 H1008 H 0.94152 0.88511 0.16794
 H1009 H 0.97747 0.92794 0.18313
 H1010 H 0.91478 0.95447 0.25828
 H1011 H 0.90348 0.83903 0.17061
 H1012 H 0.86278 0.80014 0.18545
 H1013 H 0.82956 0.86364 0.25728
 C1014 C 0.41393 0.46208 0.75410
 C1015 C 0.39802 0.47327 0.77957
 C1016 C 0.40466 0.50230 0.79314
 C1017 C 0.42964 0.51987 0.78080
 C1018 C 0.44685 0.50850 0.75492
 C1019 C 0.43797 0.47965 0.74079
 O1020 O 0.40567 0.43303 0.74613
 C1021 C 0.38405 0.42562 0.76706
 C1022 C 0.37839 0.44948 0.78796
 C1023 C 0.35692 0.44657 0.81209
 C1024 C 0.34004 0.41826 0.81422
 C1025 C 0.34540 0.39334 0.79288
 C1026 C 0.36808 0.39696 0.76923
 H1027 H 0.39226 0.51030 0.81362
 H1028 H 0.43682 0.54115 0.79276
 H1029 H 0.45119 0.46993 0.72160
 H1030 H 0.35291 0.46560 0.82834
 H1031 H 0.32248 0.41582 0.83223
 H1032 H 0.37224 0.37857 0.75233
 C1033 C 0.09232 0.25715 0.95934
 C1034 C 0.11454 0.27505 0.97427
 C1035 C 0.11071 0.28643 1.00452
 C1036 C 0.08265 0.27943 1.01993
 C1037 C 0.05913 0.26042 1.00548
 C1038 C 0.06472 0.24904 0.97454
 O1039 O 0.09972 0.25005 0.92994
 C1040 C 0.12732 0.26383 0.92623
 C1041 C 0.13750 0.27922 0.95279
 C1042 C 0.16576 0.29527 0.95421
 C1043 C 0.18435 0.29531 0.92727
 C1044 C 0.17433 0.27995 0.89934
 C1045 C 0.14519 0.26413 0.89882
 H1046 H 0.12818 0.30135 1.01543
 H1047 H 0.07879 0.29090 1.04210
 H1048 H 0.04800 0.23424 0.96235
 H1049 H 0.17330 0.30722 0.97536
 H1050 H 0.20649 0.30767 0.92805
 H1051 H 0.13693 0.25215 0.87797
 C1052 C 0.57858 0.75526 0.40818
 C1053 C 0.59802 0.73125 0.41734
 C1054 C 0.59324 0.71340 0.44442
 C1055 C 0.56688 0.72016 0.46244
 C1056 C 0.54655 0.74490 0.45345
 C1057 C 0.55289 0.76292 0.42615
 O1058 O 0.58627 0.76831 0.38090
 C1059 C 0.61121 0.75221 0.37259
 C1060 C 0.61943 0.72938 0.39421
 C1061 C 0.64479 0.70973 0.39029
 C1062 C 0.66269 0.71415 0.36327
 C1063 C 0.65465 0.73749 0.34060
 C1064 C 0.62830 0.75655 0.34513
 H1065 H 0.60858 0.69422 0.45080
 H1066 H 0.56168 0.70536 0.48253
 H1067 H 0.53743 0.78153 0.41841
 H1068 H 0.65076 0.69187 0.40754
 H1069 H 0.68286 0.69938 0.35993
 H1070 H 0.62186 0.77464 0.32829
 C1071 C 0.93600 0.76097 0.87352
 C1072 C 0.94069 0.79122 0.86268
 C1073 C 0.95863 0.81319 0.87899
 C1074 C 0.97219 0.80358 0.90760
 C1075 C 0.96878 0.77216 0.91856
 C1076 C 0.95020 0.75064 0.90135
 O1077 O 0.91554 0.74484 0.85635
 C1078 C 0.90725 0.76526 0.83410
 C1079 C 0.92222 0.79388 0.83667
 C1080 C 0.91587 0.81914 0.81663
 C1081 C 0.89289 0.81481 0.79331
 C1082 C 0.87661 0.78584 0.79085
 C1083 C 0.88404 0.76066 0.81139
 H1084 H 0.96106 0.83718 0.87065
 H1085 H 0.98519 0.82056 0.92143
 H1086 H 0.94578 0.72709 0.91019
 H1087 H 0.92758 0.84160 0.81939
 H1088 H 0.88663 0.83442 0.77828
 H1089 H 0.87131 0.73859 0.81042
 C1090 C 0.43221 0.23114 0.43772
 C1091 C 0.43979 0.20294 0.42416
 C1092 C 0.46265 0.18324 0.43643
 C1093 C 0.47830 0.19305 0.46380
 C1094 C 0.47162 0.22258 0.47765
 C1095 C 0.44813 0.24179 0.46424
 O1096 O 0.40842 0.24540 0.42372
 C1097 C 0.40085 0.22583 0.40073
 C1098 C 0.41954 0.19965 0.39969
 C1099 C 0.41554 0.17607 0.37744
 C1100 C 0.39110 0.17956 0.35558
 C1101 C 0.37099 0.20583 0.35702
 C1102 C 0.37604 0.22936 0.37975
 H1103 H 0.46763 0.16073 0.42587
 H1104 H 0.49512 0.17734 0.47448
 H1105 H 0.44210 0.26421 0.47442
 H1106 H 0.43055 0.15569 0.37703
 H1107 H 0.38722 0.16146 0.33814
 H1108 H 0.36106 0.24969 0.38106
 C1109 C 0.05349 0.75015 0.08031
 C1110 C 0.04979 0.71983 0.09117
 C1111 C 0.02525 0.70046 0.08136
 C1112 C 0.00478 0.71223 0.05813
 C1113 C 0.00898 0.74297 0.04563
 C1114 C 0.03287 0.76257 0.05809
 O1115 O 0.07963 0.76383 0.09037
 C1116 C 0.09291 0.74165 0.10793
 C1117 C 0.07558 0.71426 0.10923
 C1118 C 0.08575 0.68761 0.12535
 C1119 C 0.11446 0.68953 0.14134
 C1120 C 0.13265 0.71750 0.14043
 C1121 C 0.12179 0.74393 0.12336
 H1122 H 0.02314 0.67645 0.08977
 H1123 H -0.01264 0.69664 0.04809
 H1124 H 0.03741 0.78562 0.04804
 H1125 H 0.07191 0.66623 0.12591
 H1126 H 0.12238 0.66943 0.15494
 H1127 H 0.13499 0.76573 0.12283
 C1128 C 0.58043 0.26640 0.62243
 C1129 C 0.57072 0.24819 0.64731
 C1130 C 0.54151 0.23380 0.64831
 C1131 C 0.52200 0.23710 0.62188
 C1132 C 0.53196 0.25467 0.59533
 C1133 C 0.56118 0.27048 0.59622
 O1134 O 0.60963 0.27670 0.62549
 C1135 C 0.61864 0.26454 0.65289
 C1136 C 0.59564 0.24684 0.66705
 C1137 C 0.60010 0.23112 0.69534
 C1138 C 0.62908 0.23462 0.71024
 C1139 C 0.65303 0.25349 0.69675
 C1140 C 0.64794 0.26819 0.66725
 H1141 H 0.53459 0.21930 0.66809
 H1142 H 0.50014 0.22424 0.62125
 H1143 H 0.56963 0.28356 0.57605
 H1144 H 0.58180 0.21698 0.70579
 H1145 H 0.63266 0.22311 0.73276
 H1146 H 0.66562 0.28296 0.65657
 C1147 C 0.90244 0.24519 0.10457
 C1148 C 0.88130 0.22648 0.08891
 C1149 C 0.88631 0.21571 0.05853
 C1150 C 0.91447 0.22412 0.04390
 C1151 C 0.93680 0.24345 0.05947
 C1152 C 0.93022 0.25443 0.09020
 O1153 O 0.89382 0.25193 0.13371
 C1154 C 0.86658 0.23715 0.13654
 C1155 C 0.85781 0.22138 0.10971
 C1156 C 0.83021 0.20423 0.10752
 C1157 C 0.81077 0.20344 0.13392
 C1158 C 0.81924 0.21934 0.16207
 C1159 C 0.84777 0.23631 0.16333
 H1160 H 0.86948 0.20069 0.04679
 H1161 H 0.91924 0.21485 0.02082
 H1162 H 0.94654 0.26926 0.10287
 H1163 H 0.82381 0.19191 0.08622
 H1164 H 0.78922 0.19011 0.13249
 H1165 H 0.85494 0.24874 0.18434
 C1166 C 0.39578 0.75660 0.55962
 C1167 C 0.37526 0.77823 0.54738
 C1168 C 0.37871 0.79157 0.51763
 C1169 C 0.40500 0.78303 0.50023
 C1170 C 0.42688 0.76128 0.51269
 C1171 C 0.42157 0.74730 0.54250
 O1172 O 0.38884 0.74731 0.58858
 C1173 C 0.36334 0.76348 0.59488
 C1174 C 0.35404 0.78270 0.57040
 C1175 C 0.32776 0.80154 0.57183
 C1176 C 0.30994 0.79986 0.59925
 C1177 C 0.31884 0.77994 0.62466
 C1178 C 0.34626 0.76188 0.62264
 H1179 H 0.36229 0.80867 0.50856
 H1180 H 0.40902 0.79432 0.47773
 H1181 H 0.43776 0.73055 0.55265
 H1182 H 0.32088 0.81646 0.55231
 H1183 H 0.28882 0.81363 0.60052
 H1184 H 0.35319 0.74601 0.64140
 C1185 C 0.25639 0.09428 0.93223
 C1186 C 0.28070 0.11138 0.94464
 C1187 C 0.29933 0.10011 0.96897
 C1188 C 0.29253 0.07008 0.98117
 C1189 C 0.26661 0.05204 0.96991
 C1190 C 0.24859 0.06480 0.94461
 O1191 O 0.24231 0.10867 0.90828
 C1192 C 0.25807 0.13553 0.90557
 C1193 C 0.28160 0.13851 0.92752
 C1194 C 0.30060 0.16510 0.92939
 C1195 C 0.29518 0.18955 0.90768
 C1196 C 0.27164 0.18664 0.88427
 C1197 C 0.25284 0.15918 0.88320
 H1198 H 0.31905 0.11357 0.97766
 H1199 H 0.30867 0.06058 0.99829
 H1200 H 0.22832 0.05279 0.93516
 H1201 H 0.31885 0.16701 0.94698
 H1202 H 0.30972 0.21046 0.90864
 H1203 H 0.23457 0.15650 0.86570
 C1204 C 0.72411 0.58842 0.41611
 C1205 C 0.69631 0.58612 0.39991
 C1206 C 0.67318 0.56445 0.40750
 C1207 C 0.67926 0.54368 0.43239
 C1208 C 0.70807 0.54493 0.44887
 C1209 C 0.73059 0.56803 0.44109
 O1210 O 0.74364 0.60933 0.40367
 C1211 C 0.72790 0.62020 0.37895
 C1212 C 0.69888 0.60658 0.37561
 C1213 C 0.67932 0.61254 0.35017
 C1214 C 0.69011 0.63345 0.32716
 C1215 C 0.71980 0.64797 0.33011
 C1216 C 0.73885 0.64164 0.35659
 H1217 H 0.65170 0.56289 0.39409
 H1218 H 0.66205 0.52586 0.43822
 H1219 H 0.75302 0.56883 0.45290
 H1220 H 0.65678 0.60118 0.34789
 H1221 H 0.67518 0.63880 0.30726
 H1222 H 0.76168 0.65235 0.35916
 C1223 C 0.75512 0.06038 0.08584
 C1224 C 0.77430 0.04859 0.10894
 C1225 C 0.79452 0.02373 0.10395
 C1226 C 0.79508 0.01048 0.07382
 C1227 C 0.77480 0.02139 0.04944
 C1228 C 0.75458 0.04698 0.05604
 O1229 O 0.73880 0.08516 0.09496
 C1230 C 0.74785 0.08905 0.12459
 C1231 C 0.76935 0.06706 0.13431
 C1232 C 0.78195 0.06652 0.16442
 C1233 C 0.77197 0.08954 0.18542
 C1234 C 0.75027 0.11301 0.17594
 C1235 C 0.73810 0.11277 0.14493
 H1236 H 0.81010 0.01549 0.12231
 H1237 H 0.81242 -0.00726 0.06935
 H1238 H 0.73861 0.05626 0.03853
 H1239 H 0.79886 0.04900 0.17153
 H1240 H 0.78177 0.08946 0.20895
 H1241 H 0.72159 0.13033 0.13700
 C1242 C 0.24396 0.57937 0.57552
 C1243 C 0.26684 0.59939 0.56451
 C1244 C 0.28714 0.59136 0.54079
 C1245 C 0.28325 0.56174 0.52726
 C1246 C 0.25893 0.54114 0.53706
 C1247 C 0.23921 0.54986 0.56190
 O1248 O 0.22764 0.59169 0.59870
 C1249 C 0.24037 0.62006 0.60207
 C1250 C 0.26417 0.62605 0.58141
 C1251 C 0.28020 0.65461 0.58021
 C1252 C 0.27177 0.67779 0.60177
 C1253 C 0.24819 0.67160 0.62406
 C1254 C 0.23209 0.64249 0.62409
 H1255 H 0.30512 0.60741 0.53278
 H1256 H 0.29857 0.55510 0.50834
 H1257 H 0.22040 0.53465 0.56964
 H1258 H 0.29870 0.65874 0.56352
 H1259 H 0.28435 0.69998 0.60202
 H1260 H 0.21405 0.63739 0.64106
 C1261 C 0.77478 0.93612 0.88574
 C1262 C 0.79572 0.94813 0.86451
 C1263 C 0.81296 0.97546 0.87027
 C1264 C 0.80899 0.99052 0.89939
 C1265 C 0.78755 0.97850 0.92177
 C1266 C 0.76974 0.95125 0.91417
 O1267 O 0.76194 0.90905 0.87681
 C1268 C 0.77499 0.90375 0.84919
 C1269 C 0.79565 0.92709 0.84042
 C1270 C 0.81179 0.92625 0.81222
 C1271 C 0.80613 0.90061 0.79220
 C1272 C 0.78523 0.87608 0.80093
 C1273 C 0.76964 0.87758 0.83001
 H1274 H 0.82978 0.98419 0.85347
 H1275 H 0.82371 1.01046 0.90489
 H1276 H 0.75330 0.94121 0.93066
 H1277 H 0.82792 0.94481 0.80571
 H1278 H 0.81814 0.89970 0.76993
 H1279 H 0.75335 0.85936 0.83708
 C1280 C 0.26349 0.39790 0.41509
 C1281 C 0.28888 0.38144 0.42620
 C1282 C 0.30742 0.39186 0.45089
 C1283 C 0.29888 0.41987 0.46546
 C1284 C 0.27177 0.43650 0.45578
 C1285 C 0.25424 0.42576 0.42962
 O1286 O 0.24901 0.38350 0.39145
 C1287 C 0.26546 0.35736 0.38792
 C1288 C 0.28983 0.35481 0.40891
 C1289 C 0.30890 0.32849 0.41074
 C1290 C 0.30295 0.30395 0.38961
 C1291 C 0.27880 0.30656 0.36690
 C1292 C 0.25971 0.33362 0.36610
 H1293 H 0.32743 0.37861 0.45899
 H1294 H 0.31278 0.42812 0.48516
 H1295 H 0.23331 0.43775 0.42193
 H1296 H 0.32754 0.32681 0.42794
 H1297 H 0.31757 0.28331 0.39035
 H1298 H 0.24088 0.33594 0.34918
 C1299 C 0.23396 0.89351 0.06429
 C1300 C 0.24918 0.86936 0.04973
 C1301 C 0.26205 0.87238 0.01992
 C1302 C 0.25980 0.90178 0.00478
 C1303 C 0.24413 0.92716 0.01920
 C1304 C 0.23056 0.92257 0.04924
 O1305 O 0.22503 0.88638 0.09335
 C1306 C 0.23480 0.85699 0.09725
 C1307 C 0.24953 0.84549 0.07112
 C1308 C 0.26188 0.81543 0.06999
 C1309 C 0.25861 0.79626 0.09667
 C1310 C 0.24363 0.80742 0.12409
 C1311 C 0.23181 0.83845 0.12446
 H1312 H 0.27442 0.85315 0.00920
 H1313 H 0.27117 0.90510 -0.01762
 H1314 H 0.21893 0.94159 0.06114
 H1315 H 0.27352 0.80696 0.04924
 H1316 H 0.26802 0.77268 0.09605
 H1317 H 0.22025 0.84762 0.14493
 C1318 C 0.72896 0.41977 0.58562
 C1319 C 0.75289 0.39945 0.57945
 C1320 C 0.76878 0.39927 0.55107
 C1321 C 0.75999 0.42147 0.52821
 C1322 C 0.73549 0.44279 0.53409
 C1323 C 0.71958 0.44165 0.56311
 O1324 O 0.71732 0.41637 0.61429
 C1325 C 0.73432 0.39332 0.62655
 C1326 C 0.75635 0.38223 0.60605
 C1327 C 0.77663 0.35810 0.61362
 C1328 C 0.77373 0.34433 0.64332
 C1329 C 0.75095 0.35489 0.66483
 C1330 C 0.73124 0.38017 0.65661
 H1331 H 0.78768 0.38309 0.54695
 H1332 H 0.77266 0.42261 0.50633
 H1333 H 0.70093 0.45786 0.56821
 H1334 H 0.79379 0.34987 0.59712
 H1335 H 0.78912 0.32512 0.64953
 H1336 H 0.71355 0.38844 0.67251
 C1337 C 0.09996 0.11114 0.77122
 C1338 C 0.09327 0.12357 0.80013
 C1339 C 0.06693 0.11487 0.81710
 C1340 C 0.04653 0.09261 0.80365
 C1341 C 0.05244 0.07997 0.77350
 C1342 C 0.07988 0.08911 0.75733
 O1343 O 0.12571 0.12321 0.75863
 C1344 C 0.13546 0.14382 0.78000
 C1345 C 0.11634 0.14499 0.80579
 C1346 C 0.12111 0.16616 0.83018
 C1347 C 0.14627 0.18728 0.82767
 C1348 C 0.16632 0.18665 0.80135
 C1349 C 0.16113 0.16424 0.77736
 H1350 H 0.06211 0.12503 0.83979
 H1351 H 0.02593 0.08549 0.81645
 H1352 H 0.08494 0.07995 0.73425
 H1353 H 0.10550 0.16702 0.85001
 H1354 H 0.14995 0.20452 0.84598
 H1355 H 0.17558 0.16385 0.75663
 C1356 C 0.57392 0.57145 0.23619
 C1357 C 0.56186 0.59380 0.21615
 C1358 C 0.53523 0.58856 0.19805
 C1359 C 0.52007 0.55932 0.20127
 C1360 C 0.53095 0.53647 0.22325
 C1361 C 0.55869 0.54272 0.24051
 O1362 O 0.60023 0.58046 0.25016
 C1363 C 0.60476 0.60929 0.23888
 C1364 C 0.58169 0.61878 0.21833
 C1365 C 0.58143 0.64847 0.20440
 C1366 C 0.60615 0.66904 0.21166
 C1367 C 0.63083 0.65933 0.23182
 C1368 C 0.63006 0.62898 0.24563
 H1369 H 0.52669 0.60616 0.18168
 H1370 H 0.50018 0.55462 0.18632
 H1371 H 0.56790 0.52591 0.25735
 H1372 H 0.56291 0.65551 0.18848
 H1373 H 0.60665 0.69212 0.20070
 H1374 H 0.64865 0.62087 0.26089
 C1375 C 0.08470 0.89375 0.25232
 C1376 C 0.10682 0.90592 0.23242
 C1377 C 0.10641 0.93687 0.22152
 C1378 C 0.08141 0.95578 0.23057
 C1379 C 0.05782 0.94352 0.25037
 C1380 C 0.05996 0.91228 0.26198
 O1381 O 0.08882 0.86345 0.25900
 C1382 C 0.11409 0.85627 0.24281
 C1383 C 0.12584 0.88149 0.22611
 C1384 C 0.15172 0.87938 0.20703
 C1385 C 0.16678 0.85035 0.20588
 C1386 C 0.15588 0.82407 0.22361
 C1387 C 0.12866 0.82689 0.24186
 H1388 H 0.12403 0.94575 0.20565
 H1389 H 0.07952 0.97936 0.22094
 H1390 H 0.04181 0.90220 0.27653
 H1391 H 0.16030 0.89947 0.19386
 H1392 H 0.18749 0.84855 0.19167
 H1393 H 0.11996 0.80739 0.25581
 C1394 C 0.59854 0.45139 0.75293
 C1395 C 0.59115 0.43678 0.78090
 C1396 C 0.56859 0.44797 0.80103
 C1397 C 0.55203 0.47463 0.79146
 C1398 C 0.55763 0.48919 0.76187
 C1399 C 0.58185 0.47791 0.74260
 O1400 O 0.62102 0.43666 0.73759
 C1401 C 0.62756 0.41218 0.75617
 C1402 C 0.60953 0.41101 0.78268
 C1403 C 0.61131 0.38673 0.80469
 C1404 C 0.63325 0.36301 0.79965
 C1405 C 0.65326 0.36437 0.77335
 C1406 C 0.65018 0.38921 0.75111
 H1407 H 0.56343 0.43619 0.82302
 H1408 H 0.53361 0.48312 0.80641
 H1409 H 0.58636 0.48833 0.71979
 H1410 H 0.59649 0.38619 0.82515
 H1411 H 0.63564 0.34437 0.81697
 H1412 H 0.66521 0.39078 0.73083
 C1413 C 0.90445 0.04867 0.25920
 C1414 C 0.89834 0.05696 0.22846
 C1415 C 0.91308 0.04296 0.20317
 C1416 C 0.93563 0.02005 0.20990
 C1417 C 0.94310 0.01200 0.24143
 C1418 C 0.92700 0.02622 0.26640
 O1419 O 0.88820 0.06510 0.27975
 C1420 C 0.87167 0.08439 0.26162
 C1421 C 0.87727 0.08058 0.23005
 C1422 C 0.86348 0.09928 0.20696
 C1423 C 0.84274 0.12256 0.21681
 C1424 C 0.83599 0.12622 0.24910
 C1425 C 0.85060 0.10693 0.27186
 H1426 H 0.90794 0.04995 0.17919
 H1427 H 0.94830 0.00961 0.19072
 H1428 H 0.93272 0.02077 0.29065
 H1429 H 0.86843 0.09603 0.18230
 H1430 H 0.83118 0.13712 0.19932
 H1431 H 0.84554 0.10931 0.29662
 C1432 C 0.41057 0.60400 0.73089
 C1433 C 0.41770 0.62860 0.75056
 C1434 C 0.44447 0.62976 0.76895
 C1435 C 0.46524 0.60472 0.76676
 C1436 C 0.45939 0.57927 0.74602
 C1437 C 0.43131 0.57868 0.72804
 O1438 O 0.38359 0.60806 0.71561
 C1439 C 0.37378 0.63591 0.72583
 C1440 C 0.39414 0.64931 0.74705
 C1441 C 0.38962 0.67865 0.76020
 C1442 C 0.36289 0.69508 0.75127
 C1443 C 0.34090 0.68202 0.72981
 C1444 C 0.34631 0.65174 0.71700
 H1445 H 0.44929 0.64937 0.78441
 H1446 H 0.48620 0.60528 0.78111
 H1447 H 0.42622 0.55963 0.71199
 H1448 H 0.40617 0.68864 0.77672
 H1449 H 0.35903 0.71789 0.76171
 H1450 H 0.32999 0.64118 0.70058
 C1451 C 0.93700 0.94043 0.71870
 C1452 C 0.91845 0.95254 0.69507
 C1453 C 0.92368 0.98186 0.68148
 C1454 C 0.94864 0.99977 0.69318
 C1455 C 0.96739 0.98848 0.71844
 C1456 C 0.96175 0.95811 0.73108
 O1457 O 0.92731 0.91246 0.72890
 C1458 C 0.90199 0.90703 0.71155
 C1459 C 0.89536 0.93100 0.69074
 C1460 C 0.86855 0.93138 0.67211
 C1461 C 0.84772 0.90594 0.67505
 C1462 C 0.85445 0.88062 0.69577
 C1463 C 0.88213 0.88104 0.71402
 H1464 H 0.90872 0.99089 0.66297
 H1465 H 0.95278 1.02298 0.68335
 H1466 H 0.97530 0.94918 0.75074
 H1467 H 0.86353 0.95086 0.65641
 H1468 H 0.82648 0.90581 0.66112
 H1469 H 0.88748 0.86220 0.73033
 C1470 C 0.42141 0.38826 0.25674
 C1471 C 0.43370 0.36916 0.27983
 C1472 C 0.46215 0.37540 0.29453
 C1473 C 0.47850 0.40252 0.28501
 C1474 C 0.46652 0.42213 0.26070
 C1475 C 0.43751 0.41475 0.24649
 O1476 O 0.39416 0.37831 0.24569
 C1477 C 0.38911 0.35219 0.26202
 C1478 C 0.41271 0.34537 0.28308
 C1479 C 0.41282 0.31828 0.30155
 C1480 C 0.38773 0.29729 0.29789
 C1481 C 0.36310 0.30408 0.27650
 C1482 C 0.36357 0.33209 0.25863
 H1483 H 0.47131 0.36008 0.31274
 H1484 H 0.50047 0.40821 0.29638
 H1485 H 0.42789 0.42903 0.22765
 H1486 H 0.43176 0.31322 0.31771
 H1487 H 0.38738 0.27577 0.31171
 H1488 H 0.34522 0.33747 0.24185
   
