data_POSCAR
  _audit_creation_date              2014-09-24
  _audit_creation_method            'ToBaCCo'
  _symmetry_space_group_name_H-M    'P1'
  _symmetry_Int_Tables_number       1
  _symmetry_cell_setting            triclinic
  loop_
  _symmetry_equiv_pos_as_xyz
 x,y,z
_cell_length_a 65.6251
_cell_length_b 64.9660
_cell_length_c 68.8400
_cell_angle_alpha 89.850900
_cell_angle_beta 89.994000
_cell_angle_gamma 90.101500
loop_
  _atom_site_label
  _atom_site_type_symbol
  _atom_site_fract_x
  _atom_site_fract_y
  _atom_site_fract_z
O1 O 0.37414 0.34942 -0.01804
 O2 O 0.34572 0.37823 0.01911
 O3 O 0.37401 0.35022 0.01983
 O4 O 0.34567 0.37719 -0.01880
 O5 O 0.32218 0.35292 -0.01810
 O6 O 0.35055 0.32586 0.02023
 O7 O 0.32216 0.35397 0.01955
 O8 O 0.35074 0.32500 -0.01740
 Cu9 Cu 0.36223 0.36621 0.00047
 Cu10 Cu 0.33405 0.33701 0.00113
 C11 C 0.36736 0.33224 -0.02401
 C12 C 0.32904 0.37107 0.02563
 C13 C 0.36716 0.33334 0.02655
 C14 C 0.32899 0.36972 -0.02505
 O15 O 0.64358 0.66690 -0.02431
 O16 O 0.67158 0.64183 0.01556
 O17 O 0.64294 0.66931 0.01337
 O18 O 0.67272 0.63943 -0.02211
 O19 O 0.69569 0.66418 -0.02312
 O20 O 0.66583 0.69418 0.01195
 O21 O 0.69455 0.66664 0.01471
 O22 O 0.66691 0.69137 -0.02562
 Cu23 Cu 0.65540 0.65188 -0.00432
 Cu24 Cu 0.68309 0.68153 -0.00560
 C25 C 0.65040 0.68347 -0.03173
 C26 C 0.68782 0.64998 0.02203
 C27 C 0.64926 0.68693 0.01864
 C28 C 0.68938 0.64666 -0.02869
 O29 O 0.64046 0.33294 1.02426
 O30 O 0.66679 0.36266 0.98623
 O31 O 0.63991 0.33315 0.98640
 O32 O 0.66803 0.36208 1.02391
 O33 O 0.69214 0.33852 1.02355
 O34 O 0.66456 0.31014 0.98568
 O35 O 0.69140 0.33960 0.98566
 O36 O 0.66477 0.30956 1.02349
 Cu37 Cu 0.65133 0.35001 1.00530
 Cu38 Cu 0.68067 0.32214 1.00454
 C39 C 0.64802 0.31613 1.03035
 C40 C 0.68361 0.35626 0.97944
 C41 C 0.64752 0.31672 0.97955
 C42 C 0.68496 0.35524 1.03018
 O43 O 0.32426 0.64226 0.97938
 O44 O 0.35354 0.67153 1.01568
 O45 O 0.32486 0.64374 1.01714
 O46 O 0.35277 0.67021 0.97789
 O47 O 0.32935 0.69451 0.97740
 O48 O 0.30163 0.66818 1.01671
 O49 O 0.33020 0.69591 1.01521
 O50 O 0.30091 0.66663 0.97893
 Cu51 Cu 0.34120 0.65450 0.99757
 Cu52 Cu 0.31319 0.68375 0.99702
 C53 C 0.30757 0.64942 0.97294
 C54 C 0.34688 0.68873 1.02167
 C55 C 0.30842 0.65140 1.02368
 C56 C 0.34580 0.68690 0.97091
 O57 O -0.02129 0.37906 0.34711
 O58 O 0.02003 0.34960 0.37073
 O59 O 0.01836 0.37890 0.34490
 O60 O -0.01942 0.35010 0.37364
 O61 O -0.02157 0.32686 0.35048
 O62 O 0.01665 0.35537 0.32191
 O63 O 0.01791 0.32621 0.34765
 O64 O -0.02297 0.35558 0.32409
 Cu65 Cu -0.00045 0.36679 0.36140
 Cu66 Cu -0.00273 0.33869 0.33372
 C67 C -0.02912 0.37235 0.33146
 C68 C 0.02601 0.33282 0.36318
 C69 C 0.02410 0.37200 0.32855
 C70 C -0.02690 0.33345 0.36710
 O71 O 0.01919 0.64427 0.62291
 O72 O -0.02204 0.61751 0.64924
 O73 O -0.02035 0.64520 0.62163
 O74 O 0.01752 0.61665 0.65055
 O75 O 0.01756 0.64153 0.67230
 O76 O -0.02086 0.66958 0.64381
 O77 O -0.02204 0.64207 0.67130
 O78 O 0.01879 0.66902 0.64477
 Cu79 Cu -0.00140 0.62844 0.63388
 Cu80 Cu -0.00166 0.65802 0.66023
 C81 C 0.02596 0.66131 0.62928
 C82 C -0.02899 0.62515 0.66487
 C83 C -0.02711 0.66233 0.62774
 C84 C 0.02399 0.62421 0.66640
 O85 O 1.02158 0.62777 0.34711
 O86 O 0.98108 0.65041 0.37750
 O87 O 0.98227 0.62517 0.34806
 O88 O 1.02089 0.65271 0.37678
 O89 O 1.01830 0.67945 0.35719
 O90 O 0.98052 0.65146 0.32778
 O91 O 0.97876 0.67647 0.35703
 O92 O 1.02002 0.65462 0.32748
 Cu93 Cu 1.00167 0.63641 0.36444
 Cu94 Cu 0.99924 0.66817 0.34039
 C95 C 1.02763 0.63730 0.33202
 C96 C 0.97283 0.66725 0.37230
 C97 C 0.97495 0.63350 0.33288
 C98 C 1.02618 0.67086 0.37201
 O99 O 0.98204 0.34327 0.62547
 O100 O 1.02304 0.36616 0.65506
 O101 O 1.02164 0.33957 0.62689
 O102 O 0.98368 0.36988 0.65396
 O103 O 0.98072 0.34459 0.67522
 O104 O 1.01803 0.31413 0.64784
 O105 O 1.02016 0.34065 0.67609
 O106 O 0.97871 0.31824 0.64695
 Cu107 Cu 1.00287 0.35724 0.63818
 Cu108 Cu 0.99910 0.32688 0.66365
 C109 C 0.97335 0.32682 0.63116
 C110 C 1.02862 0.35731 0.67065
 C111 C 1.02633 0.32159 0.63269
 C112 C 0.97584 0.36246 0.66934
 O113 O 0.34773 -0.02511 0.37029
 O114 O 0.37513 0.01684 0.34516
 O115 O 0.34738 0.01503 0.37199
 O116 O 0.37586 -0.02302 0.34326
 O117 O 0.35197 -0.02214 0.32074
 O118 O 0.32316 0.01538 0.34976
 O119 O 0.35095 0.01782 0.32292
 O120 O 0.32406 -0.02451 0.34756
 Cu121 Cu 0.36390 -0.00423 0.35997
 Cu122 Cu 0.33514 -0.00332 0.33300
 C123 C 0.33115 -0.03195 0.36323
 C124 C 0.36767 0.02454 0.32974
 C125 C 0.33042 0.02175 0.36577
 C126 C 0.36892 -0.02889 0.32696
 O127 O 0.66224 -0.02055 0.63684
 O128 O 0.63235 0.01829 0.66322
 O129 O 0.66053 0.01940 0.63617
 O130 O 0.63452 -0.02164 0.66379
 O131 O 0.65852 -0.02011 0.68618
 O132 O 0.68416 0.02117 0.65891
 O133 O 0.65620 0.01987 0.68574
 O134 O 0.68619 -0.01887 0.65926
 Cu135 Cu 0.64501 -0.00120 0.64774
 Cu136 Cu 0.67366 0.00072 0.67477
 C137 C 0.67931 -0.02641 0.64355
 C138 C 0.63905 0.02558 0.67910
 C139 C 0.67688 0.02721 0.64278
 C140 C 0.64214 -0.02796 0.67969
 O141 O 0.36567 0.98403 0.66314
 O142 O 0.33973 1.02439 0.63458
 O143 O 0.36803 1.02391 0.66126
 O144 O 0.33783 0.98433 0.63609
 O145 O 0.31369 0.98715 0.65823
 O146 O 0.34447 1.02579 0.68404
 O147 O 0.31638 1.02696 0.65750
 O148 O 0.34142 0.98580 0.68527
 Cu149 Cu 0.35520 1.00394 0.64649
 Cu150 Cu 0.32664 1.00663 0.67353
 C151 C 0.35790 0.97798 0.67908
 C152 C 0.32361 1.03262 0.64123
 C153 C 0.36148 1.03153 0.67704
 C154 C 0.32052 0.97910 0.64274
 O155 O 0.65336 1.01700 0.36908
 O156 O 0.62701 0.97667 0.34140
 O157 O 0.65460 0.97693 0.36874
 O158 O 0.62688 1.01671 0.34072
 O159 O 0.65177 1.01708 0.31918
 O160 O 0.67925 0.97779 0.34696
 O161 O 0.65165 0.97697 0.31962
 O162 O 0.67799 1.01767 0.34734
 Cu163 Cu 0.63799 0.99677 0.35716
 Cu164 Cu 0.66760 0.99737 0.33108
 C165 C 0.67021 1.02427 0.36306
 C166 C 0.63472 0.96995 0.32574
 C167 C 0.67183 0.97074 0.36265
 C168 C 0.63471 1.02371 0.32514
 C169 C 0.80558 0.80463 0.51161
 C170 C 0.80381 0.80398 0.49189
 C171 C 0.81617 0.78990 0.47967
 C172 C 0.79017 0.81843 0.48144
 C173 C 0.79269 0.81865 0.52338
 C174 C 0.82075 0.79208 0.52244
 C175 C 0.82784 0.79809 0.46443
 C176 C 0.84017 0.78536 0.45318
 C177 C 0.84103 0.76408 0.45681
 C178 C 0.82905 0.75579 0.47189
 C179 C 0.81662 0.76858 0.48314
 C180 C 0.79371 0.83972 0.48214
 C181 C 0.78088 0.85327 0.47221
 C182 C 0.76426 0.84575 0.46147
 C183 C 0.76076 0.82441 0.46079
 C184 C 0.77374 0.81085 0.47056
 C185 C 0.77135 0.81728 0.52283
 C186 C 0.75942 0.83098 0.53355
 C187 C 0.76863 0.84620 0.54512
 C188 C 0.79003 0.84724 0.54588
 C189 C 0.80192 0.83354 0.53519
 C190 C 0.81445 0.78063 0.53869
 C191 C 0.82851 0.76921 0.54943
 C192 C 0.84914 0.76893 0.54405
 C193 C 0.85550 0.78043 0.52783
 C194 C 0.84148 0.79216 0.51729
 H195 H 0.82777 0.81449 0.46152
 H196 H 0.84943 0.79228 0.44189
 H197 H 0.82919 0.73942 0.47487
 H198 H 0.80746 0.76189 0.49463
 H199 H 0.80645 0.84580 0.49034
 H200 H 0.78384 0.86965 0.47303
 H201 H 0.77090 0.79444 0.46980
 H202 H 0.76396 0.80564 0.51406
 H203 H 0.74300 0.82954 0.53291
 H204 H 0.79760 0.85894 0.55444
 H205 H 0.81837 0.83481 0.53579
 H206 H 0.79858 0.78050 0.54304
 H207 H 0.82325 0.76040 0.56183
 H208 H 0.87140 0.78069 0.52360
 H209 H 0.84683 0.80140 0.50521
 H210 H 0.74819 0.81823 0.45244
 C211 C 0.19282 0.19268 0.50359
 C212 C 0.19236 0.19225 0.48384
 C213 C 0.17956 0.20682 0.47254
 C214 C 0.20359 0.17639 0.47276
 C215 C 0.20672 0.17928 0.51500
 C216 C 0.17852 0.20577 0.51471
 C217 C 0.16488 0.19927 0.45959
 C218 C 0.15195 0.21280 0.44975
 C219 C 0.15357 0.23418 0.45256
 C220 C 0.16869 0.24172 0.46516
 C221 C 0.18161 0.22817 0.47501
 C222 C 0.19920 0.15543 0.47550
 C223 C 0.20972 0.14049 0.46497
 C224 C 0.22489 0.14628 0.45162
 C225 C 0.22921 0.16728 0.44886
 C226 C 0.21848 0.18223 0.45921
 C227 C 0.22780 0.17931 0.51151
 C228 C 0.24068 0.16644 0.52222
 C229 C 0.23272 0.15344 0.53673
 C230 C 0.21162 0.15364 0.54030
 C231 C 0.19878 0.16649 0.52960
 C232 C 0.18599 0.22131 0.52689
 C233 C 0.17250 0.23379 0.53723
 C234 C 0.15137 0.23058 0.53586
 C235 C 0.14396 0.21479 0.52386
 C236 C 0.15743 0.20253 0.51331
 H237 H 0.16305 0.18285 0.45751
 H238 H 0.14032 0.20647 0.44034
 H239 H 0.17057 0.25811 0.46737
 H240 H 0.19310 0.23431 0.48469
 H241 H 0.18758 0.15069 0.48576
 H242 H 0.20619 0.12440 0.46741
 H243 H 0.22193 0.19836 0.45685
 H244 H 0.23429 0.18936 0.50055
 H245 H 0.25689 0.16688 0.51933
 H246 H 0.20497 0.14360 0.55116
 H247 H 0.18256 0.16620 0.53250
 H248 H 0.20225 0.22390 0.52818
 H249 H 0.17855 0.24575 0.54654
 H250 H 0.12773 0.21210 0.52250
 H251 H 0.15145 0.19046 0.50410
 H252 H 0.24071 0.17210 0.43851
 C253 C 0.19130 0.80945 0.49453
 C254 C 0.19129 0.80961 0.51430
 C255 C 0.17758 0.79605 0.52581
 C256 C 0.20434 0.82409 0.52534
 C257 C 0.20604 0.82191 0.48306
 C258 C 0.17583 0.79768 0.48346
 C259 C 0.16448 0.80466 0.53966
 C260 C 0.15143 0.79213 0.55052
 C261 C 0.15136 0.77066 0.54789
 C262 C 0.16468 0.76205 0.53413
 C263 C 0.17771 0.77462 0.52323
 C264 C 0.20195 0.84542 0.52311
 C265 C 0.21408 0.85902 0.53374
 C266 C 0.22888 0.85148 0.54667
 C267 C 0.23122 0.83011 0.54887
 C268 C 0.21889 0.81652 0.53842
 C269 C 0.22713 0.81999 0.48603
 C270 C 0.24080 0.83222 0.47550
 C271 C 0.23365 0.84647 0.46168
 C272 C 0.21253 0.84806 0.45854
 C273 C 0.19889 0.83585 0.46906
 C274 C 0.18194 0.78224 0.47054
 C275 C 0.16741 0.77125 0.45992
 C276 C 0.14659 0.77587 0.46177
 C277 C 0.14054 0.79152 0.47457
 C278 C 0.15505 0.80229 0.48539
 H279 H 0.16413 0.82116 0.54185
 H280 H 0.14116 0.79930 0.56077
 H281 H 0.16524 0.74556 0.53198
 H282 H 0.18799 0.76764 0.51286
 H283 H 0.19062 0.85150 0.51321
 H284 H 0.21207 0.87543 0.53173
 H285 H 0.22081 0.80008 0.54039
 H286 H 0.23298 0.80904 0.49651
 H287 H 0.25698 0.83038 0.47803
 H288 H 0.20650 0.85907 0.44821
 H289 H 0.18269 0.83757 0.46656
 H290 H 0.19794 0.77862 0.46880
 H291 H 0.17244 0.75939 0.45000
 H292 H 0.12458 0.79529 0.47630
 H293 H 0.15012 0.81435 0.49515
 H294 H 0.24238 0.82395 0.55890
 C295 C 0.81130 0.18707 0.48650
 C296 C 0.81027 0.18669 0.50629
 C297 C 0.82294 0.20052 0.51855
 C298 C 0.79682 0.17197 0.51683
 C299 C 0.79818 0.17363 0.47432
 C300 C 0.82586 0.20052 0.47579
 C301 C 0.83542 0.19193 0.53298
 C302 C 0.84756 0.20451 0.54462
 C303 C 0.84739 0.22600 0.54219
 C304 C 0.83473 0.23463 0.52784
 C305 C 0.82250 0.22200 0.51620
 C306 C 0.79790 0.15069 0.51338
 C307 C 0.78528 0.13708 0.52357
 C308 C 0.77172 0.14446 0.53772
 C309 C 0.77092 0.16570 0.54140
 C310 C 0.78335 0.17932 0.53104
 C311 C 0.77684 0.17443 0.47556
 C312 C 0.76481 0.16172 0.46383
 C313 C 0.77393 0.14810 0.45056
 C314 C 0.79530 0.14748 0.44933
 C315 C 0.80727 0.16018 0.46101
 C316 C 0.81873 0.21275 0.46040
 C317 C 0.83223 0.22467 0.44946
 C318 C 0.85313 0.22469 0.45377
 C319 C 0.86031 0.21257 0.46924
 C320 C 0.84683 0.20035 0.47999
 H321 H 0.83597 0.17541 0.53503
 H322 H 0.85735 0.19736 0.55533
 H323 H 0.83407 0.25115 0.52581
 H324 H 0.81269 0.22896 0.50538
 H325 H 0.80861 0.14461 0.50291
 H326 H 0.78642 0.12074 0.52070
 H327 H 0.78239 0.19565 0.53403
 H328 H 0.76953 0.18498 0.48552
 H329 H 0.74839 0.16277 0.46494
 H330 H 0.80282 0.13695 0.43950
 H331 H 0.82372 0.15935 0.45984
 H332 H 0.80266 0.21300 0.45681
 H333 H 0.82633 0.23398 0.43766
 H334 H 0.87641 0.21214 0.47264
 H335 H 0.85279 0.19056 0.49140
 H336 H 0.76053 0.17178 0.55217
 C337 C 0.50784 0.80883 0.81057
 C338 C 0.48710 0.81033 0.81057
 C339 C 0.47627 0.82569 0.79826
 C340 C 0.47424 0.79705 0.82321
 C341 C 0.51900 0.79591 0.82493
 C342 C 0.52048 0.82076 0.79660
 C343 C 0.48166 0.84662 0.79878
 C344 C 0.47181 0.86082 0.78676
 C345 C 0.45603 0.85444 0.77437
 C346 C 0.45017 0.83363 0.77434
 C347 C 0.46023 0.81938 0.78617
 C348 C 0.46018 0.80610 0.83591
 C349 C 0.44860 0.79391 0.84848
 C350 C 0.45071 0.77237 0.84847
 C351 C 0.46446 0.76329 0.83538
 C352 C 0.47606 0.77552 0.82281
 C353 C 0.53429 0.78242 0.81858
 C354 C 0.54526 0.77060 0.83194
 C355 C 0.54109 0.77200 0.85191
 C356 C 0.52587 0.78558 0.85828
 C357 C 0.51511 0.79762 0.84494
 C358 C 0.51726 0.81919 0.77649
 C359 C 0.52841 0.83146 0.76360
 C360 C 0.54308 0.84542 0.77058
 C361 C 0.54666 0.84646 0.79070
 C362 C 0.53554 0.83417 0.80356
 H363 H 0.49355 0.85197 0.80844
 H364 H 0.47635 0.87684 0.78732
 H365 H 0.43807 0.82832 0.76490
 H366 H 0.45570 0.80334 0.78568
 H367 H 0.45856 0.82268 0.83643
 H368 H 0.43835 0.80140 0.85854
 H369 H 0.48657 0.76823 0.81285
 H370 H 0.53768 0.78099 0.80324
 H371 H 0.55688 0.76020 0.82667
 H372 H 0.52261 0.78720 0.87362
 H373 H 0.50386 0.80840 0.85025
 H374 H 0.50593 0.80865 0.77084
 H375 H 0.52556 0.83003 0.74817
 H376 H 0.55764 0.85722 0.79658
 H377 H 0.53823 0.83559 0.81902
 H378 H 0.46617 0.74674 0.83479
 C379 C 0.50713 0.18742 0.18820
 C380 C 0.48643 0.18914 0.18779
 C381 C 0.47313 0.17769 0.20155
 C382 C 0.47604 0.20170 0.17276
 C383 C 0.52021 0.20032 0.17540
 C384 C 0.51758 0.17239 0.20109
 C385 C 0.45761 0.16497 0.19432
 C386 C 0.44574 0.15314 0.20696
 C387 C 0.44904 0.15391 0.22712
 C388 C 0.46421 0.16713 0.23439
 C389 C 0.47607 0.17901 0.22172
 C390 C 0.47833 0.19699 0.15300
 C391 C 0.46809 0.20850 0.13890
 C392 C 0.45547 0.22495 0.14434
 C393 C 0.45327 0.22968 0.16413
 C394 C 0.46333 0.21800 0.17825
 C395 C 0.51883 0.22187 0.17581
 C396 C 0.53050 0.23385 0.16309
 C397 C 0.54385 0.22452 0.14978
 C398 C 0.54557 0.20293 0.14980
 C399 C 0.53392 0.19097 0.16255
 C400 C 0.53333 0.17900 0.21338
 C401 C 0.54289 0.16512 0.22594
 C402 C 0.53686 0.14436 0.22644
 C403 C 0.52137 0.13766 0.21384
 C404 C 0.51200 0.15150 0.20113
 H405 H 0.45508 0.16372 0.17882
 H406 H 0.43436 0.14293 0.20088
 H407 H 0.46689 0.16830 0.24987
 H408 H 0.48772 0.18903 0.22761
 H409 H 0.48791 0.18429 0.14853
 H410 H 0.47011 0.20462 0.12373
 H411 H 0.46131 0.22172 0.19345
 H412 H 0.50862 0.22939 0.18589
 H413 H 0.52912 0.25044 0.16374
 H414 H 0.55553 0.19525 0.13961
 H415 H 0.53520 0.17436 0.16205
 H416 H 0.53797 0.19501 0.21349
 H417 H 0.55474 0.17068 0.23554
 H418 H 0.51671 0.12167 0.21367
 H419 H 0.50028 0.14593 0.19138
 H420 H 0.44346 0.24215 0.16869
 C421 C 0.49144 0.18649 0.82003
 C422 C 0.51220 0.18625 0.81968
 C423 C 0.52398 0.17230 0.80677
 C424 C 0.52420 0.19975 0.83280
 C425 C 0.48019 0.19867 0.83473
 C426 C 0.47884 0.17426 0.80635
 C427 C 0.51985 0.15107 0.80609
 C428 C 0.53138 0.13816 0.79416
 C429 C 0.54755 0.14614 0.78307
 C430 C 0.55186 0.16730 0.78400
 C431 C 0.54017 0.18024 0.79571
 C432 C 0.53798 0.19102 0.84600
 C433 C 0.54875 0.20348 0.85893
 C434 C 0.54608 0.22496 0.85879
 C435 C 0.53258 0.23370 0.84523
 C436 C 0.52179 0.22121 0.83230
 C437 C 0.46706 0.21446 0.82876
 C438 C 0.45635 0.22597 0.84250
 C439 C 0.45833 0.22159 0.86241
 C440 C 0.47131 0.20558 0.86833
 C441 C 0.48220 0.19424 0.85460
 C442 C 0.48147 0.17587 0.78616
 C443 C 0.46929 0.16428 0.77357
 C444 C 0.45414 0.15107 0.78097
 C445 C 0.45150 0.14965 0.80119
 C446 C 0.46366 0.16117 0.81372
 H447 H 0.50787 0.14446 0.81494
 H448 H 0.52796 0.12185 0.79394
 H449 H 0.56417 0.17386 0.77551
 H450 H 0.54373 0.19652 0.79611
 H451 H 0.54003 0.17449 0.84657
 H452 H 0.55884 0.19624 0.86934
 H453 H 0.51149 0.22825 0.82196
 H454 H 0.46525 0.21796 0.81346
 H455 H 0.44627 0.23808 0.83756
 H456 H 0.47317 0.20198 0.88360
 H457 H 0.49212 0.18194 0.85942
 H458 H 0.49285 0.18618 0.78017
 H459 H 0.47150 0.16589 0.75805
 H460 H 0.44020 0.13937 0.80735
 H461 H 0.46140 0.15969 0.82925
 H462 H 0.53046 0.25021 0.84452
 C463 C 0.49067 0.81493 0.17827
 C464 C 0.51141 0.81401 0.17829
 C465 C 0.52413 0.82595 0.19210
 C466 C 0.52255 0.80128 0.16396
 C467 C 0.47842 0.80208 0.16478
 C468 C 0.47912 0.82886 0.19136
 C469 C 0.53941 0.83902 0.18487
 C470 C 0.55143 0.85057 0.19752
 C471 C 0.54858 0.84918 0.21772
 C472 C 0.53345 0.83584 0.22497
 C473 C 0.52138 0.82426 0.21227
 C474 C 0.52123 0.80558 0.14401
 C475 C 0.53194 0.79360 0.13064
 C476 C 0.54403 0.77708 0.13702
 C477 C 0.54532 0.77285 0.15701
 C478 C 0.53480 0.78498 0.17038
 C479 C 0.47980 0.78053 0.16515
 C480 C 0.46838 0.76865 0.15219
 C481 C 0.45525 0.77811 0.13871
 C482 C 0.45373 0.79971 0.13860
 C483 C 0.46513 0.81156 0.15157
 C484 C 0.46279 0.82097 0.20227
 C485 C 0.45144 0.83383 0.21433
 C486 C 0.45623 0.85484 0.21579
 C487 C 0.47251 0.86279 0.20481
 C488 C 0.48369 0.84997 0.19251
 H489 H 0.54177 0.84055 0.16936
 H490 H 0.56272 0.86092 0.19144
 H491 H 0.53107 0.83420 0.24046
 H492 H 0.50992 0.81397 0.21815
 H493 H 0.51198 0.81826 0.13885
 H494 H 0.53064 0.79711 0.11530
 H495 H 0.53606 0.78157 0.18574
 H496 H 0.48970 0.77293 0.17549
 H497 H 0.46963 0.75205 0.15289
 H498 H 0.44398 0.80750 0.12825
 H499 H 0.46384 0.82817 0.15111
 H500 H 0.45890 0.80478 0.20152
 H501 H 0.43903 0.82731 0.22273
 H502 H 0.47630 0.87901 0.20547
 H503 H 0.49580 0.85655 0.18379
 H504 H 0.55472 0.76035 0.16229
 C505 C 0.81697 0.50490 0.81617
 C506 C 0.81781 0.48391 0.81582
 C507 C 0.80546 0.47100 0.82926
 C508 C 0.83144 0.47265 0.80227
 C509 C 0.82839 0.51768 0.80189
 C510 C 0.80496 0.51622 0.83104
 C511 C 0.81521 0.45652 0.84118
 C512 C 0.80396 0.44440 0.85407
 C513 C 0.78266 0.44636 0.85519
 C514 C 0.77286 0.46069 0.84301
 C515 C 0.78416 0.47284 0.83010
 C516 C 0.85240 0.47700 0.80138
 C517 C 0.86502 0.46605 0.78874
 C518 C 0.85699 0.45025 0.77712
 C519 C 0.83609 0.44572 0.77826
 C520 C 0.82344 0.45683 0.79070
 C521 C 0.82580 0.51496 0.78180
 C522 C 0.83714 0.52672 0.76860
 C523 C 0.85111 0.54156 0.77526
 C524 C 0.85331 0.54451 0.79538
 C525 C 0.84201 0.53275 0.80854
 C526 C 0.79156 0.53188 0.82519
 C527 C 0.78028 0.54280 0.83893
 C528 C 0.78210 0.53816 0.85878
 C529 C 0.79564 0.52265 0.86469
 C530 C 0.80720 0.51199 0.85097
 H531 H 0.83162 0.45486 0.84073
 H532 H 0.81200 0.43374 0.86343
 H533 H 0.75645 0.46234 0.84331
 H534 H 0.77632 0.48368 0.82076
 H535 H 0.85901 0.48874 0.81057
 H536 H 0.88115 0.46961 0.78836
 H537 H 0.80735 0.45313 0.79126
 H538 H 0.81507 0.50368 0.77637
 H539 H 0.83487 0.52432 0.75320
 H540 H 0.86412 0.55562 0.80098
 H541 H 0.84420 0.53510 0.82397
 H542 H 0.78971 0.53554 0.80993
 H543 H 0.76990 0.55467 0.83404
 H544 H 0.79753 0.51905 0.87996
 H545 H 0.81793 0.50047 0.85590
 H546 H 0.82951 0.43369 0.76937
 C547 C 0.18324 0.51366 0.18463
 C548 C 0.18440 0.49273 0.18396
 C549 C 0.19677 0.48212 0.16900
 C550 C 0.17271 0.47937 0.19748
 C551 C 0.16884 0.52449 0.19778
 C552 C 0.19623 0.52666 0.17189
 C553 C 0.19228 0.48454 0.14920
 C554 C 0.20365 0.47409 0.13520
 C555 C 0.21976 0.46115 0.14078
 C556 C 0.22426 0.45881 0.16063
 C557 C 0.21271 0.46907 0.17463
 C558 C 0.15960 0.46429 0.18998
 C559 C 0.14766 0.45231 0.20241
 C560 C 0.14871 0.45506 0.22263
 C561 C 0.16229 0.46979 0.23016
 C562 C 0.17427 0.48177 0.21769
 C563 C 0.17602 0.54009 0.21009
 C564 C 0.16278 0.54990 0.22299
 C565 C 0.14211 0.54426 0.22382
 C566 C 0.13484 0.52901 0.21114
 C567 C 0.14802 0.51940 0.19807
 C568 C 0.21754 0.52499 0.17246
 C569 C 0.22960 0.53648 0.15970
 C570 C 0.22058 0.54993 0.14616
 C571 C 0.19924 0.55194 0.14601
 C572 C 0.18719 0.54048 0.15883
 H573 H 0.17986 0.49439 0.14463
 H574 H 0.19996 0.47621 0.11999
 H575 H 0.23646 0.44875 0.16530
 H576 H 0.21626 0.46694 0.18987
 H577 H 0.15818 0.46220 0.17443
 H578 H 0.13717 0.44129 0.19614
 H579 H 0.18458 0.49308 0.22377
 H580 H 0.19198 0.54437 0.20999
 H581 H 0.16879 0.56155 0.23265
 H582 H 0.11890 0.52465 0.21123
 H583 H 0.14202 0.50785 0.18830
 H584 H 0.22479 0.51465 0.18269
 H585 H 0.24600 0.53488 0.16045
 H586 H 0.19179 0.56196 0.13564
 H587 H 0.17077 0.54196 0.15821
 H588 H 0.16368 0.47202 0.24568
 C589 C 0.81180 0.49546 0.18736
 C590 C 0.81229 0.51646 0.18760
 C591 C 0.79901 0.52895 0.17468
 C592 C 0.82654 0.52808 0.20031
 C593 C 0.82392 0.48292 0.20128
 C594 C 0.79949 0.48390 0.17283
 C595 C 0.80783 0.54326 0.16190
 C596 C 0.79570 0.55438 0.14896
 C597 C 0.77444 0.55158 0.14867
 C598 C 0.76558 0.53765 0.16190
 C599 C 0.77775 0.52649 0.17483
 C600 C 0.84753 0.52383 0.20030
 C601 C 0.86072 0.53487 0.21234
 C602 C 0.85324 0.55068 0.22424
 C603 C 0.83233 0.55524 0.22388
 C604 C 0.81911 0.54403 0.21203
 C605 C 0.82234 0.48592 0.22143
 C606 C 0.83424 0.47429 0.23426
 C607 C 0.84773 0.45928 0.22717
 C608 C 0.84898 0.45611 0.20701
 C609 C 0.83715 0.46775 0.19422
 C610 C 0.78637 0.46810 0.17901
 C611 C 0.77470 0.45716 0.16554
 C612 C 0.77584 0.46195 0.14567
 C613 C 0.78917 0.47755 0.13944
 C614 C 0.80113 0.48821 0.15286
 H615 H 0.82420 0.54539 0.16159
 H616 H 0.80304 0.56477 0.13881
 H617 H 0.74924 0.53541 0.16228
 H618 H 0.77064 0.51577 0.18483
 H619 H 0.85370 0.51202 0.19093
 H620 H 0.87683 0.53129 0.21212
 H621 H 0.80301 0.54767 0.21213
 H622 H 0.81194 0.49729 0.22720
 H623 H 0.83272 0.47688 0.24972
 H624 H 0.85941 0.44488 0.20107
 H625 H 0.83859 0.46519 0.17874
 H626 H 0.78501 0.46438 0.19430
 H627 H 0.76451 0.44519 0.17066
 H628 H 0.79056 0.48124 0.12414
 H629 H 0.81165 0.49984 0.14767
 H630 H 0.82618 0.56730 0.23299
 C631 C 0.18464 0.48505 0.81351
 C632 C 0.18334 0.50596 0.81436
 C633 C 0.19571 0.51797 0.82843
 C634 C 0.16939 0.51784 0.80154
 C635 C 0.17369 0.47288 0.79854
 C636 C 0.19641 0.47332 0.82817
 C637 C 0.18606 0.53120 0.84159
 C638 C 0.19752 0.54245 0.85499
 C639 C 0.21889 0.54081 0.85537
 C640 C 0.22852 0.52774 0.84195
 C641 C 0.21704 0.51648 0.82857
 C642 C 0.14862 0.51276 0.80016
 C643 C 0.13578 0.52385 0.78782
 C644 C 0.14335 0.54056 0.77700
 C645 C 0.16399 0.54599 0.77880
 C646 C 0.17689 0.53472 0.79094
 C647 C 0.17621 0.47710 0.77867
 C648 C 0.16477 0.46641 0.76483
 C649 C 0.15070 0.45121 0.77059
 C650 C 0.14873 0.44661 0.79049
 C651 C 0.16018 0.45727 0.80429
 C652 C 0.21327 0.46158 0.82246
 C653 C 0.22475 0.45096 0.83633
 C654 C 0.21926 0.45159 0.85604
 C655 C 0.20210 0.46302 0.86166
 C656 C 0.19081 0.47388 0.84783
 H657 H 0.16962 0.53258 0.84166
 H658 H 0.18962 0.55218 0.86526
 H659 H 0.24496 0.52643 0.84162
 H660 H 0.22479 0.50667 0.81825
 H661 H 0.14236 0.50020 0.80865
 H662 H 0.11984 0.51959 0.78694
 H663 H 0.19282 0.53900 0.79191
 H664 H 0.18683 0.48886 0.77392
 H665 H 0.16693 0.47006 0.74961
 H666 H 0.13786 0.43521 0.79546
 H667 H 0.15801 0.45379 0.81955
 H668 H 0.21770 0.46094 0.80732
 H669 H 0.23782 0.44209 0.83165
 H670 H 0.19763 0.46381 0.87678
 H671 H 0.17772 0.48276 0.85243
 H672 H 0.17022 0.55875 0.77055
 C673 C 0.32678 0.39892 0.05064
 C674 C 0.31577 0.41008 0.06444
 C675 C 0.29524 0.40557 0.06794
 C676 C 0.28584 0.38948 0.05765
 C677 C 0.29690 0.37812 0.04405
 C678 C 0.31746 0.38281 0.04032
 N679 N 0.28433 0.41742 0.08203
 N680 N 0.26506 0.41622 0.08380
 C681 C 0.25411 0.42779 0.09806
 C682 C 0.23281 0.42809 0.09729
 C683 C 0.22163 0.43914 0.11103
 C684 C 0.23164 0.44983 0.12598
 C685 C 0.25303 0.44942 0.12681
 C686 C 0.26421 0.43859 0.11289
 H687 H 0.34262 0.40283 0.04814
 H688 H 0.32319 0.42239 0.07232
 H689 H 0.27000 0.38564 0.06019
 H690 H 0.28929 0.36584 0.03629
 H691 H 0.22486 0.41977 0.08597
 H692 H 0.20515 0.43905 0.11019
 H693 H 0.26109 0.45764 0.13812
 H694 H 0.28067 0.43852 0.11382
 C695 C 0.71618 0.64933 0.04648
 C696 C 0.72671 0.63970 0.06163
 C697 C 0.72032 0.62053 0.06868
 C698 C 0.70309 0.61108 0.06048
 C699 C 0.69249 0.62071 0.04539
 C700 C 0.69895 0.63992 0.03816
 N701 N 0.73169 0.61091 0.08397
 N702 N 0.72727 0.59305 0.09036
 C703 C 0.73876 0.58331 0.10549
 C704 C 0.73403 0.56302 0.11069
 C705 C 0.74540 0.55279 0.12490
 C706 C 0.76171 0.56277 0.13425
 C707 C 0.76616 0.58330 0.12924
 C708 C 0.75483 0.59347 0.11496
 H709 H 0.72152 0.66413 0.04128
 H710 H 0.73997 0.64714 0.06783
 H711 H 0.69783 0.59625 0.06569
 H712 H 0.67929 0.61304 0.03931
 H713 H 0.72170 0.55501 0.10347
 H714 H 0.74175 0.53691 0.12821
 H715 H 0.77840 0.59153 0.13637
 H716 H 0.75869 0.60921 0.11128
 C717 C 0.68679 0.38783 0.95864
 C718 C 0.69676 0.39932 0.94431
 C719 C 0.71415 0.39157 0.93517
 C720 C 0.72157 0.37209 0.94057
 C721 C 0.71168 0.36061 0.95499
 C722 C 0.69416 0.36835 0.96418
 N723 N 0.72407 0.40386 0.92066
 N724 N 0.73927 0.39730 0.91102
 C725 C 0.74941 0.40969 0.89673
 C726 C 0.76549 0.40112 0.88618
 C727 C 0.77609 0.41290 0.87249
 C728 C 0.77082 0.43360 0.86917
 C729 C 0.75449 0.44212 0.87965
 C730 C 0.74386 0.43027 0.89331
 H731 H 0.67336 0.39426 0.96545
 H732 H 0.69093 0.41432 0.94031
 H733 H 0.73504 0.36579 0.93375
 H734 H 0.71772 0.34567 0.95890
 H735 H 0.76986 0.38526 0.88864
 H736 H 0.78837 0.40578 0.86446
 H737 H 0.75023 0.45807 0.87762
 H738 H 0.73152 0.43728 0.90134
 C739 C 0.27787 0.64587 0.95026
 C740 C 0.26673 0.63473 0.93653
 C741 C 0.27317 0.61518 0.93071
 C742 C 0.29104 0.60684 0.93875
 C743 C 0.30224 0.61800 0.95244
 C744 C 0.29577 0.63763 0.95837
 N745 N 0.26132 0.60418 0.91666
 N746 N 0.26589 0.58606 0.91121
 C747 C 0.25401 0.57512 0.89714
 C748 C 0.25942 0.55492 0.89243
 C749 C 0.24807 0.54376 0.87886
 C750 C 0.23107 0.55269 0.86970
 C751 C 0.22573 0.57304 0.87441
 C752 C 0.23707 0.58415 0.88802
 H753 H 0.27247 0.66095 0.95449
 H754 H 0.25299 0.64131 0.93043
 H755 H 0.29635 0.59176 0.93446
 H756 H 0.31594 0.61120 0.95841
 H757 H 0.27241 0.54777 0.89940
 H758 H 0.25241 0.52804 0.87576
 H759 H 0.21293 0.58048 0.86741
 H760 H 0.23263 0.59979 0.89135
 C761 C 0.05022 0.30309 0.36332
 C762 C 0.06549 0.29141 0.37215
 C763 C 0.07325 0.29704 0.39028
 C764 C 0.06569 0.31473 0.39951
 C765 C 0.05045 0.32651 0.39065
 C766 C 0.04246 0.32074 0.37250
 N767 N 0.08851 0.28431 0.39905
 N768 N 0.09570 0.28781 0.41589
 C769 C 0.11074 0.27469 0.42451
 C770 C 0.11710 0.27852 0.44356
 C771 C 0.13119 0.26554 0.45261
 C772 C 0.13923 0.24847 0.44269
 C773 C 0.13306 0.24488 0.42343
 C774 C 0.11893 0.25783 0.41443
 H775 H 0.04445 0.29823 0.34932
 H776 H 0.07119 0.27781 0.36491
 H777 H 0.07148 0.31939 0.41356
 H778 H 0.04479 0.34001 0.39809
 H779 H 0.11087 0.29143 0.45150
 H780 H 0.13542 0.26858 0.46754
 H781 H 0.13919 0.23207 0.41529
 H782 H 0.11435 0.25459 0.39964
 C783 C 0.04861 0.66546 0.60014
 C784 C 0.06338 0.67640 0.58968
 C785 C 0.07201 0.69433 0.59735
 C786 C 0.06579 0.70120 0.61576
 C787 C 0.05096 0.69035 0.62619
 C788 C 0.04213 0.67241 0.61847
 N789 N 0.08667 0.70551 0.58603
 N790 N 0.09569 0.72140 0.59258
 C791 C 0.10999 0.73301 0.58125
 C792 C 0.11996 0.74969 0.58987
 C793 C 0.13357 0.76175 0.57914
 C794 C 0.13738 0.75740 0.55946
 C795 C 0.12746 0.74048 0.55088
 C796 C 0.11390 0.72838 0.56167
 H797 H 0.04210 0.65173 0.59377
 H798 H 0.06802 0.67096 0.57550
 H799 H 0.07221 0.71504 0.62200
 H800 H 0.04634 0.69610 0.64027
 H801 H 0.11712 0.75338 0.60496
 H802 H 0.14119 0.77444 0.58628
 H803 H 0.12985 0.73687 0.53570
 H804 H 0.10629 0.71561 0.55466
 C805 C 0.95137 0.66849 0.40255
 C806 C 0.93586 0.67747 0.41362
 C807 C 0.92479 0.69419 0.40632
 C808 C 0.92943 0.70188 0.38774
 C809 C 0.94500 0.69307 0.37675
 C810 C 0.95619 0.67630 0.38403
 N811 N 0.90932 0.70348 0.41812
 N812 N 0.89794 0.71770 0.41148
 C813 C 0.88285 0.72793 0.42296
 C814 C 0.87075 0.74294 0.41409
 C815 C 0.85678 0.75426 0.42497
 C816 C 0.85470 0.75082 0.44505
 C817 C 0.86649 0.73532 0.45387
 C818 C 0.88048 0.72396 0.44292
 H819 H 0.95974 0.65562 0.40857
 H820 H 0.93249 0.67143 0.42795
 H821 H 0.92117 0.71485 0.38176
 H822 H 0.94827 0.69941 0.36252
 H823 H 0.87240 0.74609 0.39871
 H824 H 0.84769 0.76584 0.41769
 H825 H 0.86538 0.73245 0.46934
 H826 H 0.88973 0.71245 0.45010
 C827 C 0.95241 0.32501 0.60064
 C828 C 0.93746 0.31551 0.58924
 C829 C 0.92679 0.29836 0.59625
 C830 C 0.93114 0.29087 0.61497
 C831 C 0.94612 0.30026 0.62634
 C832 C 0.95701 0.31738 0.61927
 N833 N 0.91210 0.28844 0.58399
 N834 N 0.90155 0.27324 0.58998
 C835 C 0.88726 0.26256 0.57791
 C836 C 0.87621 0.24621 0.58594
 C837 C 0.86294 0.23464 0.57445
 C838 C 0.86053 0.23919 0.55460
 C839 C 0.87131 0.25595 0.54664
 C840 C 0.88460 0.26754 0.55819
 H841 H 0.96054 0.33814 0.59477
 H842 H 0.93430 0.32141 0.57483
 H843 H 0.92315 0.27761 0.62075
 H844 H 0.94924 0.29402 0.64063
 H845 H 0.87808 0.24227 0.60113
 H846 H 0.85461 0.22206 0.58110
 H847 H 0.86993 0.25972 0.53136
 H848 H 0.89304 0.28010 0.55165
 C849 C 0.39815 0.04750 0.32552
 C850 C 0.40862 0.06300 0.31549
 C851 C 0.39970 0.07272 0.29946
 C852 C 0.38003 0.06684 0.29358
 C853 C 0.36959 0.05128 0.30351
 C854 C 0.37856 0.04137 0.31955
 N855 N 0.41109 0.08803 0.28908
 N856 N 0.40347 0.09795 0.27487
 C857 C 0.41491 0.11278 0.26394
 C858 C 0.40527 0.12326 0.24874
 C859 C 0.41622 0.13699 0.23706
 C860 C 0.43709 0.14043 0.24037
 C861 C 0.44664 0.13021 0.25593
 C862 C 0.43566 0.11649 0.26762
 H863 H 0.40549 0.04016 0.33779
 H864 H 0.42378 0.06736 0.32014
 H865 H 0.37281 0.07408 0.28119
 H866 H 0.35451 0.04696 0.29856
 H867 H 0.38928 0.12056 0.24579
 H868 H 0.40836 0.14484 0.22537
 H869 H 0.46275 0.13233 0.25869
 H870 H 0.44346 0.10851 0.27926
 C871 C 0.60607 0.04382 0.68533
 C872 C 0.59414 0.05736 0.69623
 C873 C 0.60258 0.06807 0.71190
 C874 C 0.62322 0.06513 0.71657
 C875 C 0.63511 0.05143 0.70582
 C876 C 0.62665 0.04059 0.69010
 N877 N 0.58982 0.08151 0.72301
 N878 N 0.59699 0.09328 0.73610
 C879 C 0.58427 0.10641 0.74755
 C880 C 0.59343 0.12093 0.75973
 C881 C 0.58151 0.13394 0.77118
 C882 C 0.56015 0.13242 0.77081
 C883 C 0.55095 0.11771 0.75870
 C884 C 0.56290 0.10488 0.74706
 H885 H 0.59907 0.03564 0.67337
 H886 H 0.57824 0.05947 0.69251
 H887 H 0.63008 0.07319 0.72866
 H888 H 0.65093 0.04929 0.70984
 H889 H 0.60988 0.12220 0.76031
 H890 H 0.58898 0.14499 0.78054
 H891 H 0.53451 0.11633 0.75806
 H892 H 0.55546 0.09370 0.73781
 C893 C 0.35765 0.95166 0.70571
 C894 C 0.36740 0.93666 0.71692
 C895 C 0.38782 0.93175 0.71351
 C896 C 0.39839 0.94176 0.69843
 C897 C 0.38857 0.95658 0.68703
 C898 C 0.36814 0.96181 0.69066
 N899 N 0.39746 0.91669 0.72564
 N900 N 0.41659 0.91355 0.72525
 C901 C 0.42611 0.89845 0.73742
 C902 C 0.44739 0.89789 0.73849
 C903 C 0.45714 0.88363 0.75055
 C904 C 0.44569 0.86949 0.76154
 C905 C 0.42433 0.86988 0.76025
 C906 C 0.41459 0.88431 0.74838
 H907 H 0.34188 0.95528 0.70881
 H908 H 0.35909 0.92901 0.72846
 H909 H 0.41418 0.93815 0.69547
 H910 H 0.39706 0.96417 0.67556
 H911 H 0.45643 0.90866 0.73009
 H912 H 0.47363 0.88351 0.75115
 H913 H 0.41517 0.85922 0.76867
 H914 H 0.39811 0.88441 0.74775
 C915 C 0.60413 0.94757 0.32038
 C916 C 0.59332 0.93308 0.30950
 C917 C 0.60180 0.92468 0.29267
 C918 C 0.62142 0.93084 0.28684
 C919 C 0.63224 0.94543 0.29767
 C920 C 0.62366 0.95403 0.31452
 N921 N 0.58994 0.91040 0.28156
 N922 N 0.59691 0.90153 0.26650
 C923 C 0.58477 0.88773 0.25512
 C924 C 0.59363 0.87803 0.23912
 C925 C 0.58201 0.86518 0.22720
 C926 C 0.56120 0.86188 0.23105
 C927 C 0.55241 0.87139 0.24736
 C928 C 0.56408 0.88419 0.25930
 H929 H 0.59705 0.95389 0.33326
 H930 H 0.57820 0.92848 0.31412
 H931 H 0.62829 0.92459 0.27384
 H932 H 0.64725 0.95006 0.29278
 H933 H 0.60957 0.88058 0.23578
 H934 H 0.58932 0.85784 0.21494
 H935 H 0.53638 0.86937 0.25059
 H936 H 0.55685 0.89158 0.27157
 C937 C 0.39462 0.33003 0.95060
 C938 C 0.40574 0.31885 0.93690
 C939 C 0.40167 0.29796 0.93391
 C940 C 0.38606 0.28835 0.94458
 C941 C 0.37474 0.29957 0.95810
 C942 C 0.37899 0.32050 0.96134
 N943 N 0.41354 0.28689 0.91996
 N944 N 0.41268 0.26738 0.91853
 C945 C 0.42433 0.25629 0.90443
 C946 C 0.42491 0.23479 0.90548
 C947 C 0.43613 0.22349 0.89195
 C948 C 0.44672 0.23358 0.87694
 C949 C 0.44602 0.25517 0.87582
 C950 C 0.43501 0.26646 0.88951
 H951 H 0.39819 0.34615 0.95272
 H952 H 0.41769 0.32644 0.92872
 H953 H 0.38257 0.27222 0.94245
 H954 H 0.36283 0.29179 0.96618
 H955 H 0.41669 0.22678 0.91687
 H956 H 0.43627 0.20686 0.89301
 H957 H 0.45418 0.26330 0.86447
 H958 H 0.43473 0.28308 0.88837
 C959 C 0.64820 0.70918 0.94118
 C960 C 0.63714 0.71946 0.92679
 C961 C 0.61655 0.71486 0.92375
 C962 C 0.60719 0.69943 0.93500
 C963 C 0.61832 0.68891 0.94921
 C964 C 0.63889 0.69384 0.95259
 N965 N 0.60549 0.72624 0.90938
 N966 N 0.58619 0.72517 0.90788
 C967 C 0.57520 0.73663 0.89351
 C968 C 0.55392 0.73742 0.89460
 C969 C 0.54279 0.74894 0.88110
 C970 C 0.55282 0.75960 0.86609
 C971 C 0.57416 0.75853 0.86484
 C972 C 0.58529 0.74723 0.87849
 H973 H 0.66405 0.71324 0.94339
 H974 H 0.64452 0.73128 0.91818
 H975 H 0.59131 0.69554 0.93284
 H976 H 0.61072 0.67721 0.95781
 H977 H 0.54598 0.72928 0.90607
 H978 H 0.52634 0.74939 0.88227
 H979 H 0.58225 0.76674 0.85349
 H980 H 0.60173 0.74680 0.87731
 C981 C 0.35080 0.71887 0.04406
 C982 C 0.36191 0.73001 0.05782
 C983 C 0.38102 0.72311 0.06400
 C984 C 0.38895 0.70478 0.05630
 C985 C 0.37783 0.69357 0.04259
 C986 C 0.35864 0.70052 0.03628
 N987 N 0.39203 0.73502 0.07801
 N988 N 0.40983 0.73014 0.08370
 C989 C 0.42077 0.74216 0.09769
 C990 C 0.44072 0.73657 0.10249
 C991 C 0.45192 0.74816 0.11586
 C992 C 0.44327 0.76556 0.12474
 C993 C 0.42312 0.77100 0.12001
 C994 C 0.41198 0.75944 0.10659
 H995 H 0.33607 0.72464 0.03954
 H996 H 0.35564 0.74411 0.06365
 H997 H 0.40370 0.69911 0.06087
 H998 H 0.38430 0.67951 0.03688
 H999 H 0.44768 0.72331 0.09570
 H1000 H 0.46747 0.74371 0.11898
 H1001 H 0.41590 0.78411 0.12680
 H1002 H 0.39653 0.76401 0.10321
 C1003 C 0.64584 0.28609 0.05327
 C1004 C 0.63545 0.27466 0.06740
 C1005 C 0.61625 0.28092 0.07392
 C1006 C 0.60754 0.29893 0.06624
 C1007 C 0.61793 0.31043 0.05217
 C1008 C 0.63718 0.30410 0.04547
 N1009 N 0.60587 0.26869 0.08820
 N1010 N 0.58802 0.27309 0.09407
 C1011 C 0.57748 0.26090 0.10826
 C1012 C 0.55748 0.26615 0.11317
 C1013 C 0.54660 0.25442 0.12671
 C1014 C 0.55561 0.23721 0.13568
 C1015 C 0.57580 0.23208 0.13082
 C1016 C 0.58664 0.24379 0.11721
 H1017 H 0.66064 0.28081 0.04845
 H1018 H 0.64233 0.26081 0.07321
 H1019 H 0.59272 0.30412 0.07106
 H1020 H 0.61083 0.32420 0.04647
 H1021 H 0.55023 0.27925 0.10633
 H1022 H 0.53099 0.25862 0.12988
 H1023 H 0.58328 0.21910 0.13765
 H1024 H 0.60214 0.23949 0.11371
 C1025 C 0.29635 0.05930 0.63815
 C1026 C 0.28582 0.07413 0.62743
 C1027 C 0.29156 0.07869 0.60835
 C1028 C 0.30828 0.06843 0.60009
 C1029 C 0.31894 0.05363 0.61085
 C1030 C 0.31297 0.04880 0.62996
 N1031 N 0.27985 0.09345 0.59767
 N1032 N 0.28330 0.09774 0.57992
 C1033 C 0.27104 0.11231 0.56953
 C1034 C 0.27463 0.11553 0.54971
 C1035 C 0.26237 0.12906 0.53905
 C1036 C 0.24628 0.13964 0.54810
 C1037 C 0.24297 0.13663 0.56809
 C1038 C 0.25519 0.12309 0.57870
 H1039 H 0.29139 0.05601 0.65284
 H1040 H 0.27296 0.08194 0.63394
 H1041 H 0.31301 0.07173 0.58534
 H1042 H 0.33166 0.04580 0.60413
 H1043 H 0.28677 0.10729 0.54246
 H1044 H 0.26518 0.13087 0.52364
 H1045 H 0.23094 0.14481 0.57556
 H1046 H 0.25216 0.12098 0.59404
 C1047 C 0.67219 0.04646 0.39168
 C1048 C 0.68249 0.06123 0.40270
 C1049 C 0.70095 0.06951 0.39619
 C1050 C 0.70904 0.06291 0.37837
 C1051 C 0.69885 0.04805 0.36736
 C1052 C 0.68029 0.03953 0.37389
 N1053 N 0.71135 0.08420 0.40812
 N1054 N 0.72765 0.09309 0.40259
 C1055 C 0.73843 0.10738 0.41465
 C1056 C 0.75568 0.11723 0.40715
 C1057 C 0.76701 0.13071 0.41869
 C1058 C 0.76131 0.13448 0.43807
 C1059 C 0.74378 0.12475 0.44549
 C1060 C 0.73242 0.11132 0.43388
 H1061 H 0.65798 0.04036 0.39727
 H1062 H 0.67611 0.06618 0.41642
 H1063 H 0.72333 0.06906 0.37304
 H1064 H 0.70561 0.04321 0.35376
 H1065 H 0.76043 0.11436 0.39234
 H1066 H 0.78021 0.13821 0.41243
 H1067 H 0.73913 0.12714 0.46040
 H1068 H 0.71916 0.10381 0.44003
 C1069 C 0.70965 0.95035 0.64069
 C1070 C 0.72084 0.93544 0.63072
 C1071 C 0.71392 0.92780 0.61292
 C1072 C 0.69555 0.93523 0.60513
 C1073 C 0.68430 0.95010 0.61510
 C1074 C 0.69124 0.95785 0.63299
 N1075 N 0.72583 0.91262 0.60305
 N1076 N 0.72073 0.90547 0.58655
 C1077 C 0.73269 0.89034 0.57666
 C1078 C 0.72674 0.88400 0.55810
 C1079 C 0.73829 0.86955 0.54790
 C1080 C 0.75603 0.86113 0.55616
 C1081 C 0.76183 0.86737 0.57492
 C1082 C 0.75030 0.88186 0.58508
 H1083 H 0.71540 0.95597 0.65444
 H1084 H 0.73498 0.92984 0.63686
 H1085 H 0.68987 0.92956 0.59139
 H1086 H 0.67020 0.95555 0.60877
 H1087 H 0.71322 0.89045 0.55145
 H1088 H 0.73355 0.86530 0.53339
 H1089 H 0.77523 0.86095 0.58181
 H1090 H 0.75516 0.88642 0.59946
 C1091 C 0.30250 0.94260 0.36471
 C1092 C 0.29117 0.92764 0.37455
 C1093 C 0.29675 0.92137 0.39324
 C1094 C 0.31415 0.92999 0.40195
 C1095 C 0.32560 0.94491 0.39207
 C1096 C 0.31977 0.95153 0.37341
 N1097 N 0.28417 0.90668 0.40315
 N1098 N 0.28749 0.90102 0.42057
 C1099 C 0.27440 0.88665 0.43034
 C1100 C 0.27807 0.88196 0.44988
 C1101 C 0.26503 0.86869 0.46003
 C1102 C 0.24805 0.85984 0.45074
 C1103 C 0.24465 0.86429 0.43100
 C1104 C 0.25767 0.87758 0.42090
 H1105 H 0.29762 0.94729 0.35034
 H1106 H 0.27780 0.92110 0.36769
 H1107 H 0.31878 0.92536 0.41640
 H1108 H 0.33880 0.95150 0.39917
 H1109 H 0.29088 0.88888 0.45735
 H1110 H 0.26794 0.86578 0.47527
 H1111 H 0.23193 0.85747 0.42333
 H1112 H 0.25455 0.88086 0.40576
 C1113 C 0.05249 0.35611 0.69908
 C1114 C 0.06747 0.36511 0.71075
 C1115 C 0.07507 0.38471 0.70637
 C1116 C 0.06774 0.39517 0.68990
 C1117 C 0.05284 0.38614 0.67814
 C1118 C 0.04493 0.36657 0.68269
 N1119 N 0.08982 0.39378 0.71910
 N1120 N 0.09639 0.41206 0.71674
 C1121 C 0.11082 0.42121 0.72976
 C1122 C 0.11599 0.44196 0.72733
 C1123 C 0.12921 0.45163 0.74037
 C1124 C 0.13761 0.44063 0.75607
 C1125 C 0.13275 0.41964 0.75818
 C1126 C 0.11944 0.41002 0.74519
 H1127 H 0.04677 0.34100 0.70295
 H1128 H 0.07300 0.35690 0.72339
 H1129 H 0.07340 0.41034 0.68620
 H1130 H 0.04733 0.39461 0.66563
 H1131 H 0.10940 0.45076 0.71552
 H1132 H 0.13239 0.46787 0.73847
 H1133 H 0.13921 0.41064 0.76991
 H1134 H 0.11579 0.39392 0.74730
 C1135 C 0.05317 0.63987 0.30505
 C1136 C 0.06732 0.63086 0.29251
 C1137 C 0.07168 0.60984 0.29384
 C1138 C 0.06209 0.59793 0.30828
 C1139 C 0.04814 0.60697 0.32101
 C1140 C 0.04334 0.62800 0.31938
 N1141 N 0.08557 0.60093 0.28019
 N1142 N 0.08796 0.58156 0.27876
 C1143 C 0.10177 0.57261 0.26506
 C1144 C 0.10169 0.55125 0.26256
 C1145 C 0.11470 0.54203 0.24908
 C1146 C 0.12822 0.55408 0.23801
 C1147 C 0.12845 0.57553 0.24067
 C1148 C 0.11526 0.58475 0.25402
 H1149 H 0.04986 0.65612 0.30348
 H1150 H 0.07464 0.64021 0.28148
 H1151 H 0.06529 0.58165 0.30965
 H1152 H 0.04077 0.59741 0.33185
 H1153 H 0.09141 0.54173 0.27102
 H1154 H 0.11439 0.52545 0.24747
 H1155 H 0.13863 0.58517 0.23223
 H1156 H 0.11563 0.60130 0.25571
 C1157 C 0.94921 0.40401 0.32772
 C1158 C 0.93444 0.41534 0.31765
 C1159 C 0.92478 0.40701 0.30132
 C1160 C 0.92991 0.38704 0.29526
 C1161 C 0.94470 0.37576 0.30522
 C1162 C 0.95463 0.38415 0.32149
 N1163 N 0.91032 0.41924 0.29077
 N1164 N 0.90081 0.41207 0.27615
 C1165 C 0.88680 0.42403 0.26487
 C1166 C 0.87693 0.41464 0.24922
 C1167 C 0.86395 0.42597 0.23722
 C1168 C 0.86065 0.44704 0.24063
 C1169 C 0.87028 0.45637 0.25662
 C1170 C 0.88327 0.44497 0.26865
 H1171 H 0.95659 0.41091 0.34018
 H1172 H 0.93065 0.43072 0.32247
 H1173 H 0.92270 0.38023 0.28268
 H1174 H 0.94846 0.36050 0.30007
 H1175 H 0.87949 0.39849 0.24620
 H1176 H 0.85652 0.41825 0.22522
 H1177 H 0.86821 0.47261 0.25951
 H1178 H 0.89081 0.45259 0.28064
 C1179 C 0.94843 0.59440 0.67017
 C1180 C 0.93388 0.58369 0.68111
 C1181 C 0.92550 0.59249 0.69783
 C1182 C 0.93167 0.61234 0.70341
 C1183 C 0.94626 0.62303 0.69255
 C1184 C 0.95492 0.61413 0.67587
 N1185 N 0.91129 0.58077 0.70919
 N1186 N 0.90283 0.58817 0.72428
 C1187 C 0.88913 0.57644 0.73616
 C1188 C 0.88025 0.58589 0.75230
 C1189 C 0.86761 0.57469 0.76479
 C1190 C 0.86364 0.55373 0.76136
 C1191 C 0.87228 0.54436 0.74491
 C1192 C 0.88493 0.55560 0.73241
 H1193 H 0.95481 0.58710 0.65743
 H1194 H 0.92928 0.56839 0.67667
 H1195 H 0.92545 0.61948 0.71629
 H1196 H 0.95089 0.63820 0.69732
 H1197 H 0.88334 0.60195 0.75532
 H1198 H 0.86094 0.58245 0.77715
 H1199 H 0.86973 0.52819 0.74200
 H1200 H 0.89168 0.54793 0.72005
 C1201 C 0.71859 0.64382 0.94944
 C1202 C 0.73004 0.63259 0.93606
 C1203 C 0.72440 0.61253 0.93112
 C1204 C 0.70688 0.60381 0.93950
 C1205 C 0.69515 0.61513 0.95265
 C1206 C 0.70091 0.63529 0.95790
 N1207 N 0.73657 0.60150 0.91740
 N1208 N 0.73473 0.58220 0.91480
 C1209 C 0.74675 0.57146 0.90074
 C1210 C 0.74722 0.54993 0.90116
 C1211 C 0.75891 0.53905 0.88766
 C1212 C 0.77000 0.54962 0.87329
 C1213 C 0.76936 0.57122 0.87277
 C1214 C 0.75795 0.58208 0.88646
 H1215 H 0.72356 0.65927 0.95298
 H1216 H 0.74349 0.63948 0.92962
 H1217 H 0.70215 0.58834 0.93578
 H1218 H 0.68169 0.60798 0.95880
 H1219 H 0.73860 0.54158 0.91204
 H1220 H 0.75905 0.52239 0.88823
 H1221 H 0.77788 0.57969 0.86188
 H1222 H 0.75776 0.59873 0.88579
 C1223 C 0.32577 0.39809 0.95164
 C1224 C 0.31468 0.40839 0.93727
 C1225 C 0.29551 0.40118 0.93158
 C1226 C 0.28761 0.38325 0.94019
 C1227 C 0.29878 0.37273 0.95433
 C1228 C 0.31798 0.38007 0.96040
 N1229 N 0.28435 0.41230 0.91708
 N1230 N 0.26564 0.40860 0.91369
 C1231 C 0.25441 0.41943 0.89907
 C1232 C 0.23320 0.41729 0.89853
 C1233 C 0.22173 0.42781 0.88459
 C1234 C 0.23140 0.44040 0.87075
 C1235 C 0.25273 0.44233 0.87114
 C1236 C 0.26415 0.43205 0.88528
 H1237 H 0.34049 0.40423 0.95580
 H1238 H 0.32094 0.42218 0.93070
 H1239 H 0.27286 0.37730 0.93592
 H1240 H 0.29220 0.35894 0.96065
 H1241 H 0.22553 0.40755 0.90904
 H1242 H 0.20533 0.42596 0.88447
 H1243 H 0.26049 0.45205 0.86069
 H1244 H 0.28055 0.43386 0.88538
 C1245 C 0.27963 0.64981 0.04622
 C1246 C 0.26883 0.63965 0.06089
 C1247 C 0.27568 0.62081 0.06819
 C1248 C 0.29370 0.61222 0.06078
 C1249 C 0.30462 0.62238 0.04617
 C1250 C 0.29768 0.64130 0.03859
 N1251 N 0.26396 0.61065 0.08292
 N1252 N 0.26864 0.59291 0.08940
 C1253 C 0.25677 0.58273 0.10401
 C1254 C 0.26187 0.56261 0.10937
 C1255 C 0.25025 0.55201 0.12317
 C1256 C 0.23332 0.56144 0.13195
 C1257 C 0.22841 0.58178 0.12672
 C1258 C 0.23999 0.59232 0.11285
 H1259 H 0.27375 0.66433 0.04087
 H1260 H 0.25496 0.64642 0.06650
 H1261 H 0.29933 0.59766 0.06623
 H1262 H 0.31842 0.61529 0.04076
 H1263 H 0.27473 0.55503 0.10263
 H1264 H 0.25427 0.53626 0.12665
 H1265 H 0.21567 0.58959 0.13342
 H1266 H 0.23581 0.60793 0.10902
 C1267 C 0.71384 0.35793 0.05247
 C1268 C 0.72480 0.36884 0.06647
 C1269 C 0.71838 0.38832 0.07241
 C1270 C 0.70050 0.39671 0.06449
 C1271 C 0.68925 0.38568 0.05073
 C1272 C 0.69587 0.36618 0.04438
 N1273 N 0.73028 0.39918 0.08649
 N1274 N 0.72786 0.41829 0.08978
 C1275 C 0.73975 0.42891 0.10404
 C1276 C 0.73984 0.45046 0.10409
 C1277 C 0.75168 0.46124 0.11755
 C1278 C 0.76330 0.45057 0.13143
 C1279 C 0.76293 0.42896 0.13159
 C1280 C 0.75138 0.41819 0.11791
 H1281 H 0.71945 0.34297 0.04810
 H1282 H 0.73853 0.36219 0.07254
 H1283 H 0.69518 0.41172 0.06899
 H1284 H 0.67553 0.39259 0.04491
 H1285 H 0.73090 0.45889 0.09352
 H1286 H 0.75162 0.47791 0.11727
 H1287 H 0.77184 0.42042 0.14211
 H1288 H 0.75146 0.40153 0.11821
 C1289 C 0.95249 0.66637 0.59819
 C1290 C 0.93860 0.67766 0.58707
 C1291 C 0.93025 0.69591 0.59424
 C1292 C 0.93607 0.70291 0.61271
 C1293 C 0.95016 0.69184 0.62376
 C1294 C 0.95858 0.67337 0.61668
 N1295 N 0.91609 0.70714 0.58249
 N1296 N 0.90573 0.72202 0.58929
 C1297 C 0.89180 0.73361 0.57762
 C1298 C 0.87828 0.74707 0.58678
 C1299 C 0.86435 0.75850 0.57587
 C1300 C 0.86399 0.75688 0.55553
 C1301 C 0.87778 0.74359 0.54630
 C1302 C 0.89150 0.73191 0.55726
 H1303 H 0.95860 0.65229 0.59216
 H1304 H 0.93424 0.67213 0.57283
 H1305 H 0.92988 0.71705 0.61854
 H1306 H 0.95439 0.69779 0.63789
 H1307 H 0.87844 0.74858 0.60245
 H1308 H 0.85399 0.76879 0.58329
 H1309 H 0.87770 0.74203 0.53063
 H1310 H 0.90190 0.72167 0.54986
 C1311 C 0.95414 0.32847 0.39737
 C1312 C 0.94071 0.31688 0.40877
 C1313 C 0.93169 0.29904 0.40137
 C1314 C 0.93630 0.29279 0.38236
 C1315 C 0.94994 0.30417 0.37101
 C1316 C 0.95908 0.32219 0.37835
 N1317 N 0.91815 0.28743 0.41350
 N1318 N 0.90732 0.27280 0.40683
 C1319 C 0.89402 0.26088 0.41892
 C1320 C 0.87988 0.24774 0.41014
 C1321 C 0.86653 0.23603 0.42148
 C1322 C 0.86739 0.23703 0.44185
 C1323 C 0.88181 0.24998 0.45068
 C1324 C 0.89495 0.26195 0.43930
 H1325 H 0.96084 0.34219 0.40362
 H1326 H 0.93728 0.32184 0.42341
 H1327 H 0.92956 0.27898 0.37635
 H1328 H 0.95328 0.29879 0.35647
 H1329 H 0.87910 0.24672 0.39446
 H1330 H 0.85566 0.22600 0.41436
 H1331 H 0.88268 0.25105 0.46635
 H1332 H 0.90587 0.27192 0.44640
 C1333 C 0.04495 0.28943 0.62789
 C1334 C 0.05900 0.27769 0.61749
 C1335 C 0.06933 0.28613 0.60161
 C1336 C 0.06533 0.30654 0.59603
 C1337 C 0.05104 0.31826 0.60621
 C1338 C 0.04067 0.30988 0.62235
 N1339 N 0.08355 0.27357 0.59127
 N1340 N 0.09578 0.28094 0.57870
 C1341 C 0.10962 0.26809 0.56818
 C1342 C 0.12516 0.27725 0.55721
 C1343 C 0.13891 0.26507 0.54684
 C1344 C 0.13705 0.24352 0.54703
 C1345 C 0.12134 0.23437 0.55791
 C1346 C 0.10781 0.24653 0.56851
 H1347 H 0.03731 0.28234 0.64016
 H1348 H 0.06193 0.26195 0.62188
 H1349 H 0.07308 0.31335 0.58369
 H1350 H 0.04823 0.33391 0.60146
 H1351 H 0.12667 0.29384 0.55680
 H1352 H 0.15081 0.27246 0.53842
 H1353 H 0.11969 0.21778 0.55837
 H1354 H 0.09586 0.23910 0.57681
 C1355 C 0.05054 0.67174 0.39892
 C1356 C 0.06501 0.68232 0.40998
 C1357 C 0.06974 0.70285 0.40581
 C1358 C 0.06002 0.71271 0.39018
 C1359 C 0.04578 0.70210 0.37890
 C1360 C 0.04072 0.68147 0.38317
 N1361 N 0.08450 0.71327 0.41755
 N1362 N 0.08707 0.73267 0.41661
 C1363 C 0.10204 0.74311 0.42809
 C1364 C 0.10170 0.76462 0.42889
 C1365 C 0.11606 0.77529 0.43999
 C1366 C 0.13123 0.76455 0.45022
 C1367 C 0.13169 0.74295 0.44926
 C1368 C 0.11712 0.73228 0.43839
 H1369 H 0.04719 0.65590 0.40269
 H1370 H 0.07245 0.67454 0.42197
 H1371 H 0.06354 0.72856 0.38661
 H1372 H 0.03862 0.71017 0.36693
 H1373 H 0.09020 0.77312 0.42097
 H1374 H 0.11552 0.79194 0.44037
 H1375 H 0.14318 0.73435 0.45711
 H1376 H 0.11774 0.71564 0.43791
 C1377 C 0.64118 0.94702 0.70740
 C1378 C 0.63141 0.93159 0.71809
 C1379 C 0.61220 0.92441 0.71250
 C1380 C 0.60285 0.93269 0.69586
 C1381 C 0.61265 0.94807 0.68508
 C1382 C 0.63188 0.95548 0.69081
 N1383 N 0.60242 0.90903 0.72417
 N1384 N 0.58445 0.90264 0.72069
 C1385 C 0.57471 0.88752 0.73271
 C1386 C 0.55428 0.88256 0.72926
 C1387 C 0.54407 0.86863 0.74134
 C1388 C 0.55421 0.85931 0.75707
 C1389 C 0.57489 0.86396 0.76019
 C1390 C 0.58505 0.87797 0.74817
 H1391 H 0.65600 0.95234 0.71217
 H1392 H 0.63875 0.92532 0.73089
 H1393 H 0.58799 0.92737 0.69125
 H1394 H 0.60509 0.95427 0.67237
 H1395 H 0.54615 0.88985 0.71742
 H1396 H 0.52808 0.86559 0.73869
 H1397 H 0.58323 0.85680 0.77197
 H1398 H 0.60090 0.88144 0.75105
 C1399 C 0.40132 0.95241 0.31940
 C1400 C 0.41280 0.93935 0.30758
 C1401 C 0.40397 0.93005 0.29132
 C1402 C 0.38341 0.93392 0.28697
 C1403 C 0.37197 0.94715 0.29865
 C1404 C 0.38082 0.95657 0.31497
 N1405 N 0.41626 0.91706 0.27931
 N1406 N 0.40866 0.90645 0.26558
 C1407 C 0.42092 0.89374 0.25327
 C1408 C 0.41125 0.88020 0.24047
 C1409 C 0.42272 0.86751 0.22831
 C1410 C 0.44412 0.86841 0.22859
 C1411 C 0.45382 0.88222 0.24128
 C1412 C 0.44232 0.89471 0.25363
 H1413 H 0.40860 0.95951 0.33182
 H1414 H 0.42864 0.93651 0.31106
 H1415 H 0.37625 0.92695 0.27443
 H1416 H 0.35621 0.95003 0.29487
 H1417 H 0.39477 0.87939 0.24000
 H1418 H 0.41489 0.85715 0.21852
 H1419 H 0.47029 0.88310 0.24184
 H1420 H 0.45013 0.90515 0.26335
 C1421 C 0.63467 0.05078 0.29932
 C1422 C 0.62470 0.06552 0.28803
 C1423 C 0.60391 0.06924 0.29062
 C1424 C 0.59316 0.05829 0.30500
 C1425 C 0.60321 0.04368 0.31652
 C1426 C 0.62403 0.03965 0.31365
 N1427 N 0.59419 0.08403 0.27828
 N1428 N 0.57498 0.08657 0.27791
 C1429 C 0.56570 0.10142 0.26529
 C1430 C 0.54446 0.10174 0.26348
 C1431 C 0.53505 0.11566 0.25084
 C1432 C 0.54678 0.12968 0.23995
 C1433 C 0.56807 0.12953 0.24199
 C1434 C 0.57748 0.11547 0.25448
 H1435 H 0.65075 0.04813 0.29683
 H1436 H 0.63313 0.07390 0.27703
 H1437 H 0.57707 0.06099 0.30729
 H1438 H 0.59462 0.03532 0.32742
 H1439 H 0.53522 0.09103 0.27176
 H1440 H 0.51859 0.11562 0.24968
 H1441 H 0.57747 0.14005 0.23366
 H1442 H 0.59393 0.11556 0.25563
 C1443 C 0.39357 0.05214 0.68101
 C1444 C 0.40540 0.06643 0.69118
 C1445 C 0.39772 0.07598 0.70783
 C1446 C 0.37792 0.07116 0.71419
 C1447 C 0.36611 0.05682 0.70410
 C1448 C 0.37383 0.04709 0.68744
 N1449 N 0.41045 0.09004 0.71830
 N1450 N 0.40399 0.09969 0.73313
 C1451 C 0.41665 0.11331 0.74415
 C1452 C 0.40819 0.12347 0.76009
 C1453 C 0.42026 0.13606 0.77180
 C1454 C 0.44113 0.13866 0.76779
 C1455 C 0.44952 0.12877 0.75150
 C1456 C 0.43739 0.11617 0.73977
 H1457 H 0.39997 0.04490 0.66825
 H1458 H 0.42065 0.06998 0.68616
 H1459 H 0.37164 0.07830 0.72705
 H1460 H 0.35096 0.05330 0.70941
 H1461 H 0.39221 0.12143 0.76356
 H1462 H 0.41328 0.14374 0.78405
 H1463 H 0.46557 0.13031 0.74815
 H1464 H 0.44428 0.10841 0.72752
 C1465 C 0.64158 0.72018 0.03538
 C1466 C 0.63002 0.73190 0.04831
 C1467 C 0.61410 0.72286 0.05881
 C1468 C 0.60969 0.70188 0.05615
 C1469 C 0.62109 0.69018 0.04305
 C1470 C 0.63719 0.69921 0.03257
 N1471 N 0.60263 0.73534 0.07196
 N1472 N 0.58957 0.72774 0.08363
 C1473 C 0.57805 0.74036 0.09662
 C1474 C 0.56632 0.73093 0.11111
 C1475 C 0.55523 0.74284 0.12426
 C1476 C 0.55549 0.76443 0.12291
 C1477 C 0.56701 0.77387 0.10817
 C1478 C 0.57830 0.76195 0.09518
 H1479 H 0.65382 0.72761 0.02746
 H1480 H 0.63353 0.74806 0.05021
 H1481 H 0.59739 0.69457 0.06407
 H1482 H 0.61737 0.67405 0.04121
 H1483 H 0.56595 0.71431 0.11231
 H1484 H 0.54632 0.73520 0.13540
 H1485 H 0.56757 0.79048 0.10692
 H1486 H 0.58720 0.76960 0.08405
 C1487 C 0.39441 0.33192 0.05206
 C1488 C 0.40535 0.32118 0.06626
 C1489 C 0.40098 0.30049 0.07014
 C1490 C 0.38524 0.29067 0.05986
 C1491 C 0.37412 0.30145 0.04586
 C1492 C 0.37866 0.32216 0.04172
 N1493 N 0.41264 0.28977 0.08455
 N1494 N 0.41142 0.27034 0.08662
 C1495 C 0.42273 0.25941 0.10112
 C1496 C 0.42284 0.23788 0.10065
 C1497 C 0.43365 0.22668 0.11458
 C1498 C 0.44431 0.23689 0.12941
 C1499 C 0.44409 0.25851 0.12995
 C1500 C 0.43348 0.26971 0.11584
 H1501 H 0.39821 0.34788 0.04924
 H1502 H 0.41741 0.32893 0.07413
 H1503 H 0.38150 0.27470 0.06267
 H1504 H 0.36212 0.29349 0.03811
 H1505 H 0.41455 0.22978 0.08941
 H1506 H 0.43341 0.21003 0.11396
 H1507 H 0.45230 0.26672 0.14118
 H1508 H 0.43355 0.28636 0.11653
 C1509 C 0.64552 0.28763 0.95584
 C1510 C 0.63523 0.27654 0.94152
 C1511 C 0.61582 0.28257 0.93543
 C1512 C 0.60674 0.30002 0.94379
 C1513 C 0.61705 0.31120 0.95809
 C1514 C 0.63655 0.30508 0.96431
 N1515 N 0.60568 0.27061 0.92090
 N1516 N 0.58772 0.27463 0.91507
 C1517 C 0.57778 0.26238 0.90062
 C1518 C 0.55761 0.26685 0.89558
 C1519 C 0.54734 0.25484 0.88188
 C1520 C 0.55714 0.23812 0.87292
 C1521 C 0.57750 0.23384 0.87784
 C1522 C 0.58772 0.24582 0.89158
 H1523 H 0.66053 0.28252 0.96026
 H1524 H 0.64237 0.26312 0.93518
 H1525 H 0.59172 0.30498 0.93929
 H1526 H 0.60973 0.32456 0.96434
 H1527 H 0.54977 0.27954 0.90248
 H1528 H 0.53159 0.25838 0.87860
 H1529 H 0.58558 0.22128 0.87099
 H1530 H 0.60336 0.24211 0.89514
 C1531 C 0.34856 0.71523 0.94628
 C1532 C 0.35911 0.72550 0.93152
 C1533 C 0.37817 0.71847 0.92537
 C1534 C 0.38659 0.70083 0.93407
 C1535 C 0.37602 0.69048 0.94880
 C1536 C 0.35692 0.69762 0.95512
 N1537 N 0.38871 0.72969 0.91052
 N1538 N 0.40650 0.72481 0.90481
 C1539 C 0.41698 0.73635 0.89012
 C1540 C 0.43708 0.73117 0.88550
 C1541 C 0.44798 0.74265 0.87178
 C1542 C 0.43887 0.75954 0.86237
 C1543 C 0.41852 0.76445 0.86678
 C1544 C 0.40768 0.75300 0.88054
 H1545 H 0.33387 0.72111 0.95077
 H1546 H 0.35248 0.73907 0.92492
 H1547 H 0.40132 0.69510 0.92955
 H1548 H 0.38286 0.67697 0.95531
 H1549 H 0.44442 0.71840 0.89281
 H1550 H 0.46370 0.73863 0.86890
 H1551 H 0.41096 0.77714 0.85956
 H1552 H 0.39210 0.75724 0.88376
 C1553 C 0.70428 0.95201 0.36940
 C1554 C 0.71580 0.93805 0.38019
 C1555 C 0.70699 0.92708 0.39553
 C1556 C 0.68635 0.93027 0.40008
 C1557 C 0.67480 0.94447 0.38941
 C1558 C 0.68367 0.95546 0.37393
 N1559 N 0.71951 0.91313 0.40631
 N1560 N 0.71245 0.90081 0.41905
 C1561 C 0.72559 0.88728 0.42972
 C1562 C 0.71704 0.87175 0.44128
 C1563 C 0.72957 0.85815 0.45158
 C1564 C 0.75088 0.86011 0.45066
 C1565 C 0.75942 0.87586 0.43924
 C1566 C 0.74691 0.88926 0.42878
 H1567 H 0.71161 0.96029 0.35764
 H1568 H 0.73170 0.93574 0.37659
 H1569 H 0.67924 0.92200 0.41196
 H1570 H 0.65897 0.94680 0.39323
 H1571 H 0.70064 0.87010 0.44218
 H1572 H 0.72262 0.84624 0.46042
 H1573 H 0.77580 0.87759 0.43816
 H1574 H 0.75391 0.90117 0.42000
 C1575 C 0.28729 0.96130 0.63654
 C1576 C 0.27544 0.94710 0.62631
 C1577 C 0.28420 0.93483 0.61190
 C1578 C 0.30506 0.93696 0.60771
 C1579 C 0.31689 0.95135 0.61775
 C1580 C 0.30812 0.96366 0.63229
 N1581 N 0.27155 0.92064 0.60154
 N1582 N 0.27887 0.90719 0.59010
 C1583 C 0.26608 0.89336 0.57944
 C1584 C 0.27498 0.87684 0.56959
 C1585 C 0.26289 0.86309 0.55905
 C1586 C 0.24170 0.86590 0.55796
 C1587 C 0.23280 0.88259 0.56772
 C1588 C 0.24487 0.89615 0.57848
 H1589 H 0.28008 0.97063 0.64759
 H1590 H 0.25937 0.94563 0.62963
 H1591 H 0.31216 0.92770 0.59656
 H1592 H 0.33290 0.95280 0.61418
 H1593 H 0.29131 0.87458 0.57016
 H1594 H 0.27011 0.85044 0.55151
 H1595 H 0.21648 0.88498 0.56721
 H1596 H 0.23764 0.90886 0.58591
 C1597 C 0.32880 0.04822 0.39211
 C1598 C 0.31816 0.06307 0.40268
 C1599 C 0.29759 0.06690 0.39879
 C1600 C 0.28773 0.05580 0.38402
 C1601 C 0.29843 0.04115 0.37325
 C1602 C 0.31906 0.03717 0.37722
 N1603 N 0.28716 0.08226 0.40984
 N1604 N 0.26791 0.08446 0.40901
 C1605 C 0.25750 0.10007 0.41978
 C1606 C 0.23622 0.09944 0.42085
 C1607 C 0.22560 0.11439 0.43130
 C1608 C 0.23615 0.13042 0.44059
 C1609 C 0.25750 0.13117 0.43933
 C1610 C 0.26813 0.11604 0.42911
 H1611 H 0.34471 0.04557 0.39544
 H1612 H 0.32593 0.07157 0.41399
 H1613 H 0.27185 0.05857 0.38068
 H1614 H 0.29051 0.03285 0.36189
 H1615 H 0.22787 0.08726 0.41365
 H1616 H 0.20913 0.11360 0.43193
 H1617 H 0.26596 0.14331 0.44649
 H1618 H 0.28459 0.11689 0.42841
 C1619 C 0.70280 0.05540 0.64049
 C1620 C 0.71372 0.06996 0.62972
 C1621 C 0.71010 0.07240 0.60984
 C1622 C 0.69496 0.06043 0.60083
 C1623 C 0.68380 0.04605 0.61164
 C1624 C 0.68778 0.04322 0.63154
 N1625 N 0.72218 0.08689 0.59915
 N1626 N 0.72197 0.08780 0.58068
 C1627 C 0.73421 0.10232 0.57018
 C1628 C 0.73569 0.10061 0.54996
 C1629 C 0.74793 0.11425 0.53937
 C1630 C 0.75868 0.13002 0.54887
 C1631 C 0.75697 0.13187 0.56913
 C1632 C 0.74492 0.11808 0.57973
 H1633 H 0.70615 0.05364 0.65580
 H1634 H 0.72531 0.07914 0.63683
 H1635 H 0.69182 0.06213 0.58547
 H1636 H 0.67236 0.03685 0.60435
 H1637 H 0.72748 0.08856 0.54243
 H1638 H 0.74886 0.11261 0.52374
 H1639 H 0.76523 0.14378 0.57682
 H1640 H 0.74400 0.11975 0.59534
 C1641 C 0.95672 0.60094 0.32408
 C1642 C 0.94307 0.59001 0.31242
 C1643 C 0.93232 0.59999 0.29762
 C1644 C 0.93538 0.62117 0.29454
 C1645 C 0.94918 0.63209 0.30606
 C1646 C 0.96001 0.62208 0.32095
 N1647 N 0.91870 0.58825 0.28576
 N1648 N 0.90698 0.59665 0.27335
 C1649 C 0.89365 0.58483 0.26125
 C1650 C 0.87931 0.59510 0.24975
 C1651 C 0.86608 0.58401 0.23778
 C1652 C 0.86720 0.56243 0.23696
 C1653 C 0.88173 0.55215 0.24839
 C1654 C 0.89479 0.56324 0.26053
 H1655 H 0.96489 0.59277 0.33538
 H1656 H 0.94087 0.57368 0.31490
 H1657 H 0.92728 0.62922 0.28312
 H1658 H 0.95137 0.64837 0.30331
 H1659 H 0.87835 0.61173 0.25014
 H1660 H 0.85515 0.59230 0.22897
 H1661 H 0.88278 0.53552 0.24812
 H1662 H 0.90581 0.55496 0.26924
 C1663 C 0.95849 0.39587 0.67690
 C1664 C 0.94512 0.40758 0.68819
 C1665 C 0.93400 0.39838 0.70323
 C1666 C 0.93635 0.37722 0.70689
 C1667 C 0.94984 0.36555 0.69576
 C1668 C 0.96111 0.37476 0.68068
 N1669 N 0.92075 0.41083 0.71482
 N1670 N 0.90891 0.40297 0.72747
 C1671 C 0.89594 0.41520 0.73952
 C1672 C 0.88170 0.40528 0.75143
 C1673 C 0.86894 0.41667 0.76355
 C1674 C 0.87041 0.43824 0.76410
 C1675 C 0.88480 0.44820 0.75221
 C1676 C 0.89742 0.43678 0.73992
 H1677 H 0.96701 0.40342 0.66544
 H1678 H 0.94346 0.42387 0.68525
 H1679 H 0.92796 0.36975 0.71848
 H1680 H 0.95148 0.34932 0.69901
 H1681 H 0.88050 0.38865 0.75130
 H1682 H 0.85814 0.40861 0.77272
 H1683 H 0.88613 0.46482 0.75228
 H1684 H 0.90838 0.44479 0.73088
 C1685 C 0.04323 0.59192 0.67419
 C1686 C 0.05682 0.58085 0.68585
 C1687 C 0.06652 0.59035 0.70156
 C1688 C 0.06251 0.61116 0.70551
 C1689 C 0.04878 0.62219 0.69400
 C1690 C 0.03895 0.61267 0.67824
 N1691 N 0.08002 0.57848 0.71346
 N1692 N 0.09075 0.58665 0.72678
 C1693 C 0.10390 0.57479 0.73903
 C1694 C 0.11711 0.58506 0.75169
 C1695 C 0.13005 0.57396 0.76395
 C1696 C 0.12975 0.55233 0.76391
 C1697 C 0.11639 0.54202 0.75127
 C1698 C 0.10363 0.55315 0.73885
 H1699 H 0.03585 0.58414 0.66221
 H1700 H 0.05976 0.56481 0.68268
 H1701 H 0.06978 0.61883 0.71762
 H1702 H 0.04583 0.63816 0.69747
 H1703 H 0.11739 0.60172 0.75201
 H1704 H 0.14007 0.58226 0.77368
 H1705 H 0.11600 0.52536 0.75086
 H1706 H 0.09349 0.54486 0.72923
 C1707 C 0.04631 0.40292 0.32322
 C1708 C 0.06099 0.41364 0.31250
 C1709 C 0.06935 0.40501 0.29571
 C1710 C 0.06278 0.38545 0.28964
 C1711 C 0.04801 0.37476 0.30027
 C1712 C 0.03963 0.38337 0.31720
 N1713 N 0.08421 0.41649 0.28495
 N1714 N 0.09329 0.40898 0.27026
 C1715 C 0.10780 0.42055 0.25918
 C1716 C 0.11758 0.41103 0.24356
 C1717 C 0.13120 0.42208 0.23193
 C1718 C 0.13522 0.44297 0.23570
 C1719 C 0.12562 0.45241 0.25161
 C1720 C 0.11203 0.44131 0.26327
 H1721 H 0.04013 0.41000 0.33617
 H1722 H 0.06590 0.42873 0.31728
 H1723 H 0.06897 0.37847 0.27666
 H1724 H 0.04321 0.35972 0.29528
 H1725 H 0.11449 0.39502 0.24031
 H1726 H 0.13857 0.41430 0.21995
 H1727 H 0.12818 0.46854 0.25474
 H1728 H 0.10460 0.44903 0.27524
   
