data_POSCAR
  _audit_creation_date              2014-09-24
  _audit_creation_method            'ToBaCCo'
  _symmetry_space_group_name_H-M    'P1'
  _symmetry_Int_Tables_number       1
  _symmetry_cell_setting            triclinic
  loop_
  _symmetry_equiv_pos_as_xyz
 x,y,z
_cell_length_a 37.7367
_cell_length_b 37.8122
_cell_length_c 37.9536
_cell_angle_alpha 87.529800
_cell_angle_beta 87.277700
_cell_angle_gamma 87.204600
loop_
  _atom_site_label
  _atom_site_type_symbol
  _atom_site_fract_x
  _atom_site_fract_y
  _atom_site_fract_z
C1 C 0.80213 0.63757 1.01581
 C2 C 0.81324 0.61172 0.98704
 C3 C 0.78711 0.59062 0.97756
 C4 C 0.75200 0.59684 0.99974
 C5 C 0.76885 0.65800 1.00203
 C6 C 0.74254 0.63664 0.99296
 C7 C 0.78815 0.61434 1.04665
 C8 C 0.76164 0.59316 1.03896
 H9 H 0.83739 0.61520 0.97080
 H10 H 0.73111 0.57900 0.99348
 H11 H 0.76690 0.68667 0.99912
 H12 H 0.79569 0.61760 1.07357
 C13 C 0.80304 0.35536 0.47117
 C14 C 0.80885 0.37398 0.50509
 C15 C 0.77955 0.39213 0.51877
 C16 C 0.74685 0.39066 0.49594
 C17 C 0.77109 0.33234 0.48005
 C18 C 0.74141 0.35078 0.49289
 C19 C 0.78901 0.38490 0.44598
 C20 C 0.75929 0.40341 0.45832
 H21 H 0.83488 0.37470 0.51601
 H22 H 0.72307 0.40541 0.50676
 H23 H 0.77289 0.30391 0.47749
 H24 H 0.79860 0.38729 0.41857
 C25 C 0.30118 -0.14349 -0.03101
 C26 C 0.30649 -0.12662 0.00193
 C27 C 0.27589 -0.10688 0.01589
 C28 C 0.24553 -0.10711 -0.00702
 C29 C 0.26996 -0.16472 -0.02369
 C30 C 0.23889 -0.14471 -0.01058
 C31 C 0.28925 -0.11447 -0.05488
 C32 C 0.25825 -0.09428 -0.04235
 H33 H 0.33237 -0.12615 0.01328
 H34 H 0.22200 -0.09179 0.00347
 H35 H 0.27135 -0.19331 -0.02526
 H36 H 0.29898 -0.11221 -0.08228
 C37 C 0.30368 0.13243 0.51308
 C38 C 0.31436 0.10728 0.48358
 C39 C 0.28789 0.08674 0.47375
 C40 C 0.25296 0.09277 0.49632
 C41 C 0.27050 0.15351 0.50004
 C42 C 0.24391 0.13277 0.49056
 C43 C 0.28974 0.10858 0.54344
 C44 C 0.26289 0.08798 0.53541
 H45 H 0.33844 0.11089 0.46727
 H46 H 0.23181 0.07536 0.48980
 H47 H 0.26885 0.18223 0.49777
 H48 H 0.29749 0.11112 0.57040
 C49 C 0.14350 0.51676 0.30201
 C50 C 0.11758 0.48841 0.31416
 C51 C 0.09544 0.47892 0.28898
 C52 C 0.10080 0.50064 0.25374
 C53 C 0.16273 0.50219 0.26854
 C54 C 0.14034 0.49310 0.24323
 C55 C 0.12008 0.54791 0.28851
 C56 C 0.09785 0.54016 0.26299
 H57 H 0.12162 0.47236 0.33818
 H58 H 0.08220 0.49436 0.23361
 H59 H 0.19142 0.49886 0.26571
 H60 H 0.12393 0.57497 0.29555
 C61 C -0.14203 -0.02840 0.30268
 C62 C -0.12400 0.00597 0.30860
 C63 C -0.10517 0.01925 0.27976
 C64 C -0.10557 -0.00446 0.24752
 C65 C -0.16449 -0.01990 0.27028
 C66 C -0.14540 -0.00742 0.24106
 C67 C -0.11343 -0.05253 0.29053
 C68 C -0.09319 -0.04017 0.25977
 H69 H -0.12405 0.01736 0.33439
 H70 H -0.09053 0.00645 0.22418
 H71 H -0.19302 -0.02213 0.27149
 H72 H -0.11160 -0.08007 0.30000
 C73 C 0.35408 0.46863 0.80316
 C74 C 0.37305 0.50229 0.80944
 C75 C 0.39172 0.51577 0.78065
 C76 C 0.39039 0.49299 0.74791
 C77 C 0.33148 0.47804 0.77113
 C78 C 0.35044 0.49065 0.74193
 C79 C 0.38354 0.44287 0.78941
 C80 C 0.40257 0.45498 0.76019
 H81 H 0.37335 0.51336 0.83535
 H82 H 0.40557 0.50361 0.72452
 H83 H 0.30295 0.47586 0.77251
 H84 H 0.38541 0.41530 0.79873
 C85 C 0.63710 1.01335 0.80306
 C86 C 0.61200 0.98391 0.81401
 C87 C 0.59067 0.97444 0.78810
 C88 C 0.59625 0.99712 0.75336
 C89 C 0.65765 0.99983 0.76975
 C90 C 0.63621 0.99062 0.74362
 C91 C 0.61428 1.04249 0.79050
 C92 C 0.59186 1.03443 0.76283
 H93 H 0.61592 0.96754 0.83785
 H94 H 0.57859 0.99017 0.73267
 H95 H 0.68641 0.99723 0.76765
 H96 H 0.61749 1.06958 0.79789
 C97 C -0.02953 0.30163 -0.14877
 C98 C 0.00448 0.30771 -0.13023
 C99 C 0.01821 0.27872 -0.11195
 C100 C -0.00456 0.24599 -0.11334
 C101 C -0.02034 0.26951 -0.17157
 C102 C -0.00737 0.24012 -0.15304
 C103 C -0.05497 0.28781 -0.11929
 C104 C -0.04248 0.25842 -0.10069
 H105 H 0.01524 0.33377 -0.12946
 H106 H 0.00638 0.22243 -0.09860
 H107 H -0.02315 0.27088 -0.19985
 H108 H -0.08255 0.29740 -0.11681
 C109 C 0.51300 0.30259 0.13757
 C110 C 0.48435 0.31386 0.11174
 C111 C 0.47498 0.28787 0.09044
 C112 C 0.49715 0.25273 0.09649
 C113 C 0.49888 0.26941 0.15758
 C114 C 0.48992 0.24325 0.13603
 C115 C 0.54421 0.28857 0.11447
 C116 C 0.53663 0.26220 0.09312
 H117 H 0.46802 0.33799 0.11532
 H118 H 0.49097 0.23195 0.07852
 H119 H 0.49568 0.26742 0.18614
 H120 H 0.57126 0.29599 0.11790
 C121 C 1.01273 0.79969 0.63607
 C122 C 0.98504 0.81095 0.61196
 C123 C 0.97437 0.78388 0.58964
 C124 C 0.99496 0.75015 0.59572
 C125 C 0.99917 0.76843 0.65564
 C126 C 0.98859 0.74099 0.63347
 C127 C 1.04185 0.78581 0.61342
 C128 C 1.03279 0.75826 0.59118
 H129 H 0.96913 0.83540 0.61544
 H130 H 0.98799 0.72945 0.57810
 H131 H 0.99733 0.76617 0.68427
 H132 H 1.06931 0.79208 0.61661
 C133 C 0.46782 0.80476 0.35403
 C134 C 0.50192 0.81125 0.37232
 C135 C 0.51554 0.78269 0.39136
 C136 C 0.49240 0.75009 0.39119
 C137 C 0.47678 0.77187 0.33233
 C138 C 0.48941 0.74294 0.35176
 C139 C 0.44224 0.79200 0.38385
 C140 C 0.45464 0.76334 0.40355
 H141 H 0.51311 0.83719 0.37194
 H142 H 0.50303 0.72688 0.40671
 H143 H 0.47460 0.77253 0.30397
 H144 H 0.41476 0.80194 0.38615
 C145 C 0.39962 -0.01068 0.27097
 H146 H 0.40001 0.01555 0.28122
 C147 C 0.41601 -0.03945 0.28897
 H148 H 0.43014 -0.03454 0.31225
 C149 C 0.38091 -0.04817 0.22775
 H150 H 0.36659 -0.05162 0.20425
 C151 C 0.39690 -0.07771 0.24497
 H152 H 0.39555 -0.10341 0.23374
 N153 N 0.38189 -0.01560 0.24139
 C154 C 0.36625 0.08975 0.19217
 H155 H 0.33773 0.09054 0.19012
 C156 C 0.38538 0.11901 0.18078
 H157 H 0.37119 0.14236 0.17014
 C158 C 0.41891 0.05864 0.20968
 H159 H 0.43184 0.03504 0.22111
 C160 C 0.43925 0.08723 0.19810
 H161 H 0.46748 0.08502 0.20159
 Zn162 Zn 0.35402 0.02319 0.22339
 N163 N 0.38305 0.06058 0.20690
 C164 C 0.32837 0.07076 0.27406
 N165 N 0.32403 0.03804 0.26200
 C166 C 0.30541 0.01366 0.28166
 C167 C 0.29202 0.02126 0.31575
 C168 C 0.31562 0.07937 0.30769
 C169 C 0.35092 0.00325 0.15553
 C170 C 0.33798 -0.01156 0.12616
 C171 C 0.28028 -0.01371 0.15639
 C172 C 0.29450 0.00133 0.18550
 N173 N 0.32948 0.00867 0.18469
 H174 H 0.34446 0.08935 0.25907
 H175 H 0.30356 -0.01270 0.27210
 H176 H 0.27981 0.00049 0.33182
 H177 H 0.32231 0.10457 0.31744
 H178 H 0.37872 0.00896 0.15579
 H179 H 0.35630 -0.01745 0.10414
 H180 H 0.25298 -0.02119 0.15845
 H181 H 0.27805 0.00562 0.20918
 C182 C 0.42252 0.11806 0.18317
 C183 C 0.41312 -0.07394 0.27713
 C184 C 0.30231 -0.02077 0.12621
 C185 C 0.29767 0.05439 0.32953
 C186 C 0.05713 1.04581 0.79540
 H187 H 0.05396 1.02013 0.80857
 C188 C 0.03868 1.07575 0.80861
 H189 H 0.02160 1.07216 0.83194
 C190 C 0.08600 1.08102 0.75076
 H191 H 0.10549 1.08328 0.72911
 C192 C 0.06809 1.11155 0.76297
 H193 H 0.07381 1.13693 0.75017
 N194 N 0.08050 1.04899 0.76721
 C195 C 0.10719 0.94338 0.73031
 H196 H 0.13563 0.94540 0.73122
 C197 C 0.09360 0.91350 0.71701
 H198 H 0.11205 0.89307 0.70705
 C199 C 0.04935 0.96942 0.73971
 H200 H 0.03244 0.99183 0.74776
 C201 C 0.03442 0.93967 0.72655
 H202 H 0.00600 0.94010 0.72406
 Zn203 Zn 0.11024 1.00924 0.75504
 N204 N 0.08519 0.97060 0.74119
 C205 C 0.12664 0.96368 0.81273
 N206 N 0.13570 0.99440 0.79547
 C207 C 0.16100 1.01447 0.80780
 C208 C 0.18080 1.00193 0.83641
 C209 C 0.14516 0.95059 0.84175
 C210 C 0.12474 1.02922 0.68454
 C211 C 0.14495 1.03703 0.65365
 C212 C 0.19796 1.02703 0.68649
 C213 C 0.17673 1.01917 0.71671
 N214 N 0.14077 1.02086 0.71536
 H215 H 0.10490 0.94918 0.80409
 H216 H 0.16636 1.03986 0.79493
 H217 H 0.20121 1.01809 0.84534
 H218 H 0.13698 0.92624 0.85503
 H219 H 0.09607 1.03006 0.68408
 H220 H 0.13149 1.04468 0.62974
 H221 H 0.22632 1.02711 0.68912
 H222 H 0.18914 1.01180 0.74114
 C223 C 0.05668 0.91084 0.71517
 C224 C 0.04426 1.10947 0.79255
 C225 C 0.18222 1.03556 0.65405
 C226 C 0.17422 0.96856 0.85271
 C227 C 0.55604 0.54898 0.29991
 H228 H 0.55317 0.52307 0.31268
 C229 C 0.53755 0.57857 0.31381
 H230 H 0.52054 0.57442 0.33709
 C231 C 0.58400 0.58505 0.25538
 H232 H 0.60307 0.58776 0.23343
 C233 C 0.56600 0.61523 0.26825
 H234 H 0.57113 0.64081 0.25559
 N235 N 0.57901 0.55277 0.27147
 C236 C 0.60578 0.44846 0.23172
 H237 H 0.63423 0.45071 0.23213
 C238 C 0.59218 0.41874 0.21813
 H239 H 0.61054 0.39859 0.20747
 C240 C 0.54784 0.47361 0.24305
 H241 H 0.53087 0.49556 0.25211
 C242 C 0.53292 0.44395 0.22970
 H243 H 0.50442 0.44393 0.22811
 Zn244 Zn 0.60877 0.51342 0.25831
 N245 N 0.58372 0.47516 0.24369
 C246 C 0.62552 0.46642 0.31477
 N247 N 0.63428 0.49765 0.29836
 C248 C 0.65943 0.51753 0.31122
 C249 C 0.67945 0.50432 0.33942
 C250 C 0.64425 0.45262 0.34336
 C251 C 0.62346 0.53477 0.18810
 C252 C 0.64383 0.54285 0.15738
 C253 C 0.69668 0.53208 0.19032
 C254 C 0.67529 0.52396 0.22035
 N255 N 0.63933 0.52586 0.21888
 H256 H 0.60389 0.45201 0.30574
 H257 H 0.66453 0.54329 0.29905
 H258 H 0.69973 0.52037 0.34876
 H259 H 0.63643 0.42781 0.35592
 H260 H 0.59479 0.53571 0.18750
 H261 H 0.63051 0.55081 0.13346
 H262 H 0.72502 0.53187 0.19310
 H263 H 0.68759 0.51611 0.24474
 C264 C 0.55529 0.41579 0.21713
 C265 C 0.54276 0.61255 0.29824
 C266 C 0.68110 0.54114 0.15791
 C267 C 0.67322 0.47045 0.35474
 C268 C 0.90142 0.48870 0.77450
 H269 H 0.90191 0.51456 0.78556
 C270 C 0.91798 0.45936 0.79151
 H271 H 0.93228 0.46348 0.81488
 C272 C 0.88237 0.45264 0.73023
 H273 H 0.86791 0.44995 0.70668
 C274 C 0.89855 0.42261 0.74639
 H275 H 0.89716 0.39734 0.73431
 N276 N 0.88340 0.48473 0.74490
 C277 C 0.86665 0.59034 0.69642
 H278 H 0.83807 0.59090 0.69487
 C279 C 0.88543 0.61949 0.68402
 H280 H 0.87094 0.64255 0.67316
 C281 C 0.91980 0.55979 0.71338
 H282 H 0.93303 0.53643 0.72496
 C283 C 0.93979 0.58828 0.70079
 H284 H 0.96812 0.58626 0.70369
 Zn285 Zn 0.85524 0.52383 0.72790
 N286 N 0.88388 0.56145 0.71120
 C287 C 0.83017 0.57118 0.77886
 N288 N 0.82570 0.53843 0.76694
 C289 C 0.80695 0.51421 0.78669
 C290 C 0.79334 0.52212 0.82065
 C291 C 0.81726 0.58007 0.81234
 C292 C 0.85130 0.50611 0.65960
 C293 C 0.83858 0.49118 0.63021
 C294 C 0.78190 0.48510 0.66167
 C295 C 0.79587 0.50034 0.69080
 N296 N 0.83029 0.50971 0.68935
 H297 H 0.84635 0.58965 0.76381
 H298 H 0.80499 0.48781 0.77727
 H299 H 0.78088 0.50154 0.83677
 H300 H 0.82393 0.60534 0.82194
 H301 H 0.87873 0.51318 0.65940
 H302 H 0.85673 0.48669 0.60772
 H303 H 0.75521 0.47589 0.66419
 H304 H 0.77982 0.50304 0.71498
 C305 C 0.92266 0.61871 0.68547
 C306 C 0.91502 0.42531 0.77858
 C307 C 0.80359 0.47992 0.63087
 C308 C 0.79899 0.55536 0.83420
 C309 C 0.27323 0.40118 -0.01164
 H310 H 0.28397 0.40143 0.01428
 C311 C 0.29112 0.41728 -0.04057
 H312 H 0.31484 0.43102 -0.03610
 C313 C 0.22884 0.38316 -0.04819
 H314 H 0.20490 0.36927 -0.05121
 C315 C 0.24588 0.39890 -0.07784
 H316 H 0.23409 0.39779 -0.10319
 N317 N 0.24314 0.38390 -0.01604
 C318 C 0.19292 0.36901 0.08876
 H319 H 0.19043 0.34061 0.08932
 C320 C 0.18161 0.38819 0.11806
 H321 H 0.17064 0.37414 0.14122
 C322 C 0.21171 0.42125 0.05827
 H323 H 0.22373 0.43396 0.03494
 C324 C 0.20024 0.44164 0.08691
 H325 H 0.20442 0.46969 0.08505
 Zn326 Zn 0.22506 0.35637 0.02269
 N327 N 0.20828 0.38556 0.05990
 C328 C 0.27530 0.33076 0.07041
 N329 N 0.26379 0.32655 0.03757
 C330 C 0.28396 0.30792 0.01339
 C331 C 0.31799 0.29426 0.02142
 C332 C 0.30884 0.31777 0.07942
 C333 C 0.15655 0.35260 0.00393
 C334 C 0.12742 0.33969 -0.01147
 C335 C 0.15930 0.28302 -0.01652
 C336 C 0.18812 0.29719 -0.00084
 N337 N 0.18639 0.33167 0.00821
 H338 H 0.25992 0.34682 0.08887
 H339 H 0.27487 0.30617 -0.01306
 H340 H 0.33449 0.28196 0.00088
 H341 H 0.31816 0.32427 0.10478
 H342 H 0.15615 0.38008 0.01082
 H343 H 0.10488 0.35772 -0.01651
 H344 H 0.16214 0.25626 -0.02545
 H345 H 0.21238 0.28120 0.00244
 C346 C 0.18472 0.42515 0.11745
 C347 C 0.27855 0.41461 -0.07466
 C348 C 0.12845 0.30459 -0.02246
 C349 C 0.33117 0.29969 0.05474
 C350 C 0.79993 0.05725 1.04859
 H351 H 0.81256 0.05412 1.02264
 C352 C 0.81424 0.03915 1.07794
 H353 H 0.83765 0.02217 1.07351
 C354 C 0.75537 0.08544 1.08496
 H355 H 0.73326 0.10446 1.08786
 C356 C 0.76865 0.06782 1.11493
 H357 H 0.75613 0.07318 1.14055
 N358 N 0.77131 0.08016 1.05263
 C359 C 0.73070 0.10619 0.94916
 H360 H 0.73089 0.13457 0.95163
 C361 C 0.71710 0.09261 0.91952
 H362 H 0.70615 0.11093 0.89970
 C363 C 0.74268 0.04837 0.97361
 H364 H 0.75204 0.03145 0.99526
 C365 C 0.72937 0.03347 0.94398
 H366 H 0.72807 0.00501 0.94366
 Zn367 Zn 0.75781 0.10946 1.01345
 N368 N 0.74301 0.08419 0.97548
 C369 C 0.81440 0.12559 0.96610
 N370 N 0.79794 0.13487 0.99720
 C371 C 0.81074 0.16052 1.01647
 C372 C 0.83882 0.18053 1.00269
 C373 C 0.84291 0.14426 0.95179
 C374 C 0.68728 0.12418 1.03537
 C375 C 0.65632 0.14455 1.04342
 C376 C 0.68919 0.19727 1.03175
 C377 C 0.71946 0.17588 1.02367
 N378 N 0.71814 0.14000 1.02603
 H379 H 0.80543 0.10361 0.95217
 H380 H 0.79857 0.16606 1.04215
 H381 H 0.84809 0.20121 1.01826
 H382 H 0.85550 0.13607 0.92707
 H383 H 0.68680 0.09557 1.03662
 H384 H 0.63233 0.13132 1.05168
 H385 H 0.69189 0.22557 1.03112
 H386 H 0.74387 0.18812 1.01541
 C387 C 0.71651 0.05580 0.91620
 C388 C 0.79891 0.04470 1.11198
 C389 C 0.65669 0.18174 1.04127
 C390 C 0.85413 0.17371 0.96894
 C391 C 0.29605 0.55502 0.54941
 H392 H 0.30735 0.54970 0.52339
 C393 C 0.30946 0.53623 0.57881
 H394 H 0.33124 0.51722 0.57432
 C395 C 0.25405 0.58653 0.58581
 H396 H 0.23273 0.60636 0.58874
 C397 C 0.26653 0.56836 0.61584
 H398 H 0.25457 0.57462 0.64146
 N399 N 0.26964 0.58051 0.55345
 C400 C 0.24663 0.60758 0.44406
 H401 H 0.25128 0.63551 0.44501
 C402 C 0.23525 0.59420 0.41320
 H403 H 0.23078 0.61253 0.39102
 C404 C 0.24251 0.55151 0.47389
 H405 H 0.24386 0.53551 0.49814
 C406 C 0.23107 0.53688 0.44333
 H407 H 0.22342 0.50964 0.44467
 Zn408 Zn 0.25718 0.61131 0.51445
 N409 N 0.24937 0.58647 0.47373
 C410 C 0.28934 0.67710 0.49796
 N411 N 0.29526 0.64146 0.50237
 C412 C 0.32792 0.62602 0.49495
 C413 C 0.35620 0.64648 0.48302
 C414 C 0.31685 0.69857 0.48591
 C415 C 0.18393 0.63015 0.51065
 C416 C 0.15168 0.64831 0.51905
 C417 C 0.18236 0.68303 0.55875
 C418 C 0.21392 0.66404 0.54979
 N419 N 0.21427 0.63815 0.52600
 H420 H 0.26291 0.68886 0.50207
 H421 H 0.33189 0.59761 0.49692
 H422 H 0.38142 0.63323 0.47587
 H423 H 0.31070 0.72649 0.48081
 H424 H 0.18447 0.60922 0.49211
 H425 H 0.12843 0.64095 0.50620
 H426 H 0.18275 0.70361 0.57769
 H427 H 0.23821 0.66983 0.56198
 C428 C 0.22709 0.55837 0.41233
 C429 C 0.29530 0.54344 0.61290
 C430 C 0.15041 0.67518 0.54364
 C431 C 0.35114 0.68343 0.47869
 C432 C 0.77539 0.90484 0.48795
 H433 H 0.78585 0.90494 0.51400
 C434 C 0.79357 0.92111 0.45927
 H435 H 0.81721 0.93483 0.46412
 C436 C 0.73151 0.88694 0.45076
 H437 H 0.70774 0.87293 0.44732
 C438 C 0.74879 0.90295 0.42139
 H439 H 0.73735 0.90189 0.39586
 N440 N 0.74544 0.88747 0.48311
 C441 C 0.69501 0.87021 0.58765
 H442 H 0.69320 0.84174 0.58762
 C443 C 0.68301 0.88855 0.61728
 H444 H 0.67222 0.87380 0.64008
 C445 C 0.71271 0.92344 0.55831
 H446 H 0.72459 0.93684 0.53530
 C447 C 0.70047 0.94302 0.58731
 H448 H 0.70392 0.97121 0.58606
 Zn449 Zn 0.72713 0.85931 0.52138
 N450 N 0.71005 0.88766 0.55917
 C451 C 0.77794 0.83413 0.56862
 N452 N 0.76585 0.82918 0.53614
 C453 C 0.78531 0.80939 0.51237
 C454 C 0.81908 0.79496 0.52051
 C455 C 0.81125 0.82049 0.57769
 C456 C 0.65907 0.85679 0.50118
 C457 C 0.62952 0.84427 0.48616
 C458 C 0.65953 0.78649 0.48333
 C459 C 0.68885 0.80030 0.49854
 N460 N 0.68824 0.83512 0.50635
 H461 H 0.76322 0.85117 0.58668
 H462 H 0.77583 0.80705 0.48616
 H463 H 0.83496 0.78149 0.50030
 H464 H 0.82103 0.82740 0.60273
 H465 H 0.65947 0.88444 0.50728
 H466 H 0.60748 0.86275 0.48057
 H467 H 0.66143 0.75929 0.47560
 H468 H 0.71252 0.78363 0.50268
 C469 C 0.68503 0.92561 0.61739
 C470 C 0.78140 0.91865 0.42499
 C471 C 0.62935 0.80879 0.47654
 C472 C 0.83278 0.80094 0.55350
 C473 C -0.00963 0.27683 0.40250
 H474 H 0.01637 0.28762 0.40300
 C475 C -0.03892 0.29434 0.41888
 H476 H -0.03464 0.31783 0.43305
 C477 C -0.04604 0.23269 0.38360
 H478 H -0.04888 0.20901 0.36926
 C479 C -0.07601 0.24930 0.39968
 H480 H -0.10141 0.23743 0.39835
 N481 N -0.01380 0.24706 0.38464
 C482 C 0.09162 0.19710 0.36877
 H483 H 0.09240 0.19556 0.34034
 C484 C 0.12062 0.18440 0.38767
 H485 H 0.14381 0.17330 0.37343
 C486 C 0.06062 0.21439 0.42143
 H487 H 0.03713 0.22619 0.43443
 C488 C 0.08898 0.20150 0.44155
 H489 H 0.08673 0.20436 0.46973
 Zn490 Zn 0.02535 0.22942 0.35689
 N491 N 0.06261 0.21223 0.38571
 C492 C 0.07319 0.28026 0.33311
 N493 N 0.04051 0.26845 0.32790
 C494 C 0.01657 0.28844 0.30892
 C495 C 0.02466 0.32251 0.29578
 C496 C 0.08225 0.31385 0.32069
 C497 C 0.00681 0.16123 0.35289
 C498 C -0.00800 0.13175 0.34010
 C499 C -0.01256 0.16265 0.28334
 C500 C 0.00252 0.19191 0.29741
 N501 N 0.01109 0.19079 0.33188
 H502 H 0.09142 0.26501 0.34944
 H503 H -0.00980 0.27910 0.30635
 H504 H 0.00427 0.33873 0.28301
 H505 H 0.10748 0.32336 0.32770
 H506 H 0.01331 0.16127 0.38034
 H507 H -0.01301 0.10943 0.35819
 H508 H -0.02107 0.16490 0.25653
 H509 H 0.00580 0.21594 0.28133
 C510 C 0.11959 0.18597 0.42469
 C511 C -0.07310 0.28168 0.41599
 C512 C -0.01841 0.13206 0.30501
 C513 C 0.05779 0.33596 0.30222
 C514 C 1.04856 0.80058 0.05790
 H515 H 1.02237 0.81322 0.05570
 C516 C 1.07766 0.81494 0.03918
 H517 H 1.07277 0.83844 0.02273
 C518 C 1.08588 0.75593 0.08440
 H519 H 1.08925 0.73373 0.10299
 C520 C 1.11561 0.76923 0.06608
 H521 H 1.14153 0.75669 0.07050
 N522 N 1.05319 0.77189 0.08029
 C523 C 0.94983 0.73011 0.10786
 H524 H 0.95248 0.73019 0.13612
 C525 C 0.92004 0.71636 0.09449
 H526 H 0.90026 0.70525 0.11279
 C527 C 0.97388 0.74269 0.05015
 H528 H 0.99539 0.75240 0.03315
 C529 C 0.94413 0.72921 0.03547
 H530 H 0.94366 0.72818 0.00710
 Zn531 Zn 1.01431 0.75835 0.11032
 N532 N 0.97600 0.74285 0.08581
 C533 C 0.96578 0.81397 0.12784
 N534 N 0.99791 0.79861 0.13568
 C535 C 1.01815 0.81263 0.15979
 C536 C 1.00462 0.84104 0.17960
 C537 C 0.95155 0.84264 0.14648
 C538 C 1.03694 0.68823 0.12538
 C539 C 1.04561 0.65777 0.14591
 C540 C 1.03512 0.69173 0.19808
 C541 C 1.02642 0.72148 0.17654
 N542 N 1.02785 0.71936 0.14085
 H543 H 0.95102 0.80411 0.10695
 H544 H 1.04450 0.80122 0.16421
 H545 H 1.02094 0.85132 0.19912
 H546 H 0.92617 0.85440 0.13900
 H547 H 1.03749 0.68712 0.09692
 H548 H 1.05360 0.63352 0.13293
 H549 H 1.03519 0.69505 0.22617
 H550 H 1.01846 0.74616 0.18852
 C551 C 0.91646 0.71599 0.05784
 C552 C 1.11206 0.79956 0.04348
 C553 C 1.04436 0.65895 0.18293
 C554 C 0.96992 0.85530 0.17447
 C555 C 0.54890 0.29511 0.55889
 H556 H 0.52278 0.30778 0.55629
 C557 C 0.57825 0.30931 0.54048
 H558 H 0.57374 0.33285 0.52396
 C559 C 0.58578 0.25060 0.58624
 H560 H 0.58885 0.22853 0.60504
 C561 C 0.61576 0.26380 0.56832
 H562 H 0.64159 0.25136 0.57335
 N563 N 0.55320 0.26653 0.58149
 C564 C 0.44996 0.22448 0.60755
 H565 H 0.45227 0.22443 0.63585
 C566 C 0.42056 0.21048 0.59372
 H567 H 0.40071 0.19905 0.61173
 C568 C 0.47459 0.23755 0.55015
 H569 H 0.49623 0.24748 0.53346
 C570 C 0.44520 0.22391 0.53501
 H571 H 0.44506 0.22302 0.50662
 Zn572 Zn 0.51406 0.25296 0.61097
 N573 N 0.47623 0.23756 0.58586
 C574 C 0.46537 0.30860 0.62799
 N575 N 0.49733 0.29313 0.63627
 C576 C 0.51727 0.30704 0.66070
 C577 C 0.50355 0.33550 0.68035
 C578 C 0.45102 0.33736 0.64642
 C579 C 0.53577 0.18261 0.62571
 C580 C 0.54376 0.15185 0.64605
 C581 C 0.53400 0.18561 0.69844
 C582 C 0.52584 0.21564 0.67708
 N583 N 0.52718 0.21374 0.64138
 H584 H 0.45085 0.29876 0.60692
 H585 H 0.54351 0.29556 0.66547
 H586 H 0.51963 0.34572 0.70010
 H587 H 0.42574 0.34923 0.63876
 H588 H 0.53633 0.18172 0.59724
 H589 H 0.55126 0.12759 0.63288
 H590 H 0.53423 0.18876 0.72657
 H591 H 0.51838 0.24036 0.68921
 C592 C 0.41742 0.21034 0.55700
 C593 C 0.61252 0.29384 0.54532
 C594 C 0.54241 0.15269 0.68313
 C595 C 0.46908 0.34993 0.67459
 C596 C 0.48702 0.77471 0.90358
 H597 H 0.51319 0.78510 0.90416
 C598 C 0.45787 0.79288 0.91952
 H599 H 0.46253 0.81640 0.93350
 C600 C 0.45004 0.73098 0.88491
 H601 H 0.44691 0.70722 0.87080
 C602 C 0.42017 0.74830 0.90048
 H603 H 0.39457 0.73686 0.89898
 N604 N 0.48253 0.74482 0.88604
 C605 C 0.58803 0.69418 0.87083
 H606 H 0.58853 0.69175 0.84251
 C607 C 0.61744 0.68251 0.88969
 H608 H 0.64060 0.67131 0.87548
 C609 C 0.55754 0.71298 0.92320
 H610 H 0.53415 0.72509 0.93609
 C611 C 0.58628 0.70108 0.94328
 H612 H 0.58443 0.70498 0.97131
 Zn613 Zn 0.52165 0.72632 0.85863
 N614 N 0.55910 0.70967 0.88760
 C615 C 0.56991 0.77596 0.83248
 N616 N 0.53684 0.76454 0.82852
 C617 C 0.51271 0.78435 0.80961
 C618 C 0.52100 0.81798 0.79542
 C619 C 0.57923 0.80908 0.81889
 C620 C 0.50174 0.65828 0.85571
 C621 C 0.48696 0.62878 0.84288
 C622 C 0.48495 0.65867 0.78541
 C623 C 0.49992 0.68795 0.79952
 N624 N 0.50719 0.68736 0.83432
 H625 H 0.58834 0.76090 0.84873
 H626 H 0.48610 0.77531 0.80797
 H627 H 0.50048 0.83428 0.78291
 H628 H 0.60476 0.81840 0.82515
 H629 H 0.50739 0.65873 0.88336
 H630 H 0.48106 0.60682 0.86113
 H631 H 0.47756 0.66054 0.75823
 H632 H 0.50424 0.71157 0.78311
 C633 C 0.61686 0.68532 0.92657
 C634 C 0.42338 0.78089 0.91640
 C635 C 0.47786 0.62859 0.80739
 C636 C 0.55457 0.83111 0.80057
 C637 C 0.45294 -0.16241 0.33285
 C638 C 0.41852 -0.16859 0.31434
 C639 C 0.40499 -0.13939 0.29651
 C640 C 0.42731 -0.10640 0.29815
 C641 C 0.42977 -0.10161 0.33811
 C642 C 0.44337 -0.13061 0.35601
 C643 C 0.47833 -0.14793 0.30338
 C644 C 0.46495 -0.11875 0.28534
 H645 H 0.40534 -0.19353 0.31603
 H646 H 0.37994 -0.13958 0.28365
 H647 H 0.41952 -0.07850 0.35193
 H648 H 0.44551 -0.13144 0.38447
 H649 H 0.50458 -0.15970 0.29721
 H650 H 0.47982 -0.10561 0.26380
 C651 C 0.95537 0.33510 0.83116
 C652 C 0.98059 0.35064 0.80212
 C653 C 0.96704 0.38038 0.78512
 C654 C 0.92941 0.39218 0.79844
 C655 C 0.90721 0.35925 0.79571
 C656 C 0.92091 0.32950 0.81250
 C657 C 0.94575 0.36602 0.85546
 C658 C 0.93199 0.39557 0.83859
 H659 H 1.00686 0.33917 0.79549
 H660 H 0.98179 0.39428 0.76400
 H661 H 0.88208 0.35945 0.78292
 H662 H 0.90783 0.30452 0.81335
 H663 H 0.94801 0.36420 0.88390
 H664 H 0.92177 0.41816 0.85322
 C665 C 0.00494 1.20514 0.83112
 C666 C -0.01237 1.17315 0.85005
 C667 C -0.00036 1.14119 0.83784
 C668 C 0.02831 1.14384 0.80753
 C669 C 0.01058 1.16867 0.77962
 C670 C -0.00154 1.20062 0.79177
 C671 C 0.04497 1.19762 0.83438
 C672 C 0.05710 1.16580 0.82222
 H673 H -0.03345 1.17546 0.87038
 H674 H -0.01218 1.11703 0.84780
 H675 H 0.00676 1.16123 0.75280
 H676 H -0.01575 1.21972 0.77495
 H677 H 0.06240 1.21589 0.84537
 H678 H 0.08485 1.15692 0.82308
 C679 C 0.50209 0.70777 0.33665
 C680 C 0.48728 0.67561 0.35761
 C681 C 0.49987 0.64370 0.34568
 C682 C 0.52644 0.64662 0.31351
 C683 C 0.50600 0.66984 0.28625
 C684 C 0.49330 0.70166 0.29817
 C685 C 0.54253 0.70206 0.33754
 C686 C 0.55519 0.67031 0.32562
 H687 H 0.46769 0.67771 0.37938
 H688 H 0.49022 0.61928 0.35758
 H689 H 0.50065 0.66127 0.26016
 H690 H 0.47684 0.71943 0.28203
 H691 H 0.55983 0.72139 0.34695
 H692 H 0.58329 0.66256 0.32510
 C693 C 0.52304 0.33296 0.16074
 C694 C 0.53831 0.36418 0.13861
 C695 C 0.54800 0.39110 0.15788
 C696 C 0.54172 0.38507 0.19787
 C697 C 0.50201 0.37711 0.20290
 C698 C 0.49232 0.34986 0.18346
 C699 C 0.55153 0.32211 0.18727
 C700 C 0.56106 0.34914 0.20680
 H701 H 0.54097 0.36513 0.10997
 H702 H 0.55887 0.41496 0.14564
 H703 H 0.48343 0.39005 0.22142
 H704 H 0.46560 0.34031 0.18512
 H705 H 0.56246 0.29521 0.19112
 H706 H 0.57982 0.34500 0.22756
 C707 C 0.02331 0.82869 0.65831
 C708 C 0.03745 0.85872 0.63721
 C709 C 0.04817 0.88664 0.65763
 C710 C 0.04297 0.88011 0.69561
 C711 C 0.00532 0.87275 0.70141
 C712 C -0.00552 0.84444 0.68086
 C713 C 0.05113 0.81787 0.68282
 C714 C 0.06167 0.84599 0.70345
 H715 H 0.03936 0.86033 0.60853
 H716 H 0.05862 0.91076 0.64551
 H717 H -0.01211 0.88410 0.72192
 H718 H -0.03190 0.83414 0.68410
 H719 H 0.06153 0.79078 0.68684
 H720 H 0.07979 0.84128 0.72472
 C721 C 0.97164 0.70923 0.64691
 C722 C 0.94942 0.71338 0.68180
 C723 C 0.93439 0.68313 0.69445
 C724 C 0.94230 0.65105 0.67132
 C725 C 0.93071 0.66385 0.63445
 C726 C 0.94539 0.69423 0.62200
 C727 C 0.99831 0.67814 0.65452
 C728 C 0.98321 0.64783 0.66714
 H729 H 0.94439 0.73821 0.69484
 H730 H 0.91750 0.68232 0.71842
 H731 H 0.91191 0.65047 0.61952
 H732 H 0.93767 0.70653 0.59712
 H733 H 1.02671 0.67933 0.64937
 H734 H 0.99931 0.62374 0.67176
 C735 C 0.47215 0.20952 0.14913
 C736 C 0.44670 0.19554 0.12294
 C737 C 0.43177 0.16483 0.13390
 C738 C 0.44249 0.15073 0.17067
 C739 C 0.48350 0.14761 0.16737
 C740 C 0.49879 0.17833 0.15618
 C741 C 0.44928 0.21254 0.18365
 C742 C 0.43401 0.18194 0.19484
 H743 H 0.44000 0.20869 0.09811
 H744 H 0.41356 0.15194 0.11786
 H745 H 0.49952 0.12339 0.17154
 H746 H 0.52729 0.17999 0.15167
 H747 H 0.44428 0.23685 0.19760
 H748 H 0.41675 0.18025 0.21851
 C749 C 0.33333 0.45391 -0.16373
 C750 C 0.35722 0.44399 -0.13272
 C751 C 0.33963 0.43056 -0.10351
 C752 C 0.29926 0.42859 -0.10734
 C753 C 0.28652 0.46630 -0.11905
 C754 C 0.30423 0.47952 -0.14842
 C755 C 0.31419 0.41983 -0.16968
 C756 C 0.29669 0.40645 -0.14029
 H757 H 0.38588 0.44581 -0.13424
 H758 H 0.35389 0.42014 -0.08090
 H759 H 0.26528 0.48134 -0.10534
 H760 H 0.29808 0.50581 -0.15979
 H761 H 0.31524 0.40674 -0.19464
 H762 H 0.28349 0.38160 -0.14034
 C763 C 0.83697 0.95717 0.33592
 C764 C 0.81857 0.92252 0.33051
 C765 C 0.80092 0.90946 0.35995
 C766 C 0.80247 0.93246 0.39242
 C767 C 0.84265 0.93539 0.39679
 C768 C 0.86044 0.94850 0.36754
 C769 C 0.80714 0.98259 0.35026
 C770 C 0.78921 0.96968 0.37966
 H771 H 0.82014 0.90890 0.30584
 H772 H 0.78810 0.88438 0.36025
 H773 H 0.85675 0.92582 0.41980
 H774 H 0.88903 0.95089 0.36643
 H775 H 0.80068 1.00852 0.33824
 H776 H 0.76750 0.98465 0.39273
 C777 C 0.83888 0.00500 1.20627
 C778 C 0.83926 0.04537 1.20062
 C779 C 0.82680 0.05775 1.16920
 C780 C 0.81469 0.02881 1.14576
 C781 C 0.84730 0.00262 1.14233
 C782 C 0.85976 -0.00965 1.17388
 C783 C 0.80020 -0.00418 1.20077
 C784 C 0.78773 0.00825 1.16928
 H785 H 0.84877 0.06282 1.21974
 H786 H 0.82590 0.08576 1.16152
 H787 H 0.85927 -0.00692 1.11787
 H788 H 0.88201 -0.02878 1.17546
 H789 H 0.78432 -0.02063 1.21876
 H790 H 0.76143 0.00266 1.16118
 C791 C 0.33465 0.50326 0.70726
 C792 C 0.35417 0.48686 0.67499
 C793 C 0.34189 0.49924 0.64339
 C794 C 0.31078 0.52723 0.64669
 C795 C 0.28297 0.50873 0.67100
 C796 C 0.29526 0.49623 0.70254
 C797 C 0.33727 0.54335 0.70072
 C798 C 0.32500 0.55580 0.66926
 H799 H 0.37536 0.46652 0.67679
 H800 H 0.35298 0.48871 0.61900
 H801 H 0.25613 0.50461 0.66345
 H802 H 0.27857 0.48127 0.72112
 H803 H 0.34808 0.56056 0.71929
 H804 H 0.32558 0.58363 0.66099
 C805 C 0.16776 0.52700 0.33137
 C806 C 0.19455 0.55496 0.31945
 C807 C 0.21515 0.56460 0.34557
 C808 C 0.20685 0.54591 0.38179
 C809 C 0.16682 0.55283 0.38895
 C810 C 0.14652 0.54298 0.36293
 C811 C 0.19074 0.49631 0.34777
 C812 C 0.21120 0.50617 0.37409
 H813 H 0.19818 0.56501 0.29236
 H814 H 0.23678 0.58219 0.34016
 H815 H 0.15531 0.56438 0.41284
 H816 H 0.11775 0.54611 0.36471
 H817 H 0.19168 0.46945 0.33865
 H818 H 0.22981 0.48767 0.38698
 C819 C 0.66025 0.02349 0.83346
 C820 C 0.68368 -0.00697 0.84970
 C821 C 0.70308 0.00275 0.87692
 C822 C 0.69734 0.04222 0.88550
 C823 C 0.70593 0.06198 0.84994
 C824 C 0.68645 0.05243 0.82297
 C825 C 0.63780 0.03804 0.86500
 C826 C 0.65705 0.04779 0.89185
 H827 H 0.68580 -0.03351 0.83976
 H828 H 0.72201 -0.01562 0.88945
 H829 H 0.72653 0.08101 0.84597
 H830 H 0.69017 0.06360 0.79629
 H831 H 0.60897 0.04016 0.86622
 H832 H 0.64460 0.05817 0.91590
 C833 C 0.64975 0.97341 0.70965
 C834 C 0.62422 0.94717 0.69580
 C835 C 0.63548 0.93279 0.66487
 C836 C 0.67193 0.94478 0.65043
 C837 C 0.66715 0.98561 0.64784
 C838 C 0.65565 1.00036 0.67876
 C839 C 0.68523 0.95171 0.71191
 C840 C 0.69674 0.93697 0.68109
 H841 H 0.59963 0.93961 0.70920
 H842 H 0.61983 0.91420 0.65200
 H843 H 0.67040 1.00179 0.62377
 H844 H 0.65008 1.02864 0.68069
 H845 H 0.69957 0.94700 0.73589
 H846 H 0.72105 0.92048 0.67890
 C847 C 0.15262 0.47512 0.20934
 C848 C 0.18735 0.45216 0.21141
 C849 C 0.19784 0.43673 0.18067
 C850 C 0.17282 0.44517 0.15030
 C851 C 0.13607 0.43469 0.16533
 C852 C 0.12581 0.44978 0.19618
 C853 C 0.15910 0.50152 0.17811
 C854 C 0.16958 0.48607 0.14725
 H855 H 0.20191 0.44719 0.23522
 H856 H 0.22154 0.41937 0.17836
 H857 H 0.11951 0.41659 0.15292
 H858 H 0.10110 0.44326 0.20997
 H859 H 0.15462 0.52998 0.17983
 H860 H 0.17310 0.50188 0.12298
 C861 C -0.16335 0.33516 0.45616
 C862 C -0.13233 0.35935 0.44686
 C863 C -0.10270 0.34220 0.43317
 C864 C -0.10618 0.30194 0.43033
 C865 C -0.11808 0.28860 0.46763
 C866 C -0.14784 0.30587 0.48112
 C867 C -0.16893 0.31654 0.42177
 C868 C -0.13914 0.29951 0.40812
 H869 H -0.13413 0.38789 0.44929
 H870 H -0.08001 0.35672 0.42318
 H871 H -0.10418 0.26729 0.48221
 H872 H -0.15936 0.29929 0.50719
 H873 H -0.19395 0.31761 0.40867
 H874 H -0.13892 0.28674 0.38305
 C875 C 0.33344 0.83635 0.95500
 C876 C 0.36382 0.85871 0.94707
 C877 C 0.39476 0.83996 0.93322
 C878 C 0.39027 0.80196 0.93020
 C879 C 0.37808 0.78909 0.96531
 C880 C 0.34691 0.80786 0.97898
 C881 C 0.32833 0.81900 0.92187
 C882 C 0.35957 0.80045 0.90814
 H883 H 0.36255 0.88738 0.94853
 H884 H 0.41709 0.85418 0.92183
 H885 H 0.39118 0.76730 0.97998
 H886 H 0.33470 0.80121 1.00476
 H887 H 0.30384 0.82112 0.90783
 H888 H 0.36045 0.78876 0.88246
 C889 C 1.20595 0.84016 0.00187
 C890 C 1.20040 0.80155 -0.00758
 C891 C 1.16906 0.78883 0.00555
 C892 C 1.14566 0.81550 0.02690
 C893 C 1.16979 0.82755 0.05520
 C894 C 1.20108 0.84019 0.04225
 C895 C 1.17281 0.86076 -0.01177
 C896 C 1.14143 0.84809 0.00121
 H897 H 1.21790 0.78600 -0.02499
 H898 H 1.16083 0.76268 -0.00028
 H899 H 1.16272 0.82631 0.08328
 H900 H 1.22066 0.84943 0.05935
 H901 H 1.17372 0.88267 -0.03111
 H902 H 1.11655 0.85958 -0.00794
 C903 C 0.70680 0.33448 0.50535
 C904 C 0.70257 0.29521 0.49765
 C905 C 0.67104 0.28244 0.51005
 C906 C 0.64629 0.30970 0.52920
 C907 C 0.66885 0.32375 0.55779
 C908 C 0.70027 0.33653 0.54540
 C909 C 0.67407 0.35376 0.48953
 C910 C 0.64249 0.34095 0.50181
 H911 H 0.72141 0.27901 0.48222
 H912 H 0.66375 0.25568 0.50538
 H913 H 0.66063 0.32378 0.58559
 H914 H 0.71888 0.34722 0.56265
 H915 H 0.67559 0.37479 0.46923
 H916 H 0.61783 0.35121 0.49105
 C917 C 0.33433 0.15500 0.52360
 C918 C 0.36572 0.13221 0.53801
 C919 C 0.39278 0.15113 0.54812
 C920 C 0.38667 0.19141 0.54304
 C921 C 0.37842 0.19748 0.50372
 C922 C 0.35106 0.17841 0.49363
 C923 C 0.32365 0.18093 0.55277
 C924 C 0.35078 0.20010 0.56268
 H925 H 0.36669 0.10345 0.53979
 H926 H 0.41678 0.13846 0.55846
 H927 H 0.39124 0.21641 0.48570
 H928 H 0.34132 0.18078 0.46714
 H929 H 0.29676 0.18468 0.56390
 H930 H 0.34675 0.22046 0.58197
 C931 C 0.83277 0.66046 0.02587
 C932 C 0.86414 0.63783 0.04054
 C933 C 0.89135 0.65681 0.05015
 C934 C 0.88543 0.69703 0.04440
 C935 C 0.87702 0.70244 0.00505
 C936 C 0.84950 0.68330 -0.00455
 C937 C 0.82233 0.68696 0.05459
 C938 C 0.84964 0.70619 0.06405
 H939 H 0.86499 0.60908 0.04290
 H940 H 0.91533 0.64421 0.06061
 H941 H 0.88984 0.72102 -0.01335
 H942 H 0.83964 0.68527 -0.03101
 H943 H 0.79549 0.69099 0.06575
 H944 H 0.84583 0.72685 0.08304
 C945 C 0.70868 0.65016 0.97546
 C946 C 0.71175 0.68477 0.95287
 C947 C 0.68105 0.69632 0.93782
 C948 C 0.64968 0.67241 0.94625
 C949 C 0.66359 0.63536 0.93541
 C950 C 0.69441 0.62404 0.95009
 C951 C 0.67755 0.65756 1.00206
 C952 C 0.64673 0.66912 0.98700
 H953 H 0.73617 0.69852 0.94792
 H954 H 0.67939 0.72010 0.92078
 H955 H 0.65050 0.61939 0.91729
 H956 H 0.70748 0.59904 0.94321
 H957 H 0.67931 0.65300 1.03037
 H958 H 0.62251 0.67355 1.00298
 C959 C 0.21034 0.14732 0.47325
 C960 C 0.21451 0.18196 0.45089
 C961 C 0.18413 0.19469 0.43603
 C962 C 0.15196 0.17181 0.44433
 C963 C 0.16459 0.13450 0.43316
 C964 C 0.19509 0.12199 0.44772
 C965 C 0.17954 0.15553 0.49999
 C966 C 0.14903 0.16827 0.48508
 H967 H 0.23941 0.19487 0.44594
 H968 H 0.18322 0.21863 0.41918
 H969 H 0.15094 0.11928 0.41481
 H970 H 0.20736 0.09670 0.44055
 H971 H 0.18129 0.15074 0.52827
 H972 H 0.12506 0.17353 0.50119
 C973 C 0.57708 0.06359 0.74123
 C974 C 0.55269 0.05543 0.71403
 C975 C 0.54000 0.08639 0.69409
 C976 C 0.55391 0.11954 0.70517
 C977 C 0.54401 0.12016 0.74295
 C978 C 0.55680 0.08951 0.76267
 C979 C 0.60512 0.08326 0.72247
 C980 C 0.59243 0.11392 0.70295
 H981 H 0.54085 0.03014 0.71179
 H982 H 0.51905 0.08531 0.67557
 H983 H 0.52376 0.13797 0.75455
 H984 H 0.54794 0.08428 0.78999
 H985 H 0.63325 0.07571 0.72307
 H986 H 0.61021 0.13118 0.68781
 C987 C 1.08138 0.57049 0.24075
 C988 C 1.10999 0.59160 0.22021
 C989 C 1.09716 0.62060 0.20183
 C990 C 1.05662 0.62631 0.20497
 C991 C 1.04232 0.59096 0.19408
 C992 C 1.05525 0.56177 0.21275
 C993 C 1.06038 0.59771 0.26348
 C994 C 1.04738 0.62668 0.24500
 H995 H 1.13816 0.58418 0.22005
 H996 H 1.11441 0.63792 0.18611
 H997 H 1.02261 0.58918 0.17439
 H998 H 1.04620 0.53556 0.20874
 H999 H 1.05416 0.59338 0.29152
 H1000 H 1.02943 0.64593 0.25774
 C1001 C 0.92449 0.93375 0.23726
 C1002 C 0.89859 0.91295 0.22085
 C1003 C 0.91409 0.88553 0.19979
 C1004 C 0.95299 0.88405 0.19806
 C1005 C 0.96310 0.91968 0.18642
 C1006 C 0.94768 0.94711 0.20814
 C1007 C 0.94719 0.90773 0.25651
 C1008 C 0.96248 0.88017 0.23507
 H1009 H 0.87006 0.91560 0.22633
 H1010 H 0.89784 0.86523 0.19059
 H1011 H 0.98272 0.92496 0.16523
 H1012 H 0.95633 0.97405 0.20511
 H1013 H 0.95237 0.90879 0.28436
 H1014 H 0.97845 0.85815 0.24612
 C1015 C 0.42192 0.42813 0.73669
 C1016 C 0.44500 0.44232 0.70519
 C1017 C 0.46040 0.41636 0.68484
 C1018 C 0.45177 0.37849 0.69782
 C1019 C 0.46237 0.37595 0.73663
 C1020 C 0.44710 0.40201 0.75672
 C1021 C 0.39548 0.40466 0.72042
 C1022 C 0.41086 0.37862 0.70068
 H1023 H 0.45010 0.47003 0.69981
 H1024 H 0.47801 0.42218 0.66210
 H1025 H 0.47962 0.35503 0.74781
 H1026 H 0.45212 0.40358 0.78453
 H1027 H 0.36690 0.40738 0.72532
 H1028 H 0.39504 0.35878 0.69001
 C1029 C 0.41537 0.54660 0.78437
 C1030 C 0.39715 0.57564 0.80696
 C1031 C 0.41823 0.60234 0.81340
 C1032 C 0.45588 0.59853 0.79643
 C1033 C 0.47049 0.56171 0.80925
 C1034 C 0.44930 0.53483 0.80320
 C1035 C 0.42862 0.56693 0.75057
 C1036 C 0.44997 0.59410 0.75684
 H1037 H 0.36940 0.57598 0.81598
 H1038 H 0.40847 0.62509 0.82814
 H1039 H 0.49603 0.55701 0.82106
 H1040 H 0.45665 0.50736 0.81007
 H1041 H 0.42186 0.56095 0.72410
 H1042 H 0.46182 0.61007 0.73544
 C1043 C -0.08151 0.05013 0.28321
 C1044 C -0.04702 0.03826 0.30098
 C1045 C -0.02564 0.06512 0.30659
 C1046 C -0.04066 0.10203 0.29447
 C1047 C -0.04770 0.09792 0.25507
 C1048 C -0.06923 0.07077 0.24922
 C1049 C -0.09913 0.07895 0.30647
 C1050 C -0.07786 0.10562 0.31249
 H1051 H -0.03944 0.01075 0.30742
 H1052 H 0.00029 0.06034 0.31757
 H1053 H -0.03648 0.11413 0.23350
 H1054 H -0.07680 0.06498 0.22295
 H1055 H -0.12669 0.07929 0.31612
 H1056 H -0.08725 0.12827 0.32757
 C1057 C 0.08274 0.44126 0.29101
 C1058 C 0.05272 0.43276 0.26700
 C1059 C 0.04391 0.39795 0.26943
 C1060 C 0.06577 0.37489 0.29601
 C1061 C 0.10450 0.38036 0.28337
 C1062 C 0.11337 0.41467 0.28127
 C1063 C 0.06907 0.42892 0.32810
 C1064 C 0.06058 0.39442 0.33071
 H1065 H 0.03952 0.45218 0.24961
 H1066 H 0.02393 0.38804 0.25331
 H1067 H 0.12325 0.35908 0.27568
 H1068 H 0.13984 0.42224 0.27259
 H1069 H 0.06506 0.44618 0.35020
 H1070 H 0.04972 0.38237 0.35511
 C1071 C 0.57844 0.93665 0.78950
 C1072 C 0.60964 0.91045 0.78050
 C1073 C 0.60123 0.87600 0.78248
 C1074 C 0.56234 0.87005 0.79425
 C1075 C 0.55600 0.88964 0.82878
 C1076 C 0.56400 0.92423 0.82629
 C1077 C 0.54924 0.92768 0.76472
 C1078 C 0.54087 0.89272 0.76705
 H1079 H 0.63606 0.91842 0.77207
 H1080 H 0.62035 0.85499 0.77493
 H1081 H 0.54469 0.87755 0.85296
 H1082 H 0.55909 0.94154 0.84826
 H1083 H 0.53630 0.94687 0.74690
 H1084 H 0.52149 0.88238 0.75049
 C1085 C 0.73911 0.57712 0.06926
 C1086 C 0.76172 0.55508 0.09564
 C1087 C 0.74310 0.54240 0.12460
 C1088 C 0.70308 0.55298 0.12510
 C1089 C 0.70115 0.59349 0.12011
 C1090 C 0.71966 0.60601 0.09110
 C1091 C 0.70990 0.55219 0.06065
 C1092 C 0.69110 0.53957 0.08986
 H1093 H 0.78970 0.54799 0.09073
 H1094 H 0.75558 0.52385 0.14329
 H1095 H 0.68610 0.61097 0.13787
 H1096 H 0.72025 0.63414 0.08411
 H1097 H 0.70517 0.54367 0.03446
 H1098 H 0.67062 0.52063 0.08811
 C1099 C 0.24023 1.07182 0.56555
 C1100 C 0.21055 1.04756 0.55668
 C1101 C 0.19168 1.03481 0.58580
 C1102 C 0.20408 1.04747 0.62120
 C1103 C 0.24394 1.03622 0.62038
 C1104 C 0.26264 1.04901 0.59152
 C1105 C 0.22134 1.10065 0.58788
 C1106 C 0.20278 1.08801 0.61680
 H1107 H 0.20558 1.03954 0.53038
 H1108 H 0.17091 1.01622 0.58386
 H1109 H 0.25619 1.01723 0.63883
 H1110 H 0.29050 1.04155 0.58641
 H1111 H 0.22233 1.12883 0.58128
 H1112 H 0.18807 1.10543 0.63486
 C1113 C 0.23601 0.92346 0.93180
 C1114 C 0.21958 0.89655 0.90891
 C1115 C 0.20002 0.91134 0.88266
 C1116 C 0.19745 0.95217 0.88156
 C1117 C 0.18421 0.96204 0.91899
 C1118 C 0.20442 0.94739 0.94524
 C1119 C 0.25650 0.94780 0.90523
 C1120 C 0.23658 0.96240 0.87887
 H1121 H 0.22421 0.86803 0.91214
 H1122 H 0.18918 0.89510 0.86328
 H1123 H 0.16168 0.98030 0.92427
 H1124 H 0.19915 0.95406 0.97254
 H1125 H 0.28444 0.95290 0.90678
 H1126 H 0.24813 0.97897 0.85773
 C1127 C 0.73567 0.42294 0.43190
 C1128 C 0.72010 0.39686 0.40757
 C1129 C 0.70035 0.41250 0.38186
 C1130 C 0.69673 0.45324 0.38290
 C1131 C 0.68304 0.46078 0.42080
 C1132 C 0.70343 0.44517 0.44644
 C1133 C 0.75568 0.44892 0.40677
 C1134 C 0.73556 0.46446 0.38104
 H1135 H 0.72533 0.36836 0.40961
 H1136 H 0.68983 0.39707 0.36165
 H1137 H 0.65982 0.47789 0.42691
 H1138 H 0.69759 0.44960 0.47416
 H1139 H 0.78354 0.45419 0.40866
 H1140 H 0.74688 0.48210 0.36069
 C1141 C 0.78269 0.41601 0.54946
 C1142 C 0.79976 0.45076 0.53747
 C1143 C 0.80508 0.47239 0.56417
 C1144 C 0.79339 0.45734 0.60103
 C1145 C 0.75393 0.44949 0.59735
 C1146 C 0.74838 0.42771 0.57038
 C1147 C 0.80659 0.39906 0.57789
 C1148 C 0.81232 0.42059 0.60440
 H1149 H 0.80594 0.45829 0.51001
 H1150 H 0.81552 0.49849 0.55931
 H1151 H 0.73209 0.46042 0.61367
 H1152 H 0.72210 0.41963 0.56488
 H1153 H 0.81692 0.37175 0.57808
 H1154 H 0.82781 0.41166 0.62677
 C1155 C 0.27928 -0.08406 0.04489
 C1156 C 0.29815 -0.05024 0.03294
 C1157 C 0.30418 -0.02880 0.05959
 C1158 C 0.29134 -0.04300 0.09639
 C1159 C 0.25153 -0.04902 0.09224
 C1160 C 0.24523 -0.07069 0.06539
 C1161 C 0.30200 -0.10189 0.07392
 C1162 C 0.30846 -0.08050 0.10031
 H1163 H 0.30505 -0.04310 0.00553
 H1164 H 0.31598 -0.00333 0.05472
 H1165 H 0.23001 -0.03729 0.10841
 H1166 H 0.21858 -0.07788 0.06014
 H1167 H 0.31088 -0.12966 0.07465
 H1168 H 0.32315 -0.09003 0.12304
 C1169 C 0.28880 0.07556 0.43565
 C1170 C 0.32543 0.06091 0.42215
 C1171 C 0.32725 0.05383 0.38737
 C1172 C 0.29223 0.06126 0.36871
 C1173 C 0.26487 0.03977 0.39115
 C1174 C 0.26324 0.04718 0.42627
 C1175 C 0.27987 0.10748 0.41065
 C1176 C 0.28112 0.10001 0.37605
 H1177 H 0.34777 0.05523 0.43882
 H1178 H 0.35123 0.04252 0.37449
 H1179 H 0.24771 0.02105 0.38057
 H1180 H 0.24543 0.03406 0.44532
 H1181 H 0.27221 0.13377 0.41950
 H1182 H 0.27354 0.11977 0.35586
 C1183 C 0.78853 0.57855 0.93976
 C1184 C 0.76344 0.54960 0.93070
 C1185 C 0.76560 0.54144 0.89576
 C1186 C 0.79295 0.56283 0.87318
 C1187 C 0.78129 0.60164 0.87963
 C1188 C 0.77953 0.60985 0.91403
 C1189 C 0.82545 0.56402 0.92693
 C1190 C 0.82777 0.55622 0.89234
 H1191 H 0.74556 0.53668 0.94983
 H1192 H 0.74883 0.52224 0.88540
 H1193 H 0.77374 0.62090 0.85896
 H1194 H 0.77142 0.63626 0.92225
 H1195 H 0.84761 0.55891 0.94395
 H1196 H 0.85200 0.54487 0.87996
 C1197 C 0.06119 0.73530 0.57692
 C1198 C 0.08080 0.71444 0.60639
 C1199 C 0.10918 0.69402 0.59484
 C1200 C 0.11633 0.69612 0.55464
 C1201 C 0.08074 0.68643 0.53966
 C1202 C 0.05204 0.70700 0.55115
 C1203 C 0.09014 0.75616 0.55636
 C1204 C 0.11876 0.73584 0.54498
 H1205 H 0.07344 0.71618 0.63428
 H1206 H 0.12535 0.67792 0.61287
 H1207 H 0.07773 0.66615 0.52093
 H1208 H 0.02599 0.70400 0.54116
 H1209 H 0.08790 0.78451 0.55039
 H1210 H 0.14078 0.74695 0.52950
 C1211 C 0.56722 0.23967 1.07711
 C1212 C 0.58904 0.22038 1.10588
 C1213 C 0.61835 0.20192 1.09340
 C1214 C 0.62361 0.20372 1.05305
 C1215 C 0.58829 0.19167 1.03960
 C1216 C 0.55879 0.21043 1.05218
 C1217 C 0.59381 0.26221 1.05526
 C1218 C 0.62306 0.24363 1.04262
 H1219 H 0.58183 0.22103 1.13390
 H1220 H 0.63614 0.18698 1.11080
 H1221 H 0.58672 0.17111 1.02072
 H1222 H 0.53252 0.20560 1.04369
 H1223 H 0.58882 0.29010 1.04826
 H1224 H 0.64189 0.25608 1.02418
 C1225 C 0.93114 0.23523 0.91950
 C1226 C 0.90603 0.21955 0.89426
 C1227 C 0.88035 0.20014 0.91058
 C1228 C 0.88220 0.19697 0.95109
 C1229 C 0.92043 0.18318 0.95775
 C1230 C 0.94603 0.20321 0.94148
 C1231 C 0.90645 0.25563 0.94582
 C1232 C 0.88075 0.23585 0.96206
 H1233 H 0.90757 0.22441 0.86583
 H1234 H 0.85968 0.18949 0.89581
 H1235 H 0.92679 0.16018 0.97481
 H1236 H 0.97398 0.19728 0.94535
 H1237 H 0.90857 0.28350 0.95075
 H1238 H 0.86065 0.24748 0.97998
 C1239 C 0.42851 0.74147 0.42561
 C1240 C 0.40424 0.72228 0.40217
 C1241 C 0.37911 0.70354 0.42029
 C1242 C 0.38015 0.70518 0.46054
 C1243 C 0.41867 0.69334 0.46908
 C1244 C 0.44396 0.71230 0.45079
 C1245 C 0.40320 0.76387 0.44969
 C1246 C 0.37806 0.74501 0.46796
 H1247 H 0.40684 0.72317 0.37352
 H1248 H 0.36022 0.68853 0.40709
 H1249 H 0.42551 0.67337 0.48933
 H1250 H 0.47193 0.70826 0.45582
 H1251 H 0.40618 0.79181 0.45368
 H1252 H 0.36030 0.75710 0.48779
 C1253 C 0.54667 0.78652 0.41460
 C1254 C 0.53508 0.80498 0.44874
 C1255 C 0.56220 0.81081 0.46971
 C1256 C 0.59906 0.79814 0.45468
 C1257 C 0.59482 0.75850 0.44816
 C1258 C 0.56744 0.75248 0.42704
 C1259 C 0.57543 0.80945 0.39663
 C1260 C 0.60238 0.81565 0.41750
 H1261 H 0.50757 0.81182 0.45635
 H1262 H 0.55767 0.82239 0.49530
 H1263 H 0.61109 0.73688 0.45941
 H1264 H 0.56160 0.72601 0.41986
 H1265 H 0.57549 0.81880 0.36918
 H1266 H 0.62500 0.83055 0.40785
 C1267 C 0.04842 0.28243 -0.08759
 C1268 C 0.06936 0.24845 -0.07526
 C1269 C 0.09584 0.25445 -0.05305
 C1270 C 0.09909 0.29400 -0.04548
 C1271 C 0.10328 0.31237 -0.08219
 C1272 C 0.07723 0.30620 -0.10412
 C1273 C 0.03539 0.29994 -0.05333
 C1274 C 0.06163 0.30573 -0.03130
 H1275 H 0.06421 0.22205 -0.08318
 H1276 H 0.11204 0.23287 -0.04164
 H1277 H 0.12584 0.32787 -0.09074
 H1278 H 0.07797 0.31616 -0.13139
 H1279 H 0.00758 0.30609 -0.04642
 H1280 H 0.05603 0.31655 -0.00549
 C1281 C 0.43708 0.28936 0.07828
 C1282 C 0.42830 0.26438 0.04919
 C1283 C 0.39325 0.26650 0.04093
 C1284 C 0.37029 0.29372 0.06236
 C1285 C 0.37644 0.28203 0.10097
 C1286 C 0.41096 0.28032 0.10930
 C1287 C 0.42423 0.32621 0.06405
 C1288 C 0.38951 0.32851 0.05613
 H1289 H 0.44771 0.24660 0.03622
 H1290 H 0.38305 0.24977 0.02162
 H1291 H 0.35552 0.27446 0.12002
 H1292 H 0.41901 0.27223 0.13562
 H1293 H 0.44132 0.34835 0.05923
 H1294 H 0.37708 0.35270 0.04498
 C1295 C 0.93834 0.78638 0.57800
 C1296 C 0.92704 0.82357 0.56321
 C1297 C 0.89242 0.82725 0.55502
 C1298 C 0.87170 0.79342 0.56139
 C1299 C 0.89370 0.76519 0.54036
 C1300 C 0.92866 0.76172 0.54886
 C1301 C 0.91151 0.77874 0.60885
 C1302 C 0.87711 0.78180 0.60015
 H1303 H 0.94507 0.84491 0.55810
 H1304 H 0.88111 0.85177 0.54341
 H1305 H 0.88303 0.74904 0.52085
 H1306 H 0.94742 0.74344 0.53570
 H1307 H 0.91889 0.77090 0.63543
 H1308 H 0.85568 0.77553 0.61914
   
