data_POSCAR
  _audit_creation_date              2014-09-24
  _audit_creation_method            'ToBaCCo'
  _symmetry_space_group_name_H-M    'P1'
  _symmetry_Int_Tables_number       1
  _symmetry_cell_setting            triclinic
  loop_
  _symmetry_equiv_pos_as_xyz
 x,y,z
_cell_length_a 54.9069
_cell_length_b 54.9540
_cell_length_c 55.2248
_cell_angle_alpha 89.937000
_cell_angle_beta 89.928300
_cell_angle_gamma 89.875500
loop_
  _atom_site_label
  _atom_site_type_symbol
  _atom_site_fract_x
  _atom_site_fract_y
  _atom_site_fract_z
N1 N 0.37932 0.31184 0.32960
 N2 N 0.37879 0.32853 0.31251
 C3 C 0.39782 0.32502 0.29747
 C4 C 0.41082 0.30519 0.30570
 C5 C 0.39862 0.29711 0.32598
 H6 H 0.40186 0.33587 0.28163
 H7 H 0.40328 0.28155 0.33708
 Cu8 Cu 0.35318 0.35311 0.31114
 Cu9 Cu 0.35479 0.31023 0.35497
 Cu10 Cu 0.31021 0.35478 0.35494
 N11 N 0.32864 0.37874 0.31253
 N12 N 0.31190 0.37927 0.32959
 C13 C 0.29721 0.39859 0.32601
 C14 C 0.30535 0.41081 0.30577
 C15 C 0.32519 0.39780 0.29754
 H16 H 0.28165 0.40328 0.33712
 H17 H 0.33611 0.40187 0.28174
 N18 N 0.31146 0.32852 0.37917
 N19 N 0.32850 0.31152 0.37920
 C20 C 0.32458 0.29636 0.39800
 C21 C 0.30426 0.30436 0.41029
 C22 C 0.29625 0.32462 0.39795
 H23 H 0.33557 0.28062 0.40242
 H24 H 0.28048 0.33560 0.40232
 H25 H 0.32716 0.32720 0.33597
 H26 H 0.34733 0.34736 0.35449
 N27 N 0.38001 0.81264 -0.17109
 N28 N 0.37952 0.82940 -0.18813
 C29 C 0.39851 0.82587 -0.20324
 C30 C 0.41139 0.80593 -0.19508
 C31 C 0.39925 0.79786 -0.17477
 H32 H 0.40248 0.83670 -0.21913
 H33 H 0.40384 0.78221 -0.16376
 Cu34 Cu 0.35396 0.85399 -0.18927
 Cu35 Cu 0.35544 0.81090 -0.14577
 Cu36 Cu 0.31068 0.85534 -0.14584
 N37 N 0.32928 0.87944 -0.18813
 N38 N 0.31243 0.87985 -0.17116
 C39 C 0.29762 0.89906 -0.17482
 C40 C 0.30579 0.91126 -0.19503
 C41 C 0.32578 0.89846 -0.20318
 H42 H 0.28192 0.90358 -0.16385
 H43 H 0.33668 0.90251 -0.21901
 N44 N 0.31198 0.82905 -0.12165
 N45 N 0.32909 0.81211 -0.12159
 C46 C 0.32521 0.79696 -0.10278
 C47 C 0.30483 0.80489 -0.09053
 C48 C 0.29678 0.82513 -0.10288
 H49 H 0.33630 0.78130 -0.09830
 H50 H 0.28101 0.83610 -0.09851
 H51 H 0.32773 0.82781 -0.16484
 H52 H 0.34760 0.84784 -0.14598
 N53 N 0.87888 0.31241 -0.17117
 N54 N 0.87868 0.32948 -0.18790
 C55 C 0.89754 0.32583 -0.20313
 C56 C 0.91008 0.30552 -0.19537
 C57 C 0.89783 0.29735 -0.17517
 H58 H 0.90176 0.33691 -0.21877
 H59 H 0.90224 0.28152 -0.16435
 Cu60 Cu 0.85373 0.35468 -0.18805
 Cu61 Cu 0.85461 0.31094 -0.14547
 Cu62 Cu 0.80998 0.35571 -0.14540
 N63 N 0.82860 0.37971 -0.18784
 N64 N 0.81154 0.37997 -0.17108
 C65 C 0.79648 0.39893 -0.17507
 C66 C 0.80469 0.41109 -0.19530
 C67 C 0.82498 0.39853 -0.20311
 H68 H 0.78065 0.40335 -0.16425
 H69 H 0.83604 0.40267 -0.21880
 N70 N 0.81154 0.32962 -0.12093
 N71 N 0.82854 0.31257 -0.12097
 C72 C 0.82470 0.29746 -0.10212
 C73 C 0.80446 0.30552 -0.08975
 C74 C 0.79644 0.32581 -0.10206
 H75 H 0.83564 0.28167 -0.09777
 H76 H 0.78069 0.33680 -0.09766
 H77 H 0.82707 0.32823 -0.16447
 H78 H 0.84672 0.34775 -0.14498
 N79 N 0.87875 0.81220 0.32902
 N80 N 0.87842 0.82919 0.31220
 C81 C 0.89722 0.82551 0.29690
 C82 C 0.90986 0.80528 0.30473
 C83 C 0.89775 0.79719 0.32505
 H84 H 0.90135 0.83652 0.28120
 H85 H 0.90230 0.78148 0.33597
 Cu86 Cu 0.85335 0.85426 0.31220
 Cu87 Cu 0.85452 0.81074 0.35480
 Cu88 Cu 0.80974 0.85550 0.35478
 N89 N 0.82832 0.87937 0.31221
 N90 N 0.81128 0.87971 0.32900
 C91 C 0.79631 0.89874 0.32505
 C92 C 0.80453 0.91084 0.30478
 C93 C 0.82474 0.89818 0.29693
 H94 H 0.78057 0.90331 0.33596
 H95 H 0.83582 0.90229 0.28126
 N96 N 0.81138 0.82943 0.37929
 N97 N 0.82844 0.81242 0.37931
 C98 C 0.82465 0.79738 0.39823
 C99 C 0.80440 0.80544 0.41059
 C100 C 0.79631 0.82564 0.39820
 H101 H 0.83562 0.78162 0.40262
 H102 H 0.78052 0.83659 0.40256
 H103 H 0.82687 0.82787 0.33594
 H104 H 0.84652 0.84752 0.35529
 N105 N 0.62088 0.68846 0.32954
 N106 N 0.62114 0.67140 0.31284
 C107 C 0.60232 0.67503 0.29759
 C108 C 0.58972 0.69531 0.30532
 C109 C 0.60191 0.70350 0.32551
 H110 H 0.59815 0.66394 0.28198
 H111 H 0.59743 0.71930 0.33631
 Cu112 Cu 0.64614 0.64623 0.31270
 Cu113 Cu 0.64512 0.68992 0.35524
 Cu114 Cu 0.68987 0.64525 0.35525
 N115 N 0.67130 0.62123 0.31290
 N116 N 0.68840 0.62100 0.32957
 C117 C 0.70346 0.60206 0.32555
 C118 C 0.69525 0.58985 0.30538
 C119 C 0.67494 0.60241 0.29767
 H120 H 0.71931 0.59762 0.33631
 H121 H 0.66385 0.59825 0.28205
 N122 N 0.68823 0.67129 0.37970
 N123 N 0.67117 0.68828 0.37972
 C124 C 0.67496 0.70334 0.39858
 C125 C 0.69522 0.69530 0.41091
 C126 C 0.70332 0.67510 0.39855
 H127 H 0.66397 0.71909 0.40296
 H128 H 0.71911 0.66416 0.40290
 H129 H 0.67266 0.67272 0.33628
 H130 H 0.65307 0.65312 0.35581
 N131 N 0.62109 0.18767 -0.17090
 N132 N 0.62148 0.17073 -0.18771
 C133 C 0.60264 0.17432 -0.20294
 C134 C 0.58990 0.19446 -0.19508
 C135 C 0.60202 0.20260 -0.17483
 H136 H 0.59853 0.16328 -0.21861
 H137 H 0.59742 0.21829 -0.16392
 Cu138 Cu 0.64662 0.14573 -0.18769
 Cu139 Cu 0.64535 0.18921 -0.14519
 Cu140 Cu 0.69023 0.14456 -0.14521
 N141 N 0.67166 0.12065 -0.18766
 N142 N 0.68868 0.12033 -0.17089
 C143 C 0.70363 0.10127 -0.17478
 C144 C 0.69538 0.08911 -0.19495
 C145 C 0.67521 0.10177 -0.20283
 H146 H 0.71938 0.09672 -0.16390
 H147 H 0.66411 0.09759 -0.21844
 N148 N 0.68858 0.17067 -0.12078
 N149 N 0.67147 0.18763 -0.12075
 C150 C 0.67524 0.20270 -0.10188
 C151 C 0.69553 0.19471 -0.08958
 C152 C 0.70367 0.17452 -0.10194
 H153 H 0.66421 0.21841 -0.09749
 H154 H 0.71949 0.16362 -0.09759
 H155 H 0.67307 0.17213 -0.16401
 H156 H 0.65346 0.15241 -0.14462
 N157 N 0.12050 0.68796 -0.17063
 N158 N 0.12089 0.67101 -0.18744
 C159 C 0.10201 0.67457 -0.20264
 C160 C 0.08930 0.69474 -0.19479
 C161 C 0.10142 0.70288 -0.17454
 H162 H 0.09795 0.66359 -0.21835
 H163 H 0.09689 0.71862 -0.16368
 Cu164 Cu 0.14620 0.64620 -0.18743
 Cu165 Cu 0.14493 0.68971 -0.14507
 Cu166 Cu 0.18966 0.64482 -0.14498
 N167 N 0.17090 0.62078 -0.18732
 N168 N 0.18783 0.62035 -0.17048
 C169 C 0.20267 0.60120 -0.17433
 C170 C 0.19448 0.58906 -0.19455
 C171 C 0.17437 0.60185 -0.20246
 H172 H 0.21840 0.59662 -0.16345
 H173 H 0.16339 0.59782 -0.21818
 N174 N 0.18825 0.67116 -0.12076
 N175 N 0.17123 0.68822 -0.12078
 C176 C 0.17517 0.70342 -0.10207
 C177 C 0.19549 0.69543 -0.08980
 C178 C 0.20344 0.67508 -0.10202
 H179 H 0.16422 0.71920 -0.09772
 H180 H 0.21920 0.66411 -0.09762
 H181 H 0.17264 0.67256 -0.16378
 H182 H 0.15291 0.65296 -0.14440
 N183 N 0.12041 0.18780 0.32978
 N184 N 0.12094 0.17108 0.31276
 C185 C 0.10197 0.17465 0.29767
 C186 C 0.08906 0.19457 0.30581
 C187 C 0.10118 0.20258 0.32610
 H188 H 0.09802 0.16384 0.28181
 H189 H 0.09657 0.21819 0.33711
 Cu190 Cu 0.14648 0.14648 0.31156
 Cu191 Cu 0.14493 0.18949 0.35508
 Cu192 Cu 0.18956 0.14492 0.35504
 N193 N 0.17107 0.12092 0.31277
 N194 N 0.18784 0.12041 0.32976
 C195 C 0.20261 0.10117 0.32609
 C196 C 0.19453 0.08903 0.30584
 C197 C 0.17459 0.10193 0.29772
 H198 H 0.21826 0.09657 0.33706
 H199 H 0.16374 0.09795 0.28188
 N200 N 0.18829 0.17120 0.37919
 N201 N 0.17124 0.18818 0.37923
 C202 C 0.17511 0.20331 0.39802
 C203 C 0.19544 0.19532 0.41028
 C204 C 0.20346 0.17506 0.39795
 H205 H 0.16404 0.21898 0.40245
 H206 H 0.21919 0.16404 0.40233
 H207 H 0.17260 0.17261 0.33603
 H208 H 0.15259 0.15257 0.35485
 N209 N 0.62090 0.31198 0.67115
 N210 N 0.62121 0.32892 0.68798
 C211 C 0.60238 0.32527 0.70326
 C212 C 0.58978 0.30511 0.69539
 C213 C 0.60194 0.29702 0.67510
 H214 H 0.59823 0.33624 0.71897
 H215 H 0.59745 0.28131 0.66422
 Cu216 Cu 0.64627 0.35389 0.68799
 Cu217 Cu 0.64512 0.31049 0.64536
 Cu218 Cu 0.68986 0.35511 0.64538
 N219 N 0.67128 0.37891 0.68800
 N220 N 0.68830 0.37925 0.67120
 C221 C 0.70325 0.39820 0.67516
 C222 C 0.69505 0.41033 0.69542
 C223 C 0.67485 0.39771 0.70326
 H224 H 0.71899 0.40272 0.66428
 H225 H 0.66377 0.40185 0.71892
 N226 N 0.68822 0.32911 0.62085
 N227 N 0.67119 0.31215 0.62084
 C228 C 0.67498 0.29714 0.60193
 C229 C 0.69522 0.30516 0.58955
 C230 C 0.70329 0.32531 0.60194
 H231 H 0.66404 0.28141 0.59756
 H232 H 0.71908 0.33620 0.59758
 H233 H 0.67283 0.32744 0.66424
 H234 H 0.65311 0.34725 0.64490
 N235 N 0.62081 0.81221 1.17082
 N236 N 0.62136 0.82886 1.18791
 C237 C 0.60245 0.82529 1.20307
 C238 C 0.58953 0.80546 1.19491
 C239 C 0.60159 0.79749 1.17452
 H240 H 0.59854 0.83602 1.21902
 H241 H 0.59694 0.78196 1.16345
 Cu242 Cu 0.64687 0.85338 1.18901
 Cu243 Cu 0.64514 0.81060 1.14529
 Cu244 Cu 0.68972 0.85504 1.14527
 N245 N 0.67151 0.87878 1.18792
 N246 N 0.68819 0.87933 1.17080
 C247 C 0.70298 0.89848 1.17450
 C248 C 0.69503 0.91050 1.19492
 C249 C 0.67512 0.89763 1.20309
 H250 H 0.71855 0.90312 1.16342
 H251 H 0.66437 0.90152 1.21905
 N252 N 0.68827 0.82897 1.12087
 N253 N 0.67126 0.81201 1.12090
 C254 C 0.67510 0.79691 1.10206
 C255 C 0.69535 0.80489 1.08968
 C256 C 0.70338 0.82511 1.10201
 H257 H 0.66412 0.78120 1.09771
 H258 H 0.71913 0.83604 1.09760
 H259 H 0.67287 0.82724 1.16423
 H260 H 0.65277 0.84739 1.14564
 N261 N 0.12076 0.31201 1.17099
 N262 N 0.12094 0.32906 1.18770
 C263 C 0.10209 0.32544 1.20294
 C264 C 0.08959 0.30516 1.19522
 C265 C 0.10184 0.29698 1.17501
 H266 H 0.09786 0.33653 1.21856
 H267 H 0.09746 0.28116 1.16423
 Cu268 Cu 0.14588 0.35420 1.18785
 Cu269 Cu 0.14503 0.31049 1.14531
 Cu270 Cu 0.18963 0.35512 1.14522
 N271 N 0.17103 0.37914 1.18761
 N272 N 0.18810 0.37936 1.17086
 C273 C 0.20315 0.39825 1.17486
 C274 C 0.19497 0.41043 1.19509
 C275 C 0.17467 0.39793 1.20285
 H276 H 0.21901 0.40260 1.16407
 H277 H 0.16361 0.40208 1.21854
 N278 N 0.18808 0.32907 1.12076
 N279 N 0.17109 0.31207 1.12080
 C280 C 0.17491 0.29702 1.10192
 C281 C 0.19512 0.30506 1.08951
 C282 C 0.20314 0.32527 1.10184
 H283 H 0.16395 0.28130 1.09755
 H284 H 0.21885 0.33625 1.09740
 H285 H 0.17251 0.32764 1.16434
 H286 H 0.15286 0.34725 1.14481
 N287 N 0.12072 0.81209 0.67092
 N288 N 0.12141 0.82862 0.68813
 C289 C 0.10255 0.82502 0.70334
 C290 C 0.08950 0.80529 0.69511
 C291 C 0.10145 0.79742 0.67461
 H292 H 0.09871 0.83571 0.71933
 H293 H 0.09664 0.78203 0.66341
 Cu294 Cu 0.14697 0.85313 0.68921
 Cu295 Cu 0.14490 0.81065 0.64522
 Cu296 Cu 0.18949 0.85511 0.64514
 N297 N 0.17164 0.87853 0.68812
 N298 N 0.18816 0.87923 0.67084
 C299 C 0.20299 0.89835 0.67457
 C300 C 0.19524 0.91020 0.69516
 C301 C 0.17541 0.89725 0.70341
 H302 H 0.21843 0.90311 0.66335
 H303 H 0.16478 0.90104 0.71947
 N304 N 0.18786 0.82920 0.62060
 N305 N 0.17088 0.81222 0.62066
 C306 C 0.17469 0.79714 0.60179
 C307 C 0.19491 0.80516 0.58938
 C308 C 0.20293 0.82538 0.60169
 H309 H 0.16377 0.78138 0.59749
 H310 H 0.21869 0.83630 0.59730
 H311 H 0.17283 0.82721 0.66406
 H312 H 0.15257 0.84747 0.64576
 N313 N 0.37918 0.68829 0.67113
 N314 N 0.37895 0.67128 0.68791
 C315 C 0.39771 0.67497 0.70319
 C316 C 0.41020 0.69526 0.69541
 C317 C 0.39804 0.70337 0.67514
 H318 H 0.40188 0.66394 0.71889
 H319 H 0.40245 0.71914 0.66428
 Cu320 Cu 0.35404 0.64612 0.68808
 Cu321 Cu 0.35499 0.68979 0.64542
 Cu322 Cu 0.31047 0.64516 0.64538
 N323 N 0.32895 0.62116 0.68787
 N324 N 0.31197 0.62093 0.67106
 C325 C 0.29693 0.60203 0.67503
 C326 C 0.30502 0.58984 0.69529
 C327 C 0.32526 0.60235 0.70312
 H328 H 0.28120 0.59760 0.66415
 H329 H 0.33626 0.59814 0.71882
 N330 N 0.31205 0.67119 0.62091
 N331 N 0.32901 0.68820 0.62092
 C332 C 0.32520 0.70326 0.60203
 C333 C 0.30501 0.69522 0.58966
 C334 C 0.29700 0.67498 0.60202
 H335 H 0.33614 0.71901 0.59766
 H336 H 0.28130 0.66401 0.59765
 H337 H 0.32748 0.67261 0.66441
 H338 H 0.34724 0.65300 0.64500
 N339 N 0.37959 0.18786 1.17053
 N340 N 0.37947 0.17070 1.18717
 C341 C 0.39830 0.17427 1.20238
 C342 C 0.41074 0.19463 1.19471
 C343 C 0.39848 0.20291 1.17458
 H344 H 0.40252 0.16318 1.21802
 H345 H 0.40277 0.21884 1.16389
 Cu346 Cu 0.35452 0.14559 1.18736
 Cu347 Cu 0.35521 0.18961 1.14503
 Cu348 Cu 0.31062 0.14500 1.14503
 N349 N 0.32938 0.12066 1.18719
 N350 N 0.31226 0.12057 1.17053
 C351 C 0.29717 0.10171 1.17459
 C352 C 0.30536 0.08942 1.19477
 C353 C 0.32572 0.10184 1.20243
 H354 H 0.28127 0.09744 1.16387
 H355 H 0.33679 0.09760 1.21807
 N356 N 0.31204 0.17122 1.12069
 N357 N 0.32901 0.18823 1.12070
 C358 C 0.32514 0.20337 1.10187
 C359 C 0.30491 0.19537 1.08954
 C360 C 0.29693 0.17510 1.10185
 H361 H 0.33610 0.21909 1.09747
 H362 H 0.28123 0.16413 1.09744
 H363 H 0.32789 0.17235 1.16410
 H364 H 0.34747 0.15287 1.14437
 N365 N 0.87960 0.68789 1.17056
 N366 N 0.87918 0.67112 1.18758
 C367 C 0.89817 0.67464 1.20262
 C368 C 0.91098 0.69458 1.19447
 C369 C 0.89878 0.70266 1.17422
 H370 H 0.90224 0.66376 1.21845
 H371 H 0.90331 0.71830 1.16320
 Cu372 Cu 0.85376 0.64648 1.18871
 Cu373 Cu 0.85512 0.68961 1.14522
 Cu374 Cu 0.81070 0.64502 1.14524
 N375 N 0.82919 0.62098 1.18763
 N376 N 0.81245 0.62051 1.17062
 C377 C 0.79771 0.60131 1.17432
 C378 C 0.80578 0.58914 1.19461
 C379 C 0.82568 0.60201 1.20273
 H380 H 0.78211 0.59674 1.16331
 H381 H 0.83655 0.59796 1.21855
 N382 N 0.81192 0.67130 1.12103
 N383 N 0.82887 0.68832 1.12103
 C384 C 0.82497 0.70347 1.10222
 C385 C 0.80473 0.69547 1.08990
 C386 C 0.79679 0.67517 1.10221
 H387 H 0.83594 0.71917 1.09780
 H388 H 0.78113 0.66414 1.09780
 H389 H 0.82753 0.67266 1.16423
 H390 H 0.84765 0.65268 1.14544
 N391 N 0.87917 0.18823 0.67099
 N392 N 0.87888 0.17124 0.68781
 C393 C 0.89768 0.17485 0.70305
 C394 C 0.91025 0.19507 0.69523
 C395 C 0.89812 0.20322 0.67496
 H396 H 0.90185 0.16380 0.71872
 H397 H 0.90264 0.21892 0.66403
 Cu398 Cu 0.85385 0.14622 0.68784
 Cu399 Cu 0.85506 0.18969 0.64518
 Cu400 Cu 0.81047 0.14495 0.64519
 N401 N 0.82886 0.12115 0.68788
 N402 N 0.81192 0.12081 0.67104
 C403 C 0.79692 0.10186 0.67507
 C404 C 0.80500 0.08978 0.69541
 C405 C 0.82520 0.10239 0.70319
 H406 H 0.78123 0.09734 0.66417
 H407 H 0.83618 0.09831 0.71893
 N408 N 0.81215 0.17095 0.62060
 N409 N 0.82910 0.18799 0.62062
 C410 C 0.82532 0.20304 0.60170
 C411 C 0.80517 0.19495 0.58930
 C412 C 0.79715 0.17472 0.60166
 H413 H 0.83621 0.21882 0.59736
 H414 H 0.78143 0.16377 0.59728
 H415 H 0.82743 0.17263 0.66403
 H416 H 0.84726 0.15296 0.64475
 N417 N 0.31231 0.37962 0.67020
 N418 N 0.32909 0.37917 0.68718
 C419 C 0.32558 0.39820 0.70217
 C420 C 0.30565 0.41110 0.69402
 C421 C 0.29755 0.39888 0.67382
 H422 H 0.33642 0.40221 0.71801
 H423 H 0.28188 0.40344 0.66286
 Cu424 Cu 0.35364 0.35357 0.68847
 Cu425 Cu 0.31053 0.35501 0.64501
 Cu426 Cu 0.35508 0.31038 0.64513
 N427 N 0.37914 0.32891 0.68739
 N428 N 0.37962 0.31212 0.67044
 C429 C 0.39882 0.29730 0.67419
 C430 C 0.41096 0.30537 0.69446
 C431 C 0.39809 0.32535 0.70250
 H432 H 0.40340 0.28162 0.66326
 H433 H 0.40207 0.33622 0.71832
 N434 N 0.32876 0.31162 0.62096
 N435 N 0.31174 0.32864 0.62094
 C436 C 0.29649 0.32467 0.60225
 C437 C 0.30445 0.30432 0.59003
 C438 C 0.32480 0.29638 0.60228
 H439 H 0.28075 0.33567 0.59785
 H440 H 0.33580 0.28063 0.59791
 H441 H 0.32745 0.32741 0.66411
 H442 H 0.34747 0.34733 0.64520
 N443 N 0.31224 0.87984 0.16994
 N444 N 0.32901 0.87936 0.18693
 C445 C 0.32543 0.89829 0.20202
 C446 C 0.30544 0.91115 0.19394
 C447 C 0.29740 0.89902 0.17366
 H448 H 0.33632 0.90232 0.21782
 H449 H 0.28174 0.90359 0.16269
 Cu450 Cu 0.35372 0.85393 0.18797
 Cu451 Cu 0.31061 0.85537 0.14457
 Cu452 Cu 0.35524 0.81078 0.14463
 N453 N 0.37923 0.82928 0.18695
 N454 N 0.37971 0.81249 0.16999
 C455 C 0.39891 0.79768 0.17374
 C456 C 0.41105 0.80576 0.19400
 C457 C 0.39819 0.82575 0.20204
 H458 H 0.40348 0.78201 0.16280
 H459 H 0.40220 0.83665 0.21783
 N460 N 0.32899 0.81209 0.12043
 N461 N 0.31197 0.82912 0.12039
 C462 C 0.29684 0.82524 0.10160
 C463 C 0.30484 0.80493 0.08935
 C464 C 0.32513 0.79692 0.10167
 H465 H 0.28112 0.83626 0.09717
 H466 H 0.33614 0.78119 0.09732
 H467 H 0.32758 0.82774 0.16360
 H468 H 0.34759 0.84771 0.14473
 N469 N 0.81173 0.37938 0.17032
 N470 N 0.82881 0.37912 0.18700
 C471 C 0.82514 0.39789 0.20228
 C472 C 0.80480 0.41043 0.19459
 C473 C 0.79663 0.39828 0.17438
 H474 H 0.83620 0.40202 0.21793
 H475 H 0.78078 0.40270 0.16363
 Cu476 Cu 0.85397 0.35414 0.18714
 Cu477 Cu 0.81019 0.35520 0.14464
 Cu478 Cu 0.85488 0.31048 0.14460
 N479 N 0.87898 0.32899 0.18695
 N480 N 0.87918 0.31192 0.17025
 C481 C 0.89808 0.29680 0.17430
 C482 C 0.91029 0.30495 0.19450
 C483 C 0.89778 0.32530 0.20220
 H484 H 0.90249 0.28097 0.16353
 H485 H 0.90197 0.33636 0.21782
 N486 N 0.82880 0.31215 0.12015
 N487 N 0.81179 0.32919 0.12016
 C488 C 0.79670 0.32544 0.10131
 C489 C 0.80472 0.30519 0.08897
 C490 C 0.82497 0.29710 0.10129
 H491 H 0.78095 0.33644 0.09694
 H492 H 0.83592 0.28133 0.09691
 H493 H 0.82732 0.32769 0.16368
 H494 H 0.84693 0.34726 0.14410
 N495 N 0.81139 0.87985 0.67084
 N496 N 0.82845 0.87949 0.68754
 C497 C 0.82477 0.89819 0.70292
 C498 C 0.80444 0.91076 0.69523
 C499 C 0.79630 0.89871 0.67495
 H500 H 0.83581 0.90219 0.71854
 H501 H 0.78046 0.90325 0.66420
 Cu502 Cu 0.85375 0.85465 0.68777
 Cu503 Cu 0.80998 0.85573 0.64512
 Cu504 Cu 0.85480 0.81111 0.64502
 N505 N 0.87875 0.82950 0.68736
 N506 N 0.87908 0.81249 0.67063
 C507 C 0.89801 0.79743 0.67465
 C508 C 0.91013 0.80553 0.69492
 C509 C 0.89753 0.82583 0.70267
 H510 H 0.90251 0.78161 0.66388
 H511 H 0.90155 0.83681 0.71833
 N512 N 0.82873 0.81276 0.62058
 N513 N 0.81169 0.82977 0.62060
 C514 C 0.79662 0.82600 0.60174
 C515 C 0.80468 0.80577 0.58938
 C516 C 0.82493 0.79772 0.60171
 H517 H 0.78081 0.83694 0.59740
 H518 H 0.83590 0.78195 0.59734
 H519 H 0.82710 0.82818 0.66421
 H520 H 0.84673 0.84790 0.64469
 N521 N 0.68813 0.62079 0.67129
 N522 N 0.67111 0.62111 0.68808
 C523 C 0.67474 0.60228 0.70334
 C524 C 0.69496 0.58962 0.69547
 C525 C 0.70311 0.60177 0.67520
 H526 H 0.66367 0.59815 0.71899
 H527 H 0.71885 0.59723 0.66429
 Cu528 Cu 0.64611 0.64626 0.68814
 Cu529 Cu 0.68966 0.64506 0.64554
 Cu530 Cu 0.64490 0.68984 0.64562
 N531 N 0.62099 0.67130 0.68819
 N532 N 0.62066 0.68833 0.67142
 C533 C 0.60164 0.70332 0.67540
 C534 C 0.58949 0.69515 0.69568
 C535 C 0.60217 0.67493 0.70349
 H536 H 0.59709 0.71904 0.66450
 H537 H 0.59803 0.66383 0.71911
 N538 N 0.67099 0.68820 0.62109
 N539 N 0.68802 0.67117 0.62106
 C540 C 0.70311 0.67500 0.60218
 C541 C 0.69507 0.69526 0.58985
 C542 C 0.67481 0.70330 0.60222
 H543 H 0.71889 0.66403 0.59779
 H544 H 0.66386 0.71909 0.59787
 H545 H 0.67257 0.67265 0.66441
 H546 H 0.65289 0.65307 0.64504
 N547 N 0.68813 0.12002 0.17036
 N548 N 0.67130 0.12045 0.18733
 C549 C 0.67489 0.10153 0.20247
 C550 C 0.69494 0.08874 0.19443
 C551 C 0.70301 0.10088 0.17413
 H552 H 0.66399 0.09749 0.21830
 H553 H 0.71872 0.09635 0.16319
 Cu554 Cu 0.64656 0.14587 0.18831
 Cu555 Cu 0.68985 0.14450 0.14497
 Cu556 Cu 0.64519 0.18907 0.14494
 N557 N 0.62105 0.17052 0.18725
 N558 N 0.62063 0.18734 0.17029
 C559 C 0.60142 0.20215 0.17401
 C560 C 0.58921 0.19405 0.19427
 C561 C 0.60204 0.17405 0.20234
 H562 H 0.59689 0.21785 0.16306
 H563 H 0.59799 0.16314 0.21815
 N564 N 0.67153 0.18780 0.12075
 N565 N 0.68855 0.17078 0.12075
 C566 C 0.70376 0.17469 0.10197
 C567 C 0.69579 0.19501 0.08970
 C568 C 0.67546 0.20300 0.10198
 H569 H 0.71950 0.16368 0.09758
 H570 H 0.66446 0.21873 0.09759
 H571 H 0.67283 0.17206 0.16396
 H572 H 0.65290 0.15214 0.14505
 N573 N 0.18831 0.62084 0.17038
 N574 N 0.17127 0.62113 0.18714
 C575 C 0.17486 0.60229 0.20240
 C576 C 0.19512 0.58966 0.19459
 C577 C 0.20331 0.60183 0.17434
 H578 H 0.16380 0.59814 0.21807
 H579 H 0.21906 0.59729 0.16344
 Cu580 Cu 0.14622 0.64623 0.18717
 Cu581 Cu 0.18984 0.64511 0.14466
 Cu582 Cu 0.14509 0.68988 0.14471
 N583 N 0.12112 0.67127 0.18719
 N584 N 0.12083 0.68833 0.17045
 C585 C 0.10186 0.70336 0.17450
 C586 C 0.08971 0.69518 0.19477
 C587 C 0.10231 0.67489 0.20249
 H588 H 0.09735 0.71914 0.16365
 H589 H 0.09820 0.66383 0.21817
 N590 N 0.17120 0.68826 0.12020
 N591 N 0.18822 0.67122 0.12018
 C592 C 0.20334 0.67506 0.10132
 C593 C 0.19532 0.69534 0.08900
 C594 C 0.17506 0.70339 0.10136
 H595 H 0.21912 0.66410 0.09695
 H596 H 0.16412 0.71918 0.09702
 H597 H 0.17269 0.67272 0.16355
 H598 H 0.15306 0.65316 0.14413
 N599 N 0.18817 0.11987 0.67110
 N600 N 0.17120 0.12016 0.68795
 C601 C 0.17494 0.10137 0.70322
 C602 C 0.19520 0.08880 0.69535
 C603 C 0.20325 0.10093 0.67504
 H604 H 0.16398 0.09722 0.71897
 H605 H 0.21901 0.09648 0.66414
 Cu606 Cu 0.14591 0.14503 0.68813
 Cu607 Cu 0.18969 0.14416 0.64546
 Cu608 Cu 0.14489 0.18870 0.64546
 N609 N 0.12083 0.17012 0.68788
 N610 N 0.12051 0.18707 0.67103
 C611 C 0.10149 0.20207 0.67495
 C612 C 0.08932 0.19398 0.69523
 C613 C 0.10197 0.17378 0.70311
 H614 H 0.09703 0.21783 0.66407
 H615 H 0.09787 0.16283 0.71888
 N616 N 0.17105 0.18727 0.62106
 N617 N 0.18811 0.17027 0.62103
 C618 C 0.20323 0.17415 0.60218
 C619 C 0.19519 0.19444 0.58988
 C620 C 0.17489 0.20241 0.60223
 H621 H 0.21900 0.16319 0.59779
 H622 H 0.16388 0.21815 0.59786
 H623 H 0.17247 0.17154 0.66454
 H624 H 0.15291 0.15191 0.64505
 N625 N 0.31173 0.62088 0.32898
 N626 N 0.32885 0.62106 0.31227
 C627 C 0.32524 0.60227 0.29704
 C628 C 0.30490 0.58979 0.30476
 C629 C 0.29669 0.60199 0.32497
 H630 H 0.33639 0.59806 0.28143
 H631 H 0.28087 0.59759 0.33579
 Cu632 Cu 0.35412 0.64584 0.31226
 Cu633 Cu 0.31021 0.64505 0.35469
 Cu634 Cu 0.35480 0.68969 0.35461
 N635 N 0.37886 0.67115 0.31217
 N636 N 0.37901 0.68823 0.32885
 C637 C 0.39789 0.70329 0.32478
 C638 C 0.41013 0.69511 0.30458
 C639 C 0.39768 0.67478 0.29690
 H640 H 0.40230 0.71909 0.33559
 H641 H 0.40195 0.66366 0.28132
 N642 N 0.32878 0.68804 0.37917
 N643 N 0.31179 0.67104 0.37920
 C644 C 0.29677 0.67479 0.39816
 C645 C 0.30483 0.69495 0.41053
 C646 C 0.32501 0.70303 0.39811
 H647 H 0.28105 0.66382 0.40259
 H648 H 0.33596 0.71875 0.40249
 H649 H 0.32745 0.67243 0.33564
 H650 H 0.34702 0.65290 0.35531
 N651 N 0.31257 0.11986 0.82978
 N652 N 0.32935 0.12035 0.81276
 C653 C 0.32593 0.10135 0.79773
 C654 C 0.30604 0.08844 0.80588
 C655 C 0.29790 0.10060 0.82615
 H656 H 0.33680 0.09739 0.78187
 H657 H 0.28225 0.09602 0.83715
 Cu658 Cu 0.35376 0.14597 0.81141
 Cu659 Cu 0.31066 0.14448 0.85498
 Cu660 Cu 0.35501 0.18914 0.85478
 N661 N 0.37916 0.17062 0.81249
 N662 N 0.37957 0.18739 0.82946
 C663 C 0.39874 0.20217 0.82572
 C664 C 0.41092 0.19411 0.80543
 C665 C 0.39812 0.17415 0.79738
 H666 H 0.40326 0.21782 0.83668
 H667 H 0.40215 0.16331 0.78154
 N668 N 0.32869 0.18789 0.87898
 N669 N 0.31174 0.17087 0.87904
 C670 C 0.29649 0.17483 0.89777
 C671 C 0.30437 0.19518 0.90998
 C672 C 0.32468 0.20312 0.89767
 H673 H 0.28079 0.16384 0.90220
 H674 H 0.33563 0.21885 0.90201
 H675 H 0.32748 0.17212 0.83586
 H676 H 0.34759 0.15221 0.85471
 N677 N 0.81240 0.62000 0.82961
 N678 N 0.82918 0.62047 0.81259
 C679 C 0.82571 0.60151 0.79753
 C680 C 0.80580 0.58864 0.80569
 C681 C 0.79769 0.60079 0.82596
 H682 H 0.83657 0.59752 0.78167
 H683 H 0.78205 0.59620 0.83697
 Cu684 Cu 0.85371 0.64598 0.81139
 Cu685 Cu 0.81058 0.64450 0.85492
 Cu686 Cu 0.85501 0.68909 0.85476
 N687 N 0.87910 0.67062 0.81241
 N688 N 0.87951 0.68739 0.82939
 C689 C 0.89864 0.70220 0.82563
 C690 C 0.91081 0.69417 0.80533
 C691 C 0.89804 0.67420 0.79727
 H692 H 0.90316 0.71785 0.83660
 H693 H 0.90209 0.66336 0.78143
 N694 N 0.82874 0.68780 0.87901
 N695 N 0.81178 0.67079 0.87908
 C696 C 0.79659 0.67471 0.89787
 C697 C 0.80452 0.69502 0.91010
 C698 C 0.82480 0.70299 0.89776
 H699 H 0.78090 0.66373 0.90231
 H700 H 0.83575 0.71873 0.90210
 H701 H 0.82739 0.67211 0.83581
 H702 H 0.84747 0.65216 0.85466
 N703 N 0.81250 0.11993 0.32972
 N704 N 0.82927 0.12044 0.31268
 C705 C 0.82582 0.10147 0.29762
 C706 C 0.80593 0.08856 0.30576
 C707 C 0.79781 0.10069 0.32605
 H708 H 0.83667 0.09753 0.28174
 H709 H 0.78216 0.09611 0.33705
 Cu710 Cu 0.85373 0.14602 0.31145
 Cu711 Cu 0.81063 0.14450 0.35497
 Cu712 Cu 0.85497 0.18919 0.35482
 N713 N 0.87911 0.17069 0.31251
 N714 N 0.87950 0.18746 0.32949
 C715 C 0.89864 0.20228 0.32575
 C716 C 0.91083 0.19424 0.30547
 C717 C 0.89807 0.17427 0.29740
 H718 H 0.90313 0.21793 0.33671
 H719 H 0.90213 0.16343 0.28156
 N720 N 0.82866 0.18790 0.37901
 N721 N 0.81173 0.17086 0.37908
 C722 C 0.79650 0.17480 0.39783
 C723 C 0.80437 0.19516 0.41003
 C724 C 0.82465 0.20313 0.39770
 H725 H 0.78082 0.16379 0.40228
 H726 H 0.83558 0.21888 0.40202
 H727 H 0.82747 0.17220 0.33589
 H728 H 0.84760 0.15229 0.35473
 N729 N 0.68798 0.37917 0.32891
 N730 N 0.67099 0.37885 0.31213
 C731 C 0.67443 0.39779 0.29696
 C732 C 0.69456 0.41049 0.30481
 C733 C 0.70281 0.39826 0.32499
 H734 H 0.66332 0.40195 0.28134
 H735 H 0.71851 0.40283 0.33586
 Cu736 Cu 0.64613 0.35368 0.31209
 Cu737 Cu 0.68954 0.35491 0.35465
 Cu738 Cu 0.64495 0.31011 0.35461
 N739 N 0.62110 0.32870 0.31206
 N740 N 0.62080 0.31167 0.32882
 C741 C 0.60181 0.29675 0.32485
 C742 C 0.58964 0.30496 0.30463
 C743 C 0.60226 0.32518 0.29684
 H744 H 0.59731 0.28097 0.33568
 H745 H 0.59814 0.33628 0.28119
 N746 N 0.67098 0.31176 0.37913
 N747 N 0.68795 0.32879 0.37914
 C748 C 0.70298 0.32499 0.39804
 C749 C 0.69494 0.30477 0.41042
 C750 C 0.67478 0.29670 0.39803
 H751 H 0.71870 0.33594 0.40242
 H752 H 0.66386 0.28094 0.40239
 H753 H 0.67247 0.32729 0.33603
 H754 H 0.65266 0.34692 0.35528
 N755 N 0.68736 0.87960 0.82952
 N756 N 0.67071 0.87907 0.81243
 C757 C 0.67417 0.89809 0.79738
 C758 C 0.69395 0.91106 0.80561
 C759 C 0.70199 0.89891 0.82592
 H760 H 0.66337 0.90206 0.78150
 H761 H 0.71751 0.90357 0.83701
 Cu762 Cu 0.64627 0.85349 0.81118
 Cu763 Cu 0.68908 0.85510 0.85489
 Cu764 Cu 0.64466 0.81052 0.85487
 N765 N 0.62085 0.82887 0.81232
 N766 N 0.62029 0.81220 0.82942
 C767 C 0.60105 0.79751 0.82579
 C768 C 0.58897 0.80554 0.80545
 C769 C 0.60191 0.82536 0.79723
 H770 H 0.59636 0.78199 0.83690
 H771 H 0.59795 0.83617 0.78133
 N772 N 0.67085 0.81184 0.87913
 N773 N 0.68783 0.82883 0.87912
 C774 C 0.70298 0.82492 0.89791
 C775 C 0.69500 0.80465 0.91024
 C776 C 0.67473 0.79669 0.89795
 H777 H 0.71867 0.83591 0.90232
 H778 H 0.66373 0.78101 0.90238
 H779 H 0.67227 0.82739 0.83597
 H780 H 0.65208 0.84743 0.85459
 N781 N 0.18792 0.37924 0.82898
 N782 N 0.17089 0.37900 0.81223
 C783 C 0.17454 0.39777 0.79692
 C784 C 0.19485 0.41024 0.80462
 C785 C 0.20297 0.39811 0.82491
 H786 H 0.16350 0.40194 0.78124
 H787 H 0.21875 0.40254 0.83573
 Cu788 Cu 0.14572 0.35416 0.81228
 Cu789 Cu 0.18945 0.35502 0.85472
 Cu790 Cu 0.14476 0.31043 0.85476
 N791 N 0.12079 0.32906 0.81230
 N792 N 0.12053 0.31201 0.82906
 C793 C 0.10161 0.29701 0.82505
 C794 C 0.08947 0.30518 0.80478
 C795 C 0.10200 0.32547 0.79704
 H796 H 0.09715 0.28125 0.83590
 H797 H 0.09785 0.33654 0.78137
 N798 N 0.17080 0.31199 0.87924
 N799 N 0.18781 0.32897 0.87922
 C800 C 0.20285 0.32515 0.89812
 C801 C 0.19480 0.30494 0.91048
 C802 C 0.17459 0.29693 0.89814
 H803 H 0.21859 0.33609 0.90250
 H804 H 0.16364 0.28120 0.90253
 H805 H 0.17230 0.32761 0.83584
 H806 H 0.15267 0.34722 0.85536
 N807 N 0.18760 0.87940 0.32923
 N808 N 0.17067 0.87912 0.31239
 C809 C 0.17435 0.89792 0.29713
 C810 C 0.19454 0.91050 0.30498
 C811 C 0.20260 0.89835 0.32528
 H812 H 0.16340 0.90204 0.28136
 H813 H 0.21834 0.90277 0.33615
 Cu814 Cu 0.14554 0.85416 0.31224
 Cu815 Cu 0.18923 0.85502 0.35480
 Cu816 Cu 0.14466 0.81041 0.35485
 N817 N 0.12060 0.82903 0.31245
 N818 N 0.12031 0.81207 0.32930
 C819 C 0.10131 0.79713 0.32542
 C820 C 0.08913 0.80526 0.30517
 C821 C 0.10176 0.82541 0.29726
 H822 H 0.09685 0.78141 0.33633
 H823 H 0.09762 0.83640 0.28152
 N824 N 0.17081 0.81186 0.37917
 N825 N 0.18779 0.82885 0.37916
 C826 C 0.20295 0.82494 0.39794
 C827 C 0.19500 0.80465 0.41024
 C828 C 0.17472 0.79669 0.39797
 H829 H 0.21868 0.83589 0.40228
 H830 H 0.16377 0.78096 0.40234
 H831 H 0.17211 0.82755 0.33578
 H832 H 0.15243 0.84715 0.35531
 O833 O 0.25240 1.02411 0.21944
 O834 O 0.21899 0.97626 0.25226
 O835 O 0.21898 1.02387 0.25262
 O836 O 0.25235 0.97646 0.21904
 O837 O 0.28085 0.97616 0.24731
 O838 O 0.24749 1.02358 0.28088
 O839 O 0.24749 0.97594 0.28053
 O840 O 0.28091 1.02380 0.24770
 Cu841 Cu 0.23281 1.00021 0.23298
 Cu842 Cu 0.26706 0.99983 0.26697
 C843 C 0.27213 1.03224 0.22817
 C844 C 0.22777 0.96780 0.27178
 C845 C 0.22775 1.03192 0.27227
 C846 C 0.27210 0.96813 0.22764
 O847 O 0.25234 0.52409 0.71930
 O848 O 0.21907 0.47606 0.75194
 O849 O 0.21882 0.52369 0.75230
 O850 O 0.25253 0.47647 0.71881
 O851 O 0.28093 0.47626 0.74718
 O852 O 0.24722 0.52347 0.78066
 O853 O 0.24748 0.47584 0.78029
 O854 O 0.28075 0.52385 0.74767
 Cu855 Cu 0.23282 0.50009 0.73272
 Cu856 Cu 0.26696 0.49982 0.76683
 C857 C 0.27199 0.53229 0.72814
 C858 C 0.22782 0.46765 0.77149
 C859 C 0.22751 0.53179 0.77197
 C860 C 0.27226 0.46818 0.72749
 O861 O 0.71958 0.02357 0.24767
 O862 O 0.75275 -0.02425 0.28085
 O863 O 0.75290 0.02340 0.28092
 O864 O 0.71941 -0.02401 0.24772
 O865 O 0.74796 -0.02413 0.21943
 O866 O 0.78145 0.02330 0.25263
 O867 O 0.78131 -0.02436 0.25257
 O868 O 0.74813 0.02347 0.21938
 Cu869 Cu 0.73329 -0.00029 0.26715
 Cu870 Cu 0.76760 -0.00043 0.23315
 C871 C 0.72837 0.03175 0.22804
 C872 C 0.77246 -0.03260 0.27215
 C873 C 0.77267 0.03156 0.27224
 C874 C 0.72821 -0.03231 0.22814
 O875 O 0.78117 0.52342 0.75272
 O876 O 0.74752 0.47607 0.71964
 O877 O 0.74762 0.52373 0.71975
 O878 O 0.78103 0.47581 0.75257
 O879 O 0.75265 0.47583 0.78103
 O880 O 0.71924 0.52374 0.74820
 O881 O 0.71915 0.47608 0.74809
 O882 O 0.75279 0.52344 0.78118
 Cu883 Cu 0.76720 0.49977 0.73328
 Cu884 Cu 0.73309 0.49979 0.76750
 C885 C 0.77250 0.53161 0.77240
 C886 C 0.72785 0.46784 0.72845
 C887 C 0.72796 0.53204 0.72858
 C888 C 0.77230 0.46751 0.77218
 O889 O 0.28092 0.52383 0.25225
 O890 O 0.24760 0.47605 0.21941
 O891 O 0.24758 0.52372 0.21916
 O892 O 0.28107 0.47619 0.25251
 O893 O 0.25255 0.47636 0.28083
 O894 O 0.21908 0.52388 0.24750
 O895 O 0.21909 0.47620 0.24774
 O896 O 0.25242 0.52397 0.28059
 Cu897 Cu 0.26716 0.49992 0.23295
 Cu898 Cu 0.23292 0.50010 0.26702
 C899 C 0.27211 0.53220 0.27180
 C900 C 0.22790 0.46783 0.22820
 C901 C 0.22787 0.53206 0.22787
 C902 C 0.27231 0.46807 0.27219
 O903 O 0.75222 1.02429 0.71991
 O904 O 0.71846 0.97683 0.75292
 O905 O 0.71870 1.02444 0.75294
 O906 O 0.75197 0.97664 0.71987
 O907 O 0.78036 0.97639 0.74824
 O908 O 0.74711 1.02418 0.78131
 O909 O 0.74685 0.97658 0.78130
 O910 O 0.78062 1.02404 0.74828
 Cu911 Cu 0.73247 1.00058 0.73353
 Cu912 Cu 0.76660 1.00027 0.76765
 C913 C 0.77194 1.03242 0.72868
 C914 C 0.72714 0.96845 0.77252
 C915 C 0.72746 1.03258 0.77256
 C916 C 0.77161 0.96823 0.72863
 O917 O 0.74763 0.52386 0.28072
 O918 O 0.78070 0.47602 0.24750
 O919 O 0.78106 0.52364 0.24753
 O920 O 0.74731 0.47620 0.28065
 O921 O 0.71886 0.47654 0.25233
 O922 O 0.75259 0.52398 0.21924
 O923 O 0.75225 0.47635 0.21918
 O924 O 0.71916 0.52419 0.25242
 Cu925 Cu 0.76705 0.49991 0.26697
 Cu926 Cu 0.73285 0.50030 0.23294
 C927 C 0.72799 0.53232 0.27202
 C928 C 0.77188 0.46788 0.22790
 C929 C 0.77238 0.53201 0.22793
 C930 C 0.72755 0.46813 0.27191
 O931 O 0.25326 -0.02447 0.78110
 O932 O 0.21972 0.02318 0.74811
 O933 O 0.21975 -0.02445 0.74810
 O934 O 0.25314 0.02312 0.78119
 O935 O 0.28157 0.02317 0.75278
 O936 O 0.24818 -0.02441 0.71969
 O937 O 0.24815 0.02322 0.71970
 O938 O 0.28170 -0.02441 0.75270
 Cu939 Cu 0.23359 -0.00066 0.76749
 Cu940 Cu 0.26776 -0.00061 0.73333
 C941 C 0.27300 -0.03266 0.77233
 C942 C 0.22845 0.03147 0.72850
 C943 C 0.22849 -0.03267 0.72846
 C944 C 0.27284 0.03137 0.77244
 O945 O 0.24738 0.28091 0.97614
 O946 O 0.28089 0.24764 1.02349
 O947 O 0.28067 0.24753 0.97601
 O948 O 0.24750 0.28094 1.02356
 O949 O 0.21904 0.25253 1.02376
 O950 O 0.25220 0.21912 0.97622
 O951 O 0.25243 0.21922 1.02370
 O952 O 0.21891 0.25250 0.97634
 Cu953 Cu 0.26700 0.26711 0.99978
 Cu954 Cu 0.23278 0.23296 1.00003
 C955 C 0.22768 0.27213 0.96800
 C956 C 0.27211 0.22802 1.03186
 C957 C 0.27182 0.22789 0.96781
 C958 C 0.22785 0.27219 1.03192
 O959 O 0.24749 0.78073 0.47610
 O960 O 0.28086 0.74760 0.52373
 O961 O 0.28086 0.74742 0.47630
 O962 O 0.24745 0.78093 0.52358
 O963 O 0.21901 0.75249 0.52375
 O964 O 0.25242 0.71898 0.47646
 O965 O 0.25242 0.71916 0.52389
 O966 O 0.21905 0.75230 0.47626
 Cu967 Cu 0.26702 0.76705 0.49992
 Cu968 Cu 0.23285 0.73287 0.50011
 C969 C 0.22784 0.77191 0.46788
 C970 C 0.27209 0.72797 0.53208
 C971 C 0.27209 0.72773 0.46815
 C972 C 0.22779 0.77218 0.53191
 O973 O 0.21949 0.74796 -0.02419
 O974 O 0.25269 0.78122 0.02325
 O975 O 0.25269 0.78126 -0.02424
 O976 O 0.21940 0.74792 0.02324
 O977 O 0.24794 0.71946 0.02324
 O978 O 0.28123 0.75280 -0.02424
 O979 O 0.28123 0.75275 0.02326
 O980 O 0.24803 0.71950 -0.02418
 Cu981 Cu 0.23319 0.76747 -0.00048
 Cu982 Cu 0.26750 0.73326 -0.00047
 C983 C 0.22834 0.72831 -0.03244
 C984 C 0.27236 0.77239 0.03154
 C985 C 0.27236 0.77243 -0.03255
 C986 C 0.22822 0.72824 0.03149
 O987 O 0.24758 0.21867 0.52396
 O988 O 0.28077 0.25222 0.47656
 O989 O 0.28072 0.25207 0.52402
 O990 O 0.24756 0.21888 0.47647
 O991 O 0.21896 0.24728 0.47656
 O992 O 0.25212 0.28048 0.52410
 O993 O 0.25216 0.28061 0.47663
 O994 O 0.21898 0.24706 0.52405
 Cu995 Cu 0.26704 0.23259 0.50024
 Cu996 Cu 0.23266 0.26672 0.50035
 C997 C 0.22787 0.22740 0.53228
 C998 C 0.27186 0.27186 0.46831
 C999 C 0.27182 0.27168 0.53235
 C1000 C 0.22787 0.22769 0.46821
 O1001 O 0.74746 0.78075 0.97609
 O1002 O 0.78092 0.74755 1.02359
 O1003 O 0.78080 0.74739 0.97610
 O1004 O 0.74757 0.78088 1.02354
 O1005 O 0.71911 0.75247 1.02375
 O1006 O 0.75234 0.71898 0.97630
 O1007 O 0.75245 0.71914 1.02379
 O1008 O 0.71900 0.75234 0.97629
 Cu1009 Cu 0.76707 0.76700 0.99980
 Cu1010 Cu 0.73286 0.73286 1.00005
 C1011 C 0.72778 0.77196 0.96793
 C1012 C 0.77212 0.72795 1.03199
 C1013 C 0.77197 0.72774 0.96791
 C1014 C 0.72793 0.77213 1.03192
 O1015 O 0.71917 0.25250 0.52390
 O1016 O 0.75223 0.21913 0.47627
 O1017 O 0.75249 0.21910 0.52373
 O1018 O 0.71891 0.25249 0.47649
 O1019 O 0.74740 0.28088 0.47628
 O1020 O 0.78098 0.24749 0.52353
 O1021 O 0.78073 0.24751 0.47606
 O1022 O 0.74767 0.28089 0.52369
 Cu1023 Cu 0.73283 0.23293 0.50013
 Cu1024 Cu 0.76708 0.26705 0.49988
 C1025 C 0.72801 0.27216 0.53206
 C1026 C 0.77186 0.22789 0.46785
 C1027 C 0.77221 0.22785 0.53186
 C1028 C 0.72768 0.27214 0.46815
 O1029 O 0.78079 0.25276 -0.02408
 O1030 O 0.74798 0.21914 0.02354
 O1031 O 0.74791 0.21906 -0.02392
 O1032 O 0.78095 0.25270 0.02333
 O1033 O 0.75215 0.28090 0.02340
 O1034 O 0.71911 0.24727 -0.02387
 O1035 O 0.71917 0.24734 0.02358
 O1036 O 0.75199 0.28095 -0.02402
 Cu1037 Cu 0.76732 0.23306 -0.00030
 Cu1038 Cu 0.73269 0.26696 -0.00023
 C1039 C 0.77176 0.27236 -0.03231
 C1040 C 0.72823 0.22778 0.03186
 C1041 C 0.72812 0.22768 -0.03212
 C1042 C 0.77195 0.27228 0.03159
 O1043 O 0.78069 0.75298 0.47652
 O1044 O 0.74764 0.71954 0.52409
 O1045 O 0.74762 0.71947 0.47665
 O1046 O 0.78072 0.75304 0.52394
 O1047 O 0.75203 0.78135 0.52392
 O1048 O 0.71893 0.74779 0.47663
 O1049 O 0.71894 0.74785 0.52406
 O1050 O 0.75199 0.78129 0.47650
 Cu1051 Cu 0.76707 0.73340 0.50031
 Cu1052 Cu 0.73257 0.76743 0.50028
 C1053 C 0.77174 0.77259 0.46824
 C1054 C 0.72788 0.72824 0.53234
 C1055 C 0.72787 0.72816 0.46841
 C1056 C 0.77179 0.77268 0.53215
 O1057 O 0.97593 0.24745 0.28080
 O1058 O 1.02358 0.28099 0.24780
 O1059 O 0.97585 0.28079 0.24756
 O1060 O 1.02355 0.24757 0.28092
 O1061 O 1.02381 0.21912 0.25263
 O1062 O 0.97613 0.25234 0.21926
 O1063 O 1.02386 0.25253 0.21951
 O1064 O 0.97620 0.21901 0.25249
 Cu1065 Cu 0.99969 0.26708 0.26711
 Cu1066 Cu 1.00003 0.23289 0.23309
 C1067 C 0.96785 0.22771 0.27209
 C1068 C 1.03202 0.27222 0.22827
 C1069 C 0.96770 0.27199 0.22795
 C1070 C 1.03191 0.22787 0.27227
 O1071 O 0.47637 0.25228 0.71923
 O1072 O 0.52404 0.21871 0.75224
 O1073 O 0.47636 0.21882 0.75238
 O1074 O 0.52403 0.25243 0.71948
 O1075 O 0.52386 0.28072 0.74794
 O1076 O 0.47624 0.24710 0.78084
 O1077 O 0.52391 0.24700 0.78069
 O1078 O 0.47620 0.28057 0.74768
 Cu1079 Cu 0.50019 0.23270 0.73295
 Cu1080 Cu 0.50002 0.26670 0.76717
 C1081 C 0.46805 0.27194 0.72800
 C1082 C 0.53226 0.22737 0.77188
 C1083 C 0.46806 0.22744 0.77204
 C1084 C 0.53223 0.27207 0.72833
 O1085 O 0.02372 0.25268 0.78066
 O1086 O -0.02402 0.21923 0.74790
 O1087 O 0.02364 0.21894 0.74795
 O1088 O -0.02398 0.25284 0.78071
 O1089 O -0.02389 0.28104 0.75210
 O1090 O 0.02377 0.24713 0.71934
 O1091 O -0.02390 0.24743 0.71929
 O1092 O 0.02382 0.28088 0.75205
 Cu1093 Cu -0.00016 0.23308 0.76721
 Cu1094 Cu -0.00003 0.26697 0.73280
 C1095 C 0.03203 0.27226 0.77174
 C1096 C -0.03222 0.22786 0.72820
 C1097 C 0.03198 0.22749 0.72828
 C1098 C -0.03223 0.27246 0.77176
 O1099 O 0.52401 0.25220 0.28049
 O1100 O 0.47622 0.21887 0.24766
 O1101 O 0.52389 0.21879 0.24743
 O1102 O 0.47636 0.25235 0.28071
 O1103 O 0.47621 0.28079 0.25235
 O1104 O 0.52376 0.24720 0.21903
 O1105 O 0.47610 0.24732 0.21929
 O1106 O 0.52386 0.28061 0.25209
 Cu1107 Cu 0.50012 0.23268 0.26695
 Cu1108 Cu 0.49997 0.26684 0.23282
 C1109 C 0.53221 0.27188 0.27167
 C1110 C 0.46789 0.22764 0.22808
 C1111 C 0.53205 0.22748 0.22775
 C1112 C 0.46807 0.27208 0.27204
 O1113 O 1.02355 0.78104 0.74775
 O1114 O 0.97597 0.74738 0.78076
 O1115 O 1.02361 0.74749 0.78073
 O1116 O 0.97582 0.78106 0.74785
 O1117 O 0.97591 0.75279 0.71939
 O1118 O 1.02372 0.71921 0.75226
 O1119 O 0.97608 0.71912 0.75228
 O1120 O 1.02363 0.75277 0.71928
 Cu1121 Cu 0.99972 0.76710 0.76714
 Cu1122 Cu 0.99984 0.73313 0.73291
 C1123 C 1.03187 0.77239 0.72812
 C1124 C 0.96782 0.72771 0.77196
 C1125 C 1.03193 0.72785 0.77190
 C1126 C 0.96758 0.77241 0.72823
 O1127 O 0.47637 0.75264 0.21898
 O1128 O 0.52397 0.71928 0.25237
 O1129 O 0.47623 0.71920 0.25207
 O1130 O 0.52399 0.75267 0.21920
 O1131 O 0.52371 0.78109 0.24754
 O1132 O 0.47596 0.74762 0.28040
 O1133 O 0.52369 0.74770 0.28069
 O1134 O 0.47611 0.78105 0.24732
 Cu1135 Cu 0.50017 0.73306 0.23280
 Cu1136 Cu 0.49984 0.76721 0.26687
 C1137 C 0.46804 0.77235 0.22764
 C1138 C 0.53211 0.72805 0.27199
 C1139 C 0.46778 0.72796 0.27161
 C1140 C 0.53211 0.77237 0.22797
 O1141 O 0.02347 0.75268 0.28077
 O1142 O -0.02380 0.71916 0.24745
 O1143 O 0.02385 0.71934 0.24765
 O1144 O -0.02423 0.75263 0.28044
 O1145 O -0.02417 0.78108 0.25208
 O1146 O 0.02388 0.74779 0.21929
 O1147 O -0.02378 0.74760 0.21908
 O1148 O 0.02352 0.78111 0.25240
 Cu1149 Cu -0.00019 0.73309 0.26696
 Cu1150 Cu -0.00013 0.76727 0.23284
 C1151 C 0.03174 0.77235 0.27203
 C1152 C -0.03197 0.72787 0.22778
 C1153 C 0.03217 0.72811 0.22807
 C1154 C -0.03251 0.77231 0.27165
 O1155 O 0.52326 0.75300 0.78124
 O1156 O 0.47568 0.71963 0.74823
 O1157 O 0.52339 0.71948 0.74832
 O1158 O 0.47562 0.75325 0.78110
 O1159 O 0.47577 0.78155 0.75259
 O1160 O 0.52352 0.74778 0.71982
 O1161 O 0.47581 0.74793 0.71972
 O1162 O 0.52339 0.78130 0.75273
 Cu1163 Cu 0.49946 0.73347 0.76760
 Cu1164 Cu 0.49963 0.76748 0.73332
 C1165 C 0.53158 0.77260 0.77240
 C1166 C 0.46749 0.72832 0.72857
 C1167 C 0.53176 0.72812 0.72869
 C1168 C 0.46746 0.77296 0.77226
 C1169 C 0.43159 0.29407 0.29431
 C1170 C 0.44855 0.28432 0.28436
 C1171 C 0.43091 0.79523 0.79411
 C1172 C 0.44788 0.78533 0.78432
 C1173 C -0.06914 0.29439 0.79332
 C1174 C -0.05201 0.28466 0.78364
 C1175 C -0.06938 0.79415 0.29337
 C1176 C -0.05228 0.78444 0.28364
 C1177 C 0.56895 0.70638 0.29393
 C1178 C 0.55185 0.71601 0.28412
 C1179 C 0.56909 0.20552 0.79361
 C1180 C 0.55198 0.21521 0.78389
 C1181 C 1.06862 0.70590 0.79378
 C1182 C 1.05160 0.71565 0.78396
 C1183 C 1.06841 0.20585 0.29440
 C1184 C 1.05147 0.21568 0.28452
 C1185 C 0.56904 0.29397 0.70672
 C1186 C 0.55195 0.28423 0.71640
 C1187 C 0.56882 0.79431 0.20624
 C1188 C 0.55178 0.78455 0.21597
 C1189 C 1.06887 0.29403 0.20660
 C1190 C 1.05179 0.28433 0.21632
 C1191 C 1.06870 0.79423 0.70641
 C1192 C 1.05160 0.78454 0.71613
 C1193 C 0.43084 0.70645 0.70678
 C1194 C 0.44784 0.71619 0.71653
 C1195 C 0.43129 0.20580 0.20620
 C1196 C 0.44825 0.21552 0.21604
 C1197 C -0.06837 0.70580 0.20579
 C1198 C -0.05146 0.71563 0.21560
 C1199 C -0.06898 0.20610 0.70651
 C1200 C -0.05190 0.21574 0.71623
 C1201 C 0.29427 0.43160 0.29443
 C1202 C 0.28452 0.44856 0.28450
 C1203 C 0.29512 -0.06921 0.79420
 C1204 C 0.28527 -0.05224 0.78442
 C1205 C 0.79411 0.43065 0.79389
 C1206 C 0.78440 0.44774 0.78415
 C1207 C 0.79409 -0.06948 0.29401
 C1208 C 0.78448 -0.05235 0.28424
 C1209 C 0.29385 0.56912 0.70658
 C1210 C 0.28411 0.55205 0.71624
 C1211 C 0.29410 1.06885 0.20626
 C1212 C 0.28431 1.05190 0.21611
 C1213 C 0.79458 0.56845 0.20597
 C1214 C 0.78472 0.55152 0.21579
 C1215 C 0.79387 1.06910 0.70684
 C1216 C 0.78414 1.05207 0.71664
 C1217 C 0.70636 0.56914 0.29397
 C1218 C 0.71599 0.55207 0.28414
 C1219 C 0.70581 1.06942 0.79436
 C1220 C 0.71542 1.05230 0.78462
 C1221 C 0.20560 0.56837 0.79402
 C1222 C 0.21532 0.55137 0.78416
 C1223 C 0.20576 1.06838 0.29444
 C1224 C 0.21557 1.05144 0.28455
 C1225 C 0.70607 0.43110 0.70673
 C1226 C 0.71572 0.44818 0.71645
 C1227 C 0.70626 -0.06889 0.20629
 C1228 C 0.71604 -0.05192 0.21607
 C1229 C 0.20614 0.43105 0.20650
 C1230 C 0.21583 0.44809 0.21625
 C1231 C 0.20650 -0.06921 0.70655
 C1232 C 0.21630 -0.05226 0.71636
 C1233 C 0.29324 0.29336 0.43121
 C1234 C 0.28372 0.28382 0.44845
 C1235 C 0.29381 0.79387 -0.06963
 C1236 C 0.28427 0.78434 -0.05240
 C1237 C 0.79329 0.29431 -0.06903
 C1238 C 0.78367 0.28455 -0.05198
 C1239 C 0.79328 0.79431 0.43138
 C1240 C 0.78368 0.78465 0.44849
 C1241 C 0.70638 0.29398 0.56882
 C1242 C 0.71603 0.28427 0.55175
 C1243 C 0.70642 0.79379 1.06885
 C1244 C 0.71599 0.78416 1.05169
 C1245 C 0.20624 0.29394 1.06873
 C1246 C 0.21587 0.28426 1.05163
 C1247 C 0.20608 0.79397 0.56865
 C1248 C 0.21575 0.78426 0.55159
 C1249 C 0.29385 0.70635 0.56890
 C1250 C 0.28416 0.71599 0.55181
 C1251 C 0.29380 0.20648 1.06874
 C1252 C 0.28415 0.21607 1.05161
 C1253 C 0.79367 0.70651 1.06903
 C1254 C 0.78409 0.71606 1.05183
 C1255 C 0.79401 0.20612 0.56856
 C1256 C 0.78432 0.21580 0.55151
 C1257 C 0.70632 0.70641 0.43167
 C1258 C 0.71592 0.71607 0.44874
 C1259 C 0.70662 0.20587 -0.06885
 C1260 C 0.71620 0.21557 -0.05178
 C1261 C 0.20668 0.70662 -0.06915
 C1262 C 0.21635 0.71630 -0.05211
 C1263 C 0.20645 0.20630 0.43116
 C1264 C 0.21598 0.21580 0.44837
 C1265 C 0.29439 0.43175 0.70539
 C1266 C 0.28453 0.44868 0.71525
 C1267 C 0.29418 0.93177 0.20537
 C1268 C 0.28434 0.94866 0.21530
 C1269 C 0.79361 0.43110 0.20601
 C1270 C 0.78390 0.44814 0.21581
 C1271 C 0.79336 0.93146 0.70673
 C1272 C 0.78369 0.94852 0.71654
 C1273 C 0.70608 0.56886 0.70684
 C1274 C 0.71581 0.55178 0.71659
 C1275 C 0.70625 0.06816 0.20590
 C1276 C 0.71613 0.05127 0.21580
 C1277 C 0.20616 0.56887 0.20595
 C1278 C 0.21580 0.55177 0.21574
 C1279 C 0.20646 0.06815 0.70672
 C1280 C 0.21626 0.05114 0.71648
 C1281 C 0.29382 0.56906 0.29343
 C1282 C 0.28417 0.55196 0.28374
 C1283 C 0.29485 0.06781 0.79447
 C1284 C 0.28506 0.05090 0.78461
 C1285 C 0.79461 0.56801 0.79433
 C1286 C 0.78478 0.55110 0.78452
 C1287 C 0.79471 0.06797 0.29430
 C1288 C 0.78490 0.05107 0.28442
 C1289 C 0.70557 0.43134 0.29354
 C1290 C 0.71531 0.44845 0.28388
 C1291 C 0.70513 0.93177 0.79427
 C1292 C 0.71491 0.94879 0.78453
 C1293 C 0.20599 0.43089 0.79320
 C1294 C 0.21570 0.44794 0.78345
 C1295 C 0.20581 0.93111 0.29354
 C1296 C 0.21561 0.94810 0.28377
 C1297 C 0.43158 0.29409 0.70593
 C1298 C 0.44850 0.28423 0.71582
 C1299 C 0.43168 0.79449 0.20544
 C1300 C 0.44857 0.78463 0.21535
 C1301 C 0.93097 0.29377 0.20593
 C1302 C 0.94800 0.28406 0.21579
 C1303 C 0.93081 0.79436 0.70641
 C1304 C 0.94786 0.78460 0.71620
 C1305 C 0.56896 0.29381 0.29327
 C1306 C 0.55192 0.28404 0.28359
 C1307 C 0.56827 0.79441 0.79415
 C1308 C 0.55125 0.78470 0.78441
 C1309 C 0.06876 0.29410 0.79343
 C1310 C 0.05171 0.28440 0.78371
 C1311 C 0.06842 0.79413 0.29385
 C1312 C 0.05139 0.78445 0.28410
 C1313 C 0.56864 0.70620 0.70701
 C1314 C 0.55151 0.71590 0.71673
 C1315 C 0.56854 0.20533 0.20568
 C1316 C 0.55160 0.21521 0.21554
 C1317 C 0.06900 0.70631 0.20622
 C1318 C 0.05193 0.71600 0.21603
 C1319 C 0.06867 0.20528 0.70663
 C1320 C 0.05166 0.21517 0.71635
 C1321 C 0.43089 0.70618 0.29324
 C1322 C 0.44801 0.71586 0.28354
 C1323 C 0.43154 0.20535 0.79398
 C1324 C 0.44848 0.21518 0.78414
 C1325 C 0.93140 0.70547 0.79391
 C1326 C 0.94830 0.71537 0.78408
 C1327 C 0.93143 0.20552 0.29406
 C1328 C 0.94833 0.21540 0.28422
 C1329 C 0.29334 0.29322 0.56925
 C1330 C 0.28375 0.28363 0.55212
 C1331 C 0.29381 0.79387 0.06852
 C1332 C 0.28426 0.78431 0.05135
 C1333 C 0.79356 0.29407 0.06826
 C1334 C 0.78391 0.28439 0.05122
 C1335 C 0.79348 0.79457 0.56872
 C1336 C 0.78380 0.78483 0.55174
 C1337 C 0.29373 0.70603 0.43134
 C1338 C 0.28410 0.71567 0.44845
 C1339 C 0.29328 0.20628 0.93081
 C1340 C 0.28372 0.21589 0.94799
 C1341 C 0.79344 0.70612 0.93093
 C1342 C 0.78388 0.71573 0.94811
 C1343 C 0.79328 0.20626 0.43085
 C1344 C 0.78373 0.21589 0.44802
 C1345 C 0.70599 0.29372 0.43129
 C1346 C 0.71561 0.28413 0.44844
 C1347 C 0.70609 0.79355 0.93106
 C1348 C 0.71573 0.78393 0.94819
 C1349 C 0.20594 0.29378 0.93123
 C1350 C 0.21561 0.28413 0.94831
 C1351 C 0.20616 0.79349 0.43099
 C1352 C 0.21582 0.78386 0.44810
 C1353 C 0.70625 0.70645 0.56912
 C1354 C 0.71590 0.71615 0.55205
 C1355 C 0.70688 0.20610 0.06887
 C1356 C 0.71641 0.21573 0.05169
 C1357 C 0.20650 0.70651 0.06826
 C1358 C 0.21618 0.71618 0.05118
 C1359 C 0.20631 0.20562 0.56912
 C1360 C 0.21592 0.21532 0.55202
   
