data_POSCAR
  _audit_creation_date              2014-09-24
  _audit_creation_method            'ToBaCCo'
  _symmetry_space_group_name_H-M    'P1'
  _symmetry_Int_Tables_number       1
  _symmetry_cell_setting            triclinic
  loop_
  _symmetry_equiv_pos_as_xyz
 x,y,z
_cell_length_a 56.7456
_cell_length_b 57.1145
_cell_length_c 56.9843
_cell_angle_alpha 90.052600
_cell_angle_beta 90.050800
_cell_angle_gamma 90.049800
loop_
  _atom_site_label
  _atom_site_type_symbol
  _atom_site_fract_x
  _atom_site_fract_y
  _atom_site_fract_z
C1 C 0.29962 0.32983 0.01252
 C2 C 0.29708 0.32786 -0.01224
 C3 C 0.31085 0.31106 -0.02416
 C4 C 0.32808 0.29749 -0.01260
 C5 C 0.33032 0.29978 0.01217
 C6 C 0.31617 0.31588 0.02419
 H7 H 0.31734 0.31685 0.04317
 H8 H 0.30991 0.31034 -0.04314
 C9 C 0.70309 0.67440 0.01216
 C10 C 0.70379 0.67545 -0.01259
 C11 C 0.68892 0.69108 -0.02445
 C12 C 0.67274 0.70545 -0.01239
 C13 C 0.67247 0.70455 0.01261
 C14 C 0.68766 0.68912 0.02439
 H15 H 0.68743 0.68852 0.04342
 H16 H 0.68927 0.69109 -0.04347
 C17 C 0.70861 0.32250 0.98832
 C18 C 0.70692 0.32407 1.01323
 C19 C 0.69029 0.30977 1.02476
 C20 C 0.67589 0.29401 1.01247
 C21 C 0.67776 0.29253 0.98779
 C22 C 0.69432 0.30650 0.97612
 H23 H 0.69511 0.30592 0.95711
 H24 H 0.68919 0.30995 1.04375
 C25 C 0.29446 0.67466 0.98836
 C26 C 0.29420 0.67418 1.01332
 C27 C 0.30851 0.69032 1.02556
 C28 C 0.32338 0.70638 1.01396
 C29 C 0.32356 0.70634 0.98899
 C30 C 0.30900 0.69072 0.97674
 H31 H 0.30925 0.69084 0.95770
 H32 H 0.30829 0.69017 1.04456
 C33 C 0.01114 0.29458 0.32500
 C34 C -0.01381 0.29459 0.32470
 C35 C -0.02572 0.30986 0.30950
 C36 C -0.01339 0.32518 0.29470
 C37 C 0.01155 0.32490 0.29475
 C38 C 0.02346 0.30955 0.30985
 H39 H 0.04257 0.30951 0.31008
 H40 H -0.04483 0.31007 0.30945
 C41 C 0.01216 0.70063 0.67110
 C42 C -0.01268 0.70335 0.67314
 C43 C -0.02469 0.68991 0.69013
 C44 C -0.01317 0.67279 0.70380
 C45 C 0.01167 0.67037 0.70147
 C46 C 0.02379 0.68421 0.68520
 H47 H 0.04283 0.68289 0.68418
 H48 H -0.04374 0.69097 0.69090
 C49 C 0.98808 0.70677 0.32273
 C50 C 1.01294 0.70602 0.32375
 C51 C 1.02526 0.69105 0.30860
 C52 C 1.01353 0.67648 0.29233
 C53 C 0.98842 0.67715 0.29167
 C54 C 0.97622 0.69242 0.30666
 H55 H 0.95711 0.69265 0.30627
 H56 H 1.04435 0.69121 0.30932
 C57 C 0.98609 0.29608 0.67424
 C58 C 1.01119 0.29513 0.67452
 C59 C 1.02337 0.30945 0.69067
 C60 C 1.01153 0.32511 0.70552
 C61 C 0.98667 0.32623 0.70478
 C62 C 0.97433 0.31154 0.68938
 H63 H 0.95523 0.31220 0.68913
 H64 H 1.04247 0.30937 0.69104
 C65 C 0.32842 0.01284 0.29945
 C66 C 0.32629 -0.01183 0.29673
 C67 C 0.30930 -0.02373 0.31032
 C68 C 0.29571 -0.01225 0.32758
 C69 C 0.29813 0.01243 0.32999
 C70 C 0.31442 0.02444 0.31600
 H71 H 0.31550 0.04336 0.31731
 H72 H 0.30848 -0.04266 0.30925
 C73 C 0.67489 0.01107 0.70548
 C74 C 0.67508 -0.01372 0.70536
 C75 C 0.69042 -0.02557 0.69015
 C76 C 0.70545 -0.01336 0.67494
 C77 C 0.70547 0.01143 0.67525
 C78 C 0.69025 0.02328 0.69058
 H79 H 0.69010 0.04227 0.69066
 H80 H 0.69040 -0.04456 0.68989
 C81 C 0.32155 0.98933 0.70855
 C82 C 0.32398 1.01401 0.70627
 C83 C 0.31003 1.02562 0.68942
 C84 C 0.29338 1.01376 0.67537
 C85 C 0.29127 0.98907 0.67790
 C86 C 0.30503 0.97742 0.69465
 H87 H 0.30406 0.95848 0.69574
 H88 H 0.31074 1.04456 0.68860
 C89 C 0.67850 0.98681 0.29191
 C90 C 0.67753 1.01151 0.29248
 C91 C 0.69270 1.02388 0.30747
 C92 C 0.70891 1.01235 0.32226
 C93 C 0.70949 0.98739 0.32181
 C94 C 0.69450 0.97513 0.30651
 H95 H 0.69483 0.95614 0.30643
 H96 H 0.69203 1.04284 0.30717
 O97 O 0.87937 0.84574 0.47707
 O98 O 0.84654 0.87764 0.52271
 O99 O 0.87889 0.84519 0.52278
 O100 O 0.84673 0.87784 0.47712
 O101 O 0.81927 0.85049 0.47668
 O102 O 0.85135 0.81793 0.52229
 O103 O 0.81903 0.85034 0.52224
 O104 O 0.85188 0.81842 0.47662
 Cu105 Cu 0.86566 0.86432 0.49998
 Cu106 Cu 0.83265 0.83154 0.49942
 C107 C 0.87126 0.82660 0.46903
 C108 C 0.82709 0.86955 0.53019
 C109 C 0.87063 0.82593 0.53032
 C110 C 0.82742 0.86979 0.46917
 O111 O 0.12046 0.15464 0.47771
 O112 O 0.15273 0.12228 0.52342
 O113 O 0.12043 0.15477 0.52332
 O114 O 0.15292 0.12232 0.47776
 O115 O 0.18045 0.14961 0.47788
 O116 O 0.14806 0.18196 0.52339
 O117 O 0.18031 0.14951 0.52349
 O118 O 0.14803 0.18188 0.47783
 Cu119 Cu 0.13387 0.13576 0.50055
 Cu120 Cu 0.16698 0.16846 0.50066
 C121 C 0.12865 0.17387 0.47003
 C122 C 0.17211 0.13030 0.53122
 C123 C 0.12863 0.17400 0.53106
 C124 C 0.17231 0.13039 0.47008
 O125 O 0.12323 0.84443 0.52353
 O126 O 0.15529 0.87673 0.47758
 O127 O 0.12284 0.84433 0.47794
 O128 O 0.15549 0.87693 0.52326
 O129 O 0.18312 0.84980 0.52317
 O130 O 0.15043 0.81715 0.47786
 O131 O 0.18286 0.84954 0.47750
 O132 O 0.15088 0.81732 0.52343
 Cu133 Cu 0.13646 0.86334 0.50057
 Cu134 Cu 0.16960 0.83075 0.50047
 C135 C 0.13153 0.82528 0.53127
 C136 C 0.17461 0.86870 0.46972
 C137 C 0.13096 0.82508 0.47024
 C138 C 0.17491 0.86898 0.53096
 O139 O 0.87968 0.15182 0.52327
 O140 O 0.84824 0.11926 0.47693
 O141 O 0.88023 0.15203 0.47755
 O142 O 0.84769 0.11901 0.52266
 O143 O 0.81983 0.14591 0.52242
 O144 O 0.85231 0.17887 0.47740
 O145 O 0.82039 0.14617 0.47677
 O146 O 0.85175 0.17865 0.52304
 Cu147 Cu 0.86676 0.13283 0.50013
 Cu148 Cu 0.83328 0.16508 0.49989
 C149 C 0.87110 0.17085 0.53106
 C150 C 0.82891 0.12715 0.46892
 C151 C 0.87184 0.17113 0.46976
 C152 C 0.82816 0.12681 0.53025
 O153 O 0.47567 0.87827 0.84599
 O154 O 0.52148 0.84578 0.87818
 O155 O 0.52157 0.87833 0.84613
 O156 O 0.47574 0.84582 0.87820
 O157 O 0.47573 0.81868 0.85064
 O158 O 0.52154 0.85118 0.81858
 O159 O 0.52144 0.81866 0.85060
 O160 O 0.47566 0.85111 0.81845
 Cu161 Cu 0.49861 0.86480 0.86486
 Cu162 Cu 0.49858 0.83222 0.83178
 C163 C 0.46786 0.87028 0.82666
 C164 C 0.52919 0.82656 0.86998
 C165 C 0.52939 0.87033 0.82684
 C166 C 0.46803 0.82658 0.87002
 O167 O 0.52301 0.15313 0.12164
 O168 O 0.47683 0.12170 0.15441
 O169 O 0.47719 0.15391 0.12201
 O170 O 0.52265 0.12083 0.15406
 O171 O 0.52338 0.14818 0.18140
 O172 O 0.47798 0.18123 0.14938
 O173 O 0.47761 0.14907 0.18173
 O174 O 0.52374 0.18042 0.14904
 Cu175 Cu 0.49986 0.13465 0.13529
 Cu176 Cu 0.50077 0.16746 0.16812
 C177 C 0.53118 0.17225 0.12967
 C178 C 0.46937 0.12997 0.17373
 C179 C 0.46987 0.17330 0.13016
 C180 C 0.53071 0.12878 0.17330
 O181 O 0.52262 0.12188 0.84564
 O182 O 0.47759 0.15535 0.87795
 O183 O 0.47683 0.12266 0.84600
 O184 O 0.52346 0.15440 0.87781
 O185 O 0.52382 0.18144 0.85021
 O186 O 0.47720 0.14969 0.81839
 O187 O 0.47797 0.18236 0.85031
 O188 O 0.52297 0.14896 0.81807
 Cu189 Cu 0.50009 0.13587 0.86463
 Cu190 Cu 0.50053 0.16833 0.83149
 C191 C 0.53042 0.12964 0.82625
 C192 C 0.47010 0.17462 0.86968
 C193 C 0.46910 0.13068 0.82669
 C194 C 0.53158 0.17339 0.86951
 O195 O 0.47569 0.84825 0.12072
 O196 O 0.52199 0.88037 0.15275
 O197 O 0.52163 0.84801 0.12049
 O198 O 0.47609 0.88031 0.15336
 O199 O 0.47632 0.85290 0.18059
 O200 O 0.52176 0.82073 0.14786
 O201 O 0.52214 0.85303 0.18005
 O202 O 0.47590 0.82091 0.14802
 Cu203 Cu 0.49882 0.86697 0.13409
 Cu204 Cu 0.49904 0.83415 0.16685
 C205 C 0.46789 0.82905 0.12887
 C206 C 0.52998 0.87222 0.17190
 C207 C 0.52950 0.82881 0.12859
 C208 C 0.46846 0.87214 0.17265
 O209 O 0.87720 0.52382 0.84578
 O210 O 0.84539 0.47786 0.87830
 O211 O 0.87765 0.47831 0.84567
 O212 O 0.84536 0.52346 0.87868
 O213 O 0.81751 0.52339 0.85165
 O214 O 0.84982 0.47825 0.81862
 O215 O 0.81759 0.47782 0.85123
 O216 O 0.84931 0.52372 0.81879
 Cu217 Cu 0.86418 0.50085 0.86483
 Cu218 Cu 0.83076 0.50077 0.83239
 C219 C 0.86872 0.53158 0.82665
 C220 C 0.82599 0.47003 0.87036
 C221 C 0.86936 0.47066 0.82641
 C222 C 0.82590 0.53116 0.87082
 O223 O 0.15331 0.47643 0.12180
 O224 O 0.12085 0.52282 0.15301
 O225 O 0.15382 0.52191 0.12114
 O226 O 0.12037 0.47718 0.15367
 O227 O 0.14750 0.47739 0.18141
 O228 O 0.18091 0.52203 0.14892
 O229 O 0.14799 0.52296 0.18073
 O230 O 0.18038 0.47662 0.14960
 Cu231 Cu 0.13434 0.49958 0.13465
 Cu232 Cu 0.16688 0.49977 0.16797
 C233 C 0.17249 0.46869 0.13029
 C234 C 0.12887 0.53083 0.17224
 C235 C 0.17318 0.52952 0.12939
 C236 C 0.12822 0.46962 0.17313
 O237 O 0.84500 0.52293 0.12141
 O238 O 0.87803 0.47820 0.15437
 O239 O 0.84582 0.47740 0.12178
 O240 O 0.87747 0.52370 0.15391
 O241 O 0.84988 0.52354 0.18114
 O242 O 0.81821 0.47726 0.14900
 O243 O 0.85039 0.47807 0.18156
 O244 O 0.81744 0.52277 0.14867
 Cu245 Cu 0.86434 0.50060 0.13513
 Cu246 Cu 0.83121 0.50042 0.16781
 C247 C 0.82548 0.53042 0.12934
 C248 C 0.86989 0.47052 0.17365
 C249 C 0.82657 0.46942 0.12986
 C250 C 0.86920 0.53143 0.17312
 O251 O 0.12062 0.47663 0.84756
 O252 O 0.15286 0.52275 0.87945
 O253 O 0.12051 0.52220 0.84691
 O254 O 0.15348 0.47713 0.87961
 O255 O 0.18080 0.47714 0.85212
 O256 O 0.14801 0.52211 0.81958
 O257 O 0.18029 0.52269 0.85205
 O258 O 0.14801 0.47661 0.82013
 Cu259 Cu 0.13413 0.49967 0.86614
 Cu260 Cu 0.16702 0.49963 0.83324
 C261 C 0.12873 0.46878 0.82834
 C262 C 0.17211 0.53060 0.87124
 C263 C 0.12863 0.52982 0.82759
 C264 C 0.17283 0.46945 0.87145
 C265 C 0.25415 0.37304 0.05439
 C266 C 0.24444 0.35664 0.03886
 C267 C 0.25919 0.34233 0.02542
 C268 C 0.28381 0.34446 0.02723
 C269 C 0.29341 0.36066 0.04317
 C270 C 0.27865 0.37492 0.05661
 C271 C 0.23909 0.38828 0.06776
 C272 C 0.22682 0.40140 0.07894
 C273 C 0.21261 0.41747 0.09225
 C274 C 0.19122 0.42562 0.08316
 C275 C 0.17795 0.44204 0.09568
 C276 C 0.18596 0.45055 0.11746
 C277 C 0.20735 0.44201 0.12658
 C278 C 0.22057 0.42560 0.11404
 H279 H 0.22550 0.35500 0.03705
 H280 H 0.25144 0.32974 0.01346
 H281 H 0.31233 0.36256 0.04486
 H282 H 0.28634 0.38755 0.06857
 H283 H 0.18493 0.41948 0.06628
 H284 H 0.16158 0.44826 0.08817
 H285 H 0.21402 0.44819 0.14328
 H286 H 0.23713 0.41945 0.12121
 C287 C 0.74557 0.62631 0.05163
 C288 C 0.74706 0.65040 0.05599
 C289 C 0.73318 0.66603 0.04315
 C290 C 0.71775 0.65773 0.02573
 C291 C 0.71618 0.63352 0.02158
 C292 C 0.73009 0.61791 0.03441
 C293 C 0.75973 0.61022 0.06498
 C294 C 0.77147 0.59668 0.07624
 C295 C 0.78530 0.58043 0.08975
 C296 C 0.80697 0.57244 0.08121
 C297 C 0.82019 0.55633 0.09417
 C298 C 0.81186 0.54798 0.11587
 C299 C 0.79012 0.55625 0.12436
 C300 C 0.77695 0.57236 0.11137
 H301 H 0.75893 0.65709 0.06931
 H302 H 0.73459 0.68463 0.04663
 H303 H 0.70414 0.62675 0.00847
 H304 H 0.72872 0.59930 0.03097
 H305 H 0.81360 0.57858 0.06448
 H306 H 0.83683 0.55030 0.08713
 H307 H 0.78319 0.55017 0.14098
 H308 H 0.76019 0.57842 0.11815
 C309 C 0.74908 0.37109 0.94729
 C310 C 0.73239 0.37933 0.96337
 C311 C 0.71911 0.36352 0.97662
 C312 C 0.72255 0.33929 0.97408
 C313 C 0.73908 0.33112 0.95766
 C314 C 0.75234 0.34695 0.94440
 C315 C 0.76278 0.38744 0.93376
 C316 C 0.77412 0.40133 0.92252
 C317 C 0.78746 0.41812 0.90917
 C318 C 0.77870 0.42642 0.88778
 C319 C 0.79133 0.44316 0.87505
 C320 C 0.81292 0.45185 0.88358
 C321 C 0.82167 0.44327 0.90502
 C322 C 0.80900 0.42652 0.91772
 H323 H 0.72963 0.39796 0.96566
 H324 H 0.70619 0.37017 0.98891
 H325 H 0.74190 0.31250 0.95536
 H326 H 0.76516 0.34039 0.93195
 H327 H 0.76204 0.42006 0.88101
 H328 H 0.78409 0.44939 0.85862
 H329 H 0.83822 0.44960 0.91208
 H330 H 0.81593 0.42024 0.93428
 C331 C 0.25018 0.62991 0.94672
 C332 C 0.27458 0.63022 0.94313
 C333 C 0.28888 0.64507 0.95645
 C334 C 0.27895 0.65969 0.97364
 C335 C 0.25438 0.65972 0.97680
 C336 C 0.24008 0.64480 0.96346
 C337 C 0.23573 0.61387 0.93353
 C338 C 0.22406 0.60007 0.92248
 C339 C 0.21060 0.58320 0.90930
 C340 C 0.21921 0.57476 0.88790
 C341 C 0.20661 0.55779 0.87541
 C342 C 0.18519 0.54899 0.88419
 C343 C 0.17658 0.55773 0.90564
 C344 C 0.18923 0.57472 0.91810
 H345 H 0.28257 0.61878 0.93023
 H346 H 0.30777 0.64481 0.95374
 H347 H 0.24636 0.67105 0.98977
 H348 H 0.22121 0.64472 0.96635
 H349 H 0.23578 0.58117 0.88096
 H350 H 0.21373 0.55144 0.85897
 H351 H 0.16016 0.55134 0.91288
 H352 H 0.18243 0.58108 0.93468
 C353 C 0.05110 0.25240 0.37291
 C354 C 0.05501 0.25061 0.34872
 C355 C 0.04198 0.26435 0.33312
 C356 C 0.02483 0.27993 0.34157
 C357 C 0.02112 0.28178 0.36588
 C358 C 0.03414 0.26801 0.38146
 C359 C 0.06464 0.23842 0.38900
 C360 C 0.07598 0.22685 0.40261
 C361 C 0.08948 0.21322 0.41903
 C362 C 0.08079 0.19179 0.42718
 C363 C 0.09364 0.17883 0.44359
 C364 C 0.11538 0.18719 0.45209
 C365 C 0.12405 0.20867 0.44363
 C366 C 0.11117 0.22159 0.42721
 H367 H 0.06814 0.23862 0.34193
 H368 H 0.04513 0.26274 0.31444
 H369 H 0.00824 0.29395 0.37277
 H370 H 0.03105 0.26961 0.40015
 H371 H 0.06400 0.18517 0.42097
 H372 H 0.08646 0.16238 0.44976
 H373 H 0.14071 0.21560 0.44981
 H374 H 0.11805 0.23817 0.42103
 C375 C 0.05442 0.74506 0.62725
 C376 C 0.03897 0.75499 0.64361
 C377 C 0.02539 0.74057 0.65812
 C378 C 0.02699 0.71608 0.65623
 C379 C 0.04285 0.70627 0.64006
 C380 C 0.05642 0.72069 0.62560
 C381 C 0.06797 0.75978 0.61184
 C382 C 0.07929 0.77178 0.59860
 C383 C 0.09279 0.78571 0.58242
 C384 C 0.11455 0.77758 0.57430
 C385 C 0.12731 0.79059 0.55788
 C386 C 0.11842 0.81195 0.54933
 C387 C 0.09663 0.82011 0.55781
 C388 C 0.08391 0.80705 0.57424
 H389 H 0.03734 0.77383 0.64507
 H390 H 0.01351 0.74849 0.67069
 H391 H 0.04437 0.68744 0.63835
 H392 H 0.06832 0.71284 0.61300
 H393 H 0.12156 0.76106 0.58048
 H394 H 0.14401 0.78381 0.55172
 H395 H 0.08930 0.83647 0.55158
 H396 H 0.06704 0.81348 0.58038
 C397 C 0.94781 0.74989 0.36962
 C398 C 0.96490 0.76009 0.35513
 C399 C 0.97788 0.74616 0.33961
 C400 C 0.97398 0.72188 0.33857
 C401 C 0.95660 0.71184 0.35294
 C402 C 0.94363 0.72576 0.36840
 C403 C 0.93469 0.76399 0.38596
 C404 C 0.92358 0.77540 0.39991
 C405 C 0.91023 0.78859 0.41682
 C406 C 0.91895 0.80981 0.42553
 C407 C 0.90621 0.82229 0.44241
 C408 C 0.88456 0.81366 0.45082
 C409 C 0.87588 0.79238 0.44182
 C410 C 0.88865 0.77994 0.42495
 H411 H 0.96824 0.77875 0.35590
 H412 H 0.99101 0.75428 0.32849
 H413 H 0.95336 0.69315 0.35244
 H414 H 0.93047 0.71769 0.37953
 H415 H 0.93566 0.81665 0.41939
 H416 H 0.91339 0.83861 0.44897
 H417 H 0.85929 0.78525 0.44790
 H418 H 0.88176 0.76351 0.41835
 C419 C 0.94484 0.25077 0.63020
 C420 C 0.94140 0.27503 0.62956
 C421 C 0.95452 0.28969 0.64423
 C422 C 0.97137 0.28025 0.65961
 C423 C 0.97433 0.25583 0.66063
 C424 C 0.96120 0.24117 0.64590
 C425 C 0.93197 0.23592 0.61429
 C426 C 0.92120 0.22392 0.60054
 C427 C 0.90831 0.21011 0.58372
 C428 C 0.88664 0.21812 0.57521
 C429 C 0.87444 0.20524 0.55823
 C430 C 0.88378 0.18415 0.54949
 C431 C 0.90550 0.17613 0.55832
 C432 C 0.91768 0.18906 0.57531
 H433 H 0.92879 0.28263 0.61749
 H434 H 0.95196 0.30845 0.64319
 H435 H 0.98704 0.24820 0.67256
 H436 H 0.96396 0.22242 0.64657
 H437 H 0.87926 0.23443 0.58155
 H438 H 0.85777 0.21191 0.55183
 H439 H 0.91317 0.15997 0.55197
 H440 H 0.93448 0.18273 0.58174
 C441 C 0.37248 0.05455 0.25467
 C442 C 0.37427 0.05659 0.27908
 C443 C 0.35972 0.04322 0.29362
 C444 C 0.34331 0.02754 0.28388
 C445 C 0.34126 0.02592 0.25934
 C446 C 0.35586 0.03929 0.24481
 C447 C 0.38804 0.06782 0.23983
 C448 C 0.40141 0.07890 0.22773
 C449 C 0.41776 0.09210 0.21368
 C450 C 0.42634 0.11358 0.22186
 C451 C 0.44292 0.12605 0.20873
 C452 C 0.45118 0.11715 0.18721
 C453 C 0.44223 0.09565 0.17901
 C454 C 0.42564 0.08321 0.19219
 H455 H 0.38707 0.06835 0.28689
 H456 H 0.36155 0.04476 0.31248
 H457 H 0.32852 0.01416 0.25148
 H458 H 0.35430 0.03762 0.22594
 H459 H 0.42039 0.12060 0.23850
 H460 H 0.44944 0.14254 0.21554
 H461 H 0.44822 0.08832 0.16253
 H462 H 0.41915 0.06657 0.18573
 C463 C 0.62688 0.05086 0.74784
 C464 C 0.61825 0.03404 0.73214
 C465 C 0.63385 0.02107 0.71831
 C466 C 0.65828 0.02469 0.72018
 C467 C 0.66682 0.04169 0.73586
 C468 C 0.65120 0.05467 0.74967
 C469 C 0.61078 0.06441 0.76183
 C470 C 0.59719 0.07583 0.77339
 C471 C 0.58084 0.08953 0.78695
 C472 C 0.57250 0.08118 0.80848
 C473 C 0.55625 0.09431 0.82141
 C474 C 0.54811 0.11598 0.81293
 C475 C 0.55675 0.12429 0.79133
 C476 C 0.57299 0.11114 0.77845
 H477 H 0.59946 0.03103 0.73050
 H478 H 0.62688 0.00831 0.70607
 H479 H 0.68559 0.04478 0.73751
 H480 H 0.65806 0.06768 0.76171
 H481 H 0.57846 0.06446 0.81522
 H482 H 0.54995 0.08741 0.83795
 H483 H 0.55085 0.14089 0.78430
 H484 H 0.57932 0.11776 0.76180
 C485 C 0.36948 0.94767 0.74926
 C486 C 0.34514 0.94547 0.75264
 C487 C 0.32951 0.95895 0.73931
 C488 C 0.33810 0.97488 0.72260
 C489 C 0.36254 0.97673 0.71906
 C490 C 0.37814 0.96327 0.73240
 C491 C 0.38564 0.93395 0.76303
 C492 C 0.39940 0.92259 0.77443
 C493 C 0.41608 0.90916 0.78787
 C494 C 0.42443 0.91769 0.80936
 C495 C 0.44112 0.90496 0.82211
 C496 C 0.44972 0.88350 0.81350
 C497 C 0.44107 0.87499 0.79196
 C498 C 0.42437 0.88776 0.77924
 H499 H 0.33825 0.93341 0.76560
 H500 H 0.31073 0.95720 0.74222
 H501 H 0.36952 0.98863 0.70600
 H502 H 0.39693 0.96502 0.72956
 H503 H 0.41815 0.93427 0.81618
 H504 H 0.44741 0.91200 0.83862
 H505 H 0.44731 0.85855 0.78483
 H506 H 0.41806 0.88101 0.76261
 C507 C 0.63119 0.94685 0.24874
 C508 C 0.63233 0.94281 0.27294
 C509 C 0.64799 0.95561 0.28688
 C510 C 0.66262 0.97270 0.27678
 C511 C 0.66170 0.97641 0.25241
 C512 C 0.64598 0.96360 0.23848
 C513 C 0.61455 0.93401 0.23464
 C514 C 0.60034 0.92319 0.22322
 C515 C 0.58309 0.91018 0.21000
 C516 C 0.57462 0.88884 0.21861
 C517 C 0.55744 0.87641 0.20616
 C518 C 0.54847 0.88520 0.18489
 C519 C 0.55720 0.90662 0.17630
 C520 C 0.57439 0.91902 0.18880
 H521 H 0.62097 0.92990 0.28107
 H522 H 0.64840 0.95252 0.30563
 H523 H 0.67301 0.98932 0.24425
 H524 H 0.64528 0.96683 0.21976
 H525 H 0.58120 0.88186 0.23503
 H526 H 0.55112 0.85999 0.21326
 H527 H 0.55067 0.91387 0.16000
 H528 H 0.58079 0.93555 0.18200
 C529 C 0.37379 0.25504 0.94654
 C530 C 0.34987 0.25658 0.94082
 C531 C 0.33481 0.27062 0.95421
 C532 C 0.34336 0.28319 0.97383
 C533 C 0.36767 0.28178 0.97898
 C534 C 0.38265 0.26775 0.96556
 C535 C 0.38939 0.24067 0.93280
 C536 C 0.40278 0.22879 0.92148
 C537 C 0.41910 0.21483 0.90815
 C538 C 0.42745 0.22289 0.88652
 C539 C 0.44389 0.20972 0.87389
 C540 C 0.45222 0.18827 0.88277
 C541 C 0.44355 0.18021 0.90444
 C542 C 0.42712 0.19343 0.91704
 H543 H 0.34283 0.24685 0.92607
 H544 H 0.31629 0.27096 0.94963
 H545 H 0.37542 0.29218 0.99286
 H546 H 0.40123 0.26701 0.96991
 H547 H 0.42140 0.23945 0.87949
 H548 H 0.45019 0.21642 0.85727
 H549 H 0.44960 0.16379 0.91177
 H550 H 0.42080 0.18705 0.93379
 C551 C 0.62558 0.74704 0.94761
 C552 C 0.64913 0.74486 0.94078
 C553 C 0.66463 0.73110 0.95391
 C554 C 0.65692 0.71944 0.97438
 C555 C 0.63295 0.72147 0.98070
 C556 C 0.61751 0.73525 0.96752
 C557 C 0.60961 0.76114 0.93402
 C558 C 0.59613 0.77286 0.92267
 C559 C 0.57986 0.78669 0.90915
 C560 C 0.57182 0.77853 0.88741
 C561 C 0.55554 0.79163 0.87452
 C562 C 0.54707 0.81310 0.88323
 C563 C 0.55545 0.82126 0.90501
 C564 C 0.57173 0.80812 0.91788
 H565 H 0.65555 0.75389 0.92533
 H566 H 0.68288 0.73028 0.94844
 H567 H 0.62582 0.71175 0.99535
 H568 H 0.59920 0.73650 0.97274
 H569 H 0.57799 0.76196 0.88050
 H570 H 0.54945 0.78485 0.85783
 H571 H 0.54927 0.83769 0.91223
 H572 H 0.57784 0.81458 0.93470
 C573 C 0.36775 0.75109 0.05400
 C574 C 0.36392 0.72797 0.06104
 C575 C 0.34897 0.71343 0.04809
 C576 C 0.33771 0.72165 0.02757
 C577 C 0.34116 0.74529 0.02117
 C578 C 0.35617 0.75979 0.03418
 C579 C 0.38401 0.76558 0.06689
 C580 C 0.39798 0.77724 0.07777
 C581 C 0.41501 0.79065 0.09086
 C582 C 0.42357 0.78213 0.11224
 C583 C 0.44065 0.79469 0.12470
 C584 C 0.44943 0.81599 0.11590
 C585 C 0.44058 0.82452 0.09446
 C586 C 0.42349 0.81190 0.08203
 H587 H 0.37283 0.72103 0.07635
 H588 H 0.34720 0.69537 0.05360
 H589 H 0.33189 0.75282 0.00640
 H590 H 0.35875 0.77779 0.02875
 H591 H 0.41717 0.76567 0.11922
 H592 H 0.44707 0.78764 0.14113
 H593 H 0.44696 0.84085 0.08720
 H594 H 0.41703 0.81864 0.06547
 C595 C 0.62841 0.25066 0.05190
 C596 C 0.64438 0.24041 0.03626
 C597 C 0.65991 0.25447 0.02343
 C598 C 0.65949 0.27895 0.02602
 C599 C 0.64351 0.28908 0.04186
 C600 C 0.62803 0.27502 0.05468
 C601 C 0.61241 0.23630 0.06518
 C602 C 0.59884 0.22459 0.07646
 C603 C 0.58243 0.21101 0.09008
 C604 C 0.57376 0.18974 0.08144
 C605 C 0.55728 0.17694 0.09443
 C606 C 0.54926 0.18530 0.11625
 C607 C 0.55828 0.20660 0.12487
 C608 C 0.57474 0.21935 0.11185
 H609 H 0.64487 0.22158 0.03403
 H610 H 0.67230 0.24627 0.01156
 H611 H 0.64290 0.30791 0.04411
 H612 H 0.61575 0.28313 0.06675
 H613 H 0.57958 0.18314 0.06458
 H614 H 0.55068 0.16062 0.08729
 H615 H 0.55248 0.21354 0.14158
 H616 H 0.58132 0.23581 0.11870
 C617 C 0.25069 0.05340 0.62884
 C618 C 0.24095 0.03462 0.64121
 C619 C 0.25489 0.02159 0.65664
 C620 C 0.27900 0.02695 0.65982
 C621 C 0.28838 0.04628 0.64750
 C622 C 0.27438 0.05925 0.63210
 C623 C 0.23646 0.06667 0.61273
 C624 C 0.22482 0.07787 0.59906
 C625 C 0.21123 0.09129 0.58252
 C626 C 0.18967 0.08273 0.57422
 C627 C 0.17679 0.09552 0.55768
 C628 C 0.18536 0.11706 0.54923
 C629 C 0.20697 0.12559 0.55786
 C630 C 0.21981 0.11277 0.57438
 H631 H 0.22252 0.03014 0.63905
 H632 H 0.24651 0.00782 0.66663
 H633 H 0.30682 0.05093 0.64903
 H634 H 0.28211 0.07376 0.62257
 H635 H 0.18289 0.06611 0.58039
 H636 H 0.16023 0.08846 0.55140
 H637 H 0.21407 0.14209 0.55172
 H638 H 0.23650 0.11954 0.58068
 C639 C 0.75262 0.05230 0.36768
 C640 C 0.76181 0.03276 0.35609
 C641 C 0.74763 0.01979 0.34076
 C642 C 0.72382 0.02594 0.33697
 C643 C 0.71512 0.04622 0.34823
 C644 C 0.72935 0.05913 0.36352
 C645 C 0.76680 0.06514 0.38423
 C646 C 0.77822 0.07598 0.39842
 C647 C 0.79134 0.08903 0.41566
 C648 C 0.81267 0.08035 0.42440
 C649 C 0.82501 0.09280 0.44164
 C650 C 0.81613 0.11409 0.45038
 C651 C 0.79474 0.12272 0.44136
 C652 C 0.78245 0.11026 0.42413
 H653 H 0.77993 0.02751 0.35893
 H654 H 0.75556 0.00525 0.33150
 H655 H 0.69693 0.05155 0.34617
 H656 H 0.72204 0.07424 0.37241
 H657 H 0.81968 0.06391 0.41801
 H658 H 0.84142 0.08568 0.44821
 H659 H 0.78741 0.13905 0.44768
 H660 H 0.76593 0.11711 0.41753
 C661 C 0.74772 0.94677 0.62696
 C662 C 0.73204 0.96367 0.61843
 C663 C 0.71824 0.97666 0.63402
 C664 C 0.72013 0.97300 0.65833
 C665 C 0.73578 0.95592 0.66677
 C666 C 0.74955 0.94292 0.65116
 C667 C 0.76175 0.93327 0.61087
 C668 C 0.77340 0.92197 0.59730
 C669 C 0.78717 0.90852 0.58093
 C670 C 0.77871 0.88706 0.57258
 C671 C 0.79180 0.87423 0.55625
 C672 C 0.81356 0.88274 0.54805
 C673 C 0.82202 0.90426 0.55671
 C674 C 0.80889 0.91705 0.57304
 H675 H 0.73040 0.96671 0.59974
 H676 H 0.70602 0.98949 0.62714
 H677 H 0.73744 0.95281 0.68545
 H678 H 0.76159 0.92985 0.65794
 H679 H 0.76191 0.88030 0.57857
 H680 H 0.78478 0.85775 0.54993
 H681 H 0.83869 0.91131 0.55075
 H682 H 0.81560 0.93366 0.57938
 C683 C 0.25321 0.94662 0.37297
 C684 C 0.26600 0.96556 0.38187
 C685 C 0.28001 0.97909 0.36699
 C686 C 0.28131 0.97414 0.34273
 C687 C 0.26861 0.95465 0.33412
 C688 C 0.25459 0.94114 0.34909
 C689 C 0.23899 0.93266 0.38851
 C690 C 0.22729 0.92115 0.40187
 C691 C 0.21361 0.90758 0.41821
 C692 C 0.19209 0.91615 0.42655
 C693 C 0.17923 0.90339 0.44311
 C694 C 0.18778 0.88187 0.45159
 C695 C 0.20932 0.87329 0.44289
 C696 C 0.22214 0.88608 0.42633
 H697 H 0.26538 0.96972 0.40041
 H698 H 0.29052 0.99289 0.37476
 H699 H 0.26886 0.95023 0.31564
 H700 H 0.24479 0.92645 0.34202
 H701 H 0.18535 0.93281 0.42042
 H702 H 0.16273 0.91049 0.44944
 H703 H 0.21641 0.85680 0.44904
 H704 H 0.23880 0.87931 0.42003
 C705 C 0.05202 0.37065 0.75000
 C706 C 0.03490 0.35595 0.75983
 C707 C 0.02185 0.34086 0.74546
 C708 C 0.02570 0.34048 0.72110
 C709 C 0.04309 0.35508 0.71143
 C710 C 0.05613 0.37010 0.72579
 C711 C 0.06521 0.38657 0.76455
 C712 C 0.07639 0.40022 0.77628
 C713 C 0.08984 0.41684 0.78978
 C714 C 0.08117 0.42526 0.81116
 C715 C 0.09392 0.44199 0.82385
 C716 C 0.11553 0.45055 0.81528
 C717 C 0.12419 0.44181 0.79387
 C718 C 0.11141 0.42508 0.78122
 H719 H 0.03160 0.35621 0.77855
 H720 H 0.00869 0.32957 0.75329
 H721 H 0.04629 0.35510 0.69269
 H722 H 0.06931 0.38141 0.71800
 H723 H 0.06446 0.41904 0.81793
 H724 H 0.08675 0.44836 0.84027
 H725 H 0.14075 0.44802 0.78677
 H726 H 0.11827 0.41872 0.76466
 C727 C 0.05354 0.63132 0.24859
 C728 C 0.03393 0.64299 0.23947
 C729 C 0.02091 0.65821 0.25367
 C730 C 0.02710 0.66179 0.27743
 C731 C 0.04742 0.65041 0.28607
 C732 C 0.06037 0.63524 0.27182
 C733 C 0.06647 0.61494 0.23436
 C734 C 0.07740 0.60091 0.22290
 C735 C 0.09057 0.58383 0.20976
 C736 C 0.08180 0.57514 0.18850
 C737 C 0.09433 0.55801 0.17615
 C738 C 0.11580 0.54934 0.18497
 C739 C 0.12452 0.55833 0.20628
 C740 C 0.11197 0.57544 0.21857
 H741 H 0.02867 0.64034 0.22138
 H742 H 0.00635 0.66756 0.24580
 H743 H 0.05277 0.65229 0.30422
 H744 H 0.07553 0.62626 0.27907
 H745 H 0.06521 0.58147 0.18155
 H746 H 0.08713 0.55146 0.15981
 H747 H 0.14098 0.55205 0.21355
 H748 H 0.11889 0.58201 0.23504
 C749 C 0.94702 0.37348 0.25264
 C750 C 0.94299 0.34937 0.25062
 C751 C 0.95586 0.33365 0.26437
 C752 C 0.97296 0.34190 0.28019
 C753 C 0.97674 0.36612 0.28230
 C754 C 0.96390 0.38182 0.26852
 C755 C 0.93369 0.38970 0.23861
 C756 C 0.92251 0.40339 0.22699
 C757 C 0.90913 0.41987 0.21334
 C758 C 0.88737 0.42792 0.22159
 C759 C 0.87452 0.44427 0.20860
 C760 C 0.88328 0.45281 0.18714
 C761 C 0.90511 0.44449 0.17892
 C762 C 0.91794 0.42814 0.19196
 H763 H 0.92993 0.34274 0.23843
 H764 H 0.95265 0.31504 0.26254
 H765 H 0.98959 0.37285 0.29465
 H766 H 0.96706 0.40045 0.27031
 H767 H 0.88040 0.42165 0.23813
 H768 H 0.85779 0.45031 0.21542
 H769 H 0.91235 0.45071 0.16249
 H770 H 0.93477 0.42203 0.18543
 C771 C 0.94558 0.62788 0.74663
 C772 C 0.96450 0.61887 0.73382
 C773 C 0.97802 0.63358 0.71965
 C774 C 0.97311 0.65778 0.71823
 C775 C 0.95359 0.66649 0.73088
 C776 C 0.94008 0.65168 0.74506
 C777 C 0.93172 0.61252 0.76111
 C778 C 0.92033 0.59926 0.77304
 C779 C 0.90695 0.58302 0.78699
 C780 C 0.91604 0.57479 0.80828
 C781 C 0.90348 0.55825 0.82137
 C782 C 0.88167 0.54971 0.81328
 C783 C 0.87257 0.55830 0.79197
 C784 C 0.88516 0.57483 0.77893
 H785 H 0.96866 0.60037 0.73458
 H786 H 0.99181 0.62574 0.70917
 H787 H 0.94920 0.68493 0.73051
 H788 H 0.92540 0.65883 0.75487
 H789 H 0.93293 0.58097 0.81465
 H790 H 0.91098 0.55200 0.83768
 H791 H 0.85584 0.55210 0.78525
 H792 H 0.87799 0.58104 0.76245
 C793 C 0.74806 0.62951 0.94735
 C794 C 0.72374 0.63008 0.94331
 C795 C 0.70944 0.64525 0.95620
 C796 C 0.71930 0.65997 0.97336
 C797 C 0.74378 0.65958 0.97713
 C798 C 0.75809 0.64434 0.96422
 C799 C 0.76252 0.61345 0.93431
 C800 C 0.77415 0.59968 0.92323
 C801 C 0.78750 0.58295 0.90985
 C802 C 0.77866 0.57462 0.88849
 C803 C 0.79121 0.55788 0.87570
 C804 C 0.81282 0.54922 0.88416
 C805 C 0.82165 0.55783 0.90559
 C806 C 0.80905 0.57458 0.91835
 H807 H 0.71580 0.61867 0.93031
 H808 H 0.69061 0.64524 0.95308
 H809 H 0.75175 0.67096 0.99011
 H810 H 0.77690 0.64406 0.96745
 H811 H 0.76197 0.58096 0.88178
 H812 H 0.78393 0.55164 0.85928
 H813 H 0.83822 0.55153 0.91258
 H814 H 0.81602 0.58088 0.93490
 C815 C 0.25337 0.37321 0.94792
 C816 C 0.25510 0.34953 0.94193
 C817 C 0.26956 0.33458 0.95498
 C818 C 0.28235 0.34301 0.97453
 C819 C 0.28074 0.36709 0.97996
 C820 C 0.26629 0.38195 0.96688
 C821 C 0.23872 0.38874 0.93442
 C822 C 0.22671 0.40209 0.92323
 C823 C 0.21274 0.41840 0.90995
 C824 C 0.19136 0.42668 0.91892
 C825 C 0.17821 0.44315 0.90633
 C826 C 0.18634 0.45156 0.88458
 C827 C 0.20776 0.44295 0.87563
 C828 C 0.22085 0.42650 0.88825
 H829 H 0.24523 0.34259 0.92720
 H830 H 0.27006 0.31623 0.95020
 H831 H 0.29130 0.37475 0.99379
 H832 H 0.26542 0.40036 0.97141
 H833 H 0.18494 0.42056 0.93574
 H834 H 0.16180 0.44941 0.91370
 H835 H 0.21452 0.44905 0.85895
 H836 H 0.23741 0.42025 0.88116
 C837 C 0.25351 0.62569 0.05253
 C838 C 0.25525 0.64900 0.05981
 C839 C 0.26878 0.66491 0.04697
 C840 C 0.28063 0.65787 0.02635
 C841 C 0.27910 0.63412 0.01958
 C842 C 0.26555 0.61826 0.03248
 C843 C 0.23950 0.60938 0.06576
 C844 C 0.22777 0.59574 0.07688
 C845 C 0.21386 0.57942 0.09021
 C846 C 0.22190 0.57152 0.11202
 C847 C 0.20857 0.55543 0.12488
 C848 C 0.18699 0.54702 0.11605
 C849 C 0.17898 0.55519 0.09416
 C850 C 0.19235 0.57129 0.08134
 H851 H 0.24602 0.65493 0.07535
 H852 H 0.26919 0.68298 0.05276
 H853 H 0.28897 0.62753 0.00475
 H854 H 0.26463 0.60014 0.02690
 H855 H 0.23852 0.57771 0.11905
 H856 H 0.21525 0.54949 0.14165
 H857 H 0.16246 0.54906 0.08687
 H858 H 0.18597 0.57730 0.06447
 C859 C 0.74972 0.36979 0.05374
 C860 C 0.75940 0.35783 0.03464
 C861 C 0.74547 0.34253 0.02141
 C862 C 0.72143 0.33913 0.02686
 C863 C 0.71216 0.35090 0.04661
 C864 C 0.72615 0.36617 0.05979
 C865 C 0.76379 0.38607 0.06699
 C866 C 0.77524 0.39998 0.07812
 C867 C 0.78851 0.41687 0.09141
 C868 C 0.80992 0.42544 0.08276
 C869 C 0.82244 0.44240 0.09537
 C870 C 0.81366 0.45102 0.11679
 C871 C 0.79222 0.44214 0.12542
 C872 C 0.77974 0.42518 0.11278
 H873 H 0.77775 0.36028 0.03000
 H874 H 0.75377 0.33291 0.00731
 H875 H 0.69377 0.34917 0.05138
 H876 H 0.71846 0.37538 0.07455
 H877 H 0.81684 0.41915 0.06620
 H878 H 0.83888 0.44887 0.08824
 H879 H 0.78498 0.44839 0.14184
 H880 H 0.76316 0.41869 0.11960
 C881 C 0.94723 0.74639 0.62737
 C882 C 0.96619 0.73344 0.61868
 C883 C 0.97938 0.71925 0.63368
 C884 C 0.97406 0.71792 0.65786
 C885 C 0.95455 0.73078 0.66625
 C886 C 0.94138 0.74498 0.65116
 C887 C 0.93360 0.76077 0.61170
 C888 C 0.92233 0.77259 0.59825
 C889 C 0.90900 0.78641 0.58183
 C890 C 0.88737 0.77816 0.57338
 C891 C 0.87477 0.79112 0.55680
 C892 C 0.88367 0.81255 0.54840
 C893 C 0.90533 0.82081 0.55718
 C894 C 0.91791 0.80779 0.57377
 H895 H 0.97062 0.73408 0.60020
 H896 H 0.99318 0.70864 0.62606
 H897 H 0.94986 0.73052 0.68467
 H898 H 0.92666 0.75490 0.65806
 H899 H 0.88034 0.76160 0.57946
 H900 H 0.85816 0.78427 0.55042
 H901 H 0.91267 0.83722 0.55108
 H902 H 0.93467 0.81431 0.58015
 C903 C 0.94647 0.25041 0.37100
 C904 C 0.96299 0.24051 0.35570
 C905 C 0.97572 0.25480 0.34032
 C906 C 0.97214 0.27915 0.34025
 C907 C 0.95527 0.28890 0.35539
 C908 C 0.94254 0.27460 0.37072
 C909 C 0.93371 0.23590 0.38726
 C910 C 0.92293 0.22412 0.40114
 C911 C 0.90995 0.21049 0.41797
 C912 C 0.91915 0.18939 0.42644
 C913 C 0.90671 0.17648 0.44321
 C914 C 0.88490 0.18454 0.45174
 C915 C 0.87577 0.20571 0.44300
 C916 C 0.88822 0.21858 0.42624
 H917 H 0.96612 0.22180 0.35574
 H918 H 0.98846 0.24691 0.32859
 H919 H 0.95227 0.30762 0.35564
 H920 H 0.92980 0.28244 0.38248
 H921 H 0.93598 0.18300 0.42018
 H922 H 0.91423 0.16026 0.44958
 H923 H 0.85904 0.21242 0.44918
 H924 H 0.88096 0.23491 0.41983
 C925 C 0.05107 0.25341 0.62743
 C926 C 0.03110 0.26529 0.61944
 C927 C 0.01798 0.27913 0.63485
 C928 C 0.02441 0.28111 0.65872
 C929 C 0.04493 0.26938 0.66635
 C930 C 0.05801 0.25556 0.65087
 C931 C 0.06459 0.23926 0.61147
 C932 C 0.07591 0.22753 0.59799
 C933 C 0.08941 0.21374 0.58171
 C934 C 0.08059 0.19235 0.57349
 C935 C 0.09346 0.17925 0.55720
 C936 C 0.11532 0.18742 0.54890
 C937 C 0.12412 0.20884 0.55745
 C938 C 0.11123 0.22189 0.57374
 H939 H 0.02580 0.26408 0.60121
 H940 H 0.00329 0.28891 0.62779
 H941 H 0.05049 0.27017 0.68452
 H942 H 0.07350 0.24646 0.65722
 H943 H 0.06370 0.18589 0.57954
 H944 H 0.08619 0.16285 0.55096
 H945 H 0.14088 0.21563 0.55142
 H946 H 0.11820 0.23844 0.57998
 C947 C 0.05283 0.74695 0.37294
 C948 C 0.03555 0.73141 0.38101
 C949 C 0.02254 0.71803 0.36503
 C950 C 0.02659 0.72020 0.34081
 C951 C 0.04405 0.73572 0.33285
 C952 C 0.05706 0.74907 0.34884
 C953 C 0.06634 0.76060 0.38938
 C954 C 0.07771 0.77200 0.40316
 C955 C 0.09127 0.78553 0.41965
 C956 C 0.08269 0.80699 0.42785
 C957 C 0.09570 0.81999 0.44415
 C958 C 0.11748 0.81165 0.45248
 C959 C 0.12603 0.79012 0.44401
 C960 C 0.11299 0.77716 0.42771
 H961 H 0.03220 0.72958 0.39963
 H962 H 0.00938 0.70592 0.37153
 H963 H 0.04746 0.73760 0.31424
 H964 H 0.07042 0.76101 0.34242
 H965 H 0.06590 0.81363 0.42172
 H966 H 0.08861 0.83647 0.45032
 H967 H 0.14272 0.78320 0.45008
 H968 H 0.11979 0.76056 0.42147
 C969 C 0.62846 0.94629 0.74904
 C970 C 0.62883 0.94264 0.72475
 C971 C 0.64419 0.95552 0.71062
 C972 C 0.65929 0.97229 0.72062
 C973 C 0.65909 0.97566 0.74506
 C974 C 0.64367 0.96277 0.75919
 C975 C 0.61226 0.93325 0.76337
 C976 C 0.59841 0.92222 0.77498
 C977 C 0.58158 0.90895 0.78838
 C978 C 0.57322 0.88756 0.77974
 C979 C 0.55638 0.87489 0.79233
 C980 C 0.54764 0.88349 0.81378
 C981 C 0.55630 0.90494 0.82242
 C982 C 0.57315 0.91758 0.80977
 H983 H 0.61713 0.92994 0.71672
 H984 H 0.64405 0.95269 0.69182
 H985 H 0.67079 0.98830 0.75314
 H986 H 0.64356 0.96569 0.77797
 H987 H 0.57961 0.88074 0.76317
 H988 H 0.55010 0.85845 0.78519
 H989 H 0.54994 0.91204 0.83886
 H990 H 0.57948 0.93415 0.81659
 C991 C 0.37177 0.94839 0.25307
 C992 C 0.38067 0.96716 0.26608
 C993 C 0.36576 0.98022 0.28051
 C994 C 0.34148 0.97498 0.28199
 C995 C 0.33288 0.95563 0.26909
 C996 C 0.34788 0.94259 0.25466
 C997 C 0.38734 0.93489 0.23845
 C998 C 0.40073 0.92371 0.22646
 C999 C 0.41710 0.91045 0.21251
 C1000 C 0.42531 0.91937 0.19115
 C1001 C 0.44186 0.90683 0.17802
 C1002 C 0.45044 0.88519 0.18614
 C1003 C 0.44190 0.87628 0.20753
 C1004 C 0.42536 0.88884 0.22061
 H1005 H 0.39923 0.97154 0.26531
 H1006 H 0.37354 0.99390 0.29114
 H1007 H 0.31438 0.95100 0.26949
 H1008 H 0.34082 0.92801 0.24470
 H1009 H 0.41907 0.93612 0.18475
 H1010 H 0.44808 0.91417 0.16164
 H1011 H 0.44813 0.85968 0.21427
 H1012 H 0.41916 0.88180 0.23714
 C1013 C 0.62834 0.05073 0.25096
 C1014 C 0.62016 0.03374 0.26667
 C1015 C 0.63614 0.02095 0.28024
 C1016 C 0.66048 0.02495 0.27810
 C1017 C 0.66856 0.04212 0.26241
 C1018 C 0.65256 0.05491 0.24887
 C1019 C 0.61188 0.06410 0.23721
 C1020 C 0.59808 0.07539 0.22580
 C1021 C 0.58152 0.08895 0.21236
 C1022 C 0.57292 0.08042 0.19097
 C1023 C 0.55654 0.09346 0.17812
 C1024 C 0.54854 0.11523 0.18653
 C1025 C 0.55744 0.12371 0.20798
 C1026 C 0.57381 0.11065 0.22079
 H1027 H 0.60145 0.03045 0.26851
 H1028 H 0.62955 0.00802 0.29248
 H1029 H 0.68725 0.04547 0.26056
 H1030 H 0.65907 0.06806 0.23681
 H1031 H 0.57877 0.06364 0.18429
 H1032 H 0.55003 0.08642 0.16170
 H1033 H 0.55165 0.14038 0.21496
 H1034 H 0.58037 0.11741 0.23732
 C1035 C 0.37023 0.05424 0.74884
 C1036 C 0.35767 0.03559 0.75862
 C1037 C 0.34229 0.02239 0.74473
 C1038 C 0.33937 0.02744 0.72063
 C1039 C 0.35184 0.04668 0.71122
 C1040 C 0.36719 0.05982 0.72517
 C1041 C 0.38641 0.06757 0.76298
 C1042 C 0.40019 0.07877 0.77455
 C1043 C 0.41691 0.09213 0.78803
 C1044 C 0.42510 0.08365 0.80956
 C1045 C 0.44190 0.09630 0.82230
 C1046 C 0.45075 0.11763 0.81361
 C1047 C 0.44222 0.12612 0.79204
 C1048 C 0.42542 0.11343 0.77935
 H1049 H 0.35967 0.03131 0.77704
 H1050 H 0.33216 0.00871 0.75311
 H1051 H 0.35049 0.05110 0.69279
 H1052 H 0.37687 0.07422 0.71741
 H1053 H 0.41865 0.06716 0.81642
 H1054 H 0.44810 0.08928 0.83883
 H1055 H 0.44866 0.14246 0.78486
 H1056 H 0.41922 0.12014 0.76267
 C1057 C 0.62826 0.74979 0.05357
 C1058 C 0.64401 0.75941 0.03731
 C1059 C 0.65880 0.74478 0.02425
 C1060 C 0.65777 0.72036 0.02721
 C1061 C 0.64232 0.71090 0.04395
 C1062 C 0.62759 0.72554 0.05699
 C1063 C 0.61234 0.76460 0.06643
 C1064 C 0.59860 0.77650 0.07728
 C1065 C 0.58180 0.79009 0.09039
 C1066 C 0.57322 0.81123 0.08140
 C1067 C 0.55631 0.82397 0.09388
 C1068 C 0.54773 0.81566 0.11550
 C1069 C 0.55662 0.79446 0.12443
 C1070 C 0.57352 0.78179 0.11194
 H1071 H 0.64471 0.77817 0.03457
 H1072 H 0.67080 0.75242 0.01162
 H1073 H 0.64127 0.69213 0.04649
 H1074 H 0.61548 0.71791 0.06953
 H1075 H 0.57948 0.81778 0.06469
 H1076 H 0.54983 0.84022 0.08652
 H1077 H 0.55042 0.78758 0.14102
 H1078 H 0.57999 0.76541 0.11903
 C1079 C 0.37452 0.25475 0.05342
 C1080 C 0.35807 0.24505 0.03787
 C1081 C 0.34350 0.25965 0.02456
 C1082 C 0.34540 0.28412 0.02656
 C1083 C 0.36170 0.29371 0.04247
 C1084 C 0.37623 0.27909 0.05577
 C1085 C 0.38990 0.23984 0.06681
 C1086 C 0.40308 0.22769 0.07805
 C1087 C 0.41916 0.21358 0.09148
 C1088 C 0.42760 0.22173 0.11307
 C1089 C 0.44389 0.20850 0.12580
 C1090 C 0.45198 0.18690 0.11706
 C1091 C 0.44319 0.17873 0.09545
 C1092 C 0.42689 0.19201 0.08274
 H1093 H 0.35658 0.22623 0.03597
 H1094 H 0.33083 0.25191 0.01263
 H1095 H 0.36342 0.31251 0.04429
 H1096 H 0.38889 0.28677 0.06776
 H1097 H 0.42176 0.23843 0.11996
 H1098 H 0.45030 0.21529 0.14236
 H1099 H 0.44907 0.16219 0.08824
 H1100 H 0.42050 0.18556 0.06602
 C1101 C 0.63053 0.25055 0.94655
 C1102 C 0.65493 0.24787 0.94406
 C1103 C 0.67035 0.26155 0.95748
 C1104 C 0.66148 0.27794 0.97360
 C1105 C 0.63697 0.28069 0.97582
 C1106 C 0.62160 0.26700 0.96243
 C1107 C 0.61456 0.23661 0.93276
 C1108 C 0.60085 0.22515 0.92136
 C1109 C 0.58411 0.21173 0.90795
 C1110 C 0.57548 0.19053 0.91672
 C1111 C 0.55857 0.17790 0.90411
 C1112 C 0.55004 0.18637 0.88252
 C1113 C 0.55901 0.20760 0.87374
 C1114 C 0.57593 0.22018 0.88639
 H1115 H 0.66202 0.23522 0.93177
 H1116 H 0.68918 0.25924 0.95545
 H1117 H 0.62977 0.29351 0.98785
 H1118 H 0.60276 0.26931 0.96441
 H1119 H 0.58166 0.18385 0.93342
 H1120 H 0.55202 0.16163 0.91136
 H1121 H 0.55283 0.21460 0.85719
 H1122 H 0.58246 0.23661 0.87946
 C1123 C 0.37181 0.74729 0.94806
 C1124 C 0.34750 0.74923 0.94432
 C1125 C 0.33182 0.73583 0.95761
 C1126 C 0.34030 0.72047 0.97490
 C1127 C 0.36473 0.71835 0.97836
 C1128 C 0.38039 0.73179 0.96506
 C1129 C 0.38792 0.76117 0.93442
 C1130 C 0.40143 0.77279 0.92301
 C1131 C 0.41766 0.78658 0.90943
 C1132 C 0.42566 0.77838 0.88771
 C1133 C 0.44183 0.79152 0.87473
 C1134 C 0.45023 0.81307 0.88334
 C1135 C 0.44190 0.82128 0.90510
 C1136 C 0.42573 0.80810 0.91804
 H1137 H 0.34069 0.76113 0.93116
 H1138 H 0.31305 0.73760 0.95462
 H1139 H 0.37160 0.70636 0.99138
 H1140 H 0.39918 0.73009 0.96803
 H1141 H 0.41952 0.76174 0.88089
 H1142 H 0.44790 0.78470 0.85806
 H1143 H 0.44803 0.83778 0.91223
 H1144 H 0.41965 0.81461 0.93484
 C1145 C 0.74973 0.94681 0.37091
 C1146 C 0.73355 0.96344 0.37904
 C1147 C 0.72032 0.97656 0.36308
 C1148 C 0.72330 0.97331 0.33881
 C1149 C 0.73930 0.95635 0.33078
 C1150 C 0.75251 0.94323 0.34676
 C1151 C 0.76342 0.93341 0.38737
 C1152 C 0.77483 0.92221 0.40123
 C1153 C 0.78830 0.90885 0.41790
 C1154 C 0.80975 0.91753 0.42640
 C1155 C 0.82262 0.90474 0.44294
 C1156 C 0.81416 0.88309 0.45120
 C1157 C 0.79266 0.87446 0.44239
 C1158 C 0.77983 0.88727 0.42586
 H1159 H 0.73118 0.96627 0.39769
 H1160 H 0.70782 0.98931 0.36961
 H1161 H 0.74176 0.95353 0.31214
 H1162 H 0.76493 0.93036 0.34030
 H1163 H 0.81645 0.93423 0.42035
 H1164 H 0.83909 0.91188 0.44937
 H1165 H 0.78565 0.85787 0.44838
 H1166 H 0.76325 0.88040 0.41939
 C1167 C 0.25170 0.94668 0.62962
 C1168 C 0.26860 0.96244 0.62125
 C1169 C 0.28157 0.97614 0.63696
 C1170 C 0.27760 0.97437 0.66123
 C1171 C 0.26086 0.95826 0.66956
 C1172 C 0.24790 0.94455 0.65381
 C1173 C 0.23823 0.93280 0.61334
 C1174 C 0.22700 0.92137 0.59948
 C1175 C 0.21369 0.90793 0.58271
 C1176 C 0.22249 0.88663 0.57432
 C1177 C 0.20981 0.87385 0.55759
 C1178 C 0.18814 0.88225 0.54902
 C1179 C 0.17937 0.90361 0.55769
 C1180 C 0.19208 0.91636 0.57441
 H1181 H 0.27175 0.96416 0.60258
 H1182 H 0.29467 0.98818 0.63020
 H1183 H 0.25763 0.95656 0.68821
 H1184 H 0.23489 0.93236 0.66047
 H1185 H 0.23922 0.87997 0.58060
 H1186 H 0.21705 0.85748 0.55129
 H1187 H 0.16276 0.91057 0.55147
 H1188 H 0.18513 0.93284 0.58077
 C1189 C 0.25306 0.05344 0.37440
 C1190 C 0.27757 0.05568 0.37606
 C1191 C 0.29220 0.04246 0.36146
 C1192 C 0.28245 0.02674 0.34514
 C1193 C 0.25782 0.02485 0.34329
 C1194 C 0.24320 0.03807 0.35794
 C1195 C 0.23815 0.06676 0.38983
 C1196 C 0.22604 0.07799 0.40306
 C1197 C 0.21206 0.09147 0.41920
 C1198 C 0.22033 0.11311 0.42727
 C1199 C 0.20727 0.12590 0.44362
 C1200 C 0.18571 0.11719 0.45215
 C1201 C 0.17740 0.09552 0.44373
 C1202 C 0.19052 0.08275 0.42737
 H1203 H 0.28538 0.06753 0.38873
 H1204 H 0.31113 0.04420 0.36314
 H1205 H 0.24995 0.01305 0.33061
 H1206 H 0.22425 0.03625 0.35648
 H1207 H 0.23701 0.11999 0.42109
 H1208 H 0.21417 0.14251 0.44972
 H1209 H 0.16089 0.08832 0.44995
 H1210 H 0.18398 0.06598 0.42127
 C1211 C 0.74960 0.05110 0.62879
 C1212 C 0.72524 0.05494 0.62923
 C1213 C 0.71097 0.04219 0.64457
 C1214 C 0.72090 0.02539 0.65959
 C1215 C 0.74541 0.02186 0.65934
 C1216 C 0.75968 0.03461 0.64394
 C1217 C 0.76408 0.06397 0.61257
 C1218 C 0.77578 0.07488 0.59873
 C1219 C 0.78927 0.08807 0.58194
 C1220 C 0.78056 0.10937 0.57348
 C1221 C 0.79327 0.12203 0.55676
 C1222 C 0.81491 0.11353 0.54824
 C1223 C 0.82360 0.09216 0.55696
 C1224 C 0.81084 0.07952 0.57369
 H1225 H 0.71727 0.06765 0.61758
 H1226 H 0.69212 0.04515 0.64446
 H1227 H 0.75344 0.00918 0.67097
 H1228 H 0.77852 0.03155 0.64379
 H1229 H 0.76386 0.11613 0.57972
 H1230 H 0.78609 0.13841 0.55044
 H1231 H 0.84020 0.08514 0.55077
 H1232 H 0.81772 0.06303 0.58010
 C1233 C 0.94684 0.62888 0.25133
 C1234 C 0.96355 0.62048 0.26733
 C1235 C 0.97703 0.63617 0.28056
 C1236 C 0.97407 0.66043 0.27775
 C1237 C 0.95705 0.66874 0.26190
 C1238 C 0.94357 0.65303 0.24869
 C1239 C 0.93309 0.61271 0.23761
 C1240 C 0.92166 0.59907 0.22614
 C1241 C 0.90815 0.58262 0.21251
 C1242 C 0.88653 0.57437 0.22091
 C1243 C 0.87368 0.55792 0.20797
 C1244 C 0.88235 0.54949 0.18642
 C1245 C 0.90400 0.55808 0.17801
 C1246 C 0.91681 0.57453 0.19100
 H1247 H 0.96615 0.60183 0.26957
 H1248 H 0.98982 0.62943 0.29295
 H1249 H 0.95445 0.68738 0.25958
 H1250 H 0.93065 0.65970 0.23639
 H1251 H 0.87968 0.58052 0.23755
 H1252 H 0.85709 0.55166 0.21494
 H1253 H 0.91117 0.55195 0.16151
 H1254 H 0.93354 0.58080 0.18434
 C1255 C 0.94697 0.37444 0.74685
 C1256 C 0.96439 0.38279 0.73160
 C1257 C 0.97733 0.36713 0.71786
 C1258 C 0.97309 0.34293 0.71937
 C1259 C 0.95549 0.33469 0.73459
 C1260 C 0.94253 0.35037 0.74830
 C1261 C 0.93351 0.39058 0.76085
 C1262 C 0.92220 0.40414 0.77250
 C1263 C 0.90871 0.42043 0.78629
 C1264 C 0.91748 0.42855 0.80776
 C1265 C 0.90458 0.44472 0.82095
 C1266 C 0.88271 0.45300 0.81280
 C1267 C 0.87395 0.44459 0.79127
 C1268 C 0.88689 0.42842 0.77811
 H1269 H 0.96789 0.40139 0.73027
 H1270 H 0.99059 0.37386 0.70597
 H1271 H 0.95192 0.31611 0.73595
 H1272 H 0.92906 0.34373 0.76001
 H1273 H 0.93436 0.42248 0.81424
 H1274 H 0.91183 0.45085 0.83744
 H1275 H 0.85719 0.45062 0.78449
 H1276 H 0.87994 0.42225 0.76151
 C1277 C 0.05236 0.62587 0.74672
 C1278 C 0.05473 0.62417 0.72232
 C1279 C 0.04169 0.63885 0.70764
 C1280 C 0.02600 0.65530 0.71721
 C1281 C 0.02403 0.65723 0.74173
 C1282 C 0.03708 0.64250 0.75641
 C1283 C 0.06544 0.61029 0.76168
 C1284 C 0.07648 0.59694 0.77381
 C1285 C 0.08980 0.58067 0.78777
 C1286 C 0.11159 0.57257 0.77968
 C1287 C 0.12431 0.55619 0.79274
 C1288 C 0.11538 0.54766 0.81413
 C1289 C 0.09355 0.55607 0.82224
 C1290 C 0.08084 0.57246 0.80912
 H1291 H 0.06652 0.61137 0.71465
 H1292 H 0.04348 0.63710 0.68880
 H1293 H 0.01227 0.67001 0.74946
 H1294 H 0.03517 0.64401 0.77526
 H1295 H 0.11866 0.57878 0.76316
 H1296 H 0.14105 0.55010 0.78599
 H1297 H 0.08619 0.54984 0.83862
 H1298 H 0.06396 0.57859 0.81552
 C1299 C 0.05164 0.37141 0.25114
 C1300 C 0.03503 0.35634 0.24098
 C1301 C 0.02213 0.34094 0.25509
 C1302 C 0.02563 0.34061 0.27951
 C1303 C 0.04256 0.35555 0.28951
 C1304 C 0.05544 0.37090 0.27540
 C1305 C 0.06467 0.38761 0.23682
 C1306 C 0.07571 0.40142 0.22522
 C1307 C 0.08905 0.41816 0.21183
 C1308 C 0.08047 0.42639 0.19034
 C1309 C 0.09325 0.44305 0.17764
 C1310 C 0.11480 0.45171 0.18632
 C1311 C 0.12331 0.44322 0.20790
 C1312 C 0.11051 0.42657 0.22054
 H1313 H 0.03199 0.35656 0.22221
 H1314 H 0.00936 0.32936 0.24700
 H1315 H 0.04549 0.35560 0.30830
 H1316 H 0.06826 0.38249 0.28343
 H1317 H 0.06385 0.42002 0.18345
 H1318 H 0.08621 0.44922 0.16110
 H1319 H 0.13983 0.44950 0.21508
 H1320 H 0.11729 0.42034 0.23718
   
