data_POSCAR
  _audit_creation_date              2014-09-24
  _audit_creation_method            'ToBaCCo'
  _symmetry_space_group_name_H-M    'P1'
  _symmetry_Int_Tables_number       1
  _symmetry_cell_setting            triclinic
  loop_
  _symmetry_equiv_pos_as_xyz
 x,y,z
_cell_length_a 64.3592
_cell_length_b 64.4804
_cell_length_c 64.3688
_cell_angle_alpha 89.773400
_cell_angle_beta 89.809600
_cell_angle_gamma 89.659500
loop_
  _atom_site_label
  _atom_site_type_symbol
  _atom_site_fract_x
  _atom_site_fract_y
  _atom_site_fract_z
N1 N 0.37888 0.32102 0.33676
 N2 N 0.37727 0.33449 0.32146
 C3 C 0.39155 0.32992 0.30683
 C4 C 0.40275 0.31281 0.31341
 C5 C 0.39441 0.30758 0.33251
 H6 H 0.39308 0.33779 0.29204
 H7 H 0.39830 0.29410 0.34180
 Cu8 Cu 0.35558 0.35554 0.32123
 Cu9 Cu 0.35854 0.31985 0.35919
 Cu10 Cu 0.31983 0.35765 0.35922
 N11 N 0.33415 0.37685 0.32156
 N12 N 0.32055 0.37808 0.33681
 C13 C 0.30692 0.39348 0.33264
 C14 C 0.31220 0.40215 0.31369
 C15 C 0.32952 0.39126 0.30710
 H16 H 0.29339 0.39716 0.34196
 H17 H 0.33754 0.39315 0.29244
 N18 N 0.32175 0.33557 0.38045
 N19 N 0.33649 0.32122 0.38044
 C20 C 0.33221 0.30707 0.39528
 C21 C 0.31391 0.31274 0.40498
 C22 C 0.30774 0.33090 0.39531
 H23 H 0.34095 0.29294 0.39792
 H24 H 0.29337 0.33926 0.39798
 H25 H 0.33407 0.33359 0.34327
 H26 H 0.35121 0.35106 0.35856
 N27 N 0.37874 0.82078 -0.16475
 N28 N 0.37871 0.83533 -0.17914
 C29 C 0.39360 0.83101 -0.19327
 C30 C 0.40328 0.81268 -0.18745
 C31 C 0.39359 0.80671 -0.16921
 H32 H 0.39638 0.83979 -0.20735
 H33 H 0.39636 0.79261 -0.16046
 Cu34 Cu 0.35739 0.85681 -0.17906
 Cu35 Cu 0.35793 0.81956 -0.14270
 Cu36 Cu 0.31940 0.85748 -0.14343
 N37 N 0.33576 0.87796 -0.17979
 N38 N 0.32080 0.87789 -0.16580
 C39 C 0.30665 0.89250 -0.17074
 C40 C 0.31303 0.90219 -0.18884
 C41 C 0.33167 0.89274 -0.19409
 H42 H 0.29230 0.89520 -0.16236
 H43 H 0.34083 0.89559 -0.20791
 N44 N 0.32079 0.83548 -0.12212
 N45 N 0.33546 0.82106 -0.12184
 C46 C 0.33107 0.80722 -0.10676
 C47 C 0.31278 0.81319 -0.09717
 C48 C 0.30671 0.83118 -0.10720
 H49 H 0.33983 0.79318 -0.10371
 H50 H 0.29246 0.83976 -0.10459
 H51 H 0.33456 0.83404 -0.15930
 H52 H 0.35074 0.85077 -0.14230
 N53 N 0.87739 0.32155 -0.16531
 N54 N 0.87571 0.33533 -0.18034
 C55 C 0.88994 0.33109 -0.19512
 C56 C 0.90126 0.31391 -0.18890
 C57 C 0.89298 0.30827 -0.16988
 H58 H 0.89148 0.33933 -0.20970
 H59 H 0.89707 0.29473 -0.16077
 Cu60 Cu 0.85414 0.35654 -0.17972
 Cu61 Cu 0.85726 0.32003 -0.14260
 Cu62 Cu 0.81881 0.35806 -0.14140
 N63 N 0.83259 0.37778 -0.17906
 N64 N 0.81903 0.37851 -0.16374
 C65 C 0.80503 0.39362 -0.16760
 C66 C 0.80998 0.40270 -0.18645
 C67 C 0.82764 0.39239 -0.19325
 H68 H 0.79159 0.39696 -0.15803
 H69 H 0.83563 0.39472 -0.20787
 N70 N 0.82110 0.33597 -0.12031
 N71 N 0.83542 0.32122 -0.12100
 C72 C 0.83108 0.30690 -0.10634
 C73 C 0.81328 0.31300 -0.09593
 C74 C 0.80744 0.33152 -0.10506
 H75 H 0.83949 0.29249 -0.10417
 H76 H 0.79338 0.34021 -0.10184
 H77 H 0.83275 0.33419 -0.15795
 H78 H 0.85014 0.35120 -0.14245
 N79 N 0.87586 0.82005 0.33425
 N80 N 0.87814 0.83632 0.32210
 C81 C 0.89480 0.83327 0.30969
 C82 C 0.90310 0.81393 0.31423
 C83 C 0.89073 0.80604 0.32989
 H84 H 0.89942 0.84345 0.29713
 H85 H 0.89156 0.79064 0.33657
 Cu86 Cu 0.85671 0.85772 0.32124
 Cu87 Cu 0.85187 0.81660 0.35223
 Cu88 Cu 0.82486 0.86217 0.36251
 N89 N 0.83442 0.87816 0.32194
 N90 N 0.82220 0.88027 0.33823
 C91 C 0.80794 0.89516 0.33427
 C92 C 0.81128 0.90245 0.31427
 C93 C 0.82826 0.89141 0.30698
 H94 H 0.79554 0.89961 0.34477
 H95 H 0.83517 0.89247 0.29167
 N96 N 0.82296 0.83721 0.38031
 N97 N 0.83266 0.81971 0.37571
 C98 C 0.82653 0.80481 0.38895
 C99 C 0.81223 0.81322 0.40255
 C100 C 0.81034 0.83384 0.39676
 H101 H 0.83149 0.78877 0.38826
 H102 H 0.79956 0.84512 0.40308
 H103 H 0.83095 0.83933 0.34200
 H104 H 0.85381 0.84735 0.35776
 N105 N 0.62235 0.67993 0.33782
 N106 N 0.62352 0.66667 0.32239
 C107 C 0.60912 0.67169 0.30807
 C108 C 0.59830 0.68892 0.31494
 C109 C 0.60703 0.69374 0.33390
 H110 H 0.60720 0.66398 0.29332
 H111 H 0.60337 0.70704 0.34345
 Cu112 Cu 0.64468 0.64504 0.32155
 Cu113 Cu 0.64269 0.68010 0.36021
 Cu114 Cu 0.68199 0.64309 0.35783
 N115 N 0.66658 0.62413 0.32073
 N116 N 0.68097 0.62325 0.33516
 C117 C 0.69463 0.60809 0.33044
 C118 C 0.68854 0.59909 0.31201
 C119 C 0.67069 0.60962 0.30625
 H120 H 0.70849 0.60447 0.33924
 H121 H 0.66186 0.60735 0.29219
 N122 N 0.68039 0.66436 0.37968
 N123 N 0.66494 0.67785 0.38119
 C124 C 0.66890 0.69092 0.39698
 C125 C 0.68787 0.68559 0.40551
 C126 C 0.69474 0.66875 0.39417
 H127 H 0.65959 0.70437 0.40089
 H128 H 0.70958 0.66097 0.39575
 H129 H 0.66651 0.66719 0.34285
 H130 H 0.65042 0.64907 0.35877
 N131 N 0.62183 0.17839 -0.16452
 N132 N 0.62324 0.16446 -0.17934
 C133 C 0.60883 0.16863 -0.19392
 C134 C 0.59767 0.18592 -0.18778
 C135 C 0.60624 0.19169 -0.16902
 H136 H 0.60709 0.16029 -0.20835
 H137 H 0.60237 0.20536 -0.16009
 Cu138 Cu 0.64491 0.14338 -0.17891
 Cu139 Cu 0.64231 0.18010 -0.14225
 Cu140 Cu 0.68161 0.14289 -0.14220
 N141 N 0.66671 0.12241 -0.17877
 N142 N 0.68116 0.12243 -0.16437
 C143 C 0.69536 0.10766 -0.16872
 C144 C 0.68948 0.09789 -0.18683
 C145 C 0.67114 0.10750 -0.19272
 H146 H 0.70938 0.10485 -0.15989
 H147 H 0.66235 0.10456 -0.20668
 N148 N 0.67940 0.16486 -0.12112
 N149 N 0.66458 0.17913 -0.12118
 C150 C 0.66867 0.19314 -0.10627
 C151 C 0.68686 0.18735 -0.09642
 C152 C 0.69318 0.16935 -0.10613
 H153 H 0.65976 0.20713 -0.10351
 H154 H 0.70746 0.16090 -0.10328
 H155 H 0.66653 0.16633 -0.15835
 H156 H 0.65009 0.14905 -0.14191
 N157 N 0.12216 0.67934 -0.16321
 N158 N 0.12292 0.66550 -0.17814
 C159 C 0.10832 0.67012 -0.19237
 C160 C 0.09783 0.68772 -0.18597
 C161 C 0.10692 0.69315 -0.16736
 H162 H 0.10610 0.66195 -0.20683
 H163 H 0.10360 0.70687 -0.15829
 Cu164 Cu 0.14414 0.64399 -0.17864
 Cu165 Cu 0.14290 0.68007 -0.14122
 Cu166 Cu 0.18094 0.64156 -0.14193
 N167 N 0.16543 0.62254 -0.17897
 N168 N 0.17941 0.62119 -0.16417
 C169 C 0.19281 0.60570 -0.16868
 C170 C 0.18700 0.59712 -0.18741
 C171 C 0.16962 0.60816 -0.19352
 H172 H 0.20653 0.60188 -0.15976
 H173 H 0.16122 0.60638 -0.20792
 N174 N 0.17983 0.66360 -0.12079
 N175 N 0.16528 0.67815 -0.12044
 C176 C 0.16991 0.69197 -0.10554
 C177 C 0.18827 0.68591 -0.09623
 C178 C 0.19411 0.66786 -0.10618
 H179 H 0.16134 0.70612 -0.10256
 H180 H 0.20834 0.65921 -0.10375
 H181 H 0.16662 0.66578 -0.15771
 H182 H 0.14965 0.64878 -0.14152
 N183 N 0.12170 0.17827 0.33552
 N184 N 0.12488 0.16638 0.31925
 C185 C 0.11064 0.17078 0.30466
 C186 C 0.09779 0.18624 0.31210
 C187 C 0.10512 0.19063 0.33179
 H188 H 0.11028 0.16402 0.28932
 H189 H 0.09985 0.20298 0.34188
 Cu190 Cu 0.14840 0.14773 0.31716
 Cu191 Cu 0.14156 0.17927 0.35842
 Cu192 Cu 0.18272 0.14438 0.35575
 N193 N 0.16694 0.12409 0.31982
 N194 N 0.18020 0.12248 0.33522
 C195 C 0.19261 0.10590 0.33198
 C196 C 0.18685 0.09682 0.31345
 C197 C 0.17047 0.10870 0.30621
 H198 H 0.20592 0.10183 0.34140
 H199 H 0.16267 0.10706 0.29145
 N200 N 0.17970 0.16485 0.37815
 N201 N 0.16382 0.17785 0.37958
 C202 C 0.16744 0.19120 0.39525
 C203 C 0.18657 0.18643 0.40383
 C204 C 0.19382 0.16964 0.39268
 H205 H 0.15781 0.20449 0.39896
 H206 H 0.20891 0.16234 0.39424
 H207 H 0.16693 0.16935 0.34208
 H208 H 0.15103 0.14874 0.35479
 N209 N 0.62189 0.32099 0.66545
 N210 N 0.62325 0.33459 0.68055
 C211 C 0.60896 0.33018 0.69521
 C212 C 0.59797 0.31301 0.68892
 C213 C 0.60649 0.30758 0.66993
 H214 H 0.60715 0.33831 0.70976
 H215 H 0.60264 0.29414 0.66073
 Cu216 Cu 0.64445 0.35586 0.68040
 Cu217 Cu 0.64214 0.32006 0.64276
 Cu218 Cu 0.68055 0.35783 0.64281
 N219 N 0.66583 0.37696 0.68025
 N220 N 0.67963 0.37813 0.66519
 C221 C 0.69314 0.39344 0.66949
 C222 C 0.68753 0.40209 0.68833
 C223 C 0.67018 0.39129 0.69470
 H224 H 0.70674 0.39711 0.66031
 H225 H 0.66191 0.39322 0.70922
 N226 N 0.67887 0.33593 0.62155
 N227 N 0.66415 0.32174 0.62128
 C228 C 0.66845 0.30801 0.60607
 C229 C 0.68683 0.31374 0.59655
 C230 C 0.69296 0.33149 0.60669
 H231 H 0.65974 0.29404 0.60311
 H232 H 0.70727 0.33984 0.60415
 H233 H 0.66631 0.33375 0.65871
 H234 H 0.64919 0.35122 0.64309
 N235 N 0.62321 0.82019 1.16574
 N236 N 0.62561 0.83277 1.18157
 C237 C 0.61093 0.82882 1.19591
 C238 C 0.59866 0.81292 1.18876
 C239 C 0.60677 0.80782 1.16949
 H240 H 0.60987 0.83620 1.21094
 H241 H 0.60203 0.79512 1.15971
 Cu242 Cu 0.64885 0.85160 1.18353
 Cu243 Cu 0.64339 0.81905 1.14307
 Cu244 Cu 0.68219 0.85609 1.14388
 N245 N 0.66740 0.87509 1.18113
 N246 N 0.68023 0.87731 1.16535
 C247 C 0.69267 0.89368 1.16895
 C248 C 0.68735 0.90194 1.18809
 C249 C 0.67124 0.88982 1.19529
 H250 H 0.70572 0.89810 1.15932
 H251 H 0.66379 0.89087 1.21033
 N252 N 0.68009 0.83500 1.12186
 N253 N 0.66541 0.82075 1.12166
 C254 C 0.66954 0.80714 1.10633
 C255 C 0.68771 0.81305 1.09654
 C256 C 0.69393 0.83077 1.10670
 H257 H 0.66080 0.79319 1.10339
 H258 H 0.70820 0.83916 1.10405
 H259 H 0.66848 0.83078 1.15854
 H260 H 0.65070 0.84999 1.14590
 N261 N 0.12166 0.32162 1.16482
 N262 N 0.12317 0.33507 1.18004
 C263 C 0.10896 0.33057 1.19474
 C264 C 0.09785 0.31352 1.18834
 C265 C 0.10622 0.30824 1.16924
 H266 H 0.10729 0.33853 1.20940
 H267 H 0.10229 0.29489 1.15996
 Cu268 Cu 0.14446 0.35628 1.17995
 Cu269 Cu 0.14190 0.32065 1.14213
 Cu270 Cu 0.17997 0.35870 1.14188
 N271 N 0.16562 0.37765 1.17955
 N272 N 0.17907 0.37904 1.16420
 C273 C 0.19255 0.39440 1.16827
 C274 C 0.18735 0.40288 1.18729
 C275 C 0.17022 0.39191 1.19401
 H276 H 0.20597 0.39815 1.15885
 H277 H 0.16233 0.39364 1.20876
 N278 N 0.17842 0.33675 1.12072
 N279 N 0.16393 0.32232 1.12070
 C280 C 0.16855 0.30831 1.10585
 C281 C 0.18686 0.31416 1.09625
 C282 C 0.19261 0.33227 1.10598
 H283 H 0.16009 0.29414 1.10317
 H284 H 0.20684 0.34074 1.10338
 H285 H 0.16608 0.33436 1.15789
 H286 H 0.14861 0.35179 1.14259
 N287 N 0.12234 0.82098 0.66367
 N288 N 0.12394 0.83360 0.67957
 C289 C 0.10945 0.82870 0.69382
 C290 C 0.09816 0.81216 0.68655
 C291 C 0.10664 0.80764 0.66729
 H292 H 0.10781 0.83594 0.70887
 H293 H 0.10269 0.79472 0.65743
 Cu294 Cu 0.14575 0.85415 0.68158
 Cu295 Cu 0.14290 0.82085 0.64129
 Cu296 Cu 0.18086 0.85874 0.64307
 N297 N 0.16612 0.87626 0.68118
 N298 N 0.17929 0.87861 0.66572
 C299 C 0.19199 0.89459 0.66994
 C300 C 0.18657 0.90244 0.68918
 C301 C 0.17015 0.89046 0.69587
 H302 H 0.20509 0.89921 0.66047
 H303 H 0.16228 0.89158 0.71069
 N304 N 0.18001 0.83730 0.62140
 N305 N 0.16525 0.82321 0.62028
 C306 C 0.17004 0.80980 0.60492
 C307 C 0.18883 0.81560 0.59626
 C308 C 0.19468 0.83305 0.60705
 H309 H 0.16143 0.79591 0.60140
 H310 H 0.20915 0.84132 0.60530
 H311 H 0.16704 0.83355 0.65787
 H312 H 0.14933 0.85201 0.64398
 N313 N 0.37822 0.67914 0.66664
 N314 N 0.37604 0.66583 0.68201
 C315 C 0.39000 0.67011 0.69688
 C316 C 0.40166 0.68682 0.69042
 C317 C 0.39387 0.69217 0.67111
 H318 H 0.39120 0.66215 0.71165
 H319 H 0.39834 0.70537 0.66172
 Cu320 Cu 0.35456 0.64483 0.68177
 Cu321 Cu 0.35850 0.68035 0.64374
 Cu322 Cu 0.32067 0.64219 0.64212
 N323 N 0.33370 0.62329 0.68040
 N324 N 0.32087 0.62177 0.66463
 C325 C 0.30753 0.60611 0.66836
 C326 C 0.31226 0.59758 0.68754
 C327 C 0.32891 0.60882 0.69469
 H328 H 0.29455 0.60212 0.65855
 H329 H 0.33637 0.60707 0.70963
 N330 N 0.32299 0.66438 0.62095
 N331 N 0.33715 0.67909 0.62190
 C332 C 0.33295 0.69354 0.60733
 C333 C 0.31544 0.68763 0.59662
 C334 C 0.30957 0.66901 0.60552
 H335 H 0.34126 0.70796 0.60542
 H336 H 0.29562 0.66042 0.60211
 H337 H 0.33355 0.66633 0.65865
 H338 H 0.35185 0.64895 0.64423
 N339 N 0.37901 0.17866 1.16430
 N340 N 0.37781 0.16516 1.17961
 C341 C 0.39218 0.16977 1.19398
 C342 C 0.40303 0.18696 1.18725
 C343 C 0.39435 0.19219 1.16831
 H344 H 0.39403 0.16187 1.20872
 H345 H 0.39792 0.20567 1.15895
 Cu346 Cu 0.35627 0.14417 1.18017
 Cu347 Cu 0.35850 0.17962 1.14209
 Cu348 Cu 0.31989 0.14210 1.14303
 N349 N 0.33474 0.12318 1.18072
 N350 N 0.32090 0.12195 1.16579
 C351 C 0.30734 0.10675 1.17046
 C352 C 0.31289 0.09825 1.18942
 C353 C 0.33029 0.10905 1.19550
 H354 H 0.29372 0.10306 1.16143
 H355 H 0.33859 0.10718 1.20997
 N356 N 0.32161 0.16394 1.12144
 N357 N 0.33636 0.17810 1.12108
 C358 C 0.33209 0.19204 1.10604
 C359 C 0.31375 0.18649 1.09657
 C360 C 0.30755 0.16857 1.10661
 H361 H 0.34086 0.20599 1.10307
 H362 H 0.29320 0.16032 1.10414
 H363 H 0.33422 0.16611 1.15852
 H364 H 0.35116 0.14848 1.14291
 N365 N 0.87905 0.67851 1.16474
 N366 N 0.87608 0.66655 1.18108
 C367 C 0.88906 0.67223 1.19632
 C368 C 0.90110 0.68835 1.18909
 C369 C 0.89448 0.69194 1.16893
 H370 H 0.88950 0.66544 1.21171
 H371 H 0.89973 0.70404 1.15851
 Cu372 Cu 0.85531 0.64493 1.18101
 Cu373 Cu 0.86140 0.67652 1.14003
 Cu374 Cu 0.81710 0.64635 1.14659
 N375 N 0.83494 0.62290 1.18001
 N376 N 0.82016 0.62322 1.16597
 C377 C 0.80686 0.60762 1.16983
 C378 C 0.81360 0.59716 1.18737
 C379 C 0.83146 0.60722 1.19341
 H380 H 0.79244 0.60521 1.16163
 H381 H 0.84043 0.60413 1.20728
 N382 N 0.82045 0.66642 1.12374
 N383 N 0.83735 0.67762 1.12080
 C384 C 0.83403 0.69075 1.10473
 C385 C 0.81408 0.68764 1.09741
 C386 C 0.80603 0.67209 1.10975
 H387 H 0.84475 0.70261 1.09966
 H388 H 0.79040 0.66605 1.10917
 H389 H 0.83688 0.66915 1.15858
 H390 H 0.84832 0.64702 1.14381
 N391 N 0.87848 0.17917 0.66502
 N392 N 0.87667 0.16590 0.68047
 C393 C 0.89098 0.17026 0.69499
 C394 C 0.90241 0.18704 0.68821
 C395 C 0.89416 0.19228 0.66909
 H396 H 0.89249 0.16241 0.70979
 H397 H 0.89831 0.20550 0.65959
 Cu398 Cu 0.85496 0.14507 0.68088
 Cu399 Cu 0.85837 0.18033 0.64256
 Cu400 Cu 0.82051 0.14223 0.64166
 N401 N 0.83401 0.12354 0.67988
 N402 N 0.82108 0.12187 0.66420
 C403 C 0.80776 0.10624 0.66815
 C404 C 0.81255 0.09792 0.68740
 C405 C 0.82924 0.10924 0.69436
 H406 H 0.79468 0.10222 0.65849
 H407 H 0.83673 0.10769 0.70930
 N408 N 0.82249 0.16442 0.62045
 N409 N 0.83670 0.17909 0.62112
 C410 C 0.83232 0.19353 0.60659
 C411 C 0.81459 0.18766 0.59623
 C412 C 0.80881 0.16908 0.60527
 H413 H 0.84064 0.20790 0.60448
 H414 H 0.79480 0.16049 0.60208
 H415 H 0.83358 0.16636 0.65791
 H416 H 0.85170 0.14888 0.64337
 N417 N 0.32092 0.37821 0.66357
 N418 N 0.33480 0.37683 0.67846
 C419 C 0.33049 0.39116 0.69302
 C420 C 0.31311 0.40219 0.68684
 C421 C 0.30746 0.39366 0.66804
 H422 H 0.33874 0.39288 0.70752
 H423 H 0.29374 0.39741 0.65909
 Cu424 Cu 0.35598 0.35522 0.67839
 Cu425 Cu 0.31938 0.35775 0.64140
 Cu426 Cu 0.35685 0.31871 0.64139
 N427 N 0.37708 0.33354 0.67810
 N428 N 0.37764 0.31946 0.66338
 C429 C 0.39282 0.30560 0.66767
 C430 C 0.40208 0.31126 0.68614
 C431 C 0.39174 0.32903 0.69231
 H432 H 0.39603 0.29177 0.65874
 H433 H 0.39415 0.33745 0.70659
 N434 N 0.33450 0.32062 0.62050
 N435 N 0.32037 0.33558 0.62038
 C436 C 0.30617 0.33146 0.60564
 C437 C 0.31154 0.31300 0.59617
 C438 C 0.32959 0.30659 0.60589
 H439 H 0.29220 0.34043 0.60290
 H440 H 0.33780 0.29215 0.60328
 H441 H 0.33325 0.33354 0.65756
 H442 H 0.35057 0.35011 0.64127
 N443 N 0.32080 0.87803 0.16360
 N444 N 0.33561 0.87828 0.17764
 C445 C 0.33147 0.89344 0.19145
 C446 C 0.31307 0.90303 0.18574
 C447 C 0.30676 0.89291 0.16801
 H448 H 0.34040 0.89646 0.20530
 H449 H 0.29245 0.89547 0.15960
 Cu450 Cu 0.35717 0.85697 0.17766
 Cu451 Cu 0.31938 0.85704 0.14196
 Cu452 Cu 0.35776 0.81906 0.14220
 N453 N 0.37860 0.83554 0.17803
 N454 N 0.37855 0.82071 0.16405
 C455 C 0.39349 0.80679 0.16867
 C456 C 0.40345 0.81321 0.18645
 C457 C 0.39369 0.83155 0.19200
 H458 H 0.39621 0.79249 0.16034
 H459 H 0.39656 0.84054 0.20583
 N460 N 0.33536 0.82011 0.12140
 N461 N 0.32069 0.83451 0.12138
 C462 C 0.30669 0.82996 0.10659
 C463 C 0.31285 0.81186 0.09692
 C464 C 0.33110 0.80606 0.10660
 H465 H 0.29250 0.83855 0.10374
 H466 H 0.33994 0.79204 0.10379
 H467 H 0.33438 0.83392 0.15849
 H468 H 0.35074 0.85029 0.14105
 N469 N 0.82036 0.37774 0.16378
 N470 N 0.83386 0.37639 0.17902
 C471 C 0.82925 0.39082 0.19340
 C472 C 0.81208 0.40187 0.18674
 C473 C 0.80684 0.39325 0.16785
 H474 H 0.83723 0.39267 0.20803
 H475 H 0.79342 0.39709 0.15849
 Cu476 Cu 0.85526 0.35506 0.17938
 Cu477 Cu 0.81963 0.35739 0.14144
 Cu478 Cu 0.85812 0.31938 0.14168
 N479 N 0.87691 0.33397 0.17917
 N480 N 0.87844 0.32044 0.16401
 C481 C 0.89402 0.30704 0.16823
 C482 C 0.90250 0.31239 0.18714
 C483 C 0.89131 0.32951 0.19365
 H484 H 0.89794 0.29359 0.15899
 H485 H 0.89298 0.33749 0.20829
 N486 N 0.83614 0.32084 0.12049
 N487 N 0.82153 0.33533 0.12033
 C488 C 0.80761 0.33078 0.10546
 C489 C 0.81368 0.31253 0.09598
 C490 C 0.83184 0.30671 0.10579
 H491 H 0.79335 0.33928 0.10267
 H492 H 0.84049 0.29251 0.10327
 H493 H 0.83364 0.33327 0.15756
 H494 H 0.85093 0.35065 0.14209
 N495 N 0.82105 0.87900 0.66396
 N496 N 0.83406 0.87724 0.67959
 C497 C 0.82919 0.89143 0.69409
 C498 C 0.81234 0.90277 0.68717
 C499 C 0.80755 0.89458 0.66795
 H500 H 0.83675 0.89293 0.70898
 H501 H 0.79442 0.89870 0.65832
 Cu502 Cu 0.85527 0.85581 0.68035
 Cu503 Cu 0.82078 0.85894 0.64127
 Cu504 Cu 0.85836 0.82006 0.64280
 N505 N 0.87682 0.83467 0.68044
 N506 N 0.87838 0.82101 0.66541
 C507 C 0.89408 0.80777 0.66972
 C508 C 0.90259 0.81339 0.68855
 C509 C 0.89129 0.83047 0.69493
 H510 H 0.89819 0.79435 0.66052
 H511 H 0.89306 0.83871 0.70941
 N512 N 0.83683 0.82174 0.62116
 N513 N 0.82305 0.83697 0.62000
 C514 C 0.80981 0.83299 0.60432
 C515 C 0.81536 0.81424 0.59550
 C516 C 0.83248 0.80754 0.60654
 H517 H 0.79614 0.84211 0.60068
 H518 H 0.84049 0.79287 0.60470
 H519 H 0.83371 0.83466 0.65785
 H520 H 0.85192 0.85156 0.64291
 N521 N 0.67975 0.62331 0.66459
 N522 N 0.66441 0.62252 0.67810
 C523 C 0.66823 0.60712 0.69184
 C524 C 0.68701 0.59795 0.68661
 C525 C 0.69386 0.60860 0.66928
 H526 H 0.65877 0.60361 0.70530
 H527 H 0.70847 0.60634 0.66122
 Cu528 Cu 0.64250 0.64347 0.67778
 Cu529 Cu 0.68120 0.64419 0.64279
 Cu530 Cu 0.64094 0.68007 0.64027
 N531 N 0.62079 0.66458 0.67706
 N532 N 0.61989 0.67845 0.66204
 C533 C 0.60465 0.69221 0.66629
 C534 C 0.59571 0.68679 0.68506
 C535 C 0.60628 0.66919 0.69146
 H536 H 0.60144 0.70606 0.65730
 H537 H 0.60433 0.66115 0.70611
 N538 N 0.66397 0.67929 0.62000
 N539 N 0.67982 0.66630 0.62170
 C540 C 0.69453 0.67162 0.60780
 C541 C 0.68752 0.68858 0.59669
 C542 C 0.66807 0.69301 0.60468
 H543 H 0.70964 0.66432 0.60643
 H544 H 0.65844 0.70624 0.60075
 H545 H 0.66444 0.66721 0.65803
 H546 H 0.64957 0.64924 0.64101
 N547 N 0.68008 0.12167 0.16578
 N548 N 0.66620 0.12269 0.18078
 C549 C 0.67066 0.10822 0.19524
 C550 C 0.68816 0.09750 0.18888
 C551 C 0.69374 0.10635 0.17009
 H552 H 0.66233 0.10610 0.20970
 H553 H 0.70737 0.10272 0.16091
 Cu554 Cu 0.64461 0.14375 0.18061
 Cu555 Cu 0.68083 0.14199 0.14327
 Cu556 Cu 0.64173 0.17947 0.14267
 N557 N 0.62309 0.16487 0.18058
 N558 N 0.62147 0.17839 0.16531
 C559 C 0.60591 0.19178 0.16966
 C560 C 0.59760 0.18643 0.18876
 C561 C 0.60885 0.16935 0.19526
 H562 H 0.60191 0.20523 0.16037
 H563 H 0.60729 0.16137 0.20998
 N564 N 0.66385 0.17791 0.12136
 N565 N 0.67889 0.16388 0.12187
 C566 C 0.69304 0.16851 0.10715
 C567 C 0.68661 0.18623 0.09688
 C568 C 0.66800 0.19173 0.10615
 H569 H 0.70759 0.16037 0.10484
 H570 H 0.65904 0.20564 0.10306
 H571 H 0.66605 0.16605 0.15886
 H572 H 0.64936 0.14843 0.14332
 N573 N 0.17874 0.62205 0.16523
 N574 N 0.16510 0.62379 0.18039
 C575 C 0.16939 0.60952 0.19511
 C576 C 0.18649 0.59817 0.18876
 C577 C 0.19203 0.60645 0.16970
 H578 H 0.16118 0.60792 0.20970
 H579 H 0.20546 0.60227 0.16044
 Cu580 Cu 0.14377 0.64522 0.18011
 Cu581 Cu 0.17987 0.64198 0.14239
 Cu582 Cu 0.14119 0.67971 0.14094
 N583 N 0.12198 0.66616 0.17883
 N584 N 0.12055 0.67917 0.16311
 C585 C 0.10487 0.69263 0.16672
 C586 C 0.09620 0.68787 0.18579
 C587 C 0.10739 0.67102 0.19305
 H588 H 0.10106 0.70580 0.15697
 H589 H 0.10562 0.66355 0.20801
 N590 N 0.16349 0.67781 0.12001
 N591 N 0.17833 0.66359 0.12066
 C592 C 0.19263 0.66803 0.10599
 C593 C 0.18648 0.68585 0.09570
 C594 C 0.16792 0.69158 0.10486
 H595 H 0.20711 0.65972 0.10381
 H596 H 0.15915 0.70559 0.10171
 H597 H 0.16551 0.66642 0.15753
 H598 H 0.14848 0.64845 0.14268
 N599 N 0.17904 0.12030 0.66421
 N600 N 0.16623 0.12220 0.68005
 C601 C 0.17134 0.10809 0.69466
 C602 C 0.18808 0.09667 0.68749
 C603 C 0.19254 0.10473 0.66808
 H604 H 0.16407 0.10676 0.70977
 H605 H 0.20560 0.10062 0.65828
 Cu606 Cu 0.14509 0.14383 0.68085
 Cu607 Cu 0.17955 0.14046 0.64161
 Cu608 Cu 0.14147 0.17881 0.64220
 N609 N 0.12338 0.16491 0.68053
 N610 N 0.12144 0.17803 0.66496
 C611 C 0.10577 0.19136 0.66911
 C612 C 0.09768 0.18642 0.68840
 C613 C 0.10919 0.16960 0.69521
 H614 H 0.10155 0.20453 0.65953
 H615 H 0.10782 0.16193 0.71012
 N616 N 0.16318 0.17704 0.62060
 N617 N 0.17759 0.16237 0.62028
 C618 C 0.19151 0.16681 0.60524
 C619 C 0.18564 0.18517 0.59579
 C620 C 0.16760 0.19119 0.60581
 H621 H 0.20570 0.15821 0.60238
 H622 H 0.15918 0.20556 0.60342
 H623 H 0.16622 0.16500 0.65766
 H624 H 0.14827 0.14750 0.64331
 N625 N 0.32052 0.62173 0.33409
 N626 N 0.33374 0.62345 0.31859
 C627 C 0.32941 0.60904 0.30421
 C628 C 0.31266 0.59764 0.31108
 C629 C 0.30740 0.60601 0.33015
 H630 H 0.33728 0.60741 0.28944
 H631 H 0.29424 0.60184 0.33975
 Cu632 Cu 0.35456 0.64506 0.31780
 Cu633 Cu 0.31971 0.64189 0.35656
 Cu634 Cu 0.35797 0.67964 0.35680
 N635 N 0.37607 0.66596 0.31837
 N636 N 0.37806 0.67891 0.33396
 C637 C 0.39383 0.69199 0.32977
 C638 C 0.40188 0.68699 0.31045
 C639 C 0.39027 0.67047 0.30370
 H640 H 0.39818 0.70499 0.33934
 H641 H 0.39166 0.66284 0.28882
 N642 N 0.33603 0.67780 0.37832
 N643 N 0.32133 0.66360 0.37796
 C644 C 0.30716 0.66799 0.39275
 C645 C 0.31318 0.68574 0.40295
 C646 C 0.33162 0.69151 0.39352
 H647 H 0.29283 0.65963 0.39517
 H648 H 0.34028 0.70550 0.39652
 H649 H 0.33358 0.66657 0.34094
 H650 H 0.35125 0.64852 0.35535
 N651 N 0.31984 0.12227 0.83417
 N652 N 0.33405 0.12315 0.81950
 C653 C 0.33081 0.10768 0.80591
 C654 C 0.31362 0.09662 0.81242
 C655 C 0.30710 0.10623 0.83047
 H656 H 0.33945 0.10543 0.79165
 H657 H 0.29325 0.10275 0.83935
 Cu658 Cu 0.35343 0.14613 0.81772
 Cu659 Cu 0.31690 0.14412 0.85464
 Cu660 Cu 0.35811 0.17828 0.85886
 N661 N 0.37616 0.16563 0.82000
 N662 N 0.37850 0.17768 0.83626
 C663 C 0.39459 0.19059 0.83270
 C664 C 0.40251 0.18643 0.81312
 C665 C 0.39050 0.17050 0.80559
 H666 H 0.39907 0.20314 0.84281
 H667 H 0.39149 0.16374 0.79027
 N668 N 0.33528 0.17671 0.87955
 N669 N 0.31935 0.16409 0.87740
 C670 C 0.30487 0.16868 0.89179
 C671 C 0.31194 0.18493 0.90361
 C672 C 0.33133 0.18962 0.89558
 H673 H 0.28973 0.16158 0.89287
 H674 H 0.34093 0.20260 0.89992
 H675 H 0.33376 0.16854 0.84143
 H676 H 0.34872 0.14779 0.85520
 N677 N 0.82087 0.62111 0.83352
 N678 N 0.83407 0.62316 0.81803
 C679 C 0.82962 0.60919 0.80327
 C680 C 0.81293 0.59761 0.80994
 C681 C 0.80774 0.60548 0.82924
 H682 H 0.83742 0.60793 0.78842
 H683 H 0.79456 0.60113 0.83873
 Cu684 Cu 0.85514 0.64451 0.81792
 Cu685 Cu 0.81981 0.64102 0.85626
 Cu686 Cu 0.85781 0.67912 0.85671
 N687 N 0.87659 0.66545 0.81860
 N688 N 0.87814 0.67859 0.83408
 C689 C 0.89381 0.69183 0.83003
 C690 C 0.90229 0.68673 0.81092
 C691 C 0.89102 0.66997 0.80415
 H692 H 0.89786 0.70495 0.83958
 H693 H 0.89275 0.66220 0.78938
 N694 N 0.83578 0.67706 0.87808
 N695 N 0.82127 0.66265 0.87780
 C696 C 0.80709 0.66689 0.89267
 C697 C 0.81294 0.68477 0.90278
 C698 C 0.83124 0.69074 0.89325
 H699 H 0.79288 0.65836 0.89517
 H700 H 0.83976 0.70483 0.89620
 H701 H 0.83349 0.66569 0.84072
 H702 H 0.85115 0.64790 0.85542
 N703 N 0.82123 0.12079 0.33421
 N704 N 0.83496 0.12255 0.31915
 C705 C 0.83108 0.10816 0.30459
 C706 C 0.81416 0.09668 0.31096
 C707 C 0.80831 0.10504 0.32986
 H708 H 0.83942 0.10656 0.29007
 H709 H 0.79487 0.10082 0.33905
 Cu710 Cu 0.85581 0.14421 0.31932
 Cu711 Cu 0.81951 0.14092 0.35670
 Cu712 Cu 0.85733 0.17911 0.35798
 N713 N 0.87700 0.16549 0.32031
 N714 N 0.87807 0.17869 0.33578
 C715 C 0.89353 0.19223 0.33197
 C716 C 0.90241 0.18729 0.31302
 C717 C 0.89157 0.17028 0.30608
 H718 H 0.89712 0.20548 0.34153
 H719 H 0.89363 0.16258 0.29131
 N720 N 0.83488 0.17698 0.37888
 N721 N 0.82031 0.16266 0.37814
 C722 C 0.80581 0.16686 0.39268
 C723 C 0.81152 0.18460 0.40309
 C724 C 0.83007 0.19056 0.39406
 H725 H 0.79153 0.15835 0.39482
 H726 H 0.83859 0.20456 0.39736
 H727 H 0.83358 0.16556 0.34140
 H728 H 0.85085 0.14788 0.35668
 N729 N 0.67867 0.37830 0.33492
 N730 N 0.66513 0.37706 0.31973
 C731 C 0.66960 0.39145 0.30524
 C732 C 0.68674 0.40237 0.31173
 C733 C 0.69211 0.39372 0.33068
 H734 H 0.66159 0.39332 0.29061
 H735 H 0.70556 0.39745 0.33994
 Cu736 Cu 0.64392 0.35581 0.31953
 Cu737 Cu 0.67958 0.35786 0.35740
 Cu738 Cu 0.64171 0.31960 0.35685
 N739 N 0.62268 0.33457 0.31936
 N740 N 0.62142 0.32079 0.33442
 C741 C 0.60601 0.30744 0.33012
 C742 C 0.59737 0.31307 0.31128
 C743 C 0.60831 0.33031 0.30487
 H744 H 0.60222 0.29390 0.33933
 H745 H 0.60641 0.33860 0.29036
 N746 N 0.66361 0.32101 0.37816
 N747 N 0.67786 0.33567 0.37861
 C748 C 0.69161 0.33117 0.39377
 C749 C 0.68584 0.31272 0.40307
 C750 C 0.66804 0.30676 0.39285
 H751 H 0.70561 0.33981 0.39684
 H752 H 0.65968 0.29245 0.39521
 H753 H 0.66599 0.33389 0.34118
 H754 H 0.64842 0.35090 0.35680
 N755 N 0.67862 0.87788 0.83446
 N756 N 0.66481 0.87656 0.81952
 C757 C 0.66899 0.89094 0.80490
 C758 C 0.68623 0.90192 0.81105
 C759 C 0.69195 0.89331 0.82991
 H760 H 0.66064 0.89282 0.79046
 H761 H 0.70549 0.89716 0.83899
 Cu762 Cu 0.64356 0.85532 0.81981
 Cu763 Cu 0.67979 0.85765 0.85711
 Cu764 Cu 0.64189 0.81940 0.85760
 N765 N 0.62255 0.83384 0.82011
 N766 N 0.62133 0.82028 0.83536
 C767 C 0.60603 0.80672 0.83119
 C768 C 0.59747 0.81199 0.81219
 C769 C 0.60832 0.82922 0.80561
 H770 H 0.60240 0.79321 0.84050
 H771 H 0.60650 0.83720 0.79092
 N772 N 0.66410 0.82107 0.87863
 N773 N 0.67838 0.83571 0.87860
 C774 C 0.69247 0.83136 0.89349
 C775 C 0.68689 0.81303 0.90314
 C776 C 0.66884 0.80698 0.89340
 H777 H 0.70655 0.84000 0.89614
 H778 H 0.66051 0.79270 0.89609
 H779 H 0.66585 0.83348 0.84137
 H780 H 0.64856 0.85066 0.85709
 N781 N 0.17803 0.37843 0.83584
 N782 N 0.16456 0.37711 0.82059
 C783 C 0.16922 0.39133 0.80596
 C784 C 0.18639 0.40224 0.81246
 C785 C 0.19157 0.39375 0.83153
 H786 H 0.16132 0.39308 0.79125
 H787 H 0.20502 0.39744 0.84080
 Cu788 Cu 0.14334 0.35581 0.82045
 Cu789 Cu 0.17896 0.35806 0.85842
 Cu790 Cu 0.14153 0.31942 0.85754
 N791 N 0.12210 0.33449 0.82034
 N792 N 0.12118 0.32054 0.83525
 C793 C 0.10593 0.30701 0.83104
 C794 C 0.09696 0.31270 0.81239
 C795 C 0.10757 0.33019 0.80601
 H796 H 0.10246 0.29333 0.84016
 H797 H 0.10538 0.33857 0.79159
 N798 N 0.16333 0.32087 0.87884
 N799 N 0.17725 0.33582 0.87963
 C800 C 0.19085 0.33146 0.89497
 C801 C 0.18533 0.31277 0.90395
 C802 C 0.16787 0.30652 0.89339
 H803 H 0.20466 0.34030 0.89830
 H804 H 0.15979 0.29201 0.89546
 H805 H 0.16573 0.33413 0.84201
 H806 H 0.14793 0.35084 0.85769
 N807 N 0.17883 0.87773 0.33530
 N808 N 0.16575 0.87606 0.31975
 C809 C 0.17061 0.89010 0.30503
 C810 C 0.18746 0.90132 0.31176
 C811 C 0.19228 0.89317 0.33109
 H812 H 0.16303 0.89158 0.29012
 H813 H 0.20546 0.89717 0.34063
 Cu814 Cu 0.14453 0.85481 0.31946
 Cu815 Cu 0.17942 0.85749 0.35804
 Cu816 Cu 0.14180 0.81895 0.35709
 N817 N 0.12322 0.83362 0.31933
 N818 N 0.12178 0.81991 0.33443
 C819 C 0.10638 0.80655 0.33005
 C820 C 0.09790 0.81215 0.31112
 C821 C 0.10894 0.82935 0.30476
 H822 H 0.10246 0.79307 0.33929
 H823 H 0.10716 0.83760 0.29022
 N824 N 0.16337 0.82055 0.37868
 N825 N 0.17746 0.83535 0.37936
 C826 C 0.19113 0.83083 0.39460
 C827 C 0.18546 0.81223 0.40369
 C828 C 0.16780 0.80621 0.39329
 H829 H 0.20508 0.83951 0.39779
 H830 H 0.15958 0.79178 0.39541
 H831 H 0.16633 0.83331 0.34178
 H832 H 0.14831 0.85032 0.35687
 C833 C 0.25074 1.05526 0.25243
 C834 C 0.26452 1.04491 0.23932
 C835 C 0.26506 1.02318 0.23913
 C836 C 0.25195 1.01128 0.25237
 C837 C 0.23822 1.02242 0.26563
 C838 C 0.23755 1.04414 0.26548
 C839 C 0.25202 0.98770 0.25179
 C840 C 0.23874 0.97578 0.26483
 C841 C 0.23734 0.95418 0.26273
 C842 C 0.24954 0.94400 0.24798
 C843 C 0.26370 0.95503 0.23593
 C844 C 0.26499 0.97660 0.23776
 H845 H 0.25020 1.07208 0.25241
 H846 H 0.27601 1.01615 0.22860
 H847 H 0.22745 1.01479 0.27590
 H848 H 0.22894 0.98276 0.27647
 H849 H 0.24856 0.92729 0.24639
 H850 H 0.27606 0.98418 0.22778
 C851 C 0.24912 0.55513 0.74936
 C852 C 0.26236 0.54444 0.73597
 C853 C 0.26237 0.52271 0.73578
 C854 C 0.24948 0.51115 0.74953
 C855 C 0.23642 0.52265 0.76317
 C856 C 0.23607 0.54437 0.76281
 C857 C 0.24968 0.48756 0.74968
 C858 C 0.23661 0.47601 0.76324
 C859 C 0.23663 0.45427 0.76310
 C860 C 0.25001 0.44356 0.74986
 C861 C 0.26323 0.45433 0.73654
 C862 C 0.26294 0.47606 0.73622
 H863 H 0.24904 0.57196 0.74937
 H864 H 0.27292 0.51541 0.72503
 H865 H 0.22608 0.51531 0.77408
 H866 H 0.22589 0.48332 0.77382
 H867 H 0.25011 0.42674 0.74988
 H868 H 0.27349 0.48340 0.72553
 C869 C 0.74791 -0.05677 0.25277
 C870 C 0.76057 -0.04616 0.26658
 C871 C 0.76094 -0.02447 0.26634
 C872 C 0.74972 -0.01294 0.25122
 C873 C 0.73780 -0.02430 0.23666
 C874 C 0.73632 -0.04596 0.23796
 C875 C 0.75053 0.01053 0.25062
 C876 C 0.73649 0.02221 0.23823
 C877 C 0.73746 0.04389 0.23743
 C878 C 0.75198 0.05441 0.24934
 C879 C 0.76569 0.04347 0.26206
 C880 C 0.76520 0.02174 0.26254
 H881 H 0.74738 -0.07357 0.25329
 H882 H 0.77033 -0.01709 0.27797
 H883 H 0.72930 -0.01676 0.22433
 H884 H 0.72438 0.01497 0.22936
 H885 H 0.75244 0.07122 0.24890
 H886 H 0.77669 0.01407 0.27203
 C887 C 0.74765 0.44437 0.75272
 C888 C 0.75999 0.45524 0.76660
 C889 C 0.75945 0.47694 0.76679
 C890 C 0.74749 0.48828 0.75209
 C891 C 0.73579 0.47669 0.73754
 C892 C 0.73540 0.45497 0.73834
 C893 C 0.74775 0.51177 0.75146
 C894 C 0.73360 0.52319 0.73891
 C895 C 0.73552 0.54470 0.73647
 C896 C 0.75074 0.55535 0.74736
 C897 C 0.76374 0.54486 0.76116
 C898 C 0.76253 0.52324 0.76296
 H899 H 0.74781 0.42754 0.75293
 H900 H 0.76868 0.48446 0.77845
 H901 H 0.72674 0.48408 0.72551
 H902 H 0.72120 0.51576 0.73059
 H903 H 0.75194 0.57205 0.74568
 H904 H 0.77371 0.51585 0.77300
 C905 C 0.24987 0.44394 0.25026
 C906 C 0.26223 0.45458 0.26430
 C907 C 0.26165 0.47630 0.26483
 C908 C 0.24975 0.48786 0.25022
 C909 C 0.23790 0.47646 0.23563
 C910 C 0.23743 0.45474 0.23620
 C911 C 0.24966 0.51138 0.25026
 C912 C 0.23548 0.52296 0.23787
 C913 C 0.23553 0.54469 0.23787
 C914 C 0.24942 0.55533 0.25041
 C915 C 0.26346 0.54450 0.26285
 C916 C 0.26376 0.52277 0.26268
 H917 H 0.24991 0.42711 0.25028
 H918 H 0.27084 0.48365 0.27662
 H919 H 0.22863 0.48396 0.22387
 H920 H 0.22393 0.51560 0.22839
 H921 H 0.24934 0.57216 0.25044
 H922 H 0.27546 0.51527 0.27204
 C923 C 0.75085 1.05589 0.75152
 C924 C 0.76248 1.04541 0.73652
 C925 C 0.76070 1.02382 0.73464
 C926 C 0.74806 1.01217 0.74853
 C927 C 0.73617 1.02348 0.76331
 C928 C 0.73735 1.04510 0.76448
 C929 C 0.74766 0.98863 0.74804
 C930 C 0.73379 0.97711 0.76081
 C931 C 0.73424 0.95539 0.76112
 C932 C 0.74822 0.94467 0.74853
 C933 C 0.76179 0.95543 0.73555
 C934 C 0.76162 0.97716 0.73532
 H935 H 0.75187 1.07264 0.75271
 H936 H 0.76968 1.01658 0.72249
 H937 H 0.72598 1.01605 0.77429
 H938 H 0.72232 0.98445 0.77056
 H939 H 0.74852 0.92785 0.74881
 H940 H 0.77298 0.98459 0.72553
 C941 C 0.75070 0.55575 0.25003
 C942 C 0.76369 0.54490 0.23652
 C943 C 0.76293 0.52322 0.23577
 C944 C 0.74917 0.51182 0.24873
 C945 C 0.73582 0.52344 0.26198
 C946 C 0.73665 0.54514 0.26259
 C947 C 0.74894 0.48825 0.24858
 C948 C 0.73614 0.47680 0.26248
 C949 C 0.73593 0.45508 0.26223
 C950 C 0.74898 0.44428 0.24875
 C951 C 0.76203 0.45494 0.23521
 C952 C 0.76175 0.47666 0.23476
 H953 H 0.75132 0.57255 0.25057
 H954 H 0.77357 0.51582 0.22517
 H955 H 0.72452 0.51621 0.27197
 H956 H 0.72597 0.48420 0.27353
 H957 H 0.74902 0.42745 0.24884
 H958 H 0.77201 0.48393 0.22374
 C959 C 0.24950 -0.05595 0.75091
 C960 C 0.26506 -0.04567 0.76167
 C961 C 0.26729 -0.02420 0.75950
 C962 C 0.25315 -0.01235 0.74739
 C963 C 0.23795 -0.02338 0.73599
 C964 C 0.23638 -0.04503 0.73753
 C965 C 0.25370 0.01113 0.74745
 C966 C 0.24147 0.02308 0.73346
 C967 C 0.24033 0.04473 0.73511
 C968 C 0.25254 0.05497 0.74964
 C969 C 0.26559 0.04378 0.76280
 C970 C 0.26575 0.02209 0.76220
 H971 H 0.24808 -0.07265 0.75241
 H972 H 0.28000 -0.01718 0.76769
 H973 H 0.22672 -0.01561 0.72628
 H974 H 0.23225 0.01599 0.72153
 H975 H 0.25203 0.07176 0.75057
 H976 H 0.27526 0.01427 0.77356
 C977 C 0.25135 0.25111 1.05599
 C978 C 0.23813 0.26451 1.04523
 C979 C 0.23833 0.26484 1.02346
 C980 C 0.25198 0.25186 1.01189
 C981 C 0.26528 0.23846 1.02340
 C982 C 0.26483 0.23804 1.04516
 C983 C 0.25169 0.25163 0.98828
 C984 C 0.26446 0.23779 0.97670
 C985 C 0.26242 0.23595 0.95510
 C986 C 0.24776 0.24802 0.94460
 C987 C 0.23604 0.26281 0.95524
 C988 C 0.23813 0.26479 0.97680
 H989 H 0.25110 0.25081 1.07284
 H990 H 0.22753 0.27534 1.01613
 H991 H 0.27604 0.22797 1.01603
 H992 H 0.27580 0.22783 0.98396
 H993 H 0.24612 0.24655 0.92791
 H994 H 0.22861 0.27646 0.98410
 C995 C 0.25412 0.75342 0.55560
 C996 C 0.23982 0.76579 0.54495
 C997 C 0.23820 0.76425 0.52330
 C998 C 0.25086 0.75023 0.51180
 C999 C 0.26405 0.73678 0.52338
 C1000 C 0.26587 0.73859 0.54501
 C1001 C 0.25031 0.74965 0.48818
 C1002 C 0.26387 0.73652 0.47663
 C1003 C 0.26266 0.73533 0.45491
 C1004 C 0.24827 0.74753 0.44420
 C1005 C 0.23556 0.76145 0.45491
 C1006 C 0.23649 0.76248 0.47663
 H1007 H 0.25540 0.75467 0.57235
 H1008 H 0.22712 0.77444 0.51596
 H1009 H 0.27332 0.72490 0.51610
 H1010 H 0.27547 0.72693 0.48399
 H1011 H 0.24746 0.74670 0.42739
 H1012 H 0.22606 0.77333 0.48395
 C1013 C 0.25090 0.74939 -0.05589
 C1014 C 0.26311 0.76347 -0.04512
 C1015 C 0.26249 0.76400 -0.02338
 C1016 C 0.25018 0.74980 -0.01185
 C1017 C 0.23810 0.73552 -0.02333
 C1018 C 0.23821 0.73563 -0.04508
 C1019 C 0.25007 0.74976 0.01170
 C1020 C 0.23595 0.73733 0.02319
 C1021 C 0.23646 0.73666 0.04492
 C1022 C 0.25030 0.74911 0.05574
 C1023 C 0.26392 0.76201 0.04497
 C1024 C 0.26418 0.76202 0.02321
 H1025 H 0.25116 0.74924 -0.07274
 H1026 H 0.27178 0.77566 -0.01599
 H1027 H 0.22853 0.72402 -0.01591
 H1028 H 0.22442 0.72788 0.01578
 H1029 H 0.25038 0.74887 0.07259
 H1030 H 0.27558 0.77174 0.01580
 C1031 C 0.25015 0.24936 0.44453
 C1032 C 0.26362 0.26206 0.45551
 C1033 C 0.26307 0.26227 0.47722
 C1034 C 0.24807 0.25070 0.48845
 C1035 C 0.23373 0.23886 0.47676
 C1036 C 0.23528 0.23763 0.45505
 C1037 C 0.24774 0.25068 0.51197
 C1038 C 0.23600 0.23591 0.52332
 C1039 C 0.23574 0.23593 0.54507
 C1040 C 0.24810 0.24981 0.55598
 C1041 C 0.26021 0.26420 0.54529
 C1042 C 0.25952 0.26513 0.52355
 H1043 H 0.25101 0.24887 0.42771
 H1044 H 0.27463 0.27151 0.48487
 H1045 H 0.22149 0.23012 0.48411
 H1046 H 0.22694 0.22418 0.51570
 H1047 H 0.24827 0.24942 0.57282
 H1048 H 0.26848 0.27715 0.51616
 C1049 C 0.75168 0.75130 1.05511
 C1050 C 0.73770 0.76369 1.04414
 C1051 C 0.73762 0.76329 1.02240
 C1052 C 0.75254 0.75150 1.01113
 C1053 C 0.76724 0.73981 1.02283
 C1054 C 0.76627 0.73913 1.04461
 C1055 C 0.75226 0.75091 0.98758
 C1056 C 0.76397 0.73596 0.97633
 C1057 C 0.76300 0.73495 0.95460
 C1058 C 0.74964 0.74816 0.94373
 C1059 C 0.73811 0.76321 0.95426
 C1060 C 0.73987 0.76500 0.97588
 H1061 H 0.75124 0.75117 1.07196
 H1062 H 0.72569 0.77226 1.01476
 H1063 H 0.77924 0.73068 1.01547
 H1064 H 0.77375 0.72471 0.98400
 H1065 H 0.74865 0.74711 0.92695
 H1066 H 0.73122 0.77738 0.98315
 C1067 C 0.75171 0.25200 0.55544
 C1068 C 0.73696 0.26375 0.54470
 C1069 C 0.73554 0.26220 0.52303
 C1070 C 0.74955 0.24955 0.51153
 C1071 C 0.76392 0.23734 0.52305
 C1072 C 0.76473 0.23835 0.54477
 C1073 C 0.74918 0.24908 0.48795
 C1074 C 0.76136 0.23463 0.47652
 C1075 C 0.76071 0.23404 0.45477
 C1076 C 0.74739 0.24732 0.44398
 C1077 C 0.73555 0.26202 0.45466
 C1078 C 0.73677 0.26324 0.47636
 H1079 H 0.75257 0.25297 0.57223
 H1080 H 0.72347 0.27117 0.51561
 H1081 H 0.77494 0.22709 0.51569
 H1082 H 0.77139 0.22347 0.48396
 H1083 H 0.74671 0.24665 0.42716
 H1084 H 0.72776 0.27529 0.48372
 C1085 C 0.74968 0.24982 -0.05539
 C1086 C 0.76216 0.26375 -0.04473
 C1087 C 0.76119 0.26476 -0.02302
 C1088 C 0.74846 0.25103 -0.01137
 C1089 C 0.73601 0.23699 -0.02275
 C1090 C 0.73633 0.23674 -0.04450
 C1091 C 0.74860 0.25098 0.01221
 C1092 C 0.73471 0.23845 0.02389
 C1093 C 0.73605 0.23716 0.04559
 C1094 C 0.75055 0.24907 0.05618
 C1095 C 0.76365 0.26238 0.04528
 C1096 C 0.76299 0.26309 0.02355
 H1097 H 0.75018 0.24932 -0.07223
 H1098 H 0.77079 0.27625 -0.01575
 H1099 H 0.72596 0.22594 -0.01525
 H1100 H 0.72289 0.22924 0.01665
 H1101 H 0.75133 0.24832 0.07300
 H1102 H 0.77405 0.27310 0.01604
 C1103 C 0.74877 0.75065 0.44518
 C1104 C 0.75967 0.76650 0.45494
 C1105 C 0.75723 0.76962 0.47637
 C1106 C 0.74487 0.75607 0.48862
 C1107 C 0.73328 0.74074 0.47796
 C1108 C 0.73509 0.73823 0.45641
 C1109 C 0.74553 0.75666 0.51217
 C1110 C 0.73214 0.74410 0.52436
 C1111 C 0.73536 0.74147 0.54574
 C1112 C 0.75113 0.75243 0.55558
 C1113 C 0.76328 0.76645 0.54444
 C1114 C 0.76069 0.76842 0.52289
 H1115 H 0.75043 0.74840 0.42857
 H1116 H 0.76572 0.78224 0.48315
 H1117 H 0.72339 0.72993 0.48599
 H1118 H 0.71951 0.73562 0.51758
 H1119 H 0.75339 0.75063 0.57218
 H1120 H 0.77128 0.77860 0.51490
 C1121 C 1.05593 0.25028 0.25045
 C1122 C 1.04522 0.23652 0.26326
 C1123 C 1.02345 0.23651 0.26338
 C1124 C 1.01190 0.25046 0.25072
 C1125 C 1.02335 0.26440 0.23800
 C1126 C 1.04513 0.26418 0.23782
 C1127 C 0.98832 0.25038 0.25071
 C1128 C 0.97679 0.26241 0.23619
 C1129 C 0.95504 0.26272 0.23658
 C1130 C 0.94431 0.25008 0.25046
 C1131 C 0.95508 0.23759 0.26450
 C1132 C 0.97683 0.23820 0.26514
 H1133 H 1.07278 0.25018 0.25031
 H1134 H 1.01608 0.22505 0.27308
 H1135 H 1.01590 0.27590 0.22835
 H1136 H 0.98417 0.27192 0.22457
 H1137 H 0.92745 0.24996 0.25033
 H1138 H 0.98424 0.22876 0.27682
 C1139 C 0.55563 0.24966 0.75060
 C1140 C 0.54483 0.23569 0.76311
 C1141 C 0.52305 0.23577 0.76318
 C1142 C 0.51159 0.25019 0.75097
 C1143 C 0.52313 0.26443 0.73868
 C1144 C 0.54490 0.26395 0.73834
 C1145 C 0.48801 0.25020 0.75084
 C1146 C 0.47664 0.26194 0.73597
 C1147 C 0.45488 0.26206 0.73597
 C1148 C 0.44404 0.24948 0.74981
 C1149 C 0.45465 0.23734 0.76433
 C1150 C 0.47640 0.23826 0.76538
 H1151 H 0.57249 0.24944 0.75045
 H1152 H 0.51554 0.22410 0.77253
 H1153 H 0.51569 0.27632 0.72949
 H1154 H 0.48418 0.27124 0.72427
 H1155 H 0.42719 0.24921 0.74936
 H1156 H 0.48380 0.22921 0.77739
 C1157 C -0.05618 0.25100 0.74896
 C1158 C -0.04560 0.26465 0.76180
 C1159 C -0.02383 0.26455 0.76207
 C1160 C -0.01212 0.25082 0.74930
 C1161 C -0.02348 0.23715 0.73639
 C1162 C -0.04525 0.23723 0.73634
 C1163 C 0.01150 0.25061 0.74962
 C1164 C 0.02325 0.23778 0.73597
 C1165 C 0.04501 0.23698 0.73698
 C1166 C 0.05553 0.24970 0.75080
 C1167 C 0.04456 0.26302 0.76384
 C1168 C 0.02281 0.26318 0.76365
 H1169 H -0.07304 0.25102 0.74888
 H1170 H -0.01662 0.27564 0.77216
 H1171 H -0.01597 0.22591 0.72654
 H1172 H 0.01606 0.22795 0.72464
 H1173 H 0.07238 0.24938 0.75127
 H1174 H 0.01530 0.27345 0.77450
 C1175 C 0.44379 0.24991 0.24983
 C1176 C 0.45439 0.26235 0.26384
 C1177 C 0.47614 0.26183 0.26446
 C1178 C 0.48779 0.24998 0.24993
 C1179 C 0.47646 0.23802 0.23538
 C1180 C 0.45471 0.23745 0.23590
 C1181 C 0.51134 0.25006 0.25003
 C1182 C 0.52301 0.23588 0.23779
 C1183 C 0.54476 0.23599 0.23788
 C1184 C 0.55536 0.24990 0.25043
 C1185 C 0.54442 0.26398 0.26270
 C1186 C 0.52265 0.26426 0.26238
 H1187 H 0.42694 0.24988 0.24981
 H1188 H 0.48345 0.27106 0.27624
 H1189 H 0.48404 0.22876 0.22367
 H1190 H 0.51571 0.22426 0.22837
 H1191 H 0.57222 0.24983 0.25058
 H1192 H 0.51507 0.27598 0.27163
 C1193 C 1.05654 0.74981 0.75019
 C1194 C 1.04569 0.73755 0.76432
 C1195 C 1.02395 0.73795 0.76459
 C1196 C 1.01258 0.74956 0.74964
 C1197 C 1.02415 0.76118 0.73484
 C1198 C 1.04590 0.76187 0.73567
 C1199 C 0.98905 0.74966 0.74962
 C1200 C 0.97763 0.76408 0.73741
 C1201 C 0.95588 0.76407 0.73735
 C1202 C 0.94505 0.75006 0.74977
 C1203 C 0.95575 0.73585 0.76215
 C1204 C 0.97752 0.73542 0.76192
 H1205 H 1.07340 0.74990 0.75046
 H1206 H 1.01641 0.72891 0.77650
 H1207 H 1.01674 0.77014 0.72276
 H1208 H 0.98516 0.77580 0.72813
 H1209 H 0.92819 0.75021 0.74979
 H1210 H 0.98495 0.72354 0.77112
 C1211 C 0.55621 0.75187 0.25277
 C1212 C 0.54531 0.73943 0.26670
 C1213 C 0.52354 0.73994 0.26696
 C1214 C 0.51224 0.75189 0.25219
 C1215 C 0.52389 0.76366 0.23759
 C1216 C 0.54563 0.76420 0.23843
 C1217 C 0.48871 0.75165 0.25156
 C1218 C 0.47739 0.76584 0.23896
 C1219 C 0.45584 0.76410 0.23662
 C1220 C 0.44501 0.74898 0.24765
 C1221 C 0.45542 0.73590 0.26146
 C1222 C 0.47709 0.73694 0.26317
 H1223 H 0.57307 0.75180 0.25295
 H1224 H 0.51594 0.73061 0.27859
 H1225 H 0.51656 0.77271 0.22553
 H1226 H 0.48490 0.77822 0.23057
 H1227 H 0.42828 0.74793 0.24605
 H1228 H 0.48441 0.72573 0.27324
 C1229 C -0.05608 0.75104 0.25112
 C1230 C -0.04528 0.76609 0.26212
 C1231 C -0.02378 0.76806 0.25942
 C1232 C -0.01246 0.75404 0.24667
 C1233 C -0.02410 0.73952 0.23499
 C1234 C -0.04576 0.73826 0.23702
 C1235 C 0.01110 0.75390 0.24642
 C1236 C 0.02251 0.74151 0.23213
 C1237 C 0.04420 0.73992 0.23330
 C1238 C 0.05504 0.75181 0.24762
 C1239 C 0.04443 0.76482 0.26124
 C1240 C 0.02267 0.76540 0.26117
 H1241 H -0.07278 0.74978 0.25304
 H1242 H -0.01629 0.78027 0.26791
 H1243 H -0.01678 0.72849 0.22475
 H1244 H 0.01501 0.73250 0.22030
 H1245 H 0.07187 0.75095 0.24813
 H1246 H 0.01530 0.77496 0.27276
 C1247 C 0.44432 0.74886 0.75287
 C1248 C 0.45526 0.76364 0.76407
 C1249 C 0.47690 0.76482 0.76224
 C1250 C 0.48819 0.75053 0.74980
 C1251 C 0.47653 0.73600 0.73817
 C1252 C 0.45479 0.73543 0.73949
 C1253 C 0.51173 0.75060 0.74922
 C1254 C 0.52299 0.73867 0.73445
 C1255 C 0.54473 0.73800 0.73461
 C1256 C 0.55572 0.75032 0.74842
 C1257 C 0.54520 0.76270 0.76275
 C1258 C 0.52344 0.76228 0.76369
 H1259 H 0.42752 0.74826 0.75411
 H1260 H 0.48447 0.77699 0.77073
 H1261 H 0.48384 0.72459 0.72836
 H1262 H 0.51535 0.72950 0.72283
 H1263 H 0.57258 0.75016 0.74811
 H1264 H 0.51612 0.77137 0.77571
 N1265 N 0.41788 0.30306 0.28000
 C1266 C 0.41750 0.30068 0.30094
 N1267 N 0.42997 0.28609 0.30982
 N1268 N 0.44234 0.27424 0.29810
 C1269 C 0.44242 0.27646 0.27712
 N1270 N 0.43001 0.29107 0.26830
 N1271 N 0.42522 0.80844 0.78277
 C1272 C 0.41784 0.80129 0.80125
 N1273 N 0.42393 0.78220 0.80792
 N1274 N 0.43652 0.77051 0.79636
 C1275 C 0.44370 0.77759 0.77784
 N1276 N 0.43791 0.79677 0.77125
 N1277 N -0.07069 0.28809 0.80752
 C1278 C -0.08356 0.30229 0.79859
 N1279 N -0.08309 0.30473 0.77765
 N1280 N -0.07051 0.29312 0.76599
 C1281 C -0.05768 0.27891 0.77489
 N1282 N -0.05789 0.27664 0.79586
 N1283 N -0.06910 0.81136 0.28787
 C1284 C -0.08173 0.80203 0.30200
 N1285 N -0.08142 0.78106 0.30360
 N1286 N -0.06929 0.76975 0.29125
 C1287 C -0.05680 0.77899 0.27702
 N1288 N -0.05673 0.80002 0.27564
 N1289 N 0.57264 0.71727 0.31183
 C1290 C 0.58304 0.70111 0.30305
 N1291 N 0.58004 0.69706 0.28262
 N1292 N 0.56742 0.70893 0.27127
 C1293 C 0.55710 0.72511 0.28000
 N1294 N 0.55986 0.72907 0.30049
 N1295 N 0.58157 0.19485 0.77892
 C1296 C 0.58246 0.19759 0.79979
 N1297 N 0.57007 0.21220 0.80868
 N1298 N 0.55733 0.22375 0.79707
 C1299 C 0.55668 0.22118 0.77617
 N1300 N 0.56903 0.20656 0.76729
 N1301 N 1.07988 0.69527 0.78145
 C1302 C 1.08279 0.69978 0.80179
 N1303 N 1.07261 0.71632 0.81010
 N1304 N 1.06009 0.72801 0.79839
 C1305 C 1.05743 0.72358 0.77797
 N1306 N 1.06753 0.70703 0.76972
 N1307 N 1.08343 0.19706 0.27871
 C1308 C 1.08267 0.19808 0.29975
 N1309 N 1.06872 0.21110 0.30885
 N1310 N 1.05609 0.22278 0.29723
 C1311 C 1.05715 0.22197 0.27617
 N1312 N 1.07103 0.20891 0.26713
 N1313 N 0.57090 0.28643 0.69263
 C1314 C 0.58276 0.30137 0.70136
 N1315 N 0.58125 0.30464 0.72214
 N1316 N 0.56864 0.29314 0.73383
 C1317 C 0.55682 0.27819 0.72511
 N1318 N 0.55810 0.27506 0.70430
 N1319 N 0.58322 0.80350 0.22208
 C1320 C 0.58335 0.80143 0.20113
 N1321 N 0.57019 0.78767 0.19225
 N1322 N 0.55747 0.77628 0.20401
 C1323 C 0.55769 0.77814 0.22502
 N1324 N 0.57074 0.79197 0.23381
 N1325 N 1.07038 0.28731 0.19199
 C1326 C 1.08277 0.30178 0.20081
 N1327 N 1.08187 0.30450 0.22169
 N1328 N 1.06935 0.29293 0.23340
 C1329 C 1.05700 0.27846 0.22460
 N1330 N 1.05766 0.27588 0.20369
 N1331 N 1.08262 0.80216 0.71969
 C1332 C 1.08323 0.79996 0.69875
 N1333 N 1.07074 0.78567 0.68974
 N1334 N 1.05818 0.77394 0.70135
 C1335 C 1.05788 0.77600 0.72235
 N1336 N 1.07030 0.79031 0.73128
 N1337 N 0.43071 0.71119 0.69393
 C1338 C 0.41672 0.69828 0.70296
 N1339 N 0.41607 0.69688 0.72399
 N1340 N 0.42865 0.70828 0.73562
 C1341 C 0.44263 0.72120 0.72663
 N1342 N 0.44353 0.72239 0.70557
 N1343 N 0.41940 0.19599 0.22018
 C1344 C 0.41790 0.19908 0.19939
 N1345 N 0.42937 0.21432 0.19039
 N1346 N 0.44179 0.22614 0.20186
 C1347 C 0.44301 0.22319 0.22271
 N1348 N 0.43160 0.20793 0.23165
 N1349 N -0.06912 0.71203 0.19208
 C1350 C -0.08403 0.70036 0.20136
 N1351 N -0.08552 0.70039 0.22239
 N1352 N -0.07290 0.71201 0.23374
 C1353 C -0.05802 0.72373 0.22452
 N1354 N -0.05627 0.72345 0.20348
 N1355 N -0.07009 0.21319 0.69114
 C1356 C -0.08248 0.19884 0.70035
 N1357 N -0.08171 0.19649 0.72129
 N1358 N -0.06931 0.20833 0.73267
 C1359 C -0.05698 0.22270 0.72349
 N1360 N -0.05748 0.22488 0.70252
 N1361 N 0.30328 0.41845 0.28055
 C1362 C 0.30017 0.41716 0.30137
 N1363 N 0.28505 0.42903 0.31019
 N1364 N 0.27337 0.44164 0.29854
 C1365 C 0.27634 0.44264 0.27767
 N1366 N 0.29148 0.43083 0.26890
 N1367 N 0.28227 -0.07786 0.80546
 C1368 C 0.30180 -0.08338 0.79955
 N1369 N 0.30961 -0.07549 0.78156
 N1370 N 0.29818 -0.06280 0.76978
 C1371 C 0.27855 -0.05762 0.77559
 N1372 N 0.27080 -0.06533 0.79361
 N1373 N 0.80418 0.42323 0.78318
 C1374 C 0.79837 0.41738 0.80262
 N1375 N 0.78040 0.42515 0.81066
 N1376 N 0.76850 0.43798 0.79952
 C1377 C 0.77423 0.44356 0.78000
 N1378 N 0.79226 0.43599 0.77203
 N1379 N 0.80366 -0.07982 0.28267
 C1380 C 0.79922 -0.08352 0.30297
 N1381 N 0.78237 -0.07403 0.31160
 N1382 N 0.77031 -0.06151 0.30024
 C1383 C 0.77470 -0.05811 0.27988
 N1384 N 0.79156 -0.06745 0.27131
 N1385 N 0.30283 0.58121 0.72050
 C1386 C 0.30031 0.58236 0.69961
 N1387 N 0.28589 0.57011 0.69049
 N1388 N 0.27430 0.55729 0.70194
 C1389 C 0.27668 0.55642 0.72289
 N1390 N 0.29112 0.56861 0.73195
 N1391 N 0.30432 1.08211 0.22283
 C1392 C 0.30123 1.08320 0.20201
 N1393 N 0.28658 1.07091 0.19333
 N1394 N 0.27537 1.05806 0.20510
 C1395 C 0.27835 1.05719 0.22596
 N1396 N 0.29297 1.06947 0.23462
 N1397 N 0.80566 0.57967 0.22021
 C1398 C 0.80193 0.58188 0.19958
 N1399 N 0.78617 0.57102 0.19093
 N1400 N 0.77448 0.55849 0.20256
 C1401 C 0.77805 0.55656 0.22325
 N1402 N 0.79383 0.56735 0.23187
 N1403 N 0.80228 1.08286 0.72071
 C1404 C 0.80051 1.08297 0.69973
 N1405 N 0.78678 1.06989 0.69068
 N1406 N 0.77516 1.05724 0.70230
 C1407 C 0.77674 1.05743 0.72334
 N1408 N 0.79050 1.07046 0.73230
 N1409 N 0.69387 0.57860 0.28035
 C1410 C 0.70004 0.58353 0.29986
 N1411 N 0.71775 0.57484 0.30743
 N1412 N 0.72901 0.56188 0.29583
 C1413 C 0.72291 0.55711 0.27628
 N1414 N 0.70517 0.56569 0.26872
 N1415 N 0.69325 1.07565 0.78383
 C1416 C 0.70073 1.08316 0.80199
 N1417 N 0.71990 1.07699 0.80838
 N1418 N 0.73134 1.06416 0.79680
 C1419 C 0.72388 1.05685 0.77858
 N1420 N 0.70464 1.06275 0.77231
 N1421 N 0.21379 0.57001 0.80876
 C1422 C 0.19863 0.58196 0.80012
 N1423 N 0.19521 0.58063 0.77938
 N1424 N 0.20677 0.56812 0.76762
 C1425 C 0.22194 0.55623 0.77623
 N1426 N 0.22522 0.55730 0.79702
 N1427 N 0.21376 1.06971 0.31066
 C1428 C 0.19851 1.08121 0.30158
 N1429 N 0.19543 1.07943 0.28082
 N1430 N 0.20743 1.06698 0.26945
 C1431 C 0.22275 1.05561 0.27848
 N1432 N 0.22564 1.05707 0.29930
 N1433 N 0.71426 0.42905 0.69217
 C1434 C 0.69911 0.41715 0.70076
 N1435 N 0.69542 0.41854 0.72146
 N1436 N 0.70668 0.43107 0.73326
 C1437 C 0.72182 0.44293 0.72474
 N1438 N 0.72539 0.44180 0.70397
 N1439 N 0.69650 -0.08275 0.22142
 C1440 C 0.69897 -0.08297 0.20048
 N1441 N 0.71317 -0.07010 0.19167
 N1442 N 0.72459 -0.05759 0.20347
 C1443 C 0.72231 -0.05771 0.22447
 N1444 N 0.70805 -0.07049 0.23319
 N1445 N 0.21427 0.42970 0.19052
 C1446 C 0.19938 0.41775 0.19951
 N1447 N 0.19654 0.41881 0.22036
 N1448 N 0.20837 0.43106 0.23189
 C1449 C 0.22327 0.44295 0.22297
 N1450 N 0.22597 0.44217 0.20206
 N1451 N 0.21094 -0.06849 0.69236
 C1452 C 0.19801 -0.08236 0.70156
 N1453 N 0.19684 -0.08294 0.72260
 N1454 N 0.20852 -0.07048 0.73407
 C1455 C 0.22151 -0.05667 0.72490
 N1456 N 0.22243 -0.05579 0.70384
 N1457 N 0.28268 0.30690 0.42604
 C1458 C 0.30169 0.30024 0.41965
 N1459 N 0.30851 0.28122 0.42583
 N1460 N 0.29663 0.26920 0.43780
 C1461 C 0.27758 0.27584 0.44403
 N1462 N 0.27083 0.29489 0.43801
 N1463 N 0.28188 0.80810 -0.07527
 C1464 C 0.30066 0.80112 -0.08206
 N1465 N 0.30737 0.78210 -0.07583
 N1466 N 0.29563 0.77037 -0.06348
 C1467 C 0.27683 0.77730 -0.05684
 N1468 N 0.27015 0.79637 -0.06288
 N1469 N 0.78420 0.30908 -0.07146
 C1470 C 0.80102 0.30068 -0.08114
 N1471 N 0.80541 0.28028 -0.07812
 N1472 N 0.79325 0.26863 -0.06610
 C1473 C 0.77641 0.27702 -0.05651
 N1474 N 0.77213 0.29747 -0.05928
 N1475 N 0.78742 0.81101 0.43182
 C1476 C 0.79947 0.80143 0.41733
 N1477 N 0.79887 0.78048 0.41587
 N1478 N 0.78643 0.76947 0.42814
 C1479 C 0.77427 0.77896 0.44252
 N1480 N 0.77511 0.79993 0.44431
 N1481 N 0.69100 0.28526 0.57141
 C1482 C 0.69925 0.30168 0.58159
 N1483 N 0.71968 0.30603 0.57879
 N1484 N 0.73152 0.29424 0.56657
 C1485 C 0.72331 0.27781 0.55645
 N1486 N 0.70281 0.27357 0.55899
 N1487 N 0.71954 0.80690 1.07644
 C1488 C 0.69986 0.80112 1.08126
 N1489 N 0.69226 0.78340 1.07290
 N1490 N 0.70401 0.77179 1.06035
 C1491 C 0.72376 0.77752 1.05575
 N1492 N 0.73130 0.79526 1.06400
 N1493 N 0.21907 0.30810 1.07665
 C1494 C 0.19950 0.30198 1.08159
 N1495 N 0.19242 0.28379 1.07383
 N1496 N 0.20453 0.27209 1.06172
 C1497 C 0.22413 0.27818 1.05697
 N1498 N 0.23119 0.29639 1.06461
 N1499 N 0.19331 0.78910 0.56912
 C1500 C 0.20177 0.80368 0.58163
 N1501 N 0.22269 0.80631 0.58135
 N1502 N 0.23475 0.79455 0.56929
 C1503 C 0.22632 0.77998 0.55679
 N1504 N 0.20537 0.77752 0.55682
 N1505 N 0.30671 0.72124 0.58098
 C1506 C 0.30354 0.70046 0.58187
 N1507 N 0.28843 0.69210 0.56987
 N1508 N 0.27689 0.70413 0.55750
 C1509 C 0.27991 0.72496 0.55688
 N1510 N 0.29500 0.73328 0.56885
 N1511 N 0.28253 0.19297 1.07557
 C1512 C 0.30173 0.19903 1.08168
 N1513 N 0.30905 0.21760 1.07497
 N1514 N 0.29752 0.22979 1.06278
 C1515 C 0.27829 0.22379 1.05684
 N1516 N 0.27099 0.20517 1.06340
 N1517 N 0.81162 0.71386 1.06931
 C1518 C 0.80220 0.70019 1.08237
 N1519 N 0.78118 0.69887 1.08218
 N1520 N 0.76992 0.71098 1.06976
 C1521 C 0.77924 0.72471 1.05678
 N1522 N 0.80032 0.72587 1.05664
 N1523 N 0.78642 0.19225 0.57083
 C1524 C 0.80257 0.20040 0.58151
 N1525 N 0.80671 0.22093 0.57936
 N1526 N 0.79496 0.23295 0.56724
 C1527 C 0.77882 0.22480 0.55659
 N1528 N 0.77479 0.20423 0.55852
 N1529 N 0.69049 0.71103 0.43375
 C1530 C 0.70000 0.69772 0.42041
 N1531 N 0.72107 0.69694 0.41991
 N1532 N 0.73224 0.70935 0.43195
 C1533 C 0.72277 0.72273 0.44522
 N1534 N 0.70168 0.72325 0.44603
 N1535 N 0.71730 0.19220 -0.07412
 C1536 C 0.69882 0.19945 -0.08135
 N1537 N 0.69233 0.21865 -0.07558
 N1538 N 0.70403 0.23029 -0.06324
 C1539 C 0.72255 0.22307 -0.05616
 N1540 N 0.72899 0.20382 -0.06176
 N1541 N 0.19332 0.71624 -0.07397
 C1542 C 0.20064 0.69795 -0.08147
 N1543 N 0.22012 0.69170 -0.07622
 N1544 N 0.23195 0.70343 -0.06410
 C1545 C 0.22464 0.72176 -0.05674
 N1546 N 0.20512 0.72795 -0.06182
 N1547 N 0.18961 0.21322 0.43095
 C1548 C 0.19877 0.19891 0.41840
 N1549 N 0.21977 0.19699 0.41858
 N1550 N 0.23125 0.20912 0.43057
 C1551 C 0.22217 0.22344 0.44308
 N1552 N 0.20112 0.22521 0.44319
 N1553 N 0.28609 0.42907 0.69064
 C1554 C 0.30125 0.41717 0.69933
 N1555 N 0.30442 0.41833 0.72013
 N1556 N 0.29265 0.43065 0.73187
 C1557 C 0.27748 0.44251 0.72321
 N1558 N 0.27445 0.44160 0.70237
 N1559 N 0.30907 0.92740 0.21477
 C1560 C 0.30093 0.91821 0.19771
 N1561 N 0.28082 0.92215 0.19270
 N1562 N 0.26914 0.93451 0.20451
 C1563 C 0.27724 0.94360 0.22160
 N1564 N 0.29743 0.93991 0.22650
 N1565 N 0.80306 0.41845 0.21967
 C1566 C 0.80016 0.41710 0.19885
 N1567 N 0.78528 0.42910 0.18981
 N1568 N 0.77362 0.44189 0.20125
 C1569 C 0.77637 0.44297 0.22211
 N1570 N 0.79127 0.43103 0.23111
 N1571 N 0.80231 0.91823 0.72034
 C1572 C 0.80030 0.91782 0.69937
 N1573 N 0.78626 0.93070 0.69019
 N1574 N 0.77455 0.94341 0.70166
 C1575 C 0.77639 0.94355 0.72266
 N1576 N 0.79045 0.93072 0.73180
 N1577 N 0.69012 0.57179 0.71447
 C1578 C 0.69892 0.58254 0.69855
 N1579 N 0.71946 0.57980 0.69453
 N1580 N 0.73090 0.56713 0.70624
 C1581 C 0.72217 0.55646 0.72218
 N1582 N 0.70155 0.55891 0.72607
 N1583 N 0.69585 0.07959 0.22158
 C1584 C 0.69989 0.08214 0.20102
 N1585 N 0.71571 0.07119 0.19227
 N1586 N 0.72719 0.05827 0.20373
 C1587 C 0.72325 0.05592 0.22433
 N1588 N 0.70743 0.06682 0.23307
 N1589 N 0.21255 0.57033 0.19225
 C1590 C 0.19804 0.58284 0.20116
 N1591 N 0.19517 0.58187 0.22204
 N1592 N 0.20668 0.56915 0.23366
 C1593 C 0.22120 0.55668 0.22478
 N1594 N 0.22391 0.55741 0.20386
 N1595 N 0.19992 0.08243 0.72063
 C1596 C 0.20066 0.08196 0.69958
 N1597 N 0.21404 0.06860 0.69012
 N1598 N 0.22629 0.05618 0.70137
 C1599 C 0.22576 0.05695 0.72245
 N1600 N 0.21235 0.07026 0.73185
 N1601 N 0.30390 0.58118 0.27812
 C1602 C 0.30108 0.58232 0.29899
 N1603 N 0.28659 0.57003 0.30811
 N1604 N 0.27519 0.55719 0.29669
 C1605 C 0.27785 0.55630 0.27578
 N1606 N 0.29236 0.56854 0.26670
 N1607 N 0.30847 0.07613 0.78089
 C1608 C 0.30232 0.08095 0.80048
 N1609 N 0.28458 0.07243 0.80809
 N1610 N 0.27326 0.05977 0.79640
 C1611 C 0.27934 0.05518 0.77674
 N1612 N 0.29713 0.06354 0.76920
 N1613 N 0.78875 0.56840 0.80657
 C1614 C 0.80132 0.58266 0.79747
 N1615 N 0.80228 0.58363 0.77643
 N1616 N 0.79076 0.57112 0.76486
 C1617 C 0.77818 0.55688 0.77390
 N1618 N 0.77744 0.55565 0.79497
 N1619 N 0.80582 0.08038 0.27776
 C1620 C 0.80294 0.08127 0.29863
 N1621 N 0.78860 0.06868 0.30759
 N1622 N 0.77741 0.05581 0.29602
 C1623 C 0.78010 0.05518 0.27510
 N1624 N 0.79446 0.06771 0.26618
 N1625 N 0.71333 0.42948 0.30814
 C1626 C 0.69849 0.41748 0.29936
 N1627 N 0.69539 0.41877 0.27856
 N1628 N 0.70695 0.43128 0.26686
 C1629 C 0.72179 0.44323 0.27559
 N1630 N 0.72476 0.44221 0.29644
 N1631 N 0.71326 0.92851 0.80700
 C1632 C 0.69763 0.91728 0.79859
 N1633 N 0.69342 0.91956 0.77805
 N1634 N 0.70465 0.93230 0.76625
 C1635 C 0.72029 0.94348 0.77464
 N1636 N 0.72438 0.94141 0.79522
 N1637 N 0.21304 0.42930 0.80891
 C1638 C 0.19844 0.41709 0.80002
 N1639 N 0.19589 0.41792 0.77912
 N1640 N 0.20774 0.43022 0.76746
 C1641 C 0.22234 0.44238 0.77631
 N1642 N 0.22474 0.44181 0.79725
 N1643 N 0.21263 0.92984 0.30840
 C1644 C 0.19950 0.91619 0.29933
 N1645 N 0.19827 0.91578 0.27830
 N1646 N 0.20999 0.92825 0.26672
 C1647 C 0.22313 0.94188 0.27573
 N1648 N 0.22417 0.94256 0.29680
 N1649 N 0.42071 0.30432 0.71855
 C1650 C 0.41730 0.29935 0.69838
 N1651 N 0.42720 0.28255 0.69027
 N1652 N 0.43989 0.27103 0.70199
 C1653 C 0.44307 0.27593 0.72222
 N1654 N 0.43325 0.29275 0.73028
 N1655 N 0.42803 0.80943 0.21547
 C1656 C 0.41868 0.80120 0.19853
 N1657 N 0.42256 0.78110 0.19364
 N1658 N 0.43501 0.76951 0.20544
 C1659 C 0.44428 0.77768 0.22241
 N1660 N 0.44066 0.79787 0.22720
 N1661 N 0.91890 0.30370 0.22024
 C1662 C 0.91759 0.30051 0.19947
 N1663 N 0.92946 0.28538 0.19070
 N1664 N 0.94209 0.27376 0.20237
 C1665 C 0.94312 0.27681 0.22319
 N1666 N 0.93132 0.29196 0.23191
 N1667 N 0.93023 0.78715 0.69189
 C1668 C 0.91800 0.80188 0.70081
 N1669 N 0.91923 0.80488 0.72162
 N1670 N 0.93190 0.79328 0.73319
 C1671 C 0.94406 0.77853 0.72429
 N1672 N 0.94310 0.77570 0.70344
 N1673 N 0.57057 0.28627 0.30799
 C1674 C 0.58209 0.30151 0.29909
 N1675 N 0.58023 0.30506 0.27838
 N1676 N 0.56762 0.29354 0.26689
 C1677 C 0.55614 0.27830 0.27577
 N1678 N 0.55777 0.27488 0.29652
 N1679 N 0.58246 0.80232 0.77883
 C1680 C 0.58268 0.80003 0.79978
 N1681 N 0.56982 0.78591 0.80872
 N1682 N 0.55725 0.77443 0.79705
 C1683 C 0.55732 0.77656 0.77604
 N1684 N 0.57014 0.79069 0.76717
 N1685 N 0.07878 0.30523 0.77994
 C1686 C 0.08177 0.30088 0.80036
 N1687 N 0.07157 0.28459 0.80901
 N1688 N 0.05898 0.27294 0.79758
 C1689 C 0.05623 0.27718 0.77711
 N1690 N 0.06633 0.29350 0.76849
 N1691 N 0.08086 0.80477 0.27813
 C1692 C 0.08266 0.80074 0.29874
 N1693 N 0.07101 0.78538 0.30728
 N1694 N 0.05811 0.77437 0.29553
 C1695 C 0.05653 0.77831 0.27486
 N1696 N 0.06815 0.79366 0.26638
 N1697 N 0.57857 0.69519 0.71798
 C1698 C 0.58099 0.69915 0.69741
 N1699 N 0.57067 0.71551 0.68886
 N1700 N 0.55846 0.72756 0.70053
 C1701 C 0.55630 0.72370 0.72116
 N1702 N 0.56654 0.70733 0.72967
 N1703 N 0.56979 0.21249 0.19225
 C1704 C 0.58253 0.19820 0.20120
 N1705 N 0.58200 0.19573 0.22214
 N1706 N 0.56947 0.20739 0.23379
 C1707 C 0.55677 0.22168 0.22487
 N1708 N 0.55706 0.22399 0.20390
 N1709 N 0.08015 0.69816 0.21862
 C1710 C 0.08114 0.70025 0.19767
 N1711 N 0.06907 0.71486 0.18826
 N1712 N 0.05657 0.72705 0.19948
 C1713 C 0.05591 0.72514 0.22048
 N1714 N 0.06788 0.71048 0.22982
 N1715 N 0.08267 0.19685 0.72171
 C1716 C 0.08267 0.19848 0.70070
 N1717 N 0.06950 0.21224 0.69151
 N1718 N 0.05684 0.22403 0.70299
 C1719 C 0.05712 0.22258 0.72404
 N1720 N 0.07025 0.20880 0.73317
 N1721 N 0.43095 0.71145 0.30704
 C1722 C 0.41705 0.69858 0.29800
 N1723 N 0.41666 0.69724 0.27697
 N1724 N 0.42936 0.70867 0.26534
 C1725 C 0.44323 0.72156 0.27434
 N1726 N 0.44389 0.72269 0.29540
 N1727 N 0.43069 0.21218 0.81008
 C1728 C 0.41741 0.19872 0.80091
 N1729 N 0.41718 0.19749 0.77988
 N1730 N 0.42943 0.20951 0.76839
 C1731 C 0.44264 0.22301 0.77747
 N1732 N 0.44320 0.22406 0.79854
 N1733 N 0.93011 0.71262 0.80767
 C1734 C 0.91760 0.69838 0.79867
 N1735 N 0.91858 0.69579 0.77777
 N1736 N 0.93130 0.70728 0.76621
 C1737 C 0.94378 0.72152 0.77518
 N1738 N 0.94303 0.72397 0.79612
 N1739 N 0.92929 0.21424 0.31001
 C1740 C 0.91754 0.19937 0.30096
 N1741 N 0.91904 0.19655 0.28013
 N1742 N 0.93151 0.20840 0.26869
 C1743 C 0.94320 0.22329 0.27768
 N1744 N 0.94198 0.22596 0.29856
 N1745 N 0.28098 0.30892 0.57369
 C1746 C 0.29893 0.30098 0.58154
 N1747 N 0.30439 0.28121 0.57674
 N1748 N 0.29223 0.26970 0.56476
 C1749 C 0.27426 0.27759 0.55702
 N1750 N 0.26885 0.29743 0.56161
 N1751 N 0.28165 0.80605 0.07602
 C1752 C 0.30091 0.79971 0.08190
 N1753 N 0.30832 0.78128 0.07479
 N1754 N 0.29680 0.76951 0.06241
 C1755 C 0.27749 0.77580 0.05671
 N1756 N 0.27012 0.79427 0.06368
 N1757 N 0.80777 0.28063 0.07619
 C1758 C 0.80154 0.30012 0.08132
 N1759 N 0.78318 0.30738 0.07382
 N1760 N 0.77141 0.29552 0.06178
 C1761 C 0.77758 0.27600 0.05684
 N1762 N 0.79596 0.26874 0.06421
 N1763 N 0.78971 0.81136 0.56735
 C1764 C 0.80326 0.80203 0.58062
 N1765 N 0.80441 0.78102 0.58101
 N1766 N 0.79215 0.76971 0.56894
 C1767 C 0.77855 0.77899 0.55574
 N1768 N 0.77765 0.80004 0.55504
 N1769 N 0.28027 0.69314 0.42079
 C1770 C 0.30064 0.69774 0.41788
 N1771 N 0.30872 0.71430 0.42798
 N1772 N 0.29681 0.72588 0.44042
 C1773 C 0.27638 0.72137 0.44309
 N1774 N 0.26833 0.70482 0.43305
 N1775 N 0.27833 0.19646 0.91716
 C1776 C 0.29937 0.19716 0.91826
 N1777 N 0.30830 0.21007 0.93221
 N1778 N 0.29654 0.22192 0.94455
 C1779 C 0.27548 0.22143 0.94317
 N1780 N 0.26662 0.20849 0.92925
 N1781 N 0.80831 0.71422 0.92652
 C1782 C 0.80052 0.69678 0.91780
 N1783 N 0.78056 0.69144 0.92205
 N1784 N 0.76873 0.70326 0.93431
 C1785 C 0.77653 0.72072 0.94294
 N1786 N 0.79653 0.72596 0.93889
 N1787 N 0.80669 0.21325 0.42778
 C1788 C 0.79880 0.19645 0.41797
 N1789 N 0.77853 0.19156 0.42108
 N1790 N 0.76649 0.20321 0.43329
 C1791 C 0.77438 0.22002 0.44303
 N1792 N 0.79470 0.22481 0.44013
 N1793 N 0.69333 0.27979 0.42064
 C1794 C 0.69790 0.30014 0.41789
 N1795 N 0.71449 0.30816 0.42800
 N1796 N 0.72614 0.29620 0.44034
 C1797 C 0.72167 0.27579 0.44285
 N1798 N 0.70507 0.26781 0.43279
 N1799 N 0.71658 0.80873 0.92688
 C1800 C 0.69938 0.80067 0.91784
 N1801 N 0.69462 0.78050 0.92152
 N1802 N 0.70675 0.76873 0.93351
 C1803 C 0.72396 0.77676 0.94246
 N1804 N 0.72862 0.79699 0.93904
 N1805 N 0.19491 0.27931 0.91928
 C1806 C 0.19748 0.30017 0.91864
 N1807 N 0.21222 0.30886 0.93083
 N1808 N 0.22403 0.29704 0.94315
 C1809 C 0.22164 0.27613 0.94349
 N1810 N 0.20688 0.26748 0.93134
 N1811 N 0.21378 0.80766 0.42899
 C1812 C 0.19757 0.79952 0.41837
 N1813 N 0.19347 0.77898 0.42051
 N1814 N 0.20530 0.76695 0.43254
 C1815 C 0.22149 0.77508 0.44312
 N1816 N 0.22549 0.79566 0.44122
 N1817 N 0.69039 0.71444 0.56863
 C1818 C 0.69977 0.70140 0.58237
 N1819 N 0.72080 0.70120 0.58355
 N1820 N 0.73207 0.71380 0.57167
 C1821 C 0.72274 0.72688 0.55796
 N1822 N 0.70169 0.72685 0.55650
 N1823 N 0.71947 0.19446 0.07953
 C1824 C 0.69892 0.19857 0.08213
 N1825 N 0.69041 0.21504 0.07197
 N1826 N 0.70208 0.22702 0.05974
 C1827 C 0.72268 0.22302 0.05742
 N1828 N 0.73116 0.20654 0.06750
 N1829 N 0.21877 0.69268 0.07659
 C1830 C 0.19885 0.69818 0.08100
 N1831 N 0.19109 0.71605 0.07279
 N1832 N 0.20288 0.72806 0.06074
 C1833 C 0.22285 0.72264 0.05655
 N1834 N 0.23058 0.70474 0.06463
 N1835 N 0.21622 0.19036 0.57339
 C1836 C 0.19791 0.19763 0.58112
 N1837 N 0.19182 0.21723 0.57623
 N1838 N 0.20368 0.22922 0.56426
 C1839 C 0.22200 0.22199 0.55666
 N1840 N 0.22807 0.20234 0.56134
   
