data_POSCAR
  _audit_creation_date              2014-09-24
  _audit_creation_method            'ToBaCCo'
  _symmetry_space_group_name_H-M    'P1'
  _symmetry_Int_Tables_number       1
  _symmetry_cell_setting            triclinic
  loop_
  _symmetry_equiv_pos_as_xyz
 x,y,z
_cell_length_a 51.7235
_cell_length_b 51.7457
_cell_length_c 51.7024
_cell_angle_alpha 89.834100
_cell_angle_beta 90.194200
_cell_angle_gamma 89.867800
loop_
  _atom_site_label
  _atom_site_type_symbol
  _atom_site_fract_x
  _atom_site_fract_y
  _atom_site_fract_z
C1 C 0.25072 0.96991 -0.02217
 C2 C 0.25175 0.96901 0.00521
 C3 C 0.25182 0.99206 0.01927
 C4 C 0.25221 1.01654 0.00739
 C5 C 0.25277 1.01782 -0.02017
 C6 C 0.25190 0.99443 -0.03419
 H7 H 0.25173 0.99537 -0.05513
 H8 H 0.25263 0.99067 0.04021
 C9 C 0.75990 0.51671 0.50610
 C10 C 0.75284 0.51694 0.47969
 C11 C 0.74794 0.49338 0.46718
 C12 C 0.74993 0.46961 0.48032
 C13 C 0.75716 0.46952 0.50672
 C14 C 0.76215 0.49305 0.51911
 H15 H 0.76671 0.49303 0.53961
 H16 H 0.74321 0.49352 0.44674
 C17 C 0.76340 1.00709 0.96974
 C18 C 0.75752 0.98047 0.96952
 C19 C 0.75365 0.96759 0.99317
 C20 C 0.75554 0.98039 1.01722
 C21 C 0.76123 1.00726 1.01707
 C22 C 0.76536 1.01993 0.99346
 H23 H 0.76856 1.04065 0.99347
 H24 H 0.75061 0.94688 0.99271
 C25 C 0.24255 0.50585 0.46837
 C26 C 0.24991 0.47952 0.46900
 C27 C 0.25195 0.46690 0.49306
 C28 C 0.24711 0.47987 0.51638
 C29 C 0.24019 0.50628 0.51564
 C30 C 0.23779 0.51876 0.49169
 H31 H 0.23322 0.53923 0.49124
 H32 H 0.25665 0.44647 0.49361
 C33 C 1.01754 0.24601 0.02115
 C34 C 1.01700 0.23955 -0.00571
 C35 C 0.99292 0.23453 -0.01745
 C36 C 0.96954 0.23720 -0.00419
 C37 C 0.96990 0.24412 0.02214
 C38 C 0.99378 0.24844 0.03435
 H39 H 0.99372 0.25201 0.05499
 H40 H 0.99197 0.23102 -0.03810
 C41 C 0.46815 0.74468 0.49322
 C42 C 0.46848 0.74519 0.52053
 C43 C 0.49242 0.74638 0.53344
 C44 C 0.51583 0.74796 0.51983
 C45 C 0.51522 0.74877 0.49254
 C46 C 0.49146 0.74676 0.47969
 H47 H 0.49110 0.74696 0.45870
 H48 H 0.49285 0.74621 0.55442
 C49 C 0.00465 0.76447 0.03015
 C50 C -0.02187 0.75736 0.03018
 C51 C -0.03407 0.75303 0.00606
 C52 C -0.02102 0.75556 -0.01773
 C53 C 0.00563 0.76193 -0.01715
 C54 C 0.01771 0.76680 0.00657
 H55 H 0.03836 0.77051 0.00681
 H56 H -0.05477 0.74992 0.00570
 C57 C 0.47988 0.24682 0.48523
 C58 C 0.50626 0.23975 0.48585
 C59 C 0.51894 0.23756 0.50973
 C60 C 0.50621 0.24251 0.53310
 C61 C 0.47979 0.24958 0.53262
 C62 C 0.46702 0.25161 0.50863
 H63 H 0.44657 0.25627 0.50817
 H64 H 0.53943 0.23306 0.51004
 C65 C 0.98195 -0.00716 0.23867
 C66 C 0.98296 0.01934 0.24550
 C67 C 1.00707 0.03148 0.24794
 C68 C 1.03041 0.01828 0.24348
 C69 C 1.02964 -0.00801 0.23564
 C70 C 1.00528 -0.01990 0.23288
 H71 H 1.00468 -0.04050 0.22922
 H72 H 1.00763 0.05197 0.25226
 C73 C 0.48319 0.49277 0.74246
 C74 C 0.48231 0.51976 0.74625
 C75 C 0.50556 0.53371 0.74717
 C76 C 0.52966 0.52147 0.74415
 C77 C 0.53034 0.49455 0.73958
 C78 C 0.50711 0.48067 0.73881
 H79 H 0.50777 0.45983 0.73654
 H80 H 0.50484 0.55450 0.74965
 C81 C 1.02071 0.98420 0.75558
 C82 C 0.99374 0.98331 0.75218
 C83 C 0.97976 1.00634 0.74994
 C84 C 0.99158 1.03076 0.75205
 C85 C 1.01857 1.03159 0.75746
 C86 C 1.03269 1.00830 0.75856
 H87 H 1.05346 1.00894 0.76143
 H88 H 0.95897 1.00499 0.74743
 C89 C 0.51941 0.48317 0.25091
 C90 C 0.49216 0.48406 0.24952
 C91 C 0.47967 0.50807 0.24857
 C92 C 0.49348 0.53129 0.24973
 C93 C 0.52061 0.53054 0.25277
 C94 C 0.53323 0.50643 0.25285
 H95 H 0.55414 0.50574 0.25446
 H96 H 0.45876 0.50870 0.24687
 O97 O 0.26680 0.18183 0.20041
 O98 O 0.29509 0.17493 0.23735
 O99 O 0.19852 0.21156 0.23739
 O100 O 0.18882 0.24509 0.26323
 O101 O 0.22917 0.24860 0.16914
 O102 O 0.26485 0.27784 0.16235
 O103 O 0.26487 0.28508 0.30293
 O104 O 0.23463 0.24999 0.30948
 O105 O 0.33146 0.24996 0.27285
 O106 O 0.33946 0.22007 0.23589
 O107 O 0.30030 0.31537 0.23716
 O108 O 0.26260 0.32227 0.20656
 O109 O 0.26496 0.31563 0.27133
 O110 O 0.23646 0.32377 0.23518
 O111 O 0.33139 0.28434 0.23770
 O112 O 0.34012 0.24792 0.20893
 O113 O 0.30025 0.25050 0.30361
 O114 O 0.26633 0.22167 0.31267
 O115 O 0.26643 0.21314 0.16949
 O116 O 0.29353 0.24920 0.16188
 O117 O 0.19816 0.24771 0.20015
 O118 O 0.19118 0.27743 0.23561
 O119 O 0.23019 0.18106 0.23665
 O120 O 0.26567 0.17372 0.26492
 Zr121 Zr 0.26472 0.20231 0.23564
 O122 O 0.28823 0.22473 0.26011
 Zr123 Zr 0.21863 0.24699 0.23535
 O124 O 0.24040 0.27170 0.25941
 Zr125 Zr 0.26414 0.24780 0.19016
 O126 O 0.28819 0.27193 0.21231
 Zr127 Zr 0.26544 0.24968 0.28267
 O128 O 0.24159 0.22461 0.26070
 Zr129 Zr 0.31098 0.24948 0.23756
 O130 O 0.28943 0.22511 0.21284
 Zr131 Zr 0.26520 0.29463 0.23674
 O132 O 0.24086 0.27235 0.21252
 O133 O 0.24043 0.22337 0.21141
 O134 O 0.28955 0.27386 0.26140
 C135 C 0.26747 0.18940 0.17667
 C136 C 0.20632 0.18789 0.23763
 C137 C 0.20541 0.24859 0.17641
 C138 C 0.26480 0.30875 0.29519
 C139 C 0.32403 0.25043 0.29654
 C140 C 0.32408 0.30804 0.23755
 H141 H 0.29899 0.21316 0.27093
 H142 H 0.29884 0.28259 0.20060
 H143 H 0.22963 0.21211 0.20036
 H144 H 0.22863 0.28228 0.27007
 H145 H 0.22260 0.23603 0.30431
 H146 H 0.19398 0.25614 0.27794
 H147 H 0.33612 0.26127 0.19578
 H148 H 0.30779 0.23813 0.16835
 H149 H 0.27639 0.20669 0.30646
 H150 H 0.25381 0.17968 0.27868
 H151 H 0.27776 0.31997 0.19519
 H152 H 0.25209 0.29092 0.16801
 H153 H 0.30838 0.18079 0.22492
 H154 H 0.33651 0.20805 0.25049
 H155 H 0.19681 0.29020 0.22251
 H156 H 0.22264 0.31887 0.24740
 O157 O 0.74830 0.83240 0.22845
 O158 O 0.71954 0.83901 0.26469
 O159 O 0.81622 0.80209 0.26541
 O160 O 0.82513 0.76893 0.29271
 O161 O 0.78616 0.76517 0.19780
 O162 O 0.74988 0.73655 0.19035
 O163 O 0.74983 0.72901 0.33113
 O164 O 0.77990 0.76421 0.33763
 O165 O 0.68324 0.76331 0.30052
 O166 O 0.67555 0.79453 0.26363
 O167 O 0.71384 0.69872 0.26445
 O168 O 0.75177 0.69158 0.23493
 O169 O 0.74876 0.69841 0.29977
 O170 O 0.77778 0.69005 0.26372
 O171 O 0.68291 0.72991 0.26457
 O172 O 0.67425 0.76656 0.23662
 O173 O 0.71456 0.76244 0.33138
 O174 O 0.74497 0.79214 0.34003
 O175 O 0.74914 0.80139 0.19743
 O176 O 0.72166 0.76555 0.18938
 O177 O 0.81682 0.76573 0.22938
 O178 O 0.82345 0.73648 0.26507
 O179 O 0.78462 0.83267 0.26438
 O180 O 0.74784 0.84056 0.29242
 Zr181 Zr 0.74997 0.81168 0.26360
 O182 O 0.72642 0.78922 0.28795
 Zr183 Zr 0.79591 0.76682 0.26405
 O184 O 0.77398 0.74199 0.28773
 Zr185 Zr 0.75078 0.76643 0.21814
 O186 O 0.72645 0.74234 0.24011
 Zr187 Zr 0.74908 0.76415 0.31060
 O188 O 0.77306 0.78942 0.28905
 Zr189 Zr 0.70358 0.76466 0.26520
 O190 O 0.72535 0.78900 0.24054
 Zr191 Zr 0.74911 0.71929 0.26486
 O192 O 0.77372 0.74164 0.24093
 O193 O 0.77434 0.79058 0.23973
 O194 O 0.72489 0.74012 0.28920
 C195 C 0.74809 0.82511 0.20468
 C196 C 0.80846 0.82576 0.26519
 C197 C 0.80987 0.76486 0.20553
 C198 C 0.74926 0.70537 0.32359
 C199 C 0.69079 0.76229 0.32424
 C200 C 0.69006 0.70616 0.26432
 H201 H 0.71594 0.80070 0.29905
 H202 H 0.71579 0.73183 0.22825
 H203 H 0.78528 0.80168 0.22866
 H204 H 0.78567 0.73133 0.29854
 H205 H 0.79086 0.77932 0.33347
 H206 H 0.81967 0.75796 0.30739
 H207 H 0.67896 0.75433 0.22273
 H208 H 0.70751 0.77683 0.19559
 H209 H 0.75391 0.80780 0.33384
 H210 H 0.76247 0.83770 0.30448
 H211 H 0.73709 0.69447 0.22294
 H212 H 0.76249 0.72332 0.19617
 H213 H 0.70634 0.83313 0.25212
 H214 H 0.67808 0.80572 0.27890
 H215 H 0.81757 0.72333 0.25250
 H216 H 0.79118 0.69446 0.27665
 O217 O 0.75012 0.18484 0.78691
 O218 O 0.72438 0.17612 0.75153
 O219 O 0.81779 0.21809 0.75061
 O220 O 0.82869 0.25262 0.72881
 O221 O 0.78491 0.25263 0.82006
 O222 O 0.74953 0.27841 0.82866
 O223 O 0.74775 0.28644 0.68473
 O224 O 0.77620 0.25404 0.67621
 O225 O 0.68274 0.25397 0.71824
 O226 O 0.67325 0.22730 0.75309
 O227 O 0.71624 0.31983 0.75140
 O228 O 0.75127 0.32940 0.77733
 O229 O 0.74937 0.31827 0.71482
 O230 O 0.78181 0.32435 0.75312
 O231 O 0.68434 0.28980 0.75167
 O232 O 0.67830 0.25133 0.78389
 O233 O 0.71265 0.25285 0.68624
 O234 O 0.75011 0.22106 0.67987
 O235 O 0.75023 0.21494 0.81884
 O236 O 0.71951 0.25192 0.82496
 O237 O 0.81664 0.25235 0.78980
 O238 O 0.82137 0.28457 0.75208
 O239 O 0.78784 0.18609 0.75193
 O240 O 0.75073 0.17985 0.72146
 Zr241 Zr 0.75196 0.20617 0.75267
 O242 O 0.72637 0.22826 0.72977
 Zr243 Zr 0.79653 0.25215 0.75388
 O244 O 0.77431 0.27497 0.72825
 Zr245 Zr 0.75074 0.25077 0.79868
 O246 O 0.72773 0.27622 0.77652
 Zr247 Zr 0.74858 0.25239 0.70619
 O248 O 0.77451 0.22923 0.72808
 Zr249 Zr 0.70424 0.25386 0.75239
 O250 O 0.72626 0.22810 0.77564
 Zr251 Zr 0.75031 0.29838 0.75083
 O252 O 0.77362 0.27651 0.77669
 O253 O 0.77540 0.22745 0.77732
 O254 O 0.72524 0.27736 0.72741
 C255 C 0.74965 0.19136 0.81080
 C256 C 0.81138 0.19420 0.75070
 C257 C 0.80874 0.25294 0.81343
 C258 C 0.74816 0.31028 0.69124
 C259 C 0.68912 0.25363 0.69434
 C260 C 0.69238 0.31336 0.75146
 H261 H 0.71522 0.21655 0.71962
 H262 H 0.71751 0.28728 0.78825
 H263 H 0.78655 0.21630 0.78827
 H264 H 0.78587 0.28514 0.71693
 H265 H 0.79149 0.24428 0.68242
 H266 H 0.82168 0.25510 0.71117
 H267 H 0.67881 0.26795 0.79328
 H268 H 0.70824 0.23701 0.82091
 H269 H 0.73388 0.21111 0.68135
 H270 H 0.76534 0.18420 0.70993
 H271 H 0.74303 0.32321 0.79341
 H272 H 0.75927 0.29360 0.82232
 H273 H 0.70911 0.18253 0.76107
 H274 H 0.67940 0.21134 0.74460
 H275 H 0.81898 0.29439 0.76830
 H276 H 0.79081 0.32419 0.73626
 O277 O 0.23798 0.80103 0.78704
 O278 O 0.26533 0.80807 0.74986
 O279 O 0.16867 0.77183 0.75077
 O280 O 0.15854 0.73895 0.72447
 O281 O 0.20024 0.73479 0.81812
 O282 O 0.23585 0.70473 0.82438
 O283 O 0.23393 0.69876 0.68376
 O284 O 0.20330 0.73393 0.67789
 O285 O 0.30074 0.73271 0.71305
 O286 O 0.30981 0.76206 0.75040
 O287 O 0.26964 0.66718 0.74925
 O288 O 0.23279 0.66029 0.77952
 O289 O 0.23431 0.66791 0.71507
 O290 O 0.20561 0.66008 0.75173
 O291 O 0.30103 0.69774 0.74812
 O292 O 0.31085 0.73390 0.77692
 O293 O 0.26888 0.73308 0.68274
 O294 O 0.23500 0.76226 0.67461
 O295 O 0.23792 0.76955 0.81780
 O296 O 0.26485 0.73307 0.82483
 O297 O 0.16884 0.73569 0.78727
 O298 O 0.16135 0.70610 0.75178
 O299 O 0.20038 0.80217 0.75140
 O300 O 0.23554 0.80954 0.72256
 Zr301 Zr 0.23502 0.78080 0.75170
 O302 O 0.25803 0.75835 0.72680
 Zr303 Zr 0.18879 0.73643 0.75204
 O304 O 0.20995 0.71180 0.72752
 Zr305 Zr 0.23500 0.73503 0.79685
 O306 O 0.25849 0.71079 0.77420
 Zr307 Zr 0.23465 0.73390 0.70428
 O308 O 0.21132 0.75895 0.72671
 Zr309 Zr 0.28105 0.73306 0.74878
 O310 O 0.26006 0.75751 0.77396
 Zr311 Zr 0.23492 0.68851 0.74987
 O312 O 0.21122 0.71081 0.77459
 O313 O 0.21109 0.75974 0.77595
 O314 O 0.25896 0.70919 0.72505
 C315 C 0.23904 0.79334 0.81075
 C316 C 0.17647 0.79542 0.75080
 C317 C 0.17638 0.73503 0.81095
 C318 C 0.23401 0.67504 0.69128
 C319 C 0.29279 0.73274 0.68943
 C320 C 0.29347 0.67413 0.74850
 H321 H 0.26866 0.76991 0.71597
 H322 H 0.26927 0.69992 0.78572
 H323 H 0.20059 0.77105 0.78723
 H324 H 0.19797 0.70143 0.71686
 H325 H 0.19145 0.74799 0.68324
 H326 H 0.16323 0.72778 0.70972
 H327 H 0.30685 0.72069 0.79017
 H328 H 0.27915 0.74385 0.81817
 H329 H 0.24524 0.77708 0.68086
 H330 H 0.22309 0.80398 0.70910
 H331 H 0.24742 0.66318 0.79153
 H332 H 0.22267 0.69202 0.81887
 H333 H 0.27906 0.80177 0.76170
 H334 H 0.30667 0.77427 0.73597
 H335 H 0.16707 0.69328 0.76486
 H336 H 0.19233 0.66451 0.73863
 O337 O 0.24913 0.33159 0.72862
 O338 O 0.22045 0.33945 0.76442
 O339 O 0.31615 0.30013 0.76659
 O340 O 0.32418 0.26702 0.79408
 O341 O 0.28571 0.26330 0.69900
 O342 O 0.24899 0.23528 0.69166
 O343 O 0.24735 0.22967 0.83263
 O344 O 0.27826 0.26399 0.83891
 O345 O 0.18194 0.26488 0.80090
 O346 O 0.17523 0.29577 0.76360
 O347 O 0.21143 0.19919 0.76598
 O348 O 0.24934 0.19068 0.73705
 O349 O 0.24589 0.19865 0.80169
 O350 O 0.27524 0.18919 0.76594
 O351 O 0.18117 0.23103 0.76540
 O352 O 0.17364 0.26757 0.73683
 O353 O 0.21298 0.26405 0.83205
 O354 O 0.24414 0.29311 0.84045
 O355 O 0.24948 0.30022 0.69794
 O356 O 0.22126 0.26481 0.69017
 O357 O 0.31615 0.26343 0.73080
 O358 O 0.32171 0.23431 0.76695
 O359 O 0.28528 0.33142 0.76487
 O360 O 0.24832 0.34050 0.79249
 Zr361 Zr 0.25012 0.31127 0.76399
 O362 O 0.22581 0.28970 0.78838
 Zr363 Zr 0.29501 0.26536 0.76533
 O364 O 0.27230 0.24143 0.78922
 Zr365 Zr 0.25023 0.26547 0.71909
 O366 O 0.22521 0.24220 0.74118
 Zr367 Zr 0.24772 0.26448 0.81156
 O368 O 0.27251 0.28882 0.78989
 Zr369 Zr 0.20262 0.26535 0.76576
 O370 O 0.22515 0.28889 0.74102
 Zr371 Zr 0.24713 0.21899 0.76645
 O372 O 0.27240 0.24043 0.74238
 O373 O 0.27419 0.28934 0.74058
 O374 O 0.22317 0.24069 0.79029
 C375 C 0.24888 0.32404 0.70493
 C376 C 0.30895 0.32396 0.76607
 C377 C 0.30935 0.26255 0.70690
 C378 C 0.24628 0.20595 0.82543
 C379 C 0.18927 0.26418 0.82471
 C380 C 0.18783 0.20713 0.76554
 H381 H 0.21550 0.30158 0.79921
 H382 H 0.21443 0.23177 0.72937
 H383 H 0.28546 0.30008 0.72948
 H384 H 0.28364 0.23066 0.80030
 H385 H 0.28977 0.27865 0.83460
 H386 H 0.31827 0.25656 0.80895
 H387 H 0.17810 0.25492 0.72325
 H388 H 0.20736 0.27655 0.69609
 H389 H 0.25407 0.30820 0.83435
 H390 H 0.26289 0.33761 0.80461
 H391 H 0.23506 0.19395 0.72469
 H392 H 0.26121 0.22183 0.69780
 H393 H 0.20704 0.33357 0.75208
 H394 H 0.17792 0.30714 0.77871
 H395 H 0.31568 0.22123 0.75437
 H396 H 0.28845 0.19333 0.77916
 O397 O 0.76466 0.68466 0.69808
 O398 O 0.79308 0.67692 0.73477
 O399 O 0.69740 0.71581 0.73557
 O400 O 0.68859 0.74952 0.76151
 O401 O 0.72867 0.75265 0.66729
 O402 O 0.76509 0.78086 0.66049
 O403 O 0.76567 0.78731 0.80118
 O404 O 0.73478 0.75299 0.80770
 O405 O 0.83138 0.75080 0.77056
 O406 O 0.83831 0.72071 0.73329
 O407 O 0.80181 0.81706 0.73549
 O408 O 0.76415 0.82514 0.70503
 O409 O 0.76649 0.81806 0.76979
 O410 O 0.73818 0.82717 0.73376
 O411 O 0.83207 0.78522 0.73552
 O412 O 0.83985 0.74894 0.70673
 O413 O 0.80033 0.75200 0.80146
 O414 O 0.76557 0.72375 0.81042
 O415 O 0.76478 0.71610 0.66729
 O416 O 0.79300 0.75146 0.65979
 O417 O 0.69774 0.75228 0.69840
 O418 O 0.69163 0.78189 0.73407
 O419 O 0.72841 0.68463 0.73459
 O420 O 0.76380 0.67627 0.76251
 Zr421 Zr 0.76336 0.70503 0.73339
 O422 O 0.78750 0.72669 0.75791
 Zr423 Zr 0.71833 0.75080 0.73353
 O424 O 0.74084 0.77482 0.75764
 Zr425 Zr 0.76367 0.75073 0.68816
 O426 O 0.78841 0.77412 0.71035
 Zr427 Zr 0.76540 0.75206 0.78069
 O428 O 0.74086 0.72773 0.75865
 Zr429 Zr 0.81075 0.75096 0.73536
 O430 O 0.78851 0.72730 0.71057
 Zr431 Zr 0.76614 0.79726 0.73504
 O432 O 0.74113 0.77573 0.71078
 O433 O 0.73945 0.72678 0.70939
 O434 O 0.79005 0.77574 0.75946
 C435 C 0.76529 0.69230 0.67436
 C436 C 0.70471 0.69197 0.73575
 C437 C 0.70494 0.75320 0.67464
 C438 C 0.76614 0.81104 0.79361
 C439 C 0.82407 0.75138 0.79428
 C440 C 0.82540 0.80909 0.73565
 H441 H 0.79804 0.71479 0.76860
 H442 H 0.79928 0.78458 0.69865
 H443 H 0.72829 0.71586 0.69834
 H444 H 0.72936 0.78562 0.76840
 H445 H 0.72229 0.73950 0.80242
 H446 H 0.69408 0.76035 0.77626
 H447 H 0.83582 0.76208 0.69338
 H448 H 0.80688 0.73979 0.66605
 H449 H 0.77596 0.70889 0.80443
 H450 H 0.75242 0.68259 0.77650
 H451 H 0.77927 0.82258 0.69365
 H452 H 0.75281 0.79431 0.66634
 H453 H 0.80638 0.68246 0.72222
 H454 H 0.83538 0.70892 0.74808
 H455 H 0.69757 0.79463 0.72107
 H456 H 0.72422 0.82249 0.74592
 O457 O 0.25091 0.68237 0.28293
 O458 O 0.22503 0.67351 0.24750
 O459 O 0.31752 0.71759 0.24795
 O460 O 0.32763 0.75233 0.22609
 O461 O 0.28310 0.75071 0.31710
 O462 O 0.24712 0.77540 0.32572
 O463 O 0.24618 0.78497 0.18177
 O464 O 0.27568 0.75335 0.17329
 O465 O 0.18180 0.74993 0.21446
 O466 O 0.17266 0.72337 0.24915
 O467 O 0.21350 0.81694 0.24898
 O468 O 0.24853 0.82693 0.27499
 O469 O 0.24621 0.81652 0.21220
 O470 O 0.27883 0.82308 0.25033
 O471 O 0.18229 0.78618 0.24795
 O472 O 0.17691 0.74738 0.28007
 O473 O 0.21198 0.75109 0.18270
 O474 O 0.24998 0.71974 0.17630
 O475 O 0.24898 0.71209 0.31512
 O476 O 0.21771 0.74853 0.32142
 O477 O 0.31508 0.75207 0.28713
 O478 O 0.31944 0.78417 0.24942
 O479 O 0.28824 0.68494 0.24813
 O480 O 0.25147 0.67816 0.21746
 Zr481 Zr 0.25194 0.70415 0.24896
 O482 O 0.22598 0.72584 0.22609
 Zr483 Zr 0.29536 0.75117 0.25099
 O484 O 0.27277 0.77373 0.22541
 Zr485 Zr 0.24918 0.74819 0.29539
 O486 O 0.22576 0.77332 0.27331
 Zr487 Zr 0.24776 0.75077 0.20294
 O488 O 0.27409 0.72801 0.22479
 Zr489 Zr 0.20301 0.75065 0.24878
 O490 O 0.22547 0.72517 0.27193
 Zr491 Zr 0.24803 0.79629 0.24802
 O492 O 0.27162 0.77469 0.27384
 O493 O 0.27464 0.72574 0.27404
 O494 O 0.22364 0.77490 0.22423
 C495 C 0.24960 0.68858 0.30686
 C496 C 0.31162 0.69355 0.24746
 C497 C 0.30694 0.75219 0.31069
 C498 C 0.24540 0.80873 0.18853
 C499 C 0.18838 0.75056 0.19062
 C500 C 0.18980 0.80993 0.24845
 H501 H 0.21520 0.71395 0.21575
 H502 H 0.21520 0.78401 0.28508
 H503 H 0.28600 0.71483 0.28501
 H504 H 0.28411 0.78431 0.21424
 H505 H 0.29097 0.74353 0.17941
 H506 H 0.32068 0.75507 0.20847
 H507 H 0.17673 0.76406 0.28936
 H508 H 0.20674 0.73347 0.31713
 H509 H 0.23377 0.70970 0.17732
 H510 H 0.26598 0.68303 0.20601
 H511 H 0.23993 0.82053 0.29080
 H512 H 0.25637 0.79096 0.31958
 H513 H 0.20977 0.67930 0.25744
 H514 H 0.17944 0.70745 0.24108
 H515 H 0.31647 0.79406 0.26551
 H516 H 0.28763 0.82345 0.23337
 O517 O 0.73443 0.30142 0.28858
 O518 O 0.76241 0.30985 0.25224
 O519 O 0.66710 0.27026 0.25041
 O520 O 0.65874 0.23735 0.22358
 O521 O 0.69850 0.23308 0.31804
 O522 O 0.73525 0.20472 0.32487
 O523 O 0.73682 0.20033 0.18410
 O524 O 0.70483 0.23405 0.17784
 O525 O 0.80135 0.23627 0.21527
 O526 O 0.80846 0.26548 0.25328
 O527 O 0.77179 0.16922 0.24997
 O528 O 0.73447 0.16071 0.27941
 O529 O 0.73731 0.16912 0.21506
 O530 O 0.70804 0.15980 0.25090
 O531 O 0.80215 0.20083 0.24996
 O532 O 0.81006 0.23686 0.27934
 O533 O 0.77013 0.23599 0.18430
 O534 O 0.73499 0.26417 0.17597
 O535 O 0.73470 0.26963 0.31899
 O536 O 0.76296 0.23419 0.32623
 O537 O 0.66772 0.23357 0.28657
 O538 O 0.66212 0.20425 0.25060
 O539 O 0.69776 0.30162 0.25199
 O540 O 0.73334 0.31051 0.22415
 Zr541 Zr 0.73309 0.28147 0.25299
 O542 O 0.75745 0.26016 0.22838
 Zr543 Zr 0.68842 0.23554 0.25181
 O544 O 0.71101 0.21197 0.22748
 Zr545 Zr 0.73369 0.23523 0.29761
 O546 O 0.75853 0.21210 0.27523
 Zr547 Zr 0.73543 0.23520 0.20506
 O548 O 0.71072 0.25912 0.22724
 Zr549 Zr 0.78088 0.23543 0.25058
 O550 O 0.75845 0.25883 0.27554
 Zr551 Zr 0.73631 0.18931 0.25010
 O552 O 0.71130 0.21046 0.27454
 O553 O 0.70934 0.25932 0.27648
 O554 O 0.76015 0.21113 0.22609
 C555 C 0.73515 0.29353 0.31222
 C556 C 0.67411 0.29411 0.25075
 C557 C 0.67479 0.23253 0.31038
 C558 C 0.73760 0.17654 0.19136
 C559 C 0.79389 0.23638 0.19149
 C560 C 0.79539 0.17697 0.24983
 H561 H 0.76790 0.27224 0.21795
 H562 H 0.76942 0.20146 0.28686
 H563 H 0.69816 0.27008 0.28764
 H564 H 0.69969 0.20130 0.21640
 H565 H 0.69213 0.24738 0.18311
 H566 H 0.66405 0.22637 0.20889
 H567 H 0.80603 0.22356 0.29249
 H568 H 0.77696 0.24561 0.32000
 H569 H 0.74556 0.27881 0.18213
 H570 H 0.72156 0.30458 0.21025
 H571 H 0.74889 0.16377 0.29162
 H572 H 0.72286 0.19145 0.31887
 H573 H 0.77610 0.30387 0.26429
 H574 H 0.80530 0.27767 0.23884
 H575 H 0.66810 0.19142 0.26356
 H576 H 0.69492 0.16391 0.23754
 C577 C 0.26109 0.07852 0.05983
 C578 C 0.24279 0.05929 0.06440
 C579 C 0.23948 0.03934 0.04671
 C580 C 0.25434 0.03823 0.02389
 C581 C 0.27247 0.05806 0.01926
 C582 C 0.27578 0.07807 0.03714
 C583 C 0.26488 0.09818 0.07900
 C584 C 0.26717 0.11409 0.09578
 C585 C 0.26891 0.13278 0.11618
 C586 C 0.26757 0.12484 0.14206
 C587 C 0.26756 0.14316 0.16189
 C588 C 0.26880 0.16969 0.15600
 C589 C 0.27060 0.17738 0.12989
 C590 C 0.27062 0.15905 0.11016
 H591 H 0.23122 0.05955 0.08183
 H592 H 0.22500 0.02480 0.05081
 H593 H 0.28493 0.05750 0.00249
 H594 H 0.29013 0.09285 0.03354
 H595 H 0.26612 0.10450 0.14688
 H596 H 0.26614 0.13658 0.18173
 H597 H 0.27165 0.19762 0.12461
 H598 H 0.27156 0.16539 0.09020
 C599 C 0.76604 0.58169 0.55660
 C600 C 0.74422 0.57900 0.54074
 C601 C 0.74270 0.55851 0.52324
 C602 C 0.76304 0.54057 0.52149
 C603 C 0.78524 0.54394 0.53682
 C604 C 0.78673 0.56441 0.55428
 C605 C 0.76653 0.60107 0.57642
 C606 C 0.76675 0.61690 0.59343
 C607 C 0.76681 0.63568 0.61384
 C608 C 0.76615 0.62771 0.63973
 C609 C 0.76581 0.64606 0.65954
 C610 C 0.76610 0.67262 0.65363
 C611 C 0.76688 0.68035 0.62748
 C612 C 0.76723 0.66199 0.60777
 H613 H 0.72805 0.59223 0.54249
 H614 H 0.72524 0.55601 0.51191
 H615 H 0.80107 0.53024 0.53580
 H616 H 0.80367 0.56630 0.56651
 H617 H 0.76580 0.60734 0.64460
 H618 H 0.76518 0.63945 0.67942
 H619 H 0.76713 0.70060 0.62217
 H620 H 0.76771 0.66834 0.58779
 C621 C 0.74898 0.93459 0.08512
 C622 C 0.76657 0.95504 0.08438
 C623 C 0.76848 0.97051 0.06223
 C624 C 0.75273 0.96582 0.04036
 C625 C 0.73492 0.94519 0.04164
 C626 C 0.73305 0.92984 0.06380
 C627 C 0.74820 0.91744 0.10705
 C628 C 0.74765 0.90225 0.12476
 C629 C 0.74716 0.88317 0.14504
 C630 C 0.74787 0.89053 0.17106
 C631 C 0.74791 0.87170 0.19056
 C632 C 0.74728 0.84525 0.18423
 C633 C 0.74639 0.83814 0.15797
 C634 C 0.74633 0.85697 0.13858
 H635 H 0.77931 0.95862 0.10065
 H636 H 0.78335 0.98517 0.06186
 H637 H 0.72197 0.94113 0.02567
 H638 H 0.71936 0.91402 0.06416
 H639 H 0.74854 0.91079 0.17627
 H640 H 0.74865 0.87787 0.21055
 H641 H 0.74588 0.81801 0.15234
 H642 H 0.74580 0.85106 0.11849
 C643 C 0.24910 0.43367 0.58540
 C644 C 0.22751 0.44916 0.58000
 C645 C 0.22707 0.46472 0.55784
 C646 C 0.24826 0.46495 0.54089
 C647 C 0.27002 0.44967 0.54668
 C648 C 0.27044 0.43414 0.56882
 C649 C 0.24884 0.41615 0.60705
 C650 C 0.24863 0.40080 0.62462
 C651 C 0.24843 0.38174 0.64493
 C652 C 0.24861 0.38923 0.67092
 C653 C 0.24861 0.37051 0.69050
 C654 C 0.24845 0.34402 0.68431
 C655 C 0.24819 0.33676 0.65808
 C656 C 0.24818 0.35549 0.63859
 H657 H 0.21082 0.44879 0.59259
 H658 H 0.20993 0.47603 0.55355
 H659 H 0.28656 0.44956 0.53387
 H660 H 0.28719 0.42213 0.57276
 H661 H 0.24881 0.40952 0.67604
 H662 H 0.24885 0.37680 0.71046
 H663 H 0.24807 0.31659 0.65256
 H664 H 0.24804 0.34948 0.61853
 C665 C 0.76156 0.06326 0.90938
 C666 C 0.78392 0.06019 0.92438
 C667 C 0.78546 0.04028 0.94262
 C668 C 0.76464 0.02321 0.94606
 C669 C 0.74291 0.02539 0.92983
 C670 C 0.74138 0.04537 0.91158
 C671 C 0.75865 0.08576 0.89318
 C672 C 0.75612 0.10477 0.87985
 C673 C 0.75303 0.12708 0.86341
 C674 C 0.75886 0.15197 0.87236
 C675 C 0.75694 0.17329 0.85562
 C676 C 0.74930 0.16981 0.82973
 C677 C 0.74283 0.14477 0.82127
 C678 C 0.74469 0.12365 0.83795
 H679 H 0.79968 0.07386 0.92281
 H680 H 0.80229 0.03904 0.95509
 H681 H 0.72646 0.01275 0.93247
 H682 H 0.72398 0.04757 0.90004
 H683 H 0.76531 0.15483 0.89210
 H684 H 0.76215 0.19227 0.86267
 H685 H 0.73668 0.14137 0.80153
 H686 H 0.74002 0.10454 0.83083
 C687 C 0.24357 0.56118 0.40723
 C688 C 0.26527 0.54544 0.41153
 C689 C 0.26435 0.52567 0.43006
 C690 C 0.24174 0.52160 0.44444
 C691 C 0.21963 0.53650 0.43892
 C692 C 0.22055 0.55616 0.42041
 C693 C 0.24525 0.58346 0.39057
 C694 C 0.24646 0.60229 0.37683
 C695 C 0.24778 0.62434 0.35984
 C696 C 0.24459 0.64955 0.36925
 C697 C 0.24538 0.67071 0.35222
 C698 C 0.24929 0.66679 0.32560
 C699 C 0.25271 0.64132 0.31655
 C700 C 0.25195 0.62037 0.33351
 H701 H 0.28318 0.54915 0.40139
 H702 H 0.28172 0.51470 0.43434
 H703 H 0.20208 0.53378 0.44997
 H704 H 0.20363 0.56815 0.41719
 H705 H 0.24134 0.65283 0.38967
 H706 H 0.24269 0.69001 0.35982
 H707 H 0.25592 0.63743 0.29625
 H708 H 0.25448 0.60099 0.32601
 C709 C 0.24627 0.90570 0.92708
 C710 C 0.23176 0.92797 0.92232
 C711 C 0.23279 0.94868 0.93946
 C712 C 0.24839 0.94767 0.96195
 C713 C 0.26241 0.92471 0.96690
 C714 C 0.26139 0.90395 0.94954
 C715 C 0.24617 0.88532 0.90818
 C716 C 0.24563 0.86900 0.89157
 C717 C 0.24457 0.85003 0.87125
 C718 C 0.24359 0.85792 0.84533
 C719 C 0.24193 0.83956 0.82556
 C720 C 0.24120 0.81301 0.83150
 C721 C 0.24232 0.80533 0.85767
 C722 C 0.24398 0.82371 0.87735
 H723 H 0.21983 0.92950 0.90511
 H724 H 0.22098 0.96547 0.93516
 H725 H 0.27556 0.92325 0.98313
 H726 H 0.27292 0.88684 0.95330
 H727 H 0.24396 0.87828 0.84039
 H728 H 0.24109 0.84617 0.80569
 H729 H 0.24180 0.78509 0.86302
 H730 H 0.24466 0.81738 0.89734
 C731 C 0.74129 0.40407 0.43056
 C732 C 0.72157 0.42255 0.43219
 C733 C 0.72379 0.44317 0.44944
 C734 C 0.74577 0.44556 0.46532
 C735 C 0.76504 0.42640 0.46433
 C736 C 0.76281 0.40576 0.44701
 C737 C 0.74013 0.38447 0.41086
 C738 C 0.73919 0.36855 0.39386
 C739 C 0.73810 0.34981 0.37333
 C740 C 0.73745 0.35790 0.34746
 C741 C 0.73648 0.33968 0.32751
 C742 C 0.73616 0.31306 0.33320
 C743 C 0.73679 0.30518 0.35932
 C744 C 0.73776 0.32342 0.37918
 H745 H 0.70485 0.42147 0.41956
 H746 H 0.70872 0.45773 0.44985
 H747 H 0.78234 0.42805 0.47606
 H748 H 0.77824 0.39162 0.44585
 H749 H 0.73770 0.37830 0.34270
 H750 H 0.73599 0.34646 0.30768
 H751 H 0.73656 0.28489 0.36448
 H752 H 0.73826 0.31692 0.39912
 C753 C 0.08564 0.24917 0.06706
 C754 C 0.06532 0.26639 0.07154
 C755 C 0.04308 0.26560 0.05619
 C756 C 0.04076 0.24761 0.03583
 C757 C 0.06159 0.23047 0.03144
 C758 C 0.08381 0.23130 0.04691
 C759 C 0.10766 0.24909 0.08412
 C760 C 0.12542 0.24908 0.09926
 C761 C 0.14573 0.24912 0.11834
 C762 C 0.13929 0.24916 0.14457
 C763 C 0.15869 0.24910 0.16340
 C764 C 0.18494 0.24901 0.15626
 C765 C 0.19125 0.24904 0.12977
 C766 C 0.17174 0.24909 0.11094
 H767 H 0.06653 0.28030 0.08712
 H768 H 0.02792 0.27953 0.06000
 H769 H 0.06034 0.21560 0.01681
 H770 H 0.09931 0.21762 0.04351
 H771 H 0.11922 0.24919 0.15051
 H772 H 0.15307 0.24907 0.18355
 H773 H 0.21123 0.24894 0.12358
 H774 H 0.17692 0.24906 0.09065
 C775 C 0.58515 0.75136 0.56543
 C776 C 0.56814 0.73054 0.56804
 C777 C 0.54583 0.72932 0.55283
 C778 C 0.54030 0.74888 0.53476
 C779 C 0.55758 0.76962 0.53197
 C780 C 0.57994 0.77083 0.54725
 C781 C 0.60714 0.75316 0.58244
 C782 C 0.62489 0.75419 0.59757
 C783 C 0.64522 0.75489 0.61662
 C784 C 0.63883 0.75591 0.64285
 C785 C 0.65825 0.75562 0.66166
 C786 C 0.68446 0.75429 0.65451
 C787 C 0.69073 0.75353 0.62802
 C788 C 0.67120 0.75380 0.60921
 H789 H 0.57191 0.71544 0.58213
 H790 H 0.53274 0.71319 0.55528
 H791 H 0.55348 0.78509 0.51840
 H792 H 0.59289 0.78713 0.54521
 H793 H 0.61877 0.75669 0.64880
 H794 H 0.65267 0.75625 0.68182
 H795 H 0.71067 0.75247 0.62182
 H796 H 0.67635 0.75292 0.58894
 C797 C 0.05978 0.75207 0.92119
 C798 C 0.04205 0.73246 0.92683
 C799 C 0.02364 0.73607 0.94621
 C800 C 0.02276 0.75938 0.96005
 C801 C 0.04019 0.77922 0.95381
 C802 C 0.05857 0.77558 0.93445
 C803 C 0.07982 0.74779 0.90253
 C804 C 0.09678 0.74434 0.88702
 C805 C 0.11690 0.74058 0.86832
 C806 C 0.11039 0.73686 0.84236
 C807 C 0.12978 0.73443 0.82384
 C808 C 0.15605 0.73572 0.83103
 C809 C 0.16242 0.73892 0.85731
 C810 C 0.14292 0.74138 0.87584
 H811 H 0.04288 0.71418 0.91669
 H812 H 0.01067 0.72038 0.95101
 H813 H 0.03988 0.79728 0.96435
 H814 H 0.07220 0.79087 0.93020
 H815 H 0.09031 0.73620 0.83636
 H816 H 0.12414 0.73192 0.80382
 H817 H 0.18241 0.74008 0.86349
 H818 H 0.14812 0.74428 0.89593
 C819 C 0.55718 0.23265 0.42121
 C820 C 0.54149 0.25460 0.42358
 C821 C 0.52393 0.25648 0.44399
 C822 C 0.52192 0.23636 0.46217
 C823 C 0.53713 0.21405 0.45916
 C824 C 0.55465 0.21220 0.43877
 C825 C 0.57698 0.23174 0.40180
 C826 C 0.59395 0.23118 0.38592
 C827 C 0.61433 0.23079 0.36710
 C828 C 0.64023 0.23141 0.37505
 C829 C 0.66002 0.23169 0.35667
 C830 C 0.65408 0.23138 0.33008
 C831 C 0.62794 0.23052 0.32238
 C832 C 0.60825 0.23024 0.34077
 H833 H 0.54340 0.27058 0.41014
 H834 H 0.51270 0.27402 0.44621
 H835 H 0.53592 0.19838 0.47304
 H836 H 0.56674 0.19516 0.43713
 H837 H 0.64512 0.23187 0.39543
 H838 H 0.67989 0.23239 0.36328
 H839 H 0.62261 0.23026 0.30211
 H840 H 0.58827 0.22978 0.33442
 C841 C 0.92780 0.75716 0.09477
 C842 C 0.92527 0.73852 0.07548
 C843 C 0.94257 0.73790 0.05486
 C844 C 0.96292 0.75600 0.05299
 C845 C 0.96594 0.77398 0.07328
 C846 C 0.94844 0.77459 0.09391
 C847 C 0.90829 0.75908 0.11449
 C848 C 0.89135 0.76046 0.13041
 C849 C 0.87083 0.76187 0.14913
 C850 C 0.84494 0.76163 0.14107
 C851 C 0.82501 0.76265 0.15932
 C852 C 0.83076 0.76390 0.18591
 C853 C 0.85690 0.76422 0.19374
 C854 C 0.87673 0.76321 0.17549
 H855 H 0.90951 0.72476 0.07605
 H856 H 0.93992 0.72313 0.04029
 H857 H 0.98055 0.78887 0.07241
 H858 H 0.95050 0.78923 0.10870
 H859 H 0.84016 0.76058 0.12069
 H860 H 0.80516 0.76240 0.15259
 H861 H 0.86211 0.76522 0.21401
 H862 H 0.89667 0.76339 0.18197
 C863 C 0.42862 0.25702 0.59724
 C864 C 0.44537 0.23576 0.59573
 C865 C 0.46316 0.23395 0.57545
 C866 C 0.46433 0.25339 0.55645
 C867 C 0.44814 0.27513 0.55870
 C868 C 0.43042 0.27693 0.57896
 C869 C 0.40855 0.25779 0.61650
 C870 C 0.39133 0.25845 0.63220
 C871 C 0.37066 0.25928 0.65082
 C872 C 0.37637 0.25956 0.67726
 C873 C 0.35644 0.26051 0.69540
 C874 C 0.33036 0.26119 0.68740
 C875 C 0.32479 0.26084 0.66073
 C876 C 0.34482 0.25989 0.64259
 H877 H 0.44411 0.22020 0.60973
 H878 H 0.47512 0.21682 0.57391
 H879 H 0.44867 0.29034 0.54427
 H880 H 0.41758 0.29348 0.57991
 H881 H 0.39627 0.25909 0.68387
 H882 H 0.36153 0.26077 0.71573
 H883 H 0.30499 0.26139 0.65387
 H884 H 0.34016 0.25969 0.62214
 C885 C 0.90819 0.23940 0.94073
 C886 C 0.92271 0.21676 0.94389
 C887 C 0.94127 0.21511 0.96351
 C888 C 0.94551 0.23612 0.98017
 C889 C 0.92972 0.25814 0.97795
 C890 C 0.91115 0.25977 0.95828
 C891 C 0.89176 0.24245 0.91841
 C892 C 0.87828 0.24519 0.89953
 C893 C 0.86170 0.24858 0.87737
 C894 C 0.87045 0.24298 0.85235
 C895 C 0.85359 0.24525 0.83115
 C896 C 0.82780 0.25301 0.83488
 C897 C 0.81954 0.25925 0.86005
 C898 C 0.83634 0.25704 0.88106
 H899 H 0.92054 0.20087 0.93046
 H900 H 0.95339 0.19805 0.96478
 H901 H 0.93297 0.27472 0.99027
 H902 H 0.89999 0.27738 0.95600
 H903 H 0.89011 0.23644 0.84930
 H904 H 0.86048 0.24020 0.81206
 H905 H 0.79988 0.26547 0.86364
 H906 H 0.82940 0.26154 0.90029
 C907 C 0.40684 0.74553 0.43823
 C908 C 0.42281 0.72380 0.44051
 C909 C 0.44146 0.72260 0.46003
 C910 C 0.44429 0.74310 0.47755
 C911 C 0.42723 0.76419 0.47619
 C912 C 0.40856 0.76541 0.45654
 C913 C 0.39011 0.74807 0.41607
 C914 C 0.37645 0.74997 0.39722
 C915 C 0.35973 0.75198 0.37499
 C916 C 0.36906 0.74720 0.35000
 C917 C 0.35217 0.74797 0.32872
 C918 C 0.32577 0.75337 0.33233
 C919 C 0.31686 0.75873 0.35750
 C920 C 0.33369 0.75803 0.37858
 H921 H 0.42164 0.70831 0.42650
 H922 H 0.45469 0.70635 0.46063
 H923 H 0.42946 0.78037 0.48925
 H924 H 0.39627 0.78233 0.45493
 H925 H 0.38924 0.74249 0.34703
 H926 H 0.35959 0.74368 0.30964
 H927 H 0.29671 0.76318 0.36103
 H928 H 0.32628 0.76182 0.39779
 C929 C 0.09566 0.06940 0.24298
 C930 C 0.08024 0.06723 0.26507
 C931 C 0.05981 0.04962 0.26566
 C932 C 0.05451 0.03389 0.24417
 C933 C 0.07062 0.03548 0.22238
 C934 C 0.09109 0.05317 0.22180
 C935 C 0.11514 0.08926 0.24169
 C936 C 0.13102 0.10632 0.24081
 C937 C 0.14982 0.12686 0.23995
 C938 C 0.14179 0.15274 0.23988
 C939 C 0.16008 0.17267 0.23919
 C940 C 0.18670 0.16696 0.23858
 C941 C 0.19450 0.14083 0.23866
 C942 C 0.17621 0.12099 0.23935
 H943 H 0.08357 0.07965 0.28158
 H944 H 0.04762 0.04876 0.28264
 H945 H 0.06669 0.02384 0.20544
 H946 H 0.10284 0.05472 0.20456
 H947 H 0.12140 0.15753 0.24036
 H948 H 0.15335 0.19250 0.23911
 H949 H 0.21478 0.13563 0.23817
 H950 H 0.18267 0.10106 0.23941
 C951 C 0.59353 0.57417 0.74316
 C952 C 0.57686 0.57339 0.76439
 C953 C 0.55684 0.55533 0.76523
 C954 C 0.55323 0.53776 0.74485
 C955 C 0.57059 0.53802 0.72399
 C956 C 0.59064 0.55616 0.72316
 C957 C 0.61276 0.59423 0.74149
 C958 C 0.62855 0.61133 0.74029
 C959 C 0.64746 0.63173 0.73901
 C960 C 0.63973 0.65770 0.73902
 C961 C 0.65824 0.67742 0.73797
 C962 C 0.68476 0.67137 0.73692
 C963 C 0.69224 0.64514 0.73688
 C964 C 0.67375 0.62555 0.73792
 H965 H 0.57891 0.58717 0.77999
 H966 H 0.54368 0.55550 0.78149
 H967 H 0.56796 0.52495 0.70788
 H968 H 0.60341 0.55661 0.70660
 H969 H 0.61940 0.66272 0.73987
 H970 H 0.65178 0.69734 0.73800
 H971 H 0.71244 0.63967 0.73606
 H972 H 0.67998 0.60554 0.73791
 C973 C 0.93698 0.09157 0.74974
 C974 C 0.95761 0.09277 0.76735
 C975 C 0.97687 0.07361 0.76726
 C976 C 0.97545 0.05282 0.74971
 C977 C 0.95525 0.05287 0.73125
 C978 C 0.93629 0.07199 0.73130
 C979 C 0.91565 0.10942 0.75101
 C980 C 0.89724 0.12374 0.75135
 C981 C 0.87536 0.14098 0.75108
 C982 C 0.87943 0.16734 0.74717
 C983 C 0.85853 0.18436 0.74664
 C984 C 0.83304 0.17535 0.75004
 C985 C 0.82903 0.14871 0.75370
 C986 C 0.85013 0.13162 0.75422
 H987 H 0.95829 0.10792 0.78175
 H988 H 0.99150 0.07408 0.78225
 H989 H 0.95385 0.03776 0.71685
 H990 H 0.92062 0.07105 0.71736
 H991 H 0.89882 0.17479 0.74456
 H992 H 0.86247 0.20470 0.74370
 H993 H 0.80973 0.14116 0.75646
 H994 H 0.84678 0.11116 0.75714
 C995 C 0.43931 0.59330 0.24786
 C996 C 0.45454 0.58942 0.27005
 C997 C 0.47400 0.57051 0.27014
 C998 C 0.47824 0.55541 0.24806
 C999 C 0.46381 0.56035 0.22552
 C1000 C 0.44451 0.57923 0.22541
 C1001 C 0.41727 0.61035 0.24838
 C1002 C 0.39852 0.62427 0.24831
 C1003 C 0.37639 0.64121 0.24779
 C1004 C 0.38015 0.66773 0.24457
 C1005 C 0.35902 0.68450 0.24408
 C1006 C 0.33361 0.67507 0.24680
 C1007 C 0.32992 0.64828 0.24976
 C1008 C 0.35124 0.63146 0.25026
 H1009 H 0.45067 0.60021 0.28754
 H1010 H 0.48463 0.56661 0.28782
 H1011 H 0.46662 0.54862 0.20843
 H1012 H 0.43289 0.58207 0.20815
 H1013 H 0.39948 0.67549 0.24253
 H1014 H 0.36272 0.70495 0.24171
 H1015 H 0.31069 0.64040 0.25200
 H1016 H 0.34811 0.61090 0.25268
 C1017 C 0.06880 0.91654 0.75431
 C1018 C 0.07302 0.93680 0.73686
 C1019 C 0.05724 0.95871 0.73735
 C1020 C 0.03698 0.96061 0.75526
 C1021 C 0.03279 0.94022 0.77276
 C1022 C 0.04863 0.91825 0.77226
 C1023 C 0.08581 0.89450 0.75411
 C1024 C 0.10081 0.87665 0.75358
 C1025 C 0.11955 0.85608 0.75269
 C1026 C 0.14588 0.86208 0.75174
 C1027 C 0.16433 0.84237 0.75088
 C1028 C 0.15673 0.81626 0.75095
 C1029 C 0.13015 0.81040 0.75178
 C1030 C 0.11170 0.83021 0.75264
 H1031 H 0.08862 0.93573 0.72297
 H1032 H 0.06076 0.97420 0.72368
 H1033 H 0.01750 0.94145 0.78696
 H1034 H 0.04532 0.90275 0.78597
 H1035 H 0.15216 0.88204 0.75171
 H1036 H 0.18457 0.84764 0.75028
 H1037 H 0.12360 0.79054 0.75192
 H1038 H 0.09135 0.82536 0.75333
 C1039 C 0.56428 0.41332 0.24983
 C1040 C 0.56833 0.43261 0.23127
 C1041 C 0.55338 0.45510 0.23149
 C1042 C 0.53412 0.45856 0.25024
 C1043 C 0.52987 0.43902 0.26867
 C1044 C 0.54491 0.41647 0.26845
 C1045 C 0.58112 0.39114 0.25041
 C1046 C 0.59625 0.37337 0.25060
 C1047 C 0.61547 0.35320 0.25058
 C1048 C 0.64165 0.35988 0.25069
 C1049 C 0.66064 0.34067 0.25058
 C1050 C 0.65375 0.31436 0.25035
 C1051 C 0.62732 0.30780 0.25017
 C1052 C 0.60831 0.32712 0.25028
 H1053 H 0.58335 0.43045 0.21687
 H1054 H 0.55695 0.46993 0.21712
 H1055 H 0.51534 0.44146 0.28350
 H1056 H 0.54175 0.40176 0.28304
 H1057 H 0.64741 0.38000 0.25088
 H1058 H 0.68073 0.34650 0.25075
 H1059 H 0.62132 0.28776 0.25005
 H1060 H 0.58809 0.32174 0.25016
 C1061 C 0.91761 0.94318 0.24666
 C1062 C 0.92076 0.96389 0.26368
 C1063 C 0.94121 0.98120 0.26032
 C1064 C 0.95898 0.97796 0.23989
 C1065 C 0.95474 0.95756 0.22228
 C1066 C 0.93428 0.94039 0.22567
 C1067 C 0.89838 0.92378 0.25148
 C1068 C 0.88280 0.90695 0.25531
 C1069 C 0.86445 0.88656 0.25943
 C1070 C 0.83833 0.89249 0.26286
 C1071 C 0.82024 0.87269 0.26545
 C1072 C 0.82805 0.84659 0.26461
 C1073 C 0.85448 0.84083 0.26175
 C1074 C 0.87255 0.86072 0.25914
 H1075 H 0.90802 0.96610 0.28011
 H1076 H 0.94411 0.99586 0.27492
 H1077 H 0.96740 0.95472 0.20588
 H1078 H 0.93188 0.92452 0.21226
 H1079 H 0.83188 0.91243 0.26311
 H1080 H 0.80008 0.87787 0.26767
 H1081 H 0.86114 0.82099 0.26093
 H1082 H 0.89277 0.85595 0.25646
 C1083 C 0.42013 0.44003 0.75079
 C1084 C 0.42470 0.45865 0.76984
 C1085 C 0.44457 0.47663 0.76666
 C1086 C 0.45999 0.47615 0.74433
 C1087 C 0.45478 0.45787 0.72498
 C1088 C 0.43493 0.43992 0.72819
 C1089 C 0.40104 0.42031 0.75483
 C1090 C 0.38530 0.40351 0.75804
 C1091 C 0.36645 0.38346 0.76149
 C1092 C 0.34040 0.38997 0.76439
 C1093 C 0.32181 0.37059 0.76650
 C1094 C 0.32902 0.34433 0.76572
 C1095 C 0.35537 0.33796 0.76333
 C1096 C 0.37396 0.35745 0.76119
 H1097 H 0.41338 0.45884 0.78743
 H1098 H 0.44855 0.49027 0.78200
 H1099 H 0.46651 0.45714 0.70768
 H1100 H 0.43152 0.42559 0.71334
 H1101 H 0.33440 0.41005 0.76465
 H1102 H 0.30173 0.37623 0.76837
 H1103 H 0.36159 0.31798 0.76257
 H1104 H 0.39412 0.35223 0.75892
 C1105 C 0.07858 0.24797 0.94121
 C1106 C 0.07628 0.26514 0.96192
 C1107 C 0.05658 0.26189 0.98010
 C1108 C 0.03881 0.24133 0.97781
 C1109 C 0.04191 0.22384 0.95712
 C1110 C 0.06162 0.22713 0.93908
 C1111 C 0.09768 0.25208 0.92152
 C1112 C 0.11339 0.25520 0.90467
 C1113 C 0.13216 0.25850 0.88452
 C1114 C 0.15829 0.26096 0.89092
 C1115 C 0.17676 0.26319 0.87145
 C1116 C 0.16935 0.26298 0.84519
 C1117 C 0.14294 0.26082 0.83894
 C1118 C 0.12447 0.25856 0.85852
 H1119 H 0.08928 0.28144 0.96364
 H1120 H 0.05446 0.27633 0.99506
 H1121 H 0.02912 0.20744 0.95491
 H1122 H 0.06335 0.21363 0.92320
 H1123 H 0.16443 0.26089 0.91098
 H1124 H 0.19689 0.26483 0.87702
 H1125 H 0.13658 0.26051 0.81896
 H1126 H 0.10425 0.25660 0.85338
 C1127 C 0.57963 0.75428 0.44124
 C1128 C 0.56051 0.77342 0.44121
 C1129 C 0.54012 0.77207 0.45872
 C1130 C 0.53865 0.75158 0.47651
 C1131 C 0.55829 0.73279 0.47704
 C1132 C 0.57874 0.73416 0.45942
 C1133 C 0.59930 0.75483 0.42170
 C1134 C 0.61526 0.75567 0.40483
 C1135 C 0.63409 0.75703 0.38451
 C1136 C 0.66040 0.75713 0.39064
 C1137 C 0.67878 0.75887 0.37102
 C1138 C 0.67107 0.76058 0.34489
 C1139 C 0.64452 0.76038 0.33890
 C1140 C 0.62615 0.75864 0.35863
 H1141 H 0.56102 0.78905 0.42723
 H1142 H 0.52509 0.78668 0.45802
 H1143 H 0.55729 0.71669 0.49041
 H1144 H 0.59344 0.71921 0.45953
 H1145 H 0.66674 0.75592 0.41061
 H1146 H 0.69903 0.75888 0.37639
 H1147 H 0.63792 0.76158 0.31904
 H1148 H 0.60577 0.75860 0.35371
 C1149 C 0.93375 0.75061 0.91381
 C1150 C 0.95423 0.76813 0.91517
 C1151 C 0.96961 0.76938 0.93743
 C1152 C 0.96476 0.75306 0.95884
 C1153 C 0.94423 0.73520 0.95687
 C1154 C 0.92897 0.73399 0.93458
 C1155 C 0.91654 0.75067 0.89189
 C1156 C 0.90130 0.75082 0.87421
 C1157 C 0.88217 0.75104 0.85394
 C1158 C 0.88952 0.75067 0.82792
 C1159 C 0.87068 0.75082 0.80843
 C1160 C 0.84421 0.75134 0.81477
 C1161 C 0.83710 0.75178 0.84103
 C1162 C 0.85595 0.75163 0.86042
 H1163 H 0.95786 0.78136 0.89932
 H1164 H 0.98427 0.78423 0.93832
 H1165 H 0.94010 0.72179 0.97242
 H1166 H 0.91315 0.72032 0.93372
 H1167 H 0.90979 0.75024 0.82270
 H1168 H 0.87684 0.75051 0.78843
 H1169 H 0.81696 0.75222 0.84667
 H1170 H 0.85005 0.75194 0.88051
 C1171 C 0.43376 0.25033 0.41613
 C1172 C 0.44881 0.22839 0.42136
 C1173 C 0.46430 0.22740 0.44357
 C1174 C 0.46490 0.24840 0.46076
 C1175 C 0.45002 0.27048 0.45518
 C1176 C 0.43457 0.27144 0.43298
 C1177 C 0.41630 0.25066 0.39440
 C1178 C 0.40099 0.25090 0.37677
 C1179 C 0.38190 0.25110 0.35645
 C1180 C 0.38935 0.25051 0.33046
 C1181 C 0.37058 0.25041 0.31089
 C1182 C 0.34409 0.25086 0.31712
 C1183 C 0.33688 0.25159 0.34335
 C1184 C 0.35565 0.25170 0.36282
 H1185 H 0.44817 0.21186 0.40856
 H1186 H 0.47529 0.21003 0.44769
 H1187 H 0.45020 0.28687 0.46816
 H1188 H 0.42289 0.28846 0.42919
 H1189 H 0.40964 0.25006 0.32532
 H1190 H 0.37683 0.24988 0.29093
 H1191 H 0.31671 0.25201 0.34890
 H1192 H 0.34968 0.25218 0.38288
 C1193 C 0.06135 0.76221 0.09024
 C1194 C 0.04425 0.74145 0.08720
 C1195 C 0.02422 0.74292 0.06898
 C1196 C 0.02116 0.76519 0.05366
 C1197 C 0.03752 0.78644 0.05785
 C1198 C 0.05749 0.78495 0.07605
 C1199 C 0.08374 0.75967 0.10670
 C1200 C 0.10259 0.75749 0.12033
 C1201 C 0.12462 0.75478 0.13723
 C1202 C 0.12068 0.74739 0.16289
 C1203 C 0.14156 0.74549 0.17989
 C1204 C 0.16689 0.75097 0.17155
 C1205 C 0.17084 0.75790 0.14553
 C1206 C 0.14975 0.75985 0.12847
 H1207 H 0.04706 0.72376 0.09811
 H1208 H 0.01213 0.72617 0.06574
 H1209 H 0.03562 0.80368 0.04606
 H1210 H 0.07054 0.80115 0.07829
 H1211 H 0.10137 0.74335 0.16987
 H1212 H 0.13773 0.73994 0.19972
 H1213 H 0.19004 0.76235 0.13856
 H1214 H 0.15301 0.76559 0.10858
 C1215 C 0.56182 0.24573 0.59406
 C1216 C 0.55755 0.22250 0.58097
 C1217 C 0.53787 0.22081 0.56250
 C1218 C 0.52220 0.24236 0.55692
 C1219 C 0.52557 0.26517 0.57118
 C1220 C 0.54534 0.26685 0.58967
 C1221 C 0.58406 0.24825 0.61068
 C1222 C 0.60289 0.25015 0.62436
 C1223 C 0.62502 0.25222 0.64121
 C1224 C 0.62128 0.25875 0.66710
 C1225 C 0.64226 0.25969 0.68405
 C1226 C 0.66748 0.25406 0.67543
 C1227 C 0.67124 0.24812 0.64917
 C1228 C 0.65006 0.24713 0.63216
 H1229 H 0.57011 0.20601 0.58426
 H1230 H 0.53570 0.20312 0.55157
 H1231 H 0.51400 0.28213 0.56687
 H1232 H 0.54846 0.28492 0.59972
 H1233 H 0.60205 0.26281 0.67430
 H1234 H 0.63860 0.26461 0.70405
 H1235 H 0.69037 0.24372 0.64194
 H1236 H 0.65316 0.24208 0.61210
 C1237 C 0.90534 0.24365 0.07403
 C1238 C 0.90891 0.22315 0.05676
 C1239 C 0.92919 0.22382 0.03890
 C1240 C 0.94612 0.24502 0.03816
 C1241 C 0.94183 0.26591 0.05497
 C1242 C 0.92157 0.26521 0.07277
 C1243 C 0.88594 0.24207 0.09392
 C1244 C 0.87002 0.24077 0.11089
 C1245 C 0.85107 0.23929 0.13122
 C1246 C 0.82481 0.23769 0.12499
 C1247 C 0.80631 0.23659 0.14459
 C1248 C 0.81378 0.23710 0.17083
 C1249 C 0.84029 0.23854 0.17692
 C1250 C 0.85879 0.23965 0.15722
 H1251 H 0.89651 0.20633 0.05760
 H1252 H 0.93233 0.20732 0.02646
 H1253 H 0.95463 0.28244 0.05476
 H1254 H 0.91899 0.28120 0.08601
 H1255 H 0.81860 0.23737 0.10496
 H1256 H 0.78612 0.23542 0.13912
 H1257 H 0.84674 0.23895 0.19685
 H1258 H 0.87909 0.24087 0.16227
 C1259 C 0.40338 0.74021 0.57139
 C1260 C 0.40662 0.72166 0.55193
 C1261 C 0.42717 0.72376 0.53446
 C1262 C 0.44466 0.74442 0.53637
 C1263 C 0.44077 0.76332 0.55544
 C1264 C 0.42027 0.76123 0.57279
 C1265 C 0.38366 0.73728 0.59080
 C1266 C 0.36771 0.73536 0.60767
 C1267 C 0.34900 0.73367 0.62820
 C1268 C 0.35713 0.73377 0.65407
 C1269 C 0.33894 0.73318 0.67406
 C1270 C 0.31230 0.73254 0.66841
 C1271 C 0.30439 0.73213 0.64229
 C1272 C 0.32260 0.73271 0.62239
 H1273 H 0.39370 0.70526 0.55071
 H1274 H 0.43002 0.70879 0.52015
 H1275 H 0.45404 0.77938 0.55726
 H1276 H 0.41797 0.77569 0.58773
 H1277 H 0.37753 0.73456 0.65881
 H1278 H 0.34574 0.73349 0.69388
 H1279 H 0.28408 0.73156 0.63717
 H1280 H 0.31607 0.73266 0.60245
 C1281 C 0.24904 0.08642 0.93482
 C1282 C 0.26551 0.06623 0.92778
 C1283 C 0.26695 0.04388 0.94285
 C1284 C 0.25205 0.04127 0.96553
 C1285 C 0.23559 0.06191 0.97251
 C1286 C 0.23416 0.08431 0.95727
 C1287 C 0.24695 0.10867 0.91815
 C1288 C 0.24576 0.12645 0.90308
 C1289 C 0.24494 0.14668 0.88391
 C1290 C 0.24634 0.17269 0.89112
 C1291 C 0.24658 0.19206 0.87215
 C1292 C 0.24550 0.18561 0.84571
 C1293 C 0.24383 0.15938 0.83876
 C1294 C 0.24357 0.14011 0.85772
 H1295 H 0.27714 0.06765 0.91043
 H1296 H 0.28021 0.02879 0.93695
 H1297 H 0.22300 0.06039 0.98913
 H1298 H 0.22109 0.09973 0.96273
 H1299 H 0.24748 0.17798 0.91135
 H1300 H 0.24781 0.21203 0.87821
 H1301 H 0.24288 0.15366 0.81865
 H1302 H 0.24254 0.12003 0.85192
 C1303 C 0.74964 0.58556 0.43294
 C1304 C 0.77152 0.58044 0.44815
 C1305 C 0.77242 0.55835 0.46378
 C1306 C 0.75139 0.54119 0.46438
 C1307 C 0.72939 0.54664 0.44930
 C1308 C 0.72852 0.56872 0.43370
 C1309 C 0.74937 0.60726 0.41547
 C1310 C 0.74920 0.62489 0.40019
 C1311 C 0.74906 0.64526 0.38119
 C1312 C 0.74929 0.67121 0.38877
 C1313 C 0.74933 0.69084 0.37009
 C1314 C 0.74916 0.68472 0.34355
 C1315 C 0.74885 0.65854 0.33621
 C1316 C 0.74881 0.63901 0.35490
 H1317 H 0.78806 0.59323 0.44755
 H1318 H 0.78974 0.55432 0.47492
 H1319 H 0.71297 0.53368 0.44948
 H1320 H 0.71155 0.57244 0.42191
 H1321 H 0.74947 0.67626 0.40909
 H1322 H 0.74950 0.71076 0.37644
 H1323 H 0.74867 0.65308 0.31601
 H1324 H 0.74862 0.61898 0.34882
 C1325 C 0.75342 0.06029 0.08007
 C1326 C 0.73344 0.04292 0.07453
 C1327 C 0.73634 0.02484 0.05469
 C1328 C 0.75930 0.02395 0.04027
 C1329 C 0.77950 0.04101 0.04640
 C1330 C 0.77658 0.05904 0.06622
 C1331 C 0.74989 0.08009 0.09920
 C1332 C 0.74711 0.09694 0.11499
 C1333 C 0.74404 0.11702 0.13392
 C1334 C 0.74167 0.11050 0.16005
 C1335 C 0.73929 0.12987 0.17863
 C1336 C 0.73926 0.15614 0.17134
 C1337 C 0.74146 0.16251 0.14496
 C1338 C 0.74385 0.14303 0.12638
 H1339 H 0.71542 0.04377 0.08511
 H1340 H 0.72039 0.01214 0.05000
 H1341 H 0.79730 0.04071 0.03542
 H1342 H 0.79216 0.07239 0.07035
 H1343 H 0.74182 0.09044 0.16609
 H1344 H 0.73766 0.12420 0.19873
 H1345 H 0.74159 0.18249 0.13868
 H1346 H 0.74573 0.14827 0.10617
 C1347 C 0.23464 0.55771 0.58006
 C1348 C 0.21398 0.55548 0.56268
 C1349 C 0.21529 0.53782 0.54237
 C1350 C 0.23728 0.52215 0.53926
 C1351 C 0.25761 0.52388 0.55726
 C1352 C 0.25626 0.54158 0.57759
 C1353 C 0.23423 0.57754 0.59946
 C1354 C 0.23401 0.59450 0.61536
 C1355 C 0.23385 0.61480 0.63427
 C1356 C 0.23373 0.60861 0.66059
 C1357 C 0.23372 0.62822 0.67906
 C1358 C 0.23383 0.65440 0.67147
 C1359 C 0.23395 0.66044 0.64492
 C1360 C 0.23395 0.64073 0.62644
 H1361 H 0.19718 0.56790 0.56441
 H1362 H 0.19947 0.53683 0.52863
 H1363 H 0.27491 0.51230 0.55497
 H1364 H 0.27240 0.54323 0.59090
 H1365 H 0.23368 0.58860 0.66684
 H1366 H 0.23367 0.62280 0.69931
 H1367 H 0.23409 0.68035 0.63840
 H1368 H 0.23408 0.64571 0.60608
 C1369 C 0.75918 0.92925 0.90442
 C1370 C 0.73749 0.93007 0.92051
 C1371 C 0.73636 0.94775 0.94086
 C1372 C 0.75692 0.96491 0.94541
 C1373 C 0.77821 0.96470 0.92856
 C1374 C 0.77932 0.94694 0.90819
 C1375 C 0.76123 0.90934 0.88505
 C1376 C 0.76276 0.89228 0.86923
 C1377 C 0.76432 0.87178 0.85043
 C1378 C 0.76626 0.87774 0.82412
 C1379 C 0.76711 0.85799 0.80576
 C1380 C 0.76602 0.83183 0.81340
 C1381 C 0.76436 0.82601 0.83996
 C1382 C 0.76349 0.84586 0.85832
 H1383 H 0.72177 0.91653 0.91780
 H1384 H 0.71978 0.94753 0.95360
 H1385 H 0.79446 0.97742 0.93190
 H1386 H 0.79624 0.94646 0.89590
 H1387 H 0.76693 0.89770 0.81776
 H1388 H 0.76847 0.86328 0.78553
 H1389 H 0.76350 0.80615 0.84655
 H1390 H 0.76198 0.84099 0.87865
 C1391 C 0.25887 0.42807 0.40480
 C1392 C 0.23720 0.44433 0.40605
 C1393 C 0.23485 0.46223 0.42619
 C1394 C 0.25417 0.46400 0.44528
 C1395 C 0.27630 0.44830 0.44329
 C1396 C 0.27863 0.43048 0.42318
 C1397 C 0.26024 0.40789 0.38567
 C1398 C 0.26136 0.39063 0.37005
 C1399 C 0.26262 0.36996 0.35144
 C1400 C 0.26379 0.37571 0.32504
 C1401 C 0.26466 0.35580 0.30687
 C1402 C 0.26436 0.32971 0.31479
 C1403 C 0.26338 0.32410 0.34143
 C1404 C 0.26249 0.34411 0.35961
 H1405 H 0.22175 0.44260 0.39197
 H1406 H 0.21744 0.47380 0.42754
 H1407 H 0.29141 0.44930 0.45781
 H1408 H 0.29548 0.41803 0.42242
 H1409 H 0.26392 0.39561 0.31848
 H1410 H 0.26547 0.36093 0.28657
 H1411 H 0.26315 0.30428 0.34822
 H1412 H 0.26162 0.33942 0.38002
 C1413 C 0.24730 0.90869 0.06107
 C1414 C 0.27091 0.92087 0.05619
 C1415 C 0.27282 0.93905 0.03631
 C1416 C 0.25120 0.94513 0.02095
 C1417 C 0.22789 0.93192 0.02497
 C1418 C 0.22595 0.91371 0.04500
 C1419 C 0.24488 0.89232 0.08349
 C1420 C 0.24346 0.87882 0.10249
 C1421 C 0.24231 0.86210 0.12477
 C1422 C 0.23537 0.83628 0.12141
 C1423 C 0.23584 0.81929 0.14236
 C1424 C 0.24333 0.82779 0.16716
 C1425 C 0.24954 0.85400 0.17062
 C1426 C 0.24914 0.87105 0.14946
 H1427 H 0.28754 0.91714 0.06845
 H1428 H 0.29080 0.94944 0.03376
 H1429 H 0.21089 0.93681 0.01368
 H1430 H 0.20758 0.90439 0.04862
 H1431 H 0.23000 0.82913 0.10246
 H1432 H 0.23060 0.79932 0.13899
 H1433 H 0.25535 0.86111 0.18944
 H1434 H 0.25458 0.89105 0.15225
 C1435 C 0.75450 0.40956 0.56330
 C1436 C 0.73316 0.41372 0.54701
 C1437 C 0.73463 0.43185 0.52692
 C1438 C 0.75746 0.44598 0.52305
 C1439 C 0.77921 0.44060 0.53854
 C1440 C 0.77773 0.42248 0.55854
 C1441 C 0.75223 0.39330 0.58582
 C1442 C 0.75051 0.37988 0.60483
 C1443 C 0.74860 0.36325 0.62711
 C1444 C 0.75507 0.37214 0.65191
 C1445 C 0.75432 0.35523 0.67317
 C1446 C 0.74726 0.32923 0.66970
 C1447 C 0.74020 0.32081 0.64475
 C1448 C 0.74089 0.33766 0.62371
 H1449 H 0.71510 0.40378 0.55052
 H1450 H 0.71753 0.43603 0.51550
 H1451 H 0.79691 0.45144 0.53598
 H1452 H 0.79437 0.41935 0.57094
 H1453 H 0.76105 0.39198 0.65475
 H1454 H 0.75985 0.36228 0.69209
 H1455 H 0.73437 0.30101 0.64135
 H1456 H 0.73576 0.33059 0.60466
 C1457 C 0.06878 0.09719 0.76155
 C1458 C 0.05260 0.09403 0.73997
 C1459 C 0.03509 0.07341 0.73905
 C1460 C 0.03368 0.05581 0.75974
 C1461 C 0.04934 0.05965 0.78164
 C1462 C 0.06673 0.08022 0.78255
 C1463 C 0.08858 0.11674 0.76173
 C1464 C 0.10569 0.13256 0.76224
 C1465 C 0.12636 0.15118 0.76310
 C1466 C 0.12069 0.17759 0.76386
 C1467 C 0.14067 0.19571 0.76478
 C1468 C 0.16675 0.18768 0.76496
 C1469 C 0.17226 0.16104 0.76432
 C1470 C 0.15219 0.14294 0.76339
 H1471 H 0.05407 0.10700 0.72356
 H1472 H 0.02346 0.07056 0.72184
 H1473 H 0.04865 0.04619 0.79771
 H1474 H 0.07915 0.08243 0.79932
 H1475 H 0.10080 0.18421 0.76372
 H1476 H 0.13563 0.21602 0.76530
 H1477 H 0.19205 0.15416 0.76445
 H1478 H 0.15681 0.12252 0.76289
 C1479 C 0.57238 0.59484 0.25868
 C1480 C 0.55472 0.59370 0.23807
 C1481 C 0.53688 0.57340 0.23660
 C1482 C 0.53662 0.55407 0.25574
 C1483 C 0.55386 0.55584 0.27673
 C1484 C 0.57159 0.57609 0.27819
 C1485 C 0.59217 0.61438 0.25936
 C1486 C 0.60918 0.63030 0.26020
 C1487 C 0.62959 0.64918 0.26139
 C1488 C 0.62348 0.67547 0.26275
 C1489 C 0.64315 0.69389 0.26387
 C1490 C 0.66936 0.68632 0.26363
 C1491 C 0.67532 0.65980 0.26242
 C1492 C 0.65555 0.64137 0.26130
 H1493 H 0.55520 0.60808 0.22281
 H1494 H 0.52406 0.57220 0.22005
 H1495 H 0.55402 0.54110 0.29166
 H1496 H 0.58512 0.57675 0.29422
 H1497 H 0.60348 0.68175 0.26290
 H1498 H 0.63776 0.71409 0.26484
 H1499 H 0.69523 0.65328 0.26222
 H1500 H 0.66050 0.62105 0.26031
 C1501 C 0.08954 0.93657 0.23509
 C1502 C 0.09057 0.95707 0.25270
 C1503 C 0.07200 0.97682 0.25169
 C1504 C 0.05187 0.97608 0.23321
 C1505 C 0.05238 0.95624 0.21448
 C1506 C 0.07096 0.93671 0.21547
 C1507 C 0.10621 0.91442 0.23809
 C1508 C 0.11975 0.89558 0.24066
 C1509 C 0.13640 0.87345 0.24387
 C1510 C 0.16140 0.87709 0.25336
 C1511 C 0.17829 0.85619 0.25553
 C1512 C 0.17051 0.83115 0.24821
 C1513 C 0.14506 0.82743 0.23936
 C1514 C 0.12809 0.84855 0.23713
 H1515 H 0.10495 0.95714 0.26799
 H1516 H 0.07213 0.99116 0.26688
 H1517 H 0.03780 0.95537 0.19941
 H1518 H 0.07018 0.92114 0.20152
 H1519 H 0.16801 0.89620 0.25875
 H1520 H 0.19767 0.85977 0.26264
 H1521 H 0.13855 0.80845 0.23349
 H1522 H 0.10870 0.84554 0.22978
 C1523 C 0.59221 0.44029 0.74011
 C1524 C 0.58980 0.45788 0.76054
 C1525 C 0.57102 0.47739 0.75943
 C1526 C 0.55450 0.47933 0.73791
 C1527 C 0.55815 0.46263 0.71684
 C1528 C 0.57691 0.44322 0.71794
 C1529 C 0.60888 0.41812 0.74260
 C1530 C 0.62255 0.39932 0.74475
 C1531 C 0.63937 0.37728 0.74739
 C1532 C 0.66517 0.38119 0.75422
 C1533 C 0.68207 0.36026 0.75605
 C1534 C 0.67346 0.33492 0.75107
 C1535 C 0.64730 0.33101 0.74472
 C1536 C 0.63034 0.35214 0.74283
 H1537 H 0.60157 0.45577 0.77779
 H1538 H 0.56820 0.48977 0.77604
 H1539 H 0.54541 0.46368 0.70019
 H1540 H 0.57864 0.42976 0.70202
 H1541 H 0.67235 0.40050 0.75787
 H1542 H 0.70202 0.36405 0.76117
 H1543 H 0.64012 0.31179 0.74067
 H1544 H 0.61033 0.34893 0.73754
 C1545 C 0.91590 0.06840 0.24883
 C1546 C 0.93400 0.06862 0.26902
 C1547 C 0.95566 0.05242 0.26813
 C1548 C 0.95939 0.03576 0.24705
 C1549 C 0.94105 0.03556 0.22691
 C1550 C 0.91940 0.05176 0.22783
 C1551 C 0.89433 0.08602 0.24916
 C1552 C 0.87666 0.10125 0.24929
 C1553 C 0.85610 0.12004 0.24937
 C1554 C 0.86210 0.14638 0.24954
 C1555 C 0.84237 0.16484 0.24963
 C1556 C 0.81624 0.15723 0.24957
 C1557 C 0.81039 0.13066 0.24932
 C1558 C 0.83022 0.11220 0.24923
 H1559 H 0.93153 0.08150 0.28531
 H1560 H 0.96953 0.05289 0.28386
 H1561 H 0.94371 0.02317 0.21028
 H1562 H 0.90561 0.05157 0.21202
 H1563 H 0.88207 0.15266 0.24962
 H1564 H 0.84763 0.18508 0.24979
 H1565 H 0.79052 0.12411 0.24922
 H1566 H 0.82536 0.09185 0.24906
 C1567 C 0.41226 0.56410 0.74962
 C1568 C 0.43095 0.56656 0.76910
 C1569 C 0.45349 0.55167 0.76833
 C1570 C 0.45755 0.53411 0.74807
 C1571 C 0.43851 0.53140 0.72881
 C1572 C 0.41596 0.54632 0.72960
 C1573 C 0.39028 0.58115 0.74928
 C1574 C 0.37259 0.59633 0.74891
 C1575 C 0.35246 0.61553 0.74846
 C1576 C 0.35916 0.64165 0.74719
 C1577 C 0.33997 0.66063 0.74705
 C1578 C 0.31367 0.65377 0.74819
 C1579 C 0.30708 0.62739 0.74928
 C1580 C 0.32639 0.60839 0.74943
 H1581 H 0.42834 0.58038 0.78458
 H1582 H 0.46791 0.55404 0.78337
 H1583 H 0.44142 0.51827 0.71281
 H1584 H 0.40173 0.54445 0.71430
 H1585 H 0.37929 0.64737 0.74640
 H1586 H 0.34580 0.68070 0.74614
 H1587 H 0.28704 0.62143 0.75015
 H1588 H 0.32101 0.58819 0.75039
 C1589 C 0.94449 0.91760 0.74626
 C1590 C 0.94330 0.93362 0.76795
 C1591 C 0.96040 0.95423 0.77041
 C1592 C 0.97895 0.95899 0.75125
 C1593 C 0.98084 0.94229 0.73000
 C1594 C 0.96359 0.92162 0.72750
 C1595 C 0.92493 0.89827 0.74275
 C1596 C 0.90782 0.88271 0.74043
 C1597 C 0.88707 0.86443 0.73830
 C1598 C 0.86134 0.87290 0.73872
 C1599 C 0.84114 0.85500 0.73762
 C1600 C 0.84651 0.82838 0.73615
 C1601 C 0.87250 0.82016 0.73555
 C1602 C 0.89259 0.83807 0.73663
 H1603 H 0.92859 0.93070 0.78253
 H1604 H 0.95862 0.96708 0.78683
 H1605 H 0.99486 0.94592 0.71491
 H1606 H 0.96459 0.90933 0.71060
 H1607 H 0.85689 0.89332 0.74011
 H1608 H 0.82139 0.86198 0.73817
 H1609 H 0.87741 0.79984 0.73441
 H1610 H 0.91244 0.83132 0.73638
 C1611 C 0.44040 0.41991 0.24516
 C1612 C 0.43904 0.43715 0.26588
 C1613 C 0.45662 0.45745 0.26770
 C1614 C 0.47582 0.46069 0.24884
 C1615 C 0.47760 0.44294 0.22842
 C1616 C 0.45991 0.42258 0.22660
 C1617 C 0.42098 0.40028 0.24260
 C1618 C 0.40421 0.38426 0.24094
 C1619 C 0.38402 0.36530 0.23945
 C1620 C 0.35804 0.37298 0.23944
 C1621 C 0.33842 0.35443 0.23868
 C1622 C 0.34461 0.32795 0.23795
 C1623 C 0.37084 0.32052 0.23786
 C1624 C 0.39036 0.33907 0.23860
 H1625 H 0.42403 0.43525 0.28032
 H1626 H 0.45494 0.47102 0.28352
 H1627 H 0.49208 0.44534 0.21354
 H1628 H 0.46106 0.40934 0.21046
 H1629 H 0.35296 0.39329 0.24018
 H1630 H 0.31847 0.36082 0.23882
 H1631 H 0.37637 0.30033 0.23732
 H1632 H 0.41041 0.33293 0.23868
   
