data_POSCAR
  _audit_creation_date              2014-09-24
  _audit_creation_method            'ToBaCCo'
  _symmetry_space_group_name_H-M    'P1'
  _symmetry_Int_Tables_number       1
  _symmetry_cell_setting            triclinic
  loop_
  _symmetry_equiv_pos_as_xyz
 x,y,z
_cell_length_a 42.2090
_cell_length_b 42.6803
_cell_length_c 37.7647
_cell_angle_alpha 87.209400
_cell_angle_beta 90.412200
_cell_angle_gamma 90.068700
loop_
  _atom_site_label
  _atom_site_type_symbol
  _atom_site_fract_x
  _atom_site_fract_y
  _atom_site_fract_z
C1 C 0.35666 -0.00540 0.25724
 C2 C 0.15135 0.00518 0.74261
 C3 C 0.64485 0.50180 0.26315
 C4 C 0.85359 0.50679 0.73990
 C5 C 0.26207 0.39308 1.00463
 C6 C 0.74898 0.10783 1.01873
 C7 C 0.23988 0.61282 0.50192
 C8 C 0.74913 0.89285 0.48005
 C9 C 0.00443 0.24993 0.37578
 C10 C -0.00180 0.74376 0.10600
 C11 C 0.50065 0.24528 0.62372
 C12 C 0.49982 0.76121 0.87661
 C13 C -0.24181 0.60395 0.99981
 C14 C -0.25585 0.39598 0.48819
 C15 C 0.24781 -0.10790 -0.01418
 C16 C 0.25005 1.09984 0.52773
 C17 C 0.15254 0.49577 0.25052
 C18 C -0.15619 0.99622 0.25219
 C19 C 0.36122 0.50386 -0.24171
 C20 C 0.64161 0.00721 -0.24651
 C21 C 0.00064 0.24916 0.87927
 C22 C 0.49551 0.25033 0.12824
 C23 C -0.00463 0.74410 0.61823
 C24 C 0.49752 0.75196 0.37147
 B25 B -0.01868 0.00856 1.03325
 B26 B -0.03861 0.00705 0.99455
 B27 B -0.01039 0.03493 0.99993
 B28 B 0.01921 0.01858 1.02504
 B29 B 0.00924 -0.01967 1.03451
 B30 B -0.02666 -0.02635 1.01581
 B31 B 0.01473 -0.01164 0.96263
 B32 B 0.03452 -0.01020 1.00163
 B33 B 0.00638 -0.03798 0.99589
 B34 B -0.02329 -0.02162 0.97085
 B35 B -0.01346 0.01662 0.96140
 B36 B 0.02280 0.02315 0.98003
 B37 B 0.47155 0.51333 0.52382
 B38 B 0.45184 0.50694 0.48602
 B39 B 0.48226 0.53257 0.48554
 B40 B 0.51038 0.51902 0.51406
 B41 B 0.49731 0.48424 0.53224
 B42 B 0.46075 0.47640 0.51484
 B43 B 0.50300 0.47793 0.46087
 B44 B 0.52321 0.48537 0.49827
 B45 B 0.49314 0.45914 0.49925
 B46 B 0.46441 0.47257 0.47051
 B47 B 0.47743 0.50771 0.45237
 B48 B 0.51399 0.51511 0.46931
 B49 B 0.51930 0.97348 0.53447
 B50 B 0.53249 0.98274 0.49334
 B51 B 0.50175 0.95785 0.49863
 B52 B 0.47937 0.96976 0.53248
 B53 B 0.49651 1.00293 0.54742
 B54 B 0.52980 1.01089 0.52315
 B55 B 0.47883 1.01504 0.47831
 B56 B 0.46546 1.00563 0.51928
 B57 B 0.49626 1.03059 0.51389
 B58 B 0.51874 1.01861 0.48020
 B59 B 0.50145 0.98565 0.46521
 B60 B 0.46824 0.97759 0.48945
 B61 B 0.02878 0.47906 1.02851
 B62 B 0.04384 0.48419 0.98749
 B63 B 0.01516 0.45729 0.99527
 B64 B -0.01044 0.47136 1.02515
 B65 B 0.00269 0.50771 1.03510
 B66 B 0.03646 0.51570 1.01165
 B67 B -0.01180 0.50894 0.96414
 B68 B -0.02675 0.50386 1.00517
 B69 B 0.00183 0.53081 0.99744
 B70 B 0.02747 0.51679 0.96754
 B71 B 0.01439 0.48036 0.95761
 B72 B -0.01936 0.47237 0.98114
 B73 B 0.01629 0.51881 0.46110
 B74 B 0.03057 0.50957 0.50205
 B75 B 0.00077 0.53560 0.49706
 B76 B -0.02341 0.52444 0.46396
 B77 B -0.00836 0.49045 0.44925
 B78 B 0.02535 0.48116 0.47289
 B79 B -0.02421 0.47985 0.51896
 B80 B -0.03859 0.48930 0.47815
 B81 B -0.00877 0.46317 0.48328
 B82 B 0.01556 0.47445 0.51621
 B83 B 0.00031 0.50829 0.53091
 B84 B -0.03333 0.51755 0.50736
 B85 B 0.51425 0.02472 -0.02775
 B86 B 0.52964 0.01568 0.01268
 B87 B 0.49932 0.04127 0.00859
 B88 B 0.47454 0.02957 -0.02369
 B89 B 0.48979 -0.00422 -0.03887
 B90 B 0.52418 -0.01280 -0.01631
 B91 B 0.47578 -0.01487 0.03141
 B92 B 0.46028 -0.00575 -0.00896
 B93 B 0.49059 -0.03138 -0.00480
 B94 B 0.51547 -0.01964 0.02733
 B95 B 0.50013 0.01394 0.04253
 B96 B 0.46576 0.02265 0.02000
 B97 B 0.48803 0.49064 -0.01974
 B98 B 0.47178 0.49960 0.01930
 B99 B 0.50137 0.47303 0.01833
 B100 B 0.52719 0.48484 -0.01351
 B101 B 0.51342 0.51949 -0.03213
 B102 B 0.47891 0.52833 -0.01202
 B103 B 0.52630 0.52793 0.03789
 B104 B 0.54215 0.51938 -0.00132
 B105 B 0.51268 0.54579 -0.00013
 B106 B 0.48685 0.53393 0.03177
 B107 B 0.50064 0.49942 0.05033
 B108 B 0.53532 0.49058 0.02972
 B109 B -0.01638 0.97980 0.46495
 B110 B -0.03807 0.99312 0.49837
 B111 B -0.01284 0.96285 0.50581
 B112 B 0.01982 0.96924 0.48088
 B113 B 0.01439 1.00429 0.45812
 B114 B -0.02173 1.01884 0.46861
 B115 B 0.01462 1.01544 0.52857
 B116 B 0.03643 1.00214 0.49527
 B117 B 0.01116 1.03234 0.48789
 B118 B -0.02151 1.02598 0.51268
 B119 B -0.01607 0.99106 0.53547
 B120 B 0.02013 0.97646 0.52495
 B121 B 0.76849 0.23614 0.22640
 B122 B 0.75592 0.21457 0.26225
 B123 B 0.78371 0.24266 0.26650
 B124 B 0.77506 0.27330 0.23827
 B125 B 0.74129 0.26385 0.21642
 B126 B 0.72960 0.22723 0.23095
 B127 B 0.72718 0.26537 0.28675
 B128 B 0.73989 0.28698 0.25101
 B129 B 0.71208 0.25903 0.24651
 B130 B 0.72062 0.22829 0.27485
 B131 B 0.75453 0.23771 0.29678
 B132 B 0.76612 0.27433 0.28224
 B133 B 0.72868 0.77653 0.71534
 B134 B 0.73632 0.79281 0.75418
 B135 B 0.70939 0.76390 0.75255
 B136 B 0.72185 0.73765 0.72338
 B137 B 0.75738 0.75090 0.70757
 B138 B 0.76634 0.78532 0.72668
 B139 B 0.76372 0.73914 0.77918
 B140 B 0.75616 0.72278 0.74048
 B141 B 0.78297 0.75187 0.74207
 B142 B 0.77050 0.77794 0.77122
 B143 B 0.73503 0.76468 0.78706
 B144 B 0.72599 0.73033 0.76792
 B145 B 0.27257 0.26908 0.78970
 B146 B 0.26308 0.28739 0.75063
 B147 B 0.29058 0.25878 0.75200
 B148 B 0.27994 0.23087 0.78274
 B149 B 0.24492 0.24210 0.80019
 B150 B 0.23426 0.27742 0.78013
 B151 B 0.23535 0.23430 0.72944
 B152 B 0.24579 0.21580 0.76837
 B153 B 0.21767 0.24417 0.76700
 B154 B 0.22831 0.27256 0.73619
 B155 B 0.26344 0.26128 0.71884
 B156 B 0.27380 0.22605 0.73845
 B157 B 0.22592 0.72786 0.27153
 B158 B 0.23494 0.71397 0.23202
 B159 B 0.20914 0.74390 0.23424
 B160 B 0.22128 0.76726 0.26665
 B161 B 0.25528 0.75133 0.28408
 B162 B 0.26375 0.71813 0.26261
 B163 B 0.26565 0.76786 0.21409
 B164 B 0.25690 0.78156 0.25384
 B165 B 0.28261 0.75161 0.25150
 B166 B 0.27048 0.72844 0.21904
 B167 B 0.23631 0.74420 0.20169
 B168 B 0.22792 0.77748 0.22324
 B169 B 0.27169 0.73548 0.71351
 B170 B 0.26411 0.71986 0.75436
 B171 B 0.28844 0.75108 0.74956
 B172 B 0.27490 0.77490 0.71577
 B173 B 0.24125 0.75828 0.70014
 B174 B 0.23455 0.72390 0.72407
 B175 B 0.23123 0.77181 0.76918
 B176 B 0.23905 0.78748 0.72840
 B177 B 0.21452 0.75634 0.73319
 B178 B 0.22812 0.73229 0.76700
 B179 B 0.26176 0.74904 0.78267
 B180 B 0.26844 0.78337 0.75877
 B181 B 0.24740 0.26713 0.23501
 B182 B 0.25215 0.28386 0.27390
 B183 B 0.22424 0.25602 0.26991
 B184 B 0.23812 0.22897 0.24291
 B185 B 0.27566 0.24023 0.23109
 B186 B 0.28408 0.27429 0.25055
 B187 B 0.27516 0.22930 0.30318
 B188 B 0.26960 0.21254 0.26369
 B189 B 0.29798 0.24013 0.26853
 B190 B 0.28398 0.26766 0.29522
 B191 B 0.24662 0.25656 0.30697
 B192 B 0.23809 0.22203 0.28802
 B193 B 0.76787 0.76839 0.26762
 B194 B 0.75934 0.78207 0.22607
 B195 B 0.78576 0.75271 0.23265
 B196 B 0.77343 0.72920 0.26735
 B197 B 0.73869 0.74435 0.28167
 B198 B 0.73003 0.77725 0.25602
 B199 B 0.73002 0.72753 0.21316
 B200 B 0.73836 0.71409 0.25477
 B201 B 0.71200 0.74344 0.24811
 B202 B 0.72435 0.76684 0.21340
 B203 B 0.75914 0.75178 0.19914
 B204 B 0.76780 0.71880 0.22487
 B205 B 0.73557 0.23680 0.78637
 B206 B 0.74131 0.22117 0.74703
 B207 B 0.71362 0.24915 0.75042
 B208 B 0.72705 0.27542 0.77927
 B209 B 0.76391 0.26344 0.79285
 B210 B 0.77279 0.22963 0.77267
 B211 B 0.76565 0.27593 0.72095
 B212 B 0.75977 0.29170 0.76040
 B213 B 0.78753 0.26374 0.75682
 B214 B 0.77405 0.23733 0.72810
 B215 B 0.73727 0.24939 0.71449
 B216 B 0.72844 0.28329 0.73456
 C217 C 0.40847 1.02638 0.34900
 C218 C 0.41804 1.03670 0.31489
 C219 C 0.40182 1.02592 0.28534
 C220 C 0.37687 1.00395 0.28939
 C221 C 0.36738 0.99571 0.32430
 N222 N 0.38327 1.00667 0.35235
 C223 C 0.42505 1.03422 0.38210
 N224 N 0.41055 1.02536 0.41292
 C225 C 0.42558 1.02441 0.44464
 C226 C 0.45807 1.03147 0.44688
 C227 C 0.47280 1.04390 0.41589
 C228 C 0.45645 1.04515 0.38337
 H229 H 0.40865 1.03488 0.25919
 H230 H 0.34687 0.98114 0.32971
 H231 H 0.41280 1.01400 0.46681
 H232 H 0.49781 1.04956 0.41596
 H233 H 0.43737 1.05310 0.31088
 H234 H 0.46918 1.05206 0.35951
 C235 C -0.08544 0.51798 0.83298
 C236 C -0.09616 0.48825 0.82460
 C237 C -0.11504 0.48488 0.79476
 C238 C -0.12463 0.51114 0.77308
 C239 C -0.11210 0.54062 0.78229
 N240 N -0.09334 0.54322 0.81153
 C241 C -0.06822 0.52159 0.86657
 N242 N -0.07917 0.50530 0.89559
 C243 C -0.06339 0.50394 0.92681
 C244 C -0.03367 0.51875 0.93033
 C245 C -0.02248 0.53702 0.90101
 C246 C -0.03996 0.53880 0.86907
 H247 H -0.12207 0.46135 0.78863
 H248 H -0.11714 0.56192 0.76703
 H249 H -0.07357 0.48957 0.94816
 H250 H 0.00031 0.54861 0.90222
 H251 H -0.08993 0.46767 0.84111
 H252 H -0.03066 0.55186 0.84613
 C253 C 0.09469 -0.01311 0.83753
 C254 C 0.11771 -0.03512 0.82899
 C255 C 0.13701 -0.02904 0.79953
 C256 C 0.13281 -0.00159 0.77748
 C257 C 0.11130 0.02082 0.78916
 N258 N 0.09276 0.01430 0.81772
 C259 C 0.07226 -0.01785 0.86730
 N260 N 0.04801 0.00288 0.86901
 C261 C 0.02786 0.00296 0.89670
 C262 C 0.03203 -0.01823 0.92610
 C263 C 0.05533 -0.04147 0.92367
 C264 C 0.07569 -0.04125 0.89456
 H265 H 0.15492 -0.04621 0.79413
 H266 H 0.10804 0.04298 0.77448
 H267 H 0.00994 0.02103 0.89633
 H268 H 0.05949 -0.05842 0.94520
 H269 H 0.12074 -0.05699 0.84424
 H270 H 0.09462 -0.05826 0.89466
 C271 C 0.58295 0.46021 0.34397
 C272 C 0.61124 0.47444 0.35415
 C273 C 0.63092 0.48812 0.32832
 C274 C 0.62255 0.48793 0.29210
 C275 C 0.59561 0.47020 0.28324
 N276 N 0.57601 0.45829 0.30895
 C277 C 0.55824 0.45384 0.37047
 N278 N 0.53032 0.46926 0.36587
 C279 C 0.50999 0.47278 0.39299
 C280 C 0.51835 0.46192 0.42760
 C281 C 0.54431 0.44147 0.43149
 C282 C 0.56498 0.43818 0.40316
 H283 H 0.65258 0.49910 0.33691
 H284 H 0.58952 0.46679 0.25583
 H285 H 0.48898 0.48677 0.38783
 H286 H 0.55058 0.43074 0.45712
 H287 H 0.61716 0.47657 0.38189
 H288 H 0.58701 0.42550 0.40736
 C289 C 0.59715 0.54141 0.16854
 C290 C 0.62986 0.53574 0.16850
 C291 C 0.64484 0.52396 0.19921
 C292 C 0.62749 0.51705 0.23032
 C293 C 0.59553 0.52703 0.23032
 N294 N 0.58113 0.53779 0.19965
 C295 C 0.57993 0.54611 0.13432
 N296 N 0.59415 0.53591 0.10496
 C297 C 0.57889 0.53365 0.07365
 C298 C 0.54662 0.54168 0.06991
 C299 C 0.53175 0.55408 0.09945
 C300 C 0.54824 0.55607 0.13179
 H301 H 0.66992 0.51885 0.19824
 H302 H 0.58169 0.52558 0.25429
 H303 H 0.59153 0.52224 0.05328
 H304 H 0.50680 0.55993 0.09844
 H305 H 0.64359 0.53902 0.14448
 H306 H 0.53596 0.56384 0.15485
 C307 C 0.09014 1.03119 0.65263
 C308 C 0.12311 1.03420 0.64959
 C309 C 0.14241 1.02508 0.67837
 C310 C 0.12919 1.01377 0.71075
 C311 C 0.09609 1.00966 0.71173
 N312 N 0.07791 1.01850 0.68330
 C313 C 0.06827 1.03646 0.62228
 N314 N 0.03932 1.02270 0.62481
 C315 C 0.01983 1.02031 0.59652
 C316 C 0.03000 1.03059 0.56254
 C317 C 0.05753 1.04908 0.56026
 C318 C 0.07699 1.05184 0.59005
 H319 H 0.16786 1.02732 0.67570
 H320 H 0.08438 0.99875 0.73445
 H321 H -0.00214 1.00763 0.60051
 H322 H 0.06573 1.05881 0.53498
 H323 H 0.13418 1.04246 0.62515
 H324 H 0.09919 1.06432 0.58714
 C325 C -0.09256 0.47624 0.64903
 C326 C -0.08191 0.46772 0.68331
 C327 C -0.09822 0.47844 0.71248
 C328 C -0.12510 0.49815 0.70811
 C329 C -0.13463 0.50583 0.67280
 N330 N -0.11852 0.49491 0.64510
 C331 C -0.07654 0.46716 0.61630
 N332 N -0.09139 0.47514 0.58524
 C333 C -0.07712 0.47394 0.55347
 C334 C -0.04501 0.46538 0.55124
 C335 C -0.03009 0.45381 0.58271
 C336 C -0.04567 0.45484 0.61535
 H337 H -0.08958 0.47047 0.73820
 H338 H -0.15598 0.51909 0.66696
 H339 H -0.09005 0.48395 0.53106
 H340 H -0.00536 0.44711 0.58272
 H341 H -0.06165 0.45258 0.68792
 H342 H -0.03267 0.44831 0.63932
 C343 C 0.40894 -0.03284 0.16441
 C344 C 0.42511 -0.03185 0.19697
 C345 C 0.40873 -0.02343 0.22723
 C346 C 0.37639 -0.01505 0.22510
 C347 C 0.36088 -0.01883 0.19243
 N348 N 0.37733 -0.02670 0.16346
 C349 C 0.42524 -0.03602 0.13008
 N350 N 0.41012 -0.02413 0.10059
 C351 C 0.42416 -0.02118 0.06852
 C352 C 0.45604 -0.02996 0.06431
 C353 C 0.47149 -0.04455 0.09388
 C354 C 0.45623 -0.04758 0.12681
 H355 H 0.42159 -0.02348 0.25207
 H356 H 0.33571 -0.01443 0.18968
 H357 H 0.41106 -0.00902 0.04743
 H358 H 0.49607 -0.05152 0.09231
 H359 H 0.45026 -0.03642 0.19908
 H360 H 0.46906 -0.05770 0.14946
 C361 C 0.34242 0.45388 0.02583
 C362 C 0.32728 0.45571 -0.00735
 C363 C 0.30094 0.43688 -0.01327
 C364 C 0.28953 0.41572 0.01353
 C365 C 0.30377 0.41714 0.04745
 N366 N 0.33002 0.43504 0.05228
 C367 C 0.37329 0.46941 0.03109
 N368 N 0.39695 0.45327 0.04855
 C369 C 0.42741 0.46378 0.04871
 C370 C 0.43571 0.49143 0.02921
 C371 C 0.41088 0.51013 0.01469
 C372 C 0.37981 0.49900 0.01517
 H373 H 0.29027 0.43767 -0.03946
 H374 H 0.29470 0.40390 0.07022
 H375 H 0.44516 0.44960 0.06250
 H376 H 0.41557 0.53228 0.00053
 H377 H 0.33668 0.47025 -0.02911
 H378 H 0.36134 0.51276 0.00184
 C379 C -0.16838 0.95196 0.49367
 C380 C -0.19261 0.96239 0.47048
 C381 C -0.21927 0.94366 0.46630
 C382 C -0.22282 0.91508 0.48631
 C383 C -0.19741 0.90532 0.50847
 N384 N -0.17155 0.92381 0.51176
 C385 C -0.13824 0.96896 0.49741
 N386 N -0.11937 0.96063 0.52560
 C387 C -0.08904 0.97063 0.52824
 C388 C -0.07542 0.98886 0.50046
 C389 C -0.09537 1.00047 0.47293
 C390 C -0.12670 0.99026 0.47103
 H391 H -0.23698 0.95157 0.44707
 H392 H -0.19780 0.88274 0.52276
 H393 H -0.07536 0.96284 0.55120
 H394 H -0.08618 1.01525 0.45126
 H395 H -0.19112 0.98452 0.45540
 H396 H -0.14061 0.99731 0.44788
 C397 C -0.17074 0.04563 1.00076
 C398 C -0.18138 0.04987 1.03519
 C399 C -0.20789 0.06816 1.04050
 C400 C -0.22379 0.08398 1.01192
 C401 C -0.21433 0.07583 0.97757
 N402 N -0.18788 0.05818 0.97294
 C403 C -0.13991 0.03012 0.99492
 N404 N -0.12145 0.03988 0.96702
 C405 C -0.09061 0.03078 0.96435
 C406 C -0.07614 0.01282 0.99221
 C407 C -0.09596 -0.00030 1.01878
 C408 C -0.12765 0.00811 1.02013
 H409 H -0.21502 0.06995 1.06750
 H410 H -0.22751 0.08376 0.95422
 H411 H -0.07677 0.03987 0.94212
 H412 H -0.08687 -0.01615 1.03965
 H413 H -0.16866 0.04039 1.05827
 H414 H -0.14196 -0.00165 1.04162
 C415 C 0.32501 0.56297 0.47222
 C416 C 0.29554 0.55003 0.46339
 C417 C 0.26771 0.56671 0.47063
 C418 C 0.26924 0.59467 0.48923
 C419 C 0.29950 0.60832 0.49227
 N420 N 0.32572 0.59215 0.48478
 C421 C 0.35590 0.54671 0.47193
 N422 N 0.37994 0.56184 0.48778
 C423 C 0.40921 0.54989 0.49196
 C424 C 0.41662 0.52033 0.47964
 C425 C 0.39230 0.50385 0.46274
 C426 C 0.36169 0.51692 0.45894
 H427 H 0.24512 0.55724 0.46265
 H428 H 0.30284 0.63153 0.50189
 H429 H 0.42609 0.56353 0.50623
 H430 H 0.39679 0.48089 0.45288
 H431 H 0.29383 0.52739 0.45184
 H432 H 0.34314 0.50387 0.44634
 C433 C 0.15611 0.56143 0.53548
 C434 C 0.15818 0.59381 0.53947
 C435 C 0.18584 0.60947 0.53020
 C436 C 0.21251 0.59305 0.51874
 C437 C 0.21127 0.55992 0.52274
 N438 N 0.18299 0.54512 0.52899
 C439 C 0.12454 0.54756 0.52930
 N440 N 0.11631 0.51803 0.54151
 C441 C 0.08721 0.50541 0.53425
 C442 C 0.06500 0.52263 0.51313
 C443 C 0.07416 0.55268 0.50000
 C444 C 0.10329 0.56498 0.50788
 H445 H 0.18569 0.63486 0.52957
 H446 H 0.23191 0.54560 0.51942
 H447 H 0.08160 0.48198 0.54456
 H448 H 0.05921 0.56694 0.48241
 H449 H 0.13747 0.60736 0.54583
 H450 H 0.10947 0.58784 0.49619
 C451 C 0.65932 0.05985 0.03859
 C452 C 0.66535 0.08835 0.05412
 C453 C 0.69466 0.10285 0.04942
 C454 C 0.71865 0.08904 0.02945
 C455 C 0.71180 0.05944 0.01585
 N456 N 0.68270 0.04605 0.02033
 C457 C 0.62641 0.04884 0.03504
 N458 N 0.61782 0.01875 0.04427
 C459 C 0.58766 0.00808 0.03909
 C460 C 0.56456 0.02788 0.02277
 C461 C 0.57390 0.05865 0.01238
 C462 C 0.60424 0.06925 0.01906
 H463 H 0.69770 0.12604 0.05932
 H464 H 0.72877 0.04764 -0.00010
 H465 H 0.58203 -0.01602 0.04679
 H466 H 0.55837 0.07447 -0.00259
 H467 H 0.64678 0.10027 0.06784
 H468 H 0.61081 0.09290 0.01023
 C469 C 0.65875 0.93829 0.46024
 C470 C 0.66528 0.91013 0.44433
 C471 C 0.69481 0.89618 0.44944
 C472 C 0.71839 0.91056 0.46971
 C473 C 0.71052 0.93902 0.48506
 N474 N 0.68139 0.95193 0.48001
 C475 C 0.62601 0.94870 0.46350
 N476 N 0.61759 0.97905 0.45566
 C477 C 0.58810 0.98994 0.46291
 C478 C 0.56595 0.97016 0.48050
 C479 C 0.57514 0.93906 0.48937
 C480 C 0.60457 0.92815 0.48018
 H481 H 0.69870 0.87345 0.43875
 H482 H 0.72689 0.95030 0.50253
 H483 H 0.58252 1.01424 0.45619
 H484 H 0.56047 0.92330 0.50533
 H485 H 0.64702 0.89815 0.42987
 H486 H 0.61134 0.90436 0.48824
 C487 C 0.17783 0.44875 0.97990
 C488 C 0.19203 0.43316 0.95245
 C489 C 0.22026 0.41663 0.95907
 C490 C 0.23391 0.41488 0.99342
 C491 C 0.22077 0.43444 1.01854
 N492 N 0.19286 0.44946 1.01180
 C493 C 0.14400 0.45691 0.97804
 N494 N 0.13314 0.48368 0.96090
 C495 C 0.10188 0.49209 0.96171
 C496 C 0.07984 0.47321 0.98085
 C497 C 0.09121 0.44520 0.99770
 C498 C 0.12291 0.43715 0.99640
 H499 H 0.23047 0.40451 0.93746
 H500 H 0.23125 0.43541 1.04471
 H501 H 0.09450 0.51393 0.94843
 H502 H 0.07606 0.42995 1.01374
 H503 H 0.18037 0.43208 0.92689
 H504 H 0.13114 0.41592 1.01049
 C505 C -0.00895 0.33614 0.43109
 C506 C -0.01779 0.30774 0.44840
 C507 C -0.01477 0.27975 0.43064
 C508 C -0.00080 0.27979 0.39672
 C509 C 0.00592 0.30928 0.38005
 N510 N 0.00200 0.33597 0.39738
 C511 C -0.01291 0.36683 0.44686
 N512 N -0.00337 0.37199 0.48071
 C513 C -0.00298 0.40142 0.49358
 C514 C -0.01196 0.42758 0.47164
 C515 C -0.02287 0.42196 0.43717
 C516 C -0.02335 0.39198 0.42491
 H517 H -0.02333 0.25822 0.44351
 H518 H 0.01455 0.31121 0.35314
 H519 H 0.00520 0.40448 0.52042
 H520 H -0.03096 0.44072 0.41906
 H521 H -0.02786 0.30737 0.47471
 H522 H -0.03120 0.38855 0.39798
 C523 C 0.48905 -0.15929 -0.05628
 C524 C 0.46218 -0.17185 -0.07237
 C525 C 0.46514 -0.19797 -0.09276
 C526 C 0.49507 -0.21149 -0.09825
 C527 C 0.52060 -0.20039 -0.07786
 N528 N 0.51726 -0.17444 -0.05852
 C529 C 0.48757 -0.12796 -0.04116
 N530 N 0.50383 -0.12141 -0.01104
 C531 C 0.50394 -0.09210 0.00211
 C532 C 0.48775 -0.06720 -0.01592
 C533 C 0.47157 -0.07386 -0.04742
 C534 C 0.47099 -0.10394 -0.05962
 H535 H 0.44382 -0.20704 -0.10455
 H536 H 0.54366 -0.21134 -0.07905
 H537 H 0.51737 -0.08810 0.02598
 H538 H 0.45950 -0.05570 -0.06329
 H539 H 0.43917 -0.16098 -0.06998
 H540 H 0.45871 -0.10804 -0.08425
 C541 C 0.01225 -0.17178 1.03705
 C542 C 0.03746 -0.18349 1.05817
 C543 C 0.03358 -0.21101 1.07910
 C544 C 0.00421 -0.22698 1.08055
 C545 C -0.01915 -0.21619 1.05596
 N546 N -0.01503 -0.18890 1.03616
 C547 C 0.01323 -0.13990 1.01892
 N548 N -0.01457 -0.12593 1.00887
 C549 C -0.01640 -0.09527 0.99737
 C550 C 0.01070 -0.07578 0.99713
 C551 C 0.03991 -0.09059 1.00421
 C552 C 0.04136 -0.12242 1.01477
 H553 H 0.05390 -0.21924 1.09439
 H554 H -0.04143 -0.22860 1.05404
 H555 H -0.03958 -0.08570 0.99099
 H556 H 0.06180 -0.07785 1.00254
 H557 H 0.05975 -0.17121 1.05994
 H558 H 0.06434 -0.13262 1.02054
 C559 C 0.50518 0.32667 0.54915
 C560 C 0.48023 0.30523 0.54660
 C561 C 0.47982 0.27829 0.56940
 C562 C 0.50393 0.27275 0.59520
 C563 C 0.53029 0.29315 0.59328
 N564 N 0.52962 0.31957 0.57175
 C565 C 0.50309 0.35904 0.53349
 N566 N 0.51052 0.38251 0.55496
 C567 C 0.50802 0.41317 0.54453
 C568 C 0.49817 0.42241 0.50985
 C569 C 0.49038 0.39846 0.48691
 C570 C 0.49250 0.36669 0.49876
 H571 H 0.45957 0.26274 0.56857
 H572 H 0.55113 0.28914 0.60952
 H573 H 0.51272 0.43001 0.56425
 H574 H 0.48207 0.40427 0.46021
 H575 H 0.46026 0.31029 0.52911
 H576 H 0.48608 0.34844 0.48111
 C577 C 0.49459 1.15916 0.56536
 C578 C 0.46926 1.16741 0.58673
 C579 C 0.47024 1.19535 0.60436
 C580 C 0.49719 1.21500 0.60238
 C581 C 0.52103 1.20676 0.57828
 N582 N 0.51943 1.17935 0.56115
 C583 C 0.49522 1.12766 0.55027
 N584 N 0.48244 1.10319 0.56957
 C585 C 0.48247 1.07344 0.55854
 C586 C 0.49523 1.06651 0.52541
 C587 C 0.50866 1.09148 0.50489
 C588 C 0.50901 1.12203 0.51742
 H589 H 0.44964 1.20101 0.61951
 H590 H 0.54159 1.22166 0.57431
 H591 H 0.47213 1.05531 0.57581
 H592 H 0.51920 1.08737 0.47949
 H593 H 0.44879 1.15222 0.58991
 H594 H 0.51958 1.14102 0.50152
 C595 C -0.00664 0.66156 1.04101
 C596 C -0.03362 0.67074 1.05923
 C597 C -0.03289 0.69770 1.07864
 C598 C -0.00482 0.71545 1.08148
 C599 C 0.02061 0.70707 1.05954
 N600 N 0.01943 0.68041 1.04095
 C601 C -0.00563 0.62998 1.02598
 N602 N -0.02275 0.60666 1.04238
 C603 C -0.02183 0.57656 1.03268
 C604 C -0.00308 0.56772 1.00403
 C605 C 0.01469 0.59155 0.98627
 C606 C 0.01370 0.62263 0.99735
 H607 H -0.05449 0.70401 1.09165
 H608 H 0.04215 0.72087 1.05890
 H609 H -0.03500 0.55943 1.04860
 H610 H 0.03020 0.58599 0.96475
 H611 H -0.05506 0.65676 1.05906
 H612 H 0.02804 0.64057 0.98401
 C613 C 0.51409 0.67656 -0.05598
 C614 C 0.54006 0.69025 -0.07362
 C615 C 0.53609 0.71806 -0.09396
 C616 C 0.50589 0.73199 -0.09817
 C617 C 0.48158 0.71948 -0.07614
 N618 N 0.48591 0.69204 -0.05671
 C619 C 0.51627 0.64433 -0.03992
 N620 N 0.50097 0.63616 -0.00917
 C621 C 0.50101 0.60611 0.00500
 C622 C 0.51623 0.58207 -0.01262
 C623 C 0.53169 0.59033 -0.04461
 C624 C 0.53220 0.62122 -0.05789
 H625 H 0.55684 0.72816 -0.10664
 H626 H 0.45857 0.73063 -0.07607
 H627 H 0.48829 0.60092 0.02936
 H628 H 0.54315 0.57284 -0.05990
 H629 H 0.56315 0.67920 -0.07225
 H630 H 0.54378 0.62671 -0.08293
 C631 C 0.02274 1.16129 0.43376
 C632 C 0.02847 1.18905 0.45111
 C633 C 0.02318 1.21796 0.43292
 C634 C 0.01048 1.21924 0.39817
 C635 C 0.00729 1.19060 0.38144
 N636 N 0.01305 1.16302 0.39940
 C637 C 0.02620 1.12982 0.45097
 N638 N 0.03159 1.10565 0.42974
 C639 C 0.02982 1.07528 0.44157
 C640 C 0.02111 1.06749 0.47675
 C641 C 0.01627 1.09217 0.49949
 C642 C 0.01913 1.12338 0.48681
 H643 H 0.02951 1.23904 0.44603
 H644 H -0.00009 1.19011 0.35398
 H645 H 0.03299 1.05754 0.42248
 H646 H 0.00855 1.08749 0.52650
 H647 H 0.03754 1.18846 0.47802
 H648 H 0.01363 1.14204 0.50417
 C649 C 0.77911 0.67455 0.91623
 C650 C 0.74890 0.67288 0.93109
 C651 C 0.74291 0.65123 0.95894
 C652 C 0.76663 0.63017 0.97147
 C653 C 0.79765 0.63554 0.95834
 N654 N 0.80277 0.65643 0.93058
 C655 C 0.78254 0.68945 0.88075
 N656 N 0.76777 0.67535 0.85387
 C657 C 0.76503 0.68912 0.82106
 C658 C 0.77674 0.71966 0.81363
 C659 C 0.79356 0.73411 0.84077
 C660 C 0.79655 0.71897 0.87450
 H661 H 0.71907 0.64951 0.96925
 H662 H 0.81780 0.62263 0.96905
 H663 H 0.75130 0.67688 0.80183
 H664 H 0.80256 0.75776 0.83665
 H665 H 0.72963 0.68691 0.91976
 H666 H 0.80799 0.73082 0.89586
 C667 C 0.28498 0.15708 0.43727
 C668 C 0.28195 0.17073 0.47008
 C669 C 0.27178 0.15253 0.49956
 C670 C 0.26291 0.12091 0.49630
 C671 C 0.26929 0.10766 0.46351
 N672 N 0.27927 0.12586 0.43517
 C673 C 0.29029 0.17683 0.40450
 N674 N 0.27992 0.20697 0.40309
 C675 C 0.27857 0.22477 0.37237
 C676 C 0.28682 0.21203 0.33991
 C677 C 0.30134 0.18240 0.34164
 C678 C 0.30233 0.16436 0.37364
 H679 H 0.27081 0.16353 0.52470
 H680 H 0.26508 0.08297 0.46012
 H681 H 0.26908 0.24823 0.37334
 H682 H 0.31058 0.17240 0.31822
 H683 H 0.28705 0.19537 0.47282
 H684 H 0.31145 0.14065 0.37403
 C685 C 0.70643 0.33865 0.40545
 C686 C 0.72003 0.36780 0.39624
 C687 C 0.73240 0.38598 0.42272
 C688 C 0.73158 0.37527 0.45866
 C689 C 0.71439 0.34745 0.46666
 N690 N 0.70360 0.32952 0.44031
 C691 C 0.70020 0.31619 0.37775
 N692 N 0.69067 0.32660 0.34470
 C693 C 0.69301 0.30842 0.31620
 C694 C 0.70895 0.27957 0.31954
 C695 C 0.71454 0.26686 0.35415
 C696 C 0.71002 0.28506 0.38330
 H697 H 0.74292 0.40835 0.41488
 H698 H 0.71031 0.33946 0.49385
 H699 H 0.68532 0.31797 0.29056
 H700 H 0.72515 0.24395 0.35881
 H701 H 0.72255 0.37575 0.36872
 H702 H 0.71745 0.27598 0.40932
 C703 C 0.21968 0.83695 0.89705
 C704 C 0.23539 0.82166 0.92574
 C705 C 0.24599 0.83901 0.95390
 C706 C 0.23951 0.87141 0.95451
 C707 C 0.22510 0.88579 0.92409
 N708 N 0.21575 0.86853 0.89672
 C709 C 0.21338 0.82103 0.86417
 N710 N 0.22070 0.83693 0.83346
 C711 C 0.22177 0.82300 0.80218
 C712 C 0.21568 0.79064 0.80031
 C713 C 0.20505 0.77441 0.83137
 C714 C 0.20429 0.78944 0.86350
 H715 H 0.25974 0.82694 0.97453
 H716 H 0.22090 0.91083 0.92240
 H717 H 0.23143 0.83679 0.78028
 H718 H 0.20034 0.74946 0.83166
 H719 H 0.24096 0.79691 0.92553
 H720 H 0.19826 0.77620 0.88771
 C721 C 0.27639 0.83878 0.08203
 C722 C 0.29243 0.86643 0.07230
 C723 C 0.28299 0.88382 0.04194
 C724 C 0.25795 0.87343 0.02031
 C725 C 0.24090 0.84686 0.03319
 N726 N 0.25074 0.83016 0.06282
 C727 C 0.28276 0.82263 0.11647
 N728 N 0.28986 0.79149 0.11898
 C729 C 0.29012 0.77481 0.15072
 C730 C 0.28027 0.78894 0.18178
 C731 C 0.27398 0.82144 0.17906
 C732 C 0.27618 0.83834 0.14696
 H733 H 0.29530 0.90563 0.03581
 H734 H 0.21995 0.83912 0.01945
 H735 H 0.29466 0.74985 0.15094
 H736 H 0.26372 0.83370 0.20037
 H737 H 0.31162 0.87483 0.08854
 H738 H 0.26942 0.86286 0.14535
 C739 C 0.77796 0.34490 0.58393
 C740 C 0.77872 0.32981 0.55173
 C741 C 0.76924 0.34623 0.52037
 C742 C 0.75778 0.37728 0.52111
 C743 C 0.76123 0.39228 0.55333
 N744 N 0.77001 0.37579 0.58340
 C745 C 0.78077 0.32791 0.61903
 N746 N 0.76592 0.34084 0.64649
 C747 C 0.76335 0.32614 0.67886
 C748 C 0.77625 0.29601 0.68580
 C749 C 0.79301 0.28258 0.65824
 C750 C 0.79528 0.29840 0.62479
 H751 H 0.77015 0.33424 0.49583
 H752 H 0.75512 0.41677 0.55501
 H753 H 0.74945 0.33756 0.69838
 H754 H 0.80301 0.25930 0.66196
 H755 H 0.78508 0.30533 0.55078
 H756 H 0.80755 0.28730 0.60370
 C757 C 0.21526 0.15402 0.61406
 C758 C 0.23149 0.12595 0.62203
 C759 C 0.24244 0.10830 0.59453
 C760 C 0.23754 0.11856 0.55881
 C761 C 0.21769 0.14487 0.55249
 N762 N 0.20850 0.16249 0.57966
 C763 C 0.21066 0.17671 0.64171
 N764 N 0.22187 0.20631 0.63570
 C765 C 0.22550 0.22645 0.66217
 C766 C 0.21898 0.21660 0.69751
 C767 C 0.20317 0.18781 0.70322
 C768 C 0.19979 0.16739 0.67560
 H769 H 0.25520 0.08687 0.60142
 H770 H 0.21093 0.15237 0.52572
 H771 H 0.23600 0.24913 0.65575
 H772 H 0.19520 0.18008 0.72927
 H773 H 0.23725 0.11865 0.64919
 H774 H 0.19019 0.14411 0.68095
 C775 C 0.72727 0.65897 0.08734
 C776 C 0.70467 0.64271 0.06853
 C777 C 0.71436 0.62470 0.04080
 C778 C 0.74689 0.62201 0.03210
 C779 C 0.76828 0.64078 0.05053
 N780 N 0.75825 0.65776 0.07784
 C781 C 0.71891 0.67362 0.12023
 N782 N 0.70756 0.70349 0.12003
 C783 C 0.70537 0.71940 0.15041
 C784 C 0.71675 0.70580 0.18280
 C785 C 0.72628 0.67408 0.18307
 C786 C 0.72713 0.65806 0.15211
 H787 H 0.69590 0.61348 0.02602
 H788 H 0.79309 0.64151 0.04351
 H789 H 0.69799 0.74370 0.14852
 H790 H 0.73693 0.66229 0.20603
 H791 H 0.67988 0.64345 0.07567
 H792 H 0.73668 0.63447 0.15262
 C793 C 0.19893 0.58343 0.21996
 C794 C 0.17642 0.57134 0.19706
 C795 C 0.16246 0.54244 0.20569
 C796 C 0.17115 0.52508 0.23708
 C797 C 0.19418 0.53841 0.25907
 N798 N 0.20713 0.56681 0.25019
 C799 C 0.20701 0.61670 0.21680
 N800 N 0.23708 0.62644 0.20960
 C801 C 0.24570 0.65713 0.21126
 C802 C 0.22383 0.67949 0.22237
 C803 C 0.19281 0.66917 0.22992
 C804 C 0.18424 0.63819 0.22641
 H805 H 0.14359 0.53484 0.18861
 H806 H 0.20082 0.52682 0.28414
 H807 H 0.27004 0.66360 0.20584
 H808 H 0.17551 0.68408 0.24143
 H809 H 0.16831 0.58506 0.17386
 H810 H 0.16055 0.63056 0.23364
 C811 C 0.69512 0.09306 0.73347
 C812 C 0.71062 0.06732 0.74983
 C813 C 0.69394 0.03942 0.75623
 C814 C 0.66217 0.03650 0.74465
 C815 C 0.64791 0.06321 0.72802
 N816 N 0.66430 0.09041 0.72347
 C817 C 0.70848 0.12449 0.73527
 N818 N 0.69184 0.14522 0.75364
 C819 C 0.70204 0.17473 0.75785
 C820 C 0.73039 0.18567 0.74211
 C821 C 0.74829 0.16439 0.72320
 C822 C 0.73752 0.13350 0.72006
 H823 H 0.70571 0.02080 0.77161
 H824 H 0.62330 0.06271 0.71983
 H825 H 0.68760 0.18943 0.77365
 H826 H 0.77048 0.17151 0.71106
 H827 H 0.73455 0.06953 0.75998
 H828 H 0.75133 0.11706 0.70562
 C829 C 0.79722 0.08403 0.27421
 C830 C 0.82865 0.07877 0.28493
 C831 C 0.84283 0.05013 0.27913
 C832 C 0.82595 0.02602 0.26291
 C833 C 0.79386 0.03205 0.25411
 N834 N 0.78080 0.06058 0.25928
 C835 C 0.78304 0.11556 0.27518
 N836 N 0.76292 0.12562 0.24869
 C837 C 0.75243 0.15575 0.24541
 C838 C 0.76327 0.17805 0.26895
 C839 C 0.78186 0.16734 0.29801
 C840 C 0.79188 0.13629 0.30115
 H841 H 0.86774 0.04749 0.28560
 H842 H 0.77913 0.01484 0.24211
 H843 H 0.73720 0.16255 0.22320
 H844 H 0.78930 0.18293 0.31809
 H845 H 0.84289 0.09718 0.29573
 H846 H 0.80689 0.12879 0.32332
 C847 C 0.31602 0.59286 0.78002
 C848 C 0.29738 0.56570 0.78354
 C849 C 0.31150 0.53630 0.77893
 C850 C 0.34355 0.53418 0.76836
 C851 C 0.36162 0.56179 0.77064
 N852 N 0.34764 0.58963 0.77534
 C853 C 0.30292 0.62517 0.77803
 N854 N 0.27239 0.63181 0.78681
 C855 C 0.26002 0.66139 0.78191
 C856 C 0.27841 0.68594 0.76636
 C857 C 0.30970 0.67881 0.75720
 C858 C 0.32204 0.64924 0.76364
 H859 H 0.29730 0.51569 0.78459
 H860 H 0.38697 0.56172 0.76785
 H861 H 0.23557 0.66538 0.78879
 H862 H 0.32449 0.69527 0.74241
 H863 H 0.27234 0.56714 0.78920
 H864 H 0.34605 0.64502 0.75517
 C865 C 0.30922 0.41757 0.73730
 C866 C 0.29248 0.44594 0.73408
 C867 C 0.30870 0.47426 0.73928
 C868 C 0.34104 0.47430 0.74997
 C869 C 0.35687 0.44535 0.74826
 N870 N 0.34089 0.41862 0.74307
 C871 C 0.29507 0.38582 0.73730
 N872 N 0.31387 0.36233 0.75054
 C873 C 0.30458 0.33218 0.75364
 C874 C 0.27410 0.32319 0.74287
 C875 C 0.25387 0.34698 0.72867
 C876 C 0.26423 0.37847 0.72591
 H877 H 0.29595 0.49580 0.73351
 H878 H 0.38209 0.44333 0.75120
 H879 H 0.32086 0.31586 0.76658
 H880 H 0.22999 0.34138 0.72048
 H881 H 0.26742 0.44641 0.72790
 H882 H 0.24840 0.39650 0.71521
 C883 C 0.79142 0.91272 0.22634
 C884 C 0.78896 0.93934 0.20353
 C885 C 0.80345 0.96721 0.21336
 C886 C 0.82047 0.96863 0.24584
 C887 C 0.81893 0.94175 0.26906
 N888 N 0.80549 0.91503 0.25846
 C889 C 0.78428 0.88098 0.21553
 N890 N 0.80614 0.85876 0.22451
 C891 C 0.80018 0.82781 0.22321
 C892 C 0.76982 0.81713 0.21402
 C893 C 0.74740 0.83981 0.20203
 C894 C 0.75461 0.87193 0.20268
 H895 H 0.80336 0.98711 0.19443
 H896 H 0.83008 0.94042 0.29471
 H897 H 0.81808 0.81222 0.23423
 H898 H 0.72357 0.83294 0.19499
 H899 H 0.77811 0.93804 0.17757
 H900 H 0.73654 0.88926 0.19605
 C901 C 0.69371 0.92083 0.77415
 C902 C 0.66888 0.92785 0.79672
 C903 C 0.65281 0.95626 0.79154
 C904 C 0.66180 0.97809 0.76417
 C905 C 0.68716 0.96970 0.74236
 N906 N 0.70202 0.94173 0.74767
 C907 C 0.70406 0.88843 0.77180
 N908 N 0.73235 0.87820 0.78547
 C909 C 0.74295 0.84851 0.78082
 C910 C 0.72497 0.82783 0.76078
 C911 C 0.69602 0.83884 0.74625
 C912 C 0.68547 0.86876 0.75198
 H913 H 0.63229 0.96011 0.80773
 H914 H 0.69422 0.98481 0.71997
 H915 H 0.76546 0.84128 0.79239
 H916 H 0.68129 0.82450 0.73001
 H917 H 0.66063 0.91060 0.81655
 H918 H 0.66325 0.87685 0.74025
 C919 C 0.20793 0.41327 0.28120
 C920 C 0.22387 0.43929 0.26614
 C921 C 0.20687 0.46667 0.25723
 C922 C 0.17412 0.46856 0.26453
 C923 C 0.15973 0.44197 0.28111
 N924 N 0.17653 0.41539 0.28819
 C925 C 0.22147 0.38185 0.28029
 N926 N 0.20537 0.36110 0.26108
 C927 C 0.21504 0.33127 0.25837
 C928 C 0.24217 0.31992 0.27672
 C929 C 0.25962 0.34122 0.29646
 C930 C 0.24946 0.37248 0.29803
 H931 H 0.21915 0.48531 0.24263
 H932 H 0.13458 0.44179 0.28650
 H933 H 0.20084 0.31646 0.24217
 H934 H 0.28090 0.33379 0.31064
 H935 H 0.24848 0.43753 0.25853
 H936 H 0.26276 0.38884 0.31337
 C937 C 0.08493 0.23921 0.81391
 C938 C 0.06669 0.26653 0.81037
 C939 C 0.03924 0.26903 0.83064
 C940 C 0.02971 0.24446 0.85477
 C941 C 0.04725 0.21627 0.85426
 N942 N 0.07448 0.21488 0.83530
 C943 C 0.11747 0.23833 0.79984
 N944 N 0.14165 0.23437 0.82345
 C945 C 0.17246 0.23517 0.81358
 C946 C 0.18095 0.23931 0.77757
 C947 C 0.15618 0.24320 0.75258
 C948 C 0.12441 0.24305 0.76366
 H949 H 0.02615 0.29085 0.82878
 H950 H 0.04010 0.19537 0.86928
 H951 H 0.19020 0.23306 0.83433
 H952 H 0.16135 0.24733 0.72471
 H953 H 0.07459 0.28639 0.79377
 H954 H 0.10553 0.24670 0.74433
 C955 C 0.58259 0.74405 0.30648
 C956 C 0.57281 0.71831 0.32803
 C957 C 0.54527 0.72014 0.34794
 C958 C 0.52761 0.74824 0.34816
 C959 C 0.53714 0.77267 0.32374
 N960 N 0.56416 0.77025 0.30436
 C961 C 0.61401 0.74338 0.28905
 N962 N 0.63796 0.72777 0.30637
 C963 C 0.66779 0.72676 0.29348
 C964 C 0.67541 0.74150 0.26039
 C965 C 0.65091 0.75772 0.24180
 C966 C 0.62027 0.75897 0.25621
 H967 H 0.53824 0.69913 0.36287
 H968 H 0.52355 0.79416 0.32115
 H969 H 0.68561 0.71467 0.30964
 H970 H 0.65559 0.77011 0.21668
 H971 H 0.58649 0.69682 0.32956
 H972 H 0.60174 0.77186 0.24190
 C973 C 0.58251 0.26572 0.18889
 C974 C 0.55401 0.26129 0.20739
 C975 C 0.52579 0.25697 0.18856
 C976 C 0.52568 0.25599 0.15116
 C977 C 0.55447 0.26334 0.13396
 N978 N 0.58153 0.26723 0.15283
 C979 C 0.61411 0.26757 0.20632
 N980 N 0.63959 0.27116 0.18476
 C981 C 0.66980 0.27035 0.19696
 C982 C 0.67636 0.26543 0.23340
 C983 C 0.65047 0.26223 0.25647
 C984 C 0.61934 0.26339 0.24314
 H985 H 0.50430 0.25483 0.20377
 H986 H 0.55563 0.26474 0.10531
 H987 H 0.68852 0.27220 0.17760
 H988 H 0.65418 0.25759 0.28462
 H989 H 0.55313 0.26109 0.23597
 H990 H 0.60005 0.25998 0.26155
 C991 C 0.08636 0.74557 0.67337
 C992 C 0.05966 0.73543 0.69257
 C993 C 0.03029 0.73375 0.67520
 C994 C 0.02725 0.74294 0.63884
 C995 C 0.05538 0.74991 0.62031
 N996 N 0.08340 0.75171 0.63781
 C997 C 0.11767 0.75031 0.69043
 N998 N 0.12461 0.73792 0.72361
 C999 C 0.15390 0.74094 0.73878
 C1000 C 0.17824 0.75701 0.72018
 C1001 C 0.17082 0.77056 0.68640
 C1002 C 0.14093 0.76741 0.67172
 H1003 H 0.01013 0.72545 0.69045
 H1004 H 0.05481 0.75533 0.59202
 H1005 H 0.15842 0.72996 0.76475
 H1006 H 0.18831 0.78333 0.67061
 H1007 H 0.06132 0.72942 0.72071
 H1008 H 0.13631 0.77800 0.64556
 C1009 C 0.91123 0.74628 0.68445
 C1010 C 0.93725 0.76528 0.69223
 C1011 C 0.96428 0.76444 0.67103
 C1012 C 0.96618 0.74396 0.64280
 C1013 C 0.93874 0.72669 0.63518
 N1014 N 0.91285 0.72808 0.65596
 C1015 C 0.88068 0.74659 0.70347
 N1016 N 0.85635 0.73107 0.68855
 C1017 C 0.82668 0.73101 0.70150
 C1018 C 0.81940 0.74750 0.73178
 C1019 C 0.84430 0.76301 0.74860
 C1020 C 0.87506 0.76259 0.73458
 H1021 H 0.98384 0.77987 0.67672
 H1022 H 0.93724 0.71256 0.61226
 H1023 H 0.80871 0.71868 0.68712
 H1024 H 0.83985 0.77622 0.77181
 H1025 H 0.93672 0.78115 0.71365
 H1026 H 0.89373 0.77504 0.74769
 C1027 C 0.41746 0.23167 0.20077
 C1028 C 0.44303 0.21078 0.20118
 C1029 C 0.46723 0.21561 0.17622
 C1030 C 0.46633 0.24164 0.15156
 C1031 C 0.43785 0.25890 0.14941
 N1032 N 0.41523 0.25427 0.17434
 C1033 C 0.39284 0.23108 0.22820
 N1034 N 0.38164 0.25906 0.23826
 C1035 C 0.35469 0.26154 0.25716
 C1036 C 0.33553 0.23499 0.26433
 C1037 C 0.34897 0.20552 0.25849
 C1038 C 0.37758 0.20343 0.24012
 H1039 H 0.48772 0.20035 0.17764
 H1040 H 0.43359 0.27684 0.12880
 H1041 H 0.34671 0.28480 0.26296
 H1042 H 0.33676 0.18410 0.26586
 H1043 H 0.44504 0.19202 0.22142
 H1044 H 0.38617 0.18073 0.23290
 C1045 C 0.41441 0.76112 0.30277
 C1046 C 0.42365 0.78674 0.32229
 C1047 C 0.45129 0.78507 0.34266
 C1048 C 0.46975 0.75750 0.34453
 C1049 C 0.46192 0.73442 0.32020
 N1050 N 0.43433 0.73620 0.30120
 C1051 C 0.38162 0.75923 0.28874
 N1052 N 0.37512 0.74750 0.25648
 C1053 C 0.34479 0.74504 0.24382
 C1054 C 0.31894 0.75404 0.26441
 C1055 C 0.32565 0.76523 0.29814
 C1056 C 0.35657 0.76813 0.31003
 H1057 H 0.45730 0.80524 0.35753
 H1058 H 0.47643 0.71363 0.31876
 H1059 H 0.34087 0.73597 0.21788
 H1060 H 0.30706 0.77248 0.31552
 H1061 H 0.40886 0.80742 0.32296
 H1062 H 0.36081 0.77669 0.33619
 C1063 C 0.91893 0.26631 0.80918
 C1064 C 0.93211 0.29132 0.82706
 C1065 C 0.95868 0.28638 0.84870
 C1066 C 0.97250 0.25635 0.85322
 C1067 C 0.96100 0.23317 0.83083
 N1068 N 0.93438 0.23828 0.81065
 C1069 C 0.88710 0.26918 0.79207
 N1070 N 0.87872 0.25096 0.76477
 C1071 C 0.84866 0.25083 0.75094
 C1072 C 0.82460 0.26900 0.76550
 C1073 C 0.83323 0.28780 0.79365
 C1074 C 0.86408 0.28828 0.80650
 H1075 H 0.96805 0.30635 0.86185
 H1076 H 0.97216 0.21034 0.83118
 H1077 H 0.84323 0.23533 0.72988
 H1078 H 0.81582 0.30119 0.80734
 H1079 H 0.92164 0.31448 0.82497
 H1080 H 0.86914 0.30203 0.82919
 C1081 C 0.59297 0.97161 0.66153
 C1082 C 0.61950 0.99118 0.65699
 C1083 C 0.63430 1.00338 0.68620
 C1084 C 0.62290 0.99672 0.72069
 C1085 C 0.59728 0.97537 0.72416
 N1086 N 0.58271 0.96415 0.69499
 C1087 C 0.57567 0.96120 0.62979
 N1088 N 0.58943 0.96651 0.59774
 C1089 C 0.57351 0.96465 0.56678
 C1090 C 0.54074 0.95827 0.56638
 C1091 C 0.52679 0.94908 0.59913
 C1092 C 0.54414 0.95068 0.63093
 H1093 H 0.65525 1.01752 0.68146
 H1094 H 0.58888 0.96769 0.75015
 H1095 H 0.58594 0.97292 0.54345
 H1096 H 0.50166 0.94413 0.60063
 H1097 H 0.62873 0.99749 0.63093
 H1098 H 0.53229 0.94631 0.65602
 C1099 C 0.10237 0.46122 1.15952
 C1100 C 0.13555 0.46175 1.16044
 C1101 C 0.15110 0.47200 1.19022
 C1102 C 0.13397 0.48120 1.21985
 C1103 C 0.10100 0.47530 1.21976
 N1104 N 0.08610 0.46675 1.18956
 C1105 C 0.08543 0.46055 1.12516
 N1106 N 0.05549 0.44870 1.12274
 C1107 C 0.03807 0.45158 1.09208
 C1108 C 0.05027 0.46833 1.06214
 C1109 C 0.08104 0.48074 1.06486
 C1110 C 0.09865 0.47645 1.09560
 H1111 H 0.17663 0.47429 1.18948
 H1112 H 0.08676 0.47841 1.24292
 H1113 H 0.01422 0.44228 1.09172
 H1114 H 0.09144 0.49528 1.04378
 H1115 H 0.14936 0.45621 1.13752
 H1116 H 0.12162 0.48766 1.09681
 C1117 C -0.09967 0.01330 1.15688
 C1118 C -0.11342 0.03903 1.17239
 C1119 C -0.13259 0.03408 1.20215
 C1120 C -0.13809 0.00341 1.21690
 C1121 C -0.12541 -0.02163 1.19843
 N1122 N -0.10640 -0.01609 1.17009
 C1123 C -0.07666 0.01652 1.12781
 N1124 N -0.05527 -0.00689 1.12500
 C1125 C -0.03494 -0.00791 1.09760
 C1126 C -0.03607 0.01514 1.06965
 C1127 C -0.05674 0.04058 1.07307
 C1128 C -0.07716 0.04137 1.10206
 H1129 H -0.14228 0.05464 1.21350
 H1130 H -0.12899 -0.04569 1.20795
 H1131 H -0.01940 -0.02798 1.09692
 H1132 H -0.05864 0.05888 1.05256
 H1133 H -0.10853 0.06278 1.16260
 H1134 H -0.09416 0.06024 1.10317
 C1135 C 0.41053 0.53005 0.65947
 C1136 C 0.42678 0.53281 0.69160
 C1137 C 0.41128 0.52505 0.72343
 C1138 C 0.37984 0.51324 0.72379
 C1139 C 0.36397 0.51375 0.69081
 N1140 N 0.37957 0.52125 0.66032
 C1141 C 0.42605 0.53257 0.62438
 N1142 N 0.41006 0.51996 0.59732
 C1143 C 0.42285 0.51666 0.56510
 C1144 C 0.45423 0.52617 0.55795
 C1145 C 0.47092 0.54082 0.58496
 C1146 C 0.45693 0.54411 0.61826
 H1147 H 0.42425 0.52859 0.74766
 H1148 H 0.33922 0.50769 0.68893
 H1149 H 0.40889 0.50424 0.54627
 H1150 H 0.49528 0.54810 0.58106
 H1151 H 0.45130 0.54005 0.69247
 H1152 H 0.47058 0.55456 0.63894
 C1153 C 0.41802 0.47434 -0.14863
 C1154 C 0.43043 0.47061 -0.18243
 C1155 C 0.41274 0.48017 -0.21224
 C1156 C 0.38246 0.49389 -0.20914
 C1157 C 0.37009 0.49448 -0.17451
 N1158 N 0.38804 0.48550 -0.14580
 C1159 C 0.43719 0.46895 -0.11594
 N1160 N 0.42218 0.46684 -0.08415
 C1161 C 0.43800 0.46848 -0.05283
 C1162 C 0.47067 0.47469 -0.05235
 C1163 C 0.48693 0.47298 -0.08464
 C1164 C 0.47038 0.47042 -0.11635
 H1165 H 0.42279 0.47579 -0.23775
 H1166 H 0.34622 0.50243 -0.17009
 H1167 H 0.42452 0.46642 -0.02893
 H1168 H 0.51230 0.47651 -0.08604
 H1169 H 0.45345 0.46026 -0.18614
 H1170 H 0.48355 0.47232 -0.14079
 C1171 C -0.09058 0.96824 0.33872
 C1172 C -0.07991 0.96879 0.30374
 C1173 C -0.10015 0.97842 0.27614
 C1174 C -0.13203 0.98654 0.28249
 C1175 C -0.14157 0.98550 0.31843
 N1176 N -0.12106 0.97653 0.34500
 C1177 C -0.06854 0.96226 0.36896
 N1178 N -0.07982 0.95123 0.40091
 C1179 C -0.06178 0.95097 0.43100
 C1180 C -0.03166 0.96505 0.43044
 C1181 C -0.01842 0.97265 0.39704
 C1182 C -0.03674 0.97153 0.36646
 H1183 H -0.08985 0.97950 0.25018
 H1184 H -0.16560 0.99150 0.32523
 H1185 H -0.07216 0.94242 0.45570
 H1186 H 0.00524 0.98221 0.39441
 H1187 H -0.05593 0.96216 0.29752
 H1188 H -0.02668 0.98059 0.34176
 C1189 C 0.09456 0.53018 0.33563
 C1190 C 0.08627 0.53843 0.30037
 C1191 C 0.10529 0.52800 0.27293
 C1192 C 0.13141 0.50789 0.28031
 C1193 C 0.14012 0.50299 0.31617
 N1194 N 0.12161 0.51356 0.34205
 C1195 C 0.07489 0.53613 0.36696
 N1196 N 0.08709 0.52540 0.39846
 C1197 C 0.07030 0.52344 0.42861
 C1198 C 0.03822 0.53249 0.42907
 C1199 C 0.02530 0.54560 0.39714
 C1200 C 0.04350 0.54736 0.36591
 H1201 H 0.09913 0.53495 0.24580
 H1202 H 0.16157 0.49071 0.32411
 H1203 H 0.08166 0.51140 0.45095
 H1204 H 0.00054 0.55216 0.39564
 H1205 H 0.06552 0.55244 0.29388
 H1206 H 0.03248 0.55561 0.34128
 C1207 C 0.58515 0.03818 -0.15842
 C1208 C 0.57061 0.03647 -0.19183
 C1209 C 0.58836 0.02673 -0.22055
 C1210 C 0.62038 0.01764 -0.21598
 C1211 C 0.63426 0.02209 -0.18260
 N1212 N 0.61654 0.03136 -0.15522
 C1213 C 0.56743 0.04295 -0.12529
 N1214 N 0.58185 0.03302 -0.09461
 C1215 C 0.56689 0.03125 -0.06308
 C1216 C 0.53463 0.03930 -0.06053
 C1217 C 0.51972 0.05194 -0.09153
 C1218 C 0.53596 0.05373 -0.12398
 H1219 H 0.57684 0.02643 -0.24617
 H1220 H 0.65917 0.01734 -0.17805
 H1221 H 0.57971 0.02009 -0.04121
 H1222 H 0.49485 0.05811 -0.09134
 H1223 H 0.54574 0.04166 -0.19579
 H1224 H 0.52353 0.06217 -0.14767
 C1225 C 0.67505 0.55014 -0.02463
 C1226 C 0.68804 0.56929 -0.05187
 C1227 C 0.71673 0.58456 -0.04608
 C1228 C 0.73151 0.58194 -0.01242
 C1229 C 0.71980 0.55872 0.01196
 N1230 N 0.69162 0.54460 0.00595
 C1231 C 0.64111 0.54358 -0.02430
 N1232 N 0.62967 0.51472 -0.03121
 C1233 C 0.59859 0.50722 -0.02622
 C1234 C 0.57756 0.52903 -0.01222
 C1235 C 0.58951 0.55885 -0.00511
 C1236 C 0.62099 0.56625 -0.01152
 H1237 H 0.72603 0.59952 -0.06741
 H1238 H 0.73129 0.55446 0.03746
 H1239 H 0.59077 0.48383 -0.03182
 H1240 H 0.57524 0.57601 0.00750
 H1241 H 0.67508 0.57401 -0.07641
 H1242 H 0.63005 0.58897 -0.00468
 C1243 C 0.16601 1.04643 0.50141
 C1244 C 0.17459 1.07270 0.47976
 C1245 C 0.20168 1.08963 0.48772
 C1246 C 0.22116 1.08028 0.51678
 C1247 C 0.21067 1.05471 0.53874
 N1248 N 0.18404 1.03863 0.53049
 C1249 C 0.13589 1.02944 0.49603
 N1250 N 0.12332 1.01223 0.52381
 C1251 C 0.09356 1.00011 0.52271
 C1252 C 0.07385 1.00708 0.49323
 C1253 C 0.08774 1.02130 0.46289
 C1254 C 0.11869 1.03244 0.46410
 H1255 H 0.20660 1.11066 0.47157
 H1256 H 0.22362 1.04764 0.56262
 H1257 H 0.08447 0.98765 0.54613
 H1258 H 0.07448 1.02500 0.43850
 H1259 H 0.15998 1.08127 0.45778
 H1260 H 0.12838 1.04406 0.44053
 C1261 C 0.16314 -0.05577 1.01103
 C1262 C 0.16028 -0.08527 0.99720
 C1263 C 0.18736 -0.10221 0.99042
 C1264 C 0.21784 -0.08953 0.99616
 C1265 C 0.21913 -0.06158 1.01472
 N1266 N 0.19220 -0.04491 1.02035
 C1267 C 0.13448 -0.03670 1.01349
 N1268 N 0.11338 -0.04384 1.03966
 C1269 C 0.08298 -0.03340 1.03800
 C1270 C 0.07157 -0.01701 1.00720
 C1271 C 0.09383 -0.00712 0.98150
 C1272 C 0.12521 -0.01721 0.98439
 H1273 H 0.18417 -0.12512 0.97986
 H1274 H 0.24157 -0.05249 1.02367
 H1275 H 0.06720 -0.04038 1.05940
 H1276 H 0.08674 0.00705 0.95826
 H1277 H 0.13721 -0.09474 0.99075
 H1278 H 0.14152 -0.01172 0.96295
 C1279 C 0.65529 0.44337 0.50734
 C1280 C 0.66447 0.41762 0.52950
 C1281 C 0.69358 0.40333 0.52435
 C1282 C 0.71453 0.41490 0.49784
 C1283 C 0.70394 0.44047 0.47586
 N1284 N 0.67522 0.45376 0.48113
 C1285 C 0.62310 0.45704 0.50861
 N1286 N 0.61229 0.47406 0.47967
 C1287 C 0.58203 0.48463 0.47692
 C1288 C 0.55991 0.47681 0.50367
 C1289 C 0.57140 0.46194 0.53511
 C1290 C 0.60281 0.45186 0.53767
 H1291 H 0.69893 0.38225 0.54032
 H1292 H 0.71796 0.44918 0.45363
 H1293 H 0.57502 0.49766 0.45286
 H1294 H 0.55634 0.45806 0.55783
 H1295 H 0.64885 0.40725 0.54935
 H1296 H 0.61078 0.44010 0.56211
 C1297 C -0.16985 0.44719 0.46078
 C1298 C -0.19424 0.46314 0.47724
 C1299 C -0.22268 0.44746 0.48514
 C1300 C -0.22749 0.41629 0.47527
 C1301 C -0.20241 0.40180 0.45788
 N1302 N -0.17471 0.41714 0.45176
 C1303 C -0.13709 0.45903 0.46048
 N1304 N -0.11430 0.43868 0.47210
 C1305 C -0.08373 0.44722 0.47604
 C1306 C -0.07379 0.47821 0.46756
 C1307 C -0.09700 0.49968 0.45474
 C1308 C -0.12879 0.49027 0.45155
 H1309 H -0.24007 0.45929 0.50057
 H1310 H -0.20422 0.37758 0.45088
 H1311 H -0.06825 0.43010 0.48874
 H1312 H -0.09090 0.52398 0.44865
 H1313 H -0.19044 0.48651 0.48642
 H1314 H -0.14663 0.50713 0.44263
 C1315 C 0.33347 -0.05578 -0.03954
 C1316 C 0.30494 -0.03889 -0.04021
 C1317 C 0.27621 -0.05517 -0.03542
 C1318 C 0.27619 -0.08801 -0.02849
 C1319 C 0.30494 -0.10379 -0.03389
 N1320 N 0.33234 -0.08760 -0.03776
 C1321 C 0.36480 -0.04118 -0.03434
 N1322 N 0.38623 -0.05851 -0.01503
 C1323 C 0.41539 -0.04784 -0.00702
 C1324 C 0.42537 -0.01778 -0.01916
 C1325 C 0.40360 0.00081 -0.03931
 C1326 C 0.37313 -0.01072 -0.04675
 H1327 H 0.25454 -0.04177 -0.03599
 H1328 H 0.30608 -0.12913 -0.03131
 H1329 H 0.43041 -0.06302 0.00944
 H1330 H 0.40998 0.02422 -0.04907
 H1331 H 0.30487 -0.01351 -0.04219
 H1332 H 0.35659 0.00378 -0.06220
 C1333 C 0.33753 1.04924 0.54841
 C1334 C 0.31207 1.03315 0.53385
 C1335 C 0.28319 1.04855 0.52831
 C1336 C 0.27905 1.07960 0.53881
 C1337 C 0.30517 1.09411 0.55474
 N1338 N 0.33336 1.07909 0.55836
 C1339 C 0.36997 1.03754 0.54551
 N1340 N 0.39165 1.05740 0.53055
 C1341 C 0.42144 1.04825 0.52332
 C1342 C 0.43141 1.01729 0.53163
 C1343 C 0.40937 0.99642 0.54773
 C1344 C 0.37847 1.00639 0.55437
 H1345 H 0.26501 1.03662 0.51384
 H1346 H 0.30369 1.11820 0.56230
 H1347 H 0.43637 1.06490 0.50899
 H1348 H 0.41558 0.97220 0.55412
 H1349 H 0.31526 1.00994 0.52405
 H1350 H 0.36138 0.99000 0.56588
 C1351 C -0.15874 0.54488 1.01650
 C1352 C -0.17390 0.54720 0.98350
 C1353 C -0.20125 0.56503 0.97925
 C1354 C -0.21338 0.58166 1.00751
 C1355 C -0.19923 0.57572 1.04124
 N1356 N -0.17204 0.55854 1.04462
 C1357 C -0.12562 0.53445 1.01788
 N1358 N -0.10507 0.55040 0.99637
 C1359 C -0.07449 0.54186 0.99339
 C1360 C -0.06256 0.51497 1.01208
 C1361 C -0.08333 0.49836 1.03522
 C1362 C -0.11496 0.50823 1.03842
 H1363 H -0.21199 0.56751 0.95312
 H1364 H -0.20895 0.58527 1.06475
 H1365 H -0.05989 0.55600 0.97553
 H1366 H -0.07535 0.47761 1.05031
 H1367 H -0.16359 0.53674 0.96068
 H1368 H -0.13106 0.49506 1.05567
 C1369 C -0.00023 0.65901 0.55920
 C1370 C -0.00560 0.65757 0.59582
 C1371 C -0.00645 0.68495 0.61410
 C1372 C -0.00357 0.71446 0.59616
 C1373 C 0.00276 0.71477 0.55936
 N1374 N 0.00392 0.68747 0.54202
 C1375 C 0.00329 0.62956 0.54047
 N1376 N -0.01064 0.62549 0.50824
 C1377 C -0.01033 0.59716 0.49267
 C1378 C 0.00409 0.57091 0.51010
 C1379 C 0.01919 0.57558 0.54288
 C1380 C 0.01940 0.60457 0.55749
 H1381 H -0.00994 0.68314 0.64251
 H1382 H 0.00762 0.73642 0.54440
 H1383 H -0.02233 0.59486 0.46751
 H1384 H 0.03068 0.55666 0.55808
 H1385 H -0.00895 0.63535 0.61040
 H1386 H 0.03137 0.60712 0.58266
 C1387 C 0.50341 0.16799 0.06455
 C1388 C 0.52870 0.17622 0.08647
 C1389 C 0.52647 0.20235 0.10671
 C1390 C 0.49997 0.22244 0.10378
 C1391 C 0.47569 0.21405 0.07995
 N1392 N 0.47779 0.18734 0.06155
 C1393 C 0.50313 0.13671 0.04884
 N1394 N 0.48890 0.13182 0.01695
 C1395 C 0.48822 0.10286 0.00274
 C1396 C 0.50214 0.07678 0.02110
 C1397 C 0.51640 0.08188 0.05417
 C1398 C 0.51685 0.11125 0.06790
 H1399 H 0.54538 0.20558 0.12552
 H1400 H 0.45454 0.22829 0.07703
 H1401 H 0.47639 0.10012 -0.02243
 H1402 H 0.52724 0.06305 0.07017
 H1403 H 0.54972 0.16177 0.08924
 H1404 H 0.52719 0.11362 0.09394
 C1405 C -0.01478 0.16656 0.95091
 C1406 C -0.04007 0.17831 0.92986
 C1407 C -0.03577 0.20506 0.90756
 C1408 C -0.00594 0.22001 0.90472
 C1409 C 0.01772 0.20899 0.92885
 N1410 N 0.01310 0.18267 0.95006
 C1411 C -0.01629 0.13572 0.97130
 N1412 N 0.01134 0.12202 0.98246
 C1413 C 0.01285 0.09203 0.99631
 C1414 C -0.01444 0.07282 0.99789
 C1415 C -0.04350 0.08772 0.99023
 C1416 C -0.04462 0.11892 0.97703
 H1417 H -0.05620 0.21374 0.89282
 H1418 H 0.04048 0.22066 0.92967
 H1419 H 0.03595 0.08255 1.00327
 H1420 H -0.06550 0.07545 0.99362
 H1421 H -0.06285 0.16679 0.92955
 H1422 H -0.06748 0.12912 0.97057
 C1423 C 0.48469 0.66557 0.43714
 C1424 C 0.51154 0.68435 0.44193
 C1425 C 0.51467 0.71267 0.42194
 C1426 C 0.49167 0.72219 0.39625
 C1427 C 0.46362 0.70406 0.39552
 N1428 N 0.46141 0.67640 0.41473
 C1429 C 0.48213 0.63310 0.45279
 N1430 N 0.46579 0.61168 0.43436
 C1431 C 0.46421 0.58086 0.44498
 C1432 C 0.47972 0.56963 0.47616
 C1433 C 0.49564 0.59163 0.49644
 C1434 C 0.49702 0.62328 0.48480
 H1435 H 0.53603 0.72640 0.42498
 H1436 H 0.44339 0.71120 0.37957
 H1437 H 0.45139 0.56509 0.42845
 H1438 H 0.50782 0.58433 0.52077
 H1439 H 0.53068 0.67664 0.45944
 H1440 H 0.50978 0.63971 0.50056
 C1441 C 0.50221 0.83142 0.44080
 C1442 C 0.47617 0.81107 0.44240
 C1443 C 0.47541 0.78531 0.42077
 C1444 C 0.50042 0.77948 0.39715
 C1445 C 0.52719 0.79923 0.39902
 N1446 N 0.52692 0.82458 0.41954
 C1447 C 0.50219 0.86199 0.45805
 N1448 N 0.51532 0.88691 0.43997
 C1449 C 0.51555 0.91616 0.45237
 C1450 C 0.50273 0.92217 0.48584
 C1451 C 0.48917 0.89664 0.50529
 C1452 C 0.48862 0.86657 0.49137
 H1453 H 0.45456 0.77049 0.42132
 H1454 H 0.54828 0.79523 0.38399
 H1455 H 0.52607 0.93468 0.43580
 H1456 H 0.47864 0.89999 0.53088
 H1457 H 0.45592 0.81586 0.45871
 H1458 H 0.47796 0.84719 0.50655
 C1459 C 0.01273 0.32823 0.94797
 C1460 C -0.01559 0.31103 0.94857
 C1461 C -0.01876 0.28527 0.92724
 C1462 C 0.00594 0.27649 0.90464
 C1463 C 0.03480 0.29301 0.90740
 N1464 N 0.03703 0.31836 0.92780
 C1465 C 0.01582 0.35885 0.96489
 N1466 N 0.03464 0.38098 0.94880
 C1467 C 0.03665 0.41074 0.95967
 C1468 C 0.01900 0.42033 0.98884
 C1469 C 0.00034 0.39742 1.00688
 C1470 C -0.00141 0.36675 0.99496
 H1471 H -0.04115 0.27286 0.92715
 H1472 H 0.05562 0.28642 0.89315
 H1473 H 0.05083 0.42725 0.94403
 H1474 H -0.01408 0.40354 1.02910
 H1475 H -0.03567 0.31824 0.96385
 H1476 H -0.01650 0.34972 1.00870
 C1477 C 0.48941 0.34264 0.07440
 C1478 C 0.48413 0.33865 0.11087
 C1479 C 0.48557 0.30896 0.12720
 C1480 C 0.49071 0.28225 0.10749
 C1481 C 0.49466 0.28725 0.07045
 N1482 N 0.49415 0.31692 0.05514
 C1483 C 0.49350 0.37471 0.05841
 N1484 N 0.48094 0.38351 0.02604
 C1485 C 0.48326 0.41363 0.01214
 C1486 C 0.49873 0.43675 0.03131
 C1487 C 0.51250 0.42732 0.06417
 C1488 C 0.51014 0.39671 0.07746
 H1489 H 0.48303 0.30674 0.15574
 H1490 H 0.49972 0.26804 0.05381
 H1491 H 0.47265 0.41945 -0.01342
 H1492 H 0.52509 0.44363 0.08025
 H1493 H 0.48000 0.35855 0.12697
 H1494 H 0.52126 0.39035 0.10274
 C1495 C -0.01907 0.83383 0.56071
 C1496 C -0.03529 0.80750 0.54946
 C1497 C -0.03060 0.77850 0.56778
 C1498 C -0.00816 0.77520 0.59571
 C1499 C 0.00686 0.80283 0.60622
 N1500 N 0.00110 0.83071 0.58881
 C1501 C -0.02472 0.86557 0.54510
 N1502 N -0.02111 0.87232 0.50970
 C1503 C -0.02037 0.90251 0.49595
 C1504 C -0.02245 0.92778 0.51846
 C1505 C -0.02761 0.92067 0.55477
 C1506 C -0.02889 0.88988 0.56795
 H1507 H -0.04473 0.75867 0.56033
 H1508 H 0.02236 0.80277 0.62911
 H1509 H -0.01601 0.90667 0.46793
 H1510 H -0.02875 0.93875 0.57381
 H1511 H -0.05234 0.80961 0.52792
 H1512 H -0.03141 0.88508 0.59624
 C1513 C 0.24021 0.32994 0.09527
 C1514 C 0.21534 0.34641 0.07853
 C1515 C 0.22168 0.36623 0.04889
 C1516 C 0.25307 0.37040 0.03640
 C1517 C 0.27634 0.35033 0.05194
 N1518 N 0.26974 0.33193 0.08126
 C1519 C 0.23677 0.31611 0.13130
 N1520 N 0.22099 0.28862 0.13823
 C1521 C 0.22125 0.27401 0.17126
 C1522 C 0.23864 0.28687 0.19903
 C1523 C 0.25381 0.31594 0.19188
 C1524 C 0.25282 0.33045 0.15841
 H1525 H 0.20181 0.37825 0.03628
 H1526 H 0.30032 0.35074 0.04194
 H1527 H 0.20940 0.25164 0.17528
 H1528 H 0.26806 0.32703 0.21162
 H1529 H 0.19162 0.34512 0.08926
 H1530 H 0.26563 0.35221 0.15331
 C1531 C 0.71926 0.84212 0.57720
 C1532 C 0.71550 0.82778 0.54473
 C1533 C 0.72505 0.84387 0.51333
 C1534 C 0.73968 0.87363 0.51412
 C1535 C 0.74044 0.88779 0.54701
 N1536 N 0.73105 0.87179 0.57695
 C1537 C 0.71411 0.82596 0.61240
 N1538 N 0.72574 0.84058 0.64081
 C1539 C 0.72690 0.82692 0.67379
 C1540 C 0.71626 0.79591 0.68037
 C1541 C 0.70219 0.78083 0.65185
 C1542 C 0.70107 0.79573 0.61781
 H1543 H 0.72114 0.83289 0.48845
 H1544 H 0.74884 0.91157 0.54914
 H1545 H 0.73899 0.83964 0.69385
 H1546 H 0.69405 0.75682 0.65525
 H1547 H 0.70588 0.80440 0.54332
 H1548 H 0.69133 0.78311 0.59612
 C1549 C 0.27568 0.66891 0.58667
 C1550 C 0.25847 0.68410 0.55904
 C1551 C 0.24528 0.66649 0.53244
 C1552 C 0.25048 0.63382 0.53226
 C1553 C 0.26652 0.61961 0.56170
 N1554 N 0.27847 0.63718 0.58757
 C1555 C 0.28472 0.68521 0.61856
 N1556 N 0.27960 0.66961 0.65000
 C1557 C 0.28057 0.68385 0.68107
 C1558 C 0.28648 0.71634 0.68204
 C1559 C 0.29520 0.73224 0.64999
 C1560 C 0.29385 0.71685 0.61806
 H1561 H 0.23070 0.67862 0.51259
 H1562 H 0.27005 0.59447 0.56366
 H1563 H 0.27217 0.67017 0.70370
 H1564 H 0.29969 0.75725 0.64898
 H1565 H 0.25380 0.70905 0.55898
 H1566 H 0.29818 0.72989 0.59325
 C1567 C 0.78285 0.16387 0.10596
 C1568 C 0.76904 0.13455 0.11329
 C1569 C 0.75733 0.11749 0.08556
 C1570 C 0.76003 0.12861 0.04973
 C1571 C 0.77415 0.15858 0.04411
 N1572 N 0.78444 0.17518 0.07180
 C1573 C 0.79035 0.18473 0.13483
 N1574 N 0.78118 0.21518 0.13100
 C1575 C 0.77984 0.23393 0.15892
 C1576 C 0.78610 0.22151 0.19352
 C1577 C 0.80100 0.19213 0.19685
 C1578 C 0.80237 0.17323 0.16769
 H1579 H 0.74605 0.09527 0.09244
 H1580 H 0.77679 0.16966 0.01820
 H1581 H 0.77059 0.25740 0.15427
 H1582 H 0.80903 0.18259 0.22238
 H1583 H 0.76595 0.12547 0.14033
 H1584 H 0.81096 0.14938 0.17124
 C1585 C 0.72938 0.16741 0.92283
 C1586 C 0.70400 0.15674 0.94354
 C1587 C 0.70987 0.13765 0.97407
 C1588 C 0.74122 0.12934 0.98483
 C1589 C 0.76581 0.14232 0.96349
 N1590 N 0.75936 0.15992 0.93340
 C1591 C 0.72474 0.18341 0.88775
 N1592 N 0.74052 0.17178 0.86025
 C1593 C 0.74091 0.18640 0.82772
 C1594 C 0.72587 0.21570 0.82121
 C1595 C 0.70822 0.22761 0.84902
 C1596 C 0.70728 0.21128 0.88233
 H1597 H 0.68935 0.12943 0.98850
 H1598 H 0.79038 0.13806 0.97053
 H1599 H 0.75501 0.17581 0.80775
 H1600 H 0.69659 0.25016 0.84562
 H1601 H 0.67984 0.16201 0.93541
 H1602 H 0.69472 0.22118 0.90404
 C1603 C 0.20850 0.66336 0.40520
 C1604 C 0.23578 0.67305 0.42267
 C1605 C 0.24590 0.65660 0.45334
 C1606 C 0.22786 0.63156 0.46836
 C1607 C 0.20077 0.62233 0.44907
 N1608 N 0.19218 0.63798 0.41826
 C1609 C 0.20195 0.67654 0.36943
 N1610 N 0.19388 0.70728 0.36423
 C1611 C 0.19607 0.72259 0.33186
 C1612 C 0.20971 0.70757 0.30329
 C1613 C 0.21674 0.67538 0.30835
 C1614 C 0.21199 0.65970 0.34091
 H1615 H 0.26791 0.66364 0.46543
 H1616 H 0.18697 0.60201 0.45753
 H1617 H 0.19042 0.74733 0.32965
 H1618 H 0.22908 0.66270 0.28866
 H1619 H 0.25009 0.69215 0.41155
 H1620 H 0.21971 0.63556 0.34486
 C1621 C 0.78338 0.84031 0.39219
 C1622 C 0.78759 0.82745 0.42685
 C1623 C 0.77706 0.84424 0.45552
 C1624 C 0.76105 0.87310 0.44974
 C1625 C 0.76012 0.88600 0.41477
 N1626 N 0.77047 0.86939 0.38761
 C1627 C 0.78812 0.82281 0.35975
 N1628 N 0.77548 0.83607 0.32954
 C1629 C 0.77265 0.82078 0.29929
 C1630 C 0.78252 0.78942 0.29776
 C1631 C 0.79791 0.77576 0.32793
 C1632 C 0.80069 0.79233 0.35907
 H1633 H 0.78113 0.83441 0.48210
 H1634 H 0.75030 0.90905 0.40876
 H1635 H 0.75951 0.83251 0.27800
 H1636 H 0.80562 0.75156 0.32840
 H1637 H 0.79808 0.80458 0.43200
 H1638 H 0.81109 0.78074 0.38243
 C1639 C 0.28676 0.32987 0.92202
 C1640 C 0.25626 0.32952 0.93617
 C1641 C 0.24887 0.34958 0.96284
 C1642 C 0.27153 0.37080 0.97522
 C1643 C 0.30275 0.36825 0.96206
 N1644 N 0.30918 0.34891 0.93540
 C1645 C 0.29143 0.31619 0.88766
 N1646 N 0.27730 0.33115 0.85944
 C1647 C 0.27472 0.31825 0.82766
 C1648 C 0.28608 0.28770 0.82261
 C1649 C 0.30225 0.27231 0.85120
 C1650 C 0.30493 0.28653 0.88393
 H1651 H 0.22495 0.34939 0.97304
 H1652 H 0.32210 0.38175 0.97226
 H1653 H 0.26087 0.33107 0.80775
 H1654 H 0.31075 0.24856 0.84908
 H1655 H 0.23787 0.31498 0.92535
 H1656 H 0.31561 0.27384 0.90648
 C1657 C 0.79460 0.42410 0.75964
 C1658 C 0.79979 0.44394 0.78748
 C1659 C 0.81678 0.47184 0.78084
 C1660 C 0.82955 0.47937 0.74682
 C1661 C 0.81928 0.46062 0.71918
 N1662 N 0.80352 0.43355 0.72642
 C1663 C 0.78594 0.39102 0.76532
 N1664 N 0.80407 0.37022 0.74868
 C1665 C 0.79724 0.33938 0.74887
 C1666 C 0.76980 0.32745 0.76556
 C1667 C 0.75101 0.34845 0.78397
 C1668 C 0.75920 0.38039 0.78418
 H1669 H 0.82144 0.48667 0.80274
 H1670 H 0.82499 0.46602 0.69189
 H1671 H 0.81269 0.32471 0.73417
 H1672 H 0.72964 0.34044 0.79727
 H1673 H 0.79277 0.43702 0.81425
 H1674 H 0.74421 0.39667 0.79741
 C1675 C 0.30428 0.90797 0.27651
 C1676 C 0.28775 0.93434 0.26293
 C1677 C 0.30395 0.96268 0.25712
 C1678 C 0.33636 0.96520 0.26622
 C1679 C 0.35156 0.93797 0.28032
 N1680 N 0.33554 0.91058 0.28458
 C1681 C 0.29109 0.87629 0.27478
 N1682 N 0.31029 0.85432 0.26182
 C1683 C 0.30039 0.82492 0.25631
 C1684 C 0.26919 0.81547 0.26445
 C1685 C 0.24887 0.83782 0.27843
 C1686 C 0.25967 0.86845 0.28331
 H1687 H 0.29127 0.98197 0.24398
 H1688 H 0.37659 0.93827 0.28672
 H1689 H 0.31655 0.81009 0.24298
 H1690 H 0.22448 0.83200 0.28452
 H1691 H 0.26328 0.93249 0.25445
 H1692 H 0.24375 0.88574 0.29337
 C1693 C 0.19510 0.91763 0.71363
 C1694 C 0.21470 0.94414 0.71611
 C1695 C 0.20128 0.97304 0.72423
 C1696 C 0.16854 0.97535 0.73102
 C1697 C 0.14987 0.94865 0.72514
 N1698 N 0.16339 0.92110 0.71758
 C1699 C 0.20703 0.88515 0.71111
 N1700 N 0.18679 0.86162 0.72098
 C1701 C 0.19544 0.83110 0.72364
 C1702 C 0.22673 0.82215 0.71657
 C1703 C 0.24787 0.84593 0.70465
 C1704 C 0.23817 0.87743 0.70195
 H1705 H 0.21673 0.99314 0.72535
 H1706 H 0.12443 0.94932 0.72835
 H1707 H 0.17841 0.81465 0.73469
 H1708 H 0.27232 0.84049 0.69913
 H1709 H 0.24008 0.94260 0.71301
 H1710 H 0.25509 0.89531 0.69366
 C1711 C 0.69612 0.41657 0.24214
 C1712 C 0.67192 0.42709 0.21879
 C1713 C 0.65614 0.45492 0.22476
 C1714 C 0.66471 0.47323 0.25337
 C1715 C 0.68865 0.46133 0.27648
 N1716 N 0.70350 0.43399 0.27027
 C1717 C 0.71134 0.38547 0.23993
 N1718 N 0.72968 0.37467 0.26770
 C1719 C 0.74114 0.34494 0.27026
 C1720 C 0.73267 0.32346 0.24479
 C1721 C 0.71639 0.33494 0.21439
 C1722 C 0.70577 0.36582 0.21175
 H1723 H 0.63636 0.46131 0.20754
 H1724 H 0.69506 0.47342 0.30001
 H1725 H 0.75480 0.33763 0.29356
 H1726 H 0.71113 0.32002 0.19285
 H1727 H 0.66388 0.41366 0.19698
 H1728 H 0.69278 0.37348 0.18820
 C1729 C 0.69555 0.58593 0.28824
 C1730 C 0.71254 0.56162 0.27373
 C1731 C 0.69708 0.53355 0.26717
 C1732 C 0.66499 0.52902 0.27655
 C1733 C 0.64964 0.55371 0.29292
 N1734 N 0.66481 0.58124 0.29746
 C1735 C 0.70704 0.61829 0.28452
 N1736 N 0.68742 0.63949 0.26804
 C1737 C 0.69645 0.66924 0.25964
 C1738 C 0.72700 0.67979 0.26836
 C1739 C 0.74769 0.65824 0.28593
 C1740 C 0.73788 0.62727 0.29369
 H1741 H 0.70980 0.51648 0.25257
 H1742 H 0.62482 0.55194 0.29968
 H1743 H 0.68008 0.68383 0.24426
 H1744 H 0.77166 0.66494 0.29258
 H1745 H 0.73653 0.56536 0.26441
 H1746 H 0.75416 0.61052 0.30627
 C1747 C 0.20581 0.08683 0.77135
 C1748 C 0.21621 0.05705 0.78341
 C1749 C 0.19905 0.03054 0.77385
 C1750 C 0.17278 0.03354 0.75053
 C1751 C 0.16310 0.06446 0.74031
 N1752 N 0.17959 0.08960 0.75066
 C1753 C 0.22222 0.11581 0.77950
 N1754 N 0.20693 0.13707 0.79887
 C1755 C 0.21600 0.16764 0.79896
 C1756 C 0.24012 0.17892 0.77635
 C1757 C 0.25761 0.15660 0.75822
 C1758 C 0.24871 0.12512 0.75977
 H1759 H 0.20608 0.00771 0.78492
 H1760 H 0.14170 0.06918 0.72517
 H1761 H 0.20304 0.18313 0.81506
 H1762 H 0.27700 0.16349 0.74097
 H1763 H 0.23679 0.05444 0.80058
 H1764 H 0.26068 0.10877 0.74335
 C1765 C 0.30656 0.08304 0.24219
 C1766 C 0.33009 0.07540 0.21793
 C1767 C 0.34520 0.04644 0.22147
 C1768 C 0.33667 0.02426 0.24859
 C1769 C 0.31286 0.03301 0.27218
 N1770 N 0.29877 0.06154 0.26843
 C1771 C 0.29292 0.11496 0.24331
 N1772 N 0.27575 0.12217 0.27222
 C1773 C 0.26628 0.15189 0.27797
 C1774 C 0.27596 0.17687 0.25503
 C1775 C 0.29068 0.16944 0.22320
 C1776 C 0.29918 0.13870 0.21726
 H1777 H 0.36473 0.04237 0.20392
 H1778 H 0.30631 0.01758 0.29451
 H1779 H 0.25288 0.15611 0.30159
 H1780 H 0.29715 0.18746 0.20343
 H1781 H 0.33836 0.09186 0.19746
 H1782 H 0.31126 0.13425 0.19294
 C1783 C 0.80371 0.59560 0.72136
 C1784 C 0.83419 0.59198 0.70796
 C1785 C 0.84953 0.56330 0.71286
 C1786 C 0.83479 0.53761 0.73110
 C1787 C 0.80318 0.54212 0.74221
 N1788 N 0.78894 0.57064 0.73764
 C1789 C 0.79114 0.62731 0.72516
 N1790 N 0.76207 0.63619 0.71231
 C1791 C 0.75045 0.66568 0.71637
 C1792 C 0.76826 0.68769 0.73475
 C1793 C 0.79775 0.67789 0.74899
 C1794 C 0.80928 0.64823 0.74390
 H1795 H 0.87376 0.56167 0.70392
 H1796 H 0.78997 0.52371 0.75594
 H1797 H 0.72741 0.67183 0.70541
 H1798 H 0.81231 0.69298 0.76447
 H1799 H 0.84672 0.61178 0.69564
 H1800 H 0.83208 0.64140 0.75518
 C1801 C 0.91434 0.75084 0.17301
 C1802 C 0.93337 0.72397 0.17562
 C1803 C 0.96015 0.72225 0.15421
 C1804 C 0.96825 0.74698 0.12958
 C1805 C 0.94950 0.77435 0.13003
 N1806 N 0.92320 0.77516 0.15060
 C1807 C 0.88337 0.75251 0.19120
 N1808 N 0.85953 0.76841 0.17405
 C1809 C 0.82981 0.76975 0.18725
 C1810 C 0.82224 0.75487 0.22031
 C1811 C 0.84675 0.73886 0.23899
 C1812 C 0.87727 0.73749 0.22447
 H1813 H 0.97431 0.70108 0.15610
 H1814 H 0.95540 0.79533 0.11444
 H1815 H 0.81198 0.78211 0.17134
 H1816 H 0.84216 0.72668 0.26425
 H1817 H 0.92702 0.70400 0.19289
 H1818 H 0.89576 0.72478 0.23902
 C1819 C 0.41869 0.25703 0.69261
 C1820 C 0.43864 0.23092 0.69791
 C1821 C 0.46501 0.22781 0.67613
 C1822 C 0.47159 0.25010 0.64822
 C1823 C 0.45199 0.27699 0.64582
 N1824 N 0.42630 0.27926 0.66706
 C1825 C 0.38815 0.25999 0.71154
 N1826 N 0.36468 0.27715 0.69518
 C1827 C 0.33505 0.27900 0.70866
 C1828 C 0.32714 0.26270 0.74072
 C1829 C 0.35149 0.24614 0.75905
 C1830 C 0.38193 0.24469 0.74459
 H1831 H 0.47986 0.20725 0.68021
 H1832 H 0.45663 0.29643 0.62730
 H1833 H 0.31740 0.29229 0.69344
 H1834 H 0.34678 0.23327 0.78387
 H1835 H 0.43343 0.21244 0.71761
 H1836 H 0.40008 0.23137 0.75895
 C1837 C 0.41795 0.75376 0.80658
 C1838 C 0.43511 0.78176 0.80685
 C1839 C 0.46146 0.78360 0.82915
 C1840 C 0.47091 0.75771 0.85155
 C1841 C 0.45441 0.72931 0.84776
 N1842 N 0.42827 0.72841 0.82663
 C1843 C 0.38667 0.75228 0.78927
 N1844 N 0.36324 0.73712 0.80748
 C1845 C 0.33311 0.73616 0.79521
 C1846 C 0.32484 0.75050 0.76199
 C1847 C 0.34887 0.76593 0.74234
 C1848 C 0.37982 0.76713 0.75606
 H1849 H 0.47402 0.80570 0.82987
 H1850 H 0.46177 0.70778 0.86152
 H1851 H 0.31570 0.72408 0.81172
 H1852 H 0.34367 0.77756 0.71684
 H1853 H 0.42731 0.80245 0.79149
 H1854 H 0.39811 0.77944 0.74100
 C1855 C 0.91471 0.24230 0.31896
 C1856 C 0.93942 0.25961 0.30272
 C1857 C 0.96840 0.26247 0.32065
 C1858 C 0.97348 0.24691 0.35403
 C1859 C 0.94723 0.23137 0.36979
 N1860 N 0.91934 0.22934 0.35213
 C1861 C 0.88261 0.23999 0.30330
 N1862 N 0.85803 0.23501 0.32590
 C1863 C 0.82752 0.23379 0.31477
 C1864 C 0.81985 0.23751 0.27851
 C1865 C 0.84497 0.24186 0.25445
 C1866 C 0.87637 0.24308 0.26671
 H1867 H 0.98660 0.27717 0.30854
 H1868 H 0.94873 0.22096 0.39644
 H1869 H 0.80933 0.23127 0.33471
 H1870 H 0.84037 0.24557 0.22634
 H1871 H 0.93611 0.27181 0.27718
 H1872 H 0.89532 0.24665 0.24780
 C1873 C 0.09403 0.25861 0.31982
 C1874 C 0.09140 0.26645 0.35529
 C1875 C 0.06252 0.26389 0.37214
 C1876 C 0.03540 0.25347 0.35433
 C1877 C 0.03966 0.24313 0.31966
 N1878 N 0.06835 0.24635 0.30333
 C1879 C 0.12492 0.26219 0.30153
 N1880 N 0.13353 0.24245 0.27592
 C1881 C 0.16352 0.24230 0.26249
 C1882 C 0.18715 0.26183 0.27613
 C1883 C 0.17792 0.28276 0.30175
 C1884 C 0.14694 0.28407 0.31301
 H1885 H 0.06141 0.26997 0.39960
 H1886 H 0.02057 0.23209 0.30571
 H1887 H 0.16938 0.22545 0.24307
 H1888 H 0.19484 0.29734 0.31486
 H1889 H 0.11158 0.27390 0.37056
 H1890 H 0.14096 0.30109 0.33218
 C1891 C 0.57943 0.77346 0.80468
 C1892 C 0.56805 0.79959 0.82182
 C1893 C 0.54210 0.79636 0.84427
 C1894 C 0.52750 0.76692 0.85034
 C1895 C 0.53723 0.74254 0.82877
 N1896 N 0.56312 0.74601 0.80771
 C1897 C 0.61106 0.77409 0.78817
 N1898 N 0.61760 0.75662 0.75978
 C1899 C 0.64754 0.75437 0.74653
 C1900 C 0.67305 0.76931 0.76297
 C1901 C 0.66628 0.78682 0.79269
 C1902 C 0.63567 0.78973 0.80475
 H1903 H 0.53386 0.81702 0.85681
 H1904 H 0.52526 0.72008 0.83038
 H1905 H 0.65155 0.74006 0.72412
 H1906 H 0.68473 0.79810 0.80749
 H1907 H 0.57975 0.82215 0.81873
 H1908 H 0.63171 0.80268 0.82827
 C1909 C 0.58308 0.24258 0.69528
 C1910 C 0.56248 0.26833 0.69440
 C1911 C 0.53590 0.26856 0.67195
 C1912 C 0.52969 0.24354 0.64960
 C1913 C 0.54988 0.21722 0.65376
 N1914 N 0.57580 0.21783 0.67531
 C1915 C 0.61431 0.24264 0.71373
 N1916 N 0.63790 0.22564 0.69984
 C1917 C 0.66802 0.22588 0.71238
 C1918 C 0.67654 0.24396 0.74131
 C1919 C 0.65230 0.26106 0.75694
 C1920 C 0.62120 0.26054 0.74321
 H1921 H 0.52064 0.28897 0.67095
 H1922 H 0.54564 0.19609 0.63995
 H1923 H 0.68550 0.21279 0.69847
 H1924 H 0.65757 0.27574 0.77880
 H1925 H 0.56746 0.28868 0.70950
 H1926 H 0.60302 0.27425 0.75525
 C1927 C 0.07897 0.73763 0.17866
 C1928 C 0.05812 0.76302 0.17944
 C1929 C 0.03163 0.76394 0.15705
 C1930 C 0.02573 0.73981 0.13345
 C1931 C 0.04564 0.71329 0.13666
 N1932 N 0.07178 0.71341 0.15788
 C1933 C 0.11062 0.73845 0.19551
 N1934 N 0.13526 0.72701 0.17729
 C1935 C 0.16555 0.72838 0.18909
 C1936 C 0.17284 0.74136 0.22180
 C1937 C 0.14764 0.75298 0.24144
 C1938 C 0.11649 0.75182 0.22823
 H1939 H 0.01654 0.78446 0.15663
 H1940 H 0.04129 0.69269 0.12193
 H1941 H 0.18383 0.71897 0.17274
 H1942 H 0.15202 0.76330 0.26665
 H1943 H 0.06324 0.78284 0.19538
 H1944 H 0.09729 0.76111 0.24340
   
