data_POSCAR
  _audit_creation_date              2014-09-24
  _audit_creation_method            'ToBaCCo'
  _symmetry_space_group_name_H-M    'P1'
  _symmetry_Int_Tables_number       1
  _symmetry_cell_setting            triclinic
  loop_
  _symmetry_equiv_pos_as_xyz
 x,y,z
_cell_length_a 43.2605
_cell_length_b 43.1533
_cell_length_c 43.5272
_cell_angle_alpha 89.884900
_cell_angle_beta 90.216200
_cell_angle_gamma 89.806600
loop_
  _atom_site_label
  _atom_site_type_symbol
  _atom_site_fract_x
  _atom_site_fract_y
  _atom_site_fract_z
C1 C 0.18619 0.21359 0.22944
 C2 C 0.19117 0.23304 0.20411
 C3 C 0.21604 0.22766 0.18425
 C4 C 0.23596 0.20256 0.18981
 C5 C 0.23119 0.18295 0.21505
 C6 C 0.20624 0.18855 0.23478
 H7 H 0.17578 0.25237 0.19965
 H8 H 0.25516 0.19807 0.17457
 H9 H 0.20224 0.17350 0.25428
 C10 C 0.68140 0.71149 0.73118
 C11 C 0.68650 0.73138 0.70620
 C12 C 0.71147 0.72629 0.68636
 C13 C 0.73141 0.70118 0.69170
 C14 C 0.72654 0.68116 0.71660
 C15 C 0.70145 0.68639 0.73624
 H16 H 0.67109 0.75071 0.70220
 H17 H 0.75075 0.69719 0.67642
 H18 H 0.69734 0.67104 0.75548
 C19 C 0.31447 0.78800 0.72835
 C20 C 0.29431 0.81315 0.73245
 C21 C 0.26974 0.81833 0.71188
 C22 C 0.26547 0.79795 0.68712
 C23 C 0.28551 0.77276 0.68283
 C24 C 0.30995 0.76786 0.70353
 H25 H 0.29757 0.82874 0.75163
 H26 H 0.24661 0.80140 0.67106
 H27 H 0.32550 0.74842 0.70052
 C28 C 0.81705 0.28706 0.23341
 C29 C 0.81227 0.26672 0.20871
 C30 C 0.78723 0.27104 0.18859
 C31 C 0.76679 0.29580 0.19331
 C32 C 0.77125 0.31627 0.21787
 C33 C 0.79634 0.31177 0.23789
 H34 H 0.82812 0.24758 0.20525
 H35 H 0.74746 0.29897 0.17775
 H36 H 0.79949 0.32766 0.25683
 C37 C 0.81807 0.71508 0.26969
 C38 C 0.79781 0.69023 0.26492
 C39 C 0.77318 0.68506 0.28512
 C40 C 0.76893 0.70490 0.31021
 C41 C 0.78906 0.72976 0.31524
 C42 C 0.81356 0.73481 0.29485
 H43 H 0.80117 0.67500 0.24556
 H44 H 0.74994 0.70093 0.32589
 H45 H 0.82920 0.75400 0.29838
 C46 C 0.31901 0.21679 -0.23147
 C47 C 0.31391 0.23639 -0.20624
 C48 C 0.28891 0.23124 -0.18647
 C49 C 0.26891 0.20640 -0.19205
 C50 C 0.27374 0.18667 -0.21710
 C51 C 0.29884 0.19191 -0.23669
 H52 H 0.32929 0.25555 -0.20190
 H53 H 0.24956 0.20239 -0.17682
 H54 H 0.30282 0.17668 -0.25602
 C55 C 0.68207 0.28322 -0.22958
 C56 C 0.68670 0.26398 -0.20389
 C57 C 0.71125 0.26945 -0.18350
 C58 C 0.73131 0.29427 -0.18893
 C59 C 0.72695 0.31368 -0.21444
 C60 C 0.70226 0.30811 -0.23463
 H61 H 0.67128 0.24484 -0.19968
 H62 H 0.75034 0.29852 -0.17323
 H63 H 0.69862 0.32307 -0.25432
 C64 C 0.18598 0.78675 0.26776
 C65 C 0.20623 0.81144 0.26236
 C66 C 0.23147 0.81670 0.28205
 C67 C 0.23617 0.79698 0.30735
 C68 C 0.21601 0.77223 0.31295
 C69 C 0.19096 0.76724 0.29309
 H70 H 0.20204 0.82645 0.24283
 H71 H 0.25550 0.80107 0.32267
 H72 H 0.17538 0.74821 0.29758
 C73 C 0.46067 0.43513 0.47935
 C74 C 0.43579 0.45558 0.48355
 C75 C 0.43119 0.48056 0.46338
 C76 C 0.45176 0.48509 0.43896
 C77 C 0.47671 0.46478 0.43458
 C78 C 0.48106 0.43987 0.45487
 H79 H 0.41994 0.45220 0.50243
 H80 H 0.44855 0.50434 0.42329
 H81 H 0.50028 0.42408 0.45181
 C82 C -0.03559 -0.05942 0.97646
 C83 C -0.06059 -0.03937 0.98149
 C84 C -0.06622 -0.01425 0.96168
 C85 C -0.04637 -0.00928 0.93668
 C86 C -0.02128 -0.02923 0.93148
 C87 C -0.01604 -0.05428 0.95138
 H88 H -0.07573 -0.04340 1.00088
 H89 H -0.05035 0.00997 0.92127
 H90 H 0.00328 -0.06966 0.94717
 C91 C 1.03515 0.56906 0.97940
 C92 C 1.01494 0.56407 0.95465
 C93 C 1.01941 0.53882 0.93489
 C94 C 1.04418 0.51845 0.94015
 C95 C 1.06444 0.52314 0.96488
 C96 C 1.05985 0.54850 0.98443
 H97 H 0.99586 0.57992 0.95091
 H98 H 1.04770 0.49890 0.92495
 H99 H 1.07544 0.55222 1.00349
 C100 C 0.53988 0.06339 0.47879
 C101 C 0.51977 0.05911 0.45386
 C102 C 0.52414 0.03435 0.43353
 C103 C 0.54877 0.01369 0.43833
 C104 C 0.56912 0.01769 0.46323
 C105 C 0.56446 0.04261 0.48342
 H106 H 0.50078 0.07515 0.45044
 H107 H 0.55183 -0.00540 0.42255
 H108 H 0.58002 0.04569 0.50270
 C109 C -0.03709 0.06413 0.51969
 C110 C -0.01718 0.05910 0.54467
 C111 C -0.02185 0.03408 0.56465
 C112 C -0.04670 0.01394 0.55951
 C113 C -0.06679 0.01862 0.53450
 C114 C -0.06184 0.04383 0.51466
 H115 H 0.00198 0.07474 0.54860
 H116 H -0.05056 -0.00537 0.57491
 H117 H -0.07715 0.04774 0.49538
 C118 C 0.46272 0.56265 0.02382
 C119 C 0.43775 0.54260 0.01903
 C120 C 0.43259 0.51764 0.03900
 C121 C 0.45271 0.51273 0.06389
 C122 C 0.47777 0.53264 0.06889
 C123 C 0.48263 0.55759 0.04883
 H124 H 0.42226 0.54646 -0.00025
 H125 H 0.44887 0.49352 0.07934
 H126 H 0.50192 0.57296 0.05288
 C127 C 0.53729 -0.06924 0.01789
 C128 C 0.56197 -0.04868 0.01321
 C129 C 0.56674 -0.02374 0.03329
 C130 C 0.54675 -0.01945 0.05818
 C131 C 0.52206 -0.03975 0.06311
 C132 C 0.51737 -0.06452 0.04286
 H133 H 0.57742 -0.05197 -0.00595
 H134 H 0.55044 -0.00025 0.07378
 H135 H 0.49827 -0.08025 0.04643
 C136 C 1.03477 0.43477 0.52102
 C137 C 1.01542 0.43982 0.54628
 C138 C 1.02050 0.46497 0.56596
 C139 C 1.04520 0.48514 0.56027
 C140 C 1.06477 0.48034 0.53503
 C141 C 1.05941 0.45502 0.51554
 H142 H 0.99641 0.42425 0.55082
 H143 H 1.04935 0.50455 0.57543
 H144 H 1.07428 0.45076 0.49606
 C145 C 0.42745 0.01236 0.20827
 H146 H 0.42966 0.03249 0.22289
 C147 C 0.44752 0.00831 0.18355
 H148 H 0.46509 0.02551 0.17918
 C149 C 0.40193 -0.03472 0.19654
 H150 H 0.38443 -0.05164 0.20188
 C151 C 0.42146 -0.03959 0.17152
 H152 H 0.41872 -0.06015 0.15755
 N153 N 0.40504 -0.00887 0.21413
 C154 C 0.33123 0.03938 0.26263
 H155 H 0.32915 0.02495 0.28287
 C156 C 0.31111 0.06438 0.25825
 H157 H 0.29352 0.06931 0.27521
 C158 C 0.35630 0.05028 0.21552
 H159 H 0.37360 0.04446 0.19866
 C160 C 0.33673 0.07556 0.21030
 H161 H 0.33937 0.08905 0.18952
 Zn162 Zn 0.37930 -0.00185 0.24852
 N163 N 0.35345 0.03298 0.24152
 C164 C 0.40258 0.03080 0.30043
 N165 N 0.40542 0.00493 0.28283
 C166 C 0.42781 -0.01653 0.28861
 C167 C 0.44816 -0.01269 0.31327
 C168 C 0.42238 0.03547 0.32539
 C169 C 0.33099 -0.04260 0.23456
 C170 C 0.31080 -0.06737 0.23901
 C171 C 0.33683 -0.07879 0.28693
 C172 C 0.35647 -0.05374 0.28163
 N173 N 0.35344 -0.03642 0.25562
 H174 H 0.38507 0.04790 0.29514
 H175 H 0.42980 -0.03668 0.27399
 H176 H 0.46571 -0.03008 0.31759
 H177 H 0.41985 0.05605 0.33938
 H178 H 0.32877 -0.02816 0.21432
 H179 H 0.29302 -0.07211 0.22210
 H180 H 0.33960 -0.09230 0.30771
 H181 H 0.37396 -0.04809 0.29845
 C182 C 0.31387 0.08280 0.23188
 C183 C 0.44452 -0.01791 0.16487
 C184 C 0.31373 -0.08578 0.26541
 C185 C 0.44543 0.01355 0.33197
 C186 C 0.07793 -0.01133 0.70782
 H187 H 0.07587 -0.03161 0.72230
 C188 C 0.05787 -0.00720 0.68294
 H189 H 0.04034 -0.02441 0.67816
 C190 C 0.10294 0.03615 0.69662
 H191 H 0.12023 0.05322 0.70227
 C192 C 0.08343 0.04111 0.67144
 H193 H 0.08606 0.06192 0.65783
 N194 N 0.10010 0.01008 0.71401
 C195 C 0.17447 -0.03729 0.76317
 H196 H 0.17638 -0.02269 0.78326
 C197 C 0.19487 -0.06211 0.75924
 H198 H 0.21238 -0.06657 0.77649
 C199 C 0.14941 -0.04889 0.71606
 H200 H 0.13196 -0.04346 0.69908
 C201 C 0.16926 -0.07399 0.71130
 H202 H 0.16682 -0.08794 0.69078
 Zn203 Zn 0.12587 0.00313 0.74860
 N204 N 0.15213 -0.03134 0.74186
 C205 C 0.10314 -0.03021 0.80015
 N206 N 0.09992 -0.00416 0.78275
 C207 C 0.07735 0.01700 0.78868
 C208 C 0.05730 0.01267 0.81336
 C209 C 0.08365 -0.03537 0.82513
 C210 C 0.17384 0.04420 0.73496
 C211 C 0.19388 0.06907 0.73950
 C212 C 0.16772 0.08035 0.78713
 C213 C 0.14823 0.05519 0.78177
 N214 N 0.15140 0.03790 0.75585
 H215 H 0.12074 -0.04709 0.79470
 H216 H 0.07500 0.03728 0.77419
 H217 H 0.03948 0.02971 0.81797
 H218 H 0.08662 -0.05614 0.83877
 H219 H 0.17617 0.02977 0.71480
 H220 H 0.21167 0.07390 0.72273
 H221 H 0.16485 0.09384 0.80784
 H222 H 0.13074 0.04944 0.79844
 C223 C 0.19224 -0.08076 0.73306
 C224 C 0.06065 0.01920 0.66441
 C225 C 0.19081 0.08746 0.76579
 C226 C 0.06050 -0.01368 0.83194
 C227 C 0.57721 0.48701 0.21217
 H228 H 0.57489 0.46687 0.22682
 C229 C 0.55730 0.49110 0.18718
 H230 H 0.53963 0.47401 0.18247
 C231 C 0.60264 0.53421 0.20075
 H232 H 0.61999 0.55122 0.20638
 C233 C 0.58328 0.53913 0.17545
 H234 H 0.58612 0.55984 0.16172
 N235 N 0.59949 0.50830 0.21833
 C236 C 0.67288 0.46096 0.26898
 H237 H 0.67460 0.47573 0.28896
 C238 C 0.69339 0.43618 0.26539
 H239 H 0.71079 0.43189 0.28281
 C240 C 0.64831 0.44900 0.22171
 H241 H 0.63106 0.45432 0.20449
 C242 C 0.66825 0.42392 0.21730
 H243 H 0.66607 0.40986 0.19683
 Zn244 Zn 0.62476 0.50159 0.25330
 N245 N 0.65079 0.46678 0.24738
 C246 C 0.60077 0.46932 0.30496
 N247 N 0.59821 0.49514 0.28713
 C248 C 0.57573 0.51662 0.29222
 C249 C 0.55493 0.51282 0.31637
 C250 C 0.58051 0.46469 0.32943
 C251 C 0.67312 0.54207 0.23955
 C252 C 0.69322 0.56692 0.24383
 C253 C 0.66681 0.57906 0.29113
 C254 C 0.64723 0.55391 0.28601
 N255 N 0.65050 0.53622 0.26037
 H256 H 0.61836 0.45221 0.30021
 H257 H 0.57398 0.53671 0.27740
 H258 H 0.53726 0.53017 0.32013
 H259 H 0.58277 0.44412 0.34358
 H260 H 0.67550 0.52733 0.21962
 H261 H 0.71112 0.57144 0.22709
 H262 H 0.66386 0.59291 0.31159
 H263 H 0.62958 0.54851 0.30263
 C264 C 0.69112 0.41740 0.23927
 C265 C 0.56034 0.51737 0.16850
 C266 C 0.69006 0.58573 0.26982
 C267 C 0.55730 0.48658 0.33525
 C268 C 0.92316 0.51078 0.70985
 H269 H 0.92538 0.53115 0.72414
 C270 C 0.94298 0.50650 0.68497
 H271 H 0.96049 0.52366 0.68001
 C272 C 0.89790 0.46335 0.69907
 H273 H 0.88058 0.44637 0.70485
 C274 C 0.91717 0.45823 0.67390
 H275 H 0.91432 0.43739 0.66044
 N276 N 0.90094 0.48950 0.71622
 C277 C 0.82674 0.53779 0.76405
 H278 H 0.82467 0.52344 0.78434
 C279 C 0.80652 0.56268 0.75950
 H280 H 0.78886 0.56760 0.77640
 C281 C 0.85194 0.54865 0.71699
 H282 H 0.86935 0.54287 0.70023
 C283 C 0.83228 0.57383 0.71162
 H284 H 0.83494 0.58730 0.69083
 Zn285 Zn 0.87519 0.49690 0.75055
 N286 N 0.84908 0.53144 0.74305
 C287 C 0.89811 0.53080 0.80175
 N288 N 0.90119 0.50451 0.78480
 C289 C 0.92370 0.48336 0.79120
 C290 C 0.94394 0.48797 0.81583
 C291 C 0.91778 0.53625 0.82665
 C292 C 0.82709 0.45579 0.73714
 C293 C 0.80700 0.43098 0.74184
 C294 C 0.83304 0.42017 0.78988
 C295 C 0.85259 0.44525 0.78434
 N296 N 0.84950 0.46227 0.75814
 H297 H 0.88052 0.54766 0.79598
 H298 H 0.92590 0.46287 0.77709
 H299 H 0.96161 0.47084 0.82064
 H300 H 0.91507 0.55717 0.84010
 H301 H 0.82482 0.46999 0.71674
 H302 H 0.78926 0.42598 0.72495
 H303 H 0.83585 0.40687 0.81080
 H304 H 0.87006 0.45114 0.80108
 C305 C 0.80933 0.58105 0.73311
 C306 C 0.93993 0.48006 0.66662
 C307 C 0.80998 0.41286 0.76842
 C308 C 0.94098 0.51469 0.83385
 C309 C 0.20661 0.42180 0.01234
 H310 H 0.22112 0.42411 0.03250
 C311 C 0.18181 0.44206 0.00775
 H312 H 0.17711 0.46001 0.02447
 C313 C 0.19532 0.39597 -0.03438
 H314 H 0.20093 0.37830 -0.05099
 C315 C 0.17020 0.41568 -0.03979
 H316 H 0.15659 0.41282 -0.06048
 N317 N 0.21273 0.39915 -0.00848
 C318 C 0.26157 0.32517 0.04001
 H319 H 0.28183 0.32281 0.02570
 C320 C 0.25737 0.30532 0.06500
 H321 H 0.27449 0.28764 0.07003
 C322 C 0.21428 0.35080 0.05072
 H323 H 0.19731 0.36826 0.04487
 C324 C 0.20925 0.33152 0.07600
 H325 H 0.18849 0.33450 0.08946
 Zn326 Zn 0.24740 0.37333 -0.00096
 N327 N 0.24030 0.34757 0.03354
 C328 C 0.29919 0.39652 0.03210
 N329 N 0.28173 0.39946 0.00619
 C330 C 0.28764 0.42196 -0.01490
 C331 C 0.31231 0.44231 -0.01062
 C332 C 0.32415 0.41630 0.03721
 C333 C 0.23389 0.32478 -0.04141
 C334 C 0.23842 0.30470 -0.06613
 C335 C 0.28631 0.33103 -0.07718
 C336 C 0.28095 0.35053 -0.05220
 N337 N 0.25488 0.34732 -0.03511
 H338 H 0.29380 0.37894 0.04891
 H339 H 0.27311 0.42405 -0.03509
 H340 H 0.31675 0.45996 -0.02770
 H341 H 0.33803 0.41368 0.05782
 H342 H 0.21357 0.32247 -0.02719
 H343 H 0.22141 0.28703 -0.07091
 H344 H 0.30704 0.33389 -0.09076
 H345 H 0.29768 0.36812 -0.04650
 C346 C 0.23104 0.30855 0.08336
 C347 C 0.16328 0.43899 -0.01852
 C348 C 0.26488 0.30787 -0.08433
 C349 C 0.33087 0.43946 0.01569
 C350 C 0.70830 0.07876 -0.01114
 H351 H 0.72290 0.07692 -0.03119
 C352 C 0.68370 0.05829 -0.00724
 H353 H 0.67925 0.04068 -0.02438
 C354 C 0.69659 0.10355 0.03597
 H355 H 0.70194 0.12089 0.05300
 C356 C 0.67167 0.08361 0.04071
 H357 H 0.65798 0.08600 0.06131
 N358 N 0.71412 0.10099 0.01020
 C359 C 0.76251 0.17621 -0.03604
 H360 H 0.78253 0.17840 -0.02124
 C361 C 0.75854 0.19643 -0.06086
 H362 H 0.77568 0.21410 -0.06512
 C363 C 0.71572 0.15051 -0.04827
 H364 H 0.69890 0.13283 -0.04314
 C365 C 0.71093 0.17016 -0.07337
 H366 H 0.69054 0.16735 -0.08761
 Zn367 Zn 0.74851 0.12720 0.00368
 N368 N 0.74141 0.15360 -0.03044
 C369 C 0.80047 0.10496 -0.02944
 N370 N 0.78328 0.10152 -0.00355
 C371 C 0.78976 0.07882 0.01726
 C372 C 0.81472 0.05876 0.01267
 C373 C 0.82568 0.08549 -0.03485
 C374 C 0.73397 0.17504 0.04445
 C375 C 0.73810 0.19514 0.06921
 C376 C 0.78632 0.16920 0.08084
 C377 C 0.78136 0.14966 0.05579
 N378 N 0.75535 0.15272 0.03835
 H379 H 0.79462 0.12265 -0.04606
 H380 H 0.77543 0.07631 0.03742
 H381 H 0.81959 0.04090 0.02949
 H382 H 0.83930 0.08848 -0.05547
 H383 H 0.71372 0.17723 0.02994
 H384 H 0.72083 0.21270 0.07372
 H385 H 0.80705 0.16655 0.09465
 H386 H 0.79839 0.13223 0.05025
 C387 C 0.73255 0.19333 -0.07987
 C388 C 0.66506 0.06072 0.01889
 C389 C 0.76456 0.19225 0.08768
 C390 C 0.83296 0.06211 -0.01366
 C391 C 0.20514 0.57911 0.48621
 H392 H 0.21947 0.57650 0.46605
 C393 C 0.18033 0.55910 0.49101
 H394 H 0.17544 0.54106 0.47444
 C395 C 0.19437 0.60538 0.53276
 H396 H 0.20019 0.62311 0.54924
 C397 C 0.16928 0.58592 0.53839
 H398 H 0.15590 0.58905 0.55909
 N399 N 0.21154 0.60185 0.50685
 C400 C 0.26080 0.67479 0.45800
 H401 H 0.28101 0.67705 0.47253
 C402 C 0.25678 0.69450 0.43282
 H403 H 0.27399 0.71196 0.42786
 C404 C 0.21344 0.64960 0.44696
 H405 H 0.19637 0.63238 0.45276
 C406 C 0.20858 0.66877 0.42149
 H407 H 0.18785 0.66593 0.40783
 Zn408 Zn 0.24629 0.62727 0.49931
 N409 N 0.23941 0.65268 0.46441
 C410 C 0.29821 0.60326 0.46714
 N411 N 0.28064 0.60079 0.49288
 C412 C 0.28646 0.57852 0.51433
 C413 C 0.31110 0.55791 0.51057
 C414 C 0.32316 0.58321 0.46255
 C415 C 0.23263 0.67655 0.53869
 C416 C 0.23694 0.69702 0.56312
 C417 C 0.28461 0.67045 0.57556
 C418 C 0.27949 0.65055 0.55082
 N419 N 0.25363 0.65371 0.53318
 H420 H 0.29289 0.62065 0.45004
 H421 H 0.27185 0.57681 0.53438
 H422 H 0.31545 0.54044 0.52791
 H423 H 0.33711 0.58545 0.44206
 H424 H 0.21247 0.67877 0.52406
 H425 H 0.21991 0.71492 0.56725
 H426 H 0.30516 0.66764 0.58960
 H427 H 0.29622 0.63268 0.54576
 C428 C 0.23049 0.69145 0.41421
 C429 C 0.16210 0.56249 0.51732
 C430 C 0.26317 0.69395 0.58188
 C431 C 0.32975 0.56025 0.48442
 C432 C 0.71127 0.91974 0.51663
 H433 H 0.72586 0.92151 0.53679
 C434 C 0.68671 0.94044 0.51246
 H435 H 0.68241 0.95802 0.52961
 C436 C 0.69953 0.89486 0.46952
 H437 H 0.70484 0.87740 0.45261
 C438 C 0.67468 0.91499 0.46452
 H439 H 0.66080 0.91276 0.44389
 N440 N 0.71707 0.89739 0.49541
 C441 C 0.76564 0.82213 0.54225
 H442 H 0.78586 0.81997 0.52784
 C443 C 0.76138 0.80170 0.56679
 H444 H 0.77849 0.78391 0.57125
 C445 C 0.71855 0.84783 0.55363
 H446 H 0.70169 0.86554 0.54822
 C447 C 0.71345 0.82797 0.57844
 H448 H 0.69280 0.83066 0.59219
 Zn449 Zn 0.75152 0.87105 0.50220
 N450 N 0.74449 0.84479 0.53631
 C451 C 0.80379 0.89337 0.53521
 N452 N 0.78619 0.89668 0.50943
 C453 C 0.79211 0.91935 0.48852
 C454 C 0.81691 0.93948 0.49288
 C455 C 0.82890 0.91296 0.54041
 C456 C 0.73705 0.82323 0.46133
 C457 C 0.74107 0.80334 0.43638
 C458 C 0.78904 0.82934 0.42491
 C459 C 0.78421 0.84864 0.45015
 N460 N 0.75835 0.84549 0.46757
 H461 H 0.79834 0.87568 0.55189
 H462 H 0.77744 0.92177 0.46847
 H463 H 0.82145 0.95743 0.47609
 H464 H 0.84268 0.90999 0.56099
 H465 H 0.71691 0.82096 0.47581
 H466 H 0.72383 0.78588 0.43169
 H467 H 0.80961 0.83212 0.41108
 H468 H 0.80118 0.86602 0.45580
 C469 C 0.73502 0.80464 0.58518
 C470 C 0.66815 0.93809 0.48613
 C471 C 0.76732 0.80642 0.41787
 C472 C 0.83562 0.93628 0.51903
 C473 C 0.01650 0.20937 0.42426
 H474 H 0.03666 0.22399 0.42639
 C475 C 0.01226 0.18471 0.44461
 H476 H 0.02933 0.18036 0.46232
 C477 C -0.03047 0.19758 0.39866
 H478 H -0.04728 0.20287 0.38101
 C479 C -0.03554 0.17262 0.41845
 H480 H -0.05612 0.15865 0.41576
 N481 N -0.00459 0.21516 0.40168
 C482 C 0.04331 0.26267 0.32744
 H483 H 0.02883 0.28300 0.32480
 C484 C 0.06818 0.25789 0.30762
 H485 H 0.07294 0.27464 0.28971
 C486 C 0.05450 0.21572 0.35364
 H487 H 0.04885 0.19908 0.37128
 C488 C 0.07966 0.21011 0.33439
 H489 H 0.09323 0.18926 0.33760
 Zn490 Zn 0.00250 0.24944 0.37549
 N491 N 0.03712 0.24183 0.35007
 C492 C 0.03536 0.30195 0.39751
 N493 N 0.00951 0.28438 0.40076
 C494 C -0.01158 0.29058 0.42304
 C495 C -0.00733 0.31564 0.44284
 C496 C 0.04042 0.32731 0.41674
 C497 C -0.03807 0.23492 0.32739
 C498 C -0.06299 0.23897 0.30728
 C499 C -0.07495 0.28719 0.33278
 C500 C -0.04973 0.28231 0.35233
 N501 N -0.03208 0.25631 0.34952
 H502 H 0.05219 0.29628 0.38014
 H503 H -0.03169 0.27595 0.42543
 H504 H -0.02427 0.32040 0.46048
 H505 H 0.06107 0.34104 0.41379
 H506 H -0.02341 0.21466 0.32542
 H507 H -0.06748 0.22166 0.28992
 H508 H -0.08897 0.30786 0.33529
 H509 H -0.04430 0.29935 0.36963
 C510 C 0.08668 0.23142 0.31113
 C511 C -0.01401 0.16603 0.44169
 C512 C -0.08174 0.26536 0.30999
 C513 C 0.01885 0.33434 0.43965
 C514 C -0.01573 0.71546 0.07472
 H515 H -0.03589 0.73029 0.07299
 C516 C -0.01214 0.69064 0.05448
 H517 H -0.02970 0.68638 0.03727
 C518 C 0.03187 0.70330 0.09915
 H519 H 0.04917 0.70851 0.11630
 C520 C 0.03629 0.67818 0.07948
 H521 H 0.05688 0.66399 0.08175
 N522 N 0.00600 0.72115 0.09666
 C523 C -0.03937 0.76971 0.17181
 H524 H -0.02472 0.78989 0.17374
 C525 C -0.06357 0.76538 0.19251
 H526 H -0.06754 0.78241 0.21027
 C527 C -0.05167 0.72274 0.14645
 H528 H -0.04672 0.70595 0.12878
 C529 C -0.07617 0.71759 0.16658
 H530 H -0.09016 0.69697 0.16413
 Zn531 Zn -0.00019 0.75567 0.12272
 N532 N -0.03404 0.74864 0.14922
 C533 C -0.03371 0.80819 0.10104
 N534 N -0.00785 0.79055 0.09737
 C535 C 0.01276 0.79665 0.07464
 C536 C 0.00802 0.82169 0.05481
 C537 C -0.03928 0.83352 0.08176
 C538 C 0.04151 0.74098 0.16988
 C539 C 0.06674 0.74505 0.18953
 C540 C 0.07815 0.79311 0.16347
 C541 C 0.05262 0.78823 0.14438
 N542 N 0.03508 0.76232 0.14769
 H543 H -0.05015 0.80260 0.11878
 H544 H 0.03288 0.78197 0.07194
 H545 H 0.02458 0.82639 0.03681
 H546 H -0.05991 0.84732 0.08504
 H547 H 0.02690 0.72084 0.17232
 H548 H 0.07165 0.72793 0.20713
 H549 H 0.09183 0.81382 0.16050
 H550 H 0.04678 0.80526 0.12710
 C551 C -0.08226 0.73905 0.18989
 C552 C 0.01413 0.67170 0.05688
 C553 C 0.08538 0.77131 0.18631
 C554 C -0.01820 0.84045 0.05839
 C555 C 0.48691 0.20840 0.57459
 H556 H 0.46671 0.22310 0.57242
 C557 C 0.49112 0.18364 0.55442
 H558 H 0.47395 0.17932 0.53684
 C559 C 0.53404 0.19653 0.60004
 H560 H 0.55093 0.20186 0.61756
 C561 C 0.53907 0.17145 0.58044
 H562 H 0.55971 0.15741 0.58312
 N563 N 0.50812 0.21423 0.59697
 C564 C 0.46064 0.26280 0.67079
 H565 H 0.47517 0.28304 0.67301
 C566 C 0.43587 0.25850 0.69078
 H567 H 0.43122 0.27552 0.70844
 C568 C 0.44921 0.21564 0.64537
 H569 H 0.45472 0.19877 0.62794
 C570 C 0.42413 0.21052 0.66481
 H571 H 0.41046 0.18977 0.66198
 Zn572 Zn 0.50103 0.24883 0.62268
 N573 N 0.46665 0.24164 0.64845
 C574 C 0.46757 0.30101 0.60004
 N575 N 0.49356 0.28346 0.59694
 C576 C 0.51455 0.28951 0.57455
 C577 C 0.51009 0.31440 0.55447
 C578 C 0.46228 0.32620 0.58052
 C579 C 0.54202 0.23498 0.67070
 C580 C 0.56678 0.23957 0.69083
 C581 C 0.57795 0.28768 0.66472
 C582 C 0.55289 0.28227 0.64517
 N583 N 0.53570 0.25610 0.64829
 H584 H 0.45084 0.29551 0.61754
 H585 H 0.53480 0.27491 0.57234
 H586 H 0.52711 0.31892 0.53690
 H587 H 0.44160 0.34014 0.58324
 H588 H 0.52768 0.21462 0.67298
 H589 H 0.57161 0.22264 0.70863
 H590 H 0.59135 0.30860 0.66192
 H591 H 0.54712 0.29912 0.62769
 C592 C 0.41726 0.23218 0.68775
 C593 C 0.51747 0.16487 0.55733
 C594 C 0.58505 0.26613 0.68783
 C595 C 0.48370 0.33305 0.55746
 C596 C 0.50992 0.70564 0.92463
 H597 H 0.53020 0.72005 0.92706
 C598 C 0.50530 0.68082 0.94467
 H599 H 0.52212 0.67601 0.96257
 C600 C 0.46300 0.69456 0.89863
 H601 H 0.44635 0.70022 0.88094
 C602 C 0.45755 0.66943 0.91813
 H603 H 0.43679 0.65587 0.91509
 N604 N 0.48904 0.71185 0.90198
 C605 C 0.53798 0.75955 0.82861
 H606 H 0.52359 0.77995 0.82602
 C607 C 0.56298 0.75485 0.80897
 H608 H 0.56794 0.77174 0.79123
 C609 C 0.54880 0.71235 0.85453
 H610 H 0.54295 0.69560 0.87200
 C611 C 0.57410 0.70682 0.83544
 H612 H 0.58760 0.68591 0.83858
 Zn613 Zn 0.49675 0.74627 0.87615
 N614 N 0.53154 0.73855 0.85102
 C615 C 0.53009 0.79815 0.89883
 N616 N 0.50392 0.78099 0.90170
 C617 C 0.48265 0.78747 0.92375
 C618 C 0.48710 0.81232 0.94377
 C619 C 0.53534 0.82330 0.91827
 C620 C 0.45679 0.73242 0.82747
 C621 C 0.43244 0.73695 0.80677
 C622 C 0.42063 0.78526 0.83217
 C623 C 0.44528 0.77990 0.85231
 N624 N 0.46261 0.75366 0.84979
 H625 H 0.54703 0.79232 0.88162
 H626 H 0.46225 0.77319 0.92578
 H627 H 0.46991 0.81716 0.96110
 H628 H 0.55619 0.83688 0.91574
 H629 H 0.47120 0.71196 0.82574
 H630 H 0.42814 0.71978 0.78922
 H631 H 0.40691 0.80617 0.83439
 H632 H 0.45060 0.79680 0.86979
 C633 C 0.58137 0.72830 0.81241
 C634 C 0.47893 0.66236 0.94138
 C635 C 0.41409 0.76366 0.80909
 C636 C 0.51372 0.83051 0.94105
 C637 C 0.10961 0.22226 0.25487
 C638 C 0.13596 0.24586 0.24975
 C639 C 0.15956 0.21905 0.25084
 C640 C 0.13347 0.19543 0.25573
 C641 C 0.16336 0.22296 0.28578
 C642 C 0.13949 0.24977 0.28493
 C643 C 0.11340 0.22615 0.28980
 C644 C 0.13700 0.19935 0.29090
 H645 H 0.08723 0.22193 0.24231
 H646 H 0.13513 0.26528 0.23303
 H647 H 0.13117 0.17303 0.24346
 H648 H 0.18573 0.22329 0.29834
 H649 H 0.14182 0.27217 0.29720
 H650 H 0.13787 0.17999 0.30769
 C651 C 0.60469 0.71979 0.75626
 C652 C 0.63109 0.74343 0.75166
 C653 C 0.65465 0.71659 0.75253
 C654 C 0.62852 0.69293 0.75691
 C655 C 0.65823 0.71999 0.78754
 C656 C 0.63440 0.74684 0.78691
 C657 C 0.60825 0.72318 0.79126
 C658 C 0.63181 0.69635 0.79216
 H659 H 0.58240 0.71966 0.74355
 H660 H 0.63034 0.76312 0.73524
 H661 H 0.62627 0.67071 0.74430
 H662 H 0.68052 0.72012 0.80025
 H663 H 0.63666 0.76906 0.79951
 H664 H 0.63250 0.67676 0.80870
 C665 C 0.37799 0.74946 0.75966
 C666 C 0.34386 0.75259 0.76975
 C667 C 0.34082 0.78220 0.75023
 C668 C 0.37468 0.77918 0.73993
 C669 C 0.35059 0.80229 0.77781
 C670 C 0.35391 0.77258 0.79755
 C671 C 0.38775 0.76954 0.78724
 C672 C 0.38472 0.79915 0.76771
 H673 H 0.38900 0.72764 0.75178
 H674 H 0.32676 0.73349 0.77048
 H675 H 0.38304 0.78204 0.71601
 H676 H 0.33967 0.82416 0.78568
 H677 H 0.34554 0.76972 0.82146
 H678 H 0.40182 0.81826 0.76696
 C679 C -0.11909 0.25030 0.26171
 C680 C -0.15295 0.25273 0.27290
 C681 C -0.15721 0.28225 0.25345
 C682 C -0.12366 0.27992 0.24204
 C683 C -0.14698 0.30262 0.28068
 C684 C -0.14240 0.27300 0.30033
 C685 C -0.10886 0.27064 0.28893
 C686 C -0.11314 0.30015 0.26947
 H687 H -0.10788 0.22871 0.25352
 H688 H -0.16959 0.23325 0.27425
 H689 H -0.11608 0.28291 0.21787
 H690 H -0.15790 0.32429 0.28905
 H691 H -0.14991 0.27000 0.32451
 H692 H -0.09647 0.31960 0.26814
 C693 C -0.14241 0.73101 0.20107
 C694 C -0.14591 0.70109 0.22038
 C695 C -0.15550 0.72093 0.24817
 C696 C -0.15226 0.75077 0.22907
 C697 C -0.12161 0.72334 0.25873
 C698 C -0.11176 0.70359 0.23075
 C699 C -0.10853 0.73341 0.21162
 C700 C -0.11808 0.75327 0.23940
 H701 H -0.15078 0.73431 0.17715
 H702 H -0.15695 0.67948 0.21210
 H703 H -0.16922 0.77012 0.22849
 H704 H -0.11325 0.72004 0.28266
 H705 H -0.09481 0.68423 0.23134
 H706 H -0.10686 0.77482 0.24759
 C707 C 0.39434 0.22402 0.74417
 C708 C 0.36817 0.24807 0.74894
 C709 C 0.34438 0.22157 0.74826
 C710 C 0.37027 0.19751 0.74376
 C711 C 0.34056 0.22511 0.71326
 C712 C 0.36464 0.25159 0.71369
 C713 C 0.39055 0.22753 0.70919
 C714 C 0.36675 0.20106 0.70852
 H715 H 0.41673 0.22351 0.75671
 H716 H 0.36936 0.26779 0.76522
 H717 H 0.37247 0.17522 0.75637
 H718 H 0.31821 0.22564 0.70066
 H719 H 0.36249 0.27386 0.70105
 H720 H 0.36574 0.18152 0.69203
 C721 C 0.60724 0.27500 0.74450
 C722 C 0.63361 0.25129 0.75006
 C723 C 0.65710 0.27807 0.74958
 C724 C 0.63099 0.30179 0.74427
 C725 C 0.66142 0.27432 0.71471
 C726 C 0.63764 0.24756 0.71493
 C727 C 0.61152 0.27127 0.70964
 C728 C 0.63501 0.29802 0.70915
 H729 H 0.58469 0.27533 0.75658
 H730 H 0.63238 0.23165 0.76649
 H731 H 0.62836 0.32414 0.75659
 H732 H 0.68394 0.27397 0.70257
 H733 H 0.64023 0.22522 0.70259
 H734 H 0.63599 0.31744 0.69245
 C735 C 0.10905 0.77953 0.24254
 C736 C 0.13521 0.75543 0.24739
 C737 C 0.15907 0.78183 0.24642
 C738 C 0.13319 0.80594 0.24181
 C739 C 0.16244 0.77815 0.21144
 C740 C 0.13830 0.75175 0.21216
 C741 C 0.11242 0.77587 0.20757
 C742 C 0.13629 0.80225 0.20660
 H743 H 0.08682 0.78015 0.25518
 H744 H 0.13438 0.73589 0.26397
 H745 H 0.13125 0.82827 0.25427
 H746 H 0.18467 0.77752 0.19881
 H747 H 0.14025 0.72941 0.19970
 H748 H 0.13718 0.82173 0.18996
 C749 C 0.29260 0.13308 0.20024
 C750 C 0.25713 0.12973 0.19708
 C751 C 0.25280 0.15612 0.22038
 C752 C 0.28803 0.15973 0.22353
 C753 C 0.25239 0.13272 0.24715
 C754 C 0.25697 0.10605 0.22387
 C755 C 0.29220 0.10966 0.22699
 C756 C 0.28789 0.13606 0.25031
 H757 H 0.30897 0.13370 0.18069
 H758 H 0.24421 0.12729 0.17514
 H759 H 0.30066 0.18209 0.22344
 H760 H 0.23604 0.13221 0.26672
 H761 H 0.24434 0.08370 0.22395
 H762 H 0.30081 0.13850 0.27225
 C763 C 0.78812 0.63148 0.70156
 C764 C 0.75267 0.62811 0.69826
 C765 C 0.74822 0.65435 0.72171
 C766 C 0.78344 0.65799 0.72500
 C767 C 0.74776 0.63078 0.74834
 C768 C 0.75245 0.60426 0.72491
 C769 C 0.78766 0.60790 0.72818
 C770 C 0.78323 0.63416 0.75163
 H771 H 0.80458 0.63220 0.68209
 H772 H 0.73982 0.62579 0.67626
 H773 H 0.79603 0.68036 0.72509
 H774 H 0.73137 0.63011 0.76786
 H775 H 0.73985 0.58189 0.72482
 H776 H 0.79607 0.63649 0.77363
 C777 C 0.78854 0.36316 0.80065
 C778 C 0.75306 0.36687 0.80336
 C779 C 0.74875 0.34021 0.78034
 C780 C 0.78399 0.33623 0.77765
 C781 C 0.74852 0.36328 0.75327
 C782 C 0.75307 0.39020 0.77627
 C783 C 0.78830 0.38623 0.77359
 C784 C 0.78401 0.35956 0.75057
 H785 H 0.80486 0.36271 0.82037
 H786 H 0.74006 0.36971 0.82512
 H787 H 0.79655 0.31376 0.77817
 H788 H 0.73230 0.36376 0.73348
 H789 H 0.74050 0.41266 0.77575
 H790 H 0.79700 0.35670 0.72881
 C791 C 0.29226 -0.13571 0.29718
 C792 C 0.25682 -0.13181 0.30024
 C793 C 0.25217 -0.15817 0.27696
 C794 C 0.28736 -0.16236 0.27391
 C795 C 0.25183 -0.13481 0.25012
 C796 C 0.25675 -0.10818 0.27339
 C797 C 0.29193 -0.11234 0.27038
 C798 C 0.28729 -0.13871 0.24710
 H799 H 0.30874 -0.13651 0.31676
 H800 H 0.24405 -0.12909 0.32215
 H801 H 0.29985 -0.18488 0.27406
 H802 H 0.23557 -0.13383 0.23037
 H803 H 0.24432 -0.08563 0.27323
 H804 H 0.30009 -0.14139 0.22520
 C805 C 0.24086 -0.11818 0.74839
 C806 C 0.22972 -0.15212 0.74561
 C807 C 0.24951 -0.15597 0.71657
 C808 C 0.26088 -0.12233 0.71926
 C809 C 0.22223 -0.14555 0.69610
 C810 C 0.20224 -0.14140 0.72523
 C811 C 0.21358 -0.10777 0.72795
 C812 C 0.23339 -0.11162 0.69892
 H813 H 0.24889 -0.10718 0.76999
 H814 H 0.22828 -0.16905 0.76478
 H815 H 0.28519 -0.11462 0.71666
 H816 H 0.21398 -0.15624 0.67442
 H817 H 0.17791 -0.14904 0.72783
 H818 H 0.23481 -0.09466 0.67977
 C819 C 0.74038 0.38085 0.25468
 C820 C 0.72984 0.34670 0.25214
 C821 C 0.74956 0.34302 0.22304
 C822 C 0.76032 0.37687 0.22549
 C823 C 0.72201 0.35284 0.20267
 C824 C 0.70207 0.35681 0.23185
 C825 C 0.71283 0.39065 0.23431
 C826 C 0.73258 0.38697 0.20522
 H827 H 0.74832 0.39213 0.27618
 H828 H 0.72882 0.32984 0.27140
 H829 H 0.78450 0.38493 0.22274
 H830 H 0.71403 0.34171 0.18111
 H831 H 0.67790 0.34875 0.23460
 H832 H 0.73362 0.40382 0.18595
 C833 C 0.71611 0.63853 0.25082
 C834 C 0.71613 0.66248 0.27727
 C835 C 0.75135 0.65849 0.28039
 C836 C 0.75158 0.63481 0.25395
 C837 C 0.74696 0.63239 0.30407
 C838 C 0.71149 0.63610 0.30094
 C839 C 0.71174 0.61242 0.27451
 C840 C 0.74696 0.60844 0.27761
 H841 H 0.70315 0.64090 0.22888
 H842 H 0.70362 0.68498 0.27708
 H843 H 0.76784 0.63383 0.23432
 H844 H 0.75992 0.63003 0.32601
 H845 H 0.69514 0.63702 0.32050
 H846 H 0.75948 0.58595 0.27781
 C847 C 0.21708 0.14046 0.74746
 C848 C 0.21682 0.16413 0.77415
 C849 C 0.25201 0.16012 0.77759
 C850 C 0.25253 0.13672 0.75091
 C851 C 0.24739 0.13378 0.80096
 C852 C 0.21195 0.13752 0.79751
 C853 C 0.21247 0.11411 0.77084
 C854 C 0.24766 0.11011 0.77426
 H855 H 0.20435 0.14305 0.72542
 H856 H 0.20430 0.18663 0.77405
 H857 H 0.26901 0.13600 0.73146
 H858 H 0.26012 0.13120 0.82301
 H859 H 0.19541 0.13828 0.81690
 H860 H 0.26019 0.08762 0.77436
 C861 C 0.22336 0.25200 0.10747
 C862 C 0.24729 0.24777 0.13369
 C863 C 0.22079 0.24879 0.15721
 C864 C 0.19685 0.25278 0.13128
 C865 C 0.22399 0.28416 0.16014
 C866 C 0.25049 0.28338 0.13633
 C867 C 0.22654 0.28736 0.11039
 C868 C 0.20006 0.28838 0.13393
 H869 H 0.22304 0.23892 0.08554
 H870 H 0.26699 0.23126 0.13320
 H871 H 0.17475 0.23993 0.12938
 H872 H 0.22431 0.29724 0.18207
 H873 H 0.27259 0.29624 0.13825
 H874 H 0.18040 0.30494 0.13448
 C875 C 0.72684 0.79465 0.64521
 C876 C 0.69718 0.77513 0.64911
 C877 C 0.71720 0.74742 0.65951
 C878 C 0.74679 0.76674 0.65588
 C879 C 0.71985 0.73602 0.62615
 C880 C 0.69992 0.76392 0.61547
 C881 C 0.72949 0.78327 0.61186
 C882 C 0.74953 0.75556 0.62222
 H883 H 0.72986 0.81898 0.65287
 H884 H 0.67550 0.78363 0.65975
 H885 H 0.76602 0.76778 0.67280
 H886 H 0.71683 0.71169 0.61850
 H887 H 0.68068 0.76285 0.59856
 H888 H 0.77115 0.74715 0.61140
 C889 C 0.77464 0.79761 0.35751
 C890 C 0.80421 0.77793 0.35282
 C891 C 0.78397 0.75057 0.34238
 C892 C 0.75448 0.77005 0.34678
 C893 C 0.78189 0.73858 0.37562
 C894 C 0.80203 0.76613 0.38634
 C895 C 0.77254 0.78562 0.39073
 C896 C 0.75231 0.75826 0.38030
 H897 H 0.77151 0.82210 0.35025
 H898 H 0.82571 0.78638 0.34184
 H899 H 0.73497 0.77156 0.33020
 H900 H 0.78501 0.71409 0.38287
 H901 H 0.82155 0.76460 0.40291
 H902 H 0.73086 0.74976 0.39134
 C903 C 0.30028 0.26762 -0.11508
 C904 C 0.28046 0.23998 -0.12619
 C905 C 0.28316 0.25197 -0.15938
 C906 C 0.30307 0.27942 -0.14855
 C907 C 0.25350 0.27132 -0.15556
 C908 C 0.25071 0.25954 -0.12208
 C909 C 0.27063 0.28699 -0.11128
 C910 C 0.27333 0.29897 -0.14446
 H911 H 0.31947 0.26617 -0.09814
 H912 H 0.28354 0.21550 -0.11887
 H913 H 0.32475 0.28801 -0.15905
 H914 H 0.23432 0.27275 -0.17252
 H915 H 0.22908 0.25100 -0.11143
 H916 H 0.27025 0.32344 -0.15179
 C917 C 0.69811 0.23362 -0.11208
 C918 C 0.71827 0.26115 -0.12280
 C919 C 0.71640 0.24898 -0.15595
 C920 C 0.69614 0.22164 -0.14551
 C921 C 0.74589 0.22958 -0.15098
 C922 C 0.74785 0.24153 -0.11752
 C923 C 0.72758 0.21419 -0.10713
 C924 C 0.72571 0.20204 -0.14027
 H925 H 0.67849 0.23521 -0.09579
 H926 H 0.71507 0.28568 -0.11581
 H927 H 0.67471 0.21297 -0.15657
 H928 H 0.76550 0.22801 -0.16728
 H929 H 0.76922 0.25006 -0.10623
 H930 H 0.72891 0.17752 -0.14727
 C931 C 0.25008 0.71611 0.36125
 C932 C 0.22355 0.71567 0.33729
 C933 C 0.22066 0.75110 0.34007
 C934 C 0.24719 0.75179 0.36376
 C935 C 0.19672 0.74756 0.36587
 C936 C 0.19961 0.71191 0.36336
 C937 C 0.22613 0.71260 0.38706
 C938 C 0.22327 0.74802 0.38984
 H939 H 0.27207 0.70291 0.35951
 H940 H 0.22372 0.70251 0.31540
 H941 H 0.26704 0.76799 0.36432
 H942 H 0.17473 0.76077 0.36760
 H943 H 0.17981 0.69565 0.36275
 H944 H 0.22309 0.76117 0.41173
 C945 C 0.27061 0.70411 0.64206
 C946 C 0.30035 0.72345 0.64652
 C947 C 0.28034 0.75136 0.65613
 C948 C 0.25069 0.73223 0.65195
 C949 C 0.27838 0.76257 0.62260
 C950 C 0.29828 0.73446 0.61270
 C951 C 0.26863 0.71532 0.60854
 C952 C 0.24863 0.74324 0.61815
 H953 H 0.26727 0.67985 0.64987
 H954 H 0.32176 0.71494 0.65788
 H955 H 0.23116 0.73142 0.66840
 H956 H 0.28172 0.78683 0.61479
 H957 H 0.31782 0.73528 0.59626
 H958 H 0.22726 0.75181 0.60674
 C959 C 0.77284 0.20219 0.14786
 C960 C 0.80229 0.22208 0.15188
 C961 C 0.78194 0.24957 0.16196
 C962 C 0.75258 0.22990 0.15823
 C963 C 0.77915 0.26088 0.12852
 C964 C 0.79940 0.23319 0.11815
 C965 C 0.77004 0.21351 0.11442
 C966 C 0.74970 0.24101 0.12452
 H967 H 0.77010 0.17784 0.15562
 H968 H 0.82406 0.21393 0.16281
 H969 H 0.73338 0.22865 0.17502
 H970 H 0.78189 0.28523 0.12074
 H971 H 0.81861 0.23446 0.10136
 H972 H 0.72797 0.24922 0.11355
 C973 C 0.49808 0.37026 0.50903
 C974 C 0.46843 0.37449 0.48945
 C975 C 0.46594 0.40820 0.50065
 C976 C 0.49549 0.40424 0.52004
 C977 C 0.44584 0.39804 0.52798
 C978 C 0.44844 0.36403 0.51699
 C979 C 0.47800 0.36009 0.53638
 C980 C 0.47549 0.39378 0.54759
 H981 H 0.51966 0.35914 0.50079
 H982 H 0.46537 0.36675 0.46533
 H983 H 0.51479 0.42109 0.52118
 H984 H 0.42422 0.40918 0.53610
 H985 H 0.42913 0.34719 0.51583
 H986 H 0.47854 0.40151 0.57171
 C987 C -0.05001 0.89113 0.03795
 C988 C -0.02634 0.91745 0.03289
 C989 C -0.03027 0.91379 -0.00205
 C990 C -0.05396 0.88775 0.00277
 C991 C -0.00365 0.89001 -0.00297
 C992 C 0.00029 0.89340 0.03222
 C993 C -0.02340 0.86735 0.03702
 C994 C -0.02732 0.86370 0.00208
 H995 H -0.06930 0.89201 0.05465
 H996 H -0.02588 0.93984 0.04540
 H997 H -0.07633 0.88560 -0.00962
 H998 H 0.01571 0.88913 -0.01959
 H999 H 0.02266 0.89557 0.04460
 H1000 H -0.02778 0.84131 -0.01043
 C1001 C -0.00172 0.63455 0.00865
 C1002 C 0.02756 0.63000 -0.01121
 C1003 C 0.03002 0.59632 0.00024
 C1004 C 0.00082 0.60057 0.01988
 C1005 C 0.05064 0.60648 0.02732
 C1006 C 0.04810 0.64043 0.01606
 C1007 C 0.01893 0.64467 0.03572
 C1008 C 0.02138 0.61100 0.04715
 H1009 H -0.02335 0.64589 0.00063
 H1010 H 0.03025 0.63762 -0.03542
 H1011 H -0.01858 0.58387 0.02134
 H1012 H 0.07235 0.59538 0.03547
 H1013 H 0.06752 0.65711 0.01457
 H1014 H 0.01869 0.60337 0.07136
 C1015 C 0.52517 0.10418 0.54711
 C1016 C 0.50513 0.09416 0.51931
 C1017 C 0.53468 0.09019 0.50016
 C1018 C 0.55481 0.09991 0.52774
 C1019 C 0.53246 0.12403 0.48916
 C1020 C 0.50281 0.12828 0.50851
 C1021 C 0.52293 0.13801 0.53610
 C1022 C 0.55248 0.13405 0.51694
 H1023 H 0.52203 0.09622 0.57115
 H1024 H 0.48569 0.07746 0.52018
 H1025 H 0.57634 0.08857 0.53601
 H1026 H 0.53560 0.13201 0.46511
 H1027 H 0.48133 0.13967 0.50017
 H1028 H 0.57192 0.15075 0.51605
 C1029 C -0.02182 0.10546 0.45178
 C1030 C -0.00191 0.09497 0.47959
 C1031 C -0.03153 0.09116 0.49863
 C1032 C -0.05153 0.10137 0.47103
 C1033 C -0.02918 0.12487 0.50981
 C1034 C 0.00054 0.12898 0.49054
 C1035 C -0.01947 0.13916 0.46294
 C1036 C -0.04909 0.13537 0.48201
 H1037 H -0.01865 0.09766 0.42771
 H1038 H 0.01745 0.07805 0.47870
 H1039 H -0.07310 0.09043 0.46256
 H1040 H -0.03235 0.13266 0.53388
 H1041 H 0.02205 0.14010 0.49893
 H1042 H -0.06845 0.15228 0.48293
 C1043 C 0.47058 0.63939 0.99784
 C1044 C 0.44390 0.61554 0.99744
 C1045 C 0.46765 0.58933 1.00217
 C1046 C 0.49430 0.61291 1.00280
 C1047 C 0.47104 0.58551 0.96721
 C1048 C 0.44732 0.61201 0.96224
 C1049 C 0.47397 0.63559 0.96289
 C1050 C 0.49770 0.60936 0.96760
 H1051 H 0.47033 0.66182 1.01028
 H1052 H 0.42173 0.61790 1.00999
 H1053 H 0.51392 0.61371 1.01925
 H1054 H 0.47128 0.56308 0.95477
 H1055 H 0.42778 0.61124 0.94568
 H1056 H 0.51987 0.60698 0.95505
 C1057 C 0.52221 0.89109 0.95087
 C1058 C 0.50237 0.90177 0.97849
 C1059 C 0.53205 0.90527 0.99774
 C1060 C 0.55198 0.89491 0.97033
 C1061 C 0.52938 0.87157 1.00903
 C1062 C 0.49962 0.86778 0.98955
 C1063 C 0.51952 0.85741 0.96213
 C1064 C 0.54918 0.86091 0.98140
 H1065 H 0.51910 0.89892 0.92674
 H1066 H 0.48315 0.91885 0.97735
 H1067 H 0.57368 0.90551 0.96187
 H1068 H 0.53249 0.86366 1.03313
 H1069 H 0.47801 0.85688 0.99784
 H1070 H 0.56838 0.84381 0.98252
 C1071 C 0.02738 0.35772 0.49594
 C1072 C 0.05372 0.38192 0.49519
 C1073 C 0.02970 0.40784 0.49978
 C1074 C 0.00337 0.38392 0.50077
 C1075 C 0.02582 0.41140 0.46480
 C1076 C 0.04984 0.38522 0.45998
 C1077 C 0.02353 0.36128 0.46096
 C1078 C -0.00051 0.38721 0.46554
 H1079 H 0.02808 0.33536 0.50858
 H1080 H 0.07608 0.37991 0.50765
 H1081 H -0.01601 0.38303 0.51737
 H1082 H 0.02513 0.43376 0.45215
 H1083 H 0.06918 0.38621 0.44334
 H1084 H -0.02286 0.38923 0.45307
 C1085 C 0.36645 0.51109 0.49982
 C1086 C 0.37064 0.49111 0.47063
 C1087 C 0.40434 0.50213 0.46834
 C1088 C 0.40044 0.52189 0.49745
 C1089 C 0.39441 0.52966 0.44796
 C1090 C 0.36043 0.51884 0.45034
 C1091 C 0.35654 0.53862 0.47944
 C1092 C 0.39023 0.54964 0.47714
 H1093 H 0.35520 0.50305 0.52126
 H1094 H 0.36276 0.46682 0.46781
 H1095 H 0.41720 0.52303 0.51678
 H1096 H 0.40556 0.53769 0.42647
 H1097 H 0.34368 0.51768 0.43099
 H1098 H 0.39810 0.57393 0.47996
 C1099 C 0.87093 0.01332 -0.00005
 C1100 C 0.87469 -0.00601 -0.02974
 C1101 C 0.90811 0.00572 -0.03269
 C1102 C 0.90465 0.02482 -0.00308
 C1103 C 0.89715 0.03347 -0.05228
 C1104 C 0.86345 0.02194 -0.04921
 C1105 C 0.85999 0.04106 -0.01963
 C1106 C 0.89339 0.05276 -0.02258
 H1107 H 0.86038 0.00469 0.02151
 H1108 H 0.86714 -0.03037 -0.03284
 H1109 H 0.92187 0.02594 0.01585
 H1110 H 0.90735 0.04235 -0.07391
 H1111 H 0.84620 0.02084 -0.06812
 H1112 H 0.90088 0.07714 -0.01948
 C1113 C 0.61267 0.03410 -0.00057
 C1114 C 0.61673 -0.00144 0.00230
 C1115 C 0.59308 -0.00161 0.02868
 C1116 C 0.58876 0.03369 0.02581
 C1117 C 0.61905 0.00293 0.05246
 C1118 C 0.64297 0.00334 0.02608
 C1119 C 0.63865 0.03862 0.02323
 C1120 C 0.61499 0.03846 0.04959
 H1121 H 0.61019 0.04720 -0.02242
 H1122 H 0.61786 -0.01763 -0.01743
 H1123 H 0.56619 0.04601 0.02564
 H1124 H 0.62152 -0.01016 0.07432
 H1125 H 0.66553 -0.00899 0.02625
 H1126 H 0.61385 0.05473 0.06926
 C1127 C 0.11241 0.54138 0.54947
 C1128 C 0.08568 0.53633 0.52626
 C1129 C 0.08982 0.50107 0.52977
 C1130 C 0.11625 0.50586 0.55300
 C1131 C 0.11298 0.50050 0.50294
 C1132 C 0.10913 0.53601 0.49945
 C1133 C 0.13557 0.54080 0.52267
 C1134 C 0.13967 0.50555 0.52616
 H1135 H 0.11179 0.55806 0.56881
 H1136 H 0.06323 0.54888 0.52624
 H1137 H 0.11907 0.49322 0.57508
 H1138 H 0.11387 0.48406 0.48340
 H1139 H 0.10635 0.54868 0.47739
 H1140 H 0.16214 0.49305 0.52617
 C1141 C 0.11300 0.46051 -0.05007
 C1142 C 0.08676 0.46577 -0.02654
 C1143 C 0.09086 0.50100 -0.03007
 C1144 C 0.11681 0.49599 -0.05362
 C1145 C 0.11455 0.50135 -0.00356
 C1146 C 0.11072 0.46588 -0.00002
 C1147 C 0.13669 0.46089 -0.02356
 C1148 C 0.14077 0.49611 -0.02709
 H1149 H 0.11197 0.44384 -0.06941
 H1150 H 0.06427 0.45346 -0.02627
 H1151 H 0.11914 0.50865 -0.07571
 H1152 H 0.11564 0.51790 0.01588
 H1153 H 0.10836 0.45322 0.02207
 H1154 H 0.16325 0.50843 -0.02737
 C1155 C 0.63167 0.98756 0.50069
 C1156 C 0.62807 1.00762 0.47134
 C1157 C 0.59430 0.99690 0.46840
 C1158 C 0.59760 0.97708 0.49765
 C1159 C 0.60423 0.96927 0.44828
 C1160 C 0.63829 0.97978 0.45135
 C1161 C 0.64160 0.95995 0.48059
 C1162 C 0.60784 0.94925 0.47763
 H1163 H 0.64271 0.99546 0.52233
 H1164 H 0.63627 1.03181 0.46861
 H1165 H 0.58060 0.97604 0.51666
 H1166 H 0.59351 0.96115 0.42656
 H1167 H 0.65531 0.98080 0.43237
 H1168 H 0.59971 0.92503 0.48036
 C1169 C 0.88596 0.95767 0.55028
 C1170 C 0.91217 0.96258 0.52664
 C1171 C 0.90806 0.99786 0.52980
 C1172 C 0.88215 0.99321 0.55346
 C1173 C 0.88431 0.99821 0.50331
 C1174 C 0.88814 0.96268 0.50017
 C1175 C 0.86222 0.95803 0.52381
 C1176 C 0.85814 0.99330 0.52696
 H1177 H 0.88701 0.94113 0.56980
 H1178 H 0.93462 0.95005 0.52644
 H1179 H 0.87980 1.00602 0.57543
 H1180 H 0.88297 1.01449 0.48359
 H1181 H 0.89045 0.94984 0.47822
 H1182 H 0.83566 1.00577 0.52715
 C1183 C 0.36798 0.48829 0.00118
 C1184 C 0.37202 0.50802 0.03059
 C1185 C 0.40562 0.49653 0.03337
 C1186 C 0.40188 0.47703 0.00406
 C1187 C 0.39532 0.46898 0.05339
 C1188 C 0.36144 0.48027 0.05051
 C1189 C 0.35771 0.46075 0.02121
 C1190 C 0.39130 0.44927 0.02399
 H1191 H 0.35698 0.49661 -0.02039
 H1192 H 0.36428 0.53239 0.03344
 H1193 H 0.41882 0.47580 -0.01500
 H1194 H 0.40616 0.46060 0.07501
 H1195 H 0.34451 0.48152 0.06957
 H1196 H 0.39904 0.42490 0.02114
 C1197 C 0.54598 0.47906 0.39514
 C1198 C 0.51813 0.49946 0.40473
 C1199 C 0.49845 0.47005 0.40826
 C1200 C 0.52610 0.44958 0.39894
 C1201 C 0.48786 0.47249 0.37456
 C1202 C 0.50776 0.50199 0.37074
 C1203 C 0.53540 0.48151 0.36145
 C1204 C 0.51570 0.45211 0.36497
 H1205 H 0.57011 0.48190 0.40343
 H1206 H 0.51900 0.51889 0.42139
 H1207 H 0.53409 0.42786 0.41016
 H1208 H 0.46373 0.46965 0.36629
 H1209 H 0.49984 0.52365 0.35937
 H1210 H 0.51480 0.43267 0.34833
 C1211 C 0.03990 -0.04492 0.88227
 C1212 C 0.03531 -0.02098 0.90830
 C1213 C 0.00008 -0.02430 0.90478
 C1214 C 0.00444 -0.04825 0.87901
 C1215 C -0.00076 0.00230 0.88113
 C1216 C 0.03472 0.00562 0.88438
 C1217 C 0.03907 -0.01833 0.85861
 C1218 C 0.00385 -0.02163 0.85508
 H1219 H 0.05648 -0.06457 0.88318
 H1220 H 0.04809 -0.02066 0.93045
 H1221 H -0.00829 -0.07044 0.87697
 H1222 H -0.01727 0.02200 0.88025
 H1223 H 0.04745 0.02782 0.88643
 H1224 H -0.00893 -0.02195 0.83293
 C1225 C 0.00382 0.02670 0.64106
 C1226 C 0.00389 0.05334 0.61715
 C1227 C -0.00023 0.02938 0.59136
 C1228 C -0.00054 0.00276 0.61499
 C1229 C 0.03503 0.02636 0.58793
 C1230 C 0.03939 0.05032 0.61400
 C1231 C 0.03908 0.02371 0.63763
 C1232 C 0.03497 -0.00026 0.61183
 H1233 H -0.00886 0.02690 0.66318
 H1234 H -0.00916 0.07542 0.61917
 H1235 H -0.01675 -0.01709 0.61580
 H1236 H 0.04771 0.02617 0.56581
 H1237 H 0.05568 0.07010 0.61316
 H1238 H 0.04803 -0.02235 0.60980
 C1239 C 0.53439 0.49791 0.11604
 C1240 C 0.49891 0.50130 0.11928
 C1241 C 0.49942 0.52781 0.09555
 C1242 C 0.53465 0.52443 0.09203
 C1243 C 0.50386 0.55184 0.12123
 C1244 C 0.50358 0.52531 0.14524
 C1245 C 0.53880 0.52194 0.14173
 C1246 C 0.53931 0.54845 0.11799
 H1247 H 0.54722 0.47569 0.11407
 H1248 H 0.48251 0.48161 0.12023
 H1249 H 0.54726 0.52402 0.06987
 H1250 H 0.49102 0.57406 0.12319
 H1251 H 0.49096 0.52573 0.16739
 H1252 H 0.55580 0.56807 0.11703
 C1253 C 0.45393 -0.02533 0.10461
 C1254 C 0.48149 -0.00508 0.09420
 C1255 C 0.50103 -0.03460 0.09003
 C1256 C 0.47368 -0.05494 0.10015
 C1257 C 0.51265 -0.03243 0.12340
 C1258 C 0.49290 -0.00281 0.12786
 C1259 C 0.46555 -0.02314 0.13797
 C1260 C 0.48511 -0.05266 0.13381
 H1261 H 0.42957 -0.02227 0.09707
 H1262 H 0.48010 0.01445 0.07761
 H1263 H 0.46538 -0.07653 0.08911
 H1264 H 0.53702 -0.03549 0.13094
 H1265 H 0.50122 0.01873 0.13898
 H1266 H 0.48652 -0.07220 0.15039
 C1267 C 0.96464 0.49942 0.61366
 C1268 C 1.00022 0.49644 0.61641
 C1269 C 0.99946 0.46976 0.59295
 C1270 C 0.96413 0.47274 0.58994
 C1271 C 0.99587 0.44586 0.61895
 C1272 C 0.99639 0.47256 0.64269
 C1273 C 0.96106 0.47551 0.63967
 C1274 C 0.96031 0.44885 0.61620
 H1275 H 0.95153 0.52149 0.61164
 H1276 H 1.01644 0.51629 0.61688
 H1277 H 0.95100 0.47288 0.56797
 H1278 H 1.00898 0.42379 0.62096
 H1279 H 1.00951 0.47242 0.66465
 H1280 H 0.94404 0.42904 0.61568
 C1281 C 0.95089 0.52364 0.89392
 C1282 C 0.97864 0.50359 0.90476
 C1283 C 0.99809 0.53316 0.90817
 C1284 C 0.97056 0.55331 0.89762
 C1285 C 1.00940 0.53013 0.87484
 C1286 C 0.98975 0.50045 0.87115
 C1287 C 0.96221 0.52058 0.86060
 C1288 C 0.98167 0.55016 0.86400
 H1289 H 0.92662 0.52082 0.90158
 H1290 H 0.97750 0.48448 0.92183
 H1291 H 0.96231 0.57518 0.90820
 H1292 H 1.03367 0.53294 0.86718
 H1293 H 0.99806 0.47862 0.86055
 H1294 H 0.98283 0.56927 0.84694
 C1295 C 0.45550 0.02080 0.39222
 C1296 C 0.48308 0.00023 0.40250
 C1297 C 0.50279 0.02953 0.40667
 C1298 C 0.47541 0.05018 0.39667
 C1299 C 0.51404 0.02730 0.37326
 C1300 C 0.49413 -0.00209 0.36881
 C1301 C 0.46675 0.01855 0.35882
 C1302 C 0.48647 0.04785 0.36297
 H1303 H 0.43120 0.01798 0.39982
 H1304 H 0.48179 -0.01931 0.41906
 H1305 H 0.46733 0.07184 0.40780
 H1306 H 0.53834 0.03011 0.36565
 H1307 H 0.50225 -0.02370 0.35763
 H1308 H 0.48778 0.06740 0.34642
   
