data_POSCAR
  _audit_creation_date              2014-09-24
  _audit_creation_method            'ToBaCCo'
  _symmetry_space_group_name_H-M    'P1'
  _symmetry_Int_Tables_number       1
  _symmetry_cell_setting            triclinic
  loop_
  _symmetry_equiv_pos_as_xyz
 x,y,z
_cell_length_a 51.0492
_cell_length_b 51.5754
_cell_length_c 53.7197
_cell_angle_alpha 90.200900
_cell_angle_beta 90.273400
_cell_angle_gamma 89.850800
loop_
  _atom_site_label
  _atom_site_type_symbol
  _atom_site_fract_x
  _atom_site_fract_y
  _atom_site_fract_z
C1 C 0.42995 0.02518 0.28388
 H2 H 0.42747 0.04258 0.27300
 C3 C 0.44639 0.02553 0.30480
 H4 H 0.45639 0.04333 0.30971
 C5 C 0.42013 -0.01903 0.29070
 H6 H 0.41007 -0.03650 0.28509
 C7 C 0.43629 -0.01951 0.31179
 H8 H 0.43770 -0.03718 0.32253
 N9 N 0.41670 0.00326 0.27753
 C10 C 0.39814 0.00567 0.19807
 H11 H 0.37697 0.00521 0.19868
 C12 C 0.41086 0.00884 0.17532
 H13 H 0.39914 0.01002 0.15852
 C14 C 0.43880 0.00451 0.21941
 H15 H 0.44960 0.00322 0.23671
 C16 C 0.45236 0.00788 0.19699
 H17 H 0.47352 0.00916 0.19740
 Zn18 Zn 0.39282 0.00311 0.24992
 N19 N 0.41214 0.00368 0.21957
 C20 C 0.38322 0.05622 0.24184
 N21 N 0.37150 0.03398 0.24962
 C22 C 0.34542 0.03367 0.25482
 C23 C 0.33034 0.05638 0.25281
 C24 C 0.36886 0.07924 0.23935
 C25 C 0.37321 -0.04584 0.23376
 C26 C 0.35972 -0.06931 0.23559
 C27 C 0.34365 -0.05590 0.27570
 C28 C 0.35733 -0.03248 0.27290
 N29 N 0.37175 -0.02781 0.25215
 H30 H 0.40377 0.05600 0.23705
 H31 H 0.33613 0.01581 0.26032
 H32 H 0.30963 0.05564 0.25699
 H33 H 0.37878 0.09666 0.23339
 H34 H 0.38552 -0.04244 0.21781
 H35 H 0.36314 -0.08312 0.22081
 H36 H 0.33201 -0.05800 0.29230
 H37 H 0.35676 -0.01812 0.28762
 C38 C 0.43837 0.01044 0.17450
 C39 C 0.44929 0.00312 0.31945
 C40 C 0.34422 -0.07514 0.25677
 C41 C 0.34201 0.07963 0.24491
 C42 C 0.06660 0.01085 0.71465
 H43 H 0.06415 0.02831 0.72560
 C44 C 0.05273 0.00800 0.69212
 H45 H 0.03987 0.02342 0.68592
 C46 C 0.08756 -0.02956 0.70835
 H47 H 0.10150 -0.04408 0.71403
 C48 C 0.07405 -0.03326 0.68604
 H49 H 0.07761 -0.05080 0.67543
 N50 N 0.08376 -0.00782 0.72236
 C51 C 0.09363 -0.00944 0.80338
 H52 H 0.11336 -0.01711 0.80359
 C53 C 0.08059 -0.00533 0.82582
 H54 H 0.09041 -0.01019 0.84310
 C55 C 0.05708 0.00623 0.78068
 H56 H 0.04806 0.01112 0.76311
 C57 C 0.04319 0.01055 0.80281
 H58 H 0.02366 0.01877 0.80199
 Zn59 Zn 0.10411 -0.00475 0.75266
 N60 N 0.08210 -0.00308 0.78137
 C61 C 0.13931 0.03176 0.77372
 N62 N 0.12526 0.02611 0.75275
 C63 C 0.12559 0.04242 0.73289
 C64 C 0.14013 0.06544 0.73380
 C65 C 0.15400 0.05461 0.77545
 C66 C 0.11475 -0.05831 0.75882
 C67 C 0.12939 -0.08121 0.75685
 C68 C 0.16793 -0.05548 0.74923
 C69 C 0.15243 -0.03305 0.75075
 N70 N 0.12623 -0.03483 0.75506
 H71 H 0.13910 0.01854 0.78925
 H72 H 0.11448 0.03772 0.71632
 H73 H 0.13974 0.07826 0.71788
 H74 H 0.16509 0.05851 0.79227
 H75 H 0.09389 -0.05928 0.76216
 H76 H 0.11979 -0.09973 0.75921
 H77 H 0.18864 -0.05376 0.74530
 H78 H 0.16121 -0.01429 0.74763
 C79 C 0.05527 0.00543 0.82581
 C80 C 0.05668 -0.01421 0.67732
 C81 C 0.15629 -0.07998 0.75170
 C82 C 0.15456 0.07192 0.75535
 C83 C 0.56586 0.51082 0.21429
 H84 H 0.56388 0.52817 0.22550
 C85 C 0.55181 0.50865 0.19181
 H86 H 0.53925 0.52444 0.18589
 C87 C 0.58599 0.47013 0.20720
 H88 H 0.59970 0.45526 0.21255
 C89 C 0.57229 0.46711 0.18491
 H90 H 0.57548 0.44974 0.17393
 N91 N 0.58278 0.49173 0.22152
 C92 C 0.59454 0.48895 0.30223
 H93 H 0.61412 0.48090 0.30189
 C94 C 0.58223 0.49324 0.32501
 H95 H 0.59243 0.48812 0.34202
 C96 C 0.55779 0.50571 0.28054
 H97 H 0.54846 0.51102 0.26323
 C98 C 0.54463 0.51023 0.30304
 H99 H 0.52534 0.51901 0.30276
 Zn100 Zn 0.60386 0.49428 0.25136
 N101 N 0.58258 0.49577 0.28056
 C102 C 0.63885 0.53119 0.27217
 N103 N 0.62494 0.52519 0.25122
 C104 C 0.62508 0.54135 0.23124
 C105 C 0.63919 0.56463 0.23205
 C106 C 0.65307 0.55434 0.27383
 C107 C 0.61450 0.44060 0.25675
 C108 C 0.62895 0.41764 0.25411
 C109 C 0.66731 0.44326 0.24546
 C110 C 0.65199 0.46576 0.24771
 N111 N 0.62595 0.46406 0.25286
 H112 H 0.63878 0.51809 0.28781
 H113 H 0.61412 0.53635 0.21467
 H114 H 0.63863 0.57733 0.21605
 H115 H 0.66398 0.55860 0.29067
 H116 H 0.59377 0.43968 0.26075
 H117 H 0.61934 0.39915 0.25666
 H118 H 0.68787 0.44494 0.24089
 H119 H 0.66074 0.48451 0.24451
 C120 C 0.55723 0.50469 0.32570
 C121 C 0.55533 0.48669 0.17658
 C122 C 0.65565 0.41877 0.24809
 C123 C 0.65334 0.57154 0.25363
 C124 C 0.93093 0.52262 0.78123
 H125 H 0.93115 0.53924 0.76909
 C126 C 0.94733 0.52232 0.80224
 H127 H 0.96040 0.53855 0.80498
 C128 C 0.91359 0.48185 0.79199
 H129 H 0.89987 0.46638 0.78876
 C130 C 0.92998 0.48046 0.81287
 H131 H 0.92777 0.46396 0.82504
 N132 N 0.91450 0.50249 0.77628
 C133 C 0.91175 0.48387 0.70012
 H134 H 0.89774 0.46847 0.70263
 C135 C 0.92693 0.48430 0.67850
 H136 H 0.92417 0.46912 0.66478
 C137 C 0.93077 0.52314 0.71389
 H138 H 0.93175 0.53870 0.72732
 C139 C 0.94647 0.52425 0.69259
 H140 H 0.95982 0.54035 0.69041
 Zn141 Zn 0.89246 0.50269 0.74680
 N142 N 0.91404 0.50297 0.71752
 C143 C 0.85900 0.53982 0.72396
 N144 N 0.87112 0.53352 0.74578
 C145 C 0.86926 0.54942 0.76597
 C146 C 0.85489 0.57258 0.76464
 C147 C 0.84455 0.56292 0.72177
 C148 C 0.88258 0.44824 0.74694
 C149 C 0.86798 0.42553 0.75010
 C150 C 0.82883 0.45163 0.75265
 C151 C 0.84426 0.47394 0.74986
 N152 N 0.87074 0.47196 0.74733
 H153 H 0.86081 0.52700 0.70807
 H154 H 0.87902 0.54423 0.78315
 H155 H 0.85405 0.58501 0.78091
 H156 H 0.83502 0.56742 0.70426
 H157 H 0.90364 0.44698 0.74500
 H158 H 0.87793 0.40696 0.75000
 H159 H 0.80787 0.45367 0.75499
 H160 H 0.83510 0.49286 0.75029
 C161 C 0.94479 0.50461 0.67447
 C162 C 0.94727 0.50093 0.81864
 C163 C 0.84072 0.42699 0.75321
 C164 C 0.84228 0.57975 0.74231
 C165 C 0.20334 0.37094 0.97512
 H166 H 0.20777 0.35622 0.96144
 C167 C 0.17987 0.38491 0.97292
 H168 H 0.16650 0.38025 0.95787
 C169 C 0.21499 0.39443 1.01135
 H170 H 0.22879 0.39823 1.02626
 C171 C 0.19176 0.40891 1.00982
 H172 H 0.18812 0.42382 1.02362
 N173 N 0.22018 0.37539 0.99445
 C174 C 0.30585 0.36292 1.00365
 H175 H 0.30661 0.34216 1.00585
 C176 C 0.32896 0.37731 1.00611
 H177 H 0.34721 0.36730 1.00992
 C178 C 0.28146 0.40100 0.99541
 H179 H 0.26295 0.41026 0.99126
 C180 C 0.30419 0.41612 0.99746
 H181 H 0.30277 0.43690 0.99498
 Zn182 Zn 0.25122 0.35399 0.99775
 N183 N 0.28256 0.37484 0.99866
 C184 C 0.26922 0.33394 0.95149
 N185 N 0.25197 0.33049 0.97037
 C186 C 0.23390 0.31112 0.96953
 C187 C 0.23212 0.29479 0.94873
 C188 C 0.26822 0.31798 0.93042
 C189 C 0.23410 0.34016 1.04664
 C190 C 0.23472 0.32611 1.06883
 C191 C 0.26808 0.29841 1.05133
 C192 C 0.26680 0.31301 1.02942
 N193 N 0.25031 0.33375 1.02756
 H194 H 0.28326 0.34958 0.95243
 H195 H 0.22037 0.30882 0.98480
 H196 H 0.21738 0.27973 0.94827
 H197 H 0.28157 0.32167 0.91525
 H198 H 0.22088 0.35640 1.04494
 H199 H 0.22217 0.33217 1.08397
 H200 H 0.28137 0.28205 1.05239
 H201 H 0.27899 0.30769 1.01382
 C202 C 0.32840 0.40433 1.00307
 C203 C 0.17350 0.40395 0.99065
 C204 C 0.25200 0.30499 1.07152
 C205 C 0.24928 0.29824 0.92868
 C206 C 0.78313 0.11010 0.97588
 H207 H 0.76986 0.11087 0.96013
 C208 C 0.80652 0.09582 0.97409
 H209 H 0.81012 0.08518 0.95707
 C210 C 0.79371 0.12305 1.01689
 H211 H 0.78928 0.13439 1.03327
 C212 C 0.81703 0.10876 1.01610
 H213 H 0.82990 0.11007 1.03209
 N214 N 0.77707 0.12330 0.99708
 C215 C 0.69158 0.13613 1.00073
 H216 H 0.69099 0.15701 1.00259
 C217 C 0.66847 0.12174 1.00326
 H218 H 0.65015 0.13182 1.00644
 C219 C 0.71627 0.09772 0.99485
 H220 H 0.73500 0.08832 0.99223
 C221 C 0.69360 0.08262 0.99701
 H222 H 0.69523 0.06172 0.99577
 Zn223 Zn 0.74611 0.14473 0.99736
 N224 N 0.71492 0.12402 0.99665
 C225 C 0.72869 0.17061 0.95281
 N226 N 0.74874 0.16696 0.96922
 C227 C 0.77260 0.17794 0.96539
 C228 C 0.77731 0.19264 0.94406
 C229 C 0.73240 0.18569 0.93146
 C230 C 0.74177 0.15198 1.04886
 C231 C 0.73991 0.16542 1.07138
 C232 C 0.74146 0.20576 1.04877
 C233 C 0.74371 0.19148 1.02657
 N234 N 0.74423 0.16505 1.02707
 H235 H 0.70996 0.16152 0.95603
 H236 H 0.78827 0.17465 0.97865
 H237 H 0.79659 0.20071 0.94104
 H238 H 0.71642 0.18805 0.91832
 H239 H 0.74158 0.13100 1.04874
 H240 H 0.73878 0.15468 1.08864
 H241 H 0.74173 0.22675 1.04827
 H242 H 0.74509 0.20153 1.00901
 C243 C 0.66925 0.09456 1.00146
 C244 C 0.82407 0.09462 0.99449
 C245 C 0.73992 0.19263 1.07152
 C246 C 0.75710 0.19656 0.92671
 C247 C 0.29976 0.62999 0.48023
 H248 H 0.29586 0.64514 0.46690
 C249 C 0.32332 0.61606 0.47862
 H250 H 0.33724 0.62119 0.46434
 C251 C 0.28680 0.60560 0.51521
 H252 H 0.27250 0.60150 0.52944
 C253 C 0.31002 0.59104 0.51415
 H254 H 0.31302 0.57570 0.52756
 N255 N 0.28217 0.62498 0.49860
 C256 C 0.19641 0.63606 0.50727
 H257 H 0.19548 0.65672 0.51031
 C258 C 0.17344 0.62141 0.50909
 H259 H 0.15515 0.63112 0.51331
 C260 C 0.22103 0.59852 0.49744
 H261 H 0.23956 0.58960 0.49282
 C262 C 0.19842 0.58317 0.49878
 H263 H 0.19994 0.56252 0.49535
 Zn264 Zn 0.25072 0.64591 0.50106
 N265 N 0.21974 0.62454 0.50178
 C266 C 0.23242 0.66352 0.45419
 N267 N 0.24936 0.66859 0.47317
 C268 C 0.26618 0.68901 0.47208
 C269 C 0.26674 0.70499 0.45105
 C270 C 0.23230 0.67898 0.43288
 C271 C 0.26725 0.66085 0.55001
 C272 C 0.26648 0.67537 0.57202
 C273 C 0.23305 0.70254 0.55377
 C274 C 0.23455 0.68754 0.53202
 N275 N 0.25115 0.66685 0.53061
 H276 H 0.21942 0.64706 0.45530
 H277 H 0.27950 0.69261 0.48742
 H278 H 0.28034 0.72104 0.45051
 H279 H 0.21918 0.67401 0.41772
 H280 H 0.28048 0.64458 0.54867
 H281 H 0.27902 0.66972 0.58739
 H282 H 0.21966 0.71883 0.55450
 H283 H 0.22239 0.69249 0.51619
 C284 C 0.17418 0.59455 0.50483
 C285 C 0.32899 0.59640 0.49590
 C286 C 0.24910 0.69647 0.57423
 C287 C 0.24972 0.70001 0.43099
 C288 C 0.71465 0.89138 0.47418
 H289 H 0.72874 0.89109 0.45920
 C290 C 0.69174 0.90636 0.47190
 H291 H 0.68868 0.91790 0.45534
 C292 C 0.70146 0.87650 0.51377
 H293 H 0.70479 0.86434 0.52980
 C294 C 0.67846 0.89130 0.51234
 H295 H 0.66461 0.89044 0.52751
 N296 N 0.71925 0.87697 0.49499
 C297 C 0.80450 0.86199 0.50027
 H298 H 0.80429 0.84107 0.50174
 C299 C 0.82817 0.87542 0.50308
 H300 H 0.84611 0.86461 0.50611
 C301 C 0.78129 0.90136 0.49487
 H302 H 0.76293 0.91149 0.49229
 C303 C 0.80457 0.91554 0.49731
 H304 H 0.80380 0.93649 0.49632
 Zn305 Zn 0.74991 0.85508 0.49607
 N306 N 0.78163 0.87501 0.49623
 C307 C 0.76727 0.83064 0.45097
 N308 N 0.74760 0.83276 0.46785
 C309 C 0.72455 0.81996 0.46450
 C310 C 0.72040 0.80460 0.44334
 C311 C 0.76406 0.81520 0.42969
 C312 C 0.75237 0.84795 0.54768
 C313 C 0.75443 0.83455 0.57013
 C314 C 0.75547 0.79424 0.54716
 C315 C 0.75292 0.80845 0.52503
 N316 N 0.75111 0.83483 0.52572
 H317 H 0.78529 0.84124 0.45377
 H318 H 0.70915 0.82212 0.47812
 H319 H 0.70182 0.79481 0.44089
 H320 H 0.77974 0.81415 0.41621
 H321 H 0.75165 0.86892 0.54771
 H322 H 0.75479 0.84530 0.58749
 H323 H 0.75645 0.77327 0.54647
 H324 H 0.75262 0.79839 0.50735
 C325 C 0.82849 0.90261 0.50161
 C326 C 0.67330 0.90663 0.49124
 C327 C 0.75592 0.80738 0.57005
 C328 C 0.74027 0.80212 0.42553
 C329 C 0.00623 0.27572 0.41845
 H330 H 0.01880 0.26037 0.42521
 C331 C 0.00365 0.29838 0.43214
 H332 H 0.01367 0.30006 0.44988
 C333 C -0.02096 0.29270 0.38636
 H334 H -0.02973 0.29044 0.36812
 C335 C -0.02361 0.31597 0.39919
 H336 H -0.03437 0.33174 0.39063
 N337 N -0.00587 0.27347 0.39600
 C338 C 0.02854 0.19964 0.38983
 H339 H 0.04095 0.20285 0.37400
 C340 C 0.03116 0.17677 0.40321
 H341 H 0.04507 0.16263 0.39641
 C342 C -0.00580 0.21363 0.41615
 H343 H -0.02015 0.22815 0.42115
 C344 C -0.00349 0.19145 0.43039
 H345 H -0.01568 0.18998 0.44672
 Zn346 Zn 0.00191 0.24541 0.37594
 N347 N 0.00955 0.21696 0.39590
 C348 C 0.03837 0.23735 0.33821
 N349 N 0.03038 0.25414 0.35617
 C350 C 0.04293 0.27696 0.36046
 C351 C 0.06515 0.28322 0.34695
 C352 C 0.06045 0.24282 0.32428
 C353 C -0.04941 0.23063 0.36853
 C354 C -0.07253 0.22686 0.35538
 C355 C -0.04960 0.23750 0.31745
 C356 C -0.02694 0.24128 0.33139
 N357 N -0.02733 0.23795 0.35646
 H358 H 0.02780 0.21948 0.33505
 H359 H 0.03613 0.29010 0.37473
 H360 H 0.07536 0.30117 0.35084
 H361 H 0.06722 0.22875 0.31073
 H362 H -0.04938 0.22873 0.38851
 H363 H -0.09025 0.22229 0.36545
 H364 H -0.04919 0.24066 0.29754
 H365 H -0.00945 0.24788 0.32222
 C366 C 0.01420 0.17179 0.42329
 C367 C -0.01060 0.31914 0.42206
 C368 C -0.07284 0.23078 0.32960
 C369 C 0.07428 0.26580 0.32893
 C370 C 0.01026 0.71728 0.08880
 H371 H 0.02668 0.73039 0.08732
 C372 C 0.00964 0.69478 0.07472
 H373 H 0.02592 0.69039 0.06256
 C374 C -0.03012 0.70653 0.10797
 H375 H -0.04538 0.71132 0.12109
 C376 C -0.03168 0.68381 0.09405
 H377 H -0.04828 0.67105 0.09643
 N378 N -0.00892 0.72212 0.10558
 C379 C -0.01764 0.78477 0.08800
 H380 H -0.03575 0.77392 0.08804
 C381 C -0.01484 0.80596 0.07240
 H382 H -0.03127 0.81201 0.06097
 C383 C 0.02556 0.79041 0.10360
 H384 H 0.04140 0.78390 0.11541
 C385 C 0.02936 0.81147 0.08808
 H386 H 0.04801 0.82143 0.08839
 Zn387 Zn -0.00356 0.75081 0.12534
 N388 N 0.00197 0.77831 0.10398
 C389 C 0.03211 0.76536 0.16094
 N390 N 0.02549 0.74561 0.14542
 C391 C 0.03930 0.72308 0.14464
 C392 C 0.06210 0.72054 0.15862
 C393 C 0.05479 0.76372 0.17515
 C394 C -0.04840 0.77664 0.14387
 C395 C -0.07014 0.77862 0.15926
 C396 C -0.05510 0.74049 0.18116
 C397 C -0.03413 0.73896 0.16493
 N398 N -0.03168 0.75639 0.14634
 H399 H 0.02026 0.78278 0.16141
 H400 H 0.03296 0.70722 0.13294
 H401 H 0.07342 0.70279 0.15745
 H402 H 0.06068 0.78020 0.18637
 H403 H -0.04547 0.79088 0.12950
 H404 H -0.08375 0.79397 0.15487
 H405 H -0.05522 0.72665 0.19618
 H406 H -0.01974 0.72367 0.16700
 C407 C 0.00865 0.81999 0.07295
 C408 C -0.01120 0.67746 0.07776
 C409 C -0.07467 0.75973 0.17790
 C410 C 0.07034 0.74133 0.17354
 C411 C 0.51379 0.22312 0.59206
 H412 H 0.53075 0.23559 0.59097
 C413 C 0.51258 0.20068 0.57784
 H414 H 0.52892 0.19571 0.56595
 C415 C 0.47262 0.21381 0.61038
 H416 H 0.45748 0.21884 0.62354
 C417 C 0.47050 0.19120 0.59636
 H418 H 0.45341 0.17901 0.59847
 N419 N 0.49420 0.22893 0.60813
 C420 C 0.49311 0.29006 0.58733
 H421 H 0.47594 0.27838 0.58417
 C422 C 0.49780 0.31115 0.57210
 H423 H 0.48330 0.31638 0.55821
 C424 C 0.53287 0.29724 0.60921
 H425 H 0.54679 0.29143 0.62326
 C426 C 0.53848 0.31845 0.59427
 H427 H 0.55641 0.32920 0.59737
 Zn428 Zn 0.49962 0.25792 0.62771
 N429 N 0.50977 0.28448 0.60635
 C430 C 0.53504 0.26999 0.66557
 N431 N 0.52596 0.25054 0.65080
 C432 C 0.53529 0.22591 0.65269
 C433 C 0.55579 0.22042 0.66896
 C434 C 0.55556 0.26541 0.68199
 C435 C 0.44632 0.27085 0.63185
 C436 C 0.42278 0.27392 0.64440
 C437 C 0.44632 0.26995 0.68337
 C438 C 0.46933 0.26673 0.67010
 N439 N 0.46890 0.26673 0.64478
 H440 H 0.52669 0.28923 0.66407
 H441 H 0.52716 0.21057 0.64134
 H442 H 0.56365 0.20092 0.66980
 H443 H 0.56359 0.28147 0.69255
 H444 H 0.44610 0.26994 0.61184
 H445 H 0.40473 0.27545 0.63383
 H446 H 0.44684 0.26904 0.70351
 H447 H 0.48718 0.26294 0.68020
 C448 C 0.52023 0.32620 0.57618
 C449 C 0.49091 0.18426 0.58022
 C450 C 0.42263 0.27266 0.67043
 C451 C 0.56657 0.24051 0.68329
 C452 C 0.51853 0.78402 0.91324
 H453 H 0.53787 0.77552 0.91186
 C454 C 0.51447 0.80532 0.92860
 H455 H 0.53087 0.81330 0.93892
 C456 C 0.47427 0.78537 0.89957
 H457 H 0.45884 0.77799 0.88775
 C458 C 0.46930 0.80665 0.91476
 H459 H 0.44996 0.81535 0.91472
 N460 N 0.49866 0.77478 0.89887
 C461 C 0.51378 0.69569 0.87971
 H462 H 0.50789 0.69607 0.86039
 C463 C 0.51746 0.67203 0.89138
 H464 H 0.51470 0.65429 0.88084
 C465 C 0.52127 0.71814 0.91772
 H466 H 0.52189 0.73599 0.92815
 C467 C 0.52504 0.69486 0.93017
 H468 H 0.52886 0.69501 0.95002
 Zn469 Zn 0.50617 0.74829 0.87624
 N470 N 0.51561 0.71810 0.89296
 C471 C 0.54285 0.74058 0.83922
 N472 N 0.53315 0.75864 0.85516
 C473 C 0.54280 0.78321 0.85597
 C474 C 0.56427 0.78986 0.84147
 C475 C 0.56397 0.74645 0.82422
 C476 C 0.45594 0.72972 0.86924
 C477 C 0.43241 0.72617 0.85660
 C478 C 0.45264 0.74353 0.81955
 C479 C 0.47563 0.74711 0.83300
 N480 N 0.47654 0.74083 0.85749
 H481 H 0.53449 0.72145 0.83838
 H482 H 0.53415 0.79761 0.86805
 H483 H 0.57249 0.80915 0.84281
 H484 H 0.57218 0.73147 0.81240
 H485 H 0.45752 0.72480 0.88875
 H486 H 0.41562 0.71887 0.86661
 H487 H 0.45194 0.74918 0.80016
 H488 H 0.49238 0.75577 0.82410
 C489 C 0.52262 0.67154 0.91697
 C490 C 0.48974 0.81717 0.92900
 C491 C 0.43043 0.73385 0.83164
 C492 C 0.57522 0.77114 0.82571
 C493 C -0.23233 0.68658 0.96542
 H494 H -0.21670 0.68767 0.97906
 C495 C -0.23211 0.70300 0.94468
 H496 H -0.21622 0.71666 0.94252
 C497 C -0.27164 0.66710 0.95135
 H498 H -0.28667 0.65264 0.95341
 C499 C -0.27233 0.68329 0.93054
 H500 H -0.28788 0.68093 0.91694
 N501 N -0.25201 0.66912 0.96851
 C502 C -0.25421 0.65280 1.04832
 H503 H -0.25621 0.63195 1.04722
 C504 C -0.25104 0.66478 1.07142
 H505 H -0.25204 0.65264 1.08776
 C506 C -0.25140 0.69319 1.02788
 H507 H -0.25106 0.70416 1.01079
 C508 C -0.24850 0.70614 1.05076
 H509 H -0.24565 0.72691 1.05051
 Zn510 Zn -0.25152 0.64695 0.99714
 N511 N -0.25331 0.66688 1.02707
 C512 C -0.20147 0.63248 1.01664
 N513 N -0.21899 0.62786 0.99791
 C514 C -0.21347 0.61017 0.97982
 C515 C -0.19018 0.59571 0.98069
 C516 C -0.17791 0.61862 1.01813
 C517 C -0.30561 0.63466 0.99546
 C518 C -0.32788 0.61905 0.99282
 C519 C -0.29990 0.58131 0.99338
 C520 C -0.27811 0.59767 0.99557
 N521 N -0.28121 0.62391 0.99606
 H522 H -0.20545 0.64722 1.03043
 H523 H -0.22736 0.60700 0.96485
 H524 H -0.18668 0.58131 0.96639
 H525 H -0.16426 0.62306 1.03301
 H526 H -0.30774 0.65552 0.99640
 H527 H -0.34705 0.62805 0.99204
 H528 H -0.29697 0.56052 0.99270
 H529 H -0.25877 0.58927 0.99680
 C530 C -0.24714 0.69187 1.07314
 C531 C -0.25236 0.70150 0.92689
 C532 C -0.32520 0.59197 0.99156
 C533 C -0.17192 0.59979 1.00008
 C534 C -0.25263 0.30731 0.53102
 H535 H -0.25087 0.29616 0.51404
 C536 C -0.25712 0.29507 0.55264
 H537 H -0.25914 0.27421 0.55235
 C538 C -0.25367 0.34891 0.55033
 H539 H -0.25316 0.36984 0.54925
 C540 C -0.25861 0.33635 0.57446
 H541 H -0.25956 0.34893 0.59057
 N542 N -0.25099 0.33517 0.53018
 C543 C -0.26974 0.33407 0.45443
 H544 H -0.28495 0.34844 0.45698
 C545 C -0.26950 0.31890 0.43281
 H546 H -0.28456 0.32213 0.41892
 C547 C -0.23073 0.31401 0.46866
 H548 H -0.21542 0.31256 0.48258
 C549 C -0.22987 0.29822 0.44740
 H550 H -0.21405 0.28437 0.44545
 Zn551 Zn -0.24938 0.35428 0.49978
 N552 N -0.25049 0.33148 0.47181
 C553 C -0.21231 0.38629 0.47575
 N554 N -0.21757 0.37387 0.49750
 C555 C -0.20025 0.37466 0.51681
 C556 C -0.17705 0.38892 0.51493
 C557 C -0.18919 0.40062 0.47299
 C558 C -0.30258 0.36630 0.50661
 C559 C -0.32480 0.38188 0.50990
 C560 C -0.29901 0.41914 0.49878
 C561 C -0.27714 0.40286 0.49624
 N562 N -0.27926 0.37691 0.50008
 H563 H -0.22618 0.38513 0.46049
 H564 H -0.20435 0.36425 0.53376
 H565 H -0.16361 0.38928 0.53058
 H566 H -0.18562 0.41070 0.45569
 H567 H -0.30381 0.34563 0.50975
 H568 H -0.34296 0.37238 0.51462
 H569 H -0.29612 0.43972 0.49628
 H570 H -0.25835 0.41113 0.49167
 C571 C -0.24932 0.30064 0.42892
 C572 C -0.26085 0.31025 0.57613
 C573 C -0.32351 0.40893 0.50604
 C574 C -0.17128 0.40233 0.49286
 C575 C 0.23816 -0.19252 0.03070
 H576 H 0.23310 -0.20206 0.01338
 C577 C 0.23712 -0.20580 0.05219
 H578 H 0.23181 -0.22610 0.05181
 C579 C 0.24982 -0.15325 0.05137
 H580 H 0.25369 -0.13264 0.05115
 C581 C 0.25066 -0.16738 0.07512
 H582 H 0.25543 -0.15644 0.09177
 N583 N 0.24533 -0.16548 0.03061
 C584 C 0.22622 -0.16648 -0.04510
 H585 H 0.21080 -0.15220 -0.04326
 C586 C 0.22735 -0.18217 -0.06637
 H587 H 0.21273 -0.17950 -0.08079
 C588 C 0.26491 -0.18590 -0.02927
 H589 H 0.27968 -0.18696 -0.01480
 C590 C 0.26670 -0.20209 -0.05015
 H591 H 0.28273 -0.21581 -0.05135
 Zn592 Zn 0.24583 -0.14561 0.00063
 N593 N 0.24496 -0.16848 -0.02716
 C594 C 0.28108 -0.11080 -0.02294
 N595 N 0.27770 -0.12571 -0.00229
 C596 C 0.29702 -0.12746 0.01520
 C597 C 0.31995 -0.11286 0.01305
 C598 C 0.30396 -0.09609 -0.02601
 C599 C 0.19219 -0.13494 0.00712
 C600 C 0.16943 -0.12005 0.01023
 C601 C 0.19458 -0.08176 0.00123
 C602 C 0.21697 -0.09739 -0.00118
 N603 N 0.21543 -0.12354 0.00160
 H604 H 0.26588 -0.11018 -0.03703
 H605 H 0.29494 -0.14032 0.03085
 H606 H 0.33487 -0.11440 0.02737
 H607 H 0.30600 -0.08395 -0.04228
 H608 H 0.19138 -0.15575 0.00943
 H609 H 0.15138 -0.13018 0.01402
 H610 H 0.19702 -0.06102 -0.00047
 H611 H 0.23565 -0.08843 -0.00484
 C612 C 0.24791 -0.20023 -0.06927
 C613 C 0.24492 -0.19295 0.07594
 C614 C 0.17008 -0.09283 0.00725
 C615 C 0.32360 -0.09666 -0.00762
 C616 C 0.26893 1.18540 0.46598
 H617 H 0.28472 1.18607 0.47947
 C618 C 0.26926 1.20201 0.44538
 H619 H 0.28542 1.21536 0.44321
 C620 C 0.22892 1.16708 0.45229
 H621 H 0.21342 1.15314 0.45455
 C622 C 0.22839 1.18341 0.43158
 H623 H 0.21257 1.18154 0.41819
 N624 N 0.24877 1.16854 0.46927
 C625 C 0.23986 1.15504 0.54912
 H626 H 0.23646 1.13434 0.54872
 C627 C 0.24107 1.16809 0.57189
 H628 H 0.23810 1.15731 0.58890
 C629 C 0.24855 1.19396 0.52747
 H630 H 0.25178 1.20398 0.51016
 C631 C 0.24982 1.20786 0.54992
 H632 H 0.25421 1.22838 0.54964
 Zn633 Zn 0.24815 1.14691 0.49832
 N634 N 0.24458 1.16783 0.52754
 C635 C 0.29474 1.12863 0.52248
 N636 N 0.28057 1.12764 0.50093
 C637 C 0.28929 1.11340 0.48126
 C638 C 0.31279 1.09928 0.48296
 C639 C 0.31805 1.11452 0.52512
 C640 C 0.19417 1.13455 0.49639
 C641 C 0.17193 1.11889 0.49390
 C642 C 0.20008 1.08126 0.49320
 C643 C 0.22186 1.09769 0.49521
 N644 N 0.21861 1.12388 0.49646
 H645 H 0.28805 1.14028 0.53791
 H646 H 0.27803 1.11308 0.46415
 H647 H 0.31940 1.08863 0.46678
 H648 H 0.32826 1.11522 0.54280
 H649 H 0.19197 1.15537 0.49782
 H650 H 0.15271 1.12781 0.49367
 H651 H 0.20306 1.06049 0.49205
 H652 H 0.24134 1.08945 0.49566
 C653 C 0.24696 1.19469 0.57256
 C654 C 0.24870 1.20125 0.42786
 C655 C 0.17470 1.09185 0.49219
 C656 C 0.32757 1.09946 0.50524
 C657 C 0.15324 0.47326 0.25150
 H658 H 0.16337 0.49164 0.25204
 C659 C 0.16746 0.45001 0.25440
 H660 H 0.18854 0.45067 0.25662
 C661 C 0.11354 0.44984 0.24865
 H662 H 0.09240 0.44987 0.24702
 C663 C 0.12696 0.42628 0.25091
 H664 H 0.11603 0.40831 0.25064
 N665 N 0.12671 0.47277 0.24850
 C666 C 0.12013 0.55354 0.26458
 H667 H 0.10581 0.54998 0.27890
 C668 C 0.13287 0.57753 0.26390
 H669 H 0.12820 0.59191 0.27794
 C670 C 0.14224 0.53982 0.22825
 H671 H 0.14554 0.52514 0.21417
 C672 C 0.15544 0.56368 0.22685
 H673 H 0.16924 0.56684 0.21194
 Zn674 Zn 0.10502 0.50343 0.24716
 N675 N 0.12506 0.53509 0.24703
 C676 C 0.09774 0.50055 0.29820
 N677 N 0.08407 0.50142 0.27645
 C678 C 0.05760 0.49808 0.27609
 C679 C 0.04398 0.49333 0.29829
 C680 C 0.08499 0.49601 0.32067
 C681 C 0.08613 0.48425 0.20061
 C682 C 0.07143 0.48447 0.17862
 C683 C 0.05199 0.52494 0.19147
 C684 C 0.06687 0.52364 0.21350
 N685 N 0.08353 0.50348 0.21772
 H686 H 0.11879 0.50290 0.29799
 H687 H 0.04713 0.49825 0.25855
 H688 H 0.02305 0.49007 0.29757
 H689 H 0.09646 0.49570 0.33766
 H690 H 0.10021 0.46891 0.20359
 H691 H 0.07570 0.46920 0.16545
 H692 H 0.03862 0.54108 0.18959
 H693 H 0.06524 0.53892 0.22726
 C694 C 0.15093 0.58299 0.24491
 C695 C 0.15428 0.42609 0.25388
 C696 C 0.05374 0.50505 0.17323
 C697 C 0.05778 0.49180 0.32100
 C698 C -0.12821 1.04034 0.27473
 H699 H -0.11568 1.03428 0.28986
 C700 C -0.14168 1.06394 0.27683
 H701 H -0.13860 1.07582 0.29322
 C702 C -0.14718 1.03243 0.23524
 H703 H -0.14954 1.02018 0.21909
 C704 C -0.16117 1.05583 0.23665
 H705 H -0.17420 1.06096 0.22148
 N706 N -0.13049 1.02533 0.25386
 C707 C -0.11714 0.94101 0.24563
 H708 H -0.09626 0.94119 0.24228
 C709 C -0.13105 0.91775 0.24343
 H710 H -0.12059 0.90008 0.23887
 C711 C -0.15597 0.96393 0.25552
 H712 H -0.16565 0.98206 0.25986
 C713 C -0.17062 0.94099 0.25381
 H714 H -0.19154 0.94172 0.25695
 Zn715 Zn -0.10894 0.99445 0.25114
 N716 N -0.12967 0.96354 0.25149
 C717 C -0.08607 0.97614 0.29625
 N718 N -0.08480 0.99473 0.27842
 C719 C -0.06795 1.01506 0.28073
 C720 C -0.05212 1.01768 0.30192
 C721 C -0.07048 0.97792 0.31765
 C722 C -0.10453 0.98932 0.19938
 C723 C -0.09237 0.98499 0.17651
 C724 C -0.05042 0.98852 0.19695
 C725 C -0.06349 0.99283 0.21950
 N726 N -0.09014 0.99323 0.22036
 H727 H -0.09983 0.96036 0.29431
 H728 H -0.06751 1.02980 0.26646
 H729 H -0.03919 1.03421 0.30357
 H730 H -0.07253 0.96337 0.33198
 H731 H -0.12563 0.98866 0.20045
 H732 H -0.10499 0.98296 0.16043
 H733 H -0.02929 0.98738 0.19752
 H734 H -0.05219 0.99485 0.23642
 C735 C -0.15819 0.91746 0.24751
 C736 C -0.15812 1.07233 0.25742
 C737 C -0.06473 0.98410 0.17474
 C738 C -0.05346 0.99910 0.32090
 C739 C 0.37371 0.54180 -0.22710
 H740 H 0.38662 0.53582 -0.21223
 C741 C 0.36045 0.56547 -0.22490
 H742 H 0.36406 0.57748 -0.20869
 C743 C 0.35366 0.53360 -0.26608
 H744 H 0.35107 0.52110 -0.28212
 C745 C 0.33990 0.55715 -0.26460
 H746 H 0.32660 0.56230 -0.27954
 N747 N 0.37077 0.52664 -0.24778
 C748 C 0.37103 0.44849 -0.27404
 H749 H 0.38374 0.45347 -0.28929
 C750 C 0.35718 0.42645 -0.27527
 H751 H 0.36010 0.41409 -0.29129
 C752 C 0.35308 0.46014 -0.23481
 H753 H 0.35161 0.47317 -0.21905
 C754 C 0.33731 0.43603 -0.23537
 H755 H 0.32397 0.43315 -0.22010
 Zn756 Zn 0.39159 0.49548 -0.25070
 N757 N 0.36933 0.46536 -0.25268
 C758 C 0.41228 0.47612 -0.20446
 N759 N 0.41460 0.49419 -0.22268
 C760 C 0.43296 0.51324 -0.22109
 C761 C 0.44889 0.51557 -0.19996
 C762 C 0.42789 0.47766 -0.18304
 C763 C 0.41208 0.51520 -0.29662
 C764 C 0.42776 0.51423 -0.31789
 C765 C 0.44668 0.47418 -0.30309
 C766 C 0.43075 0.47600 -0.28203
 N767 N 0.41348 0.49598 -0.27940
 H768 H 0.39787 0.46093 -0.20613
 H769 H 0.43457 0.52724 -0.23595
 H770 H 0.46296 0.53121 -0.19885
 H771 H 0.42496 0.46369 -0.16833
 H772 H 0.39862 0.53117 -0.29408
 H773 H 0.42575 0.52936 -0.33170
 H774 H 0.46004 0.45796 -0.30494
 H775 H 0.43177 0.46112 -0.26790
 C776 C 0.33935 0.41892 -0.25455
 C777 C 0.34357 0.57379 -0.24399
 C778 C 0.44519 0.49337 -0.32150
 C779 C 0.44620 0.49787 -0.18037
 C780 C 0.62128 -0.04597 -0.22810
 H781 H 0.60444 -0.04369 -0.21617
 C782 C 0.63569 -0.06770 -0.22648
 H783 H 0.62943 -0.08238 -0.21351
 C784 C 0.64758 -0.02885 -0.26049
 H785 H 0.65226 -0.01375 -0.27365
 C786 C 0.66407 -0.05257 -0.25940
 H787 H 0.68086 -0.05317 -0.27155
 N788 N 0.62750 -0.02609 -0.24586
 C789 C 0.61315 0.05819 -0.25437
 H790 H 0.59247 0.05812 -0.25861
 C791 C 0.62724 0.08133 -0.25683
 H792 H 0.61649 0.09851 -0.26222
 C793 C 0.65118 0.03591 -0.24129
 H794 H 0.66061 0.01812 -0.23552
 C795 C 0.66599 0.05874 -0.24304
 H796 H 0.68672 0.05741 -0.23904
 Zn797 Zn 0.60506 0.00419 -0.24739
 N798 N 0.62521 0.03589 -0.24709
 C799 C 0.59374 0.00892 -0.19669
 N800 N 0.58284 0.00258 -0.21900
 C801 C 0.55870 -0.00862 -0.22034
 C802 C 0.54479 -0.01426 -0.19857
 C803 C 0.58067 0.00342 -0.17456
 C804 C 0.59338 -0.00827 -0.29787
 C805 C 0.58094 -0.00498 -0.32087
 C806 C 0.54908 0.02284 -0.30115
 C807 C 0.56230 0.01922 -0.27849
 N808 N 0.58436 0.00426 -0.27729
 H809 H 0.61318 0.01722 -0.19606
 H810 H 0.55077 -0.01443 -0.23819
 H811 H 0.52602 -0.02391 -0.19990
 H812 H 0.58996 0.00820 -0.15697
 H813 H 0.61084 -0.02004 -0.29675
 H814 H 0.58891 -0.01455 -0.33714
 H815 H 0.53218 0.03555 -0.30192
 H816 H 0.55545 0.02914 -0.26198
 C817 C 0.65429 0.08217 -0.25123
 C818 C 0.65860 -0.07196 -0.24322
 C819 C 0.55888 0.01126 -0.32285
 C820 C 0.55611 -0.00887 -0.17527
 C821 C 0.03048 0.24890 0.84076
 H822 H 0.01533 0.26196 0.83436
 C823 C 0.05320 0.24631 0.82704
 H824 H 0.05520 0.25720 0.80995
 C825 C 0.04627 0.21902 0.87078
 H826 H 0.04360 0.20849 0.88784
 C827 C 0.06972 0.21632 0.85789
 H828 H 0.08508 0.20416 0.86553
 N829 N 0.02771 0.23595 0.86255
 C830 C -0.04857 0.26776 0.86794
 H831 H -0.04650 0.27830 0.88527
 C832 C -0.07093 0.27097 0.85343
 H833 H -0.08626 0.28380 0.85995
 C834 C -0.03187 0.23652 0.83955
 H835 H -0.01683 0.22262 0.83470
 C836 C -0.05352 0.23962 0.82414
 H837 H -0.05465 0.22849 0.80706
 Zn838 Zn -0.00124 0.24555 0.88168
 N839 N -0.02975 0.25071 0.86077
 C840 C 0.01283 0.29730 0.88314
 N841 N 0.00615 0.27678 0.89756
 C842 C 0.00311 0.27915 0.92257
 C843 C 0.00630 0.30312 0.93397
 C844 C 0.01606 0.32167 0.89375
 C845 C -0.03375 0.20882 0.90323
 C846 C -0.04001 0.18845 0.91892
 C847 C 0.00237 0.19319 0.93878
 C848 C 0.00766 0.21370 0.92293
 N849 N -0.00990 0.22033 0.90496
 H850 H 0.01456 0.29503 0.86326
 H851 H -0.00285 0.26281 0.93362
 H852 H 0.00328 0.30491 0.95384
 H853 H 0.02012 0.33810 0.88189
 H854 H -0.04766 0.21480 0.88916
 H855 H -0.05871 0.17882 0.91676
 H856 H 0.01735 0.18697 0.95179
 H857 H 0.02610 0.22386 0.92443
 C858 C -0.07364 0.25667 0.83127
 C859 C 0.07364 0.23089 0.83625
 C860 C -0.02136 0.17977 0.93622
 C861 C 0.01218 0.32477 0.91936
 C862 C 0.46578 0.25969 0.15664
 H863 H 0.47893 0.27593 0.15909
 C864 C 0.44334 0.25792 0.17090
 H865 H 0.43908 0.27313 0.18423
 C866 C 0.45465 0.22114 0.13471
 H867 H 0.45908 0.20727 0.12020
 C868 C 0.43200 0.21847 0.14874
 H869 H 0.41908 0.20223 0.14521
 N870 N 0.47054 0.24183 0.13863
 C871 C 0.53184 0.23760 0.15817
 H872 H 0.51814 0.22207 0.16132
 C873 C 0.55419 0.23939 0.17283
 H874 H 0.55817 0.22437 0.18637
 C875 C 0.54305 0.27609 0.13678
 H876 H 0.53849 0.29060 0.12304
 C877 C 0.56557 0.27881 0.15119
 H878 H 0.57829 0.29526 0.14819
 Zn879 Zn 0.49903 0.24831 0.11867
 N880 N 0.52748 0.25499 0.13968
 C881 C 0.51070 0.28463 0.08269
 N882 N 0.49178 0.27680 0.09864
 C883 C 0.46813 0.28890 0.09988
 C884 C 0.46334 0.31084 0.08561
 C885 C 0.50676 0.30637 0.06808
 C886 C 0.51381 0.19713 0.10909
 C887 C 0.51810 0.17527 0.09458
 C888 C 0.50658 0.20018 0.05805
 C889 C 0.50230 0.22154 0.07332
 N890 N 0.50599 0.21967 0.09834
 H891 H 0.52906 0.27416 0.08174
 H892 H 0.45307 0.28181 0.11213
 H893 H 0.44473 0.32083 0.08715
 H894 H 0.52250 0.31310 0.05632
 H895 H 0.51588 0.19574 0.12898
 H896 H 0.52322 0.15720 0.10361
 H897 H 0.50331 0.20186 0.03819
 H898 H 0.49528 0.23932 0.06512
 C899 C 0.57179 0.25973 0.16879
 C900 C 0.42590 0.23739 0.16666
 C901 C 0.51424 0.17664 0.06877
 C902 C 0.48304 0.31997 0.06988
 C903 C -0.03114 0.75973 0.65920
 H904 H -0.01732 0.77526 0.66246
 C905 C -0.05309 0.75853 0.67229
 H906 H -0.05679 0.77379 0.68567
 C907 C -0.04217 0.72217 0.63521
 H908 H -0.03806 0.70874 0.62024
 C909 C -0.06672 0.72000 0.64918
 H910 H -0.07944 0.70386 0.64481
 N911 N -0.02621 0.74112 0.63997
 C912 C 0.03529 0.73823 0.66112
 H913 H 0.02218 0.72222 0.66425
 C914 C 0.05738 0.74098 0.67599
 H915 H 0.06181 0.72618 0.68963
 C916 C 0.04521 0.77701 0.63963
 H917 H 0.04021 0.79127 0.62580
 C918 C 0.06744 0.78068 0.65424
 H919 H 0.07958 0.79757 0.65124
 Zn920 Zn 0.00297 0.74720 0.62082
 N921 N 0.03053 0.75527 0.64243
 C922 C 0.01545 0.78275 0.58425
 N923 N -0.00399 0.77471 0.59953
 C924 C -0.02809 0.78595 0.59934
 C925 C -0.03295 0.80718 0.58414
 C926 C 0.01149 0.80388 0.56883
 C927 C 0.01720 0.69539 0.61366
 C928 C 0.02160 0.67292 0.60002
 C929 C 0.01376 0.69716 0.56224
 C930 C 0.00932 0.71911 0.57661
 N931 N 0.01104 0.71785 0.60185
 H932 H 0.03423 0.77297 0.58449
 H933 H -0.04344 0.77875 0.61120
 H934 H -0.05198 0.81650 0.58455
 H935 H 0.02762 0.81089 0.55772
 H936 H 0.01756 0.69448 0.63366
 H937 H 0.02523 0.65491 0.60977
 H938 H 0.01188 0.69832 0.54218
 H939 H 0.00355 0.73680 0.56748
 C940 C 0.07426 0.76191 0.67194
 C941 C -0.07262 0.73779 0.66682
 C942 C 0.01946 0.67366 0.57404
 C943 C -0.01278 0.81663 0.56913
 C944 C 0.52783 0.75872 0.33851
 H945 H 0.51254 0.77258 0.33434
 C946 C 0.54819 0.75520 0.32183
 H947 H 0.54835 0.76640 0.30483
 C948 C 0.54574 0.72689 0.36546
 H949 H 0.54476 0.71580 0.38235
 C950 C 0.56688 0.72326 0.34963
 H951 H 0.58229 0.70997 0.35511
 N952 N 0.52729 0.74510 0.36010
 C953 C 0.45149 0.77502 0.37384
 H954 H 0.45538 0.78621 0.39051
 C955 C 0.42698 0.77622 0.36249
 H956 H 0.41192 0.78844 0.37051
 C957 C 0.46579 0.74368 0.34434
 H958 H 0.48075 0.73036 0.33801
 C959 C 0.44182 0.74460 0.33218
 H960 H 0.43876 0.73255 0.31589
 Zn961 Zn 0.50071 0.75355 0.38249
 N962 N 0.47007 0.75875 0.36470
 C963 C 0.51415 0.80543 0.38520
 N964 N 0.50936 0.78403 0.39910
 C965 C 0.50931 0.78490 0.42438
 C966 C 0.51374 0.80818 0.43668
 C967 C 0.51841 0.82919 0.39674
 C968 C 0.47133 0.71469 0.40469
 C969 C 0.46706 0.69327 0.41966
 C970 C 0.51090 0.69821 0.43634
 C971 C 0.51425 0.71966 0.42117
 N972 N 0.49493 0.72685 0.40514
 H973 H 0.51358 0.80429 0.36515
 H974 H 0.50481 0.76786 0.43509
 H975 H 0.51315 0.80872 0.45683
 H976 H 0.52085 0.84634 0.38542
 H977 H 0.45600 0.72102 0.39220
 H978 H 0.44849 0.68321 0.41855
 H979 H 0.52707 0.69174 0.44790
 H980 H 0.53256 0.73016 0.42161
 C981 C 0.42188 0.76053 0.34163
 C982 C 0.56860 0.73806 0.32783
 C983 C 0.48734 0.68435 0.43505
 C984 C 0.51765 0.83075 0.42276
 Zr985 Zr 0.01896 -0.02130 1.03408
 O986 O 0.04407 -0.00878 1.06318
 O987 O 0.01684 -0.06101 1.04061
 O988 O 0.00123 -0.02542 1.06963
 O989 O 0.06857 -0.02289 0.99023
 O990 O -0.04049 -0.01080 1.06313
 O991 O 0.05766 -0.03583 1.02941
 O992 O -0.00956 -0.07633 1.00954
 O993 O -0.01997 -0.03055 1.02516
 O994 O 0.01890 -0.03586 0.99768
 O995 O -0.00217 0.01353 1.03792
 O996 O 0.03605 0.00800 1.01216
 Zr997 Zr -0.02588 0.01929 0.96848
 Zr998 Zr -0.04054 0.00448 1.02709
 Zr999 Zr 0.03393 -0.00642 0.97568
 Zr1000 Zr -0.01982 -0.04361 0.98835
 O1001 O 0.06566 0.01900 0.96934
 O1002 O -0.05522 -0.06089 1.00029
 O1003 O -0.00447 -0.01552 0.96435
 O1004 O -0.04248 -0.00984 0.99064
 O1005 O -0.02598 0.03412 1.00481
 O1006 O 0.01303 0.02831 0.97763
 C1007 C 0.00483 -0.07932 1.02904
 C1008 C 0.07379 -0.03427 1.01098
 C1009 C -0.02240 -0.02057 1.07691
 O1010 O -0.07436 -0.01876 1.03106
 O1011 O -0.07308 0.02548 1.01425
 O1012 O -0.06406 0.03526 0.97386
 C1013 C -0.07888 0.03619 0.99335
 O1014 O 0.04035 0.04644 1.04368
 Zr1015 Zr 0.01289 0.04173 1.01416
 O1016 O -0.02478 0.05915 0.96243
 O1017 O -0.04977 0.03410 1.05301
 O1018 O -0.00419 0.06680 1.04098
 O1019 O 0.04597 0.06206 1.00072
 O1020 O -0.00172 0.07467 0.99571
 C1021 C -0.01553 0.07768 0.97584
 O1022 O -0.05203 0.00707 0.94010
 O1023 O 0.04536 -0.03763 0.95241
 O1024 O -0.00883 0.02125 0.93239
 O1025 O 0.03222 0.00450 0.93827
 O1026 O -0.00219 -0.07103 0.96409
 O1027 O -0.04304 -0.04874 0.95577
 C1028 C 0.01416 0.01451 0.92459
 H1029 H 0.02948 -0.05182 0.99562
 H1030 H -0.06077 -0.01340 0.98547
 H1031 H 0.02064 0.04143 0.96638
 H1032 H -0.00138 0.02006 1.05525
 H1033 H -0.05455 -0.07945 0.99548
 H1034 H -0.08546 -0.01024 1.04378
 H1035 H -0.06703 0.02975 1.06024
 H1036 H 0.00435 0.08395 1.03942
 H1037 H -0.01182 -0.08758 0.96587
 H1038 H 0.06254 -0.03298 0.94518
 H1039 H 0.07707 0.01048 0.95687
 H1040 H 0.04419 0.08035 1.00621
 H1041 H -0.05006 -0.06662 0.95538
 H1042 H -0.05686 0.02271 0.93038
 H1043 H 0.04905 -0.02438 1.07288
 H1044 H 0.04382 0.06513 1.04633
 Zr1045 Zr 0.52867 0.48519 0.53629
 O1046 O 0.55517 0.49858 0.56387
 O1047 O 0.52639 0.44582 0.54448
 O1048 O 0.51229 0.48262 0.57253
 O1049 O 0.57606 0.48030 0.49048
 O1050 O 0.47199 0.50150 0.56814
 O1051 O 0.56677 0.46958 0.53067
 O1052 O 0.49845 0.42983 0.51495
 O1053 O 0.48906 0.47680 0.52958
 O1054 O 0.52650 0.46905 0.50056
 O1055 O 0.50887 0.52084 0.53941
 O1056 O 0.54551 0.51290 0.51236
 Zr1057 Zr 0.48192 0.52406 0.47086
 Zr1058 Zr 0.46971 0.51263 0.53074
 Zr1059 Zr 0.54122 0.49695 0.47665
 Zr1060 Zr 0.48718 0.46200 0.49337
 O1061 O 0.57332 0.52106 0.46783
 O1062 O 0.45235 0.44608 0.50819
 O1063 O 0.50208 0.48845 0.46742
 O1064 O 0.46570 0.49654 0.49510
 O1065 O 0.48398 0.54067 0.50647
 O1066 O 0.52146 0.53234 0.47795
 C1067 C 0.51388 0.42728 0.53381
 C1068 C 0.58201 0.46986 0.51150
 C1069 C 0.49010 0.49067 0.58113
 O1070 O 0.43637 0.48976 0.53833
 O1071 O 0.43649 0.53276 0.51799
 O1072 O 0.44409 0.54048 0.47690
 C1073 C 0.42986 0.54222 0.49674
 O1074 O 0.55257 0.55266 0.54187
 Zr1075 Zr 0.52353 0.54738 0.51383
 O1076 O 0.48358 0.56369 0.46327
 O1077 O 0.46196 0.54463 0.55441
 O1078 O 0.50856 0.57422 0.54022
 O1079 O 0.55655 0.56593 0.49809
 O1080 O 0.50914 0.57981 0.49460
 C1081 C 0.49427 0.58244 0.47539
 O1082 O 0.45450 0.51121 0.44386
 O1083 O 0.55058 0.46437 0.45430
 O1084 O 0.49747 0.52425 0.43408
 O1085 O 0.53811 0.50624 0.43892
 O1086 O 0.50253 0.43332 0.46906
 O1087 O 0.46166 0.45596 0.46253
 C1088 C 0.51985 0.51645 0.42563
 H1089 H 0.53662 0.45278 0.49864
 H1090 H 0.44711 0.49312 0.49094
 H1091 H 0.52888 0.54471 0.46584
 H1092 H 0.51083 0.52828 0.55633
 H1093 H 0.45240 0.42730 0.50425
 H1094 H 0.42592 0.49943 0.55080
 H1095 H 0.44506 0.54117 0.56278
 H1096 H 0.51750 0.59100 0.53753
 H1097 H 0.49272 0.41706 0.47200
 H1098 H 0.56758 0.46810 0.44623
 H1099 H 0.58389 0.51161 0.45529
 H1100 H 0.55562 0.58451 0.50278
 H1101 H 0.45416 0.43830 0.46340
 H1102 H 0.44956 0.52651 0.43370
 H1103 H 0.56035 0.48333 0.57398
 H1104 H 0.55667 0.57134 0.54355
 Zr1105 Zr 0.48072 1.02730 0.53259
 O1106 O 0.45431 1.01355 0.55973
 O1107 O 0.48449 1.06612 0.54279
 O1108 O 0.49777 1.02785 0.56893
 O1109 O 0.43297 1.03455 0.48692
 O1110 O 0.53811 1.00989 0.56271
 O1111 O 0.44262 1.04355 0.52758
 O1112 O 0.51332 1.08239 0.51456
 O1113 O 0.52054 1.03459 0.52618
 O1114 O 0.48329 1.04524 0.49779
 O1115 O 0.49935 0.99091 0.53386
 O1116 O 0.46293 1.00153 0.50701
 Zr1117 Zr 0.52581 0.98981 0.46521
 Zr1118 Zr 0.53865 0.99819 0.52548
 Zr1119 Zr 0.46775 1.01911 0.47220
 Zr1120 Zr 0.52285 1.05114 0.49092
 O1121 O 0.43559 0.99636 0.46023
 O1122 O 0.55850 1.06490 0.50641
 O1123 O 0.50713 1.02640 0.46363
 O1124 O 0.54306 1.01574 0.49074
 O1125 O 0.52326 0.97169 0.49993
 O1126 O 0.48597 0.98293 0.47170
 C1127 C 0.49805 1.08457 0.53345
 C1128 C 0.42709 1.04385 0.50844
 C1129 C 0.52069 1.02051 0.57659
 O1130 O 0.57359 1.01872 0.53340
 O1131 O 0.57081 0.97713 0.51208
 O1132 O 0.56284 0.97125 0.47069
 C1133 C 0.57704 0.96820 0.49053
 O1134 O 0.45487 0.96044 0.53484
 Zr1135 Zr 0.48350 0.96624 0.50681
 O1136 O 0.52248 0.95074 0.45539
 O1137 O 0.54478 0.96548 0.54849
 O1138 O 0.49800 0.93738 0.53135
 O1139 O 0.44924 0.95025 0.49045
 O1140 O 0.49570 0.93444 0.48533
 C1141 C 0.51048 0.93204 0.46615
 O1142 O 0.55366 1.00302 0.43913
 O1143 O 0.45846 1.05371 0.45292
 O1144 O 0.50997 0.99165 0.42848
 O1145 O 0.47181 1.01416 0.43378
 O1146 O 0.50782 1.08126 0.46814
 O1147 O 0.54845 1.05831 0.46064
 C1148 C 0.48911 1.00302 0.42010
 H1149 H 0.47356 1.06184 0.49689
 H1150 H 0.56174 1.01862 0.48677
 H1151 H 0.47797 0.97165 0.45881
 H1152 H 0.49745 0.98289 0.55047
 H1153 H 0.55913 1.08387 0.50363
 H1154 H 0.58355 1.00833 0.54573
 H1155 H 0.56194 0.96791 0.55689
 H1156 H 0.48842 0.92111 0.52770
 H1157 H 0.51767 1.09727 0.47223
 H1158 H 0.44158 1.05078 0.44417
 H1159 H 0.42548 1.00705 0.44826
 H1160 H 0.44932 0.93141 0.49402
 H1161 H 0.55574 1.07602 0.46219
 H1162 H 0.55801 0.98807 0.42822
 H1163 H 0.44969 1.02855 0.57048
 H1164 H 0.45018 0.94183 0.53553
 Zr1165 Zr -0.02230 0.52170 1.02847
 O1166 O -0.05143 0.50890 1.05346
 O1167 O -0.01664 0.55971 1.04042
 O1168 O -0.00770 0.51980 1.06579
 O1169 O -0.06476 0.53602 0.97975
 O1170 O 0.02971 0.49576 1.06200
 O1171 O -0.05907 0.54027 1.02171
 O1172 O 0.01573 0.57475 1.01514
 O1173 O 0.01843 0.52579 1.02528
 O1174 O -0.01542 0.54094 0.99485
 O1175 O -0.00704 0.48381 1.02920
 O1176 O -0.04000 0.49887 1.00035
 Zr1177 Zr 0.02479 0.48370 0.96259
 Zr1178 Zr 0.03335 0.48798 1.02397
 Zr1179 Zr -0.03081 0.51754 0.96687
 Zr1180 Zr 0.02494 0.54376 0.99111
 O1181 O -0.06419 0.49851 0.95218
 O1182 O 0.06002 0.55384 1.01005
 O1183 O 0.00962 0.52184 0.96142
 O1184 O 0.04193 0.50683 0.99059
 O1185 O 0.01795 0.46417 0.99607
 O1186 O -0.01588 0.47995 0.96605
 C1187 C -0.00107 0.57742 1.03275
 C1188 C -0.07233 0.54374 1.00134
 C1189 C 0.01268 0.50816 1.07494
 O1190 O 0.06835 0.50577 1.03648
 O1191 O 0.06545 0.46611 1.01153
 O1192 O 0.06060 0.46351 0.96940
 C1193 C 0.07313 0.45865 0.98989
 O1194 O -0.05405 0.45764 1.02543
 Zr1195 Zr -0.02264 0.46196 0.99995
 O1196 O 0.01974 0.44515 0.95144
 O1197 O 0.03540 0.45295 1.04433
 O1198 O -0.01279 0.43087 1.02403
 O1199 O -0.05671 0.44963 0.98054
 O1200 O -0.01153 0.43025 0.97791
 C1201 C 0.00502 0.42723 0.96019
 O1202 O 0.05477 0.49617 0.93836
 O1203 O -0.03484 0.55349 0.94829
 O1204 O 0.01112 0.48690 0.92517
 O1205 O -0.02474 0.51325 0.92857
 O1206 O 0.01452 0.57589 0.96856
 O1207 O 0.05389 0.55015 0.96350
 C1208 C -0.00814 0.50008 0.91581
 H1209 H -0.02370 0.55829 0.99402
 H1210 H 0.06106 0.50853 0.98814
 H1211 H -0.02384 0.46984 0.95227
 H1212 H -0.01108 0.47514 1.04514
 H1213 H 0.06240 0.57281 1.00832
 H1214 H 0.07660 0.49373 1.04855
 H1215 H 0.05183 0.45346 1.05422
 H1216 H -0.02344 0.41569 1.01893
 H1217 H 0.02523 0.59086 0.97408
 H1218 H -0.05126 0.55265 0.93839
 H1219 H -0.07235 0.51055 0.94006
 H1220 H -0.05857 0.43074 0.98335
 H1221 H 0.06232 0.56716 0.96644
 H1222 H 0.05889 0.48136 0.92718
 H1223 H -0.05569 0.52380 1.06447
 H1224 H -0.06017 0.43943 1.02522
 Zr1225 Zr -0.02131 0.47757 0.46505
 O1226 O -0.04867 0.49086 0.43822
 O1227 O -0.01804 0.43840 0.45580
 O1228 O -0.00559 0.47642 0.42840
 O1229 O -0.06707 0.47017 0.51186
 O1230 O 0.03503 0.49436 0.43312
 O1231 O -0.05923 0.46157 0.47091
 O1232 O 0.01309 0.42336 0.48283
 O1233 O 0.01878 0.47035 0.47078
 O1234 O -0.01748 0.46038 0.50014
 O1235 O -0.00273 0.51383 0.46260
 O1236 O -0.03842 0.50391 0.49043
 Zr1237 Zr 0.02555 0.51627 0.53068
 Zr1238 Zr 0.03693 0.50664 0.47030
 Zr1239 Zr -0.03245 0.48702 0.52549
 Zr1240 Zr 0.02230 0.45463 0.50636
 O1241 O -0.06473 0.50990 0.53688
 O1242 O 0.05797 0.44071 0.49120
 O1243 O 0.00718 0.47980 0.53353
 O1244 O 0.04231 0.48989 0.50537
 O1245 O 0.02209 0.53365 0.49564
 O1246 O -0.01442 0.52321 0.52475
 C1247 C -0.00325 0.42052 0.46474
 C1248 C -0.07380 0.46079 0.49056
 C1249 C 0.01694 0.48363 0.41999
 O1250 O 0.07136 0.48554 0.46176
 O1251 O 0.06993 0.52715 0.48312
 O1252 O 0.06242 0.53419 0.52442
 C1253 C 0.07648 0.53634 0.50456
 O1254 O -0.04762 0.54400 0.46194
 Zr1255 Zr -0.01788 0.53914 0.48938
 O1256 O 0.02297 0.55557 0.53931
 O1257 O 0.04243 0.53916 0.44701
 O1258 O -0.00454 0.56729 0.46372
 O1259 O -0.05140 0.55601 0.50617
 O1260 O -0.00471 0.57152 0.50962
 C1261 C 0.01089 0.57417 0.52831
 O1262 O 0.05378 0.50332 0.55684
 O1263 O -0.04049 0.45308 0.54616
 O1264 O 0.01043 0.51625 0.56759
 O1265 O -0.02776 0.49352 0.56374
 O1266 O 0.00802 0.42438 0.52920
 O1267 O 0.04819 0.44824 0.53684
 C1268 C -0.01028 0.50545 0.57664
 H1269 H -0.02697 0.44374 0.50153
 H1270 H 0.06108 0.48697 0.50916
 H1271 H -0.02205 0.53492 0.53745
 H1272 H -0.00520 0.52151 0.44588
 H1273 H 0.05885 0.42182 0.49441
 H1274 H 0.08101 0.49571 0.44916
 H1275 H 0.05928 0.53644 0.43828
 H1276 H -0.01414 0.58364 0.46716
 H1277 H 0.01820 0.40853 0.52521
 H1278 H -0.05722 0.45609 0.55502
 H1279 H -0.07450 0.49953 0.54923
 H1280 H -0.05143 0.57469 0.50193
 H1281 H 0.05572 0.43057 0.53565
 H1282 H 0.05853 0.51849 0.56732
 H1283 H -0.05357 0.47569 0.42779
 H1284 H -0.05247 0.56256 0.46081
 Zr1285 Zr 0.47441 -0.02338 -0.03375
 O1286 O 0.44858 -0.01176 -0.06259
 O1287 O 0.47722 -0.06325 -0.04009
 O1288 O 0.49164 -0.02720 -0.06969
 O1289 O 0.42622 -0.02588 0.01136
 O1290 O 0.53290 -0.01125 -0.06392
 O1291 O 0.43579 -0.03791 -0.02846
 O1292 O 0.50473 -0.07753 -0.00946
 O1293 O 0.51379 -0.03172 -0.02549
 O1294 O 0.47564 -0.03755 0.00272
 O1295 O 0.49460 0.01185 -0.03791
 O1296 O 0.45712 0.00574 -0.01141
 Zr1297 Zr 0.51958 0.01887 0.03098
 Zr1298 Zr 0.53344 0.00372 -0.02775
 Zr1299 Zr 0.46045 -0.00823 0.02510
 Zr1300 Zr 0.51472 -0.04441 0.01136
 O1301 O 0.42801 0.01637 0.03188
 O1302 O 0.55023 -0.06117 -0.00131
 O1303 O 0.49929 -0.01638 0.03566
 O1304 O 0.53642 -0.01021 0.00866
 O1305 O 0.51857 0.03337 -0.00536
 O1306 O 0.48027 0.02693 0.02258
 C1307 C 0.48993 -0.08114 -0.02860
 C1308 C 0.42034 -0.03698 -0.00943
 C1309 C 0.51489 -0.02152 -0.07743
 O1310 O 0.56733 -0.01940 -0.03281
 O1311 O 0.56643 0.02432 -0.01528
 O1312 O 0.55719 0.03547 0.02483
 C1313 C 0.57216 0.03552 0.00545
 O1314 O 0.45140 0.04380 -0.04329
 Zr1315 Zr 0.47924 0.03995 -0.01397
 O1316 O 0.51774 0.05880 0.03678
 O1317 O 0.54167 0.03376 -0.05328
 O1318 O 0.49540 0.06533 -0.04079
 O1319 O 0.44548 0.05926 -0.00030
 O1320 O 0.49246 0.07342 0.00459
 C1321 C 0.50701 0.07691 0.02391
 O1322 O 0.54654 0.00750 0.05897
 O1323 O 0.45068 -0.03941 0.04881
 O1324 O 0.50318 0.02112 0.06730
 O1325 O 0.46249 0.00331 0.06248
 O1326 O 0.49823 -0.07176 0.03613
 O1327 O 0.53891 -0.04895 0.04337
 C1328 C 0.48060 0.01398 0.07564
 H1329 H 0.46548 -0.05367 0.00500
 H1330 H 0.55487 -0.01345 0.01351
 H1331 H 0.47249 0.03997 0.03393
 H1332 H 0.49333 0.01831 -0.05520
 H1333 H 0.55009 -0.07970 0.00349
 H1334 H 0.57807 -0.01079 -0.04567
 H1335 H 0.55883 0.02963 -0.06093
 H1336 H 0.48636 0.08227 -0.03913
 H1337 H 0.50806 -0.08823 0.03416
 H1338 H 0.43347 -0.03520 0.05630
 H1339 H 0.41714 0.00770 0.04460
 H1340 H 0.44642 0.07753 -0.00585
 H1341 H 0.54617 -0.06677 0.04368
 H1342 H 0.55120 0.02335 0.06851
 H1343 H 0.44382 -0.02759 -0.07212
 H1344 H 0.44750 0.06240 -0.04601
 Zr1345 Zr 0.52634 0.51447 -0.03660
 O1346 O 0.55298 0.49956 -0.06315
 O1347 O 0.52416 0.55337 -0.04662
 O1348 O 0.51024 0.51517 -0.07317
 O1349 O 0.57355 0.52138 0.00955
 O1350 O 0.46989 0.49674 -0.06849
 O1351 O 0.56445 0.53008 -0.03122
 O1352 O 0.49587 0.57085 -0.01844
 O1353 O 0.48675 0.52360 -0.03072
 O1354 O 0.52415 0.53233 -0.00165
 O1355 O 0.50629 0.47894 -0.03839
 O1356 O 0.54298 0.48777 -0.01131
 Zr1357 Zr 0.47932 0.47917 0.02990
 Zr1358 Zr 0.46715 0.48801 -0.03055
 Zr1359 Zr 0.53869 0.50545 0.02363
 Zr1360 Zr 0.48486 0.54006 0.00482
 O1361 O 0.57084 0.48161 0.03363
 O1362 O 0.44989 0.55550 -0.01065
 O1363 O 0.49960 0.51473 0.03210
 O1364 O 0.46324 0.50572 0.00437
 O1365 O 0.48127 0.46098 -0.00497
 O1366 O 0.51880 0.47020 0.02355
 C1367 C 0.51144 0.57244 -0.03713
 C1368 C 0.57960 0.53072 -0.01186
 C1369 C 0.48818 0.50662 -0.08173
 O1370 O 0.43440 0.51123 -0.03999
 O1371 O 0.43331 0.46981 -0.01710
 O1372 O 0.44160 0.46260 0.02407
 C1373 C 0.42695 0.46095 0.00440
 O1374 O 0.55004 0.44676 -0.03890
 Zr1375 Zr 0.52078 0.45348 -0.01159
 O1376 O 0.48033 0.43993 0.03911
 O1377 O 0.45887 0.45471 -0.05233
 O1378 O 0.50604 0.42562 -0.03717
 O1379 O 0.55341 0.43507 0.00547
 O1380 O 0.50563 0.42218 0.00859
 C1381 C 0.49062 0.42055 0.02766
 O1382 O 0.45216 0.49391 0.05604
 O1383 O 0.54795 0.53889 0.04484
 O1384 O 0.49510 0.47962 0.06671
 O1385 O 0.53560 0.49756 0.06164
 O1386 O 0.50050 0.56991 0.02768
 O1387 O 0.45961 0.54789 0.03530
 C1388 C 0.51756 0.48746 0.07504
 H1389 H 0.53427 0.54862 -0.00037
 H1390 H 0.44468 0.50957 0.00824
 H1391 H 0.52612 0.45822 0.03617
 H1392 H 0.50829 0.47061 -0.05490
 H1393 H 0.45004 0.57446 -0.00762
 H1394 H 0.42382 0.50108 -0.05207
 H1395 H 0.44211 0.45806 -0.06117
 H1396 H 0.51489 0.40891 -0.03360
 H1397 H 0.49078 0.58608 0.02382
 H1398 H 0.56492 0.53542 0.05324
 H1399 H 0.58140 0.49152 0.04590
 H1400 H 0.55222 0.41632 0.00155
 H1401 H 0.45234 0.56563 0.03370
 H1402 H 0.44691 0.47918 0.06674
 H1403 H 0.55824 0.51425 -0.07389
 H1404 H 0.55420 0.42801 -0.03967
 Zr1405 Zr 0.02626 1.01413 0.46503
 O1406 O 0.05316 1.00077 0.43797
 O1407 O 0.02299 1.05337 0.45618
 O1408 O 0.01005 1.01548 0.42853
 O1409 O 0.07351 1.02077 0.51118
 O1410 O -0.02967 0.99565 0.43269
 O1411 O 0.06406 1.03030 0.47067
 O1412 O -0.00693 1.06860 0.48412
 O1413 O -0.01355 1.02189 0.47124
 O1414 O 0.02364 1.03096 0.50042
 O1415 O 0.00727 0.97806 0.46236
 O1416 O 0.04365 0.98714 0.48960
 Zr1417 Zr -0.01968 0.97566 0.53065
 Zr1418 Zr -0.03209 0.98580 0.47042
 Zr1419 Zr 0.03901 1.00376 0.52496
 Zr1420 Zr -0.01588 1.03723 0.50722
 O1421 O 0.07172 0.98047 0.53450
 O1422 O -0.05177 1.05197 0.49303
 O1423 O -0.00032 1.01165 0.53377
 O1424 O -0.03652 1.00240 0.50579
 O1425 O -0.01728 0.95844 0.49535
 O1426 O 0.02004 0.96798 0.52407
 C1427 C 0.00874 1.07136 0.46569
 C1428 C 0.07933 1.03068 0.48994
 C1429 C -0.01174 1.00654 0.41974
 O1430 O -0.06537 1.00848 0.46143
 O1431 O -0.06554 0.96666 0.48341
 O1432 O -0.05716 0.95853 0.52442
 C1433 C -0.07183 0.95727 0.50471
 O1434 O 0.05178 0.94694 0.46103
 Zr1435 Zr 0.02243 0.95223 0.48854
 O1436 O -0.01750 0.93629 0.53886
 O1437 O -0.03949 0.95281 0.44793
 O1438 O 0.00832 0.92470 0.46232
 O1439 O 0.05567 0.93439 0.50509
 O1440 O 0.00833 0.91994 0.50804
 C1441 C -0.00664 0.91747 0.52707
 O1442 O -0.04721 0.98872 0.55727
 O1443 O 0.04746 1.03696 0.54680
 O1444 O -0.00387 0.97589 0.56750
 O1445 O 0.03616 0.99497 0.56279
 O1446 O -0.00072 1.06726 0.53015
 O1447 O -0.04062 1.04329 0.53844
 C1448 C 0.01835 0.98422 0.57600
 H1449 H 0.03329 1.04750 0.50198
 H1450 H -0.05515 1.00569 0.50978
 H1451 H 0.02771 0.95590 0.53642
 H1452 H 0.00948 0.97027 0.44564
 H1453 H -0.05228 1.07079 0.49678
 H1454 H -0.07573 0.99838 0.44914
 H1455 H -0.05631 0.95595 0.43913
 H1456 H 0.01757 0.90811 0.46548
 H1457 H -0.01115 1.08312 0.52677
 H1458 H 0.06452 1.03372 0.55513
 H1459 H 0.08205 0.99036 0.54696
 H1460 H 0.05502 0.91570 0.50076
 H1461 H -0.04826 1.06093 0.53768
 H1462 H -0.05193 0.97351 0.56757
 H1463 H 0.05797 1.01590 0.42761
 H1464 H 0.05638 0.92832 0.45980
 Zr1465 Zr 0.73033 0.26945 0.21724
 O1466 O 0.74411 0.29686 0.19120
 O1467 O 0.69138 0.26530 0.20611
 O1468 O 0.73118 0.25387 0.18029
 O1469 O 0.72115 0.31496 0.26424
 O1470 O 0.75226 0.21519 0.18540
 O1471 O 0.71317 0.30666 0.22309
 O1472 O 0.67488 0.23575 0.23335
 O1473 O 0.72376 0.22966 0.22215
 O1474 O 0.71154 0.26535 0.25158
 O1475 O 0.76761 0.25204 0.21637
 O1476 O 0.75533 0.28667 0.24405
 Zr1477 Zr 0.76761 0.22327 0.28405
 Zr1478 Zr 0.76102 0.21268 0.22325
 Zr1479 Zr 0.73696 0.28030 0.27834
 Zr1480 Zr 0.70627 0.22585 0.25700
 O1481 O 0.75889 0.31219 0.29184
 O1482 O 0.69334 0.19102 0.23989
 O1483 O 0.73021 0.24087 0.28545
 O1484 O 0.74243 0.20667 0.25733
 O1485 O 0.78677 0.22749 0.24993
 O1486 O 0.77390 0.26305 0.27902
 C1487 C 0.67275 0.25145 0.21490
 C1488 C 0.71225 0.32136 0.24267
 C1489 C 0.74127 0.23253 0.17182
 O1490 O 0.74064 0.17865 0.21276
 O1491 O 0.78190 0.18039 0.23625
 O1492 O 0.78593 0.18654 0.27811
 C1493 C 0.78981 0.17330 0.25793
 O1494 O 0.79718 0.29694 0.21770
 Zr1495 Zr 0.79149 0.26723 0.24446
 O1496 O 0.80706 0.22631 0.29414
 O1497 O 0.79548 0.20769 0.20197
 O1498 O 0.82152 0.25473 0.22000
 O1499 O 0.80643 0.30078 0.26246
 O1500 O 0.82349 0.25493 0.26600
 C1501 C 0.82589 0.23915 0.28433
 O1502 O 0.75399 0.19519 0.30951
 O1503 O 0.70134 0.28796 0.29706
 O1504 O 0.76572 0.23808 0.32102
 O1505 O 0.74142 0.27510 0.31680
 O1506 O 0.67516 0.23915 0.27980
 O1507 O 0.69898 0.19901 0.28609
 C1508 C 0.75364 0.25811 0.32992
 H1509 H 0.69457 0.27462 0.25243
 H1510 H 0.73968 0.18799 0.26056
 H1511 H 0.78494 0.27070 0.29234
 H1512 H 0.77621 0.25485 0.20013
 H1513 H 0.67414 0.18992 0.24228
 H1514 H 0.75186 0.16931 0.20067
 H1515 H 0.79373 0.19103 0.19286
 H1516 H 0.83761 0.26451 0.22430
 H1517 H 0.65928 0.22920 0.27515
 H1518 H 0.70370 0.30444 0.30633
 H1519 H 0.74756 0.32156 0.30382
 H1520 H 0.82554 0.30129 0.25934
 H1521 H 0.68125 0.19155 0.28394
 H1522 H 0.76897 0.19062 0.32050
 H1523 H 0.72907 0.30144 0.18029
 H1524 H 0.81584 0.30212 0.21761
 Zr1525 Zr 0.76956 0.73124 0.71549
 O1526 O 0.75435 0.70414 0.68955
 O1527 O 0.80854 0.73380 0.70419
 O1528 O 0.76830 0.74652 0.67852
 O1529 O 0.77877 0.68620 0.76260
 O1530 O 0.74886 0.78606 0.68378
 O1531 O 0.78532 0.69330 0.72121
 O1532 O 0.82627 0.76329 0.73110
 O1533 O 0.77774 0.77083 0.72038
 O1534 O 0.78902 0.73499 0.74973
 O1535 O 0.73299 0.75019 0.71490
 O1536 O 0.74428 0.71521 0.74243
 Zr1537 Zr 0.73509 0.77930 0.78259
 Zr1538 Zr 0.74124 0.78935 0.72174
 Zr1539 Zr 0.76347 0.72116 0.77658
 Zr1540 Zr 0.79584 0.77429 0.75516
 O1541 O 0.74048 0.68999 0.78960
 O1542 O 0.80974 0.80863 0.73819
 O1543 O 0.77182 0.76033 0.78373
 O1544 O 0.76048 0.79483 0.75577
 O1545 O 0.71539 0.77566 0.74851
 O1546 O 0.72717 0.73977 0.77755
 C1547 C 0.82772 0.74725 0.71277
 C1548 C 0.78680 0.67900 0.74097
 C1549 C 0.75870 0.76809 0.67012
 O1550 O 0.76304 0.82221 0.71085
 O1551 O 0.72239 0.82283 0.73498
 O1552 O 0.71761 0.81641 0.77666
 C1553 C 0.71457 0.83005 0.75665
 O1554 O 0.70206 0.70589 0.71686
 Zr1555 Zr 0.70893 0.73613 0.74306
 O1556 O 0.69572 0.77801 0.79293
 O1557 O 0.70644 0.79576 0.70105
 O1558 O 0.67925 0.74872 0.71806
 O1559 O 0.69220 0.70411 0.76182
 O1560 O 0.67760 0.75128 0.76371
 C1561 C 0.67609 0.76698 0.78230
 O1562 O 0.75029 0.80706 0.80788
 O1563 O 0.79887 0.71247 0.79556
 O1564 O 0.73707 0.76459 0.81957
 O1565 O 0.75968 0.72659 0.81503
 O1566 O 0.82690 0.75988 0.77759
 O1567 O 0.80476 0.80085 0.78433
 C1568 C 0.74847 0.74409 0.82833
 H1569 H 0.80568 0.72516 0.75051
 H1570 H 0.76403 0.81340 0.75904
 H1571 H 0.71597 0.73273 0.79091
 H1572 H 0.72396 0.74757 0.69875
 H1573 H 0.82903 0.80901 0.74039
 H1574 H 0.75198 0.83198 0.69890
 H1575 H 0.70874 0.81222 0.69185
 H1576 H 0.66288 0.73955 0.72244
 H1577 H 0.84307 0.76916 0.77277
 H1578 H 0.79605 0.69611 0.80480
 H1579 H 0.75149 0.68030 0.80165
 H1580 H 0.67307 0.70467 0.75866
 H1581 H 0.82273 0.80760 0.78209
 H1582 H 0.73567 0.81228 0.81894
 H1583 H 0.76903 0.69895 0.67855
 H1584 H 0.68332 0.70097 0.71714
 Zr1585 Zr 0.23107 0.22035 0.78411
 O1586 O 0.24690 0.19232 0.80865
 O1587 O 0.19236 0.22276 0.79621
 O1588 O 0.23232 0.23453 0.82138
 O1589 O 0.21951 0.17731 0.73561
 O1590 O 0.25279 0.27371 0.81786
 O1591 O 0.21464 0.18300 0.77744
 O1592 O 0.17516 0.25500 0.77209
 O1593 O 0.22327 0.26018 0.78087
 O1594 O 0.21094 0.22550 0.75045
 O1595 O 0.26781 0.23879 0.78501
 O1596 O 0.25581 0.20485 0.75634
 Zr1597 Zr 0.26441 0.27011 0.71843
 Zr1598 Zr 0.25986 0.27828 0.77981
 Zr1599 Zr 0.23596 0.21206 0.72281
 Zr1600 Zr 0.20446 0.26505 0.74661
 O1601 O 0.25781 0.17995 0.70961
 O1602 O 0.19139 0.29972 0.76396
 O1603 O 0.22763 0.25151 0.71704
 O1604 O 0.23991 0.28515 0.74634
 O1605 O 0.28499 0.26522 0.75195
 O1606 O 0.27227 0.23040 0.72211
 C1607 C 0.17377 0.23804 0.78951
 C1608 C 0.21206 0.16955 0.75718
 C1609 C 0.24222 0.25555 0.83060
 O1610 O 0.23852 0.31103 0.79225
 O1611 O 0.27894 0.31179 0.76732
 O1612 O 0.28203 0.30690 0.72525
 C1613 C 0.28597 0.31973 0.74569
 O1614 O 0.29902 0.19483 0.78133
 Zr1615 Zr 0.29130 0.22548 0.75596
 O1616 O 0.30336 0.26870 0.70716
 O1617 O 0.29496 0.28358 0.80033
 O1618 O 0.32154 0.23801 0.78037
 O1619 O 0.30721 0.19330 0.73646
 O1620 O 0.32204 0.23999 0.73416
 C1621 C 0.32310 0.25646 0.71624
 O1622 O 0.24864 0.29866 0.69441
 O1623 O 0.20052 0.20597 0.70305
 O1624 O 0.26208 0.25653 0.68098
 O1625 O 0.24219 0.21706 0.68469
 O1626 O 0.17191 0.25160 0.72560
 O1627 O 0.19550 0.29164 0.71763
 C1628 C 0.25291 0.23511 0.67190
 H1629 H 0.19407 0.21612 0.74971
 H1630 H 0.23646 0.30385 0.74378
 H1631 H 0.28334 0.22345 0.70855
 H1632 H 0.27703 0.23551 0.80095
 H1633 H 0.17210 0.30052 0.76197
 H1634 H 0.24995 0.32033 0.80426
 H1635 H 0.29287 0.29974 0.81018
 H1636 H 0.33792 0.22917 0.77523
 H1637 H 0.15633 0.26152 0.73115
 H1638 H 0.20266 0.18964 0.69350
 H1639 H 0.24663 0.17080 0.69728
 H1640 H 0.32643 0.19350 0.73920
 H1641 H 0.17772 0.29887 0.72019
 H1642 H 0.26300 0.30417 0.68324
 H1643 H 0.23252 0.18689 0.81983
 H1644 H 0.31793 0.19051 0.78107
 Zr1645 Zr 0.26567 0.77873 0.28735
 O1646 O 0.25134 0.80728 0.31222
 O1647 O 0.30397 0.77381 0.30014
 O1648 O 0.26346 0.76399 0.32428
 O1649 O 0.28025 0.82082 0.23946
 O1650 O 0.23981 0.72667 0.31977
 O1651 O 0.28421 0.81540 0.28138
 O1652 O 0.31922 0.74016 0.27652
 O1653 O 0.27064 0.73844 0.28380
 O1654 O 0.28603 0.77217 0.25422
 O1655 O 0.22773 0.76275 0.28711
 O1656 O 0.24256 0.79583 0.25911
 Zr1657 Zr 0.22991 0.73144 0.21997
 Zr1658 Zr 0.23293 0.72285 0.28151
 Zr1659 Zr 0.26242 0.78709 0.22611
 Zr1660 Zr 0.28976 0.73228 0.25009
 O1661 O 0.24289 0.82009 0.21173
 O1662 O 0.29986 0.69676 0.26751
 O1663 O 0.26804 0.74728 0.22008
 O1664 O 0.25293 0.71480 0.24843
 O1665 O 0.20927 0.73765 0.25317
 O1666 O 0.22488 0.77156 0.22401
 C1667 C 0.32153 0.75719 0.29395
 C1668 C 0.28790 0.82842 0.26108
 C1669 C 0.25197 0.74363 0.33299
 O1670 O 0.25156 0.68865 0.29423
 O1671 O 0.21215 0.69055 0.26814
 O1672 O 0.21032 0.69547 0.22600
 C1673 C 0.20536 0.68281 0.24624
 O1674 O 0.20008 0.80900 0.28290
 Zr1675 Zr 0.20577 0.77772 0.25760
 O1676 O 0.19112 0.73580 0.20814
 O1677 O 0.19705 0.72004 0.30088
 O1678 O 0.17442 0.76772 0.28148
 O1679 O 0.19245 0.81072 0.23770
 O1680 O 0.17421 0.76515 0.23561
 C1681 C 0.17215 0.74902 0.21743
 O1682 O 0.24366 0.70209 0.19566
 O1683 O 0.29893 0.79150 0.20807
 O1684 O 0.23428 0.74509 0.18256
 O1685 O 0.25849 0.78174 0.18793
 O1686 O 0.32338 0.74374 0.22990
 O1687 O 0.29772 0.70502 0.22131
 C1688 C 0.24689 0.76499 0.17412
 H1689 H 0.30347 0.78051 0.25399
 H1690 H 0.25521 0.69593 0.24579
 H1691 H 0.21476 0.77925 0.21010
 H1692 H 0.21855 0.76655 0.30290
 H1693 H 0.31910 0.69460 0.26617
 H1694 H 0.23928 0.68018 0.30588
 H1695 H 0.19779 0.70381 0.31069
 H1696 H 0.15887 0.77791 0.27625
 H1697 H 0.33831 0.73310 0.23591
 H1698 H 0.29803 0.80783 0.19841
 H1699 H 0.25504 0.82844 0.19988
 H1700 H 0.17325 0.81192 0.24007
 H1701 H 0.31506 0.69693 0.22425
 H1702 H 0.22903 0.69783 0.18414
 H1703 H 0.26599 0.81174 0.32364
 H1704 H 0.18165 0.81497 0.28201
 Zr1705 Zr 0.23304 0.77246 0.71998
 O1706 O 0.24681 0.80083 0.69489
 O1707 O 0.19416 0.76837 0.70856
 O1708 O 0.23399 0.75809 0.68273
 O1709 O 0.22272 0.81625 0.76814
 O1710 O 0.25670 0.72006 0.68626
 O1711 O 0.21532 0.80917 0.72671
 O1712 O 0.17796 0.73759 0.73469
 O1713 O 0.22710 0.73243 0.72346
 O1714 O 0.21401 0.76688 0.75396
 O1715 O 0.27063 0.75574 0.71883
 O1716 O 0.25757 0.78916 0.74747
 Zr1717 Zr 0.27046 0.72454 0.78552
 Zr1718 Zr 0.26466 0.71603 0.72425
 Zr1719 Zr 0.23895 0.78134 0.78132
 Zr1720 Zr 0.20938 0.72712 0.75802
 O1721 O 0.26031 0.81304 0.79605
 O1722 O 0.19706 0.69285 0.73950
 O1723 O 0.23280 0.74155 0.78710
 O1724 O 0.24584 0.70855 0.75797
 O1725 O 0.28993 0.73023 0.75173
 O1726 O 0.27613 0.76459 0.78185
 C1727 C 0.17566 0.75404 0.71688
 C1728 C 0.21394 0.82321 0.74667
 C1729 C 0.24486 0.73754 0.67349
 O1730 O 0.24471 0.68233 0.71214
 O1731 O 0.28549 0.68336 0.73642
 O1732 O 0.28906 0.68815 0.77849
 C1733 C 0.29307 0.67552 0.75797
 O1734 O 0.29979 0.80076 0.72176
 Zr1735 Zr 0.29403 0.77023 0.74763
 O1736 O 0.30974 0.72790 0.79629
 O1737 O 0.29958 0.71220 0.70343
 O1738 O 0.32456 0.75873 0.72330
 O1739 O 0.30806 0.80359 0.76662
 O1740 O 0.32585 0.75806 0.76949
 C1741 C 0.32835 0.74171 0.78734
 O1742 O 0.25715 0.69534 0.80996
 O1743 O 0.20306 0.78788 0.79996
 O1744 O 0.26758 0.73795 0.82296
 O1745 O 0.24293 0.77485 0.81957
 O1746 O 0.17795 0.73894 0.78115
 O1747 O 0.20239 0.69901 0.78605
 C1748 C 0.25506 0.75751 0.83230
 H1749 H 0.19691 0.77589 0.75503
 H1750 H 0.24327 0.68973 0.76054
 H1751 H 0.28686 0.77195 0.79554
 H1752 H 0.27933 0.75931 0.70278
 H1753 H 0.17786 0.69138 0.74175
 H1754 H 0.25622 0.67357 0.69991
 H1755 H 0.29810 0.69596 0.69358
 H1756 H 0.34051 0.76848 0.72815
 H1757 H 0.16227 0.72888 0.77610
 H1758 H 0.20505 0.80413 0.80969
 H1759 H 0.24870 0.82185 0.80817
 H1760 H 0.32720 0.80454 0.76379
 H1761 H 0.18486 0.69125 0.78345
 H1762 H 0.27211 0.69069 0.82094
 H1763 H 0.23182 0.80563 0.68399
 H1764 H 0.31844 0.80602 0.72195
 Zr1765 Zr 0.26826 0.22998 0.21718
 O1766 O 0.25313 0.20211 0.19195
 O1767 O 0.30694 0.23310 0.20525
 O1768 O 0.26696 0.24447 0.18012
 O1769 O 0.27912 0.18610 0.26493
 O1770 O 0.24554 0.28321 0.18415
 O1771 O 0.28497 0.19263 0.22334
 O1772 O 0.32445 0.26364 0.23125
 O1773 O 0.27523 0.26989 0.22088
 O1774 O 0.28825 0.23511 0.25092
 O1775 O 0.23111 0.24771 0.21652
 O1776 O 0.24397 0.21385 0.24481
 Zr1777 Zr 0.23369 0.27868 0.28356
 Zr1778 Zr 0.23812 0.28728 0.22223
 Zr1779 Zr 0.26360 0.22120 0.27845
 Zr1780 Zr 0.29393 0.27476 0.25521
 O1781 O 0.24178 0.18985 0.29285
 O1782 O 0.30657 0.30879 0.23683
 O1783 O 0.27094 0.26079 0.28453
 O1784 O 0.25792 0.29425 0.25580
 O1785 O 0.21337 0.27354 0.24992
 O1786 O 0.22683 0.23882 0.27954
 C1787 C 0.32592 0.24713 0.21330
 C1788 C 0.28683 0.17867 0.24326
 C1789 C 0.25659 0.26538 0.17116
 O1790 O 0.25832 0.32090 0.21072
 O1791 O 0.21710 0.31978 0.23495
 O1792 O 0.21552 0.31538 0.27718
 C1793 C 0.21032 0.32765 0.25675
 O1794 O 0.20151 0.20269 0.22006
 Zr1795 Zr 0.20804 0.23373 0.24546
 O1796 O 0.19461 0.27634 0.29472
 O1797 O 0.20314 0.29171 0.20131
 O1798 O 0.17758 0.24510 0.22077
 O1799 O 0.19267 0.20160 0.26508
 O1800 O 0.17676 0.24821 0.26654
 C1801 C 0.17519 0.26423 0.28485
 O1802 O 0.24856 0.30736 0.30805
 O1803 O 0.29967 0.21392 0.29682
 O1804 O 0.23670 0.26486 0.32084
 O1805 O 0.26036 0.22744 0.31678
 O1806 O 0.32575 0.26220 0.27768
 O1807 O 0.30229 0.30259 0.28341
 C1808 C 0.24878 0.24486 0.32986
 H1809 H 0.30515 0.22569 0.25168
 H1810 H 0.26088 0.31301 0.25850
 H1811 H 0.21610 0.23176 0.29323
 H1812 H 0.22202 0.24436 0.20052
 H1813 H 0.32585 0.30982 0.23881
 H1814 H 0.24674 0.32989 0.19864
 H1815 H 0.20473 0.30802 0.19173
 H1816 H 0.16152 0.23567 0.22565
 H1817 H 0.34149 0.27195 0.27247
 H1818 H 0.29751 0.19771 0.30645
 H1819 H 0.25338 0.18071 0.30480
 H1820 H 0.17348 0.20147 0.26219
 H1821 H 0.31990 0.31001 0.28061
 H1822 H 0.23404 0.31240 0.31930
 H1823 H 0.26773 0.19692 0.18085
 H1824 H 0.18285 0.19755 0.22052
 Zr1825 Zr 0.72569 0.72204 0.28177
 O1826 O 0.73770 0.69500 0.30914
 O1827 O 0.68575 0.72557 0.28929
 O1828 O 0.72361 0.73769 0.31843
 O1829 O 0.71947 0.67661 0.23443
 O1830 O 0.74372 0.77708 0.31518
 O1831 O 0.70986 0.68444 0.27516
 O1832 O 0.67172 0.75641 0.26186
 O1833 O 0.71880 0.76172 0.27595
 O1834 O 0.70970 0.72566 0.24602
 O1835 O 0.76236 0.74024 0.28572
 O1836 O 0.75331 0.70492 0.25759
 Zr1837 Zr 0.76742 0.76811 0.21796
 Zr1838 Zr 0.75555 0.77950 0.27798
 Zr1839 Zr 0.73762 0.71062 0.22190
 Zr1840 Zr 0.70429 0.76502 0.23969
 O1841 O 0.76058 0.67789 0.21227
 O1842 O 0.68972 0.80054 0.25410
 O1843 O 0.73070 0.74982 0.21356
 O1844 O 0.73988 0.78475 0.24228
 O1845 O 0.78376 0.76475 0.25367
 O1846 O 0.77410 0.72854 0.22415
 C1847 C 0.66814 0.74039 0.27978
 C1848 C 0.70952 0.66997 0.25542
 C1849 C 0.73218 0.75928 0.32761
 O1850 O 0.73321 0.81295 0.28652
 O1851 O 0.77604 0.81245 0.26608
 O1852 O 0.78488 0.80488 0.22511
 C1853 C 0.78600 0.81899 0.24506
 O1854 O 0.79311 0.69625 0.28791
 Zr1855 Zr 0.78892 0.72515 0.26006
 O1856 O 0.80756 0.76538 0.21107
 O1857 O 0.78811 0.78558 0.30182
 O1858 O 0.81656 0.73906 0.28648
 O1859 O 0.80593 0.69137 0.24426
 O1860 O 0.82233 0.73706 0.24058
 C1861 C 0.82574 0.75263 0.22226
 O1862 O 0.75557 0.79596 0.19131
 O1863 O 0.70450 0.70359 0.19902
 O1864 O 0.76823 0.75310 0.18091
 O1865 O 0.74771 0.71397 0.18442
 O1866 O 0.67448 0.75081 0.21565
 O1867 O 0.69929 0.79030 0.20885
 C1868 C 0.75951 0.73149 0.17184
 H1869 H 0.69292 0.71633 0.24389
 H1870 H 0.73700 0.80331 0.23849
 H1871 H 0.78642 0.72078 0.21204
 H1872 H 0.76967 0.73774 0.30264
 H1873 H 0.67081 0.80150 0.24991
 H1874 H 0.74318 0.82277 0.29930
 H1875 H 0.78507 0.80224 0.31062
 H1876 H 0.83321 0.72958 0.28371
 H1877 H 0.65844 0.76114 0.21885
 H1878 H 0.70757 0.68681 0.19045
 H1879 H 0.75073 0.66823 0.19930
 H1880 H 0.82468 0.69110 0.24916
 H1881 H 0.68145 0.79788 0.20919
 H1882 H 0.77133 0.80053 0.18152
 H1883 H 0.72192 0.69034 0.31885
 H1884 H 0.81187 0.69177 0.28994
 Zr1885 Zr 0.76957 0.27657 0.78384
 O1886 O 0.75760 0.30291 0.81191
 O1887 O 0.80968 0.27336 0.79114
 O1888 O 0.77250 0.26031 0.82009
 O1889 O 0.77218 0.32402 0.73829
 O1890 O 0.75541 0.21964 0.81544
 O1891 O 0.78481 0.31449 0.77802
 O1892 O 0.82381 0.24397 0.76225
 O1893 O 0.77774 0.23739 0.77639
 O1894 O 0.78452 0.27472 0.74770
 O1895 O 0.73377 0.25683 0.78782
 O1896 O 0.74049 0.29345 0.76093
 Zr1897 Zr 0.72756 0.23110 0.71921
 Zr1898 Zr 0.74186 0.21812 0.77854
 Zr1899 Zr 0.75521 0.28959 0.72475
 Zr1900 Zr 0.79114 0.23580 0.73975
 O1901 O 0.73052 0.32156 0.71675
 O1902 O 0.80731 0.20001 0.75174
 O1903 O 0.76335 0.25096 0.71479
 O1904 O 0.75644 0.21461 0.74233
 O1905 O 0.71238 0.23262 0.75535
 O1906 O 0.71952 0.27016 0.72697
 C1907 C 0.82733 0.25904 0.78107
 C1908 C 0.78341 0.32987 0.75905
 C1909 C 0.76578 0.23785 0.82850
 O1910 O 0.76561 0.18513 0.78502
 O1911 O 0.72183 0.18499 0.76593
 O1912 O 0.71083 0.19389 0.72563
 C1913 C 0.71085 0.17910 0.74506
 O1914 O 0.70161 0.30000 0.79185
 Zr1915 Zr 0.70578 0.27170 0.76327
 O1916 O 0.68730 0.23293 0.71281
 O1917 O 0.71060 0.21017 0.80309
 O1918 O 0.67981 0.25659 0.79028
 O1919 O 0.68633 0.30466 0.74850
 O1920 O 0.67220 0.25781 0.74484
 C1921 C 0.66881 0.24336 0.72554
 O1922 O 0.73943 0.20417 0.69164
 O1923 O 0.78735 0.29883 0.70169
 O1924 O 0.72562 0.24704 0.68263
 O1925 O 0.74420 0.28705 0.68730
 O1926 O 0.82008 0.25211 0.71636
 O1927 O 0.79584 0.21246 0.70738
 C1928 C 0.73316 0.26929 0.67419
 H1929 H 0.80098 0.28459 0.74571
 H1930 H 0.75976 0.19629 0.73774
 H1931 H 0.70650 0.27771 0.71534
 H1932 H 0.72688 0.25852 0.80494
 H1933 H 0.82606 0.19988 0.74706
 H1934 H 0.75653 0.17454 0.79768
 H1935 H 0.71461 0.19337 0.81117
 H1936 H 0.66274 0.26554 0.78819
 H1937 H 0.83643 0.24203 0.71886
 H1938 H 0.78327 0.31570 0.69377
 H1939 H 0.73955 0.33208 0.70400
 H1940 H 0.66777 0.30372 0.75376
 H1941 H 0.81393 0.20551 0.70687
 H1942 H 0.72353 0.19945 0.68196
 H1943 H 0.77347 0.30765 0.82163
 H1944 H 0.68282 0.30417 0.79409
 C1945 C 0.46068 1.02587 0.35924
 C1946 C 0.46347 1.00402 0.34381
 C1947 C 0.47785 0.98259 0.35288
 C1948 C 0.48799 0.98261 0.37728
 C1949 C 0.48364 1.00396 0.39302
 C1950 C 0.47057 1.02580 0.38345
 H1951 H 0.44951 1.04257 0.35315
 H1952 H 0.48062 0.96555 0.34136
 H1953 H 0.49790 0.96550 0.38424
 H1954 H 0.46703 1.04261 0.39513
 C1955 C -0.02994 0.52380 0.85298
 C1956 C -0.03725 0.50053 0.84087
 C1957 C -0.03008 0.47692 0.85256
 C1958 C -0.01798 0.47667 0.87608
 C1959 C -0.01300 0.49994 0.88869
 C1960 C -0.01841 0.52345 0.87664
 H1961 H -0.03514 0.54254 0.84546
 H1962 H -0.03394 0.45842 0.84376
 H1963 H -0.01419 0.45828 0.88511
 H1964 H -0.01508 0.54168 0.88622
 C1965 C 0.01605 0.00564 0.85463
 C1966 C 0.04240 0.01195 0.84989
 C1967 C 0.05733 0.02324 0.86906
 C1968 C 0.04703 0.02611 0.89288
 C1969 C 0.02144 0.01796 0.89821
 C1970 C 0.00562 0.00861 0.87869
 H1971 H 0.00405 -0.00301 0.84016
 H1972 H 0.07743 0.02897 0.86586
 H1973 H 0.05960 0.03348 0.90758
 H1974 H -0.01405 0.00189 0.88242
 C1975 C 0.51907 0.50612 0.35576
 C1976 C 0.54538 0.51173 0.35010
 C1977 C 0.56124 0.52295 0.36861
 C1978 C 0.55185 0.52649 0.39269
 C1979 C 0.52628 0.51906 0.39895
 C1980 C 0.50956 0.50974 0.38011
 H1981 H 0.50637 0.49756 0.34181
 H1982 H 0.58134 0.52816 0.36469
 H1983 H 0.56510 0.53383 0.40686
 H1984 H 0.48988 0.50358 0.38456
 C1985 C 0.55967 0.47622 0.13143
 C1986 C 0.54388 0.48508 0.15105
 C1987 C 0.51795 0.49284 0.14569
 C1988 C 0.50832 0.49215 0.12107
 C1989 C 0.52468 0.48410 0.10154
 C1990 C 0.55023 0.47577 0.10711
 H1991 H 0.57981 0.47051 0.13471
 H1992 H 0.50529 0.49965 0.16046
 H1993 H 0.48866 0.49899 0.11715
 H1994 H 0.56330 0.46961 0.09237
 C1995 C 0.01904 0.99085 0.64649
 C1996 C 0.04502 0.98329 0.65189
 C1997 C 0.06063 0.97380 0.63239
 C1998 C 0.05100 0.97266 0.60814
 C1999 C 0.02544 0.98089 0.60251
 C2000 C 0.00923 0.98949 0.62195
 H2001 H 0.00649 0.99812 0.66114
 H2002 H 0.08082 0.96822 0.63566
 H2003 H 0.06397 0.96618 0.59345
 H2004 H -0.01041 0.99635 0.61798
 C2005 C -0.03410 0.52923 0.63903
 C2006 C -0.03935 0.50555 0.65111
 C2007 C -0.03074 0.48245 0.63975
 C2008 C -0.01919 0.48281 0.61622
 C2009 C -0.01535 0.50627 0.60364
 C2010 C -0.02216 0.52958 0.61551
 H2011 H -0.04061 0.54742 0.64702
 H2012 H -0.03374 0.46390 0.64865
 H2013 H -0.01436 0.46457 0.60725
 H2014 H -0.01998 0.54785 0.60587
 C2015 C 0.44014 0.03004 0.13170
 C2016 C 0.45201 0.01473 0.15027
 C2017 C 0.47610 0.00256 0.14480
 C2018 C 0.48701 0.00425 0.12089
 C2019 C 0.47396 0.01803 0.10205
 C2020 C 0.45081 0.03138 0.10785
 H2021 H 0.42207 0.04036 0.13533
 H2022 H 0.48577 -0.00949 0.15853
 H2023 H 0.50458 -0.00668 0.11664
 H2024 H 0.44031 0.04194 0.09352
 C2025 C 0.35795 0.43958 -0.01258
 C2026 C 0.35303 0.41991 0.00478
 C2027 C 0.37220 0.41479 0.02313
 C2028 C 0.39585 0.42872 0.02379
 C2029 C 0.40101 0.44783 0.00587
 C2030 C 0.38160 0.45321 -0.01213
 H2031 H 0.34382 0.44390 -0.02709
 H2032 H 0.36893 0.39991 0.03693
 H2033 H 0.41040 0.42398 0.03779
 H2034 H 0.38484 0.46783 -0.02620
 C2035 C -0.14132 0.93797 0.48752
 C2036 C -0.14638 0.91734 0.50377
 C2037 C -0.12703 0.91068 0.52150
 C2038 C -0.10310 0.92417 0.52265
 C2039 C -0.09787 0.94431 0.50583
 C2040 C -0.11743 0.95113 0.48845
 H2041 H -0.15559 0.94348 0.47352
 H2042 H -0.13040 0.89502 0.53445
 H2043 H -0.08842 0.91834 0.53615
 H2044 H -0.11416 0.96659 0.47524
 C2045 C -0.13929 0.07398 0.97085
 C2046 C -0.15215 0.07985 0.99356
 C2047 C -0.14046 0.07047 1.01563
 C2048 C -0.11714 0.05632 1.01517
 C2049 C -0.10415 0.05093 0.99269
 C2050 C -0.11552 0.05999 0.97048
 H2051 H -0.14680 0.08104 0.95328
 H2052 H -0.14966 0.07305 1.03356
 H2053 H -0.10923 0.04966 1.03277
 H2054 H -0.10605 0.05631 0.95282
 C2055 C 0.36810 0.57689 0.47313
 C2056 C 0.35479 0.58230 0.49555
 C2057 C 0.36667 0.57456 0.51799
 C2058 C 0.39077 0.56165 0.51810
 C2059 C 0.40411 0.55612 0.49578
 C2060 C 0.39249 0.56403 0.47325
 H2061 H 0.35956 0.58229 0.45541
 H2062 H 0.35758 0.57888 0.53569
 H2063 H 0.39908 0.55621 0.53593
 H2064 H 0.40211 0.56011 0.45571
 C2065 C 0.14453 0.56002 0.48743
 C2066 C 0.14966 0.57878 0.50581
 C2067 C 0.13083 0.58282 0.52455
 C2068 C 0.10736 0.56860 0.52473
 C2069 C 0.10201 0.55030 0.50592
 C2070 C 0.12102 0.54611 0.48740
 H2071 H 0.15842 0.55657 0.47260
 H2072 H 0.13427 0.59700 0.53911
 H2073 H 0.09316 0.57237 0.53921
 H2074 H 0.11767 0.53212 0.47265
 C2075 C 0.64037 0.05784 -0.01255
 C2076 C 0.64482 0.07878 0.00370
 C2077 C 0.62559 0.08461 0.02165
 C2078 C 0.60237 0.07004 0.02304
 C2079 C 0.59769 0.04956 0.00625
 C2080 C 0.61716 0.04356 -0.01137
 H2081 H 0.65458 0.05291 -0.02671
 H2082 H 0.62852 0.10046 0.03463
 H2083 H 0.58781 0.07524 0.03677
 H2084 H 0.61433 0.02790 -0.02459
 C2085 C 0.64083 0.93655 0.51134
 C2086 C 0.64915 0.92315 0.49002
 C2087 C 0.63402 0.92548 0.46808
 C2088 C 0.61074 0.94030 0.46781
 C2089 C 0.60224 0.95328 0.48943
 C2090 C 0.61789 0.95134 0.51106
 H2091 H 0.65219 0.93570 0.52840
 H2092 H 0.63982 0.91533 0.45131
 H2093 H 0.59925 0.94128 0.45084
 H2094 H 0.61236 0.96112 0.52812
 C2095 C 0.13551 0.42477 0.96716
 C2096 C 0.14762 0.41774 0.98984
 C2097 C 0.13452 0.42360 1.01209
 C2098 C 0.11039 0.43642 1.01182
 C2099 C 0.09835 0.44386 0.98926
 C2100 C 0.11115 0.43767 0.96687
 H2101 H 0.14505 0.42070 0.94962
 H2102 H 0.14276 0.41797 1.02988
 H2103 H 0.10118 0.44053 1.02952
 H2104 H 0.10256 0.44312 0.94917
 C2105 C 0.01442 0.35341 0.44419
 C2106 C -0.00938 0.34479 0.43392
 C2107 C -0.03123 0.36136 0.43378
 C2108 C -0.02919 0.38628 0.44357
 C2109 C -0.00540 0.39471 0.45389
 C2110 C 0.01631 0.37810 0.45430
 H2111 H 0.03179 0.34133 0.44389
 H2112 H -0.04982 0.35505 0.42614
 H2113 H -0.04626 0.39881 0.44341
 H2114 H 0.03491 0.38437 0.46201
 C2115 C 0.49828 -0.15339 -0.03507
 C2116 C 0.48643 -0.15782 -0.05828
 C2117 C 0.47388 -0.13734 -0.07068
 C2118 C 0.47431 -0.11250 -0.06062
 C2119 C 0.48741 -0.10774 -0.03805
 C2120 C 0.49880 -0.12851 -0.02502
 H2121 H 0.50781 -0.16903 -0.02508
 H2122 H 0.46492 -0.14022 -0.08880
 H2123 H 0.46522 -0.09691 -0.07103
 H2124 H 0.50869 -0.12549 -0.00737
 C2125 C -0.00096 -0.15165 1.03649
 C2126 C 0.01043 -0.15506 1.06006
 C2127 C 0.02142 -0.13375 1.07255
 C2128 C 0.02021 -0.10925 1.06209
 C2129 C 0.00778 -0.10557 1.03901
 C2130 C -0.00232 -0.12704 1.02603
 H2131 H -0.00928 -0.16791 1.02642
 H2132 H 0.02990 -0.13578 1.09096
 H2133 H 0.02824 -0.09310 1.07253
 H2134 H -0.01170 -0.12478 1.00803
 C2135 C 0.52994 0.37324 0.57796
 C2136 C 0.52260 0.35145 0.56387
 C2137 C 0.51423 0.35463 0.53915
 C2138 C 0.51171 0.37936 0.52918
 C2139 C 0.51784 0.40119 0.54372
 C2140 C 0.52769 0.39791 0.56792
 H2141 H 0.53605 0.37136 0.59721
 H2142 H 0.50884 0.33805 0.52782
 H2143 H 0.50462 0.38140 0.51025
 H2144 H 0.53266 0.41446 0.57948
 C2145 C 0.48295 1.13676 0.58025
 C2146 C 0.49083 1.15905 0.56744
 C2147 C 0.50047 1.15679 0.54311
 C2148 C 0.50289 1.13250 0.53201
 C2149 C 0.49545 1.11018 0.54502
 C2150 C 0.48514 1.11253 0.56909
 H2151 H 0.47592 1.13796 0.59921
 H2152 H 0.50635 1.17377 0.53276
 H2153 H 0.51051 1.13123 0.51327
 H2154 H 0.47931 1.09558 0.57954
 C2155 C -0.01687 0.62969 1.07902
 C2156 C -0.01018 0.65198 1.06560
 C2157 C -0.00051 0.64957 1.04130
 C2158 C 0.00298 0.62518 1.03077
 C2159 C -0.00353 0.60293 1.04428
 C2160 C -0.01371 0.60532 1.06837
 H2161 H -0.02384 0.63104 1.09799
 H2162 H 0.00447 0.66653 1.03050
 H2163 H 0.01038 0.62375 1.01195
 H2164 H -0.01884 0.58833 1.07910
 C2165 C 0.50656 0.64417 -0.04860
 C2166 C 0.52216 0.64679 -0.06985
 C2167 C 0.53503 0.62511 -0.07977
 C2168 C 0.53175 0.60091 -0.06897
 C2169 C 0.51544 0.59807 -0.04815
 C2170 C 0.50321 0.61999 -0.03783
 H2171 H 0.49613 0.66065 -0.04092
 H2172 H 0.54722 0.62687 -0.09612
 H2173 H 0.54168 0.58440 -0.07718
 H2174 H 0.49069 0.61844 -0.02168
 C2175 C -0.00952 1.13857 0.44645
 C2176 C 0.01361 1.14730 0.43485
 C2177 C 0.03535 1.13032 0.43399
 C2178 C 0.03371 1.10546 0.44377
 C2179 C 0.01056 1.09719 0.45502
 C2180 C -0.01090 1.11394 0.45652
 H2181 H -0.02732 1.14994 0.44673
 H2182 H 0.05398 1.13618 0.42639
 H2183 H 0.05069 1.09285 0.44292
 H2184 H -0.02910 1.10775 0.46491
 C2185 C 0.72546 0.72788 0.89319
 C2186 C 0.74843 0.71701 0.90353
 C2187 C 0.77189 0.71888 0.89015
 C2188 C 0.77206 0.72961 0.86631
 C2189 C 0.74890 0.73913 0.85541
 C2190 C 0.72574 0.73904 0.86936
 H2191 H 0.70712 0.72689 0.90317
 H2192 H 0.78983 0.71053 0.89741
 H2193 H 0.79013 0.72928 0.85581
 H2194 H 0.70757 0.74593 0.86121
 C2195 C 0.27275 0.21969 0.39143
 C2196 C 0.24932 0.21727 0.40479
 C2197 C 0.22624 0.22816 0.39468
 C2198 C 0.22634 0.23968 0.37100
 C2199 C 0.24945 0.24020 0.35700
 C2200 C 0.27276 0.23086 0.36778
 H2201 H 0.29080 0.21137 0.39849
 H2202 H 0.20792 0.22687 0.40466
 H2203 H 0.20806 0.24640 0.36295
 H2204 H 0.29080 0.23084 0.35723
 C2205 C 0.77602 0.27934 0.39382
 C2206 C 0.75186 0.28533 0.40520
 C2207 C 0.72865 0.27822 0.39272
 C2208 C 0.72947 0.26752 0.36881
 C2209 C 0.75350 0.26295 0.35699
 C2210 C 0.77681 0.26812 0.36996
 H2211 H 0.79433 0.28469 0.40265
 H2212 H 0.70970 0.28175 0.40105
 H2213 H 0.71124 0.26380 0.35904
 H2214 H 0.79555 0.26524 0.36097
 C2215 C 0.22774 0.77590 0.89449
 C2216 C 0.25030 0.78412 0.90736
 C2217 C 0.27498 0.77900 0.89664
 C2218 C 0.27687 0.76768 0.87289
 C2219 C 0.25413 0.76144 0.85945
 C2220 C 0.22964 0.76497 0.87074
 H2221 H 0.20847 0.77885 0.90234
 H2222 H 0.29281 0.78524 0.90583
 H2223 H 0.29592 0.76571 0.86428
 H2224 H 0.21182 0.76052 0.86055
 C2225 C 0.22950 0.77303 0.10513
 C2226 C 0.24698 0.79316 0.09864
 C2227 C 0.26662 0.79986 0.11590
 C2228 C 0.26759 0.78862 0.13929
 C2229 C 0.24840 0.77085 0.14699
 C2230 C 0.22984 0.76234 0.12935
 H2231 H 0.21421 0.76702 0.09234
 H2232 H 0.28159 0.81390 0.11134
 H2233 H 0.28294 0.79497 0.15187
 H2234 H 0.21489 0.74858 0.13459
 C2235 C 0.72143 0.31170 0.61887
 C2236 C 0.73386 0.29795 0.59938
 C2237 C 0.74149 0.27199 0.60425
 C2238 C 0.73920 0.26137 0.62827
 C2239 C 0.72895 0.27629 0.64781
 C2240 C 0.71923 0.30111 0.64258
 H2241 H 0.71336 0.33088 0.61611
 H2242 H 0.75118 0.26037 0.59026
 H2243 H 0.74719 0.24228 0.63195
 H2244 H 0.71093 0.31291 0.65732
 C2245 C 0.26615 0.19503 0.61533
 C2246 C 0.25153 0.20785 0.59688
 C2247 C 0.24067 0.23235 0.60243
 C2248 C 0.24281 0.24280 0.62660
 C2249 C 0.25600 0.22892 0.64530
 C2250 C 0.26825 0.20538 0.63921
 H2251 H 0.27531 0.17649 0.61148
 H2252 H 0.22937 0.24268 0.58853
 H2253 H 0.23283 0.26077 0.63105
 H2254 H 0.27841 0.19431 0.65341
 C2255 C 0.76964 0.68934 0.11605
 C2256 C 0.75810 0.70384 0.09661
 C2257 C 0.75157 0.73007 0.10174
 C2258 C 0.75404 0.74031 0.12598
 C2259 C 0.76347 0.72472 0.14541
 C2260 C 0.77216 0.69958 0.13993
 H2261 H 0.77685 0.66984 0.11307
 H2262 H 0.74260 0.74222 0.08771
 H2263 H 0.74687 0.75968 0.12987
 H2264 H 0.77984 0.68727 0.15459
 C2265 C 0.17322 0.61999 0.26700
 C2266 C 0.16512 0.60846 0.24453
 C2267 C 0.17050 0.62166 0.22215
 C2268 C 0.18336 0.64585 0.22239
 C2269 C 0.19126 0.65736 0.24503
 C2270 C 0.18597 0.64392 0.26726
 H2271 H 0.16998 0.61032 0.28457
 H2272 H 0.16440 0.61349 0.20447
 H2273 H 0.18710 0.65551 0.20491
 H2274 H 0.19180 0.65182 0.28514
 C2275 C 0.69191 0.10989 0.76092
 C2276 C 0.66899 0.10572 0.74661
 C2277 C 0.66106 0.12602 0.73044
 C2278 C 0.67514 0.14940 0.72903
 C2279 C 0.69730 0.15352 0.74406
 C2280 C 0.70556 0.13337 0.75983
 H2281 H 0.69881 0.09570 0.77420
 H2282 H 0.64429 0.12387 0.71824
 H2283 H 0.66823 0.16453 0.71669
 H2284 H 0.72256 0.13589 0.77174
 C2285 C 0.82591 0.11287 0.23632
 C2286 C 0.82889 0.09845 0.25828
 C2287 C 0.81980 0.10948 0.28075
 C2288 C 0.80763 0.13404 0.28105
 C2289 C 0.80414 0.14803 0.25885
 C2290 C 0.81371 0.13713 0.23658
 H2291 H 0.83328 0.10556 0.21878
 H2292 H 0.82160 0.09895 0.29806
 H2293 H 0.80045 0.14177 0.29850
 H2294 H 0.81180 0.14738 0.21911
 C2295 C 0.32241 0.61108 0.77980
 C2296 C 0.33079 0.59998 0.75710
 C2297 C 0.32748 0.61450 0.73524
 C2298 C 0.31574 0.63899 0.73586
 C2299 C 0.30697 0.65000 0.75839
 C2300 C 0.31069 0.63582 0.78044
 H2301 H 0.32445 0.60046 0.79704
 H2302 H 0.33426 0.60709 0.71752
 H2303 H 0.31356 0.64933 0.71846
 H2304 H 0.30408 0.64359 0.79809
 C2305 C 0.31613 0.38342 0.76730
 C2306 C 0.32558 0.39467 0.74512
 C2307 C 0.32140 0.38046 0.72277
 C2308 C 0.30856 0.35634 0.72271
 C2309 C 0.29942 0.34547 0.74496
 C2310 C 0.30339 0.35948 0.76717
 H2311 H 0.31941 0.39229 0.78529
 H2312 H 0.32722 0.38805 0.70493
 H2313 H 0.30574 0.34624 0.70520
 H2314 H 0.29689 0.35181 0.78483
 C2315 C 0.83151 0.87442 0.22679
 C2316 C 0.82675 0.89267 0.24587
 C2317 C 0.80789 0.88675 0.26389
 C2318 C 0.79458 0.86308 0.26326
 C2319 C 0.79948 0.84463 0.24441
 C2320 C 0.81787 0.85076 0.22595
 H2321 H 0.84576 0.87849 0.21247
 H2322 H 0.80389 0.90018 0.27895
 H2323 H 0.78047 0.85917 0.27775
 H2324 H 0.82212 0.83708 0.21118
 C2325 C 0.68849 0.89608 0.73692
 C2326 C 0.67344 0.90435 0.75752
 C2327 C 0.67314 0.88774 0.77854
 C2328 C 0.68683 0.86399 0.77871
 C2329 C 0.70118 0.85587 0.75785
 C2330 C 0.70194 0.87244 0.73711
 H2331 H 0.68909 0.90700 0.71981
 H2332 H 0.66291 0.89309 0.79535
 H2333 H 0.68588 0.85184 0.79508
 H2334 H 0.71273 0.86699 0.72057
 C2335 C 0.16425 0.38176 0.23722
 C2336 C 0.16867 0.40088 0.25541
 C2337 C 0.18637 0.39542 0.27492
 C2338 C 0.19928 0.37124 0.27616
 C2339 C 0.19524 0.35241 0.25753
 C2340 C 0.17755 0.35803 0.23811
 H2341 H 0.15078 0.38539 0.22197
 H2342 H 0.19000 0.40976 0.28929
 H2343 H 0.21295 0.36756 0.29122
 H2344 H 0.17397 0.34395 0.22347
 C2345 C 0.10876 0.25624 0.81607
 C2346 C 0.09959 0.23223 0.82461
 C2347 C 0.11556 0.21014 0.82250
 C2348 C 0.14018 0.21204 0.81155
 C2349 C 0.14882 0.23597 0.80239
 C2350 C 0.13304 0.25803 0.80484
 H2351 H 0.09725 0.27376 0.81824
 H2352 H 0.10887 0.19143 0.82892
 H2353 H 0.15214 0.19477 0.80965
 H2354 H 0.13958 0.27674 0.79821
 C2355 C 0.60234 0.76098 0.30300
 C2356 C 0.59278 0.73772 0.31298
 C2357 C 0.60767 0.71490 0.31058
 C2358 C 0.63224 0.71565 0.29950
 C2359 C 0.64189 0.73908 0.29019
 C2360 C 0.62658 0.76157 0.29144
 H2361 H 0.59170 0.77903 0.30504
 H2362 H 0.60057 0.69660 0.31766
 H2363 H 0.64373 0.69800 0.29828
 H2364 H 0.63384 0.77986 0.28445
 C2365 C 0.59970 0.25147 0.20616
 C2366 C 0.59741 0.25971 0.18138
 C2367 C 0.62005 0.26586 0.16792
 C2368 C 0.64462 0.26334 0.17890
 C2369 C 0.64691 0.25434 0.20341
 C2370 C 0.62429 0.24863 0.21705
 H2371 H 0.58250 0.24699 0.21704
 H2372 H 0.61886 0.27176 0.14862
 H2373 H 0.66183 0.26783 0.16803
 H2374 H 0.62561 0.24212 0.23616
 C2375 C 0.12235 0.76915 0.67075
 C2376 C 0.09992 0.76262 0.68440
 C2377 C 0.10256 0.75429 0.70911
 C2378 C 0.12730 0.75146 0.71966
 C2379 C 0.14970 0.75728 0.70577
 C2380 C 0.14707 0.76665 0.68143
 H2381 H 0.12088 0.77517 0.65150
 H2382 H 0.08554 0.74956 0.72013
 H2383 H 0.12890 0.74474 0.73869
 H2384 H 0.16414 0.77130 0.67041
 C2385 C 0.88027 0.72795 0.66731
 C2386 C 0.90297 0.73799 0.67895
 C2387 C 0.90038 0.74980 0.70251
 C2388 C 0.87597 0.75270 0.71342
 C2389 C 0.85344 0.74363 0.70126
 C2390 C 0.85582 0.73079 0.67836
 H2391 H 0.88082 0.71929 0.64896
 H2392 H 0.91720 0.75647 0.71301
 H2393 H 0.87481 0.76199 0.73150
 H2394 H 0.83870 0.72353 0.66861
 C2395 C 0.37754 0.23145 0.16596
 C2396 C 0.40048 0.23727 0.17935
 C2397 C 0.39872 0.24533 0.20426
 C2398 C 0.37437 0.24860 0.21528
 C2399 C 0.35146 0.24345 0.20167
 C2400 C 0.35318 0.23436 0.17711
 H2401 H 0.37835 0.22563 0.14659
 H2402 H 0.41616 0.24951 0.21509
 H2403 H 0.37347 0.25510 0.23445
 H2404 H 0.33568 0.23025 0.16631
 C2405 C 0.38066 0.78247 0.32787
 C2406 C 0.39561 0.75974 0.33036
 C2407 C 0.38537 0.73603 0.32187
 C2408 C 0.36107 0.73520 0.31023
 C2409 C 0.34640 0.75797 0.30736
 C2410 C 0.35609 0.78155 0.31658
 H2411 H 0.38821 0.80101 0.33409
 H2412 H 0.39615 0.71809 0.32422
 H2413 H 0.35371 0.71676 0.30352
 H2414 H 0.34504 0.79936 0.31435
 C2415 C 0.88767 0.28139 0.81502
 C2416 C 0.90189 0.25807 0.81667
 C2417 C 0.89183 0.23556 0.80539
 C2418 C 0.86793 0.23624 0.79302
 C2419 C 0.85338 0.25926 0.79223
 C2420 C 0.86339 0.28190 0.80312
 H2421 H 0.89516 0.29915 0.82312
 H2422 H 0.90191 0.21713 0.80685
 H2423 H 0.86031 0.21850 0.78495
 H2424 H 0.85242 0.29990 0.80244
 C2425 C 0.56473 1.02356 0.63275
 C2426 C 0.54769 1.01733 0.65221
 C2427 C 0.52059 1.01608 0.64722
 C2428 C 0.51105 1.01906 0.62273
 C2429 C 0.52854 1.02347 0.60306
 C2430 C 0.55530 1.02664 0.60858
 H2431 H 0.58558 1.02536 0.63613
 H2432 H 0.50701 1.01149 0.66198
 H2433 H 0.49038 1.01635 0.61899
 H2434 H 0.56925 1.03038 0.59389
 C2435 C 0.02916 0.52912 1.14113
 C2436 C 0.03992 0.50579 1.15108
 C2437 C 0.03653 0.48309 1.13648
 C2438 C 0.02582 0.48405 1.11260
 C2439 C 0.01754 0.50752 1.10216
 C2440 C 0.01833 0.52995 1.11692
 H2441 H 0.03089 0.54744 1.15078
 H2442 H 0.04177 0.46407 1.14325
 H2443 H 0.02482 0.46628 1.10180
 H2444 H 0.01223 0.54839 1.10920
 C2445 C -0.02602 -0.01294 1.14673
 C2446 C -0.05214 -0.02084 1.15144
 C2447 C -0.06576 -0.03313 1.13168
 C2448 C -0.05498 -0.03494 1.10793
 C2449 C -0.02998 -0.02515 1.10303
 C2450 C -0.01514 -0.01508 1.12281
 H2451 H -0.01440 -0.00320 1.16076
 H2452 H -0.08497 -0.04142 1.13418
 H2453 H -0.06672 -0.04309 1.09299
 H2454 H 0.00407 -0.00700 1.11938
 C2455 C 0.47175 0.51385 0.64469
 C2456 C 0.46099 0.49144 0.65530
 C2457 C 0.46384 0.46763 0.64258
 C2458 C 0.47559 0.46667 0.61900
 C2459 C 0.48483 0.48945 0.60797
 C2460 C 0.48340 0.51287 0.62124
 H2461 H 0.47033 0.53238 0.65414
 H2462 H 0.45558 0.45004 0.65015
 H2463 H 0.47592 0.44855 0.60875
 H2464 H 0.49004 0.53073 0.61281
 C2465 C 0.46488 0.52564 -0.14580
 C2466 C 0.46136 0.50099 -0.15678
 C2467 C 0.47060 0.47905 -0.14401
 C2468 C 0.48136 0.48146 -0.12019
 C2469 C 0.48345 0.50583 -0.10871
 C2470 C 0.47581 0.52803 -0.12186
 H2471 H 0.45776 0.54291 -0.15505
 H2472 H 0.46863 0.45988 -0.15207
 H2473 H 0.48687 0.46408 -0.11015
 H2474 H 0.47673 0.54693 -0.11305
 C2475 C -0.03659 1.02661 0.35649
 C2476 C -0.03840 1.00227 0.34454
 C2477 C -0.02757 0.98049 0.35642
 C2478 C -0.01689 0.98261 0.38031
 C2479 C -0.01649 1.00655 0.39275
 C2480 C -0.02579 1.02871 0.38050
 H2481 H -0.04497 1.04372 0.34794
 H2482 H -0.02824 0.96159 0.34762
 H2483 H -0.01013 0.96523 0.38966
 H2484 H -0.02620 1.04723 0.39006
 C2485 C 0.01957 0.49611 0.35083
 C2486 C 0.04441 0.48576 0.34502
 C2487 C 0.05744 0.47088 0.36320
 C2488 C 0.04717 0.46841 0.38712
 C2489 C 0.02331 0.48019 0.39339
 C2490 C 0.00909 0.49330 0.37485
 H2491 H 0.00899 0.50771 0.33735
 H2492 H 0.07617 0.46192 0.35925
 H2493 H 0.05856 0.45834 0.40117
 H2494 H -0.00911 0.50300 0.37943
 C2495 C 0.55853 -0.02839 -0.13282
 C2496 C 0.54334 -0.01692 -0.15166
 C2497 C 0.51667 -0.01186 -0.14700
 C2498 C 0.50615 -0.01599 -0.12317
 C2499 C 0.52217 -0.02533 -0.10381
 C2500 C 0.54810 -0.03252 -0.10923
 H2501 H 0.57892 -0.03315 -0.13603
 H2502 H 0.50447 -0.00313 -0.16124
 H2503 H 0.48624 -0.00990 -0.11938
 H2504 H 0.56088 -0.03977 -0.09465
 C2505 C 0.64845 0.55309 0.00425
 C2506 C 0.65130 0.57499 -0.01098
 C2507 C 0.63116 0.58092 -0.02806
 C2508 C 0.60844 0.56566 -0.02943
 C2509 C 0.60517 0.54440 -0.01343
 C2510 C 0.62560 0.53815 0.00320
 H2511 H 0.66352 0.54808 0.01767
 H2512 H 0.63289 0.59755 -0.04019
 H2513 H 0.59297 0.57117 -0.04224
 H2514 H 0.62367 0.52196 0.01584
 C2515 C 0.14839 1.05316 0.50548
 C2516 C 0.15116 1.07488 0.49002
 C2517 C 0.13083 1.08078 0.47315
 C2518 C 0.10804 1.06562 0.47214
 C2519 C 0.10483 1.04454 0.48836
 C2520 C 0.12542 1.03834 0.50485
 H2521 H 0.16362 1.04819 0.51875
 H2522 H 0.13250 1.09730 0.46087
 H2523 H 0.09251 1.07103 0.45937
 H2524 H 0.12358 1.02225 0.51761
 C2525 C 0.14423 -0.05337 0.99736
 C2526 C 0.14696 -0.07731 1.00990
 C2527 C 0.12559 -0.08546 1.02467
 C2528 C 0.10246 -0.07075 1.02624
 C2529 C 0.09961 -0.04767 1.01272
 C2530 C 0.12089 -0.03905 0.99852
 H2531 H 0.15940 -0.04619 0.98523
 H2532 H 0.12668 -0.10303 1.03556
 H2533 H 0.08638 -0.07800 1.03729
 H2534 H 0.11928 -0.02141 0.98772
 C2535 C 0.63311 0.41809 0.52502
 C2536 C 0.65394 0.42514 0.50908
 C2537 C 0.65126 0.44865 0.49583
 C2538 C 0.62836 0.46357 0.49742
 C2539 C 0.60756 0.45600 0.51277
 C2540 C 0.61045 0.43341 0.52699
 H2541 H 0.63429 0.40093 0.53648
 H2542 H 0.66604 0.45497 0.48285
 H2543 H 0.62666 0.48082 0.48607
 H2544 H 0.59471 0.42699 0.53893
 C2545 C -0.13930 0.43383 0.51138
 C2546 C -0.14706 0.41844 0.49108
 C2547 C -0.13131 0.41835 0.46958
 C2548 C -0.10783 0.43262 0.46888
 C2549 C -0.09974 0.44743 0.48958
 C2550 C -0.11612 0.44811 0.51064
 H2551 H -0.15119 0.43481 0.52800
 H2552 H -0.13673 0.40663 0.45362
 H2553 H -0.09573 0.43152 0.45240
 H2554 H -0.11084 0.45939 0.52694
 C2555 C 0.35601 -0.06631 0.01180
 C2556 C 0.34747 -0.08008 -0.00927
 C2557 C 0.36226 -0.07832 -0.03128
 C2558 C 0.38566 -0.06388 -0.03179
 C2559 C 0.39450 -0.05060 -0.01039
 C2560 C 0.37901 -0.05174 0.01124
 H2561 H 0.34488 -0.06691 0.02891
 H2562 H 0.35617 -0.08877 -0.04783
 H2563 H 0.39703 -0.06353 -0.04874
 H2564 H 0.38493 -0.04181 0.02814
 C2565 C 0.35631 1.06106 0.49420
 C2566 C 0.35265 1.08423 0.50769
 C2567 C 0.37335 1.09274 0.52325
 C2568 C 0.39707 1.07889 0.52471
 C2569 C 0.40090 1.05643 0.51033
 C2570 C 0.38011 1.04756 0.49530
 H2571 H 0.34082 1.05328 0.48259
 H2572 H 0.37168 1.11062 0.53372
 H2573 H 0.41285 1.08643 0.53615
 H2574 H 0.38240 1.03022 0.48407
 C2575 C -0.13357 0.57873 0.97877
 C2576 C -0.14648 0.58523 1.00096
 C2577 C -0.13459 0.57805 1.02372
 C2578 C -0.11051 0.56467 1.02417
 C2579 C -0.09783 0.55803 1.00185
 C2580 C -0.10978 0.56533 0.97920
 H2581 H -0.14160 0.58440 0.96091
 H2582 H -0.14403 0.58249 1.04123
 H2583 H -0.10196 0.55937 1.04192
 H2584 H -0.10063 0.56093 0.96154
 C2585 C 0.03777 0.62977 0.56580
 C2586 C 0.01985 0.64942 0.55977
 C2587 C 0.00033 0.64481 0.54184
 C2588 C -0.00205 0.62049 0.53097
 C2589 C 0.01494 0.60038 0.53803
 C2590 C 0.03531 0.60536 0.55504
 H2591 H 0.05317 0.63309 0.57937
 H2592 H -0.01397 0.65959 0.53717
 H2593 H -0.01786 0.61719 0.51784
 H2594 H 0.04897 0.59027 0.56044
 C2595 C 0.49538 0.14758 0.03642
 C2596 C 0.51532 0.15282 0.05379
 C2597 C 0.53428 0.13385 0.05896
 C2598 C 0.53213 0.10931 0.04845
 C2599 C 0.51119 0.10355 0.03237
 C2600 C 0.49342 0.12312 0.02565
 H2601 H 0.48035 0.16180 0.03232
 H2602 H 0.55011 0.13768 0.07195
 H2603 H 0.54636 0.09463 0.05354
 H2604 H 0.47716 0.11914 0.01320
 C2605 C -0.01486 0.15058 0.97269
 C2606 C -0.02465 0.15462 0.94856
 C2607 C -0.03418 0.13350 0.93473
 C2608 C -0.03229 0.10855 0.94414
 C2609 C -0.02062 0.10426 0.96746
 C2610 C -0.01278 0.12554 0.98206
 H2611 H -0.00778 0.16666 0.98383
 H2612 H -0.04150 0.13597 0.91594
 H2613 H -0.03877 0.09256 0.93255
 H2614 H -0.00420 0.12282 1.00035
 C2615 C 0.49605 0.65517 0.47096
 C2616 C 0.48532 0.65902 0.44720
 C2617 C 0.47536 0.63782 0.43375
 C2618 C 0.47740 0.61293 0.44334
 C2619 C 0.48959 0.60886 0.46646
 C2620 C 0.49820 0.63025 0.48053
 H2621 H 0.50351 0.67134 0.48176
 H2622 H 0.46732 0.64028 0.41522
 H2623 H 0.47043 0.59683 0.43216
 H2624 H 0.50726 0.62772 0.49863
 C2625 C 0.49932 0.86124 0.45385
 C2626 C 0.51768 0.85616 0.43513
 C2627 C 0.53440 0.87597 0.42713
 C2628 C 0.53233 0.90073 0.43739
 C2629 C 0.51353 0.90590 0.45577
 C2630 C 0.49732 0.88583 0.46414
 H2631 H 0.48582 0.84642 0.45995
 H2632 H 0.54882 0.87236 0.41281
 H2633 H 0.54529 0.91580 0.43082
 H2634 H 0.48260 0.88922 0.47824
 C2635 C 0.02980 0.36964 0.92378
 C2636 C 0.01128 0.35082 0.93028
 C2637 C -0.00928 0.35733 0.94633
 C2638 C -0.01131 0.38223 0.95587
 C2639 C 0.00715 0.40116 0.94946
 C2640 C 0.02776 0.39471 0.93333
 H2641 H 0.04583 0.36491 0.91142
 H2642 H -0.02416 0.34329 0.95109
 H2643 H -0.02751 0.38665 0.96812
 H2644 H 0.04237 0.40891 0.92826
 C2645 C 0.48971 0.34802 0.03306
 C2646 C 0.48027 0.34497 0.05732
 C2647 C 0.47149 0.36666 0.07074
 C2648 C 0.47386 0.39133 0.06068
 C2649 C 0.48516 0.39455 0.03714
 C2650 C 0.49220 0.37265 0.02304
 H2651 H 0.49618 0.33142 0.02230
 H2652 H 0.46433 0.36471 0.08959
 H2653 H 0.46802 0.40788 0.07183
 H2654 H 0.50040 0.37455 0.00459
 C2655 C -0.00448 0.84488 0.53265
 C2656 C -0.01564 0.84144 0.55619
 C2657 C -0.02634 0.86275 0.56887
 C2658 C -0.02430 0.88745 0.55891
 C2659 C -0.01140 0.89118 0.53620
 C2660 C -0.00231 0.86961 0.52272
 H2661 H 0.00353 0.82857 0.52243
 H2662 H -0.03481 0.86057 0.58719
 H2663 H -0.03178 0.90370 0.56958
 H2664 H 0.00722 0.87188 0.50489
 C2665 C 0.23036 0.28623 0.10914
 C2666 C 0.25333 0.29046 0.09547
 C2667 C 0.27748 0.28236 0.10578
 C2668 C 0.27869 0.27199 0.12994
 C2669 C 0.25578 0.26968 0.14406
 C2670 C 0.23161 0.27618 0.13317
 H2671 H 0.21140 0.29155 0.10159
 H2672 H 0.29556 0.28542 0.09577
 H2673 H 0.29756 0.26744 0.13814
 H2674 H 0.21369 0.27455 0.14378
 C2675 C 0.73493 0.79782 0.61037
 C2676 C 0.75570 0.79329 0.59406
 C2677 C 0.77658 0.77722 0.60179
 C2678 C 0.77732 0.76731 0.62625
 C2679 C 0.75712 0.77339 0.64301
 C2680 C 0.73554 0.78790 0.63439
 H2681 H 0.71850 0.80982 0.60473
 H2682 H 0.79282 0.77347 0.58939
 H2683 H 0.79418 0.75624 0.63241
 H2684 H 0.71940 0.79253 0.64667
 C2685 C 0.27074 0.71663 0.61148
 C2686 C 0.24770 0.71154 0.59796
 C2687 C 0.22350 0.71925 0.60824
 C2688 C 0.22235 0.73003 0.63232
 C2689 C 0.24538 0.73322 0.64634
 C2690 C 0.26956 0.72717 0.63538
 H2691 H 0.28971 0.71157 0.60392
 H2692 H 0.20538 0.71553 0.59832
 H2693 H 0.20347 0.73417 0.64057
 H2694 H 0.28758 0.72943 0.64590
 C2695 C 0.76215 0.20139 0.11163
 C2696 C 0.74111 0.20661 0.09566
 C2697 C 0.72099 0.22332 0.10379
 C2698 C 0.72127 0.23332 0.12829
 C2699 C 0.74174 0.22668 0.14471
 C2700 C 0.76255 0.21140 0.13569
 H2701 H 0.77801 0.18886 0.10567
 H2702 H 0.70456 0.22760 0.09165
 H2703 H 0.70499 0.24502 0.13473
 H2704 H 0.77892 0.20631 0.14763
 C2705 C 0.78309 0.20306 0.88770
 C2706 C 0.76212 0.21053 0.90306
 C2707 C 0.74495 0.23005 0.89479
 C2708 C 0.74799 0.24104 0.87117
 C2709 C 0.76799 0.23243 0.85529
 C2710 C 0.78574 0.21363 0.86385
 H2711 H 0.79644 0.18788 0.89355
 H2712 H 0.72868 0.23617 0.90628
 H2713 H 0.73363 0.25496 0.86460
 H2714 H 0.80080 0.20618 0.85159
 C2715 C 0.27438 0.72397 0.39736
 C2716 C 0.25045 0.71583 0.40778
 C2717 C 0.22713 0.72112 0.39475
 C2718 C 0.22779 0.73219 0.37111
 C2719 C 0.25171 0.73867 0.36001
 C2720 C 0.27499 0.73537 0.37363
 H2721 H 0.29273 0.72010 0.40684
 H2722 H 0.20834 0.71578 0.40243
 H2723 H 0.20958 0.73454 0.36090
 H2724 H 0.29369 0.73983 0.36524
 C2725 C 0.75584 0.77112 0.39257
 C2726 C 0.73592 0.78708 0.40215
 C2727 C 0.71265 0.79013 0.38824
 C2728 C 0.71019 0.77894 0.36449
 C2729 C 0.73071 0.76411 0.35455
 C2730 C 0.75325 0.75977 0.36900
 H2731 H 0.77386 0.76822 0.40292
 H2732 H 0.69707 0.80252 0.39502
 H2733 H 0.69302 0.78319 0.35330
 H2734 H 0.76958 0.74896 0.36136
 C2735 C 0.22222 0.27664 0.89498
 C2736 C 0.24691 0.28235 0.90553
 C2737 C 0.26953 0.27472 0.89261
 C2738 C 0.26761 0.26367 0.86893
 C2739 C 0.24307 0.25965 0.85771
 C2740 C 0.22032 0.26540 0.87118
 H2741 H 0.20441 0.28243 0.90437
 H2742 H 0.28880 0.27831 0.90038
 H2743 H 0.28541 0.25962 0.85870
 H2744 H 0.20123 0.26299 0.86260
 C2745 C 0.80149 0.39930 0.74311
 C2746 C 0.82487 0.40290 0.75657
 C2747 C 0.83340 0.38291 0.77253
 C2748 C 0.81921 0.35967 0.77450
 C2749 C 0.79642 0.35570 0.76019
 C2750 C 0.78761 0.37596 0.74473
 H2751 H 0.79444 0.41419 0.73058
 H2752 H 0.85121 0.38517 0.78333
 H2753 H 0.82666 0.34441 0.78640
 H2754 H 0.77015 0.37356 0.73342
 C2755 C 0.32512 0.88672 0.23713
 C2756 C 0.33060 0.90180 0.25859
 C2757 C 0.32120 0.89184 0.28161
 C2758 C 0.30769 0.86799 0.28290
 C2759 C 0.30260 0.85351 0.26125
 C2760 C 0.31159 0.86338 0.23848
 H2761 H 0.32984 0.89317 0.21860
 H2762 H 0.32507 0.90156 0.29908
 H2763 H 0.30118 0.86098 0.30080
 H2764 H 0.30807 0.85307 0.22120
 C2765 C 0.16370 0.87578 0.73294
 C2766 C 0.17203 0.89586 0.74890
 C2767 C 0.19523 0.89248 0.76265
 C2768 C 0.20921 0.86913 0.76128
 C2769 C 0.20071 0.84885 0.74563
 C2770 C 0.17808 0.85261 0.73108
 H2771 H 0.14596 0.87799 0.72201
 H2772 H 0.20206 0.90759 0.77512
 H2773 H 0.22655 0.86675 0.77276
 H2774 H 0.17092 0.83723 0.71909
 C2775 C 0.66197 0.37411 0.22965
 C2776 C 0.67123 0.39451 0.24479
 C2777 C 0.69516 0.39129 0.25740
 C2778 C 0.70891 0.36782 0.25585
 C2779 C 0.69943 0.34720 0.24116
 C2780 C 0.67610 0.35078 0.22761
 H2781 H 0.64365 0.37616 0.21958
 H2782 H 0.70272 0.40661 0.26923
 H2783 H 0.72679 0.36558 0.26658
 H2784 H 0.66817 0.33513 0.21641
 C2785 C 0.66895 0.61180 0.27655
 C2786 C 0.66846 0.59634 0.25483
 C2787 C 0.68242 0.60490 0.23398
 C2788 C 0.69605 0.62837 0.23456
 C2789 C 0.69617 0.64420 0.25601
 C2790 C 0.68257 0.63549 0.27711
 H2791 H 0.65826 0.60587 0.29292
 H2792 H 0.68292 0.59335 0.21711
 H2793 H 0.70634 0.63418 0.21791
 H2794 H 0.68209 0.64714 0.29391
 C2795 C 0.17149 0.11151 0.77853
 C2796 C 0.17027 0.09637 0.75663
 C2797 C 0.18405 0.10493 0.73566
 C2798 C 0.19807 0.12817 0.73627
 C2799 C 0.19881 0.14375 0.75789
 C2800 C 0.18556 0.13495 0.77914
 H2801 H 0.16098 0.10560 0.79501
 H2802 H 0.18406 0.09359 0.71866
 H2803 H 0.20814 0.13405 0.71952
 H2804 H 0.18553 0.14644 0.79605
 C2805 C 0.30834 0.11074 0.26173
 C2806 C 0.32654 0.10428 0.24317
 C2807 C 0.33042 0.12197 0.22357
 C2808 C 0.31682 0.14573 0.22289
 C2809 C 0.29928 0.15248 0.24197
 C2810 C 0.29503 0.13448 0.26120
 H2811 H 0.30501 0.09777 0.27719
 H2812 H 0.34409 0.11750 0.20881
 H2813 H 0.32066 0.15913 0.20787
 H2814 H 0.28163 0.13893 0.27620
 C2815 C 0.81149 0.61253 0.76103
 C2816 C 0.82677 0.60445 0.74075
 C2817 C 0.82743 0.62046 0.71950
 C2818 C 0.81390 0.64433 0.71900
 C2819 C 0.79930 0.65270 0.73972
 C2820 C 0.79801 0.63616 0.76053
 H2821 H 0.80996 0.60055 0.77747
 H2822 H 0.83908 0.61493 0.70355
 H2823 H 0.81546 0.65652 0.70271
 H2824 H 0.78682 0.64162 0.77681
 C2825 C 0.88506 0.78068 0.19153
 C2826 C 0.90250 0.75920 0.19111
 C2827 C 0.89444 0.73644 0.20373
 C2828 C 0.86990 0.73480 0.21460
 C2829 C 0.85241 0.75554 0.21306
 C2830 C 0.86028 0.77866 0.20197
 H2831 H 0.89017 0.79945 0.18424
 H2832 H 0.90573 0.71874 0.20393
 H2833 H 0.86409 0.71668 0.22310
 H2834 H 0.84722 0.79524 0.20137
 C2835 C 0.37622 0.28592 0.67705
 C2836 C 0.39773 0.27046 0.68371
 C2837 C 0.39480 0.25104 0.70170
 C2838 C 0.37058 0.24671 0.71249
 C2839 C 0.34883 0.26167 0.70539
 C2840 C 0.35191 0.28158 0.68784
 H2841 H 0.37816 0.30108 0.66329
 H2842 H 0.41102 0.23851 0.70675
 H2843 H 0.36883 0.23126 0.72598
 H2844 H 0.33552 0.29364 0.68226
 C2845 C 0.38621 0.71497 0.82290
 C2846 C 0.40474 0.73464 0.81919
 C2847 C 0.39802 0.75631 0.80478
 C2848 C 0.37323 0.75839 0.79433
 C2849 C 0.35454 0.73897 0.79829
 C2850 C 0.36120 0.71716 0.81256
 H2851 H 0.39104 0.69799 0.83382
 H2852 H 0.41166 0.77209 0.80217
 H2853 H 0.36856 0.77553 0.78357
 H2854 H 0.34717 0.70180 0.81565
 C2855 C 0.88260 0.21281 0.32160
 C2856 C 0.90211 0.23100 0.31611
 C2857 C 0.89674 0.25109 0.29932
 C2858 C 0.87204 0.25342 0.28869
 C2859 C 0.85221 0.23580 0.29482
 C2860 C 0.85776 0.21523 0.31106
 H2861 H 0.88645 0.19701 0.33434
 H2862 H 0.91128 0.26568 0.29517
 H2863 H 0.86831 0.26949 0.27623
 H2864 H 0.84289 0.20115 0.31578
 C2865 C 0.12144 0.27744 0.33063
 C2866 C 0.09940 0.27012 0.31657
 C2867 C 0.10218 0.26389 0.29132
 C2868 C 0.12690 0.26303 0.28074
 C2869 C 0.14915 0.26857 0.29524
 C2870 C 0.14622 0.27676 0.31998
 H2871 H 0.11971 0.28212 0.35023
 H2872 H 0.08533 0.25866 0.28007
 H2873 H 0.12867 0.25725 0.26141
 H2874 H 0.16314 0.28123 0.33145
 C2875 C 0.62169 0.78495 0.82615
 C2876 C 0.59989 0.77589 0.81275
 C2877 C 0.60291 0.76721 0.78821
 C2878 C 0.62772 0.76542 0.77791
 C2879 C 0.64986 0.77236 0.79203
 C2880 C 0.64660 0.78323 0.81581
 H2881 H 0.61970 0.79156 0.84521
 H2882 H 0.58619 0.76047 0.77752
 H2883 H 0.62962 0.75762 0.75926
 H2884 H 0.66335 0.78901 0.82695
 C2885 C 0.61197 0.22356 0.68519
 C2886 C 0.59127 0.23666 0.69687
 C2887 C 0.59558 0.24916 0.71973
 C2888 C 0.62072 0.25036 0.72975
 C2889 C 0.64183 0.23901 0.71702
 C2890 C 0.63706 0.22466 0.69522
 H2891 H 0.60918 0.21395 0.66741
 H2892 H 0.57974 0.25903 0.72923
 H2893 H 0.62373 0.26112 0.74687
 H2894 H 0.65288 0.21536 0.68518
 C2895 C 0.09906 0.75109 0.20977
 C2896 C 0.09601 0.74069 0.18582
 C2897 C 0.11802 0.73171 0.17276
 C2898 C 0.14288 0.73397 0.18320
 C2899 C 0.14601 0.74541 0.20674
 C2900 C 0.12388 0.75352 0.22013
 H2901 H 0.08227 0.75776 0.22028
 H2902 H 0.11611 0.72393 0.15409
 H2903 H 0.15965 0.72750 0.17256
 H2904 H 0.12573 0.76194 0.23855
   
