data_POSCAR
  _audit_creation_date              2014-09-24
  _audit_creation_method            'ToBaCCo'
  _symmetry_space_group_name_H-M    'P1'
  _symmetry_Int_Tables_number       1
  _symmetry_cell_setting            triclinic
  loop_
  _symmetry_equiv_pos_as_xyz
 x,y,z
_cell_length_a 60.3706
_cell_length_b 60.3790
_cell_length_c 60.4465
_cell_angle_alpha 90.013900
_cell_angle_beta 89.982600
_cell_angle_gamma 89.877800
loop_
  _atom_site_label
  _atom_site_type_symbol
  _atom_site_fract_x
  _atom_site_fract_y
  _atom_site_fract_z
C1 C 0.36223 0.32964 0.34624
 C2 C 0.34581 0.32968 0.36266
 C3 C 0.32957 0.34594 0.36266
 C4 C 0.32955 0.36235 0.34625
 C5 C 0.34578 0.36231 0.33003
 C6 C 0.36221 0.34586 0.33002
 C7 C 0.37936 0.31529 0.34153
 N8 N 0.38960 0.32252 0.32296
 C9 C 0.37933 0.34111 0.31571
 C10 C 0.34106 0.37942 0.31572
 N11 N 0.32248 0.38971 0.32297
 C12 C 0.31523 0.37949 0.34154
 C13 C 0.31526 0.34127 0.37978
 N14 N 0.32254 0.32268 0.39003
 C15 C 0.34112 0.31539 0.37978
 H16 H 0.38375 0.30046 0.35060
 H17 H 0.38370 0.35017 0.30089
 H18 H 0.35014 0.38378 0.30089
 H19 H 0.30039 0.38391 0.35062
 H20 H 0.30042 0.35037 0.38416
 H21 H 0.35021 0.30054 0.38415
 C22 C 0.36238 0.82966 -0.15472
 C23 C 0.34596 0.82969 -0.13831
 C24 C 0.32970 0.84593 -0.13832
 C25 C 0.32966 0.86233 -0.15474
 C26 C 0.34590 0.86231 -0.17096
 C27 C 0.36235 0.84588 -0.17096
 C28 C 0.37955 0.81534 -0.15939
 N29 N 0.38979 0.82260 -0.17796
 C30 C 0.37950 0.84117 -0.18525
 C31 C 0.34117 0.87943 -0.18527
 N32 N 0.32258 0.88970 -0.17799
 C33 C 0.31532 0.87947 -0.15942
 C34 C 0.31541 0.84126 -0.12119
 N35 N 0.32271 0.82270 -0.11092
 C36 C 0.34129 0.81541 -0.12117
 H37 H 0.38395 0.80052 -0.15029
 H38 H 0.38386 0.85025 -0.20007
 H39 H 0.35026 0.88378 -0.20009
 H40 H 0.30048 0.88386 -0.15032
 H41 H 0.30056 0.85036 -0.11680
 H42 H 0.35041 0.80059 -0.11678
 C43 C 0.86227 0.32970 -0.15459
 C44 C 0.84585 0.32973 -0.13817
 C45 C 0.82962 0.34599 -0.13815
 C46 C 0.82960 0.36242 -0.15454
 C47 C 0.84583 0.36239 -0.17078
 C48 C 0.86226 0.34594 -0.17080
 C49 C 0.87941 0.31535 -0.15929
 N50 N 0.88965 0.32262 -0.17785
 C51 C 0.87939 0.34122 -0.18511
 C52 C 0.84113 0.37955 -0.18506
 N53 N 0.82256 0.38984 -0.17776
 C54 C 0.81528 0.37959 -0.15920
 C55 C 0.81532 0.34132 -0.12102
 N56 N 0.82260 0.32273 -0.11079
 C57 C 0.84117 0.31543 -0.12106
 H58 H 0.88379 0.30051 -0.15021
 H59 H 0.88376 0.35031 -0.19993
 H60 H 0.85023 0.38391 -0.19987
 H61 H 0.80046 0.38399 -0.15009
 H62 H 0.80050 0.35043 -0.11661
 H63 H 0.85027 0.30059 -0.11669
 C64 C 0.86256 0.82992 0.34598
 C65 C 0.84615 0.82994 0.36240
 C66 C 0.82988 0.84617 0.36240
 C67 C 0.82982 0.86257 0.34599
 C68 C 0.84605 0.86256 0.32975
 C69 C 0.86251 0.84614 0.32975
 C70 C 0.87973 0.81560 0.34128
 N71 N 0.88995 0.82287 0.32271
 C72 C 0.87964 0.84144 0.31543
 C73 C 0.84131 0.87968 0.31544
 N74 N 0.82271 0.88993 0.32273
 C75 C 0.81546 0.87970 0.34130
 C76 C 0.81560 0.84149 0.37954
 N77 N 0.82292 0.82293 0.38980
 C78 C 0.84150 0.81566 0.37954
 H79 H 0.88414 0.80078 0.35038
 H80 H 0.88398 0.85052 0.30061
 H81 H 0.85039 0.88403 0.30062
 H82 H 0.80063 0.88408 0.35041
 H83 H 0.80075 0.85058 0.38394
 H84 H 0.85062 0.80084 0.38393
 C85 C 0.63781 0.67053 0.34617
 C86 C 0.65421 0.67050 0.36259
 C87 C 0.67042 0.65421 0.36262
 C88 C 0.67042 0.63777 0.34624
 C89 C 0.65421 0.63780 0.33001
 C90 C 0.63781 0.65428 0.32997
 C91 C 0.62070 0.68490 0.34143
 N92 N 0.61046 0.67764 0.32287
 C93 C 0.62071 0.65902 0.31565
 C94 C 0.65891 0.62065 0.31573
 N95 N 0.67747 0.61034 0.32301
 C96 C 0.68472 0.62059 0.34156
 C97 C 0.68471 0.65888 0.37974
 N98 N 0.67746 0.67750 0.38996
 C99 C 0.65891 0.68481 0.37969
 H100 H 0.61632 0.69976 0.35048
 H101 H 0.61633 0.64993 0.30084
 H102 H 0.64984 0.61628 0.30091
 H103 H 0.69954 0.61617 0.35065
 H104 H 0.69953 0.64976 0.38415
 H105 H 0.64984 0.69968 0.38405
 C106 C 0.63740 0.17026 -0.15450
 C107 C 0.65382 0.17026 -0.13809
 C108 C 0.67008 0.15402 -0.13808
 C109 C 0.67011 0.13758 -0.15448
 C110 C 0.65389 0.13758 -0.17070
 C111 C 0.63743 0.15401 -0.17071
 C112 C 0.62024 0.18457 -0.15918
 N113 N 0.61000 0.17728 -0.17773
 C114 C 0.62029 0.15870 -0.18500
 C115 C 0.65861 0.12043 -0.18498
 N116 N 0.67720 0.11017 -0.17770
 C117 C 0.68446 0.12044 -0.15914
 C118 C 0.68437 0.15871 -0.12097
 N119 N 0.67708 0.17729 -0.11072
 C120 C 0.65849 0.18457 -0.12097
 H121 H 0.61583 0.19941 -0.15009
 H122 H 0.61593 0.14958 -0.19981
 H123 H 0.64953 0.11605 -0.19980
 H124 H 0.69929 0.11607 -0.15005
 H125 H 0.69921 0.14962 -0.11658
 H126 H 0.64939 0.19940 -0.11659
 C127 C 0.13757 0.67019 -0.15445
 C128 C 0.15401 0.67016 -0.13806
 C129 C 0.17024 0.65390 -0.13807
 C130 C 0.17024 0.63748 -0.15448
 C131 C 0.15399 0.63750 -0.17068
 C132 C 0.13756 0.65396 -0.17067
 C133 C 0.12043 0.68454 -0.15911
 N134 N 0.11016 0.67728 -0.17766
 C135 C 0.12041 0.65868 -0.18495
 C136 C 0.15867 0.62035 -0.18498
 N137 N 0.17725 0.61006 -0.17772
 C138 C 0.18455 0.62031 -0.15917
 C139 C 0.18455 0.65858 -0.12097
 N140 N 0.17729 0.67717 -0.11072
 C141 C 0.15870 0.68446 -0.12095
 H142 H 0.11606 0.69938 -0.15002
 H143 H 0.11603 0.64959 -0.19976
 H144 H 0.14956 0.61599 -0.19978
 H145 H 0.19938 0.61590 -0.15009
 H146 H 0.19939 0.64947 -0.11660
 H147 H 0.14962 0.69931 -0.11656
 C148 C 0.13777 0.17045 0.34555
 C149 C 0.15413 0.17038 0.36201
 C150 C 0.17038 0.15414 0.36201
 C151 C 0.17047 0.13777 0.34554
 C152 C 0.15429 0.13784 0.32927
 C153 C 0.13785 0.15428 0.32927
 C154 C 0.12062 0.18480 0.34086
 N155 N 0.11045 0.17758 0.32225
 C156 C 0.12075 0.15903 0.31494
 C157 C 0.15905 0.12075 0.31493
 N158 N 0.17761 0.11045 0.32223
 C159 C 0.18482 0.12063 0.34084
 C160 C 0.18462 0.15876 0.37919
 N161 N 0.17729 0.17730 0.38949
 C162 C 0.15874 0.18462 0.37920
 H163 H 0.11619 0.19960 0.34999
 H164 H 0.11645 0.14998 0.30008
 H165 H 0.15001 0.11643 0.30007
 H166 H 0.19962 0.11621 0.34997
 H167 H 0.19944 0.14964 0.38359
 H168 H 0.14962 0.19944 0.38361
 C169 C 0.63766 0.32957 0.65403
 C170 C 0.65406 0.32959 0.63759
 C171 C 0.67027 0.34581 0.63759
 C172 C 0.67027 0.36220 0.65403
 C173 C 0.65406 0.36219 0.67027
 C174 C 0.63766 0.34577 0.67027
 C175 C 0.62057 0.31526 0.65874
 N176 N 0.61033 0.32249 0.67733
 C177 C 0.62057 0.34105 0.68459
 C178 C 0.65877 0.37928 0.68460
 N179 N 0.67733 0.38953 0.67733
 C180 C 0.68457 0.37930 0.65874
 C181 C 0.68457 0.34112 0.62046
 N182 N 0.67733 0.32256 0.61020
 C183 C 0.65877 0.31529 0.62046
 H184 H 0.61620 0.30044 0.64965
 H185 H 0.61620 0.35011 0.69944
 H186 H 0.64971 0.38364 0.69944
 H187 H 0.69939 0.38369 0.64965
 H188 H 0.69939 0.35019 0.61608
 H189 H 0.64971 0.30047 0.61607
 C190 C 0.63713 0.82964 1.15440
 C191 C 0.65352 0.82963 1.13796
 C192 C 0.66979 0.84579 1.13799
 C193 C 0.66987 0.86214 1.15447
 C194 C 0.65368 0.86216 1.17072
 C195 C 0.63720 0.84582 1.17069
 C196 C 0.61996 0.81539 1.15907
 N197 N 0.60976 0.82265 1.17768
 C198 C 0.62008 0.84115 1.18501
 C199 C 0.65846 0.87921 1.18507
 N200 N 0.67705 0.88940 1.17780
 C201 C 0.68424 0.87918 1.15919
 C202 C 0.68406 0.84109 1.12083
 N203 N 0.67674 0.82259 1.11053
 C204 C 0.65816 0.81537 1.12078
 H205 H 0.61553 0.80062 1.14992
 H206 H 0.61577 0.85021 1.19987
 H207 H 0.64942 0.88359 1.19992
 H208 H 0.69906 0.88353 1.15009
 H209 H 0.69891 0.85012 1.11647
 H210 H 0.64903 0.80059 1.11636
 C211 C 0.13722 0.32954 1.15428
 C212 C 0.15359 0.32960 1.13782
 C213 C 0.16976 0.34587 1.13778
 C214 C 0.16974 0.36227 1.15421
 C215 C 0.15357 0.36221 1.17048
 C216 C 0.13721 0.34576 1.17052
 C217 C 0.12017 0.31518 1.15901
 N218 N 0.10995 0.32241 1.17761
 C219 C 0.12015 0.34101 1.18488
 C220 C 0.15825 0.37934 1.18478
 N221 N 0.17676 0.38964 1.17747
 C222 C 0.18400 0.37942 1.15887
 C223 C 0.18403 0.34121 1.12061
 N224 N 0.17681 0.32263 1.11037
 C225 C 0.15830 0.31532 1.12067
 H226 H 0.11583 0.30035 1.14991
 H227 H 0.11579 0.35007 1.19973
 H228 H 0.14921 0.38369 1.19964
 H229 H 0.19878 0.38385 1.14975
 H230 H 0.19881 0.35033 1.11619
 H231 H 0.14927 0.30047 1.11631
 C232 C 0.13795 0.83016 0.65438
 C233 C 0.15431 0.83022 0.63790
 C234 C 0.17052 0.84644 0.63790
 C235 C 0.17056 0.86279 0.65438
 C236 C 0.15439 0.86273 0.67067
 C237 C 0.13799 0.84632 0.67066
 C238 C 0.12086 0.81584 0.65908
 N239 N 0.11067 0.82302 0.67772
 C240 C 0.12092 0.84156 0.68501
 C241 C 0.15912 0.87980 0.68502
 N242 N 0.17766 0.89007 0.67771
 C243 C 0.18488 0.87989 0.65908
 C244 C 0.18477 0.84179 0.62071
 N245 N 0.17749 0.82326 0.61042
 C246 C 0.15896 0.81597 0.62072
 H247 H 0.11647 0.80105 0.64996
 H248 H 0.11658 0.85058 0.69989
 H249 H 0.15007 0.88411 0.69990
 H250 H 0.19967 0.88429 0.64994
 H251 H 0.19957 0.85087 0.61631
 H252 H 0.14988 0.80116 0.61632
 C253 C 0.36230 0.67010 0.65384
 C254 C 0.34592 0.67010 0.63740
 C255 C 0.32968 0.65391 0.63741
 C256 C 0.32963 0.63753 0.65385
 C257 C 0.34582 0.63754 0.67010
 C258 C 0.36225 0.65392 0.67010
 C259 C 0.37941 0.68439 0.65855
 N260 N 0.38961 0.67717 0.67716
 C261 C 0.37934 0.65863 0.68443
 C262 C 0.34107 0.62047 0.68444
 N263 N 0.32250 0.61024 0.67718
 C264 C 0.31529 0.62046 0.65857
 C265 C 0.31540 0.65862 0.62027
 N266 N 0.32269 0.67716 0.61000
 C267 C 0.34126 0.68439 0.62026
 H268 H 0.38381 0.69920 0.64946
 H269 H 0.38367 0.64959 0.69928
 H270 H 0.35011 0.61611 0.69929
 H271 H 0.30047 0.61609 0.64949
 H272 H 0.30056 0.64958 0.61589
 H273 H 0.35035 0.69919 0.61588
 C274 C 0.36215 0.16978 1.15403
 C275 C 0.34574 0.16980 1.13762
 C276 C 0.32948 0.15363 1.13765
 C277 C 0.32944 0.13725 1.15410
 C278 C 0.34566 0.13724 1.17033
 C279 C 0.36211 0.15360 1.17029
 C280 C 0.37930 0.18405 1.15870
 N281 N 0.38953 0.17681 1.17728
 C282 C 0.37924 0.15829 1.18458
 C283 C 0.34093 0.12017 1.18467
 N284 N 0.32233 0.10997 1.17742
 C285 C 0.31509 0.12019 1.15883
 C286 C 0.31519 0.15834 1.12053
 N287 N 0.32248 0.17686 1.11024
 C288 C 0.34107 0.18408 1.12047
 H289 H 0.38371 0.19884 1.14959
 H290 H 0.38360 0.14924 1.19942
 H291 H 0.35001 0.11581 1.19951
 H292 H 0.30025 0.11586 1.14974
 H293 H 0.30034 0.14930 1.11617
 H294 H 0.35017 0.19887 1.11606
 C295 C 0.86238 0.67034 1.15416
 C296 C 0.84600 0.67026 1.13771
 C297 C 0.82987 0.65397 1.13768
 C298 C 0.82992 0.63756 1.15410
 C299 C 0.84610 0.63765 1.17035
 C300 C 0.86243 0.65413 1.17038
 C301 C 0.87940 0.68473 1.15889
 N302 N 0.88965 0.67753 1.17748
 C303 C 0.87948 0.65892 1.18472
 C304 C 0.84145 0.62052 1.18465
 N305 N 0.82295 0.61019 1.17736
 C306 C 0.81569 0.62039 1.15877
 C307 C 0.81557 0.65860 1.12053
 N308 N 0.82275 0.67720 1.11030
 C309 C 0.84126 0.68454 1.12058
 H310 H 0.88373 0.69957 1.14981
 H311 H 0.88388 0.64988 1.19956
 H312 H 0.85051 0.61620 1.19950
 H313 H 0.80091 0.61595 1.14967
 H314 H 0.80080 0.64947 1.11613
 H315 H 0.85026 0.69941 1.11622
 C316 C 0.86290 0.17044 0.65446
 C317 C 0.84657 0.17038 0.63798
 C318 C 0.83036 0.15416 0.63797
 C319 C 0.83028 0.13782 0.65444
 C320 C 0.84642 0.13788 0.67074
 C321 C 0.86283 0.15429 0.67075
 C322 C 0.87999 0.18477 0.65918
 N323 N 0.89015 0.17757 0.67782
 C324 C 0.87988 0.15903 0.68513
 C325 C 0.84165 0.12082 0.68509
 N326 N 0.82312 0.11056 0.67778
 C327 C 0.81596 0.12073 0.65914
 C328 C 0.81612 0.15880 0.62077
 N329 N 0.82341 0.17733 0.61048
 C330 C 0.84193 0.18462 0.62078
 H331 H 0.88439 0.19956 0.65005
 H332 H 0.88418 0.15000 0.70001
 H333 H 0.85065 0.11650 0.69997
 H334 H 0.80118 0.11633 0.65000
 H335 H 0.80132 0.14972 0.61637
 H336 H 0.85101 0.19943 0.61639
 C337 C 0.32939 0.36206 0.65445
 C338 C 0.32941 0.34563 0.63805
 C339 C 0.34565 0.32938 0.63805
 C340 C 0.36208 0.32936 0.65445
 C341 C 0.36206 0.34560 0.67066
 C342 C 0.34562 0.36205 0.67066
 C343 C 0.31508 0.37923 0.65913
 N344 N 0.32233 0.38949 0.67768
 C345 C 0.34091 0.37920 0.68494
 C346 C 0.37921 0.34089 0.68494
 N347 N 0.38949 0.32231 0.67768
 C348 C 0.37923 0.31505 0.65913
 C349 C 0.34098 0.31508 0.62093
 N350 N 0.32240 0.32237 0.61068
 C351 C 0.31512 0.34096 0.62093
 H352 H 0.30025 0.38364 0.65005
 H353 H 0.35000 0.38360 0.69974
 H354 H 0.38360 0.34998 0.69974
 H355 H 0.38364 0.30022 0.65005
 H356 H 0.35008 0.30025 0.61654
 H357 H 0.30028 0.35007 0.61654
 C358 C 0.32957 0.86293 0.15350
 C359 C 0.32958 0.84650 0.13709
 C360 C 0.34584 0.83027 0.13707
 C361 C 0.36229 0.83027 0.15344
 C362 C 0.36228 0.84650 0.16966
 C363 C 0.34582 0.86293 0.16968
 C364 C 0.31523 0.88007 0.15822
 N365 N 0.32250 0.89032 0.17677
 C366 C 0.34111 0.88006 0.18399
 C367 C 0.37944 0.84180 0.18392
 N368 N 0.38972 0.82322 0.17666
 C369 C 0.37946 0.81596 0.15811
 C370 C 0.34115 0.81596 0.11996
 N371 N 0.32254 0.82322 0.10975
 C372 C 0.31526 0.84180 0.12000
 H373 H 0.30038 0.88446 0.14918
 H374 H 0.35021 0.88445 0.19878
 H375 H 0.38382 0.85088 0.19873
 H376 H 0.38386 0.80112 0.14904
 H377 H 0.35026 0.80113 0.11556
 H378 H 0.30040 0.85088 0.11564
 C379 C 0.83011 0.36198 0.15368
 C380 C 0.83014 0.34556 0.13727
 C381 C 0.84640 0.32932 0.13726
 C382 C 0.86283 0.32932 0.15365
 C383 C 0.86280 0.34555 0.16987
 C384 C 0.84634 0.36198 0.16988
 C385 C 0.81577 0.37912 0.15838
 N386 N 0.82302 0.38937 0.17694
 C387 C 0.84162 0.37911 0.18418
 C388 C 0.87994 0.34085 0.18415
 N389 N 0.89024 0.32227 0.17690
 C390 C 0.87999 0.31501 0.15834
 C391 C 0.84172 0.31502 0.12014
 N392 N 0.82313 0.32229 0.10990
 C393 C 0.81584 0.34087 0.12016
 H394 H 0.80092 0.38351 0.14932
 H395 H 0.85069 0.38349 0.19899
 H396 H 0.88431 0.34994 0.19896
 H397 H 0.88441 0.30018 0.14927
 H398 H 0.85083 0.30019 0.11574
 H399 H 0.80099 0.34996 0.11579
 C400 C 0.82994 0.86257 0.65447
 C401 C 0.82998 0.84616 0.63804
 C402 C 0.84624 0.82992 0.63804
 C403 C 0.86264 0.82989 0.65446
 C404 C 0.86259 0.84610 0.67070
 C405 C 0.84615 0.86253 0.67070
 C406 C 0.81561 0.87971 0.65917
 N407 N 0.82283 0.88994 0.67775
 C408 C 0.84141 0.87966 0.68501
 C409 C 0.87972 0.84137 0.68500
 N410 N 0.89001 0.82279 0.67773
 C411 C 0.87979 0.81556 0.65915
 C412 C 0.84158 0.81564 0.62090
 N413 N 0.82301 0.82293 0.61064
 C414 C 0.81571 0.84150 0.62091
 H415 H 0.80078 0.88412 0.65009
 H416 H 0.85047 0.88402 0.69984
 H417 H 0.88407 0.85043 0.69983
 H418 H 0.88421 0.80074 0.65006
 H419 H 0.85069 0.80080 0.61651
 H420 H 0.80087 0.85060 0.61652
 C421 C 0.67057 0.63774 0.65435
 C422 C 0.67056 0.65417 0.63796
 C423 C 0.65430 0.67041 0.63795
 C424 C 0.63786 0.67042 0.65434
 C425 C 0.63787 0.65418 0.67055
 C426 C 0.65431 0.63775 0.67055
 C427 C 0.68488 0.62058 0.65904
 N428 N 0.67761 0.61032 0.67758
 C429 C 0.65901 0.62060 0.68483
 C430 C 0.62070 0.65888 0.68482
 N431 N 0.61042 0.67746 0.67756
 C432 C 0.62069 0.68473 0.65902
 C433 C 0.65899 0.68471 0.62084
 N434 N 0.67759 0.67743 0.61060
 C435 C 0.68487 0.65885 0.62085
 H436 H 0.69973 0.61618 0.64997
 H437 H 0.64991 0.61620 0.69962
 H438 H 0.61630 0.64979 0.69962
 H439 H 0.61629 0.69956 0.64995
 H440 H 0.64989 0.69954 0.61645
 H441 H 0.69972 0.64976 0.61647
 C442 C 0.67072 0.13716 0.15380
 C443 C 0.67067 0.15355 0.13736
 C444 C 0.65438 0.16975 0.13732
 C445 C 0.63793 0.16976 0.15371
 C446 C 0.63798 0.15356 0.16995
 C447 C 0.65447 0.13716 0.16999
 C448 C 0.68509 0.12006 0.15854
 N449 N 0.67784 0.10983 0.17710
 C450 C 0.65921 0.12007 0.18432
 C451 C 0.62082 0.15825 0.18423
 N452 N 0.61050 0.17680 0.17694
 C453 C 0.62074 0.18405 0.15838
 C454 C 0.65903 0.18404 0.12019
 N455 N 0.67765 0.17679 0.10997
 C456 C 0.68498 0.15825 0.12025
 H457 H 0.69995 0.11568 0.14949
 H458 H 0.65012 0.11570 0.19913
 H459 H 0.61646 0.14920 0.19906
 H460 H 0.61631 0.19886 0.14928
 H461 H 0.64989 0.19884 0.11578
 H462 H 0.69985 0.14919 0.11589
 C463 C 0.16997 0.63806 0.15374
 C464 C 0.16997 0.65449 0.13734
 C465 C 0.15378 0.67079 0.13739
 C466 C 0.13739 0.67086 0.15384
 C467 C 0.13738 0.65462 0.17004
 C468 C 0.15377 0.63813 0.16999
 C469 C 0.18425 0.62086 0.15840
 N470 N 0.17700 0.61064 0.17696
 C471 C 0.15846 0.62097 0.18426
 C472 C 0.12029 0.65939 0.18437
 N473 N 0.11005 0.67801 0.17716
 C474 C 0.12029 0.68524 0.15858
 C475 C 0.15847 0.68508 0.12027
 N476 N 0.17701 0.67773 0.10998
 C477 C 0.18425 0.65912 0.12020
 H478 H 0.19905 0.61642 0.14929
 H479 H 0.14940 0.61663 0.19910
 H480 H 0.11591 0.65031 0.19919
 H481 H 0.11591 0.70009 0.14953
 H482 H 0.14942 0.69995 0.11592
 H483 H 0.19905 0.64997 0.11578
 C484 C 0.16992 0.13722 0.65419
 C485 C 0.16990 0.15363 0.63778
 C486 C 0.15365 0.16988 0.63779
 C487 C 0.13724 0.16992 0.65421
 C488 C 0.13726 0.15370 0.67043
 C489 C 0.15370 0.13725 0.67042
 C490 C 0.18424 0.12007 0.65888
 N491 N 0.17700 0.10983 0.67744
 C492 C 0.15842 0.12012 0.68471
 C493 C 0.12013 0.15843 0.68474
 N494 N 0.10985 0.17701 0.67748
 C495 C 0.12009 0.18425 0.65892
 C496 C 0.15833 0.18418 0.62067
 N497 N 0.17691 0.17688 0.61041
 C498 C 0.18419 0.15830 0.62066
 H499 H 0.19907 0.11566 0.64979
 H500 H 0.14935 0.11575 0.69954
 H501 H 0.11576 0.14936 0.69956
 H502 H 0.11569 0.19908 0.64984
 H503 H 0.14924 0.19902 0.61630
 H504 H 0.19903 0.14920 0.61627
 C505 C 0.32982 0.63788 0.34548
 C506 C 0.32982 0.65428 0.36190
 C507 C 0.34603 0.67050 0.36189
 C508 C 0.36242 0.67051 0.34545
 C509 C 0.36242 0.65429 0.32922
 C510 C 0.34602 0.63788 0.32923
 C511 C 0.31553 0.62075 0.34081
 N512 N 0.32277 0.61050 0.32223
 C513 C 0.34132 0.62076 0.31494
 C514 C 0.37953 0.65899 0.31490
 N515 N 0.38977 0.67756 0.32216
 C516 C 0.37953 0.68481 0.34074
 C517 C 0.34133 0.68480 0.37902
 N518 N 0.32278 0.67754 0.38930
 C519 C 0.31553 0.65898 0.37905
 H520 H 0.30072 0.61637 0.34991
 H521 H 0.35038 0.61637 0.30010
 H522 H 0.38391 0.64992 0.30007
 H523 H 0.38391 0.69962 0.34983
 H524 H 0.35040 0.69962 0.38340
 H525 H 0.30072 0.64990 0.38345
 C526 C 0.32986 0.13694 0.84603
 C527 C 0.32981 0.15338 0.86243
 C528 C 0.34604 0.16958 0.86245
 C529 C 0.36250 0.16954 0.84609
 C530 C 0.36255 0.15330 0.82989
 C531 C 0.34614 0.13690 0.82986
 C532 C 0.31557 0.11983 0.84131
 N533 N 0.32288 0.10955 0.82278
 C534 C 0.34148 0.11977 0.81556
 C535 C 0.37972 0.15797 0.81562
 N536 N 0.38994 0.17654 0.82289
 C537 C 0.37963 0.18382 0.84142
 C538 C 0.34128 0.18392 0.87954
 N539 N 0.32268 0.17670 0.88974
 C540 C 0.31545 0.15812 0.87950
 H541 H 0.30072 0.11548 0.85035
 H542 H 0.35060 0.11536 0.80077
 H543 H 0.38414 0.14887 0.80082
 H544 H 0.38398 0.19866 0.85049
 H545 H 0.35034 0.19874 0.88393
 H546 H 0.30061 0.14907 0.88385
 C547 C 0.83020 0.63726 0.84623
 C548 C 0.83014 0.65372 0.86260
 C549 C 0.84635 0.66994 0.86260
 C550 C 0.86281 0.66989 0.84623
 C551 C 0.86288 0.65362 0.83005
 C552 C 0.84647 0.63721 0.83005
 C553 C 0.81592 0.62014 0.84153
 N554 N 0.82323 0.60984 0.82301
 C555 C 0.84182 0.62005 0.81578
 C556 C 0.88003 0.65828 0.81578
 N557 N 0.89024 0.67687 0.82301
 C558 C 0.87993 0.68417 0.84153
 C559 C 0.84158 0.68430 0.87966
 N560 N 0.82298 0.67708 0.88988
 C561 C 0.81577 0.65848 0.87966
 H562 H 0.80106 0.61580 0.85058
 H563 H 0.85094 0.61563 0.80099
 H564 H 0.88446 0.64916 0.80099
 H565 H 0.88427 0.69903 0.85058
 H566 H 0.85063 0.69913 0.88403
 H567 H 0.80094 0.64942 0.88403
 C568 C 0.83072 0.13712 0.34597
 C569 C 0.83071 0.15356 0.36237
 C570 C 0.84692 0.16977 0.36234
 C571 C 0.86333 0.16975 0.34592
 C572 C 0.86334 0.15351 0.32972
 C573 C 0.84694 0.13710 0.32974
 C574 C 0.81643 0.12001 0.34129
 N575 N 0.82368 0.10974 0.32273
 C576 C 0.84225 0.11997 0.31545
 C577 C 0.88045 0.15820 0.31540
 N578 N 0.89069 0.17678 0.32264
 C579 C 0.88043 0.18405 0.34120
 C580 C 0.84220 0.18410 0.37945
 N581 N 0.82363 0.17686 0.38971
 C582 C 0.81640 0.15828 0.37948
 H583 H 0.80160 0.11564 0.35038
 H584 H 0.85132 0.11557 0.30062
 H585 H 0.88484 0.14911 0.30058
 H586 H 0.88480 0.19889 0.35026
 H587 H 0.85126 0.19893 0.38381
 H588 H 0.80158 0.14921 0.38387
 C589 C 0.67024 0.36210 0.34586
 C590 C 0.67025 0.34568 0.36226
 C591 C 0.65405 0.32946 0.36226
 C592 C 0.63764 0.32946 0.34585
 C593 C 0.63762 0.34568 0.32963
 C594 C 0.65402 0.36210 0.32964
 C595 C 0.68452 0.37922 0.34117
 N596 N 0.67726 0.38948 0.32261
 C597 C 0.65870 0.37923 0.31535
 C598 C 0.62051 0.34098 0.31533
 N599 N 0.61028 0.32241 0.32258
 C600 C 0.62054 0.31515 0.34114
 C601 C 0.65877 0.31515 0.37937
 N602 N 0.67733 0.32241 0.38962
 C603 C 0.68456 0.34098 0.37938
 H604 H 0.69934 0.38360 0.35025
 H605 H 0.64963 0.38361 0.30053
 H606 H 0.61612 0.35006 0.30052
 H607 H 0.61617 0.30033 0.35021
 H608 H 0.64972 0.30032 0.38374
 H609 H 0.69938 0.35006 0.38376
 C610 C 0.66966 0.86292 0.84625
 C611 C 0.66968 0.84648 0.86263
 C612 C 0.65345 0.83027 0.86261
 C613 C 0.63703 0.83032 0.84621
 C614 C 0.63701 0.84657 0.83003
 C615 C 0.65343 0.86297 0.83004
 C616 C 0.68397 0.88003 0.84156
 N617 N 0.67670 0.89031 0.82302
 C618 C 0.65812 0.88010 0.81577
 C619 C 0.61989 0.84189 0.81572
 N620 N 0.60966 0.82332 0.82295
 C621 C 0.61992 0.81603 0.84150
 C622 C 0.65818 0.81592 0.87969
 N623 N 0.67676 0.82314 0.88993
 C624 C 0.68400 0.84172 0.87972
 H625 H 0.69880 0.88437 0.85063
 H626 H 0.64904 0.88451 0.80096
 H627 H 0.61551 0.85099 0.80091
 H628 H 0.61556 0.80118 0.85054
 H629 H 0.64911 0.80110 0.88404
 H630 H 0.69883 0.85077 0.88410
 C631 C 0.16950 0.36264 0.84614
 C632 C 0.16953 0.34618 0.86251
 C633 C 0.15332 0.32996 0.86249
 C634 C 0.13689 0.33001 0.84609
 C635 C 0.13686 0.34627 0.82992
 C636 C 0.15326 0.36268 0.82994
 C637 C 0.18379 0.37976 0.84147
 N638 N 0.17651 0.39005 0.82294
 C639 C 0.15794 0.37983 0.81568
 C640 C 0.11973 0.34160 0.81562
 N641 N 0.10951 0.32301 0.82284
 C642 C 0.11978 0.31571 0.84138
 C643 C 0.15805 0.31561 0.87956
 N644 N 0.17663 0.32284 0.88980
 C645 C 0.18386 0.34144 0.87960
 H646 H 0.19862 0.38411 0.85054
 H647 H 0.14885 0.38424 0.80087
 H648 H 0.11533 0.35070 0.80082
 H649 H 0.11543 0.30086 0.85042
 H650 H 0.14900 0.30078 0.88391
 H651 H 0.19868 0.35050 0.88399
 C652 C 0.16998 0.86339 0.34600
 C653 C 0.17001 0.84698 0.36241
 C654 C 0.15378 0.83078 0.36245
 C655 C 0.13733 0.83080 0.34608
 C656 C 0.13729 0.84703 0.32986
 C657 C 0.15372 0.86342 0.32983
 C658 C 0.18428 0.88049 0.34127
 N659 N 0.17699 0.89074 0.32272
 C660 C 0.15839 0.88052 0.31551
 C661 C 0.12015 0.84234 0.31560
 N662 N 0.10991 0.82378 0.32288
 C663 C 0.12020 0.81652 0.34142
 C664 C 0.15852 0.81646 0.37955
 N665 N 0.17712 0.82369 0.38974
 C666 C 0.18436 0.84225 0.37949
 H667 H 0.19913 0.88484 0.35030
 H668 H 0.14929 0.88491 0.30071
 H669 H 0.11574 0.85141 0.30079
 H670 H 0.11584 0.80169 0.35049
 H671 H 0.14945 0.80165 0.38394
 H672 H 0.19920 0.85130 0.38383
 O673 O 0.24765 1.02248 0.27797
 O674 O 0.27799 0.97920 0.24742
 O675 O 0.27807 1.02238 0.24747
 O676 O 0.24758 0.97930 0.27794
 O677 O 0.22163 0.97941 0.25212
 O678 O 0.25212 1.02250 0.22165
 O679 O 0.25204 0.97931 0.22161
 O680 O 0.22170 1.02260 0.25215
 Cu681 Cu 0.26544 1.00083 0.26530
 Cu682 Cu 0.23425 1.00097 0.23428
 C683 C 0.22958 1.02989 0.27018
 C684 C 0.27010 0.97190 0.22940
 C685 C 0.27021 1.02976 0.22945
 C686 C 0.22949 0.97204 0.27014
 O687 O 0.24717 0.52192 0.77831
 O688 O 0.27764 0.47858 0.74797
 O689 O 0.27766 0.52177 0.74787
 O690 O 0.24712 0.47873 0.77837
 O691 O 0.22124 0.47876 0.75248
 O692 O 0.25178 0.52179 0.72199
 O693 O 0.25176 0.47861 0.72208
 O694 O 0.22129 0.52195 0.75243
 Cu695 Cu 0.26501 0.50025 0.76574
 Cu696 Cu 0.23390 0.50028 0.73463
 C697 C 0.22912 0.52930 0.77046
 C698 C 0.26981 0.47123 0.72994
 C699 C 0.26984 0.52909 0.72982
 C700 C 0.22906 0.47143 0.77053
 O701 O 0.75275 -0.02204 0.27853
 O702 O 0.72243 0.02121 0.24794
 O703 O 0.72223 -0.02197 0.24815
 O704 O 0.75291 0.02115 0.27836
 O705 O 0.77880 0.02088 0.25246
 O706 O 0.74811 -0.02225 0.22224
 O707 O 0.74831 0.02093 0.22205
 O708 O 0.77863 -0.02231 0.25263
 Cu709 Cu 0.73497 -0.00039 0.26586
 Cu710 Cu 0.76608 -0.00072 0.23473
 C711 C 0.77078 -0.02952 0.27071
 C712 C 0.73029 0.02841 0.22986
 C713 C 0.73002 -0.02943 0.23013
 C714 C 0.77100 0.02834 0.27048
 O715 O 0.75262 0.47798 0.77834
 O716 O 0.72220 0.52130 0.74797
 O717 O 0.72213 0.47812 0.74793
 O718 O 0.75267 0.52117 0.77839
 O719 O 0.77857 0.52110 0.75250
 O720 O 0.74803 0.47805 0.72204
 O721 O 0.74809 0.52123 0.72208
 O722 O 0.77851 0.47791 0.75246
 Cu723 Cu 0.73479 0.49965 0.76577
 Cu724 Cu 0.76591 0.49956 0.73466
 C725 C 0.77066 0.47059 0.77049
 C726 C 0.73004 0.52863 0.72993
 C727 C 0.72996 0.47077 0.72988
 C728 C 0.77074 0.52845 0.77055
 O729 O 0.24736 0.47839 0.22181
 O730 O 0.27795 0.52158 0.25203
 O731 O 0.27785 0.47839 0.25222
 O732 O 0.24745 0.52158 0.22164
 O733 O 0.22156 0.52180 0.24754
 O734 O 0.25196 0.47861 0.27812
 O735 O 0.25207 0.52180 0.27793
 O736 O 0.22148 0.47861 0.24770
 Cu737 Cu 0.26526 0.49996 0.23431
 Cu738 Cu 0.23416 0.50023 0.26543
 C739 C 0.22929 0.47116 0.22969
 C740 C 0.27014 0.52902 0.27005
 C741 C 0.27000 0.47117 0.27030
 C742 C 0.22941 0.52903 0.22946
 O743 O 0.75222 1.02208 0.72225
 O744 O 0.72158 0.97900 0.75258
 O745 O 0.72159 1.02219 0.75255
 O746 O 0.75216 0.97890 0.72224
 O747 O 0.77796 0.97883 0.74821
 O748 O 0.74739 1.02213 0.77852
 O749 O 0.74738 0.97894 0.77855
 O750 O 0.77801 1.02202 0.74823
 Cu751 Cu 0.73429 1.00055 0.73479
 Cu752 Cu 0.76529 1.00047 0.76600
 C753 C 0.77026 1.02937 0.73016
 C754 C 0.72934 0.97165 0.77065
 C755 C 0.72936 1.02951 0.77061
 C756 C 0.77019 0.97152 0.73015
 O757 O 0.75247 0.52145 0.22190
 O758 O 0.72196 0.47829 0.25225
 O759 O 0.72202 0.52148 0.25237
 O760 O 0.75242 0.47826 0.22179
 O761 O 0.77834 0.47812 0.24763
 O762 O 0.74795 0.52133 0.27822
 O763 O 0.74788 0.47814 0.27809
 O764 O 0.77839 0.52130 0.24775
 Cu765 Cu 0.73460 0.49989 0.23447
 Cu766 Cu 0.76576 0.49970 0.26553
 C767 C 0.77054 0.52871 0.22974
 C768 C 0.72981 0.47089 0.27026
 C769 C 0.72989 0.52874 0.27042
 C770 C 0.77048 0.47085 0.22958
 O771 O 0.27824 0.02082 0.75224
 O772 O 0.24774 -0.02229 0.72182
 O773 O 0.24770 0.02089 0.72187
 O774 O 0.27827 -0.02236 0.75219
 O775 O 0.25242 -0.02236 0.77811
 O776 O 0.22185 0.02090 0.74780
 O777 O 0.22188 -0.02228 0.74774
 O778 O 0.25238 0.02083 0.77817
 Cu779 Cu 0.26560 -0.00074 0.73441
 Cu780 Cu 0.23452 -0.00073 0.76557
 C781 C 0.27042 0.02815 0.77030
 C782 C 0.22970 -0.02961 0.72968
 C783 C 0.22965 0.02825 0.72975
 C784 C 0.27047 -0.02971 0.77023
 O785 O 0.22146 0.25211 1.02151
 O786 O 0.25194 0.22158 0.97835
 O787 O 0.25194 0.22159 1.02149
 O788 O 0.22144 0.25211 0.97837
 O789 O 0.24734 0.27796 0.97836
 O790 O 0.27783 0.24745 1.02148
 O791 O 0.27783 0.24744 0.97834
 O792 O 0.24735 0.27797 1.02150
 Cu793 Cu 0.23408 0.23424 0.99993
 Cu794 Cu 0.26520 0.26531 0.99991
 C795 C 0.22930 0.27015 1.02884
 C796 C 0.27000 0.22939 0.97102
 C797 C 0.27000 0.22940 1.02881
 C798 C 0.22927 0.27015 0.97104
 O799 O 0.24781 0.77866 0.47829
 O800 O 0.27823 0.74796 0.52134
 O801 O 0.27823 0.74806 0.47820
 O802 O 0.24784 0.77858 0.52142
 O803 O 0.22188 0.75280 0.52138
 O804 O 0.25226 0.72228 0.47815
 O805 O 0.25226 0.72218 0.52129
 O806 O 0.22185 0.75287 0.47825
 Cu807 Cu 0.26565 0.76592 0.49981
 Cu808 Cu 0.23444 0.73493 0.49976
 C809 C 0.22973 0.77091 0.47095
 C810 C 0.27034 0.72992 0.52863
 C811 C 0.27034 0.73006 0.47083
 C812 C 0.22977 0.77080 0.52875
 O813 O 0.24762 0.72207 0.02118
 O814 O 0.27812 0.75239 -0.02200
 O815 O 0.27805 0.75252 0.02114
 O816 O 0.24770 0.72193 -0.02196
 O817 O 0.22176 0.74784 -0.02207
 O818 O 0.25210 0.77844 0.02102
 O819 O 0.25217 0.77830 -0.02211
 O820 O 0.22167 0.74799 0.02107
 Cu821 Cu 0.26549 0.73461 -0.00040
 Cu822 Cu 0.23431 0.76576 -0.00053
 C823 C 0.22953 0.72995 0.02846
 C824 C 0.27026 0.77043 -0.02940
 C825 C 0.27016 0.77061 0.02840
 C826 C 0.22964 0.72976 -0.02934
 O827 O 0.27793 0.25208 0.47866
 O828 O 0.24746 0.22154 0.52171
 O829 O 0.24751 0.22162 0.47857
 O830 O 0.27789 0.25198 0.52180
 O831 O 0.25195 0.27790 0.52184
 O832 O 0.22157 0.24754 0.47861
 O833 O 0.22151 0.24746 0.52175
 O834 O 0.25198 0.27799 0.47870
 Cu835 Cu 0.26531 0.23419 0.50018
 Cu836 Cu 0.23414 0.26533 0.50023
 C837 C 0.27006 0.27015 0.47137
 C838 C 0.22938 0.22938 0.52905
 C839 C 0.22945 0.22949 0.47124
 C840 C 0.27001 0.27003 0.52916
 O841 O 0.72150 0.75221 1.02157
 O842 O 0.75211 0.72183 0.97840
 O843 O 0.75207 0.72178 1.02154
 O844 O 0.72156 0.75230 0.97843
 O845 O 0.74739 0.77822 0.97850
 O846 O 0.77790 0.74770 1.02160
 O847 O 0.77794 0.74775 0.97847
 O848 O 0.74733 0.77813 1.02164
 Cu849 Cu 0.73420 0.73442 0.99997
 Cu850 Cu 0.76525 0.76556 1.00006
 C851 C 0.72929 0.77026 1.02894
 C852 C 0.77016 0.72969 0.97111
 C853 C 0.77010 0.72963 1.02889
 C854 C 0.72936 0.77038 0.97115
 O855 O 0.74806 0.27791 0.47832
 O856 O 0.77867 0.24759 0.52149
 O857 O 0.77868 0.24752 0.47835
 O858 O 0.74805 0.27797 0.52145
 O859 O 0.72227 0.25200 0.52149
 O860 O 0.75290 0.22155 0.47839
 O861 O 0.75289 0.22162 0.52152
 O862 O 0.72228 0.25194 0.47835
 Cu863 Cu 0.76597 0.26537 0.49990
 Cu864 Cu 0.73499 0.23416 0.49994
 C865 C 0.73004 0.27001 0.47100
 C866 C 0.77091 0.22953 0.52885
 C867 C 0.77093 0.22943 0.47105
 C868 C 0.73002 0.27009 0.52879
 O869 O 0.77822 0.25210 -0.02208
 O870 O 0.74793 0.22153 0.02107
 O871 O 0.74776 0.22168 -0.02207
 O872 O 0.77837 0.25196 0.02106
 O873 O 0.75245 0.27790 0.02125
 O874 O 0.72184 0.24761 -0.02187
 O875 O 0.72200 0.24746 0.02127
 O876 O 0.75229 0.27803 -0.02189
 Cu877 Cu 0.76568 0.23420 -0.00052
 Cu878 Cu 0.73453 0.26537 -0.00029
 C879 C 0.77033 0.27019 -0.02932
 C880 C 0.72989 0.22937 0.02850
 C881 C 0.72967 0.22957 -0.02930
 C882 C 0.77054 0.27001 0.02848
 O883 O 0.77847 0.75248 0.47866
 O884 O 0.74806 0.72203 0.52181
 O885 O 0.74803 0.72205 0.47868
 O886 O 0.77849 0.75248 0.52180
 O887 O 0.75256 0.77840 0.52184
 O888 O 0.72209 0.74797 0.47871
 O889 O 0.72213 0.74796 0.52185
 O890 O 0.75253 0.77841 0.47869
 Cu891 Cu 0.76588 0.73465 0.50023
 Cu892 Cu 0.73471 0.76580 0.50028
 C893 C 0.77060 0.77055 0.47134
 C894 C 0.73000 0.72989 0.52916
 C895 C 0.72995 0.72991 0.47137
 C896 C 0.77063 0.77054 0.52915
 O897 O 1.02233 0.27801 0.24759
 O898 O 0.97925 0.24743 0.27798
 O899 O 1.02244 0.24755 0.27804
 O900 O 0.97914 0.27785 0.24750
 O901 O 0.97933 0.25193 0.22165
 O902 O 1.02262 0.22163 0.25219
 O903 O 0.97943 0.22150 0.25213
 O904 O 1.02252 0.25208 0.22174
 Cu905 Cu 1.00077 0.26533 0.26538
 Cu906 Cu 1.00100 0.23417 0.23432
 C907 C 1.02974 0.27017 0.22957
 C908 C 0.97202 0.22934 0.27015
 C909 C 1.02988 0.22951 0.27023
 C910 C 0.97188 0.26997 0.22946
 O911 O 0.47866 0.24713 0.77838
 O912 O 0.52173 0.27768 0.74793
 O913 O 0.47854 0.27764 0.74799
 O914 O 0.52185 0.24719 0.77834
 O915 O 0.52192 0.22131 0.75244
 O916 O 0.47860 0.25177 0.72209
 O917 O 0.52179 0.25181 0.72203
 O918 O 0.47872 0.22126 0.75247
 Cu919 Cu 0.50019 0.26502 0.76577
 Cu920 Cu 0.50027 0.23393 0.73464
 C921 C 0.47137 0.22907 0.77052
 C922 C 0.52907 0.26987 0.72988
 C923 C 0.47121 0.26981 0.72995
 C924 C 0.52925 0.22915 0.77048
 O925 O 0.02083 0.25245 0.77826
 O926 O -0.02227 0.22191 0.74786
 O927 O 0.02092 0.22190 0.74790
 O928 O -0.02237 0.25247 0.77822
 O929 O -0.02238 0.27829 0.75228
 O930 O 0.02090 0.24772 0.72196
 O931 O -0.02229 0.24774 0.72192
 O932 O 0.02081 0.27828 0.75232
 Cu933 Cu -0.00072 0.23457 0.76568
 Cu934 Cu -0.00074 0.26561 0.73451
 C935 C 0.02814 0.27048 0.77039
 C936 C -0.02960 0.22970 0.72979
 C937 C 0.02826 0.22968 0.72984
 C938 C -0.02973 0.27051 0.77034
 O939 O 0.47830 0.27776 0.25225
 O940 O 0.52150 0.24732 0.22168
 O941 O 0.47831 0.24731 0.22178
 O942 O 0.52149 0.27776 0.25215
 O943 O 0.52160 0.25184 0.27800
 O944 O 0.47842 0.22139 0.24763
 O945 O 0.52161 0.22140 0.24753
 O946 O 0.47841 0.25184 0.27809
 Cu947 Cu 0.49989 0.26515 0.23436
 Cu948 Cu 0.50002 0.23400 0.26542
 C949 C 0.47102 0.26990 0.27030
 C950 C 0.52890 0.22926 0.22948
 C951 C 0.47102 0.22924 0.22962
 C952 C 0.52888 0.26991 0.27017
 O953 O 0.97896 0.74743 0.77853
 O954 O 1.02207 0.77802 0.74820
 O955 O 0.97888 0.77798 0.74819
 O956 O 1.02215 0.74744 0.77852
 O957 O 1.02222 0.72162 0.75256
 O958 O 0.97896 0.75216 0.72223
 O959 O 1.02215 0.75220 0.72224
 O960 O 0.97903 0.72161 0.75258
 Cu961 Cu 1.00051 0.76532 0.76598
 Cu962 Cu 1.00060 0.73429 0.73478
 C963 C 0.97167 0.72939 0.77064
 C964 C 1.02943 0.77024 0.73013
 C965 C 0.97157 0.77019 0.73012
 C966 C 1.02954 0.72940 0.77062
 O967 O 0.47849 0.74818 0.27771
 O968 O 0.52171 0.77867 0.24742
 O969 O 0.47852 0.77863 0.24727
 O970 O 0.52168 0.74824 0.27789
 O971 O 0.52187 0.72231 0.25203
 O972 O 0.47870 0.75271 0.22141
 O973 O 0.52190 0.75274 0.22157
 O974 O 0.47868 0.72226 0.25185
 Cu975 Cu 0.50008 0.76604 0.26518
 Cu976 Cu 0.50031 0.73489 0.23411
 C977 C 0.47124 0.73010 0.26986
 C978 C 0.52915 0.77082 0.22941
 C979 C 0.47128 0.77077 0.22921
 C980 C 0.52910 0.73018 0.27010
 O981 O -0.02211 0.77893 0.25263
 O982 O 0.02117 0.74860 0.22207
 O983 O -0.02201 0.74848 0.22217
 O984 O 0.02108 0.77905 0.25254
 O985 O 0.02126 0.75313 0.27838
 O986 O -0.02184 0.72256 0.24802
 O987 O 0.02134 0.72268 0.24792
 O988 O -0.02194 0.75301 0.27848
 Cu989 Cu -0.00049 0.76638 0.23475
 Cu990 Cu -0.00028 0.73523 0.26581
 C991 C -0.02938 0.77106 0.27068
 C992 C 0.02860 0.73055 0.22987
 C993 C -0.02924 0.73039 0.23000
 C994 C 0.02850 0.77121 0.27055
 O995 O 0.47811 0.72206 0.74779
 O996 O 0.52113 0.75266 0.77825
 O997 O 0.47794 0.75259 0.77818
 O998 O 0.52130 0.72213 0.74787
 O999 O 0.52126 0.74798 0.72195
 O1000 O 0.47790 0.77844 0.75226
 O1001 O 0.52109 0.77851 0.75234
 O1002 O 0.47807 0.74791 0.72188
 Cu1003 Cu 0.49962 0.73475 0.76564
 Cu1004 Cu 0.49957 0.76582 0.73449
 C1005 C 0.47079 0.72986 0.72973
 C1006 C 0.52841 0.77071 0.77040
 C1007 C 0.47055 0.77063 0.77030
 C1008 C 0.52865 0.72995 0.72983
 C1009 C 0.40712 0.31173 0.31220
 C1010 C 0.42206 0.30235 0.30282
 C1011 C 0.43934 0.29120 0.29167
 C1012 C 0.45391 0.28155 0.28199
 C1013 C 0.40641 0.81241 0.81189
 C1014 C 0.42140 0.80305 0.80257
 C1015 C 0.43874 0.79192 0.79149
 C1016 C 0.45337 0.78228 0.78189
 C1017 C -0.09375 0.31241 0.81197
 C1018 C -0.07878 0.30303 0.80263
 C1019 C -0.06147 0.29187 0.79154
 C1020 C -0.04687 0.28220 0.78193
 C1021 C -0.09344 0.81269 0.31253
 C1022 C -0.07846 0.80335 0.30317
 C1023 C -0.06114 0.79226 0.29203
 C1024 C -0.04653 0.78265 0.28236
 C1025 C 0.59295 0.68843 0.31209
 C1026 C 0.57802 0.69780 0.30270
 C1027 C 0.56076 0.70892 0.29151
 C1028 C 0.54620 0.71855 0.28181
 C1029 C 0.59337 0.18744 0.81211
 C1030 C 0.57838 0.19678 0.80278
 C1031 C 0.56104 0.20788 0.79169
 C1032 C 0.54642 0.21751 0.78208
 C1033 C 1.09356 0.68749 0.81220
 C1034 C 1.07859 0.69688 0.80288
 C1035 C 1.06128 0.70805 0.79181
 C1036 C 1.04668 0.71772 0.78222
 C1037 C 1.09387 0.18779 0.31207
 C1038 C 1.07891 0.19716 0.30271
 C1039 C 1.06161 0.20828 0.29157
 C1040 C 1.04702 0.21790 0.28191
 C1041 C 0.59284 0.31172 0.68809
 C1042 C 0.57793 0.30235 0.69745
 C1043 C 0.56068 0.29121 0.70859
 C1044 C 0.54614 0.28155 0.71823
 C1045 C 0.59316 0.81251 0.18784
 C1046 C 0.57819 0.80319 0.19716
 C1047 C 0.56088 0.79209 0.20824
 C1048 C 0.54629 0.78246 0.21783
 C1049 C 1.09344 0.31218 0.18782
 C1050 C 1.07855 0.30277 0.19719
 C1051 C 1.06133 0.29158 0.20831
 C1052 C 1.04681 0.28188 0.21794
 C1053 C 1.09319 0.81223 0.68847
 C1054 C 1.07828 0.80283 0.69781
 C1055 C 1.06104 0.79164 0.70891
 C1056 C 1.04651 0.78195 0.71852
 C1057 C 0.40709 0.68794 0.68793
 C1058 C 0.42199 0.69731 0.69730
 C1059 C 0.43922 0.70848 0.70843
 C1060 C 0.45374 0.71816 0.71808
 C1061 C 0.40707 0.18753 0.18800
 C1062 C 0.42203 0.19686 0.19732
 C1063 C 0.43933 0.20797 0.20840
 C1064 C 0.45391 0.21760 0.21801
 C1065 C -0.09290 0.68836 0.18825
 C1066 C -0.07803 0.69778 0.19761
 C1067 C -0.06082 0.70898 0.20873
 C1068 C -0.04630 0.71868 0.21837
 C1069 C -0.09333 0.18778 0.68803
 C1070 C -0.07843 0.19717 0.69740
 C1071 C -0.06120 0.20834 0.70852
 C1072 C -0.04667 0.21801 0.71816
 C1073 C 0.31172 0.40725 0.31221
 C1074 C 0.30236 0.42220 0.30284
 C1075 C 0.29125 0.43948 0.29168
 C1076 C 0.28163 0.45406 0.28200
 C1077 C 0.31237 -0.09371 0.81185
 C1078 C 0.30299 -0.07875 0.80251
 C1079 C 0.29183 -0.06144 0.79143
 C1080 C 0.28216 -0.04685 0.78183
 C1081 C 0.81238 0.40646 0.81211
 C1082 C 0.80303 0.42146 0.80279
 C1083 C 0.79192 0.43880 0.79171
 C1084 C 0.78229 0.45342 0.78210
 C1085 C 0.81250 -0.09348 0.31256
 C1086 C 0.80312 -0.07853 0.30320
 C1087 C 0.79200 -0.06124 0.29207
 C1088 C 0.78238 -0.04665 0.28240
 C1089 C 0.31171 0.59277 0.68795
 C1090 C 0.30233 0.57788 0.69733
 C1091 C 0.29118 0.56066 0.70848
 C1092 C 0.28152 0.54614 0.71815
 C1093 C 0.31211 1.09346 0.18763
 C1094 C 0.30272 1.07856 0.19700
 C1095 C 0.29156 1.06134 0.20814
 C1096 C 0.28189 1.04682 0.21779
 C1097 C 0.81225 0.59264 0.18810
 C1098 C 0.80293 0.57769 0.19743
 C1099 C 0.79183 0.56039 0.20853
 C1100 C 0.78220 0.54582 0.21813
 C1101 C 0.81232 1.09308 0.68853
 C1102 C 0.80290 1.07819 0.69786
 C1103 C 0.79170 1.06096 0.70895
 C1104 C 0.78199 1.04643 0.71856
 C1105 C 0.68822 0.59277 0.31227
 C1106 C 0.69756 0.57779 0.30292
 C1107 C 0.70866 0.56047 0.29178
 C1108 C 0.71827 0.54588 0.28211
 C1109 C 0.68742 1.09357 0.81216
 C1110 C 0.69681 1.07859 0.80285
 C1111 C 0.70798 1.06127 0.79179
 C1112 C 0.71767 1.04666 0.78220
 C1113 C 0.18742 0.59343 0.81212
 C1114 C 0.19675 0.57844 0.80278
 C1115 C 0.20785 0.56110 0.79168
 C1116 C 0.21748 0.54647 0.78206
 C1117 C 0.18783 1.09387 0.31204
 C1118 C 0.19721 1.07892 0.30268
 C1119 C 0.20834 1.06162 0.29153
 C1120 C 0.21797 1.04703 0.28187
 C1121 C 0.68809 0.40702 0.68809
 C1122 C 0.69746 0.42193 0.69746
 C1123 C 0.70861 0.43917 0.70858
 C1124 C 0.71828 0.45371 0.71823
 C1125 C 0.68788 -0.09314 0.18856
 C1126 C 0.69731 -0.07825 0.19790
 C1127 C 0.70854 -0.06103 0.20897
 C1128 C 0.71827 -0.04650 0.21856
 C1129 C 0.18748 0.40719 0.18819
 C1130 C 0.19682 0.42215 0.19750
 C1131 C 0.20795 0.43945 0.20855
 C1132 C 0.21761 0.45404 0.21813
 C1133 C 0.18786 -0.09339 0.68791
 C1134 C 0.19723 -0.07848 0.69727
 C1135 C 0.20837 -0.06123 0.70840
 C1136 C 0.21803 -0.04669 0.71804
 C1137 C 0.31180 0.31195 0.40755
 C1138 C 0.30245 0.30260 0.42248
 C1139 C 0.29134 0.29147 0.43974
 C1140 C 0.28171 0.28182 0.45429
 C1141 C 0.31199 0.81199 -0.09337
 C1142 C 0.30266 0.80268 -0.07841
 C1143 C 0.29155 0.79161 -0.06111
 C1144 C 0.28191 0.78201 -0.04652
 C1145 C 0.81188 0.31200 -0.09325
 C1146 C 0.80257 0.30265 -0.07830
 C1147 C 0.79150 0.29153 -0.06100
 C1148 C 0.78191 0.28187 -0.04643
 C1149 C 0.81222 0.81221 0.40736
 C1150 C 0.80290 0.80289 0.42233
 C1151 C 0.79182 0.79180 0.43963
 C1152 C 0.78221 0.78218 0.45422
 C1153 C 0.68810 0.31181 0.59267
 C1154 C 0.69747 0.30247 0.57772
 C1155 C 0.70863 0.29136 0.56045
 C1156 C 0.71832 0.28173 0.54588
 C1157 C 0.68745 0.81186 1.09295
 C1158 C 0.69679 0.80253 1.07798
 C1159 C 0.70793 0.79146 1.06066
 C1160 C 0.71759 0.78186 1.04607
 C1161 C 0.18756 0.31191 1.09281
 C1162 C 0.19690 0.30257 1.07784
 C1163 C 0.20802 0.29146 1.06054
 C1164 C 0.21765 0.28182 1.04595
 C1165 C 0.18819 0.81255 0.59283
 C1166 C 0.19750 0.80322 0.57784
 C1167 C 0.20857 0.79210 0.56050
 C1168 C 0.21817 0.78246 0.54590
 C1169 C 0.31197 0.68793 0.59247
 C1170 C 0.30265 0.69731 0.57753
 C1171 C 0.29156 0.70849 0.56026
 C1172 C 0.28196 0.71819 0.54571
 C1173 C 0.31175 0.18761 1.09270
 C1174 C 0.30241 0.19697 1.07776
 C1175 C 0.29129 0.20809 1.06047
 C1176 C 0.28165 0.21774 1.04591
 C1177 C 0.81197 0.68791 1.09277
 C1178 C 0.80258 0.69723 1.07782
 C1179 C 0.79143 0.70833 1.06055
 C1180 C 0.78177 0.71797 1.04599
 C1181 C 0.81271 0.18802 0.59289
 C1182 C 0.80338 0.19732 0.57790
 C1183 C 0.79226 0.20837 0.56058
 C1184 C 0.78260 0.21795 0.54598
 C1185 C 0.68820 0.68823 0.40749
 C1186 C 0.69755 0.69756 0.42243
 C1187 C 0.70867 0.70866 0.43970
 C1188 C 0.71831 0.71828 0.45427
 C1189 C 0.68781 0.18802 -0.09319
 C1190 C 0.69716 0.19735 -0.07825
 C1191 C 0.70830 0.20841 -0.06097
 C1192 C 0.71797 0.21800 -0.04640
 C1193 C 0.18803 0.68791 -0.09319
 C1194 C 0.19736 0.69726 -0.07826
 C1195 C 0.20844 0.70840 -0.06099
 C1196 C 0.21805 0.71807 -0.04643
 C1197 C 0.18795 0.18797 0.40709
 C1198 C 0.19723 0.19726 0.42210
 C1199 C 0.20827 0.20831 0.43946
 C1200 C 0.21786 0.21790 0.45408
 C1201 C 0.31159 0.40708 0.68838
 C1202 C 0.30223 0.42208 0.69769
 C1203 C 0.29110 0.43943 0.70875
 C1204 C 0.28146 0.45405 0.71834
 C1205 C 0.31175 0.90788 0.18752
 C1206 C 0.30241 0.92284 0.19689
 C1207 C 0.29131 0.94016 0.20804
 C1208 C 0.28170 0.95476 0.21771
 C1209 C 0.81224 0.40691 0.18770
 C1210 C 0.80287 0.42186 0.19706
 C1211 C 0.79174 0.43915 0.20821
 C1212 C 0.78211 0.45373 0.21789
 C1213 C 0.81206 0.90749 0.68849
 C1214 C 0.80269 0.92246 0.69783
 C1215 C 0.79154 0.93977 0.70893
 C1216 C 0.78187 0.95437 0.71855
 C1217 C 0.68835 0.59274 0.68829
 C1218 C 0.69769 0.57775 0.69762
 C1219 C 0.70879 0.56042 0.70871
 C1220 C 0.71842 0.54580 0.71832
 C1221 C 0.68862 0.09231 0.18788
 C1222 C 0.69797 0.07738 0.19728
 C1223 C 0.70908 0.06010 0.20846
 C1224 C 0.71869 0.04553 0.21815
 C1225 C 0.18774 0.59306 0.18768
 C1226 C 0.19708 0.57808 0.19702
 C1227 C 0.20818 0.56076 0.20813
 C1228 C 0.21779 0.54616 0.21779
 C1229 C 0.18777 0.09227 0.68816
 C1230 C 0.19714 0.07730 0.69748
 C1231 C 0.20829 0.05999 0.70856
 C1232 C 0.21796 0.04539 0.71816
 C1233 C 0.31203 0.59297 0.31152
 C1234 C 0.30266 0.57801 0.30221
 C1235 C 0.29151 0.56072 0.29117
 C1236 C 0.28184 0.54614 0.28160
 C1237 C 0.31216 0.09202 0.81203
 C1238 C 0.30282 0.07708 0.80268
 C1239 C 0.29171 0.05981 0.79156
 C1240 C 0.28207 0.04525 0.78193
 C1241 C 0.81251 0.59230 0.81227
 C1242 C 0.80317 0.57736 0.80293
 C1243 C 0.79205 0.56009 0.79182
 C1244 C 0.78241 0.54553 0.78219
 C1245 C 0.81293 0.09221 0.31200
 C1246 C 0.80357 0.07727 0.30268
 C1247 C 0.79241 0.06000 0.29162
 C1248 C 0.78272 0.04544 0.28204
 C1249 C 0.68800 0.40700 0.31188
 C1250 C 0.69735 0.42194 0.30256
 C1251 C 0.70848 0.43922 0.29147
 C1252 C 0.71814 0.45378 0.28186
 C1253 C 0.68745 0.90783 0.81229
 C1254 C 0.69682 0.92276 0.80295
 C1255 C 0.70796 0.94002 0.79186
 C1256 C 0.71764 0.95457 0.78225
 C1257 C 0.18725 0.40758 0.81222
 C1258 C 0.19661 0.42253 0.80289
 C1259 C 0.20774 0.43980 0.79180
 C1260 C 0.21740 0.45435 0.78217
 C1261 C 0.18773 0.90824 0.31195
 C1262 C 0.19707 0.92316 0.30258
 C1263 C 0.20819 0.94042 0.29144
 C1264 C 0.21784 0.95496 0.28179
 C1265 C 0.40708 0.31156 0.68838
 C1266 C 0.42207 0.30221 0.69769
 C1267 C 0.43941 0.29109 0.70876
 C1268 C 0.45404 0.28145 0.71836
 C1269 C 0.40729 0.81247 0.18738
 C1270 C 0.42226 0.80312 0.19672
 C1271 C 0.43957 0.79201 0.20785
 C1272 C 0.45415 0.78238 0.21751
 C1273 C 0.90781 0.31154 0.18763
 C1274 C 0.92279 0.30221 0.19698
 C1275 C 0.94012 0.29114 0.20812
 C1276 C 0.95473 0.28155 0.21778
 C1277 C 0.90756 0.81203 0.68846
 C1278 C 0.92253 0.80266 0.69780
 C1279 C 0.93984 0.79152 0.70890
 C1280 C 0.95443 0.78187 0.71852
 C1281 C 0.59276 0.31167 0.31184
 C1282 C 0.57783 0.30232 0.30250
 C1283 C 0.56055 0.29120 0.29140
 C1284 C 0.54598 0.28156 0.28178
 C1285 C 0.59216 0.81257 0.81218
 C1286 C 0.57724 0.80321 0.80282
 C1287 C 0.56000 0.79207 0.79169
 C1288 C 0.54547 0.78240 0.78205
 C1289 C 0.09199 0.31228 0.81209
 C1290 C 0.07706 0.30293 0.80274
 C1291 C 0.05979 0.29181 0.79163
 C1292 C 0.04523 0.28215 0.78201
 C1293 C 0.09238 0.81304 0.31216
 C1294 C 0.07743 0.80368 0.30284
 C1295 C 0.06015 0.79255 0.29176
 C1296 C 0.04559 0.78289 0.28216
 C1297 C 0.59282 0.68820 0.68826
 C1298 C 0.57782 0.69755 0.69758
 C1299 C 0.56047 0.70866 0.70865
 C1300 C 0.54584 0.71830 0.71824
 C1301 C 0.59292 0.18755 0.18767
 C1302 C 0.57794 0.19689 0.19701
 C1303 C 0.56062 0.20800 0.20814
 C1304 C 0.54603 0.21763 0.21780
 C1305 C 0.09254 0.68880 0.18793
 C1306 C 0.07760 0.69818 0.19732
 C1307 C 0.06032 0.70931 0.20848
 C1308 C 0.04574 0.71894 0.21817
 C1309 C 0.09230 0.18779 0.68822
 C1310 C 0.07733 0.19716 0.69755
 C1311 C 0.06001 0.20832 0.70864
 C1312 C 0.04541 0.21799 0.71825
 C1313 C 0.40730 0.68830 0.31143
 C1314 C 0.42225 0.69765 0.30210
 C1315 C 0.43954 0.70878 0.29103
 C1316 C 0.45412 0.71844 0.28144
 C1317 C 0.40748 0.18727 0.81217
 C1318 C 0.42243 0.19662 0.80285
 C1319 C 0.43972 0.20775 0.79176
 C1320 C 0.45428 0.21740 0.78215
 C1321 C 0.90778 0.68759 0.81228
 C1322 C 0.92272 0.69693 0.80294
 C1323 C 0.94001 0.70806 0.79185
 C1324 C 0.95457 0.71771 0.78224
 C1325 C 0.90820 0.18752 0.31187
 C1326 C 0.92312 0.19687 0.30252
 C1327 C 0.94038 0.20800 0.29140
 C1328 C 0.95494 0.21766 0.28177
 C1329 C 0.31168 0.31166 0.59314
 C1330 C 0.30235 0.30233 0.57818
 C1331 C 0.29125 0.29125 0.56088
 C1332 C 0.28163 0.28164 0.54629
 C1333 C 0.31180 0.81247 0.09223
 C1334 C 0.30247 0.80311 0.07731
 C1335 C 0.29137 0.79197 0.06004
 C1336 C 0.28177 0.78230 0.04549
 C1337 C 0.81240 0.31157 0.09237
 C1338 C 0.80304 0.30224 0.07743
 C1339 C 0.79191 0.29117 0.06015
 C1340 C 0.78224 0.28158 0.04558
 C1341 C 0.81230 0.81221 0.59309
 C1342 C 0.80298 0.80288 0.57813
 C1343 C 0.79189 0.79179 0.56084
 C1344 C 0.78227 0.78217 0.54626
 C1345 C 0.31205 0.68828 0.40685
 C1346 C 0.30270 0.69763 0.42181
 C1347 C 0.29159 0.70875 0.43911
 C1348 C 0.28197 0.71839 0.45370
 C1349 C 0.31188 0.18748 0.90723
 C1350 C 0.30248 0.19687 0.92214
 C1351 C 0.29133 0.20803 0.93939
 C1352 C 0.28166 0.21770 0.95393
 C1353 C 0.81217 0.68787 0.90735
 C1354 C 0.80277 0.69726 0.92225
 C1355 C 0.79158 0.70841 0.93949
 C1356 C 0.78188 0.71806 0.95403
 C1357 C 0.81286 0.18764 0.40722
 C1358 C 0.80348 0.19700 0.42215
 C1359 C 0.79232 0.20814 0.43941
 C1360 C 0.78264 0.21778 0.45396
 C1361 C 0.68810 0.31166 0.40713
 C1362 C 0.69748 0.30232 0.42207
 C1363 C 0.70865 0.29122 0.43934
 C1364 C 0.71833 0.28161 0.45390
 C1365 C 0.68753 0.81233 0.90741
 C1366 C 0.69690 0.80293 0.92231
 C1367 C 0.70803 0.79175 0.93954
 C1368 C 0.71769 0.78207 0.95408
 C1369 C 0.18741 0.31205 0.90729
 C1370 C 0.19679 0.30266 0.92219
 C1371 C 0.20794 0.29150 0.93943
 C1372 C 0.21760 0.28183 0.95397
 C1373 C 0.18791 0.81291 0.40723
 C1374 C 0.19730 0.80352 0.42213
 C1375 C 0.20844 0.79235 0.43937
 C1376 C 0.21809 0.78265 0.45390
 C1377 C 0.68832 0.68817 0.59307
 C1378 C 0.69766 0.69751 0.57813
 C1379 C 0.70876 0.70862 0.56084
 C1380 C 0.71837 0.71825 0.54627
 C1381 C 0.68836 0.18753 0.09243
 C1382 C 0.69767 0.19688 0.07748
 C1383 C 0.70873 0.20802 0.06019
 C1384 C 0.71831 0.21769 0.04561
 C1385 C 0.18775 0.68843 0.09243
 C1386 C 0.19710 0.69773 0.07747
 C1387 C 0.20822 0.70878 0.06017
 C1388 C 0.21787 0.71837 0.04558
 C1389 C 0.18765 0.18761 0.59289
 C1390 C 0.19699 0.19696 0.57795
 C1391 C 0.20810 0.20807 0.56068
 C1392 C 0.21774 0.21772 0.54612
   
