data_POSCAR
  _audit_creation_date              2014-09-24
  _audit_creation_method            'ToBaCCo'
  _symmetry_space_group_name_H-M    'P1'
  _symmetry_Int_Tables_number       1
  _symmetry_cell_setting            triclinic
  loop_
  _symmetry_equiv_pos_as_xyz
 x,y,z
_cell_length_a 84.7105
_cell_length_b 84.6811
_cell_length_c 84.0526
_cell_angle_alpha 90.014500
_cell_angle_beta 90.027300
_cell_angle_gamma 89.947000
loop_
  _atom_site_label
  _atom_site_type_symbol
  _atom_site_fract_x
  _atom_site_fract_y
  _atom_site_fract_z
N1 N 0.36023 0.35986 0.35922
 N2 N 0.36029 0.86019 -0.14058
 N3 N 0.86003 0.36033 -0.14052
 N4 N 0.86050 0.86040 0.35973
 N5 N 0.64041 0.64002 0.36013
 N6 N 0.64039 0.13962 -0.13971
 N7 N 0.14052 0.63970 -0.13935
 N8 N 0.13982 0.14001 0.36076
 N9 N 0.63955 0.35982 0.64046
 N10 N 0.63965 0.85975 1.14068
 N11 N 0.13947 0.35994 1.14052
 N12 N 0.13973 0.85977 0.64085
 N13 N 0.35951 0.63990 0.64002
 N14 N 0.35949 0.13968 1.14007
 N15 N 0.85976 0.63986 1.14009
 N16 N 0.85946 0.13992 0.64021
 N17 N 0.36081 0.36022 0.64042
 N18 N 0.36018 0.86042 0.14082
 N19 N 0.86057 0.36027 0.14003
 N20 N 0.86069 0.85977 0.64045
 N21 N 0.64000 0.64016 0.63925
 N22 N 0.64021 0.13985 0.13930
 N23 N 0.14041 0.64044 0.13975
 N24 N 0.14032 0.14057 0.63981
 N25 N 0.35950 0.64003 0.35991
 N26 N 0.35972 0.14001 0.86003
 N27 N 0.85947 0.63997 0.85982
 N28 N 0.85964 0.13996 0.35985
 N29 N 0.63981 0.35970 0.35909
 N30 N 0.63971 0.85979 0.85940
 N31 N 0.13969 0.35992 0.85940
 N32 N 0.13930 0.86019 0.35977
 O33 O 0.25157 1.01547 0.23029
 O34 O 0.22961 0.98487 0.25216
 O35 O 0.22966 1.01561 0.25206
 O36 O 0.25150 0.98475 0.23037
 O37 O 0.26984 0.98475 0.24910
 O38 O 0.24800 1.01562 0.27079
 O39 O 0.24796 0.98488 0.27089
 O40 O 0.26991 1.01548 0.24903
 Cu41 Cu 0.23873 1.00017 0.23933
 Cu42 Cu 0.26078 1.00018 0.26185
 C43 C 0.26447 1.02061 0.23595
 C44 C 0.23507 0.97973 0.26524
 C45 C 0.23513 1.02080 0.26510
 C46 C 0.26437 0.97957 0.23606
 O47 O 0.24820 0.51516 0.77028
 O48 O 0.27011 0.48447 0.74841
 O49 O 0.27009 0.51520 0.74850
 O50 O 0.24826 0.48443 0.77023
 O51 O 0.22989 0.48445 0.75153
 O52 O 0.25174 0.51524 0.72979
 O53 O 0.25174 0.48451 0.72970
 O54 O 0.22984 0.51518 0.75157
 Cu55 Cu 0.26102 0.49981 0.76124
 Cu56 Cu 0.23895 0.49985 0.73876
 C57 C 0.23530 0.52033 0.76463
 C58 C 0.26464 0.47934 0.73534
 C59 C 0.26462 0.52039 0.73546
 C60 C 0.23538 0.47927 0.76457
 O61 O 0.77046 0.01539 0.25078
 O62 O 0.74860 -0.01548 0.22918
 O63 O 0.74853 0.01526 0.22902
 O64 O 0.77049 -0.01534 0.25099
 O65 O 0.75216 -0.01523 0.26971
 O66 O 0.73020 0.01535 0.24776
 O67 O 0.73026 -0.01538 0.24790
 O68 O 0.75214 0.01549 0.26952
 Cu69 Cu 0.76137 -0.00005 0.23810
 Cu70 Cu 0.73934 0.00007 0.26061
 C71 C 0.76501 0.02062 0.26382
 C72 C 0.73573 -0.02061 0.23487
 C73 C 0.73564 0.02044 0.23467
 C74 C 0.76505 -0.02041 0.26408
 O75 O 0.75178 0.48491 0.76965
 O76 O 0.72981 0.51552 0.74776
 O77 O 0.72988 0.48479 0.74784
 O78 O 0.75175 0.51563 0.76951
 O79 O 0.77007 0.51556 0.75077
 O80 O 0.74821 0.48474 0.72912
 O81 O 0.74813 0.51547 0.72902
 O82 O 0.77011 0.48484 0.75092
 Cu83 Cu 0.73896 0.50022 0.76058
 Cu84 Cu 0.76098 0.50015 0.73806
 C85 C 0.76467 0.47974 0.76400
 C86 C 0.73524 0.52064 0.73468
 C87 C 0.73534 0.47958 0.73480
 C88 C 0.76463 0.52077 0.76381
 O89 O 0.24797 0.48468 0.22963
 O90 O 0.26978 0.51546 0.25140
 O91 O 0.26992 0.48474 0.25137
 O92 O 0.24782 0.51542 0.22969
 O93 O 0.22953 0.51533 0.24846
 O94 O 0.25164 0.48465 0.27014
 O95 O 0.25150 0.51537 0.27018
 O96 O 0.22968 0.48458 0.24839
 Cu97 Cu 0.26071 0.50008 0.23863
 Cu98 Cu 0.23874 0.49997 0.26118
 C99 C 0.23513 0.47946 0.23532
 C100 C 0.26435 0.52058 0.26449
 C101 C 0.26453 0.47955 0.26444
 C102 C 0.23493 0.52054 0.23540
 O103 O 0.75245 1.01502 0.73036
 O104 O 0.73059 0.98418 0.75200
 O105 O 0.73044 1.01492 0.75200
 O106 O 0.75258 0.98429 0.73030
 O107 O 0.77084 0.98435 0.74912
 O108 O 0.74869 1.01498 0.77083
 O109 O 0.74885 0.98424 0.77081
 O110 O 0.77070 1.01507 0.74918
 Cu111 Cu 0.73967 0.99959 0.73927
 Cu112 Cu 0.76161 0.99966 0.76189
 C113 C 0.76528 1.02022 0.73610
 C114 C 0.73601 0.97903 0.76508
 C115 C 0.73581 1.02010 0.76509
 C116 C 0.76547 0.97919 0.73602
 O117 O 0.73033 0.48442 0.25174
 O118 O 0.75218 0.51525 0.23008
 O119 O 0.75232 0.48453 0.23005
 O120 O 0.73016 0.51516 0.25173
 O121 O 0.74841 0.51524 0.27056
 O122 O 0.77057 0.48460 0.24887
 O123 O 0.77043 0.51532 0.24891
 O124 O 0.74859 0.48450 0.27056
 Cu125 Cu 0.73940 0.49983 0.23901
 Cu126 Cu 0.76134 0.49992 0.26163
 C127 C 0.73576 0.47929 0.26483
 C128 C 0.76502 0.52046 0.23582
 C129 C 0.76521 0.47943 0.23577
 C130 C 0.73553 0.52035 0.26482
 O131 O 0.22971 0.01553 0.74836
 O132 O 0.25185 -0.01508 0.77009
 O133 O 0.25170 0.01565 0.77005
 O134 O 0.22988 -0.01521 0.74836
 O135 O 0.24815 -0.01514 0.72958
 O136 O 0.26996 0.01571 0.75125
 O137 O 0.27012 -0.01502 0.75130
 O138 O 0.24797 0.01560 0.72957
 Cu139 Cu 0.23894 0.00021 0.76111
 Cu140 Cu 0.26089 0.00029 0.73853
 C141 C 0.23509 0.02072 0.73529
 C142 C 0.26475 -0.02018 0.76439
 C143 C 0.26453 0.02086 0.76432
 C144 C 0.23532 -0.02036 0.73529
 O145 O 0.25074 0.22949 0.98455
 O146 O 0.22874 0.25107 1.01548
 O147 O 0.22889 0.25120 0.98453
 O148 O 0.25059 0.22938 1.01551
 O149 O 0.26897 0.24790 1.01569
 O150 O 0.24727 0.26973 0.98471
 O151 O 0.24712 0.26960 1.01567
 O152 O 0.26912 0.24802 0.98474
 Cu153 Cu 0.23788 0.23842 0.99999
 Cu154 Cu 0.25998 0.26068 1.00021
 C155 C 0.26368 0.23509 0.97947
 C156 C 0.23420 0.26399 1.02077
 C157 C 0.23439 0.26418 0.97943
 C158 C 0.26346 0.23494 1.02080
 O159 O 0.25094 0.72972 0.48447
 O160 O 0.22891 0.75120 0.51546
 O161 O 0.22892 0.75125 0.48450
 O162 O 0.25092 0.72966 0.51543
 O163 O 0.26916 0.74833 0.51549
 O164 O 0.24716 0.76992 0.48456
 O165 O 0.24715 0.76986 0.51552
 O166 O 0.26918 0.74839 0.48453
 Cu167 Cu 0.23808 0.73857 0.49996
 Cu168 Cu 0.26000 0.76101 0.50003
 C169 C 0.26380 0.73542 0.47930
 C170 C 0.23429 0.76417 0.52069
 C171 C 0.23431 0.76425 0.47934
 C172 C 0.26377 0.73534 0.52066
 O173 O 0.23121 0.74809 -0.01547
 O174 O 0.25278 0.77017 0.01540
 O175 O 0.25282 0.76998 -0.01557
 O176 O 0.23115 0.74829 0.01548
 O177 O 0.24974 0.72993 0.01564
 O178 O 0.27140 0.75162 -0.01541
 O179 O 0.27136 0.75181 0.01556
 O180 O 0.24979 0.72973 -0.01532
 Cu181 Cu 0.24012 0.76099 -0.00005
 Cu182 Cu 0.26245 0.73892 0.00013
 C183 C 0.23684 0.73516 -0.02058
 C184 C 0.26572 0.76474 0.02066
 C185 C 0.26578 0.76447 -0.02071
 C186 C 0.23677 0.73542 0.02077
 O187 O 0.23107 0.24815 0.48478
 O188 O 0.25327 0.26998 0.51538
 O189 O 0.25294 0.26979 0.48441
 O190 O 0.23139 0.24835 0.51573
 O191 O 0.24975 0.22977 0.51565
 O192 O 0.27130 0.25120 0.48434
 O193 O 0.27163 0.25140 0.51531
 O194 O 0.24943 0.22957 0.48471
 Cu195 Cu 0.24032 0.26095 0.50008
 Cu196 Cu 0.26238 0.23861 0.49999
 C197 C 0.23647 0.23515 0.47962
 C198 C 0.26621 0.26438 0.52049
 C199 C 0.26578 0.26413 0.47911
 C200 C 0.23691 0.23542 0.52094
 O201 O 0.75017 0.72892 0.98456
 O202 O 0.72840 0.75059 1.01559
 O203 O 0.72836 0.75065 0.98463
 O204 O 0.75022 0.72886 1.01551
 O205 O 0.76864 0.74735 1.01554
 O206 O 0.74678 0.76915 0.98466
 O207 O 0.74682 0.76908 1.01562
 O208 O 0.76858 0.74741 0.98458
 Cu209 Cu 0.73743 0.73789 1.00007
 Cu210 Cu 0.75956 0.76012 1.00010
 C211 C 0.76307 0.73449 0.97936
 C212 C 0.73391 0.76351 1.02081
 C213 C 0.73386 0.76360 0.97946
 C214 C 0.76314 0.73441 1.02071
 O215 O 0.74681 0.26909 0.48446
 O216 O 0.76852 0.24732 0.51548
 O217 O 0.76857 0.24730 0.48453
 O218 O 0.74675 0.26910 0.51543
 O219 O 0.72829 0.25064 0.51538
 O220 O 0.75011 0.22885 0.48449
 O221 O 0.75006 0.22886 0.51544
 O222 O 0.72835 0.25063 0.48442
 Cu223 Cu 0.75952 0.26006 0.49998
 Cu224 Cu 0.73734 0.23789 0.49993
 C225 C 0.73390 0.26355 0.47923
 C226 C 0.76297 0.23439 0.52066
 C227 C 0.76305 0.23437 0.47932
 C228 C 0.73382 0.26357 0.52059
 O229 O 0.73008 0.24894 -0.01561
 O230 O 0.75183 0.27075 0.01533
 O231 O 0.75184 0.27068 -0.01564
 O232 O 0.73008 0.24900 0.01534
 O233 O 0.74854 0.23052 0.01539
 O234 O 0.77030 0.25221 -0.01560
 O235 O 0.77029 0.25227 0.01537
 O236 O 0.74854 0.23046 -0.01557
 Cu237 Cu 0.73910 0.26171 -0.00015
 Cu238 Cu 0.76129 0.23950 -0.00010
 C239 C 0.73562 0.23600 -0.02078
 C240 C 0.76474 0.26521 0.02055
 C241 C 0.76476 0.26512 -0.02083
 C242 C 0.73561 0.23608 0.02057
 O243 O 0.73097 0.74830 0.48425
 O244 O 0.75250 0.77013 0.51533
 O245 O 0.75269 0.77008 0.48435
 O246 O 0.73081 0.74832 0.51521
 O247 O 0.74931 0.72988 0.51533
 O248 O 0.77119 0.75164 0.48449
 O249 O 0.77101 0.75169 0.51546
 O250 O 0.74947 0.72985 0.48438
 Cu251 Cu 0.73988 0.76107 0.49977
 Cu252 Cu 0.76212 0.73891 0.49993
 C253 C 0.73656 0.73537 0.47910
 C254 C 0.76540 0.76461 0.52062
 C255 C 0.76564 0.76455 0.47923
 C256 C 0.73635 0.73541 0.52045
 O257 O 0.98465 0.25199 0.23059
 O258 O 1.01528 0.23017 0.25263
 O259 O 0.98455 0.23017 0.25248
 O260 O 1.01535 0.25201 0.23078
 O261 O 1.01523 0.27042 0.24945
 O262 O 0.98444 0.24859 0.27113
 O263 O 1.01517 0.24858 0.27129
 O264 O 0.98453 0.27040 0.24926
 Cu265 Cu 0.99997 0.23922 0.23974
 Cu266 Cu 0.99983 0.26135 0.26217
 C267 C 0.97946 0.26491 0.23617
 C268 C 1.02038 0.23568 0.26569
 C269 C 0.97932 0.23568 0.26549
 C270 C 1.02046 0.26493 0.23643
 O271 O 0.51559 0.27001 0.74954
 O272 O 0.48487 0.24803 0.77118
 O273 O 0.51559 0.24790 0.77109
 O274 O 0.48488 0.27013 0.74960
 O275 O 0.48477 0.25196 0.73069
 O276 O 0.51548 0.22973 0.75219
 O277 O 0.48476 0.22985 0.75228
 O278 O 0.51548 0.25185 0.73063
 Cu279 Cu 0.50024 0.26085 0.76226
 Cu280 Cu 0.50011 0.23901 0.73954
 C281 C 0.52069 0.26466 0.73641
 C282 C 0.47966 0.23521 0.76541
 C283 C 0.52070 0.23504 0.76528
 C284 C 0.47968 0.26483 0.73649
 O285 O 0.01511 0.24857 0.72881
 O286 O -0.01556 0.27070 0.75045
 O287 O 0.01515 0.27059 0.75047
 O288 O -0.01561 0.24871 0.72875
 O289 O -0.01569 0.23045 0.74755
 O290 O 0.01508 0.25234 0.76928
 O291 O -0.01563 0.25244 0.76926
 O292 O 0.01504 0.23031 0.74762
 Cu293 Cu -0.00022 0.26148 0.73772
 Cu294 Cu -0.00031 0.23954 0.76032
 C295 C 0.02024 0.23569 0.73455
 C296 C -0.02074 0.26533 0.76353
 C297 C 0.02029 0.26518 0.76356
 C298 C -0.02082 0.23587 0.73446
 O299 O 0.48466 0.27009 0.25029
 O300 O 0.51527 0.24791 0.22860
 O301 O 0.48455 0.24795 0.22873
 O302 O 0.51538 0.27006 0.25014
 O303 O 0.51547 0.25193 0.26906
 O304 O 0.48464 0.22981 0.24766
 O305 O 0.51536 0.22977 0.24753
 O306 O 0.48475 0.25195 0.26922
 Cu307 Cu 0.49995 0.26083 0.23753
 Cu308 Cu 0.50006 0.23903 0.26028
 C309 C 0.47957 0.26478 0.26344
 C310 C 0.52046 0.23508 0.23439
 C311 C 0.47942 0.23513 0.23456
 C312 C 0.52060 0.26475 0.26323
 O313 O 1.01559 0.77012 0.74981
 O314 O 0.98478 0.74825 0.77143
 O315 O 1.01551 0.74825 0.77161
 O316 O 0.98489 0.77010 0.74959
 O317 O 0.98502 0.75171 0.73089
 O318 O 1.01565 0.72986 0.75291
 O319 O 0.98491 0.72986 0.75274
 O320 O 1.01573 0.75175 0.73111
 Cu321 Cu 1.00018 0.76103 0.76250
 Cu322 Cu 1.00034 0.73894 0.74003
 C323 C 1.02083 0.76465 0.73679
 C324 C 0.97967 0.73535 0.76575
 C325 C 1.02073 0.73536 0.76599
 C326 C 0.97982 0.76462 0.73650
 O327 O 0.48445 0.74784 0.27081
 O328 O 0.51521 0.76998 0.24937
 O329 O 0.48450 0.76998 0.24926
 O330 O 0.51518 0.74784 0.27091
 O331 O 0.51525 0.72970 0.25198
 O332 O 0.48458 0.75184 0.23033
 O333 O 0.51529 0.75184 0.23044
 O334 O 0.48453 0.72970 0.25188
 Cu335 Cu 0.49983 0.76074 0.26200
 Cu336 Cu 0.49992 0.73893 0.23925
 C337 C 0.47932 0.73501 0.26497
 C338 C 0.52041 0.76467 0.23627
 C339 C 0.47940 0.76467 0.23612
 C340 C 0.52037 0.73502 0.26512
 O341 O -0.01544 0.73027 0.24779
 O342 O 0.01535 0.75237 0.26925
 O343 O -0.01536 0.75238 0.26937
 O344 O 0.01529 0.73026 0.24769
 O345 O 0.01520 0.74842 0.22878
 O346 O -0.01544 0.77055 0.25047
 O347 O 0.01527 0.77054 0.25035
 O348 O -0.01553 0.74843 0.22888
 Cu349 Cu -0.00003 0.73948 0.26043
 Cu350 Cu -0.00014 0.76131 0.23771
 C351 C -0.02066 0.73560 0.23470
 C352 C 0.02048 0.76521 0.26344
 C353 C -0.02054 0.76523 0.26360
 C354 C 0.02040 0.73559 0.23456
 O355 O 0.48459 0.77032 0.75049
 O356 O 0.51526 0.74823 0.72880
 O357 O 0.48453 0.74829 0.72881
 O358 O 0.51530 0.77026 0.75045
 O359 O 0.51530 0.75202 0.76928
 O360 O 0.48453 0.73004 0.74763
 O361 O 0.51526 0.72999 0.74762
 O362 O 0.48459 0.75207 0.76931
 Cu363 Cu 0.49992 0.76111 0.73774
 Cu364 Cu 0.49992 0.73919 0.76036
 C365 C 0.47945 0.76495 0.76359
 C366 C 0.52042 0.73537 0.73453
 C367 C 0.47936 0.73544 0.73455
 C368 C 0.52047 0.76486 0.76354
 C369 C 0.37061 0.35102 0.35007
 C370 C 0.37973 0.34340 0.34215
 C371 C 0.39072 0.33439 0.33276
 C372 C 0.39014 0.31788 0.33284
 C373 C 0.40100 0.30914 0.32392
 C374 C 0.41262 0.31684 0.31481
 C375 C 0.41304 0.33345 0.31475
 C376 C 0.40216 0.34215 0.32367
 C377 C 0.42435 0.30758 0.30554
 C378 C 0.44027 0.31230 0.30505
 C379 C 0.45133 0.30356 0.29641
 C380 C 0.44666 0.29001 0.28813
 C381 C 0.43085 0.28522 0.28852
 C382 C 0.41976 0.29394 0.29717
 C383 C 0.45812 0.28101 0.27932
 C384 C 0.46785 0.27355 0.27202
 H385 H 0.38136 0.31175 0.33989
 H386 H 0.40049 0.29638 0.32437
 H387 H 0.42170 0.33972 0.30769
 H388 H 0.40270 0.35494 0.32349
 H389 H 0.44421 0.32261 0.31155
 H390 H 0.46355 0.30733 0.29623
 H391 H 0.42710 0.27477 0.28212
 H392 H 0.40757 0.29012 0.29716
 C393 C 0.37065 0.85132 0.85028
 C394 C 0.37974 0.84366 0.84237
 C395 C 0.39072 0.83463 0.83298
 C396 C 0.40215 0.84237 0.82386
 C397 C 0.41301 0.83364 0.81493
 C398 C 0.41257 0.81703 0.81502
 C399 C 0.40095 0.80936 0.82415
 C400 C 0.39011 0.81812 0.83308
 C401 C 0.42427 0.80775 0.80575
 C402 C 0.41966 0.79412 0.79738
 C403 C 0.43074 0.78538 0.78872
 C404 C 0.44655 0.79015 0.78832
 C405 C 0.45125 0.80369 0.79660
 C406 C 0.44020 0.81244 0.80525
 C407 C 0.45800 0.78115 0.77949
 C408 C 0.46772 0.77370 0.77218
 H409 H 0.40270 0.85515 0.82366
 H410 H 0.42166 0.83989 0.80785
 H411 H 0.40043 0.79659 0.82462
 H412 H 0.38134 0.81201 0.84015
 H413 H 0.40746 0.79031 0.79738
 H414 H 0.42697 0.77494 0.78232
 H415 H 0.46347 0.80745 0.79642
 H416 H 0.44416 0.82275 0.81174
 C417 C -0.12965 0.35147 0.85028
 C418 C -0.12059 0.34383 0.84231
 C419 C -0.10964 0.33483 0.83287
 C420 C -0.10983 0.31831 0.83342
 C421 C -0.09898 0.30959 0.82447
 C422 C -0.08778 0.31729 0.81486
 C423 C -0.08776 0.33390 0.81432
 C424 C -0.09862 0.34260 0.82327
 C425 C -0.07605 0.30806 0.80558
 C426 C -0.06026 0.31312 0.80459
 C427 C -0.04918 0.30440 0.79595
 C428 C -0.05371 0.29051 0.78817
 C429 C -0.06939 0.28538 0.78905
 C430 C -0.08049 0.29409 0.79770
 C431 C -0.04223 0.28152 0.77938
 C432 C -0.03248 0.27408 0.77210
 H433 H -0.11828 0.31218 0.84086
 H434 H -0.09917 0.29683 0.82529
 H435 H -0.07943 0.34017 0.80687
 H436 H -0.09839 0.35538 0.82273
 H437 H -0.05642 0.32370 0.81071
 H438 H -0.03706 0.30844 0.79540
 H439 H -0.07303 0.27466 0.78304
 H440 H -0.09259 0.28999 0.79808
 C441 C -0.12919 0.85155 0.35052
 C442 C -0.12014 0.84390 0.34255
 C443 C -0.10920 0.83488 0.33310
 C444 C -0.09815 0.84263 0.32353
 C445 C -0.08731 0.83391 0.31456
 C446 C -0.08740 0.81730 0.31506
 C447 C -0.09864 0.80962 0.32465
 C448 C -0.10946 0.81837 0.33361
 C449 C -0.07570 0.80805 0.30576
 C450 C -0.08019 0.79409 0.29787
 C451 C -0.06912 0.78536 0.28920
 C452 C -0.05343 0.79045 0.28831
 C453 C -0.04886 0.80432 0.29610
 C454 C -0.05990 0.81306 0.30476
 C455 C -0.04198 0.78144 0.27949
 C456 C -0.03226 0.77399 0.27219
 H457 H -0.09787 0.85541 0.32302
 H458 H -0.07895 0.84017 0.30714
 H459 H -0.09888 0.79686 0.32544
 H460 H -0.11794 0.81225 0.34103
 H461 H -0.09230 0.79002 0.29825
 H462 H -0.07280 0.77466 0.28319
 H463 H -0.03673 0.80833 0.29553
 H464 H -0.05602 0.82363 0.31088
 C465 C 0.63000 0.64893 0.35108
 C466 C 0.62087 0.65662 0.34324
 C467 C 0.60986 0.66570 0.33393
 C468 C 0.60741 0.68169 0.33732
 C469 C 0.59650 0.69044 0.32845
 C470 C 0.58788 0.68327 0.31609
 C471 C 0.59050 0.66720 0.31274
 C472 C 0.60142 0.65849 0.32160
 C473 C 0.57608 0.69247 0.30686
 C474 C 0.56151 0.68567 0.30264
 C475 C 0.55034 0.69436 0.29407
 C476 C 0.55357 0.70994 0.28958
 C477 C 0.56804 0.71680 0.29368
 C478 C 0.57922 0.70814 0.30227
 C479 C 0.54198 0.71888 0.28088
 C480 C 0.53217 0.72629 0.27365
 H481 H 0.61384 0.68738 0.34687
 H482 H 0.59460 0.70273 0.33146
 H483 H 0.58421 0.66140 0.30317
 H484 H 0.60325 0.64612 0.31886
 H485 H 0.55865 0.67372 0.30618
 H486 H 0.53916 0.68895 0.29101
 H487 H 0.57067 0.72884 0.29024
 H488 H 0.59040 0.71363 0.30516
 C489 C 0.63003 0.14854 0.85119
 C490 C 0.62095 0.15626 0.84332
 C491 C 0.61003 0.16544 0.83402
 C492 C 0.60533 0.18042 0.83923
 C493 C 0.59450 0.18923 0.83035
 C494 C 0.58820 0.18315 0.81611
 C495 C 0.59307 0.16811 0.81093
 C496 C 0.60391 0.15933 0.81983
 C497 C 0.57647 0.19238 0.80682
 C498 C 0.56336 0.18485 0.79987
 C499 C 0.55220 0.19356 0.79131
 C500 C 0.55398 0.20989 0.78956
 C501 C 0.56700 0.21749 0.79637
 C502 C 0.57818 0.20880 0.80494
 C503 C 0.54235 0.21885 0.78092
 C504 C 0.53252 0.22628 0.77375
 H505 H 0.60996 0.18524 0.85023
 H506 H 0.59084 0.20067 0.83477
 H507 H 0.58860 0.16320 0.79992
 H508 H 0.60750 0.14776 0.81566
 H509 H 0.56159 0.17226 0.80129
 H510 H 0.54213 0.18757 0.78614
 H511 H 0.56851 0.23013 0.79505
 H512 H 0.58824 0.21491 0.80997
 C513 C 1.13016 0.64876 0.85168
 C514 C 1.12108 0.65660 0.84394
 C515 C 1.11015 0.66593 0.83480
 C516 C 1.10416 0.66013 0.82042
 C517 C 1.09331 0.66906 0.81167
 C518 C 1.08829 0.68392 0.81722
 C519 C 1.09445 0.68967 0.83165
 C520 C 1.10530 0.68073 0.84037
 C521 C 1.07654 0.69328 0.80809
 C522 C 1.06440 0.70146 0.81601
 C523 C 1.05322 0.71012 0.80741
 C524 C 1.05403 0.71074 0.79080
 C525 C 1.06610 0.70270 0.78280
 C526 C 1.07728 0.69402 0.79138
 C527 C 1.04238 0.71949 0.78197
 C528 C 1.03254 0.72677 0.77464
 H529 H 1.10779 0.64866 0.81603
 H530 H 1.08864 0.66421 0.80072
 H531 H 1.09097 0.70115 0.83613
 H532 H 1.10989 0.68535 0.85147
 H533 H 1.06338 0.70095 0.82884
 H534 H 1.04390 0.71625 0.81372
 H535 H 1.06685 0.70313 0.76994
 H536 H 1.08660 0.68803 0.78495
 C537 C 1.12953 0.14908 0.35173
 C538 C 1.12051 0.15694 0.34393
 C539 C 1.10963 0.16627 0.33472
 C540 C 1.10314 0.16016 0.32070
 C541 C 1.09234 0.16909 0.31191
 C542 C 1.08787 0.18428 0.31704
 C543 C 1.09455 0.19034 0.33110
 C544 C 1.10535 0.18139 0.33987
 C545 C 1.07616 0.19366 0.30787
 C546 C 1.06446 0.20246 0.31579
 C547 C 1.05330 0.21111 0.30717
 C548 C 1.05369 0.21110 0.29053
 C549 C 1.06531 0.20245 0.28253
 C550 C 1.07648 0.19378 0.29113
 C551 C 1.04204 0.21984 0.28169
 C552 C 1.03220 0.22711 0.27435
 H553 H 1.10633 0.14844 0.31664
 H554 H 1.08726 0.16401 0.30125
 H555 H 1.09151 0.20206 0.33526
 H556 H 1.11034 0.18624 0.35069
 H557 H 1.06377 0.20244 0.32866
 H558 H 1.04432 0.21773 0.31348
 H559 H 1.06573 0.20239 0.26964
 H560 H 1.08545 0.18728 0.28469
 C561 C 0.62932 0.35094 0.64971
 C562 C 0.62034 0.34324 0.65769
 C563 C 0.60952 0.33410 0.66713
 C564 C 0.60587 0.31859 0.66274
 C565 C 0.59511 0.30980 0.67171
 C566 C 0.58785 0.31644 0.68521
 C567 C 0.59169 0.33202 0.68957
 C568 C 0.60245 0.34078 0.68059
 C569 C 0.57618 0.30723 0.69456
 C570 C 0.56238 0.31449 0.70035
 C571 C 0.55129 0.30579 0.70897
 C572 C 0.55382 0.28973 0.71193
 C573 C 0.56753 0.28240 0.70628
 C574 C 0.57864 0.29108 0.69765
 C575 C 0.54227 0.28077 0.72064
 C576 C 0.53248 0.27336 0.72787
 H577 H 0.61123 0.31332 0.65230
 H578 H 0.59226 0.29792 0.66792
 H579 H 0.58646 0.33738 0.70001
 H580 H 0.60522 0.35277 0.68411
 H581 H 0.56003 0.32684 0.69798
 H582 H 0.54069 0.31157 0.71324
 H583 H 0.56962 0.26997 0.70854
 H584 H 0.58923 0.28520 0.69352
 C585 C 0.62933 0.85095 0.14992
 C586 C 0.62028 0.84334 0.15791
 C587 C 0.60936 0.83433 0.16734
 C588 C 0.59875 0.84205 0.17746
 C589 C 0.58791 0.83334 0.18640
 C590 C 0.58754 0.81676 0.18533
 C591 C 0.59834 0.80910 0.17521
 C592 C 0.60916 0.81784 0.16627
 C593 C 0.57581 0.80752 0.19459
 C594 C 0.58010 0.79317 0.20186
 C595 C 0.56899 0.78444 0.21045
 C596 C 0.55346 0.78992 0.21187
 C597 C 0.54909 0.80418 0.20470
 C598 C 0.56017 0.81293 0.19612
 C599 C 0.54196 0.78090 0.22058
 C600 C 0.53219 0.77344 0.22779
 H601 H 0.59883 0.85481 0.17840
 H602 H 0.57990 0.83957 0.19423
 H603 H 0.59822 0.79637 0.17398
 H604 H 0.61729 0.81174 0.15844
 H605 H 0.59209 0.78879 0.20106
 H606 H 0.57251 0.77343 0.21598
 H607 H 0.53708 0.80850 0.20568
 H608 H 0.55645 0.82381 0.19048
 C609 C 1.12919 0.35106 0.14972
 C610 C 1.12018 0.34338 0.15768
 C611 C 1.10932 0.33428 0.16710
 C612 C 1.10130 0.34135 0.17979
 C613 C 1.09051 0.33261 0.18876
 C614 C 1.08760 0.31665 0.18515
 C615 C 1.09581 0.30961 0.17243
 C616 C 1.10659 0.31838 0.16347
 C617 C 1.07591 0.30744 0.19448
 C618 C 1.07895 0.29163 0.19866
 C619 C 1.06784 0.28295 0.20730
 C620 C 1.05356 0.28994 0.21186
 C621 C 1.05045 0.30565 0.20779
 C622 C 1.06154 0.31436 0.19917
 C623 C 1.04203 0.28098 0.22060
 C624 C 1.03225 0.27359 0.22786
 H625 H 1.10336 0.35364 0.18273
 H626 H 1.08454 0.33831 0.19861
 H627 H 1.09368 0.29741 0.16923
 H628 H 1.11269 0.31281 0.15363
 H629 H 1.08998 0.28604 0.19539
 H630 H 1.07038 0.27080 0.21042
 H631 H 1.03941 0.31116 0.21122
 H632 H 1.05875 0.32642 0.19595
 C633 C 1.12951 0.85086 0.65010
 C634 C 1.12055 0.84315 0.65808
 C635 C 1.10973 0.83400 0.66751
 C636 C 1.10256 0.84072 0.68090
 C637 C 1.09180 0.83196 0.68988
 C638 C 1.08806 0.81634 0.68559
 C639 C 1.09543 0.80966 0.67217
 C640 C 1.10618 0.81845 0.66320
 C641 C 1.07638 0.80714 0.69493
 C642 C 1.07890 0.79102 0.69815
 C643 C 1.06778 0.78235 0.70678
 C644 C 1.05400 0.78965 0.71230
 C645 C 1.05141 0.80568 0.70920
 C646 C 1.06251 0.81437 0.70058
 C647 C 1.04244 0.78071 0.72101
 C648 C 1.03264 0.77332 0.72825
 H649 H 1.10525 0.85275 0.68436
 H650 H 1.08648 0.83737 0.70026
 H651 H 1.09265 0.79774 0.66844
 H652 H 1.11163 0.81315 0.65282
 H653 H 1.08954 0.78516 0.69412
 H654 H 1.06992 0.76995 0.70914
 H655 H 1.04076 0.81144 0.71336
 H656 H 1.06012 0.82669 0.69811
 C657 C 0.36988 0.64893 0.64898
 C658 C 0.37898 0.65677 0.65670
 C659 C 0.38994 0.66609 0.66580
 C660 C 0.39696 0.67942 0.65899
 C661 C 0.40784 0.68833 0.66769
 C662 C 0.41186 0.68400 0.68334
 C663 C 0.40466 0.67063 0.69012
 C664 C 0.39378 0.66174 0.68139
 C665 C 0.42364 0.69330 0.69249
 C666 C 0.42137 0.69640 0.70878
 C667 C 0.43255 0.70504 0.71738
 C668 C 0.44614 0.71069 0.70983
 C669 C 0.44850 0.70769 0.69363
 C670 C 0.43734 0.69906 0.68501
 C671 C 0.45773 0.71947 0.71868
 C672 C 0.46755 0.72679 0.72599
 H673 H 0.39404 0.68292 0.64694
 H674 H 0.41302 0.69867 0.66222
 H675 H 0.40765 0.66688 0.70206
 H676 H 0.38845 0.65140 0.68676
 H677 H 0.41086 0.69229 0.71483
 H678 H 0.43059 0.70733 0.72991
 H679 H 0.45900 0.71196 0.68768
 H680 H 0.43954 0.69668 0.67255
 C681 C 0.36986 0.14865 0.14908
 C682 C 0.37897 0.15639 0.15689
 C683 C 0.38994 0.16551 0.16617
 C684 C 0.39224 0.18154 0.16283
 C685 C 0.40312 0.19033 0.17167
 C686 C 0.41188 0.18318 0.18395
 C687 C 0.40940 0.16708 0.18727
 C688 C 0.39851 0.15832 0.17843
 C689 C 0.42367 0.19241 0.19314
 C690 C 0.43831 0.18569 0.19723
 C691 C 0.44948 0.19442 0.20575
 C692 C 0.44617 0.20997 0.21030
 C693 C 0.43162 0.21676 0.20633
 C694 C 0.42044 0.20805 0.19780
 C695 C 0.45776 0.21895 0.21894
 C696 C 0.46759 0.22639 0.22611
 H697 H 0.38571 0.18721 0.15333
 H698 H 0.40490 0.20264 0.16869
 H699 H 0.41580 0.16129 0.19678
 H700 H 0.39679 0.14593 0.18113
 H701 H 0.44124 0.17377 0.19363
 H702 H 0.46072 0.18906 0.20871
 H703 H 0.42893 0.22878 0.20983
 H704 H 0.40920 0.21349 0.19500
 C705 C -0.12996 0.64893 0.14909
 C706 C -0.12093 0.65677 0.15689
 C707 C -0.11004 0.66602 0.16615
 C708 C -0.10443 0.68042 0.16027
 C709 C -0.09362 0.68927 0.16912
 C710 C -0.08825 0.68381 0.18399
 C711 C -0.09405 0.66936 0.18984
 C712 C -0.10487 0.66054 0.18097
 C713 C -0.07653 0.69305 0.19326
 C714 C -0.06411 0.68538 0.20126
 C715 C -0.05294 0.69408 0.20980
 C716 C -0.05402 0.71056 0.21047
 C717 C -0.06636 0.71831 0.20261
 C718 C -0.07755 0.70963 0.19405
 C719 C -0.04237 0.71949 0.21909
 C720 C -0.03251 0.72689 0.22625
 H721 H -0.10832 0.68474 0.14879
 H722 H -0.08923 0.70023 0.16420
 H723 H -0.09031 0.66495 0.20132
 H724 H -0.10916 0.64943 0.18565
 H725 H -0.06287 0.67266 0.20070
 H726 H -0.04340 0.68797 0.21580
 H727 H -0.06733 0.73106 0.20308
 H728 H -0.08707 0.71586 0.18818
 C729 C -0.13022 0.14906 0.64911
 C730 C -0.12115 0.15698 0.65678
 C731 C -0.11023 0.16637 0.66585
 C732 C -0.10324 0.17970 0.65899
 C733 C -0.09238 0.18866 0.66766
 C734 C -0.08835 0.18440 0.68333
 C735 C -0.09553 0.17104 0.69016
 C736 C -0.10638 0.16209 0.68146
 C737 C -0.07659 0.19375 0.69244
 C738 C -0.07887 0.19690 0.70872
 C739 C -0.06769 0.20557 0.71730
 C740 C -0.05409 0.21119 0.70973
 C741 C -0.05173 0.20814 0.69355
 C742 C -0.06290 0.19949 0.68495
 C743 C -0.04248 0.21995 0.71857
 C744 C -0.03265 0.22725 0.72588
 H745 H -0.10616 0.18314 0.64693
 H746 H -0.08722 0.19900 0.66215
 H747 H -0.09253 0.16734 0.70211
 H748 H -0.11169 0.15176 0.68686
 H749 H -0.08937 0.19281 0.71478
 H750 H -0.06964 0.20789 0.72982
 H751 H -0.04122 0.21239 0.68759
 H752 H -0.06069 0.19708 0.67249
 C753 C 0.35128 0.37029 0.35023
 C754 C 0.34357 0.37945 0.34244
 C755 C 0.33449 0.39050 0.33320
 C756 C 0.31800 0.38955 0.33294
 C757 C 0.30919 0.40046 0.32414
 C758 C 0.31678 0.41249 0.31549
 C759 C 0.33337 0.41328 0.31577
 C760 C 0.34215 0.40236 0.32457
 C761 C 0.30744 0.42424 0.30634
 C762 C 0.31181 0.44028 0.30635
 C763 C 0.30301 0.45136 0.29778
 C764 C 0.28976 0.44660 0.28908
 C765 C 0.28531 0.43068 0.28899
 C766 C 0.29409 0.41957 0.29757
 C767 C 0.28074 0.45807 0.28031
 C768 C 0.27328 0.46781 0.27302
 H769 H 0.31195 0.38044 0.33962
 H770 H 0.29643 0.39965 0.32432
 H771 H 0.33957 0.42226 0.30907
 H772 H 0.35491 0.40318 0.32465
 H773 H 0.32189 0.44428 0.31316
 H774 H 0.30653 0.46366 0.29798
 H775 H 0.27509 0.42686 0.28226
 H776 H 0.29054 0.40729 0.29717
 C777 C 0.35135 -0.12938 0.85042
 C778 C 0.34365 -0.12022 0.84262
 C779 C 0.33459 -0.10917 0.83335
 C780 C 0.34227 -0.09736 0.82468
 C781 C 0.33351 -0.08644 0.81586
 C782 C 0.31692 -0.08720 0.81559
 C783 C 0.30931 -0.09919 0.82428
 C784 C 0.31810 -0.11009 0.83311
 C785 C 0.30760 -0.07545 0.80641
 C786 C 0.29423 -0.08013 0.79765
 C787 C 0.28548 -0.06902 0.78904
 C788 C 0.28996 -0.05312 0.78909
 C789 C 0.30323 -0.04835 0.79776
 C790 C 0.31200 -0.05943 0.80636
 C791 C 0.28095 -0.04165 0.78028
 C792 C 0.27350 -0.03191 0.77298
 H793 H 0.35504 -0.09656 0.82475
 H794 H 0.33972 -0.07750 0.80912
 H795 H 0.29655 -0.09997 0.82447
 H796 H 0.31203 -0.11916 0.83982
 H797 H 0.29066 -0.09240 0.79730
 H798 H 0.27525 -0.07284 0.78234
 H799 H 0.30677 -0.03606 0.79792
 H800 H 0.32209 -0.05542 0.81316
 C801 C 0.85099 0.37072 0.85053
 C802 C 0.84316 0.37983 0.84281
 C803 C 0.83387 0.39081 0.83369
 C804 C 0.82301 0.40067 0.84135
 C805 C 0.81416 0.41155 0.83257
 C806 C 0.81606 0.41271 0.81598
 C807 C 0.82695 0.40267 0.80838
 C808 C 0.83580 0.39180 0.81719
 C809 C 0.80685 0.42445 0.80669
 C810 C 0.80054 0.42049 0.79171
 C811 C 0.79192 0.43160 0.78298
 C812 C 0.78950 0.44679 0.78907
 C813 C 0.79572 0.45084 0.80395
 C814 C 0.80433 0.43975 0.81271
 C815 C 0.78069 0.45827 0.78009
 C816 C 0.77335 0.46801 0.77268
 H817 H 0.82139 0.39997 0.85412
 H818 H 0.80572 0.41895 0.83874
 H819 H 0.82883 0.40341 0.79566
 H820 H 0.84422 0.38426 0.81115
 H821 H 0.80211 0.40876 0.78685
 H822 H 0.78712 0.42834 0.77149
 H823 H 0.79397 0.46258 0.80876
 H824 H 0.80922 0.44323 0.82409
 C825 C 0.85143 -0.12924 0.35078
 C826 C 0.84358 -0.12015 0.34306
 C827 C 0.83426 -0.10920 0.33392
 C828 C 0.82315 -0.09957 0.34152
 C829 C 0.81429 -0.08872 0.33272
 C830 C 0.81642 -0.08736 0.31618
 C831 C 0.82755 -0.09717 0.30863
 C832 C 0.83641 -0.10801 0.31746
 C833 C 0.80719 -0.07564 0.30687
 C834 C 0.80117 -0.07951 0.29175
 C835 C 0.79255 -0.06842 0.28300
 C836 C 0.78985 -0.05333 0.28922
 C837 C 0.79578 -0.04936 0.30423
 C838 C 0.80439 -0.06043 0.31301
 C839 C 0.78105 -0.04186 0.28021
 C840 C 0.77372 -0.03213 0.27277
 H841 H 0.82137 -0.10042 0.35426
 H842 H 0.80567 -0.08149 0.33884
 H843 H 0.82960 -0.09627 0.29595
 H844 H 0.84502 -0.11538 0.31147
 H845 H 0.80297 -0.09118 0.28679
 H846 H 0.78798 -0.07162 0.27140
 H847 H 0.79380 -0.03770 0.30914
 H848 H 0.80905 -0.05702 0.32450
 C849 C 0.35060 0.62963 0.64920
 C850 C 0.34290 0.62061 0.65713
 C851 C 0.33377 0.60972 0.66650
 C852 C 0.34048 0.60250 0.67986
 C853 C 0.33174 0.59166 0.68878
 C854 C 0.31615 0.58790 0.68443
 C855 C 0.30947 0.59531 0.67104
 C856 C 0.31823 0.60614 0.66213
 C857 C 0.30696 0.57614 0.69371
 C858 C 0.29083 0.57859 0.69688
 C859 C 0.28218 0.56741 0.70547
 C860 C 0.28952 0.55365 0.71098
 C861 C 0.30556 0.55112 0.70792
 C862 C 0.31423 0.56228 0.69935
 C863 C 0.28061 0.54204 0.71967
 C864 C 0.27325 0.53221 0.72690
 H865 H 0.35249 0.60522 0.68336
 H866 H 0.33715 0.58632 0.69914
 H867 H 0.29757 0.59251 0.66727
 H868 H 0.31294 0.61162 0.65177
 H869 H 0.28495 0.58922 0.69287
 H870 H 0.26978 0.56950 0.70780
 H871 H 0.31135 0.54048 0.71208
 H872 H 0.32657 0.55994 0.69691
 C873 C 0.35060 1.12937 0.14922
 C874 C 0.34291 1.12033 0.15715
 C875 C 0.33379 1.10945 0.16654
 C876 C 0.34062 1.10202 0.17972
 C877 C 0.33188 1.09122 0.18868
 C878 C 0.31616 1.08771 0.18456
 C879 C 0.30937 1.09532 0.17134
 C880 C 0.31815 1.10612 0.16239
 C881 C 0.30696 1.07601 0.19389
 C882 C 0.29093 1.07868 0.19737
 C883 C 0.28226 1.06757 0.20602
 C884 C 0.28948 1.05365 0.21128
 C885 C 0.30542 1.05089 0.20791
 C886 C 0.31412 1.06199 0.19928
 C887 C 0.28055 1.04212 0.22004
 C888 C 0.27315 1.03235 0.22733
 H889 H 0.35271 1.10455 0.18306
 H890 H 0.33737 1.08571 0.19891
 H891 H 0.29738 1.09272 0.16774
 H892 H 0.31276 1.11177 0.15217
 H893 H 0.28515 1.08944 0.19356
 H894 H 0.26994 1.06983 0.20860
 H895 H 0.31111 1.04013 0.21187
 H896 H 0.32637 1.05948 0.19660
 C897 C 0.85090 0.62953 0.14925
 C898 C 0.84323 0.62047 0.15717
 C899 C 0.83414 0.60957 0.16656
 C900 C 0.84093 0.60228 0.17985
 C901 C 0.83221 0.59146 0.18881
 C902 C 0.81656 0.58779 0.18459
 C903 C 0.80981 0.59526 0.17127
 C904 C 0.81855 0.60607 0.16232
 C905 C 0.80738 0.57607 0.19393
 C906 C 0.79130 0.57863 0.19727
 C907 C 0.78266 0.56749 0.20591
 C908 C 0.78995 0.55366 0.21131
 C909 C 0.80594 0.55103 0.20808
 C910 C 0.81461 0.56215 0.19946
 C911 C 0.78104 0.54209 0.22002
 C912 C 0.77366 0.53227 0.22727
 H913 H 0.85297 0.60493 0.18326
 H914 H 0.83767 0.58607 0.19912
 H915 H 0.79786 0.59254 0.16760
 H916 H 0.81320 0.61161 0.15202
 H917 H 0.78546 0.58932 0.19334
 H918 H 0.77029 0.56967 0.20837
 H919 H 0.81169 0.54033 0.21216
 H920 H 0.82691 0.55973 0.19690
 C921 C 0.85066 1.12962 0.64946
 C922 C 0.84303 1.12058 0.65745
 C923 C 0.83399 1.10968 0.66688
 C924 C 0.84083 1.10244 0.68017
 C925 C 0.83217 1.09159 0.68915
 C926 C 0.81653 1.08784 0.68495
 C927 C 0.80973 1.09527 0.67163
 C928 C 0.81841 1.10611 0.66266
 C929 C 0.80742 1.07607 0.69428
 C930 C 0.79133 1.07854 0.69764
 C931 C 0.78275 1.06735 0.70627
 C932 C 0.79012 1.05355 0.71164
 C933 C 0.80612 1.05100 0.70841
 C934 C 0.81473 1.06218 0.69980
 C935 C 0.78125 1.04191 0.72034
 C936 C 0.77391 1.03206 0.72757
 H937 H 0.85287 1.10514 0.68356
 H938 H 0.83766 1.08622 0.69945
 H939 H 0.79779 1.09249 0.66797
 H940 H 0.81303 1.11161 0.65236
 H941 H 0.78543 1.08920 0.69373
 H942 H 0.77037 1.06945 0.70873
 H943 H 0.81192 1.04032 0.71246
 H944 H 0.82703 1.05982 0.69722
 C945 C 0.64933 0.62967 0.35104
 C946 C 0.65705 0.62059 0.34317
 C947 C 0.66620 0.60965 0.33385
 C948 C 0.66018 0.60376 0.31953
 C949 C 0.66893 0.59291 0.31061
 C950 C 0.68385 0.58781 0.31591
 C951 C 0.68984 0.59388 0.33029
 C952 C 0.68106 0.60472 0.33919
 C953 C 0.69304 0.57607 0.30659
 C954 C 0.70950 0.57763 0.30492
 C955 C 0.71815 0.56645 0.29630
 C956 C 0.71049 0.55360 0.28926
 C957 C 0.69412 0.55197 0.29081
 C958 C 0.68545 0.56313 0.29941
 C959 C 0.71941 0.54197 0.28057
 C960 C 0.72681 0.53215 0.27335
 H961 H 0.64870 0.60752 0.31527
 H962 H 0.66409 0.58861 0.29950
 H963 H 0.70118 0.59003 0.33479
 H964 H 0.68581 0.60917 0.35029
 H965 H 0.71566 0.58756 0.31013
 H966 H 0.73082 0.56784 0.29514
 H967 H 0.68808 0.54203 0.28545
 H968 H 0.67284 0.56149 0.30066
 C969 C 0.64939 1.12931 0.85123
 C970 C 0.65717 1.12026 0.84339
 C971 C 0.66638 1.10936 0.83408
 C972 C 0.68098 1.10402 0.83972
 C973 C 0.68980 1.09320 0.83083
 C974 C 0.68410 1.08756 0.81616
 C975 C 0.66944 1.09308 0.81055
 C976 C 0.66065 1.10391 0.81946
 C977 C 0.69331 1.07583 0.80685
 C978 C 0.68566 1.06321 0.79916
 C979 C 0.69434 1.05206 0.79057
 C980 C 0.71078 1.05336 0.78952
 C981 C 0.71850 1.06590 0.79706
 C982 C 0.70984 1.07707 0.80567
 C983 C 0.71969 1.04173 0.78084
 C984 C 0.72709 1.03190 0.77362
 H985 H 0.68550 1.10813 0.85105
 H986 H 0.70093 1.08902 0.83557
 H987 H 0.66483 1.08913 0.79921
 H988 H 0.64938 1.10799 0.81497
 H989 H 0.67299 1.06181 0.80002
 H990 H 0.68825 1.04236 0.78482
 H991 H 0.73122 1.06704 0.79630
 H992 H 0.71605 1.08676 0.81128
 C993 C 0.14941 0.62940 0.85145
 C994 C 0.15711 0.62037 0.84351
 C995 C 0.16625 0.60949 0.83411
 C996 C 0.18111 0.60454 0.83940
 C997 C 0.18988 0.59374 0.83043
 C998 C 0.18386 0.58773 0.81604
 C999 C 0.16894 0.59286 0.81079
 C1000 C 0.16020 0.60367 0.81977
 C1001 C 0.19303 0.57602 0.80667
 C1002 C 0.18541 0.56309 0.79947
 C1003 C 0.19406 0.55195 0.79083
 C1004 C 0.21042 0.55356 0.78924
 C1005 C 0.21811 0.56640 0.79630
 C1006 C 0.20948 0.57756 0.80496
 C1007 C 0.21930 0.54195 0.78051
 C1008 C 0.22666 0.53213 0.77323
 H1009 H 0.18588 0.60894 0.85051
 H1010 H 0.20123 0.58987 0.83490
 H1011 H 0.16407 0.58861 0.79967
 H1012 H 0.14871 0.60745 0.81555
 H1013 H 0.17280 0.56146 0.80075
 H1014 H 0.18799 0.54203 0.78546
 H1015 H 0.23077 0.56778 0.79511
 H1016 H 0.21566 0.58748 0.81018
 C1017 C 0.14887 1.12981 0.35162
 C1018 C 0.15669 1.12085 0.34371
 C1019 C 0.16595 1.11005 0.33435
 C1020 C 0.16067 1.10535 0.31930
 C1021 C 0.16947 1.09458 0.31033
 C1022 C 0.18369 1.08836 0.31632
 C1023 C 0.18895 1.09324 0.33142
 C1024 C 0.18012 1.10401 0.34037
 C1025 C 0.19289 1.07666 0.30695
 C1026 C 0.20949 1.07734 0.30652
 C1027 C 0.21812 1.06617 0.29787
 C1028 C 0.21029 1.05418 0.28956
 C1029 C 0.19379 1.05344 0.28987
 C1030 C 0.18514 1.06459 0.29849
 C1031 C 0.21916 1.04253 0.28087
 C1032 C 0.22650 1.03266 0.27364
 H1033 H 0.14972 1.10998 0.31451
 H1034 H 0.16522 1.09122 0.29866
 H1035 H 0.19973 1.08851 0.33645
 H1036 H 0.18429 1.10752 0.35203
 H1037 H 0.21578 1.08659 0.31274
 H1038 H 0.23089 1.06687 0.29769
 H1039 H 0.18762 1.04417 0.28352
 H1040 H 0.17240 1.06362 0.29876
 C1041 C 0.64869 0.37013 0.64937
 C1042 C 0.65661 0.37918 0.65707
 C1043 C 0.66599 0.39009 0.66616
 C1044 C 0.67960 0.39671 0.65950
 C1045 C 0.68855 0.40757 0.66819
 C1046 C 0.68400 0.41195 0.68368
 C1047 C 0.67036 0.40513 0.69031
 C1048 C 0.66142 0.39428 0.68159
 C1049 C 0.69333 0.42373 0.69280
 C1050 C 0.69606 0.42169 0.70919
 C1051 C 0.70470 0.43289 0.71777
 C1052 C 0.71071 0.44626 0.71010
 C1053 C 0.70809 0.44837 0.69380
 C1054 C 0.69947 0.43719 0.68519
 C1055 C 0.71945 0.45789 0.71894
 C1056 C 0.72673 0.46774 0.72624
 H1057 H 0.68326 0.39352 0.64758
 H1058 H 0.69910 0.41245 0.66284
 H1059 H 0.66644 0.40841 0.70211
 H1060 H 0.65088 0.38926 0.68684
 H1061 H 0.69165 0.41136 0.71534
 H1062 H 0.70668 0.43112 0.73038
 H1063 H 0.71265 0.45871 0.68775
 H1064 H 0.69739 0.43921 0.67265
 C1065 C 0.64882 -0.12997 0.14960
 C1066 C 0.65675 -0.12094 0.15729
 C1067 C 0.66617 -0.11006 0.16638
 C1068 C 0.68001 -0.10378 0.15987
 C1069 C 0.68899 -0.09294 0.16855
 C1070 C 0.68425 -0.08824 0.18388
 C1071 C 0.67038 -0.09471 0.19037
 C1072 C 0.66140 -0.10554 0.18166
 C1073 C 0.69362 -0.07648 0.19298
 C1074 C 0.69602 -0.07830 0.20945
 C1075 C 0.70469 -0.06711 0.21801
 C1076 C 0.71106 -0.05396 0.21024
 C1077 C 0.70877 -0.05207 0.19386
 C1078 C 0.70012 -0.06324 0.18528
 C1079 C 0.71982 -0.04233 0.21905
 C1080 C 0.72711 -0.03247 0.22633
 H1081 H 0.68382 -0.10722 0.14807
 H1082 H 0.69972 -0.08833 0.16332
 H1083 H 0.66631 -0.09118 0.20205
 H1084 H 0.65068 -0.11030 0.18679
 H1085 H 0.69133 -0.08845 0.21568
 H1086 H 0.70642 -0.06870 0.23068
 H1087 H 0.71360 -0.04191 0.18774
 H1088 H 0.69829 -0.06139 0.17266
 C1089 C 0.14859 0.37022 0.14948
 C1090 C 0.15648 0.37925 0.15723
 C1091 C 0.16582 0.39012 0.16642
 C1092 C 0.18067 0.39486 0.16092
 C1093 C 0.18962 0.40567 0.16968
 C1094 C 0.18382 0.41189 0.18407
 C1095 C 0.16892 0.40696 0.18954
 C1096 C 0.15999 0.39615 0.18076
 C1097 C 0.19318 0.42361 0.19323
 C1098 C 0.19383 0.42291 0.20995
 C1099 C 0.20248 0.43409 0.21855
 C1100 C 0.21057 0.44610 0.21056
 C1101 C 0.21005 0.44687 0.19394
 C1102 C 0.20142 0.43570 0.18532
 C1103 C 0.21929 0.45775 0.21941
 C1104 C 0.22655 0.46761 0.22672
 H1105 H 0.18531 0.39024 0.14985
 H1106 H 0.20113 0.40907 0.16526
 H1107 H 0.16404 0.41168 0.20046
 H1108 H 0.14848 0.39260 0.18509
 H1109 H 0.18777 0.41363 0.21636
 H1110 H 0.20283 0.43337 0.23141
 H1111 H 0.21623 0.45616 0.18765
 H1112 H 0.20098 0.43669 0.17249
 C1113 C 0.14886 -0.12991 0.64977
 C1114 C 0.15676 -0.12085 0.65748
 C1115 C 0.16612 -0.10993 0.66658
 C1116 C 0.17971 -0.10327 0.65993
 C1117 C 0.18864 -0.09240 0.66863
 C1118 C 0.18407 -0.08804 0.68412
 C1119 C 0.17045 -0.09489 0.69074
 C1120 C 0.16153 -0.10575 0.68201
 C1121 C 0.19338 -0.07625 0.69325
 C1122 C 0.19610 -0.07829 0.70964
 C1123 C 0.20473 -0.06708 0.71823
 C1124 C 0.21073 -0.05371 0.71057
 C1125 C 0.20811 -0.05159 0.69427
 C1126 C 0.19950 -0.06278 0.68566
 C1127 C 0.21945 -0.04207 0.71941
 C1128 C 0.22672 -0.03221 0.72672
 H1129 H 0.18338 -0.10645 0.64801
 H1130 H 0.19918 -0.08750 0.66329
 H1131 H 0.16651 -0.09163 0.70255
 H1132 H 0.15099 -0.11080 0.68725
 H1133 H 0.19170 -0.08863 0.71579
 H1134 H 0.20671 -0.06885 0.73084
 H1135 H 0.21266 -0.04125 0.68823
 H1136 H 0.19742 -0.06076 0.67311
 C1137 C 0.35117 0.35067 0.36936
 C1138 C 0.34335 0.34271 0.37828
 C1139 C 0.33414 0.33329 0.38907
 C1140 C 0.32016 0.33933 0.39552
 C1141 C 0.31140 0.33034 0.40632
 C1142 C 0.31654 0.31517 0.41082
 C1143 C 0.33056 0.30917 0.40417
 C1144 C 0.33929 0.31818 0.39337
 C1145 C 0.30746 0.30577 0.42259
 C1146 C 0.31534 0.29703 0.43442
 C1147 C 0.30679 0.28842 0.44569
 C1148 C 0.29028 0.28840 0.44528
 C1149 C 0.28233 0.29698 0.43352
 C1150 C 0.29085 0.30562 0.42224
 C1151 C 0.28153 0.27976 0.45708
 C1152 C 0.27429 0.27258 0.46708
 H1153 H 0.31609 0.35104 0.39232
 H1154 H 0.30078 0.33538 0.41138
 H1155 H 0.33472 0.29746 0.40723
 H1156 H 0.35009 0.31338 0.38842
 H1157 H 0.32810 0.29709 0.43515
 H1158 H 0.31307 0.28187 0.45478
 H1159 H 0.26954 0.29703 0.43308
 H1160 H 0.28445 0.31206 0.41317
 C1161 C 0.35122 0.85103 -0.13042
 C1162 C 0.34341 0.84311 -0.12148
 C1163 C 0.33419 0.83372 -0.11066
 C1164 C 0.32031 0.83985 -0.10407
 C1165 C 0.31156 0.83089 -0.09325
 C1166 C 0.31659 0.81566 -0.08886
 C1167 C 0.33050 0.80955 -0.09566
 C1168 C 0.33923 0.81853 -0.10648
 C1169 C 0.30750 0.80628 -0.07708
 C1170 C 0.31538 0.79743 -0.06534
 C1171 C 0.30684 0.78882 -0.05407
 C1172 C 0.29032 0.78891 -0.05439
 C1173 C 0.28237 0.79761 -0.06607
 C1174 C 0.29089 0.80625 -0.07734
 C1175 C 0.28157 0.78023 -0.04263
 C1176 C 0.27432 0.77301 -0.03267
 H1177 H 0.31634 0.85162 -0.10718
 H1178 H 0.30102 0.83601 -0.08808
 H1179 H 0.33457 0.79780 -0.09268
 H1180 H 0.34994 0.81366 -0.11154
 H1181 H 0.32815 0.79739 -0.06468
 H1182 H 0.31311 0.78217 -0.04505
 H1183 H 0.26958 0.79775 -0.06644
 H1184 H 0.28449 0.81279 -0.08634
 C1185 C 0.85103 0.35116 -0.13030
 C1186 C 0.84322 0.34327 -0.12133
 C1187 C 0.83393 0.33397 -0.11049
 C1188 C 0.84052 0.32068 -0.10314
 C1189 C 0.83161 0.31185 -0.09234
 C1190 C 0.81598 0.31622 -0.08873
 C1191 C 0.80944 0.32954 -0.09627
 C1192 C 0.81837 0.33835 -0.10707
 C1193 C 0.80663 0.30705 -0.07699
 C1194 C 0.79692 0.31485 -0.06590
 C1195 C 0.78830 0.30624 -0.05469
 C1196 C 0.78925 0.28975 -0.05440
 C1197 C 0.79882 0.28187 -0.06542
 C1198 C 0.80746 0.29045 -0.07664
 C1199 C 0.78056 0.28095 -0.04268
 C1200 C 0.77332 0.27367 -0.03275
 H1201 H 0.85258 0.31722 -0.10566
 H1202 H 0.83705 0.30178 -0.08658
 H1203 H 0.79739 0.33309 -0.09390
 H1204 H 0.81314 0.34860 -0.11272
 H1205 H 0.79620 0.32761 -0.06571
 H1206 H 0.78098 0.31247 -0.04617
 H1207 H 0.79961 0.26910 -0.06532
 H1208 H 0.81467 0.28410 -0.08514
 C1209 C 0.85153 0.85123 0.36997
 C1210 C 0.84377 0.84331 0.37896
 C1211 C 0.83455 0.83396 0.38981
 C1212 C 0.82107 0.84038 0.39693
 C1213 C 0.81227 0.83143 0.40772
 C1214 C 0.81686 0.81591 0.41154
 C1215 C 0.83039 0.80953 0.40424
 C1216 C 0.83917 0.81851 0.39345
 C1217 C 0.80770 0.80651 0.42324
 C1218 C 0.81551 0.79706 0.43456
 C1219 C 0.80690 0.78841 0.44574
 C1220 C 0.79039 0.78907 0.44577
 C1221 C 0.78251 0.79836 0.43452
 C1222 C 0.79110 0.80703 0.42332
 C1223 C 0.78157 0.78035 0.45746
 C1224 C 0.77426 0.77310 0.46735
 H1225 H 0.81742 0.85236 0.39425
 H1226 H 0.80204 0.83675 0.41329
 H1227 H 0.83412 0.79756 0.40678
 H1228 H 0.84957 0.81341 0.38798
 H1229 H 0.82827 0.79657 0.43494
 H1230 H 0.81312 0.78130 0.45444
 H1231 H 0.76973 0.79893 0.43441
 H1232 H 0.78475 0.81404 0.41465
 C1233 C 0.64843 0.35065 0.63012
 C1234 C 0.65609 0.34271 0.62105
 C1235 C 0.66516 0.33328 0.61012
 C1236 C 0.65856 0.31968 0.60341
 C1237 C 0.66723 0.31067 0.59254
 C1238 C 0.68264 0.31515 0.58825
 C1239 C 0.68921 0.32879 0.59516
 C1240 C 0.68051 0.33779 0.60601
 C1241 C 0.69175 0.30576 0.57648
 C1242 C 0.70798 0.30295 0.57869
 C1243 C 0.71655 0.29424 0.56749
 C1244 C 0.70903 0.28824 0.55396
 C1245 C 0.69289 0.29093 0.55168
 C1246 C 0.68429 0.29962 0.56285
 C1247 C 0.71787 0.27946 0.54231
 C1248 C 0.72520 0.27217 0.53245
 H1249 H 0.64669 0.31606 0.60653
 H1250 H 0.66192 0.30013 0.58760
 H1251 H 0.70096 0.33266 0.59195
 H1252 H 0.68572 0.34833 0.61110
 H1253 H 0.71401 0.30735 0.58915
 H1254 H 0.72904 0.29221 0.56939
 H1255 H 0.68696 0.28639 0.54121
 H1256 H 0.67187 0.30176 0.56070
 C1257 C 0.64852 0.85051 1.13039
 C1258 C 0.65619 0.84252 1.12136
 C1259 C 0.66527 0.83306 1.11047
 C1260 C 0.68057 0.83764 1.10626
 C1261 C 0.68928 0.82863 1.09543
 C1262 C 0.68276 0.81490 1.08864
 C1263 C 0.66740 0.81035 1.09304
 C1264 C 0.65872 0.81937 1.10388
 C1265 C 0.69187 0.80551 1.07687
 C1266 C 0.68437 0.79924 1.06332
 C1267 C 0.69297 0.79058 1.05212
 C1268 C 0.70915 0.78805 1.05430
 C1269 C 0.71671 0.79417 1.06776
 C1270 C 0.70814 0.80285 1.07897
 C1271 C 0.71799 0.77931 1.04262
 C1272 C 0.72531 0.77206 1.03272
 H1273 H 0.68573 0.84825 1.11125
 H1274 H 0.70099 0.83256 1.09213
 H1275 H 0.66214 0.79974 1.08819
 H1276 H 0.64689 0.81570 1.10709
 H1277 H 0.67192 0.80127 1.06124
 H1278 H 0.68701 0.78595 1.04171
 H1279 H 0.72923 0.79225 1.06957
 H1280 H 0.71420 0.80735 1.08937
 C1281 C 0.14838 0.35076 1.13020
 C1282 C 0.15608 0.34282 1.12116
 C1283 C 0.16518 0.33339 1.11026
 C1284 C 0.18051 0.33795 1.10614
 C1285 C 0.18925 0.32896 1.09531
 C1286 C 0.18273 0.31528 1.08844
 C1287 C 0.16734 0.31075 1.09274
 C1288 C 0.15863 0.31975 1.10357
 C1289 C 0.19188 0.30590 1.07669
 C1290 C 0.18445 0.29968 1.06308
 C1291 C 0.19309 0.29103 1.05190
 C1292 C 0.20925 0.28846 1.05417
 C1293 C 0.21675 0.29453 1.06769
 C1294 C 0.20813 0.30319 1.07888
 C1295 C 0.21814 0.27974 1.04252
 C1296 C 0.22552 0.27251 1.03265
 H1297 H 0.18568 0.34852 1.11120
 H1298 H 0.20099 0.33287 1.09209
 H1299 H 0.16207 0.30017 1.08782
 H1300 H 0.14678 0.31610 1.10671
 H1301 H 0.17201 0.30174 1.06093
 H1302 H 0.18718 0.28644 1.04145
 H1303 H 0.22925 0.29258 1.06957
 H1304 H 0.21415 0.30765 1.08932
 C1305 C 0.14862 0.85062 0.63050
 C1306 C 0.15630 0.84270 0.62142
 C1307 C 0.16538 0.83330 0.61048
 C1308 C 0.18070 0.83788 0.60632
 C1309 C 0.18941 0.82892 0.59545
 C1310 C 0.18289 0.81524 0.58858
 C1311 C 0.16751 0.81068 0.59292
 C1312 C 0.15883 0.81966 0.60379
 C1313 C 0.19202 0.80589 0.57678
 C1314 C 0.18456 0.79970 0.56318
 C1315 C 0.19318 0.79108 0.55197
 C1316 C 0.20935 0.78852 0.55419
 C1317 C 0.21688 0.79456 0.56770
 C1318 C 0.20828 0.80319 0.57894
 C1319 C 0.21823 0.77984 0.54249
 C1320 C 0.22561 0.77264 0.53260
 H1321 H 0.18586 0.84846 0.61138
 H1322 H 0.20113 0.83285 0.59220
 H1323 H 0.16225 0.80010 0.58800
 H1324 H 0.14699 0.81598 0.60696
 H1325 H 0.17212 0.80175 0.56107
 H1326 H 0.18726 0.78651 0.54151
 H1327 H 0.22939 0.79262 0.56955
 H1328 H 0.21431 0.80763 0.58938
 C1329 C 0.35038 0.64893 0.62976
 C1330 C 0.34250 0.65675 0.62077
 C1331 C 0.33320 0.66606 0.60993
 C1332 C 0.33755 0.68163 0.60652
 C1333 C 0.32870 0.69058 0.59575
 C1334 C 0.31536 0.68406 0.58825
 C1335 C 0.31102 0.66842 0.59185
 C1336 C 0.31989 0.65949 0.60261
 C1337 C 0.30612 0.69344 0.57657
 C1338 C 0.28953 0.69268 0.57635
 C1339 C 0.28087 0.70135 0.56519
 C1340 C 0.28868 0.71088 0.55411
 C1341 C 0.30517 0.71177 0.55427
 C1342 C 0.31385 0.70313 0.56542
 C1343 C 0.27980 0.71959 0.54243
 C1344 C 0.27244 0.72682 0.53255
 H1345 H 0.34781 0.68684 0.61215
 H1346 H 0.33222 0.70264 0.59338
 H1347 H 0.30093 0.66300 0.58612
 H1348 H 0.31646 0.64743 0.60513
 H1349 H 0.28323 0.68549 0.58490
 H1350 H 0.26811 0.70060 0.56519
 H1351 H 0.31134 0.71906 0.54570
 H1352 H 0.32661 0.70380 0.56515
 C1353 C 0.35033 0.14873 1.12987
 C1354 C 0.34238 0.15654 1.12092
 C1355 C 0.33295 0.16575 1.11011
 C1356 C 0.33798 0.18077 1.10540
 C1357 C 0.32899 0.18958 1.09462
 C1358 C 0.31483 0.18345 1.08841
 C1359 C 0.30982 0.16838 1.09332
 C1360 C 0.31883 0.15960 1.10409
 C1361 C 0.30545 0.19264 1.07668
 C1362 C 0.29851 0.18508 1.06351
 C1363 C 0.28986 0.19374 1.05236
 C1364 C 0.28801 0.21006 1.05420
 C1365 C 0.29481 0.21769 1.06728
 C1366 C 0.30348 0.20905 1.07846
 C1367 C 0.27928 0.21896 1.04256
 C1368 C 0.27202 0.22631 1.03269
 H1369 H 0.34893 0.18562 1.10994
 H1370 H 0.33326 0.20105 1.09093
 H1371 H 0.29888 0.16342 1.08891
 H1372 H 0.31481 0.14799 1.10769
 H1373 H 0.30000 0.17251 1.06169
 H1374 H 0.28470 0.18772 1.04224
 H1375 H 0.29343 0.23032 1.06884
 H1376 H 0.30851 0.21518 1.08856
 C1377 C 0.85057 0.64881 1.12982
 C1378 C 0.84260 0.65654 1.12082
 C1379 C 0.83313 0.66565 1.10996
 C1380 C 0.81921 0.65927 1.10371
 C1381 C 0.81016 0.66797 1.09290
 C1382 C 0.81492 0.68319 1.08820
 C1383 C 0.82888 0.68954 1.09465
 C1384 C 0.83792 0.68081 1.10544
 C1385 C 0.80548 0.69231 1.07648
 C1386 C 0.80313 0.70865 1.07843
 C1387 C 0.79439 0.71724 1.06727
 C1388 C 0.78789 0.70962 1.05402
 C1389 C 0.79011 0.69337 1.05200
 C1390 C 0.79883 0.68476 1.06315
 C1391 C 0.77908 0.71847 1.04241
 C1392 C 0.77176 0.72580 1.03256
 H1393 H 0.81538 0.64756 1.10715
 H1394 H 0.79937 0.66284 1.08832
 H1395 H 0.83296 0.70113 1.09111
 H1396 H 0.84870 0.68583 1.11017
 H1397 H 0.80793 0.71476 1.08866
 H1398 H 0.79272 0.72981 1.06896
 H1399 H 0.78518 0.68736 1.04176
 H1400 H 0.80061 0.67224 1.06120
 C1401 C 0.85022 0.14882 0.62993
 C1402 C 0.84223 0.15650 0.62092
 C1403 C 0.83275 0.16560 0.61006
 C1404 C 0.81899 0.15910 0.60358
 C1405 C 0.80994 0.16779 0.59277
 C1406 C 0.81454 0.18313 0.58829
 C1407 C 0.82834 0.18959 0.59496
 C1408 C 0.83738 0.18087 0.60576
 C1409 C 0.80511 0.19225 0.57656
 C1410 C 0.80255 0.20855 0.57865
 C1411 C 0.79384 0.21714 0.56747
 C1412 C 0.78759 0.20958 0.55407
 C1413 C 0.79003 0.19338 0.55191
 C1414 C 0.79872 0.18476 0.56307
 C1415 C 0.77882 0.21845 0.54243
 C1416 C 0.77154 0.22578 0.53255
 H1417 H 0.81528 0.14730 0.60685
 H1418 H 0.79927 0.16257 0.58801
 H1419 H 0.83230 0.20128 0.59160
 H1420 H 0.84804 0.18599 0.61067
 H1421 H 0.80715 0.21461 0.58900
 H1422 H 0.79199 0.22968 0.56927
 H1423 H 0.78529 0.18742 0.54155
 H1424 H 0.80067 0.17229 0.56101
 C1425 C 0.64955 0.64916 0.37027
 C1426 C 0.65747 0.65703 0.37918
 C1427 C 0.66687 0.66633 0.38992
 C1428 C 0.66033 0.67957 0.39740
 C1429 C 0.66935 0.68842 0.40811
 C1430 C 0.68504 0.68411 0.41150
 C1431 C 0.69154 0.67083 0.40383
 C1432 C 0.68250 0.66202 0.39312
 C1433 C 0.69451 0.69329 0.42314
 C1434 C 0.70437 0.68551 0.43411
 C1435 C 0.71308 0.69413 0.44526
 C1436 C 0.71207 0.71062 0.44558
 C1437 C 0.70237 0.71848 0.43467
 C1438 C 0.69364 0.70988 0.42352
 C1439 C 0.72081 0.71944 0.45728
 C1440 C 0.72805 0.72675 0.46718
 H1441 H 0.64822 0.68299 0.39506
 H1442 H 0.66395 0.69845 0.41397
 H1443 H 0.70364 0.66734 0.40603
 H1444 H 0.68769 0.65180 0.38736
 H1445 H 0.70513 0.67275 0.43427
 H1446 H 0.72050 0.68792 0.45370
 H1447 H 0.70153 0.73125 0.43480
 H1448 H 0.68631 0.71622 0.41510
 C1449 C 0.64943 0.14877 -0.12949
 C1450 C 0.65723 0.15670 -0.12053
 C1451 C 0.66645 0.16613 -0.10974
 C1452 C 0.68094 0.16050 -0.10407
 C1453 C 0.68976 0.16953 -0.09334
 C1454 C 0.68417 0.18430 -0.08812
 C1455 C 0.66963 0.18989 -0.09397
 C1456 C 0.66084 0.18085 -0.10471
 C1457 C 0.69337 0.19375 -0.07647
 C1458 C 0.68567 0.20179 -0.06404
 C1459 C 0.69433 0.21050 -0.05293
 C1460 C 0.71079 0.21131 -0.05409
 C1461 C 0.71856 0.20342 -0.06645
 C1462 C 0.70992 0.19469 -0.07757
 C1463 C 0.71967 0.22009 -0.04248
 C1464 C 0.72701 0.22739 -0.03264
 H1465 H 0.68536 0.14909 -0.10785
 H1466 H 0.70079 0.16481 -0.08890
 H1467 H 0.66512 0.20130 -0.09035
 H1468 H 0.64966 0.18533 -0.10905
 H1469 H 0.67297 0.20113 -0.06273
 H1470 H 0.68820 0.21652 -0.04338
 H1471 H 0.73130 0.20399 -0.06747
 H1472 H 0.71617 0.18880 -0.08711
 C1473 C 0.14970 0.64871 -0.12913
 C1474 C 0.15764 0.65650 -0.12017
 C1475 C 0.16706 0.66574 -0.10939
 C1476 C 0.16079 0.67941 -0.10248
 C1477 C 0.16982 0.68826 -0.09178
 C1478 C 0.18526 0.68352 -0.08784
 C1479 C 0.19149 0.66980 -0.09493
 C1480 C 0.18243 0.66098 -0.10563
 C1481 C 0.19475 0.69274 -0.07625
 C1482 C 0.20410 0.68499 -0.06480
 C1483 C 0.21282 0.69367 -0.05371
 C1484 C 0.21234 0.71018 -0.05391
 C1485 C 0.20316 0.71801 -0.06529
 C1486 C 0.19442 0.70936 -0.07639
 C1487 C 0.22109 0.71907 -0.04228
 C1488 C 0.22833 0.72646 -0.03243
 H1489 H 0.14887 0.68317 -0.10527
 H1490 H 0.16462 0.69863 -0.08638
 H1491 H 0.20340 0.66597 -0.09230
 H1492 H 0.18742 0.65044 -0.11094
 H1493 H 0.20444 0.67222 -0.06424
 H1494 H 0.21984 0.68749 -0.04491
 H1495 H 0.20273 0.73080 -0.06557
 H1496 H 0.18750 0.71567 -0.08517
 C1497 C 0.14880 0.14898 0.37119
 C1498 C 0.15655 0.15674 0.38034
 C1499 C 0.16571 0.16595 0.39137
 C1500 C 0.18172 0.16881 0.38844
 C1501 C 0.19065 0.17761 0.39927
 C1502 C 0.18367 0.18365 0.41320
 C1503 C 0.16755 0.18075 0.41599
 C1504 C 0.15865 0.17196 0.40515
 C1505 C 0.19316 0.19282 0.42483
 C1506 C 0.19109 0.19054 0.44128
 C1507 C 0.19999 0.19918 0.45224
 C1508 C 0.21107 0.21022 0.44693
 C1509 C 0.21326 0.21258 0.43060
 C1510 C 0.20437 0.20393 0.41961
 C1511 C 0.22016 0.21912 0.45829
 C1512 C 0.22767 0.22649 0.46795
 H1513 H 0.18732 0.16417 0.37783
 H1514 H 0.20307 0.17948 0.39688
 H1515 H 0.16179 0.18541 0.42649
 H1516 H 0.14626 0.16985 0.40751
 H1517 H 0.18272 0.18192 0.44567
 H1518 H 0.19824 0.19723 0.46485
 H1519 H 0.22178 0.22113 0.42637
 H1520 H 0.20611 0.20609 0.40703
 C1521 C 0.35159 0.37046 0.64934
 C1522 C 0.34361 0.37945 0.65705
 C1523 C 0.33418 0.39029 0.66619
 C1524 C 0.33853 0.39413 0.68178
 C1525 C 0.32956 0.40492 0.69054
 C1526 C 0.31611 0.41204 0.68381
 C1527 C 0.31177 0.40801 0.66816
 C1528 C 0.32076 0.39721 0.65942
 C1529 C 0.30675 0.42376 0.69299
 C1530 C 0.30088 0.43744 0.68554
 C1531 C 0.29223 0.44856 0.69421
 C1532 C 0.28933 0.44618 0.71042
 C1533 C 0.29507 0.43259 0.71793
 C1534 C 0.30373 0.42145 0.70929
 C1535 C 0.28057 0.45775 0.71933
 C1536 C 0.27327 0.46755 0.72670
 H1537 H 0.34894 0.38888 0.68711
 H1538 H 0.33332 0.40793 0.70248
 H1539 H 0.30137 0.41312 0.66272
 H1540 H 0.31727 0.39429 0.64737
 H1541 H 0.30319 0.43967 0.67308
 H1542 H 0.28789 0.45907 0.68829
 H1543 H 0.29287 0.43062 0.73047
 H1544 H 0.30793 0.41095 0.71531
 C1545 C 0.35110 0.87065 0.14990
 C1546 C 0.34324 0.87963 0.15775
 C1547 C 0.33390 0.89044 0.16702
 C1548 C 0.34016 0.89720 0.18084
 C1549 C 0.33121 0.90795 0.18968
 C1550 C 0.31587 0.91211 0.18478
 C1551 C 0.30965 0.90517 0.17091
 C1552 C 0.31862 0.89441 0.16210
 C1553 C 0.30647 0.92379 0.19397
 C1554 C 0.29736 0.93526 0.18606
 C1555 C 0.28870 0.94640 0.19469
 C1556 C 0.28901 0.94623 0.21134
 C1557 C 0.29798 0.93483 0.21933
 C1558 C 0.30666 0.92368 0.21071
 C1559 C 0.28026 0.95786 0.22018
 C1560 C 0.27298 0.96772 0.22749
 H1561 H 0.35199 0.89425 0.18473
 H1562 H 0.33640 0.91324 0.20018
 H1563 H 0.29782 0.90797 0.16694
 H1564 H 0.31366 0.88922 0.15143
 H1565 H 0.29715 0.93580 0.17319
 H1566 H 0.28185 0.95521 0.18839
 H1567 H 0.29827 0.93457 0.23221
 H1568 H 0.31340 0.91488 0.21714
 C1569 C 0.85169 0.37066 0.14913
 C1570 C 0.84404 0.37978 0.15702
 C1571 C 0.83500 0.39077 0.16638
 C1572 C 0.81851 0.38997 0.16649
 C1573 C 0.80974 0.40081 0.17541
 C1574 C 0.81738 0.41263 0.18432
 C1575 C 0.83398 0.41327 0.18418
 C1576 C 0.84272 0.40241 0.17527
 C1577 C 0.80809 0.42432 0.19359
 C1578 C 0.81259 0.44032 0.19386
 C1579 C 0.80382 0.45135 0.20252
 C1580 C 0.79046 0.44657 0.21103
 C1581 C 0.78589 0.43070 0.21085
 C1582 C 0.79463 0.41963 0.20218
 C1583 C 0.78145 0.45801 0.21987
 C1584 C 0.77398 0.46772 0.22718
 H1585 H 0.81242 0.38103 0.15961
 H1586 H 0.79698 0.40013 0.17512
 H1587 H 0.84021 0.42209 0.19108
 H1588 H 0.85549 0.40311 0.17530
 H1589 H 0.82275 0.44434 0.18719
 H1590 H 0.80744 0.46362 0.20254
 H1591 H 0.77558 0.42687 0.21742
 H1592 H 0.79098 0.40739 0.20236
 C1593 C 0.85181 0.87017 0.64953
 C1594 C 0.84416 0.87931 0.65740
 C1595 C 0.83514 0.89032 0.66675
 C1596 C 0.81863 0.88959 0.66680
 C1597 C 0.80988 0.90047 0.67570
 C1598 C 0.81754 0.91224 0.68465
 C1599 C 0.83414 0.91281 0.68458
 C1600 C 0.84286 0.90192 0.67569
 C1601 C 0.80827 0.92397 0.69389
 C1602 C 0.81284 0.93994 0.69420
 C1603 C 0.80409 0.95100 0.70285
 C1604 C 0.79068 0.94628 0.71130
 C1605 C 0.78603 0.93042 0.71108
 C1606 C 0.79475 0.91933 0.70243
 C1607 C 0.78168 0.95774 0.72012
 C1608 C 0.77423 0.96746 0.72743
 H1609 H 0.81253 0.88069 0.65988
 H1610 H 0.79712 0.89984 0.67535
 H1611 H 0.84039 0.92158 0.69151
 H1612 H 0.85564 0.90256 0.67577
 H1613 H 0.82304 0.94392 0.68758
 H1614 H 0.80776 0.96326 0.70289
 H1615 H 0.77568 0.92663 0.71760
 H1616 H 0.79104 0.90710 0.70257
 C1617 C 0.64894 0.62981 0.64834
 C1618 C 0.65668 0.62074 0.65620
 C1619 C 0.66586 0.60981 0.66550
 C1620 C 0.65998 0.60411 0.67995
 C1621 C 0.66876 0.59328 0.68886
 C1622 C 0.68357 0.58800 0.68343
 C1623 C 0.68942 0.59388 0.66893
 C1624 C 0.68061 0.60471 0.66003
 C1625 C 0.69279 0.57628 0.69274
 C1626 C 0.70927 0.57771 0.69421
 C1627 C 0.71794 0.56655 0.70284
 C1628 C 0.71026 0.55383 0.71009
 C1629 C 0.69387 0.55232 0.70874
 C1630 C 0.68518 0.56346 0.70013
 C1631 C 0.71918 0.54223 0.71881
 C1632 C 0.72657 0.53242 0.72608
 H1633 H 0.64859 0.60801 0.68432
 H1634 H 0.66403 0.58913 0.70007
 H1635 H 0.70067 0.58990 0.66432
 H1636 H 0.68525 0.60901 0.64883
 H1637 H 0.71545 0.58754 0.68883
 H1638 H 0.73063 0.56785 0.70384
 H1639 H 0.68781 0.54248 0.71426
 H1640 H 0.67254 0.56191 0.69904
 C1641 C 0.64919 0.12951 0.14837
 C1642 C 0.65695 0.12045 0.15621
 C1643 C 0.66613 0.10953 0.16552
 C1644 C 0.65967 0.10272 0.17921
 C1645 C 0.66846 0.09188 0.18810
 C1646 C 0.68385 0.08771 0.18341
 C1647 C 0.69028 0.09471 0.16968
 C1648 C 0.68146 0.10554 0.16080
 C1649 C 0.69309 0.07597 0.19269
 C1650 C 0.70934 0.07819 0.19537
 C1651 C 0.71804 0.06704 0.20398
 C1652 C 0.71062 0.05355 0.21001
 C1653 C 0.69447 0.05126 0.20743
 C1654 C 0.68575 0.06239 0.19884
 C1655 C 0.71957 0.04199 0.21875
 C1656 C 0.72697 0.03220 0.22604
 H1657 H 0.64782 0.10575 0.18299
 H1658 H 0.66326 0.08685 0.19872
 H1659 H 0.70201 0.09160 0.16565
 H1660 H 0.68656 0.11071 0.15019
 H1661 H 0.71529 0.08861 0.19096
 H1662 H 0.73054 0.06895 0.20594
 H1663 H 0.68862 0.04083 0.21200
 H1664 H 0.67332 0.06023 0.19679
 C1665 C 0.14928 0.63006 0.14889
 C1666 C 0.15696 0.62097 0.15678
 C1667 C 0.16606 0.61002 0.16613
 C1668 C 0.16031 0.60472 0.18079
 C1669 C 0.16902 0.59386 0.18975
 C1670 C 0.18360 0.58816 0.18415
 C1671 C 0.18932 0.59364 0.16944
 C1672 C 0.18059 0.60449 0.16050
 C1673 C 0.19273 0.57641 0.19353
 C1674 C 0.20927 0.57750 0.19466
 C1675 C 0.21786 0.56631 0.20331
 C1676 C 0.21004 0.55388 0.21094
 C1677 C 0.19360 0.55273 0.20994
 C1678 C 0.18499 0.56391 0.20130
 C1679 C 0.21889 0.54222 0.21965
 C1680 C 0.22625 0.53236 0.22688
 H1681 H 0.14909 0.60895 0.18528
 H1682 H 0.16440 0.59003 0.20112
 H1683 H 0.20040 0.58932 0.16471
 H1684 H 0.18512 0.60848 0.14914
 H1685 H 0.21556 0.58710 0.18898
 H1686 H 0.23059 0.56733 0.20404
 H1687 H 0.18743 0.54312 0.21575
 H1688 H 0.17230 0.56262 0.20048
 C1689 C 0.14920 0.13019 0.64893
 C1690 C 0.15688 0.12109 0.65681
 C1691 C 0.16601 0.11014 0.66614
 C1692 C 0.16015 0.10459 0.68066
 C1693 C 0.16888 0.09373 0.68960
 C1694 C 0.18360 0.08827 0.68411
 C1695 C 0.18942 0.09400 0.66953
 C1696 C 0.18067 0.10485 0.66061
 C1697 C 0.19276 0.07652 0.69345
 C1698 C 0.20927 0.07780 0.69480
 C1699 C 0.21788 0.06661 0.70343
 C1700 C 0.21013 0.05401 0.71082
 C1701 C 0.19371 0.05266 0.70960
 C1702 C 0.18507 0.06384 0.70099
 C1703 C 0.21901 0.04236 0.71952
 C1704 C 0.22638 0.03252 0.72675
 H1705 H 0.14883 0.10864 0.68507
 H1706 H 0.16417 0.08971 0.70086
 H1707 H 0.20060 0.08987 0.66488
 H1708 H 0.18528 0.10903 0.64936
 H1709 H 0.21550 0.08753 0.68931
 H1710 H 0.23059 0.06778 0.70433
 H1711 H 0.18759 0.04292 0.71523
 H1712 H 0.17241 0.06241 0.70000
 C1713 C 0.35052 0.62972 0.35083
 C1714 C 0.34276 0.62068 0.34296
 C1715 C 0.33360 0.60978 0.33362
 C1716 C 0.34016 0.60283 0.32004
 C1717 C 0.33140 0.59200 0.31112
 C1718 C 0.31593 0.58797 0.31569
 C1719 C 0.30941 0.59511 0.32931
 C1720 C 0.31820 0.60593 0.33821
 C1721 C 0.30673 0.57624 0.30640
 C1722 C 0.29052 0.57854 0.30353
 C1723 C 0.28186 0.56738 0.29491
 C1724 C 0.28927 0.55379 0.28906
 C1725 C 0.30538 0.55141 0.29182
 C1726 C 0.31407 0.56255 0.30042
 C1727 C 0.28035 0.54221 0.28034
 C1728 C 0.27298 0.53240 0.27307
 H1729 H 0.35206 0.60576 0.31636
 H1730 H 0.33667 0.58688 0.30058
 H1731 H 0.29762 0.59211 0.33324
 H1732 H 0.31304 0.61120 0.34874
 H1733 H 0.28458 0.58904 0.30780
 H1734 H 0.26939 0.56935 0.29281
 H1735 H 0.31123 0.54091 0.28740
 H1736 H 0.32647 0.56033 0.30262
 C1737 C 0.35069 0.12988 0.85079
 C1738 C 0.34289 0.12097 0.84282
 C1739 C 0.33368 0.11019 0.83339
 C1740 C 0.31850 0.10589 0.83829
 C1741 C 0.30970 0.09511 0.82933
 C1742 C 0.31600 0.08848 0.81535
 C1743 C 0.33124 0.09298 0.81047
 C1744 C 0.34001 0.10376 0.81944
 C1745 C 0.30682 0.07674 0.80604
 C1746 C 0.31431 0.06337 0.79954
 C1747 C 0.30564 0.05220 0.79097
 C1748 C 0.28940 0.05423 0.78875
 C1749 C 0.28184 0.06751 0.79509
 C1750 C 0.29048 0.07870 0.80369
 C1751 C 0.28050 0.04259 0.78008
 C1752 C 0.27315 0.03273 0.77286
 H1753 H 0.31352 0.11075 0.84910
 H1754 H 0.29810 0.09174 0.83351
 H1755 H 0.33633 0.08824 0.79966
 H1756 H 0.35174 0.10703 0.81552
 H1757 H 0.32682 0.06141 0.80133
 H1758 H 0.31160 0.04193 0.78615
 H1759 H 0.26927 0.06921 0.79341
 H1760 H 0.28441 0.08896 0.80837
 C1761 C 0.85059 0.62974 0.85056
 C1762 C 0.84291 0.62075 0.84256
 C1763 C 0.83379 0.60992 0.83310
 C1764 C 0.84054 0.60273 0.81974
 C1765 C 0.83181 0.59193 0.81075
 C1766 C 0.81619 0.58819 0.81501
 C1767 C 0.80947 0.59558 0.82840
 C1768 C 0.81823 0.60636 0.83738
 C1769 C 0.80701 0.57647 0.80566
 C1770 C 0.79090 0.57896 0.80242
 C1771 C 0.78225 0.56780 0.79379
 C1772 C 0.78958 0.55402 0.78830
 C1773 C 0.80560 0.55146 0.79142
 C1774 C 0.81427 0.56260 0.80003
 C1775 C 0.78066 0.54242 0.77960
 C1776 C 0.77328 0.53260 0.77236
 H1777 H 0.85256 0.60542 0.81631
 H1778 H 0.83723 0.58661 0.80039
 H1779 H 0.79756 0.59279 0.83210
 H1780 H 0.81291 0.61182 0.84774
 H1781 H 0.78502 0.58960 0.80642
 H1782 H 0.76986 0.56991 0.79141
 H1783 H 0.81138 0.54080 0.78728
 H1784 H 0.82659 0.56023 0.80252
 C1785 C 0.85081 0.12968 0.35060
 C1786 C 0.84315 0.12067 0.34260
 C1787 C 0.83406 0.10981 0.33315
 C1788 C 0.84081 0.10268 0.31975
 C1789 C 0.83210 0.09187 0.31075
 C1790 C 0.81650 0.08806 0.31503
 C1791 C 0.80979 0.09538 0.32846
 C1792 C 0.81853 0.10617 0.33745
 C1793 C 0.80735 0.07634 0.30567
 C1794 C 0.79122 0.07879 0.30246
 C1795 C 0.78259 0.06763 0.29382
 C1796 C 0.78995 0.05389 0.28828
 C1797 C 0.80598 0.05136 0.29136
 C1798 C 0.81464 0.06251 0.29998
 C1799 C 0.78104 0.04229 0.27958
 C1800 C 0.77366 0.03245 0.27235
 H1801 H 0.85282 0.10543 0.31630
 H1802 H 0.83752 0.08659 0.30036
 H1803 H 0.79790 0.09254 0.33218
 H1804 H 0.81321 0.11159 0.34783
 H1805 H 0.78532 0.08941 0.30650
 H1806 H 0.77018 0.06972 0.29148
 H1807 H 0.81178 0.04074 0.28718
 H1808 H 0.82697 0.06017 0.30244
 C1809 C 0.64897 0.37000 0.35019
 C1810 C 0.65689 0.37903 0.34249
 C1811 C 0.66628 0.38992 0.33341
 C1812 C 0.66166 0.39419 0.31801
 C1813 C 0.67062 0.40502 0.30930
 C1814 C 0.68432 0.41175 0.31590
 C1815 C 0.68892 0.40730 0.33136
 C1816 C 0.67995 0.39646 0.34004
 C1817 C 0.69367 0.42350 0.30679
 C1818 C 0.69991 0.43691 0.31442
 C1819 C 0.70856 0.44807 0.30583
 C1820 C 0.71110 0.44599 0.28951
 C1821 C 0.70499 0.43267 0.28181
 C1822 C 0.69633 0.42150 0.29039
 C1823 C 0.71986 0.45760 0.28068
 C1824 C 0.72715 0.46745 0.27339
 H1825 H 0.65107 0.38924 0.31278
 H1826 H 0.66666 0.40835 0.29752
 H1827 H 0.69952 0.41211 0.33669
 H1828 H 0.68365 0.39321 0.35194
 H1829 H 0.69789 0.43891 0.32698
 H1830 H 0.71319 0.45837 0.31189
 H1831 H 0.70692 0.43093 0.26919
 H1832 H 0.69184 0.41121 0.28422
 C1833 C 0.64891 0.87003 0.85047
 C1834 C 0.65687 0.87902 0.84276
 C1835 C 0.66631 0.88985 0.83366
 C1836 C 0.66154 0.89436 0.81838
 C1837 C 0.67054 0.90515 0.80966
 C1838 C 0.68445 0.91159 0.81614
 C1839 C 0.68919 0.90689 0.83147
 C1840 C 0.68018 0.89609 0.84016
 C1841 C 0.69384 0.92331 0.80703
 C1842 C 0.70039 0.93653 0.81472
 C1843 C 0.70906 0.94767 0.80613
 C1844 C 0.71133 0.94575 0.78975
 C1845 C 0.70492 0.93261 0.78199
 C1846 C 0.69622 0.92146 0.79056
 C1847 C 0.72010 0.95736 0.78093
 C1848 C 0.72740 0.96720 0.77363
 H1849 H 0.65080 0.88964 0.81325
 H1850 H 0.66647 0.90868 0.79797
 H1851 H 0.69994 0.91147 0.83670
 H1852 H 0.68399 0.89265 0.85197
 H1853 H 0.69858 0.93841 0.82733
 H1854 H 0.71392 0.95783 0.81224
 H1855 H 0.70663 0.93100 0.76932
 H1856 H 0.69150 0.91131 0.78434
 C1857 C 0.14887 0.37015 0.85044
 C1858 C 0.15680 0.37914 0.84270
 C1859 C 0.16619 0.38998 0.83355
 C1860 C 0.17992 0.39648 0.84009
 C1861 C 0.18886 0.40730 0.83135
 C1862 C 0.18417 0.41176 0.81593
 C1863 C 0.17041 0.40508 0.80942
 C1864 C 0.16148 0.39427 0.81818
 C1865 C 0.19348 0.42351 0.80676
 C1866 C 0.19601 0.42152 0.79033
 C1867 C 0.20462 0.43269 0.78171
 C1868 C 0.21081 0.44599 0.78937
 C1869 C 0.20840 0.44805 0.80571
 C1870 C 0.19981 0.43690 0.81436
 C1871 C 0.21952 0.45760 0.78049
 C1872 C 0.22679 0.46744 0.77316
 H1873 H 0.18369 0.39322 0.85197
 H1874 H 0.19950 0.41207 0.83661
 H1875 H 0.16638 0.40843 0.79766
 H1876 H 0.15083 0.38935 0.81303
 H1877 H 0.19146 0.41124 0.78419
 H1878 H 0.20645 0.43097 0.76907
 H1879 H 0.21309 0.45833 0.81175
 H1880 H 0.19789 0.43888 0.82693
 C1881 C 0.14842 0.87053 0.35088
 C1882 C 0.15631 0.87960 0.34320
 C1883 C 0.16567 0.89053 0.33411
 C1884 C 0.17916 0.89733 0.34084
 C1885 C 0.18810 0.90818 0.33214
 C1886 C 0.18365 0.91237 0.31657
 C1887 C 0.17012 0.90538 0.30987
 C1888 C 0.16120 0.89454 0.31860
 C1889 C 0.19297 0.92412 0.30742
 C1890 C 0.19587 0.92192 0.29109
 C1891 C 0.20452 0.93309 0.28248
 C1892 C 0.21037 0.94658 0.29007
 C1893 C 0.20757 0.94886 0.30632
 C1894 C 0.19894 0.93771 0.31495
 C1895 C 0.21913 0.95816 0.28120
 C1896 C 0.22643 0.96796 0.27386
 H1897 H 0.18275 0.89428 0.35283
 H1898 H 0.19856 0.91320 0.33755
 H1899 H 0.16628 0.90851 0.29800
 H1900 H 0.15074 0.88938 0.31330
 H1901 H 0.19160 0.91149 0.28500
 H1902 H 0.20665 0.93119 0.26991
 H1903 H 0.21200 0.95929 0.31230
 H1904 H 0.19673 0.93985 0.32745
 C1905 C 0.37111 0.35139 0.64967
 C1906 C 0.38016 0.34376 0.65766
 C1907 C 0.39107 0.33473 0.66713
 C1908 C 0.39065 0.31822 0.66679
 C1909 C 0.40145 0.30946 0.67577
 C1910 C 0.41284 0.31712 0.68520
 C1911 C 0.41309 0.33374 0.68554
 C1912 C 0.40227 0.34247 0.67656
 C1913 C 0.42452 0.30785 0.69451
 C1914 C 0.44038 0.31271 0.69533
 C1915 C 0.45142 0.30393 0.70398
 C1916 C 0.44677 0.29019 0.71192
 C1917 C 0.43102 0.28525 0.71121
 C1918 C 0.41996 0.29401 0.70256
 C1919 C 0.45822 0.28113 0.72071
 C1920 C 0.46794 0.27363 0.72797
 H1921 H 0.38206 0.31211 0.65949
 H1922 H 0.40109 0.29669 0.67510
 H1923 H 0.42156 0.33998 0.69285
 H1924 H 0.40267 0.35525 0.67695
 H1925 H 0.44431 0.32318 0.68908
 H1926 H 0.46359 0.30783 0.70440
 H1927 H 0.42729 0.27464 0.71735
 H1928 H 0.40781 0.29007 0.70231
 C1929 C 0.37054 0.85148 0.14989
 C1930 C 0.37965 0.84378 0.15775
 C1931 C 0.39065 0.83471 0.16707
 C1932 C 0.40275 0.84235 0.17538
 C1933 C 0.41362 0.83357 0.18424
 C1934 C 0.41253 0.81700 0.18489
 C1935 C 0.40026 0.80943 0.17657
 C1936 C 0.38940 0.81825 0.16770
 C1937 C 0.42424 0.80766 0.19409
 C1938 C 0.41945 0.79459 0.20323
 C1939 C 0.43052 0.78580 0.21185
 C1940 C 0.44651 0.78995 0.21144
 C1941 C 0.45138 0.80292 0.20239
 C1942 C 0.44034 0.81172 0.19378
 C1943 C 0.45795 0.78091 0.22025
 C1944 C 0.46767 0.77344 0.22754
 H1945 H 0.40379 0.85509 0.17500
 H1946 H 0.42279 0.83975 0.19069
 H1947 H 0.39922 0.79669 0.17668
 H1948 H 0.38011 0.81221 0.16127
 H1949 H 0.40712 0.79128 0.20387
 H1950 H 0.42662 0.77580 0.21885
 H1951 H 0.46374 0.80620 0.20195
 H1952 H 0.44443 0.82158 0.18668
 C1953 C 0.87096 0.35133 0.14908
 C1954 C 0.88007 0.34363 0.15693
 C1955 C 0.89108 0.33458 0.16626
 C1956 C 0.90350 0.34217 0.17412
 C1957 C 0.91435 0.33340 0.18302
 C1958 C 0.91291 0.31689 0.18418
 C1959 C 0.90032 0.30937 0.17630
 C1960 C 0.88949 0.31817 0.16740
 C1961 C 0.92457 0.30756 0.19346
 C1962 C 0.91965 0.29488 0.20307
 C1963 C 0.93067 0.28614 0.21180
 C1964 C 0.94673 0.28994 0.21103
 C1965 C 0.95173 0.30251 0.20149
 C1966 C 0.94075 0.31126 0.19276
 C1967 C 0.95810 0.28097 0.22000
 C1968 C 0.96778 0.27358 0.22743
 H1969 H 0.90481 0.35488 0.17336
 H1970 H 0.92377 0.33956 0.18912
 H1971 H 0.89901 0.29666 0.17681
 H1972 H 0.87994 0.31216 0.16132
 H1973 H 0.90727 0.29186 0.20400
 H1974 H 0.92666 0.27645 0.21918
 H1975 H 0.96414 0.30551 0.20076
 H1976 H 0.94493 0.32080 0.18530
 C1977 C 0.87109 0.85086 0.64950
 C1978 C 0.88023 0.84319 0.65735
 C1979 C 0.89126 0.83415 0.66668
 C1980 C 0.88968 0.81775 0.66785
 C1981 C 0.90053 0.80897 0.67676
 C1982 C 0.91313 0.81652 0.68459
 C1983 C 0.91456 0.83303 0.68339
 C1984 C 0.90369 0.84177 0.67450
 C1985 C 0.92482 0.80721 0.69387
 C1986 C 0.94099 0.81093 0.69313
 C1987 C 0.95200 0.80218 0.70185
 C1988 C 0.94702 0.78962 0.71141
 C1989 C 0.93097 0.78581 0.71222
 C1990 C 0.91993 0.79454 0.70350
 C1991 C 0.95843 0.78067 0.72036
 C1992 C 0.96812 0.77328 0.72778
 H1993 H 0.88012 0.81173 0.66181
 H1994 H 0.89922 0.79627 0.67730
 H1995 H 0.92399 0.83920 0.68947
 H1996 H 0.90500 0.85448 0.67370
 H1997 H 0.94515 0.82046 0.68566
 H1998 H 0.96441 0.80520 0.70109
 H1999 H 0.92699 0.77613 0.71962
 H2000 H 0.90755 0.79151 0.70446
 C2001 C 0.62956 0.35083 0.34983
 C2002 C 0.62057 0.34316 0.34183
 C2003 C 0.60973 0.33405 0.33238
 C2004 C 0.60258 0.34080 0.31899
 C2005 C 0.59180 0.33207 0.30998
 C2006 C 0.58801 0.31646 0.31426
 C2007 C 0.59535 0.30975 0.32768
 C2008 C 0.60613 0.31850 0.33668
 C2009 C 0.57631 0.30729 0.30489
 C2010 C 0.57878 0.29116 0.30169
 C2011 C 0.56763 0.28250 0.29306
 C2012 C 0.55387 0.28984 0.28753
 C2013 C 0.55133 0.30588 0.29060
 C2014 C 0.56247 0.31456 0.29921
 C2015 C 0.54227 0.28089 0.27887
 C2016 C 0.53243 0.27348 0.27168
 H2017 H 0.60532 0.35281 0.31554
 H2018 H 0.58651 0.33749 0.29960
 H2019 H 0.59253 0.29784 0.33140
 H2020 H 0.61155 0.31319 0.34705
 H2021 H 0.58941 0.28527 0.30573
 H2022 H 0.56973 0.27009 0.29073
 H2023 H 0.54069 0.31166 0.28643
 H2024 H 0.56011 0.32689 0.30166
 C2025 C 0.62944 0.85092 0.85016
 C2026 C 0.62044 0.84324 0.84218
 C2027 C 0.60958 0.83413 0.83275
 C2028 C 0.60608 0.81854 0.83700
 C2029 C 0.59529 0.80978 0.82804
 C2030 C 0.58783 0.81651 0.81469
 C2031 C 0.59152 0.83216 0.81046
 C2032 C 0.60232 0.84090 0.81944
 C2033 C 0.57612 0.80733 0.80536
 C2034 C 0.56220 0.81456 0.79980
 C2035 C 0.55107 0.80588 0.79119
 C2036 C 0.55368 0.78987 0.78801
 C2037 C 0.56750 0.78257 0.79343
 C2038 C 0.57865 0.79123 0.80205
 C2039 C 0.54209 0.78094 0.77931
 C2040 C 0.53228 0.77355 0.77208
 H2041 H 0.61159 0.81321 0.84732
 H2042 H 0.59255 0.79784 0.83172
 H2043 H 0.58614 0.83761 0.80014
 H2044 H 0.60497 0.85294 0.81603
 H2045 H 0.55981 0.82687 0.80234
 H2046 H 0.54038 0.81164 0.78711
 H2047 H 0.56965 0.77019 0.79100
 H2048 H 0.58933 0.78538 0.80600
 C2049 C 0.12943 0.35103 0.85019
 C2050 C 0.12041 0.34333 0.84223
 C2051 C 0.10954 0.33422 0.83282
 C2052 C 0.10257 0.34087 0.81929
 C2053 C 0.09174 0.33215 0.81032
 C2054 C 0.08775 0.31664 0.81477
 C2055 C 0.09491 0.31003 0.82834
 C2056 C 0.10572 0.31878 0.83730
 C2057 C 0.07601 0.30748 0.80544
 C2058 C 0.07833 0.29129 0.80246
 C2059 C 0.06716 0.28266 0.79383
 C2060 C 0.05354 0.29009 0.78808
 C2061 C 0.05115 0.30619 0.79093
 C2062 C 0.06230 0.31484 0.79954
 C2063 C 0.04193 0.28119 0.77936
 C2064 C 0.03211 0.27382 0.77212
 H2065 H 0.10546 0.35281 0.81570
 H2066 H 0.08659 0.33750 0.79983
 H2067 H 0.09193 0.29820 0.83220
 H2068 H 0.11101 0.31354 0.84779
 H2069 H 0.08885 0.28533 0.80667
 H2070 H 0.06914 0.27020 0.79166
 H2071 H 0.04062 0.31204 0.78658
 H2072 H 0.06007 0.32723 0.80182
 C2073 C 0.12908 0.85132 0.35048
 C2074 C 0.12011 0.84364 0.34245
 C2075 C 0.10931 0.83453 0.33295
 C2076 C 0.10225 0.84126 0.31951
 C2077 C 0.09151 0.83253 0.31045
 C2078 C 0.08768 0.81693 0.31473
 C2079 C 0.09494 0.81024 0.32821
 C2080 C 0.10567 0.81899 0.33725
 C2081 C 0.07603 0.80776 0.30531
 C2082 C 0.07849 0.79161 0.30217
 C2083 C 0.06738 0.78296 0.29349
 C2084 C 0.05367 0.79031 0.28785
 C2085 C 0.05114 0.80636 0.29085
 C2086 C 0.06224 0.81504 0.29951
 C2087 C 0.04210 0.78136 0.27914
 C2088 C 0.03229 0.77394 0.27192
 H2089 H 0.10502 0.85327 0.31606
 H2090 H 0.08629 0.83795 0.30003
 H2091 H 0.09208 0.79834 0.33193
 H2092 H 0.11103 0.81369 0.34767
 H2093 H 0.08907 0.78572 0.30630
 H2094 H 0.06946 0.77054 0.29121
 H2095 H 0.04055 0.81216 0.28658
 H2096 H 0.05989 0.82739 0.30191
 C2097 C 0.62968 0.64915 0.64832
 C2098 C 0.62063 0.65692 0.65617
 C2099 C 0.60973 0.66612 0.66547
 C2100 C 0.60380 0.68036 0.65950
 C2101 C 0.59298 0.68917 0.66840
 C2102 C 0.58792 0.68381 0.68340
 C2103 C 0.59402 0.66951 0.68933
 C2104 C 0.60485 0.66073 0.68042
 C2105 C 0.57620 0.69300 0.69273
 C2106 C 0.56402 0.68526 0.70102
 C2107 C 0.55286 0.69392 0.70962
 C2108 C 0.55371 0.71041 0.71008
 C2109 C 0.56580 0.71823 0.70194
 C2110 C 0.57698 0.70960 0.69332
 C2111 C 0.54207 0.71930 0.71878
 C2112 C 0.53223 0.72667 0.72600
 H2113 H 0.60746 0.68461 0.64792
 H2114 H 0.58835 0.70001 0.66341
 H2115 H 0.59052 0.66518 0.70093
 H2116 H 0.60939 0.64973 0.68517
 H2117 H 0.56297 0.67253 0.70062
 H2118 H 0.54351 0.68775 0.71584
 H2119 H 0.56659 0.73100 0.70225
 H2120 H 0.58632 0.71589 0.68723
 C2121 C 0.62981 0.14873 0.14839
 C2122 C 0.62069 0.15641 0.15625
 C2123 C 0.60971 0.16550 0.16556
 C2124 C 0.60744 0.18155 0.16233
 C2125 C 0.59657 0.19033 0.17120
 C2126 C 0.58780 0.18313 0.18342
 C2127 C 0.59024 0.16700 0.18664
 C2128 C 0.60112 0.15826 0.17776
 C2129 C 0.57603 0.19236 0.19266
 C2130 C 0.56137 0.18568 0.19671
 C2131 C 0.55024 0.19440 0.20528
 C2132 C 0.55358 0.20991 0.20992
 C2133 C 0.56814 0.21667 0.20600
 C2134 C 0.57930 0.20796 0.19742
 C2135 C 0.54202 0.21889 0.21862
 C2136 C 0.53223 0.22633 0.22585
 H2137 H 0.61399 0.18726 0.15287
 H2138 H 0.59482 0.20266 0.16830
 H2139 H 0.58383 0.16118 0.19611
 H2140 H 0.60282 0.14585 0.18039
 H2141 H 0.55842 0.17378 0.19304
 H2142 H 0.53898 0.18908 0.20821
 H2143 H 0.57086 0.22865 0.20956
 H2144 H 0.59055 0.21337 0.19465
 C2145 C 0.13005 0.64943 0.14877
 C2146 C 0.12096 0.65719 0.15658
 C2147 C 0.11000 0.66636 0.16584
 C2148 C 0.10494 0.68114 0.16038
 C2149 C 0.09406 0.68992 0.16923
 C2150 C 0.08807 0.68402 0.18367
 C2151 C 0.09331 0.66919 0.18909
 C2152 C 0.10420 0.66043 0.18023
 C2153 C 0.07629 0.69320 0.19293
 C2154 C 0.06341 0.68556 0.20017
 C2155 C 0.05221 0.69422 0.20872
 C2156 C 0.05372 0.71061 0.21018
 C2157 C 0.06651 0.71832 0.20307
 C2158 C 0.07772 0.70968 0.19450
 C2159 C 0.04207 0.71951 0.21884
 C2160 C 0.03222 0.72689 0.22605
 H2161 H 0.10932 0.68582 0.14923
 H2162 H 0.09011 0.70120 0.16464
 H2163 H 0.08908 0.66442 0.20026
 H2164 H 0.10806 0.64902 0.18459
 H2165 H 0.06185 0.67293 0.19899
 H2166 H 0.04232 0.68814 0.21413
 H2167 H 0.06781 0.73100 0.20415
 H2168 H 0.08760 0.71588 0.18923
 C2169 C 0.12995 0.14953 0.64884
 C2170 C 0.12085 0.15728 0.65665
 C2171 C 0.10988 0.16646 0.66591
 C2172 C 0.10420 0.16060 0.68038
 C2173 C 0.09331 0.16936 0.68924
 C2174 C 0.08795 0.18411 0.68372
 C2175 C 0.09381 0.18994 0.66920
 C2176 C 0.10470 0.18115 0.66036
 C2177 C 0.07616 0.19330 0.69298
 C2178 C 0.07749 0.20981 0.69438
 C2179 C 0.06627 0.21844 0.70294
 C2180 C 0.05358 0.21071 0.71021
 C2181 C 0.05218 0.19430 0.70893
 C2182 C 0.06339 0.18564 0.70038
 C2183 C 0.04192 0.21961 0.71885
 C2184 C 0.03206 0.22699 0.72605
 H2185 H 0.10817 0.14925 0.68480
 H2186 H 0.08918 0.16465 0.70047
 H2187 H 0.08976 0.20115 0.66454
 H2188 H 0.10898 0.18577 0.64915
 H2189 H 0.08729 0.21602 0.68898
 H2190 H 0.06748 0.23115 0.70388
 H2191 H 0.04238 0.18820 0.71446
 H2192 H 0.06192 0.17298 0.69935
 C2193 C 0.36986 0.64893 0.35083
 C2194 C 0.37895 0.65663 0.34297
 C2195 C 0.38990 0.66573 0.33365
 C2196 C 0.39721 0.65896 0.32037
 C2197 C 0.40808 0.66768 0.31148
 C2198 C 0.41178 0.68332 0.31575
 C2199 C 0.40427 0.69005 0.32907
 C2200 C 0.39341 0.68130 0.33795
 C2201 C 0.42354 0.69249 0.30649
 C2202 C 0.42104 0.70860 0.30319
 C2203 C 0.43222 0.71725 0.29462
 C2204 C 0.44605 0.70994 0.28924
 C2205 C 0.44863 0.69392 0.29242
 C2206 C 0.43746 0.68525 0.30098
 C2207 C 0.45767 0.71887 0.28060
 C2208 C 0.46750 0.72628 0.27343
 H2209 H 0.39455 0.64692 0.31692
 H2210 H 0.41350 0.66224 0.30118
 H2211 H 0.40701 0.70198 0.33278
 H2212 H 0.38785 0.68663 0.34824
 H2213 H 0.41036 0.71446 0.30711
 H2214 H 0.43009 0.72964 0.29220
 H2215 H 0.45932 0.68816 0.28837
 H2216 H 0.43984 0.67294 0.30351
 C2217 C 0.37016 0.14900 0.85112
 C2218 C 0.37932 0.15679 0.84345
 C2219 C 0.39037 0.16605 0.83442
 C2220 C 0.40090 0.17612 0.84226
 C2221 C 0.41184 0.18495 0.83356
 C2222 C 0.41239 0.18381 0.81687
 C2223 C 0.40169 0.17372 0.80908
 C2224 C 0.39076 0.16490 0.81781
 C2225 C 0.42418 0.19300 0.80765
 C2226 C 0.42001 0.20019 0.79315
 C2227 C 0.43116 0.20881 0.78449
 C2228 C 0.44660 0.21035 0.79020
 C2229 C 0.45087 0.20324 0.80460
 C2230 C 0.43975 0.19463 0.81327
 C2231 C 0.45811 0.21918 0.78131
 C2232 C 0.46788 0.22653 0.77398
 H2233 H 0.40067 0.17714 0.85511
 H2234 H 0.41976 0.19277 0.83989
 H2235 H 0.40195 0.17244 0.79627
 H2236 H 0.38270 0.15710 0.81163
 H2237 H 0.40808 0.19932 0.78860
 H2238 H 0.42772 0.21430 0.77337
 H2239 H 0.46281 0.20431 0.80910
 H2240 H 0.44339 0.18906 0.82427
 C2241 C 0.86986 0.64904 0.85094
 C2242 C 0.87898 0.65688 0.84327
 C2243 C 0.88997 0.66620 0.83421
 C2244 C 0.89702 0.67950 0.84107
 C2245 C 0.90794 0.68839 0.83241
 C2246 C 0.91195 0.68409 0.81675
 C2247 C 0.90470 0.67076 0.80993
 C2248 C 0.89380 0.66188 0.81862
 C2249 C 0.92376 0.69337 0.80765
 C2250 C 0.92149 0.69654 0.79137
 C2251 C 0.93271 0.70516 0.78281
 C2252 C 0.94633 0.71071 0.79039
 C2253 C 0.94869 0.70764 0.80658
 C2254 C 0.93749 0.69904 0.81516
 C2255 C 0.95797 0.71945 0.78158
 C2256 C 0.96782 0.72673 0.77430
 H2257 H 0.89411 0.68297 0.85313
 H2258 H 0.91315 0.69871 0.83792
 H2259 H 0.90769 0.66703 0.79798
 H2260 H 0.88844 0.65157 0.81321
 H2261 H 0.91097 0.69250 0.78531
 H2262 H 0.93076 0.70750 0.77029
 H2263 H 0.95922 0.71183 0.81255
 H2264 H 0.93968 0.69661 0.82761
 C2265 C 0.86995 0.14910 0.35095
 C2266 C 0.87900 0.15700 0.34326
 C2267 C 0.88991 0.16638 0.33417
 C2268 C 0.89668 0.17989 0.34089
 C2269 C 0.90753 0.18883 0.33220
 C2270 C 0.91176 0.18436 0.31665
 C2271 C 0.90481 0.17081 0.30996
 C2272 C 0.89396 0.16188 0.31868
 C2273 C 0.92353 0.19368 0.30752
 C2274 C 0.92138 0.19655 0.29117
 C2275 C 0.93257 0.20519 0.28258
 C2276 C 0.94603 0.21106 0.29021
 C2277 C 0.94825 0.20830 0.30647
 C2278 C 0.93708 0.19968 0.31508
 C2279 C 0.95764 0.21980 0.28136
 C2280 C 0.96748 0.22708 0.27405
 H2281 H 0.89360 0.18349 0.35286
 H2282 H 0.91252 0.19931 0.33760
 H2283 H 0.90797 0.16695 0.29810
 H2284 H 0.88883 0.15141 0.31338
 H2285 H 0.91098 0.19225 0.28506
 H2286 H 0.93072 0.20728 0.27000
 H2287 H 0.95866 0.21274 0.31248
 H2288 H 0.93919 0.19749 0.32759
 C2289 C 0.35201 0.35103 0.63003
 C2290 C 0.34441 0.34308 0.62091
 C2291 C 0.33541 0.33367 0.60992
 C2292 C 0.34301 0.32250 0.60033
 C2293 C 0.33434 0.31356 0.58941
 C2294 C 0.31792 0.31569 0.58794
 C2295 C 0.31037 0.32688 0.59771
 C2296 C 0.31907 0.33582 0.60862
 C2297 C 0.30875 0.30640 0.57614
 C2298 C 0.29374 0.30041 0.58000
 C2299 C 0.28509 0.29177 0.56881
 C2300 C 0.29130 0.28903 0.55364
 C2301 C 0.30623 0.29491 0.54969
 C2302 C 0.31490 0.30354 0.56086
 C2303 C 0.28237 0.28026 0.54206
 C2304 C 0.27495 0.27298 0.53226
 H2305 H 0.35564 0.32072 0.60127
 H2306 H 0.34045 0.30490 0.58221
 H2307 H 0.29779 0.32893 0.59672
 H2308 H 0.31308 0.34448 0.61594
 H2309 H 0.28877 0.30225 0.59172
 H2310 H 0.27356 0.28724 0.57200
 H2311 H 0.31113 0.29290 0.53796
 H2312 H 0.32632 0.30817 0.55745
 C2313 C 0.35120 0.85136 0.13047
 C2314 C 0.34342 0.84355 0.12139
 C2315 C 0.33416 0.83435 0.11042
 C2316 C 0.32101 0.84109 0.10296
 C2317 C 0.31218 0.83230 0.09206
 C2318 C 0.31640 0.81662 0.08846
 C2319 C 0.32959 0.80991 0.09611
 C2320 C 0.33840 0.81874 0.10701
 C2321 C 0.30722 0.80737 0.07664
 C2322 C 0.30390 0.79130 0.07926
 C2323 C 0.29537 0.78260 0.06803
 C2324 C 0.29005 0.78983 0.05405
 C2325 C 0.29326 0.80581 0.05135
 C2326 C 0.30178 0.81453 0.06255
 C2327 C 0.28141 0.78087 0.04240
 C2328 C 0.27422 0.77345 0.03253
 H2329 H 0.31760 0.85316 0.10554
 H2330 H 0.30198 0.83772 0.08653
 H2331 H 0.33325 0.79795 0.09345
 H2332 H 0.34860 0.81343 0.11268
 H2333 H 0.30776 0.78550 0.09006
 H2334 H 0.29292 0.77024 0.07025
 H2335 H 0.28925 0.81151 0.04054
 H2336 H 0.30432 0.82682 0.06008
 C2337 C 0.85142 0.35118 0.12987
 C2338 C 0.84350 0.34334 0.12093
 C2339 C 0.83410 0.33409 0.11013
 C2340 C 0.84012 0.32003 0.10381
 C2341 C 0.83115 0.31123 0.09303
 C2342 C 0.81603 0.31640 0.08841
 C2343 C 0.81005 0.33050 0.09492
 C2344 C 0.81904 0.33927 0.10571
 C2345 C 0.80664 0.30725 0.07667
 C2346 C 0.79802 0.31506 0.06471
 C2347 C 0.78939 0.30645 0.05349
 C2348 C 0.78924 0.28993 0.05409
 C2349 C 0.79771 0.28205 0.06598
 C2350 C 0.80636 0.29064 0.07720
 C2351 C 0.78054 0.28111 0.04237
 C2352 C 0.77330 0.27380 0.03246
 H2353 H 0.85179 0.31595 0.10711
 H2354 H 0.83616 0.30054 0.08807
 H2355 H 0.79838 0.33467 0.09177
 H2356 H 0.81426 0.35013 0.11056
 H2357 H 0.79817 0.32781 0.06384
 H2358 H 0.78292 0.31267 0.04430
 H2359 H 0.79765 0.26927 0.06656
 H2360 H 0.81272 0.28429 0.08638
 C2361 C 0.85155 0.85066 0.63029
 C2362 C 0.84364 0.84280 0.62136
 C2363 C 0.83429 0.83352 0.61055
 C2364 C 0.81897 0.83830 0.60662
 C2365 C 0.81002 0.82951 0.59581
 C2366 C 0.81630 0.81579 0.58878
 C2367 C 0.83168 0.81101 0.59292
 C2368 C 0.84061 0.81983 0.60372
 C2369 C 0.80695 0.80663 0.57702
 C2370 C 0.80726 0.79001 0.57709
 C2371 C 0.79866 0.78143 0.56582
 C2372 C 0.78967 0.78932 0.55434
 C2373 C 0.78922 0.80584 0.55421
 C2374 C 0.79780 0.81445 0.56547
 C2375 C 0.78104 0.78051 0.54256
 C2376 C 0.77387 0.77321 0.53259
 H2377 H 0.81396 0.84887 0.61186
 H2378 H 0.79815 0.83338 0.59303
 H2379 H 0.83693 0.80063 0.58756
 H2380 H 0.85249 0.81605 0.60664
 H2381 H 0.81403 0.78365 0.58594
 H2382 H 0.79906 0.76864 0.56604
 H2383 H 0.78234 0.81208 0.54534
 H2384 H 0.79749 0.82722 0.56496
 C2385 C 0.35044 0.64916 0.37013
 C2386 C 0.34262 0.65707 0.37910
 C2387 C 0.33338 0.66644 0.38992
 C2388 C 0.33945 0.68059 0.39595
 C2389 C 0.33063 0.68954 0.40674
 C2390 C 0.31560 0.68444 0.41166
 C2391 C 0.30955 0.67024 0.40544
 C2392 C 0.31840 0.66131 0.39465
 C2393 C 0.30637 0.69376 0.42339
 C2394 C 0.28995 0.69563 0.42162
 C2395 C 0.28126 0.70425 0.43280
 C2396 C 0.28886 0.71109 0.44589
 C2397 C 0.30519 0.70934 0.44772
 C2398 C 0.31389 0.70074 0.43656
 C2399 C 0.27991 0.71975 0.45754
 C2400 C 0.27251 0.72694 0.46741
 H2401 H 0.35102 0.68469 0.39234
 H2402 H 0.33552 0.70051 0.41115
 H2403 H 0.29812 0.66589 0.40915
 H2404 H 0.31361 0.65034 0.39011
 H2405 H 0.28385 0.69057 0.41152
 H2406 H 0.26863 0.70555 0.43125
 H2407 H 0.31117 0.71453 0.45784
 H2408 H 0.32647 0.69933 0.43837
 C2409 C 0.35073 0.14903 0.87040
 C2410 C 0.34298 0.15686 0.87951
 C2411 C 0.33386 0.16615 0.89051
 C2412 C 0.34148 0.17508 0.90222
 C2413 C 0.33266 0.18392 0.91310
 C2414 C 0.31606 0.18394 0.91241
 C2415 C 0.30851 0.17500 0.90052
 C2416 C 0.31736 0.16615 0.88966
 C2417 C 0.30669 0.19313 0.92413
 C2418 C 0.29316 0.20153 0.91935
 C2419 C 0.28435 0.21014 0.93045
 C2420 C 0.28894 0.21044 0.94644
 C2421 C 0.30237 0.20212 0.95131
 C2422 C 0.31120 0.19352 0.94025
 C2423 C 0.27988 0.21924 0.95791
 C2424 C 0.27241 0.22652 0.96767
 H2425 H 0.35425 0.17519 0.90296
 H2426 H 0.33883 0.19085 0.92196
 H2427 H 0.29575 0.17462 0.89980
 H2428 H 0.31133 0.15925 0.88067
 H2429 H 0.28950 0.20161 0.90701
 H2430 H 0.27398 0.21657 0.92654
 H2431 H 0.30600 0.20223 0.96367
 H2432 H 0.32142 0.18700 0.94434
 C2433 C 0.85030 0.64895 0.87008
 C2434 C 0.84236 0.65670 0.87908
 C2435 C 0.83294 0.66588 0.88993
 C2436 C 0.83915 0.67958 0.89681
 C2437 C 0.83013 0.68835 0.90759
 C2438 C 0.81476 0.68350 0.91163
 C2439 C 0.80859 0.66975 0.90457
 C2440 C 0.81764 0.66101 0.89379
 C2441 C 0.80528 0.69262 0.92333
 C2442 C 0.79609 0.68477 0.93481
 C2443 C 0.78738 0.69335 0.94598
 C2444 C 0.78771 0.70987 0.94584
 C2445 C 0.79674 0.71780 0.93443
 C2446 C 0.80548 0.70924 0.92324
 C2447 C 0.77894 0.71865 0.95753
 C2448 C 0.77165 0.72593 0.96744
 H2449 H 0.85101 0.68343 0.89395
 H2450 H 0.83528 0.69875 0.91298
 H2451 H 0.79673 0.66583 0.90727
 H2452 H 0.81271 0.65044 0.88850
 H2453 H 0.79586 0.67200 0.93533
 H2454 H 0.78047 0.68709 0.95480
 H2455 H 0.79706 0.73058 0.93419
 H2456 H 0.81228 0.71562 0.91444
 C2457 C 0.85044 0.14885 0.37015
 C2458 C 0.84246 0.15653 0.37917
 C2459 C 0.83298 0.16561 0.39006
 C2460 C 0.81956 0.15888 0.39699
 C2461 C 0.81051 0.16756 0.40781
 C2462 C 0.81477 0.18311 0.41184
 C2463 C 0.82823 0.18981 0.40471
 C2464 C 0.83727 0.18110 0.39390
 C2465 C 0.80535 0.19223 0.42357
 C2466 C 0.80225 0.20839 0.42117
 C2467 C 0.79352 0.21698 0.43233
 C2468 C 0.78778 0.20955 0.44602
 C2469 C 0.79076 0.19349 0.44850
 C2470 C 0.79948 0.18487 0.43736
 C2471 C 0.77898 0.21842 0.45763
 C2472 C 0.77166 0.22575 0.46747
 H2473 H 0.81612 0.14690 0.39406
 H2474 H 0.80011 0.16215 0.41292
 H2475 H 0.83193 0.20168 0.40772
 H2476 H 0.84766 0.18640 0.38864
 H2477 H 0.80644 0.21434 0.41058
 H2478 H 0.79125 0.22941 0.43028
 H2479 H 0.78643 0.18763 0.45909
 H2480 H 0.80185 0.17252 0.43966
 C2481 C 0.64869 0.35053 0.36944
 C2482 C 0.65636 0.34259 0.37851
 C2483 C 0.66544 0.33317 0.38944
 C2484 C 0.68038 0.33823 0.39436
 C2485 C 0.68908 0.32924 0.40523
 C2486 C 0.68292 0.31505 0.41134
 C2487 C 0.66791 0.31002 0.40623
 C2488 C 0.65925 0.31903 0.39536
 C2489 C 0.69200 0.30565 0.42312
 C2490 C 0.68433 0.29865 0.43618
 C2491 C 0.69290 0.28998 0.44740
 C2492 C 0.70924 0.28817 0.44572
 C2493 C 0.71698 0.29503 0.43274
 C2494 C 0.70843 0.30372 0.42151
 C2495 C 0.71804 0.27941 0.45741
 C2496 C 0.72533 0.27213 0.46732
 H2497 H 0.68527 0.34919 0.38990
 H2498 H 0.70050 0.33353 0.40908
 H2499 H 0.66293 0.29906 0.41055
 H2500 H 0.64770 0.31498 0.39160
 H2501 H 0.67174 0.30011 0.43788
 H2502 H 0.68680 0.28477 0.45743
 H2503 H 0.72962 0.29367 0.43131
 H2504 H 0.71464 0.30880 0.41149
 C2505 C 0.64855 0.85061 0.86977
 C2506 C 0.65619 0.84266 0.87886
 C2507 C 0.66523 0.83323 0.88982
 C2508 C 0.68076 0.83744 0.89356
 C2509 C 0.68945 0.82845 0.90443
 C2510 C 0.68268 0.81511 0.91173
 C2511 C 0.66708 0.81093 0.90780
 C2512 C 0.65843 0.81993 0.89692
 C2513 C 0.69178 0.80573 0.92352
 C2514 C 0.68444 0.80006 0.93740
 C2515 C 0.69303 0.79139 0.94860
 C2516 C 0.70906 0.78826 0.94608
 C2517 C 0.71647 0.79379 0.93229
 C2518 C 0.70789 0.80248 0.92108
 C2519 C 0.71791 0.77948 0.95773
 C2520 C 0.72524 0.77219 0.96759
 H2521 H 0.68612 0.84775 0.88817
 H2522 H 0.70135 0.83209 0.90736
 H2523 H 0.66162 0.80061 0.91305
 H2524 H 0.64642 0.81654 0.89407
 H2525 H 0.67212 0.80255 0.93973
 H2526 H 0.68720 0.78721 0.95926
 H2527 H 0.72886 0.79141 0.93021
 H2528 H 0.71383 0.80652 0.91042
 C2529 C 0.14853 0.35080 0.86983
 C2530 C 0.15615 0.34290 0.87898
 C2531 C 0.16515 0.33354 0.89003
 C2532 C 0.15740 0.32476 0.90177
 C2533 C 0.16610 0.31587 0.91270
 C2534 C 0.18270 0.31565 0.91205
 C2535 C 0.19038 0.32444 0.90014
 C2536 C 0.18165 0.33333 0.88922
 C2537 C 0.19195 0.30642 0.92384
 C2538 C 0.20538 0.29782 0.91913
 C2539 C 0.21408 0.28917 0.93029
 C2540 C 0.20948 0.28902 0.94628
 C2541 C 0.19615 0.29755 0.95108
 C2542 C 0.18744 0.30619 0.93995
 C2543 C 0.21841 0.28017 0.95780
 C2544 C 0.22577 0.27282 0.96760
 H2545 H 0.14463 0.32481 0.90248
 H2546 H 0.15984 0.30907 0.92159
 H2547 H 0.20314 0.32466 0.89944
 H2548 H 0.18776 0.34013 0.88021
 H2549 H 0.20905 0.29762 0.90680
 H2550 H 0.22436 0.28258 0.92644
 H2551 H 0.19251 0.29756 0.96344
 H2552 H 0.17730 0.31286 0.94399
 C2553 C 0.14821 0.85100 0.37007
 C2554 C 0.15591 0.84305 0.37911
 C2555 C 0.16504 0.83363 0.38999
 C2556 C 0.15848 0.82003 0.39674
 C2557 C 0.16722 0.81103 0.40756
 C2558 C 0.18266 0.81551 0.41177
 C2559 C 0.18918 0.82915 0.40483
 C2560 C 0.18042 0.83814 0.39402
 C2561 C 0.19184 0.80613 0.42350
 C2562 C 0.20807 0.80337 0.42123
 C2563 C 0.21672 0.79471 0.43240
 C2564 C 0.20929 0.78871 0.44598
 C2565 C 0.19315 0.79135 0.44832
 C2566 C 0.18447 0.79999 0.43716
 C2567 C 0.21822 0.78000 0.45761
 C2568 C 0.22561 0.77277 0.46747
 H2569 H 0.14659 0.81641 0.39368
 H2570 H 0.16194 0.80049 0.41254
 H2571 H 0.20095 0.83303 0.40798
 H2572 H 0.18559 0.84867 0.38890
 H2573 H 0.21404 0.80777 0.41074
 H2574 H 0.22921 0.79271 0.43046
 H2575 H 0.18728 0.78682 0.45882
 H2576 H 0.17205 0.80210 0.43936
 C2577 C 0.64912 0.64922 0.62904
 C2578 C 0.65702 0.65705 0.62008
 C2579 C 0.66641 0.66629 0.60930
 C2580 C 0.66032 0.68024 0.60279
 C2581 C 0.66933 0.68907 0.59207
 C2582 C 0.68456 0.68404 0.58770
 C2583 C 0.69061 0.67005 0.59438
 C2584 C 0.68158 0.66125 0.60511
 C2585 C 0.69401 0.69324 0.57606
 C2586 C 0.70292 0.68546 0.56430
 C2587 C 0.71165 0.69411 0.55320
 C2588 C 0.71161 0.71062 0.55372
 C2589 C 0.70284 0.71848 0.56541
 C2590 C 0.69410 0.70985 0.57651
 C2591 C 0.72040 0.71948 0.54211
 C2592 C 0.72772 0.72681 0.53228
 H2593 H 0.64856 0.68423 0.60592
 H2594 H 0.66426 0.69967 0.58698
 H2595 H 0.70236 0.66598 0.59142
 H2596 H 0.68642 0.65048 0.61010
 H2597 H 0.70293 0.67270 0.56350
 H2598 H 0.71834 0.68791 0.54416
 H2599 H 0.70275 0.73126 0.56593
 H2600 H 0.68752 0.71617 0.58554
 C2601 C 0.64928 0.14902 0.12915
 C2602 C 0.65713 0.15695 0.12024
 C2603 C 0.66642 0.16636 0.10951
 C2604 C 0.67976 0.15987 0.10218
 C2605 C 0.68862 0.16888 0.09150
 C2606 C 0.68423 0.18453 0.08799
 C2607 C 0.67085 0.19098 0.09550
 C2608 C 0.66201 0.18194 0.10619
 C2609 C 0.69345 0.19401 0.07638
 C2610 C 0.68570 0.20381 0.06533
 C2611 C 0.69435 0.21250 0.05422
 C2612 C 0.71084 0.21154 0.05400
 C2613 C 0.71867 0.20190 0.06499
 C2614 C 0.71004 0.19319 0.07612
 C2615 C 0.71969 0.22028 0.04234
 C2616 C 0.72701 0.22753 0.03246
 H2617 H 0.68324 0.14779 0.10462
 H2618 H 0.69873 0.16351 0.08576
 H2619 H 0.66729 0.20305 0.09321
 H2620 H 0.65172 0.18709 0.11182
 H2621 H 0.67294 0.20453 0.06509
 H2622 H 0.68817 0.21988 0.04572
 H2623 H 0.73144 0.20110 0.06494
 H2624 H 0.71635 0.18591 0.08459
 C2625 C 0.14959 0.64949 0.12959
 C2626 C 0.15755 0.65729 0.12067
 C2627 C 0.16700 0.66651 0.10991
 C2628 C 0.16131 0.68090 0.10406
 C2629 C 0.17034 0.68970 0.09334
 C2630 C 0.18520 0.68418 0.08830
 C2631 C 0.19086 0.66974 0.09433
 C2632 C 0.18181 0.66098 0.10506
 C2633 C 0.19465 0.69334 0.07663
 C2634 C 0.20283 0.68558 0.06432
 C2635 C 0.21152 0.69420 0.05319
 C2636 C 0.21219 0.71068 0.05419
 C2637 C 0.20416 0.71852 0.06642
 C2638 C 0.19545 0.70992 0.07757
 C2639 C 0.22094 0.71953 0.04255
 C2640 C 0.22821 0.72684 0.03267
 H2641 H 0.14983 0.68526 0.10770
 H2642 H 0.16557 0.70066 0.08876
 H2643 H 0.20233 0.66529 0.09084
 H2644 H 0.18634 0.64986 0.10954
 H2645 H 0.20227 0.67286 0.06314
 H2646 H 0.21764 0.68802 0.04373
 H2647 H 0.20462 0.73127 0.06733
 H2648 H 0.18944 0.71622 0.08701
 C2649 C 0.14950 0.14965 0.62968
 C2650 C 0.15746 0.15749 0.62079
 C2651 C 0.16690 0.16676 0.61007
 C2652 C 0.18264 0.16262 0.60721
 C2653 C 0.19174 0.17142 0.59654
 C2654 C 0.18519 0.18450 0.58859
 C2655 C 0.16938 0.18863 0.59164
 C2656 C 0.16031 0.17981 0.60230
 C2657 C 0.19473 0.19366 0.57699
 C2658 C 0.19358 0.21023 0.57632
 C2659 C 0.20235 0.21879 0.56518
 C2660 C 0.21237 0.21092 0.55458
 C2661 C 0.21366 0.19446 0.55521
 C2662 C 0.20492 0.18587 0.56633
 C2663 C 0.22112 0.21968 0.54287
 C2664 C 0.22838 0.22692 0.53293
 H2665 H 0.18787 0.15256 0.61319
 H2666 H 0.20392 0.16806 0.59461
 H2667 H 0.16394 0.19850 0.58555
 H2668 H 0.14812 0.18309 0.60439
 H2669 H 0.18600 0.21657 0.58449
 H2670 H 0.20127 0.23153 0.56481
 H2671 H 0.22133 0.18824 0.54701
 H2672 H 0.20590 0.17312 0.56640
   
