data_POSCAR
  _audit_creation_date              2014-09-24
  _audit_creation_method            'ToBaCCo'
  _symmetry_space_group_name_H-M    'P1'
  _symmetry_Int_Tables_number       1
  _symmetry_cell_setting            triclinic
  loop_
  _symmetry_equiv_pos_as_xyz
 x,y,z
_cell_length_a 44.2544
_cell_length_b 44.3030
_cell_length_c 44.3854
_cell_angle_alpha 89.950000
_cell_angle_beta 89.980500
_cell_angle_gamma 90.006800
loop_
  _atom_site_label
  _atom_site_type_symbol
  _atom_site_fract_x
  _atom_site_fract_y
  _atom_site_fract_z
C1 C 0.21167 0.98744 0.08535
 C2 C 0.21226 1.01845 0.08489
 C3 C 0.22512 1.02687 0.05760
 N4 N 0.23176 1.00206 0.04119
 C5 C 0.22371 0.97800 0.05818
 C6 C 0.23196 1.05676 0.04833
 C7 C 0.23784 1.06318 0.01751
 C8 C 0.25526 1.08707 0.00711
 C9 C 0.25361 1.08667 -0.02378
 C10 C 0.23519 1.06256 -0.03156
 N11 N 0.22622 1.04790 -0.00625
 C12 C 0.22652 1.05487 -0.06140
 C13 C 0.21792 1.02487 -0.06834
 C14 C 0.20207 1.01569 -0.09373
 C15 C 0.20148 0.98470 -0.09313
 C16 C 0.21655 0.97610 -0.06719
 N17 N 0.22637 1.00062 -0.05197
 C18 C 0.22327 0.94617 -0.05877
 C19 C 0.23263 0.93908 -0.02923
 C20 C 0.24677 0.91252 -0.02057
 C21 C 0.24841 0.91301 0.01037
 C22 C 0.23528 0.93988 0.01962
 N23 N 0.22615 0.95583 -0.00465
 C24 C 0.22881 0.94772 0.04973
 H25 H 0.20315 0.97348 0.10349
 H26 H 0.20403 1.03307 0.10260
 H27 H 0.21256 0.97504 -0.00419
 H28 H 0.26800 1.10308 0.02043
 H29 H 0.26498 1.10223 -0.03879
 H30 H 0.19219 1.02983 -0.11101
 H31 H 0.19122 0.97019 -0.10985
 H32 H 0.25755 0.89529 0.02448
 H33 H 0.21064 1.03026 -0.00511
 H34 H 0.25445 0.89437 -0.03496
 C35 C 0.71291 0.48382 0.59481
 C36 C 0.71217 0.51487 0.59420
 C37 C 0.72287 0.52354 0.56614
 N38 N 0.73012 0.49893 0.54969
 C39 C 0.72399 0.47464 0.56709
 C40 C 0.72762 0.55359 0.55649
 C41 C 0.73479 0.56076 0.52626
 C42 C 0.74763 0.58773 0.51685
 C43 C 0.74793 0.58721 0.48591
 C44 C 0.73524 0.55995 0.47723
 N45 N 0.72760 0.54378 0.50197
 C46 C 0.72864 0.55173 0.44715
 C47 C 0.72424 0.52133 0.43862
 C48 C 0.71398 0.51153 0.41079
 C49 C 0.71505 0.48050 0.41139
 C50 C 0.72585 0.47248 0.43959
 N51 N 0.73149 0.49744 0.45612
 C52 C 0.73206 0.44276 0.44932
 C53 C 0.73872 0.43585 0.47971
 C54 C 0.75220 0.40932 0.48945
 C55 C 0.75151 0.40975 0.52039
 C56 C 0.73768 0.43656 0.52872
 N57 N 0.73020 0.45249 0.50380
 C58 C 0.73003 0.44450 0.55860
 H59 H 0.70615 0.46968 0.61353
 H60 H 0.70470 0.52936 0.61235
 H61 H 0.71650 0.47159 0.50321
 H62 H 0.75556 0.60610 0.53084
 H63 H 0.75614 0.60509 0.47143
 H64 H 0.70658 0.52524 0.39200
 H65 H 0.70866 0.46560 0.39317
 H66 H 0.75983 0.39210 0.53508
 H67 H 0.71461 0.52419 0.50221
 H68 H 0.76113 0.39124 0.47568
 C69 C 0.72803 1.01479 1.09216
 C70 C 0.72899 0.98386 1.09301
 C71 C 0.74470 0.97475 1.06757
 N72 N 0.75309 0.99903 1.05106
 C73 C 0.74334 1.02359 1.06631
 C74 C 0.75137 0.94455 1.05957
 C75 C 0.75831 0.93733 1.02931
 C76 C 0.77446 0.91221 1.01977
 C77 C 0.77209 0.91129 0.98889
 C78 C 0.75490 0.93606 0.98054
 N79 N 0.74714 0.95216 1.00521
 C80 C 0.74447 0.94218 0.95116
 C81 C 0.73638 0.97171 0.94270
 C82 C 0.72162 0.98002 0.91643
 C83 C 0.72221 1.01102 0.91547
 C84 C 0.73702 1.02034 0.94135
 N85 N 0.74547 0.99636 0.95796
 C86 C 0.74573 1.05008 0.94809
 C87 C 0.75427 1.05845 0.97758
 C88 C 0.77020 1.08429 0.98515
 C89 C 0.77127 1.08528 1.01612
 C90 C 0.75572 1.06013 1.02657
 N91 N 0.74596 1.04360 1.00293
 C92 C 0.74889 1.05374 1.05713
 H93 H 0.71681 1.02910 1.10843
 H94 H 0.71862 0.96972 1.11000
 H95 H 0.73141 1.02513 1.00417
 H96 H 0.78603 0.89581 1.03369
 H97 H 0.78152 0.89414 0.97432
 H98 H 0.71201 0.96536 0.89946
 H99 H 0.71323 1.02506 0.89763
 H100 H 0.78196 1.10272 1.02944
 H101 H 0.73171 0.96995 1.00592
 H102 H 0.77981 1.10084 0.96997
 C103 C 0.28627 0.41039 0.48475
 C104 C 0.28734 0.41256 0.51562
 C105 C 0.27493 0.44029 0.52301
 N106 N 0.26646 0.45516 0.49776
 C107 C 0.27325 0.43689 0.47434
 C108 C 0.26911 0.45060 0.55258
 C109 C 0.26081 0.48082 0.55844
 C110 C 0.24664 0.49086 0.58444
 C111 C 0.24481 0.52177 0.58228
 C112 C 0.25804 0.52975 0.55508
 N113 N 0.26751 0.50463 0.54057
 C114 C 0.26298 0.55965 0.54507
 C115 C 0.26873 0.56622 0.51444
 C116 C 0.27881 0.59368 0.50335
 C117 C 0.27796 0.59156 0.47249
 C118 C 0.26744 0.56286 0.46580
 N119 N 0.26197 0.54737 0.49147
 C120 C 0.25992 0.55235 0.43668
 C121 C 0.25515 0.52134 0.43069
 C122 C 0.24107 0.50986 0.40526
 C123 C 0.24250 0.47888 0.40740
 C124 C 0.25745 0.47225 0.43407
 N125 N 0.26502 0.49827 0.44815
 C126 C 0.26528 0.44288 0.44405
 H127 H 0.29392 0.39136 0.47152
 H128 H 0.29595 0.39553 0.53086
 H129 H 0.27887 0.50018 0.46702
 H130 H 0.23856 0.47733 0.60310
 H131 H 0.23502 0.53664 0.59897
 H132 H 0.28561 0.61332 0.51614
 H133 H 0.28395 0.60928 0.45678
 H134 H 0.23353 0.46307 0.39113
 H135 H 0.28091 0.50403 0.52128
 H136 H 0.23081 0.52246 0.38704
 C137 C 0.98960 0.23170 0.09731
 C138 C 1.02048 0.23319 0.09637
 C139 C 1.02785 0.24858 0.07014
 N140 N 1.00267 0.25596 0.05472
 C141 C 0.97932 0.24582 0.07141
 C142 C 1.05718 0.25765 0.06159
 C143 C 1.06365 0.26470 0.03110
 C144 C 1.08806 0.28169 0.02124
 C145 C 1.08692 0.28181 -0.00969
 C146 C 1.06176 0.26501 -0.01791
 N147 N 1.04739 0.25508 0.00708
 C148 C 1.05359 0.25786 -0.04795
 C149 C 1.02302 0.25199 -0.05572
 C150 C 1.01306 0.24037 -0.08294
 C151 C 0.98216 0.24115 -0.08225
 C152 C 0.97391 0.25174 -0.05395
 N153 N 0.99905 0.25857 -0.03794
 C154 C 0.94395 0.25812 -0.04419
 C155 C 0.93685 0.26305 -0.01330
 C156 C 0.90899 0.27244 -0.00209
 C157 C 0.91047 0.27060 0.02881
 C158 C 0.93889 0.25967 0.03576
 N159 N 0.95475 0.25508 0.01010
 C160 C 0.94887 0.25194 0.06497
 H161 H 0.97621 0.22163 0.11508
 H162 H 1.03573 0.22424 0.11321
 H163 H 0.97519 0.24360 0.00860
 H164 H 1.10490 0.29294 0.03486
 H165 H 1.10280 0.29301 -0.02450
 H166 H 1.02649 0.23238 -0.10167
 H167 H 0.96790 0.23473 -0.10088
 H168 H 0.89231 0.27582 0.04429
 H169 H 1.02938 0.23989 0.00752
 H170 H 0.88903 0.27882 -0.01456
 C171 C 0.48218 0.70572 0.58873
 C172 C 0.51323 0.70582 0.58903
 C173 C 0.52239 0.71607 0.56096
 N174 N 0.49810 0.72223 0.54360
 C175 C 0.47351 0.71593 0.56050
 C176 C 0.55252 0.72172 0.55223
 C177 C 0.56052 0.72793 0.52202
 C178 C 0.58748 0.74113 0.51302
 C179 C 0.58789 0.74038 0.48209
 C180 C 0.56115 0.72682 0.47304
 N181 N 0.54445 0.71952 0.49751
 C182 C 0.55388 0.71940 0.44295
 C183 C 0.52383 0.71413 0.43355
 C184 C 0.51518 0.70378 0.40539
 C185 C 0.48408 0.70388 0.40506
 C186 C 0.47484 0.71428 0.43304
 N187 N 0.49916 0.72057 0.45034
 C188 C 0.44459 0.71977 0.44175
 C189 C 0.43652 0.72678 0.47179
 C190 C 0.40947 0.74006 0.48036
 C191 C 0.40917 0.74058 0.51131
 C192 C 0.43602 0.72756 0.52083
 N193 N 0.45269 0.71941 0.49659
 C194 C 0.44351 0.72146 0.55122
 H195 H 0.46769 0.69909 0.60723
 H196 H 0.52741 0.69929 0.60780
 H197 H 0.47217 0.70624 0.49698
 H198 H 0.60522 0.75001 0.52726
 H199 H 0.60601 0.74860 0.46789
 H200 H 0.52972 0.69707 0.38697
 H201 H 0.46994 0.69722 0.38633
 H202 H 0.39107 0.74927 0.52522
 H203 H 0.52512 0.70611 0.49756
 H204 H 0.39164 0.74828 0.46583
 C205 C 0.08737 0.78872 0.01013
 C206 C 0.08710 0.78615 -0.02066
 C207 C 0.06047 0.77140 -0.02825
 N208 N 0.04415 0.76557 -0.00318
 C209 C 0.06069 0.77597 0.02026
 C210 C 0.05251 0.76136 -0.05754
 C211 C 0.02174 0.75527 -0.06486
 C212 C 0.01202 0.73743 -0.08865
 C213 C -0.01905 0.73780 -0.08823
 C214 C -0.02772 0.75568 -0.06407
 N215 N -0.00270 0.76600 -0.04974
 C216 C -0.05816 0.76210 -0.05588
 C217 C -0.06581 0.77134 -0.02617
 C218 C -0.09306 0.78429 -0.01774
 C219 C -0.09303 0.78599 0.01304
 C220 C -0.06518 0.77525 0.02266
 N221 N -0.04868 0.76616 -0.00146
 C222 C -0.05648 0.77041 0.05312
 C223 C -0.02607 0.76366 0.06091
 C224 C -0.01586 0.75433 0.08910
 C225 C 0.01511 0.75443 0.08813
 C226 C 0.02319 0.76462 0.05978
 N227 N -0.00190 0.76994 0.04328
 C228 C 0.05290 0.77187 0.05078
 H229 H 0.10516 0.79872 0.02354
 H230 H 0.10467 0.79396 -0.03573
 H231 H -0.00239 0.78132 0.02276
 H232 H 0.02581 0.72485 -0.10437
 H233 H -0.03360 0.72563 -0.10359
 H234 H -0.11150 0.79116 -0.03221
 H235 H -0.11187 0.79370 0.02644
 H236 H 0.02991 0.74878 0.10669
 H237 H -0.00237 0.78145 -0.03204
 H238 H -0.02881 0.74919 0.10906
 C239 C 0.59050 0.26438 0.52574
 C240 C 0.59122 0.26377 0.49487
 C241 C 0.56421 0.25096 0.48564
 N242 N 0.54700 0.24377 0.50973
 C243 C 0.56311 0.25181 0.53427
 C244 C 0.55701 0.24324 0.45568
 C245 C 0.52714 0.23648 0.44657
 C246 C 0.51908 0.22309 0.41951
 C247 C 0.48795 0.22233 0.41875
 C248 C 0.47792 0.23522 0.44540
 N249 N 0.50192 0.24383 0.46215
 C250 C 0.44734 0.24038 0.45312
 C251 C 0.43835 0.24652 0.48301
 C252 C 0.41025 0.25742 0.49150
 C253 C 0.40960 0.25694 0.52238
 C254 C 0.43735 0.24583 0.53169
 N255 N 0.45495 0.23959 0.50761
 C256 C 0.44515 0.23901 0.56177
 C257 C 0.47548 0.23462 0.57085
 C258 C 0.48463 0.22209 0.59801
 C259 C 0.51572 0.22394 0.59877
 C260 C 0.52463 0.23747 0.57202
 N261 N 0.49999 0.24395 0.55521
 C262 C 0.55468 0.24488 0.56415
 H263 H 0.60834 0.27261 0.54025
 H264 H 0.60969 0.27147 0.48083
 H265 H 0.49971 0.25691 0.53563
 H266 H 0.53403 0.21486 0.40205
 H267 H 0.47430 0.21335 0.40063
 H268 H 0.39200 0.26464 0.47696
 H269 H 0.39077 0.26375 0.53637
 H270 H 0.53008 0.21625 0.61695
 H271 H 0.50107 0.25688 0.48163
 H272 H 0.47043 0.21273 0.61553
 C273 C 0.99399 0.08974 0.27950
 C274 C 1.02494 0.08949 0.28147
 C275 C 1.03455 0.06267 0.26853
 N276 N 1.01045 0.04629 0.25930
 C277 C 0.98568 0.06286 0.26587
 C278 C 1.06503 0.05365 0.26442
 C279 C 1.07189 0.02313 0.25761
 C280 C 1.09789 0.01330 0.24312
 C281 C 1.09707 -0.01766 0.24326
 C282 C 1.07040 -0.02592 0.25741
 N283 N 1.05490 -0.00097 0.26571
 C284 C 1.06219 -0.05590 0.26442
 C285 C 1.03181 -0.06452 0.26903
 C286 C 1.02222 -0.09286 0.27803
 C287 C 0.99129 -0.09286 0.27582
 C288 C 0.98281 -0.06419 0.26625
 N289 N 1.00778 -0.04711 0.26192
 C290 C 0.95319 -0.05512 0.25779
 C291 C 0.94624 -0.02452 0.25053
 C292 C 0.91940 -0.01442 0.23768
 C293 C 0.92046 0.01656 0.23732
 C294 C 0.94750 0.02486 0.25063
 N295 N 0.96311 -0.00021 0.25850
 C296 C 0.95584 0.05487 0.25781
 H297 H 0.97926 0.10756 0.28739
 H298 H 1.03870 0.10699 0.29151
 H299 H 0.98230 -0.00045 0.27201
 H300 H 1.11575 0.02701 0.23361
 H301 H 1.11424 -0.03243 0.23410
 H302 H 1.03605 -0.11191 0.28457
 H303 H 0.97707 -0.11226 0.27992
 H304 H 0.90280 0.03126 0.22902
 H305 H 1.03569 -0.00049 0.27931
 H306 H 0.90031 -0.02760 0.23017
 C307 C 0.48352 0.59124 0.79103
 C308 C 0.51459 0.59057 0.79139
 C309 C 0.52313 0.56404 0.77721
 N310 N 0.49843 0.54856 0.76824
 C311 C 0.47419 0.56507 0.77670
 C312 C 0.55316 0.55549 0.77055
 C313 C 0.56060 0.52683 0.75880
 C314 C 0.58746 0.51994 0.74421
 C315 C 0.58704 0.48946 0.73865
 C316 C 0.55995 0.47860 0.75000
 N317 N 0.54384 0.50155 0.76206
 C318 C 0.55175 0.44784 0.75114
 C319 C 0.52148 0.43851 0.75484
 C320 C 0.51205 0.40907 0.75970
 C321 C 0.48108 0.40950 0.75913
 C322 C 0.47262 0.43930 0.75459
 N323 N 0.49735 0.45691 0.75172
 C324 C 0.44270 0.44957 0.75067
 C325 C 0.43486 0.48050 0.74991
 C326 C 0.40723 0.49181 0.74039
 C327 C 0.40775 0.52234 0.74556
 C328 C 0.43545 0.52888 0.75863
 N329 N 0.45188 0.50325 0.76110
 C330 C 0.44393 0.55756 0.76984
 H331 H 0.46945 0.60903 0.80009
 H332 H 0.52919 0.60779 0.80071
 H333 H 0.47186 0.50079 0.77317
 H334 H 0.60564 0.53522 0.73839
 H335 H 0.60481 0.47668 0.72779
 H336 H 0.52595 0.38924 0.76293
 H337 H 0.46660 0.38998 0.76150
 H338 H 0.38949 0.53785 0.74070
 H339 H 0.52442 0.49947 0.77514
 H340 H 0.38832 0.47947 0.73112
 C341 C 1.01009 1.09064 0.76513
 C342 C 0.97922 1.09024 0.76215
 C343 C 0.97219 1.06469 0.74560
 N344 N 0.99765 1.04960 0.73816
 C345 C 1.02091 1.06562 0.74976
 C346 C 0.94291 1.05675 0.73570
 C347 C 0.93574 1.02705 0.72633
 C348 C 0.90951 1.01851 0.71153
 C349 C 0.91031 0.98749 0.70895
 C350 C 0.93707 0.97798 0.72214
 N351 N 0.95243 1.00221 0.73259
 C352 C 0.94569 0.94755 0.72666
 C353 C 0.97535 0.93937 0.73482
 C354 C 0.98359 0.91196 0.74743
 C355 C 1.01445 0.91241 0.75007
 C356 C 1.02402 0.93985 0.73840
 N357 N 1.00002 0.95646 0.72944
 C358 C 1.05436 0.94930 0.73507
 C359 C 1.06092 0.98021 0.73036
 C360 C 1.08655 0.99125 0.71612
 C361 C 1.08584 1.02206 0.71911
 C362 C 1.05976 1.02897 0.73506
 N363 N 1.04425 1.00340 0.74114
 C364 C 1.05172 1.05812 0.74532
 H365 H 1.02299 1.10742 0.77728
 H366 H 0.96370 1.10674 0.77129
 H367 H 1.02533 1.00162 0.75506
 H368 H 0.89144 1.03303 0.70379
 H369 H 0.89298 0.97350 0.69892
 H370 H 0.96887 0.89371 0.75432
 H371 H 1.02814 0.89463 0.75972
 H372 H 1.10273 1.03763 0.71075
 H373 H 0.97154 1.00147 0.74624
 H374 H 1.10412 0.97837 0.70506
 C375 C 0.41426 0.49004 0.23971
 C376 C 0.41595 0.52091 0.23879
 C377 C 0.44641 0.52826 0.23762
 N378 N 0.46325 0.50287 0.23856
 C379 C 0.44373 0.47948 0.24006
 C380 C 0.45795 0.55798 0.23547
 C381 C 0.48867 0.56533 0.23025
 C382 C 0.49870 0.59413 0.22304
 C383 C 0.52929 0.59229 0.21892
 C384 C 0.53739 0.56242 0.22370
 N385 N 0.51246 0.54612 0.23074
 C386 C 0.56742 0.55153 0.22133
 C387 C 0.57525 0.52060 0.22001
 C388 C 0.60407 0.50957 0.21456
 C389 C 0.60194 0.47874 0.21473
 C390 C 0.57212 0.47183 0.22138
 N391 N 0.55586 0.49743 0.22421
 C392 C 0.56111 0.44248 0.22735
 C393 C 0.53116 0.43623 0.23654
 C394 C 0.52247 0.40967 0.25068
 C395 C 0.49199 0.41160 0.25548
 C396 C 0.48271 0.43922 0.24406
 N397 N 0.50677 0.45425 0.23257
 C398 C 0.45226 0.44893 0.24350
 H399 H 0.39357 0.47706 0.24039
 H400 H 0.39679 0.53605 0.23869
 H401 H 0.50608 0.47399 0.21989
 H402 H 0.48531 0.61440 0.22038
 H403 H 0.54383 0.61086 0.21250
 H404 H 0.62466 0.52216 0.21088
 H405 H 0.62055 0.46331 0.21124
 H406 H 0.47824 0.39456 0.26634
 H407 H 0.51202 0.52383 0.23770
 H408 H 0.53667 0.39088 0.25720
 O409 O 0.25674 0.16633 0.21061
 O410 O 0.28730 0.15770 0.25364
 O411 O 0.18066 0.21356 0.24748
 O412 O 0.17227 0.25571 0.27366
 O413 O 0.22365 0.24562 0.16653
 O414 O 0.26797 0.27321 0.15650
 O415 O 0.26565 0.29406 0.32158
 O416 O 0.22761 0.25937 0.33101
 O417 O 0.34038 0.24759 0.28815
 O418 O 0.34854 0.20869 0.25146
 O419 O 0.31058 0.32164 0.24342
 O420 O 0.27014 0.33296 0.20777
 O421 O 0.27046 0.32729 0.28273
 O422 O 0.23594 0.33606 0.23783
 O423 O 0.34389 0.28256 0.24297
 O424 O 0.34812 0.23378 0.21327
 O425 O 0.30394 0.25191 0.32408
 O426 O 0.26130 0.21704 0.33225
 O427 O 0.25994 0.19958 0.17162
 O428 O 0.29908 0.23741 0.16149
 O429 O 0.18647 0.25231 0.20123
 O430 O 0.18163 0.29078 0.24201
 O431 O 0.21320 0.17406 0.25204
 O432 O 0.25472 0.16454 0.28682
 Zr433 Zr 0.25654 0.19392 0.24929
 O434 O 0.28699 0.21933 0.27552
 Zr435 Zr 0.20882 0.25148 0.24331
 O436 O 0.23655 0.27873 0.27066
 Zr437 Zr 0.26297 0.24219 0.19236
 O438 O 0.29259 0.27035 0.21646
 Zr439 Zr 0.26297 0.25213 0.29969
 O440 O 0.23184 0.22495 0.27554
 Zr441 Zr 0.31647 0.24392 0.24757
 O442 O 0.28885 0.21506 0.22141
 Zr443 Zr 0.26801 0.30099 0.24317
 O444 O 0.23840 0.27582 0.21532
 O445 O 0.23168 0.21906 0.21853
 O446 O 0.29377 0.27600 0.27333
 C447 C 0.25790 0.17267 0.18233
 C448 C 0.18639 0.18531 0.25082
 C449 C 0.19594 0.24968 0.17391
 C450 C 0.26896 0.32089 0.31099
 C451 C 0.33169 0.25036 0.31557
 C452 C 0.33742 0.31082 0.24262
 H453 H 0.29802 0.20579 0.28941
 H454 H 0.30613 0.28068 0.20206
 H455 H 0.21775 0.20646 0.20645
 H456 H 0.22387 0.29299 0.28221
 H457 H 0.21264 0.24310 0.32768
 H458 H 0.18081 0.26323 0.29280
 H459 H 0.34720 0.25019 0.19816
 H460 H 0.31157 0.22033 0.16867
 H461 H 0.26554 0.22599 0.35228
 H462 H 0.24021 0.17350 0.30124
 H463 H 0.28511 0.32562 0.19294
 H464 H 0.25706 0.29172 0.16261
 H465 H 0.30502 0.16294 0.24107
 H466 H 0.34061 0.19389 0.26615
 H467 H 0.18862 0.30294 0.22464
 H468 H 0.22262 0.33602 0.25573
 O469 O 0.76162 0.83342 0.22296
 O470 O 0.72701 0.83885 0.26387
 O471 O 0.83654 0.78906 0.26503
 O472 O 0.84506 0.74632 0.29033
 O473 O 0.80233 0.75900 0.17925
 O474 O 0.76359 0.72682 0.16562
 O475 O 0.74822 0.70131 0.32851
 O476 O 0.78411 0.73725 0.34285
 O477 O 0.67561 0.75060 0.29043
 O478 O 0.66822 0.78439 0.25209
 O479 O 0.71341 0.67442 0.24528
 O480 O 0.75721 0.66625 0.21408
 O481 O 0.75182 0.66920 0.28864
 O482 O 0.78916 0.66432 0.24595
 O483 O 0.67811 0.71155 0.24931
 O484 O 0.67636 0.75981 0.21340
 O485 O 0.70835 0.74066 0.32862
 O486 O 0.74813 0.77799 0.34217
 O487 O 0.76114 0.80125 0.18305
 O488 O 0.72500 0.76068 0.17029
 O489 O 0.83639 0.75026 0.21683
 O490 O 0.84029 0.71205 0.25821
 O491 O 0.80163 0.82681 0.26614
 O492 O 0.75810 0.83225 0.29927
 Zr493 Zr 0.76000 0.80449 0.26058
 O494 O 0.72861 0.77688 0.28320
 Zr495 Zr 0.81090 0.74973 0.25729
 O496 O 0.78221 0.72016 0.28123
 Zr497 Zr 0.76087 0.75773 0.20191
 O498 O 0.73079 0.72734 0.22261
 Zr499 Zr 0.75165 0.74418 0.30850
 O500 O 0.78362 0.77371 0.28814
 Zr501 Zr 0.70313 0.75183 0.25214
 O502 O 0.73144 0.78279 0.22943
 Zr503 Zr 0.75470 0.69717 0.25031
 O504 O 0.78521 0.72488 0.22621
 O505 O 0.78853 0.78158 0.23136
 O506 O 0.72492 0.71978 0.27871
 C507 C 0.76120 0.82786 0.19455
 C508 C 0.82887 0.81693 0.26752
 C509 C 0.82923 0.75431 0.18896
 C510 C 0.74916 0.67472 0.31696
 C511 C 0.68154 0.74485 0.31811
 C512 C 0.68603 0.68382 0.24647
 H513 H 0.71568 0.78963 0.29619
 H514 H 0.71884 0.71670 0.20709
 H515 H 0.80259 0.79529 0.22067
 H516 H 0.79461 0.70625 0.29352
 H517 H 0.79823 0.75456 0.34188
 H518 H 0.83485 0.74013 0.30915
 H519 H 0.67326 0.74028 0.20305
 H520 H 0.73300 0.76899 0.15111
 H521 H 0.74226 0.76798 0.36129
 H522 H 0.77200 0.82326 0.31427
 H523 H 0.74452 0.67423 0.19756
 H524 H 0.77567 0.70943 0.17277
 H525 H 0.71176 0.83460 0.24813
 H526 H 0.67539 0.80153 0.26443
 H527 H 0.83594 0.69997 0.23996
 H528 H 0.80145 0.66474 0.26456
 O529 O 0.74224 0.17766 0.80383
 O530 O 0.70596 0.17260 0.76360
 O531 O 0.82159 0.20429 0.75397
 O532 O 0.83668 0.24319 0.72591
 O533 O 0.79485 0.25138 0.83680
 O534 O 0.75757 0.28898 0.84712
 O535 O 0.74571 0.29665 0.68273
 O536 O 0.77840 0.25564 0.67320
 O537 O 0.66891 0.26399 0.72439
 O538 O 0.65855 0.23201 0.76796
 O539 O 0.71671 0.33721 0.76223
 O540 O 0.76316 0.34107 0.79350
 O541 O 0.75478 0.33203 0.71879
 O542 O 0.79202 0.33801 0.75901
 O543 O 0.67658 0.30512 0.76197
 O544 O 0.66492 0.26405 0.79991
 O545 O 0.70254 0.25955 0.68592
 O546 O 0.73853 0.21893 0.67745
 O547 O 0.74667 0.21429 0.83949
 O548 O 0.72079 0.26001 0.84962
 O549 O 0.82880 0.24473 0.79879
 O550 O 0.83729 0.28055 0.75602
 O551 O 0.78181 0.17228 0.75951
 O552 O 0.73754 0.16845 0.72861
 Zr553 Zr 0.74420 0.20120 0.76258
 O554 O 0.71740 0.22999 0.73593
 Zr555 Zr 0.80273 0.24765 0.75912
 O556 O 0.77844 0.27837 0.73203
 Zr557 Zr 0.75290 0.25421 0.81484
 O558 O 0.72666 0.28531 0.79045
 Zr559 Zr 0.74490 0.25583 0.70728
 O560 O 0.77186 0.22438 0.73142
 Zr561 Zr 0.69565 0.26182 0.76339
 O562 O 0.71956 0.23069 0.79053
 Zr563 Zr 0.75447 0.30840 0.75981
 O564 O 0.78149 0.27981 0.78692
 O565 O 0.77630 0.22289 0.78885
 O566 O 0.72177 0.28707 0.73361
 C567 C 0.74292 0.18676 0.83133
 C568 C 0.81007 0.17766 0.75548
 C569 C 0.82176 0.24744 0.82675
 C570 C 0.75038 0.32403 0.69134
 C571 C 0.67556 0.26232 0.69631
 C572 C 0.68823 0.33164 0.76207
 H573 H 0.70298 0.21757 0.72427
 H574 H 0.71650 0.29922 0.80459
 H575 H 0.78820 0.20841 0.80103
 H576 H 0.79249 0.28908 0.71838
 H577 H 0.79062 0.23718 0.67640
 H578 H 0.82847 0.25200 0.70716
 H579 H 0.66990 0.28210 0.81204
 H580 H 0.70227 0.24936 0.84305
 H581 H 0.73474 0.22711 0.65698
 H582 H 0.75097 0.17409 0.71168
 H583 H 0.74713 0.33933 0.80894
 H584 H 0.77305 0.30305 0.83921
 H585 H 0.69195 0.18118 0.77874
 H586 H 0.66087 0.21596 0.75266
 H587 H 0.83448 0.29456 0.77317
 H588 H 0.80594 0.33097 0.74307
 O589 O 0.23978 0.83265 0.77955
 O590 O 0.27354 0.84105 0.73865
 O591 O 0.16638 0.78685 0.73231
 O592 O 0.16053 0.74363 0.70656
 O593 O 0.19808 0.75405 0.81880
 O594 O 0.24145 0.72473 0.83331
 O595 O 0.25613 0.70542 0.66957
 O596 O 0.22035 0.74131 0.65648
 O597 O 0.32825 0.75500 0.70950
 O598 O 0.33016 0.79316 0.75105
 O599 O 0.29494 0.67802 0.75361
 O600 O 0.24997 0.66672 0.78359
 O601 O 0.25902 0.67219 0.70865
 O602 O 0.22033 0.66272 0.74948
 O603 O 0.32801 0.71724 0.75138
 O604 O 0.33103 0.76208 0.78438
 O605 O 0.29575 0.74465 0.67124
 O606 O 0.25585 0.78203 0.65834
 O607 O 0.23750 0.79942 0.81863
 O608 O 0.27260 0.76066 0.83339
 O609 O 0.16525 0.74990 0.77962
 O610 O 0.16530 0.70955 0.74065
 O611 O 0.19952 0.82601 0.73527
 O612 O 0.24275 0.83540 0.70376
 Zr613 Zr 0.24185 0.80540 0.74083
 O614 O 0.27439 0.78014 0.71727
 Zr615 Zr 0.19304 0.74848 0.74110
 O616 O 0.22353 0.72073 0.71738
 Zr617 Zr 0.24094 0.75675 0.79797
 O618 O 0.27358 0.72925 0.77684
 Zr619 Zr 0.25268 0.74727 0.69113
 O620 O 0.21968 0.77490 0.71185
 Zr621 Zr 0.30062 0.75568 0.74812
 O622 O 0.27036 0.78377 0.77203
 Zr623 Zr 0.25216 0.69837 0.74792
 O624 O 0.21916 0.72352 0.77203
 O625 O 0.21335 0.78053 0.76855
 O626 O 0.28066 0.72346 0.72041
 C627 C 0.23820 0.82635 0.80778
 C628 C 0.17280 0.81516 0.73189
 C629 C 0.17120 0.75194 0.80790
 C630 C 0.25922 0.67869 0.68034
 C631 C 0.32242 0.74908 0.68177
 C632 C 0.32185 0.68903 0.75342
 H633 H 0.28675 0.79373 0.70457
 H634 H 0.28574 0.71884 0.79236
 H635 H 0.19864 0.79355 0.77919
 H636 H 0.21205 0.70644 0.70467
 H637 H 0.20571 0.75813 0.65837
 H638 H 0.17106 0.73481 0.68902
 H639 H 0.32690 0.74633 0.79964
 H640 H 0.28845 0.77470 0.82622
 H641 H 0.26211 0.77268 0.63902
 H642 H 0.23088 0.82574 0.68751
 H643 H 0.26263 0.67449 0.80022
 H644 H 0.22924 0.70736 0.82636
 H645 H 0.28933 0.83647 0.75376
 H646 H 0.32759 0.80538 0.73256
 H647 H 0.17075 0.69748 0.75862
 H648 H 0.20776 0.66396 0.73110
 O649 O 0.25172 0.33243 0.70450
 O650 O 0.21509 0.34591 0.74272
 O651 O 0.32236 0.29503 0.76240
 O652 O 0.32959 0.25464 0.79117
 O653 O 0.29312 0.24968 0.67887
 O654 O 0.25018 0.21705 0.66888
 O655 O 0.23177 0.22242 0.83254
 O656 O 0.26901 0.25958 0.84042
 O657 O 0.16121 0.26456 0.78546
 O658 O 0.15942 0.29717 0.73944
 O659 O 0.19564 0.18332 0.75412
 O660 O 0.24150 0.16867 0.72481
 O661 O 0.23299 0.18391 0.79869
 O662 O 0.26931 0.16831 0.76035
 O663 O 0.16246 0.22177 0.74697
 O664 O 0.15945 0.26273 0.71002
 O665 O 0.19382 0.26214 0.82490
 O666 O 0.23353 0.29997 0.83276
 O667 O 0.25142 0.29332 0.67128
 O668 O 0.21945 0.25178 0.66172
 O669 O 0.32525 0.25264 0.71877
 O670 O 0.32487 0.21723 0.76252
 O671 O 0.28978 0.33311 0.75084
 O672 O 0.24592 0.34716 0.77853
 Zr673 Zr 0.24779 0.31140 0.74710
 O674 O 0.21532 0.28956 0.77416
 Zr675 Zr 0.29684 0.25549 0.75653
 O676 O 0.26638 0.23113 0.78360
 Zr677 Zr 0.24980 0.25451 0.69838
 O678 O 0.21691 0.23052 0.72297
 Zr679 Zr 0.23675 0.26093 0.80523
 O680 O 0.26952 0.28573 0.78090
 Zr681 Zr 0.18936 0.26069 0.74718
 O682 O 0.21979 0.28489 0.71941
 Zr683 Zr 0.23831 0.20444 0.75625
 O684 O 0.27157 0.22591 0.72930
 O685 O 0.27689 0.28285 0.72408
 O686 O 0.20915 0.23290 0.77951
 C687 C 0.25186 0.32160 0.67759
 C688 C 0.31594 0.32297 0.75812
 C689 C 0.31977 0.25016 0.69048
 C690 C 0.23094 0.19421 0.82570
 C691 C 0.16713 0.26387 0.81383
 C692 C 0.16880 0.19369 0.75007
 H693 H 0.20282 0.30477 0.78466
 H694 H 0.20500 0.21796 0.70893
 H695 H 0.29163 0.29453 0.71198
 H696 H 0.27782 0.21896 0.79838
 H697 H 0.28341 0.27626 0.83657
 H698 H 0.31879 0.24984 0.81006
 H699 H 0.16416 0.24556 0.69659
 H700 H 0.20261 0.26571 0.66637
 H701 H 0.22782 0.29341 0.85336
 H702 H 0.25606 0.33980 0.79699
 H703 H 0.22697 0.17274 0.70838
 H704 H 0.26317 0.20153 0.67836
 H705 H 0.20051 0.33898 0.72730
 H706 H 0.16219 0.31197 0.75588
 H707 H 0.32046 0.20321 0.74572
 H708 H 0.28438 0.17406 0.77576
 O709 O 0.74539 0.67329 0.71246
 O710 O 0.77794 0.66618 0.75291
 O711 O 0.66784 0.71441 0.75561
 O712 O 0.65902 0.75473 0.78436
 O713 O 0.69949 0.74825 0.67273
 O714 O 0.74005 0.78084 0.65847
 O715 O 0.75243 0.79981 0.82367
 O716 O 0.71923 0.76218 0.83637
 O717 O 0.82775 0.75898 0.78284
 O718 O 0.83454 0.72222 0.74251
 O719 O 0.78705 0.83252 0.74274
 O720 O 0.74521 0.84172 0.71176
 O721 O 0.74972 0.83388 0.78533
 O722 O 0.71065 0.83905 0.74225
 O723 O 0.82397 0.79696 0.74024
 O724 O 0.82985 0.75060 0.70714
 O725 O 0.79456 0.76107 0.82189
 O726 O 0.75587 0.72249 0.83299
 O727 O 0.74166 0.70647 0.67343
 O728 O 0.77500 0.74846 0.65997
 O729 O 0.66585 0.75362 0.71112
 O730 O 0.66237 0.79119 0.75286
 O731 O 0.70324 0.67712 0.75602
 O732 O 0.74833 0.67160 0.78894
 Zr733 Zr 0.74485 0.70050 0.75114
 O734 O 0.77583 0.72805 0.77443
 Zr735 Zr 0.69251 0.75415 0.75042
 O736 O 0.72037 0.78303 0.77558
 Zr737 Zr 0.74183 0.74938 0.69425
 O738 O 0.77122 0.77986 0.71602
 Zr739 Zr 0.75156 0.75825 0.80141
 O740 O 0.72029 0.72911 0.77997
 Zr741 Zr 0.80032 0.75556 0.74436
 O742 O 0.77257 0.72460 0.72066
 Zr743 Zr 0.74688 0.80802 0.74548
 O744 O 0.71701 0.78089 0.71988
 O745 O 0.71539 0.72372 0.72309
 O746 O 0.77746 0.78512 0.77278
 C747 C 0.74385 0.67958 0.68425
 C748 C 0.67569 0.68659 0.75686
 C749 C 0.67248 0.75066 0.68310
 C750 C 0.75148 0.82691 0.81344
 C751 C 0.82154 0.76085 0.81104
 C752 C 0.81480 0.82452 0.74108
 H753 H 0.78925 0.71524 0.78684
 H754 H 0.78244 0.79171 0.70082
 H755 H 0.70180 0.70998 0.71191
 H756 H 0.70760 0.79602 0.78846
 H757 H 0.70528 0.74483 0.83424
 H758 H 0.66883 0.76252 0.80277
 H759 H 0.82605 0.76752 0.69307
 H760 H 0.79047 0.73366 0.66639
 H761 H 0.76140 0.73133 0.85276
 H762 H 0.73274 0.67817 0.80353
 H763 H 0.75359 0.83277 0.69316
 H764 H 0.72662 0.79738 0.66522
 H765 H 0.79505 0.67337 0.74046
 H766 H 0.83085 0.70780 0.75913
 H767 H 0.66548 0.80343 0.73444
 H768 H 0.70007 0.83928 0.76189
 O769 O 0.26152 0.66357 0.27038
 O770 O 0.22648 0.65922 0.22817
 O771 O 0.33646 0.70943 0.23380
 O772 O 0.34516 0.75231 0.20809
 O773 O 0.29768 0.73831 0.31672
 O774 O 0.25374 0.76915 0.32845
 O775 O 0.25115 0.79735 0.16618
 O776 O 0.29143 0.76377 0.15512
 O777 O 0.17851 0.74857 0.19555
 O778 O 0.17140 0.70759 0.23426
 O779 O 0.20944 0.82118 0.24712
 O780 O 0.25174 0.82866 0.28252
 O781 O 0.25099 0.82863 0.20688
 O782 O 0.28388 0.83459 0.25151
 O783 O 0.17554 0.78326 0.24022
 O784 O 0.16786 0.73662 0.26931
 O785 O 0.21540 0.75445 0.16033
 O786 O 0.25742 0.72155 0.15022
 O787 O 0.25623 0.69491 0.31063
 O788 O 0.22234 0.73391 0.32472
 O789 O 0.33365 0.74671 0.28107
 O790 O 0.33923 0.78608 0.24364
 O791 O 0.30185 0.67222 0.22583
 O792 O 0.25948 0.66341 0.19552
 Zr793 Zr 0.25994 0.69297 0.23287
 O794 O 0.23073 0.72054 0.20756
 Zr795 Zr 0.30999 0.74839 0.24016
 O796 O 0.28267 0.77841 0.21544
 Zr797 Zr 0.25677 0.73856 0.29204
 O798 O 0.22690 0.76801 0.26946
 Zr799 Zr 0.25556 0.75415 0.18523
 O800 O 0.28541 0.72425 0.20744
 Zr801 Zr 0.20204 0.74420 0.23679
 O802 O 0.22911 0.71399 0.26220
 Zr803 Zr 0.25190 0.79973 0.24459
 O804 O 0.28182 0.77235 0.26998
 O805 O 0.28656 0.71558 0.26411
 O806 O 0.22543 0.77724 0.21298
 C807 C 0.25887 0.66855 0.29884
 C808 C 0.32904 0.68207 0.22759
 C809 C 0.32525 0.74260 0.30845
 C810 C 0.25024 0.82366 0.17836
 C811 C 0.18767 0.75201 0.16824
 C812 C 0.18233 0.81111 0.24432
 H813 H 0.21952 0.70783 0.19306
 H814 H 0.21354 0.77787 0.28434
 H815 H 0.30027 0.70183 0.27517
 H816 H 0.29550 0.79315 0.20466
 H817 H 0.30592 0.74681 0.15682
 H818 H 0.33790 0.76586 0.19193
 H819 H 0.17126 0.75079 0.28618
 H820 H 0.20616 0.72179 0.31520
 H821 H 0.25454 0.73206 0.13068
 H822 H 0.26986 0.67415 0.17892
 H823 H 0.23630 0.82109 0.29676
 H824 H 0.26777 0.78595 0.32387
 H825 H 0.21119 0.66301 0.24401
 H826 H 0.17614 0.69600 0.21582
 H827 H 0.33172 0.79858 0.26053
 H828 H 0.29901 0.83339 0.23515
 O829 O 0.75771 0.32404 0.29371
 O830 O 0.79152 0.32722 0.25113
 O831 O 0.67699 0.29032 0.25053
 O832 O 0.66372 0.24932 0.22377
 O833 O 0.70765 0.24972 0.33432
 O834 O 0.74886 0.21613 0.34653
 O835 O 0.75075 0.19671 0.18251
 O836 O 0.71778 0.23694 0.17212
 O837 O 0.82988 0.23611 0.21690
 O838 O 0.83913 0.27328 0.26045
 O839 O 0.78881 0.16342 0.26449
 O840 O 0.74364 0.15936 0.29714
 O841 O 0.75066 0.16322 0.22144
 O842 O 0.71346 0.15828 0.26348
 O843 O 0.82717 0.19721 0.25976
 O844 O 0.84051 0.23835 0.29031
 O845 O 0.79362 0.23120 0.18095
 O846 O 0.75859 0.27295 0.17112
 O847 O 0.75140 0.29104 0.33254
 O848 O 0.78321 0.24864 0.34526
 O849 O 0.67269 0.25232 0.29681
 O850 O 0.66422 0.21409 0.25816
 O851 O 0.71583 0.32403 0.25212
 O852 O 0.75784 0.32747 0.21814
 Zr853 Zr 0.75460 0.29713 0.25479
 O854 O 0.78123 0.26767 0.22888
 Zr855 Zr 0.69787 0.24805 0.25708
 O856 O 0.72235 0.21613 0.23191
 Zr857 Zr 0.74958 0.24844 0.31145
 O858 O 0.77676 0.21698 0.28828
 Zr859 Zr 0.75322 0.23863 0.20411
 O860 O 0.72641 0.27084 0.22679
 Zr861 Zr 0.80559 0.23932 0.25782
 O862 O 0.78136 0.27108 0.28412
 Zr863 Zr 0.74932 0.18981 0.26080
 O864 O 0.72169 0.21921 0.28653
 O865 O 0.72415 0.27620 0.28369
 O866 O 0.77939 0.21072 0.23146
 C867 C 0.75515 0.31780 0.32188
 C868 C 0.68770 0.31732 0.25027
 C869 C 0.68027 0.25172 0.32470
 C870 C 0.75089 0.16974 0.19317
 C871 C 0.82123 0.23224 0.18949
 C872 C 0.81700 0.17024 0.26284
 H873 H 0.79450 0.27963 0.21547
 H874 H 0.78827 0.20487 0.30305
 H875 H 0.71177 0.29075 0.29525
 H876 H 0.70833 0.20364 0.21988
 H877 H 0.70600 0.25579 0.17457
 H878 H 0.67044 0.23636 0.20694
 H879 H 0.83154 0.23079 0.30927
 H880 H 0.79967 0.26183 0.33782
 H881 H 0.76124 0.26308 0.15125
 H882 H 0.74400 0.31984 0.20238
 H883 H 0.75969 0.16360 0.31205
 H884 H 0.73389 0.20062 0.34062
 H885 H 0.80630 0.32124 0.26677
 H886 H 0.83859 0.28487 0.24139
 H887 H 0.66983 0.19995 0.27451
 H888 H 0.69962 0.16215 0.24643
 C889 C 0.22320 0.10963 0.06300
 C890 C 0.23407 0.08047 0.06992
 C891 C 0.24756 0.07580 0.09840
 C892 C 0.25010 0.09951 0.11925
 C893 C 0.23961 0.12860 0.11152
 C894 C 0.22609 0.13338 0.08343
 C895 C 0.24268 0.15245 0.13206
 C896 C 0.25557 0.14753 0.16059
 C897 C 0.26549 0.11840 0.16830
 C898 C 0.26306 0.09466 0.14770
 H899 H 0.25706 0.05397 0.10408
 H900 H 0.21759 0.15548 0.07728
 H901 H 0.23454 0.17474 0.12604
 H902 H 0.27115 0.07247 0.15407
 H903 H 0.21194 0.11405 0.04178
 H904 H 0.27545 0.11409 0.19017
 C905 C 0.70694 0.60363 0.57309
 C906 C 0.72592 0.57879 0.57868
 C907 C 0.74441 0.57891 0.60440
 C908 C 0.74420 0.60368 0.62412
 C909 C 0.72570 0.62896 0.61779
 C910 C 0.70697 0.62858 0.59233
 C911 C 0.72618 0.65411 0.63707
 C912 C 0.74423 0.65389 0.66310
 C913 C 0.76202 0.62841 0.66951
 C914 C 0.76228 0.60367 0.65003
 H915 H 0.75924 0.55992 0.60874
 H916 H 0.69244 0.64760 0.58724
 H917 H 0.71205 0.67351 0.63224
 H918 H 0.77649 0.58447 0.65532
 H919 H 0.69247 0.60388 0.55342
 H920 H 0.77604 0.62780 0.68950
 C921 C 0.73808 0.89270 0.07386
 C922 C 0.75027 0.92114 0.08142
 C923 C 0.76147 0.92546 0.11090
 C924 C 0.76100 0.90180 0.13197
 C925 C 0.74939 0.87335 0.12353
 C926 C 0.73781 0.86910 0.09456
 C927 C 0.74956 0.84948 0.14415
 C928 C 0.76091 0.85357 0.17339
 C929 C 0.77196 0.88205 0.18189
 C930 C 0.77219 0.90596 0.16127
 H931 H 0.77154 0.94686 0.11718
 H932 H 0.72846 0.84750 0.08790
 H933 H 0.74063 0.82771 0.13743
 H934 H 0.78115 0.92763 0.16819
 H935 H 0.72819 0.88874 0.05189
 H936 H 0.78088 0.88569 0.20432
 C937 C 0.28721 0.43545 0.60415
 C938 C 0.27010 0.42886 0.57828
 C939 C 0.25302 0.40215 0.57745
 C940 C 0.25299 0.38227 0.60208
 C941 C 0.26965 0.38946 0.62832
 C942 C 0.28682 0.41606 0.62903
 C943 C 0.26890 0.36988 0.65328
 C944 C 0.25241 0.34280 0.65191
 C945 C 0.23650 0.33563 0.62548
 C946 C 0.23650 0.35531 0.60092
 H947 H 0.23956 0.39702 0.55769
 H948 H 0.29993 0.42187 0.64881
 H949 H 0.28155 0.37537 0.67347
 H950 H 0.22372 0.34938 0.58096
 H951 H 0.30061 0.45589 0.60517
 H952 H 0.22360 0.31489 0.62400
 C953 C 0.76369 0.06554 0.89676
 C954 C 0.74763 0.07248 0.92320
 C955 C 0.73343 0.10067 0.92584
 C956 C 0.73538 0.12181 0.90241
 C957 C 0.75104 0.11436 0.87563
 C958 C 0.76512 0.08618 0.87304
 C959 C 0.75273 0.13540 0.85207
 C960 C 0.73980 0.16411 0.85536
 C961 C 0.72468 0.17150 0.88219
 C962 C 0.72217 0.15039 0.90541
 H963 H 0.72102 0.10612 0.94619
 H964 H 0.77746 0.08020 0.85281
 H965 H 0.76481 0.12978 0.83156
 H966 H 0.71021 0.15652 0.92581
 H967 H 0.77510 0.04403 0.89449
 H968 H 0.71456 0.19357 0.88506
 C969 C 0.23473 0.59923 0.41734
 C970 C 0.25471 0.57507 0.41233
 C971 C 0.27001 0.57319 0.38457
 C972 C 0.26602 0.59567 0.36249
 C973 C 0.24688 0.62051 0.36848
 C974 C 0.23108 0.62187 0.39578
 C975 C 0.24418 0.64385 0.34727
 C976 C 0.25991 0.64258 0.31979
 C977 C 0.27792 0.61724 0.31345
 C978 C 0.28114 0.59408 0.33472
 H979 H 0.28532 0.55454 0.38046
 H980 H 0.21606 0.64058 0.40059
 H981 H 0.22998 0.66317 0.35223
 H982 H 0.29576 0.57514 0.32962
 H983 H 0.22234 0.60082 0.43833
 H984 H 0.29035 0.61586 0.29246
 C985 C 0.20517 0.89507 0.92466
 C986 C 0.22144 0.92159 0.91841
 C987 C 0.23688 0.92420 0.89087
 C988 C 0.23649 0.90044 0.87001
 C989 C 0.22093 0.87342 0.87697
 C990 C 0.20510 0.87109 0.90424
 C991 C 0.22160 0.84919 0.85662
 C992 C 0.23705 0.85188 0.82908
 C993 C 0.25167 0.87914 0.82201
 C994 C 0.25163 0.90312 0.84241
 H995 H 0.24956 0.94457 0.88594
 H996 H 0.19281 0.85068 0.90984
 H997 H 0.20993 0.82836 0.86207
 H998 H 0.26353 0.92371 0.83664
 H999 H 0.19289 0.89277 0.94565
 H1000 H 0.26373 0.88168 0.80092
 C1001 C 0.71361 0.39222 0.43205
 C1002 C 0.73202 0.41759 0.42710
 C1003 C 0.75139 0.41813 0.40202
 C1004 C 0.75260 0.39340 0.38227
 C1005 C 0.73459 0.36763 0.38798
 C1006 C 0.71502 0.36738 0.41279
 C1007 C 0.73629 0.34263 0.36867
 C1008 C 0.75510 0.34334 0.34319
 C1009 C 0.77248 0.36923 0.33735
 C1010 C 0.77153 0.39392 0.35692
 H1011 H 0.76573 0.43760 0.39818
 H1012 H 0.70087 0.34794 0.41736
 H1013 H 0.72236 0.32295 0.37298
 H1014 H 0.78537 0.41351 0.35210
 H1015 H 0.69848 0.39151 0.45123
 H1016 H 0.78698 0.37025 0.31771
 C1017 C 0.07292 0.27334 0.11232
 C1018 C 0.07982 0.26049 0.08404
 C1019 C 0.10932 0.24965 0.07904
 C1020 C 0.13096 0.25048 0.10209
 C1021 C 0.12329 0.26251 0.13057
 C1022 C 0.09435 0.27424 0.13530
 C1023 C 0.14457 0.26236 0.15396
 C1024 C 0.17359 0.25050 0.14921
 C1025 C 0.18115 0.23901 0.12062
 C1026 C 0.16001 0.23892 0.09732
 H1027 H 0.11506 0.23924 0.05768
 H1028 H 0.08818 0.28392 0.15686
 H1029 H 0.13853 0.27147 0.17582
 H1030 H 0.16631 0.22960 0.07564
 H1031 H 0.05082 0.28290 0.11665
 H1032 H 0.20333 0.22960 0.11635
 C1033 C 0.60258 0.70422 0.57197
 C1034 C 0.57674 0.72231 0.57547
 C1035 C 0.57481 0.74204 0.60017
 C1036 C 0.59865 0.74402 0.62091
 C1037 C 0.62499 0.72646 0.61657
 C1038 C 0.62660 0.70642 0.59222
 C1039 C 0.64927 0.72924 0.63667
 C1040 C 0.64726 0.74871 0.66153
 C1041 C 0.62072 0.76543 0.66616
 C1042 C 0.59672 0.76338 0.64581
 H1043 H 0.55496 0.75613 0.60290
 H1044 H 0.64649 0.69258 0.58874
 H1045 H 0.66949 0.71583 0.63331
 H1046 H 0.57663 0.77685 0.64960
 H1047 H 0.60434 0.68880 0.55313
 H1048 H 0.61874 0.78043 0.68533
 C1049 C 0.10366 0.74298 0.93004
 C1050 C 0.07596 0.75602 0.92096
 C1051 C 0.07257 0.76395 0.89029
 C1052 C 0.09643 0.75985 0.86969
 C1053 C 0.12432 0.74795 0.87967
 C1054 C 0.12753 0.73929 0.90980
 C1055 C 0.14861 0.74509 0.85943
 C1056 C 0.14527 0.75345 0.82906
 C1057 C 0.11714 0.76449 0.81917
 C1058 C 0.09305 0.76786 0.83931
 H1059 H 0.05182 0.77443 0.88262
 H1060 H 0.14856 0.72963 0.91779
 H1061 H 0.17009 0.73637 0.86731
 H1062 H 0.07184 0.77694 0.83114
 H1063 H 0.10689 0.73527 0.95297
 H1064 H 0.11398 0.77129 0.79594
 C1065 C 0.60698 0.22204 0.43963
 C1066 C 0.58216 0.24089 0.43355
 C1067 C 0.58195 0.25826 0.40711
 C1068 C 0.60642 0.25701 0.38703
 C1069 C 0.63166 0.23855 0.39370
 C1070 C 0.63163 0.22105 0.42001
 C1071 C 0.65631 0.23762 0.37378
 C1072 C 0.65556 0.25416 0.34682
 C1073 C 0.63028 0.27220 0.34026
 C1074 C 0.60605 0.27388 0.36033
 H1075 H 0.56287 0.27286 0.40238
 H1076 H 0.65062 0.20659 0.42539
 H1077 H 0.67561 0.22339 0.37877
 H1078 H 0.58691 0.28809 0.35481
 H1079 H 0.60739 0.20837 0.45987
 H1080 H 0.62934 0.28518 0.31958
 C1081 C 0.90606 0.79935 0.08183
 C1082 C 0.92152 0.77216 0.07621
 C1083 C 0.91544 0.74700 0.09467
 C1084 C 0.89512 0.74919 0.11882
 C1085 C 0.87915 0.77639 0.12364
 C1086 C 0.88471 0.80130 0.10496
 C1087 C 0.85788 0.77814 0.14703
 C1088 C 0.85332 0.75343 0.16630
 C1089 C 0.87012 0.72695 0.16219
 C1090 C 0.89062 0.72467 0.13834
 H1091 H 0.92675 0.72572 0.09031
 H1092 H 0.87295 0.82244 0.10856
 H1093 H 0.84487 0.79863 0.15032
 H1094 H 0.90289 0.70375 0.13514
 H1095 H 0.91084 0.81931 0.06852
 H1096 H 0.86655 0.70766 0.17679
 C1097 C 0.39590 0.21637 0.57844
 C1098 C 0.42037 0.23577 0.58426
 C1099 C 0.42044 0.25304 0.61075
 C1100 C 0.39604 0.25149 0.63088
 C1101 C 0.37092 0.23287 0.62419
 C1102 C 0.37126 0.21514 0.59807
 C1103 C 0.34587 0.23247 0.64363
 C1104 C 0.34607 0.24975 0.67011
 C1105 C 0.37151 0.26744 0.67700
 C1106 C 0.39616 0.26853 0.65743
 H1107 H 0.43924 0.26804 0.61535
 H1108 H 0.35240 0.20050 0.59272
 H1109 H 0.32640 0.21858 0.63836
 H1110 H 0.41525 0.28280 0.66300
 H1111 H 0.39563 0.20263 0.55826
 H1112 H 0.37200 0.28107 0.69726
 C1113 C 0.90572 0.28826 0.92980
 C1114 C 0.92074 0.26059 0.93411
 C1115 C 0.91256 0.23571 0.91617
 C1116 C 0.89052 0.23866 0.89368
 C1117 C 0.87520 0.26645 0.89003
 C1118 C 0.88289 0.29105 0.90828
 C1119 C 0.85258 0.26917 0.86808
 C1120 C 0.84598 0.24484 0.84904
 C1121 C 0.86179 0.21761 0.85213
 C1122 C 0.88366 0.21438 0.87460
 H1123 H 0.92345 0.21406 0.91971
 H1124 H 0.87158 0.31258 0.90560
 H1125 H 0.84034 0.29022 0.86551
 H1126 H 0.89531 0.19300 0.87694
 H1127 H 0.91191 0.30789 0.94299
 H1128 H 0.85667 0.19865 0.83760
 C1129 C 0.39481 0.70077 0.42234
 C1130 C 0.42021 0.71946 0.41857
 C1131 C 0.42147 0.73906 0.39373
 C1132 C 0.39756 0.74014 0.37298
 C1133 C 0.37178 0.72171 0.37728
 C1134 C 0.37074 0.70197 0.40197
 C1135 C 0.34764 0.72320 0.35671
 C1136 C 0.34937 0.74229 0.33147
 C1137 C 0.37525 0.76024 0.32731
 C1138 C 0.39898 0.75940 0.34799
 H1139 H 0.44089 0.75370 0.39085
 H1140 H 0.35130 0.68754 0.40559
 H1141 H 0.32796 0.70896 0.35985
 H1142 H 0.41855 0.77362 0.34429
 H1143 H 0.39347 0.68555 0.44141
 H1144 H 0.37706 0.77511 0.30800
 C1145 C 0.11668 0.06740 0.27992
 C1146 C 0.08898 0.07510 0.26609
 C1147 C 0.08623 0.10407 0.25310
 C1148 C 0.11060 0.12442 0.25335
 C1149 C 0.13839 0.11586 0.26650
 C1150 C 0.14106 0.08742 0.27997
 C1151 C 0.16310 0.13578 0.26574
 C1152 C 0.16027 0.16443 0.25237
 C1153 C 0.13230 0.17293 0.23992
 C1154 C 0.10778 0.15306 0.24024
 H1155 H 0.06560 0.11040 0.24155
 H1156 H 0.16206 0.08058 0.29050
 H1157 H 0.18446 0.12904 0.27562
 H1158 H 0.08664 0.16007 0.23009
 H1159 H 0.11949 0.04576 0.29095
 H1160 H 0.12951 0.19480 0.22936
 C1161 C 0.60341 0.57166 0.79124
 C1162 C 0.57783 0.57803 0.77357
 C1163 C 0.57685 0.60474 0.75671
 C1164 C 0.60130 0.62478 0.75709
 C1165 C 0.62738 0.61795 0.77430
 C1166 C 0.62806 0.59141 0.79152
 C1167 C 0.65222 0.63778 0.77388
 C1168 C 0.65074 0.66461 0.75712
 C1169 C 0.62455 0.67121 0.74043
 C1170 C 0.60016 0.65140 0.74023
 H1171 H 0.55729 0.60952 0.74279
 H1172 H 0.64771 0.58580 0.80496
 H1173 H 0.67229 0.63270 0.78694
 H1174 H 0.58039 0.65695 0.72694
 H1175 H 0.60450 0.55099 0.80426
 H1176 H 0.62308 0.69169 0.72715
 C1177 C 0.92563 0.10786 0.71867
 C1178 C 0.91949 0.08097 0.73437
 C1179 C 0.89196 0.07811 0.74996
 C1180 C 0.87119 0.10216 0.75048
 C1181 C 0.87819 0.12948 0.73550
 C1182 C 0.90529 0.13193 0.71936
 C1183 C 0.85813 0.15400 0.73713
 C1184 C 0.83078 0.15149 0.75307
 C1185 C 0.82363 0.12395 0.76717
 C1186 C 0.84374 0.09959 0.76608
 H1187 H 0.88710 0.05746 0.76217
 H1188 H 0.91092 0.15259 0.70753
 H1189 H 0.86375 0.17501 0.72591
 H1190 H 0.83790 0.07882 0.77761
 H1191 H 0.94661 0.11040 0.70633
 H1192 H 0.80275 0.12147 0.77967
 C1193 C 0.43744 0.60272 0.26278
 C1194 C 0.43638 0.58346 0.23772
 C1195 C 0.41562 0.58901 0.21453
 C1196 C 0.39522 0.61304 0.21685
 C1197 C 0.39643 0.63247 0.24215
 C1198 C 0.41777 0.62723 0.26488
 C1199 C 0.37572 0.65626 0.24467
 C1200 C 0.35311 0.65995 0.22290
 C1201 C 0.35193 0.64057 0.19796
 C1202 C 0.37317 0.61755 0.19467
 H1203 H 0.41508 0.57424 0.19506
 H1204 H 0.41894 0.64181 0.28444
 H1205 H 0.37620 0.67093 0.26421
 H1206 H 0.37185 0.60281 0.17525
 H1207 H 0.45365 0.59875 0.28063
 H1208 H 0.33439 0.64318 0.18113
 C1209 C 0.10569 0.93560 0.75104
 C1210 C 0.07845 0.92811 0.73628
 C1211 C 0.07596 0.89932 0.72286
 C1212 C 0.09978 0.87849 0.72460
 C1213 C 0.12688 0.88665 0.73926
 C1214 C 0.12962 0.91522 0.75233
 C1215 C 0.15075 0.86602 0.74092
 C1216 C 0.14780 0.83695 0.72866
 C1217 C 0.12068 0.82881 0.71438
 C1218 C 0.09695 0.84954 0.71209
 H1219 H 0.05576 0.89328 0.71045
 H1220 H 0.15018 0.92170 0.76392
 H1221 H 0.17142 0.87239 0.75240
 H1222 H 0.07629 0.84284 0.70083
 H1223 H 0.10830 0.95711 0.76233
 H1224 H 0.11791 0.80650 0.70482
 C1225 C 0.57844 0.39259 0.20742
 C1226 C 0.58275 0.41693 0.22719
 C1227 C 0.60663 0.41624 0.24790
 C1228 C 0.62659 0.39179 0.24839
 C1229 C 0.62191 0.36706 0.22875
 C1230 C 0.59775 0.36769 0.20834
 C1231 C 0.64160 0.34229 0.22978
 C1232 C 0.66643 0.34261 0.24936
 C1233 C 0.67121 0.36748 0.26834
 C1234 C 0.65123 0.39175 0.26814
 H1235 H 0.60966 0.43485 0.26347
 H1236 H 0.59388 0.34902 0.19306
 H1237 H 0.63807 0.32315 0.21497
 H1238 H 0.65517 0.41056 0.28323
 H1239 H 0.55985 0.39280 0.19155
 H1240 H 0.69025 0.36788 0.28370
 C1241 C 0.91741 0.91652 0.22662
 C1242 C 0.93044 0.92259 0.25491
 C1243 C 0.92078 0.90577 0.28010
 C1244 C 0.89840 0.88346 0.27712
 C1245 C 0.88500 0.87821 0.24867
 C1246 C 0.89473 0.89480 0.22359
 C1247 C 0.86218 0.85638 0.24578
 C1248 C 0.85304 0.83936 0.27083
 C1249 C 0.86673 0.84420 0.29887
 C1250 C 0.88914 0.86626 0.30207
 H1251 H 0.93054 0.91027 0.30206
 H1252 H 0.88495 0.89084 0.20157
 H1253 H 0.85159 0.85248 0.22409
 H1254 H 0.89924 0.86985 0.32400
 H1255 H 0.92498 0.92854 0.20673
 H1256 H 0.85979 0.83114 0.31832
 C1257 C 0.40493 0.42235 0.71871
 C1258 C 0.41843 0.42686 0.74694
 C1259 C 0.40902 0.40964 0.77175
 C1260 C 0.38633 0.38787 0.76839
 C1261 C 0.37205 0.38417 0.74010
 C1262 C 0.38154 0.40147 0.71539
 C1263 C 0.34868 0.36307 0.73701
 C1264 C 0.34032 0.34493 0.76149
 C1265 C 0.35519 0.34794 0.78919
 C1266 C 0.37780 0.36961 0.79277
 H1267 H 0.41970 0.41300 0.79347
 H1268 H 0.37106 0.39870 0.69351
 H1269 H 0.33731 0.36037 0.71553
 H1270 H 0.38871 0.37198 0.81449
 H1271 H 0.41228 0.43535 0.69937
 H1272 H 0.34883 0.33392 0.80817
 C1273 C 0.10465 0.24318 0.93635
 C1274 C 0.07666 0.25693 0.92973
 C1275 C 0.07249 0.26958 0.90078
 C1276 C 0.09533 0.26778 0.87888
 C1277 C 0.12314 0.25403 0.88617
 C1278 C 0.12760 0.24186 0.91491
 C1279 C 0.14620 0.25272 0.86466
 C1280 C 0.14192 0.26469 0.83564
 C1281 C 0.11397 0.27775 0.82824
 C1282 C 0.09091 0.27951 0.84979
 H1283 H 0.05173 0.28141 0.89543
 H1284 H 0.14878 0.23105 0.92075
 H1285 H 0.16754 0.24223 0.87054
 H1286 H 0.06966 0.29004 0.84373
 H1287 H 0.10860 0.23274 0.95807
 H1288 H 0.11017 0.28713 0.80602
 C1289 C 0.60403 0.69964 0.42550
 C1290 C 0.57898 0.71853 0.42057
 C1291 C 0.57914 0.73830 0.39586
 C1292 C 0.60431 0.73969 0.37663
 C1293 C 0.62982 0.72128 0.38231
 C1294 C 0.62928 0.70106 0.40662
 C1295 C 0.65541 0.72346 0.36362
 C1296 C 0.65547 0.74327 0.33888
 C1297 C 0.62975 0.76103 0.33319
 C1298 C 0.60453 0.75946 0.35201
 H1299 H 0.55998 0.75309 0.39211
 H1300 H 0.64848 0.68660 0.41122
 H1301 H 0.67498 0.70940 0.36795
 H1302 H 0.58518 0.77367 0.34726
 H1303 H 0.60427 0.68428 0.44451
 H1304 H 0.62927 0.77645 0.31424
 C1305 C 0.89093 0.74360 0.93105
 C1306 C 0.91822 0.75787 0.92266
 C1307 C 0.92105 0.76847 0.89276
 C1308 C 0.89677 0.76622 0.87241
 C1309 C 0.86921 0.75311 0.88181
 C1310 C 0.86672 0.74150 0.91102
 C1311 C 0.84459 0.75177 0.86186
 C1312 C 0.84728 0.76283 0.83230
 C1313 C 0.87497 0.77533 0.82296
 C1314 C 0.89939 0.77723 0.84288
 H1315 H 0.94168 0.77963 0.88569
 H1316 H 0.84597 0.73084 0.91846
 H1317 H 0.82348 0.74173 0.86920
 H1318 H 0.92033 0.78732 0.83519
 H1319 H 0.88829 0.73391 0.95331
 H1320 H 0.87760 0.78405 0.80031
 C1321 C 0.39856 0.21900 0.43371
 C1322 C 0.42358 0.23811 0.42945
 C1323 C 0.42536 0.25568 0.40315
 C1324 C 0.40223 0.25448 0.38155
 C1325 C 0.37664 0.23598 0.38660
 C1326 C 0.37515 0.21819 0.41266
 C1327 C 0.35315 0.23537 0.36536
 C1328 C 0.35546 0.25215 0.33865
 C1329 C 0.38120 0.26997 0.33350
 C1330 C 0.40424 0.27145 0.35495
 H1331 H 0.44462 0.27042 0.39971
 H1332 H 0.35590 0.20362 0.41674
 H1333 H 0.33348 0.22126 0.36917
 H1334 H 0.42372 0.28563 0.35062
 H1335 H 0.39698 0.20501 0.45368
 H1336 H 0.38329 0.28303 0.31295
 C1337 C 0.07336 0.79299 0.09921
 C1338 C 0.07687 0.77378 0.07426
 C1339 C 0.10227 0.75488 0.07266
 C1340 C 0.12351 0.75451 0.09609
 C1341 C 0.11910 0.77293 0.12175
 C1342 C 0.09415 0.79239 0.12290
 C1343 C 0.13974 0.77155 0.14576
 C1344 C 0.16515 0.75273 0.14392
 C1345 C 0.16981 0.73521 0.11799
 C1346 C 0.14897 0.73579 0.09441
 H1347 H 0.10507 0.74001 0.05347
 H1348 H 0.09059 0.80693 0.14220
 H1349 H 0.13646 0.78553 0.16550
 H1350 H 0.15282 0.72170 0.07484
 H1351 H 0.05400 0.80788 0.10067
 H1352 H 0.18946 0.72074 0.11620
 C1353 C 0.60437 0.22527 0.58262
 C1354 C 0.57887 0.24355 0.58740
 C1355 C 0.57729 0.26153 0.61341
 C1356 C 0.60137 0.26182 0.63404
 C1357 C 0.62745 0.24428 0.62829
 C1358 C 0.62858 0.22585 0.60270
 C1359 C 0.65193 0.24528 0.64831
 C1360 C 0.65035 0.26280 0.67459
 C1361 C 0.62407 0.27954 0.68057
 C1362 C 0.59992 0.27940 0.66026
 H1363 H 0.55761 0.27558 0.61724
 H1364 H 0.64823 0.21199 0.59815
 H1365 H 0.67190 0.23182 0.64385
 H1366 H 0.58006 0.29283 0.66517
 H1367 H 0.60578 0.21103 0.56284
 H1368 H 0.62229 0.29292 0.70088
 C1369 C 0.93218 0.27095 0.11522
 C1370 C 0.92723 0.25180 0.09050
 C1371 C 0.90287 0.23158 0.09095
 C1372 C 0.88357 0.23045 0.11600
 C1373 C 0.88898 0.24952 0.14101
 C1374 C 0.91332 0.26971 0.14036
 C1375 C 0.86953 0.24863 0.16594
 C1376 C 0.84415 0.22972 0.16568
 C1377 C 0.83900 0.21072 0.14087
 C1378 C 0.85876 0.21082 0.11636
 H1379 H 0.89917 0.21669 0.07193
 H1380 H 0.91770 0.28460 0.15922
 H1381 H 0.87326 0.26369 0.18483
 H1382 H 0.85425 0.19607 0.09742
 H1383 H 0.95097 0.28662 0.11513
 H1384 H 0.81941 0.19607 0.14032
 C1385 C 0.39321 0.70384 0.57042
 C1386 C 0.41892 0.72205 0.57415
 C1387 C 0.42063 0.74155 0.59906
 C1388 C 0.39678 0.74305 0.61986
 C1389 C 0.37062 0.72526 0.61538
 C1390 C 0.36917 0.70557 0.59073
 C1391 C 0.34634 0.72753 0.63558
 C1392 C 0.34807 0.74686 0.66061
 C1393 C 0.37447 0.76382 0.66534
 C1394 C 0.39852 0.76216 0.64498
 H1395 H 0.44036 0.75576 0.60197
 H1396 H 0.34940 0.69160 0.58709
 H1397 H 0.32624 0.71399 0.63202
 H1398 H 0.41845 0.77582 0.64886
 H1399 H 0.39160 0.68857 0.55143
 H1400 H 0.37628 0.77880 0.68452
 C1401 C 0.23991 0.06891 0.88655
 C1402 C 0.22847 0.07682 0.91517
 C1403 C 0.21966 0.10711 0.92003
 C1404 C 0.22223 0.12875 0.89698
 C1405 C 0.23335 0.12011 0.86846
 C1406 C 0.24209 0.09018 0.86349
 C1407 C 0.23585 0.14155 0.84536
 C1408 C 0.22778 0.17184 0.85035
 C1409 C 0.21693 0.18035 0.87889
 C1410 C 0.21399 0.15895 0.90194
 H1411 H 0.21028 0.11378 0.94159
 H1412 H 0.25103 0.08328 0.84183
 H1413 H 0.24451 0.13466 0.82357
 H1414 H 0.20542 0.16605 0.92368
 H1415 H 0.24813 0.04632 0.88212
 H1416 H 0.21049 0.20350 0.88333
 C1417 C 0.70860 0.60141 0.42869
 C1418 C 0.72721 0.57612 0.42397
 C1419 C 0.74555 0.57503 0.39812
 C1420 C 0.74569 0.59914 0.37754
 C1421 C 0.72781 0.62499 0.38320
 C1422 C 0.70908 0.62573 0.40865
 C1423 C 0.72912 0.64972 0.36342
 C1424 C 0.74741 0.64861 0.33758
 C1425 C 0.76427 0.62242 0.33159
 C1426 C 0.76369 0.59802 0.35156
 H1427 H 0.76006 0.55568 0.39438
 H1428 H 0.69499 0.64521 0.41319
 H1429 H 0.71576 0.66971 0.36797
 H1430 H 0.77739 0.57834 0.34675
 H1431 H 0.69417 0.60257 0.44837
 H1432 H 0.77850 0.62113 0.31176
 C1433 C 0.73499 0.10590 0.07040
 C1434 C 0.74748 0.07769 0.07842
 C1435 C 0.75823 0.07387 0.10814
 C1436 C 0.75604 0.09725 0.12929
 C1437 C 0.74376 0.12536 0.12064
 C1438 C 0.73337 0.12947 0.09116
 C1439 C 0.74201 0.14890 0.14163
 C1440 C 0.75192 0.14459 0.17141
 C1441 C 0.76367 0.11638 0.17994
 C1442 C 0.76593 0.09297 0.15900
 H1443 H 0.76890 0.05286 0.11475
 H1444 H 0.72363 0.15081 0.08423
 H1445 H 0.73275 0.17052 0.13484
 H1446 H 0.77538 0.07154 0.16604
 H1447 H 0.72560 0.10959 0.04817
 H1448 H 0.77169 0.11259 0.20269
 C1449 C 0.24072 0.60936 0.56090
 C1450 C 0.26009 0.58499 0.56708
 C1451 C 0.27576 0.58430 0.59467
 C1452 C 0.27171 0.60736 0.61600
 C1453 C 0.25264 0.63203 0.60920
 C1454 C 0.23735 0.63287 0.58156
 C1455 C 0.24888 0.65531 0.63027
 C1456 C 0.26317 0.65387 0.65850
 C1457 C 0.28154 0.62895 0.66539
 C1458 C 0.28606 0.60604 0.64417
 H1459 H 0.29068 0.56554 0.59966
 H1460 H 0.22243 0.65147 0.57611
 H1461 H 0.23441 0.67432 0.62491
 H1462 H 0.30063 0.58722 0.64985
 H1463 H 0.22802 0.61010 0.54006
 H1464 H 0.29288 0.62751 0.68697
 C1465 C 0.73020 0.88958 0.93588
 C1466 C 0.74360 0.91741 0.92857
 C1467 C 0.75626 0.92148 0.89981
 C1468 C 0.75478 0.89841 0.87833
 C1469 C 0.74197 0.87026 0.88618
 C1470 C 0.72979 0.86604 0.91502
 C1471 C 0.74132 0.84689 0.86496
 C1472 C 0.75223 0.85165 0.83560
 C1473 C 0.76373 0.88011 0.82767
 C1474 C 0.76554 0.90315 0.84902
 H1475 H 0.76700 0.94272 0.89410
 H1476 H 0.71963 0.84469 0.92131
 H1477 H 0.73180 0.82519 0.87112
 H1478 H 0.77500 0.92475 0.84251
 H1479 H 0.72012 0.88607 0.95785
 H1480 H 0.77162 0.88447 0.80505
 C1481 C 0.24631 0.39139 0.42947
 C1482 C 0.26347 0.41714 0.42236
 C1483 C 0.27848 0.41846 0.39444
 C1484 C 0.27619 0.39449 0.37384
 C1485 C 0.25943 0.36843 0.38156
 C1486 C 0.24460 0.36712 0.40945
 C1487 C 0.25750 0.34427 0.36116
 C1488 C 0.27134 0.34615 0.33269
 C1489 C 0.28742 0.37244 0.32502
 C1490 C 0.29013 0.39623 0.34551
 H1491 H 0.29171 0.43826 0.38873
 H1492 H 0.23142 0.34746 0.41565
 H1493 H 0.24473 0.32427 0.36719
 H1494 H 0.30293 0.41608 0.33911
 H1495 H 0.23420 0.39007 0.45064
 H1496 H 0.29824 0.37445 0.30323
 C1497 C 0.20962 0.89747 0.06731
 C1498 C 0.22744 0.92318 0.07269
 C1499 C 0.24511 0.92455 0.09896
 C1500 C 0.24562 0.90015 0.11918
 C1501 C 0.22866 0.87384 0.11277
 C1502 C 0.21042 0.87291 0.08701
 C1503 C 0.23041 0.84883 0.13211
 C1504 C 0.24822 0.85006 0.15824
 C1505 C 0.26411 0.87664 0.16504
 C1506 C 0.26310 0.90138 0.14549
 H1507 H 0.25893 0.94429 0.10324
 H1508 H 0.19701 0.85309 0.08194
 H1509 H 0.21771 0.82852 0.12703
 H1510 H 0.27607 0.92141 0.15089
 H1511 H 0.19561 0.89614 0.04735
 H1512 H 0.27790 0.87799 0.18515
 C1513 C 0.71051 0.39479 0.57749
 C1514 C 0.72924 0.42007 0.58170
 C1515 C 0.74844 0.42108 0.60685
 C1516 C 0.74915 0.39698 0.62743
 C1517 C 0.73068 0.37134 0.62266
 C1518 C 0.71129 0.37059 0.59770
 C1519 C 0.73179 0.34701 0.64304
 C1520 C 0.75058 0.34838 0.66853
 C1521 C 0.76860 0.37411 0.67313
 C1522 C 0.76810 0.39805 0.65266
 H1523 H 0.76310 0.44042 0.61008
 H1524 H 0.69683 0.35126 0.59374
 H1525 H 0.71748 0.32746 0.63954
 H1526 H 0.78236 0.41752 0.65671
 H1527 H 0.69559 0.39365 0.55818
 H1528 H 0.78324 0.37567 0.69262
 C1529 C 0.10249 0.07132 0.76352
 C1530 C 0.07488 0.07984 0.75000
 C1531 C 0.07148 0.10995 0.74027
 C1532 C 0.09512 0.13079 0.74352
 C1533 C 0.12279 0.12163 0.75651
 C1534 C 0.12612 0.09193 0.76668
 C1535 C 0.14677 0.14223 0.75881
 C1536 C 0.14340 0.17203 0.74844
 C1537 C 0.11554 0.18101 0.73604
 C1538 C 0.09169 0.16057 0.73350
 H1539 H 0.05096 0.11692 0.72890
 H1540 H 0.14707 0.08455 0.77696
 H1541 H 0.16802 0.13505 0.76863
 H1542 H 0.07063 0.16803 0.72351
 H1543 H 0.10574 0.04859 0.77194
 H1544 H 0.11229 0.20380 0.72781
 C1545 C 0.61057 0.57834 0.19553
 C1546 C 0.59198 0.57443 0.22088
 C1547 C 0.59566 0.59338 0.24593
 C1548 C 0.61759 0.61610 0.24576
 C1549 C 0.63708 0.61917 0.22067
 C1550 C 0.63337 0.60018 0.19565
 C1551 C 0.65970 0.64134 0.22102
 C1552 C 0.66209 0.66112 0.24555
 C1553 C 0.64204 0.65863 0.26986
 C1554 C 0.62016 0.63597 0.27018
 H1555 H 0.58096 0.59068 0.26531
 H1556 H 0.64782 0.60250 0.17607
 H1557 H 0.67514 0.64354 0.20216
 H1558 H 0.60522 0.63406 0.28943
 H1559 H 0.60750 0.56434 0.17578
 H1560 H 0.64385 0.67378 0.28893
 C1561 C 0.11209 0.92536 0.28352
 C1562 C 0.08655 0.92089 0.26523
 C1563 C 0.08512 0.89527 0.24669
 C1564 C 0.10885 0.87428 0.24650
 C1565 C 0.13484 0.87944 0.26433
 C1566 C 0.13615 0.90498 0.28288
 C1567 C 0.15904 0.85896 0.26330
 C1568 C 0.15714 0.83288 0.24543
 C1569 C 0.13084 0.82754 0.22852
 C1570 C 0.10707 0.84824 0.22872
 H1571 H 0.06566 0.89186 0.23225
 H1572 H 0.15577 0.90920 0.29686
 H1573 H 0.17909 0.86302 0.27673
 H1574 H 0.08725 0.84380 0.21509
 H1575 H 0.11356 0.94501 0.29796
 H1576 H 0.12885 0.80751 0.21473
 C1577 C 0.57367 0.40193 0.72607
 C1578 C 0.57591 0.42470 0.74796
 C1579 C 0.60124 0.42545 0.76706
 C1580 C 0.62376 0.40335 0.76478
 C1581 C 0.62050 0.37969 0.74367
 C1582 C 0.59558 0.37936 0.72420
 C1583 C 0.64205 0.35659 0.74264
 C1584 C 0.66716 0.35719 0.76190
 C1585 C 0.67107 0.38143 0.78180
 C1586 C 0.64931 0.40424 0.78348
 H1587 H 0.60320 0.44314 0.78382
 H1588 H 0.59299 0.36159 0.70762
 H1589 H 0.63932 0.33808 0.72693
 H1590 H 0.65230 0.42237 0.79958
 H1591 H 0.55463 0.40138 0.71075
 H1592 H 0.69038 0.38212 0.79678
 C1593 C 0.93788 0.10477 0.23787
 C1594 C 0.93260 0.07920 0.25588
 C1595 C 0.90512 0.07677 0.27166
 C1596 C 0.88308 0.09945 0.26921
 C1597 C 0.88895 0.12534 0.25150
 C1598 C 0.91640 0.12776 0.23592
 C1599 C 0.86727 0.14834 0.24959
 C1600 C 0.83941 0.14558 0.26457
 C1601 C 0.83342 0.11942 0.28146
 C1602 C 0.85520 0.09668 0.28402
 H1603 H 0.90091 0.05712 0.28562
 H1604 H 0.92116 0.14733 0.22205
 H1605 H 0.87192 0.16827 0.23616
 H1606 H 0.85022 0.07692 0.29754
 H1607 H 0.95876 0.10690 0.22530
 H1608 H 0.81212 0.11688 0.29322
 C1609 C 0.39438 0.57538 0.79085
 C1610 C 0.41997 0.58098 0.77292
 C1611 C 0.42147 0.60769 0.75596
 C1612 C 0.39729 0.62818 0.75615
 C1613 C 0.37106 0.62174 0.77325
 C1614 C 0.37005 0.59548 0.79088
 C1615 C 0.34624 0.64152 0.77219
 C1616 C 0.34770 0.66804 0.75489
 C1617 C 0.37419 0.67462 0.73869
 C1618 C 0.39866 0.65476 0.73908
 H1619 H 0.44111 0.61203 0.74199
 H1620 H 0.35028 0.59028 0.80433
 H1621 H 0.32599 0.63647 0.78499
 H1622 H 0.41859 0.66011 0.72594
 H1623 H 0.39292 0.55489 0.80411
 H1624 H 0.37571 0.69492 0.72513
 C1625 C 0.92817 0.89844 0.70446
 C1626 C 0.92285 0.92311 0.72367
 C1627 C 0.89703 0.92323 0.74192
 C1628 C 0.87701 0.89872 0.74155
 C1629 C 0.88289 0.87352 0.72281
 C1630 C 0.90843 0.87379 0.70411
 C1631 C 0.86308 0.84864 0.72312
 C1632 C 0.83714 0.84922 0.74132
 C1633 C 0.83154 0.87451 0.75956
 C1634 C 0.85134 0.89891 0.75988
 H1635 H 0.89299 0.94210 0.75695
 H1636 H 0.91327 0.85486 0.68944
 H1637 H 0.86739 0.82930 0.70880
 H1638 H 0.84648 0.91798 0.77438
 H1639 H 0.94807 0.89802 0.69025
 H1640 H 0.81178 0.87526 0.77383
 C1641 C 0.40787 0.42727 0.27181
 C1642 C 0.42845 0.42554 0.24776
 C1643 C 0.42751 0.40054 0.22832
 C1644 C 0.40627 0.37754 0.23275
 C1645 C 0.38480 0.38014 0.25619
 C1646 C 0.38584 0.40502 0.27567
 C1647 C 0.36262 0.35784 0.25965
 C1648 C 0.36225 0.33260 0.24059
 C1649 C 0.38447 0.32943 0.21830
 C1650 C 0.40616 0.35195 0.21415
 H1651 H 0.44367 0.39889 0.21002
 H1652 H 0.36981 0.40712 0.29401
 H1653 H 0.34562 0.36005 0.27710
 H1654 H 0.42268 0.34947 0.19630
 H1655 H 0.40882 0.44596 0.28750
 H1656 H 0.38430 0.31007 0.20340
   
