data_POSCAR
  _audit_creation_date              2014-09-24
  _audit_creation_method            'ToBaCCo'
  _symmetry_space_group_name_H-M    'P1'
  _symmetry_Int_Tables_number       1
  _symmetry_cell_setting            triclinic
  loop_
  _symmetry_equiv_pos_as_xyz
 x,y,z
_cell_length_a 63.3537
_cell_length_b 63.2582
_cell_length_c 63.2285
_cell_angle_alpha 89.972400
_cell_angle_beta 89.946900
_cell_angle_gamma 89.921700
loop_
  _atom_site_label
  _atom_site_type_symbol
  _atom_site_fract_x
  _atom_site_fract_y
  _atom_site_fract_z
C1 C 0.33698 1.36559 0.33813
 C2 C 0.34624 1.37469 0.32014
 C3 C 0.36460 1.36590 0.31136
 C4 C 0.37386 1.34799 0.32057
 C5 C 0.36480 1.33869 0.33856
 C6 C 0.34627 1.34750 0.34739
 C7 C 0.31853 1.37416 0.34694
 C8 C 0.30930 1.36482 0.36481
 C9 C 0.31850 1.34688 0.37403
 C10 C 0.33696 1.33813 0.36543
 C11 C 0.34622 1.32011 0.37445
 C12 C 0.36458 1.31141 0.36565
 C13 C 0.37385 1.32067 0.34780
 H14 H 0.33913 1.38854 0.31290
 H15 H 0.38804 1.34123 0.31367
 H16 H 0.31130 1.38803 0.33986
 H17 H 0.31126 1.33971 0.38783
 H18 H 0.33914 1.31278 0.38825
 H19 H 0.38804 1.31377 0.34108
 C20 C 0.33214 0.86056 0.83403
 C21 C 0.34103 0.86942 0.81573
 C22 C 0.35930 0.86063 0.80683
 C23 C 0.36884 0.84294 0.81614
 C24 C 0.36015 0.83386 0.83443
 C25 C 0.34172 0.84270 0.84344
 C26 C 0.31386 0.86924 0.84308
 C27 C 0.30510 0.86025 0.86136
 C28 C 0.31457 0.84252 0.87071
 C29 C 0.33286 0.83366 0.86186
 C30 C 0.34244 0.81590 0.87107
 C31 C 0.36069 0.80717 0.86210
 C32 C 0.36953 0.81611 0.84386
 H33 H 0.33378 0.88312 0.80839
 H34 H 0.38299 0.83626 0.80913
 H35 H 0.30645 0.88296 0.83592
 H36 H 0.30770 0.83563 0.88485
 H37 H 0.33571 0.80884 0.88519
 H38 H 0.38366 0.80920 0.83703
 C39 C 0.83002 1.35753 0.83043
 C40 C 0.83883 1.36616 0.81198
 C41 C 0.85701 1.35719 0.80303
 C42 C 0.86650 1.33951 0.81246
 C43 C 0.85790 1.33070 0.83091
 C44 C 0.83958 1.33973 0.83996
 C45 C 0.81188 1.36643 0.83957
 C46 C 0.80328 1.35772 0.85804
 C47 C 0.81271 1.34006 0.86750
 C48 C 0.83086 1.33097 0.85859
 C49 C 0.84047 1.31333 0.86798
 C50 C 0.85863 1.30443 0.85897
 C51 C 0.86731 1.31306 0.84052
 H52 H 0.83158 1.37987 0.80463
 H53 H 0.88059 1.33266 0.80548
 H54 H 0.80446 1.38012 0.83238
 H55 H 0.80593 1.33345 0.88180
 H56 H 0.83388 1.30652 0.88227
 H57 H 0.88138 1.30603 0.83368
 C58 C 0.83434 0.86181 0.33485
 C59 C 0.84327 0.87062 0.31656
 C60 C 0.86156 0.86179 0.30771
 C61 C 0.87107 0.84411 0.31710
 C62 C 0.86233 0.83509 0.33539
 C63 C 0.84387 0.84396 0.34433
 C64 C 0.81601 0.87048 0.34382
 C65 C 0.80719 0.86151 0.36204
 C66 C 0.81659 0.84381 0.37146
 C67 C 0.83492 0.83493 0.36272
 C68 C 0.84444 0.81717 0.37198
 C69 C 0.86272 0.80841 0.36307
 C70 C 0.87164 0.81733 0.34487
 H71 H 0.83598 0.88430 0.30920
 H72 H 0.88523 0.83735 0.31017
 H73 H 0.80859 0.88418 0.33664
 H74 H 0.80960 0.83697 0.38556
 H75 H 0.83764 0.81011 0.38605
 H76 H 0.88577 0.81039 0.33808
 C77 C 0.67217 0.64479 0.32734
 C78 C 0.66297 0.63605 0.30917
 C79 C 0.64489 0.64527 0.30031
 C80 C 0.63594 0.66335 0.30950
 C81 C 0.64494 0.67227 0.32768
 C82 C 0.66313 0.66297 0.33667
 C83 C 0.69014 0.63557 0.33647
 C84 C 0.69906 0.64430 0.35474
 C85 C 0.69016 0.66234 0.36400
 C86 C 0.67220 0.67177 0.35508
 C87 C 0.66305 0.68973 0.36432
 C88 C 0.64500 0.69889 0.35539
 C89 C 0.63599 0.69023 0.33714
 H90 H 0.66979 0.62202 0.30202
 H91 H 0.62190 0.67037 0.30260
 H92 H 0.69714 0.62157 0.32946
 H93 H 0.69717 0.66894 0.37818
 H94 H 0.66988 0.69655 0.37849
 H95 H 0.62197 0.69742 0.33039
 C96 C 0.67125 0.14280 0.82983
 C97 C 0.66187 0.13391 0.81182
 C98 C 0.64372 0.14307 0.80307
 C99 C 0.63483 0.16118 0.81219
 C100 C 0.64400 0.17026 0.83020
 C101 C 0.66229 0.16106 0.83909
 C102 C 0.68936 0.13370 0.83881
 C103 C 0.69851 0.14264 0.85689
 C104 C 0.68966 0.16077 0.86608
 C105 C 0.67157 0.17006 0.85729
 C106 C 0.66252 0.18814 0.86643
 C107 C 0.64436 0.19719 0.85760
 C108 C 0.63515 0.18832 0.83955
 H109 H 0.66860 0.11987 0.80464
 H110 H 0.62076 0.16812 0.80530
 H111 H 0.69627 0.11965 0.83179
 H112 H 0.69680 0.16758 0.88010
 H113 H 0.66951 0.19513 0.88043
 H114 H 0.62106 0.19544 0.83287
 C115 C 1.17437 0.64571 0.82638
 C116 C 1.16520 0.63692 0.80821
 C117 C 1.14710 0.64606 0.79935
 C118 C 1.13807 0.66410 0.80849
 C119 C 1.14703 0.67309 0.82666
 C120 C 1.16525 0.66387 0.83568
 C121 C 1.19234 0.63654 0.83555
 C122 C 1.20119 0.64529 0.85387
 C123 C 1.19221 0.66333 0.86308
 C124 C 1.17425 0.67270 0.85410
 C125 C 1.16500 0.69063 0.86332
 C126 C 1.14692 0.69970 0.85437
 C127 C 1.13798 0.69100 0.83610
 H128 H 1.17202 0.62291 0.80105
 H129 H 1.12401 0.67100 0.80155
 H130 H 1.19935 0.62253 0.82853
 H131 H 1.19910 0.66999 0.87730
 H132 H 1.17176 0.69747 0.87751
 H133 H 1.12393 0.69812 0.82934
 C134 C 1.16502 0.13638 0.33489
 C135 C 1.15550 0.12726 0.31706
 C136 C 1.13728 0.13631 0.30831
 C137 C 1.12843 0.15452 0.31734
 C138 C 1.13774 0.16382 0.33517
 C139 C 1.15612 0.15474 0.34400
 C140 C 1.18332 0.12751 0.34372
 C141 C 1.19273 0.13679 0.36150
 C142 C 1.18391 0.15498 0.37057
 C143 C 1.16564 0.16406 0.36192
 C144 C 1.15674 0.18232 0.37083
 C145 C 1.13854 0.19130 0.36203
 C146 C 1.12906 0.18209 0.34428
 H147 H 1.16229 0.11318 0.30997
 H148 H 1.11434 0.16148 0.31046
 H149 H 1.19025 0.11344 0.33676
 H150 H 1.19128 0.16209 0.38432
 H151 H 1.16397 0.18959 0.38456
 H152 H 1.11497 0.18919 0.33758
 C153 C 0.66616 1.36197 0.66603
 C154 C 0.65677 1.37127 0.68385
 C155 C 0.63858 1.36239 0.69278
 C156 C 0.62963 1.34418 0.68399
 C157 C 0.63881 1.33468 0.66617
 C158 C 0.65716 1.34359 0.65712
 C159 C 0.68442 1.37068 0.65698
 C160 C 0.69370 1.36122 0.63921
 C161 C 0.68478 1.34300 0.63034
 C162 C 0.66653 1.33409 0.63919
 C163 C 0.65750 1.31583 0.63048
 C164 C 0.63931 1.30704 0.63949
 C165 C 0.62999 1.31642 0.65726
 H166 H 0.66358 1.38537 0.69082
 H167 H 0.61557 1.33741 0.69106
 H168 H 0.69140 1.38478 0.66378
 H169 H 0.69205 1.33575 0.61658
 H170 H 0.66459 1.30843 0.61672
 H171 H 0.61592 1.30947 0.66413
 C172 C 0.67005 0.85670 1.17164
 C173 C 0.66041 0.86618 1.18923
 C174 C 0.64236 0.85712 1.19830
 C175 C 0.63384 0.83850 1.18987
 C176 C 0.64328 0.82883 1.17228
 C177 C 0.66147 0.83795 1.16310
 C178 C 0.68805 0.86569 1.16236
 C179 C 0.69746 0.85617 1.14471
 C180 C 0.68900 0.83757 1.13622
 C181 C 0.67102 0.82836 1.14531
 C182 C 0.66232 0.80982 1.13685
 C183 C 0.64427 0.80085 1.14595
 C184 C 0.63480 0.81029 1.16362
 H185 H 0.66692 0.88060 1.19583
 H186 H 0.61985 0.83159 1.19696
 H187 H 0.69471 0.88010 1.16879
 H188 H 0.69640 0.83036 1.12252
 H189 H 0.66949 0.80242 1.12312
 H190 H 0.62078 0.80326 1.17050
 C191 C 1.16694 1.36036 1.16651
 C192 C 1.15733 1.36981 1.18413
 C193 C 1.13903 1.36101 1.19291
 C194 C 1.13015 1.34275 1.18414
 C195 C 1.13955 1.33310 1.16651
 C196 C 1.15805 1.34190 1.15765
 C197 C 1.18529 1.36900 1.15761
 C198 C 1.19479 1.35939 1.14003
 C199 C 1.18601 1.34107 1.13123
 C200 C 1.16765 1.33224 1.13993
 C201 C 1.15871 1.31393 1.13122
 C202 C 1.14036 1.30527 1.14002
 C203 C 1.13081 1.31480 1.15759
 H204 H 1.16407 1.38395 1.19107
 H205 H 1.11599 1.33606 1.19108
 H206 H 1.19217 1.38319 1.16434
 H207 H 1.19346 1.33371 1.11763
 H208 H 1.16597 1.30642 1.11762
 H209 H 1.11660 1.30795 1.16428
 C210 C 1.17340 0.85424 0.67262
 C211 C 1.16360 0.86377 0.69011
 C212 C 1.14544 0.85479 0.69898
 C213 C 1.13696 0.83620 0.69052
 C214 C 1.14654 0.82646 0.67304
 C215 C 1.16484 0.83550 0.66402
 C216 C 1.19148 0.86320 0.66349
 C217 C 1.20100 0.85367 0.64588
 C218 C 1.19257 0.83506 0.63734
 C219 C 1.17450 0.82588 0.64630
 C220 C 1.16578 0.80739 0.63776
 C221 C 1.14760 0.79851 0.64670
 C222 C 1.13804 0.80797 0.66430
 H223 H 1.17002 0.87819 0.69677
 H224 H 1.12286 0.82940 0.69750
 H225 H 1.19806 0.87763 0.66999
 H226 H 1.19998 0.82781 0.62366
 H227 H 1.17299 0.79999 0.62406
 H228 H 1.12391 0.80102 0.67104
 C229 C 0.32800 0.64387 0.67145
 C230 C 0.33706 0.63486 0.68957
 C231 C 0.35554 0.64340 0.69817
 C232 C 0.36509 0.66103 0.68878
 C233 C 0.35623 0.67024 0.67066
 C234 C 0.33759 0.66164 0.66192
 C235 C 0.30960 0.63534 0.66260
 C236 C 0.30077 0.64437 0.64441
 C237 C 0.31019 0.66203 0.63496
 C238 C 0.32861 0.67076 0.64361
 C239 C 0.33827 0.68835 0.63421
 C240 C 0.35675 0.69683 0.64289
 C241 C 0.36569 0.68783 0.66104
 H242 H 0.32983 0.62119 0.69695
 H243 H 0.37942 0.66749 0.69555
 H244 H 0.30220 0.62163 0.66974
 H245 H 0.30325 0.66886 0.62085
 H246 H 0.33149 0.69544 0.62014
 H247 H 0.38001 0.69452 0.66762
 C248 C 0.32882 0.14230 1.17132
 C249 C 0.33801 0.13323 1.18935
 C250 C 0.35617 0.14218 1.19829
 C251 C 0.36523 0.16027 1.18927
 C252 C 0.35622 0.16954 1.17125
 C253 C 0.33793 0.16054 1.16221
 C254 C 0.31073 0.13340 1.16216
 C255 C 0.30174 0.14254 1.14410
 C256 C 0.31070 0.16065 1.13508
 C257 C 0.32879 0.16975 1.14401
 C258 C 0.33796 0.18782 1.13504
 C259 C 0.35610 0.19668 1.14402
 C260 C 0.36520 0.18760 1.16205
 H261 H 0.33109 0.11921 1.19640
 H262 H 0.37931 0.16710 1.19624
 H263 H 0.30367 0.11936 1.16900
 H264 H 0.30361 0.16759 1.12108
 H265 H 0.33106 0.19496 1.12105
 H266 H 0.37927 0.19459 1.16885
 C267 C 0.82998 0.64144 1.16947
 C268 C 0.83894 0.63252 1.18769
 C269 C 0.85744 0.64103 1.19627
 C270 C 0.86712 0.65851 1.18676
 C271 C 0.85837 0.66763 1.16855
 C272 C 0.83971 0.65908 1.15983
 C273 C 0.81151 0.63300 1.16067
 C274 C 0.80276 0.64198 1.14242
 C275 C 0.81233 0.65949 1.13285
 C276 C 0.83081 0.66813 1.14144
 C277 C 0.84058 0.68563 1.13197
 C278 C 0.85906 0.69407 1.14066
 C279 C 0.86793 0.68513 1.15887
 H280 H 0.83159 0.61897 1.19517
 H281 H 0.88147 0.66495 1.19353
 H282 H 0.80399 0.61941 1.16792
 H283 H 0.80543 0.66629 1.11870
 H284 H 0.83385 0.69269 1.11786
 H285 H 0.88225 0.69180 1.16546
 C286 C 0.82990 0.14051 0.66964
 C287 C 0.83883 0.13158 0.68788
 C288 C 0.85655 0.14088 0.69731
 C289 C 0.86544 0.15920 0.68859
 C290 C 0.85670 0.16834 0.67037
 C291 C 0.83885 0.15897 0.66082
 C292 C 0.81222 0.13128 0.66002
 C293 C 0.80346 0.14030 0.64176
 C294 C 0.81232 0.15862 0.63300
 C295 C 0.83000 0.16804 0.64242
 C296 C 0.83902 0.18634 0.63374
 C297 C 0.85671 0.19559 0.64324
 C298 C 0.86551 0.18664 0.66148
 H299 H 0.83204 0.11738 0.69470
 H300 H 0.87918 0.16631 0.69594
 H301 H 0.80529 0.11709 0.66672
 H302 H 0.80546 0.16552 0.61886
 H303 H 0.83235 0.19338 0.61959
 H304 H 0.87924 0.19391 0.66869
 C305 C 1.35829 0.33065 0.66992
 C306 C 1.36662 0.33916 0.68862
 C307 C 1.35724 0.35693 0.69798
 C308 C 1.33941 0.36628 0.68875
 C309 C 1.33087 0.35797 0.67006
 C310 C 1.34034 0.34008 0.66057
 C311 C 1.36762 0.31294 0.66036
 C312 C 1.35921 0.30462 0.64164
 C313 C 1.34140 0.31394 0.63234
 C314 C 1.33188 0.33166 0.64170
 C315 C 1.31408 0.34112 0.63252
 C316 C 1.30473 0.35884 0.64195
 C317 C 1.31308 0.36725 0.66064
 H318 H 1.38045 0.33202 0.69582
 H319 H 1.33226 0.38007 0.69605
 H320 H 1.38141 0.30564 0.66747
 H321 H 1.33496 0.30742 0.61785
 H322 H 1.30747 0.33474 0.61805
 H323 H 1.30572 0.38098 0.66781
 C324 C 1.35849 0.83036 1.16915
 C325 C 1.36713 0.83917 1.18756
 C326 C 1.35773 0.85691 1.19692
 C327 C 1.33961 0.86596 1.18799
 C328 C 1.33077 0.85735 1.16959
 C329 C 1.34023 0.83947 1.16009
 C330 C 1.36781 0.81264 1.15959
 C331 C 1.35908 0.80401 1.14116
 C332 C 1.34097 0.81301 1.13215
 C333 C 1.33146 0.83073 1.14151
 C334 C 1.31335 0.83990 1.13261
 C335 C 1.30402 0.85762 1.14205
 C336 C 1.31267 0.86632 1.16047
 H337 H 1.38117 0.83232 1.19458
 H338 H 1.33249 0.87972 1.19535
 H339 H 1.38184 0.80559 1.16648
 H340 H 1.33429 0.80624 1.11788
 H341 H 1.30652 0.83330 1.11834
 H342 H 1.30533 0.88006 1.16764
 C343 C 0.85389 0.32566 1.17329
 C344 C 0.86264 0.33458 1.19159
 C345 C 0.85304 0.35208 1.20118
 C346 C 0.83457 0.36076 1.19263
 C347 C 0.82562 0.35205 1.17433
 C348 C 0.83530 0.33443 1.16458
 C349 C 0.86350 0.30828 1.16341
 C350 C 0.85475 0.29965 1.14499
 C351 C 0.83629 0.30830 1.13634
 C352 C 0.82649 0.32569 1.14601
 C353 C 0.80816 0.33463 1.13735
 C354 C 0.79866 0.35215 1.14700
 C355 C 0.80730 0.36080 1.16544
 H356 H 0.87699 0.32804 1.19830
 H357 H 0.82732 0.37437 1.20013
 H358 H 0.87782 0.30153 1.17000
 H359 H 0.82962 0.30156 1.12205
 H360 H 0.80137 0.32811 1.12303
 H361 H 0.79986 0.37443 1.17274
 C362 C 0.86394 0.83686 0.66299
 C363 C 0.87255 0.84566 0.68142
 C364 C 0.86330 0.86356 0.69063
 C365 C 0.84542 0.87285 0.68146
 C366 C 0.83662 0.86426 0.66302
 C367 C 0.84589 0.84618 0.65372
 C368 C 0.87298 0.81885 0.65371
 C369 C 0.86416 0.81011 0.63539
 C370 C 0.84628 0.81933 0.62615
 C371 C 0.83705 0.83735 0.63521
 C372 C 0.81906 0.84663 0.62619
 C373 C 0.80989 0.86454 0.63546
 C374 C 0.81864 0.87334 0.65378
 H375 H 0.88637 0.83858 0.68866
 H376 H 0.83837 0.88669 0.68874
 H377 H 0.88680 0.81156 0.66076
 H378 H 0.83955 0.81240 0.61200
 H379 H 0.81212 0.83991 0.61203
 H380 H 0.81138 0.88719 0.66085
 C381 C 0.63660 0.66398 0.66497
 C382 C 0.62736 0.65457 0.68280
 C383 C 0.63617 0.63625 0.69159
 C384 C 0.65427 0.62718 0.68265
 C385 C 0.66373 0.63638 0.66482
 C386 C 0.65488 0.65487 0.65591
 C387 C 0.62797 0.68238 0.65608
 C388 C 0.63738 0.69168 0.63833
 C389 C 0.65548 0.68267 0.62929
 C390 C 0.66433 0.66429 0.63798
 C391 C 0.68251 0.65518 0.62915
 C392 C 0.69128 0.63689 0.63804
 C393 C 0.68193 0.62751 0.65579
 H394 H 0.61336 0.66149 0.68988
 H395 H 0.66100 0.61302 0.68963
 H396 H 0.61398 0.68950 0.66297
 H397 H 0.66265 0.69002 0.61555
 H398 H 0.68990 0.66233 0.61541
 H399 H 0.68887 0.61336 0.66257
 C400 C 0.65299 1.18099 1.18067
 C401 C 0.64384 1.17174 1.19864
 C402 C 0.65246 1.15327 1.20730
 C403 C 0.67040 1.14401 1.19822
 C404 C 0.67975 1.15305 1.18026
 C405 C 0.67101 1.17161 1.17139
 C406 C 0.64417 1.19918 1.17155
 C407 C 0.65310 1.20799 1.15328
 C408 C 0.67105 1.19878 1.14410
 C409 C 0.68007 1.18058 1.15303
 C410 C 0.69773 1.17095 1.14371
 C411 C 0.70632 1.15251 1.15250
 C412 C 0.69743 1.14365 1.17075
 H413 H 0.62986 1.17869 1.20572
 H414 H 0.67687 1.12963 1.20498
 H415 H 0.63018 1.20630 1.17849
 H416 H 0.67779 1.20559 1.12987
 H417 H 0.70466 1.17761 1.12950
 H418 H 0.70414 1.12931 1.17735
 C419 C 0.13723 0.66536 1.16637
 C420 C 0.12788 0.65591 1.18413
 C421 C 0.13675 0.63767 1.19307
 C422 C 0.15502 0.62872 1.18430
 C423 C 0.16457 0.63797 1.16655
 C424 C 0.15566 0.65637 1.15751
 C425 C 0.12852 0.68365 1.15732
 C426 C 0.13804 0.69299 1.13961
 C427 C 0.15632 0.68410 1.13081
 C428 C 0.16522 0.66581 1.13965
 C429 C 0.18353 0.65679 1.13098
 C430 C 0.19231 0.63856 1.13997
 C431 C 0.18289 0.62918 1.15768
 H432 H 0.11375 0.66277 1.19102
 H433 H 0.16182 0.61461 1.19132
 H434 H 0.11437 0.69062 1.16406
 H435 H 0.16362 0.69142 1.11711
 H436 H 0.19096 0.66393 1.11727
 H437 H 0.18984 0.61507 1.16452
 C438 C 0.13865 1.16578 0.66799
 C439 C 0.12936 1.15619 0.68570
 C440 C 0.13819 1.13781 0.69438
 C441 C 0.15639 1.12888 0.68543
 C442 C 0.16589 1.13829 0.66774
 C443 C 0.15700 1.15681 0.65895
 C444 C 0.12994 1.18417 0.65917
 C445 C 0.13935 1.19360 0.64148
 C446 C 0.15753 1.18475 0.63247
 C447 C 0.16647 1.16638 0.64111
 C448 C 0.18468 1.15740 0.63223
 C449 C 0.19347 1.13905 0.64100
 C450 C 0.18412 1.12953 0.65867
 H451 H 0.11528 1.16302 0.69273
 H452 H 0.16316 1.11466 0.69225
 H453 H 0.11586 1.19115 0.66601
 H454 H 0.16468 1.19218 0.61876
 H455 H 0.19205 1.16464 0.61854
 H456 H 0.19106 1.11532 0.66532
 C457 C 1.35067 0.67698 0.32407
 C458 C 1.35981 0.66741 0.30625
 C459 C 1.35098 0.64900 0.29769
 C460 C 1.33290 0.64007 0.30683
 C461 C 1.32359 0.64943 0.32465
 C462 C 1.33248 0.66797 0.33334
 C463 C 1.35956 0.69523 0.33296
 C464 C 1.35050 0.70448 0.35096
 C465 C 1.33239 0.69562 0.36011
 C466 C 1.32330 0.67737 0.35143
 C467 C 1.30539 0.66816 0.36068
 C468 C 1.29667 0.64973 0.35208
 C469 C 1.30569 0.64044 0.33411
 H470 H 1.37386 0.67419 0.29916
 H471 H 1.32619 0.62578 0.30017
 H472 H 1.37364 0.70210 0.32601
 H473 H 1.32550 0.70279 0.37411
 H474 H 1.29832 0.67518 0.37464
 H475 H 1.29886 0.62612 0.32763
 C476 C 1.35230 1.17491 0.82626
 C477 C 1.36133 1.16551 0.80830
 C478 C 1.35231 1.14733 0.79949
 C479 C 1.33415 1.13846 0.80849
 C480 C 1.32493 1.14765 0.82645
 C481 C 1.33402 1.16596 0.83540
 C482 C 1.36136 1.19297 0.83537
 C483 C 1.35237 1.20207 0.85348
 C484 C 1.33419 1.19325 0.86254
 C485 C 1.32494 1.17520 0.85362
 C486 C 1.30691 1.16608 0.86271
 C487 C 1.29798 1.14789 0.85383
 C488 C 1.30691 1.13873 0.83575
 H489 H 1.37543 1.17221 0.80125
 H490 H 1.32733 1.12434 0.80158
 H491 H 1.37547 1.19983 0.82848
 H492 H 1.32736 1.20032 0.87661
 H493 H 1.29990 1.17300 0.87676
 H494 H 1.29991 1.12460 0.82905
 C495 C 0.86203 0.66400 0.83594
 C496 C 0.87067 0.65493 0.81763
 C497 C 0.86114 0.63724 0.80837
 C498 C 0.84293 0.62846 0.81734
 C499 C 0.83408 0.63732 0.83565
 C500 C 0.84364 0.65518 0.84501
 C501 C 0.87137 0.68177 0.84532
 C502 C 0.86254 0.69075 0.86354
 C503 C 0.84432 0.68202 0.87257
 C504 C 0.83477 0.66425 0.86342
 C505 C 0.81648 0.65543 0.87228
 C506 C 0.80705 0.63771 0.86297
 C507 C 0.81581 0.62868 0.84473
 H508 H 0.88477 0.66162 0.81055
 H509 H 0.83567 0.61477 0.81003
 H510 H 0.88546 0.68868 0.83844
 H511 H 0.83759 0.68912 0.88667
 H512 H 0.80956 0.66231 0.88639
 H513 H 0.80837 0.61498 0.83764
 C514 C 0.84658 1.18002 0.31933
 C515 C 0.85582 1.17034 0.30163
 C516 C 0.84680 1.15211 0.29287
 C517 C 0.82839 1.14352 0.30166
 C518 C 0.81897 1.15300 0.31937
 C519 C 0.82808 1.17132 0.32827
 C520 C 0.85574 1.19798 0.32851
 C521 C 0.84664 1.20723 0.34647
 C522 C 0.82823 1.19872 0.35530
 C523 C 0.81887 1.18075 0.34634
 C524 C 0.80074 1.17177 0.35535
 C525 C 0.79184 1.15353 0.34656
 C526 C 0.80085 1.14423 0.32859
 H527 H 0.87015 1.17684 0.29482
 H528 H 0.82156 1.12934 0.29489
 H529 H 0.87008 1.20461 0.32190
 H530 H 0.82141 1.20592 0.36929
 H531 H 0.79371 1.17876 0.36936
 H532 H 0.79391 1.13001 0.32201
 C533 C 0.65796 0.31460 0.31454
 C534 C 0.64852 0.32419 0.29690
 C535 C 0.65716 0.34265 0.28822
 C536 C 0.67544 0.35153 0.29698
 C537 C 0.68509 0.34212 0.31461
 C538 C 0.67632 0.32359 0.32347
 C539 C 0.64905 0.29651 0.32377
 C540 C 0.65821 0.28746 0.34179
 C541 C 0.67650 0.29623 0.35056
 C542 C 0.68563 0.31431 0.34154
 C543 C 0.70356 0.32362 0.35060
 C544 C 0.71215 0.34206 0.34187
 C545 C 0.70303 0.35122 0.32388
 H546 H 0.63428 0.31749 0.29016
 H547 H 0.68195 0.36592 0.29030
 H548 H 0.63477 0.28971 0.31722
 H549 H 0.68336 0.28922 0.36463
 H550 H 0.71062 0.31676 0.36464
 H551 H 0.70968 0.36561 0.31737
 C552 C 0.64071 0.83146 0.83247
 C553 C 0.63167 0.84062 0.81441
 C554 C 0.64064 0.85872 0.80536
 C555 C 0.65872 0.86779 0.81426
 C556 C 0.66798 0.85884 0.83231
 C557 C 0.65895 0.84058 0.84149
 C558 C 0.63184 0.81336 0.84169
 C559 C 0.64100 0.80435 0.85973
 C560 C 0.65909 0.81335 0.86870
 C561 C 0.66815 0.83146 0.85969
 C562 C 0.68624 0.84064 0.86856
 C563 C 0.69516 0.85873 0.85943
 C564 C 0.68608 0.86779 0.84137
 H565 H 0.61766 0.83372 0.80739
 H566 H 0.66554 0.88181 0.80712
 H567 H 0.61783 0.80626 0.83488
 H568 H 0.66605 0.80625 0.88268
 H569 H 0.69339 0.83376 0.88254
 H570 H 0.69311 0.88180 0.83443
 C571 C 0.14751 0.32353 0.82584
 C572 C 0.13829 0.33275 0.80789
 C573 C 0.14718 0.35086 0.79880
 C574 C 0.16541 0.35986 0.80749
 C575 C 0.17484 0.35084 0.82543
 C576 C 0.16587 0.33259 0.83467
 C577 C 0.13857 0.30556 0.83526
 C578 C 0.14775 0.29663 0.85335
 C579 C 0.16601 0.30555 0.86209
 C580 C 0.17514 0.32353 0.85287
 C581 C 0.19324 0.33277 0.86166
 C582 C 0.20206 0.35089 0.85250
 C583 C 0.19294 0.35987 0.83443
 H584 H 0.12413 0.32596 0.80107
 H585 H 0.17212 0.37393 0.80037
 H586 H 0.12439 0.29862 0.82861
 H587 H 0.17300 0.29861 0.87614
 H588 H 0.20037 0.32600 0.87572
 H589 H 0.19985 0.37395 0.82751
 C590 C 0.14194 0.82977 0.33108
 C591 C 0.13238 0.83949 0.31358
 C592 C 0.14120 0.85777 0.30470
 C593 C 0.15966 0.86647 0.31326
 C594 C 0.16941 0.85695 0.33076
 C595 C 0.16055 0.83850 0.33972
 C596 C 0.13320 0.81152 0.34014
 C597 C 0.14284 0.80197 0.35766
 C598 C 0.16133 0.81059 0.36623
 C599 C 0.17026 0.82884 0.35737
 C600 C 0.18867 0.83768 0.36592
 C601 C 0.19738 0.85599 0.35705
 C602 C 0.18782 0.86558 0.33952
 H603 H 0.11808 0.83285 0.30688
 H604 H 0.16640 0.88063 0.30632
 H605 H 0.11887 0.80479 0.33360
 H606 H 0.16870 0.80314 0.37982
 H607 H 0.19618 0.83042 0.37952
 H608 H 0.19467 0.87978 0.33280
 O609 O 1.07538 1.02009 1.10671
 O610 O 1.09994 1.02017 1.13140
 C611 C 1.08276 1.02735 1.12390
 C612 C 1.07151 1.04469 1.13493
 C613 C 1.07875 1.05228 1.15450
 H614 H 1.09228 1.04501 1.16208
 O615 O 0.92339 0.97899 1.10597
 O616 O 0.89874 0.97891 1.13062
 C617 C 0.91594 0.97172 1.12316
 C618 C 0.92704 0.95429 1.13419
 C619 C 0.91942 0.94650 1.15355
 H620 H 0.90574 0.95368 1.16097
 O621 O 1.02005 1.10464 1.07729
 O622 O 1.02007 1.12940 1.10183
 C623 C 1.02732 1.12181 1.08469
 C624 C 1.04477 1.13270 1.07355
 C625 C 1.05280 1.15191 1.08124
 H626 H 1.04581 1.15931 1.09504
 O627 O 0.97938 0.89421 1.07733
 O628 O 0.97927 0.86944 1.10188
 C629 C 0.97215 0.87698 1.08467
 C630 C 0.95491 0.86596 1.07337
 C631 C 0.94731 0.84643 1.08070
 H632 H 0.95447 0.83890 1.09434
 O633 O 1.10438 1.07556 1.02129
 O634 O 1.12901 1.10016 1.02136
 C635 C 1.12147 1.08303 1.02863
 C636 C 1.13230 1.07207 1.04627
 C637 C 1.15132 1.08002 1.05443
 H638 H 1.15863 1.09381 1.04737
 O639 O 0.89488 0.92298 1.02120
 O640 O 0.87031 0.89832 1.02127
 C641 C 0.87776 0.91549 1.02850
 C642 C 0.86679 0.92654 1.04601
 C643 C 0.84777 0.91858 1.05421
 H644 H 0.84054 0.90469 1.04727
 O645 O 0.97854 1.07604 1.10614
 O646 O 0.97836 1.10083 1.13065
 C647 C 0.97108 1.08370 1.12315
 C648 C 0.95326 1.07296 1.13385
 C649 C 0.94409 1.08175 1.15208
 H650 H 0.95055 1.09603 1.15898
 O651 O 1.02034 0.92303 1.10661
 O652 O 1.02025 0.89839 1.13130
 C653 C 1.02749 0.91557 1.12384
 C654 C 1.04481 0.92670 1.13491
 C655 C 1.05266 0.91908 1.15425
 H656 H 1.04559 0.90534 1.16166
 O657 O 1.10436 0.97888 1.07770
 O658 O 1.12905 0.97894 1.10226
 C659 C 1.12155 0.97166 1.08511
 C660 C 1.13253 0.95421 1.07399
 C661 C 1.15172 0.94619 1.08176
 H662 H 1.15903 0.95319 1.09557
 O663 O 0.89441 1.02020 1.07693
 O664 O 0.86968 1.02011 1.10150
 C665 C 0.87726 1.02748 1.08441
 C666 C 0.86651 1.04526 1.07359
 C667 C 0.84816 1.05424 1.08230
 H668 H 0.84122 1.04765 1.09652
 O669 O 0.92340 1.10476 1.02108
 O670 O 0.89885 1.12952 1.02099
 C671 C 0.91597 1.12198 1.02828
 C672 C 0.92701 1.13297 1.04575
 C673 C 0.91916 1.15215 1.05375
 H674 H 0.90537 1.15947 1.04671
 O675 O 1.07602 0.89422 1.02150
 O676 O 1.10066 0.86957 1.02155
 C677 C 1.08349 0.87705 1.02877
 C678 C 1.07242 0.86606 1.04625
 C679 C 1.08006 0.84673 1.05411
 H680 H 1.09372 0.83929 1.04693
 O681 O 0.92310 1.02031 1.10598
 O682 O 0.89838 1.02024 1.13056
 C683 C 0.91546 1.02764 1.12306
 C684 C 0.92607 1.04550 1.13381
 C685 C 0.91717 1.05456 1.15206
 H686 H 0.90295 1.04796 1.15893
 O687 O 1.07557 0.97884 1.10678
 O688 O 1.10017 0.97888 1.13144
 C689 C 1.08305 0.97161 1.12396
 C690 C 1.07202 0.95414 1.13496
 C691 C 1.07962 0.94627 1.15429
 H692 H 1.09327 0.95342 1.16174
 O693 O 1.02055 0.89428 1.07748
 O694 O 1.02050 0.86953 1.10205
 C695 C 1.02777 0.87707 1.08490
 C696 C 1.04520 0.86610 1.07376
 C697 C 1.05309 0.84677 1.08136
 H698 H 1.04603 0.83934 1.09510
 O699 O 0.97887 1.10482 1.07707
 O700 O 0.97884 1.12968 1.10152
 C701 C 0.97165 1.12209 1.08438
 C702 C 0.95426 1.13304 1.07317
 C703 C 0.94616 1.15223 1.08091
 H704 H 0.95309 1.15959 1.09473
 O705 O 0.89445 1.07593 1.02118
 O706 O 0.86985 1.10063 1.02114
 C707 C 0.87735 1.08350 1.02850
 C708 C 0.86656 1.07269 1.04626
 C709 C 0.84820 1.08139 1.05523
 H710 H 0.84128 1.09563 1.04865
 O711 O 1.10471 0.92333 1.02163
 O712 O 1.12944 0.89876 1.02173
 C713 C 1.12184 0.91589 1.02897
 C714 C 1.13267 0.92694 1.04652
 C715 C 1.15185 0.91918 1.05455
 H716 H 1.15926 0.90545 1.04747
 O717 O 0.97915 0.92316 1.10625
 O718 O 0.97899 0.89851 1.13092
 C719 C 0.97180 0.91571 1.12339
 C720 C 0.95434 0.92686 1.13430
 C721 C 0.94647 0.91934 1.15367
 H722 H 0.95358 0.90567 1.16118
 O723 O 1.01977 1.07585 1.10645
 O724 O 1.01966 1.10050 1.13110
 C725 C 1.02689 1.08328 1.12368
 C726 C 1.04416 1.07206 1.13483
 C727 C 1.05166 1.07941 1.15439
 H728 H 1.04439 1.09300 1.16189
 O729 O 0.89457 0.97887 1.07693
 O730 O 0.86984 0.97876 1.10151
 C731 C 0.87744 0.97153 1.08436
 C732 C 0.86664 0.95395 1.07333
 C733 C 0.84763 0.94572 1.08127
 H734 H 0.84029 0.95268 1.09511
 O735 O 1.10420 1.02014 1.07763
 O736 O 1.12887 1.02027 1.10222
 C737 C 1.12133 1.02746 1.08504
 C738 C 1.13222 1.04492 1.07388
 C739 C 1.15124 1.05313 1.08176
 H740 H 1.15851 1.04625 1.09567
 O741 O 0.92393 0.89416 1.02122
 O742 O 0.89945 0.86940 1.02127
 C743 C 0.91657 0.87695 1.02848
 C744 C 0.92773 0.86595 1.04588
 C745 C 0.92038 0.84643 1.05348
 H746 H 0.90685 0.83890 1.04620
 O747 O 1.07553 1.10459 1.02118
 O748 O 1.10010 1.12925 1.02122
 C749 C 1.08296 1.12175 1.02846
 C750 C 1.07194 1.13269 1.04599
 C751 C 1.07971 1.15189 1.05395
 H752 H 1.09342 1.15926 1.04681
 Cu753 Cu 1.08741 0.99948 1.08974
 Cu754 Cu 1.11700 0.99958 1.11929
 Cu755 Cu 0.91134 0.99958 1.08899
 Cu756 Cu 0.88168 0.99946 1.11851
 Cu757 Cu 0.99934 1.08785 1.08930
 Cu758 Cu 0.99925 1.11758 1.11875
 Cu759 Cu 0.99987 0.91115 1.08946
 Cu760 Cu 0.99973 0.88148 1.11902
 C761 C 1.05406 1.05455 1.12534
 H762 H 1.04858 1.04900 1.11010
 C763 C 1.06886 1.06954 1.16418
 C764 C 0.94465 0.94449 1.12479
 H765 H 0.95041 0.95018 1.10969
 C766 C 0.92910 0.92913 1.16323
 C767 C 1.05433 1.12332 1.05578
 H768 H 1.04846 1.10834 1.04995
 C769 C 1.07019 1.16143 1.07149
 C770 C 0.94514 0.87549 1.05580
 H771 H 0.95070 0.89071 1.05025
 C772 C 0.93014 0.83673 1.07079
 C773 C 1.12297 1.05438 1.05599
 H774 H 1.10812 1.04837 1.05002
 C775 C 1.16071 1.07061 1.07209
 C776 C 0.87599 0.94438 1.05555
 H777 H 0.89083 0.95040 1.04956
 C778 C 0.83826 0.92812 1.07177
 C779 C 0.94425 1.05469 1.12496
 H780 H 0.95097 1.04804 1.11067
 C781 C 0.92610 1.07263 1.16108
 C782 C 1.05447 0.94438 1.12552
 H783 H 1.04872 0.95015 1.11045
 C784 C 1.06997 0.92883 1.16389
 C785 C 1.12325 0.94460 1.05623
 H786 H 1.10829 0.95048 1.05034
 C787 C 1.16130 0.92876 1.07208
 C788 C 0.87547 1.05448 1.05543
 H789 H 0.88983 1.04789 1.04885
 C790 C 0.83910 1.07225 1.07320
 C791 C 0.94470 1.12365 1.05544
 H792 H 0.95063 1.10868 1.04959
 C793 C 0.92868 1.16170 1.07126
 C794 C 1.05485 0.87551 1.05606
 H795 H 1.04906 0.89057 1.05030
 C796 C 1.07043 0.83715 1.07157
 O797 O 1.07617 0.97858 0.89519
 O798 O 1.10082 0.97853 0.87053
 C799 C 1.08368 0.97128 0.87804
 C800 C 1.07268 0.95379 0.86708
 C801 C 1.08055 0.94572 0.84793
 H802 H 1.09437 0.95270 0.84063
 O803 O 0.92354 1.02006 0.89500
 O804 O 0.89893 1.02001 0.87035
 C805 C 0.91602 1.02733 0.87785
 C806 C 0.92690 1.04495 0.86694
 C807 C 0.91888 1.05318 0.84793
 H808 H 0.90507 1.04616 0.84066
 O809 O 0.97917 1.10471 0.92404
 O810 O 0.97923 1.12946 0.89946
 C811 C 0.97200 1.12195 0.91665
 C812 C 0.95464 1.13299 0.92783
 C813 C 0.94688 1.15240 0.92030
 H814 H 0.95405 1.15987 0.90664
 O815 O 1.02065 0.89417 0.92416
 O816 O 1.02082 0.86946 0.89957
 C817 C 1.02804 0.87705 0.91670
 C818 C 1.04567 0.86627 0.92771
 C819 C 1.05425 0.84747 0.91956
 H820 H 1.04751 0.84024 0.90557
 O821 O 1.10498 0.92330 0.98031
 O822 O 1.12974 0.89877 0.98040
 C823 C 1.12219 0.91591 0.97310
 C824 C 1.13315 0.92699 0.95562
 C825 C 1.15240 0.91927 0.94768
 H826 H 1.15979 0.90554 0.95481
 O827 O 0.89456 1.07579 0.97982
 O828 O 0.86991 1.10044 0.97972
 C829 C 0.87744 1.08327 0.97250
 C830 C 0.86660 1.07224 0.95493
 C831 C 0.84763 1.08024 0.94663
 H832 H 0.84033 1.09413 0.95353
 O833 O 1.02008 1.07551 0.89491
 O834 O 1.02009 1.10004 0.87011
 C835 C 1.02726 1.08284 0.87764
 C836 C 1.04454 1.07155 0.86660
 C837 C 1.05211 1.07883 0.84702
 H838 H 1.04487 1.09239 0.83944
 O839 O 0.97934 0.92290 0.89514
 O840 O 0.97937 0.89825 0.87049
 C841 C 0.97212 0.91544 0.87796
 C842 C 0.95475 0.92661 0.86693
 C843 C 0.94709 0.91918 0.84745
 H844 H 0.95430 0.90556 0.83995
 O845 O 1.10477 1.02013 0.92397
 O846 O 1.12942 1.02020 0.89932
 C847 C 1.12185 1.02749 0.91645
 C848 C 1.13260 1.04515 0.92738
 C849 C 1.15126 1.05383 0.91907
 H850 H 1.15839 1.04716 0.90497
 O851 O 0.89485 0.97873 0.92406
 O852 O 0.87018 0.97864 0.89948
 C853 C 0.87772 0.97143 0.91664
 C854 C 0.86683 0.95395 0.92777
 C855 C 0.84764 0.94596 0.92007
 H856 H 0.84025 0.95301 0.90631
 O857 O 1.07568 1.10454 0.97982
 O858 O 1.10027 1.12917 0.97987
 C859 C 1.08322 1.12164 0.97249
 C860 C 1.07249 1.13243 0.95469
 C861 C 1.08096 1.15105 0.94604
 H862 H 1.09494 1.15814 0.95288
 O863 O 0.92386 0.89397 0.97995
 O864 O 0.89936 0.86923 0.97999
 C865 C 0.91650 0.87674 0.97276
 C866 C 0.92773 0.86566 0.95544
 C867 C 0.92054 0.84602 0.94800
 H868 H 0.90705 0.83845 0.95534
 O869 O 0.92373 0.97876 0.89505
 O870 O 0.89915 0.97869 0.87038
 C871 C 0.91631 0.97148 0.87788
 C872 C 0.92746 0.95405 0.86689
 C873 C 0.92005 0.94636 0.84743
 H874 H 0.90647 0.95360 0.83991
 O875 O 1.07584 1.01981 0.89508
 O876 O 1.10040 1.01979 0.87034
 C877 C 1.08320 1.02697 0.87781
 C878 C 1.07193 1.04422 0.86669
 C879 C 1.07924 1.05174 0.84710
 H880 H 1.09283 1.04449 0.83959
 O881 O 0.97945 0.89392 0.92410
 O882 O 0.97955 0.86914 0.89958
 C883 C 0.97231 0.87667 0.91676
 C884 C 0.95504 0.86562 0.92803
 C885 C 0.94761 0.84598 0.92084
 H886 H 0.95491 0.83838 0.90732
 O887 O 1.02039 1.10456 0.92372
 O888 O 1.02052 1.12918 0.89902
 C889 C 1.02777 1.12163 0.91617
 C890 C 1.04542 1.13240 0.92709
 C891 C 1.05416 1.15103 0.91870
 H892 H 1.04754 1.15811 0.90456
 O893 O 0.89497 0.92299 0.97989
 O894 O 0.87038 0.89835 0.97991
 C895 C 0.87785 0.91551 0.97264
 C896 C 0.86689 0.92659 0.95516
 C897 C 0.84769 0.91885 0.94720
 H898 H 0.84034 0.90510 0.95429
 O899 O 1.10459 1.07564 0.97993
 O900 O 1.12921 1.10025 0.98000
 C901 C 1.12171 1.08315 0.97265
 C902 C 1.13256 1.07233 0.95494
 C903 C 1.15121 1.08074 0.94635
 H904 H 1.15828 1.09475 0.95320
 O905 O 1.02053 0.92293 0.89508
 O906 O 1.02063 0.89830 0.87040
 C907 C 1.02783 0.91546 0.87791
 C908 C 1.04532 0.92651 0.86698
 C909 C 1.05345 0.91869 0.84784
 H910 H 1.04646 0.90490 0.84047
 O911 O 0.97889 1.07593 0.89495
 O912 O 0.97885 1.10057 0.87027
 C913 C 0.97158 1.08344 0.87781
 C914 C 0.95404 1.07245 0.86694
 C915 C 0.94576 1.08042 0.84792
 H916 H 0.95262 1.09432 0.84063
 O917 O 0.89476 1.02001 0.92404
 O918 O 0.87009 1.01997 0.89946
 C919 C 0.87761 1.02727 0.91659
 C920 C 0.86669 1.04484 0.92759
 C921 C 0.84774 1.05312 0.91954
 H922 H 0.84052 1.04619 0.90563
 O923 O 1.10492 0.97884 0.92428
 O924 O 1.12965 0.97884 0.89972
 C925 C 1.12213 0.97163 0.91691
 C926 C 1.13312 0.95425 0.92812
 C927 C 1.15237 0.94627 0.92045
 H928 H 1.15976 0.95330 0.90667
 O929 O 1.07612 0.89438 0.98016
 O930 O 1.10082 0.86978 0.98019
 C931 C 1.08371 0.87727 0.97285
 C932 C 1.07289 0.86639 0.95518
 C933 C 1.08121 0.84759 0.94675
 H934 H 1.09518 0.84046 0.95363
 O935 O 0.92343 1.10475 0.97981
 O936 O 0.89887 1.12949 0.97971
 C937 C 0.91604 1.12196 0.97253
 C938 C 0.92723 1.13296 0.95515
 C939 C 0.91972 1.15237 0.94735
 H940 H 0.90603 1.15982 0.95448
 Cu941 Cu 1.08797 0.99934 0.91210
 Cu942 Cu 1.11757 0.99934 0.88252
 Cu943 Cu 0.91169 0.99938 0.91200
 Cu944 Cu 0.88211 0.99931 0.88245
 Cu945 Cu 1.08758 1.08761 1.00056
 Cu946 Cu 1.11712 1.11718 1.00064
 Cu947 Cu 1.08798 0.91126 1.00090
 Cu948 Cu 1.11764 0.88175 1.00098
 Cu949 Cu 0.91140 1.08782 1.00047
 Cu950 Cu 0.88188 1.11748 1.00037
 Cu951 Cu 0.91186 0.91100 1.00055
 Cu952 Cu 0.88240 0.88136 1.00061
 Cu953 Cu 0.99962 1.08771 0.91188
 Cu954 Cu 0.99967 1.11730 0.88224
 Cu955 Cu 0.99996 0.91095 0.91208
 Cu956 Cu 1.00008 0.88130 0.88254
 C957 C 1.05492 0.94422 0.87636
 H958 H 1.04896 0.95014 0.89129
 C959 C 1.07098 0.92825 0.83838
 C960 C 0.94462 1.05458 0.87621
 H961 H 0.95070 1.04854 0.89104
 C962 C 0.92825 1.07083 0.83848
 C963 C 0.94484 1.12351 0.94541
 H964 H 0.95052 1.10839 0.95111
 C965 C 0.92951 1.16202 0.93003
 C966 C 1.05498 0.87550 0.94567
 H967 H 1.04869 0.89018 0.95184
 C968 C 1.07195 0.83822 0.92902
 C969 C 1.12375 0.94462 0.94585
 H970 H 1.10874 0.95046 0.95165
 C971 C 1.16194 0.92886 0.93019
 C972 C 0.87589 1.05439 0.94542
 H973 H 0.89069 1.04834 0.95150
 C974 C 0.83828 1.07073 0.92900
 C975 C 1.05442 1.05409 0.87619
 H976 H 1.04890 1.04859 0.89145
 C977 C 1.06936 1.06895 0.83733
 C978 C 0.94495 0.94419 0.87641
 H979 H 0.95055 0.94981 0.89158
 C980 C 0.92983 0.92903 0.83776
 C981 C 1.12349 1.05440 0.94546
 H982 H 1.10891 1.04805 0.95175
 C983 C 1.16047 1.07157 0.92849
 C984 C 0.87622 0.94429 0.94546
 H985 H 0.89118 0.95014 0.95129
 C986 C 0.83814 0.92850 0.92974
 C987 C 1.05459 1.12334 0.94522
 H988 H 1.04820 1.10879 0.95156
 C989 C 1.07187 1.16025 0.92811
 C990 C 0.94513 0.87522 0.94547
 H991 H 0.95056 0.89051 0.95091
 C992 C 0.93045 0.83623 0.93081
 O993 O 0.97953 0.42284 0.39501
 O994 O 0.97968 0.39829 0.37025
 C995 C 0.97232 0.41539 0.37782
 C996 C 0.95470 0.42631 0.36696
 C997 C 0.94608 0.41793 0.34829
 H998 H 0.95281 0.40384 0.34122
 O999 O 1.02041 0.57593 0.39496
 O1000 O 1.02027 0.60043 0.37013
 C1001 C 1.02752 0.58326 0.37766
 C1002 C 1.04477 0.57200 0.36654
 C1003 C 1.05223 0.57927 0.34691
 H1004 H 1.04494 0.59283 0.33937
 O1005 O 0.89456 0.47814 0.42358
 O1006 O 0.87017 0.47827 0.39872
 C1007 C 0.87763 0.47074 0.41578
 C1008 C 0.86706 0.45260 0.42613
 C1009 C 0.84957 0.44286 0.41655
 H1010 H 0.84307 0.44918 0.40201
 O1011 O 1.10502 0.52042 0.42371
 O1012 O 1.12958 0.52054 0.39897
 C1013 C 1.12205 0.52782 0.41612
 C1014 C 1.13278 0.54555 0.42700
 C1015 C 1.15134 0.55433 0.41858
 H1016 H 1.15843 0.54768 0.40446
 O1017 O 0.92358 0.39375 0.47938
 O1018 O 0.89910 0.36900 0.47943
 C1019 C 0.91617 0.37659 0.47209
 C1020 C 0.92701 0.36588 0.45430
 C1021 C 0.91817 0.34774 0.44505
 H1022 H 0.90386 0.34090 0.45149
 O1023 O 1.07589 0.60501 0.47970
 O1024 O 1.10044 0.62969 0.47983
 C1025 C 1.08337 0.62218 0.47247
 C1026 C 1.07249 0.63308 0.45483
 C1027 C 1.08058 0.65201 0.44649
 H1028 H 1.09440 0.65927 0.45348
 O1029 O 0.92360 0.51983 0.39526
 O1030 O 0.89917 0.51999 0.37044
 C1031 C 0.91623 0.52722 0.37810
 C1032 C 0.92722 0.54483 0.36728
 C1033 C 0.91935 0.55297 0.34817
 H1034 H 0.90560 0.54593 0.34081
 O1035 O 1.07628 0.47894 0.39500
 O1036 O 1.10082 0.47890 0.37024
 C1037 C 1.08369 0.47168 0.37780
 C1038 C 1.07255 0.45430 0.36682
 C1039 C 1.07984 0.44678 0.34722
 H1040 H 1.09335 0.45409 0.33963
 O1041 O 1.02073 0.39388 0.42397
 O1042 O 1.02093 0.36925 0.39931
 C1043 C 1.02807 0.37674 0.41651
 C1044 C 1.04551 0.36580 0.42765
 C1045 C 1.05335 0.34641 0.42015
 H1046 H 1.04619 0.33888 0.40653
 O1047 O 0.97942 0.60506 0.42409
 O1048 O 0.97936 0.62976 0.39946
 C1049 C 0.97220 0.62228 0.41669
 C1050 C 0.95491 0.63334 0.42794
 C1051 C 0.94751 0.65303 0.42078
 H1052 H 0.95488 0.66067 0.40732
 O1053 O 0.89469 0.57583 0.47946
 O1054 O 0.87003 0.60047 0.47933
 C1055 C 0.87758 0.58329 0.47212
 C1056 C 0.86671 0.57218 0.45462
 C1057 C 0.84779 0.58022 0.44623
 H1058 H 0.84059 0.59422 0.45300
 O1059 O 1.10527 0.42329 0.47950
 O1060 O 1.13001 0.39874 0.47953
 C1061 C 1.12248 0.41590 0.47229
 C1062 C 1.13349 0.42712 0.45492
 C1063 C 1.15300 0.41976 0.44729
 H1064 H 1.16052 0.40616 0.45451
 O1065 O 0.97922 0.57595 0.39533
 O1066 O 0.97904 0.60055 0.37059
 C1067 C 0.97186 0.58339 0.37819
 C1068 C 0.95438 0.57231 0.36733
 C1069 C 0.94625 0.58017 0.34821
 H1070 H 0.95318 0.59402 0.34087
 O1071 O 1.02073 0.42296 0.39509
 O1072 O 1.02090 0.39844 0.37032
 C1073 C 1.02801 0.41562 0.37787
 C1074 C 1.04531 0.42689 0.36684
 C1075 C 1.05286 0.41963 0.34724
 H1076 H 1.04564 0.40607 0.33968
 O1077 O 1.10527 0.47913 0.42385
 O1078 O 1.12993 0.47916 0.39921
 C1079 C 1.12247 0.47193 0.41641
 C1080 C 1.13351 0.45456 0.42760
 C1081 C 1.15302 0.44695 0.42023
 H1082 H 1.16055 0.45424 0.40666
 O1083 O 0.89459 0.51955 0.42414
 O1084 O 0.87010 0.51970 0.39937
 C1085 C 0.87752 0.52690 0.41659
 C1086 C 0.86664 0.54453 0.42752
 C1087 C 0.84773 0.55284 0.41940
 H1088 H 0.84049 0.54585 0.40555
 O1089 O 0.92348 0.60488 0.47962
 O1090 O 0.89891 0.62962 0.47955
 C1091 C 0.91612 0.62213 0.47241
 C1092 C 0.92744 0.63325 0.45519
 C1093 C 0.92028 0.65294 0.44779
 H1094 H 0.90675 0.66051 0.45508
 O1095 O 1.07652 0.39422 0.47951
 O1096 O 1.10115 0.36955 0.47955
 C1097 C 1.08400 0.37702 0.47230
 C1098 C 1.07290 0.36596 0.45493
 C1099 C 1.08049 0.34658 0.44717
 H1100 H 1.09419 0.33918 0.45431
 O1101 O 1.07612 0.52017 0.39481
 O1102 O 1.10058 0.52016 0.36997
 C1103 C 1.08342 0.52735 0.37752
 C1104 C 1.07213 0.54463 0.36647
 C1105 C 1.07933 0.55215 0.34683
 H1106 H 1.09285 0.54487 0.33923
 O1107 O 0.92378 0.47853 0.39502
 O1108 O 0.89938 0.47871 0.37016
 C1109 C 0.91644 0.47135 0.37777
 C1110 C 0.92739 0.45372 0.36692
 C1111 C 0.91903 0.44507 0.34826
 H1112 H 0.90498 0.45182 0.34117
 O1113 O 1.02061 0.60494 0.42384
 O1114 O 1.02061 0.62953 0.39911
 C1115 C 1.02788 0.62206 0.41628
 C1116 C 1.04540 0.63298 0.42726
 C1117 C 1.05373 0.65191 0.41918
 H1118 H 1.04691 0.65912 0.40520
 O1119 O 0.97947 0.39386 0.42387
 O1120 O 0.97962 0.36928 0.39915
 C1121 C 0.97221 0.37677 0.41626
 C1122 C 0.95441 0.36598 0.42696
 C1123 C 0.94531 0.34783 0.41800
 H1124 H 0.95184 0.34104 0.40368
 O1125 O 1.10474 0.57602 0.47955
 O1126 O 1.12934 0.60066 0.47964
 C1127 C 1.12184 0.58357 0.47225
 C1128 C 1.13267 0.57279 0.45449
 C1129 C 1.15122 0.58131 0.44580
 H1130 H 1.15822 0.59539 0.45257
 O1131 O 0.89445 0.42235 0.47900
 O1132 O 0.86996 0.39761 0.47900
 C1133 C 0.87750 0.41465 0.47155
 C1134 C 0.86700 0.42514 0.45342
 C1135 C 0.84951 0.41568 0.44358
 H1136 H 0.84296 0.40112 0.44980
 Cu1137 Cu 1.00013 0.41083 0.41197
 Cu1138 Cu 1.00034 0.38133 0.38229
 Cu1139 Cu 0.99993 0.58802 0.41203
 Cu1140 Cu 0.99980 0.61754 0.38233
 Cu1141 Cu 0.91155 0.49901 0.41201
 Cu1142 Cu 0.88223 0.49923 0.38220
 Cu1143 Cu 1.08823 0.49966 0.41183
 Cu1144 Cu 1.11772 0.49968 0.38213
 C1145 C 0.94536 0.44435 0.37603
 H1146 H 0.95166 0.45068 0.39063
 C1147 C 0.92830 0.42724 0.33905
 C1148 C 1.05469 0.55453 0.37608
 H1149 H 1.04924 0.54903 0.39136
 C1150 C 1.06940 0.56937 0.33711
 C1151 C 0.87552 0.44372 0.44469
 H1152 H 0.88925 0.45088 0.45193
 C1153 C 0.84093 0.42443 0.42518
 C1154 C 1.12369 0.55477 0.44511
 H1155 H 1.10919 0.54832 0.45149
 C1156 C 1.16047 0.57216 0.42792
 C1157 C 0.94526 0.37476 0.44525
 H1158 H 0.95192 0.38899 0.45202
 C1159 C 0.92723 0.33884 0.42695
 C1160 C 1.05476 0.62381 0.44522
 H1161 H 1.04865 0.60903 0.45133
 C1162 C 1.07125 0.66136 0.42875
 C1163 C 0.94488 0.55449 0.37665
 H1164 H 0.95083 0.54853 0.39156
 C1165 C 0.92880 0.57055 0.33872
 C1166 C 1.05513 0.44437 0.37640
 H1167 H 1.04960 0.44988 0.39165
 C1168 C 1.07002 0.42955 0.33748
 C1169 C 1.05526 0.37533 0.44519
 H1170 H 1.04952 0.39044 0.45087
 C1171 C 1.07074 0.33686 0.42988
 C1172 C 0.94490 0.62369 0.44530
 H1173 H 0.95031 0.60837 0.45071
 C1174 C 0.93030 0.66278 0.43069
 C1175 C 0.87589 0.55419 0.44528
 H1176 H 0.89066 0.54811 0.45141
 C1177 C 0.83839 0.57060 0.42870
 C1178 C 1.12398 0.44466 0.44509
 H1179 H 1.10880 0.45023 0.45068
 C1180 C 1.16272 0.42965 0.43004
 O1181 O 1.02018 0.42284 0.60547
 O1182 O 1.02022 0.39812 0.63008
 C1183 C 1.02749 0.41527 0.62258
 C1184 C 1.04513 0.42612 0.63345
 C1185 C 1.05373 0.41768 0.65211
 H1186 H 1.04698 0.40360 0.65917
 O1187 O 0.97867 0.57562 0.60553
 O1188 O 0.97846 0.60017 0.63027
 C1189 C 0.97131 0.58301 0.62270
 C1190 C 0.95388 0.57183 0.63360
 C1191 C 0.94601 0.57930 0.65300
 H1192 H 0.95310 0.59295 0.66052
 O1193 O 0.89423 0.51987 0.57627
 O1194 O 0.86950 0.51988 0.60084
 C1195 C 0.87705 0.52714 0.58369
 C1196 C 0.86612 0.54461 0.57257
 C1197 C 0.84671 0.55237 0.58007
 H1198 H 0.83921 0.54514 0.59369
 O1199 O 1.10481 0.47876 0.57673
 O1200 O 1.12947 0.47879 0.60133
 C1201 C 1.12203 0.47158 0.58413
 C1202 C 1.13312 0.45424 0.57296
 C1203 C 1.15245 0.44644 0.58057
 H1204 H 1.15981 0.45355 0.59430
 O1205 O 1.07633 0.39438 0.52078
 O1206 O 1.10096 0.36971 0.52088
 C1207 C 1.08377 0.37722 0.52808
 C1208 C 1.07265 0.36625 0.54553
 C1209 C 1.08045 0.34708 0.55363
 H1210 H 1.09430 0.33977 0.54668
 O1211 O 0.92333 0.60478 0.52085
 O1212 O 0.89876 0.62951 0.52082
 C1213 C 0.91591 0.62200 0.52806
 C1214 C 0.92710 0.63306 0.54537
 C1215 C 0.92000 0.65280 0.55269
 H1216 H 0.90658 0.66044 0.54529
 O1217 O 0.92302 0.47848 0.60521
 O1218 O 0.89835 0.47842 0.62984
 C1219 C 0.91551 0.47116 0.62234
 C1220 C 0.92649 0.45358 0.63326
 C1221 C 0.91840 0.44522 0.65219
 H1222 H 0.90445 0.45209 0.65940
 O1223 O 1.07564 0.51985 0.60576
 O1224 O 1.10018 0.51984 0.63047
 C1225 C 1.08307 0.52713 0.62293
 C1226 C 1.07210 0.54475 0.63379
 C1227 C 1.08044 0.55341 0.65245
 H1228 H 1.09450 0.54668 0.65955
 O1229 O 0.97895 0.39395 0.57649
 O1230 O 0.97898 0.36922 0.60110
 C1231 C 0.97170 0.37678 0.58397
 C1232 C 0.95414 0.36588 0.57302
 C1233 C 0.94588 0.34693 0.58114
 H1234 H 0.95281 0.33970 0.59504
 O1235 O 1.02010 0.60457 0.57689
 O1236 O 1.02001 0.62915 0.60161
 C1237 C 1.02741 0.62164 0.58450
 C1238 C 1.04519 0.63240 0.57375
 C1239 C 1.05402 0.65085 0.58238
 H1240 H 1.04735 0.65785 0.59654
 O1241 O 0.89435 0.42285 0.52036
 O1242 O 0.86974 0.39823 0.52041
 C1243 C 0.87717 0.41544 0.52759
 C1244 C 0.86615 0.42661 0.54499
 C1245 C 0.84686 0.41898 0.55288
 H1246 H 0.83947 0.40528 0.54577
 O1247 O 1.10467 0.57578 0.52089
 O1248 O 1.12932 0.60036 0.52100
 C1249 C 1.12177 0.58322 0.52823
 C1250 C 1.13255 0.57225 0.54589
 C1251 C 1.15131 0.58046 0.55439
 H1252 H 1.15850 0.59441 0.54753
 O1253 O 1.01990 0.57560 0.60573
 O1254 O 1.01974 0.60013 0.63050
 C1255 C 1.02709 0.58303 0.62293
 C1256 C 1.04472 0.57210 0.63379
 C1257 C 1.05333 0.58049 0.65245
 H1258 H 1.04658 0.59456 0.65954
 O1259 O 0.97890 0.42293 0.60537
 O1260 O 0.97892 0.39826 0.63003
 C1261 C 0.97161 0.41541 0.62251
 C1262 C 0.95396 0.42633 0.63337
 C1263 C 0.94561 0.41822 0.65230
 H1264 H 0.95255 0.40434 0.65958
 O1265 O 1.10454 0.52002 0.57680
 O1266 O 1.12914 0.52006 0.60146
 C1267 C 1.12162 0.52734 0.58431
 C1268 C 1.13246 0.54496 0.57335
 C1269 C 1.15123 0.55344 0.58158
 H1270 H 1.15836 0.54663 0.59560
 O1271 O 0.89424 0.47860 0.57616
 O1272 O 0.86949 0.47858 0.60072
 C1273 C 0.87705 0.47136 0.58355
 C1274 C 0.86611 0.45395 0.57238
 C1275 C 0.84683 0.44606 0.58002
 H1276 H 0.83941 0.45315 0.59375
 O1277 O 1.07580 0.60473 0.52107
 O1278 O 1.10041 0.62935 0.52122
 C1279 C 1.08332 0.62178 0.52851
 C1280 C 1.07252 0.63247 0.54634
 C1281 C 1.08107 0.65091 0.55524
 H1282 H 1.09518 0.65795 0.54856
 O1283 O 0.92324 0.39380 0.52071
 O1284 O 0.89872 0.36909 0.52082
 C1285 C 0.91581 0.37667 0.52808
 C1286 C 0.92678 0.36584 0.54571
 C1287 C 0.91878 0.34689 0.55409
 H1288 H 0.90490 0.33962 0.54721
 O1289 O 1.07582 0.47852 0.60563
 O1290 O 1.10040 0.47846 0.63030
 C1291 C 1.08332 0.47116 0.62275
 C1292 C 1.07245 0.45345 0.63354
 C1293 C 1.08077 0.44476 0.65222
 H1294 H 1.09478 0.45148 0.65936
 O1295 O 0.92307 0.51977 0.60526
 O1296 O 0.89843 0.51975 0.62992
 C1297 C 0.91559 0.52699 0.62245
 C1298 C 0.92664 0.54441 0.63348
 C1299 C 0.91902 0.55215 0.65287
 H1300 H 0.90538 0.54494 0.66030
 O1301 O 0.97887 0.60473 0.57666
 O1302 O 0.97873 0.62940 0.60129
 C1303 C 0.97163 0.62195 0.58405
 C1304 C 0.95440 0.63305 0.57275
 C1305 C 0.94705 0.65279 0.57983
 H1306 H 0.95439 0.66043 0.59328
 O1307 O 1.02021 0.39413 0.57631
 O1308 O 1.02024 0.36937 0.60087
 C1309 C 1.02751 0.37696 0.58374
 C1310 C 1.04509 0.36610 0.57271
 C1311 C 1.05315 0.34694 0.58053
 H1312 H 1.04604 0.33953 0.59426
 O1313 O 1.10526 0.42323 0.52078
 O1314 O 1.12999 0.39866 0.52086
 C1315 C 1.12242 0.41581 0.52807
 C1316 C 1.13331 0.42695 0.54553
 C1317 C 1.15263 0.41938 0.55341
 H1318 H 1.16012 0.40571 0.54628
 O1319 O 0.89444 0.57587 0.52074
 O1320 O 0.86973 0.60047 0.52070
 C1321 C 0.87723 0.58328 0.52794
 C1322 C 0.86619 0.57209 0.54530
 C1323 C 0.84678 0.57958 0.55304
 H1324 H 0.83932 0.59326 0.54589
 Cu1325 Cu 0.99955 0.41094 0.58845
 Cu1326 Cu 0.99960 0.38127 0.61799
 Cu1327 Cu 0.99936 0.58767 0.58873
 Cu1328 Cu 0.99918 0.61718 0.61840
 Cu1329 Cu 0.91135 0.41067 0.49990
 Cu1330 Cu 0.88192 0.38100 0.49998
 Cu1331 Cu 1.08838 0.41124 0.50013
 Cu1332 Cu 1.11801 0.38169 0.50020
 Cu1333 Cu 0.91144 0.58787 0.50017
 Cu1334 Cu 0.88186 0.61748 0.50009
 Cu1335 Cu 1.08780 0.58792 0.50028
 Cu1336 Cu 1.11734 0.61749 0.50043
 Cu1337 Cu 0.91111 0.49918 0.58827
 Cu1338 Cu 0.88147 0.49916 0.61780
 Cu1339 Cu 1.08773 0.49928 0.58877
 Cu1340 Cu 1.11725 0.49928 0.61839
 C1341 C 1.05448 0.44414 0.62440
 H1342 H 1.04817 0.45052 0.60981
 C1343 C 1.07148 0.42693 0.66141
 C1344 C 0.94421 0.55424 0.62408
 H1345 H 0.94997 0.54858 0.60897
 C1346 C 0.92867 0.56950 0.66257
 C1347 C 0.87563 0.55446 0.55505
 H1348 H 0.89074 0.54878 0.54938
 C1349 C 0.83710 0.56975 0.57034
 C1350 C 1.12380 0.44453 0.55528
 H1351 H 1.10874 0.45024 0.54952
 C1352 C 1.16215 0.42910 0.57083
 C1353 C 1.05482 0.37553 0.55507
 H1354 H 1.04892 0.39048 0.54915
 C1355 C 1.07074 0.33750 0.57105
 C1356 C 0.94444 0.62342 0.55538
 H1357 H 0.94982 0.60807 0.55002
 C1358 C 0.92996 0.66263 0.56981
 C1359 C 0.94441 0.44415 0.62409
 H1360 H 0.95054 0.45028 0.60931
 C1361 C 0.92790 0.42762 0.66163
 C1362 C 1.05409 0.55409 0.62469
 H1363 H 1.04780 0.54776 0.61009
 C1364 C 1.07113 0.57122 0.66169
 C1365 C 0.94461 0.37510 0.55517
 H1366 H 0.95067 0.38988 0.54902
 C1367 C 0.92827 0.33751 0.57173
 C1368 C 1.05445 0.62344 0.55560
 H1369 H 1.04798 0.60901 0.54907
 C1370 C 1.07191 0.66000 0.57320
 C1371 C 0.87553 0.44424 0.55472
 H1372 H 0.89056 0.45001 0.54895
 C1373 C 0.83726 0.42867 0.57031
 C1374 C 1.12336 0.55436 0.55536
 H1375 H 1.10869 0.54816 0.54914
 C1376 C 1.16055 0.57112 0.57216
 O1377 O 0.57596 1.02108 0.60551
 O1378 O 0.60049 1.02110 0.63024
 C1379 C 0.58336 1.02836 0.62269
 C1380 C 0.57228 1.04589 0.63359
 C1381 C 0.58014 1.05407 0.65267
 H1382 H 0.59397 1.04710 0.66000
 O1383 O 0.42357 0.97967 0.60561
 O1384 O 0.39901 0.97975 0.63035
 C1385 C 0.41615 0.97249 0.62284
 C1386 C 0.42723 0.95503 0.63385
 C1387 C 0.41948 0.94708 0.65309
 H1388 H 0.40575 0.95420 0.66047
 O1389 O 0.52020 1.10578 0.57641
 O1390 O 0.52018 1.13047 0.60103
 C1391 C 0.52743 1.12296 0.58385
 C1392 C 0.54485 1.13393 0.57274
 C1393 C 0.55275 1.15319 0.58044
 H1394 H 0.54568 1.16056 0.59421
 O1395 O 0.47927 0.89491 0.57668
 O1396 O 0.47929 0.87025 0.60134
 C1397 C 0.47208 0.87771 0.58414
 C1398 C 0.45475 0.86666 0.57299
 C1399 C 0.44686 0.84738 0.58070
 H1400 H 0.45389 0.84003 0.59449
 O1401 O 0.60499 1.07695 0.52085
 O1402 O 0.62965 1.10152 0.52092
 C1403 C 0.62213 1.08436 0.52815
 C1404 C 0.63305 1.07324 0.54563
 C1405 C 0.65236 1.08081 0.55350
 H1406 H 0.65979 1.09450 0.54637
 O1407 O 0.39473 0.92349 0.52104
 O1408 O 0.37017 0.89882 0.52119
 C1409 C 0.37767 0.91596 0.52844
 C1410 C 0.36687 0.92687 0.54614
 C1411 C 0.34816 0.91859 0.55474
 H1412 H 0.34103 0.90458 0.54796
 O1413 O 0.47895 1.07686 0.60533
 O1414 O 0.47885 1.10149 0.63000
 C1415 C 0.47160 1.08436 0.62246
 C1416 C 0.45398 1.07342 0.63329
 C1417 C 0.44540 1.08167 0.65206
 H1418 H 0.45215 1.09569 0.65922
 O1419 O 0.52037 0.92401 0.60554
 O1420 O 0.52044 0.89942 0.63029
 C1421 C 0.52764 0.91658 0.62273
 C1422 C 0.54509 0.92768 0.63365
 C1423 C 0.55308 0.91993 0.65287
 H1424 H 0.54604 0.90616 0.66025
 O1425 O 0.60506 0.97989 0.57660
 O1426 O 0.62971 0.97986 0.60121
 C1427 C 0.62226 0.97267 0.58401
 C1428 C 0.63335 0.95537 0.57276
 C1429 C 0.65305 0.94802 0.57986
 H1430 H 0.66066 0.95542 0.59330
 O1431 O 0.39452 1.02069 0.57639
 O1432 O 0.36982 1.02070 0.60100
 C1433 C 0.37732 1.02792 0.58381
 C1434 C 0.36634 1.04536 0.57269
 C1435 C 0.34705 1.05322 0.58037
 H1436 H 0.33965 1.04605 0.59407
 O1437 O 0.42318 1.10580 0.52093
 O1438 O 0.39856 1.13049 0.52097
 C1439 C 0.41571 1.12297 0.52820
 C1440 C 0.42682 1.13397 0.54561
 C1441 C 0.41921 1.15330 0.55348
 H1442 H 0.40548 1.16071 0.54642
 O1443 O 0.57622 0.89504 0.52108
 O1444 O 0.60087 0.87038 0.52111
 C1445 C 0.58370 0.87787 0.52834
 C1446 C 0.57258 0.86686 0.54577
 C1447 C 0.58012 0.84746 0.55357
 H1448 H 0.59378 0.84000 0.54641
 O1449 O 0.42338 1.02097 0.60535
 O1450 O 0.39875 1.02107 0.63002
 C1451 C 0.41585 1.02835 0.62246
 C1452 C 0.42670 1.04603 0.63327
 C1453 C 0.41841 1.05455 0.65204
 H1454 H 0.40442 1.04774 0.65919
 O1455 O 0.57606 0.97979 0.60550
 O1456 O 0.60059 0.97975 0.63022
 C1457 C 0.58347 0.97251 0.62268
 C1458 C 0.57240 0.95502 0.63363
 C1459 C 0.58012 0.94701 0.65286
 H1460 H 0.59386 0.95405 0.66024
 O1461 O 0.52046 0.89495 0.57675
 O1462 O 0.52052 0.87028 0.60140
 C1463 C 0.52774 0.87779 0.58422
 C1464 C 0.54519 0.86682 0.57311
 C1465 C 0.55299 0.84744 0.58066
 H1466 H 0.54582 0.83997 0.59432
 O1467 O 0.47899 1.10588 0.57646
 O1468 O 0.47896 1.13059 0.60106
 C1469 C 0.47173 1.12307 0.58390
 C1470 C 0.45428 1.13404 0.57282
 C1471 C 0.44641 1.15337 0.58044
 H1472 H 0.45357 1.16083 0.59410
 O1473 O 0.39447 1.07672 0.52080
 O1474 O 0.36975 1.10129 0.52086
 C1475 C 0.37728 1.08410 0.52806
 C1476 C 0.36632 1.07289 0.54545
 C1477 C 0.34703 1.08048 0.55340
 H1478 H 0.33961 1.09424 0.54637
 O1479 O 0.60507 0.92402 0.52102
 O1480 O 0.62984 0.89949 0.52101
 C1481 C 0.62230 0.91667 0.52820
 C1482 C 0.63336 0.92796 0.54546
 C1483 C 0.65306 0.92086 0.55280
 H1484 H 0.66068 0.90738 0.54544
 O1485 O 0.47915 0.92385 0.60566
 O1486 O 0.47918 0.89928 0.63042
 C1487 C 0.47192 0.91643 0.62287
 C1488 C 0.45447 0.92756 0.63384
 C1489 C 0.44646 0.91985 0.65309
 H1490 H 0.45347 0.90606 0.66047
 O1491 O 0.52019 1.07687 0.60542
 O1492 O 0.52015 1.10147 0.63012
 C1493 C 0.52743 1.08432 0.62260
 C1494 C 0.54493 1.07327 0.63354
 C1495 C 0.55307 1.08120 0.65261
 H1496 H 0.54610 1.09507 0.65989
 O1497 O 0.39466 0.97937 0.57670
 O1498 O 0.37005 0.97937 0.60139
 C1499 C 0.37760 0.97202 0.58428
 C1500 C 0.36684 0.95429 0.57346
 C1501 C 0.34813 0.94573 0.58181
 H1502 H 0.34099 0.95255 0.59582
 O1503 O 0.60494 1.02114 0.57663
 O1504 O 0.62956 1.02114 0.60127
 C1505 C 0.62208 1.02839 0.58409
 C1506 C 0.63304 1.04584 0.57298
 C1507 C 0.65235 1.05365 0.58058
 H1508 H 0.65977 1.04648 0.59426
 O1509 O 0.42377 0.89466 0.52077
 O1510 O 0.39929 0.86991 0.52084
 C1511 C 0.41642 0.87746 0.52804
 C1512 C 0.42755 0.86652 0.54551
 C1513 C 0.41991 0.84726 0.55349
 H1514 H 0.40623 0.83983 0.54640
 O1515 O 0.57592 1.10585 0.52061
 O1516 O 0.60049 1.13051 0.52070
 C1517 C 0.58331 1.12302 0.52788
 C1518 C 0.57216 1.13399 0.54532
 C1519 C 0.57979 1.15326 0.55328
 H1520 H 0.59349 1.16068 0.54618
 Cu1521 Cu 0.58805 1.00047 0.58860
 Cu1522 Cu 0.61754 1.00045 0.61823
 Cu1523 Cu 0.41149 1.00017 0.58854
 Cu1524 Cu 0.38193 1.00024 0.61816
 Cu1525 Cu 0.49960 1.08888 0.58845
 Cu1526 Cu 0.49954 1.11847 0.61804
 Cu1527 Cu 0.49979 0.91190 0.58869
 Cu1528 Cu 0.49986 0.88234 0.61835
 C1529 C 0.55452 1.05547 0.62426
 H1530 H 0.54857 1.04947 0.60938
 C1531 C 0.57059 1.07165 0.66210
 C1532 C 0.44487 0.94529 0.62446
 H1533 H 0.45073 0.95112 0.60945
 C1534 C 0.42904 0.92957 0.66264
 C1535 C 0.55453 1.12457 0.55503
 H1536 H 0.54876 1.10955 0.54921
 C1537 C 0.57013 1.16278 0.57075
 C1538 C 0.44512 0.87599 0.55524
 H1539 H 0.45088 0.89102 0.54941
 C1540 C 0.42952 0.83776 0.57099
 C1541 C 0.62362 1.05562 0.55536
 H1542 H 0.60858 1.04989 0.54961
 C1543 C 0.66195 1.07105 0.57088
 C1544 C 0.37597 0.94486 0.55549
 H1545 H 0.39057 0.95113 0.54918
 C1546 C 0.33888 0.92795 0.57251
 C1547 C 0.44463 1.05545 0.62413
 H1548 H 0.45091 1.04921 0.60946
 C1549 C 0.42769 1.07231 0.66134
 C1550 C 0.55474 0.94537 0.62425
 H1551 H 0.54889 0.95123 0.60926
 C1552 C 0.57050 0.92954 0.66240
 C1553 C 0.62374 0.94536 0.55541
 H1554 H 0.60841 0.95074 0.55003
 C1555 C 0.66286 0.93087 0.56989
 C1556 C 0.37574 1.05517 0.55508
 H1557 H 0.39078 1.04943 0.54928
 C1558 C 0.33746 1.07068 0.57077
 C1559 C 0.44450 1.12458 0.55526
 H1560 H 0.45027 1.10951 0.54949
 C1561 C 0.42897 1.16294 0.57081
 C1562 C 0.55497 0.87630 0.55552
 H1563 H 0.54925 0.89140 0.54980
 C1564 C 0.57035 0.83781 0.57092
 O1565 O 0.57602 0.97978 0.39499
 O1566 O 0.60057 0.97970 0.37024
 C1567 C 0.58345 0.97248 0.37781
 C1568 C 0.57240 0.95499 0.36689
 C1569 C 0.58013 0.94700 0.34765
 H1570 H 0.59384 0.95408 0.34022
 O1571 O 0.42342 1.02095 0.39545
 O1572 O 0.39889 1.02102 0.37072
 C1573 C 0.41597 1.02829 0.37830
 C1574 C 0.42690 1.04592 0.36745
 C1575 C 0.41895 1.05408 0.34838
 H1576 H 0.40517 1.04706 0.34108
 O1577 O 0.47944 1.10610 0.42427
 O1578 O 0.47933 1.13080 0.39965
 C1579 C 0.47223 1.12334 0.41691
 C1580 C 0.45498 1.13443 0.42821
 C1581 C 0.44767 1.15420 0.42116
 H1582 H 0.45512 1.16190 0.40778
 O1583 O 0.52042 0.89489 0.42415
 O1584 O 0.52059 0.87030 0.39945
 C1585 C 0.52778 0.87778 0.41665
 C1586 C 0.54535 0.86691 0.42765
 C1587 C 0.55373 0.84797 0.41960
 H1588 H 0.54685 0.84069 0.40570
 O1589 O 0.60499 0.92406 0.47977
 O1590 O 0.62973 0.89950 0.47972
 C1591 C 0.62217 0.91665 0.47249
 C1592 C 0.63311 0.92781 0.45505
 C1593 C 0.65245 0.92024 0.44721
 H1594 H 0.65990 0.90655 0.45435
 O1595 O 0.39444 1.07696 0.47954
 O1596 O 0.36973 1.10155 0.47951
 C1597 C 0.37726 1.08438 0.47229
 C1598 C 0.36629 1.07319 0.45491
 C1599 C 0.34694 1.08071 0.44706
 H1600 H 0.33950 1.09445 0.45411
 O1601 O 0.52025 1.07683 0.39501
 O1602 O 0.52005 1.10135 0.37020
 C1603 C 0.52743 1.08426 0.37778
 C1604 C 0.54513 1.07342 0.36696
 C1605 C 0.55414 1.08220 0.34864
 H1606 H 0.54758 1.09646 0.34175
 O1607 O 0.47927 0.92393 0.39520
 O1608 O 0.47938 0.89941 0.37041
 C1609 C 0.47206 0.91652 0.37799
 C1610 C 0.45450 0.92753 0.36711
 C1611 C 0.44621 0.91947 0.34816
 H1612 H 0.45314 0.90557 0.34091
 O1613 O 0.60488 1.02119 0.42373
 O1614 O 0.62947 1.02113 0.39902
 C1615 C 0.62194 1.02851 0.41613
 C1616 C 0.63267 1.04633 0.42684
 C1617 C 0.65073 1.05555 0.41784
 H1618 H 0.65749 1.04912 0.40345
 O1619 O 0.39447 0.97951 0.42416
 O1620 O 0.36992 0.97951 0.39946
 C1621 C 0.37739 0.97221 0.41662
 C1622 C 0.36654 0.95457 0.42755
 C1623 C 0.34773 0.94614 0.41937
 H1624 H 0.34054 0.95301 0.40542
 O1625 O 0.57637 1.10582 0.47923
 O1626 O 0.60102 1.13040 0.47927
 C1627 C 0.58404 1.12282 0.47179
 C1628 C 0.57365 1.13332 0.45361
 C1629 C 0.58325 1.15072 0.44369
 H1630 H 0.59781 1.15721 0.44990
 O1631 O 0.42341 0.89467 0.47944
 O1632 O 0.39883 0.87002 0.47946
 C1633 C 0.41587 0.87759 0.47207
 C1634 C 0.42661 0.86689 0.45421
 C1635 C 0.41791 0.84860 0.44513
 H1636 H 0.40370 0.84166 0.45169
 O1637 O 0.42346 0.97964 0.39526
 O1638 O 0.39895 0.97968 0.37051
 C1639 C 0.41606 0.97240 0.37806
 C1640 C 0.42711 0.95486 0.36714
 C1641 C 0.41908 0.94654 0.34819
 H1642 H 0.40518 0.95342 0.34095
 O1643 O 0.57592 1.02108 0.39492
 O1644 O 0.60050 1.02103 0.37019
 C1645 C 0.58340 1.02837 0.37776
 C1646 C 0.57255 1.04611 0.36696
 C1647 C 0.58129 1.05517 0.34865
 H1648 H 0.59555 1.04865 0.34175
 O1649 O 0.47914 0.89477 0.42386
 O1650 O 0.47926 0.87020 0.39912
 C1651 C 0.47185 0.87770 0.41623
 C1652 C 0.45403 0.86693 0.42691
 C1653 C 0.44508 0.84863 0.41810
 H1654 H 0.45173 0.84171 0.40389
 O1655 O 0.52074 1.10589 0.42368
 O1656 O 0.52066 1.13040 0.39887
 C1657 C 0.52818 1.12284 0.41589
 C1658 C 0.54635 1.13331 0.42623
 C1659 C 0.55624 1.15071 0.41657
 H1660 H 0.55005 1.15720 0.40196
 O1661 O 0.39459 0.92366 0.47972
 O1662 O 0.36996 0.89906 0.47982
 C1663 C 0.37745 0.91620 0.47250
 C1664 C 0.36656 0.92718 0.45492
 C1665 C 0.34775 0.91901 0.44647
 H1666 H 0.34059 0.90503 0.45333
 O1667 O 0.60502 1.07678 0.47952
 O1668 O 0.62967 1.10137 0.47957
 C1669 C 0.62211 1.08429 0.47220
 C1670 C 0.63279 1.07358 0.45432
 C1671 C 0.65085 1.08253 0.44504
 H1672 H 0.65768 1.09683 0.45153
 O1673 O 0.52047 0.92384 0.39516
 O1674 O 0.52059 0.89931 0.37038
 C1675 C 0.52776 0.91646 0.37795
 C1676 C 0.54517 0.92758 0.36698
 C1677 C 0.55317 0.91985 0.34774
 H1678 H 0.54617 0.90605 0.34040
 O1679 O 0.47901 1.07704 0.39537
 O1680 O 0.47877 1.10163 0.37064
 C1681 C 0.47160 1.08448 0.37825
 C1682 C 0.45406 1.07342 0.36743
 C1683 C 0.44584 1.08131 0.34835
 H1684 H 0.45274 1.09517 0.34101
 O1685 O 0.39436 1.02082 0.42423
 O1686 O 0.36976 1.02084 0.39959
 C1687 C 0.37722 1.02808 0.41676
 C1688 C 0.36625 1.04558 0.42780
 C1689 C 0.34690 1.05335 0.42021
 H1690 H 0.33945 1.04609 0.40661
 O1691 O 0.60493 0.97988 0.42396
 O1692 O 0.62957 0.97979 0.39930
 C1693 C 0.62210 0.97261 0.41651
 C1694 C 0.63309 0.95519 0.42768
 C1695 C 0.65244 0.94736 0.42010
 H1696 H 0.65988 0.95451 0.40641
 O1697 O 0.57619 0.89509 0.47979
 O1698 O 0.60085 0.87044 0.47975
 C1699 C 0.58370 0.87794 0.47250
 C1700 C 0.57273 0.86702 0.45496
 C1701 C 0.58084 0.84809 0.44664
 H1702 H 0.59478 0.84089 0.45351
 O1703 O 0.42342 1.10583 0.47970
 O1704 O 0.39884 1.13056 0.47969
 C1705 C 0.41606 1.12309 0.47254
 C1706 C 0.42742 1.13426 0.45538
 C1707 C 0.42037 1.15403 0.44809
 H1708 H 0.40685 1.16161 0.45540
 Cu1709 Cu 0.58798 1.00046 0.41187
 Cu1710 Cu 0.61750 1.00037 0.38221
 Cu1711 Cu 0.41138 1.00022 0.41225
 Cu1712 Cu 0.38192 1.00027 0.38258
 Cu1713 Cu 0.58810 1.08890 0.50010
 Cu1714 Cu 0.61767 1.11843 0.50019
 Cu1715 Cu 0.58814 0.91201 0.50044
 Cu1716 Cu 0.61779 0.88247 0.50041
 Cu1717 Cu 0.41133 1.08886 0.50023
 Cu1718 Cu 0.38173 1.11844 0.50025
 Cu1719 Cu 0.41159 0.91158 0.50024
 Cu1720 Cu 0.38210 0.88197 0.50036
 Cu1721 Cu 0.49983 1.08902 0.41208
 Cu1722 Cu 0.49962 1.11852 0.38236
 Cu1723 Cu 0.49983 0.91180 0.41209
 Cu1724 Cu 0.49999 0.88232 0.38238
 C1725 C 0.55477 0.94530 0.37633
 H1726 H 0.54893 0.95115 0.39133
 C1727 C 0.57055 0.92951 0.33814
 C1728 C 0.44460 1.05558 0.37675
 H1729 H 0.45062 1.04960 0.39163
 C1730 C 0.42836 1.07169 0.33891
 C1731 C 0.44488 1.12471 0.44547
 H1732 H 0.45022 1.10933 0.45080
 C1733 C 0.43048 1.16395 0.43109
 C1734 C 0.55484 0.87620 0.44548
 H1735 H 0.54871 0.89099 0.45157
 C1736 C 0.57140 0.83864 0.42904
 C1737 C 0.62366 0.94543 0.44531
 H1738 H 0.60859 0.95116 0.45105
 C1739 C 0.66206 0.92998 0.42983
 C1740 C 0.37570 1.05547 0.44530
 H1741 H 0.39078 1.04977 0.45104
 C1742 C 0.33730 1.07082 0.42980
 C1743 C 0.55433 1.05523 0.37588
 H1744 H 0.54774 1.04861 0.39024
 C1745 C 0.57217 1.07317 0.33961
 C1746 C 0.44497 0.94537 0.37637
 H1747 H 0.45103 0.95146 0.39117
 C1748 C 0.42858 0.92891 0.33878
 C1749 C 0.62393 1.05534 0.44522
 H1750 H 0.60976 1.04858 0.45201
 C1751 C 0.65970 1.07361 0.42685
 C1752 C 0.37571 0.94510 0.44547
 H1753 H 0.39039 0.95128 0.45165
 C1754 C 0.33842 0.92843 0.42878
 C1755 C 0.55509 1.12485 0.44486
 H1756 H 0.54783 1.11117 0.45216
 C1757 C 0.57467 1.15927 0.42519
 C1758 C 0.44480 0.87583 0.44509
 H1759 H 0.45137 0.89015 0.45174
 C1760 C 0.42706 0.83957 0.42713
 O1761 O 0.47891 0.42297 0.89542
 O1762 O 0.47903 0.39833 0.87076
 C1763 C 0.47165 0.41543 0.87830
 C1764 C 0.45397 0.42629 0.86746
 C1765 C 0.44548 0.41802 0.84869
 H1766 H 0.45233 0.40404 0.84152
 O1767 O 0.51968 0.57599 0.89541
 O1768 O 0.51961 0.60055 0.87065
 C1769 C 0.52684 0.58337 0.87816
 C1770 C 0.54413 0.57213 0.86708
 C1771 C 0.55151 0.57929 0.84738
 H1772 H 0.54414 0.59276 0.83976
 O1773 O 0.39434 0.47861 0.92442
 O1774 O 0.36972 0.47860 0.89979
 C1775 C 0.37726 0.47128 0.91690
 C1776 C 0.36653 0.45354 0.92777
 C1777 C 0.34805 0.44472 0.91926
 H1778 H 0.34100 0.45140 0.90514
 O1779 O 0.60440 0.52031 0.92432
 O1780 O 0.62908 0.52037 0.89970
 C1781 C 0.62156 0.52757 0.91689
 C1782 C 0.63251 0.54495 0.92808
 C1783 C 0.65190 0.55272 0.92060
 H1784 H 0.65941 0.54557 0.90694
 O1785 O 0.42354 0.39408 0.98020
 O1786 O 0.39903 0.36936 0.98034
 C1787 C 0.41609 0.37691 0.97296
 C1788 C 0.42697 0.36607 0.95527
 C1789 C 0.41856 0.34747 0.94656
 H1790 H 0.40450 0.34040 0.95330
 O1791 O 0.57526 0.60480 0.98027
 O1792 O 0.59984 0.62944 0.98025
 C1793 C 0.58272 0.62195 0.97300
 C1794 C 0.57172 0.63291 0.95547
 C1795 C 0.57954 0.65206 0.94742
 H1796 H 0.59329 0.65939 0.95448
 O1797 O 0.42319 0.51996 0.89551
 O1798 O 0.39861 0.51998 0.87083
 C1799 C 0.41570 0.52727 0.87837
 C1800 C 0.42659 0.54492 0.86752
 C1801 C 0.41851 0.55323 0.84856
 H1802 H 0.40469 0.54625 0.84129
 O1803 O 0.57556 0.47911 0.89536
 O1804 O 0.60011 0.47915 0.87060
 C1805 C 0.58297 0.47192 0.87813
 C1806 C 0.57182 0.45459 0.86708
 C1807 C 0.57912 0.44711 0.84747
 H1808 H 0.59261 0.45444 0.83990
 O1809 O 0.52030 0.39430 0.92441
 O1810 O 0.52052 0.36961 0.89980
 C1811 C 0.52767 0.37716 0.91698
 C1812 C 0.54517 0.36629 0.92810
 C1813 C 0.55350 0.34727 0.92018
 H1814 H 0.54669 0.33997 0.90626
 O1815 O 0.47861 0.60500 0.92452
 O1816 O 0.47860 0.62977 0.89996
 C1817 C 0.47141 0.62224 0.91715
 C1818 C 0.45410 0.63327 0.92840
 C1819 C 0.44651 0.65284 0.92111
 H1820 H 0.45376 0.66041 0.90754
 O1821 O 0.39419 0.57584 0.98012
 O1822 O 0.36953 0.60048 0.98008
 C1823 C 0.37709 0.58334 0.97279
 C1824 C 0.36629 0.57238 0.95515
 C1825 C 0.34753 0.58062 0.94660
 H1826 H 0.34036 0.59465 0.95336
 O1827 O 0.60451 0.42339 0.98029
 O1828 O 0.62923 0.39881 0.98025
 C1829 C 0.62166 0.41593 0.97297
 C1830 C 0.63251 0.42693 0.95537
 C1831 C 0.65158 0.41902 0.94718
 H1832 H 0.65891 0.40520 0.95419
 O1833 O 0.47850 0.57603 0.89562
 O1834 O 0.47837 0.60069 0.87096
 C1835 C 0.47117 0.58352 0.87849
 C1836 C 0.45368 0.57248 0.86759
 C1837 C 0.44535 0.58051 0.84863
 H1838 H 0.45216 0.59448 0.84140
 O1839 O 0.52011 0.42322 0.89537
 O1840 O 0.52028 0.39864 0.87065
 C1841 C 0.52737 0.41585 0.87814
 C1842 C 0.54462 0.42714 0.86708
 C1843 C 0.55218 0.41990 0.84748
 H1844 H 0.54499 0.40633 0.83992
 O1845 O 0.60439 0.47904 0.92433
 O1846 O 0.62904 0.47903 0.89969
 C1847 C 0.62153 0.47176 0.91685
 C1848 C 0.63245 0.45424 0.92791
 C1849 C 0.65153 0.44607 0.92001
 H1850 H 0.65882 0.45304 0.90614
 O1851 O 0.39429 0.51993 0.92446
 O1852 O 0.36967 0.51996 0.89984
 C1853 C 0.37718 0.52725 0.91697
 C1854 C 0.36633 0.54491 0.92788
 C1855 C 0.34758 0.55341 0.91960
 H1856 H 0.34045 0.54656 0.90561
 O1857 O 0.42295 0.60488 0.98028
 O1858 O 0.39838 0.62960 0.98032
 C1859 C 0.41555 0.62212 0.97310
 C1860 C 0.42675 0.63321 0.95578
 C1861 C 0.41942 0.65279 0.94823
 H1862 H 0.40585 0.66031 0.95550
 O1863 O 0.57568 0.39440 0.98049
 O1864 O 0.60034 0.36977 0.98049
 C1865 C 0.58319 0.37725 0.97323
 C1866 C 0.57229 0.36631 0.95565
 C1867 C 0.58037 0.34731 0.94746
 H1868 H 0.59421 0.34007 0.95447
 O1869 O 0.57547 0.52033 0.89541
 O1870 O 0.60003 0.52039 0.87067
 C1871 C 0.58284 0.52756 0.87818
 C1872 C 0.57156 0.54484 0.86711
 C1873 C 0.57869 0.55224 0.84741
 H1874 H 0.59218 0.54492 0.83980
 O1875 O 0.42319 0.47863 0.89543
 O1876 O 0.39861 0.47864 0.87076
 C1877 C 0.41571 0.47133 0.87829
 C1878 C 0.42662 0.45366 0.86744
 C1879 C 0.41840 0.44514 0.84866
 H1880 H 0.40445 0.45198 0.84147
 O1881 O 0.51979 0.60487 0.92440
 O1882 O 0.51984 0.62955 0.89975
 C1883 C 0.52707 0.62201 0.91692
 C1884 C 0.54452 0.63293 0.92800
 C1885 C 0.55260 0.65209 0.92021
 H1886 H 0.54563 0.65945 0.90638
 O1887 O 0.47908 0.39412 0.92440
 O1888 O 0.47923 0.36942 0.89980
 C1889 C 0.47188 0.37695 0.91692
 C1890 C 0.45427 0.36610 0.92784
 C1891 C 0.44559 0.34750 0.91940
 H1892 H 0.45229 0.34045 0.90527
 O1893 O 0.60425 0.57590 0.98021
 O1894 O 0.62892 0.60046 0.98022
 C1895 C 0.62142 0.58332 0.97297
 C1896 C 0.63243 0.57223 0.95552
 C1897 C 0.65181 0.57976 0.94778
 H1898 H 0.65923 0.59340 0.95499
 O1899 O 0.39456 0.42296 0.98015
 O1900 O 0.37002 0.39826 0.98026
 C1901 C 0.37748 0.41538 0.97288
 C1902 C 0.36664 0.42618 0.95515
 C1903 C 0.34815 0.41761 0.94638
 H1904 H 0.34118 0.40348 0.95309
 Cu1905 Cu 0.49961 0.41112 0.91236
 Cu1906 Cu 0.49982 0.38151 0.88278
 Cu1907 Cu 0.49915 0.58800 0.91245
 Cu1908 Cu 0.49910 0.61762 0.88285
 Cu1909 Cu 0.41122 0.49928 0.91242
 Cu1910 Cu 0.38168 0.49931 0.88283
 Cu1911 Cu 0.58750 0.49971 0.91234
 Cu1912 Cu 0.61705 0.49975 0.88270
 C1913 C 0.44454 0.44424 0.87661
 H1914 H 0.45076 0.45049 0.89127
 C1915 C 0.42776 0.42738 0.83937
 C1916 C 0.55414 0.55476 0.87671
 H1917 H 0.54874 0.54934 0.89204
 C1918 C 0.56868 0.56935 0.83759
 C1919 C 0.37558 0.44428 0.94585
 H1920 H 0.39003 0.45076 0.95228
 C1921 C 0.33895 0.42682 0.92850
 C1922 C 0.62301 0.55468 0.94568
 H1923 H 0.60791 0.54898 0.95135
 C1924 C 0.66149 0.57004 0.93042
 C1925 C 0.44497 0.37514 0.94592
 H1926 H 0.45133 0.38968 0.95230
 C1927 C 0.42780 0.33827 0.92869
 C1928 C 0.55406 0.62357 0.94578
 H1929 H 0.54815 0.60863 0.95168
 C1930 C 0.57003 0.66158 0.92987
 C1931 C 0.44431 0.55453 0.87680
 H1932 H 0.45042 0.54845 0.89160
 C1933 C 0.42784 0.57095 0.83920
 C1934 C 0.55442 0.44463 0.87665
 H1935 H 0.54890 0.45011 0.89191
 C1936 C 0.56933 0.42987 0.83773
 C1937 C 0.55454 0.37557 0.94599
 H1938 H 0.54844 0.39041 0.95198
 C1939 C 0.57104 0.33787 0.92980
 C1940 C 0.44424 0.62370 0.94589
 H1941 H 0.44979 0.60846 0.95141
 C1942 C 0.42928 0.66255 0.93100
 C1943 C 0.37545 0.55439 0.94580
 H1944 H 0.39010 0.54815 0.95206
 C1945 C 0.33827 0.57119 0.92889
 C1946 C 0.62318 0.44468 0.94574
 H1947 H 0.60831 0.45067 0.95173
 C1948 C 0.66102 0.42854 0.92959
 O1949 O 0.52040 0.42311 1.10699
 O1950 O 0.52031 0.39836 1.13157
 C1951 C 0.52774 0.41543 1.12405
 C1952 C 0.54568 0.42597 1.13470
 C1953 C 0.55526 0.41664 1.15245
 H1954 H 0.54898 0.40214 1.15907
 O1955 O 0.47833 0.57608 1.10651
 O1956 O 0.47819 0.60083 1.13106
 C1957 C 0.47091 0.58369 1.12356
 C1958 C 0.45315 0.57291 1.13433
 C1959 C 0.44435 0.58140 1.15289
 H1960 H 0.45103 0.59549 1.15996
 O1961 O 0.39416 0.52003 1.07732
 O1962 O 0.36934 0.51991 1.10180
 C1963 C 0.37690 0.52718 1.08466
 C1964 C 0.36590 0.54457 1.07347
 C1965 C 0.34660 0.55245 1.08111
 H1966 H 0.33920 0.54534 1.09484
 O1967 O 0.60431 0.47891 1.07769
 O1968 O 0.62909 0.47904 1.10216
 C1969 C 0.62153 0.47172 1.08506
 C1970 C 0.63243 0.45416 1.07405
 C1971 C 0.65111 0.44552 1.08237
 H1972 H 0.65816 0.45220 1.09647
 O1973 O 0.57582 0.39452 1.02188
 O1974 O 0.60056 0.36996 1.02190
 C1975 C 0.58348 0.37749 1.02930
 C1976 C 0.57289 0.36682 1.04727
 C1977 C 0.58203 0.34885 1.05661
 H1978 H 0.59638 0.34210 1.05014
 O1979 O 0.42294 0.60468 1.02153
 O1980 O 0.39832 0.62936 1.02160
 C1981 C 0.41549 0.62186 1.02880
 C1982 C 0.42663 0.63289 1.04616
 C1983 C 0.41912 0.65233 1.05387
 H1984 H 0.40546 0.65977 1.04671
 O1985 O 0.42329 0.47913 1.10662
 O1986 O 0.39867 0.47909 1.13130
 C1987 C 0.41592 0.47196 1.12387
 C1988 C 0.42725 0.45477 1.13506
 C1989 C 0.42018 0.44751 1.15483
 H1990 H 0.40672 0.45490 1.16244
 O1991 O 0.57526 0.52003 1.10677
 O1992 O 0.59995 0.52019 1.13133
 C1993 C 0.58277 0.52739 1.12387
 C1994 C 0.57179 0.54502 1.13471
 C1995 C 0.58007 0.55365 1.15342
 H1996 H 0.59409 0.54690 1.16056
 O1997 O 0.47910 0.39453 1.07784
 O1998 O 0.47892 0.36982 1.10244
 C1999 C 0.47178 0.37737 1.08525
 C2000 C 0.45435 0.36646 1.07411
 C2001 C 0.44615 0.34740 1.08205
 H2002 H 0.45301 0.34014 1.09598
 O2003 O 0.51984 0.60471 1.07763
 O2004 O 0.51981 0.62944 1.10220
 C2005 C 0.52715 0.62184 1.08511
 C2006 C 0.54482 0.63262 1.07421
 C2007 C 0.55347 0.65126 1.08259
 H2008 H 0.54674 0.65837 1.09666
 O2009 O 0.39463 0.42312 1.02149
 O2010 O 0.37005 0.39847 1.02161
 C2011 C 0.37752 0.41564 1.02882
 C2012 C 0.36658 0.42667 1.04635
 C2013 C 0.34739 0.41890 1.05431
 H2014 H 0.34003 0.40518 1.04717
 O2015 O 0.60411 0.57573 1.02152
 O2016 O 0.62876 0.60032 1.02152
 C2017 C 0.62122 0.58318 1.02880
 C2018 C 0.63208 0.57221 1.04640
 C2019 C 0.65106 0.58022 1.05459
 H2020 H 0.65833 0.59404 1.04755
 O2021 O 0.51959 0.57579 1.10659
 O2022 O 0.51951 0.60047 1.13121
 C2023 C 0.52682 0.58330 1.12374
 C2024 C 0.54441 0.57237 1.13465
 C2025 C 0.55295 0.58073 1.15336
 H2026 H 0.54615 0.59478 1.16045
 O2027 O 0.47915 0.42349 1.10688
 O2028 O 0.47904 0.39888 1.13160
 C2029 C 0.47191 0.41611 1.12410
 C2030 C 0.45464 0.42743 1.13517
 C2031 C 0.44731 0.42041 1.15494
 H2032 H 0.45470 0.40699 1.16263
 O2033 O 0.60411 0.52016 1.07773
 O2034 O 0.62887 0.52032 1.10222
 C2035 C 0.62125 0.52750 1.08508
 C2036 C 0.63207 0.54501 1.07395
 C2037 C 0.65106 0.55329 1.08187
 H2038 H 0.65834 0.54642 1.09578
 O2039 O 0.39447 0.47875 1.07756
 O2040 O 0.36974 0.47860 1.10213
 C2041 C 0.37735 0.47139 1.08498
 C2042 C 0.36653 0.45388 1.07387
 C2043 C 0.34733 0.44584 1.08157
 H2044 H 0.33992 0.45284 1.09535
 O2045 O 0.57536 0.60478 1.02161
 O2046 O 0.59996 0.62941 1.02162
 C2047 C 0.58288 0.62188 1.02896
 C2048 C 0.57206 0.63265 1.04672
 C2049 C 0.58045 0.65130 1.05537
 H2050 H 0.59445 0.65842 1.04856
 O2051 O 0.42366 0.39430 1.02155
 O2052 O 0.39916 0.36958 1.02170
 C2053 C 0.41626 0.37717 1.02892
 C2054 C 0.42724 0.36634 1.04655
 C2055 C 0.41931 0.34730 1.05476
 H2056 H 0.40553 0.33997 1.04775
 O2057 O 0.57573 0.47867 1.10693
 O2058 O 0.60049 0.47877 1.13143
 C2059 C 0.58344 0.47132 1.12397
 C2060 C 0.57295 0.45333 1.13467
 C2061 C 0.58226 0.44376 1.15243
 H2062 H 0.59671 0.45009 1.15905
 O2063 O 0.42281 0.52041 1.10644
 O2064 O 0.39805 0.52041 1.13099
 C2065 C 0.41514 0.52778 1.12349
 C2066 C 0.42584 0.54557 1.13428
 C2067 C 0.41729 0.55434 1.15283
 H2068 H 0.40318 0.54764 1.15985
 O2069 O 0.47862 0.60479 1.07733
 O2070 O 0.47857 0.62962 1.10181
 C2071 C 0.47139 0.62204 1.08465
 C2072 C 0.45403 0.63301 1.07344
 C2073 C 0.44626 0.65245 1.08089
 H2074 H 0.45342 0.65997 1.09451
 O2075 O 0.52036 0.39450 1.07789
 O2076 O 0.52025 0.36975 1.10247
 C2077 C 0.52767 0.37737 1.08541
 C2078 C 0.54559 0.36674 1.07471
 C2079 C 0.55500 0.34876 1.08377
 H2080 H 0.54862 0.34197 1.09816
 O2081 O 0.60458 0.42350 1.02162
 O2082 O 0.62933 0.39895 1.02157
 C2083 C 0.62174 0.41605 1.02888
 C2084 C 0.63254 0.42696 1.04653
 C2085 C 0.65122 0.41859 1.05511
 H2086 H 0.65836 0.40457 1.04830
 O2087 O 0.39404 0.57574 1.02143
 O2088 O 0.36932 0.60032 1.02146
 C2089 C 0.37684 0.58314 1.02868
 C2090 C 0.36587 0.57196 1.04610
 C2091 C 0.34655 0.57955 1.05397
 H2092 H 0.33910 0.59325 1.04685
 Cu2093 Cu 0.49971 0.41138 1.08994
 Cu2094 Cu 0.49954 0.38171 1.11948
 Cu2095 Cu 0.49910 0.58786 1.08957
 Cu2096 Cu 0.49900 0.61756 1.11905
 Cu2097 Cu 0.41155 0.41109 1.00083
 Cu2098 Cu 0.38211 0.38143 1.00101
 Cu2099 Cu 0.58766 0.41141 1.00105
 Cu2100 Cu 0.61733 0.38189 1.00103
 Cu2101 Cu 0.41099 0.58781 1.00084
 Cu2102 Cu 0.38139 0.61740 1.00088
 Cu2103 Cu 0.58727 0.58784 1.00088
 Cu2104 Cu 0.61683 0.61739 1.00088
 Cu2105 Cu 0.41116 0.49957 1.08953
 Cu2106 Cu 0.38147 0.49946 1.11902
 Cu2107 Cu 0.58735 0.49944 1.08985
 Cu2108 Cu 0.61707 0.49962 1.11927
 C2109 C 0.55453 0.44444 1.12606
 H2110 H 0.54748 0.45148 1.11213
 C2111 C 0.57352 0.42544 1.16120
 C2112 C 0.44391 0.55485 1.12527
 H2113 H 0.45038 0.54841 1.11078
 C2114 C 0.42648 0.57218 1.16205
 C2115 C 0.37531 0.55432 1.05582
 H2116 H 0.39036 0.54857 1.05006
 C2117 C 0.33698 0.56984 1.07139
 C2118 C 0.62339 0.44489 1.05598
 H2119 H 0.60879 0.45121 1.04969
 C2120 C 0.66041 0.42780 1.07297
 C2121 C 0.55454 0.37553 1.05633
 H2122 H 0.54764 0.38963 1.04947
 C2123 C 0.57318 0.33994 1.07481
 C2124 C 0.44423 0.62347 1.05592
 H2125 H 0.44991 0.60832 1.05029
 C2126 C 0.42890 0.66204 1.07114
 C2127 C 0.44463 0.44476 1.12547
 H2128 H 0.44998 0.45007 1.11008
 C2129 C 0.43019 0.43044 1.16474
 C2130 C 0.55381 0.55437 1.12557
 H2131 H 0.54757 0.54806 1.11094
 C2132 C 0.57071 0.57144 1.16265
 C2133 C 0.44491 0.37569 1.05621
 H2134 H 0.45091 0.39056 1.05019
 C2135 C 0.42870 0.33791 1.07243
 C2136 C 0.55411 0.62355 1.05614
 H2137 H 0.54777 0.60898 1.04979
 C2138 C 0.57122 0.66051 1.07324
 C2139 C 0.37593 0.44430 1.05612
 H2140 H 0.39090 0.45018 1.05029
 C2141 C 0.33784 0.42843 1.07183
 C2142 C 0.62281 0.55446 1.05606
 H2143 H 0.60799 0.54841 1.05007
 C2144 C 0.66046 0.57082 1.07224
 C2145 C 1.09270 1.09342 1.21942
 C2146 C 1.10645 1.08104 1.23200
 C2147 C 1.11547 1.08974 1.25064
 C2148 C 1.11067 1.11079 1.25659
 C2149 C 1.09673 1.12310 1.24414
 C2150 C 1.08772 1.11439 1.22550
 C2151 C 1.07387 1.12702 1.21327
 C2152 C 1.06905 1.14766 1.21929
 C2153 C 1.07786 1.15617 1.23751
 C2154 C 1.09155 1.14411 1.24985
 C2155 C 1.12921 1.07707 1.26294
 C2156 C 1.13391 1.05638 1.25699
 C2157 C 1.12510 1.04787 1.23877
 C2158 C 1.11153 1.05998 1.22635
 C2159 C 1.12024 1.11986 1.27537
 C2160 C 1.12824 1.12752 1.29088
 C2161 C 1.08401 1.08477 1.20002
 C2162 C 1.07698 1.07773 1.18377
 H2163 H 1.06660 1.12109 1.19898
 H2164 H 1.05842 1.15709 1.20977
 H2165 H 1.07407 1.17221 1.24212
 H2166 H 1.09799 1.15143 1.26390
 H2167 H 1.13645 1.08299 1.27725
 H2168 H 1.14445 1.04691 1.26658
 H2169 H 1.12880 1.03179 1.23422
 H2170 H 1.10505 1.05265 1.21232
 C2171 C 1.09906 0.59904 0.71296
 C2172 C 1.09970 0.58854 0.73272
 C2173 C 1.10972 0.59830 0.75028
 C2174 C 1.11905 0.61851 0.74797
 C2175 C 1.11847 0.62899 0.72818
 C2176 C 1.10843 0.61923 0.71062
 C2177 C 1.10805 0.63001 0.69099
 C2178 C 1.11733 0.64984 0.68876
 C2179 C 1.12716 0.65938 0.70593
 C2180 C 1.12775 0.64915 0.72545
 C2181 C 1.11017 0.58748 0.76988
 C2182 C 1.10100 0.56759 0.77206
 C2183 C 1.09121 0.55805 0.75489
 C2184 C 1.09051 0.56833 0.73541
 C2185 C 1.12917 0.62848 0.76598
 C2186 C 1.13743 0.63659 0.78110
 C2187 C 1.08893 0.58903 0.69499
 C2188 C 1.08068 0.58080 0.67994
 H2189 H 1.10059 0.62324 0.67718
 H2190 H 1.11688 0.65786 0.67364
 H2191 H 1.13435 0.67478 0.70411
 H2192 H 1.13557 0.65720 0.73834
 H2193 H 1.11761 0.59424 0.78371
 H2194 H 1.10151 0.55953 0.78716
 H2195 H 1.08412 0.54259 0.75666
 H2196 H 1.08271 0.56027 0.72252
 C2197 C 0.59678 1.09787 0.71512
 C2198 C 0.60530 1.08482 0.73119
 C2199 C 0.61494 1.09412 0.74922
 C2200 C 0.61601 1.11641 0.75105
 C2201 C 0.60745 1.12945 0.73498
 C2202 C 0.59779 1.12015 0.71697
 C2203 C 0.58934 1.13351 0.70111
 C2204 C 0.59042 1.15543 0.70299
 C2205 C 0.59990 1.16453 0.72058
 C2206 C 0.60833 1.15176 0.73645
 C2207 C 0.62338 1.08076 0.76507
 C2208 C 0.62233 1.05884 0.76317
 C2209 C 0.61290 1.04975 0.74555
 C2210 C 0.60446 1.06251 0.72969
 C2211 C 0.62589 1.12589 0.76944
 C2212 C 0.63406 1.13373 0.78475
 C2213 C 0.58725 1.08838 0.69654
 C2214 C 0.57953 1.08064 0.68096
 H2215 H 0.58181 1.12719 0.68713
 H2216 H 0.58385 1.16541 0.69074
 H2217 H 0.60072 1.18156 0.72195
 H2218 H 0.61553 1.15958 0.74984
 H2219 H 0.63088 1.08708 0.77907
 H2220 H 0.62887 1.04886 0.77544
 H2221 H 0.61212 1.03271 0.74414
 H2222 H 0.59729 1.05470 0.71628
 C2223 C 0.59812 0.59911 1.21429
 C2224 C 0.59806 0.58878 1.23416
 C2225 C 0.60786 0.59849 1.25187
 C2226 C 0.61765 0.61848 1.24961
 C2227 C 0.61773 0.62880 1.22973
 C2228 C 0.60792 0.61909 1.21202
 C2229 C 0.60819 0.62972 1.19230
 C2230 C 0.61788 0.64937 1.19015
 C2231 C 0.62749 0.65885 1.20746
 C2232 C 0.62746 0.64876 1.22707
 C2233 C 0.60761 0.58784 1.27157
 C2234 C 0.59797 0.56817 1.27370
 C2235 C 0.58839 0.55868 1.25638
 C2236 C 0.58838 0.56879 1.23680
 C2237 C 0.62760 0.62837 1.26775
 C2238 C 0.63577 0.63640 1.28297
 C2239 C 0.58822 0.58914 1.19617
 C2240 C 0.58012 0.58096 1.18101
 H2241 H 0.60093 0.62298 1.17837
 H2242 H 0.61792 0.65727 1.17496
 H2243 H 0.63501 0.67411 1.20569
 H2244 H 0.63514 0.65677 1.24007
 H2245 H 0.61486 0.59458 1.28551
 H2246 H 0.59793 0.56025 1.28888
 H2247 H 0.58091 0.54340 1.25812
 H2248 H 0.58073 0.56077 1.22379
 C2249 C 0.90423 0.90475 1.21782
 C2250 C 0.88208 0.90507 1.22091
 C2251 C 0.87325 0.89621 1.23958
 C2252 C 0.88660 0.88711 1.25506
 C2253 C 0.90875 0.88682 1.25199
 C2254 C 0.91758 0.89567 1.23331
 C2255 C 0.93976 0.89516 1.23056
 C2256 C 0.95283 0.88618 1.24584
 C2257 C 0.94419 0.87754 1.26412
 C2258 C 0.92241 0.87781 1.26724
 C2259 C 0.85107 0.89668 1.24230
 C2260 C 0.83799 0.90563 1.22700
 C2261 C 0.84663 0.91429 1.20874
 C2262 C 0.86841 0.91406 1.20565
 C2263 C 0.87757 0.87798 1.27410
 C2264 C 0.87007 0.87038 1.28989
 C2265 C 0.91322 0.91355 1.19862
 C2266 C 0.92057 0.92073 1.18257
 H2267 H 0.94722 0.90169 1.21662
 H2268 H 0.96975 0.88592 1.24349
 H2269 H 0.95441 0.87059 1.27594
 H2270 H 0.91644 0.87089 1.28171
 H2271 H 0.84360 0.89015 1.25624
 H2272 H 0.82106 0.90585 1.22933
 H2273 H 0.83642 0.92126 1.19692
 H2274 H 0.87439 0.92101 1.19119
 C2275 C 0.90149 0.40133 0.71460
 C2276 C 0.88851 0.38324 0.71254
 C2277 C 0.87920 0.37399 0.73079
 C2278 C 0.88289 0.38292 0.75099
 C2279 C 0.89585 0.40103 0.75303
 C2280 C 0.90518 0.41026 0.73479
 C2281 C 0.91807 0.42835 0.73723
 C2282 C 0.92165 0.43708 0.75713
 C2283 C 0.91253 0.42806 0.77498
 C2284 C 0.89977 0.41025 0.77305
 C2285 C 0.86632 0.35589 0.72835
 C2286 C 0.86271 0.34719 0.70843
 C2287 C 0.87176 0.35626 0.69058
 C2288 C 0.88455 0.37406 0.69251
 C2289 C 0.87340 0.37351 0.76966
 C2290 C 0.86564 0.36581 0.78529
 C2291 C 0.91101 0.41077 0.69596
 C2292 C 0.91881 0.41853 0.68040
 H2293 H 0.92551 0.43594 0.72382
 H2294 H 0.93156 0.45092 0.75871
 H2295 H 0.91536 0.43490 0.79040
 H2296 H 0.89303 0.40381 0.78740
 H2297 H 0.85891 0.34829 0.74176
 H2298 H 0.85281 0.33335 0.70684
 H2299 H 0.86887 0.34948 0.67514
 H2300 H 0.89126 0.38054 0.67817
 C2301 C 0.40336 0.90454 0.71657
 C2302 C 0.38206 0.89778 0.71636
 C2303 C 0.37294 0.88886 0.73487
 C2304 C 0.38519 0.88672 0.75348
 C2305 C 0.40649 0.89350 0.75369
 C2306 C 0.41559 0.90244 0.73518
 C2307 C 0.43691 0.90909 0.73577
 C2308 C 0.44889 0.90696 0.75412
 C2309 C 0.44000 0.89822 0.77221
 C2310 C 0.41905 0.89153 0.77209
 C2311 C 0.35161 0.88223 0.73427
 C2312 C 0.33965 0.88431 0.71590
 C2313 C 0.34858 0.89299 0.69779
 C2314 C 0.36952 0.89969 0.69793
 C2315 C 0.37593 0.87750 0.77237
 C2316 C 0.36832 0.86982 0.78807
 C2317 C 0.41269 0.91355 0.69762
 C2318 C 0.42028 0.92093 0.68177
 H2319 H 0.44453 0.91598 0.72209
 H2320 H 0.46517 0.91214 0.75429
 H2321 H 0.44937 0.89660 0.78642
 H2322 H 0.41284 0.88482 0.78655
 H2323 H 0.34398 0.87536 0.74796
 H2324 H 0.32337 0.87914 0.71571
 H2325 H 0.33924 0.89452 0.68354
 H2326 H 0.37575 0.90636 0.68345
 C2327 C 0.40720 0.40780 1.22092
 C2328 C 0.38976 0.41787 1.23070
 C2329 C 0.38117 0.40947 1.24971
 C2330 C 0.39007 0.39106 1.25882
 C2331 C 0.40766 0.38113 1.24918
 C2332 C 0.41625 0.38953 1.23017
 C2333 C 0.43379 0.37929 1.22079
 C2334 C 0.44261 0.36128 1.22992
 C2335 C 0.43422 0.35308 1.24851
 C2336 C 0.41695 0.36282 1.25809
 C2337 C 0.36370 0.41977 1.25915
 C2338 C 0.35497 0.43786 1.25008
 C2339 C 0.36336 0.44606 1.23150
 C2340 C 0.38055 0.43625 1.22184
 C2341 C 0.38094 0.38214 1.27792
 C2342 C 0.37329 0.37459 1.29368
 C2343 C 0.41556 0.41600 1.20116
 C2344 C 0.42234 0.42266 1.18463
 H2345 H 0.44089 0.38508 1.20633
 H2346 H 0.45603 0.35365 1.22254
 H2347 H 0.44113 0.33908 1.25555
 H2348 H 0.41099 0.35585 1.27255
 H2349 H 0.35663 0.41400 1.27362
 H2350 H 0.34161 0.44554 1.25752
 H2351 H 0.35652 0.46012 1.22452
 H2352 H 0.38653 0.44324 1.20741
 C2353 C 0.90163 1.09653 0.78534
 C2354 C 0.88026 1.10312 0.78600
 C2355 C 0.87078 1.11221 0.76776
 C2356 C 0.88273 1.11471 0.74899
 C2357 C 0.90410 1.10812 0.74834
 C2358 C 0.91357 1.09900 0.76657
 C2359 C 0.93496 1.09257 0.76556
 C2360 C 0.94666 1.09508 0.74706
 C2361 C 0.93740 1.10398 0.72923
 C2362 C 0.91637 1.11045 0.72977
 C2363 C 0.84940 1.11866 0.76880
 C2364 C 0.83774 1.11627 0.78735
 C2365 C 0.84703 1.10744 0.80520
 C2366 C 0.86802 1.10088 0.80461
 C2367 C 0.87313 1.12415 0.73039
 C2368 C 0.86528 1.13200 0.71488
 C2369 C 0.91132 1.08731 0.80401
 C2370 C 0.91919 1.07974 0.81963
 H2371 H 0.94286 1.08557 0.77902
 H2372 H 0.96301 1.09009 0.74656
 H2373 H 0.94656 1.10589 0.71489
 H2374 H 0.90988 1.11728 0.71549
 H2375 H 0.84148 1.12563 0.75533
 H2376 H 0.82141 1.12131 0.78788
 H2377 H 0.83793 1.10568 0.81958
 H2378 H 0.87453 1.09408 0.81890
 C2379 C 0.90255 0.59622 0.28544
 C2380 C 0.88124 0.60301 0.28605
 C2381 C 0.87188 0.61212 0.26777
 C2382 C 0.88390 0.61444 0.24902
 C2383 C 0.90520 0.60766 0.24842
 C2384 C 0.91455 0.59851 0.26669
 C2385 C 0.93588 0.59186 0.26573
 C2386 C 0.94763 0.59418 0.24724
 C2387 C 0.93849 0.60313 0.22937
 C2388 C 0.91753 0.60981 0.22986
 C2389 C 0.85055 0.61877 0.26874
 C2390 C 0.83883 0.61653 0.28727
 C2391 C 0.84800 0.60768 0.30516
 C2392 C 0.86895 0.60093 0.30464
 C2393 C 0.87440 0.62386 0.23038
 C2394 C 0.86662 0.63169 0.21485
 C2395 C 0.91210 0.58698 0.30414
 C2396 C 0.91987 0.57941 0.31980
 H2397 H 0.94368 0.58482 0.27922
 H2398 H 0.96392 0.58902 0.24678
 H2399 H 0.94769 0.60490 0.21504
 H2400 H 0.91112 0.61667 0.21555
 H2401 H 0.84273 0.62577 0.25523
 H2402 H 0.82254 0.62172 0.28775
 H2403 H 0.83886 0.60604 0.31954
 H2404 H 0.87537 0.59412 0.31896
 C2405 C 0.40180 1.09732 0.28572
 C2406 C 0.41456 1.10684 0.27000
 C2407 C 0.40504 1.11611 0.25188
 C2408 C 0.38280 1.11581 0.24960
 C2409 C 0.37004 1.10627 0.26532
 C2410 C 0.37957 1.09698 0.28343
 C2411 C 0.36649 1.08750 0.29892
 C2412 C 0.34462 1.08724 0.29660
 C2413 C 0.33530 1.09637 0.27892
 C2414 C 0.34778 1.10579 0.26340
 C2415 C 0.41812 1.12556 0.23638
 C2416 C 0.43999 1.12583 0.23871
 C2417 C 0.44930 1.11676 0.25643
 C2418 C 0.43681 1.10735 0.27194
 C2419 C 0.37309 1.12531 0.23110
 C2420 C 0.36510 1.13323 0.21570
 C2421 C 0.41149 1.08810 0.30437
 C2422 C 0.41934 1.08055 0.32001
 H2423 H 0.37299 1.08019 0.31295
 H2424 H 0.33486 1.07989 0.30858
 H2425 H 0.31830 1.09614 0.27720
 H2426 H 0.33980 1.11266 0.24992
 H2427 H 0.41162 1.13283 0.22232
 H2428 H 0.44976 1.13312 0.22670
 H2429 H 0.46630 1.11701 0.25816
 H2430 H 0.44479 1.10050 0.28544
 C2431 C 0.40113 0.59732 0.78647
 C2432 C 0.41275 0.59906 0.76741
 C2433 C 0.40332 0.60852 0.74935
 C2434 C 0.38233 0.61617 0.75044
 C2435 C 0.37070 0.61440 0.76950
 C2436 C 0.38014 0.60497 0.78758
 C2437 C 0.36825 0.60346 0.80649
 C2438 C 0.34761 0.61106 0.80751
 C2439 C 0.33835 0.62022 0.78981
 C2440 C 0.34969 0.62191 0.77098
 C2441 C 0.41526 0.61012 0.73047
 C2442 C 0.43591 0.60258 0.72949
 C2443 C 0.44513 0.59333 0.74716
 C2444 C 0.43375 0.59154 0.76595
 C2445 C 0.37274 0.62587 0.73199
 C2446 C 0.36486 0.63390 0.71661
 C2447 C 0.41080 0.58779 0.80497
 C2448 C 0.41869 0.58001 0.82047
 H2449 H 0.37475 0.59644 0.82067
 H2450 H 0.33878 0.60987 0.82212
 H2451 H 0.32231 0.62607 0.79068
 H2452 H 0.34182 0.62918 0.75764
 H2453 H 0.40878 0.61720 0.71631
 H2454 H 0.44481 0.60394 0.71493
 H2455 H 0.46118 0.58750 0.74631
 H2456 H 0.44160 0.58422 0.77927
 C2457 C 1.09717 0.90221 0.78518
 C2458 C 1.09037 0.88208 0.77821
 C2459 C 1.10016 0.87247 0.76040
 C2460 C 1.11668 0.88306 0.74966
 C2461 C 1.12333 0.90329 0.75651
 C2462 C 1.11354 0.91290 0.77433
 C2463 C 1.12050 0.93310 0.78092
 C2464 C 1.13666 0.94353 0.77020
 C2465 C 1.14623 0.93414 0.75278
 C2466 C 1.13971 0.91425 0.74595
 C2467 C 1.09313 0.85230 0.75376
 C2468 C 1.07690 0.84193 0.76441
 C2469 C 1.06733 0.85132 0.78183
 C2470 C 1.07392 0.87116 0.78872
 C2471 C 1.12690 0.87310 0.73168
 C2472 C 1.13538 0.86477 0.71677
 C2473 C 1.08763 0.91171 0.80379
 C2474 C 1.07991 0.91938 0.81943
 H2475 H 1.11353 0.94106 0.79437
 H2476 H 1.14178 0.95898 0.77544
 H2477 H 1.15877 0.94230 0.74451
 H2478 H 1.14764 0.90760 0.73231
 H2479 H 1.10008 0.84435 0.74029
 H2480 H 1.07173 0.82651 0.75912
 H2481 H 1.05473 0.84320 0.79005
 H2482 H 1.06598 0.87783 0.80233
 C2483 C 1.09395 0.40580 0.28219
 C2484 C 1.08499 0.38741 0.27314
 C2485 C 1.09397 0.37852 0.25455
 C2486 C 1.11187 0.38807 0.24512
 C2487 C 1.12064 0.40662 0.25400
 C2488 C 1.11166 0.41552 0.27259
 C2489 C 1.12075 0.43403 0.28123
 C2490 C 1.13821 0.44350 0.27175
 C2491 C 1.14700 0.43480 0.25357
 C2492 C 1.13839 0.41658 0.24473
 C2493 C 1.08478 0.36010 0.24583
 C2494 C 1.06721 0.35074 0.25521
 C2495 C 1.05842 0.35943 0.27339
 C2496 C 1.06715 0.37755 0.28233
 C2497 C 1.12142 0.37862 0.22650
 C2498 C 1.12942 0.37065 0.21114
 C2499 C 1.08523 0.41444 0.30159
 C2500 C 1.07819 0.42143 0.31787
 H2501 H 1.11446 0.44139 0.29534
 H2502 H 1.14495 0.45766 0.27855
 H2503 H 1.16056 0.44222 0.24627
 H2504 H 1.14577 0.41041 0.23058
 H2505 H 1.09104 0.35276 0.23170
 H2506 H 1.06037 0.33666 0.24832
 H2507 H 1.04477 0.35210 0.28061
 H2508 H 1.05974 0.38373 0.29646
 C2509 C 0.59603 0.90363 0.28454
 C2510 C 0.58975 0.88313 0.27816
 C2511 C 0.59922 0.87359 0.26014
 C2512 C 0.61490 0.88461 0.24861
 C2513 C 0.62105 0.90518 0.25488
 C2514 C 0.61159 0.91472 0.27290
 C2515 C 0.61803 0.93528 0.27891
 C2516 C 0.63337 0.94611 0.26743
 C2517 C 0.64263 0.93678 0.24981
 C2518 C 0.63661 0.91655 0.24353
 C2519 C 0.59272 0.85306 0.25409
 C2520 C 0.57731 0.84226 0.26553
 C2521 C 0.56806 0.85159 0.28315
 C2522 C 0.57415 0.87178 0.28947
 C2523 C 0.62481 0.87472 0.23040
 C2524 C 0.63305 0.86646 0.21532
 C2525 C 0.58680 0.91310 0.30330
 C2526 C 0.57929 0.92074 0.31907
 H2527 H 0.61128 0.94320 0.29250
 H2528 H 0.63811 0.96182 0.27224
 H2529 H 0.65454 0.94526 0.24094
 H2530 H 0.64426 0.90997 0.22972
 H2531 H 0.59945 0.84514 0.24049
 H2532 H 0.57253 0.82657 0.26068
 H2533 H 0.55610 0.84314 0.29198
 H2534 H 0.56647 0.87837 0.30327
 C2535 C 0.59341 0.40621 0.78247
 C2536 C 0.58696 0.38602 0.77531
 C2537 C 0.59606 0.37728 0.75671
 C2538 C 0.61154 0.38879 0.74537
 C2539 C 0.61780 0.40908 0.75240
 C2540 C 0.60870 0.41782 0.77100
 C2541 C 0.61524 0.43812 0.77775
 C2542 C 0.63034 0.44946 0.76642
 C2543 C 0.63924 0.44091 0.74823
 C2544 C 0.63311 0.42096 0.74123
 C2545 C 0.58942 0.35704 0.74990
 C2546 C 0.57421 0.34577 0.76114
 C2547 C 0.56531 0.35432 0.77933
 C2548 C 0.57156 0.37420 0.78641
 C2549 C 0.62115 0.37964 0.72664
 C2550 C 0.62913 0.37187 0.71116
 C2551 C 0.58463 0.41482 0.80186
 C2552 C 0.57753 0.42178 0.81812
 H2553 H 0.60876 0.44544 0.79179
 H2554 H 0.63515 0.46497 0.77179
 H2555 H 0.65097 0.44978 0.73950
 H2556 H 0.64049 0.41497 0.72699
 H2557 H 0.59586 0.34972 0.73583
 H2558 H 0.56931 0.33031 0.75570
 H2559 H 0.55350 0.34550 0.78800
 H2560 H 0.56416 0.38019 0.80064
 C2561 C 1.21355 1.09704 1.09820
 C2562 C 1.21357 1.11893 1.10292
 C2563 C 1.23163 1.12831 1.11235
 C2564 C 1.24955 1.11574 1.11702
 C2565 C 1.24952 1.09386 1.11230
 C2566 C 1.23146 1.08448 1.10286
 C2567 C 1.23178 1.06257 1.09833
 C2568 C 1.24943 1.05027 1.10299
 C2569 C 1.26709 1.05943 1.11222
 C2570 C 1.26723 1.08097 1.11685
 C2571 C 1.23128 1.15021 1.11694
 C2572 C 1.21357 1.16248 1.11238
 C2573 C 1.19590 1.15330 1.10319
 C2574 C 1.19582 1.13179 1.09846
 C2575 C 1.26799 1.12530 1.12667
 C2576 C 1.28335 1.13318 1.13466
 C2577 C 1.19503 1.08745 1.08874
 C2578 C 1.17950 1.07964 1.08104
 H2579 H 1.21842 1.05472 1.09115
 H2580 H 1.24941 1.03353 1.09943
 H2581 H 1.28077 1.04981 1.11581
 H2582 H 1.28133 1.08737 1.12404
 H2583 H 1.24464 1.15807 1.12409
 H2584 H 1.21355 1.17920 1.11602
 H2585 H 1.18217 1.16289 1.09972
 H2586 H 1.18170 1.12538 1.09130
 C2587 C 1.21263 0.59829 0.59903
 C2588 C 1.23209 0.58728 0.59970
 C2589 C 1.25002 0.59689 0.60913
 C2590 C 1.24839 0.61745 0.61784
 C2591 C 1.22891 0.62844 0.61723
 C2592 C 1.21097 0.61884 0.60778
 C2593 C 1.19167 0.63013 0.60733
 C2594 C 1.19012 0.65034 0.61598
 C2595 C 1.20765 0.65972 0.62524
 C2596 C 1.22687 0.64897 0.62589
 C2597 C 1.26931 0.58557 0.60962
 C2598 C 1.27082 0.56533 0.60103
 C2599 C 1.25328 0.55594 0.59181
 C2600 C 1.23410 0.56671 0.59111
 C2601 C 1.26677 0.62726 0.62735
 C2602 C 1.28219 0.63519 0.63517
 C2603 C 1.19433 0.58848 0.58938
 C2604 C 1.17903 0.58044 0.58145
 H2605 H 1.17759 0.62350 0.60030
 H2606 H 1.17525 0.65876 0.61547
 H2607 H 1.20636 0.67541 0.63194
 H2608 H 1.24006 0.65693 0.63326
 H2609 H 1.28340 0.59219 0.61663
 H2610 H 1.28570 0.55690 0.60154
 H2611 H 1.25454 0.54022 0.58516
 H2612 H 1.22089 0.55874 0.58377
 C2613 C 0.71617 1.09576 0.59593
 C2614 C 0.72658 1.08517 0.61268
 C2615 C 0.74485 1.09424 0.62201
 C2616 C 0.75262 1.11385 0.61453
 C2617 C 0.74234 1.12434 0.59764
 C2618 C 0.72406 1.11527 0.58831
 C2619 C 0.71401 1.12609 0.57149
 C2620 C 0.72180 1.14531 0.56408
 C2621 C 0.73968 1.15417 0.57319
 C2622 C 0.74989 1.14388 0.58978
 C2623 C 0.75494 1.08338 0.63878
 C2624 C 0.74721 1.06411 0.64612
 C2625 C 0.72934 1.05525 0.63700
 C2626 C 0.71907 1.06558 0.62047
 C2627 C 0.77104 1.12333 0.62434
 C2628 C 0.78629 1.13127 0.63252
 C2629 C 0.69715 1.08681 0.58681
 C2630 C 0.68120 1.07952 0.57942
 H2631 H 0.70007 1.11982 0.56387
 H2632 H 0.71393 1.15336 0.55120
 H2633 H 0.74567 1.16910 0.56738
 H2634 H 0.76374 1.15140 0.59635
 H2635 H 0.76890 1.08964 0.64638
 H2636 H 0.75513 1.05602 0.65895
 H2637 H 0.72340 1.04027 0.64275
 H2638 H 0.70524 1.05805 0.61388
 C2639 C 0.71342 0.59721 1.09811
 C2640 C 0.73318 0.58686 1.09653
 C2641 C 0.75142 0.59619 1.10566
 C2642 C 0.74977 0.61581 1.11632
 C2643 C 0.73000 0.62616 1.11791
 C2644 C 0.71177 0.61683 1.10877
 C2645 C 0.69217 0.62747 1.11056
 C2646 C 0.69063 0.64677 1.12107
 C2647 C 0.70846 0.65589 1.13001
 C2648 C 0.72797 0.64577 1.12849
 C2649 C 0.77101 0.58554 1.10387
 C2650 C 0.77253 0.56624 1.09337
 C2651 C 0.75470 0.55712 1.08445
 C2652 C 0.73520 0.56724 1.08596
 C2653 C 0.76842 0.62528 1.12564
 C2654 C 0.78402 0.63299 1.13332
 C2655 C 0.69480 0.58768 1.08881
 C2656 C 0.67924 0.57988 1.08117
 H2657 H 0.67785 0.62101 1.10387
 H2658 H 0.67552 0.65470 1.12228
 H2659 H 0.70719 0.67088 1.13816
 H2660 H 0.74139 0.65349 1.13569
 H2661 H 0.78534 0.59199 1.11056
 H2662 H 0.78764 0.55831 1.09215
 H2663 H 0.75596 0.54212 1.07631
 H2664 H 0.72178 0.55952 1.07877
 C2665 C 1.21590 0.90346 0.90507
 C2666 C 1.21630 0.88174 0.89965
 C2667 C 1.23480 0.87274 0.89064
 C2668 C 1.25280 0.88551 0.88708
 C2669 C 1.25240 0.90723 0.89250
 C2670 C 1.23390 0.91623 0.90153
 C2671 C 1.23387 0.93797 0.90680
 C2672 C 1.25162 0.95048 0.90326
 C2673 C 1.26971 0.94169 0.89443
 C2674 C 1.27019 0.92032 0.88908
 C2675 C 1.23481 0.85099 0.88535
 C2676 C 1.21703 0.83850 0.88882
 C2677 C 1.19893 0.84731 0.89760
 C2678 C 1.19848 0.86866 0.90300
 C2679 C 1.27168 0.87635 0.87779
 C2680 C 1.28737 0.86878 0.87007
 C2681 C 1.19695 0.91266 0.91414
 C2682 C 1.18108 0.92016 0.92155
 H2683 H 1.22017 0.94553 0.91370
 H2684 H 1.25133 0.96708 0.90739
 H2685 H 1.28345 0.95147 0.89170
 H2686 H 1.28462 0.91421 0.88225
 H2687 H 1.24852 0.84342 0.87847
 H2688 H 1.21730 0.82191 0.88466
 H2689 H 1.18515 0.83756 0.90022
 H2690 H 1.18403 0.87478 0.90980
 C2691 C 1.21804 0.40584 0.40634
 C2692 C 1.23394 0.41961 0.39874
 C2693 C 1.25292 0.41115 0.39021
 C2694 C 1.25589 0.38897 0.38932
 C2695 C 1.23999 0.37521 0.39694
 C2696 C 1.22101 0.38367 0.40547
 C2697 C 1.20532 0.36959 0.41294
 C2698 C 1.20830 0.34778 0.41201
 C2699 C 1.22687 0.33951 0.40369
 C2700 C 1.24259 0.35298 0.39623
 C2701 C 1.26858 0.42522 0.38269
 C2702 C 1.26557 0.44703 0.38357
 C2703 C 1.24701 0.45530 0.39191
 C2704 C 1.23132 0.44182 0.39943
 C2705 C 1.27523 0.38032 0.38050
 C2706 C 1.29126 0.37308 0.37314
 C2707 C 1.19856 0.41446 0.41488
 C2708 C 1.18229 0.42148 0.42186
 H2709 H 1.19062 0.37526 0.41957
 H2710 H 1.19614 0.33724 0.41778
 H2711 H 1.22911 0.32255 0.40301
 H2712 H 1.25676 0.34579 0.38990
 H2713 H 1.28328 0.41954 0.37605
 H2714 H 1.27771 0.45757 0.37774
 H2715 H 1.24474 0.47225 0.39255
 H2716 H 1.21715 0.44901 0.40577
 C2717 C 0.71650 0.90499 0.40536
 C2718 C 0.73217 0.91832 0.39660
 C2719 C 0.75078 0.90939 0.38776
 C2720 C 0.75361 0.88717 0.38773
 C2721 C 0.73794 0.87384 0.39651
 C2722 C 0.71934 0.88278 0.40537
 C2723 C 0.70390 0.86914 0.41407
 C2724 C 0.70675 0.84729 0.41399
 C2725 C 0.72492 0.83855 0.40528
 C2726 C 0.74040 0.85160 0.39663
 C2727 C 0.76622 0.92303 0.37906
 C2728 C 0.76334 0.94487 0.37910
 C2729 C 0.74514 0.95361 0.38776
 C2730 C 0.72968 0.94056 0.39643
 C2731 C 0.77261 0.87805 0.37865
 C2732 C 0.78838 0.87050 0.37109
 C2733 C 0.69736 0.91408 0.41417
 C2734 C 0.68135 0.92146 0.42138
 H2735 H 0.68950 0.87518 0.42103
 H2736 H 0.69481 0.83709 0.42075
 H2737 H 0.72705 0.82157 0.40524
 H2738 H 0.75427 0.84405 0.39006
 H2739 H 0.78064 0.91698 0.37213
 H2740 H 0.77530 0.95507 0.37238
 H2741 H 0.74298 0.97059 0.38775
 H2742 H 0.71579 0.94810 0.40298
 C2743 C 0.71427 0.40251 0.90357
 C2744 C 0.73237 0.41506 0.89977
 C2745 C 0.75060 0.40586 0.89040
 C2746 C 0.75063 0.38417 0.88489
 C2747 C 0.73253 0.37161 0.88869
 C2748 C 0.71429 0.38082 0.89805
 C2749 C 0.69635 0.36797 0.90163
 C2750 C 0.69643 0.34664 0.89611
 C2751 C 0.71427 0.33763 0.88701
 C2752 C 0.73216 0.34989 0.88331
 C2753 C 0.76850 0.41874 0.88674
 C2754 C 0.76838 0.44009 0.89216
 C2755 C 0.75055 0.44908 0.90131
 C2756 C 0.73271 0.43679 0.90512
 C2757 C 0.76926 0.37478 0.87532
 C2758 C 0.78475 0.36700 0.86740
 C2759 C 0.69558 0.41193 0.91299
 C2760 C 0.67993 0.41961 0.92067
 H2761 H 0.68210 0.37424 0.90869
 H2762 H 0.68256 0.33706 0.89891
 H2763 H 0.71425 0.32105 0.88277
 H2764 H 0.74565 0.34217 0.87618
 H2765 H 0.78274 0.41247 0.87965
 H2766 H 0.78220 0.44971 0.88924
 H2767 H 0.75053 0.46567 0.90549
 H2768 H 0.71922 0.44450 0.91227
 C2769 C 0.78546 0.90194 1.09840
 C2770 C 0.78471 0.89913 1.12061
 C2771 C 0.76669 0.88973 1.13015
 C2772 C 0.74952 0.88320 1.11741
 C2773 C 0.75027 0.88601 1.09520
 C2774 C 0.76830 0.89541 1.08567
 C2775 C 0.76870 0.89803 1.06344
 C2776 C 0.75177 0.89156 1.05097
 C2777 C 0.73415 0.88237 1.06029
 C2778 C 0.73332 0.87959 1.08214
 C2779 C 0.76632 0.88707 1.15238
 C2780 C 0.78328 0.89348 1.16483
 C2781 C 0.80091 0.90265 1.15551
 C2782 C 0.80170 0.90549 1.13367
 C2783 C 0.73111 0.87359 1.12714
 C2784 C 0.71579 0.86563 1.13518
 C2785 C 0.80396 0.91138 1.08868
 C2786 C 0.81948 0.91910 1.08081
 H2787 H 0.78206 0.90510 1.05546
 H2788 H 0.75234 0.89368 1.03399
 H2789 H 0.72104 0.87737 1.05054
 H2790 H 0.71927 0.87236 1.08865
 H2791 H 0.75295 0.88001 1.16036
 H2792 H 0.78274 0.89131 1.18181
 H2793 H 0.81405 0.90758 1.16525
 H2794 H 0.81576 0.91271 1.12716
 C2795 C 0.78320 0.40378 0.59562
 C2796 C 0.76357 0.40609 0.58518
 C2797 C 0.74500 0.39729 0.59422
 C2798 C 0.74617 0.38622 0.61366
 C2799 C 0.76581 0.38388 0.62410
 C2800 C 0.78437 0.39268 0.61505
 C2801 C 0.80382 0.39013 0.62578
 C2802 C 0.80490 0.37919 0.64488
 C2803 C 0.78675 0.37058 0.65372
 C2804 C 0.76738 0.37286 0.64352
 C2805 C 0.72557 0.39980 0.58348
 C2806 C 0.72451 0.41070 0.56435
 C2807 C 0.74266 0.41931 0.55551
 C2808 C 0.76201 0.41708 0.56574
 C2809 C 0.72721 0.37722 0.62289
 C2810 C 0.71146 0.36972 0.63056
 C2811 C 0.80218 0.41275 0.58641
 C2812 C 0.81808 0.42009 0.57893
 H2813 H 0.81838 0.39654 0.61953
 H2814 H 0.81991 0.37738 0.65286
 H2815 H 0.78767 0.36210 0.66856
 H2816 H 0.75370 0.36588 0.65103
 H2817 H 0.71101 0.39339 0.58972
 H2818 H 0.70951 0.41248 0.55635
 H2819 H 0.74175 0.42776 0.54065
 H2820 H 0.77570 0.42405 0.55824
 C2821 C 0.28704 0.90054 0.59982
 C2822 C 0.28498 0.90050 0.62213
 C2823 C 0.26729 0.89057 0.63175
 C2824 C 0.25174 0.88078 0.61901
 C2825 C 0.25383 0.88079 0.59671
 C2826 C 0.27154 0.89069 0.58709
 C2827 C 0.27329 0.89049 0.56477
 C2828 C 0.25798 0.88078 0.55230
 C2829 C 0.24067 0.87110 0.56171
 C2830 C 0.23854 0.87105 0.58365
 C2831 C 0.26560 0.89069 0.65408
 C2832 C 0.28093 0.90036 0.66654
 C2833 C 0.29819 0.91012 0.65713
 C2834 C 0.30029 0.91023 0.63519
 C2835 C 0.23353 0.87086 0.62881
 C2836 C 0.21831 0.86272 0.63686
 C2837 C 0.30523 0.91048 0.59000
 C2838 C 0.32046 0.91857 0.58193
 H2839 H 0.28646 0.89782 0.55671
 H2840 H 0.25957 0.88077 0.53526
 H2841 H 0.22883 0.86357 0.55196
 H2842 H 0.22480 0.86330 0.59022
 H2843 H 0.25244 0.88332 0.66213
 H2844 H 0.27939 0.90031 0.68359
 H2845 H 0.31002 0.91768 0.66687
 H2846 H 0.31400 0.91802 0.62861
 C2847 C 0.28394 0.40287 1.09677
 C2848 C 0.28151 0.38063 1.09715
 C2849 C 0.26305 0.37155 1.10613
 C2850 C 0.24713 0.38477 1.11466
 C2851 C 0.24956 0.40702 1.11427
 C2852 C 0.26803 0.41610 1.10530
 C2853 C 0.27013 0.43837 1.10513
 C2854 C 0.25443 0.45132 1.11357
 C2855 C 0.23637 0.44244 1.12233
 C2856 C 0.23387 0.42056 1.12273
 C2857 C 0.26099 0.34927 1.10638
 C2858 C 0.27671 0.33632 1.09797
 C2859 C 0.29474 0.34520 1.08915
 C2860 C 0.29720 0.36708 1.08870
 C2861 C 0.22826 0.37553 1.12382
 C2862 C 0.21256 0.36792 1.13144
 C2863 C 0.30289 0.41213 1.08779
 C2864 C 0.31874 0.41968 1.08044
 H2865 H 0.28389 0.44602 1.09848
 H2866 H 0.25629 0.46832 1.11330
 H2867 H 0.22422 0.45256 1.12888
 H2868 H 0.21955 0.41441 1.12972
 H2869 H 0.24724 0.34162 1.11305
 H2870 H 0.27489 0.31931 1.09829
 H2871 H 0.30688 0.33508 1.08258
 H2872 H 0.31151 0.37324 1.08167
 C2873 C 0.78557 1.09700 0.90227
 C2874 C 0.78352 1.09720 0.87997
 C2875 C 0.76554 1.10671 0.87046
 C2876 C 0.74969 1.11592 0.88331
 C2877 C 0.75175 1.11574 0.90561
 C2878 C 0.76974 1.10625 0.91512
 C2879 C 0.77147 1.10629 0.93744
 C2880 C 0.75587 1.11545 0.95001
 C2881 C 0.73827 1.12472 0.94071
 C2882 C 0.73615 1.12491 0.91878
 C2883 C 0.76388 1.10678 0.84813
 C2884 C 0.77953 1.09770 0.83556
 C2885 C 0.79708 1.08834 0.84486
 C2886 C 0.79915 1.08806 0.86680
 C2887 C 0.73127 1.12556 0.87362
 C2888 C 0.71592 1.13358 0.86570
 C2889 C 0.80405 1.08751 0.91197
 C2890 C 0.81955 1.07976 0.91987
 H2891 H 0.78487 1.09927 0.94541
 H2892 H 0.75745 1.11535 0.96706
 H2893 H 0.72620 1.13182 0.95055
 H2894 H 0.72218 1.13234 0.91229
 H2895 H 0.75051 1.11385 0.84016
 H2896 H 0.77802 1.09790 0.81851
 H2897 H 0.80916 1.08124 0.83504
 H2898 H 0.81310 1.08061 0.87330
 C2899 C 0.78606 0.59716 0.40152
 C2900 C 0.78430 0.59745 0.37920
 C2901 C 0.76653 0.60717 0.36950
 C2902 C 0.75061 0.61648 0.38219
 C2903 C 0.75236 0.61616 0.40451
 C2904 C 0.77015 0.60647 0.41421
 C2905 C 0.77158 0.60638 0.43655
 C2906 C 0.75588 0.61558 0.44896
 C2907 C 0.73849 0.62505 0.43948
 C2908 C 0.73666 0.62539 0.41752
 C2909 C 0.76515 0.60733 0.34715
 C2910 C 0.78085 0.59813 0.33474
 C2911 C 0.79819 0.58856 0.34423
 C2912 C 0.79999 0.58820 0.36619
 C2913 C 0.73242 0.62636 0.37231
 C2914 C 0.71725 0.63455 0.36422
 C2915 C 0.80439 0.58755 0.41140
 C2916 C 0.81977 0.57972 0.41943
 H2917 H 0.78481 0.59920 0.44466
 H2918 H 0.75723 0.61537 0.46603
 H2919 H 0.72633 0.63219 0.44919
 H2920 H 0.72284 0.63296 0.41089
 H2921 H 0.75194 0.61456 0.33904
 H2922 H 0.77955 0.59839 0.31767
 H2923 H 0.81031 0.58136 0.33453
 H2924 H 0.81378 0.58058 0.37283
 C2925 C 0.28275 1.09481 0.40462
 C2926 C 0.28197 1.09938 0.38271
 C2927 C 0.26324 1.10787 0.37369
 C2928 C 0.24541 1.11177 0.38665
 C2929 C 0.24618 1.10716 0.40856
 C2930 C 0.26491 1.09866 0.41757
 C2931 C 0.26532 1.09422 0.43951
 C2932 C 0.24773 1.09807 0.45219
 C2933 C 0.22942 1.10637 0.44338
 C2934 C 0.22856 1.11090 0.42183
 C2935 C 0.26284 1.11233 0.35175
 C2936 C 0.28046 1.10854 0.33908
 C2937 C 0.29878 1.10026 0.34790
 C2938 C 0.29961 1.09569 0.36944
 C2939 C 0.22635 1.12068 0.37749
 C2940 C 0.21055 1.12818 0.36995
 C2941 C 0.30193 1.08623 0.41382
 C2942 C 0.31797 1.07917 0.42126
 H2943 H 0.27921 1.08774 0.44709
 H2944 H 0.24832 1.09458 0.46895
 H2945 H 0.21580 1.10933 0.45330
 H2946 H 0.21396 1.11735 0.41571
 H2947 H 0.24895 1.11878 0.34416
 H2948 H 0.27989 1.11205 0.32233
 H2949 H 0.31243 1.09738 0.33800
 H2950 H 0.31422 1.08926 0.37556
 C2951 C 0.28655 0.59830 0.90108
 C2952 C 0.27057 0.60778 0.91356
 C2953 C 0.25298 0.61760 0.90364
 C2954 C 0.25147 0.61788 0.88129
 C2955 C 0.26747 0.60842 0.86881
 C2956 C 0.28504 0.59857 0.87873
 C2957 C 0.30081 0.58916 0.86592
 C2958 C 0.29927 0.58952 0.84394
 C2959 C 0.28213 0.59922 0.83424
 C2960 C 0.26635 0.60857 0.84645
 C2961 C 0.23722 0.62700 0.91645
 C2962 C 0.23880 0.62671 0.93843
 C2963 C 0.25600 0.61711 0.94813
 C2964 C 0.27175 0.60773 0.93592
 C2965 C 0.23343 0.62781 0.87119
 C2966 C 0.21835 0.63604 0.86297
 C2967 C 0.30465 0.58851 0.91119
 C2968 C 0.31985 0.58052 0.91942
 H2969 H 0.31445 0.58143 0.87273
 H2970 H 0.31144 0.58220 0.83439
 H2971 H 0.28104 0.59949 0.81715
 H2972 H 0.25331 0.61591 0.83817
 H2973 H 0.22354 0.63468 0.90965
 H2974 H 0.22660 0.63398 0.94799
 H2975 H 0.25715 0.61692 0.96521
 H2976 H 0.28483 0.60045 0.94419
 C2977 C 1.09590 1.21527 1.09642
 C2978 C 1.11810 1.21792 1.09611
 C2979 C 1.12727 1.23635 1.10506
 C2980 C 1.11419 1.25204 1.11423
 C2981 C 1.09199 1.24939 1.11454
 C2982 C 1.08283 1.23095 1.10561
 C2983 C 1.06061 1.22863 1.10612
 C2984 C 1.04781 1.24410 1.11519
 C2985 C 1.05677 1.26213 1.12393
 C2986 C 1.07860 1.26483 1.12365
 C2987 C 1.14949 1.23862 1.10461
 C2988 C 1.16229 1.22313 1.09557
 C2989 C 1.15332 1.20513 1.08677
 C2990 C 1.13149 1.20246 1.08701
 C2991 C 1.12354 1.27088 1.12336
 C2992 C 1.13124 1.28655 1.13095
 C2993 C 1.08657 1.19635 1.08746
 C2994 C 1.07896 1.18052 1.08011
 H2995 H 1.05290 1.21488 1.09952
 H2996 H 1.03085 1.24207 1.11545
 H2997 H 1.04676 1.27410 1.13097
 H2998 H 1.08482 1.27913 1.13065
 H2999 H 1.15721 1.25236 1.11124
 H3000 H 1.17926 1.22511 1.09536
 H3001 H 1.16332 1.19317 1.07971
 H3002 H 1.12526 1.18818 1.07997
 C3003 C 1.10013 0.71122 0.60083
 C3004 C 1.11619 0.70805 0.61608
 C3005 C 1.12621 0.72576 0.62558
 C3006 C 1.12010 0.74651 0.61978
 C3007 C 1.10404 0.74965 0.60453
 C3008 C 1.09402 0.73196 0.59503
 C3009 C 1.07802 0.73550 0.57982
 C3010 C 1.07207 0.75595 0.57416
 C3011 C 1.08185 0.77326 0.58345
 C3012 C 1.09766 0.77024 0.59846
 C3013 C 1.14223 0.72221 0.64077
 C3014 C 1.14818 0.70174 0.64642
 C3015 C 1.13838 0.68444 0.63714
 C3016 C 1.12256 0.68746 0.62213
 C3017 C 1.13021 0.76465 0.62951
 C3018 C 1.13830 0.77996 0.63743
 C3019 C 1.08995 0.69316 0.59103
 C3020 C 1.08160 0.67813 0.58287
 H3021 H 1.06993 0.72255 0.57215
 H3022 H 1.05980 0.75837 0.56250
 H3023 H 1.07718 0.78911 0.57900
 H3024 H 1.10480 0.78422 0.60523
 H3025 H 1.15031 0.73517 0.64842
 H3026 H 1.16047 0.69931 0.65806
 H3027 H 1.14305 0.66858 0.64159
 H3028 H 1.11540 0.67350 0.61536
 C3029 C 0.59514 1.21680 0.59605
 C3030 C 0.60175 1.21679 0.61744
 C3031 C 0.61078 1.23531 0.62637
 C3032 C 0.61316 1.25372 0.61385
 C3033 C 0.60652 1.25373 0.59246
 C3034 C 0.59748 1.23522 0.58354
 C3035 C 0.59098 1.23561 0.56213
 C3036 C 0.59334 1.25377 0.54988
 C3037 C 0.60219 1.27187 0.55860
 C3038 C 0.60873 1.27195 0.57964
 C3039 C 0.61727 1.23491 0.64779
 C3040 C 0.61494 1.21673 0.66002
 C3041 C 0.60614 1.19862 0.65129
 C3042 C 0.59958 1.19856 0.63026
 C3043 C 0.62244 1.27261 0.62294
 C3044 C 0.63015 1.28831 0.63048
 C3045 C 0.58610 1.19782 0.58690
 C3046 C 0.57873 1.18194 0.57942
 H3047 H 0.58402 1.22192 0.55464
 H3048 H 0.58828 1.25380 0.53353
 H3049 H 0.60399 1.28594 0.54902
 H3050 H 0.61552 1.28641 0.58570
 H3051 H 0.62421 1.24860 0.65529
 H3052 H 0.62000 1.21669 0.67637
 H3053 H 0.60440 1.18453 0.66084
 H3054 H 0.59281 1.18409 0.62419
 C3055 C 0.59844 0.71250 1.10042
 C3056 C 0.59214 0.73308 1.09426
 C3057 C 0.60170 0.75103 1.10376
 C3058 C 0.61750 0.74830 1.11937
 C3059 C 0.62378 0.72771 1.12554
 C3060 C 0.61423 0.70975 1.11603
 C3061 C 0.62078 0.68932 1.12244
 C3062 C 0.63634 0.68671 1.13779
 C3063 C 0.64566 0.70426 1.14710
 C3064 C 0.63952 0.72457 1.14111
 C3065 C 0.59515 0.77145 1.09733
 C3066 C 0.57961 0.77406 1.08196
 C3067 C 0.57026 0.75650 1.07268
 C3068 C 0.57639 0.73621 1.07870
 C3069 C 0.62723 0.76669 1.12901
 C3070 C 0.63511 0.78217 1.13683
 C3071 C 0.58869 0.69417 1.09069
 C3072 C 0.58064 0.67891 1.08265
 H3073 H 0.61398 0.67518 1.11567
 H3074 H 0.64118 0.67097 1.14249
 H3075 H 0.65773 0.70214 1.15903
 H3076 H 0.64723 0.73774 1.14880
 H3077 H 0.60194 0.78561 1.10408
 H3078 H 0.57479 0.78979 1.07723
 H3079 H 0.55820 0.75860 1.06075
 H3080 H 0.56866 0.72305 1.07102
 C3081 C 0.90462 1.21638 0.90517
 C3082 C 0.88548 1.22458 0.91336
 C3083 C 0.87623 1.24283 0.90406
 C3084 C 0.88617 1.25277 0.88664
 C3085 C 0.90544 1.24471 0.87861
 C3086 C 0.91470 1.22646 0.88791
 C3087 C 0.93393 1.21866 0.87957
 C3088 C 0.94375 1.22861 0.86254
 C3089 C 0.93470 1.24645 0.85345
 C3090 C 0.91576 1.25448 0.86132
 C3091 C 0.85705 1.25070 0.91248
 C3092 C 0.84730 1.24082 0.92959
 C3093 C 0.85635 1.22298 0.93868
 C3094 C 0.87522 1.21487 0.93072
 C3095 C 0.87648 1.27114 0.87686
 C3096 C 0.86837 1.28634 0.86871
 C3097 C 0.91370 1.19733 0.91421
 C3098 C 0.92104 1.18134 0.92154
 H3099 H 0.94159 1.20483 0.88612
 H3100 H 0.95846 1.22244 0.85637
 H3101 H 0.94239 1.25413 0.84022
 H3102 H 0.90934 1.26840 0.85372
 H3103 H 0.84940 1.26455 0.90595
 H3104 H 0.83265 1.24706 0.93584
 H3105 H 0.84872 1.21536 0.95198
 H3106 H 0.88166 1.20097 0.93834
 C3107 C 0.90685 0.71842 0.40731
 C3108 C 0.88814 0.72712 0.41598
 C3109 C 0.87936 0.74585 0.40719
 C3110 C 0.88935 0.75576 0.38977
 C3111 C 0.90821 0.74723 0.38128
 C3112 C 0.91699 0.72850 0.39008
 C3113 C 0.93581 0.72021 0.38128
 C3114 C 0.94569 0.73015 0.36428
 C3115 C 0.93711 0.74846 0.35567
 C3116 C 0.91858 0.75697 0.36401
 C3117 C 0.86061 0.75420 0.41607
 C3118 C 0.85081 0.74433 0.43317
 C3119 C 0.85940 0.72602 0.44177
 C3120 C 0.87784 0.71744 0.43334
 C3121 C 0.88005 0.77455 0.38040
 C3122 C 0.87220 0.79004 0.37253
 C3123 C 0.91540 0.69889 0.41581
 C3124 C 0.92231 0.68251 0.42270
 H3125 H 0.94311 0.70601 0.38744
 H3126 H 0.96009 0.72361 0.35775
 H3127 H 0.94484 0.75613 0.34247
 H3128 H 0.91252 0.77125 0.35678
 H3129 H 0.85333 0.76842 0.40994
 H3130 H 0.83648 0.75094 0.43977
 H3131 H 0.85173 0.71842 0.45505
 H3132 H 0.88392 0.70318 0.44059
 C3133 C 0.40748 1.22005 0.40834
 C3134 C 0.41802 1.23059 0.39163
 C3135 C 0.40947 1.24958 0.38316
 C3136 C 0.39042 1.25791 0.39145
 C3137 C 0.38002 1.24751 0.40832
 C3138 C 0.38857 1.22853 0.41679
 C3139 C 0.37785 1.21838 0.43362
 C3140 C 0.35923 1.22675 0.44185
 C3141 C 0.35087 1.24532 0.43357
 C3142 C 0.36107 1.25565 0.41700
 C3143 C 0.42026 1.25980 0.36643
 C3144 C 0.43896 1.25149 0.35829
 C3145 C 0.44732 1.23292 0.36657
 C3146 C 0.43703 1.22252 0.38304
 C3147 C 0.38138 1.27699 0.38242
 C3148 C 0.37378 1.29274 0.37482
 C3149 C 0.41586 1.20033 0.41656
 C3150 C 0.42264 1.18382 0.42327
 H3151 H 0.38374 1.20391 0.44060
 H3152 H 0.35124 1.21879 0.45473
 H3153 H 0.33640 1.25176 0.44003
 H3154 H 0.35396 1.27005 0.41111
 H3155 H 0.41439 1.27429 0.35947
 H3156 H 0.44702 1.25952 0.34550
 H3157 H 0.46185 1.22654 0.36019
 H3158 H 0.44415 1.20813 0.38896
 C3159 C 0.40527 0.71771 0.90703
 C3160 C 0.41598 0.72837 0.89052
 C3161 C 0.40708 0.74695 0.88152
 C3162 C 0.38753 0.75476 0.88909
 C3163 C 0.37695 0.74424 0.90579
 C3164 C 0.38585 0.72566 0.91478
 C3165 C 0.37495 0.71537 0.93140
 C3166 C 0.35580 0.72322 0.93893
 C3167 C 0.34710 0.74139 0.93015
 C3168 C 0.35748 0.75185 0.91376
 C3169 C 0.41805 0.75729 0.86498
 C3170 C 0.43726 0.74951 0.85754
 C3171 C 0.44595 0.73134 0.86634
 C3172 C 0.43551 0.72082 0.88263
 C3173 C 0.37817 0.77343 0.87955
 C3174 C 0.37027 0.78885 0.87159
 C3175 C 0.41401 0.69835 0.91575
 C3176 C 0.42107 0.68212 0.92282
 H3177 H 0.38109 0.70120 0.93877
 H3178 H 0.34768 0.71516 0.95166
 H3179 H 0.33223 0.74743 0.93606
 H3180 H 0.35009 0.76593 0.90745
 H3181 H 0.41192 0.77149 0.85764
 H3182 H 0.44544 0.75762 0.84489
 H3183 H 0.46088 0.72536 0.86051
 H3184 H 0.44291 0.70676 0.88898
 C3185 C 1.09954 0.78626 0.90199
 C3186 C 1.12177 0.78404 0.90267
 C3187 C 1.13159 0.76638 0.89283
 C3188 C 1.11911 0.75103 0.88241
 C3189 C 1.09688 0.75327 0.88173
 C3190 C 1.08706 0.77094 0.89155
 C3191 C 1.06482 0.77287 0.89062
 C3192 C 1.05261 0.75776 0.88029
 C3193 C 1.06221 0.74047 0.87069
 C3194 C 1.08407 0.73816 0.87136
 C3195 C 1.15385 0.76453 0.89364
 C3196 C 1.16606 0.77970 0.90390
 C3197 C 1.15645 0.79694 0.91357
 C3198 C 1.13457 0.79917 0.91300
 C3199 C 1.12911 0.73293 0.87243
 C3200 C 1.13729 0.71783 0.86417
 C3201 C 1.08955 0.80446 0.91178
 C3202 C 1.08139 0.81973 0.91976
 H3203 H 1.05663 0.78604 0.89785
 H3204 H 1.03562 0.75949 0.87972
 H3205 H 1.05266 0.72878 0.86268
 H3206 H 1.09080 0.72445 0.86365
 H3207 H 1.16205 0.75139 0.88637
 H3208 H 1.18306 0.77805 0.90436
 H3209 H 1.16599 0.80863 0.92158
 H3210 H 1.12784 0.81286 0.92075
 C3211 C 1.09555 0.28221 0.40558
 C3212 C 1.11774 0.27993 0.40413
 C3213 C 1.12656 0.26124 0.39531
 C3214 C 1.11314 0.24493 0.38798
 C3215 C 1.09094 0.24719 0.38948
 C3216 C 1.08212 0.26588 0.39831
 C3217 C 1.05989 0.26780 0.39961
 C3218 C 1.04675 0.25169 0.39241
 C3219 C 1.05537 0.23341 0.38378
 C3220 C 1.07720 0.23110 0.38228
 C3221 C 1.14879 0.25934 0.39399
 C3222 C 1.16193 0.27546 0.40118
 C3223 C 1.15331 0.29374 0.40979
 C3224 C 1.13148 0.29604 0.41130
 C3225 C 1.12214 0.22589 0.37883
 C3226 C 1.12961 0.21011 0.37118
 C3227 C 1.08655 0.30142 0.41435
 C3228 C 1.07923 0.31749 0.42151
 H3229 H 1.05244 0.28172 0.40620
 H3230 H 1.02978 0.25342 0.39353
 H3231 H 1.04510 0.22095 0.37820
 H3232 H 1.08316 0.21659 0.37544
 H3233 H 1.15625 0.24541 0.38741
 H3234 H 1.17890 0.27375 0.40005
 H3235 H 1.16358 0.30622 0.41534
 H3236 H 1.12552 0.31055 0.41814
 C3237 C 0.59851 0.78619 0.40251
 C3238 C 0.62038 0.78642 0.39789
 C3239 C 0.63002 0.76853 0.38828
 C3240 C 0.61770 0.75053 0.38333
 C3241 C 0.59584 0.75029 0.38800
 C3242 C 0.58621 0.76818 0.39763
 C3243 C 0.56433 0.76759 0.40212
 C3244 C 0.55229 0.74983 0.39725
 C3245 C 0.56170 0.73234 0.38784
 C3246 C 0.58321 0.73247 0.38323
 C3247 C 0.65191 0.76912 0.38380
 C3248 C 0.66393 0.78691 0.38864
 C3249 C 0.65451 0.80441 0.39801
 C3250 C 0.63300 0.80425 0.40263
 C3251 C 0.62749 0.73230 0.37341
 C3252 C 0.63552 0.71710 0.36517
 C3253 C 0.58865 0.80456 0.41210
 C3254 C 0.58063 0.81998 0.41992
 H3255 H 0.55630 0.78081 0.40944
 H3256 H 0.53557 0.74964 0.40080
 H3257 H 0.55228 0.71858 0.38408
 H3258 H 0.58981 0.71849 0.37591
 H3259 H 0.65995 0.75589 0.37651
 H3260 H 0.68065 0.78711 0.38509
 H3261 H 0.66390 0.81820 0.40171
 H3262 H 0.62640 0.81825 0.40994
 C3263 C 0.59802 0.28511 0.90372
 C3264 C 0.62026 0.28288 0.90405
 C3265 C 0.62988 0.26491 0.89458
 C3266 C 0.61720 0.24925 0.88490
 C3267 C 0.59496 0.25149 0.88457
 C3268 C 0.58534 0.26948 0.89401
 C3269 C 0.56308 0.27140 0.89345
 C3270 C 0.55067 0.25598 0.88383
 C3271 C 0.56007 0.23839 0.87461
 C3272 C 0.58195 0.23608 0.87493
 C3273 C 0.65215 0.26306 0.89503
 C3274 C 0.66456 0.27853 0.90456
 C3275 C 0.65515 0.29608 0.91386
 C3276 C 0.63327 0.29832 0.91365
 C3277 C 0.62699 0.23087 0.87525
 C3278 C 0.63499 0.21555 0.86721
 C3279 C 0.58822 0.30361 0.91314
 C3280 C 0.58024 0.31911 0.92083
 H3281 H 0.55504 0.28480 0.90042
 H3282 H 0.53368 0.25771 0.88354
 H3283 H 0.55037 0.22647 0.86715
 H3284 H 0.58852 0.22213 0.86753
 H3285 H 0.66020 0.24968 0.88802
 H3286 H 0.68157 0.27688 0.90475
 H3287 H 0.66485 0.30801 0.92131
 H3288 H 0.62669 0.31226 0.92108
 C3289 C 0.90549 0.78202 1.09493
 C3290 C 0.91566 0.77155 1.11190
 C3291 C 0.90636 0.75325 1.12101
 C3292 C 0.88695 0.74553 1.11309
 C3293 C 0.87693 0.75582 1.09591
 C3294 C 0.88623 0.77412 1.08680
 C3295 C 0.87589 0.78419 1.06970
 C3296 C 0.85691 0.77639 1.06181
 C3297 C 0.84781 0.75849 1.07071
 C3298 C 0.85763 0.74826 1.08758
 C3299 C 0.91678 0.74310 1.13801
 C3300 C 0.93586 0.75080 1.14578
 C3301 C 0.94495 0.76870 1.13687
 C3302 C 0.93504 0.77903 1.12012
 C3303 C 0.87714 0.72720 1.12277
 C3304 C 0.86893 0.71206 1.13090
 C3305 C 0.91454 0.80118 1.08617
 C3306 C 0.92181 0.81728 1.07906
 H3307 H 0.88236 0.79815 1.06222
 H3308 H 0.84922 0.78428 1.04871
 H3309 H 0.83307 0.75249 1.06452
 H3310 H 0.84995 0.73439 1.09396
 H3311 H 0.91034 0.72911 1.14546
 H3312 H 0.94362 0.74283 1.15878
 H3313 H 0.95978 0.77462 1.14296
 H3314 H 0.94274 0.79288 1.11370
 C3315 C 0.90213 0.28456 0.59826
 C3316 C 0.89951 0.26592 0.58615
 C3317 C 0.89013 0.24775 0.59546
 C3318 C 0.88343 0.24832 0.61683
 C3319 C 0.88605 0.26696 0.62894
 C3320 C 0.89544 0.28513 0.61963
 C3321 C 0.89790 0.30357 0.63206
 C3322 C 0.89126 0.30407 0.65307
 C3323 C 0.88205 0.28632 0.66216
 C3324 C 0.87945 0.26793 0.65031
 C3325 C 0.88767 0.22932 0.58303
 C3326 C 0.89427 0.22884 0.56200
 C3327 C 0.90343 0.24661 0.55290
 C3328 C 0.90606 0.26498 0.56476
 C3329 C 0.87389 0.22973 0.62632
 C3330 C 0.86602 0.21420 0.63408
 C3331 C 0.91157 0.30317 0.58870
 C3332 C 0.91928 0.31873 0.58086
 H3333 H 0.90497 0.31778 0.62570
 H3334 H 0.89329 0.31829 0.66235
 H3335 H 0.87691 0.28679 0.67849
 H3336 H 0.87222 0.25452 0.65809
 H3337 H 0.88062 0.21509 0.58939
 H3338 H 0.89226 0.21461 0.55273
 H3339 H 0.90853 0.24616 0.53656
 H3340 H 0.91328 0.27839 0.55698
 C3341 C 0.40359 0.78416 0.59632
 C3342 C 0.41568 0.77070 0.60949
 C3343 C 0.40616 0.75265 0.61888
 C3344 C 0.38461 0.74817 0.61504
 C3345 C 0.37256 0.76154 0.60173
 C3346 C 0.38208 0.77959 0.59234
 C3347 C 0.36970 0.79276 0.57913
 C3348 C 0.34852 0.78822 0.57533
 C3349 C 0.33922 0.77057 0.58451
 C3350 C 0.35102 0.75733 0.59757
 C3351 C 0.41855 0.73945 0.63204
 C3352 C 0.43974 0.74396 0.63581
 C3353 C 0.44905 0.76162 0.62663
 C3354 C 0.43723 0.77489 0.61361
 C3355 C 0.37479 0.72993 0.62490
 C3356 C 0.36659 0.71482 0.63310
 C3357 C 0.41313 0.80291 0.58717
 C3358 C 0.42079 0.81867 0.57971
 H3359 H 0.37623 0.80666 0.57161
 H3360 H 0.33929 0.79847 0.56519
 H3361 H 0.32276 0.76712 0.58150
 H3362 H 0.34308 0.74378 0.60433
 H3363 H 0.41202 0.72553 0.63953
 H3364 H 0.44899 0.73370 0.64591
 H3365 H 0.46551 0.76505 0.62961
 H3366 H 0.44517 0.78843 0.60681
 C3367 C 0.40207 0.28503 1.09850
 C3368 C 0.41424 0.26658 1.10203
 C3369 C 0.40475 0.24848 1.11135
 C3370 C 0.38313 0.24894 1.11707
 C3371 C 0.37095 0.26739 1.11351
 C3372 C 0.38046 0.28550 1.10422
 C3373 C 0.36798 0.30379 1.10088
 C3374 C 0.34673 0.30418 1.10657
 C3375 C 0.33742 0.28646 1.11561
 C3376 C 0.34932 0.26823 1.11908
 C3377 C 0.41724 0.23022 1.11474
 C3378 C 0.43851 0.22987 1.10910
 C3379 C 0.44779 0.24757 1.10001
 C3380 C 0.43588 0.26576 1.09647
 C3381 C 0.37347 0.23047 1.12664
 C3382 C 0.36552 0.21509 1.13458
 C3383 C 0.41178 0.30357 1.08911
 C3384 C 0.41965 0.31911 1.08142
 H3385 H 0.37450 0.31796 1.09388
 H3386 H 0.33744 0.31831 1.10396
 H3387 H 0.32090 0.28684 1.11998
 H3388 H 0.34137 0.25485 1.12617
 H3389 H 0.41073 0.21606 1.12178
 H3390 H 0.44783 0.21577 1.11182
 H3391 H 0.46432 0.24721 1.09566
 H3392 H 0.44380 0.27914 1.08935
 C3393 C 1.09344 1.09315 0.78233
 C3394 C 1.10972 1.08232 0.77144
 C3395 C 1.11879 1.09137 0.75297
 C3396 C 1.11150 1.11118 0.74550
 C3397 C 1.09503 1.12188 0.75623
 C3398 C 1.08597 1.11284 0.77471
 C3399 C 1.06956 1.12385 0.78521
 C3400 C 1.06231 1.14325 0.77767
 C3401 C 1.07117 1.15209 0.75960
 C3402 C 1.08735 1.14160 0.74895
 C3403 C 1.13510 1.08029 0.74239
 C3404 C 1.14224 1.06081 0.74984
 C3405 C 1.13337 1.05197 0.76790
 C3406 C 1.11730 1.06253 0.77865
 C3407 C 1.12111 1.12067 0.72695
 C3408 C 1.12913 1.12867 0.71162
 C3409 C 1.08469 1.08430 0.80161
 C3410 C 1.07760 1.07716 0.81779
 H3411 H 1.06215 1.11761 0.79931
 H3412 H 1.04974 1.15146 0.78589
 H3413 H 1.06548 1.16716 0.75381
 H3414 H 1.09372 1.14911 0.73495
 H3415 H 1.14248 1.08652 0.72826
 H3416 H 1.15471 1.05255 0.74154
 H3417 H 1.13897 1.03684 0.77362
 H3418 H 1.11089 1.05501 0.79262
 C3419 C 1.09288 0.59341 0.28174
 C3420 C 1.10958 0.58295 0.27113
 C3421 C 1.11839 0.59193 0.25249
 C3422 C 1.11043 0.61131 0.24458
 C3423 C 1.09354 0.62162 0.25504
 C3424 C 1.08474 0.61265 0.27368
 C3425 C 1.06791 0.62328 0.28390
 C3426 C 1.06000 0.64224 0.27594
 C3427 C 1.06861 0.65102 0.25772
 C3428 C 1.08519 0.64091 0.24733
 C3429 C 1.13513 0.58122 0.24220
 C3430 C 1.14294 0.56218 0.25009
 C3431 C 1.13433 0.55341 0.26831
 C3432 C 1.11785 0.56360 0.27878
 C3433 C 1.11980 0.62077 0.22588
 C3434 C 1.12771 0.62869 0.21043
 C3435 C 1.08437 0.58462 0.30117
 C3436 C 1.07746 0.57753 0.31746
 H3437 H 1.06068 0.61707 0.29811
 H3438 H 1.04712 0.65016 0.28395
 H3439 H 1.06241 0.66576 0.25159
 H3440 H 1.09135 0.64835 0.23320
 H3441 H 1.14233 0.58742 0.22797
 H3442 H 1.15574 0.55420 0.24201
 H3443 H 1.14045 0.53861 0.27437
 H3444 H 1.11166 0.55614 0.29289
 C3445 C 0.60165 1.10298 0.29029
 C3446 C 0.60407 1.09283 0.27050
 C3447 C 0.61471 1.10332 0.25372
 C3448 C 0.62293 1.12390 0.25687
 C3449 C 0.62053 1.13405 0.27668
 C3450 C 0.60980 1.12358 0.29343
 C3451 C 0.60744 1.13411 0.31305
 C3452 C 0.61548 1.15438 0.31605
 C3453 C 0.62611 1.16455 0.29973
 C3454 C 0.62863 1.15459 0.28023
 C3455 C 0.61689 1.09286 0.23405
 C3456 C 0.60878 1.07262 0.23104
 C3457 C 0.59839 1.06235 0.24745
 C3458 C 0.59602 1.07226 0.26699
 C3459 C 0.63363 1.13463 0.23963
 C3460 C 0.64234 1.14328 0.22504
 C3461 C 0.59096 1.09219 0.30749
 C3462 C 0.58226 1.08336 0.32196
 H3463 H 0.59932 1.12684 0.32624
 H3464 H 0.61342 1.16223 0.33111
 H3465 H 0.63239 1.18027 0.30218
 H3466 H 0.63697 1.16316 0.26799
 H3467 H 0.62486 1.10018 0.22080
 H3468 H 0.61058 1.06486 0.21589
 H3469 H 0.59212 1.04663 0.24504
 H3470 H 0.58781 1.06364 0.27927
 C3471 C 0.59188 0.59268 0.78183
 C3472 C 0.60744 0.58127 0.77048
 C3473 C 0.61623 0.58994 0.75170
 C3474 C 0.60942 0.60997 0.74438
 C3475 C 0.59364 0.62125 0.75556
 C3476 C 0.58484 0.61258 0.77434
 C3477 C 0.56914 0.62418 0.78529
 C3478 C 0.56231 0.64378 0.77789
 C3479 C 0.57091 0.65226 0.75953
 C3480 C 0.58640 0.64120 0.74843
 C3481 C 0.63182 0.57827 0.74067
 C3482 C 0.63851 0.55858 0.74797
 C3483 C 0.62990 0.55010 0.76633
 C3484 C 0.61455 0.56125 0.77753
 C3485 C 0.61883 0.61912 0.72555
 C3486 C 0.62671 0.62686 0.71002
 C3487 C 0.58344 0.58419 0.80141
 C3488 C 0.57661 0.57732 0.81782
 H3489 H 0.56195 0.61823 0.79964
 H3490 H 0.55029 0.65243 0.78646
 H3491 H 0.56556 0.66749 0.75384
 H3492 H 0.59260 0.64845 0.73422
 H3493 H 0.63897 0.58420 0.72630
 H3494 H 0.65043 0.54986 0.73933
 H3495 H 0.63515 0.53480 0.77194
 H3496 H 0.60832 0.55399 0.79172
 C3497 C 0.90553 0.90526 0.78268
 C3498 C 0.88364 0.90093 0.78144
 C3499 C 0.87497 0.89248 0.76252
 C3500 C 0.88825 0.88840 0.74495
 C3501 C 0.91014 0.89274 0.74620
 C3502 C 0.91880 0.90119 0.76512
 C3503 C 0.94073 0.90536 0.76600
 C3504 C 0.95373 0.90130 0.74868
 C3505 C 0.94526 0.89305 0.73018
 C3506 C 0.92373 0.88879 0.72886
 C3507 C 0.85305 0.88827 0.76166
 C3508 C 0.84006 0.89226 0.77901
 C3509 C 0.84853 0.90049 0.79752
 C3510 C 0.87005 0.90482 0.79881
 C3511 C 0.87942 0.87965 0.72566
 C3512 C 0.87208 0.87234 0.70967
 C3513 C 0.91437 0.91378 0.80206
 C3514 C 0.92154 0.92079 0.81826
 H3515 H 0.94805 0.91178 0.78005
 H3516 H 0.97047 0.90458 0.74963
 H3517 H 0.95543 0.88993 0.71676
 H3518 H 0.91788 0.88237 0.71412
 H3519 H 0.84571 0.88186 0.74761
 H3520 H 0.82333 0.88893 0.77809
 H3521 H 0.83838 0.90354 0.81096
 H3522 H 0.87590 0.91123 0.81354
 C3523 C 0.90038 0.39936 0.28781
 C3524 C 0.91155 0.39701 0.26855
 C3525 C 0.90170 0.38708 0.25100
 C3526 C 0.88073 0.37954 0.25280
 C3527 C 0.86959 0.38180 0.27210
 C3528 C 0.87943 0.39178 0.28964
 C3529 C 0.86795 0.39394 0.30875
 C3530 C 0.84735 0.38644 0.31047
 C3531 C 0.83776 0.37660 0.29335
 C3532 C 0.84867 0.37429 0.27433
 C3533 C 0.91320 0.38491 0.23191
 C3534 C 0.93383 0.39233 0.23022
 C3535 C 0.94346 0.40204 0.24739
 C3536 C 0.93252 0.40440 0.26638
 C3537 C 0.87065 0.36963 0.23475
 C3538 C 0.86250 0.36154 0.21955
 C3539 C 0.91046 0.40943 0.30577
 C3540 C 0.91872 0.41766 0.32081
 H3541 H 0.87473 0.40145 0.32252
 H3542 H 0.83878 0.38830 0.32517
 H3543 H 0.82177 0.37076 0.29480
 H3544 H 0.84054 0.36655 0.26144
 H3545 H 0.90641 0.37745 0.21811
 H3546 H 0.94240 0.39053 0.21551
 H3547 H 0.95949 0.40778 0.24601
 H3548 H 0.94069 0.41206 0.27930
 C3549 C 0.40238 0.90227 0.28599
 C3550 C 0.39244 0.88230 0.28766
 C3551 C 0.38319 0.87287 0.26949
 C3552 C 0.38395 0.88347 0.24977
 C3553 C 0.39388 0.90345 0.24812
 C3554 C 0.40312 0.91288 0.26628
 C3555 C 0.41296 0.93286 0.26425
 C3556 C 0.41365 0.94323 0.24482
 C3557 C 0.40462 0.93402 0.22705
 C3558 C 0.39483 0.91437 0.22859
 C3559 C 0.37332 0.85291 0.27155
 C3560 C 0.37262 0.84255 0.29100
 C3561 C 0.38169 0.85175 0.30875
 C3562 C 0.39150 0.87140 0.30720
 C3563 C 0.37458 0.87386 0.23117
 C3564 C 0.36686 0.86605 0.21561
 C3565 C 0.41180 0.91190 0.30454
 C3566 C 0.41953 0.91978 0.32006
 H3567 H 0.42021 0.94067 0.27762
 H3568 H 0.42124 0.95850 0.24354
 H3569 H 0.40520 0.94215 0.21199
 H3570 H 0.38802 0.90786 0.21432
 H3571 H 0.36605 0.84512 0.25819
 H3572 H 0.36501 0.82729 0.29230
 H3573 H 0.38113 0.84363 0.32382
 H3574 H 0.39832 0.87791 0.32146
 C3575 C 0.40125 0.40081 0.78666
 C3576 C 0.38546 0.38514 0.78894
 C3577 C 0.37618 0.37590 0.77069
 C3578 C 0.38277 0.38236 0.75028
 C3579 C 0.39858 0.39801 0.74801
 C3580 C 0.40784 0.40726 0.76625
 C3581 C 0.42361 0.42288 0.76359
 C3582 C 0.43006 0.42917 0.74347
 C3583 C 0.42101 0.42012 0.72563
 C3584 C 0.40545 0.40472 0.72778
 C3585 C 0.36043 0.36028 0.77336
 C3586 C 0.35403 0.35394 0.79348
 C3587 C 0.36311 0.36297 0.81132
 C3588 C 0.37864 0.37840 0.80917
 C3589 C 0.37334 0.37297 0.73159
 C3590 C 0.36570 0.36536 0.71589
 C3591 C 0.41073 0.41029 0.80528
 C3592 C 0.41856 0.41814 0.82076
 H3593 H 0.43113 0.43038 0.77698
 H3594 H 0.44214 0.44112 0.74172
 H3595 H 0.42607 0.42505 0.71004
 H3596 H 0.39889 0.39815 0.71342
 H3597 H 0.35291 0.35280 0.75995
 H3598 H 0.34196 0.34197 0.79525
 H3599 H 0.35810 0.35797 0.82691
 H3600 H 0.38522 0.38496 0.82352
 C3601 C 1.09517 0.90384 1.21806
 C3602 C 1.11472 0.91150 1.22571
 C3603 C 1.12408 0.90215 1.24388
 C3604 C 1.11384 0.88519 1.25429
 C3605 C 1.09417 0.87770 1.24679
 C3606 C 1.08481 0.88705 1.22862
 C3607 C 1.06517 0.87926 1.22138
 C3608 C 1.05506 0.86270 1.23179
 C3609 C 1.06421 0.85355 1.24955
 C3610 C 1.08354 0.86089 1.25703
 C3611 C 1.14366 0.91003 1.25119
 C3612 C 1.15370 0.92669 1.24086
 C3613 C 1.14455 0.93583 1.22310
 C3614 C 1.12528 0.92839 1.21554
 C3615 C 1.12364 0.87532 1.27257
 C3616 C 1.13186 0.86709 1.28768
 C3617 C 1.08598 0.91291 1.19908
 C3618 C 1.07854 0.92028 1.18314
 H3619 H 1.05741 0.88588 1.20764
 H3620 H 1.04004 0.85694 1.22605
 H3621 H 1.05630 0.84069 1.25759
 H3622 H 1.09003 0.85327 1.27091
 H3623 H 1.15140 0.90345 1.26495
 H3624 H 1.16866 0.93253 1.24667
 H3625 H 1.15241 0.94877 1.21513
 H3626 H 1.11878 0.93604 1.20168
 C3627 C 1.09904 0.39884 0.71283
 C3628 C 1.10016 0.37649 0.71384
 C3629 C 1.11017 0.36652 0.73131
 C3630 C 1.11894 0.37894 0.74772
 C3631 C 1.11781 0.40129 0.74671
 C3632 C 1.10784 0.41126 0.72921
 C3633 C 1.10693 0.43361 0.72855
 C3634 C 1.11561 0.44577 0.74471
 C3635 C 1.12536 0.43602 0.76182
 C3636 C 1.12649 0.41405 0.76290
 C3637 C 1.11117 0.34417 0.73192
 C3638 C 1.10248 0.33201 0.71575
 C3639 C 1.09261 0.34176 0.69871
 C3640 C 1.09144 0.36374 0.69766
 C3641 C 1.12901 0.36879 0.76568
 C3642 C 1.13733 0.36052 0.78071
 C3643 C 1.08907 0.40902 0.69483
 C3644 C 1.08094 0.41732 0.67973
 H3645 H 1.09950 0.44192 0.71556
 H3646 H 1.11477 0.46284 0.74395
 H3647 H 1.13208 0.44554 0.77434
 H3648 H 1.13425 0.40721 0.77652
 H3649 H 1.11866 0.33586 0.74487
 H3650 H 1.10338 0.31494 0.71646
 H3651 H 1.08580 0.33225 0.68624
 H3652 H 1.08362 0.37058 0.68407
 C3653 C 0.59575 0.90366 0.71610
 C3654 C 0.60120 0.91656 0.73354
 C3655 C 0.61034 0.90733 0.75188
 C3656 C 0.61396 0.88524 0.75266
 C3657 C 0.60848 0.87233 0.73522
 C3658 C 0.59934 0.88157 0.71688
 C3659 C 0.59402 0.86835 0.69963
 C3660 C 0.59764 0.84664 0.70047
 C3661 C 0.60657 0.83760 0.71840
 C3662 C 0.61195 0.85022 0.73563
 C3663 C 0.61569 0.92055 0.76911
 C3664 C 0.61211 0.94228 0.76825
 C3665 C 0.60317 0.95130 0.75032
 C3666 C 0.59775 0.93867 0.73311
 C3667 C 0.62340 0.87583 0.77135
 C3668 C 0.63125 0.86802 0.78686
 C3669 C 0.58665 0.91310 0.69726
 C3670 C 0.57920 0.92075 0.68148
 H3671 H 0.58703 0.87464 0.68534
 H3672 H 0.59350 0.83677 0.68712
 H3673 H 0.60934 0.82072 0.71896
 H3674 H 0.61885 0.84246 0.74922
 H3675 H 0.62268 0.91427 0.78340
 H3676 H 0.61630 0.95216 0.78157
 H3677 H 0.60043 0.96819 0.74972
 H3678 H 0.59084 0.94642 0.71952
 C3679 C 0.60471 0.39439 1.20871
 C3680 C 0.61005 0.40499 1.22768
 C3681 C 0.62128 0.39411 1.24382
 C3682 C 0.62711 0.37268 1.24092
 C3683 C 0.62186 0.36210 1.22190
 C3684 C 0.61058 0.37297 1.20578
 C3685 C 0.60537 0.36201 1.18698
 C3686 C 0.61119 0.34095 1.18416
 C3687 C 0.62235 0.33037 1.19985
 C3688 C 0.62764 0.34074 1.21856
 C3689 C 0.62643 0.40506 1.26264
 C3690 C 0.62065 0.42614 1.26543
 C3691 C 0.60966 0.43677 1.24965
 C3692 C 0.60438 0.42639 1.23096
 C3693 C 0.63821 0.36151 1.25764
 C3694 C 0.64723 0.35252 1.27184
 C3695 C 0.59340 0.40556 1.19214
 C3696 C 0.58420 0.41475 1.17821
 H3697 H 0.59674 0.36957 1.17429
 H3698 H 0.60698 0.33280 1.16972
 H3699 H 0.62689 0.31403 1.19754
 H3700 H 0.63630 0.33184 1.23033
 H3701 H 0.63498 0.39750 1.27538
 H3702 H 0.62472 0.43427 1.27992
 H3703 H 0.60520 0.45314 1.25189
 H3704 H 0.59582 0.43533 1.21915
 C3705 C 0.89640 1.10190 1.21063
 C3706 C 0.90586 1.10262 1.23089
 C3707 C 0.89539 1.11310 1.24780
 C3708 C 0.87551 1.12276 1.24436
 C3709 C 0.86601 1.12197 1.22411
 C3710 C 0.87652 1.11156 1.20718
 C3711 C 0.86679 1.11113 1.18703
 C3712 C 0.84725 1.12070 1.18371
 C3713 C 0.83689 1.13072 1.20030
 C3714 C 0.84610 1.13141 1.22031
 C3715 C 0.90519 1.11364 1.26791
 C3716 C 0.92476 1.10411 1.27121
 C3717 C 0.93499 1.09387 1.25467
 C3718 C 0.92572 1.09309 1.23471
 C3719 C 0.86490 1.13352 1.26165
 C3720 C 0.85631 1.14234 1.27621
 C3721 C 0.90714 1.09132 1.19331
 C3722 C 0.91592 1.08267 1.17877
 H3723 H 0.87419 1.10347 1.17364
 H3724 H 0.84011 1.12033 1.16817
 H3725 H 0.82167 1.13804 1.19765
 H3726 H 0.83746 1.13944 1.23271
 H3727 H 0.89786 1.12141 1.28128
 H3728 H 0.93202 1.10468 1.28669
 H3729 H 0.95018 1.08650 1.25731
 H3730 H 0.93430 1.08494 1.22234
 C3731 C 0.90391 0.59372 0.71730
 C3732 C 0.91737 0.60153 0.73335
 C3733 C 0.90860 0.61035 0.75207
 C3734 C 0.88641 0.61131 0.75464
 C3735 C 0.87294 0.60343 0.73862
 C3736 C 0.88172 0.59461 0.71989
 C3737 C 0.86794 0.58688 0.70407
 C3738 C 0.84611 0.58785 0.70667
 C3739 C 0.83753 0.59647 0.72499
 C3740 C 0.85071 0.60419 0.74083
 C3741 C 0.92238 0.61809 0.76788
 C3742 C 0.94420 0.61715 0.76525
 C3743 C 0.95278 0.60853 0.74694
 C3744 C 0.93959 0.60079 0.73112
 C3745 C 0.87745 0.62047 0.77371
 C3746 C 0.87003 0.62811 0.78952
 C3747 C 0.91285 0.58497 0.69805
 C3748 C 0.92017 0.57783 0.68195
 H3749 H 0.87386 0.58002 0.68956
 H3750 H 0.83581 0.58188 0.69442
 H3751 H 0.82057 0.59718 0.72693
 H3752 H 0.84329 0.61073 0.75479
 H3753 H 0.91646 0.62494 0.78240
 H3754 H 0.95451 0.62315 0.77750
 H3755 H 0.96974 0.60784 0.74497
 H3756 H 0.94701 0.59423 0.71716
 C3757 C 0.39988 1.09962 0.71305
 C3758 C 0.41136 1.10268 0.73200
 C3759 C 0.40150 1.11249 0.74965
 C3760 C 0.38019 1.11917 0.74825
 C3761 C 0.36870 1.11610 0.72931
 C3762 C 0.37859 1.10632 0.71164
 C3763 C 0.36681 1.10350 0.69283
 C3764 C 0.34588 1.11016 0.69151
 C3765 C 0.33620 1.11967 0.70880
 C3766 C 0.34740 1.12265 0.72752
 C3767 C 0.41331 1.11542 0.76841
 C3768 C 0.43428 1.10884 0.76969
 C3769 C 0.44392 1.09924 0.75243
 C3770 C 0.43267 1.09615 0.73376
 C3771 C 0.37015 1.12922 0.76630
 C3772 C 0.36194 1.13752 0.78137
 C3773 C 0.40999 1.08975 0.69496
 C3774 C 0.41821 1.08169 0.67976
 H3775 H 0.37363 1.09615 0.67896
 H3776 H 0.33714 1.10796 0.67698
 H3777 H 0.31993 1.12480 0.70769
 H3778 H 0.33920 1.13014 0.74054
 H3779 H 0.40651 1.12282 0.78226
 H3780 H 0.44309 1.11121 0.78415
 H3781 H 0.46020 1.09416 0.75350
 H3782 H 0.44085 1.08860 0.72076
 C3783 C 0.39835 0.60036 1.21315
 C3784 C 0.40993 0.60426 1.23188
 C3785 C 0.40003 0.61443 1.24931
 C3786 C 0.37859 0.62064 1.24792
 C3787 C 0.36699 0.61673 1.22919
 C3788 C 0.37691 0.60658 1.21175
 C3789 C 0.36502 0.60292 1.19316
 C3790 C 0.34394 0.60910 1.19185
 C3791 C 0.33423 0.61896 1.20892
 C3792 C 0.34554 0.62277 1.22742
 C3793 C 0.41195 0.61817 1.26786
 C3794 C 0.43305 0.61204 1.26915
 C3795 C 0.44273 0.60210 1.25210
 C3796 C 0.43138 0.59821 1.23364
 C3797 C 0.36849 0.63099 1.26577
 C3798 C 0.36022 0.63951 1.28069
 C3799 C 0.40850 0.59014 1.19526
 C3800 C 0.41681 0.58182 1.18025
 H3801 H 0.37186 0.59529 1.17946
 H3802 H 0.33510 0.60624 1.17749
 H3803 H 0.31784 0.62370 1.20782
 H3804 H 0.33731 0.63051 1.24027
 H3805 H 0.40513 0.62586 1.28154
 H3806 H 0.44193 0.61502 1.28345
 H3807 H 0.45912 0.59737 1.25318
 H3808 H 0.43960 0.59043 1.22080
 C3809 C 1.10021 1.21153 0.90060
 C3810 C 1.08972 1.23128 0.89960
 C3811 C 1.09977 1.24883 0.88982
 C3812 C 1.12026 1.24654 0.88112
 C3813 C 1.13077 1.22680 0.88218
 C3814 C 1.12070 1.20923 0.89190
 C3815 C 1.13147 1.18962 0.89264
 C3816 C 1.15161 1.18743 0.88404
 C3817 C 1.16151 1.20464 0.87465
 C3818 C 1.15128 1.22414 0.87367
 C3819 C 1.08894 1.26841 0.88898
 C3820 C 1.06879 1.27058 0.89756
 C3821 C 1.05898 1.25342 0.90712
 C3822 C 1.06925 1.23395 0.90817
 C3823 C 1.13042 1.26448 0.87104
 C3824 C 1.13866 1.27951 0.86269
 C3825 C 1.08992 1.19356 0.91049
 C3826 C 1.08154 1.17850 0.91860
 H3827 H 1.12445 1.17577 0.89982
 H3828 H 1.15956 1.17229 0.88464
 H3829 H 1.17718 1.20286 0.86805
 H3830 H 1.15961 1.23705 0.86617
 H3831 H 1.09592 1.28223 0.88171
 H3832 H 1.06075 1.28567 0.89678
 H3833 H 1.04332 1.25519 0.91376
 H3834 H 1.06096 1.22106 0.91577
 C3835 C 1.09790 0.71420 0.40253
 C3836 C 1.11865 0.71297 0.39424
 C3837 C 1.12810 0.73113 0.38498
 C3838 C 1.11671 0.75039 0.38399
 C3839 C 1.09596 0.75160 0.39227
 C3840 C 1.08654 0.73346 0.40157
 C3841 C 1.06579 0.73506 0.40975
 C3842 C 1.05466 0.75405 0.40875
 C3843 C 1.06386 0.77179 0.39964
 C3844 C 1.08427 0.77068 0.39147
 C3845 C 1.14887 0.72954 0.37686
 C3846 C 1.15996 0.71052 0.37778
 C3847 C 1.15069 0.69274 0.38674
 C3848 C 1.13030 0.69387 0.39494
 C3849 C 1.12628 0.76893 0.37443
 C3850 C 1.13411 0.78441 0.36653
 C3851 C 1.08826 0.69563 0.41195
 C3852 C 1.08038 0.68010 0.41968
 H3853 H 1.05795 0.72169 0.41698
 H3854 H 1.03880 0.75500 0.41507
 H3855 H 1.05515 0.78650 0.39890
 H3856 H 1.09075 0.78491 0.38454
 H3857 H 1.15673 0.74293 0.36971
 H3858 H 1.17583 0.70956 0.37147
 H3859 H 1.15933 0.67798 0.38732
 H3860 H 1.12378 0.67962 0.40179
 C3861 C 0.60621 1.20634 0.39387
 C3862 C 0.62276 1.20110 0.37972
 C3863 C 0.63375 1.21739 0.36880
 C3864 C 0.62812 1.23881 0.37210
 C3865 C 0.61158 1.24403 0.38626
 C3866 C 0.60060 1.22776 0.39717
 C3867 C 0.58412 1.23339 0.41124
 C3868 C 0.57865 1.25448 0.41445
 C3869 C 0.58939 1.27040 0.40379
 C3870 C 0.60567 1.26533 0.38985
 C3871 C 0.65023 1.21177 0.35475
 C3872 C 0.65569 1.19066 0.35155
 C3873 C 0.64495 1.17474 0.36221
 C3874 C 0.62867 1.17981 0.37616
 C3875 C 0.63923 1.25554 0.36097
 C3876 C 0.64809 1.26985 0.35204
 C3877 C 0.59493 1.18975 0.40502
 C3878 C 0.58559 1.17596 0.41428
 H3879 H 0.57530 1.22157 0.41990
 H3880 H 0.56601 1.25850 0.42526
 H3881 H 0.58509 1.28677 0.40634
 H3882 H 0.61355 1.27829 0.38194
 H3883 H 0.65905 1.22360 0.34612
 H3884 H 0.66834 1.18663 0.34076
 H3885 H 0.64925 1.15837 0.35966
 H3886 H 0.62079 1.16687 0.38410
 C3887 C 0.59604 0.71510 0.90450
 C3888 C 0.58340 0.73304 0.90012
 C3889 C 0.59268 0.75136 0.89101
 C3890 C 0.61454 0.75162 0.88634
 C3891 C 0.62720 0.73369 0.89076
 C3892 C 0.61792 0.71537 0.89986
 C3893 C 0.63087 0.69761 0.90409
 C3894 C 0.65238 0.69794 0.89946
 C3895 C 0.66146 0.71586 0.89058
 C3896 C 0.64909 0.73358 0.88625
 C3897 C 0.57971 0.76910 0.88675
 C3898 C 0.55820 0.76875 0.89136
 C3899 C 0.54913 0.75083 0.90026
 C3900 C 0.56151 0.73314 0.90462
 C3901 C 0.62398 0.77030 0.87693
 C3902 C 0.63177 0.78582 0.86910
 C3903 C 0.58657 0.69632 0.91364
 C3904 C 0.57888 0.68059 0.92112
 H3905 H 0.62455 0.68330 0.91100
 H3906 H 0.66204 0.68421 0.90276
 H3907 H 0.67817 0.71604 0.88702
 H3908 H 0.65687 0.74714 0.87934
 H3909 H 0.58603 0.78340 0.87982
 H3910 H 0.54851 0.78245 0.88799
 H3911 H 0.53241 0.75063 0.90381
 H3912 H 0.55374 0.71957 0.91155
 C3913 C 0.90230 1.21481 1.09722
 C3914 C 0.91278 1.22564 1.11374
 C3915 C 0.90302 1.24338 1.12349
 C3916 C 0.88284 1.25019 1.11667
 C3917 C 0.87246 1.23949 1.09999
 C3918 C 0.88222 1.22175 1.09024
 C3919 C 0.87150 1.21127 1.07364
 C3920 C 0.85172 1.21813 1.06687
 C3921 C 0.84219 1.23549 1.07641
 C3922 C 0.85236 1.24610 1.09279
 C3923 C 0.91378 1.25392 1.14002
 C3924 C 0.93362 1.24713 1.14670
 C3925 C 0.94316 1.22978 1.13716
 C3926 C 0.93293 1.21909 1.12086
 C3927 C 0.87271 1.26807 1.12688
 C3928 C 0.86427 1.28290 1.13539
 C3929 C 0.91193 1.19625 1.08775
 C3930 C 0.91972 1.18063 1.08010
 H3931 H 0.87829 1.19771 1.06572
 H3932 H 0.84376 1.20994 1.05415
 H3933 H 0.82682 1.24076 1.07108
 H3934 H 0.84430 1.25953 1.09970
 H3935 H 0.90701 1.26750 1.14792
 H3936 H 0.94164 1.25538 1.15935
 H3937 H 0.95857 1.22457 1.14241
 H3938 H 0.94100 1.20569 1.11392
 C3939 C 0.90703 0.71876 0.59260
 C3940 C 0.91671 0.72844 0.61030
 C3941 C 0.90817 0.74742 0.61879
 C3942 C 0.89000 0.75662 0.60954
 C3943 C 0.88047 0.74709 0.59168
 C3944 C 0.88901 0.72810 0.58319
 C3945 C 0.87918 0.71883 0.56537
 C3946 C 0.86142 0.72806 0.55620
 C3947 C 0.85307 0.74662 0.56450
 C3948 C 0.86241 0.75609 0.58204
 C3949 C 0.91809 0.75676 0.63652
 C3950 C 0.93594 0.74762 0.64560
 C3951 C 0.94429 0.72906 0.63729
 C3952 C 0.93485 0.71951 0.61985
 C3953 C 0.88094 0.77570 0.61857
 C3954 C 0.87333 0.79144 0.62618
 C3955 C 0.91535 0.69902 0.58434
 C3956 C 0.92211 0.68250 0.57763
 H3957 H 0.88510 0.70441 0.55833
 H3958 H 0.85411 0.72077 0.54257
 H3959 H 0.83927 0.75372 0.55731
 H3960 H 0.85535 0.77052 0.58792
 H3961 H 0.91219 0.77121 0.64354
 H3962 H 0.94333 0.75498 0.65915
 H3963 H 0.95816 0.72203 0.64440
 H3964 H 0.94194 0.70509 0.61395
 C3965 C 0.40413 1.21718 0.59600
 C3966 C 0.41314 1.22599 0.61449
 C3967 C 0.40399 1.24429 0.62382
 C3968 C 0.38590 1.25367 0.61460
 C3969 C 0.37701 1.24498 0.59600
 C3970 C 0.38615 1.22668 0.58667
 C3971 C 0.37696 1.21825 0.56811
 C3972 C 0.35924 1.22763 0.55901
 C3973 C 0.35031 1.24552 0.56813
 C3974 C 0.35902 1.25416 0.58641
 C3975 C 0.41325 1.25277 0.64233
 C3976 C 0.43103 1.24345 0.65136
 C3977 C 0.43996 1.22556 0.64225
 C3978 C 0.43119 1.21686 0.62403
 C3979 C 0.37633 1.27213 0.62434
 C3980 C 0.36832 1.28740 0.63246
 C3981 C 0.41312 1.19816 0.58682
 C3982 C 0.42044 1.18220 0.57939
 H3983 H 0.38335 1.20435 0.56043
 H3984 H 0.35242 1.22098 0.54481
 H3985 H 0.33654 1.25275 0.56100
 H3986 H 0.35150 1.26809 0.59291
 H3987 H 0.40687 1.26667 0.65000
 H3988 H 0.43791 1.25015 0.66551
 H3989 H 0.45378 1.21838 0.64932
 H3990 H 0.43872 1.20294 0.61752
 C3991 C 0.40418 0.71654 1.09583
 C3992 C 0.41353 0.72582 1.11391
 C3993 C 0.40435 0.74415 1.12313
 C3994 C 0.38588 0.75308 1.11422
 C3995 C 0.37666 0.74393 1.09600
 C3996 C 0.38584 0.72560 1.08678
 C3997 C 0.37632 0.71669 1.06861
 C3998 C 0.35824 0.72565 1.05980
 C3999 C 0.34926 0.74357 1.06881
 C4000 C 0.35830 0.75267 1.08671
 C4001 C 0.41393 0.75312 1.14124
 C4002 C 0.43208 0.74423 1.14998
 C4003 C 0.44105 0.72631 1.14096
 C4004 C 0.43195 0.71714 1.12314
 C4005 C 0.37625 0.77153 1.12389
 C4006 C 0.36821 0.78680 1.13199
 C4007 C 0.41316 0.69744 1.08683
 C4008 C 0.42045 0.68140 1.07955
 H4009 H 0.38273 0.70276 1.06102
 H4010 H 0.35116 0.71863 1.04590
 H4011 H 0.33522 0.75046 1.06191
 H4012 H 0.35074 0.76661 1.09314
 H4013 H 0.40754 0.76707 1.14881
 H4014 H 0.43921 0.75130 1.16382
 H4015 H 0.45515 0.71947 1.14781
 H4016 H 0.43953 0.70322 1.11669
 C4017 C 0.90678 0.78071 0.90750
 C4018 C 0.91781 0.76954 0.89153
 C4019 C 0.90899 0.75083 0.88278
 C4020 C 0.88919 0.74341 0.89004
 C4021 C 0.87829 0.75443 0.90621
 C4022 C 0.88711 0.77313 0.91496
 C4023 C 0.87589 0.78391 0.93106
 C4024 C 0.85651 0.77642 0.93831
 C4025 C 0.84788 0.75814 0.92975
 C4026 C 0.85857 0.74721 0.91388
 C4027 C 0.92028 0.73998 0.86678
 C4028 C 0.93974 0.74737 0.85966
 C4029 C 0.94836 0.76565 0.86822
 C4030 C 0.93759 0.77668 0.88397
 C4031 C 0.87990 0.72463 0.88071
 C4032 C 0.87205 0.70913 0.87290
 C4033 C 0.91543 0.80020 0.91594
 C4034 C 0.92241 0.81654 0.92280
 H4035 H 0.88196 0.79819 0.93823
 H4036 H 0.84814 0.78485 0.95064
 H4037 H 0.83283 0.75239 0.93543
 H4038 H 0.85123 0.73306 0.90773
 H4039 H 0.91422 0.72568 0.85964
 H4040 H 0.94817 0.73887 0.84742
 H4041 H 0.96349 0.77133 0.86263
 H4042 H 0.94496 0.79081 0.89016
 C4043 C 0.89740 0.29003 0.39682
 C4044 C 0.90827 0.27100 0.39228
 C4045 C 0.89771 0.25434 0.38157
 C4046 C 0.87635 0.25683 0.37544
 C4047 C 0.86553 0.27594 0.37983
 C4048 C 0.87607 0.29257 0.39061
 C4049 C 0.86489 0.31147 0.39497
 C4050 C 0.84391 0.31388 0.38882
 C4051 C 0.83364 0.29768 0.37815
 C4052 C 0.84424 0.27887 0.37369
 C4053 C 0.90890 0.23545 0.37723
 C4054 C 0.92992 0.23309 0.38328
 C4055 C 0.94024 0.24938 0.39375
 C4056 C 0.92962 0.26816 0.39824
 C4057 C 0.86549 0.23959 0.36493
 C4058 C 0.85674 0.22499 0.35639
 C4059 C 0.90819 0.30706 0.40772
 C4060 C 0.91702 0.32138 0.41662
 H4061 H 0.87220 0.32455 0.40319
 H4062 H 0.83557 0.32840 0.39237
 H4063 H 0.81736 0.29968 0.37334
 H4064 H 0.83559 0.26670 0.36539
 H4065 H 0.90158 0.22233 0.36909
 H4066 H 0.93824 0.21854 0.37982
 H4067 H 0.95657 0.24748 0.39842
 H4068 H 0.93832 0.28038 0.40642
 C4069 C 0.39852 0.78918 0.39828
 C4070 C 0.40422 0.76824 0.40378
 C4071 C 0.39412 0.75088 0.39375
 C4072 C 0.37838 0.75456 0.37828
 C4073 C 0.37271 0.77550 0.37275
 C4074 C 0.38281 0.79287 0.38278
 C4075 C 0.37687 0.81367 0.37699
 C4076 C 0.36139 0.81721 0.36175
 C4077 C 0.35151 0.80023 0.35195
 C4078 C 0.35704 0.77958 0.35732
 C4079 C 0.40008 0.73009 0.39953
 C4080 C 0.41555 0.72655 0.41478
 C4081 C 0.42542 0.74352 0.42458
 C4082 C 0.41989 0.76416 0.41920
 C4083 C 0.36805 0.73675 0.36814
 C4084 C 0.35970 0.72172 0.35996
 C4085 C 0.40878 0.80691 0.40861
 C4086 C 0.41721 0.82169 0.41715
 H4087 H 0.38410 0.82739 0.38417
 H4088 H 0.35703 0.83321 0.35752
 H4089 H 0.33949 0.80308 0.34013
 H4090 H 0.34893 0.76689 0.34926
 H4091 H 0.39287 0.71636 0.39236
 H4092 H 0.41990 0.71054 0.41902
 H4093 H 0.43744 0.74069 0.43641
 H4094 H 0.42803 0.77685 0.42726
 C4095 C 0.39986 0.28715 0.90063
 C4096 C 0.39964 0.26721 0.91080
 C4097 C 0.38965 0.24971 0.90092
 C4098 C 0.37994 0.25225 0.88091
 C4099 C 0.38013 0.27220 0.87074
 C4100 C 0.39014 0.28970 0.88062
 C4101 C 0.39017 0.30948 0.87013
 C4102 C 0.38057 0.31191 0.85046
 C4103 C 0.37075 0.29481 0.84081
 C4104 C 0.37049 0.27514 0.85076
 C4105 C 0.38964 0.22993 0.91141
 C4106 C 0.39923 0.22752 0.93109
 C4107 C 0.40900 0.24463 0.94075
 C4108 C 0.40925 0.26429 0.93080
 C4109 C 0.36985 0.23430 0.87080
 C4110 C 0.36158 0.21924 0.86258
 C4111 C 0.40996 0.30506 0.91077
 C4112 C 0.41821 0.32007 0.91906
 H4113 H 0.39760 0.32325 0.87699
 H4114 H 0.38078 0.32714 0.84265
 H4115 H 0.36331 0.29679 0.82553
 H4116 H 0.36266 0.26231 0.84263
 H4117 H 0.38223 0.21615 0.90455
 H4118 H 0.39907 0.21228 0.93889
 H4119 H 0.41643 0.24268 0.95604
 H4120 H 0.41705 0.27713 0.93894
 C4121 C 1.09540 0.78274 1.09627
 C4122 C 1.08224 0.76532 1.10110
 C4123 C 1.09108 0.74668 1.11002
 C4124 C 1.11304 0.74557 1.11407
 C4125 C 1.12621 0.76298 1.10921
 C4126 C 1.11736 0.78162 1.10029
 C4127 C 1.13084 0.79885 1.09562
 C4128 C 1.15243 0.79769 1.09966
 C4129 C 1.16108 0.77946 1.10836
 C4130 C 1.14820 0.76225 1.11311
 C4131 C 1.07760 0.72948 1.11474
 C4132 C 1.05600 0.73067 1.11076
 C4133 C 1.04735 0.74889 1.10204
 C4134 C 1.06025 0.76607 1.09723
 C4135 C 1.12205 0.72656 1.12329
 C4136 C 1.12954 0.71079 1.13095
 C4137 C 1.08636 0.80186 1.08735
 C4138 C 1.07899 0.81786 1.08006
 H4139 H 1.12485 0.81337 1.08883
 H4140 H 1.16249 0.81102 1.09602
 H4141 H 1.17786 0.77864 1.11146
 H4142 H 1.15567 0.74842 1.11986
 H4143 H 1.08358 0.71496 1.12155
 H4144 H 1.04591 0.71737 1.11447
 H4145 H 1.03056 0.74974 1.09898
 H4146 H 1.05279 0.77990 1.09046
 C4147 C 1.09591 0.28380 0.59700
 C4148 C 1.09623 0.26462 0.58548
 C4149 C 1.10508 0.24614 0.59472
 C4150 C 1.11354 0.24696 0.61542
 C4151 C 1.11320 0.26614 0.62695
 C4152 C 1.10439 0.28463 0.61770
 C4153 C 1.10432 0.30366 0.62949
 C4154 C 1.11272 0.30439 0.64984
 C4155 C 1.12126 0.28629 0.65892
 C4156 C 1.12155 0.26734 0.64768
 C4157 C 1.10524 0.22715 0.58288
 C4158 C 1.09690 0.22643 0.56251
 C4159 C 1.08825 0.24450 0.55348
 C4160 C 1.08787 0.26342 0.56476
 C4161 C 1.12267 0.22809 0.62479
 C4162 C 1.13026 0.21238 0.63245
 C4163 C 1.08690 0.30268 0.58757
 C4164 C 1.07948 0.31847 0.57989
 H4165 H 1.09783 0.31815 0.62312
 H4166 H 1.11261 0.31909 0.65859
 H4167 H 1.12773 0.28694 0.67474
 H4168 H 1.12839 0.25369 0.65540
 H4169 H 1.11180 0.21267 0.58922
 H4170 H 1.09716 0.21178 0.55369
 H4171 H 1.08179 0.24387 0.53765
 H4172 H 1.08098 0.27706 0.55706
 C4173 C 0.59458 0.78304 0.59552
 C4174 C 0.60284 0.76720 0.58202
 C4175 C 0.61158 0.74844 0.59078
 C4176 C 0.61202 0.74563 0.61300
 C4177 C 0.60374 0.76146 0.62651
 C4178 C 0.59499 0.78022 0.61774
 C4179 C 0.58681 0.79582 0.63156
 C4180 C 0.58730 0.79299 0.65341
 C4181 C 0.59587 0.77466 0.66198
 C4182 C 0.60401 0.75902 0.64876
 C4183 C 0.61977 0.73285 0.57696
 C4184 C 0.61933 0.73571 0.55511
 C4185 C 0.61078 0.75406 0.54655
 C4186 C 0.60261 0.76968 0.55977
 C4187 C 0.62100 0.72649 0.62195
 C4188 C 0.62847 0.71061 0.62940
 C4189 C 0.58586 0.80231 0.58660
 C4190 C 0.57872 0.81842 0.57934
 H4191 H 0.57997 0.81035 0.62565
 H4192 H 0.58096 0.80508 0.66374
 H4193 H 0.59622 0.77254 0.67897
 H4194 H 0.61051 0.74503 0.65618
 H4195 H 0.62659 0.71831 0.58287
 H4196 H 0.62567 0.72363 0.54478
 H4197 H 0.61048 0.75621 0.52957
 H4198 H 0.59612 0.78367 0.55236
 C4199 C 0.60332 0.29087 1.10440
 C4200 C 0.59798 0.26971 1.09951
 C4201 C 0.60858 0.25278 1.10981
 C4202 C 0.62446 0.25712 1.12495
 C4203 C 0.62980 0.27828 1.12985
 C4204 C 0.61920 0.29522 1.11954
 C4205 C 0.62481 0.31625 1.12469
 C4206 C 0.64044 0.32043 1.13961
 C4207 C 0.65078 0.30388 1.14970
 C4208 C 0.64559 0.28301 1.14494
 C4209 C 0.60294 0.23175 1.10466
 C4210 C 0.58730 0.22757 1.08977
 C4211 C 0.57694 0.24413 1.07969
 C4212 C 0.58216 0.26498 1.08444
 C4213 C 0.63519 0.23975 1.13544
 C4214 C 0.64378 0.22499 1.14393
 C4215 C 0.59250 0.30813 1.09384
 C4216 C 0.58358 0.32252 1.08509
 H4217 H 0.61720 0.32966 1.11729
 H4218 H 0.64451 0.33661 1.14340
 H4219 H 0.66289 0.30722 1.16130
 H4220 H 0.65407 0.27066 1.15320
 H4221 H 0.61054 0.21833 1.11206
 H4222 H 0.58319 0.21140 1.08603
 H4223 H 0.56480 0.24080 1.06814
 H4224 H 0.57365 0.27732 1.07618
 C4225 C 1.21183 1.09979 0.90116
 C4226 C 1.21294 1.12214 0.90049
 C4227 C 1.23043 1.13218 0.89063
 C4228 C 1.24675 1.11981 0.88159
 C4229 C 1.24563 1.09746 0.88225
 C4230 C 1.22811 1.08742 0.89206
 C4231 C 1.22732 1.06506 0.89251
 C4232 C 1.24338 1.05296 0.88353
 C4233 C 1.26052 1.06277 0.87394
 C4234 C 1.26171 1.08475 0.87326
 C4235 C 1.23115 1.15454 0.89006
 C4236 C 1.21507 1.16664 0.89903
 C4237 C 1.19803 1.15682 0.90878
 C4238 C 1.19687 1.13484 0.90951
 C4239 C 1.26475 1.13002 0.87172
 C4240 C 1.27983 1.13829 0.86355
 C4241 C 1.19384 1.08954 0.91101
 C4242 C 1.17875 1.08119 0.91906
 H4243 H 1.21431 1.05670 0.89979
 H4244 H 1.24253 1.03587 0.88401
 H4245 H 1.27296 1.05330 0.86698
 H4246 H 1.27535 1.09165 0.86561
 H4247 H 1.24411 1.16290 0.88268
 H4248 H 1.21585 1.18372 0.89845
 H4249 H 1.18563 1.16629 0.91581
 H4250 H 1.18327 1.12794 0.91723
 C4251 C 1.21144 0.60078 0.40026
 C4252 C 1.21254 0.62314 0.39997
 C4253 C 1.22984 0.63337 0.38995
 C4254 C 1.24599 0.62118 0.38038
 C4255 C 1.24489 0.59881 0.38070
 C4256 C 1.22756 0.58859 0.39066
 C4257 C 1.22680 0.56622 0.39076
 C4258 C 1.24272 0.55429 0.38129
 C4259 C 1.25966 0.56428 0.37155
 C4260 C 1.26082 0.58628 0.37120
 C4261 C 1.23054 0.65574 0.38977
 C4262 C 1.21463 0.66766 0.39927
 C4263 C 1.19778 0.65766 0.40916
 C4264 C 1.19664 0.63567 0.40952
 C4265 C 1.26379 0.63158 0.37033
 C4266 C 1.27870 0.63999 0.36200
 C4267 C 1.19361 0.59036 0.41022
 C4268 C 1.17864 0.58189 0.41837
 H4269 H 1.21394 0.55773 0.39814
 H4270 H 1.24189 0.53720 0.38152
 H4271 H 1.27198 0.55494 0.36421
 H4272 H 1.27431 0.59331 0.36341
 H4273 H 1.24335 0.66423 0.38230
 H4274 H 1.21541 0.68476 0.39899
 H4275 H 1.18552 0.66699 0.41661
 H4276 H 1.18320 0.62862 0.41738
 C4277 C 0.70852 1.10347 0.39677
 C4278 C 0.72672 1.09202 0.39061
 C4279 C 0.74345 1.10251 0.37993
 C4280 C 0.74186 1.12440 0.37547
 C4281 C 0.72357 1.13582 0.38146
 C4282 C 0.70688 1.12534 0.39222
 C4283 C 0.68883 1.13712 0.39823
 C4284 C 0.68731 1.15863 0.39372
 C4285 C 0.70355 1.16884 0.38304
 C4286 C 0.72152 1.15765 0.37696
 C4287 C 0.76150 1.09072 0.37395
 C4288 C 0.76299 1.06919 0.37840
 C4289 C 0.74662 1.05893 0.38884
 C4290 C 0.72866 1.07013 0.39491
 C4291 C 0.75922 1.13515 0.36503
 C4292 C 0.77392 1.14374 0.35653
 C4293 C 0.69144 1.09274 0.40765
 C4294 C 0.67712 1.08390 0.41653
 H4295 H 0.67575 1.12987 0.40651
 H4296 H 0.67345 1.16742 0.39853
 H4297 H 0.70223 1.18553 0.37948
 H4298 H 0.73376 1.16628 0.36871
 H4299 H 0.77464 1.09797 0.36577
 H4300 H 0.77691 1.06042 0.37371
 H4301 H 0.74785 1.04221 0.39226
 H4302 H 0.71635 1.06145 0.40299
 C4303 C 0.71619 0.59474 0.90631
 C4304 C 0.73226 0.58129 0.89846
 C4305 C 0.75095 0.59011 0.88969
 C4306 C 0.75346 0.61233 0.88883
 C4307 C 0.73741 0.62579 0.89674
 C4308 C 0.71873 0.61697 0.90553
 C4309 C 0.70291 0.63075 0.91334
 C4310 C 0.70547 0.65261 0.91249
 C4311 C 0.72372 0.66123 0.90387
 C4312 C 0.73957 0.64806 0.89607
 C4313 C 0.76678 0.57633 0.88191
 C4314 C 0.76421 0.55447 0.88277
 C4315 C 0.74594 0.54585 0.89135
 C4316 C 0.73009 0.55903 0.89912
 C4317 C 0.77248 0.62134 0.87972
 C4318 C 0.78826 0.62881 0.87211
 C4319 C 0.69696 0.58576 0.91500
 C4320 C 0.68087 0.57847 0.92210
 H4321 H 0.68843 0.62480 0.92020
 H4322 H 0.69324 0.66290 0.91857
 H4323 H 0.72562 0.67822 0.90323
 H4324 H 0.75348 0.65551 0.88954
 H4325 H 0.78127 0.58228 0.87509
 H4326 H 0.77648 0.54417 0.87675
 H4327 H 0.74403 0.52886 0.89198
 H4328 H 0.71616 0.55158 0.90565
 C4329 C 1.21492 0.90286 1.09733
 C4330 C 1.21735 0.88061 1.09734
 C4331 C 1.23563 0.87131 1.10649
 C4332 C 1.25138 0.88433 1.11555
 C4333 C 1.24897 0.90659 1.11549
 C4334 C 1.23068 0.91588 1.10635
 C4335 C 1.22860 0.93817 1.10650
 C4336 C 1.24415 0.95091 1.11542
 C4337 C 1.26203 0.94182 1.12436
 C4338 C 1.26450 0.91993 1.12444
 C4339 C 1.23768 0.84902 1.10636
 C4340 C 1.22213 0.83628 1.09743
 C4341 C 1.20427 0.84538 1.08846
 C4342 C 1.20182 0.86727 1.08837
 C4343 C 1.27002 0.87483 1.12495
 C4344 C 1.28551 0.86698 1.13276
 C4345 C 1.19611 0.91232 1.08824
 C4346 C 1.18034 0.91997 1.08080
 H4347 H 1.21498 0.94597 1.09973
 H4348 H 1.24231 0.96793 1.11540
 H4349 H 1.27406 0.95179 1.13127
 H4350 H 1.27868 0.91360 1.13158
 H4351 H 1.25130 0.84121 1.11313
 H4352 H 1.22395 0.81926 1.09747
 H4353 H 1.19226 0.83542 1.08151
 H4354 H 1.18766 0.87359 1.08119
 C4355 C 1.21620 0.40390 0.59590
 C4356 C 1.23096 0.41692 0.60650
 C4357 C 1.24923 0.40779 0.61584
 C4358 C 1.25263 0.38570 0.61452
 C4359 C 1.23796 0.37271 0.60377
 C4360 C 1.21969 0.38183 0.59444
 C4361 C 1.20521 0.36851 0.58383
 C4362 C 1.20869 0.34680 0.58249
 C4363 C 1.22655 0.33788 0.59161
 C4364 C 1.24108 0.35060 0.60214
 C4365 C 1.26373 0.42111 0.62639
 C4366 C 1.26029 0.44284 0.62767
 C4367 C 1.24242 0.45176 0.61855
 C4368 C 1.22786 0.43903 0.60807
 C4369 C 1.27115 0.37632 0.62428
 C4370 C 1.28648 0.36841 0.63237
 C4371 C 1.19727 0.41312 0.58681
 C4372 C 1.18137 0.42055 0.57942
 H4373 H 1.19109 0.37471 0.57646
 H4374 H 1.19745 0.33685 0.57432
 H4375 H 1.22918 0.32100 0.59051
 H4376 H 1.25474 0.34292 0.60897
 H4377 H 1.27786 0.41491 0.63374
 H4378 H 1.27154 0.45280 0.63580
 H4379 H 1.23981 0.46865 0.61959
 H4380 H 1.21421 0.44670 0.60121
 C4381 C 0.71880 0.90767 0.59268
 C4382 C 0.72679 0.88829 0.58480
 C4383 C 0.74571 0.87968 0.59329
 C4384 C 0.75653 0.89049 0.60961
 C4385 C 0.74867 0.90999 0.61732
 C4386 C 0.72975 0.91861 0.60882
 C4387 C 0.72217 0.93809 0.61682
 C4388 C 0.73298 0.94876 0.63275
 C4389 C 0.75147 0.94033 0.64106
 C4390 C 0.75930 0.92117 0.63349
 C4391 C 0.75335 0.86025 0.58521
 C4392 C 0.74262 0.84965 0.56919
 C4393 C 0.72412 0.85807 0.56089
 C4394 C 0.71622 0.87716 0.56854
 C4395 C 0.77556 0.88141 0.61866
 C4396 C 0.79126 0.87376 0.62627
 C4397 C 0.69913 0.91614 0.58445
 C4398 C 0.68267 0.92298 0.57774
 H4399 H 0.70786 0.94529 0.61086
 H4400 H 0.72697 0.96365 0.63868
 H4401 H 0.75981 0.94868 0.65343
 H4402 H 0.77375 0.91526 0.64045
 H4403 H 0.76769 0.85307 0.59114
 H4404 H 0.74869 0.83481 0.56319
 H4405 H 0.71584 0.84977 0.54845
 H4406 H 0.70179 0.88309 0.56157
 C4407 C 0.71181 0.39978 1.10044
 C4408 C 0.71001 0.37886 1.10821
 C4409 C 0.72762 0.36895 1.11800
 C4410 C 0.74695 0.38001 1.11988
 C4411 C 0.74874 0.40094 1.11213
 C4412 C 0.73111 0.41086 1.10239
 C4413 C 0.73326 0.43180 1.09477
 C4414 C 0.75229 0.44263 1.09673
 C4415 C 0.76954 0.43294 1.10626
 C4416 C 0.76787 0.41234 1.11390
 C4417 C 0.72542 0.34806 1.12573
 C4418 C 0.70637 0.33724 1.12378
 C4419 C 0.68917 0.34690 1.11412
 C4420 C 0.69087 0.36747 1.10643
 C4421 C 0.76506 0.36986 1.12965
 C4422 C 0.78028 0.36166 1.13763
 C4423 C 0.69379 0.40993 1.09054
 C4424 C 0.67869 0.41822 1.08243
 H4425 H 0.72029 0.44001 1.08725
 H4426 H 0.75366 0.45864 1.09082
 H4427 H 0.78429 0.44142 1.10774
 H4428 H 0.78173 0.40549 1.12120
 H4429 H 0.73837 0.33989 1.13334
 H4430 H 0.70495 0.32127 1.12977
 H4431 H 0.67445 0.33840 1.11255
 H4432 H 0.67704 0.37431 1.09906
 C4433 C 0.78932 1.10146 1.10247
 C4434 C 0.78858 1.10208 1.12485
 C4435 C 0.77180 1.11283 1.13524
 C4436 C 0.75580 1.12280 1.12318
 C4437 C 0.75653 1.12215 1.10080
 C4438 C 0.77334 1.11145 1.09041
 C4439 C 0.77374 1.11103 1.06803
 C4440 C 0.75798 1.12089 1.05624
 C4441 C 0.74154 1.13134 1.06638
 C4442 C 0.74074 1.13202 1.08840
 C4443 C 0.77146 1.11334 1.15762
 C4444 C 0.78720 1.10343 1.16941
 C4445 C 0.80353 1.09280 1.15926
 C4446 C 0.80432 1.09212 1.13724
 C4447 C 0.73847 1.13351 1.13375
 C4448 C 0.72392 1.14227 1.14238
 C4449 C 0.80668 1.09084 1.09187
 C4450 C 0.82130 1.08223 1.08321
 H4451 H 0.78621 1.10308 1.05942
 H4452 H 0.75853 1.12040 1.03913
 H4453 H 0.72933 1.13898 1.05715
 H4454 H 0.72764 1.14037 1.09556
 H4455 H 0.75906 1.12138 1.16623
 H4456 H 0.78672 1.10399 1.18651
 H4457 H 0.81569 1.08508 1.16849
 H4458 H 0.81738 1.08370 1.13008
 C4459 C 0.78235 0.59388 0.59499
 C4460 C 0.76571 0.60038 0.58154
 C4461 C 0.74696 0.60909 0.59033
 C4462 C 0.74497 0.61123 0.61254
 C4463 C 0.76159 0.60469 0.62600
 C4464 C 0.78034 0.59599 0.61720
 C4465 C 0.79676 0.58959 0.63098
 C4466 C 0.79473 0.59174 0.65282
 C4467 C 0.77640 0.60025 0.66142
 C4468 C 0.75997 0.60667 0.64825
 C4469 C 0.73056 0.61551 0.57656
 C4470 C 0.73262 0.61338 0.55472
 C4471 C 0.75095 0.60487 0.54612
 C4472 C 0.76736 0.59842 0.55929
 C4473 C 0.72588 0.62026 0.62153
 C4474 C 0.71008 0.62781 0.62903
 C4475 C 0.80160 0.58520 0.58602
 C4476 C 0.81770 0.57809 0.57874
 H4477 H 0.81132 0.58287 0.62505
 H4478 H 0.80744 0.58678 0.66312
 H4479 H 0.77489 0.60189 0.67840
 H4480 H 0.74602 0.61319 0.65569
 H4481 H 0.71600 0.62222 0.58250
 H4482 H 0.71992 0.61837 0.54441
 H4483 H 0.75247 0.60326 0.52914
 H4484 H 0.78131 0.59190 0.55186
 C4485 C 0.28344 1.09538 0.59639
 C4486 C 0.28136 1.09632 0.61868
 C4487 C 0.26292 1.10527 0.62786
 C4488 C 0.24665 1.11319 0.61470
 C4489 C 0.24871 1.11221 0.59242
 C4490 C 0.26717 1.10329 0.58324
 C4491 C 0.26890 1.10252 0.56093
 C4492 C 0.25285 1.11033 0.54805
 C4493 C 0.23479 1.11905 0.55702
 C4494 C 0.23266 1.12002 0.57894
 C4495 C 0.26123 1.10610 0.65017
 C4496 C 0.27729 1.09827 0.66305
 C4497 C 0.29529 1.08946 0.65407
 C4498 C 0.29740 1.08847 0.63215
 C4499 C 0.22781 1.12234 0.62406
 C4500 C 0.21216 1.12996 0.63180
 C4501 C 0.30240 1.08649 0.58705
 C4502 C 0.31829 1.07921 0.57947
 H4503 H 0.28265 1.09588 0.55321
 H4504 H 0.25443 1.10962 0.53102
 H4505 H 0.22237 1.12510 0.54695
 H4506 H 0.21833 1.12695 0.58517
 H4507 H 0.24751 1.11278 0.65790
 H4508 H 0.27574 1.09903 0.68008
 H4509 H 0.30768 1.08332 0.66414
 H4510 H 0.31171 1.08147 0.62592
 C4511 C 0.28277 0.59468 1.09651
 C4512 C 0.26686 0.60296 1.08314
 C4513 C 0.24831 0.61195 1.09208
 C4514 C 0.24579 0.61261 1.11433
 C4515 C 0.26170 0.60433 1.12769
 C4516 C 0.28024 0.59531 1.11876
 C4517 C 0.29592 0.58710 1.13244
 C4518 C 0.29336 0.58778 1.15432
 C4519 C 0.27527 0.59665 1.16306
 C4520 C 0.25956 0.60484 1.14998
 C4521 C 0.23263 0.62014 1.07839
 C4522 C 0.23520 0.61947 1.05651
 C4523 C 0.25334 0.61069 1.04778
 C4524 C 0.26904 0.60251 1.06086
 C4525 C 0.22684 0.62181 1.12344
 C4526 C 0.21110 0.62944 1.13099
 C4527 C 0.30182 0.58570 1.08741
 C4528 C 0.31776 0.57838 1.07999
 H4529 H 0.31028 0.58005 1.12640
 H4530 H 0.30548 0.58138 1.16455
 H4531 H 0.27338 0.59717 1.18007
 H4532 H 0.24576 0.61156 1.15752
 H4533 H 0.21824 0.62715 1.08443
 H4534 H 0.22304 0.62581 1.04628
 H4535 H 0.25526 0.61021 1.03077
 H4536 H 0.28287 0.59583 1.05333
 C4537 C 0.78443 0.90335 0.90412
 C4538 C 0.78228 0.90266 0.88184
 C4539 C 0.76396 0.89354 0.87265
 C4540 C 0.74790 0.88519 0.88579
 C4541 C 0.75003 0.88593 0.90808
 C4542 C 0.76835 0.89503 0.91727
 C4543 C 0.77015 0.89557 0.93957
 C4544 C 0.75429 0.88735 0.95244
 C4545 C 0.73637 0.87845 0.94346
 C4546 C 0.73418 0.87770 0.92154
 C4547 C 0.76218 0.89300 0.85033
 C4548 C 0.77805 0.90123 0.83747
 C4549 C 0.79595 0.91016 0.84646
 C4550 C 0.79813 0.91090 0.86837
 C4551 C 0.72921 0.87583 0.87641
 C4552 C 0.71369 0.86804 0.86865
 C4553 C 0.80327 0.91241 0.91347
 C4554 C 0.81907 0.91982 0.92104
 H4555 H 0.78380 0.90233 0.94730
 H4556 H 0.75591 0.88790 0.96948
 H4557 H 0.72409 0.87209 0.95352
 H4558 H 0.71995 0.87060 0.91530
 H4559 H 0.74855 0.88623 0.84260
 H4560 H 0.77644 0.90068 0.82044
 H4561 H 0.80822 0.91656 0.83640
 H4562 H 0.81235 0.91802 0.87461
 C4563 C 0.79351 0.39349 0.39390
 C4564 C 0.79863 0.37817 0.37838
 C4565 C 0.78226 0.36736 0.36747
 C4566 C 0.76087 0.37196 0.37212
 C4567 C 0.75577 0.38727 0.38766
 C4568 C 0.77213 0.39806 0.39857
 C4569 C 0.76662 0.41329 0.41403
 C4570 C 0.74556 0.41773 0.41859
 C4571 C 0.72956 0.40718 0.40793
 C4572 C 0.73451 0.39212 0.39263
 C4573 C 0.78777 0.35209 0.35206
 C4574 C 0.80884 0.34764 0.34752
 C4575 C 0.82484 0.35823 0.35815
 C4576 C 0.81989 0.37333 0.37342
 C4577 C 0.74406 0.36102 0.36100
 C4578 C 0.72972 0.35222 0.35208
 C4579 C 0.81021 0.40455 0.40508
 C4580 C 0.82410 0.41370 0.41433
 H4581 H 0.77850 0.42191 0.42276
 H4582 H 0.74163 0.42942 0.43046
 H4583 H 0.71321 0.41068 0.41152
 H4584 H 0.72149 0.38434 0.38477
 H4585 H 0.77587 0.34344 0.34338
 H4586 H 0.81278 0.33591 0.33570
 H4587 H 0.84118 0.35471 0.35457
 H4588 H 0.83289 0.38113 0.38128
 C4589 C 0.28599 0.90160 0.40215
 C4590 C 0.26638 0.91235 0.40241
 C4591 C 0.24833 0.90289 0.39302
 C4592 C 0.25001 0.88273 0.38342
 C4593 C 0.26963 0.87199 0.38313
 C4594 C 0.28768 0.88145 0.39252
 C4595 C 0.30712 0.87040 0.39205
 C4596 C 0.30870 0.85058 0.38256
 C4597 C 0.29107 0.84135 0.37335
 C4598 C 0.27171 0.85185 0.37359
 C4599 C 0.22890 0.91396 0.39348
 C4600 C 0.22734 0.93379 0.40294
 C4601 C 0.24498 0.94303 0.41212
 C4602 C 0.26432 0.93251 0.41190
 C4603 C 0.23151 0.87306 0.37395
 C4604 C 0.21602 0.86520 0.36618
 C4605 C 0.30443 0.91127 0.41171
 C4606 C 0.31983 0.91920 0.41957
 H4607 H 0.32129 0.87693 0.39900
 H4608 H 0.32369 0.84234 0.38236
 H4609 H 0.29239 0.82595 0.36598
 H4610 H 0.25844 0.84403 0.36623
 H4611 H 0.21473 0.90743 0.38654
 H4612 H 0.21235 0.94203 0.40315
 H4613 H 0.24369 0.95844 0.41945
 H4614 H 0.27759 0.94035 0.41925
 C4615 C 0.28805 0.39870 0.90030
 C4616 C 0.29056 0.38926 0.88014
 C4617 C 0.27308 0.37932 0.87017
 C4618 C 0.25320 0.37890 0.88041
 C4619 C 0.25070 0.38833 0.90058
 C4620 C 0.26818 0.39825 0.91055
 C4621 C 0.26530 0.40755 0.93071
 C4622 C 0.24571 0.40708 0.94073
 C4623 C 0.22862 0.39740 0.93098
 C4624 C 0.23099 0.38810 0.91114
 C4625 C 0.27598 0.36998 0.85003
 C4626 C 0.29558 0.37048 0.84001
 C4627 C 0.31265 0.38023 0.84973
 C4628 C 0.31027 0.38952 0.86957
 C4629 C 0.23528 0.36885 0.87025
 C4630 C 0.22023 0.36061 0.86203
 C4631 C 0.30591 0.40882 0.91048
 C4632 C 0.32085 0.41712 0.91882
 H4633 H 0.27813 0.41526 0.93893
 H4634 H 0.24379 0.41428 0.95614
 H4635 H 0.21343 0.39709 0.93883
 H4636 H 0.21722 0.38076 0.90422
 H4637 H 0.26316 0.36222 0.84184
 H4638 H 0.29753 0.36327 0.82460
 H4639 H 0.32782 0.38062 0.84186
 H4640 H 0.32402 0.39690 0.87649
   
