data_POSCAR
  _audit_creation_date              2014-09-24
  _audit_creation_method            'ToBaCCo'
  _symmetry_space_group_name_H-M    'P1'
  _symmetry_Int_Tables_number       1
  _symmetry_cell_setting            triclinic
  loop_
  _symmetry_equiv_pos_as_xyz
 x,y,z
_cell_length_a 60.9373
_cell_length_b 60.9181
_cell_length_c 62.4355
_cell_angle_alpha 89.914000
_cell_angle_beta 89.291400
_cell_angle_gamma 89.889000
loop_
  _atom_site_label
  _atom_site_type_symbol
  _atom_site_fract_x
  _atom_site_fract_y
  _atom_site_fract_z
C1 C 0.41936 0.01581 0.28057
 H2 H 0.42078 0.02892 0.26893
 C3 C 0.43275 0.01577 0.29866
 H4 H 0.44454 0.02885 0.30067
 C5 C 0.40243 -0.01722 0.29192
 H6 H 0.39036 -0.02990 0.28956
 C7 C 0.41542 -0.01789 0.31018
 H8 H 0.41301 -0.03107 0.32162
 N9 N 0.40481 -0.00075 0.27732
 C10 C 0.39534 -0.00409 0.20794
 H11 H 0.37764 -0.00539 0.20766
 C12 C 0.40727 -0.00310 0.18872
 H13 H 0.39861 -0.00402 0.17371
 C14 C 0.42799 -0.00123 0.22791
 H15 H 0.43605 -0.00046 0.24319
 C16 C 0.44060 -0.00030 0.20903
 H17 H 0.45824 0.00144 0.21003
 Zn18 Zn 0.38741 -0.00097 0.25203
 N19 N 0.40571 -0.00250 0.22704
 C20 C 0.37453 0.04001 0.23450
 N21 N 0.37053 0.02570 0.25087
 C22 C 0.35562 0.03072 0.26654
 C23 C 0.34373 0.05047 0.26578
 C24 C 0.36305 0.05983 0.23311
 C25 C 0.38021 -0.04611 0.25065
 C26 C 0.36897 -0.06602 0.25222
 C27 C 0.33517 -0.04577 0.25629
 C28 C 0.34721 -0.02620 0.25469
 N29 N 0.36939 -0.02669 0.25236
 H30 H 0.38697 0.03638 0.22258
 H31 H 0.35297 0.01940 0.27969
 H32 H 0.33175 0.05397 0.27826
 H33 H 0.36688 0.07097 0.22007
 H34 H 0.39784 -0.04613 0.24834
 H35 H 0.37868 -0.08068 0.24996
 H36 H 0.31778 -0.04408 0.25931
 H37 H 0.33877 -0.01062 0.25583
 C38 C 0.43019 -0.00074 0.18908
 C39 C 0.43101 -0.00138 0.31371
 C40 C 0.34588 -0.06652 0.25551
 C41 C 0.34732 0.06535 0.24881
 C42 C 0.07307 -0.00181 0.72439
 H43 H 0.06471 -0.00116 0.73973
 C44 C 0.06076 -0.00356 0.70569
 H45 H 0.04303 -0.00411 0.70689
 C46 C 0.10622 -0.00306 0.70422
 H47 H 0.12397 -0.00311 0.70383
 C48 C 0.09457 -0.00492 0.68517
 H49 H 0.10355 -0.00599 0.67013
 N50 N 0.09540 -0.00153 0.72334
 C51 C 0.09430 -0.01858 0.78746
 H52 H 0.10496 -0.03250 0.78468
 C53 C 0.08109 -0.01797 0.80592
 H54 H 0.08185 -0.03148 0.81718
 C55 C 0.08127 0.01638 0.77684
 H56 H 0.08158 0.02979 0.76546
 C57 C 0.06782 0.01768 0.79510
 H58 H 0.05763 0.03207 0.79750
 Zn59 Zn 0.11265 -0.00144 0.74859
 N60 N 0.09408 -0.00159 0.77330
 C61 C 0.14223 0.02795 0.76797
 N62 N 0.13006 0.02460 0.75014
 C63 C 0.12855 0.04037 0.73477
 C64 C 0.13949 0.06041 0.73703
 C65 C 0.15339 0.04779 0.77091
 C66 C 0.11927 -0.04663 0.74467
 C67 C 0.13069 -0.06646 0.74271
 C68 C 0.16464 -0.04658 0.74648
 C69 C 0.15252 -0.02705 0.74836
 N70 N 0.13022 -0.02743 0.74754
 H71 H 0.14289 0.01533 0.78017
 H72 H 0.11835 0.03774 0.72098
 H73 H 0.13758 0.07287 0.72482
 H74 H 0.16298 0.05005 0.78522
 H75 H 0.10155 -0.04650 0.74383
 H76 H 0.12151 -0.08150 0.74078
 H77 H 0.18237 -0.04588 0.74692
 H78 H 0.16098 -0.01160 0.75021
 C79 C 0.06763 0.00037 0.80999
 C80 C 0.07151 -0.00534 0.68573
 C81 C 0.15373 -0.06668 0.74353
 C82 C 0.15201 0.06446 0.75538
 C83 C 0.57335 0.50080 0.22460
 H84 H 0.56536 0.50161 0.24011
 C85 C 0.56060 0.49900 0.20621
 H86 H 0.54289 0.49858 0.20780
 C87 C 0.60603 0.49918 0.20371
 H88 H 0.62378 0.49900 0.20293
 C89 C 0.59393 0.49724 0.18495
 H90 H 0.60254 0.49599 0.16973
 N91 N 0.59566 0.50092 0.22305
 C92 C 0.59560 0.48413 0.28703
 H93 H 0.60607 0.47010 0.28413
 C94 C 0.58249 0.48483 0.30556
 H95 H 0.58314 0.47128 0.31677
 C96 C 0.58284 0.51925 0.27655
 H97 H 0.58318 0.53265 0.26516
 C98 C 0.56951 0.52064 0.29487
 H99 H 0.55945 0.53511 0.29733
 Zn100 Zn 0.61349 0.50109 0.24786
 N101 N 0.59542 0.50114 0.27289
 C102 C 0.64355 0.53053 0.26640
 N103 N 0.63097 0.52707 0.24886
 C104 C 0.62913 0.54273 0.23341
 C105 C 0.64012 0.56277 0.23531
 C106 C 0.65477 0.55039 0.26897
 C107 C 0.61991 0.45589 0.24391
 C108 C 0.63126 0.43607 0.24152
 C109 C 0.66533 0.45592 0.24432
 C110 C 0.65329 0.47544 0.24665
 N111 N 0.63096 0.47506 0.24649
 H112 H 0.64447 0.51800 0.27866
 H113 H 0.61862 0.54000 0.21987
 H114 H 0.63794 0.57515 0.22306
 H115 H 0.66466 0.55276 0.28306
 H116 H 0.60216 0.45603 0.24358
 H117 H 0.62201 0.42103 0.23980
 H118 H 0.68308 0.45661 0.24421
 H119 H 0.66181 0.49088 0.24826
 C120 C 0.56920 0.50328 0.30971
 C121 C 0.57088 0.49699 0.18605
 C122 C 0.65432 0.43584 0.24161
 C123 C 0.65303 0.56695 0.25337
 C124 C 0.92809 0.49808 0.77634
 H125 H 0.93648 0.49931 0.76105
 C126 C 0.94035 0.49602 0.79506
 H127 H 0.95801 0.49546 0.79340
 C128 C 0.89494 0.49553 0.79623
 H129 H 0.87719 0.49526 0.79652
 C130 C 0.90648 0.49327 0.81530
 H131 H 0.89699 0.49221 0.83000
 N132 N 0.90579 0.49786 0.77724
 C133 C 0.90638 0.48182 0.71284
 H134 H 0.89584 0.46787 0.71570
 C135 C 0.91919 0.48266 0.69413
 H136 H 0.91827 0.46927 0.68279
 C137 C 0.91947 0.51667 0.72348
 H138 H 0.91932 0.52996 0.73496
 C139 C 0.93249 0.51822 0.70493
 H140 H 0.94252 0.53266 0.70239
 Zn141 Zn 0.88846 0.49836 0.75205
 N142 N 0.90680 0.49864 0.72713
 C143 C 0.85844 0.52791 0.73334
 N144 N 0.87074 0.52428 0.75105
 C145 C 0.87194 0.53963 0.76681
 C146 C 0.86051 0.55950 0.76508
 C147 C 0.84679 0.54760 0.73094
 C148 C 0.88215 0.45309 0.75555
 C149 C 0.87085 0.43322 0.75732
 C150 C 0.83678 0.45309 0.75376
 C151 C 0.84878 0.47266 0.75208
 N152 N 0.87109 0.47230 0.75287
 H153 H 0.85800 0.51563 0.72085
 H154 H 0.88221 0.53677 0.78051
 H155 H 0.86215 0.57163 0.77761
 H156 H 0.83709 0.55008 0.71672
 H157 H 0.89987 0.45325 0.75638
 H158 H 0.88012 0.41817 0.75910
 H159 H 0.81904 0.45376 0.75334
 H160 H 0.84022 0.48811 0.75039
 C161 C 0.93244 0.50107 0.68990
 C162 C 0.92970 0.49330 0.81515
 C163 C 0.84782 0.43297 0.75650
 C164 C 0.84781 0.56382 0.74689
 C165 C 0.22083 0.39444 0.98616
 H166 H 0.23311 0.39538 0.97353
 C167 C 0.20089 0.40562 0.98399
 H168 H 0.19808 0.41514 0.96964
 C169 C 0.20921 0.37970 1.01951
 H170 H 0.21228 0.36917 1.03309
 C171 C 0.18902 0.39059 1.01798
 H172 H 0.17701 0.38871 1.03077
 N173 N 0.22461 0.38170 1.00366
 C174 C 0.29583 0.37027 1.00451
 H175 H 0.29559 0.35251 1.00497
 C176 C 0.31581 0.38137 1.00566
 H177 H 0.33080 0.37195 1.00708
 C178 C 0.27635 0.40389 1.00311
 H179 H 0.26090 0.41259 1.00243
 C180 C 0.29605 0.41571 1.00425
 H181 H 0.29552 0.43347 1.00399
 Zn182 Zn 0.25061 0.36415 1.00354
 N183 N 0.27662 0.38154 1.00316
 C184 C 0.26495 0.34776 0.96298
 N185 N 0.24930 0.34628 0.97864
 C186 C 0.23138 0.33326 0.97622
 C187 C 0.22862 0.32113 0.95744
 C188 C 0.26282 0.33595 0.94395
 C189 C 0.25464 0.35711 1.04755
 C190 C 0.25848 0.34535 1.06636
 C191 C 0.25721 0.31173 1.04598
 C192 C 0.25346 0.32416 1.02750
 N193 N 0.25229 0.34645 1.02860
 H194 H 0.27887 0.35848 0.96498
 H195 H 0.21898 0.33267 0.98875
 H196 H 0.21398 0.31130 0.95563
 H197 H 0.27545 0.33741 0.93168
 H198 H 0.25399 0.37485 1.04794
 H199 H 0.26024 0.35420 1.08126
 H200 H 0.25855 0.29405 1.04471
 H201 H 0.25215 0.31599 1.01223
 C202 C 0.31618 0.40444 1.00556
 C203 C 0.18448 0.40358 0.99991
 C204 C 0.26005 0.32233 1.06573
 C205 C 0.24433 0.32260 0.94085
 C206 C 0.77893 0.10355 0.98175
 H207 H 0.76694 0.10278 0.96915
 C208 C 0.79845 0.09150 0.97992
 H209 H 0.80042 0.08097 0.96612
 C210 C 0.78995 0.11810 1.01497
 H211 H 0.78696 0.12906 1.02828
 C212 C 0.80965 0.10630 1.01388
 H213 H 0.82131 0.10899 1.02650
 N214 N 0.77506 0.11659 0.99903
 C215 C 0.70410 0.12959 1.00052
 H216 H 0.70445 0.14734 1.00028
 C217 C 0.68404 0.11862 1.00239
 H218 H 0.66902 0.12814 1.00312
 C219 C 0.72339 0.09582 0.99989
 H220 H 0.73879 0.08700 0.99938
 C221 C 0.70364 0.08417 1.00175
 H222 H 0.70415 0.06642 1.00260
 Zn223 Zn 0.74968 0.13492 0.99886
 N224 N 0.72327 0.11815 0.99926
 C225 C 0.73627 0.15112 0.95822
 N226 N 0.75182 0.15230 0.97362
 C227 C 0.77022 0.16463 0.97070
 C228 C 0.77357 0.17639 0.95168
 C229 C 0.73900 0.16254 0.93895
 C230 C 0.74549 0.14258 1.04273
 C231 C 0.74301 0.15464 1.06160
 C232 C 0.74694 0.18800 1.04098
 C233 C 0.74925 0.17527 1.02243
 N234 N 0.74857 0.15297 1.02365
 H235 H 0.72197 0.14093 0.96063
 H236 H 0.78254 0.16496 0.98303
 H237 H 0.78855 0.18569 0.94948
 H238 H 0.72645 0.16133 0.92688
 H239 H 0.74473 0.12485 1.04322
 H240 H 0.74076 0.14600 1.07663
 H241 H 0.74724 0.20573 1.03969
 H242 H 0.75118 0.18327 1.00708
 C243 C 0.68357 0.09557 1.00315
 C244 C 0.81453 0.09278 0.99602
 C245 C 0.74360 0.17769 1.06090
 C246 C 0.75797 0.17521 0.93536
 C247 C 0.27757 0.60490 0.48241
 H248 H 0.26543 0.60418 0.46994
 C249 C 0.29737 0.59343 0.48001
 H250 H 0.30025 0.58389 0.46562
 C251 C 0.28899 0.61935 0.51564
 H252 H 0.28593 0.62988 0.52926
 C253 C 0.30903 0.60819 0.51386
 H254 H 0.32091 0.60987 0.52650
 N255 N 0.27377 0.61763 0.49997
 C256 C 0.20260 0.62962 0.50199
 H257 H 0.20276 0.64738 0.50219
 C258 C 0.18265 0.61841 0.50356
 H259 H 0.16754 0.62775 0.50451
 C260 C 0.22224 0.59608 0.50052
 H261 H 0.23773 0.58744 0.49979
 C262 C 0.20261 0.58418 0.50205
 H263 H 0.20329 0.56643 0.50243
 Zn264 Zn 0.24808 0.63555 0.50039
 N265 N 0.22189 0.61842 0.50045
 C266 C 0.23436 0.65250 0.46013
 N267 N 0.24988 0.65358 0.47555
 C268 C 0.26811 0.66622 0.47289
 C269 C 0.27133 0.67836 0.45408
 C270 C 0.23696 0.66431 0.44106
 C271 C 0.24418 0.64213 0.54449
 C272 C 0.24157 0.65372 0.56363
 C273 C 0.24443 0.68759 0.54366
 C274 C 0.24690 0.67532 0.52484
 N275 N 0.24681 0.65299 0.52560
 H276 H 0.22019 0.64207 0.46232
 H277 H 0.28041 0.66647 0.48523
 H278 H 0.28620 0.68788 0.45206
 H279 H 0.22445 0.66315 0.42895
 H280 H 0.24388 0.62437 0.54462
 H281 H 0.23970 0.64470 0.57850
 H282 H 0.24425 0.70534 0.54272
 H283 H 0.24847 0.68369 0.50964
 C284 C 0.18241 0.59534 0.50371
 C285 C 0.31359 0.59522 0.49572
 C286 C 0.24156 0.67679 0.56340
 C287 C 0.25578 0.67726 0.43771
 C288 C 0.72152 0.89658 0.48367
 H289 H 0.73384 0.89756 0.47108
 C290 C 0.70173 0.90806 0.48165
 H291 H 0.69906 0.91786 0.46743
 C292 C 0.70965 0.88148 0.51678
 H293 H 0.71255 0.87070 0.53021
 C294 C 0.68961 0.89265 0.51539
 H295 H 0.67755 0.89073 0.52813
 N296 N 0.72510 0.88351 0.50098
 C297 C 0.79613 0.87095 0.50220
 H298 H 0.79559 0.85320 0.50251
 C299 C 0.81627 0.88172 0.50362
 H300 H 0.83109 0.87204 0.50510
 C301 C 0.77721 0.90490 0.50089
 H302 H 0.76191 0.91385 0.50014
 C303 C 0.79708 0.91638 0.50230
 H304 H 0.79683 0.93415 0.50215
 Zn305 Zn 0.75083 0.86558 0.50075
 N306 N 0.77711 0.88255 0.50076
 C307 C 0.76532 0.84934 0.46019
 N308 N 0.74944 0.84806 0.47563
 C309 C 0.73131 0.83540 0.47290
 C310 C 0.72858 0.82343 0.45402
 C311 C 0.76324 0.83768 0.44106
 C312 C 0.75460 0.85789 0.54466
 C313 C 0.75808 0.84582 0.56334
 C314 C 0.75603 0.81249 0.54259
 C315 C 0.75267 0.82523 0.52424
 N316 N 0.75205 0.84753 0.52558
 H317 H 0.77942 0.85977 0.46244
 H318 H 0.71874 0.83495 0.48528
 H319 H 0.71380 0.81388 0.45197
 H320 H 0.77607 0.83897 0.42898
 H321 H 0.75438 0.87564 0.54524
 H322 H 0.76003 0.85444 0.57835
 H323 H 0.75693 0.79480 0.54114
 H324 H 0.75120 0.81728 0.50887
 C325 C 0.81702 0.90477 0.50369
 C326 C 0.68527 0.90598 0.49750
 C327 C 0.75908 0.82279 0.56245
 C328 C 0.74456 0.82468 0.43766
 C329 C 0.01926 0.27876 0.39037
 H330 H 0.03376 0.26876 0.38785
 C331 C 0.02029 0.29749 0.40305
 H332 H 0.03562 0.30184 0.41051
 C333 C -0.01846 0.28518 0.38366
 H334 H -0.03341 0.28054 0.37577
 C335 C -0.01819 0.30400 0.39620
 H336 H -0.03298 0.31378 0.39782
 N337 N 0.00002 0.27288 0.38125
 C338 C 0.00142 0.20307 0.37168
 H339 H -0.00282 0.20244 0.35491
 C340 C 0.00355 0.18376 0.38331
 H341 H 0.00029 0.16849 0.37514
 C342 C 0.00876 0.22432 0.40249
 H343 H 0.01052 0.24018 0.40993
 C344 C 0.01093 0.20541 0.41484
 H345 H 0.01523 0.20732 0.43148
 Zn346 Zn -0.00023 0.24761 0.36442
 N347 N 0.00428 0.22276 0.38132
 C348 C 0.03680 0.23390 0.34099
 N349 N 0.02188 0.25029 0.34364
 C350 C 0.02352 0.26952 0.33265
 C351 C 0.04114 0.27305 0.31863
 C352 C 0.05439 0.23658 0.32693
 C353 C -0.04443 0.23893 0.36508
 C354 C -0.06534 0.23616 0.35694
 C355 C -0.05070 0.24371 0.32145
 C356 C -0.03002 0.24631 0.33030
 N357 N -0.02745 0.24424 0.35178
 H358 H 0.03554 0.21899 0.35023
 H359 H 0.01150 0.28235 0.33536
 H360 H 0.04276 0.28864 0.31041
 H361 H 0.06656 0.22366 0.32555
 H362 H -0.04165 0.23705 0.38207
 H363 H -0.07877 0.23204 0.36772
 H364 H -0.05273 0.24602 0.30439
 H365 H -0.01613 0.25020 0.32008
 C366 C 0.00832 0.18459 0.40535
 C367 C 0.00134 0.31026 0.40613
 C368 C -0.06865 0.23879 0.33491
 C369 C 0.05687 0.25646 0.31587
 C370 C 0.02371 0.72148 0.10606
 H371 H 0.03782 0.73165 0.10930
 C372 C 0.02562 0.70387 0.09195
 H373 H 0.04126 0.70052 0.08420
 C374 C -0.01393 0.71350 0.11229
 H375 H -0.02920 0.71708 0.12050
 C376 C -0.01278 0.69580 0.09830
 H377 H -0.02722 0.68578 0.09597
 N378 N 0.00409 0.72608 0.11563
 C379 C 0.00162 0.79528 0.12928
 H380 H -0.00288 0.79485 0.14609
 C381 C 0.00291 0.81526 0.11854
 H382 H -0.00076 0.83028 0.12713
 C383 C 0.01089 0.77602 0.09741
 H384 H 0.01362 0.76069 0.08916
 C385 C 0.01236 0.79562 0.08604
 H386 H 0.01661 0.79524 0.06915
 Zn387 Zn 0.00250 0.75014 0.13412
 N388 N 0.00578 0.77625 0.11866
 C389 C 0.03883 0.76417 0.15740
 N390 N 0.02479 0.74724 0.15419
 C391 C 0.02747 0.72751 0.16405
 C392 C 0.04525 0.72408 0.17751
 C393 C 0.05657 0.76157 0.17091
 C394 C -0.04213 0.75680 0.13509
 C395 C -0.06312 0.75845 0.14386
 C396 C -0.04815 0.74936 0.17845
 C397 C -0.02743 0.74789 0.16889
 N398 N -0.02493 0.75134 0.14757
 H399 H 0.03674 0.77952 0.14906
 H400 H 0.01614 0.71428 0.16092
 H401 H 0.04764 0.70818 0.18489
 H402 H 0.06801 0.77500 0.17278
 H403 H -0.03942 0.76006 0.11822
 H404 H -0.07589 0.76386 0.13324
 H405 H -0.04927 0.74521 0.19525
 H406 H -0.01339 0.74376 0.17851
 C407 C 0.00829 0.81552 0.09664
 C408 C 0.00714 0.69091 0.08788
 C409 C -0.06678 0.75456 0.16600
 C410 C 0.06008 0.74126 0.18087
 C411 C 0.52181 0.22441 0.60701
 H412 H 0.53586 0.23494 0.60930
 C413 C 0.52347 0.20623 0.59359
 H414 H 0.53884 0.20283 0.58535
 C415 C 0.48461 0.21601 0.61511
 H416 H 0.46965 0.21962 0.62383
 C417 C 0.48552 0.19773 0.60183
 H418 H 0.47119 0.18735 0.60051
 N419 N 0.50252 0.22904 0.61720
 C420 C 0.50062 0.29858 0.62948
 H421 H 0.49697 0.29849 0.64648
 C422 C 0.50160 0.31835 0.61835
 H423 H 0.49855 0.33357 0.62684
 C424 C 0.50810 0.27865 0.59758
 H425 H 0.51025 0.26313 0.58951
 C426 C 0.50921 0.29803 0.58581
 H427 H 0.51264 0.29731 0.56877
 Zn428 Zn 0.50143 0.25357 0.63513
 N429 N 0.50407 0.27932 0.61903
 C430 C 0.53899 0.26783 0.65645
 N431 N 0.52443 0.25113 0.65446
 C432 C 0.52711 0.23172 0.66489
 C433 C 0.54536 0.22839 0.67774
 C434 C 0.55726 0.26531 0.66929
 C435 C 0.45680 0.25976 0.63721
 C436 C 0.43597 0.26066 0.64645
 C437 C 0.45200 0.25221 0.68078
 C438 C 0.47258 0.25148 0.67085
 N439 N 0.47445 0.25486 0.64940
 H440 H 0.53688 0.28289 0.64761
 H441 H 0.51537 0.21864 0.66269
 H442 H 0.54767 0.21272 0.68562
 H443 H 0.56909 0.27852 0.67018
 H444 H 0.45897 0.26272 0.62023
 H445 H 0.42202 0.26449 0.63652
 H446 H 0.45057 0.24891 0.69779
 H447 H 0.48696 0.24797 0.68021
 C448 C 0.50593 0.31816 0.59624
 C449 C 0.50510 0.19274 0.59084
 C450 C 0.43340 0.25660 0.66844
 C451 C 0.56074 0.24530 0.67984
 C452 C 0.52240 0.77803 0.89188
 H453 H 0.53686 0.76804 0.88916
 C454 C 0.52351 0.79656 0.90483
 H455 H 0.53889 0.80076 0.91230
 C456 C 0.48469 0.78469 0.88532
 H457 H 0.46972 0.78023 0.87739
 C458 C 0.48505 0.80332 0.89815
 H459 H 0.47030 0.81313 0.89992
 N460 N 0.50313 0.77238 0.88267
 C461 C 0.50342 0.70270 0.87168
 H462 H 0.49898 0.70244 0.85496
 C463 C 0.50550 0.68315 0.88296
 H464 H 0.50246 0.66774 0.87489
 C465 C 0.51182 0.72329 0.90276
 H466 H 0.51393 0.73897 0.91046
 C467 C 0.51403 0.70410 0.91468
 H468 H 0.51818 0.70514 0.93146
 Zn469 Zn 0.50285 0.74751 0.86523
 N470 N 0.50683 0.72219 0.88163
 C471 C 0.53991 0.73364 0.84201
 N472 N 0.52543 0.75036 0.84496
 C473 C 0.52797 0.77000 0.83485
 C474 C 0.54615 0.77360 0.82153
 C475 C 0.55803 0.73639 0.82862
 C476 C 0.45855 0.73922 0.86476
 C477 C 0.43779 0.73688 0.85613
 C478 C 0.45315 0.74564 0.82120
 C479 C 0.47367 0.74779 0.83054
 N480 N 0.47582 0.74487 0.85198
 H481 H 0.53790 0.71836 0.85053
 H482 H 0.51628 0.78307 0.83777
 H483 H 0.54849 0.78949 0.81404
 H484 H 0.56984 0.72316 0.82702
 H485 H 0.46097 0.73667 0.88172
 H486 H 0.42415 0.73241 0.86651
 H487 H 0.45147 0.74856 0.80419
 H488 H 0.48779 0.75196 0.82072
 C489 C 0.51087 0.68376 0.90471
 C490 C 0.50462 0.80938 0.90810
 C491 C 0.43492 0.74032 0.83414
 C492 C 0.56148 0.75667 0.81854
 C493 C -0.23465 0.67000 0.97105
 H494 H -0.22178 0.67190 0.98270
 C495 C -0.23490 0.68340 0.95279
 H496 H -0.22223 0.69566 0.95062
 C497 C -0.26683 0.65186 0.95986
 H498 H -0.27909 0.63933 0.96234
 C499 C -0.26770 0.66483 0.94145
 H500 H -0.28060 0.66194 0.93002
 N501 N -0.25071 0.65485 0.97446
 C502 C -0.25562 0.64509 1.04382
 H503 H -0.25669 0.62736 1.04423
 C504 C -0.25534 0.65692 1.06294
 H505 H -0.25716 0.64778 1.07770
 C506 C -0.25297 0.67783 1.02363
 H507 H -0.25189 0.68596 1.00828
 C508 C -0.25276 0.69040 1.04239
 H509 H -0.25090 0.70795 1.04070
 Zn510 Zn -0.25081 0.63738 0.99992
 N511 N -0.25371 0.65554 1.02467
 C512 C -0.20989 0.62609 1.01819
 N513 N -0.22347 0.62168 1.00156
 C514 C -0.21723 0.60731 0.98594
 C515 C -0.19693 0.59643 0.98699
 C516 C -0.18958 0.61561 1.01987
 C517 C -0.29566 0.62833 1.00118
 C518 C -0.31503 0.61634 0.99904
 C519 C -0.29332 0.58352 0.99423
 C520 C -0.27427 0.59620 0.99643
 N521 N -0.27576 0.61830 0.99940
 H522 H -0.21451 0.63812 1.03008
 H523 H -0.22797 0.60435 0.97259
 H524 H -0.19244 0.58487 0.97453
 H525 H -0.17905 0.61975 1.03310
 H526 H -0.29646 0.64588 1.00372
 H527 H -0.33062 0.62481 1.00040
 H528 H -0.29176 0.56609 0.99123
 H529 H -0.25836 0.58841 0.99526
 C530 C -0.25328 0.68004 1.06267
 C531 C -0.25174 0.68104 0.93775
 C532 C -0.31410 0.59365 0.99514
 C533 C -0.18278 0.60047 1.00420
 C534 C -0.23572 0.33136 0.52843
 H535 H -0.22222 0.32985 0.51709
 C536 C -0.23636 0.31865 0.54600
 H537 H -0.22341 0.30671 0.54804
 C538 C -0.26938 0.34898 0.53773
 H539 H -0.28214 0.36084 0.53478
 C540 C -0.27081 0.33541 0.55724
 H541 H -0.28436 0.33876 0.56808
 N542 N -0.25314 0.34663 0.52419
 C543 C -0.25841 0.35461 0.45489
 H544 H -0.25999 0.37228 0.45403
 C545 C -0.25922 0.34211 0.43619
 H546 H -0.26129 0.35036 0.42097
 C547 C -0.25321 0.32257 0.47577
 H548 H -0.25104 0.31496 0.49122
 C549 C -0.25376 0.30944 0.45742
 H550 H -0.25205 0.29181 0.45897
 Zn551 Zn -0.25293 0.36355 0.49842
 N552 N -0.25512 0.34479 0.47416
 C553 C -0.21243 0.37608 0.47927
 N554 N -0.22601 0.37969 0.49639
 C555 C -0.22005 0.39363 0.51232
 C556 C -0.19990 0.40470 0.51123
 C557 C -0.19221 0.38675 0.47755
 C558 C -0.29774 0.37195 0.49624
 C559 C -0.31743 0.38355 0.49825
 C560 C -0.29662 0.41660 0.50406
 C561 C -0.27726 0.40425 0.50199
 N562 N -0.27817 0.38223 0.49861
 H563 H -0.21704 0.36467 0.46693
 H564 H -0.23084 0.39594 0.52602
 H565 H -0.19536 0.41544 0.52423
 H566 H -0.18189 0.38370 0.46363
 H567 H -0.29806 0.35447 0.49326
 H568 H -0.33245 0.37456 0.49576
 H569 H -0.29503 0.43382 0.50783
 H570 H -0.26156 0.41221 0.50375
 C571 C -0.25667 0.31921 0.43727
 C572 C -0.25513 0.32038 0.56161
 C573 C -0.31738 0.40630 0.50269
 C574 C -0.18557 0.40124 0.49369
 C575 C 0.26400 -0.16827 0.03120
 H576 H 0.27801 -0.17017 0.02055
 C577 C 0.26262 -0.18015 0.04930
 H578 H 0.27607 -0.19105 0.05298
 C579 C 0.23051 -0.14958 0.03887
 H580 H 0.21807 -0.13764 0.03510
 C581 C 0.22819 -0.16231 0.05882
 H582 H 0.21330 -0.15970 0.06802
 N583 N 0.24708 -0.15278 0.02591
 C584 C 0.24564 -0.14561 -0.04368
 H585 H 0.24450 -0.12792 -0.04472
 C586 C 0.24665 -0.15814 -0.06235
 H587 H 0.24594 -0.14996 -0.07773
 C588 C 0.24810 -0.17766 -0.02229
 H589 H 0.24880 -0.18519 -0.00665
 C590 C 0.24902 -0.19087 -0.04061
 H591 H 0.25062 -0.20849 -0.03888
 Zn592 Zn 0.24853 -0.13636 -0.00013
 N593 N 0.24701 -0.15541 -0.02417
 C594 C 0.29012 -0.12572 -0.01786
 N595 N 0.27584 -0.12072 -0.00163
 C596 C 0.28134 -0.10579 0.01359
 C597 C 0.30164 -0.09495 0.01251
 C598 C 0.31047 -0.11535 -0.01953
 C599 C 0.20407 -0.12769 -0.00427
 C600 C 0.18431 -0.11619 -0.00256
 C601 C 0.20482 -0.08320 0.00442
 C602 C 0.22428 -0.09546 0.00262
 N603 N 0.22352 -0.11742 -0.00112
 H604 H 0.28600 -0.13803 -0.02952
 H605 H 0.27007 -0.10244 0.02670
 H606 H 0.30578 -0.08331 0.02489
 H607 H 0.32129 -0.11948 -0.03281
 H608 H 0.20388 -0.14513 -0.00748
 H609 H 0.16939 -0.12517 -0.00559
 H610 H 0.20624 -0.06606 0.00858
 H611 H 0.23988 -0.08750 0.00501
 C612 C 0.24882 -0.18105 -0.06098
 C613 C 0.24351 -0.17731 0.06436
 C614 C 0.18416 -0.09357 0.00243
 C615 C 0.31658 -0.09974 -0.00423
 C616 C 0.26497 1.15811 0.46215
 H617 H 0.27993 1.14896 0.46464
 C618 C 0.26295 1.17125 0.44389
 H619 H 0.27644 1.17199 0.43247
 C620 C 0.22888 1.16745 0.47340
 H621 H 0.21562 1.16574 0.48496
 C622 C 0.22612 1.18067 0.45531
 H623 H 0.21074 1.18928 0.45319
 N624 N 0.24808 1.15652 0.47651
 C625 C 0.24986 1.14431 0.54534
 H626 H 0.25113 1.12660 0.54547
 C627 C 0.24988 1.15591 0.56461
 H628 H 0.25124 1.14694 0.57953
 C629 C 0.24737 1.17745 0.52562
 H630 H 0.24674 1.18581 0.51037
 C631 C 0.24748 1.18973 0.54455
 H632 H 0.24646 1.20746 0.54367
 Zn633 Zn 0.24971 1.13797 0.50096
 N634 N 0.24838 1.15514 0.52636
 C635 C 0.29526 1.13516 0.50445
 N636 N 0.27708 1.12264 0.50158
 C637 C 0.27855 1.10036 0.50071
 C638 C 0.29898 1.08991 0.50254
 C639 C 0.31594 1.12542 0.50635
 C640 C 0.20917 1.11942 0.51508
 C641 C 0.19001 1.10702 0.51312
 C642 C 0.20394 1.09287 0.47952
 C643 C 0.22289 1.10554 0.48214
 N644 N 0.22518 1.11851 0.49971
 H645 H 0.29363 1.15281 0.50554
 H646 H 0.26389 1.09063 0.49882
 H647 H 0.29981 1.07219 0.50155
 H648 H 0.33005 1.13580 0.50898
 H649 H 0.21084 1.13031 0.52858
 H650 H 0.17730 1.10852 0.52529
 H651 H 0.20248 1.08267 0.46543
 H652 H 0.23562 1.10540 0.46991
 C653 C 0.24865 1.17895 0.56441
 C654 C 0.24328 1.18269 0.44022
 C655 C 0.18706 1.09361 0.49508
 C656 C 0.31808 1.10247 0.50542
 C657 C 0.14332 0.47069 0.26614
 H658 H 0.14365 0.48255 0.27901
 C659 C 0.15471 0.45083 0.26812
 H660 H 0.16377 0.44763 0.28261
 C661 C 0.12997 0.46006 0.23226
 H662 H 0.11991 0.46348 0.21851
 C663 C 0.14108 0.43997 0.23360
 H664 H 0.13984 0.42839 0.22054
 N665 N 0.13117 0.47491 0.24845
 C666 C 0.11960 0.54612 0.24800
 H667 H 0.10185 0.54601 0.24765
 C668 C 0.13088 0.56602 0.24658
 H669 H 0.12160 0.58115 0.24562
 C670 C 0.15305 0.52637 0.24950
 H671 H 0.16163 0.51084 0.25011
 C672 C 0.16503 0.54596 0.24811
 H673 H 0.18278 0.54524 0.24775
 Zn674 Zn 0.11343 0.50077 0.24852
 N675 N 0.13072 0.52680 0.24942
 C676 C 0.09483 0.51427 0.28859
 N677 N 0.09462 0.49872 0.27299
 C678 C 0.08216 0.48031 0.27513
 C679 C 0.06929 0.47696 0.29355
 C680 C 0.08212 0.51163 0.30722
 C681 C 0.10833 0.50633 0.20459
 C682 C 0.09753 0.51057 0.18543
 C683 C 0.06297 0.50740 0.20439
 C684 C 0.07454 0.50336 0.22324
 N685 N 0.09682 0.50294 0.22302
 H686 H 0.10524 0.52852 0.28689
 H687 H 0.08251 0.46804 0.26263
 H688 H 0.05953 0.46218 0.29495
 H689 H 0.08293 0.52398 0.31964
 H690 H 0.12608 0.50602 0.20485
 H691 H 0.10778 0.51219 0.17129
 H692 H 0.04534 0.50859 0.20595
 H693 H 0.06565 0.50127 0.23819
 C694 C 0.15394 0.56618 0.24642
 C695 C 0.15349 0.43498 0.25184
 C696 C 0.07427 0.51152 0.18477
 C697 C 0.06924 0.49269 0.30998
 C698 C -0.14623 1.02960 0.26928
 H699 H -0.14656 1.01763 0.28210
 C700 C -0.15842 1.04903 0.27125
 H701 H -0.16844 1.05162 0.28546
 C702 C -0.13240 1.04086 0.23542
 H703 H -0.12177 1.03796 0.22174
 C704 C -0.14437 1.06046 0.23670
 H705 H -0.14279 1.07233 0.22386
 N706 N -0.13348 1.02589 0.25159
 C707 C -0.11941 0.95506 0.24921
 H708 H -0.10168 0.95579 0.24867
 C709 C -0.12999 0.93485 0.24711
 H710 H -0.12016 0.92018 0.24496
 C711 C -0.15354 0.97359 0.25145
 H712 H -0.16266 0.98878 0.25273
 C713 C -0.16482 0.95367 0.24938
 H714 H -0.18258 0.95376 0.24961
 Zn715 Zn -0.11484 1.00064 0.25124
 N716 N -0.13121 0.97393 0.25135
 C717 C -0.09593 0.98635 0.29060
 N718 N -0.09663 1.00264 0.27570
 C719 C -0.08504 1.02151 0.27828
 C720 C -0.07200 1.02452 0.29631
 C721 C -0.08303 0.98863 0.30884
 C722 C -0.10809 0.99653 0.20719
 C723 C -0.09644 0.99381 0.18799
 C724 C -0.06272 0.99845 0.20732
 C725 C -0.07510 1.00092 0.22621
 N726 N -0.09737 0.99995 0.22581
 H727 H -0.10561 0.97168 0.28855
 H728 H -0.08606 1.03433 0.26631
 H729 H -0.06283 1.03961 0.29796
 H730 H -0.08300 0.97562 0.32067
 H731 H -0.12583 0.99568 0.20732
 H732 H -0.10585 0.99184 0.17356
 H733 H -0.04505 0.99849 0.20859
 H734 H -0.06680 1.00303 0.24126
 C735 C -0.15303 0.93390 0.24704
 C736 C -0.15748 1.06490 0.25488
 C737 C -0.07324 0.99451 0.18763
 C738 C -0.07087 1.00795 0.31193
 C739 C 0.35401 0.52696 -0.22966
 H740 H 0.35342 0.51483 -0.21700
 C741 C 0.34209 0.54655 -0.22753
 H742 H 0.33202 0.54911 -0.21334
 C743 C 0.36822 0.53848 -0.26329
 H744 H 0.37893 0.53566 -0.27692
 C745 C 0.35655 0.55822 -0.26184
 H746 H 0.35841 0.57024 -0.27452
 N747 N 0.36679 0.52327 -0.24734
 C748 C 0.38066 0.45118 -0.25041
 H749 H 0.39840 0.45183 -0.25116
 C750 C 0.37037 0.43191 -0.25249
 H751 H 0.38037 0.41753 -0.25536
 C752 C 0.34707 0.47104 -0.24775
 H753 H 0.33807 0.48630 -0.24657
 C754 C 0.33494 0.45008 -0.24979
 H755 H 0.31726 0.45093 -0.24860
 Zn756 Zn 0.38507 0.49774 -0.24809
 N757 N 0.36842 0.47121 -0.24796
 C758 C 0.40425 0.48298 -0.20903
 N759 N 0.40363 0.49932 -0.22388
 C760 C 0.41556 0.51799 -0.22143
 C761 C 0.42888 0.52073 -0.20357
 C762 C 0.41741 0.48502 -0.19094
 C763 C 0.39119 0.49509 -0.29238
 C764 C 0.40258 0.49381 -0.31187
 C765 C 0.43664 0.49632 -0.29267
 C766 C 0.42456 0.49763 -0.27349
 N767 N 0.40223 0.49722 -0.27371
 H768 H 0.39430 0.46848 -0.21100
 H769 H 0.41461 0.53083 -0.23337
 H770 H 0.43834 0.53567 -0.20202
 H771 H 0.41735 0.47200 -0.17912
 H772 H 0.37345 0.49432 -0.29208
 H773 H 0.39342 0.49198 -0.32651
 H774 H 0.45438 0.49698 -0.29223
 H775 H 0.43308 0.49881 -0.25847
 C776 C 0.34585 0.43080 -0.25221
 C777 C 0.34334 0.56260 -0.24371
 C778 C 0.42563 0.49450 -0.31223
 C779 C 0.42991 0.50414 -0.18797
 C780 C 0.64700 -0.03074 -0.23337
 H781 H 0.64786 -0.01869 -0.22069
 C782 C 0.65786 -0.04981 -0.23160
 H783 H 0.66694 -0.05268 -0.21711
 C784 C 0.63180 -0.04076 -0.26688
 H785 H 0.62101 -0.03765 -0.28015
 C786 C 0.64362 -0.06196 -0.26575
 H787 H 0.64208 -0.07283 -0.27929
 N788 N 0.63350 -0.02639 -0.25160
 C789 C 0.62099 0.04463 -0.25197
 H790 H 0.60324 0.04424 -0.25171
 C791 C 0.63188 0.06470 -0.25388
 H792 H 0.62190 0.07938 -0.25407
 C793 C 0.65471 0.02547 -0.25126
 H794 H 0.66353 0.01006 -0.25086
 C795 C 0.66636 0.04522 -0.25312
 H796 H 0.68403 0.04419 -0.25439
 Zn797 Zn 0.61546 -0.00074 -0.25106
 N798 N 0.63242 0.02552 -0.25073
 C799 C 0.59766 0.01274 -0.21062
 N800 N 0.59734 -0.00292 -0.22613
 C801 C 0.58505 -0.02141 -0.22369
 C802 C 0.57241 -0.02471 -0.20512
 C803 C 0.58518 0.01015 -0.19185
 C804 C 0.60897 0.00439 -0.29491
 C805 C 0.59747 0.00843 -0.31372
 C806 C 0.56354 0.00565 -0.29352
 C807 C 0.57573 0.00172 -0.27503
 N808 N 0.59805 0.00120 -0.27605
 H809 H 0.60791 0.02706 -0.21258
 H810 H 0.58529 -0.03375 -0.23614
 H811 H 0.56273 -0.03952 -0.20353
 H812 H 0.58601 0.02261 -0.17954
 H813 H 0.62673 0.00423 -0.29523
 H814 H 0.60654 0.01085 -0.32855
 H815 H 0.54581 0.00646 -0.29233
 H816 H 0.56734 -0.00029 -0.25981
 C817 C 0.65506 0.06550 -0.25474
 C818 C 0.65612 -0.06698 -0.24861
 C819 C 0.57443 0.00936 -0.31317
 C820 C 0.57241 -0.00883 -0.18883
 C821 C 0.02737 0.27255 0.86162
 H822 H 0.01696 0.28694 0.86226
 C823 C 0.04719 0.27313 0.85027
 H824 H 0.05195 0.28800 0.84191
 C825 C 0.03370 0.23550 0.87164
 H826 H 0.02859 0.22101 0.88031
 C827 C 0.05359 0.23535 0.86051
 H828 H 0.06364 0.22067 0.86069
 N829 N 0.02092 0.25380 0.87166
 C830 C -0.04946 0.25456 0.87611
 H831 H -0.05141 0.25185 0.89316
 C832 C -0.06765 0.25416 0.86296
 H833 H -0.08377 0.25155 0.86999
 C834 C -0.02583 0.26049 0.84614
 H835 H -0.00943 0.26219 0.83964
 C836 C -0.04364 0.26028 0.83236
 H837 H -0.04088 0.26200 0.81527
 Zn838 Zn -0.00593 0.25376 0.88639
 N839 N -0.02910 0.25754 0.86753
 C840 C -0.02125 0.29182 0.90676
 N841 N -0.00539 0.27615 0.90664
 C842 C 0.01205 0.27710 0.91997
 C843 C 0.01421 0.29468 0.93402
 C844 C -0.01986 0.30953 0.92064
 C845 C -0.01409 0.20963 0.88584
 C846 C -0.01711 0.18859 0.89385
 C847 C -0.01333 0.20305 0.92972
 C848 C -0.01045 0.22391 0.92098
 N849 N -0.01040 0.22661 0.89938
 H850 H -0.03465 0.29103 0.89565
 H851 H 0.02455 0.26448 0.91922
 H852 H 0.02839 0.29559 0.94427
 H853 H -0.03222 0.32231 0.92002
 H854 H -0.01432 0.21249 0.86873
 H855 H -0.01979 0.17516 0.88285
 H856 H -0.01252 0.20089 0.94691
 H857 H -0.00792 0.23779 0.93139
 C858 C -0.06474 0.25665 0.84079
 C859 C 0.06040 0.25426 0.84950
 C860 C -0.01634 0.18508 0.91602
 C861 C -0.00180 0.31123 0.93423
 C862 C 0.47168 0.26438 0.14949
 H863 H 0.48291 0.27809 0.14848
 C864 C 0.45396 0.26506 0.16371
 H865 H 0.45164 0.27931 0.17384
 C866 C 0.46103 0.22915 0.13725
 H867 H 0.46361 0.21545 0.12656
 C868 C 0.44305 0.22915 0.15121
 H869 H 0.43181 0.21541 0.15110
 N870 N 0.47491 0.24657 0.13677
 C871 C 0.54359 0.24852 0.12029
 H872 H 0.54255 0.24801 0.10301
 C873 C 0.56394 0.24944 0.13003
 H874 H 0.57869 0.24984 0.12018
 C875 C 0.52543 0.24893 0.15415
 H876 H 0.51040 0.24833 0.16344
 C877 C 0.54545 0.24986 0.16457
 H878 H 0.54570 0.25000 0.18191
 Zn879 Zn 0.49857 0.24781 0.11762
 N880 N 0.52493 0.24869 0.13240
 C881 C 0.51009 0.28980 0.10400
 N882 N 0.49529 0.27339 0.10150
 C883 C 0.47702 0.27608 0.08947
 C884 C 0.47313 0.29606 0.07924
 C885 C 0.50678 0.30998 0.09425
 C886 C 0.50433 0.20397 0.11126
 C887 C 0.50681 0.18440 0.10016
 C888 C 0.50017 0.20405 0.06712
 C889 C 0.49790 0.22336 0.07892
 N890 N 0.49980 0.22282 0.10058
 H891 H 0.52410 0.28760 0.11417
 H892 H 0.46525 0.26288 0.08829
 H893 H 0.45840 0.29826 0.06994
 H894 H 0.51865 0.32296 0.09650
 H895 H 0.50607 0.20424 0.12848
 H896 H 0.51004 0.16943 0.10896
 H897 H 0.49870 0.20454 0.04986
 H898 H 0.49491 0.23870 0.07077
 C899 C 0.56496 0.25029 0.15242
 C900 C 0.43934 0.24733 0.16457
 C901 C 0.50475 0.18433 0.07783
 C902 C 0.48800 0.31333 0.08196
 C903 C -0.02777 0.76504 0.64392
 H904 H -0.01758 0.77956 0.64332
 C905 C -0.04610 0.76486 0.65578
 H906 H -0.05064 0.77972 0.66421
 C907 C -0.03384 0.72870 0.63111
 H908 H -0.02928 0.71489 0.62120
 C909 C -0.05413 0.72766 0.64398
 H910 H -0.06307 0.71235 0.64390
 N911 N -0.02167 0.74617 0.63150
 C912 C 0.04811 0.74877 0.62121
 H913 H 0.04870 0.74731 0.60395
 C914 C 0.06744 0.74913 0.63276
 H915 H 0.08303 0.74825 0.62429
 C916 C 0.02689 0.75160 0.65324
 H917 H 0.01103 0.75209 0.66112
 C918 C 0.04584 0.75204 0.66544
 H919 H 0.04447 0.75290 0.68273
 Zn920 Zn 0.00364 0.74823 0.61454
 N921 N 0.02843 0.75018 0.63155
 C922 C 0.01684 0.78869 0.59759
 N923 N 0.00096 0.77310 0.59741
 C924 C -0.01766 0.77562 0.58587
 C925 C -0.02080 0.79452 0.57370
 C926 C 0.01451 0.80767 0.58551
 C927 C 0.01213 0.70449 0.60858
 C928 C 0.01498 0.68494 0.59752
 C929 C 0.00821 0.70443 0.56442
 C930 C 0.00557 0.72369 0.57615
 N931 N 0.00715 0.72320 0.59784
 H932 H 0.03119 0.78667 0.60735
 H933 H -0.03014 0.76301 0.58638
 H934 H -0.03570 0.79652 0.56462
 H935 H 0.02714 0.82013 0.58604
 H936 H 0.01355 0.70480 0.62584
 H937 H 0.01819 0.67000 0.60639
 H938 H 0.00664 0.70484 0.54716
 H939 H 0.00212 0.73892 0.56798
 C940 C 0.06637 0.75071 0.65514
 C941 C -0.06045 0.74503 0.65603
 C942 C 0.01277 0.68476 0.57520
 C943 C -0.00451 0.81072 0.57346
 C944 C 0.52824 0.77444 0.35858
 H945 H 0.51793 0.78890 0.35941
 C946 C 0.54795 0.77497 0.34707
 H947 H 0.55273 0.78987 0.33877
 C948 C 0.53444 0.73730 0.36837
 H949 H 0.52930 0.72280 0.37700
 C950 C 0.55422 0.73709 0.35705
 H951 H 0.56420 0.72236 0.35707
 N952 N 0.52180 0.75570 0.36863
 C953 C 0.45144 0.75824 0.37413
 H954 H 0.44961 0.75532 0.39115
 C955 C 0.43301 0.75997 0.36140
 H956 H 0.41687 0.75824 0.36866
 C957 C 0.47489 0.76296 0.34383
 H958 H 0.49125 0.76367 0.33706
 C959 C 0.45685 0.76463 0.33043
 H960 H 0.45939 0.76696 0.31338
 Zn961 Zn 0.49523 0.75607 0.38382
 N962 N 0.47180 0.76001 0.36525
 C963 C 0.48070 0.79480 0.40358
 N964 N 0.49640 0.77895 0.40362
 C965 C 0.51413 0.78017 0.41658
 C966 C 0.51672 0.79816 0.43007
 C967 C 0.48249 0.81286 0.41695
 C968 C 0.48661 0.71198 0.38423
 C969 C 0.48384 0.69107 0.39269
 C970 C 0.48882 0.70615 0.42815
 C971 C 0.49142 0.72686 0.41897
 N972 N 0.49077 0.72919 0.39735
 H973 H 0.46712 0.79390 0.39271
 H974 H 0.52653 0.76745 0.41594
 H975 H 0.53110 0.79929 0.44002
 H976 H 0.47019 0.82570 0.41624
 H977 H 0.48585 0.71454 0.36710
 H978 H 0.48079 0.67746 0.38200
 H979 H 0.49020 0.70430 0.44533
 H980 H 0.49437 0.74091 0.42905
 C981 C 0.43566 0.76316 0.33928
 C982 C 0.56108 0.75605 0.34613
 C983 C 0.48535 0.68794 0.41486
 C984 C 0.50080 0.81480 0.43016
 Zr985 Zr 0.01775 -0.01663 1.02911
 O986 O 0.03907 -0.00304 1.05208
 O987 O 0.01583 -0.04936 1.03906
 O988 O 0.00340 -0.01710 1.06023
 O989 O 0.05797 -0.02394 0.98987
 O990 O -0.03047 -0.00185 1.05542
 O991 O 0.05023 -0.02875 1.02549
 O992 O -0.00867 -0.06454 1.01597
 O993 O -0.01534 -0.02409 1.02405
 O994 O 0.01637 -0.03303 0.99974
 O995 O 0.00114 0.01368 1.02945
 O996 O 0.03203 0.00490 1.00637
 Zr997 Zr -0.02054 0.01147 0.97058
 Zr998 Zr -0.03160 0.00616 1.02274
 Zr999 Zr 0.02885 -0.01128 0.97691
 Zr1000 Zr -0.01657 -0.03936 0.99421
 O1001 O 0.05584 0.00817 0.96691
 O1002 O -0.04648 -0.05148 1.00728
 O1003 O -0.00388 -0.01895 0.96990
 O1004 O -0.03446 -0.01002 0.99335
 O1005 O -0.01929 0.02812 0.99986
 O1006 O 0.01251 0.01878 0.97585
 C1007 C 0.00427 -0.06532 1.03205
 C1008 C 0.06304 -0.02999 1.00892
 C1009 C -0.01558 -0.01058 1.06706
 O1010 O -0.05995 -0.01229 1.03065
 O1011 O -0.05930 0.02221 1.01038
 O1012 O -0.05213 0.02566 0.97453
 C1013 C -0.06430 0.02840 0.99137
 O1014 O 0.03752 0.04068 1.02932
 Zr1015 Zr 0.01380 0.03421 1.00547
 O1016 O -0.01915 0.04432 0.96099
 O1017 O -0.03797 0.03463 1.04120
 O1018 O 0.00053 0.05885 1.02582
 O1019 O 0.04211 0.04843 0.99108
 O1020 O 0.00289 0.06014 0.98595
 C1021 C -0.00958 0.06080 0.96953
 O1022 O -0.04299 -0.00187 0.94852
 O1023 O 0.03669 -0.04068 0.96046
 O1024 O -0.00706 0.01011 0.93916
 O1025 O 0.02624 -0.00649 0.94369
 O1026 O -0.00293 -0.06562 0.97615
 O1027 O -0.03709 -0.04680 0.96792
 C1028 C 0.01129 0.00220 0.93207
 H1029 H 0.02489 -0.04688 0.99952
 H1030 H -0.04998 -0.01320 0.99002
 H1031 H 0.01897 0.02830 0.96458
 H1032 H 0.00253 0.02100 1.04351
 H1033 H -0.04653 -0.06760 1.00522
 H1034 H -0.06872 -0.00331 1.04086
 H1035 H -0.05229 0.03233 1.04856
 H1036 H 0.00803 0.07282 1.02221
 H1037 H -0.01118 -0.07908 0.98004
 H1038 H 0.05092 -0.03820 0.95299
 H1039 H 0.06463 -0.00088 0.95678
 H1040 H 0.04148 0.06444 0.99386
 H1041 H -0.04280 -0.06193 0.96949
 H1042 H -0.04723 0.01017 0.93867
 H1043 H 0.04343 -0.01514 1.06181
 H1044 H 0.04052 0.05664 1.02982
 Zr1045 Zr 0.51692 0.48527 0.52824
 O1046 O 0.53823 0.49826 0.55154
 O1047 O 0.51432 0.45248 0.53787
 O1048 O 0.50228 0.48481 0.55923
 O1049 O 0.55746 0.47769 0.48936
 O1050 O 0.46869 0.50058 0.55417
 O1051 O 0.54924 0.47264 0.52484
 O1052 O 0.48990 0.43788 0.51436
 O1053 O 0.48377 0.47836 0.52276
 O1054 O 0.51562 0.46917 0.49870
 O1055 O 0.50077 0.51582 0.52867
 O1056 O 0.53178 0.50680 0.50586
 Zr1057 Zr 0.47972 0.51454 0.46957
 Zr1058 Zr 0.46800 0.50887 0.52155
 Zr1059 Zr 0.52868 0.49096 0.47621
 Zr1060 Zr 0.48265 0.46341 0.49276
 O1061 O 0.55607 0.51008 0.46669
 O1062 O 0.45242 0.45163 0.50538
 O1063 O 0.49592 0.48387 0.46878
 O1064 O 0.46523 0.49303 0.49197
 O1065 O 0.48089 0.53089 0.49902
 O1066 O 0.51282 0.52128 0.47525
 C1067 C 0.50261 0.43676 0.53058
 C1068 C 0.56222 0.47136 0.50840
 C1069 C 0.48334 0.49159 0.56591
 O1070 O 0.43933 0.49074 0.52904
 O1071 O 0.44061 0.52537 0.50905
 O1072 O 0.44827 0.52910 0.47333
 C1073 C 0.43591 0.53179 0.49004
 O1074 O 0.53753 0.54226 0.52921
 Zr1075 Zr 0.51401 0.53640 0.50502
 O1076 O 0.48174 0.54748 0.46032
 O1077 O 0.46181 0.53727 0.54016
 O1078 O 0.50088 0.56105 0.52545
 O1079 O 0.54271 0.55029 0.49108
 O1080 O 0.50377 0.56271 0.48563
 C1081 C 0.49149 0.56373 0.46908
 O1082 O 0.45734 0.50182 0.44710
 O1083 O 0.53626 0.46161 0.45956
 O1084 O 0.49353 0.51326 0.43828
 O1085 O 0.52651 0.49610 0.44302
 O1086 O 0.49612 0.43714 0.47458
 O1087 O 0.46232 0.45655 0.46618
 C1088 C 0.51182 0.50512 0.43132
 H1089 H 0.52392 0.45519 0.49845
 H1090 H 0.44971 0.49011 0.48845
 H1091 H 0.51955 0.53081 0.46414
 H1092 H 0.50210 0.52300 0.54281
 H1093 H 0.45214 0.43553 0.50316
 H1094 H 0.43059 0.49973 0.53926
 H1095 H 0.44741 0.53510 0.54738
 H1096 H 0.50865 0.57493 0.52207
 H1097 H 0.48763 0.42376 0.47824
 H1098 H 0.55061 0.46394 0.45227
 H1099 H 0.56484 0.50101 0.45656
 H1100 H 0.54232 0.56627 0.49401
 H1101 H 0.45638 0.44149 0.46753
 H1102 H 0.45340 0.51403 0.43733
 H1103 H 0.54229 0.48601 0.56120
 H1104 H 0.54079 0.55816 0.52988
 Zr1105 Zr 0.48660 1.02676 0.52880
 O1106 O 0.46457 1.01806 0.55389
 O1107 O 0.49217 1.05998 0.53530
 O1108 O 0.50138 1.02828 0.55935
 O1109 O 0.44606 1.03332 0.49066
 O1110 O 0.53359 1.00948 0.55482
 O1111 O 0.45510 1.04116 0.52523
 O1112 O 0.51736 1.07033 0.50985
 O1113 O 0.52012 1.03049 0.52175
 O1114 O 0.48874 1.03993 0.49788
 O1115 O 0.50036 0.99518 0.53149
 O1116 O 0.46989 1.00449 0.50890
 Zr1117 Zr 0.52077 0.98927 0.47192
 Zr1118 Zr 0.53349 0.99884 0.52285
 Zr1119 Zr 0.47383 1.01721 0.47784
 Zr1120 Zr 0.52199 1.04245 0.49044
 O1121 O 0.44516 0.99931 0.47053
 O1122 O 0.55331 1.05288 0.50078
 O1123 O 0.50695 1.02094 0.46887
 O1124 O 0.53706 1.01162 0.49185
 O1125 O 0.51869 0.97593 0.50282
 O1126 O 0.48731 0.98572 0.47912
 C1127 C 0.50510 1.07393 0.52634
 C1128 C 0.44191 1.04158 0.50921
 C1129 C 0.51966 1.02035 0.56620
 O1130 O 0.56330 1.01561 0.52818
 O1131 O 0.55970 0.97964 0.51104
 O1132 O 0.55136 0.97318 0.47604
 C1133 C 0.56381 0.97132 0.49252
 O1134 O 0.46140 0.97221 0.53531
 Zr1135 Zr 0.48529 0.97365 0.51025
 O1136 O 0.51637 0.95566 0.46623
 O1137 O 0.53785 0.97153 0.54336
 O1138 O 0.49622 0.95013 0.53283
 O1139 O 0.45567 0.96072 0.49806
 O1140 O 0.49370 0.94481 0.49367
 C1141 C 0.50578 0.94113 0.47708
 O1142 O 0.54368 0.99779 0.44753
 O1143 O 0.46810 1.04560 0.45913
 O1144 O 0.50673 0.98912 0.44095
 O1145 O 0.47539 1.00943 0.44512
 O1146 O 0.51020 1.06796 0.47045
 O1147 O 0.54224 1.04515 0.46259
 C1148 C 0.48921 0.99836 0.43378
 H1149 H 0.48147 1.05442 0.49667
 H1150 H 0.55271 1.01306 0.48763
 H1151 H 0.47984 0.97575 0.46907
 H1152 H 0.49859 0.98935 0.54621
 H1153 H 0.55486 1.06859 0.49695
 H1154 H 0.57152 1.00688 0.53883
 H1155 H 0.55241 0.97324 0.55006
 H1156 H 0.48719 0.93676 0.53108
 H1157 H 0.51981 1.08088 0.47251
 H1158 H 0.45353 1.04374 0.45249
 H1159 H 0.43695 1.00814 0.45995
 H1160 H 0.45484 0.94511 0.50251
 H1161 H 0.54929 1.05978 0.46226
 H1162 H 0.54647 0.98439 0.43889
 H1163 H 0.46167 1.03151 0.56243
 H1164 H 0.45653 0.95684 0.53732
 Zr1165 Zr -0.01369 0.52601 1.02798
 O1166 O -0.03560 0.51903 1.05368
 O1167 O -0.00753 0.55943 1.03280
 O1168 O 0.00141 0.52876 1.05834
 O1169 O -0.05453 0.53103 0.98987
 O1170 O 0.03337 0.50941 1.05434
 O1171 O -0.04513 0.54053 1.02394
 O1172 O 0.01754 0.56816 1.00665
 O1173 O 0.01980 0.52896 1.02042
 O1174 O -0.01172 0.53755 0.99644
 O1175 O -0.00027 0.49444 1.03207
 O1176 O -0.03085 0.50293 1.00936
 Zr1177 Zr 0.01944 0.48521 0.97269
 Zr1178 Zr 0.03281 0.49725 1.02293
 Zr1179 Zr -0.02707 0.51398 0.97767
 Zr1180 Zr 0.02148 0.53929 0.98853
 O1181 O -0.05606 0.49609 0.97154
 O1182 O 0.05307 0.54987 0.99792
 O1183 O 0.00598 0.51685 0.96820
 O1184 O 0.03620 0.50838 0.99132
 O1185 O 0.01753 0.47350 1.00422
 O1186 O -0.01398 0.48245 0.98040
 C1187 C 0.00554 0.57273 1.02310
 C1188 C -0.05846 0.54024 1.00801
 C1189 C 0.01967 0.52093 1.06536
 O1190 O 0.06282 0.51401 1.02718
 O1191 O 0.05874 0.47726 1.01181
 O1192 O 0.04994 0.46907 0.97727
 C1193 C 0.06258 0.46798 0.99367
 O1194 O -0.03942 0.47218 1.03745
 Zr1195 Zr -0.01583 0.47202 1.01209
 O1196 O 0.01454 0.45141 0.96879
 O1197 O 0.03712 0.47094 1.04465
 O1198 O -0.00487 0.44956 1.03566
 O1199 O -0.04577 0.45887 1.00090
 O1200 O -0.00806 0.44225 0.99686
 C1201 C 0.00381 0.43759 0.98038
 O1202 O 0.04214 0.49216 0.94765
 O1203 O -0.03263 0.54144 0.95763
 O1204 O 0.00503 0.48349 0.94194
 O1205 O -0.02598 0.50443 0.94539
 O1206 O 0.00965 0.56385 0.96748
 O1207 O 0.04144 0.54033 0.96039
 C1208 C -0.01247 0.49254 0.93450
 H1209 H -0.01883 0.55205 0.99460
 H1210 H 0.05181 0.50944 0.98687
 H1211 H -0.02170 0.47205 0.97094
 H1212 H -0.00196 0.48938 1.04707
 H1213 H 0.05478 0.56534 0.99326
 H1214 H 0.07110 0.50573 1.03812
 H1215 H 0.05178 0.47282 1.05111
 H1216 H -0.01410 0.43623 1.03470
 H1217 H 0.01937 0.57678 0.96882
 H1218 H -0.04727 0.53939 0.95118
 H1219 H -0.06425 0.50443 0.96057
 H1220 H -0.04678 0.44354 1.00616
 H1221 H 0.04847 0.55492 0.95915
 H1222 H 0.04469 0.47828 0.93968
 H1223 H -0.03819 0.53297 1.06154
 H1224 H -0.04442 0.45699 1.04032
 Zr1225 Zr -0.01692 0.47642 0.47121
 O1226 O -0.03888 0.48667 0.44712
 O1227 O -0.01232 0.44330 0.46347
 O1228 O -0.00237 0.47535 0.44018
 O1229 O -0.05736 0.46967 0.51041
 O1230 O 0.03042 0.49291 0.44425
 O1231 O -0.04871 0.46276 0.47533
 O1232 O 0.01274 0.43138 0.48783
 O1233 O 0.01651 0.47142 0.47712
 O1234 O -0.01499 0.46221 0.50166
 O1235 O -0.00230 0.50762 0.46900
 O1236 O -0.03291 0.49855 0.49226
 Zr1237 Zr 0.01855 0.51091 0.52806
 Zr1238 Zr 0.03077 0.50264 0.47650
 Zr1239 Zr -0.02917 0.48472 0.52282
 Zr1240 Zr 0.01822 0.45840 0.50800
 O1241 O -0.05740 0.50318 0.53135
 O1242 O 0.04918 0.44729 0.49649
 O1243 O 0.00387 0.47964 0.53068
 O1244 O 0.03415 0.48876 0.50700
 O1245 O 0.01669 0.52533 0.49766
 O1246 O -0.01482 0.51577 0.52199
 C1247 C 0.00031 0.42870 0.47159
 C1248 C -0.06179 0.46212 0.49174
 C1249 C 0.01610 0.48284 0.43300
 O1250 O 0.06011 0.48517 0.46987
 O1251 O 0.05747 0.52078 0.48813
 O1252 O 0.04944 0.52631 0.52356
 C1253 C 0.06183 0.52842 0.50678
 O1254 O -0.04062 0.53190 0.46704
 Zr1255 Zr -0.01666 0.52892 0.49133
 O1256 O 0.01516 0.54436 0.53493
 O1257 O 0.03577 0.53036 0.45658
 O1258 O -0.00514 0.55279 0.46914
 O1259 O -0.04583 0.54245 0.50474
 O1260 O -0.00735 0.55694 0.50858
 C1261 C 0.00497 0.55960 0.52490
 O1262 O 0.04132 0.50072 0.55143
 O1263 O -0.03548 0.45602 0.54101
 O1264 O 0.00470 0.51087 0.55937
 O1265 O -0.02728 0.49176 0.55570
 O1266 O 0.00581 0.43261 0.52750
 O1267 O 0.03852 0.45421 0.53515
 C1268 C -0.01309 0.50215 0.56685
 H1269 H -0.02261 0.44790 0.50265
 H1270 H 0.04977 0.48672 0.51072
 H1271 H -0.02197 0.52569 0.53253
 H1272 H -0.00399 0.51394 0.45450
 H1273 H 0.05029 0.43142 0.49982
 H1274 H 0.06853 0.49399 0.45926
 H1275 H 0.05026 0.52842 0.44945
 H1276 H -0.01375 0.56639 0.47159
 H1277 H 0.01503 0.41947 0.52474
 H1278 H -0.04992 0.45815 0.54819
 H1279 H -0.06575 0.49432 0.54197
 H1280 H -0.04622 0.55820 0.50075
 H1281 H 0.04505 0.43932 0.53492
 H1282 H 0.04463 0.51370 0.56040
 H1283 H -0.04220 0.47361 0.43824
 H1284 H -0.04500 0.54749 0.46555
 Zr1285 Zr 0.48519 -0.02442 -0.02801
 O1286 O 0.46329 -0.01486 -0.05241
 O1287 O 0.49043 -0.05754 -0.03538
 O1288 O 0.50004 -0.02553 -0.05891
 O1289 O 0.44461 -0.03141 0.01099
 O1290 O 0.53241 -0.00723 -0.05476
 O1291 O 0.45355 -0.03848 -0.02398
 O1292 O 0.51556 -0.06876 -0.01078
 O1293 O 0.51867 -0.02870 -0.02183
 O1294 O 0.48719 -0.03833 0.00256
 O1295 O 0.49921 0.00705 -0.03036
 O1296 O 0.46866 -0.00242 -0.00724
 Zr1297 Zr 0.51959 0.01133 0.02883
 Zr1298 Zr 0.53230 0.00280 -0.02259
 Zr1299 Zr 0.47247 -0.01591 0.02346
 Zr1300 Zr 0.52042 -0.04142 0.00916
 O1301 O 0.44388 0.00207 0.03180
 O1302 O 0.55165 -0.05201 -0.00213
 O1303 O 0.50554 -0.02024 0.03157
 O1304 O 0.53573 -0.01073 0.00805
 O1305 O 0.51767 0.02544 -0.00170
 O1306 O 0.48618 0.01542 0.02248
 C1307 C 0.50326 -0.07184 -0.02704
 C1308 C 0.44038 -0.03914 -0.00764
 C1309 C 0.51841 -0.01773 -0.06601
 O1310 O 0.56201 -0.01416 -0.02890
 O1311 O 0.55861 0.02146 -0.01094
 O1312 O 0.55024 0.02723 0.02437
 C1313 C 0.56273 0.02932 0.00767
 O1314 O 0.46060 0.03065 -0.03291
 Zr1315 Zr 0.48429 0.02827 -0.00831
 O1316 O 0.51527 0.04476 0.03547
 O1317 O 0.53691 0.03045 -0.04269
 O1318 O 0.49572 0.05222 -0.03045
 O1319 O 0.45461 0.04115 0.00461
 O1320 O 0.49255 0.05659 0.00898
 C1321 C 0.50461 0.05966 0.02541
 O1322 O 0.54242 0.00192 0.05245
 O1323 O 0.46658 -0.04464 0.04173
 O1324 O 0.50553 0.01114 0.06009
 O1325 O 0.47403 -0.00871 0.05629
 O1326 O 0.50837 -0.06722 0.02887
 O1327 O 0.54068 -0.04501 0.03642
 C1328 C 0.48788 0.00206 0.06748
 H1329 H 0.47981 -0.05276 0.00362
 H1330 H 0.55136 -0.01245 0.01188
 H1331 H 0.47872 0.02523 0.03290
 H1332 H 0.49752 0.01321 -0.04493
 H1333 H 0.55304 -0.06783 0.00131
 H1334 H 0.57033 -0.00528 -0.03954
 H1335 H 0.55149 0.02873 -0.04970
 H1336 H 0.48684 0.06569 -0.02820
 H1337 H 0.51781 -0.08023 0.02625
 H1338 H 0.45205 -0.04275 0.04880
 H1339 H 0.43563 -0.00689 0.04242
 H1340 H 0.45386 0.05685 0.00051
 H1341 H 0.54747 -0.05979 0.03633
 H1342 H 0.54533 0.01506 0.06134
 H1343 H 0.46028 -0.02808 -0.06116
 H1344 H 0.45608 0.04617 -0.03464
 Zr1345 Zr 0.51987 0.51549 -0.03031
 O1346 O 0.54127 0.50244 -0.05405
 O1347 O 0.51822 0.54854 -0.03921
 O1348 O 0.50569 0.51679 -0.06117
 O1349 O 0.56001 0.52126 0.00829
 O1350 O 0.47159 0.50197 -0.05604
 O1351 O 0.55239 0.52734 -0.02698
 O1352 O 0.49404 0.56339 -0.01497
 O1353 O 0.48681 0.52327 -0.02432
 O1354 O 0.51853 0.53094 -0.00042
 O1355 O 0.50292 0.48544 -0.03114
 O1356 O 0.53388 0.49302 -0.00858
 Zr1357 Zr 0.48112 0.48608 0.02822
 Zr1358 Zr 0.47023 0.49321 -0.02352
 Zr1359 Zr 0.53078 0.50830 0.02143
 Zr1360 Zr 0.48566 0.53756 0.00602
 O1361 O 0.55755 0.48810 0.03006
 O1362 O 0.45598 0.55051 -0.00615
 O1363 O 0.49812 0.51621 0.02941
 O1364 O 0.46746 0.50847 0.00642
 O1365 O 0.48227 0.47038 -0.00159
 O1366 O 0.51410 0.47844 0.02201
 C1367 C 0.50698 0.56448 -0.03133
 C1368 C 0.56515 0.52801 -0.01064
 C1369 C 0.48670 0.51061 -0.06780
 O1370 O 0.44217 0.51239 -0.03030
 O1371 O 0.44230 0.47716 -0.01103
 O1372 O 0.44939 0.47248 0.02454
 C1373 C 0.43722 0.47040 0.00790
 O1374 O 0.53916 0.45799 -0.03253
 Zr1375 Zr 0.51530 0.46396 -0.00810
 O1376 O 0.48194 0.45287 0.03662
 O1377 O 0.46353 0.46538 -0.04259
 O1378 O 0.50206 0.44022 -0.02911
 O1379 O 0.54323 0.44878 0.00548
 O1380 O 0.50367 0.43749 0.01057
 C1381 C 0.49109 0.43648 0.02721
 O1382 O 0.45880 0.49901 0.05122
 O1383 O 0.53893 0.53697 0.03870
 O1384 O 0.49458 0.48629 0.05939
 O1385 O 0.52806 0.50254 0.05451
 O1386 O 0.49944 0.56297 0.02471
 O1387 O 0.46506 0.54441 0.03293
 C1388 C 0.51301 0.49376 0.06625
 H1389 H 0.52717 0.54467 0.00008
 H1390 H 0.45197 0.51176 0.01018
 H1391 H 0.52038 0.46844 0.03285
 H1392 H 0.50428 0.47851 -0.04542
 H1393 H 0.45609 0.56656 -0.00359
 H1394 H 0.43330 0.50385 -0.04055
 H1395 H 0.44926 0.46812 -0.04958
 H1396 H 0.50943 0.42605 -0.02612
 H1397 H 0.49134 0.57667 0.02146
 H1398 H 0.55312 0.53403 0.04577
 H1399 H 0.56642 0.49663 0.04031
 H1400 H 0.54239 0.43288 0.00224
 H1401 H 0.45942 0.55963 0.03187
 H1402 H 0.45440 0.48672 0.06078
 H1403 H 0.54573 0.51478 -0.06352
 H1404 H 0.54221 0.44204 -0.03342
 Zr1405 Zr 0.01948 1.01832 0.46938
 O1406 O 0.04070 1.00697 0.44465
 O1407 O 0.01692 1.05169 0.46207
 O1408 O 0.00472 1.02058 0.43883
 O1409 O 0.06028 1.02292 0.50742
 O1410 O -0.02893 1.00476 0.44388
 O1411 O 0.05188 1.03052 0.47261
 O1412 O -0.00710 1.06493 0.48734
 O1413 O -0.01362 1.02509 0.47628
 O1414 O 0.01841 1.03233 0.49996
 O1415 O 0.00319 0.98799 0.46749
 O1416 O 0.03442 0.99523 0.48986
 Zr1417 Zr -0.01747 0.98528 0.52720
 Zr1418 Zr -0.02952 0.99466 0.47604
 Zr1419 Zr 0.03153 1.00898 0.52057
 Zr1420 Zr -0.01449 1.03791 0.50726
 O1421 O 0.05881 0.98896 0.52803
 O1422 O -0.04468 1.05076 0.49621
 O1423 O -0.00116 1.01574 0.52943
 O1424 O -0.03201 1.00841 0.50669
 O1425 O -0.01653 0.97109 0.49667
 O1426 O 0.01556 0.97874 0.52009
 C1427 C 0.00549 1.06701 0.47081
 C1428 C 0.06496 1.03055 0.48871
 C1429 C -0.01421 1.01419 0.43223
 O1430 O -0.05804 1.01359 0.47052
 O1431 O -0.05694 0.97761 0.48830
 O1432 O -0.04904 0.97130 0.52345
 C1433 C -0.06154 0.96988 0.50698
 O1434 O 0.04008 0.96164 0.46422
 Zr1435 Zr 0.01654 0.96579 0.48930
 O1436 O -0.01568 0.95165 0.53399
 O1437 O -0.03603 0.96750 0.45601
 O1438 O 0.00354 0.94272 0.46746
 O1439 O 0.04507 0.95065 0.50172
 O1440 O 0.00593 0.93824 0.50682
 C1441 C -0.00627 0.93603 0.52359
 O1442 O -0.03966 0.99645 0.55118
 O1443 O 0.03949 1.03707 0.53880
 O1444 O -0.00346 0.98455 0.55815
 O1445 O 0.02950 1.00187 0.55345
 O1446 O -0.00084 1.06266 0.52687
 O1447 O -0.03473 1.04306 0.53477
 C1448 C 0.01484 0.99227 0.56506
 H1449 H 0.02678 1.04620 0.50089
 H1450 H -0.04749 1.01120 0.51086
 H1451 H 0.02227 0.96841 0.53038
 H1452 H 0.00444 0.98173 0.45291
 H1453 H -0.04490 1.06666 0.49951
 H1454 H -0.06694 1.00535 0.46007
 H1455 H -0.05046 0.97026 0.44934
 H1456 H 0.01140 0.92865 0.46962
 H1457 H -0.00927 1.07634 0.52440
 H1458 H 0.05387 1.03412 0.54548
 H1459 H 0.06772 0.99726 0.53841
 H1460 H 0.04457 0.93493 0.49771
 H1461 H -0.04065 1.05821 0.53454
 H1462 H -0.04356 0.98359 0.56022
 H1463 H 0.04467 1.01986 0.43568
 H1464 H 0.04357 0.94584 0.46257
 Zr1465 Zr 0.73192 0.26806 0.21926
 O1466 O 0.74563 0.28977 0.19623
 O1467 O 0.69958 0.26522 0.20882
 O1468 O 0.73253 0.25379 0.18833
 O1469 O 0.72252 0.30797 0.25794
 O1470 O 0.74856 0.22031 0.19359
 O1471 O 0.71893 0.30026 0.22235
 O1472 O 0.68454 0.24003 0.23183
 O1473 O 0.72523 0.23474 0.22456
 O1474 O 0.71469 0.26610 0.24838
 O1475 O 0.76264 0.25224 0.21947
 O1476 O 0.75241 0.28280 0.24213
 Zr1477 Zr 0.75933 0.23021 0.27853
 Zr1478 Zr 0.75582 0.21927 0.22639
 Zr1479 Zr 0.73545 0.27905 0.27137
 Zr1480 Zr 0.70914 0.23295 0.25418
 O1481 O 0.75389 0.30646 0.28150
 O1482 O 0.69819 0.20270 0.24144
 O1483 O 0.72848 0.24609 0.27862
 O1484 O 0.73888 0.21584 0.25559
 O1485 O 0.77679 0.23203 0.24947
 O1486 O 0.76587 0.26349 0.27303
 C1487 C 0.68386 0.25299 0.21560
 C1488 C 0.71696 0.31301 0.23876
 C1489 C 0.73965 0.23500 0.18175
 O1490 O 0.73837 0.19046 0.21846
 O1491 O 0.77212 0.19185 0.23922
 O1492 O 0.77434 0.19892 0.27506
 C1493 C 0.77779 0.18685 0.25838
 O1494 O 0.78873 0.28923 0.21959
 Zr1495 Zr 0.78213 0.26532 0.24363
 O1496 O 0.79180 0.23252 0.28864
 O1497 O 0.78496 0.21379 0.20838
 O1498 O 0.80771 0.25271 0.22384
 O1499 O 0.79512 0.29401 0.25788
 O1500 O 0.80773 0.25515 0.26373
 C1501 C 0.80824 0.24265 0.28030
 O1502 O 0.74602 0.20728 0.30064
 O1503 O 0.70537 0.28611 0.28724
 O1504 O 0.75655 0.24348 0.30983
 O1505 O 0.73921 0.27634 0.30466
 O1506 O 0.68196 0.24591 0.27158
 O1507 O 0.70151 0.21226 0.28067
 C1508 C 0.74788 0.26156 0.31658
 H1509 H 0.70062 0.27426 0.24828
 H1510 H 0.73600 0.20023 0.25902
 H1511 H 0.77486 0.27017 0.28439
 H1512 H 0.77030 0.25387 0.20549
 H1513 H 0.68203 0.20220 0.24332
 H1514 H 0.74785 0.18199 0.20844
 H1515 H 0.78324 0.19946 0.20109
 H1516 H 0.82137 0.26055 0.22758
 H1517 H 0.66886 0.23731 0.26756
 H1518 H 0.70727 0.30035 0.29464
 H1519 H 0.74432 0.31496 0.29140
 H1520 H 0.81121 0.29383 0.25535
 H1521 H 0.68654 0.20624 0.27904
 H1522 H 0.75788 0.20333 0.31069
 H1523 H 0.73372 0.29386 0.18628
 H1524 H 0.80461 0.29264 0.21930
 Zr1525 Zr 0.77264 0.73222 0.72051
 O1526 O 0.76221 0.71038 0.69634
 O1527 O 0.80592 0.73589 0.71283
 O1528 O 0.77449 0.74668 0.68958
 O1529 O 0.77834 0.69198 0.75950
 O1530 O 0.75741 0.77983 0.69392
 O1531 O 0.78584 0.70020 0.72445
 O1532 O 0.81810 0.76077 0.73731
 O1533 O 0.77814 0.76561 0.72654
 O1534 O 0.78650 0.73412 0.75094
 O1535 O 0.74174 0.74749 0.71846
 O1536 O 0.75003 0.71680 0.74154
 Zr1537 Zr 0.73805 0.76883 0.77766
 Zr1538 Zr 0.74717 0.78050 0.72612
 Zr1539 Zr 0.76354 0.72052 0.77207
 Zr1540 Zr 0.79083 0.76728 0.75738
 O1541 O 0.74439 0.69283 0.78055
 O1542 O 0.80256 0.79782 0.74565
 O1543 O 0.76907 0.75353 0.78003
 O1544 O 0.76072 0.78383 0.75660
 O1545 O 0.72404 0.76700 0.74726
 O1546 O 0.73272 0.73550 0.77147
 C1547 C 0.82073 0.74808 0.72107
 C1548 C 0.78614 0.68726 0.74084
 C1549 C 0.76746 0.76532 0.68258
 O1550 O 0.76506 0.80955 0.71969
 O1551 O 0.72915 0.80756 0.73782
 O1552 O 0.72313 0.79997 0.77325
 C1553 C 0.72131 0.81220 0.75648
 O1554 O 0.71695 0.70947 0.71654
 Zr1555 Zr 0.71997 0.73369 0.74079
 O1556 O 0.70439 0.76628 0.78451
 O1557 O 0.71982 0.78582 0.70619
 O1558 O 0.69661 0.74527 0.71851
 O1559 O 0.70566 0.70507 0.75434
 O1560 O 0.69191 0.74409 0.75784
 C1561 C 0.68913 0.75656 0.77419
 O1562 O 0.74825 0.79164 0.80106
 O1563 O 0.79190 0.71357 0.79013
 O1564 O 0.73789 0.75525 0.80898
 O1565 O 0.75654 0.72288 0.80500
 O1566 O 0.81604 0.75459 0.77701
 O1567 O 0.79513 0.78789 0.78445
 C1568 C 0.74645 0.73740 0.81632
 H1569 H 0.80065 0.72619 0.75193
 H1570 H 0.76295 0.79944 0.76036
 H1571 H 0.72258 0.72868 0.78205
 H1572 H 0.73559 0.74584 0.70395
 H1573 H 0.81843 0.79862 0.74885
 H1574 H 0.75653 0.81803 0.70908
 H1575 H 0.72206 0.80023 0.69911
 H1576 H 0.68286 0.73692 0.72096
 H1577 H 0.82941 0.76344 0.77422
 H1578 H 0.78943 0.69920 0.79721
 H1579 H 0.75299 0.68431 0.79108
 H1580 H 0.68996 0.70504 0.75040
 H1581 H 0.81008 0.79424 0.78402
 H1582 H 0.73520 0.79522 0.81007
 H1583 H 0.77528 0.70671 0.68740
 H1584 H 0.70135 0.70519 0.71523
 Zr1585 Zr 0.22736 0.23297 0.78238
 O1586 O 0.23822 0.21091 0.80627
 O1587 O 0.19461 0.23808 0.79162
 O1588 O 0.22730 0.24769 0.81317
 O1589 O 0.21855 0.19287 0.74397
 O1590 O 0.24536 0.28011 0.80775
 O1591 O 0.21309 0.20132 0.77929
 O1592 O 0.18235 0.26359 0.76769
 O1593 O 0.22281 0.26652 0.77627
 O1594 O 0.21205 0.23531 0.75264
 O1595 O 0.25889 0.24702 0.78288
 O1596 O 0.24843 0.21672 0.76043
 Zr1597 Zr 0.26042 0.26807 0.72343
 Zr1598 Zr 0.25427 0.28019 0.77518
 Zr1599 Zr 0.23351 0.22085 0.73056
 Zr1600 Zr 0.20866 0.26861 0.74608
 O1601 O 0.25106 0.19228 0.72139
 O1602 O 0.19858 0.29975 0.75780
 O1603 O 0.22878 0.25399 0.72254
 O1604 O 0.23934 0.28397 0.74538
 O1605 O 0.27597 0.26583 0.75309
 O1606 O 0.26481 0.23458 0.72970
 C1607 C 0.18000 0.25109 0.78413
 C1608 C 0.21167 0.18836 0.76300
 C1609 C 0.23520 0.26613 0.81964
 O1610 O 0.23773 0.30995 0.78218
 O1611 O 0.27252 0.30656 0.76250
 O1612 O 0.27665 0.29864 0.72693
 C1613 C 0.27958 0.31090 0.74349
 O1614 O 0.28292 0.20863 0.78431
 Zr1615 Zr 0.27912 0.23239 0.75967
 O1616 O 0.29338 0.26368 0.71464
 O1617 O 0.28266 0.28450 0.79389
 O1618 O 0.30409 0.24396 0.78012
 O1619 O 0.29130 0.20268 0.74638
 O1620 O 0.30649 0.24055 0.74036
 C1621 C 0.30871 0.25272 0.72366
 O1622 O 0.24984 0.29120 0.70039
 O1623 O 0.20403 0.21517 0.71390
 O1624 O 0.25889 0.25431 0.69229
 O1625 O 0.23937 0.22268 0.69740
 O1626 O 0.18197 0.25670 0.72800
 O1627 O 0.20375 0.28912 0.71898
 C1628 C 0.24962 0.23664 0.68554
 H1629 H 0.19760 0.22793 0.75243
 H1630 H 0.23747 0.29965 0.74160
 H1631 H 0.27410 0.22717 0.71878
 H1632 H 0.26566 0.24522 0.79710
 H1633 H 0.18262 0.30116 0.75528
 H1634 H 0.24704 0.31813 0.79233
 H1635 H 0.28125 0.29903 0.80091
 H1636 H 0.31752 0.23525 0.77705
 H1637 H 0.16908 0.26608 0.73137
 H1638 H 0.20560 0.20071 0.70678
 H1639 H 0.24164 0.18415 0.71129
 H1640 H 0.30719 0.20191 0.74950
 H1641 H 0.18896 0.29586 0.71988
 H1642 H 0.26254 0.29424 0.69075
 H1643 H 0.22546 0.20775 0.81579
 H1644 H 0.29857 0.20436 0.78525
 Zr1645 Zr 0.26905 0.76761 0.27902
 O1646 O 0.25818 0.78854 0.30405
 O1647 O 0.30257 0.76497 0.28526
 O1648 O 0.27168 0.75251 0.30956
 O1649 O 0.27323 0.80896 0.24081
 O1650 O 0.25565 0.71900 0.30493
 O1651 O 0.28130 0.80000 0.27539
 O1652 O 0.31545 0.74144 0.25952
 O1653 O 0.27564 0.73457 0.27202
 O1654 O 0.28258 0.76689 0.24807
 O1655 O 0.23869 0.75141 0.28172
 O1656 O 0.24571 0.78291 0.25917
 Zr1657 Zr 0.23507 0.73148 0.22220
 Zr1658 Zr 0.24514 0.71879 0.27308
 Zr1659 Zr 0.25900 0.78038 0.22810
 Zr1660 Zr 0.28799 0.73406 0.24068
 O1661 O 0.23885 0.80772 0.22109
 O1662 O 0.30095 0.70382 0.25172
 O1663 O 0.26553 0.74775 0.21915
 O1664 O 0.25845 0.71662 0.24208
 O1665 O 0.22133 0.73211 0.25309
 O1666 O 0.22871 0.76447 0.22936
 C1667 C 0.31782 0.75389 0.27591
 C1668 C 0.28118 0.81333 0.25930
 C1669 C 0.26525 0.73353 0.31633
 O1670 O 0.26403 0.69012 0.27818
 O1671 O 0.22785 0.69153 0.26136
 O1672 O 0.22111 0.69989 0.22637
 C1673 C 0.21990 0.68718 0.24288
 O1674 O 0.21259 0.78850 0.28553
 Zr1675 Zr 0.21622 0.76512 0.26050
 O1676 O 0.20130 0.73334 0.21643
 O1677 O 0.21824 0.71211 0.29383
 O1678 O 0.19347 0.75215 0.28315
 O1679 O 0.20094 0.79373 0.24824
 O1680 O 0.18832 0.75453 0.24399
 C1681 C 0.18582 0.74246 0.22737
 O1682 O 0.24576 0.70951 0.19796
 O1683 O 0.28683 0.78864 0.20914
 O1684 O 0.23416 0.74575 0.19122
 O1685 O 0.25169 0.77858 0.19539
 O1686 O 0.31231 0.74776 0.22011
 O1687 O 0.29266 0.71393 0.21321
 C1688 C 0.24201 0.76403 0.18406
 H1689 H 0.29643 0.77527 0.24668
 H1690 H 0.26114 0.70117 0.23787
 H1691 H 0.21825 0.77127 0.21930
 H1692 H 0.23264 0.75251 0.29647
 H1693 H 0.31680 0.70358 0.24799
 H1694 H 0.25592 0.68115 0.28890
 H1695 H 0.22105 0.69760 0.30047
 H1696 H 0.17941 0.76013 0.28138
 H1697 H 0.32603 0.73929 0.22215
 H1698 H 0.28376 0.80310 0.20250
 H1699 H 0.24698 0.81672 0.21042
 H1700 H 0.18528 0.79323 0.25268
 H1701 H 0.30774 0.70785 0.21316
 H1702 H 0.23275 0.70575 0.18930
 H1703 H 0.27123 0.79242 0.31260
 H1704 H 0.19687 0.79222 0.28748
 Zr1705 Zr 0.23156 0.76566 0.72266
 O1706 O 0.24381 0.78727 0.69877
 O1707 O 0.19871 0.76242 0.71393
 O1708 O 0.23093 0.75113 0.69185
 O1709 O 0.22381 0.80598 0.76128
 O1710 O 0.24755 0.71785 0.69665
 O1711 O 0.21850 0.79779 0.72602
 O1712 O 0.18496 0.73751 0.73797
 O1713 O 0.22539 0.73235 0.72860
 O1714 O 0.21584 0.76392 0.75259
 O1715 O 0.26240 0.75009 0.72156
 O1716 O 0.25308 0.78083 0.74434
 Zr1717 Zr 0.26230 0.72871 0.78085
 Zr1718 Zr 0.25620 0.71714 0.72912
 Zr1719 Zr 0.23764 0.77730 0.77439
 Zr1720 Zr 0.21085 0.73080 0.75899
 O1721 O 0.25636 0.80496 0.78334
 O1722 O 0.19947 0.70036 0.74705
 O1723 O 0.23135 0.74435 0.78229
 O1724 O 0.24079 0.71394 0.75912
 O1725 O 0.27827 0.73033 0.75099
 O1726 O 0.26826 0.76199 0.77471
 C1727 C 0.18338 0.75026 0.72166
 C1728 C 0.21726 0.81074 0.74233
 C1729 C 0.23802 0.73239 0.68509
 O1730 O 0.23848 0.68822 0.72222
 O1731 O 0.27317 0.68989 0.74148
 O1732 O 0.27725 0.69746 0.77703
 C1733 C 0.27983 0.68515 0.76039
 O1734 O 0.28816 0.78724 0.71994
 Zr1735 Zr 0.28301 0.76361 0.74457
 O1736 O 0.29527 0.73146 0.78931
 O1737 O 0.28454 0.71157 0.70994
 O1738 O 0.30770 0.75093 0.72376
 O1739 O 0.29640 0.79263 0.75779
 O1740 O 0.30972 0.75405 0.76354
 C1741 C 0.31118 0.74176 0.78018
 O1742 O 0.25035 0.70597 0.80385
 O1743 O 0.20833 0.78431 0.79161
 O1744 O 0.26103 0.74229 0.81206
 O1745 O 0.24311 0.77494 0.80747
 O1746 O 0.18457 0.74373 0.77768
 O1747 O 0.20480 0.71029 0.78599
 C1748 C 0.25255 0.76036 0.81906
 H1749 H 0.20172 0.77198 0.75309
 H1750 H 0.23818 0.69835 0.76285
 H1751 H 0.27776 0.76888 0.78554
 H1752 H 0.26937 0.75164 0.70723
 H1753 H 0.18343 0.69973 0.74978
 H1754 H 0.24753 0.67967 0.71189
 H1755 H 0.28256 0.69715 0.70289
 H1756 H 0.32146 0.75897 0.72672
 H1757 H 0.17132 0.73498 0.77447
 H1758 H 0.21049 0.79864 0.79875
 H1759 H 0.24722 0.81348 0.79361
 H1760 H 0.31234 0.79262 0.75446
 H1761 H 0.18982 0.70411 0.78516
 H1762 H 0.26275 0.70224 0.81335
 H1763 H 0.23135 0.79112 0.68939
 H1764 H 0.30399 0.79077 0.71882
 Zr1765 Zr 0.27159 0.23334 0.22457
 O1766 O 0.26307 0.21150 0.19967
 O1767 O 0.30526 0.23739 0.21898
 O1768 O 0.27503 0.24790 0.19379
 O1769 O 0.27498 0.19281 0.26364
 O1770 O 0.25754 0.28095 0.19731
 O1771 O 0.28473 0.20139 0.22917
 O1772 O 0.31561 0.26207 0.24445
 O1773 O 0.27646 0.26671 0.23116
 O1774 O 0.28339 0.23508 0.25584
 O1775 O 0.24079 0.24842 0.22073
 O1776 O 0.24775 0.21762 0.24404
 Zr1777 Zr 0.23309 0.26930 0.27973
 Zr1778 Zr 0.24549 0.28142 0.22893
 Zr1779 Zr 0.25918 0.22118 0.27541
 Zr1780 Zr 0.28705 0.26821 0.26280
 O1781 O 0.23971 0.19331 0.28247
 O1782 O 0.29934 0.29893 0.25209
 O1783 O 0.26395 0.25415 0.28394
 O1784 O 0.25699 0.28459 0.26023
 O1785 O 0.22113 0.26763 0.24848
 O1786 O 0.22839 0.23599 0.27300
 C1787 C 0.31940 0.24959 0.22826
 C1788 C 0.28405 0.18831 0.24547
 C1789 C 0.26821 0.26649 0.18645
 O1790 O 0.26372 0.31051 0.22371
 O1791 O 0.22674 0.30838 0.23973
 O1792 O 0.21840 0.30042 0.27465
 C1793 C 0.21770 0.31284 0.25792
 O1794 O 0.21647 0.21027 0.21697
 Zr1795 Zr 0.21771 0.23433 0.24155
 O1796 O 0.19909 0.26653 0.28438
 O1797 O 0.21939 0.28683 0.20750
 O1798 O 0.19580 0.24588 0.21790
 O1799 O 0.20276 0.20554 0.25404
 O1800 O 0.18851 0.24446 0.25682
 C1801 C 0.18460 0.25681 0.27305
 O1802 O 0.24155 0.29197 0.30393
 O1803 O 0.28631 0.21426 0.29519
 O1804 O 0.23097 0.25552 0.31091
 O1805 O 0.25001 0.22329 0.30786
 O1806 O 0.31096 0.25548 0.28389
 O1807 O 0.28940 0.28860 0.29027
 C1808 C 0.23917 0.23769 0.31865
 H1809 H 0.29749 0.22724 0.25766
 H1810 H 0.25889 0.30018 0.26425
 H1811 H 0.21763 0.22904 0.28289
 H1812 H 0.23557 0.24683 0.20587
 H1813 H 0.31493 0.29980 0.25632
 H1814 H 0.25583 0.31906 0.21269
 H1815 H 0.22201 0.30130 0.20064
 H1816 H 0.18200 0.23739 0.21939
 H1817 H 0.32441 0.26444 0.28204
 H1818 H 0.28344 0.19986 0.30206
 H1819 H 0.24762 0.18478 0.29350
 H1820 H 0.18736 0.20543 0.24913
 H1821 H 0.30430 0.29502 0.29087
 H1822 H 0.22793 0.29542 0.31213
 H1823 H 0.27675 0.20801 0.19156
 H1824 H 0.20105 0.20582 0.21474
 Zr1825 Zr 0.72805 0.73565 0.27885
 O1826 O 0.73898 0.71356 0.30268
 O1827 O 0.69531 0.74069 0.28816
 O1828 O 0.72802 0.75031 0.30967
 O1829 O 0.71909 0.69566 0.24039
 O1830 O 0.74614 0.78269 0.30429
 O1831 O 0.71381 0.70402 0.27576
 O1832 O 0.68301 0.76630 0.26434
 O1833 O 0.72352 0.76922 0.27286
 O1834 O 0.71265 0.73810 0.24917
 O1835 O 0.75960 0.74964 0.27931
 O1836 O 0.74901 0.71943 0.25680
 Zr1837 Zr 0.76100 0.77087 0.21990
 Zr1838 Zr 0.75501 0.78283 0.27172
 Zr1839 Zr 0.73401 0.72367 0.22699
 Zr1840 Zr 0.70929 0.77143 0.24272
 O1841 O 0.75143 0.69509 0.21764
 O1842 O 0.69932 0.80252 0.25463
 O1843 O 0.72933 0.75686 0.21907
 O1844 O 0.74000 0.78673 0.24196
 O1845 O 0.77662 0.76851 0.24952
 O1846 O 0.76533 0.73735 0.22608
 C1847 C 0.68068 0.75372 0.28072
 C1848 C 0.71232 0.69110 0.25946
 C1849 C 0.73596 0.76872 0.31616
 O1850 O 0.73859 0.81263 0.27881
 O1851 O 0.77330 0.80917 0.25910
 O1852 O 0.77734 0.80139 0.22348
 C1853 C 0.78034 0.81357 0.24010
 O1854 O 0.78361 0.71126 0.28060
 Zr1855 Zr 0.77973 0.73505 0.25599
 O1856 O 0.79392 0.76641 0.21097
 O1857 O 0.78344 0.78701 0.29039
 O1858 O 0.80482 0.74654 0.27635
 O1859 O 0.79175 0.70531 0.24263
 O1860 O 0.80703 0.74313 0.23657
 C1861 C 0.80924 0.75532 0.21989
 O1862 O 0.75039 0.79410 0.19697
 O1863 O 0.70443 0.71815 0.21043
 O1864 O 0.75937 0.75715 0.18873
 O1865 O 0.73976 0.72558 0.19382
 O1866 O 0.68254 0.75967 0.22463
 O1867 O 0.70430 0.79209 0.21574
 C1868 C 0.75005 0.73950 0.18197
 H1869 H 0.69819 0.73073 0.24897
 H1870 H 0.73816 0.80242 0.23824
 H1871 H 0.77456 0.72994 0.21512
 H1872 H 0.76641 0.74780 0.29352
 H1873 H 0.68334 0.80397 0.25221
 H1874 H 0.74791 0.82073 0.28900
 H1875 H 0.78208 0.80151 0.29747
 H1876 H 0.81821 0.73781 0.27321
 H1877 H 0.66967 0.76904 0.22808
 H1878 H 0.70592 0.70369 0.20330
 H1879 H 0.74194 0.68702 0.20758
 H1880 H 0.80766 0.70449 0.24565
 H1881 H 0.68955 0.79888 0.21675
 H1882 H 0.76307 0.79713 0.18729
 H1883 H 0.72624 0.71039 0.31224
 H1884 H 0.79925 0.70693 0.28144
 Zr1885 Zr 0.77147 0.26498 0.77648
 O1886 O 0.76134 0.28595 0.80177
 O1887 O 0.80494 0.26128 0.78255
 O1888 O 0.77392 0.24959 0.80688
 O1889 O 0.77615 0.30661 0.73863
 O1890 O 0.75701 0.21654 0.80216
 O1891 O 0.78429 0.29715 0.77307
 O1892 O 0.81694 0.23743 0.75670
 O1893 O 0.77715 0.23185 0.76916
 O1894 O 0.78480 0.26420 0.74545
 O1895 O 0.74072 0.24954 0.77928
 O1896 O 0.74837 0.28099 0.75688
 Zr1897 Zr 0.73617 0.23015 0.71964
 Zr1898 Zr 0.74630 0.21683 0.77036
 Zr1899 Zr 0.76139 0.27840 0.72571
 Zr1900 Zr 0.78928 0.23129 0.73775
 O1901 O 0.74186 0.30623 0.71885
 O1902 O 0.80154 0.20051 0.74812
 O1903 O 0.76701 0.24569 0.71649
 O1904 O 0.75934 0.21458 0.73926
 O1905 O 0.72265 0.23088 0.75062
 O1906 O 0.73072 0.26324 0.72707
 C1907 C 0.81974 0.24959 0.77321
 C1908 C 0.78421 0.31067 0.75715
 C1909 C 0.76708 0.23073 0.81358
 O1910 O 0.76458 0.18772 0.77518
 O1911 O 0.72840 0.19004 0.75857
 O1912 O 0.72155 0.19882 0.72371
 C1913 C 0.72024 0.18598 0.74012
 O1914 O 0.71554 0.28715 0.78357
 Zr1915 Zr 0.71845 0.26395 0.75829
 O1916 O 0.70245 0.23303 0.71404
 O1917 O 0.71935 0.21064 0.79120
 O1918 O 0.69550 0.25126 0.78091
 O1919 O 0.70389 0.29312 0.74644
 O1920 O 0.69021 0.25441 0.74177
 C1921 C 0.68729 0.24258 0.72505
 O1922 O 0.74604 0.20806 0.69518
 O1923 O 0.78939 0.28616 0.70678
 O1924 O 0.73558 0.24462 0.68876
 O1925 O 0.75395 0.27699 0.69300
 O1926 O 0.81390 0.24474 0.71735
 O1927 O 0.79320 0.21151 0.70994
 C1928 C 0.74390 0.26272 0.68163
 H1929 H 0.79885 0.27225 0.74411
 H1930 H 0.76163 0.19911 0.73492
 H1931 H 0.72040 0.27039 0.71711
 H1932 H 0.73479 0.25066 0.79407
 H1933 H 0.81734 0.19990 0.74419
 H1934 H 0.75634 0.17885 0.78589
 H1935 H 0.72186 0.19603 0.79774
 H1936 H 0.68163 0.25959 0.77929
 H1937 H 0.82740 0.23589 0.71924
 H1938 H 0.78664 0.30074 0.70026
 H1939 H 0.75020 0.31512 0.70824
 H1940 H 0.68826 0.29302 0.75100
 H1941 H 0.80820 0.20524 0.70954
 H1942 H 0.73286 0.20475 0.68659
 H1943 H 0.77455 0.28940 0.81027
 H1944 H 0.69991 0.29114 0.78572
 C1945 C 0.46823 0.99680 0.37205
 C1946 C 0.46104 1.01689 0.36369
 C1947 C 0.44948 1.01758 0.34446
 C1948 C 0.44484 0.99813 0.33327
 C1949 C 0.45272 0.97807 0.34147
 C1950 C 0.46426 0.97742 0.36074
 C1951 C 0.47763 0.99608 0.39318
 C1952 C 0.48398 0.99642 0.41144
 H1953 H 0.46376 1.03199 0.37240
 H1954 H 0.44347 1.03325 0.33880
 H1955 H 0.44975 0.96282 0.33312
 H1956 H 0.46960 0.96175 0.36706
 C1957 C -0.03523 0.48719 0.87365
 C1958 C -0.05633 0.47854 0.87186
 C1959 C -0.06768 0.48019 0.85261
 C1960 C -0.05824 0.49069 0.83447
 C1961 C -0.03654 0.49872 0.83642
 C1962 C -0.02528 0.49711 0.85582
 C1963 C -0.02501 0.48780 0.89441
 C1964 C -0.01814 0.48926 0.91243
 H1965 H -0.06425 0.47080 0.88555
 H1966 H -0.08373 0.47270 0.85206
 H1967 H -0.02847 0.50745 0.82347
 H1968 H -0.00907 0.50422 0.85707
 C1969 C 0.03126 0.00355 0.86955
 C1970 C 0.03230 -0.01612 0.85800
 C1971 C 0.04362 -0.01704 0.83838
 C1972 C 0.05415 0.00171 0.83002
 C1973 C 0.05246 0.02157 0.84145
 C1974 C 0.04115 0.02244 0.86109
 C1975 C 0.02223 0.00373 0.89103
 C1976 C 0.01620 0.00337 0.90952
 H1977 H 0.02488 -0.03091 0.86445
 H1978 H 0.04434 -0.03250 0.82986
 H1979 H 0.06060 0.03623 0.83565
 H1980 H 0.04074 0.03769 0.86999
 C1981 C 0.53246 0.50657 0.36902
 C1982 C 0.53342 0.48693 0.35743
 C1983 C 0.54491 0.48597 0.33790
 C1984 C 0.55569 0.50465 0.32970
 C1985 C 0.55411 0.52448 0.34119
 C1986 C 0.54264 0.52539 0.36073
 C1987 C 0.52321 0.50677 0.39040
 C1988 C 0.51698 0.50639 0.40883
 H1989 H 0.52579 0.47220 0.36375
 H1990 H 0.54554 0.47054 0.32932
 H1991 H 0.56244 0.53908 0.33550
 H1992 H 0.54229 0.54061 0.36969
 C1993 C 0.53439 0.49100 0.12769
 C1994 C 0.55301 0.47801 0.13106
 C1995 C 0.56459 0.47966 0.15017
 C1996 C 0.55775 0.49439 0.16627
 C1997 C 0.53864 0.50694 0.16303
 C1998 C 0.52710 0.50532 0.14382
 C1999 C 0.52447 0.49124 0.10682
 C2000 C 0.51799 0.49198 0.08863
 H2001 H 0.55894 0.46700 0.11865
 H2002 H 0.57902 0.46953 0.15230
 H2003 H 0.53305 0.51855 0.17504
 H2004 H 0.51290 0.51569 0.14130
 C2005 C 0.03622 0.98884 0.62656
 C2006 C 0.05502 0.97615 0.63009
 C2007 C 0.06623 0.97775 0.64944
 C2008 C 0.05884 0.99215 0.66562
 C2009 C 0.03959 1.00441 0.66218
 C2010 C 0.02842 1.00284 0.64274
 C2011 C 0.02653 0.98910 0.60556
 C2012 C 0.02006 0.99003 0.58736
 H2013 H 0.06135 0.96539 0.61766
 H2014 H 0.08077 0.96782 0.65169
 H2015 H 0.03358 1.01578 0.67422
 H2016 H 0.01408 1.01297 0.64012
 C2017 C -0.03266 0.50462 0.62952
 C2018 C -0.04259 0.52344 0.63816
 C2019 C -0.05339 0.52247 0.65808
 C2020 C -0.05454 0.50260 0.66960
 C2021 C -0.04397 0.48395 0.66104
 C2022 C -0.03316 0.48496 0.64116
 C2023 C -0.02402 0.50480 0.60788
 C2024 C -0.01812 0.50412 0.58934
 H2025 H -0.04258 0.53869 0.62921
 H2026 H -0.06156 0.53706 0.66406
 H2027 H -0.04429 0.46848 0.66961
 H2028 H -0.02569 0.47024 0.63460
 C2029 C 0.46580 0.00518 0.12926
 C2030 C 0.44600 0.01643 0.13248
 C2031 C 0.43467 0.01476 0.15201
 C2032 C 0.44295 0.00174 0.16872
 C2033 C 0.46319 -0.00906 0.16560
 C2034 C 0.47448 -0.00744 0.14595
 C2035 C 0.47579 0.00496 0.10817
 C2036 C 0.48243 0.00414 0.08987
 H2037 H 0.43901 0.02612 0.11968
 H2038 H 0.41934 0.02359 0.15401
 H2039 H 0.46991 -0.01932 0.17809
 H2040 H 0.48965 -0.01646 0.14359
 C2041 C 0.37811 0.43856 0.00993
 C2042 C 0.35946 0.44677 0.02059
 C2043 C 0.33929 0.43582 0.01911
 C2044 C 0.33747 0.41646 0.00693
 C2045 C 0.35633 0.40843 -0.00376
 C2046 C 0.37642 0.41938 -0.00226
 C2047 C 0.39885 0.45008 0.01067
 C2048 C 0.41635 0.45945 0.01019
 H2049 H 0.36048 0.46165 0.03000
 H2050 H 0.32522 0.44233 0.02774
 H2051 H 0.35550 0.39382 -0.01355
 H2052 H 0.39062 0.41295 -0.01078
 C2053 C -0.12061 0.93798 0.50877
 C2054 C -0.13924 0.94639 0.51931
 C2055 C -0.15953 0.93571 0.51763
 C2056 C -0.16152 0.91644 0.50535
 C2057 C -0.14267 0.90819 0.49481
 C2058 C -0.12245 0.91886 0.49652
 C2059 C -0.09979 0.94933 0.50960
 C2060 C -0.08229 0.95871 0.50919
 H2061 H -0.13811 0.96123 0.52876
 H2062 H -0.17360 0.94239 0.52616
 H2063 H -0.14361 0.89362 0.48495
 H2064 H -0.10826 0.91228 0.48808
 C2065 C -0.12385 0.05943 0.99059
 C2066 C -0.13603 0.06395 0.97228
 C2067 C -0.15636 0.07469 0.97400
 C2068 C -0.16503 0.08130 0.99418
 C2069 C -0.15244 0.07632 1.01248
 C2070 C -0.13220 0.06557 1.01065
 C2071 C -0.10281 0.04846 0.98914
 C2072 C -0.08517 0.03931 0.98925
 H2073 H -0.12973 0.05939 0.95660
 H2074 H -0.16461 0.07854 0.95924
 H2075 H -0.15833 0.07993 1.02849
 H2076 H -0.12306 0.06194 1.02501
 C2077 C 0.37661 0.56331 0.48823
 C2078 C 0.37516 0.58451 0.49678
 C2079 C 0.35475 0.59488 0.49910
 C2080 C 0.33535 0.58420 0.49295
 C2081 C 0.33698 0.56298 0.48412
 C2082 C 0.35744 0.55261 0.48185
 C2083 C 0.39759 0.55217 0.48734
 C2084 C 0.41515 0.54288 0.48775
 H2085 H 0.38982 0.59297 0.50188
 H2086 H 0.35418 0.61134 0.50560
 H2087 H 0.32239 0.55419 0.47940
 H2088 H 0.35827 0.53612 0.47541
 C2089 C 0.12075 0.56058 0.50852
 C2090 C 0.12403 0.57976 0.52037
 C2091 C 0.14410 0.59092 0.51899
 C2092 C 0.16125 0.58311 0.50566
 C2093 C 0.15784 0.56368 0.49399
 C2094 C 0.13777 0.55255 0.49540
 C2095 C 0.09976 0.54949 0.50911
 C2096 C 0.08232 0.54002 0.50870
 H2097 H 0.11104 0.58618 0.53059
 H2098 H 0.14623 0.60562 0.52846
 H2099 H 0.17052 0.55732 0.48339
 H2100 H 0.13544 0.53781 0.48602
 C2101 C 0.62163 0.06147 0.00898
 C2102 C 0.62509 0.08095 0.02032
 C2103 C 0.64524 0.09191 0.01860
 C2104 C 0.66229 0.08360 0.00545
 C2105 C 0.65870 0.06388 -0.00570
 C2106 C 0.63855 0.05296 -0.00396
 C2107 C 0.60057 0.05054 0.00987
 C2108 C 0.58312 0.04109 0.00959
 H2109 H 0.61216 0.08775 0.03038
 H2110 H 0.64751 0.10685 0.02767
 H2111 H 0.67130 0.05714 -0.01617
 H2112 H 0.63608 0.03798 -0.01294
 C2113 C 0.62240 0.93822 0.49089
 C2114 C 0.64172 0.94888 0.48438
 C2115 C 0.66212 0.93843 0.48642
 C2116 C 0.66356 0.91713 0.49513
 C2117 C 0.64401 0.90650 0.50146
 C2118 C 0.62365 0.91696 0.49938
 C2119 C 0.60149 0.94952 0.49009
 C2120 C 0.58413 0.95925 0.49045
 H2121 H 0.64107 0.96541 0.47799
 H2122 H 0.67680 0.94721 0.48159
 H2123 H 0.64442 0.88999 0.50789
 H2124 H 0.60888 0.90853 0.50458
 C2125 C 0.12125 0.43500 0.99282
 C2126 C 0.14045 0.44573 0.98607
 C2127 C 0.16095 0.43555 0.98828
 C2128 C 0.16264 0.41444 0.99740
 C2129 C 0.14321 0.40374 1.00399
 C2130 C 0.12273 0.41395 1.00173
 C2131 C 0.10023 0.44610 0.99181
 C2132 C 0.08285 0.45578 0.99193
 H2133 H 0.13961 0.46212 0.97935
 H2134 H 0.17553 0.44439 0.98326
 H2135 H 0.14380 0.38737 1.01074
 H2136 H 0.10805 0.40547 1.00713
 C2137 C 0.00185 0.36960 0.44224
 C2138 C -0.01550 0.35485 0.44485
 C2139 C -0.01547 0.33525 0.43338
 C2140 C 0.00194 0.33033 0.41920
 C2141 C 0.01952 0.34507 0.41702
 C2142 C 0.01944 0.36466 0.42850
 C2143 C 0.00121 0.39022 0.45300
 C2144 C 0.00070 0.40774 0.46166
 H2145 H -0.02916 0.35862 0.45551
 H2146 H -0.02906 0.32400 0.43551
 H2147 H 0.03298 0.34174 0.40600
 H2148 H 0.03288 0.37612 0.42638
 C2149 C 0.50538 -0.13131 -0.05572
 C2150 C 0.48801 -0.14604 -0.05306
 C2151 C 0.48800 -0.16565 -0.06450
 C2152 C 0.50537 -0.17063 -0.07871
 C2153 C 0.52300 -0.15594 -0.08089
 C2154 C 0.52297 -0.13632 -0.06944
 C2155 C 0.50467 -0.11056 -0.04516
 C2156 C 0.50398 -0.09293 -0.03671
 H2157 H 0.47435 -0.14220 -0.04243
 H2158 H 0.47437 -0.17686 -0.06237
 H2159 H 0.53644 -0.15930 -0.09192
 H2160 H 0.53642 -0.12488 -0.07161
 C2161 C 0.00838 -0.12356 1.06288
 C2162 C -0.00097 -0.14211 1.05359
 C2163 C -0.00072 -0.16207 1.06447
 C2164 C 0.00888 -0.16359 1.08477
 C2165 C 0.01848 -0.14490 1.09387
 C2166 C 0.01822 -0.12494 1.08294
 C2167 C 0.00728 -0.10297 1.05205
 C2168 C 0.00602 -0.08572 1.04293
 H2169 H -0.00870 -0.14107 1.03808
 H2170 H -0.00849 -0.17618 1.05727
 H2171 H 0.02618 -0.14575 1.10939
 H2172 H 0.02550 -0.11058 1.09018
 C2173 C 0.50593 0.37856 0.56160
 C2174 C 0.49573 0.36011 0.55298
 C2175 C 0.49597 0.34030 0.56416
 C2176 C 0.50641 0.33886 0.58405
 C2177 C 0.51685 0.35745 0.59245
 C2178 C 0.51659 0.37723 0.58124
 C2179 C 0.50496 0.39902 0.55053
 C2180 C 0.50394 0.41626 0.54135
 H2181 H 0.48737 0.36111 0.53779
 H2182 H 0.48758 0.32627 0.55749
 H2183 H 0.52521 0.35664 0.60764
 H2184 H 0.52454 0.39151 0.58795
 C2185 C 0.50716 1.13393 0.55392
 C2186 C 0.52493 1.13940 0.56679
 C2187 C 0.52459 1.15895 0.57837
 C2188 C 0.50640 1.17308 0.57718
 C2189 C 0.48891 1.16772 0.56370
 C2190 C 0.48930 1.14819 0.55213
 C2191 C 0.50662 1.11304 0.54363
 C2192 C 0.50595 1.09525 0.53551
 H2193 H 0.53875 1.12832 0.56831
 H2194 H 0.53814 1.16262 0.58883
 H2195 H 0.47485 1.17851 0.56233
 H2196 H 0.47549 1.14399 0.54217
 C2197 C 0.00926 0.63323 1.04935
 C2198 C 0.02670 0.63794 1.06292
 C2199 C 0.02645 0.65721 1.07492
 C2200 C 0.00866 0.67182 1.07349
 C2201 C -0.00837 0.66733 1.05917
 C2202 C -0.00808 0.64807 1.04718
 C2203 C 0.00819 0.61230 1.03918
 C2204 C 0.00701 0.59436 1.03146
 H2205 H 0.04009 0.62639 1.06476
 H2206 H 0.03965 0.66021 1.08600
 H2207 H -0.02210 0.67851 1.05761
 H2208 H -0.02166 0.64444 1.03672
 C2209 C 0.51224 0.62340 -0.06076
 C2210 C 0.50234 0.64185 -0.05152
 C2211 C 0.50238 0.66174 -0.06255
 C2212 C 0.51230 0.66324 -0.08293
 C2213 C 0.52269 0.64472 -0.09184
 C2214 C 0.52263 0.62485 -0.08078
 C2215 C 0.51078 0.60270 -0.05018
 C2216 C 0.50915 0.58523 -0.04151
 H2217 H 0.49418 0.64074 -0.03604
 H2218 H 0.49405 0.67573 -0.05548
 H2219 H 0.53065 0.64558 -0.10743
 H2220 H 0.53033 0.61056 -0.08798
 C2221 C 0.00982 1.12581 0.44115
 C2222 C 0.01569 1.12560 0.41952
 C2223 C 0.01572 1.14503 0.40781
 C2224 C 0.00976 1.16513 0.41758
 C2225 C 0.00459 1.16505 0.43973
 C2226 C 0.00454 1.14550 0.45135
 C2227 C 0.00836 1.10555 0.45250
 C2228 C 0.00699 1.08811 0.46126
 H2229 H 0.02004 1.11034 0.41161
 H2230 H 0.02090 1.14417 0.39120
 H2231 H -0.00071 1.17973 0.44802
 H2232 H -0.00016 1.14566 0.46815
 C2233 C 0.74573 0.71780 0.87875
 C2234 C 0.72641 0.71333 0.89028
 C2235 C 0.72728 0.70201 0.90980
 C2236 C 0.74751 0.69484 0.91803
 C2237 C 0.76689 0.70005 0.90664
 C2238 C 0.76597 0.71138 0.88715
 C2239 C 0.74481 0.72675 0.85735
 C2240 C 0.74489 0.73268 0.83887
 H2241 H 0.71062 0.71805 0.88393
 H2242 H 0.71208 0.69859 0.91830
 H2243 H 0.78270 0.69458 0.91234
 H2244 H 0.78104 0.71450 0.87827
 C2245 C 0.23643 0.21845 0.38109
 C2246 C 0.21881 0.20623 0.38934
 C2247 C 0.22077 0.19515 0.40890
 C2248 C 0.24049 0.19598 0.42040
 C2249 C 0.25786 0.20883 0.41228
 C2250 C 0.25584 0.21995 0.39277
 C2251 C 0.23575 0.22714 0.35959
 C2252 C 0.23646 0.23297 0.34109
 H2253 H 0.20383 0.20464 0.38031
 H2254 H 0.20718 0.18521 0.41458
 H2255 H 0.27314 0.21004 0.42087
 H2256 H 0.26968 0.22916 0.38648
 C2257 C 0.74511 0.28273 0.37829
 C2258 C 0.75977 0.27752 0.39464
 C2259 C 0.75882 0.28892 0.41413
 C2260 C 0.74330 0.30581 0.41738
 C2261 C 0.72833 0.31049 0.40104
 C2262 C 0.72924 0.29904 0.38169
 C2263 C 0.74707 0.27285 0.35737
 C2264 C 0.74795 0.26645 0.33909
 H2265 H 0.77225 0.26506 0.39216
 H2266 H 0.77069 0.28509 0.42634
 H2267 H 0.71602 0.32318 0.40316
 H2268 H 0.71784 0.30329 0.36915
 C2269 C 0.25486 0.78210 0.88052
 C2270 C 0.24165 0.77413 0.89733
 C2271 C 0.24005 0.78576 0.91665
 C2272 C 0.25145 0.80564 0.91924
 C2273 C 0.26511 0.81315 0.90246
 C2274 C 0.26677 0.80148 0.88328
 C2275 C 0.25460 0.77202 0.85965
 C2276 C 0.25399 0.76549 0.84143
 H2277 H 0.23214 0.75929 0.89530
 H2278 H 0.22933 0.77965 0.92926
 H2279 H 0.27437 0.82819 0.90410
 H2280 H 0.27693 0.80791 0.87036
 C2281 C 0.23872 0.78645 0.12281
 C2282 C 0.25165 0.77855 0.10584
 C2283 C 0.25306 0.79028 0.08652
 C2284 C 0.24161 0.81033 0.08376
 C2285 C 0.22845 0.81780 0.10118
 C2286 C 0.22707 0.80600 0.12033
 C2287 C 0.23905 0.77610 0.14359
 C2288 C 0.23988 0.76936 0.16176
 H2289 H 0.26091 0.76347 0.10762
 H2290 H 0.26284 0.78316 0.07375
 H2291 H 0.21999 0.83339 0.10081
 H2292 H 0.21740 0.81258 0.13352
 C2293 C 0.74208 0.28343 0.61963
 C2294 C 0.72282 0.29153 0.61066
 C2295 C 0.72359 0.30316 0.59133
 C2296 C 0.74379 0.30720 0.58051
 C2297 C 0.76297 0.29804 0.58946
 C2298 C 0.76208 0.28645 0.60883
 C2299 C 0.74169 0.27419 0.64092
 C2300 C 0.74209 0.26796 0.65928
 H2301 H 0.70720 0.28927 0.61883
 H2302 H 0.70811 0.30859 0.58490
 H2303 H 0.77901 0.30084 0.58243
 H2304 H 0.77719 0.28050 0.61578
 C2305 C 0.24973 0.21400 0.62428
 C2306 C 0.23720 0.19490 0.62219
 C2307 C 0.23665 0.18375 0.60268
 C2308 C 0.24864 0.19150 0.58485
 C2309 C 0.26090 0.21096 0.58692
 C2310 C 0.26150 0.22210 0.60656
 C2311 C 0.25084 0.22438 0.64500
 C2312 C 0.25087 0.23122 0.66315
 H2313 H 0.22800 0.18847 0.63577
 H2314 H 0.22679 0.16903 0.60155
 H2315 H 0.27046 0.21723 0.57353
 H2316 H 0.27134 0.23680 0.60798
 C2317 C 0.75193 0.71586 0.12108
 C2318 C 0.75817 0.69382 0.12004
 C2319 C 0.75657 0.68215 0.10090
 C2320 C 0.74859 0.69222 0.08208
 C2321 C 0.74278 0.71474 0.08333
 C2322 C 0.74431 0.72634 0.10266
 C2323 C 0.75199 0.72679 0.14158
 C2324 C 0.75153 0.73393 0.15963
 H2325 H 0.76415 0.68551 0.13418
 H2326 H 0.76233 0.66537 0.10097
 H2327 H 0.73600 0.72336 0.06979
 H2328 H 0.73912 0.74334 0.10332
 C2329 C 0.18869 0.62776 0.24115
 C2330 C 0.16968 0.62421 0.22928
 C2331 C 0.15855 0.60415 0.23081
 C2332 C 0.16621 0.58728 0.24430
 C2333 C 0.18550 0.59093 0.25594
 C2334 C 0.19660 0.61100 0.25440
 C2335 C 0.19960 0.64883 0.24052
 C2336 C 0.20879 0.66642 0.24091
 H2337 H 0.16335 0.63700 0.21898
 H2338 H 0.14398 0.60182 0.22134
 H2339 H 0.19174 0.57845 0.26665
 H2340 H 0.21121 0.61356 0.26379
 C2341 C 0.68872 0.12674 0.73855
 C2342 C 0.66708 0.12466 0.73176
 C2343 C 0.65609 0.10457 0.73376
 C2344 C 0.66646 0.08589 0.74274
 C2345 C 0.68853 0.08832 0.74919
 C2346 C 0.69942 0.10848 0.74717
 C2347 C 0.69963 0.14781 0.73775
 C2348 C 0.70890 0.16536 0.73809
 H2349 H 0.65859 0.13863 0.72497
 H2350 H 0.63964 0.10382 0.72756
 H2351 H 0.69735 0.07510 0.75680
 H2352 H 0.71612 0.10991 0.75275
 C2353 C 0.80860 0.12711 0.26011
 C2354 C 0.80969 0.11600 0.24050
 C2355 C 0.82045 0.09573 0.23887
 C2356 C 0.83036 0.08614 0.25687
 C2357 C 0.82897 0.09731 0.27661
 C2358 C 0.81820 0.11765 0.27820
 C2359 C 0.79787 0.14832 0.26126
 C2360 C 0.78878 0.16601 0.26087
 H2361 H 0.80229 0.12306 0.22638
 H2362 H 0.82091 0.08750 0.22352
 H2363 H 0.83663 0.09057 0.29073
 H2364 H 0.81756 0.12606 0.29347
 C2365 C 0.31031 0.62524 0.76174
 C2366 C 0.31136 0.61424 0.74206
 C2367 C 0.32181 0.59383 0.74038
 C2368 C 0.33144 0.58397 0.75838
 C2369 C 0.33008 0.59500 0.77819
 C2370 C 0.31962 0.61549 0.77983
 C2371 C 0.29981 0.64656 0.76296
 C2372 C 0.29084 0.66430 0.76266
 H2373 H 0.30416 0.62151 0.72794
 H2374 H 0.32224 0.58570 0.72497
 H2375 H 0.33754 0.58804 0.79231
 H2376 H 0.31898 0.62380 0.79516
 C2377 C 0.31279 0.36927 0.74119
 C2378 C 0.30193 0.38888 0.73643
 C2379 C 0.31266 0.40910 0.73852
 C2380 C 0.33469 0.41028 0.74552
 C2381 C 0.34535 0.39015 0.75010
 C2382 C 0.33453 0.37002 0.74799
 C2383 C 0.30127 0.34850 0.74047
 C2384 C 0.29150 0.33121 0.74101
 H2385 H 0.28505 0.38859 0.73116
 H2386 H 0.30363 0.42361 0.73393
 H2387 H 0.36181 0.38965 0.75631
 H2388 H 0.34306 0.35500 0.75211
 C2389 C 0.81392 0.87170 0.23898
 C2390 C 0.83303 0.87303 0.25114
 C2391 C 0.84371 0.89317 0.25376
 C2392 C 0.83546 0.91245 0.24428
 C2393 C 0.81626 0.91094 0.23200
 C2394 C 0.80559 0.89074 0.22941
 C2395 C 0.80225 0.85106 0.23761
 C2396 C 0.79238 0.83383 0.23777
 H2397 H 0.83954 0.85853 0.25889
 H2398 H 0.85823 0.89371 0.26357
 H2399 H 0.80959 0.92533 0.22422
 H2400 H 0.79074 0.89002 0.22008
 C2401 C 0.68847 0.87094 0.75743
 C2402 C 0.69587 0.88917 0.76881
 C2403 C 0.68526 0.90953 0.76689
 C2404 C 0.66695 0.91225 0.75336
 C2405 C 0.65969 0.89346 0.74210
 C2406 C 0.67032 0.87318 0.74414
 C2407 C 0.69998 0.85014 0.75850
 C2408 C 0.70964 0.83276 0.75833
 H2409 H 0.71010 0.88778 0.77896
 H2410 H 0.69224 0.92319 0.77543
 H2411 H 0.64529 0.89390 0.73218
 H2412 H 0.66434 0.85919 0.73526
 C2413 C 0.18542 0.37191 0.25831
 C2414 C 0.19573 0.39100 0.26554
 C2415 C 0.18539 0.41147 0.26351
 C2416 C 0.16455 0.41320 0.25411
 C2417 C 0.15428 0.39388 0.24702
 C2418 C 0.16464 0.37344 0.24909
 C2419 C 0.19655 0.35091 0.25934
 C2420 C 0.20604 0.33344 0.25933
 H2421 H 0.21190 0.39012 0.27253
 H2422 H 0.19389 0.42599 0.26894
 H2423 H 0.13812 0.39451 0.24004
 H2424 H 0.15647 0.35884 0.24336
 C2425 C 0.12129 0.25321 0.81504
 C2426 C 0.10695 0.23543 0.81360
 C2427 C 0.08698 0.23589 0.82467
 C2428 C 0.08123 0.25415 0.83729
 C2429 C 0.09565 0.27206 0.83843
 C2430 C 0.11564 0.27156 0.82735
 C2431 C 0.14196 0.25245 0.80408
 C2432 C 0.15935 0.25176 0.79494
 H2433 H 0.11124 0.22121 0.80401
 H2434 H 0.07598 0.22203 0.82331
 H2435 H 0.09166 0.28621 0.84823
 H2436 H 0.12676 0.28536 0.82852
 C2437 C 0.62199 0.75535 0.31168
 C2438 C 0.60768 0.73755 0.31011
 C2439 C 0.58771 0.73787 0.32119
 C2440 C 0.58193 0.75602 0.33395
 C2441 C 0.59633 0.77394 0.33526
 C2442 C 0.61632 0.77357 0.32416
 C2443 C 0.64264 0.75476 0.30068
 C2444 C 0.66002 0.75424 0.29153
 H2445 H 0.61200 0.72343 0.30039
 H2446 H 0.57674 0.72400 0.31973
 H2447 H 0.59233 0.78799 0.34518
 H2448 H 0.62741 0.78738 0.32545
 C2449 C 0.62664 0.25365 0.18367
 C2450 C 0.60928 0.26692 0.19070
 C2451 C 0.58915 0.26591 0.18044
 C2452 C 0.58629 0.25158 0.16309
 C2453 C 0.60391 0.23844 0.15604
 C2454 C 0.62402 0.23947 0.16633
 C2455 C 0.64693 0.25397 0.19473
 C2456 C 0.66388 0.25377 0.20420
 H2457 H 0.61128 0.27791 0.20417
 H2458 H 0.57587 0.27639 0.18596
 H2459 H 0.60200 0.22710 0.14285
 H2460 H 0.63742 0.22906 0.16094
 C2461 C 0.12560 0.75074 0.69068
 C2462 C 0.10879 0.76539 0.69618
 C2463 C 0.08932 0.76530 0.68471
 C2464 C 0.08665 0.75058 0.66764
 C2465 C 0.10360 0.73580 0.66239
 C2466 C 0.12301 0.73591 0.67388
 C2467 C 0.14573 0.75098 0.70203
 C2468 C 0.16287 0.75083 0.71118
 H2469 H 0.11080 0.77694 0.70919
 H2470 H 0.07653 0.77695 0.68889
 H2471 H 0.10177 0.72410 0.64950
 H2472 H 0.13600 0.72449 0.66963
 C2473 C 0.88006 0.74552 0.69152
 C2474 C 0.89744 0.75874 0.69786
 C2475 C 0.91717 0.75838 0.68634
 C2476 C 0.91983 0.74474 0.66819
 C2477 C 0.90203 0.73123 0.66230
 C2478 C 0.88238 0.73169 0.67387
 C2479 C 0.85948 0.74658 0.70259
 C2480 C 0.84189 0.74736 0.71132
 H2481 H 0.89573 0.76940 0.71167
 H2482 H 0.93042 0.76841 0.69220
 H2483 H 0.90262 0.72106 0.64813
 H2484 H 0.86881 0.72156 0.66877
 C2485 C 0.38031 0.24927 0.20191
 C2486 C 0.39287 0.23005 0.20136
 C2487 C 0.41250 0.22955 0.18967
 C2488 C 0.41963 0.24827 0.17842
 C2489 C 0.40716 0.26768 0.17957
 C2490 C 0.38756 0.26814 0.19127
 C2491 C 0.35920 0.24925 0.21202
 C2492 C 0.34112 0.24935 0.21976
 H2493 H 0.38725 0.21537 0.20954
 H2494 H 0.42197 0.21449 0.18919
 H2495 H 0.41213 0.28222 0.17080
 H2496 H 0.37777 0.28301 0.19151
 C2497 C 0.37748 0.76124 0.30239
 C2498 C 0.39606 0.74970 0.29537
 C2499 C 0.41546 0.75106 0.30690
 C2500 C 0.41624 0.76386 0.32557
 C2501 C 0.39773 0.77604 0.33200
 C2502 C 0.37841 0.77471 0.32043
 C2503 C 0.35696 0.75828 0.29208
 C2504 C 0.33925 0.75600 0.28433
 H2505 H 0.39535 0.73918 0.28142
 H2506 H 0.42950 0.74138 0.30181
 H2507 H 0.39809 0.78618 0.34623
 H2508 H 0.36404 0.78370 0.32590
 C2509 C 0.87895 0.25118 0.80145
 C2510 C 0.89409 0.26798 0.79749
 C2511 C 0.91285 0.26954 0.80999
 C2512 C 0.91636 0.25441 0.82659
 C2513 C 0.90135 0.23725 0.82999
 C2514 C 0.88271 0.23568 0.81748
 C2515 C 0.85867 0.25066 0.79036
 C2516 C 0.84107 0.25015 0.78207
 H2517 H 0.89112 0.28012 0.78516
 H2518 H 0.92421 0.28292 0.80718
 H2519 H 0.90395 0.22519 0.84248
 H2520 H 0.87099 0.22267 0.82062
 C2521 C 0.54027 1.02170 0.62797
 C2522 C 0.53188 1.00652 0.64281
 C2523 C 0.54259 1.00291 0.66224
 C2524 C 0.56199 1.01432 0.66700
 C2525 C 0.56989 1.03004 0.65226
 C2526 C 0.55914 1.03365 0.63290
 C2527 C 0.53128 1.02302 0.60672
 C2528 C 0.52509 1.02278 0.58841
 H2529 H 0.51748 0.99692 0.63907
 H2530 H 0.53619 0.99059 0.67313
 H2531 H 0.58456 1.03937 0.65559
 H2532 H 0.56593 1.04529 0.62149
 C2533 C 0.04167 0.52395 1.12655
 C2534 C 0.03029 0.51464 1.14385
 C2535 C 0.04084 0.51096 1.16336
 C2536 C 0.06338 0.51618 1.16608
 C2537 C 0.07424 0.52630 1.14837
 C2538 C 0.06355 0.53001 1.12901
 C2539 C 0.03201 0.52489 1.10556
 C2540 C 0.02539 0.52418 1.08741
 H2541 H 0.01341 0.50947 1.14204
 H2542 H 0.03133 0.50259 1.17557
 H2543 H 0.09090 0.53218 1.14923
 H2544 H 0.07259 0.53729 1.11574
 C2545 C -0.03798 -0.01338 1.12869
 C2546 C -0.02837 -0.00224 1.14573
 C2547 C -0.03967 -0.00003 1.16532
 C2548 C -0.06108 -0.00868 1.16820
 C2549 C -0.07015 -0.02043 1.15089
 C2550 C -0.05875 -0.02268 1.13146
 C2551 C -0.02784 -0.01348 1.10768
 C2552 C -0.02109 -0.01275 1.08942
 H2553 H -0.01242 0.00534 1.14370
 H2554 H -0.03193 0.00961 1.17761
 H2555 H -0.08592 -0.02843 1.15224
 H2556 H -0.06639 -0.03138 1.11840
 C2557 C 0.46014 0.49095 0.62722
 C2558 C 0.44108 0.50364 0.62941
 C2559 C 0.43007 0.50493 0.64911
 C2560 C 0.43792 0.49351 0.66705
 C2561 C 0.45730 0.48099 0.66483
 C2562 C 0.46831 0.47968 0.64500
 C2563 C 0.47064 0.48958 0.60642
 C2564 C 0.47763 0.48968 0.58824
 H2565 H 0.43462 0.51251 0.61581
 H2566 H 0.41544 0.51500 0.65033
 H2567 H 0.46365 0.47186 0.67830
 H2568 H 0.48302 0.46976 0.64350
 C2569 C 0.46638 0.51154 -0.12969
 C2570 C 0.45532 0.52954 -0.13845
 C2571 C 0.44396 0.52732 -0.15770
 C2572 C 0.44336 0.50698 -0.16839
 C2573 C 0.45502 0.48916 -0.15974
 C2574 C 0.46640 0.49143 -0.14055
 C2575 C 0.47545 0.51280 -0.10847
 C2576 C 0.48161 0.51263 -0.09015
 H2577 H 0.45487 0.54510 -0.13007
 H2578 H 0.43495 0.54130 -0.16377
 H2579 H 0.45514 0.47338 -0.16770
 H2580 H 0.47471 0.47731 -0.13385
 C2581 C -0.03488 1.01576 0.37045
 C2582 C -0.04623 1.03360 0.36173
 C2583 C -0.05745 1.03126 0.34240
 C2584 C -0.05761 1.01097 0.33160
 C2585 C -0.04566 0.99333 0.34023
 C2586 C -0.03442 0.99572 0.35949
 C2587 C -0.02584 1.01705 0.39169
 C2588 C -0.01958 1.01670 0.40999
 H2589 H -0.04700 1.04911 0.37018
 H2590 H -0.06667 1.04510 0.33633
 H2591 H -0.04520 0.97759 0.33219
 H2592 H -0.02587 0.98172 0.36614
 C2593 C 0.03538 0.48315 0.37028
 C2594 C 0.04572 0.46539 0.36010
 C2595 C 0.05616 0.46830 0.34016
 C2596 C 0.05656 0.48908 0.33023
 C2597 C 0.04558 0.50665 0.34033
 C2598 C 0.03511 0.50369 0.36019
 C2599 C 0.02706 0.48114 0.39196
 C2600 C 0.02126 0.48093 0.41054
 H2601 H 0.04630 0.44948 0.36784
 H2602 H 0.06466 0.45450 0.33294
 H2603 H 0.04534 0.52277 0.33300
 H2604 H 0.02731 0.51762 0.36795
 C2605 C 0.53838 -0.01788 -0.12853
 C2606 C 0.54883 -0.03570 -0.13852
 C2607 C 0.55936 -0.03295 -0.15842
 C2608 C 0.55976 -0.01226 -0.16853
 C2609 C 0.54873 0.00538 -0.15861
 C2610 C 0.53816 0.00258 -0.13879
 C2611 C 0.52985 -0.01974 -0.10692
 C2612 C 0.52384 -0.01982 -0.08841
 H2613 H 0.54938 -0.05155 -0.13065
 H2614 H 0.56791 -0.04680 -0.16550
 H2615 H 0.54847 0.02143 -0.16609
 H2616 H 0.53028 0.01655 -0.13118
 C2617 C 0.62543 0.55764 -0.01284
 C2618 C 0.62795 0.57858 -0.02179
 C2619 C 0.64768 0.59007 -0.01950
 C2620 C 0.66529 0.58086 -0.00812
 C2621 C 0.66278 0.55959 0.00044
 C2622 C 0.64300 0.54813 -0.00185
 C2623 C 0.60438 0.54665 -0.01355
 C2624 C 0.58655 0.53790 -0.01306
 H2625 H 0.61452 0.58621 -0.03026
 H2626 H 0.64912 0.60622 -0.02663
 H2627 H 0.67587 0.55207 0.00946
 H2628 H 0.64125 0.53203 0.00536
 C2629 C 0.12559 1.05927 0.48786
 C2630 C 0.13560 1.06053 0.50790
 C2631 C 0.15570 1.07130 0.51014
 C2632 C 0.16624 1.08107 0.49235
 C2633 C 0.15626 1.07939 0.47216
 C2634 C 0.13608 1.06861 0.46996
 C2635 C 0.10427 1.04899 0.48619
 C2636 C 0.08632 1.04050 0.48632
 H2637 H 0.12772 1.05337 0.52190
 H2638 H 0.16301 1.07198 0.52584
 H2639 H 0.16376 1.08693 0.45818
 H2640 H 0.12851 1.06784 0.45437
 C2641 C 0.12341 -0.05929 1.01089
 C2642 C 0.14253 -0.04776 1.00550
 C2643 C 0.16259 -0.05886 1.00298
 C2644 C 0.16397 -0.08193 1.00557
 C2645 C 0.14443 -0.09314 1.01145
 C2646 C 0.12451 -0.08196 1.01401
 C2647 C 0.10236 -0.04829 1.01170
 C2648 C 0.08448 -0.03965 1.01127
 H2649 H 0.14187 -0.03021 1.00274
 H2650 H 0.17663 -0.04926 0.99795
 H2651 H 0.14434 -0.11055 1.01478
 H2652 H 0.10985 -0.09111 1.01826
 C2653 C 0.62218 0.44123 0.51081
 C2654 C 0.64135 0.45246 0.50496
 C2655 C 0.66130 0.44115 0.50258
 C2656 C 0.66255 0.41815 0.50578
 C2657 C 0.64297 0.40726 0.51212
 C2658 C 0.62314 0.41865 0.51454
 C2659 C 0.60123 0.45245 0.51146
 C2660 C 0.58347 0.46133 0.51089
 H2661 H 0.64079 0.46993 0.50174
 H2662 H 0.67535 0.45052 0.49716
 H2663 H 0.64278 0.38994 0.51590
 H2664 H 0.60846 0.40973 0.51914
 C2665 C -0.12226 0.43302 0.48948
 C2666 C -0.14056 0.44444 0.49755
 C2667 C -0.16111 0.43418 0.49895
 C2668 C -0.16372 0.41228 0.49228
 C2669 C -0.14522 0.40096 0.48415
 C2670 C -0.12470 0.41124 0.48279
 C2671 C -0.10086 0.44329 0.48904
 C2672 C -0.08296 0.45186 0.48955
 H2673 H -0.13892 0.46126 0.50290
 H2674 H -0.17500 0.44347 0.50504
 H2675 H -0.14649 0.38400 0.47920
 H2676 H -0.11067 0.40210 0.47674
 C2677 C 0.37999 -0.06835 -0.00934
 C2678 C 0.36153 -0.05632 -0.00260
 C2679 C 0.34095 -0.06647 -0.00081
 C2680 C 0.33849 -0.08887 -0.00575
 C2681 C 0.35718 -0.10081 -0.01247
 C2682 C 0.37772 -0.09063 -0.01423
 C2683 C 0.40140 -0.05812 -0.01014
 C2684 C 0.41929 -0.04954 -0.00982
 H2685 H 0.36306 -0.03909 0.00139
 H2686 H 0.32692 -0.05673 0.00418
 H2687 H 0.35602 -0.11814 -0.01607
 H2688 H 0.39187 -0.10023 -0.01920
 C2689 C 0.38190 1.07197 0.51140
 C2690 C 0.37957 1.09174 0.50018
 C2691 C 0.35890 1.10160 0.49826
 C2692 C 0.34010 1.09185 0.50752
 C2693 C 0.34261 1.07199 0.51885
 C2694 C 0.36333 1.06214 0.52075
 C2695 C 0.40315 1.06130 0.51218
 C2696 C 0.42092 1.05237 0.51166
 H2697 H 0.39371 1.09942 0.49264
 H2698 H 0.35761 1.11667 0.48915
 H2699 H 0.32859 1.06416 0.52642
 H2700 H 0.36484 1.04678 0.52938
 C2701 C -0.11877 0.57007 1.00881
 C2702 C -0.13170 0.57331 1.02723
 C2703 C -0.15255 0.58294 1.02572
 C2704 C -0.16087 0.58950 1.00571
 C2705 C -0.14780 0.58601 0.98728
 C2706 C -0.12696 0.57640 0.98884
 C2707 C -0.09729 0.55993 1.01011
 C2708 C -0.07942 0.55117 1.01006
 H2709 H -0.12570 0.56835 1.04277
 H2710 H -0.16225 0.58508 1.04021
 H2711 H -0.15349 0.59110 0.97168
 H2712 H -0.11718 0.57398 0.97442
 C2713 C 0.01213 0.62188 0.54575
 C2714 C 0.02882 0.62709 0.56000
 C2715 C 0.02970 0.64801 0.56889
 C2716 C 0.01381 0.66380 0.56360
 C2717 C -0.00233 0.65869 0.54855
 C2718 C -0.00317 0.63775 0.53968
 C2719 C 0.00989 0.59991 0.53834
 C2720 C 0.00767 0.58142 0.53231
 H2721 H 0.04075 0.61483 0.56467
 H2722 H 0.04242 0.65171 0.58029
 H2723 H -0.01489 0.67051 0.54443
 H2724 H -0.01616 0.63373 0.52866
 C2725 C 0.50795 0.12196 0.04730
 C2726 C 0.52395 0.12777 0.06206
 C2727 C 0.52344 0.14850 0.07140
 C2728 C 0.50686 0.16353 0.06605
 C2729 C 0.49137 0.15787 0.05055
 C2730 C 0.49190 0.13709 0.04124
 C2731 C 0.50718 0.10004 0.03941
 C2732 C 0.50616 0.08153 0.03306
 H2733 H 0.53645 0.11609 0.06676
 H2734 H 0.53572 0.15265 0.08311
 H2735 H 0.47834 0.16914 0.04634
 H2736 H 0.47943 0.13260 0.02983
 C2737 C -0.01688 0.12040 0.94210
 C2738 C -0.02905 0.13695 0.95222
 C2739 C -0.02931 0.15804 0.94352
 C2740 C -0.01737 0.16262 0.92465
 C2741 C -0.00554 0.14572 0.91441
 C2742 C -0.00532 0.12470 0.92312
 C2743 C -0.01508 0.09928 0.95174
 C2744 C -0.01282 0.08162 0.95984
 H2745 H -0.03798 0.13365 0.96699
 H2746 H -0.03870 0.17077 0.95156
 H2747 H 0.00408 0.14891 0.90005
 H2748 H 0.00427 0.11194 0.91533
 C2749 C 0.48516 0.62358 0.44182
 C2750 C 0.47351 0.64039 0.45212
 C2751 C 0.47320 0.66139 0.44318
 C2752 C 0.48456 0.66562 0.42390
 C2753 C 0.49595 0.64848 0.41356
 C2754 C 0.49622 0.62756 0.42250
 C2755 C 0.48674 0.60243 0.45149
 C2756 C 0.48869 0.58470 0.45953
 H2757 H 0.46495 0.63735 0.46714
 H2758 H 0.46416 0.67430 0.45133
 H2759 H 0.50513 0.65141 0.39888
 H2760 H 0.50540 0.61460 0.41456
 C2761 C 0.50735 0.87749 0.45898
 C2762 C 0.48787 0.86570 0.46177
 C2763 C 0.48615 0.84459 0.45349
 C2764 C 0.50394 0.83515 0.44234
 C2765 C 0.52387 0.84661 0.44065
 C2766 C 0.52554 0.86780 0.44890
 C2767 C 0.50790 0.90000 0.46515
 C2768 C 0.50737 0.91892 0.47032
 H2769 H 0.47376 0.87314 0.46964
 H2770 H 0.47070 0.83594 0.45507
 H2771 H 0.53769 0.83971 0.43189
 H2772 H 0.54065 0.87691 0.44670
 C2773 C 0.00461 0.37347 0.96393
 C2774 C -0.01507 0.36190 0.96610
 C2775 C -0.01679 0.34089 0.95758
 C2776 C 0.00119 0.33136 0.94679
 C2777 C 0.02130 0.34258 0.94580
 C2778 C 0.02297 0.36365 0.95430
 C2779 C 0.00523 0.39604 0.96987
 C2780 C 0.00493 0.41509 0.97454
 H2781 H -0.02932 0.36947 0.97359
 H2782 H -0.03238 0.33242 0.95865
 H2783 H 0.03528 0.33564 0.93733
 H2784 H 0.03823 0.37261 0.95254
 C2785 C 0.48217 0.37658 0.05376
 C2786 C 0.47833 0.35794 0.04130
 C2787 C 0.47915 0.33715 0.05069
 C2788 C 0.48403 0.33504 0.07251
 C2789 C 0.48682 0.35391 0.08506
 C2790 C 0.48591 0.37461 0.07570
 C2791 C 0.48437 0.39761 0.04393
 C2792 C 0.48717 0.41537 0.03613
 H2793 H 0.47553 0.35943 0.02426
 H2794 H 0.47704 0.32275 0.04078
 H2795 H 0.49032 0.35259 0.10198
 H2796 H 0.48890 0.38901 0.08540
 C2797 C -0.01042 0.87335 0.54415
 C2798 C -0.02828 0.86468 0.55558
 C2799 C -0.02686 0.84361 0.56426
 C2800 C -0.00749 0.83132 0.56164
 C2801 C 0.00994 0.83981 0.54932
 C2802 C 0.00846 0.86076 0.54060
 C2803 C -0.01051 0.89564 0.53721
 C2804 C -0.00919 0.91427 0.53125
 H2805 H -0.04292 0.87443 0.55838
 H2806 H -0.04039 0.83737 0.57388
 H2807 H 0.02493 0.83048 0.54699
 H2808 H 0.02231 0.86743 0.53171
 C2809 C 0.27168 0.28725 0.12454
 C2810 C 0.28324 0.30655 0.11989
 C2811 C 0.27988 0.31762 0.10055
 C2812 C 0.26480 0.30962 0.08555
 C2813 C 0.25381 0.28980 0.09003
 C2814 C 0.25716 0.27876 0.10943
 C2815 C 0.27245 0.27800 0.14583
 C2816 C 0.27159 0.27174 0.16419
 H2817 H 0.29433 0.31344 0.13151
 H2818 H 0.28888 0.33263 0.09745
 H2819 H 0.24198 0.28329 0.07893
 H2820 H 0.24784 0.26405 0.11296
 C2821 C 0.76993 0.78673 0.62083
 C2822 C 0.78200 0.80575 0.61633
 C2823 C 0.77885 0.81714 0.59714
 C2824 C 0.76349 0.80974 0.58213
 C2825 C 0.75197 0.79019 0.58645
 C2826 C 0.75510 0.77884 0.60571
 C2827 C 0.77072 0.77715 0.64197
 C2828 C 0.77013 0.77069 0.66027
 H2829 H 0.79336 0.81218 0.62796
 H2830 H 0.78826 0.83192 0.59416
 H2831 H 0.73991 0.78415 0.57532
 H2832 H 0.74539 0.76433 0.60913
 C2833 C 0.23467 0.71132 0.62329
 C2834 C 0.22156 0.69303 0.61905
 C2835 C 0.22343 0.68215 0.59940
 C2836 C 0.23851 0.68935 0.58366
 C2837 C 0.25115 0.70817 0.58779
 C2838 C 0.24929 0.71901 0.60751
 C2839 C 0.23474 0.72056 0.64456
 C2840 C 0.23564 0.72689 0.66285
 H2841 H 0.21030 0.68680 0.63116
 H2842 H 0.21321 0.66794 0.59661
 H2843 H 0.26304 0.71402 0.57609
 H2844 H 0.25974 0.73298 0.61068
 C2845 C 0.73703 0.21349 0.12007
 C2846 C 0.72338 0.19557 0.11596
 C2847 C 0.72515 0.18430 0.09652
 C2848 C 0.74068 0.19073 0.08087
 C2849 C 0.75386 0.20920 0.08484
 C2850 C 0.75211 0.22043 0.10437
 C2851 C 0.73709 0.22304 0.14121
 C2852 C 0.73779 0.22950 0.15946
 H2853 H 0.71176 0.18992 0.12802
 H2854 H 0.71453 0.17037 0.09382
 H2855 H 0.76609 0.21445 0.07320
 H2856 H 0.76296 0.23410 0.10745
 C2857 C 0.76828 0.20706 0.87439
 C2858 C 0.75972 0.18578 0.87549
 C2859 C 0.75650 0.17548 0.89526
 C2860 C 0.76179 0.18630 0.91439
 C2861 C 0.77074 0.20759 0.91319
 C2862 C 0.77388 0.21795 0.89329
 C2863 C 0.77000 0.21761 0.85372
 C2864 C 0.76977 0.22474 0.83567
 H2865 H 0.75528 0.17718 0.86099
 H2866 H 0.74998 0.15896 0.89557
 H2867 H 0.77486 0.21639 0.92765
 H2868 H 0.78037 0.23448 0.89268
 C2869 C 0.26616 0.70987 0.37712
 C2870 C 0.25773 0.68853 0.37796
 C2871 C 0.25447 0.67800 0.39761
 C2872 C 0.25957 0.68865 0.41688
 C2873 C 0.26836 0.71003 0.41595
 C2874 C 0.27154 0.72061 0.39617
 C2875 C 0.26800 0.72059 0.35654
 C2876 C 0.26786 0.72772 0.33848
 H2877 H 0.25346 0.68004 0.36336
 H2878 H 0.24808 0.66143 0.39771
 H2879 H 0.27233 0.71869 0.43052
 H2880 H 0.27793 0.73719 0.39576
 C2881 C 0.73584 0.79222 0.37706
 C2882 C 0.72982 0.78148 0.39610
 C2883 C 0.73252 0.79201 0.41587
 C2884 C 0.74140 0.81333 0.41682
 C2885 C 0.74719 0.82396 0.39755
 C2886 C 0.74443 0.81348 0.37790
 C2887 C 0.73411 0.78166 0.35646
 C2888 C 0.73404 0.77458 0.33840
 H2889 H 0.72326 0.76498 0.39568
 H2890 H 0.72804 0.78334 0.43043
 H2891 H 0.75366 0.84049 0.39765
 H2892 H 0.74914 0.82198 0.36329
 C2893 C 0.23522 0.28983 0.88045
 C2894 C 0.22973 0.27903 0.89960
 C2895 C 0.23255 0.28965 0.91931
 C2896 C 0.24105 0.31114 0.92008
 C2897 C 0.24632 0.32183 0.90072
 C2898 C 0.24343 0.31126 0.88113
 C2899 C 0.23342 0.27918 0.85991
 C2900 C 0.23331 0.27204 0.84187
 H2901 H 0.22347 0.26241 0.89931
 H2902 H 0.22847 0.28093 0.93395
 H2903 H 0.25249 0.33848 0.90068
 H2904 H 0.24775 0.31981 0.86644
 C2905 C 0.81349 0.37103 0.76059
 C2906 C 0.83172 0.37495 0.77346
 C2907 C 0.84264 0.39516 0.77239
 C2908 C 0.83554 0.41182 0.75837
 C2909 C 0.81696 0.40784 0.74577
 C2910 C 0.80608 0.38761 0.74686
 C2911 C 0.80302 0.34971 0.76062
 C2912 C 0.79439 0.33185 0.75971
 H2913 H 0.83767 0.36230 0.78414
 H2914 H 0.85665 0.39775 0.78257
 H2915 H 0.81119 0.42013 0.73463
 H2916 H 0.79209 0.38477 0.73670
 C2917 C 0.31170 0.87316 0.26169
 C2918 C 0.33434 0.87402 0.26459
 C2919 C 0.34563 0.89394 0.26275
 C2920 C 0.33463 0.91392 0.25780
 C2921 C 0.31148 0.91257 0.25535
 C2922 C 0.30032 0.89252 0.25718
 C2923 C 0.30046 0.85221 0.26212
 C2924 C 0.29146 0.83452 0.26155
 H2925 H 0.34339 0.85917 0.26823
 H2926 H 0.36293 0.89331 0.26617
 H2927 H 0.30168 0.92656 0.25082
 H2928 H 0.28277 0.89208 0.25459
 C2929 C 0.18830 0.87140 0.73890
 C2930 C 0.19568 0.88784 0.75273
 C2931 C 0.18474 0.90807 0.75398
 C2932 C 0.16612 0.91221 0.74144
 C2933 C 0.15908 0.89571 0.72729
 C2934 C 0.17005 0.87549 0.72607
 C2935 C 0.19874 0.85001 0.73880
 C2936 C 0.20729 0.83207 0.73969
 H2937 H 0.20967 0.88487 0.76288
 H2938 H 0.19048 0.92023 0.76521
 H2939 H 0.14505 0.89841 0.71714
 H2940 H 0.16411 0.86296 0.71531
 C2941 C 0.68865 0.37393 0.23552
 C2942 C 0.69650 0.39027 0.24922
 C2943 C 0.68564 0.41051 0.25091
 C2944 C 0.66663 0.41475 0.23897
 C2945 C 0.65913 0.39837 0.22493
 C2946 C 0.67002 0.37814 0.22326
 C2947 C 0.69892 0.35247 0.23516
 C2948 C 0.70728 0.33445 0.23598
 H2949 H 0.71079 0.38720 0.25895
 H2950 H 0.69175 0.42259 0.26204
 H2951 H 0.64478 0.40116 0.21524
 H2952 H 0.66370 0.36568 0.21264
 C2953 C 0.68396 0.63031 0.26053
 C2954 C 0.68336 0.62004 0.24048
 C2955 C 0.67357 0.59942 0.23822
 C2956 C 0.66416 0.58860 0.25602
 C2957 C 0.66505 0.59892 0.27620
 C2958 C 0.67485 0.61963 0.27842
 C2959 C 0.69373 0.65189 0.26227
 C2960 C 0.70209 0.66991 0.26210
 H2961 H 0.69040 0.62805 0.22650
 H2962 H 0.67349 0.59189 0.22253
 H2963 H 0.65775 0.59121 0.29019
 H2964 H 0.67513 0.62736 0.29402
 C2965 C 0.18306 0.12767 0.76354
 C2966 C 0.17359 0.11688 0.78120
 C2967 C 0.16374 0.09624 0.77866
 C2968 C 0.16315 0.08607 0.75838
 C2969 C 0.17291 0.09700 0.74083
 C2970 C 0.18274 0.11756 0.74340
 C2971 C 0.19290 0.14920 0.76559
 C2972 C 0.20134 0.16720 0.76558
 H2973 H 0.17364 0.12449 0.79687
 H2974 H 0.15617 0.08845 0.79248
 H2975 H 0.17307 0.08959 0.72508
 H2976 H 0.19005 0.12564 0.72959
 C2977 C 0.31404 0.12802 0.24500
 C2978 C 0.31818 0.11578 0.22642
 C2979 C 0.32868 0.09532 0.22768
 C2980 C 0.33525 0.08671 0.24759
 C2981 C 0.33077 0.09904 0.26620
 C2982 C 0.32028 0.11949 0.26489
 C2983 C 0.30347 0.14931 0.24384
 C2984 C 0.29464 0.16715 0.24382
 H2985 H 0.31337 0.12206 0.21093
 H2986 H 0.33156 0.08618 0.21306
 H2987 H 0.33581 0.09312 0.28174
 H2988 H 0.31721 0.12876 0.27942
 C2989 C 0.81522 0.62659 0.74034
 C2990 C 0.82493 0.61650 0.72242
 C2991 C 0.83528 0.59599 0.72445
 C2992 C 0.83614 0.58528 0.74446
 C2993 C 0.82613 0.59550 0.76228
 C2994 C 0.81579 0.61593 0.76022
 C2995 C 0.80501 0.64803 0.73874
 C2996 C 0.79642 0.66598 0.73876
 H2997 H 0.82471 0.62455 0.70695
 H2998 H 0.84303 0.58877 0.71044
 H2999 H 0.82618 0.58764 0.77785
 H3000 H 0.80832 0.62348 0.77423
 C3001 C 0.87003 0.75712 0.19320
 C3002 C 0.88829 0.75936 0.20619
 C3003 C 0.90933 0.75866 0.19723
 C3004 C 0.91263 0.75567 0.17487
 C3005 C 0.89361 0.75367 0.16209
 C3006 C 0.87266 0.75437 0.17120
 C3007 C 0.84854 0.75694 0.20252
 C3008 C 0.83052 0.75639 0.21039
 H3009 H 0.88628 0.76170 0.22331
 H3010 H 0.92273 0.76151 0.20804
 H3011 H 0.89446 0.75021 0.14514
 H3012 H 0.85848 0.75232 0.16108
 C3013 C 0.36938 0.25562 0.69684
 C3014 C 0.38654 0.26594 0.70752
 C3015 C 0.40748 0.26633 0.69827
 C3016 C 0.41132 0.25641 0.67827
 C3017 C 0.39393 0.24610 0.66769
 C3018 C 0.37305 0.24572 0.67696
 C3019 C 0.34800 0.25486 0.70637
 C3020 C 0.33002 0.25398 0.71427
 H3021 H 0.38373 0.27364 0.72295
 H3022 H 0.42059 0.27455 0.70661
 H3023 H 0.39657 0.23806 0.65241
 H3024 H 0.35980 0.23760 0.66869
 C3025 C 0.37109 0.73800 0.80698
 C3026 C 0.38878 0.72829 0.79611
 C3027 C 0.40963 0.72880 0.80504
 C3028 C 0.41285 0.73904 0.82490
 C3029 C 0.39489 0.74854 0.83578
 C3030 C 0.37410 0.74801 0.82683
 C3031 C 0.34997 0.73861 0.79744
 C3032 C 0.33221 0.73976 0.78952
 H3033 H 0.38650 0.72056 0.78068
 H3034 H 0.42320 0.72118 0.79648
 H3035 H 0.39702 0.75681 0.85095
 H3036 H 0.36044 0.75569 0.83522
 C3037 C 0.86726 0.23689 0.30848
 C3038 C 0.88460 0.22636 0.29781
 C3039 C 0.90550 0.22655 0.30663
 C3040 C 0.90911 0.23732 0.32615
 C3041 C 0.89144 0.24745 0.33694
 C3042 C 0.87059 0.24724 0.32810
 C3043 C 0.84630 0.23825 0.29872
 C3044 C 0.82881 0.24003 0.29038
 H3045 H 0.88205 0.21837 0.28256
 H3046 H 0.91884 0.21844 0.29816
 H3047 H 0.89389 0.25611 0.35185
 H3048 H 0.85720 0.25556 0.33632
 C3049 C 0.12014 0.26278 0.28785
 C3050 C 0.10681 0.24519 0.28201
 C3051 C 0.08537 0.24396 0.28983
 C3052 C 0.07717 0.26034 0.30355
 C3053 C 0.09012 0.27877 0.30808
 C3054 C 0.11165 0.27993 0.30030
 C3055 C 0.14301 0.26187 0.28283
 C3056 C 0.16216 0.25996 0.27868
 H3057 H 0.11334 0.23189 0.27233
 H3058 H 0.07556 0.22968 0.28612
 H3059 H 0.08416 0.29144 0.31883
 H3060 H 0.12196 0.29356 0.30489
 C3061 C 0.62535 0.76266 0.79156
 C3062 C 0.61713 0.77938 0.80473
 C3063 C 0.59553 0.77833 0.81233
 C3064 C 0.58221 0.76044 0.80689
 C3065 C 0.59022 0.74445 0.79263
 C3066 C 0.61173 0.74558 0.78500
 C3067 C 0.64811 0.76181 0.78604
 C3068 C 0.66707 0.75987 0.78110
 H3069 H 0.62766 0.79264 0.80985
 H3070 H 0.58971 0.79068 0.82351
 H3071 H 0.58013 0.73059 0.78821
 H3072 H 0.61802 0.73263 0.77473
 C3073 C 0.62387 0.23877 0.70727
 C3074 C 0.61067 0.25676 0.71266
 C3075 C 0.58948 0.25828 0.70473
 C3076 C 0.58136 0.24178 0.69133
 C3077 C 0.59428 0.22315 0.68694
 C3078 C 0.61554 0.22170 0.69485
 C3079 C 0.64639 0.23888 0.71323
 C3080 C 0.66524 0.24010 0.71832
 H3081 H 0.61705 0.27000 0.72233
 H3082 H 0.57971 0.27269 0.70840
 H3083 H 0.58839 0.21037 0.67644
 H3084 H 0.62575 0.20774 0.69061
 C3085 C 0.12260 0.73592 0.20959
 C3086 C 0.10845 0.75293 0.21568
 C3087 C 0.08737 0.75389 0.20740
 C3088 C 0.08032 0.73780 0.19298
 C3089 C 0.09414 0.71999 0.18799
 C3090 C 0.11531 0.71911 0.19623
 C3091 C 0.14509 0.73700 0.21561
 C3092 C 0.16387 0.73907 0.22069
 H3093 H 0.11403 0.76597 0.22606
 H3094 H 0.07689 0.76767 0.21151
 H3095 H 0.08909 0.70756 0.17671
 H3096 H 0.12626 0.70592 0.19145
   
