data_POSCAR
  _audit_creation_date              2014-09-24
  _audit_creation_method            'ToBaCCo'
  _symmetry_space_group_name_H-M    'P1'
  _symmetry_Int_Tables_number       1
  _symmetry_cell_setting            triclinic
  loop_
  _symmetry_equiv_pos_as_xyz
 x,y,z
_cell_length_a 50.7106
_cell_length_b 52.5511
_cell_length_c 51.9081
_cell_angle_alpha 88.889100
_cell_angle_beta 90.816100
_cell_angle_gamma 91.595800
loop_
  _atom_site_label
  _atom_site_type_symbol
  _atom_site_fract_x
  _atom_site_fract_y
  _atom_site_fract_z
C1 C 0.37522 0.00882 0.25162
 C2 C 0.11387 -0.01007 0.75416
 C3 C 0.62287 0.49782 0.25497
 C4 C 0.86666 0.50294 0.73873
 C5 C 0.25449 0.36045 0.98757
 C6 C 0.74985 0.13495 1.00701
 C7 C 0.25488 0.63559 0.51640
 C8 C 0.73549 0.86776 0.48560
 C9 C 0.00706 0.24137 0.37346
 C10 C 0.00717 0.74854 0.10979
 C11 C 0.49707 0.25583 0.60419
 C12 C 0.51054 0.75657 0.86336
 C13 C -0.23271 0.62834 0.99196
 C14 C -0.25068 0.37507 0.50374
 C15 C 0.23918 -0.13473 0.01505
 C16 C 0.24729 1.13495 0.49987
 C17 C 0.11997 0.50097 0.24340
 C18 C -0.12806 1.00679 0.25154
 C19 C 0.36539 0.49616 -0.24882
 C20 C 0.62567 -0.00619 -0.24320
 C21 C -0.00002 0.25490 0.87178
 C22 C 0.49997 0.24966 0.10307
 C23 C 0.00317 0.73777 0.60662
 C24 C 0.50933 0.75894 0.37722
 Zr25 Zr 0.01999 -0.00703 1.04136
 O26 O 0.04328 0.01084 1.07034
 O27 O 0.01838 -0.04482 1.05455
 O28 O 0.00070 -0.00934 1.07721
 O29 O 0.07110 -0.01302 0.99838
 O30 O -0.03981 0.00680 1.06811
 O31 O 0.05951 -0.01903 1.04051
 O32 O -0.00801 -0.06474 1.02476
 O33 O -0.01899 -0.01833 1.03248
 O34 O 0.02115 -0.02632 1.00656
 O35 O -0.00138 0.02673 1.03936
 O36 O 0.03771 0.01895 1.01485
 Zr37 Zr -0.02313 0.02216 0.96702
 Zr38 Zr -0.03984 0.01538 1.02846
 Zr39 Zr 0.03663 -0.00023 0.97971
 Zr40 Zr -0.01762 -0.03634 0.99713
 O41 O 0.06890 0.02424 0.96980
 O42 O -0.05362 -0.05278 1.01063
 O43 O -0.00176 -0.01175 0.96851
 O44 O -0.04040 -0.00381 0.99350
 O45 O -0.02451 0.04175 1.00163
 O46 O 0.01575 0.03333 0.97614
 C47 C 0.00609 -0.06451 1.04561
 C48 C 0.07603 -0.01978 1.02187
 C49 C -0.02253 -0.00267 1.08367
 O50 O -0.07332 -0.00829 1.03630
 O51 O -0.07326 0.03121 1.01028
 O52 O -0.06191 0.03572 0.96808
 C53 C -0.07817 0.03796 0.98673
 O54 O 0.04095 0.06088 1.04195
 Zr55 Zr 0.01452 0.05148 1.01122
 O56 O -0.02335 0.06042 0.95529
 O57 O -0.05038 0.04799 1.04882
 O58 O -0.00401 0.07901 1.03359
 O59 O 0.04882 0.07012 0.99630
 O60 O 0.00178 0.08069 0.98584
 C61 C -0.01295 0.08050 0.96542
 O62 O -0.04726 0.00456 0.93850
 O63 O 0.04844 -0.03356 0.96131
 O64 O -0.00457 0.02310 0.93087
 O65 O 0.03528 0.00522 0.93947
 O66 O 0.00112 -0.06567 0.97738
 O67 O -0.04024 -0.04684 0.96403
 C68 C 0.01809 0.01518 0.92417
 H69 H 0.03195 -0.04172 1.00754
 H70 H -0.05860 -0.00877 0.98810
 H71 H 0.02378 0.04497 0.96304
 H72 H -0.00101 0.03534 1.05616
 H73 H -0.05266 -0.07147 1.00880
 H74 H -0.08489 0.00150 1.04746
 H75 H -0.06787 0.04411 1.05646
 H76 H 0.00456 0.09576 1.02954
 H77 H -0.00825 -0.08193 0.98185
 H78 H 0.06585 -0.02955 0.95356
 H79 H 0.08040 0.01445 0.95860
 H80 H 0.04717 0.08860 0.99917
 H81 H -0.04650 -0.06478 0.96596
 H82 H -0.05255 0.01810 0.92604
 H83 H 0.04846 -0.00266 1.08289
 H84 H 0.04370 0.07960 1.04244
 Zr85 Zr 0.52696 0.49757 0.54644
 O86 O 0.55104 0.51496 0.57513
 O87 O 0.52542 0.45942 0.55903
 O88 O 0.50773 0.49816 0.58259
 O89 O 0.57810 0.48912 0.50430
 O90 O 0.46674 0.51235 0.57211
 O91 O 0.56578 0.48395 0.54623
 O92 O 0.49918 0.44039 0.52860
 O93 O 0.48788 0.48678 0.53722
 O94 O 0.52797 0.47827 0.51151
 O95 O 0.50651 0.53179 0.54358
 O96 O 0.54564 0.52291 0.51978
 Zr97 Zr 0.48545 0.52652 0.47066
 Zr98 Zr 0.46805 0.52100 0.53244
 Zr99 Zr 0.54470 0.50353 0.48474
 Zr100 Zr 0.48921 0.46883 0.50171
 O101 O 0.57783 0.52740 0.47619
 O102 O 0.45317 0.45323 0.51603
 O103 O 0.50629 0.49241 0.47298
 O104 O 0.46723 0.50157 0.49755
 O105 O 0.48416 0.54648 0.50520
 O106 O 0.52437 0.53732 0.48033
 C107 C 0.51400 0.43982 0.54888
 C108 C 0.58240 0.48187 0.52786
 C109 C 0.48411 0.50442 0.58846
 O110 O 0.43351 0.49853 0.53935
 O111 O 0.43613 0.53866 0.51387
 O112 O 0.44624 0.53960 0.47108
 C113 C 0.43080 0.54368 0.49005
 O114 O 0.54978 0.56523 0.54576
 Zr115 Zr 0.52312 0.55580 0.51523
 O116 O 0.48533 0.56455 0.45887
 O117 O 0.45834 0.55383 0.55292
 O118 O 0.50516 0.58391 0.53733
 O119 O 0.55754 0.57397 0.50002
 O120 O 0.51019 0.58475 0.48971
 C121 C 0.49552 0.58453 0.46924
 O122 O 0.46192 0.50892 0.44170
 O123 O 0.55597 0.47008 0.46621
 O124 O 0.50508 0.52665 0.43466
 O125 O 0.54497 0.50937 0.44447
 O126 O 0.50660 0.43878 0.48186
 O127 O 0.46615 0.45866 0.46877
 C128 C 0.52818 0.51909 0.42853
 H129 H 0.53839 0.46263 0.51227
 H130 H 0.44898 0.49682 0.49215
 H131 H 0.53272 0.54878 0.46726
 H132 H 0.50688 0.54073 0.56020
 H133 H 0.45376 0.43449 0.51444
 H134 H 0.42204 0.50872 0.55022
 H135 H 0.44054 0.55057 0.56012
 H136 H 0.51401 0.60049 0.53308
 H137 H 0.49640 0.42289 0.48601
 H138 H 0.57382 0.47359 0.45920
 H139 H 0.58963 0.51733 0.46555
 H140 H 0.55589 0.59252 0.50240
 H141 H 0.45841 0.44131 0.47136
 H142 H 0.45702 0.52246 0.42908
 H143 H 0.55558 0.50151 0.58799
 H144 H 0.55293 0.58391 0.54593
 Zr145 Zr 0.46775 1.01182 0.54767
 O146 O 0.44806 0.99396 0.57914
 O147 O 0.46730 1.05034 0.55738
 O148 O 0.49010 1.01528 0.58227
 O149 O 0.41237 1.01345 0.50776
 O150 O 0.53118 1.00333 0.57094
 O151 O 0.42754 1.02209 0.54841
 O152 O 0.48973 1.07009 0.52450
 O153 O 0.50483 1.02546 0.53520
 O154 O 0.46175 1.02912 0.51155
 O155 O 0.49165 0.97968 0.54640
 O156 O 0.44963 0.98332 0.52471
 Zr157 Zr 0.50532 0.98299 0.47235
 Zr158 Zr 0.52794 0.99327 0.53204
 Zr159 Zr 0.44544 1.00081 0.48829
 Zr160 Zr 0.49851 1.04146 0.49858
 O161 O 0.41402 0.97373 0.48458
 O162 O 0.53455 1.06073 0.50802
 O163 O 0.48128 1.01494 0.47313
 O164 O 0.52348 1.01080 0.49569
 O165 O 0.51197 0.96516 0.50818
 O166 O 0.46876 0.96896 0.48530
 C167 C 0.47721 1.07018 0.54585
 C168 C 0.40942 1.02164 0.53067
 C169 C 0.51451 1.01073 0.58751
 O170 O 0.56021 1.01945 0.53520
 O171 O 0.56027 0.97788 0.51298
 O172 O 0.54516 0.97248 0.47180
 C173 C 0.56320 0.97093 0.48953
 O174 O 0.45208 0.94242 0.55404
 Zr175 Zr 0.47522 0.95260 0.52142
 O176 O 0.50857 0.94481 0.46364
 O177 O 0.54317 0.96268 0.55424
 O178 O 0.49771 0.92787 0.54525
 O179 O 0.44198 0.93023 0.50943
 O180 O 0.49006 0.92374 0.49809
 C181 C 0.50279 0.92454 0.47674
 O182 O 0.52477 1.00102 0.44083
 O183 O 0.42935 1.03168 0.46713
 O184 O 0.48283 0.97957 0.43761
 O185 O 0.44193 0.99198 0.44928
 O186 O 0.47592 1.06903 0.47847
 O187 O 0.51634 1.05165 0.46289
 C188 C 0.45822 0.98379 0.43287
 H189 H 0.45004 1.04385 0.51183
 H190 H 0.54066 1.01674 0.48863
 H191 H 0.46064 0.95605 0.47380
 H192 H 0.49363 0.97167 0.56371
 H193 H 0.53202 1.07915 0.50475
 H194 H 0.57366 1.01106 0.54621
 H195 H 0.56105 0.96813 0.56027
 H196 H 0.49041 0.91036 0.54295
 H197 H 0.48504 1.08579 0.48064
 H198 H 0.41141 1.02616 0.46137
 H199 H 0.40044 0.98168 0.47337
 H200 H 0.44606 0.91219 0.51317
 H201 H 0.52233 1.06974 0.46317
 H202 H 0.53001 0.98737 0.42916
 H203 H 0.44320 1.00761 0.59098
 H204 H 0.45055 0.92364 0.55571
 Zr205 Zr 0.00601 0.52443 1.01401
 O206 O -0.01942 0.50885 1.04256
 O207 O 0.01574 0.56014 1.02885
 O208 O 0.02653 0.51775 1.04958
 O209 O -0.04561 0.54226 0.97329
 O210 O 0.06352 0.49780 1.03701
 O211 O -0.03010 0.54406 1.01482
 O212 O 0.04413 0.57785 0.99930
 O213 O 0.04566 0.53031 1.00393
 O214 O 0.00627 0.54669 0.98010
 O215 O 0.02091 0.48788 1.00913
 O216 O -0.01738 0.50390 0.98702
 Zr217 Zr 0.03901 0.49566 0.93612
 Zr218 Zr 0.05986 0.49413 0.99715
 Zr219 Zr -0.01511 0.52571 0.95278
 Zr220 Zr 0.04539 0.55142 0.96941
 O221 O -0.05179 0.50752 0.94391
 O222 O 0.08477 0.56061 0.98088
 O223 O 0.02378 0.53233 0.94033
 O224 O 0.06187 0.51615 0.96320
 O225 O 0.03890 0.47302 0.96976
 O226 O -0.00047 0.48965 0.94656
 C227 C 0.03132 0.57797 1.02047
 C228 C -0.04745 0.54874 0.99697
 C229 C 0.04843 0.50636 1.05431
 O230 O 0.09701 0.51182 1.00499
 O231 O 0.08850 0.47480 0.97703
 O232 O 0.07600 0.47782 0.93466
 C233 C 0.09184 0.47080 0.95297
 O234 O -0.02692 0.46081 1.01136
 Zr235 Zr -0.00042 0.46851 0.98064
 O236 O 0.03314 0.45842 0.92337
 O237 O 0.06600 0.45811 1.01485
 O238 O 0.01353 0.43649 1.00171
 O239 O -0.03756 0.45632 0.96531
 O240 O 0.00744 0.43965 0.95445
 C241 C 0.02110 0.43908 0.93376
 O242 O 0.06294 0.51223 0.90685
 O243 O -0.02171 0.56201 0.93596
 O244 O 0.01783 0.50035 0.90099
 O245 O -0.01813 0.52242 0.91254
 O246 O 0.03067 0.58559 0.95306
 O247 O 0.06643 0.56134 0.93538
 C248 C -0.00419 0.51123 0.89581
 H249 H -0.00138 0.56364 0.98221
 H250 H 0.08027 0.51887 0.95741
 H251 H -0.01103 0.48027 0.93347
 H252 H 0.01990 0.47757 1.02527
 H253 H 0.08710 0.57939 0.97978
 H254 H 0.10753 0.49918 1.01476
 H255 H 0.08428 0.45841 1.02190
 H256 H 0.00201 0.42165 0.99722
 H257 H 0.04323 0.59959 0.95774
 H258 H -0.03996 0.56151 0.92887
 H259 H -0.06218 0.51991 0.93366
 H260 H -0.03856 0.43750 0.96697
 H261 H 0.07558 0.57807 0.93754
 H262 H 0.06527 0.49905 0.89371
 H263 H -0.02099 0.52195 1.05592
 H264 H -0.03336 0.44287 1.01070
 Zr265 Zr -0.00794 0.47150 0.46058
 O266 O -0.02608 0.48948 0.42837
 O267 O -0.01056 0.43335 0.45071
 O268 O 0.01544 0.46812 0.42701
 O269 O -0.06356 0.46820 0.49824
 O270 O 0.05661 0.48042 0.44111
 O271 O -0.04859 0.46080 0.45790
 O272 O 0.01131 0.41324 0.48370
 O273 O 0.02872 0.45897 0.47422
 O274 O -0.01453 0.45321 0.49626
 O275 O 0.01643 0.50439 0.46313
 O276 O -0.02595 0.49845 0.48382
 Zr277 Zr 0.02968 0.50063 0.53769
 Zr278 Zr 0.05222 0.49200 0.47891
 Zr279 Zr -0.03034 0.48011 0.51993
 Zr280 Zr 0.02197 0.44190 0.51017
 O281 O -0.06115 0.50582 0.52505
 O282 O 0.05735 0.42420 0.50014
 O283 O 0.00541 0.46745 0.53574
 O284 O 0.04740 0.47367 0.51469
 O285 O 0.03651 0.51931 0.50239
 O286 O -0.00685 0.51289 0.52378
 C287 C -0.00187 0.41346 0.46229
 C288 C -0.06700 0.46084 0.47488
 C289 C 0.04049 0.47212 0.42374
 O290 O 0.08506 0.46806 0.47789
 O291 O 0.08408 0.50969 0.49855
 O292 O 0.06929 0.51439 0.53937
 C293 C 0.08705 0.51723 0.52187
 O294 O -0.02201 0.53995 0.45429
 Zr295 Zr -0.00012 0.53012 0.48808
 O296 O 0.03165 0.53868 0.54798
 O297 O 0.06740 0.52282 0.45623
 O298 O 0.02359 0.55652 0.46663
 O299 O -0.03395 0.55039 0.49811
 O300 O 0.01275 0.55891 0.51340
 C301 C 0.02435 0.55870 0.53565
 O302 O 0.04931 0.48279 0.56911
 O303 O -0.04744 0.44765 0.53862
 O304 O 0.00712 0.50316 0.57146
 O305 O -0.03323 0.48630 0.55975
 O306 O -0.00112 0.41381 0.53009
 O307 O 0.04073 0.43098 0.54539
 C308 C -0.01702 0.49638 0.57616
 H309 H -0.02685 0.43831 0.49537
 H310 H 0.06452 0.46851 0.52223
 H311 H -0.01529 0.52502 0.53524
 H312 H 0.01887 0.51254 0.44594
 H313 H 0.05440 0.40558 0.50247
 H314 H 0.09857 0.47701 0.46718
 H315 H 0.08543 0.51836 0.45111
 H316 H 0.01641 0.57364 0.46908
 H317 H 0.00695 0.39713 0.52735
 H318 H -0.06532 0.45234 0.54398
 H319 H -0.07494 0.49655 0.53513
 H320 H -0.02997 0.56871 0.49467
 H321 H 0.04590 0.41299 0.54452
 H322 H 0.05446 0.49642 0.58130
 H323 H -0.03112 0.47589 0.41611
 H324 H -0.02260 0.55872 0.45248
 Zr325 Zr 0.47394 -0.01927 -0.03315
 O326 O 0.44929 -0.00133 -0.06081
 O327 O 0.47665 -0.05538 -0.04844
 O328 O 0.49310 -0.01780 -0.06917
 O329 O 0.42545 -0.03469 0.01136
 O330 O 0.53243 0.00301 -0.06095
 O331 O 0.43489 -0.03516 -0.03142
 O332 O 0.50753 -0.07436 -0.02275
 O333 O 0.51393 -0.02623 -0.02645
 O334 O 0.47599 -0.04236 -0.00000
 O335 O 0.49278 0.01671 -0.02980
 O336 O 0.45582 0.00138 -0.00419
 Zr337 Zr 0.51821 0.00743 0.04166
 Zr338 Zr 0.53236 0.00942 -0.02099
 Zr339 Zr 0.46021 -0.02128 0.02926
 Zr340 Zr 0.51583 -0.04821 0.00717
 O341 O 0.42738 -0.00213 0.04346
 O342 O 0.55237 -0.05812 -0.00868
 O343 O 0.49973 -0.02891 0.03816
 O344 O 0.53603 -0.01322 0.01252
 O345 O 0.51645 0.03063 0.00841
 O346 O 0.47831 0.01427 0.03458
 C347 C 0.49175 -0.07384 -0.04249
 C348 C 0.41925 -0.03929 -0.01219
 C349 C 0.51597 -0.00877 -0.07594
 O350 O 0.56795 -0.00812 -0.03036
 O351 O 0.56435 0.02895 -0.00311
 O352 O 0.55506 0.02744 0.03975
 C353 C 0.56982 0.03419 0.02056
 O354 O 0.44803 0.04539 -0.02802
 Zr355 Zr 0.47657 0.03615 0.00079
 O356 O 0.51370 0.04319 0.05788
 O357 O 0.53834 0.04472 -0.04063
 O358 O 0.49194 0.06809 -0.02024
 O359 O 0.44194 0.04899 0.01827
 O360 O 0.48854 0.06384 0.02765
 C361 C 0.50206 0.06288 0.04879
 O362 O 0.54598 -0.00925 0.06719
 O363 O 0.45122 -0.05817 0.04437
 O364 O 0.50166 0.00041 0.07859
 O365 O 0.46340 -0.02176 0.06949
 O366 O 0.50018 -0.08186 0.02504
 O367 O 0.54071 -0.05951 0.03838
 C368 C 0.48036 -0.01193 0.08522
 H369 H 0.46614 -0.05878 -0.00176
 H370 H 0.55479 -0.01615 0.01688
 H371 H 0.46988 0.02301 0.04890
 H372 H 0.49105 0.02670 -0.04608
 H373 H 0.55299 -0.07695 -0.00841
 H374 H 0.57803 0.00419 -0.04138
 H375 H 0.55588 0.04420 -0.04875
 H376 H 0.48254 0.08324 -0.01456
 H377 H 0.51025 -0.09631 0.01868
 H378 H 0.43405 -0.05728 0.05317
 H379 H 0.41715 -0.01467 0.05408
 H380 H 0.44223 0.06782 0.01667
 H381 H 0.54778 -0.07647 0.03495
 H382 H 0.55023 0.00344 0.08064
 H383 H 0.44451 -0.01433 -0.07380
 H384 H 0.44415 0.06372 -0.02724
 Zr385 Zr 0.52149 0.53068 -0.03922
 O386 O 0.54806 0.52202 -0.06874
 O387 O 0.51181 0.56835 -0.04948
 O388 O 0.50350 0.52840 -0.07638
 O389 O 0.57121 0.54373 0.00580
 O390 O 0.46611 0.50452 -0.06878
 O391 O 0.55843 0.55018 -0.03606
 O392 O 0.48175 0.57849 -0.01940
 O393 O 0.48126 0.53197 -0.03087
 O394 O 0.51902 0.54735 -0.00304
 O395 O 0.50748 0.49257 -0.03975
 O396 O 0.54363 0.50762 -0.01351
 Zr397 Zr 0.48491 0.48719 0.03220
 Zr398 Zr 0.46778 0.49400 -0.02968
 Zr399 Zr 0.53915 0.52375 0.02283
 Zr400 Zr 0.47916 0.54717 0.00594
 O401 O 0.57524 0.50667 0.03308
 O402 O 0.44042 0.55567 -0.00686
 O403 O 0.49942 0.52522 0.03350
 O404 O 0.46326 0.51013 0.00649
 O405 O 0.48748 0.46992 -0.00368
 O406 O 0.52514 0.48615 0.02377
 C407 C 0.49546 0.58361 -0.03952
 C408 C 0.57518 0.55246 -0.01722
 C409 C 0.48173 0.51730 -0.08377
 O410 O 0.43073 0.51025 -0.03757
 O411 O 0.43767 0.47043 -0.01445
 O412 O 0.44920 0.46525 0.02788
 C413 C 0.43354 0.46136 0.00832
 O414 O 0.55474 0.46846 -0.04309
 Zr415 Zr 0.52752 0.47031 -0.01246
 O416 O 0.49484 0.45024 0.04338
 O417 O 0.46380 0.46090 -0.05215
 O418 O 0.51413 0.44031 -0.03651
 O419 O 0.56511 0.45997 0.00207
 O420 O 0.52170 0.43769 0.01128
 C421 C 0.50924 0.43398 0.03247
 O422 O 0.45689 0.49529 0.06056
 O423 O 0.54433 0.55823 0.04291
 O424 O 0.50191 0.49115 0.06952
 O425 O 0.53910 0.51576 0.06283
 O426 O 0.49208 0.57901 0.02772
 O427 O 0.45568 0.54957 0.03936
 C428 C 0.52311 0.50290 0.07752
 H429 H 0.52675 0.56486 -0.00279
 H430 H 0.44449 0.51052 0.01142
 H431 H 0.53545 0.47631 0.03666
 H432 H 0.50960 0.48507 -0.05692
 H433 H 0.43751 0.57381 -0.00318
 H434 H 0.42127 0.49897 -0.04992
 H435 H 0.44612 0.46124 -0.06054
 H436 H 0.52564 0.42566 -0.03311
 H437 H 0.47939 0.59275 0.02444
 H438 H 0.56214 0.55792 0.05100
 H439 H 0.58465 0.51834 0.04509
 H440 H 0.56726 0.44169 -0.00152
 H441 H 0.44634 0.56587 0.03894
 H442 H 0.45503 0.47993 0.07189
 H443 H 0.55024 0.53746 -0.07993
 H444 H 0.56077 0.45079 -0.04448
 Zr445 Zr 0.01728 1.00633 0.46361
 O446 O 0.04422 0.98916 0.43896
 O447 O 0.01325 1.04187 0.44585
 O448 O 0.00079 1.00132 0.42612
 O449 O 0.06482 1.02319 0.50986
 O450 O -0.03931 0.98201 0.43400
 O451 O 0.05553 1.02339 0.46670
 O452 O -0.01639 1.06115 0.47112
 O453 O -0.02269 1.01392 0.46831
 O454 O 0.01505 1.02902 0.49620
 O455 O -0.00202 0.97059 0.46735
 O456 O 0.03480 0.98530 0.49402
 Zr457 Zr -0.02862 0.97951 0.53706
 Zr458 Zr -0.04156 0.97846 0.47415
 Zr459 Zr 0.03033 1.00752 0.52688
 Zr460 Zr -0.02463 1.03532 0.50166
 O461 O 0.06396 0.98839 0.54085
 O462 O -0.06107 1.04643 0.48498
 O463 O -0.00925 1.01555 0.53396
 O464 O -0.04549 1.00083 0.50671
 O465 O -0.02662 0.95654 0.50464
 O466 O 0.01132 0.97211 0.53175
 C467 C -0.00139 1.06045 0.45136
 C468 C 0.07084 1.02829 0.48623
 C469 C -0.02138 0.99093 0.41881
 O470 O -0.07525 0.99780 0.46067
 O471 O -0.07506 0.96131 0.49124
 O472 O -0.06757 0.96404 0.53459
 C473 C -0.08204 0.95816 0.51484
 O474 O 0.04260 0.94180 0.47173
 Zr475 Zr 0.01343 0.95074 0.49888
 O476 O -0.02772 0.94250 0.55263
 O477 O -0.04927 0.94262 0.45729
 O478 O -0.00183 0.91918 0.47800
 O479 O 0.04740 0.93676 0.51814
 O480 O 0.00048 0.92312 0.52590
 C481 C -0.01522 0.92311 0.54516
 O482 O -0.05393 0.99775 0.56254
 O483 O 0.03763 1.04357 0.54336
 O484 O -0.01149 0.98192 0.57410
 O485 O 0.02765 1.00358 0.56741
 O486 O -0.00853 1.06888 0.51849
 O487 O -0.04910 1.04641 0.53216
 C488 C 0.01069 0.99172 0.58189
 H489 H 0.02470 1.04556 0.49429
 H490 H -0.06415 1.00454 0.51002
 H491 H 0.01945 0.96229 0.54609
 H492 H 0.00006 0.96026 0.45180
 H493 H -0.06130 1.06528 0.48503
 H494 H -0.08575 0.98556 0.45014
 H495 H -0.06635 0.94377 0.44786
 H496 H 0.00732 0.90388 0.48452
 H497 H -0.01868 1.08338 0.51151
 H498 H 0.05474 1.04258 0.55274
 H499 H 0.07397 1.00048 0.55197
 H500 H 0.04674 0.91796 0.51678
 H501 H -0.05573 1.06366 0.52843
 H502 H -0.05950 0.98489 0.57577
 H503 H 0.04910 1.00202 0.42549
 H504 H 0.04588 0.92332 0.47266
 Zr505 Zr 0.72258 0.26569 0.22428
 O506 O 0.73721 0.29025 0.19467
 O507 O 0.68345 0.25938 0.21231
 O508 O 0.72102 0.24744 0.18819
 O509 O 0.71374 0.31405 0.26777
 O510 O 0.74153 0.20992 0.19628
 O511 O 0.70650 0.30238 0.22611
 O512 O 0.66764 0.22979 0.24143
 O513 O 0.71485 0.22735 0.23378
 O514 O 0.70390 0.26502 0.25996
 O515 O 0.75942 0.24820 0.22446
 O516 O 0.74905 0.28482 0.24955
 Zr517 Zr 0.75974 0.22674 0.29706
 Zr518 Zr 0.75146 0.21028 0.23580
 Zr519 Zr 0.73085 0.28204 0.28566
 Zr520 Zr 0.69750 0.22694 0.26998
 O521 O 0.75346 0.31532 0.29428
 O522 O 0.68329 0.18987 0.26060
 O523 O 0.72275 0.24423 0.29745
 O524 O 0.73322 0.20806 0.27179
 O525 O 0.77852 0.22712 0.26141
 O526 O 0.76757 0.26498 0.28736
 C527 C 0.66597 0.24317 0.22049
 C528 C 0.70514 0.31834 0.24466
 C529 C 0.72977 0.22584 0.18116
 O530 O 0.72891 0.17669 0.22832
 O531 O 0.77008 0.17903 0.25348
 O532 O 0.77562 0.19000 0.29555
 C533 C 0.77776 0.17441 0.27683
 O534 O 0.79036 0.29239 0.22074
 Zr535 Zr 0.78486 0.26545 0.25139
 O536 O 0.79999 0.22890 0.30593
 O537 O 0.78563 0.20271 0.21467
 O538 O 0.81359 0.25079 0.22680
 O539 O 0.80242 0.29940 0.26605
 O540 O 0.81762 0.25464 0.27435
 C541 C 0.81955 0.23987 0.29434
 O542 O 0.74488 0.20286 0.32712
 O543 O 0.69620 0.29000 0.30590
 O544 O 0.76209 0.24507 0.33299
 O545 O 0.73904 0.28130 0.32564
 O546 O 0.66512 0.24331 0.28835
 O547 O 0.69032 0.20641 0.30497
 C548 C 0.75224 0.26606 0.34035
 H549 H 0.68690 0.27385 0.25935
 H550 H 0.72968 0.19022 0.27749
 H551 H 0.77970 0.27360 0.29972
 H552 H 0.76758 0.24945 0.20725
 H553 H 0.66406 0.18911 0.26382
 H554 H 0.73963 0.16623 0.21699
 H555 H 0.78265 0.18574 0.20697
 H556 H 0.83031 0.26054 0.22987
 H557 H 0.64933 0.23245 0.28448
 H558 H 0.69910 0.30698 0.31357
 H559 H 0.74279 0.32536 0.30605
 H560 H 0.82144 0.29932 0.26194
 H561 H 0.67170 0.20023 0.30528
 H562 H 0.75999 0.19874 0.33868
 H563 H 0.72220 0.29385 0.18281
 H564 H 0.80938 0.29686 0.21919
 Zr565 Zr 0.76166 0.73100 0.70182
 O566 O 0.73500 0.71124 0.67708
 O567 O 0.79733 0.72843 0.68238
 O568 O 0.75941 0.74996 0.66560
 O569 O 0.77108 0.68095 0.74518
 O570 O 0.75100 0.79113 0.67554
 O571 O 0.76910 0.69137 0.70226
 O572 O 0.82642 0.75092 0.70781
 O573 O 0.77912 0.76715 0.70734
 O574 O 0.78818 0.72749 0.73281
 O575 O 0.73041 0.75547 0.70854
 O576 O 0.73892 0.71683 0.73295
 Zr577 Zr 0.75262 0.77530 0.77848
 Zr578 Zr 0.74825 0.79107 0.71596
 Zr579 Zr 0.76566 0.71536 0.76412
 Zr580 Zr 0.80448 0.76360 0.73903
 O581 O 0.73920 0.68705 0.77891
 O582 O 0.82213 0.79629 0.72110
 O583 O 0.78398 0.75078 0.77190
 O584 O 0.77493 0.78926 0.74715
 O585 O 0.72582 0.77911 0.74761
 O586 O 0.73506 0.73929 0.77266
 C587 C 0.82035 0.73783 0.68777
 C588 C 0.77218 0.67538 0.72123
 C589 C 0.75571 0.77351 0.65952
 O590 O 0.77380 0.82168 0.70472
 O591 O 0.73687 0.82393 0.73519
 O592 O 0.74181 0.81408 0.77803
 C593 C 0.73578 0.82938 0.75922
 O594 O 0.69041 0.71868 0.71407
 Zr595 Zr 0.70962 0.74297 0.74117
 O596 O 0.71719 0.77802 0.79801
 O597 O 0.71265 0.80409 0.69926
 O598 O 0.67946 0.76416 0.72283
 O599 O 0.68959 0.71252 0.76072
 O600 O 0.68744 0.75935 0.77032
 C601 C 0.69368 0.77143 0.79099
 O602 O 0.77881 0.79718 0.80184
 O603 O 0.80174 0.70001 0.77714
 O604 O 0.75910 0.75710 0.81484
 O605 O 0.76847 0.71643 0.80436
 O606 O 0.83607 0.74228 0.75454
 O607 O 0.82441 0.78419 0.76866
 C608 C 0.76507 0.73395 0.82084
 H609 H 0.80228 0.71530 0.72975
 H610 H 0.78287 0.80624 0.75088
 H611 H 0.72531 0.73263 0.78786
 H612 H 0.71835 0.75626 0.69339
 H613 H 0.84126 0.79326 0.71981
 H614 H 0.76292 0.83389 0.69477
 H615 H 0.71680 0.82080 0.69087
 H616 H 0.66244 0.75826 0.73031
 H617 H 0.85261 0.74945 0.74705
 H618 H 0.79736 0.68361 0.78605
 H619 H 0.74998 0.67464 0.78872
 H620 H 0.67068 0.71674 0.76120
 H621 H 0.84272 0.78835 0.76333
 H622 H 0.76844 0.80323 0.81647
 H623 H 0.74548 0.70485 0.66269
 H624 H 0.67113 0.71851 0.71687
 Zr625 Zr 0.23371 0.21184 0.78303
 O626 O 0.24482 0.18330 0.81003
 O627 O 0.19409 0.21533 0.79124
 O628 O 0.23119 0.22556 0.82124
 O629 O 0.22358 0.17236 0.73120
 O630 O 0.25680 0.26206 0.82051
 O631 O 0.21510 0.17606 0.77404
 O632 O 0.18061 0.24783 0.76493
 O633 O 0.22979 0.25143 0.77964
 O634 O 0.21718 0.21919 0.74653
 O635 O 0.27189 0.22776 0.78808
 O636 O 0.25937 0.19603 0.75642
 Zr637 Zr 0.27839 0.26013 0.71967
 Zr638 Zr 0.26821 0.26713 0.78218
 Zr639 Zr 0.24358 0.20583 0.72003
 Zr640 Zr 0.21437 0.25836 0.74285
 O641 O 0.26382 0.17410 0.70657
 O642 O 0.20278 0.29164 0.76164
 O643 O 0.23963 0.24509 0.71438
 O644 O 0.25207 0.27560 0.74584
 O645 O 0.29512 0.25325 0.75615
 O646 O 0.28175 0.22073 0.72354
 C647 C 0.17652 0.23035 0.78237
 C648 C 0.21315 0.16435 0.75233
 C649 C 0.24204 0.24531 0.83202
 O650 O 0.24872 0.30003 0.79375
 O651 O 0.29015 0.30019 0.77114
 O652 O 0.29913 0.29427 0.72874
 C653 C 0.30074 0.30710 0.74964
 O654 O 0.29839 0.18305 0.78768
 Zr655 Zr 0.29676 0.21370 0.76042
 O656 O 0.31839 0.25512 0.71165
 O657 O 0.30215 0.26975 0.80627
 O658 O 0.32617 0.22390 0.78809
 O659 O 0.31072 0.18084 0.74247
 O660 O 0.33098 0.22441 0.74052
 C661 C 0.33557 0.24028 0.72193
 O662 O 0.26840 0.29007 0.69376
 O663 O 0.20896 0.20205 0.69696
 O664 O 0.27891 0.24835 0.68086
 O665 O 0.25173 0.21302 0.68100
 O666 O 0.18385 0.24814 0.71635
 O667 O 0.20992 0.28728 0.71404
 C668 C 0.26658 0.22978 0.66957
 H669 H 0.19965 0.21087 0.74381
 H670 H 0.25057 0.29419 0.74296
 H671 H 0.29311 0.21340 0.71040
 H672 H 0.27908 0.22364 0.80545
 H673 H 0.18362 0.29346 0.75838
 H674 H 0.25977 0.30795 0.80749
 H675 H 0.30054 0.28536 0.81647
 H676 H 0.34191 0.21377 0.78472
 H677 H 0.16800 0.25761 0.72091
 H678 H 0.21073 0.18654 0.68662
 H679 H 0.25268 0.16647 0.69275
 H680 H 0.32940 0.17891 0.74784
 H681 H 0.19233 0.29480 0.71553
 H682 H 0.28442 0.29458 0.68373
 H683 H 0.22880 0.17847 0.81993
 H684 H 0.31689 0.17781 0.79000
 Zr685 Zr 0.26411 0.77935 0.30205
 O686 O 0.25122 0.80627 0.32857
 O687 O 0.30382 0.77715 0.31170
 O688 O 0.26772 0.76438 0.34012
 O689 O 0.27323 0.82290 0.25139
 O690 O 0.24444 0.72657 0.33867
 O691 O 0.28223 0.81542 0.29408
 O692 O 0.31914 0.74730 0.28480
 O693 O 0.27016 0.74032 0.29849
 O694 O 0.28109 0.77479 0.26603
 O695 O 0.22670 0.76164 0.30597
 O696 O 0.23757 0.79550 0.27515
 Zr697 Zr 0.22252 0.73207 0.23711
 Zr698 Zr 0.23251 0.72291 0.30005
 Zr699 Zr 0.25419 0.78877 0.23915
 Zr700 Zr 0.28592 0.73602 0.26203
 O701 O 0.23191 0.82010 0.22621
 O702 O 0.29957 0.70265 0.28089
 O703 O 0.26021 0.74988 0.23310
 O704 O 0.24928 0.71670 0.26416
 O705 O 0.20512 0.73647 0.27305
 O706 O 0.21691 0.77115 0.24127
 C707 C 0.32228 0.76395 0.30262
 C708 C 0.28374 0.82919 0.27321
 C709 C 0.25831 0.74362 0.35055
 O710 O 0.25301 0.68980 0.31101
 O711 O 0.21005 0.69073 0.28851
 O712 O 0.20464 0.69559 0.24498
 C713 C 0.20136 0.68311 0.26648
 O714 O 0.19749 0.80512 0.30456
 Zr715 Zr 0.20108 0.77557 0.27756
 O716 O 0.18238 0.73503 0.22778
 O717 O 0.19946 0.71817 0.32429
 O718 O 0.17250 0.76286 0.30469
 O719 O 0.18473 0.80790 0.25894
 O720 O 0.16737 0.76299 0.25696
 C721 C 0.16411 0.74786 0.23796
 O722 O 0.23479 0.70456 0.21088
 O723 O 0.28839 0.79544 0.21682
 O724 O 0.22125 0.74615 0.19856
 O725 O 0.24582 0.78326 0.19989
 O726 O 0.31620 0.74843 0.23659
 O727 O 0.29113 0.70895 0.23275
 C728 C 0.23197 0.76623 0.18793
 H729 H 0.29826 0.78393 0.26385
 H730 H 0.25167 0.69833 0.26135
 H731 H 0.20498 0.77840 0.22795
 H732 H 0.21940 0.76466 0.32320
 H733 H 0.31875 0.70186 0.27770
 H734 H 0.24243 0.68095 0.32454
 H735 H 0.20171 0.70202 0.33417
 H736 H 0.15605 0.77202 0.30079
 H737 H 0.33222 0.73890 0.24127
 H738 H 0.28577 0.81149 0.20687
 H739 H 0.24248 0.82915 0.21280
 H740 H 0.16589 0.80831 0.26371
 H741 H 0.30873 0.70143 0.23487
 H742 H 0.21912 0.69956 0.20029
 H743 H 0.26687 0.81148 0.33908
 H744 H 0.17868 0.80933 0.30615
 Zr745 Zr 0.21693 0.76161 0.73562
 O746 O 0.22974 0.78865 0.70742
 O747 O 0.17743 0.75518 0.72512
 O748 O 0.21641 0.74573 0.69823
 O749 O 0.20728 0.80574 0.78275
 O750 O 0.23662 0.70797 0.70502
 O751 O 0.19863 0.79737 0.74043
 O752 O 0.16166 0.72691 0.75558
 O753 O 0.21075 0.72244 0.74287
 O754 O 0.19938 0.75754 0.77175
 O755 O 0.25452 0.74553 0.73443
 O756 O 0.24341 0.77990 0.76153
 Zr757 Zr 0.25760 0.71942 0.80594
 Zr758 Zr 0.24828 0.70691 0.74375
 Zr759 Zr 0.22611 0.77377 0.79761
 Zr760 Zr 0.19454 0.71884 0.77954
 O761 O 0.24779 0.80720 0.80773
 O762 O 0.18129 0.68380 0.76367
 O763 O 0.21980 0.73525 0.80751
 O764 O 0.23120 0.70143 0.77993
 O765 O 0.27553 0.72289 0.76986
 O766 O 0.26334 0.75840 0.79814
 C767 C 0.15899 0.74132 0.73542
 C768 C 0.19681 0.81113 0.76074
 C769 C 0.22518 0.72439 0.69038
 O770 O 0.22758 0.67243 0.73553
 O771 O 0.26965 0.67601 0.75799
 O772 O 0.27781 0.68504 0.80023
 C773 C 0.27992 0.67096 0.78020
 O774 O 0.28564 0.78927 0.73177
 Zr775 Zr 0.28000 0.76179 0.76192
 O776 O 0.29682 0.72625 0.81728
 O777 O 0.28163 0.70238 0.72038
 O778 O 0.30929 0.74797 0.73744
 O779 O 0.29515 0.79651 0.77708
 O780 O 0.31291 0.75285 0.78550
 C781 C 0.31530 0.73968 0.80655
 O782 O 0.24525 0.69128 0.83322
 O783 O 0.19178 0.77957 0.81927
 O784 O 0.25674 0.73450 0.84375
 O785 O 0.23415 0.77089 0.83691
 O786 O 0.16428 0.73148 0.80361
 O787 O 0.18838 0.69288 0.81092
 C788 C 0.24652 0.75521 0.85159
 H789 H 0.18216 0.76580 0.77286
 H790 H 0.22883 0.68310 0.78432
 H791 H 0.27464 0.76722 0.81107
 H792 H 0.26243 0.74794 0.71720
 H793 H 0.16205 0.68207 0.76659
 H794 H 0.23804 0.66348 0.72269
 H795 H 0.27918 0.68582 0.71171
 H796 H 0.32591 0.75768 0.74109
 H797 H 0.14805 0.72128 0.79965
 H798 H 0.19431 0.79610 0.82797
 H799 H 0.23716 0.81611 0.82045
 H800 H 0.31432 0.79749 0.77360
 H801 H 0.17046 0.68499 0.80947
 H802 H 0.26077 0.68771 0.84443
 H803 H 0.21423 0.79237 0.69623
 H804 H 0.30464 0.79392 0.73053
 Zr805 Zr 0.27660 0.23874 0.21363
 O806 O 0.26165 0.21742 0.18215
 O807 O 0.31713 0.23920 0.20691
 O808 O 0.28295 0.25733 0.17786
 O809 O 0.27435 0.18784 0.25717
 O810 O 0.26881 0.29747 0.18433
 O811 O 0.28629 0.19989 0.21646
 O812 O 0.33503 0.26189 0.24023
 O813 O 0.28912 0.27554 0.22406
 O814 O 0.29164 0.23572 0.25119
 O815 O 0.24300 0.26116 0.20999
 O816 O 0.24558 0.22233 0.23549
 Zr817 Zr 0.23880 0.28015 0.28248
 Zr818 Zr 0.25520 0.29734 0.22243
 Zr819 Zr 0.26055 0.22145 0.27334
 Zr820 Zr 0.30250 0.27239 0.26218
 O821 O 0.23229 0.19160 0.27919
 O822 O 0.32306 0.30647 0.25113
 O823 O 0.27262 0.25765 0.28629
 O824 O 0.26987 0.29599 0.26035
 O825 O 0.22382 0.28336 0.24478
 O826 O 0.22685 0.24336 0.27160
 C827 C 0.33672 0.24925 0.21936
 C828 C 0.28385 0.18320 0.23490
 C829 C 0.27810 0.28015 0.17005
 O830 O 0.28248 0.32830 0.21842
 O831 O 0.23839 0.33012 0.23728
 O832 O 0.22622 0.31839 0.27813
 C833 C 0.22799 0.33463 0.25913
 O834 O 0.20670 0.22161 0.20232
 Zr835 Zr 0.21322 0.24649 0.23372
 O836 O 0.19806 0.27967 0.28873
 O837 O 0.22510 0.30998 0.19700
 O838 O 0.18924 0.26557 0.20611
 O839 O 0.18981 0.21470 0.24637
 O840 O 0.18079 0.26107 0.25260
 C841 C 0.17873 0.27223 0.27420
 O842 O 0.25307 0.30313 0.31298
 O843 O 0.29150 0.20744 0.29696
 O844 O 0.23513 0.26158 0.31918
 O845 O 0.25040 0.22194 0.31222
 O846 O 0.32839 0.25228 0.28716
 O847 O 0.30980 0.29307 0.29646
 C848 C 0.24109 0.23885 0.32688
 H849 H 0.30689 0.22441 0.25280
 H850 H 0.27512 0.31319 0.26639
 H851 H 0.21303 0.23581 0.28290
 H852 H 0.23621 0.26159 0.19202
 H853 H 0.34182 0.30454 0.25619
 H854 H 0.27484 0.34017 0.20545
 H855 H 0.23122 0.32663 0.18967
 H856 H 0.17121 0.25785 0.20712
 H857 H 0.34616 0.26048 0.28563
 H858 H 0.28542 0.19064 0.30396
 H859 H 0.24014 0.17956 0.29186
 H860 H 0.17150 0.21746 0.24022
 H861 H 0.32870 0.29828 0.29746
 H862 H 0.23754 0.30794 0.32304
 H863 H 0.27696 0.21197 0.17211
 H864 H 0.18751 0.21921 0.19913
 Zr865 Zr 0.73535 0.72841 0.27185
 O866 O 0.75109 0.70480 0.30142
 O867 O 0.69551 0.72864 0.28070
 O868 O 0.73138 0.74571 0.30800
 O869 O 0.72783 0.68046 0.22717
 O870 O 0.74805 0.78591 0.30084
 O871 O 0.71943 0.69099 0.26872
 O872 O 0.67777 0.75552 0.25044
 O873 O 0.72546 0.76599 0.26273
 O874 O 0.71781 0.72811 0.23515
 O875 O 0.77102 0.74968 0.27394
 O876 O 0.76343 0.71224 0.24793
 Zr877 Zr 0.77185 0.77223 0.20163
 Zr878 Zr 0.76121 0.78674 0.26265
 Zr879 Zr 0.74595 0.71375 0.21102
 Zr880 Zr 0.70932 0.76546 0.22559
 O881 O 0.77027 0.68243 0.20490
 O882 O 0.69313 0.79986 0.23795
 O883 O 0.73605 0.75088 0.19923
 O884 O 0.74395 0.78798 0.22577
 O885 O 0.78976 0.77316 0.23819
 O886 O 0.78149 0.73474 0.21141
 C887 C 0.67622 0.74060 0.27039
 C888 C 0.71784 0.67579 0.24953
 C889 C 0.73718 0.76854 0.31530
 O890 O 0.73797 0.81899 0.26805
 O891 O 0.78077 0.81920 0.24714
 O892 O 0.78709 0.81009 0.20495
 C893 C 0.78918 0.82502 0.22443
 O894 O 0.80503 0.70970 0.27925
 Zr895 Zr 0.79806 0.73556 0.24807
 O896 O 0.81188 0.77370 0.19377
 O897 O 0.79327 0.79663 0.28735
 O898 O 0.82542 0.75394 0.27330
 O899 O 0.81757 0.70323 0.23479
 O900 O 0.83031 0.74901 0.22548
 C901 C 0.83169 0.76373 0.20532
 O902 O 0.75619 0.79528 0.17158
 O903 O 0.71316 0.70317 0.18752
 O904 O 0.77604 0.75445 0.16563
 O905 O 0.75656 0.71507 0.17200
 O906 O 0.67914 0.74771 0.20300
 O907 O 0.70183 0.78754 0.19167
 C908 C 0.76896 0.73195 0.15817
 H909 H 0.70120 0.71785 0.23402
 H910 H 0.73994 0.80560 0.22024
 H911 H 0.79440 0.72736 0.19977
 H912 H 0.77859 0.74911 0.29162
 H913 H 0.67391 0.79883 0.23426
 H914 H 0.74756 0.82986 0.28067
 H915 H 0.78927 0.81327 0.29484
 H916 H 0.84283 0.74637 0.27067
 H917 H 0.66265 0.75684 0.20594
 H918 H 0.71700 0.68637 0.18028
 H919 H 0.76079 0.67140 0.19235
 H920 H 0.83648 0.70534 0.23956
 H921 H 0.68365 0.79392 0.19210
 H922 H 0.77125 0.80106 0.16077
 H923 H 0.73620 0.69937 0.31263
 H924 H 0.82428 0.70795 0.28189
 Zr925 Zr 0.75144 0.27598 0.79123
 O926 O 0.73300 0.29923 0.81812
 O927 O 0.79054 0.27722 0.80485
 O928 O 0.75010 0.25897 0.82885
 O929 O 0.75864 0.32436 0.74451
 O930 O 0.73493 0.21831 0.82157
 O931 O 0.76400 0.31482 0.78730
 O932 O 0.81151 0.25174 0.77708
 O933 O 0.76369 0.23877 0.78508
 O934 O 0.77208 0.27712 0.75658
 O935 O 0.71663 0.25317 0.78962
 O936 O 0.72502 0.29055 0.76308
 Zr937 Zr 0.72332 0.23032 0.71884
 Zr938 Zr 0.72898 0.21642 0.78155
 Zr939 Zr 0.74567 0.28969 0.72830
 Zr940 Zr 0.78293 0.24012 0.74973
 O941 O 0.72024 0.31905 0.71639
 O942 O 0.79986 0.20674 0.76558
 O943 O 0.75822 0.25312 0.71964
 O944 O 0.74961 0.21607 0.74692
 O945 O 0.70225 0.22870 0.75324
 O946 O 0.71118 0.26733 0.72541
 C947 C 0.81111 0.26627 0.79672
 C948 C 0.76547 0.33034 0.76764
 C949 C 0.74232 0.23645 0.83652
 O950 O 0.75428 0.18672 0.79272
 O951 O 0.71439 0.18219 0.76536
 O952 O 0.71040 0.19176 0.72247
 C953 C 0.70827 0.17626 0.74202
 O954 O 0.68082 0.29193 0.78890
 Zr955 Zr 0.69160 0.26599 0.76020
 O956 O 0.68405 0.22674 0.70681
 O957 O 0.69426 0.20422 0.80087
 O958 O 0.66260 0.24723 0.78333
 O959 O 0.67226 0.29727 0.74265
 O960 O 0.66220 0.25067 0.73535
 C961 C 0.66299 0.23585 0.71592
 O962 O 0.74248 0.20790 0.69173
 O963 O 0.78055 0.30240 0.70954
 O964 O 0.72217 0.24759 0.68150
 O965 O 0.74078 0.28708 0.68809
 O966 O 0.81386 0.25938 0.72952
 O967 O 0.79477 0.21815 0.71816
 C968 C 0.73052 0.26979 0.67351
 H969 H 0.78800 0.28844 0.75700
 H970 H 0.75522 0.19874 0.74278
 H971 H 0.69928 0.27397 0.71173
 H972 H 0.70686 0.25359 0.80596
 H973 H 0.81926 0.20874 0.76399
 H974 H 0.74396 0.17500 0.80415
 H975 H 0.69824 0.18797 0.80995
 H976 H 0.64529 0.25429 0.77839
 H977 H 0.83059 0.25131 0.73474
 H978 H 0.77648 0.31863 0.70048
 H979 H 0.73039 0.33035 0.70442
 H980 H 0.65306 0.29443 0.74517
 H981 H 0.81331 0.21313 0.72081
 H982 H 0.72867 0.20137 0.67965
 H983 H 0.74692 0.30531 0.83033
 H984 H 0.66140 0.29349 0.78879
 C985 C 0.38783 0.99320 0.29802
 C986 C 0.40542 0.99095 0.31900
 C987 C 0.43044 1.00331 0.31816
 C988 C 0.43769 1.01703 0.29595
 C989 C 0.42043 1.01853 0.27480
 C990 C 0.39511 1.00629 0.27496
 C991 C 0.44747 1.00235 0.33975
 C992 C 0.43971 0.98904 0.36223
 C993 C 0.41503 0.97573 0.36254
 C994 C 0.39809 0.97679 0.34101
 C995 C 0.40713 0.96237 0.38480
 C996 C 0.42262 0.96359 0.40712
 C997 C 0.44644 0.97788 0.40756
 C998 C 0.45550 0.98983 0.38480
 H999 H 0.36809 0.98505 0.29992
 H1000 H 0.45675 1.02684 0.29496
 H1001 H 0.42733 1.02975 0.25858
 H1002 H 0.46641 1.01245 0.33929
 H1003 H 0.37896 0.96702 0.34158
 H1004 H 0.38842 0.95190 0.38531
 H1005 H 0.41536 0.95432 0.42455
 H1006 H 0.47370 1.00115 0.38518
 C1007 C -0.09160 0.49874 0.76888
 C1008 C -0.07907 0.50234 0.79297
 C1009 C -0.09382 0.51072 0.81393
 C1010 C -0.12069 0.51515 0.81069
 C1011 C -0.13292 0.51174 0.78681
 C1012 C -0.11884 0.50341 0.76536
 C1013 C -0.08147 0.51486 0.83782
 C1014 C -0.05450 0.51063 0.84120
 C1015 C -0.03958 0.50206 0.82048
 C1016 C -0.05194 0.49806 0.79639
 C1017 C -0.01263 0.49746 0.82437
 C1018 C -0.00077 0.50092 0.84867
 C1019 C -0.01556 0.50942 0.86938
 C1020 C -0.04241 0.51449 0.86526
 H1021 H -0.07970 0.49309 0.75298
 H1022 H -0.13224 0.52164 0.82657
 H1023 H -0.15367 0.51590 0.78484
 H1024 H -0.09290 0.52135 0.85382
 H1025 H -0.04051 0.49159 0.78041
 H1026 H -0.00084 0.49084 0.80874
 H1027 H 0.01989 0.49673 0.85131
 H1028 H -0.05427 0.52075 0.88103
 C1029 C 0.09016 0.00884 0.79277
 C1030 C 0.07270 0.00700 0.81342
 C1031 C 0.05909 -0.01625 0.81873
 C1032 C 0.06130 -0.03645 0.80177
 C1033 C 0.07809 -0.03410 0.78067
 C1034 C 0.09476 -0.01233 0.77719
 C1035 C 0.04355 -0.01884 0.84084
 C1036 C 0.04120 0.00175 0.85742
 C1037 C 0.05322 0.02561 0.85090
 C1038 C 0.06897 0.02804 0.82900
 C1039 C 0.05017 0.04642 0.86699
 C1040 C 0.03670 0.04327 0.89012
 C1041 C 0.02624 0.01932 0.89748
 C1042 C 0.02794 -0.00130 0.88089
 H1043 H 0.10009 0.02699 0.78892
 H1044 H 0.05002 -0.05405 0.80476
 H1045 H 0.07864 -0.04973 0.76744
 H1046 H 0.03379 -0.03696 0.84542
 H1047 H 0.07892 0.04610 0.82453
 H1048 H 0.05904 0.06486 0.86216
 H1049 H 0.03573 0.05919 0.90300
 H1050 H 0.02000 -0.01984 0.88680
 C1051 C 0.60061 0.51726 0.29531
 C1052 C 0.58280 0.51545 0.31587
 C1053 C 0.56522 0.49429 0.31805
 C1054 C 0.56471 0.47607 0.29864
 C1055 C 0.58204 0.47834 0.27783
 C1056 C 0.60072 0.49877 0.27569
 C1057 C 0.54914 0.49135 0.33997
 C1058 C 0.55028 0.50957 0.35958
 C1059 C 0.56686 0.53149 0.35645
 C1060 C 0.58304 0.53420 0.33479
 C1061 C 0.56774 0.55004 0.37551
 C1062 C 0.55343 0.54643 0.39811
 C1063 C 0.53791 0.52427 0.40218
 C1064 C 0.53597 0.50597 0.38267
 H1065 H 0.61507 0.53265 0.29585
 H1066 H 0.55130 0.45969 0.29983
 H1067 H 0.58164 0.46337 0.26376
 H1068 H 0.53623 0.47465 0.34202
 H1069 H 0.59628 0.55069 0.33294
 H1070 H 0.58021 0.56701 0.37331
 H1071 H 0.55543 0.56049 0.41306
 H1072 H 0.52431 0.48864 0.38590
 C1073 C 0.58535 0.50006 0.21913
 C1074 C 0.57775 0.50115 0.19277
 C1075 C 0.59729 0.50388 0.17369
 C1076 C 0.62388 0.50490 0.18095
 C1077 C 0.63127 0.50286 0.20679
 C1078 C 0.61240 0.50033 0.22661
 C1079 C 0.59013 0.50527 0.14751
 C1080 C 0.56359 0.50322 0.13983
 C1081 C 0.54386 0.49976 0.15862
 C1082 C 0.55100 0.49913 0.18502
 C1083 C 0.51738 0.49680 0.15057
 C1084 C 0.51059 0.49736 0.12424
 C1085 C 0.53007 0.50141 0.10546
 C1086 C 0.55657 0.50432 0.11354
 H1087 H 0.57007 0.49873 0.23340
 H1088 H 0.63912 0.50680 0.16656
 H1089 H 0.65216 0.50284 0.21135
 H1090 H 0.60530 0.50761 0.13306
 H1091 H 0.53584 0.49669 0.19944
 H1092 H 0.50193 0.49396 0.16462
 H1093 H 0.49004 0.49508 0.11859
 H1094 H 0.57187 0.50711 0.09930
 C1095 C 0.08509 0.97754 0.71451
 C1096 C 0.06865 0.98392 0.69353
 C1097 C 0.06204 1.00957 0.68895
 C1098 C 0.06954 1.02789 0.70700
 C1099 C 0.08487 1.02114 0.72845
 C1100 C 0.09511 0.99645 0.73127
 C1101 C 0.04805 1.01644 0.66648
 C1102 C 0.03977 0.99776 0.64898
 C1103 C 0.04421 0.97179 0.65489
 C1104 C 0.05893 0.96507 0.67691
 C1105 C 0.03448 0.95298 0.63826
 C1106 C 0.02171 0.95986 0.61532
 C1107 C 0.01903 0.98561 0.60838
 C1108 C 0.02768 1.00457 0.62539
 H1109 H 0.09005 0.95780 0.71764
 H1110 H 0.06359 1.04744 0.70453
 H1111 H 0.08982 1.03571 0.74230
 H1112 H 0.04389 1.03627 0.66249
 H1113 H 0.06324 0.94525 0.68084
 H1114 H 0.03737 0.93299 0.64264
 H1115 H 0.01528 0.94505 0.60222
 H1116 H 0.02554 1.02445 0.62000
 C1117 C -0.10456 0.51327 0.69802
 C1118 C -0.08692 0.50612 0.67907
 C1119 C -0.08032 0.48039 0.67689
 C1120 C -0.09006 0.46252 0.69501
 C1121 C -0.10626 0.47009 0.71495
 C1122 C -0.11429 0.49558 0.71680
 C1123 C -0.06424 0.47303 0.65657
 C1124 C -0.05377 0.49140 0.63916
 C1125 C -0.05875 0.51744 0.64280
 C1126 C -0.07571 0.52455 0.66231
 C1127 C -0.04709 0.53600 0.62652
 C1128 C -0.03164 0.52883 0.60601
 C1129 C -0.02809 0.50304 0.60107
 C1130 C -0.03888 0.48430 0.61787
 H1131 H -0.11041 0.53281 0.69753
 H1132 H -0.08493 0.44270 0.69396
 H1133 H -0.11284 0.45583 0.72894
 H1134 H -0.05991 0.45311 0.65431
 H1135 H -0.08018 0.54446 0.66447
 H1136 H -0.05044 0.55603 0.62928
 H1137 H -0.02370 0.54343 0.59302
 H1138 H -0.03621 0.46435 0.61398
 C1139 C 0.40243 -0.00828 0.21396
 C1140 C 0.41937 -0.00476 0.19285
 C1141 C 0.42612 0.02010 0.18394
 C1142 C 0.41672 0.04097 0.19687
 C1143 C 0.40049 0.03735 0.21816
 C1144 C 0.39191 0.01270 0.22668
 C1145 C 0.44233 0.02375 0.16239
 C1146 C 0.45184 0.00276 0.14946
 C1147 C 0.44576 -0.02216 0.15883
 C1148 C 0.42971 -0.02575 0.18051
 C1149 C 0.45491 -0.04314 0.14568
 C1150 C 0.46839 -0.03955 0.12258
 C1151 C 0.47362 -0.01494 0.11258
 C1152 C 0.46613 0.00623 0.12653
 H1153 H 0.39794 -0.02749 0.22061
 H1154 H 0.42239 0.06020 0.19087
 H1155 H 0.39558 0.05414 0.22859
 H1156 H 0.44709 0.04289 0.15539
 H1157 H 0.42476 -0.04489 0.18739
 H1158 H 0.45048 -0.06237 0.15257
 H1159 H 0.47359 -0.05605 0.11174
 H1160 H 0.46948 0.02521 0.11847
 C1161 C 0.29542 0.38687 0.00519
 C1162 C 0.31888 0.40111 0.00156
 C1163 C 0.32568 0.40995 -0.02329
 C1164 C 0.30865 0.40429 -0.04412
 C1165 C 0.28547 0.38947 -0.04041
 C1166 C 0.27804 0.38039 -0.01566
 C1167 C 0.34969 0.42365 -0.02687
 C1168 C 0.36703 0.42818 -0.00584
 C1169 C 0.36011 0.41910 0.01900
 C1170 C 0.33604 0.40582 0.02255
 C1171 C 0.37742 0.42335 0.03992
 C1172 C 0.40142 0.43665 0.03642
 C1173 C 0.40861 0.44605 0.01193
 C1174 C 0.39120 0.44157 -0.00919
 H1175 H 0.29202 0.37998 0.02457
 H1176 H 0.31367 0.41065 -0.06345
 H1177 H 0.27374 0.38421 -0.05717
 H1178 H 0.35501 0.43048 -0.04600
 H1179 H 0.33082 0.39883 0.04167
 H1180 H 0.37236 0.41642 0.05907
 H1181 H 0.41422 0.43980 0.05300
 H1182 H 0.39632 0.44863 -0.02828
 C1183 C -0.22664 0.90031 0.49997
 C1184 C -0.19949 0.90708 0.50170
 C1185 C -0.18102 0.89304 0.48810
 C1186 C -0.18945 0.87190 0.47419
 C1187 C -0.21588 0.86441 0.47382
 C1188 C -0.23541 0.87859 0.48609
 C1189 C -0.15420 0.89998 0.48884
 C1190 C -0.14518 0.92031 0.50382
 C1191 C -0.16316 0.93370 0.51868
 C1192 C -0.19032 0.92730 0.51719
 C1193 C -0.15355 0.95341 0.53448
 C1194 C -0.12661 0.96033 0.53470
 C1195 C -0.10905 0.94791 0.51883
 C1196 C -0.11841 0.92765 0.50378
 H1197 H -0.24036 0.91177 0.50991
 H1198 H -0.17545 0.86058 0.46417
 H1199 H -0.22098 0.84689 0.46409
 H1200 H -0.14027 0.88940 0.47787
 H1201 H -0.20421 0.93788 0.52818
 H1202 H -0.16690 0.96380 0.54622
 H1203 H -0.11974 0.97622 0.54621
 H1204 H -0.10487 0.91801 0.49154
 C1205 C -0.21368 0.10885 0.98473
 C1206 C -0.19271 0.09189 0.98706
 C1207 C -0.18988 0.07687 1.00974
 C1208 C -0.20909 0.07764 1.02877
 C1209 C -0.22943 0.09494 1.02657
 C1210 C -0.23068 0.11254 1.00567
 C1211 C -0.16756 0.06191 1.01337
 C1212 C -0.14778 0.06202 0.99471
 C1213 C -0.15124 0.07599 0.97142
 C1214 C -0.17380 0.09066 0.96762
 C1215 C -0.13166 0.07567 0.95262
 C1216 C -0.10841 0.06251 0.95725
 C1217 C -0.10407 0.04962 0.98088
 C1218 C -0.12424 0.04900 0.99930
 H1219 H -0.21582 0.11983 0.96703
 H1220 H -0.20775 0.06564 1.04593
 H1221 H -0.24317 0.09592 1.04227
 H1222 H -0.16514 0.05090 1.03109
 H1223 H -0.17605 0.10193 0.95004
 H1224 H -0.13408 0.08603 0.93453
 H1225 H -0.09353 0.06299 0.94250
 H1226 H -0.12144 0.03886 1.01748
 C1227 C 0.29137 0.60485 0.50035
 C1228 C 0.31807 0.59829 0.49845
 C1229 C 0.33784 0.61315 0.51096
 C1230 C 0.33094 0.63496 0.52390
 C1231 C 0.30470 0.64192 0.52480
 C1232 C 0.28404 0.62691 0.51357
 C1233 C 0.36426 0.60597 0.51051
 C1234 C 0.37139 0.58435 0.49715
 C1235 C 0.35199 0.57021 0.48329
 C1236 C 0.32538 0.57707 0.48428
 C1237 C 0.35955 0.54911 0.46917
 C1238 C 0.38583 0.54145 0.46979
 C1239 C 0.40478 0.55458 0.48478
 C1240 C 0.39755 0.57629 0.49802
 H1241 H 0.27680 0.59244 0.49150
 H1242 H 0.34591 0.64683 0.53322
 H1243 H 0.30047 0.65939 0.53448
 H1244 H 0.37924 0.61709 0.52074
 H1245 H 0.31039 0.56584 0.47418
 H1246 H 0.34504 0.53814 0.45823
 H1247 H 0.39106 0.52449 0.45971
 H1248 H 0.41220 0.58641 0.50965
 C1249 C 0.21673 0.60390 0.53120
 C1250 C 0.19611 0.58636 0.52589
 C1251 C 0.19203 0.57770 0.50060
 C1252 C 0.20899 0.58657 0.48111
 C1253 C 0.22942 0.60427 0.48651
 C1254 C 0.23412 0.61331 0.51172
 C1255 C 0.17056 0.56102 0.49513
 C1256 C 0.15291 0.55330 0.51467
 C1257 C 0.15727 0.56182 0.54006
 C1258 C 0.17891 0.57810 0.54554
 C1259 C 0.13952 0.55444 0.55948
 C1260 C 0.11715 0.53935 0.55373
 C1261 C 0.11217 0.53110 0.52848
 C1262 C 0.13053 0.53784 0.50911
 H1263 H 0.21789 0.61076 0.55060
 H1264 H 0.20603 0.58038 0.46147
 H1265 H 0.24124 0.61157 0.47066
 H1266 H 0.16723 0.55458 0.47560
 H1267 H 0.18203 0.58481 0.56501
 H1268 H 0.14262 0.56080 0.57905
 H1269 H 0.10347 0.53456 0.56902
 H1270 H 0.12702 0.53179 0.48949
 C1271 C 0.70539 0.11446 0.02377
 C1272 C 0.68180 0.10012 0.01941
 C1273 C 0.67524 0.09210 -0.00575
 C1274 C 0.69238 0.09812 -0.02598
 C1275 C 0.71575 0.11205 -0.02148
 C1276 C 0.72242 0.12142 0.00317
 C1277 C 0.65196 0.07767 -0.01030
 C1278 C 0.63506 0.07087 0.01003
 C1279 C 0.64154 0.07868 0.03528
 C1280 C 0.66485 0.09328 0.03983
 C1281 C 0.62458 0.07169 0.05553
 C1282 C 0.60145 0.05715 0.05084
 C1283 C 0.59470 0.04927 0.02577
 C1284 C 0.61180 0.05630 0.00546
 H1285 H 0.71070 0.11931 0.04335
 H1286 H 0.68794 0.09166 -0.04530
 H1287 H 0.72892 0.11548 -0.03749
 H1288 H 0.64708 0.07156 -0.02968
 H1289 H 0.66980 0.09925 0.05923
 H1290 H 0.62918 0.07748 0.07504
 H1291 H 0.58877 0.05219 0.06688
 H1292 H 0.60706 0.05047 -0.01402
 C1293 C 0.69459 0.89546 0.47387
 C1294 C 0.67414 0.91137 0.48052
 C1295 C 0.67204 0.91962 0.50603
 C1296 C 0.69127 0.91243 0.52426
 C1297 C 0.71201 0.89688 0.51733
 C1298 C 0.71443 0.88804 0.49189
 C1299 C 0.65034 0.93416 0.51291
 C1300 C 0.63088 0.94058 0.49437
 C1301 C 0.63382 0.93302 0.46861
 C1302 C 0.65528 0.91845 0.46191
 C1303 C 0.61495 0.93966 0.44991
 C1304 C 0.59275 0.95290 0.45669
 C1305 C 0.58865 0.95960 0.48240
 C1306 C 0.60823 0.95385 0.50113
 H1307 H 0.69369 0.88823 0.45462
 H1308 H 0.68998 0.91837 0.54406
 H1309 H 0.72575 0.89091 0.53227
 H1310 H 0.64835 0.94006 0.53267
 H1311 H 0.65708 0.91229 0.44219
 H1312 H 0.61711 0.93419 0.43005
 H1313 H 0.57837 0.95727 0.44175
 H1314 H 0.60553 0.95899 0.52102
 C1315 C 0.22245 0.39481 0.96742
 C1316 C 0.19669 0.40402 0.96361
 C1317 C 0.17497 0.39059 0.97463
 C1318 C 0.17890 0.36791 0.98824
 C1319 C 0.20411 0.35868 0.99145
 C1320 C 0.22672 0.37177 0.98143
 C1321 C 0.14955 0.40016 0.97240
 C1322 C 0.14529 0.42312 0.95918
 C1323 C 0.16653 0.43622 0.94696
 C1324 C 0.19219 0.42662 0.94931
 C1325 C 0.16175 0.45911 0.93342
 C1326 C 0.13655 0.46957 0.93337
 C1327 C 0.11591 0.45726 0.94683
 C1328 C 0.12023 0.43372 0.95906
 H1329 H 0.23872 0.40598 0.95969
 H1330 H 0.16242 0.35727 0.99661
 H1331 H 0.20600 0.34084 1.00205
 H1332 H 0.13313 0.39001 0.98151
 H1333 H 0.20863 0.43696 0.94049
 H1334 H 0.17767 0.46941 0.92377
 H1335 H 0.13362 0.48798 0.92419
 H1336 H 0.10432 0.42433 0.96966
 C1337 C -0.00970 0.28097 0.39631
 C1338 C -0.00550 0.30250 0.41129
 C1339 C 0.01903 0.30654 0.42396
 C1340 C 0.03870 0.28880 0.42178
 C1341 C 0.03477 0.26802 0.40591
 C1342 C 0.01105 0.26440 0.39150
 C1343 C 0.02367 0.32841 0.43831
 C1344 C 0.00452 0.34693 0.43902
 C1345 C -0.02005 0.34305 0.42618
 C1346 C -0.02518 0.32049 0.41299
 C1347 C -0.03869 0.36220 0.42599
 C1348 C -0.03267 0.38526 0.43778
 C1349 C -0.00828 0.38910 0.45046
 C1350 C 0.01000 0.36973 0.45156
 H1351 H -0.02924 0.27742 0.38830
 H1352 H 0.05739 0.29122 0.43196
 H1353 H 0.05065 0.25497 0.40538
 H1354 H 0.04255 0.33148 0.44804
 H1355 H -0.04396 0.31751 0.40306
 H1356 H -0.05758 0.35959 0.41623
 H1357 H -0.04711 0.40007 0.43713
 H1358 H 0.02888 0.37285 0.46124
 C1359 C 0.49876 -0.19939 -0.12232
 C1360 C 0.49864 -0.17972 -0.10464
 C1361 C 0.50896 -0.18360 -0.07951
 C1362 C 0.51898 -0.20735 -0.07249
 C1363 C 0.51896 -0.22698 -0.09026
 C1364 C 0.50838 -0.22349 -0.11539
 C1365 C 0.50958 -0.16353 -0.06206
 C1366 C 0.49987 -0.13971 -0.06951
 C1367 C 0.48915 -0.13613 -0.09461
 C1368 C 0.48868 -0.15610 -0.11199
 C1369 C 0.47914 -0.11256 -0.10205
 C1370 C 0.47983 -0.09257 -0.08489
 C1371 C 0.49077 -0.09565 -0.05998
 C1372 C 0.50079 -0.11934 -0.05238
 H1373 H 0.49161 -0.19591 -0.14182
 H1374 H 0.52735 -0.21059 -0.05342
 H1375 H 0.52810 -0.24455 -0.08441
 H1376 H 0.51774 -0.16638 -0.04282
 H1377 H 0.48066 -0.15322 -0.13129
 H1378 H 0.47086 -0.10955 -0.12120
 H1379 H 0.47212 -0.07449 -0.09135
 H1380 H 0.50912 -0.12196 -0.03320
 C1381 C 0.00969 -0.20327 1.10478
 C1382 C 0.00932 -0.18048 1.09055
 C1383 C 0.00578 -0.18100 1.06355
 C1384 C 0.00390 -0.20440 1.05119
 C1385 C 0.00480 -0.22713 1.06548
 C1386 C 0.00645 -0.22702 1.09270
 C1387 C 0.00439 -0.15814 1.04936
 C1388 C 0.00696 -0.13481 1.06188
 C1389 C 0.01150 -0.13434 1.08883
 C1390 C 0.01241 -0.15718 1.10302
 C1391 C 0.01503 -0.11099 1.10114
 C1392 C 0.01378 -0.08828 1.08692
 C1393 C 0.00839 -0.08855 1.06031
 C1394 C 0.00513 -0.11190 1.04786
 H1395 H 0.01206 -0.20266 1.12556
 H1396 H 0.00200 -0.20514 1.03039
 H1397 H 0.00450 -0.24452 1.05479
 H1398 H 0.00133 -0.15851 1.02864
 H1399 H 0.01551 -0.15684 1.12374
 H1400 H 0.01876 -0.11030 1.12172
 H1401 H 0.01662 -0.07047 1.09683
 H1402 H 0.00142 -0.11225 1.02724
 C1403 C 0.52317 0.29656 0.58969
 C1404 C 0.52232 0.32000 0.57684
 C1405 C 0.50451 0.32328 0.55597
 C1406 C 0.48911 0.30256 0.54737
 C1407 C 0.48850 0.27990 0.56177
 C1408 C 0.50363 0.27761 0.58473
 C1409 C 0.50102 0.34753 0.54533
 C1410 C 0.51378 0.36861 0.55654
 C1411 C 0.53213 0.36532 0.57698
 C1412 C 0.53703 0.34082 0.58640
 C1413 C 0.54430 0.38667 0.58838
 C1414 C 0.53793 0.41113 0.57986
 C1415 C 0.51943 0.41446 0.55976
 C1416 C 0.50762 0.39302 0.54813
 H1417 H 0.53768 0.29443 0.60491
 H1418 H 0.47583 0.30456 0.53096
 H1419 H 0.47433 0.26507 0.55642
 H1420 H 0.48700 0.35019 0.52959
 H1421 H 0.55062 0.33822 0.60251
 H1422 H 0.55845 0.38445 0.60405
 H1423 H 0.54769 0.42737 0.58879
 H1424 H 0.49345 0.39519 0.53246
 C1425 C 0.47700 1.21203 0.59045
 C1426 C 0.48008 1.18807 0.57992
 C1427 C 0.50276 1.18326 0.56554
 C1428 C 0.52191 1.20257 0.56179
 C1429 C 0.51938 1.22596 0.57354
 C1430 C 0.49740 1.23082 0.58900
 C1431 C 0.50623 1.15906 0.55566
 C1432 C 0.48777 1.13941 0.56086
 C1433 C 0.46523 1.14406 0.57558
 C1434 C 0.46124 1.16854 0.58457
 C1435 C 0.44726 1.12405 0.58133
 C1436 C 0.45152 1.09965 0.57236
 C1437 C 0.47359 1.09512 0.55727
 C1438 C 0.49168 1.11506 0.55170
 H1439 H 0.45890 1.21523 0.60037
 H1440 H 0.53936 1.19926 0.55066
 H1441 H 0.53528 1.24002 0.57152
 H1442 H 0.52361 1.15536 0.54451
 H1443 H 0.44395 1.17218 0.59587
 H1444 H 0.42994 1.12728 0.59268
 H1445 H 0.43723 1.08450 0.57662
 H1446 H 0.50889 1.11160 0.54024
 C1447 C 0.02328 0.70466 1.09575
 C1448 C 0.02063 0.68283 1.08110
 C1449 C -0.00205 0.67889 1.06547
 C1450 C -0.02181 0.69696 1.06496
 C1451 C -0.01865 0.71913 1.07918
 C1452 C 0.00452 0.72398 1.09393
 C1453 C -0.00456 0.65693 1.05074
 C1454 C 0.01567 0.63929 1.05112
 C1455 C 0.03852 0.64345 1.06662
 C1456 C 0.04066 0.66502 1.08179
 C1457 C 0.05900 0.62606 1.06647
 C1458 C 0.05684 0.60469 1.05103
 C1459 C 0.03408 0.60047 1.03601
 C1460 C 0.01354 0.61761 1.03608
 H1461 H 0.04002 0.70599 1.10877
 H1462 H -0.03958 0.69407 1.05343
 H1463 H -0.03420 0.73286 1.07844
 H1464 H -0.02203 0.65372 1.03879
 H1465 H 0.05813 0.66821 1.09374
 H1466 H 0.07664 0.62905 1.07817
 H1467 H 0.07271 0.59130 1.05099
 H1468 H -0.00388 0.61414 1.02420
 C1469 C 0.49901 0.71914 -0.10688
 C1470 C 0.50140 0.69404 -0.09810
 C1471 C 0.52082 0.67859 -0.10843
 C1472 C 0.53714 0.68849 -0.12790
 C1473 C 0.53432 0.71349 -0.13693
 C1474 C 0.51577 0.72958 -0.12594
 C1475 C 0.52330 0.65344 -0.09937
 C1476 C 0.50638 0.64362 -0.08024
 C1477 C 0.48666 0.65913 -0.07035
 C1478 C 0.48435 0.68420 -0.07928
 C1479 C 0.46958 0.64943 -0.05151
 C1480 C 0.47225 0.62472 -0.04207
 C1481 C 0.49211 0.60915 -0.05124
 C1482 C 0.50895 0.61864 -0.07065
 H1483 H 0.48384 0.73066 -0.09893
 H1484 H 0.55175 0.67676 -0.13651
 H1485 H 0.54639 0.71982 -0.15294
 H1486 H 0.53831 0.64158 -0.10716
 H1487 H 0.46931 0.69607 -0.07153
 H1488 H 0.45429 0.66104 -0.04387
 H1489 H 0.45880 0.61794 -0.02727
 H1490 H 0.52430 0.60686 -0.07790
 C1491 C 0.00416 1.19313 0.38044
 C1492 C -0.00037 1.17127 0.39543
 C1493 C -0.01001 1.17334 0.42065
 C1494 C -0.01547 1.19727 0.43020
 C1495 C -0.01042 1.21912 0.41528
 C1496 C 0.00040 1.21755 0.39040
 C1497 C -0.01360 1.15149 0.43606
 C1498 C -0.00690 1.12777 0.42671
 C1499 C 0.00257 1.12569 0.40136
 C1500 C 0.00536 1.14745 0.38570
 C1501 C 0.00977 1.10198 0.39233
 C1502 C 0.00830 1.08060 0.40858
 C1503 C -0.00076 1.08265 0.43390
 C1504 C -0.00879 1.10620 0.44268
 H1505 H 0.01104 1.19129 0.36089
 H1506 H -0.02328 1.19913 0.44937
 H1507 H -0.01501 1.23713 0.42356
 H1508 H -0.02084 1.15303 0.45552
 H1509 H 0.01282 1.14596 0.36631
 H1510 H 0.01699 1.10006 0.37294
 H1511 H 0.01428 1.06247 0.40135
 H1512 H -0.01570 1.10793 0.46222
 C1513 C 0.77324 0.66564 0.95804
 C1514 C 0.77315 0.67452 0.93228
 C1515 C 0.77218 0.65682 0.91214
 C1516 C 0.77150 0.63073 0.91796
 C1517 C 0.77057 0.62210 0.94349
 C1518 C 0.77043 0.63926 0.96410
 C1519 C 0.77144 0.66541 0.88645
 C1520 C 0.77092 0.69153 0.88053
 C1521 C 0.77175 0.70941 0.90048
 C1522 C 0.77327 0.70080 0.92630
 C1523 C 0.77059 0.73551 0.89418
 C1524 C 0.76839 0.74375 0.86836
 C1525 C 0.76766 0.72603 0.84840
 C1526 C 0.76910 0.69992 0.85483
 H1527 H 0.77498 0.67956 0.97305
 H1528 H 0.77095 0.61692 0.90271
 H1529 H 0.76899 0.60178 0.94715
 H1530 H 0.77069 0.65173 0.87105
 H1531 H 0.77384 0.71447 0.94169
 H1532 H 0.77112 0.74953 0.90922
 H1533 H 0.76734 0.76393 0.86403
 H1534 H 0.76833 0.68586 0.83981
 C1535 C 0.24016 0.17169 0.46534
 C1536 C 0.24034 0.18050 0.43943
 C1537 C 0.24711 0.16369 0.41980
 C1538 C 0.25361 0.13868 0.42608
 C1539 C 0.25346 0.13014 0.45157
 C1540 C 0.24654 0.14617 0.47183
 C1541 C 0.24751 0.17205 0.39408
 C1542 C 0.24150 0.19718 0.38744
 C1543 C 0.23468 0.21429 0.40670
 C1544 C 0.23404 0.20582 0.43269
 C1545 C 0.22891 0.23953 0.39949
 C1546 C 0.23040 0.24772 0.37355
 C1547 C 0.23757 0.23078 0.35437
 C1548 C 0.24269 0.20540 0.36169
 H1549 H 0.23515 0.18486 0.48012
 H1550 H 0.25888 0.12561 0.41122
 H1551 H 0.25846 0.11054 0.45560
 H1552 H 0.25280 0.15900 0.37917
 H1553 H 0.22885 0.21889 0.44758
 H1554 H 0.22358 0.25300 0.41393
 H1555 H 0.22634 0.26735 0.36859
 H1556 H 0.24811 0.19185 0.34733
 C1557 C 0.76231 0.34057 0.47093
 C1558 C 0.75619 0.32531 0.44934
 C1559 C 0.73022 0.32484 0.43903
 C1560 C 0.71056 0.33781 0.45127
 C1561 C 0.71672 0.35272 0.47240
 C1562 C 0.74309 0.35635 0.48139
 C1563 C 0.72413 0.31158 0.41651
 C1564 C 0.74363 0.29855 0.40389
 C1565 C 0.76934 0.29755 0.41470
 C1566 C 0.77552 0.31098 0.43741
 C1567 C 0.78849 0.28369 0.40213
 C1568 C 0.78248 0.27200 0.37858
 C1569 C 0.75737 0.27429 0.36709
 C1570 C 0.73790 0.28714 0.38017
 H1571 H 0.78213 0.34083 0.47900
 H1572 H 0.69030 0.33667 0.44433
 H1573 H 0.70038 0.36172 0.48138
 H1574 H 0.70427 0.31190 0.40846
 H1575 H 0.79541 0.31083 0.44534
 H1576 H 0.80827 0.28244 0.41013
 H1577 H 0.79784 0.26228 0.36872
 H1578 H 0.71843 0.28884 0.37149
 C1579 C 0.24534 0.82644 0.98461
 C1580 C 0.24467 0.81622 0.95966
 C1581 C 0.23635 0.83164 0.93862
 C1582 C 0.22883 0.85656 0.94246
 C1583 C 0.22978 0.86657 0.96693
 C1584 C 0.23823 0.85202 0.98855
 C1585 C 0.23569 0.82210 0.91381
 C1586 C 0.24322 0.79725 0.90942
 C1587 C 0.25160 0.78139 0.92995
 C1588 C 0.25227 0.79101 0.95519
 C1589 C 0.25907 0.75639 0.92460
 C1590 C 0.25789 0.74735 0.89917
 C1591 C 0.24917 0.76323 0.87886
 C1592 C 0.24225 0.78824 0.88444
 H1593 H 0.25158 0.81443 1.00055
 H1594 H 0.22246 0.86851 0.92643
 H1595 H 0.22441 0.88623 0.96901
 H1596 H 0.22927 0.83411 0.89780
 H1597 H 0.25871 0.77901 0.97117
 H1598 H 0.26567 0.74384 0.94004
 H1599 H 0.26348 0.72804 0.89547
 H1600 H 0.23589 0.80116 0.86919
 C1601 C 0.22418 0.83621 0.05415
 C1602 C 0.22974 0.81984 0.07507
 C1603 C 0.25606 0.81373 0.08095
 C1604 C 0.27610 0.82222 0.06433
 C1605 C 0.27023 0.83745 0.04269
 C1606 C 0.24430 0.84575 0.03758
 C1607 C 0.26187 0.79973 0.10360
 C1608 C 0.24147 0.79127 0.12001
 C1609 C 0.21492 0.79547 0.11279
 C1610 C 0.20926 0.80996 0.09055
 C1611 C 0.19449 0.78603 0.12854
 C1612 C 0.20029 0.77413 0.15215
 C1613 C 0.22652 0.77178 0.16050
 C1614 C 0.24710 0.77971 0.14405
 H1615 H 0.20400 0.84158 0.05173
 H1616 H 0.29639 0.81722 0.06813
 H1617 H 0.28629 0.84343 0.03025
 H1618 H 0.28221 0.79596 0.10873
 H1619 H 0.18893 0.81406 0.08563
 H1620 H 0.17404 0.78882 0.12312
 H1621 H 0.18426 0.76857 0.16477
 H1622 H 0.26741 0.77800 0.15054
 C1623 C 0.73180 0.34348 0.53949
 C1624 C 0.73573 0.32846 0.56215
 C1625 C 0.76118 0.32760 0.57354
 C1626 C 0.78240 0.34000 0.56150
 C1627 C 0.77851 0.35424 0.53904
 C1628 C 0.75295 0.35798 0.52841
 C1629 C 0.76529 0.31434 0.59684
 C1630 C 0.74434 0.30144 0.60904
 C1631 C 0.71906 0.30078 0.59721
 C1632 C 0.71482 0.31446 0.57385
 C1633 C 0.69843 0.28698 0.60940
 C1634 C 0.70259 0.27508 0.63355
 C1635 C 0.72733 0.27706 0.64599
 C1636 C 0.74823 0.28982 0.63333
 H1637 H 0.71230 0.34425 0.53076
 H1638 H 0.80222 0.33862 0.56942
 H1639 H 0.79606 0.36236 0.53021
 H1640 H 0.78480 0.31438 0.60570
 H1641 H 0.69529 0.31455 0.56508
 H1642 H 0.67892 0.28600 0.60063
 H1643 H 0.68613 0.26559 0.64316
 H1644 H 0.76736 0.29143 0.64286
 C1645 C 0.26572 0.16599 0.53527
 C1646 C 0.26178 0.18216 0.55600
 C1647 C 0.23595 0.18843 0.56268
 C1648 C 0.21475 0.18057 0.54687
 C1649 C 0.21892 0.16519 0.52568
 C1650 C 0.24427 0.15620 0.52024
 C1651 C 0.23174 0.20171 0.58545
 C1652 C 0.25321 0.20905 0.60136
 C1653 C 0.27922 0.20482 0.59335
 C1654 C 0.28334 0.19128 0.57079
 C1655 C 0.30067 0.21308 0.60874
 C1656 C 0.29642 0.22368 0.63279
 C1657 C 0.27070 0.22583 0.64190
 C1658 C 0.24912 0.21932 0.62575
 H1659 H 0.28569 0.16063 0.53198
 H1660 H 0.19481 0.18581 0.55124
 H1661 H 0.20196 0.15917 0.51420
 H1662 H 0.21179 0.20553 0.59123
 H1663 H 0.30327 0.18703 0.56529
 H1664 H 0.32074 0.21028 0.60270
 H1665 H 0.31324 0.22838 0.64507
 H1666 H 0.22922 0.22099 0.63276
 C1667 C 0.78274 0.65263 0.03359
 C1668 C 0.77872 0.67144 0.05199
 C1669 C 0.75623 0.68667 0.05009
 C1670 C 0.73909 0.68407 0.02896
 C1671 C 0.74380 0.66619 0.01021
 C1672 C 0.76557 0.64988 0.01202
 C1673 C 0.75078 0.70372 0.06969
 C1674 C 0.76789 0.70616 0.09101
 C1675 C 0.79146 0.69233 0.09195
 C1676 C 0.79657 0.67487 0.07263
 C1677 C 0.80903 0.69543 0.11280
 C1678 C 0.80250 0.71070 0.13334
 C1679 C 0.77832 0.72302 0.13342
 C1680 C 0.76130 0.72127 0.11195
 H1681 H 0.79872 0.63984 0.03699
 H1682 H 0.72182 0.69568 0.02704
 H1683 H 0.72988 0.66465 -0.00573
 H1684 H 0.73295 0.71465 0.06864
 H1685 H 0.81418 0.66362 0.07391
 H1686 H 0.82729 0.68520 0.11375
 H1687 H 0.81557 0.71156 0.15002
 H1688 H 0.74242 0.73044 0.11222
 C1689 C 0.13716 0.54339 0.26359
 C1690 C 0.15165 0.56658 0.26109
 C1691 C 0.17108 0.56958 0.24199
 C1692 C 0.17611 0.54898 0.22615
 C1693 C 0.16112 0.52621 0.22824
 C1694 C 0.14099 0.52294 0.24667
 C1695 C 0.18450 0.59332 0.23854
 C1696 C 0.17856 0.61420 0.25391
 C1697 C 0.15929 0.61088 0.27324
 C1698 C 0.14607 0.58722 0.27670
 C1699 C 0.15349 0.63130 0.28895
 C1700 C 0.16686 0.65471 0.28596
 C1701 C 0.18600 0.65857 0.26688
 C1702 C 0.19162 0.63825 0.25059
 H1703 H 0.12151 0.54230 0.27753
 H1704 H 0.19089 0.55085 0.21130
 H1705 H 0.16422 0.51150 0.21436
 H1706 H 0.19929 0.59561 0.22373
 H1707 H 0.13114 0.58497 0.29140
 H1708 H 0.13883 0.62906 0.30387
 H1709 H 0.16233 0.66996 0.29880
 H1710 H 0.20669 0.64088 0.23611
 C1711 C 0.65014 0.03476 0.73885
 C1712 C 0.66400 0.05782 0.74293
 C1713 C 0.67572 0.06273 0.76713
 C1714 C 0.67422 0.04376 0.78657
 C1715 C 0.66000 0.02081 0.78246
 C1716 C 0.64705 0.01589 0.75869
 C1717 C 0.68777 0.08681 0.77167
 C1718 C 0.68784 0.10602 0.75225
 C1719 C 0.67660 0.10059 0.72783
 C1720 C 0.66497 0.07657 0.72331
 C1721 C 0.67661 0.11943 0.70837
 C1722 C 0.68719 0.14373 0.71302
 C1723 C 0.69799 0.14986 0.73729
 C1724 C 0.69845 0.13069 0.75684
 H1725 H 0.64024 0.03294 0.72043
 H1726 H 0.68311 0.04709 0.80534
 H1727 H 0.65777 0.00740 0.79843
 H1728 H 0.69644 0.09081 0.79043
 H1729 H 0.65597 0.07271 0.70464
 H1730 H 0.66811 0.11548 0.68954
 H1731 H 0.68654 0.15787 0.69759
 H1732 H 0.70683 0.13498 0.77563
 C1733 C 0.84637 0.04152 0.27590
 C1734 C 0.82932 0.06215 0.27456
 C1735 C 0.81263 0.06531 0.25278
 C1736 C 0.81179 0.04675 0.23378
 C1737 C 0.82940 0.02680 0.23488
 C1738 C 0.84878 0.02528 0.25465
 C1739 C 0.79781 0.08736 0.24989
 C1740 C 0.79987 0.10656 0.26830
 C1741 C 0.81545 0.10283 0.29078
 C1742 C 0.82984 0.08049 0.29393
 C1743 C 0.81699 0.12190 0.30934
 C1744 C 0.80409 0.14484 0.30521
 C1745 C 0.78972 0.14934 0.28228
 C1746 C 0.78722 0.12974 0.26418
 H1747 H 0.85859 0.03917 0.29296
 H1748 H 0.79848 0.04839 0.21735
 H1749 H 0.82945 0.01370 0.21903
 H1750 H 0.78554 0.09004 0.23282
 H1751 H 0.84242 0.07798 0.31081
 H1752 H 0.82856 0.11925 0.32685
 H1753 H 0.80582 0.15926 0.31978
 H1754 H 0.77575 0.13264 0.24663
 C1755 C 0.35615 0.54306 0.76295
 C1756 C 0.33989 0.56423 0.76328
 C1757 C 0.31743 0.56500 0.74702
 C1758 C 0.31164 0.54445 0.73084
 C1759 C 0.32717 0.52279 0.73168
 C1760 C 0.34908 0.52099 0.74868
 C1761 C 0.30110 0.58619 0.74734
 C1762 C 0.30656 0.60624 0.76438
 C1763 C 0.32865 0.60510 0.78120
 C1764 C 0.34544 0.58433 0.78021
 C1765 C 0.33355 0.62478 0.79874
 C1766 C 0.31705 0.64571 0.79928
 C1767 C 0.29559 0.64752 0.78202
 C1768 C 0.29034 0.62749 0.76479
 H1769 H 0.37395 0.54370 0.77468
 H1770 H 0.29463 0.54481 0.71798
 H1771 H 0.32132 0.50708 0.71958
 H1772 H 0.28400 0.58693 0.73459
 H1773 H 0.36253 0.58357 0.79299
 H1774 H 0.35031 0.62411 0.81189
 H1775 H 0.32163 0.66091 0.81255
 H1776 H 0.27370 0.62853 0.75150
 C1777 C 0.36096 0.44747 0.75126
 C1778 C 0.34672 0.42420 0.75244
 C1779 C 0.31969 0.42386 0.75853
 C1780 C 0.30730 0.44693 0.76269
 C1781 C 0.32134 0.47017 0.76027
 C1782 C 0.34840 0.47098 0.75403
 C1783 C 0.30551 0.40051 0.76020
 C1784 C 0.31781 0.37760 0.75475
 C1785 C 0.34463 0.37813 0.74758
 C1786 C 0.35904 0.40134 0.74703
 C1787 C 0.35652 0.35547 0.74075
 C1788 C 0.34202 0.33244 0.74100
 C1789 C 0.31568 0.33156 0.74888
 C1790 C 0.30366 0.35417 0.75590
 H1791 H 0.38188 0.44746 0.74722
 H1792 H 0.28661 0.44704 0.76761
 H1793 H 0.31095 0.48735 0.76399
 H1794 H 0.28482 0.40021 0.76526
 H1795 H 0.37970 0.40167 0.74186
 H1796 H 0.37698 0.35559 0.73497
 H1797 H 0.35149 0.31518 0.73547
 H1798 H 0.28318 0.35354 0.76165
 C1799 C 0.85495 0.96387 0.23134
 C1800 C 0.84227 0.93973 0.23374
 C1801 C 0.83198 0.93165 0.25777
 C1802 C 0.83418 0.94784 0.27883
 C1803 C 0.84692 0.97163 0.27635
 C1804 C 0.85846 0.97985 0.25293
 C1805 C 0.81940 0.90762 0.26038
 C1806 C 0.81700 0.89139 0.23926
 C1807 C 0.82719 0.89935 0.21515
 C1808 C 0.83967 0.92352 0.21250
 C1809 C 0.82475 0.88290 0.19417
 C1810 C 0.81240 0.85882 0.19705
 C1811 C 0.80215 0.85067 0.22096
 C1812 C 0.80458 0.86727 0.24197
 H1813 H 0.86154 0.97010 0.21249
 H1814 H 0.82602 0.94211 0.29730
 H1815 H 0.84808 0.98372 0.29301
 H1816 H 0.81151 0.90153 0.27888
 H1817 H 0.84752 0.92962 0.19398
 H1818 H 0.83247 0.88864 0.17552
 H1819 H 0.81093 0.84656 0.18053
 H1820 H 0.79688 0.86144 0.26061
 C1821 C 0.66381 0.96116 0.76572
 C1822 C 0.67285 0.93585 0.76565
 C1823 C 0.65512 0.91565 0.75918
 C1824 C 0.62874 0.92070 0.75379
 C1825 C 0.61991 0.94550 0.75418
 C1826 C 0.63700 0.96647 0.76001
 C1827 C 0.66400 0.89066 0.75769
 C1828 C 0.69049 0.88528 0.76280
 C1829 C 0.70824 0.90510 0.77025
 C1830 C 0.69937 0.93030 0.77148
 C1831 C 0.73465 0.89932 0.77590
 C1832 C 0.74346 0.87437 0.77348
 C1833 C 0.72608 0.85487 0.76516
 C1834 C 0.69957 0.86041 0.76007
 H1835 H 0.67792 0.97643 0.76956
 H1836 H 0.61487 0.90543 0.74888
 H1837 H 0.59934 0.94852 0.74945
 H1838 H 0.65031 0.87540 0.75224
 H1839 H 0.71312 0.94556 0.77672
 H1840 H 0.74860 0.91415 0.78178
 H1841 H 0.76403 0.87046 0.77726
 H1842 H 0.68612 0.84538 0.75357
 C1843 C 0.15826 0.46817 0.25003
 C1844 C 0.16673 0.44268 0.25211
 C1845 C 0.14849 0.42232 0.24781
 C1846 C 0.12218 0.42758 0.24201
 C1847 C 0.11390 0.45265 0.24035
 C1848 C 0.13167 0.47365 0.24353
 C1849 C 0.15666 0.39694 0.24962
 C1850 C 0.18296 0.39141 0.25578
 C1851 C 0.20125 0.41167 0.26047
 C1852 C 0.19304 0.43712 0.25865
 C1853 C 0.22760 0.40610 0.26646
 C1854 C 0.23589 0.38086 0.26712
 C1855 C 0.21799 0.36062 0.26223
 C1856 C 0.19143 0.36599 0.25679
 H1857 H 0.17230 0.48343 0.25426
 H1858 H 0.10781 0.41223 0.23904
 H1859 H 0.09319 0.45581 0.23646
 H1860 H 0.14252 0.38147 0.24612
 H1861 H 0.20718 0.45258 0.26213
 H1862 H 0.24195 0.42132 0.27007
 H1863 H 0.25651 0.37713 0.27086
 H1864 H 0.17763 0.35047 0.25247
 C1865 C 0.03929 0.23447 0.84940
 C1866 C 0.06057 0.23604 0.83265
 C1867 C 0.06440 0.25775 0.81656
 C1868 C 0.04551 0.27668 0.81614
 C1869 C 0.02426 0.27495 0.83299
 C1870 C 0.02211 0.25492 0.85152
 C1871 C 0.08724 0.26030 0.80165
 C1872 C 0.10634 0.24147 0.80305
 C1873 C 0.10158 0.21918 0.81825
 C1874 C 0.07863 0.21648 0.83263
 C1875 C 0.12032 0.20026 0.81970
 C1876 C 0.14423 0.20383 0.80731
 C1877 C 0.14991 0.22639 0.79311
 C1878 C 0.13051 0.24486 0.79035
 H1879 H 0.03664 0.21728 0.86093
 H1880 H 0.04751 0.29310 0.80330
 H1881 H 0.01018 0.29009 0.83264
 H1882 H 0.09056 0.27725 0.78975
 H1883 H 0.07543 0.19965 0.84476
 H1884 H 0.11680 0.18298 0.83102
 H1885 H 0.15852 0.18896 0.80930
 H1886 H 0.13458 0.26220 0.77929
 C1887 C 0.54890 0.74318 0.35285
 C1888 C 0.56921 0.74648 0.33529
 C1889 C 0.57422 0.77057 0.32363
 C1890 C 0.55795 0.79080 0.32924
 C1891 C 0.53736 0.78721 0.34671
 C1892 C 0.53337 0.76367 0.35986
 C1893 C 0.59526 0.77384 0.30652
 C1894 C 0.61139 0.75330 0.30139
 C1895 C 0.60578 0.72909 0.31281
 C1896 C 0.58458 0.72581 0.32940
 C1897 C 0.62202 0.70865 0.30825
 C1898 C 0.64448 0.71239 0.29354
 C1899 C 0.65067 0.73644 0.28267
 C1900 C 0.63367 0.75670 0.28589
 H1901 H 0.54492 0.72418 0.36051
 H1902 H 0.56096 0.80928 0.31997
 H1903 H 0.52444 0.80286 0.34996
 H1904 H 0.59941 0.79238 0.29771
 H1905 H 0.58051 0.70729 0.33834
 H1906 H 0.61788 0.69002 0.31682
 H1907 H 0.65743 0.69659 0.29115
 H1908 H 0.63863 0.77532 0.27768
 C1909 C 0.54424 0.23823 0.12593
 C1910 C 0.56281 0.24089 0.14593
 C1911 C 0.55874 0.25831 0.16576
 C1912 C 0.53576 0.27234 0.16557
 C1913 C 0.51709 0.26927 0.14584
 C1914 C 0.52077 0.25213 0.12547
 C1915 C 0.57791 0.26170 0.18520
 C1916 C 0.60101 0.24768 0.18509
 C1917 C 0.60463 0.22964 0.16560
 C1918 C 0.58558 0.22645 0.14614
 C1919 C 0.62751 0.21535 0.16560
 C1920 C 0.64696 0.21936 0.18436
 C1921 C 0.64384 0.23772 0.20318
 C1922 C 0.62082 0.25170 0.20381
 H1923 H 0.54861 0.22535 0.11069
 H1924 H 0.53229 0.28588 0.18055
 H1925 H 0.49982 0.28093 0.14603
 H1926 H 0.57499 0.27539 0.20021
 H1927 H 0.58859 0.21288 0.13103
 H1928 H 0.63055 0.20142 0.15089
 H1929 H 0.66484 0.20856 0.18384
 H1930 H 0.61867 0.26595 0.21842
 C1931 C 0.03219 0.74775 0.64710
 C1932 C 0.05691 0.74799 0.65950
 C1933 C 0.07998 0.74587 0.64483
 C1934 C 0.07799 0.74348 0.61814
 C1935 C 0.05330 0.74137 0.60628
 C1936 C 0.02990 0.74201 0.62072
 C1937 C 0.10466 0.74549 0.65708
 C1938 C 0.10647 0.74568 0.68397
 C1939 C 0.08341 0.74709 0.69883
 C1940 C 0.05880 0.74906 0.68645
 C1941 C 0.08539 0.74587 0.72582
 C1942 C 0.11000 0.74321 0.73789
 C1943 C 0.13290 0.74246 0.72310
 C1944 C 0.13104 0.74384 0.69620
 H1945 H 0.01492 0.75123 0.65833
 H1946 H 0.09549 0.74217 0.60655
 H1947 H 0.05247 0.73832 0.58574
 H1948 H 0.12237 0.74406 0.64575
 H1949 H 0.04108 0.75024 0.69778
 H1950 H 0.06793 0.74674 0.73753
 H1951 H 0.11125 0.74236 0.75873
 H1952 H 0.14876 0.74300 0.68479
 C1953 C 0.95381 0.73970 0.61546
 C1954 C 0.93151 0.73407 0.63015
 C1955 C 0.93426 0.72177 0.65440
 C1956 C 0.95889 0.71268 0.66208
 C1957 C 0.98079 0.71698 0.64643
 C1958 C 0.97917 0.73272 0.62412
 C1959 C 0.91233 0.71866 0.67035
 C1960 C 0.88759 0.72685 0.66176
 C1961 C 0.88442 0.73667 0.63635
 C1962 C 0.90651 0.74062 0.62085
 C1963 C 0.85930 0.74305 0.62716
 C1964 C 0.83778 0.74128 0.64356
 C1965 C 0.84139 0.73409 0.66947
 C1966 C 0.86608 0.72610 0.67834
 H1967 H 0.95125 0.74942 0.59706
 H1968 H 0.96112 0.70192 0.67996
 H1969 H 0.99916 0.70837 0.65211
 H1970 H 0.91457 0.71021 0.68946
 H1971 H 0.90430 0.74918 0.60178
 H1972 H 0.85643 0.74999 0.60756
 H1973 H 0.81861 0.74687 0.63643
 H1974 H 0.86862 0.72005 0.69830
 C1975 C 0.46659 0.24061 0.13996
 C1976 C 0.44142 0.24141 0.15044
 C1977 C 0.41963 0.24676 0.13429
 C1978 C 0.42346 0.25100 0.10798
 C1979 C 0.44883 0.25149 0.09797
 C1980 C 0.47135 0.24788 0.11394
 C1981 C 0.39442 0.24791 0.14470
 C1982 C 0.39103 0.24496 0.17132
 C1983 C 0.41297 0.24013 0.18766
 C1984 C 0.43794 0.23770 0.17700
 C1985 C 0.40963 0.23844 0.21441
 C1986 C 0.38479 0.24178 0.22490
 C1987 C 0.36294 0.24608 0.20868
 C1988 C 0.36610 0.24740 0.18193
 H1989 H 0.48245 0.23440 0.15251
 H1990 H 0.40683 0.25442 0.09514
 H1991 H 0.45010 0.25459 0.07758
 H1992 H 0.37761 0.25185 0.13223
 H1993 H 0.45479 0.23391 0.18947
 H1994 H 0.42626 0.23492 0.22721
 H1995 H 0.38253 0.24062 0.24561
 H1996 H 0.34924 0.25107 0.16943
 C1997 C 0.46785 0.77573 0.35437
 C1998 C 0.44451 0.77129 0.34056
 C1999 C 0.44054 0.74837 0.32711
 C2000 C 0.46070 0.73072 0.32697
 C2001 C 0.48337 0.73470 0.34214
 C2002 C 0.48617 0.75633 0.35781
 C2003 C 0.41614 0.74313 0.31504
 C2004 C 0.39532 0.75986 0.31778
 C2005 C 0.39959 0.78276 0.33137
 C2006 C 0.42439 0.78875 0.34178
 C2007 C 0.37870 0.79882 0.33548
 C2008 C 0.35357 0.79212 0.32667
 C2009 C 0.34899 0.76968 0.31272
 C2010 C 0.37006 0.75370 0.30805
 H2011 H 0.47077 0.79385 0.36371
 H2012 H 0.45838 0.71329 0.31627
 H2013 H 0.49803 0.72012 0.34283
 H2014 H 0.41293 0.72548 0.30482
 H2015 H 0.42748 0.80621 0.35239
 H2016 H 0.38163 0.81628 0.34607
 H2017 H 0.33771 0.80474 0.33073
 H2018 H 0.36669 0.73629 0.29749
 C2019 C 0.95487 0.27185 0.85543
 C2020 C 0.93068 0.26794 0.84270
 C2021 C 0.92632 0.24592 0.82789
 C2022 C 0.94633 0.22837 0.82580
 C2023 C 0.96996 0.23187 0.83942
 C2024 C 0.97421 0.25301 0.85556
 C2025 C 0.90191 0.24165 0.81568
 C2026 C 0.88159 0.25878 0.81872
 C2027 C 0.88581 0.28074 0.83369
 C2028 C 0.91051 0.28541 0.84524
 C2029 C 0.86512 0.29748 0.83704
 C2030 C 0.84050 0.29254 0.82553
 C2031 C 0.83637 0.27094 0.81030
 C2032 C 0.85702 0.25412 0.80708
 H2033 H 0.95803 0.28952 0.86540
 H2034 H 0.94345 0.21155 0.81423
 H2035 H 0.98473 0.21747 0.83818
 H2036 H 0.89857 0.22476 0.80425
 H2037 H 0.91381 0.30224 0.85676
 H2038 H 0.86800 0.31436 0.84852
 H2039 H 0.82488 0.30587 0.82809
 H2040 H 0.85396 0.23727 0.79555
 C2041 C 0.58672 1.00142 0.72368
 C2042 C 0.57724 1.00267 0.69801
 C2043 C 0.59387 0.99600 0.67773
 C2044 C 0.61942 0.98810 0.68320
 C2045 C 0.62878 0.98723 0.70847
 C2046 C 0.61297 0.99425 0.72929
 C2047 C 0.58482 0.99731 0.65218
 C2048 C 0.55923 1.00515 0.64642
 C2049 C 0.54237 1.01188 0.66644
 C2050 C 0.55148 1.01062 0.69219
 C2051 C 0.51666 1.01951 0.66026
 C2052 C 0.50764 1.01989 0.63457
 C2053 C 0.52424 1.01284 0.61458
 C2054 C 0.55020 1.00588 0.62081
 H2055 H 0.57356 1.00626 0.73889
 H2056 H 0.63236 0.98287 0.66785
 H2057 H 0.64896 0.98165 0.71185
 H2058 H 0.59770 0.99210 0.63673
 H2059 H 0.53858 1.01577 0.70762
 H2060 H 0.50340 1.02479 0.67532
 H2061 H 0.48754 1.02528 0.63043
 H2062 H 0.56337 1.00032 0.60577
 C2063 C 0.10636 0.49159 1.19569
 C2064 C 0.09323 0.49798 1.17259
 C2065 C 0.08078 0.52157 1.16974
 C2066 C 0.08147 0.53829 1.19043
 C2067 C 0.09389 0.53145 1.21372
 C2068 C 0.10593 0.50758 1.21724
 C2069 C 0.06821 0.52808 1.14618
 C2070 C 0.06774 0.51101 1.12559
 C2071 C 0.07974 0.48712 1.12906
 C2072 C 0.09249 0.48090 1.15230
 C2073 C 0.07923 0.46974 1.10909
 C2074 C 0.06789 0.47617 1.08546
 C2075 C 0.05681 0.50014 1.08106
 C2076 C 0.05608 0.51740 1.10145
 H2077 H 0.11709 0.47414 1.19630
 H2078 H 0.07229 0.55662 1.18868
 H2079 H 0.09379 0.54480 1.22933
 H2080 H 0.05900 0.54637 1.14386
 H2081 H 0.10187 0.46267 1.15458
 H2082 H 0.08804 0.45129 1.11156
 H2083 H 0.06825 0.46236 1.07025
 H2084 H 0.04757 0.53590 1.09825
 C2085 C -0.09429 -0.00457 1.21730
 C2086 C -0.08114 0.00001 1.19391
 C2087 C -0.08648 0.02226 1.17927
 C2088 C -0.10357 0.04009 1.18873
 C2089 C -0.11636 0.03549 1.21192
 C2090 C -0.11345 0.01232 1.22589
 C2091 C -0.07472 0.02647 1.15533
 C2092 C -0.05760 0.00869 1.14568
 C2093 C -0.05121 -0.01313 1.16058
 C2094 C -0.06305 -0.01737 1.18469
 C2095 C -0.03350 -0.03050 1.15075
 C2096 C -0.02306 -0.02667 1.12606
 C2097 C -0.03045 -0.00562 1.11081
 C2098 C -0.04729 0.01222 1.12101
 H2099 H -0.09021 -0.02162 1.22857
 H2100 H -0.10703 0.05772 1.17818
 H2101 H -0.12834 0.05055 1.21878
 H2102 H -0.07927 0.04338 1.14398
 H2103 H -0.05862 -0.03434 1.19598
 H2104 H -0.02815 -0.04725 1.16192
 H2105 H -0.01008 -0.04062 1.11851
 H2106 H -0.05276 0.02873 1.10947
 C2107 C 0.40572 0.50607 0.71978
 C2108 C 0.41775 0.50285 0.69546
 C2109 C 0.40338 0.49036 0.67563
 C2110 C 0.37796 0.48101 0.68010
 C2111 C 0.36686 0.48316 0.70412
 C2112 C 0.38057 0.49464 0.72515
 C2113 C 0.41425 0.48758 0.65127
 C2114 C 0.43983 0.49653 0.64619
 C2115 C 0.45507 0.50821 0.66589
 C2116 C 0.44380 0.51171 0.69038
 C2117 C 0.48114 0.51632 0.66046
 C2118 C 0.49146 0.51364 0.63563
 C2119 C 0.47575 0.50315 0.61575
 C2120 C 0.45009 0.49430 0.62140
 H2121 H 0.41572 0.51785 0.73387
 H2122 H 0.36654 0.47177 0.66496
 H2123 H 0.34701 0.47540 0.70600
 H2124 H 0.40269 0.47840 0.63615
 H2125 H 0.45529 0.52105 0.70540
 H2126 H 0.49337 0.52516 0.67524
 H2127 H 0.51121 0.52087 0.63164
 H2128 H 0.43785 0.48614 0.60619
 C2129 C 0.40813 0.49704 -0.21777
 C2130 C 0.41858 0.50176 -0.19267
 C2131 C 0.40108 0.50406 -0.17189
 C2132 C 0.37406 0.50164 -0.17594
 C2133 C 0.36401 0.49828 -0.20050
 C2134 C 0.38041 0.49674 -0.22232
 C2135 C 0.41056 0.50894 -0.14710
 C2136 C 0.43752 0.51193 -0.14232
 C2137 C 0.45557 0.51005 -0.16260
 C2138 C 0.44600 0.50475 -0.18778
 C2139 C 0.48273 0.51328 -0.15702
 C2140 C 0.49166 0.51728 -0.13153
 C2141 C 0.47353 0.51812 -0.11131
 C2142 C 0.44651 0.51615 -0.11717
 H2143 H 0.42164 0.49369 -0.23307
 H2144 H 0.36047 0.50323 -0.16015
 H2145 H 0.34278 0.49817 -0.20257
 H2146 H 0.39682 0.51045 -0.13138
 H2147 H 0.45976 0.50319 -0.20343
 H2148 H 0.49705 0.51206 -0.17220
 H2149 H 0.51265 0.51852 -0.12747
 H2150 H 0.43229 0.51700 -0.10180
 C2151 C -0.09533 0.98985 0.28656
 C2152 C -0.07702 0.99409 0.30669
 C2153 C -0.06852 1.01916 0.31254
 C2154 C -0.07670 1.03935 0.29666
 C2155 C -0.09466 1.03492 0.27646
 C2156 C -0.10613 1.01044 0.27246
 C2157 C -0.05250 1.02365 0.33442
 C2158 C -0.04510 1.00328 0.35064
 C2159 C -0.05222 0.97805 0.34366
 C2160 C -0.06787 0.97362 0.32165
 C2161 C -0.04492 0.95763 0.35965
 C2162 C -0.03264 0.96217 0.38334
 C2163 C -0.02699 0.98713 0.39129
 C2164 C -0.03220 1.00769 0.37446
 H2165 H -0.10131 0.97044 0.28233
 H2166 H -0.06967 1.05865 0.30016
 H2167 H -0.10077 1.05101 0.26470
 H2168 H -0.04675 1.04300 0.33938
 H2169 H -0.07401 0.95431 0.31692
 H2170 H -0.05002 0.93820 0.35451
 H2171 H -0.02887 0.94617 0.39624
 H2172 H -0.02821 1.02699 0.38075
 C2173 C 0.10985 0.49198 0.29078
 C2174 C 0.09270 0.48706 0.31134
 C2175 C 0.06563 0.49216 0.30854
 C2176 C 0.05596 0.50046 0.28451
 C2177 C 0.07283 0.50336 0.26346
 C2178 C 0.10033 0.49976 0.26624
 C2179 C 0.04871 0.48849 0.32968
 C2180 C 0.05845 0.47867 0.35324
 C2181 C 0.08522 0.47173 0.35513
 C2182 C 0.10221 0.47643 0.33444
 C2183 C 0.09488 0.46078 0.37797
 C2184 C 0.07889 0.45852 0.39946
 C2185 C 0.05298 0.46745 0.39877
 C2186 C 0.04235 0.47649 0.37524
 H2187 H 0.13071 0.48860 0.29347
 H2188 H 0.03512 0.50384 0.28173
 H2189 H 0.06375 0.50789 0.24512
 H2190 H 0.02809 0.49323 0.32778
 H2191 H 0.12286 0.47176 0.33633
 H2192 H 0.11515 0.45487 0.37955
 H2193 H 0.08740 0.45125 0.41730
 H2194 H 0.02244 0.48348 0.37453
 C2195 C 0.59616 -0.01982 -0.20372
 C2196 C 0.57896 -0.01391 -0.18381
 C2197 C 0.57160 0.01148 -0.18046
 C2198 C 0.57985 0.03018 -0.19839
 C2199 C 0.59582 0.02393 -0.21898
 C2200 C 0.60506 -0.00104 -0.22186
 C2201 C 0.55648 0.01775 -0.15905
 C2202 C 0.54784 -0.00131 -0.14148
 C2203 C 0.55341 -0.02703 -0.14616
 C2204 C 0.56929 -0.03310 -0.16697
 C2205 C 0.54358 -0.04627 -0.12953
 C2206 C 0.52950 -0.04005 -0.10771
 C2207 C 0.52543 -0.01454 -0.10185
 C2208 C 0.53431 0.00484 -0.11897
 H2209 H 0.60273 -0.03911 -0.20423
 H2210 H 0.57404 0.04973 -0.19647
 H2211 H 0.60166 0.03898 -0.23242
 H2212 H 0.55168 0.03743 -0.15595
 H2213 H 0.57432 -0.05276 -0.16992
 H2214 H 0.54741 -0.06608 -0.13300
 H2215 H 0.52320 -0.05515 -0.09450
 H2216 H 0.53128 0.02458 -0.11441
 C2217 C 0.71965 0.61417 -0.02329
 C2218 C 0.69516 0.60183 -0.01859
 C2219 C 0.69096 0.58871 0.00506
 C2220 C 0.71123 0.58822 0.02363
 C2221 C 0.73546 0.60056 0.01888
 C2222 C 0.74052 0.61336 -0.00481
 C2223 C 0.66645 0.57661 0.00995
 C2224 C 0.64598 0.57745 -0.00853
 C2225 C 0.65013 0.59053 -0.03223
 C2226 C 0.67466 0.60268 -0.03709
 C2227 C 0.62966 0.59120 -0.05069
 C2228 C 0.60533 0.57895 -0.04579
 C2229 C 0.60088 0.56590 -0.02227
 C2230 C 0.62142 0.56535 -0.00368
 H2231 H 0.72183 0.62502 -0.04106
 H2232 H 0.70828 0.57849 0.04200
 H2233 H 0.75053 0.60024 0.03388
 H2234 H 0.66328 0.56661 0.02817
 H2235 H 0.67779 0.61276 -0.05527
 H2236 H 0.63249 0.60113 -0.06897
 H2237 H 0.58997 0.57976 -0.06047
 H2238 H 0.61846 0.55528 0.01451
 C2239 C 0.20565 1.10853 0.48357
 C2240 C 0.18353 1.09241 0.48799
 C2241 C 0.17842 1.08291 0.51305
 C2242 C 0.19589 1.08940 0.53319
 C2243 C 0.21802 1.10533 0.52861
 C2244 C 0.22376 1.11517 0.50366
 C2245 C 0.15566 1.06758 0.51758
 C2246 C 0.13794 1.06169 0.49726
 C2247 C 0.14346 1.07086 0.47209
 C2248 C 0.16614 1.08613 0.46763
 C2249 C 0.12599 1.06493 0.45177
 C2250 C 0.10287 1.05055 0.45632
 C2251 C 0.09662 1.04176 0.48133
 C2252 C 0.11457 1.04719 0.50172
 H2253 H 0.20772 1.11628 0.46432
 H2254 H 0.19225 1.08245 0.55264
 H2255 H 0.23064 1.11042 0.54482
 H2256 H 0.15155 1.06054 0.53693
 H2257 H 0.17011 1.09336 0.44831
 H2258 H 0.13001 1.07174 0.43234
 H2259 H 0.08960 1.04678 0.44023
 H2260 H 0.11018 1.04056 0.52113
 C2261 C 0.20782 -0.09643 1.02348
 C2262 C 0.18228 -0.08638 1.02422
 C2263 C 0.16002 -0.10220 1.01869
 C2264 C 0.16346 -0.12763 1.01264
 C2265 C 0.18864 -0.13742 1.01195
 C2266 C 0.21154 -0.12240 1.01777
 C2267 C 0.13461 -0.09232 1.01873
 C2268 C 0.13100 -0.06662 1.02399
 C2269 C 0.15310 -0.05065 1.02982
 C2270 C 0.17861 -0.06064 1.02998
 C2271 C 0.14927 -0.02482 1.03480
 C2272 C 0.12392 -0.01483 1.03326
 C2273 C 0.10207 -0.03057 1.02707
 C2274 C 0.10566 -0.05649 1.02275
 H2275 H 0.22441 -0.08360 1.02684
 H2276 H 0.14662 -0.13999 1.00816
 H2277 H 0.19031 -0.15721 1.00691
 H2278 H 0.11765 -0.10456 1.01422
 H2279 H 0.19557 -0.04833 1.03423
 H2280 H 0.16592 -0.01223 1.03928
 H2281 H 0.12144 0.00530 1.03627
 H2282 H 0.08877 -0.06855 1.01758
 C2283 C 0.71063 0.39914 0.52583
 C2284 C 0.69010 0.41683 0.52377
 C2285 C 0.68643 0.43080 0.50047
 C2286 C 0.70327 0.42743 0.47992
 C2287 C 0.72310 0.40982 0.48190
 C2288 C 0.72689 0.39473 0.50447
 C2289 C 0.66572 0.44774 0.49773
 C2290 C 0.64806 0.45076 0.51779
 C2291 C 0.65166 0.43730 0.54135
 C2292 C 0.67284 0.42057 0.54432
 C2293 C 0.63355 0.44038 0.56119
 C2294 C 0.61162 0.45579 0.55732
 C2295 C 0.60747 0.46861 0.53357
 C2296 C 0.62629 0.46641 0.51417
 H2297 H 0.71367 0.38908 0.54392
 H2298 H 0.70086 0.43815 0.46203
 H2299 H 0.73547 0.40747 0.46532
 H2300 H 0.66296 0.45813 0.47966
 H2301 H 0.67545 0.41003 0.56230
 H2302 H 0.63591 0.43032 0.57946
 H2303 H 0.59746 0.45695 0.57264
 H2304 H 0.62353 0.47613 0.49575
 C2305 C -0.20852 0.39396 0.47927
 C2306 C -0.18541 0.40975 0.47970
 C2307 C -0.18047 0.42580 0.50089
 C2308 C -0.19833 0.42619 0.52100
 C2309 C -0.22041 0.41004 0.52091
 C2310 C -0.22578 0.39298 0.50059
 C2311 C -0.15738 0.44090 0.50220
 C2312 C -0.13836 0.43962 0.48310
 C2313 C -0.14292 0.42392 0.46165
 C2314 C -0.16671 0.40936 0.45980
 C2315 C -0.12314 0.42253 0.44301
 C2316 C -0.09874 0.43554 0.44638
 C2317 C -0.09383 0.45040 0.46829
 C2318 C -0.11428 0.45298 0.48600
 H2319 H -0.21258 0.38263 0.46249
 H2320 H -0.19488 0.43852 0.53727
 H2321 H -0.23331 0.41037 0.53735
 H2322 H -0.15374 0.45296 0.51869
 H2323 H -0.17019 0.39709 0.44348
 H2324 H -0.12618 0.41069 0.42632
 H2325 H -0.08344 0.43319 0.43236
 H2326 H -0.11108 0.46452 0.50292
 C2327 C 0.28018 -0.11087 -0.00559
 C2328 C 0.30286 -0.09506 -0.00376
 C2329 C 0.30885 -0.08263 0.01948
 C2330 C 0.29168 -0.08584 0.04031
 C2331 C 0.26908 -0.10169 0.03836
 C2332 C 0.26257 -0.11455 0.01537
 C2333 C 0.33232 -0.06788 0.02172
 C2334 C 0.34997 -0.06571 0.00104
 C2335 C 0.34366 -0.07773 -0.02243
 C2336 C 0.32010 -0.09224 -0.02472
 C2337 C 0.36135 -0.07554 -0.04301
 C2338 C 0.38554 -0.06229 -0.04013
 C2339 C 0.39249 -0.05095 -0.01662
 C2340 C 0.37419 -0.05233 0.00370
 H2341 H 0.27743 -0.12101 -0.02333
 H2342 H 0.29605 -0.07656 0.05840
 H2343 H 0.25683 -0.10446 0.05516
 H2344 H 0.33715 -0.05862 0.03974
 H2345 H 0.31545 -0.10177 -0.04263
 H2346 H 0.35673 -0.08457 -0.06117
 H2347 H 0.39913 -0.06158 -0.05605
 H2348 H 0.37903 -0.04355 0.02195
 C2349 C 0.27860 1.09794 0.51512
 C2350 C 0.30409 1.08807 0.51837
 C2351 C 0.32620 1.10218 0.50909
 C2352 C 0.32268 1.12580 0.49698
 C2353 C 0.29756 1.13561 0.49420
 C2354 C 0.27480 1.12227 0.50344
 C2355 C 0.35156 1.09241 0.51176
 C2356 C 0.35525 1.06853 0.52351
 C2357 C 0.33335 1.05437 0.53324
 C2358 C 0.30788 1.06426 0.53065
 C2359 C 0.33734 1.03028 0.54472
 C2360 C 0.36258 1.01993 0.54553
 C2361 C 0.38417 1.03374 0.53528
 C2362 C 0.38046 1.05818 0.52475
 H2363 H 0.26217 1.08629 0.52174
 H2364 H 0.33943 1.13686 0.48974
 H2365 H 0.29594 1.15427 0.48517
 H2366 H 0.36841 1.10324 0.50431
 H2367 H 0.29102 1.05331 0.53789
 H2368 H 0.32083 1.01910 0.55228
 H2369 H 0.36508 1.00082 0.55318
 H2370 H 0.39709 1.06861 0.51635
 C2371 C -0.18259 0.62014 0.99763
 C2372 C -0.16092 0.60383 0.99968
 C2373 C -0.16522 0.57725 0.99792
 C2374 C -0.19095 0.56738 0.99535
 C2375 C -0.21233 0.58351 0.99452
 C2376 C -0.20891 0.61031 0.99617
 C2377 C -0.14374 0.56090 0.99816
 C2378 C -0.11786 0.57065 1.00101
 C2379 C -0.11353 0.59709 1.00445
 C2380 C -0.13502 0.61356 1.00332
 C2381 C -0.08767 0.60660 1.00843
 C2382 C -0.06630 0.59029 1.00794
 C2383 C -0.07030 0.56429 1.00308
 C2384 C -0.09619 0.55449 0.99990
 H2385 H -0.17901 0.64057 0.99726
 H2386 H -0.19459 0.54706 0.99365
 H2387 H -0.23152 0.57460 0.99135
 H2388 H -0.14717 0.54058 0.99597
 H2389 H -0.13158 0.63391 1.00523
 H2390 H -0.08391 0.62675 1.01132
 H2391 H -0.04648 0.59824 1.00992
 H2392 H -0.09936 0.53446 0.99590
 C2393 C 0.01895 0.69318 0.59703
 C2394 C 0.01822 0.67111 0.58259
 C2395 C 0.00062 0.66898 0.56136
 C2396 C -0.01617 0.68885 0.55512
 C2397 C -0.01526 0.71086 0.56959
 C2398 C 0.00314 0.71389 0.59007
 C2399 C -0.00039 0.64676 0.54709
 C2400 C 0.01571 0.62654 0.55409
 C2401 C 0.03339 0.62865 0.57531
 C2402 C 0.03464 0.65103 0.58937
 C2403 C 0.04911 0.60812 0.58243
 C2404 C 0.04668 0.58540 0.56911
 C2405 C 0.02874 0.58311 0.54833
 C2406 C 0.01375 0.60393 0.54059
 H2407 H 0.03168 0.69397 0.61394
 H2408 H -0.03018 0.68730 0.53923
 H2409 H -0.02886 0.72569 0.56453
 H2410 H -0.01404 0.64501 0.53089
 H2411 H 0.04810 0.65269 0.60573
 H2412 H 0.06282 0.60945 0.59858
 H2413 H 0.05861 0.56954 0.57523
 H2414 H -0.00025 0.60226 0.52469
 C2415 C 0.49718 0.20114 0.10084
 C2416 C 0.50221 0.17799 0.08936
 C2417 C 0.51467 0.17787 0.06523
 C2418 C 0.52369 0.20081 0.05400
 C2419 C 0.51959 0.22377 0.06614
 C2420 C 0.50462 0.22457 0.08891
 C2421 C 0.51817 0.15480 0.05290
 C2422 C 0.50989 0.13186 0.06477
 C2423 C 0.49903 0.13185 0.08974
 C2424 C 0.49502 0.15497 0.10178
 C2425 C 0.49181 0.10870 0.10195
 C2426 C 0.49427 0.08585 0.08906
 C2427 C 0.50353 0.08604 0.06376
 C2428 C 0.51177 0.10893 0.05184
 H2429 H 0.48786 0.20074 0.11944
 H2430 H 0.53439 0.20098 0.03607
 H2431 H 0.52859 0.24078 0.05770
 H2432 H 0.52712 0.15472 0.03404
 H2433 H 0.48604 0.15506 0.12062
 H2434 H 0.48372 0.10834 0.12117
 H2435 H 0.48777 0.06816 0.09833
 H2436 H 0.51909 0.10886 0.03230
 C2437 C -0.01821 0.21411 0.89528
 C2438 C -0.01436 0.19276 0.91119
 C2439 C 0.00948 0.19036 0.92529
 C2440 C 0.02885 0.20980 0.92365
 C2441 C 0.02524 0.23064 0.90701
 C2442 C 0.00225 0.23249 0.89142
 C2443 C 0.01375 0.16835 0.94031
 C2444 C -0.00518 0.14836 0.94052
 C2445 C -0.02905 0.15090 0.92637
 C2446 C -0.03374 0.17330 0.91232
 C2447 C -0.04755 0.13065 0.92581
 C2448 C -0.04218 0.10780 0.93858
 C2449 C -0.01854 0.10501 0.95263
 C2450 C -0.00028 0.12554 0.95396
 H2451 H -0.03713 0.21582 0.88570
 H2452 H 0.04711 0.20855 0.93464
 H2453 H 0.04089 0.24501 0.90547
 H2454 H 0.03211 0.16642 0.95106
 H2455 H -0.05199 0.17512 0.90135
 H2456 H -0.06591 0.13228 0.91503
 H2457 H -0.05657 0.09226 0.93749
 H2458 H 0.01809 0.12343 0.96464
 C2459 C 0.49205 0.71689 0.39803
 C2460 C 0.49566 0.69551 0.41383
 C2461 C 0.51956 0.69278 0.42781
 C2462 C 0.53925 0.71186 0.42613
 C2463 C 0.53568 0.73294 0.40993
 C2464 C 0.51255 0.73519 0.39465
 C2465 C 0.52346 0.67094 0.44299
 C2466 C 0.50403 0.65151 0.44368
 C2467 C 0.48004 0.65435 0.42977
 C2468 C 0.47582 0.67656 0.41533
 C2469 C 0.46096 0.63460 0.42991
 C2470 C 0.46597 0.61188 0.44305
 C2471 C 0.48988 0.60887 0.45661
 C2472 C 0.50859 0.62891 0.45738
 H2473 H 0.47310 0.71910 0.38856
 H2474 H 0.55751 0.71034 0.43708
 H2475 H 0.55123 0.74746 0.40891
 H2476 H 0.54185 0.66873 0.45363
 H2477 H 0.45750 0.67868 0.40453
 H2478 H 0.44248 0.63650 0.41940
 H2479 H 0.45118 0.59661 0.44259
 H2480 H 0.52711 0.62652 0.46774
 C2481 C 0.52372 0.79858 0.40347
 C2482 C 0.51786 0.81756 0.42087
 C2483 C 0.49325 0.81692 0.43339
 C2484 C 0.47530 0.79684 0.42902
 C2485 C 0.48100 0.77841 0.41126
 C2486 C 0.50464 0.77972 0.39706
 C2487 C 0.48663 0.83671 0.44950
 C2488 C 0.50387 0.85770 0.45237
 C2489 C 0.52876 0.85811 0.44027
 C2490 C 0.53586 0.83774 0.42514
 C2491 C 0.54561 0.87949 0.44240
 C2492 C 0.53722 0.90083 0.45506
 C2493 C 0.51222 0.90085 0.46636
 C2494 C 0.49599 0.87893 0.46590
 H2495 H 0.54302 0.79886 0.39486
 H2496 H 0.45655 0.79573 0.43881
 H2497 H 0.46643 0.76333 0.40795
 H2498 H 0.46757 0.83636 0.45876
 H2499 H 0.55475 0.83827 0.41557
 H2500 H 0.56477 0.88013 0.43339
 H2501 H 0.55006 0.91759 0.45564
 H2502 H 0.47666 0.87905 0.47456
 C2503 C 0.02109 0.29811 0.88601
 C2504 C 0.01874 0.32145 0.89803
 C2505 C -0.00204 0.32493 0.91531
 C2506 C -0.01963 0.30466 0.92085
 C2507 C -0.01798 0.28190 0.90766
 C2508 C 0.00123 0.27894 0.88854
 C2509 C -0.00522 0.34874 0.92626
 C2510 C 0.01153 0.36931 0.91928
 C2511 C 0.03232 0.36578 0.90194
 C2512 C 0.03617 0.34172 0.89190
 C2513 C 0.04863 0.38650 0.89455
 C2514 C 0.04444 0.41056 0.90429
 C2515 C 0.02402 0.41419 0.92178
 C2516 C 0.00762 0.39343 0.92916
 H2517 H 0.03808 0.29563 0.87414
 H2518 H -0.03536 0.30676 0.93449
 H2519 H -0.03272 0.26700 0.91128
 H2520 H -0.02120 0.35147 0.93952
 H2521 H 0.05203 0.33904 0.87848
 H2522 H 0.06461 0.38412 0.88124
 H2523 H 0.05758 0.42619 0.89857
 H2524 H -0.00820 0.39602 0.94262
 C2525 C 0.51514 0.29647 0.09230
 C2526 C 0.51384 0.31872 0.07734
 C2527 C 0.50170 0.31823 0.05279
 C2528 C 0.49119 0.29523 0.04361
 C2529 C 0.49142 0.27332 0.05926
 C2530 C 0.50253 0.27347 0.08452
 C2531 C 0.49985 0.34081 0.03813
 C2532 C 0.50888 0.36398 0.04848
 C2533 C 0.52059 0.36437 0.07341
 C2534 C 0.52367 0.34168 0.08732
 C2535 C 0.52835 0.38756 0.08440
 C2536 C 0.52418 0.41027 0.07098
 C2537 C 0.51300 0.40996 0.04616
 C2538 C 0.50572 0.38688 0.03471
 H2539 H 0.52584 0.29805 0.11018
 H2540 H 0.48214 0.29430 0.02461
 H2541 H 0.48277 0.25609 0.05132
 H2542 H 0.49061 0.34049 0.01916
 H2543 H 0.53271 0.34205 0.10639
 H2544 H 0.53718 0.38815 0.10353
 H2545 H 0.52996 0.42814 0.07980
 H2546 H 0.49691 0.38690 0.01555
 C2547 C -0.00779 0.78458 0.60264
 C2548 C -0.00965 0.80752 0.58883
 C2549 C -0.00224 0.80871 0.56269
 C2550 C 0.00711 0.78716 0.55090
 C2551 C 0.00886 0.76439 0.56476
 C2552 C 0.00042 0.76241 0.59055
 C2553 C -0.00359 0.83161 0.54887
 C2554 C -0.01185 0.85345 0.56095
 C2555 C -0.01950 0.85245 0.58703
 C2556 C -0.01848 0.82935 0.60084
 C2557 C -0.02747 0.87472 0.59884
 C2558 C -0.02696 0.89789 0.58510
 C2559 C -0.01856 0.89891 0.55943
 C2560 C -0.01172 0.87648 0.54736
 H2561 H -0.01279 0.78386 0.62288
 H2562 H 0.01347 0.78799 0.53104
 H2563 H 0.01721 0.74845 0.55520
 H2564 H 0.00234 0.83257 0.52885
 H2565 H -0.02416 0.82844 0.62091
 H2566 H -0.03349 0.87432 0.61880
 H2567 H -0.03234 0.91505 0.59474
 H2568 H -0.00562 0.87698 0.52741
 C2569 C 0.26505 0.32882 0.02573
 C2570 C 0.26683 0.32362 0.05241
 C2571 C 0.25684 0.34114 0.06992
 C2572 C 0.24534 0.36338 0.06078
 C2573 C 0.24416 0.36869 0.03453
 C2574 C 0.25394 0.35167 0.01633
 C2575 C 0.25871 0.33641 0.09642
 C2576 C 0.27038 0.31431 0.10590
 C2577 C 0.28054 0.29665 0.08871
 C2578 C 0.27877 0.30144 0.06198
 C2579 C 0.29189 0.27439 0.09865
 C2580 C 0.29223 0.26933 0.12527
 C2581 C 0.28153 0.28663 0.14237
 C2582 C 0.27128 0.30939 0.13243
 H2583 H 0.27303 0.31536 0.01266
 H2584 H 0.23780 0.37706 0.07399
 H2585 H 0.23635 0.38682 0.02836
 H2586 H 0.25092 0.34992 0.10971
 H2587 H 0.28653 0.28792 0.04872
 H2588 H 0.29990 0.26061 0.08584
 H2589 H 0.30026 0.25161 0.13238
 H2590 H 0.26285 0.32294 0.14524
 C2591 C 0.75394 0.83845 0.52233
 C2592 C 0.75007 0.82285 0.54416
 C2593 C 0.72449 0.81391 0.55053
 C2594 C 0.70335 0.81964 0.53386
 C2595 C 0.70734 0.83540 0.51206
 C2596 C 0.73255 0.84603 0.50635
 C2597 C 0.72048 0.80028 0.57387
 C2598 C 0.74181 0.79600 0.59096
 C2599 C 0.76755 0.80427 0.58384
 C2600 C 0.77151 0.81731 0.56043
 C2601 C 0.78888 0.80047 0.60076
 C2602 C 0.78473 0.78955 0.62505
 C2603 C 0.75937 0.78166 0.63261
 C2604 C 0.73788 0.78458 0.61547
 H2605 H 0.77379 0.84555 0.51907
 H2606 H 0.68355 0.81271 0.53817
 H2607 H 0.69042 0.84038 0.50023
 H2608 H 0.70073 0.79388 0.57913
 H2609 H 0.79121 0.82412 0.55539
 H2610 H 0.80866 0.80684 0.59560
 H2611 H 0.80125 0.78813 0.63842
 H2612 H 0.71819 0.77890 0.62158
 C2613 C 0.24139 0.66861 0.55104
 C2614 C 0.23891 0.67539 0.57704
 C2615 C 0.24776 0.65859 0.59671
 C2616 C 0.25912 0.63571 0.59040
 C2617 C 0.26147 0.62911 0.56480
 C2618 C 0.25234 0.64505 0.54448
 C2619 C 0.24527 0.66485 0.62255
 C2620 C 0.23437 0.68791 0.62924
 C2621 C 0.22555 0.70503 0.60994
 C2622 C 0.22773 0.69860 0.58382
 C2623 C 0.21507 0.72831 0.61730
 C2624 C 0.21408 0.73469 0.64347
 C2625 C 0.22330 0.71776 0.66266
 C2626 C 0.23285 0.69416 0.65515
 H2627 H 0.23463 0.68176 0.53629
 H2628 H 0.26606 0.62272 0.60533
 H2629 H 0.26987 0.61092 0.56072
 H2630 H 0.25214 0.65183 0.63753
 H2631 H 0.22096 0.71166 0.56886
 H2632 H 0.20812 0.74175 0.60282
 H2633 H 0.20662 0.75299 0.64863
 H2634 H 0.23994 0.68063 0.66949
 C2635 C 0.73374 0.16440 0.04304
 C2636 C 0.73707 0.17583 0.06738
 C2637 C 0.76079 0.17238 0.08149
 C2638 C 0.78123 0.15918 0.07065
 C2639 C 0.77787 0.14817 0.04666
 C2640 C 0.75345 0.14878 0.03314
 C2641 C 0.76393 0.18219 0.10625
 C2642 C 0.74378 0.19579 0.11726
 C2643 C 0.72045 0.20052 0.10296
 C2644 C 0.71713 0.19037 0.07809
 C2645 C 0.70086 0.21511 0.11402
 C2646 C 0.70416 0.22431 0.13914
 C2647 C 0.72680 0.21852 0.15381
 C2648 C 0.74664 0.20452 0.14253
 H2649 H 0.71559 0.16700 0.03216
 H2650 H 0.79993 0.15729 0.08078
 H2651 H 0.79471 0.13888 0.03893
 H2652 H 0.78204 0.17901 0.11709
 H2653 H 0.69902 0.19350 0.06728
 H2654 H 0.68291 0.21922 0.10335
 H2655 H 0.68870 0.23526 0.14736
 H2656 H 0.76439 0.20034 0.15354
 C2657 C 0.73498 0.16753 0.97147
 C2658 C 0.74083 0.18417 0.95059
 C2659 C 0.76735 0.19053 0.94478
 C2660 C 0.78737 0.18210 0.96146
 C2661 C 0.78134 0.16580 0.98233
 C2662 C 0.75535 0.15617 0.98622
 C2663 C 0.77339 0.20476 0.92221
 C2664 C 0.75313 0.21274 0.90538
 C2665 C 0.72652 0.20787 0.91233
 C2666 C 0.72057 0.19376 0.93486
 C2667 C 0.70617 0.21609 0.89597
 C2668 C 0.71197 0.22742 0.87215
 C2669 C 0.73817 0.23102 0.86420
 C2670 C 0.75885 0.22436 0.88119
 H2671 H 0.71452 0.16289 0.97558
 H2672 H 0.80779 0.18759 0.95803
 H2673 H 0.79740 0.15937 0.99453
 H2674 H 0.79382 0.20884 0.91734
 H2675 H 0.70015 0.18931 0.93955
 H2676 H 0.68571 0.21270 0.90107
 H2677 H 0.69583 0.23217 0.85917
 H2678 H 0.77910 0.22670 0.87497
 C2679 C 0.26892 0.67043 0.48211
 C2680 C 0.26266 0.68737 0.46183
 C2681 C 0.23602 0.69118 0.45504
 C2682 C 0.21610 0.67972 0.47003
 C2683 C 0.22246 0.66336 0.49058
 C2684 C 0.24894 0.65725 0.49633
 C2685 C 0.22975 0.70567 0.43290
 C2686 C 0.24989 0.71646 0.41757
 C2687 C 0.27654 0.71436 0.42549
 C2688 C 0.28276 0.69979 0.44758
 C2689 C 0.29655 0.72582 0.41043
 C2690 C 0.29038 0.73761 0.38678
 C2691 C 0.26416 0.73787 0.37785
 C2692 C 0.24391 0.72810 0.39373
 H2693 H 0.28953 0.66723 0.48583
 H2694 H 0.19552 0.68292 0.46549
 H2695 H 0.20647 0.65457 0.50146
 H2696 H 0.20927 0.70774 0.42710
 H2697 H 0.30326 0.69733 0.45310
 H2698 H 0.31706 0.72464 0.41637
 H2699 H 0.30620 0.74487 0.37466
 H2700 H 0.22363 0.72834 0.38683
 C2701 C 0.72566 0.83223 0.45145
 C2702 C 0.72592 0.82435 0.42560
 C2703 C 0.73112 0.84250 0.40572
 C2704 C 0.73578 0.86799 0.41166
 C2705 C 0.73618 0.87552 0.43713
 C2706 C 0.73100 0.85804 0.45766
 C2707 C 0.73260 0.83489 0.38015
 C2708 C 0.72967 0.80919 0.37402
 C2709 C 0.72417 0.79081 0.39354
 C2710 C 0.72206 0.79853 0.41928
 C2711 C 0.72149 0.76503 0.38692
 C2712 C 0.72505 0.75760 0.36139
 C2713 C 0.73132 0.77583 0.34207
 C2714 C 0.73301 0.80166 0.34862
 H2715 H 0.72252 0.81797 0.46645
 H2716 H 0.73996 0.88208 0.39663
 H2717 H 0.74096 0.89530 0.44107
 H2718 H 0.73687 0.84894 0.36507
 H2719 H 0.71813 0.78443 0.43437
 H2720 H 0.71715 0.75060 0.40155
 H2721 H 0.72350 0.73757 0.35690
 H2722 H 0.73749 0.81607 0.33397
 C2723 C 0.23833 0.32426 0.95637
 C2724 C 0.24323 0.30562 0.93816
 C2725 C 0.26943 0.30004 0.93218
 C2726 C 0.29020 0.31163 0.94609
 C2727 C 0.28514 0.32972 0.96469
 C2728 C 0.25918 0.33755 0.96942
 C2729 C 0.27440 0.28365 0.91185
 C2730 C 0.25338 0.27287 0.89744
 C2731 C 0.22710 0.27690 0.90470
 C2732 C 0.22219 0.29320 0.92509
 C2733 C 0.20618 0.26573 0.89045
 C2734 C 0.21115 0.25264 0.86785
 C2735 C 0.23708 0.25057 0.85929
 C2736 C 0.25816 0.25962 0.87484
 H2737 H 0.21801 0.32852 0.95928
 H2738 H 0.31046 0.30708 0.94225
 H2739 H 0.30183 0.33820 0.97490
 H2740 H 0.29458 0.28018 0.90656
 H2741 H 0.20200 0.29710 0.93002
 H2742 H 0.18592 0.26841 0.89594
 H2743 H 0.19468 0.24606 0.85598
 H2744 H 0.27823 0.25810 0.86821
 C2745 C 0.84004 0.46477 0.76010
 C2746 C 0.82298 0.44331 0.75833
 C2747 C 0.80925 0.43841 0.73510
 C2748 C 0.81213 0.45573 0.71432
 C2749 C 0.82922 0.47713 0.71621
 C2750 C 0.84381 0.48219 0.73903
 C2751 C 0.79374 0.41583 0.73279
 C2752 C 0.79202 0.39805 0.75347
 C2753 C 0.80514 0.40352 0.77699
 C2754 C 0.82042 0.42609 0.77929
 C2755 C 0.80340 0.38598 0.79767
 C2756 C 0.78962 0.36274 0.79491
 C2757 C 0.77723 0.35644 0.77139
 C2758 C 0.77812 0.37457 0.75085
 H2759 H 0.85141 0.46652 0.77771
 H2760 H 0.80183 0.45229 0.69624
 H2761 H 0.83201 0.48925 0.69930
 H2762 H 0.78362 0.41178 0.71473
 H2763 H 0.83089 0.42993 0.79723
 H2764 H 0.81326 0.38998 0.81586
 H2765 H 0.78942 0.34935 0.81103
 H2766 H 0.76864 0.37017 0.73257
 C2767 C 0.36498 0.95991 0.25766
 C2768 C 0.34739 0.93869 0.25802
 C2769 C 0.32219 0.94056 0.24645
 C2770 C 0.31499 0.96377 0.23507
 C2771 C 0.33197 0.98524 0.23630
 C2772 C 0.35699 0.98428 0.24870
 C2773 C 0.30460 0.91928 0.24658
 C2774 C 0.31149 0.89645 0.25930
 C2775 C 0.33639 0.89505 0.27183
 C2776 C 0.35438 0.91587 0.27054
 C2777 C 0.34288 0.87286 0.28563
 C2778 C 0.32509 0.85211 0.28682
 C2779 C 0.30065 0.85274 0.27379
 C2780 C 0.29396 0.87504 0.25990
 H2781 H 0.38478 0.95742 0.26514
 H2782 H 0.29589 0.96554 0.22569
 H2783 H 0.32500 1.00255 0.22751
 H2784 H 0.28540 0.92066 0.23727
 H2785 H 0.37357 0.91454 0.27991
 H2786 H 0.36179 0.87149 0.29547
 H2787 H 0.33089 0.83506 0.29715
 H2788 H 0.27516 0.87574 0.24975
 C2789 C 0.13125 0.94520 0.76708
 C2790 C 0.14330 0.92249 0.76069
 C2791 C 0.15678 0.92070 0.73722
 C2792 C 0.15731 0.94175 0.72020
 C2793 C 0.14378 0.96378 0.72600
 C2794 C 0.12954 0.96558 0.74910
 C2795 C 0.16949 0.89800 0.73131
 C2796 C 0.16795 0.87676 0.74827
 C2797 C 0.15312 0.87850 0.77109
 C2798 C 0.14146 0.90135 0.77736
 C2799 C 0.15033 0.85742 0.78764
 C2800 C 0.16322 0.83516 0.78257
 C2801 C 0.17958 0.83341 0.76106
 C2802 C 0.18129 0.85403 0.74334
 H2803 H 0.12302 0.94659 0.78607
 H2804 H 0.16772 0.94101 0.70216
 H2805 H 0.14401 0.97943 0.71213
 H2806 H 0.18042 0.89685 0.71358
 H2807 H 0.13062 0.90256 0.79515
 H2808 H 0.13864 0.85831 0.80491
 H2809 H 0.16122 0.81941 0.79625
 H2810 H 0.19381 0.85286 0.72668
 C2811 C 0.63712 0.45267 0.24035
 C2812 C 0.65011 0.42970 0.24504
 C2813 C 0.66140 0.42464 0.26954
 C2814 C 0.65931 0.44255 0.28900
 C2815 C 0.64675 0.46553 0.28409
 C2816 C 0.63606 0.47155 0.25948
 C2817 C 0.67456 0.40176 0.27421
 C2818 C 0.67673 0.38392 0.25456
 C2819 C 0.66546 0.38900 0.23002
 C2820 C 0.65211 0.41177 0.22545
 C2821 C 0.66773 0.37121 0.21042
 C2822 C 0.68090 0.34850 0.21507
 C2823 C 0.69208 0.34302 0.23944
 C2824 C 0.68993 0.36102 0.25910
 H2825 H 0.62797 0.45544 0.22163
 H2826 H 0.66763 0.43890 0.30801
 H2827 H 0.64583 0.47907 0.29949
 H2828 H 0.68318 0.39790 0.29307
 H2829 H 0.64347 0.41561 0.20659
 H2830 H 0.65923 0.37483 0.19148
 H2831 H 0.68211 0.33511 0.19956
 H2832 H 0.69837 0.35720 0.27804
 C2833 C 0.63548 0.54566 0.25400
 C2834 C 0.65366 0.56637 0.25484
 C2835 C 0.68083 0.56195 0.25817
 C2836 C 0.68923 0.53693 0.26121
 C2837 C 0.67103 0.51646 0.26100
 C2838 C 0.64358 0.52028 0.25790
 C2839 C 0.69920 0.58254 0.25802
 C2840 C 0.69064 0.60764 0.25512
 C2841 C 0.66327 0.61205 0.25272
 C2842 C 0.64504 0.59143 0.25231
 C2843 C 0.65453 0.63705 0.25055
 C2844 C 0.67266 0.65750 0.25032
 C2845 C 0.69985 0.65343 0.25202
 C2846 C 0.70888 0.62845 0.25442
 H2847 H 0.61476 0.54920 0.25051
 H2848 H 0.71004 0.53311 0.26343
 H2849 H 0.67906 0.49768 0.26229
 H2850 H 0.72010 0.57902 0.26013
 H2851 H 0.62414 0.59491 0.25006
 H2852 H 0.63367 0.64080 0.24880
 H2853 H 0.66546 0.67666 0.24814
 H2854 H 0.72990 0.62528 0.25565
 C2855 C 0.14198 0.02961 0.74010
 C2856 C 0.15648 0.05159 0.74677
 C2857 C 0.16836 0.05356 0.77143
 C2858 C 0.16575 0.03291 0.78885
 C2859 C 0.14956 0.01176 0.78262
 C2860 C 0.13562 0.01081 0.75885
 C2861 C 0.18209 0.07624 0.77824
 C2862 C 0.18287 0.09730 0.76099
 C2863 C 0.17012 0.09509 0.73662
 C2864 C 0.15776 0.07219 0.72946
 C2865 C 0.16958 0.11590 0.71962
 C2866 C 0.18233 0.13857 0.72608
 C2867 C 0.19646 0.14100 0.74948
 C2868 C 0.19617 0.12046 0.76735
 H2869 H 0.13428 0.02812 0.72063
 H2870 H 0.17515 0.03363 0.80770
 H2871 H 0.14663 -0.00325 0.79696
 H2872 H 0.19151 0.07771 0.79706
 H2873 H 0.14819 0.07073 0.71068
 H2874 H 0.15947 0.11461 0.70112
 H2875 H 0.18175 0.15423 0.71222
 H2876 H 0.20689 0.12216 0.78546
 C2877 C 0.34613 0.04640 0.23532
 C2878 C 0.33324 0.06939 0.23918
 C2879 C 0.32935 0.07774 0.26446
 C2880 C 0.33801 0.06283 0.28532
 C2881 C 0.35177 0.04061 0.28132
 C2882 C 0.35737 0.03231 0.25622
 C2883 C 0.31736 0.10109 0.26852
 C2884 C 0.31000 0.11671 0.24753
 C2885 C 0.31394 0.10845 0.22215
 C2886 C 0.32508 0.08464 0.21813
 C2887 C 0.30726 0.12443 0.20124
 C2888 C 0.29730 0.14858 0.20538
 C2889 C 0.29334 0.15710 0.23052
 C2890 C 0.29942 0.14079 0.25153
 H2891 H 0.34853 0.04013 0.21576
 H2892 H 0.33476 0.06871 0.30490
 H2893 H 0.35816 0.03045 0.29836
 H2894 H 0.31449 0.10744 0.28802
 H2895 H 0.32822 0.07839 0.19865
 H2896 H 0.31018 0.11845 0.18165
 H2897 H 0.29273 0.16062 0.18885
 H2898 H 0.29673 0.14712 0.27104
 C2899 C 0.83097 0.53778 0.72804
 C2900 C 0.82427 0.56374 0.72528
 C2901 C 0.84372 0.58300 0.72985
 C2902 C 0.86935 0.57637 0.73653
 C2903 C 0.87590 0.55096 0.73882
 C2904 C 0.85717 0.53087 0.73452
 C2905 C 0.83735 0.60874 0.72808
 C2906 C 0.81167 0.61584 0.72172
 C2907 C 0.79209 0.59692 0.71640
 C2908 C 0.79849 0.57093 0.71826
 C2909 C 0.76637 0.60446 0.70995
 C2910 C 0.76000 0.63033 0.70982
 C2911 C 0.77929 0.64899 0.71594
 C2912 C 0.80514 0.64163 0.72147
 H2913 H 0.81563 0.52339 0.72538
 H2914 H 0.88448 0.59091 0.74005
 H2915 H 0.89618 0.54687 0.74379
 H2916 H 0.85237 0.62332 0.73203
 H2917 H 0.78340 0.55639 0.71454
 H2918 H 0.75103 0.59033 0.70576
 H2919 H 0.73982 0.63567 0.70603
 H2920 H 0.81994 0.65601 0.72663
 C2921 C 0.96388 0.76453 0.12930
 C2922 C 0.94322 0.76195 0.14676
 C2923 C 0.94132 0.74032 0.16327
 C2924 C 0.96063 0.72190 0.16245
 C2925 C 0.98161 0.72493 0.14546
 C2926 C 0.98394 0.74651 0.12882
 C2927 C 0.91983 0.73723 0.17985
 C2928 C 0.90026 0.75556 0.18001
 C2929 C 0.90280 0.77763 0.16405
 C2930 C 0.92422 0.78067 0.14758
 C2931 C 0.88341 0.79600 0.16417
 C2932 C 0.86091 0.79192 0.17881
 C2933 C 0.85748 0.76947 0.19373
 C2934 C 0.87766 0.75175 0.19503
 H2935 H 0.96362 0.78052 0.11594
 H2936 H 0.95951 0.70511 0.17488
 H2937 H 0.99630 0.71037 0.14533
 H2938 H 0.91804 0.72037 0.19215
 H2939 H 0.92584 0.79740 0.13505
 H2940 H 0.88522 0.81313 0.15228
 H2941 H 0.84573 0.80603 0.17786
 H2942 H 0.87509 0.73439 0.20647
 C2943 C 0.46289 0.24401 0.63806
 C2944 C 0.43986 0.24770 0.65160
 C2945 C 0.42283 0.26728 0.64386
 C2946 C 0.42970 0.28341 0.62322
 C2947 C 0.45318 0.28011 0.61021
 C2948 C 0.46998 0.25981 0.61683
 C2949 C 0.39932 0.27052 0.65702
 C2950 C 0.39289 0.25448 0.67797
 C2951 C 0.41048 0.23544 0.68622
 C2952 C 0.43380 0.23210 0.67292
 C2953 C 0.40425 0.21970 0.70738
 C2954 C 0.38030 0.22210 0.71968
 C2955 C 0.36214 0.24025 0.71096
 C2956 C 0.36887 0.25682 0.69046
 H2957 H 0.47567 0.22873 0.64412
 H2958 H 0.41715 0.29892 0.61740
 H2959 H 0.45788 0.29412 0.59547
 H2960 H 0.38601 0.28532 0.65086
 H2961 H 0.44710 0.21725 0.67902
 H2962 H 0.41762 0.20517 0.71407
 H2963 H 0.37572 0.20912 0.73556
 H2964 H 0.35514 0.27101 0.68368
 C2965 C 0.46004 0.75768 0.85958
 C2966 C 0.43619 0.75206 0.84691
 C2967 C 0.43622 0.74196 0.82191
 C2968 C 0.46021 0.73601 0.81080
 C2969 C 0.48391 0.74054 0.82416
 C2970 C 0.48442 0.75301 0.84805
 C2971 C 0.41225 0.73741 0.80879
 C2972 C 0.38831 0.74193 0.82087
 C2973 C 0.38840 0.75052 0.84656
 C2974 C 0.41232 0.75595 0.85922
 C2975 C 0.36452 0.75369 0.85917
 C2976 C 0.34070 0.74897 0.84624
 C2977 C 0.34048 0.74167 0.82041
 C2978 C 0.36424 0.73804 0.80775
 H2979 H 0.45938 0.76491 0.87894
 H2980 H 0.46061 0.72730 0.79206
 H2981 H 0.50201 0.73443 0.81571
 H2982 H 0.41222 0.73016 0.78936
 H2983 H 0.41235 0.76308 0.87871
 H2984 H 0.36427 0.75999 0.87891
 H2985 H 0.32237 0.75194 0.85610
 H2986 H 0.36391 0.73220 0.78782
 C2987 C 0.96344 0.22726 0.34996
 C2988 C 0.94042 0.23279 0.33621
 C2989 C 0.93745 0.25694 0.32446
 C2990 C 0.95815 0.27501 0.32625
 C2991 C 0.98083 0.26962 0.34081
 C2992 C 0.98387 0.24577 0.35368
 C2993 C 0.91345 0.26286 0.31218
 C2994 C 0.89218 0.24511 0.31255
 C2995 C 0.89552 0.22087 0.32434
 C2996 C 0.91972 0.21470 0.33548
 C2997 C 0.87434 0.20336 0.32566
 C2998 C 0.84976 0.20994 0.31600
 C2999 C 0.84598 0.23390 0.30432
 C3000 C 0.86739 0.25134 0.30214
 H3001 H 0.96405 0.20863 0.35882
 H3002 H 0.95631 0.29376 0.31747
 H3003 H 0.99533 0.28490 0.34340
 H3004 H 0.91098 0.28152 0.30332
 H3005 H 0.92203 0.19615 0.34469
 H3006 H 0.87664 0.18474 0.33464
 H3007 H 0.83363 0.19612 0.31750
 H3008 H 0.86455 0.26987 0.29315
 C3009 C 0.04047 0.25165 0.33685
 C3010 C 0.06646 0.25288 0.32809
 C3011 C 0.08615 0.23925 0.34142
 C3012 C 0.07946 0.22380 0.36251
 C3013 C 0.05383 0.22317 0.37148
 C3014 C 0.03371 0.23775 0.35949
 C3015 C 0.11240 0.24176 0.33397
 C3016 C 0.11923 0.25765 0.31314
 C3017 C 0.09954 0.27072 0.29905
 C3018 C 0.07321 0.26833 0.30670
 C3019 C 0.10658 0.28570 0.27742
 C3020 C 0.13283 0.28711 0.26956
 C3021 C 0.15222 0.27437 0.28386
 C3022 C 0.14549 0.26007 0.30580
 H3023 H 0.02623 0.26241 0.32615
 H3024 H 0.09435 0.21314 0.37291
 H3025 H 0.05055 0.21270 0.38934
 H3026 H 0.12754 0.23149 0.34448
 H3027 H 0.05810 0.27864 0.29621
 H3028 H 0.09177 0.29570 0.26626
 H3029 H 0.13798 0.29779 0.25221
 H3030 H 0.16057 0.24968 0.31628
 C3031 C 0.55904 0.76774 0.85866
 C3032 C 0.58114 0.77526 0.84454
 C3033 C 0.57810 0.78302 0.81852
 C3034 C 0.55274 0.78553 0.80794
 C3035 C 0.53067 0.77831 0.82237
 C3036 C 0.53368 0.76721 0.84720
 C3037 C 0.60041 0.78716 0.80333
 C3038 C 0.62554 0.78308 0.81390
 C3039 C 0.62860 0.77734 0.84050
 C3040 C 0.60631 0.77374 0.85575
 C3041 C 0.65382 0.77365 0.85105
 C3042 C 0.67559 0.77352 0.83498
 C3043 C 0.67223 0.77699 0.80829
 C3044 C 0.64746 0.78293 0.79796
 H3045 H 0.56166 0.76087 0.87833
 H3046 H 0.55000 0.79261 0.78836
 H3047 H 0.51145 0.78122 0.81378
 H3048 H 0.59814 0.79211 0.78304
 H3049 H 0.60853 0.76826 0.87592
 H3050 H 0.65652 0.76957 0.87145
 H3051 H 0.69473 0.76905 0.84316
 H3052 H 0.64505 0.78602 0.77735
 C3053 C 0.53455 0.23523 0.63165
 C3054 C 0.55366 0.23662 0.65124
 C3055 C 0.55487 0.25780 0.66759
 C3056 C 0.53625 0.27676 0.66472
 C3057 C 0.51766 0.27555 0.64478
 C3058 C 0.51729 0.25547 0.62694
 C3059 C 0.57522 0.26014 0.68591
 C3060 C 0.59498 0.24208 0.68725
 C3061 C 0.59339 0.22051 0.67134
 C3062 C 0.57235 0.21760 0.65388
 C3063 C 0.61361 0.20291 0.67217
 C3064 C 0.63599 0.20746 0.68745
 C3065 C 0.63812 0.22936 0.70254
 C3066 C 0.61710 0.24607 0.70314
 H3067 H 0.53389 0.21843 0.62003
 H3068 H 0.53659 0.29295 0.67735
 H3069 H 0.50403 0.29098 0.64255
 H3070 H 0.57643 0.27665 0.69814
 H3071 H 0.57139 0.20130 0.64135
 H3072 H 0.61264 0.18622 0.66021
 H3073 H 0.65189 0.19415 0.68703
 H3074 H 0.61869 0.26304 0.71469
 C3075 C 0.03662 0.75202 0.15101
 C3076 C 0.06135 0.75110 0.16311
 C3077 C 0.08429 0.74973 0.14813
 C3078 C 0.08220 0.75067 0.12125
 C3079 C 0.05746 0.75145 0.10933
 C3080 C 0.03415 0.75042 0.12398
 C3081 C 0.10892 0.74747 0.16024
 C3082 C 0.11087 0.74698 0.18716
 C3083 C 0.08805 0.74927 0.20219
 C3084 C 0.06338 0.75115 0.19006
 C3085 C 0.09035 0.74990 0.22912
 C3086 C 0.11517 0.74886 0.24098
 C3087 C 0.13780 0.74637 0.22609
 C3088 C 0.13547 0.74488 0.19926
 H3089 H 0.01953 0.75375 0.16297
 H3090 H 0.09964 0.75030 0.10945
 H3091 H 0.05635 0.75150 0.08848
 H3092 H 0.12653 0.74620 0.14875
 H3093 H 0.04579 0.75254 0.20156
 H3094 H 0.07308 0.75176 0.24092
 H3095 H 0.11674 0.75015 0.26175
 H3096 H 0.15297 0.74320 0.18775
   
