data_POSCAR
  _audit_creation_date              2014-09-24
  _audit_creation_method            'ToBaCCo'
  _symmetry_space_group_name_H-M    'P1'
  _symmetry_Int_Tables_number       1
  _symmetry_cell_setting            triclinic
  loop_
  _symmetry_equiv_pos_as_xyz
 x,y,z
_cell_length_a 58.8364
_cell_length_b 59.3146
_cell_length_c 59.3863
_cell_angle_alpha 89.811700
_cell_angle_beta 89.740500
_cell_angle_gamma 90.054900
loop_
  _atom_site_label
  _atom_site_type_symbol
  _atom_site_fract_x
  _atom_site_fract_y
  _atom_site_fract_z
N1 N 0.34660 1.34848 0.34686
 N2 N 0.35413 0.85193 0.85212
 N3 N 0.85755 1.35278 0.85644
 N4 N 0.85460 0.85254 0.35389
 N5 N 0.64615 0.65007 0.34861
 N6 N 0.65409 0.15313 0.84363
 N7 N 1.15091 0.65023 0.84790
 N8 N 1.15609 0.15953 0.34122
 N9 N 0.64656 1.34866 0.65072
 N10 N 0.64834 0.85155 1.14805
 N11 N 1.15137 1.34751 1.15515
 N12 N 1.14544 0.85057 0.64711
 N13 N 0.34369 0.65519 0.65602
 N14 N 0.35650 0.14623 1.14607
 N15 N 0.85122 0.65114 1.15095
 N16 N 0.84705 0.15066 0.65348
 N17 N 1.34473 0.34447 0.65739
 N18 N 1.35053 0.84824 1.15313
 N19 N 0.85182 0.34845 1.15140
 N20 N 0.85032 0.84853 0.65258
 N21 N 0.64194 0.64596 0.64329
 N22 N 0.64906 1.14917 1.14777
 N23 N 0.14626 0.64555 1.14729
 N24 N 0.14896 1.15217 0.65035
 N25 N 1.35389 0.64711 0.35230
 N26 N 1.35268 1.15060 0.84799
 N27 N 0.85230 0.65048 0.85178
 N28 N 0.85298 1.14900 0.35177
 N29 N 0.64807 0.34922 0.34734
 N30 N 0.65365 0.85001 0.84681
 N31 N 0.14548 0.35485 0.85430
 N32 N 0.14666 0.84942 0.35050
 O33 O 0.97973 0.92173 0.88541
 O34 O 0.97959 0.89619 0.85852
 C35 C 0.97186 0.91429 0.86698
 C36 C 0.95315 0.92655 0.85562
 C37 C 0.94516 0.91954 0.83449
 H38 H 0.95334 0.90560 0.82597
 O39 O 1.02413 1.08457 0.88974
 O40 O 1.02421 1.11160 0.86416
 C41 C 1.03198 1.09305 0.87164
 C42 C 1.05078 1.08143 0.85971
 C43 C 1.05949 1.08980 0.83920
 H44 H 1.05201 1.10463 0.83155
 O45 O 0.88905 0.98027 0.91869
 O46 O 0.86229 0.98069 0.89281
 C47 C 0.87051 0.97267 0.91092
 C48 C 0.85872 0.95401 0.92287
 C49 C 0.83713 0.94673 0.91595
 H50 H 0.82863 0.95535 0.90227
 O51 O 1.11476 1.02381 0.91938
 O52 O 1.14163 1.02447 0.89336
 C53 C 1.13343 1.03162 0.91182
 C54 C 1.14540 1.04957 0.92436
 C55 C 1.16700 1.05706 0.91742
 H56 H 1.17540 1.04899 0.90332
 O57 O 0.92049 0.88794 0.97595
 O58 O 0.89400 0.86162 0.97530
 C59 C 0.91251 0.86982 0.96778
 C60 C 0.92471 0.85855 0.94904
 C61 C 0.91794 0.83716 0.94143
 H62 H 0.90410 0.82842 0.94980
 O63 O 1.08377 1.11298 0.98068
 O64 O 1.11036 1.13920 0.98096
 C65 C 1.09183 1.13145 0.97325
 C66 C 1.07984 1.14369 0.95506
 C67 C 1.08790 1.16464 0.94737
 H68 H 1.10238 1.17238 0.95550
 O69 O 0.91970 1.02510 0.88839
 O70 O 0.89323 1.02570 0.86223
 C71 C 0.91169 1.03329 0.87031
 C72 C 0.92372 1.05224 0.85905
 C73 C 0.91576 1.06127 0.83862
 H74 H 0.90097 1.05398 0.83064
 O75 O 1.08376 0.98091 0.88707
 O76 O 1.11052 0.98171 0.86096
 C77 C 1.09195 0.97379 0.86858
 C78 C 1.08012 0.95562 0.85620
 C79 C 1.08853 0.94794 0.83543
 H80 H 1.10313 0.95617 0.82784
 O81 O 1.02425 0.89014 0.91533
 O82 O 1.02416 0.86455 0.88848
 C83 C 1.03196 0.87199 0.90695
 C84 C 1.05054 0.85971 0.91849
 C85 C 1.05876 0.83932 0.90974
 H86 H 1.05078 0.83205 0.89506
 O87 O 0.97977 1.11399 0.92182
 O88 O 0.97951 1.14121 0.89644
 C89 C 0.97183 1.13251 0.91454
 C90 C 0.95306 1.14362 0.92699
 C91 C 0.94458 1.16461 0.91989
 H92 H 0.95214 1.17303 0.90548
 O93 O 0.88815 1.08074 0.98064
 O94 O 0.86162 1.10697 0.98153
 C95 C 0.86972 1.08900 0.97317
 C96 C 0.85800 1.07810 0.95406
 C97 C 0.83764 1.08710 0.94571
 H98 H 0.82984 1.10133 0.95410
 O99 O 1.11409 0.91798 0.97625
 O100 O 1.14085 0.89199 0.97534
 C101 C 1.13265 0.91049 0.96824
 C102 C 1.14440 0.92316 0.95007
 C103 C 1.16535 0.91565 0.94146
 H104 H 1.17327 0.90074 0.94848
 O105 O 0.97979 1.08427 0.89004
 O106 O 0.97973 1.11134 0.86450
 C107 C 0.97198 1.09276 0.87200
 C108 C 0.95325 1.08128 0.85999
 C109 C 0.94508 1.09002 0.83961
 H110 H 0.95328 1.10458 0.83208
 O111 O 1.02414 0.92173 0.88508
 O112 O 1.02408 0.89623 0.85815
 C113 C 1.03192 0.91430 0.86655
 C114 C 1.05072 0.92650 0.85513
 C115 C 1.05939 0.91903 0.83436
 H116 H 1.05184 0.90452 0.82625
 O117 O 1.11388 0.97981 0.91875
 O118 O 1.14068 0.98058 0.89267
 C119 C 1.13241 0.97232 0.91071
 C120 C 1.14418 0.95342 0.92203
 C121 C 1.16511 0.94570 0.91374
 H122 H 1.17316 0.95436 0.89972
 O123 O 0.88826 1.02421 0.91903
 O124 O 0.86165 1.02477 0.89301
 C125 C 0.86973 1.03207 0.91140
 C126 C 0.85792 1.05033 0.92377
 C127 C 0.83753 1.05959 0.91563
 H128 H 0.82996 1.05293 0.90044
 O129 O 0.91975 1.11111 0.98159
 O130 O 0.89324 1.13737 0.98242
 C131 C 0.91177 1.12968 0.97447
 C132 C 0.92377 1.14215 0.95632
 C133 C 0.91564 1.16314 0.94904
 H134 H 0.90123 1.17073 0.95753
 O135 O 1.08315 0.88698 0.97540
 O136 O 1.10973 0.86081 0.97455
 C137 C 1.09129 0.86901 0.96704
 C138 C 1.07948 0.85806 0.94792
 C139 C 1.08749 0.83764 0.93886
 H140 H 1.10208 0.82942 0.94630
 O141 O 1.08336 1.02490 0.88894
 O142 O 1.11016 1.02564 0.86287
 C143 C 1.09163 1.03315 0.87094
 C144 C 1.07994 1.05208 0.85957
 C145 C 1.08838 1.06067 0.83917
 H146 H 1.10289 1.05269 0.83121
 O147 O 0.91969 0.98113 0.88726
 O148 O 0.89316 0.98159 0.86116
 C149 C 0.91170 0.97382 0.86883
 C150 C 0.92382 0.95572 0.85653
 C151 C 0.91613 0.94852 0.83539
 H152 H 0.90151 0.95659 0.82782
 O153 O 1.02409 1.11449 0.92139
 O154 O 1.02396 1.14168 0.89598
 C155 C 1.03178 1.13313 0.91399
 C156 C 1.05043 1.14460 0.92613
 C157 C 1.05872 1.16559 0.91869
 H158 H 1.05104 1.17378 0.90428
 O159 O 0.97995 0.89024 0.91576
 O160 O 0.97985 0.86453 0.88902
 C161 C 0.97225 0.87202 0.90762
 C162 C 0.95401 0.85966 0.91971
 C163 C 0.94707 0.83827 0.91242
 H164 H 0.95537 0.83063 0.89802
 O165 O 1.11465 1.08186 0.97999
 O166 O 1.14137 1.10796 0.98038
 C167 C 1.13326 1.08979 0.97247
 C168 C 1.14531 1.07801 0.95402
 C169 C 1.16690 1.08525 0.94687
 H170 H 1.17499 1.09934 0.95520
 O171 O 0.88970 0.91918 0.97712
 O172 O 0.86303 0.89305 0.97658
 C173 C 0.87111 0.91162 0.96940
 C174 C 0.85903 0.92429 0.95155
 C175 C 0.83744 0.91732 0.94440
 H176 H 0.82944 0.90285 0.95230
 Cu177 Cu 1.00203 0.90856 0.90304
 Cu178 Cu 1.00188 0.87782 0.87083
 Cu179 Cu 1.00199 1.09662 0.90828
 Cu180 Cu 1.00183 1.12918 0.87770
 Cu181 Cu 0.90683 1.00264 0.90593
 Cu182 Cu 0.87492 1.00319 0.87468
 Cu183 Cu 1.09624 1.00229 0.90615
 Cu184 Cu 1.12843 1.00318 0.87484
 C185 C 0.94248 0.94479 0.86639
 H186 H 0.94831 0.95008 0.88282
 C187 C 0.92668 0.93046 0.82422
 C188 C 1.06102 1.06243 0.86960
 H189 H 1.05467 1.05605 0.88555
 C190 C 1.07840 1.07954 0.82893
 C191 C 0.86944 0.94280 0.94083
 H192 H 0.88622 0.94809 0.94607
 C193 C 0.82634 0.92844 0.92668
 C194 C 1.13481 1.06001 0.94281
 H195 H 1.11802 1.05454 0.94805
 C196 C 1.17790 1.07486 0.92860
 C197 C 0.94289 0.86955 0.93817
 H198 H 0.94802 0.88616 0.94373
 C199 C 0.92915 0.82683 0.92320
 C200 C 1.06097 1.13392 0.94447
 H201 H 1.05490 1.11759 0.95009
 C202 C 1.07752 1.17568 0.92916
 C203 C 0.94261 1.06226 0.86947
 H204 H 0.94864 1.05566 0.88538
 C205 C 0.92631 1.08024 0.82885
 C206 C 1.06107 0.94494 0.86577
 H207 H 1.05473 0.95056 0.88196
 C208 C 1.07835 0.92961 0.82441
 C209 C 1.06087 0.86883 0.93770
 H210 H 1.05482 0.88472 0.94433
 C211 C 1.07727 0.82820 0.91970
 C212 C 0.94263 1.13261 0.94535
 H213 H 0.94879 1.11625 0.95068
 C214 C 0.92581 1.17443 0.93079
 C215 C 0.86788 1.05959 0.94312
 H216 H 0.88378 1.05282 0.94928
 C217 C 0.82735 1.07809 0.92643
 C218 C 1.13404 0.94219 0.94035
 H219 H 1.11771 0.94787 0.94661
 C220 C 1.17573 0.92677 0.92320
 O221 O 1.02404 0.91532 1.11076
 O222 O 1.02417 0.88853 1.13660
 C223 C 1.03185 0.90707 1.12889
 C224 C 1.05045 0.91894 1.14070
 C225 C 1.05889 0.91078 1.16128
 H226 H 1.05141 0.89592 1.16896
 O227 O 0.97946 1.07954 1.11481
 O228 O 0.97938 1.10516 1.14163
 C229 C 0.97161 1.08702 1.13330
 C230 C 0.95282 1.07480 1.14480
 C231 C 0.94383 1.08262 1.16533
 H232 H 0.95107 1.09742 1.17319
 O233 O 0.88937 1.01885 1.08337
 O234 O 0.86261 1.01796 1.10949
 C235 C 0.87062 1.02601 1.09126
 C236 C 0.85833 1.04422 1.07935
 C237 C 0.83670 1.05110 1.08667
 H238 H 0.82875 1.04271 1.10089
 O239 O 1.11442 0.97597 1.08023
 O240 O 1.14106 0.97524 1.10623
 C241 C 1.13289 0.96796 1.08785
 C242 C 1.14463 0.94962 1.07547
 C243 C 1.16598 0.94181 1.08256
 H244 H 1.17435 0.94987 1.09661
 O245 O 1.08339 0.88543 1.01943
 O246 O 1.11004 0.85934 1.01878
 C247 C 1.09157 0.86703 1.02680
 C248 C 1.07981 0.85505 1.04545
 C249 C 1.08827 0.83455 1.05398
 H250 H 1.10315 0.82691 1.04638
 O251 O 0.91923 1.11024 1.02550
 O252 O 0.89258 1.13635 1.02624
 C253 C 0.91111 1.12834 1.03363
 C254 C 0.92298 1.13994 1.05222
 C255 C 0.91448 1.16029 1.06074
 H256 H 0.89982 1.16804 1.05292
 O257 O 0.92087 0.97495 1.11384
 O258 O 0.89437 0.97421 1.14022
 C259 C 0.91290 0.96681 1.13206
 C260 C 0.92495 0.94804 1.14334
 C261 C 0.91735 0.93956 1.16419
 H262 H 0.90291 0.94727 1.17251
 O263 O 1.08374 1.01949 1.11231
 O264 O 1.11019 1.01876 1.13850
 C265 C 1.09175 1.02674 1.13077
 C266 C 1.07970 1.04500 1.14299
 C267 C 1.08726 1.05237 1.16418
 H268 H 1.10161 1.04418 1.17211
 O269 O 0.97992 0.88514 1.07942
 O270 O 0.97990 0.85809 1.10498
 C271 C 0.97228 0.86650 1.08681
 C272 C 0.95397 0.85487 1.07435
 C273 C 0.94648 0.83334 1.08096
 H274 H 0.95460 0.82466 1.09485
 O275 O 1.02382 1.11122 1.08439
 O276 O 1.02395 1.13694 1.11110
 C277 C 1.03171 1.12935 1.09263
 C278 C 1.05060 1.14118 1.08088
 C279 C 1.05949 1.16151 1.08930
 H280 H 1.05208 1.16907 1.10420
 O281 O 0.88965 0.91741 1.02110
 O282 O 0.86305 0.89121 1.02061
 C283 C 0.87126 0.90919 1.02886
 C284 C 0.85978 0.92028 1.04816
 C285 C 0.83931 0.91160 1.05694
 H286 H 0.83143 0.89709 1.04915
 O287 O 1.11499 1.08123 1.02383
 O288 O 1.14164 1.10740 1.02423
 C289 C 1.13353 1.08892 1.03158
 C290 C 1.14538 1.07649 1.04972
 C291 C 1.16622 1.08426 1.05823
 H292 H 1.17403 1.09923 1.05112
 O293 O 1.02377 1.07894 1.11382
 O294 O 1.02383 1.10445 1.14074
 C295 C 1.03155 1.08632 1.13228
 C296 C 1.05013 1.07398 1.14370
 C297 C 1.05782 1.08096 1.16487
 H298 H 1.04978 1.09518 1.17307
 O299 O 0.97978 0.91504 1.11124
 O300 O 0.97983 0.88814 1.13696
 C301 C 0.97213 0.90669 1.12950
 C302 C 0.95379 0.91847 1.14190
 C303 C 0.94596 0.91020 1.16271
 H304 H 0.95404 0.89561 1.17021
 O305 O 1.11478 1.02004 1.08121
 O306 O 1.14131 1.01928 1.10731
 C307 C 1.13329 1.02748 1.08924
 C308 C 1.14521 1.04636 1.07786
 C309 C 1.16603 1.05432 1.08612
 H310 H 1.17400 1.04580 1.10018
 O311 O 0.89045 0.97494 1.08249
 O312 O 0.86387 0.97407 1.10878
 C313 C 0.87207 0.96681 1.09034
 C314 C 0.86037 0.94834 1.07825
 C315 C 0.83997 0.93940 1.08675
 H316 H 0.83228 0.94671 1.10163
 O317 O 1.08354 1.11174 1.02463
 O318 O 1.11012 1.13797 1.02493
 C319 C 1.09165 1.12986 1.03263
 C320 C 1.07987 1.14126 1.05150
 C321 C 1.08846 1.16150 1.06014
 H322 H 1.10309 1.16935 1.05220
 O323 O 0.92064 0.88660 1.01992
 O324 O 0.89415 0.86028 1.01930
 C325 C 0.91261 0.86804 1.02717
 C326 C 0.92461 0.85572 1.04529
 C327 C 0.91707 0.83438 1.05246
 H328 H 0.90266 0.82644 1.04439
 O329 O 1.08330 0.97546 1.11120
 O330 O 1.10984 0.97476 1.13730
 C331 C 1.09133 0.96730 1.12929
 C332 C 1.07944 0.94849 1.14078
 C333 C 1.08758 0.94013 1.16132
 H334 H 1.10190 0.94828 1.16933
 O335 O 0.92067 1.01905 1.11396
 O336 O 0.89400 1.01831 1.14016
 C337 C 0.91240 1.02645 1.13228
 C338 C 0.92388 1.04517 1.14420
 C339 C 0.91518 1.05322 1.16469
 H340 H 0.90065 1.04495 1.17237
 O341 O 0.97944 1.11068 1.08422
 O342 O 0.97935 1.13647 1.11088
 C343 C 0.97153 1.12876 1.09252
 C344 C 0.95255 1.14037 1.08100
 C345 C 0.94374 1.16077 1.08934
 H346 H 0.95130 1.16853 1.10400
 O347 O 1.02418 0.88513 1.07941
 O348 O 1.02420 0.85825 1.10515
 C349 C 1.03196 0.86664 1.08697
 C350 C 1.05066 0.85509 1.07491
 C351 C 1.05931 0.83467 1.08314
 H352 H 1.05147 0.82679 1.09772
 O353 O 1.11384 0.91696 1.02010
 O354 O 1.14068 0.89105 1.01930
 C355 C 1.13247 0.90911 1.02745
 C356 C 1.14442 0.92088 1.04598
 C357 C 1.16578 0.91336 1.05333
 H358 H 1.17373 0.89907 1.04517
 O359 O 0.88834 1.07897 1.02466
 O360 O 0.86165 1.10504 1.02544
 C361 C 0.86977 1.08652 1.03258
 C362 C 0.85790 1.07387 1.05068
 C363 C 0.83628 1.08056 1.05826
 H364 H 0.82776 1.09455 1.05014
 Cu365 Cu 1.00194 0.90286 1.09264
 Cu366 Cu 1.00199 0.87053 1.12350
 Cu367 Cu 1.00161 1.09258 1.09662
 Cu368 Cu 1.00167 1.12334 1.12877
 Cu369 Cu 0.90778 0.90539 0.99855
 Cu370 Cu 0.87587 0.87393 0.99783
 Cu371 Cu 1.09591 0.90437 0.99788
 Cu372 Cu 1.12798 0.87315 0.99692
 Cu373 Cu 0.90650 1.09260 1.00306
 Cu374 Cu 0.87461 1.12405 1.00401
 Cu375 Cu 1.09657 1.09433 1.00223
 Cu376 Cu 1.12851 1.12581 1.00263
 Cu377 Cu 0.90805 0.99704 1.09583
 Cu378 Cu 0.87606 0.99608 1.12732
 Cu379 Cu 1.09641 0.99784 1.09362
 Cu380 Cu 1.12827 0.99692 1.12494
 C381 C 1.06072 0.93794 1.13070
 H382 H 1.05459 0.94412 1.11466
 C383 C 1.07755 0.92124 1.17162
 C384 C 0.94283 1.05594 1.13450
 H385 H 0.94940 1.05002 1.11851
 C386 C 0.92492 1.07199 1.17533
 C387 C 0.86866 1.05554 1.06120
 H388 H 0.88547 1.05050 1.05567
 C389 C 0.82553 1.06923 1.07622
 C390 C 1.13409 0.93916 1.05703
 H391 H 1.11749 0.94488 1.05165
 C392 C 1.17671 0.92372 1.07159
 C393 C 1.06087 0.86504 1.05593
 H394 H 1.05448 0.88101 1.04973
 C395 C 1.07818 0.82437 1.07295
 C396 C 0.94215 1.13022 1.06232
 H397 H 0.94856 1.11432 1.05601
 C398 C 0.92460 1.17076 1.07934
 C399 C 0.94333 0.93751 1.13248
 H400 H 0.94906 0.94375 1.11625
 C401 C 0.92773 0.92059 1.17397
 C402 C 1.06100 1.05582 1.13301
 H403 H 1.05528 1.05050 1.11654
 C404 C 1.07631 1.07027 1.17527
 C405 C 0.94314 0.86575 1.05628
 H406 H 0.94873 0.88241 1.05116
 C407 C 0.92807 0.82313 1.07011
 C408 C 1.06081 1.13134 1.06185
 H409 H 1.05434 1.11551 1.05546
 C410 C 1.07854 1.17167 1.07908
 C411 C 0.87007 0.93878 1.05885
 H412 H 0.88601 0.94536 1.05242
 C413 C 0.82939 0.92099 1.07632
 C414 C 1.13515 1.05740 1.05952
 H415 H 1.11891 1.05154 1.05330
 C416 C 1.17661 1.07331 1.07651
 O417 O 0.97797 0.42080 0.38691
 O418 O 0.97889 0.39514 0.36013
 C419 C 0.97058 0.41308 0.36838
 C420 C 0.95176 0.42486 0.35673
 C421 C 0.94444 0.41788 0.33534
 H422 H 0.95317 0.40426 0.32683
 O423 O 1.02048 0.58283 0.38876
 O424 O 1.02042 0.60955 0.36287
 C425 C 1.02844 0.59126 0.37067
 C426 C 1.04771 0.57997 0.35914
 C427 C 1.05632 0.58824 0.33856
 H428 H 1.04840 0.60267 0.33060
 O429 O 0.88513 0.47704 0.41901
 O430 O 0.85883 0.47685 0.39268
 C431 C 0.86690 0.46902 0.41092
 C432 C 0.85536 0.45007 0.42266
 C433 C 0.83409 0.44220 0.41538
 H434 H 0.82560 0.45056 0.40153
 O435 O 1.11285 0.52539 0.42081
 O436 O 1.13984 0.52594 0.39493
 C437 C 1.13140 0.53337 0.41318
 C438 C 1.14284 0.55187 0.42539
 C439 C 1.16373 0.56059 0.41778
 H440 H 1.17185 0.55336 0.40308
 O441 O 0.91849 0.38627 0.47687
 O442 O 0.89255 0.35943 0.47629
 C443 C 0.91089 0.36798 0.46876
 C444 C 0.92322 0.35702 0.44995
 C445 C 0.91574 0.33634 0.44111
 H446 H 0.90111 0.32797 0.44848
 O447 O 1.07849 0.61254 0.48099
 O448 O 1.10430 0.63952 0.48171
 C449 C 1.08612 0.63122 0.47369
 C450 C 1.07403 0.64314 0.45534
 C451 C 1.08118 0.66462 0.44832
 H452 H 1.09534 0.67268 0.45668
 O453 O 0.91588 0.52223 0.38918
 O454 O 0.88973 0.52214 0.36269
 C455 C 0.90799 0.53007 0.37090
 C456 C 0.91983 0.54898 0.35938
 C457 C 0.91141 0.55760 0.33905
 H458 H 0.89687 0.54965 0.33123
 O459 O 1.08244 0.48158 0.38944
 O460 O 1.10927 0.48206 0.36339
 C461 C 1.09066 0.47425 0.37106
 C462 C 1.07864 0.45618 0.35877
 C463 C 1.08636 0.44909 0.33753
 H464 H 1.10105 0.45713 0.32992
 O465 O 1.02266 0.39051 0.41775
 O466 O 1.02359 0.36465 0.39115
 C467 C 1.03089 0.37245 0.40968
 C468 C 1.04947 0.36071 0.42174
 C469 C 1.05755 0.33977 0.41416
 H470 H 1.04953 0.33173 0.39989
 O471 O 0.97531 0.61219 0.42001
 O472 O 0.97517 0.63906 0.39426
 C473 C 0.96732 0.63056 0.41237
 C474 C 0.94827 0.64175 0.42431
 C475 C 0.93964 0.66241 0.41651
 H476 H 0.94733 0.67051 0.40198
 O477 O 0.88339 0.57941 0.47857
 O478 O 0.85669 0.60549 0.47889
 C479 C 0.86490 0.58738 0.47094
 C480 C 0.85322 0.57589 0.45218
 C481 C 0.83285 0.58457 0.44357
 H482 H 0.82505 0.59908 0.45148
 O483 O 1.11223 0.42139 0.47959
 O484 O 1.13895 0.39534 0.47946
 C485 C 1.13095 0.41381 0.47207
 C486 C 1.14321 0.42630 0.45414
 C487 C 1.16476 0.41917 0.44688
 H488 H 1.17267 0.40474 0.45484
 O489 O 0.97598 0.58179 0.38891
 O490 O 0.97576 0.60852 0.36302
 C491 C 0.96807 0.59000 0.37080
 C492 C 0.94921 0.57823 0.35917
 C493 C 0.94041 0.58667 0.33884
 H494 H 0.94787 0.60157 0.33122
 O495 O 1.02236 0.42211 0.38757
 O496 O 1.02328 0.39639 0.36084
 C497 C 1.03055 0.41470 0.36921
 C498 C 1.04915 0.42717 0.35784
 C499 C 1.05706 0.42035 0.33660
 H500 H 1.04875 0.40656 0.32800
 O501 O 1.11303 0.48145 0.42070
 O502 O 1.14003 0.48189 0.39483
 C503 C 1.13173 0.47399 0.41301
 C504 C 1.14359 0.45561 0.42512
 C505 C 1.16514 0.44821 0.41805
 H506 H 1.17362 0.45659 0.40412
 O507 O 0.88366 0.52110 0.41899
 O508 O 0.85741 0.52101 0.39261
 C509 C 0.86517 0.52867 0.41098
 C510 C 0.85315 0.54712 0.42284
 C511 C 0.83271 0.55606 0.41441
 H512 H 0.82512 0.54889 0.39946
 O513 O 0.91463 0.61019 0.47911
 O514 O 0.88796 0.63629 0.47939
 C515 C 0.90654 0.62857 0.47161
 C516 C 0.91854 0.64072 0.45323
 C517 C 0.91018 0.66137 0.44516
 H518 H 0.89548 0.66897 0.45314
 O519 O 1.08152 0.39009 0.47821
 O520 O 1.10814 0.36394 0.47808
 C521 C 1.08979 0.37199 0.47025
 C522 C 1.07819 0.36046 0.45138
 C523 C 1.08603 0.33952 0.44353
 H524 H 1.10045 0.33158 0.45157
 O525 O 1.08192 0.52542 0.38995
 O526 O 1.10879 0.52598 0.36393
 C527 C 1.09008 0.53336 0.37175
 C528 C 1.07793 0.55170 0.35986
 C529 C 1.08624 0.56015 0.33932
 H530 H 1.10106 0.55249 0.33164
 O531 O 0.91634 0.47835 0.38808
 O532 O 0.89021 0.47820 0.36158
 C533 C 0.90881 0.47088 0.36953
 C534 C 0.92161 0.45319 0.35735
 C535 C 0.91463 0.44609 0.33594
 H536 H 0.90001 0.45390 0.32813
 O537 O 1.01962 0.61267 0.42051
 O538 O 1.01958 0.63959 0.39482
 C539 C 1.02720 0.63133 0.41307
 C540 C 1.04538 0.64320 0.42560
 C541 C 1.05287 0.66469 0.41877
 H542 H 1.04477 0.67305 0.40469
 O543 O 0.97838 0.38965 0.41757
 O544 O 0.97928 0.36388 0.39090
 C545 C 0.97116 0.37129 0.40930
 C546 C 0.95271 0.35876 0.42087
 C547 C 0.94506 0.33810 0.41235
 H548 H 0.95349 0.33077 0.39786
 O549 O 1.11104 0.58319 0.48091
 O550 O 1.13697 0.61005 0.48153
 C551 C 1.12946 0.59170 0.47350
 C552 C 1.14185 0.58044 0.45492
 C553 C 1.16275 0.58893 0.44710
 H554 H 1.17042 0.60323 0.45545
 O555 O 0.88657 0.41635 0.47729
 O556 O 0.86048 0.38963 0.47692
 C557 C 0.86819 0.40828 0.46954
 C558 C 0.85598 0.42047 0.45143
 C559 C 0.83466 0.41294 0.44400
 H560 H 0.82685 0.39836 0.45190
 Cu561 Cu 1.00024 0.40837 0.40509
 Cu562 Cu 1.00136 0.37743 0.37307
 Cu563 Cu 0.99790 0.59466 0.40707
 Cu564 Cu 0.99775 0.62684 0.37612
 Cu565 Cu 0.90281 0.49967 0.40651
 Cu566 Cu 0.87141 0.49950 0.37475
 Cu567 Cu 1.09490 0.50339 0.40785
 Cu568 Cu 1.12720 0.50400 0.37666
 C569 C 0.94034 0.44265 0.36748
 H570 H 0.94564 0.44790 0.38410
 C571 C 0.92594 0.42850 0.32478
 C572 C 1.05854 0.56158 0.36951
 H573 H 1.05225 0.55533 0.38553
 C574 C 1.07566 0.57846 0.32859
 C575 C 0.86606 0.43919 0.44080
 H576 H 0.88261 0.44493 0.44629
 C577 C 0.82356 0.42371 0.42604
 C578 C 1.13218 0.56178 0.44410
 H579 H 1.11591 0.55536 0.44985
 C580 C 1.17380 0.57915 0.42851
 C581 C 0.94184 0.36797 0.43981
 H582 H 0.94748 0.38409 0.44626
 C583 C 0.92653 0.32682 0.42223
 C584 C 1.05596 0.63267 0.44403
 H585 H 1.05053 0.61597 0.44920
 C586 C 1.07071 0.67555 0.43010
 C587 C 0.93887 0.55927 0.36921
 H588 H 0.94526 0.55289 0.38507
 C589 C 0.92143 0.57652 0.32873
 C590 C 1.05989 0.44525 0.36869
 H591 H 1.05406 0.45039 0.38522
 C592 C 1.07567 0.43118 0.32633
 C593 C 1.05978 0.37081 0.44048
 H594 H 1.05382 0.38708 0.44626
 C595 C 1.07580 0.32902 0.42495
 C596 C 0.93772 0.63114 0.44282
 H597 H 0.94406 0.61504 0.44872
 C598 C 0.92056 0.67230 0.42678
 C599 C 0.86310 0.55704 0.44186
 H600 H 0.87902 0.55052 0.44823
 C601 C 0.82255 0.57491 0.42461
 C602 C 1.13288 0.44468 0.44333
 H603 H 1.11611 0.45006 0.44866
 C604 C 1.17587 0.43002 0.42888
 O605 O 1.01992 0.41738 0.61316
 O606 O 1.02003 0.39065 0.63907
 C607 C 1.02762 0.40923 0.63141
 C608 C 1.04571 0.42139 0.64370
 C609 C 1.05266 0.41409 0.66508
 H610 H 1.04482 0.39923 0.67236
 O611 O 0.97285 0.57881 0.61351
 O612 O 0.97216 0.60495 0.63982
 C613 C 0.96464 0.58664 0.63168
 C614 C 0.94566 0.57482 0.64312
 C615 C 0.93665 0.58336 0.66323
 H616 H 0.94440 0.59798 0.67096
 O617 O 0.88354 0.51835 0.58151
 O618 O 0.85631 0.51743 0.60715
 C619 C 0.86461 0.52541 0.58899
 C620 C 0.85245 0.54346 0.57670
 C621 C 0.83056 0.55007 0.58340
 H622 H 0.82230 0.54158 0.59740
 O623 O 1.11036 0.47776 0.58426
 O624 O 1.13660 0.47773 0.61064
 C625 C 1.12880 0.47009 0.59225
 C626 C 1.14091 0.45179 0.58017
 C627 C 1.16210 0.44386 0.58770
 H628 H 1.17011 0.45170 0.60208
 O629 O 1.08033 0.38913 0.52217
 O630 O 1.10690 0.36292 0.52198
 C631 C 1.08821 0.37060 0.52951
 C632 C 1.07579 0.35817 0.54737
 C633 C 1.08287 0.33658 0.55404
 H634 H 1.09726 0.32878 0.54573
 O635 O 0.91398 0.60976 0.52310
 O636 O 0.88720 0.63576 0.52334
 C637 C 0.90570 0.62789 0.53098
 C638 C 0.91734 0.63963 0.54963
 C639 C 0.90894 0.66021 0.55773
 H640 H 0.89455 0.66806 0.54954
 O641 O 0.91514 0.47531 0.61288
 O642 O 0.88834 0.47460 0.63897
 C643 C 0.90718 0.46749 0.63121
 C644 C 0.91980 0.44965 0.64330
 C645 C 0.91336 0.44305 0.66511
 H646 H 0.89918 0.45133 0.67332
 O647 O 1.07850 0.52138 0.61478
 O648 O 1.10460 0.52168 0.64131
 C649 C 1.08612 0.52915 0.63317
 C650 C 1.07351 0.54736 0.64486
 C651 C 1.08059 0.55525 0.66600
 H652 H 1.09495 0.54743 0.67426
 O653 O 0.97605 0.38662 0.58173
 O654 O 0.97617 0.35984 0.60758
 C655 C 0.96858 0.36795 0.58928
 C656 C 0.95067 0.35573 0.57680
 C657 C 0.94353 0.33426 0.58390
 H658 H 0.95139 0.32648 0.59843
 O659 O 1.01741 0.61048 0.58337
 O660 O 1.01663 0.63656 0.60975
 C661 C 1.02479 0.62885 0.59150
 C662 C 1.04347 0.64107 0.58001
 C663 C 1.05108 0.66184 0.58834
 H664 H 1.04244 0.66946 0.60255
 O665 O 0.88683 0.41598 0.52122
 O666 O 0.86086 0.38915 0.52086
 C667 C 0.86851 0.40751 0.52883
 C668 C 0.85630 0.41875 0.54753
 C669 C 0.83554 0.41004 0.55535
 H670 H 0.82797 0.39571 0.54697
 O671 O 1.10965 0.58164 0.52482
 O672 O 1.13573 0.60836 0.52544
 C673 C 1.12792 0.58971 0.53275
 C674 C 1.13991 0.57750 0.55097
 C675 C 1.16132 0.58478 0.55834
 H676 H 1.16929 0.59923 0.55036
 O677 O 1.01729 0.57947 0.61421
 O678 O 1.01650 0.60550 0.64064
 C679 C 1.02465 0.58736 0.63266
 C680 C 1.04329 0.57564 0.64463
 C681 C 1.05056 0.58323 0.66577
 H682 H 1.04211 0.59742 0.67360
 O683 O 0.97560 0.41699 0.61307
 O684 O 0.97567 0.39040 0.63911
 C685 C 0.96788 0.40882 0.63136
 C686 C 0.94942 0.42080 0.64338
 C687 C 0.94272 0.41435 0.66522
 H688 H 0.95163 0.40083 0.67374
 O689 O 1.10987 0.52174 0.58410
 O690 O 1.13622 0.52191 0.61039
 C691 C 1.12825 0.52958 0.59203
 C692 C 1.14009 0.54814 0.58000
 C693 C 1.16151 0.55570 0.58713
 H694 H 1.16988 0.54731 0.60103
 O695 O 0.88446 0.47442 0.58181
 O696 O 0.85744 0.47336 0.60765
 C697 C 0.86608 0.46604 0.58943
 C698 C 0.85501 0.44726 0.57719
 C699 C 0.83421 0.43825 0.58477
 H700 H 0.82590 0.44535 0.59943
 O701 O 1.07857 0.61258 0.52494
 O702 O 1.10451 0.63943 0.52568
 C703 C 1.08608 0.63095 0.53301
 C704 C 1.07349 0.64217 0.55148
 C705 C 1.08093 0.66296 0.56011
 H706 H 1.09573 0.67114 0.55288
 O707 O 0.91790 0.38520 0.52091
 O708 O 0.89207 0.35825 0.52038
 C709 C 0.91022 0.36657 0.52837
 C710 C 0.92218 0.35492 0.54698
 C711 C 0.91517 0.33346 0.55441
 H712 H 0.90146 0.32486 0.54585
 O713 O 1.07884 0.47749 0.61483
 O714 O 1.10484 0.47761 0.64147
 C715 C 1.08651 0.46985 0.63329
 C716 C 1.07423 0.45129 0.64489
 C717 C 1.08054 0.44416 0.66658
 H718 H 1.09369 0.45329 0.67542
 O719 O 0.91343 0.51917 0.61333
 O720 O 0.88639 0.51860 0.63915
 C721 C 0.90485 0.52674 0.63147
 C722 C 0.91628 0.54562 0.64321
 C723 C 0.90752 0.55442 0.66348
 H724 H 0.89253 0.54698 0.67114
 O725 O 0.97307 0.61018 0.58310
 O726 O 0.97237 0.63634 0.60940
 C727 C 0.96497 0.62838 0.59100
 C728 C 0.94631 0.63997 0.57897
 C729 C 0.93762 0.66057 0.58688
 H730 H 0.94500 0.66837 0.60161
 O731 O 1.02022 0.38734 0.58165
 O732 O 1.02041 0.36043 0.60738
 C733 C 1.02805 0.36886 0.58914
 C734 C 1.04649 0.35736 0.57665
 C735 C 1.05380 0.33577 0.58309
 H736 H 1.04531 0.32708 0.59683
 O737 O 1.11148 0.41999 0.52356
 O738 O 1.13816 0.39390 0.52338
 C739 C 1.12986 0.41197 0.53138
 C740 C 1.14141 0.42349 0.55028
 C741 C 1.16258 0.41588 0.55801
 H742 H 1.17071 0.40171 0.54981
 O743 O 0.88332 0.57831 0.52246
 O744 O 0.85644 0.60421 0.52271
 C745 C 0.86460 0.58578 0.53008
 C746 C 0.85249 0.57310 0.54801
 C747 C 0.83058 0.57951 0.55497
 H748 H 0.82210 0.59338 0.54660
 Cu749 Cu 0.99791 0.40479 0.59485
 Cu750 Cu 0.99807 0.37264 0.62589
 Cu751 Cu 0.99524 0.59210 0.59590
 Cu752 Cu 0.99437 0.62344 0.62757
 Cu753 Cu 0.90509 0.40358 0.49908
 Cu754 Cu 0.87388 0.37142 0.49855
 Cu755 Cu 1.09373 0.40777 0.50090
 Cu756 Cu 1.12572 0.37641 0.50071
 Cu757 Cu 0.90152 0.59181 0.50081
 Cu758 Cu 0.86941 0.62307 0.50115
 Cu759 Cu 1.09185 0.59480 0.50286
 Cu760 Cu 1.12297 0.62704 0.50367
 Cu761 Cu 0.90184 0.49690 0.59481
 Cu762 Cu 0.86938 0.49589 0.62581
 Cu763 Cu 1.09180 0.49957 0.59686
 Cu764 Cu 1.12322 0.49976 0.62860
 C765 C 1.05654 0.44003 0.63379
 H766 H 1.05158 0.44542 0.61707
 C767 C 1.06986 0.42550 0.67692
 C768 C 0.93549 0.55585 0.63333
 H769 H 0.94217 0.54944 0.61758
 C770 C 0.91755 0.57345 0.67344
 C771 C 0.86317 0.55491 0.55884
 H772 H 0.88019 0.55008 0.55378
 C773 C 0.81947 0.56804 0.57262
 C774 C 1.13083 0.44158 0.56134
 H775 H 1.11438 0.44737 0.55561
 C776 C 1.17311 0.42596 0.57665
 C777 C 1.05745 0.36832 0.55862
 H778 H 1.05211 0.38511 0.55375
 C779 C 1.07196 0.32524 0.57185
 C780 C 0.93617 0.62975 0.56021
 H781 H 0.94251 0.61370 0.55423
 C782 C 0.91887 0.67077 0.57640
 C783 C 0.93798 0.43860 0.63268
 H784 H 0.94285 0.44349 0.61574
 C785 C 0.92481 0.42552 0.67627
 C786 C 1.05472 0.55756 0.63442
 H787 H 1.04936 0.55181 0.61798
 C788 C 1.06915 0.57315 0.67661
 C789 C 0.94008 0.36580 0.55818
 H790 H 0.94536 0.38247 0.55278
 C791 C 0.92584 0.32296 0.57280
 C792 C 1.05463 0.63148 0.56144
 H793 H 1.04902 0.61529 0.55514
 C794 C 1.06986 0.67285 0.57862
 C795 C 0.86582 0.43748 0.55843
 H796 H 0.88201 0.44408 0.55267
 C797 C 0.82445 0.41957 0.57399
 C798 C 1.12954 0.55902 0.56176
 H799 H 1.11289 0.55349 0.55634
 C800 C 1.17228 0.57396 0.57635
 O801 O 0.47893 0.91736 0.38893
 O802 O 0.47921 0.89096 0.36286
 C803 C 0.47144 0.90940 0.37057
 C804 C 0.45326 0.92159 0.35834
 C805 C 0.44640 0.91463 0.33681
 H806 H 0.45494 0.90064 0.32872
 O807 O 0.52249 1.08156 0.38644
 O808 O 0.52273 1.10773 0.35998
 C809 C 0.53040 1.08942 0.36807
 C810 C 0.54916 1.07741 0.35644
 C811 C 0.55802 1.08548 0.33588
 H812 H 0.55070 1.10030 0.32807
 O813 O 0.38641 0.97690 0.41700
 O814 O 0.36055 0.97647 0.39025
 C815 C 0.36821 0.96890 0.40875
 C816 C 0.35632 0.95018 0.42056
 C817 C 0.33581 0.94131 0.41223
 H818 H 0.32820 0.94854 0.39729
 O819 O 0.61247 1.02093 0.41757
 O820 O 0.63930 1.02084 0.39151
 C821 C 0.63117 1.02843 0.40984
 C822 C 0.64334 1.04644 0.42211
 C823 C 0.66507 1.05338 0.41513
 H824 H 0.67312 1.04525 0.40087
 O825 O 0.41691 0.88678 0.47750
 O826 O 0.39049 0.86038 0.47760
 C827 C 0.40906 0.86834 0.46997
 C828 C 0.42145 0.85647 0.45175
 C829 C 0.41337 0.83591 0.44313
 H830 H 0.39822 0.82827 0.45025
 O831 O 0.58196 1.11084 0.47664
 O832 O 0.60875 1.13688 0.47659
 C833 C 0.59025 1.12906 0.46886
 C834 C 0.57858 1.14100 0.45031
 C835 C 0.58710 1.16156 0.44217
 H836 H 0.60174 1.16918 0.45014
 O837 O 0.41806 1.02120 0.38661
 O838 O 0.39221 1.02099 0.35984
 C839 C 0.41041 1.02890 0.36813
 C840 C 0.42249 1.04767 0.35658
 C841 C 0.41461 1.05618 0.33589
 H842 H 0.39992 1.04861 0.32797
 O843 O 0.58160 0.97730 0.38638
 O844 O 0.60813 0.97724 0.36003
 C845 C 0.58959 0.96963 0.36803
 C846 C 0.57743 0.95117 0.35644
 C847 C 0.58390 0.94411 0.33474
 H848 H 0.59711 0.95323 0.32583
 O849 O 0.52311 0.88699 0.42036
 O850 O 0.52347 0.86034 0.39456
 C851 C 0.53110 0.86864 0.41275
 C852 C 0.54986 0.85724 0.42490
 C853 C 0.55758 0.83591 0.41809
 H854 H 0.54914 0.82728 0.40442
 O855 O 0.47795 1.11247 0.41717
 O856 O 0.47829 1.13882 0.39089
 C857 C 0.47030 1.13084 0.40917
 C858 C 0.45154 1.14269 0.42094
 C859 C 0.44420 1.16396 0.41353
 H860 H 0.45267 1.17198 0.39937
 O861 O 0.38591 1.08106 0.47547
 O862 O 0.35913 1.10704 0.47499
 C863 C 0.36742 1.08873 0.46758
 C864 C 0.35579 1.07650 0.44922
 C865 C 0.33472 1.08400 0.44109
 H866 H 0.32643 1.09825 0.44899
 O867 O 0.61448 0.91985 0.47942
 O868 O 0.64131 0.89392 0.47963
 C869 C 0.63310 0.91213 0.47180
 C870 C 0.64473 0.92414 0.45309
 C871 C 0.66674 0.91796 0.44615
 H872 H 0.67582 0.90518 0.45554
 O873 O 0.47815 1.08099 0.38708
 O874 O 0.47830 1.10720 0.36066
 C875 C 0.47046 1.08887 0.36874
 C876 C 0.45181 1.07697 0.35702
 C877 C 0.44367 1.08516 0.33641
 H878 H 0.45178 1.09962 0.32859
 O879 O 0.52315 0.91705 0.38860
 O880 O 0.52339 0.89050 0.36268
 C881 C 0.53092 0.90901 0.37031
 C882 C 0.54901 0.92123 0.35789
 C883 C 0.55603 0.91401 0.33650
 H884 H 0.54825 0.89916 0.32932
 O885 O 0.61215 0.97708 0.41775
 O886 O 0.63885 0.97702 0.39156
 C887 C 0.63078 0.96949 0.41000
 C888 C 0.64320 0.95176 0.42253
 C889 C 0.66491 0.94496 0.41548
 H890 H 0.67223 0.95251 0.40050
 O891 O 0.38663 1.02091 0.41726
 O892 O 0.36064 1.02061 0.39063
 C893 C 0.36827 1.02846 0.40900
 C894 C 0.35613 1.04697 0.42061
 C895 C 0.33508 1.05474 0.41267
 H896 H 0.32737 1.04677 0.39820
 O897 O 0.41676 1.11234 0.47546
 O898 O 0.39014 1.13849 0.47503
 C899 C 0.40882 1.13065 0.46761
 C900 C 0.42131 1.14257 0.44936
 C901 C 0.41417 1.16385 0.44165
 H902 H 0.39981 1.17205 0.44964
 O903 O 0.58356 0.88876 0.47925
 O904 O 0.61013 0.86256 0.47951
 C905 C 0.59161 0.87037 0.47178
 C906 C 0.57947 0.85816 0.45369
 C907 C 0.58690 0.83681 0.44665
 H908 H 0.60147 0.82911 0.45468
 O909 O 0.58149 1.02133 0.38676
 O910 O 0.60821 1.02131 0.36060
 C911 C 0.58975 1.02913 0.36853
 C912 C 0.57815 1.04791 0.35678
 C913 C 0.58674 1.05621 0.33629
 H914 H 0.60124 1.04807 0.32851
 O915 O 0.41900 0.97716 0.38754
 O916 O 0.39331 0.97691 0.36062
 C917 C 0.41163 0.96938 0.36907
 C918 C 0.42421 0.95107 0.35760
 C919 C 0.41766 0.94390 0.33610
 H920 H 0.40359 0.95212 0.32773
 O921 O 0.52237 1.11218 0.41746
 O922 O 0.52277 1.13846 0.39112
 C923 C 0.53038 1.13043 0.40946
 C924 C 0.54922 1.14191 0.42132
 C925 C 0.55797 1.16257 0.41343
 H926 H 0.55046 1.17068 0.39889
 O927 O 0.47858 0.88642 0.41982
 O928 O 0.47895 0.85991 0.39388
 C929 C 0.47087 0.86805 0.41196
 C930 C 0.45179 0.85643 0.42349
 C931 C 0.44349 0.83593 0.41515
 H932 H 0.45191 0.82800 0.40099
 O933 O 0.61304 1.07997 0.47722
 O934 O 0.63993 1.10590 0.47720
 C935 C 0.63174 1.08763 0.46959
 C936 C 0.64369 1.07541 0.45130
 C937 C 0.66542 1.08219 0.44401
 H938 H 0.67398 1.09596 0.45241
 O939 O 0.38612 0.91788 0.47680
 O940 O 0.35958 0.89161 0.47699
 C941 C 0.36777 0.90983 0.46904
 C942 C 0.35622 0.92136 0.45013
 C943 C 0.33578 0.91281 0.44160
 H944 H 0.32784 0.89840 0.44967
 Cu945 Cu 0.50093 0.90456 0.40707
 Cu946 Cu 0.50128 0.87270 0.37596
 Cu947 Cu 0.50025 1.09421 0.40469
 Cu948 Cu 0.50051 1.12568 0.37301
 Cu949 Cu 0.40508 0.99907 0.40478
 Cu950 Cu 0.37409 0.99870 0.37264
 Cu951 Cu 0.59420 0.99912 0.40468
 Cu952 Cu 0.62628 0.99908 0.37325
 C953 C 0.44218 0.93996 0.36850
 H954 H 0.44714 0.94525 0.38521
 C955 C 0.42868 0.92578 0.32553
 C956 C 0.55924 1.05849 0.36662
 H957 H 0.55277 1.05238 0.38262
 C958 C 0.57690 1.07503 0.32577
 C959 C 0.36624 0.94017 0.43963
 H960 H 0.38221 0.94664 0.44595
 C961 C 0.32552 0.92252 0.42260
 C962 C 0.63290 1.05738 0.44036
 H963 H 0.61602 1.05227 0.44565
 C964 C 0.67628 1.07118 0.42600
 C965 C 0.44080 0.86646 0.44192
 H966 H 0.44692 0.88248 0.44818
 C967 C 0.42423 0.82563 0.42471
 C968 C 0.55952 1.13141 0.43992
 H969 H 0.55310 1.11534 0.44592
 C970 C 0.57701 1.17242 0.42372
 C971 C 0.44124 1.05809 0.36690
 H972 H 0.44721 1.05188 0.38299
 C973 C 0.42502 1.07502 0.32579
 C974 C 0.55972 0.93985 0.36766
 H975 H 0.55467 0.94517 0.38438
 C976 C 0.57323 0.92549 0.32451
 C977 C 0.56081 0.86813 0.44285
 H978 H 0.55515 0.88471 0.44801
 C979 C 0.57605 0.82554 0.42891
 C980 C 0.44014 1.13226 0.43901
 H981 H 0.44556 1.11573 0.44462
 C982 C 0.42559 1.17473 0.42379
 C983 C 0.36622 1.05784 0.43902
 H984 H 0.38262 1.05217 0.44502
 C985 C 0.32425 1.07325 0.42280
 C986 C 0.63329 0.94132 0.44139
 H987 H 0.61633 0.94618 0.44661
 C988 C 0.67707 0.92832 0.42732
 O989 O 0.52011 0.91888 0.61181
 O990 O 0.51973 0.89244 0.63800
 C991 C 0.52754 0.91086 0.63023
 C992 C 0.54595 0.92265 0.64237
 C993 C 0.55421 0.91395 0.66273
 H994 H 0.54620 0.89925 0.67019
 O995 O 0.47570 1.08234 0.60934
 O996 O 0.47542 1.10858 0.63556
 C997 C 0.46792 1.09010 0.62771
 C998 C 0.44973 1.07765 0.63978
 C999 C 0.44266 1.08431 0.66136
 H1000 H 0.45114 1.09822 0.66961
 O1001 O 0.38560 1.02185 0.57939
 O1002 O 0.35887 1.02213 0.60554
 C1003 C 0.36704 1.02962 0.58713
 C1004 C 0.35506 1.04781 0.57481
 C1005 C 0.33349 1.05502 0.58191
 H1006 H 0.32544 1.04699 0.59629
 O1007 O 0.61115 0.97807 0.58308
 O1008 O 0.63711 0.97863 0.60975
 C1009 C 0.62954 0.97063 0.59142
 C1010 C 0.64190 0.95213 0.58000
 C1011 C 0.66231 0.94382 0.58890
 H1012 H 0.66957 0.95170 0.60365
 O1013 O 0.58296 0.88877 0.52299
 O1014 O 0.60945 0.86249 0.52342
 C1015 C 0.59078 0.87040 0.53079
 C1016 C 0.57818 0.85857 0.54898
 C1017 C 0.58572 0.83766 0.55732
 H1018 H 0.60065 0.82977 0.55010
 O1019 O 0.41626 1.11241 0.51940
 O1020 O 0.38945 1.13837 0.51905
 C1021 C 0.40790 1.13063 0.52697
 C1022 C 0.41935 1.14252 0.54565
 C1023 C 0.41027 1.16261 0.55422
 H1024 H 0.39550 1.17006 0.54632
 O1025 O 0.41592 0.97785 0.61104
 O1026 O 0.38921 0.97795 0.63721
 C1027 C 0.40769 0.97014 0.62934
 C1028 C 0.41949 0.95144 0.64107
 C1029 C 0.41124 0.94278 0.66166
 H1030 H 0.39641 0.95024 0.66953
 O1031 O 0.57919 1.02249 0.61248
 O1032 O 0.60503 1.02303 0.63925
 C1033 C 0.58677 1.03059 0.63075
 C1034 C 0.57456 1.04940 0.64184
 C1035 C 0.58165 1.05745 0.66290
 H1036 H 0.59552 1.04918 0.67156
 O1037 O 0.47652 0.88769 0.58035
 O1038 O 0.47634 0.86122 0.60652
 C1039 C 0.46880 0.86922 0.58817
 C1040 C 0.45044 0.85725 0.57613
 C1041 C 0.44303 0.83593 0.58347
 H1042 H 0.45119 0.82797 0.59774
 O1043 O 0.52002 1.11325 0.57838
 O1044 O 0.51979 1.13984 0.60425
 C1045 C 0.52776 1.13163 0.58610
 C1046 C 0.54665 1.14315 0.57412
 C1047 C 0.55420 1.16450 0.58099
 H1048 H 0.54547 1.17311 0.59457
 O1049 O 0.38541 0.91813 0.52076
 O1050 O 0.35878 0.89195 0.52105
 C1051 C 0.36681 0.91037 0.52847
 C1052 C 0.35477 0.92273 0.54660
 C1053 C 0.33304 0.91598 0.55390
 H1054 H 0.32458 0.90205 0.54567
 O1055 O 0.61218 1.08011 0.52125
 O1056 O 0.63899 1.10612 0.52119
 C1057 C 0.63064 1.08793 0.52901
 C1058 C 0.64224 1.07603 0.54765
 C1059 C 0.66376 1.08311 0.55492
 H1060 H 0.67209 1.09713 0.54654
 O1061 O 0.51988 1.08294 0.60989
 O1062 O 0.51963 1.10939 0.63591
 C1063 C 0.52740 1.09096 0.62823
 C1064 C 0.54562 1.07894 0.64054
 C1065 C 0.55296 1.08671 0.66161
 H1066 H 0.54503 1.10141 0.66903
 O1067 O 0.47579 0.91883 0.61085
 O1068 O 0.47550 0.89238 0.63705
 C1069 C 0.46777 0.91071 0.62904
 C1070 C 0.44888 0.92234 0.64071
 C1071 C 0.44040 0.91393 0.66116
 H1072 H 0.44842 0.89944 0.66894
 O1073 O 0.61094 1.02189 0.58216
 O1074 O 0.63699 1.02253 0.60874
 C1075 C 0.62932 1.02973 0.59008
 C1076 C 0.64158 1.04769 0.57761
 C1077 C 0.66312 1.05499 0.58464
 H1078 H 0.67123 1.04685 0.59884
 O1079 O 0.38561 0.97791 0.57955
 O1080 O 0.35876 0.97820 0.60558
 C1081 C 0.36694 0.97043 0.58734
 C1082 C 0.35487 0.95219 0.57531
 C1083 C 0.33315 0.94526 0.58231
 H1084 H 0.32501 0.95358 0.59641
 O1085 O 0.58148 1.11145 0.52046
 O1086 O 0.60816 1.13760 0.52042
 C1087 C 0.58941 1.12990 0.52790
 C1088 C 0.57686 1.14225 0.54570
 C1089 C 0.58413 1.16363 0.55278
 H1090 H 0.59887 1.17135 0.54493
 O1091 O 0.41661 0.88734 0.52129
 O1092 O 0.39019 0.86093 0.52153
 C1093 C 0.40866 0.86898 0.52909
 C1094 C 0.42085 0.85718 0.54741
 C1095 C 0.41362 0.83588 0.55502
 H1096 H 0.39946 0.82761 0.54688
 O1097 O 0.57950 0.97838 0.61347
 O1098 O 0.60534 0.97879 0.64024
 C1099 C 0.58716 0.97081 0.63197
 C1100 C 0.57515 0.95198 0.64340
 C1101 C 0.58325 0.94295 0.66378
 H1102 H 0.59806 0.95028 0.67169
 O1103 O 0.41669 1.02187 0.61015
 O1104 O 0.39012 1.02203 0.63647
 C1105 C 0.40868 1.02963 0.62844
 C1106 C 0.42085 1.04799 0.64017
 C1107 C 0.41399 1.05491 0.66172
 H1108 H 0.39987 1.04650 0.66999
 O1109 O 0.47553 1.11365 0.57885
 O1110 O 0.47517 1.14006 0.60488
 C1111 C 0.46747 1.13191 0.58669
 C1112 C 0.44848 1.14327 0.57488
 C1113 C 0.43909 1.16341 0.58325
 H1114 H 0.44623 1.17115 0.59813
 O1115 O 0.52096 0.88852 0.58054
 O1116 O 0.52061 0.86208 0.60674
 C1117 C 0.52870 0.87022 0.58858
 C1118 C 0.54773 0.85860 0.57712
 C1119 C 0.55548 0.83776 0.58518
 H1120 H 0.54675 0.82967 0.59914
 O1121 O 0.61412 0.91952 0.52349
 O1122 O 0.64080 0.89345 0.52389
 C1123 C 0.63242 0.91161 0.53159
 C1124 C 0.64352 0.92333 0.55065
 C1125 C 0.66396 0.91523 0.55984
 H1126 H 0.67215 0.90063 0.55250
 O1127 O 0.38546 1.08126 0.51941
 O1128 O 0.35853 1.10709 0.51900
 C1129 C 0.36676 1.08893 0.52693
 C1130 C 0.35486 1.07682 0.54543
 C1131 C 0.33328 1.08384 0.55287
 H1132 H 0.32483 1.09772 0.54446
 Cu1133 Cu 0.49836 0.90613 0.59323
 Cu1134 Cu 0.49802 0.87437 0.62470
 Cu1135 Cu 0.49781 1.09547 0.59146
 Cu1136 Cu 0.49748 1.12717 0.62271
 Cu1137 Cu 0.40390 0.90517 0.49910
 Cu1138 Cu 0.37206 0.87360 0.49934
 Cu1139 Cu 0.59620 0.90689 0.50125
 Cu1140 Cu 0.62815 0.87552 0.50160
 Cu1141 Cu 0.40377 1.09417 0.49743
 Cu1142 Cu 0.37163 1.12536 0.49695
 Cu1143 Cu 0.59452 1.09295 0.49892
 Cu1144 Cu 0.62666 1.12422 0.49887
 Cu1145 Cu 0.40366 0.99984 0.59246
 Cu1146 Cu 0.37156 1.00014 0.62384
 Cu1147 Cu 0.59255 1.00016 0.59518
 Cu1148 Cu 0.62368 1.00084 0.62722
 C1149 C 0.55636 0.94180 0.63297
 H1150 H 0.55026 0.94836 0.61706
 C1151 C 0.57295 0.92382 0.67347
 C1152 C 0.43887 1.05932 0.62942
 H1153 H 0.44406 1.05425 0.61267
 C1154 C 0.42484 1.07300 0.67249
 C1155 C 0.36550 1.05866 0.55641
 H1156 H 0.38226 1.05333 0.55100
 C1157 C 0.32243 1.07296 0.57104
 C1158 C 0.63277 0.94191 0.56076
 H1159 H 0.61685 0.94804 0.55402
 C1160 C 0.67342 0.92532 0.57906
 C1161 C 0.55904 0.86878 0.55889
 H1162 H 0.55331 0.88504 0.55281
 C1163 C 0.57449 0.82723 0.57551
 C1164 C 0.43858 1.13310 0.55595
 H1165 H 0.44544 1.11739 0.54963
 C1166 C 0.41988 1.17311 0.57309
 C1167 C 0.43846 0.94121 0.63089
 H1168 H 0.44474 0.94754 0.61491
 C1169 C 0.42155 0.92390 0.67171
 C1170 C 0.55639 1.06015 0.63089
 H1171 H 0.55102 1.05424 0.61451
 C1172 C 0.57095 1.07608 0.67293
 C1173 C 0.43940 0.86761 0.55794
 H1174 H 0.44486 0.88418 0.55239
 C1175 C 0.42467 0.82510 0.57301
 C1176 C 0.55797 1.13227 0.55633
 H1177 H 0.55245 1.11566 0.55115
 C1178 C 0.57289 1.17490 0.57039
 C1179 C 0.36543 0.94099 0.55729
 H1180 H 0.38230 0.94611 0.55197
 C1181 C 0.32206 0.92724 0.57168
 C1182 C 0.63139 1.05817 0.55896
 H1183 H 0.61465 1.05283 0.55362
 C1184 C 0.67436 1.07266 0.57335
 O1185 O 0.58352 0.52419 1.10880
 O1186 O 0.60996 0.52442 1.13501
 C1187 C 0.59148 0.53201 1.12705
 C1188 C 0.57950 0.55047 1.13891
 C1189 C 0.58772 0.55844 1.15955
 H1190 H 0.60222 0.55032 1.16727
 O1191 O 0.41878 0.47943 1.11259
 O1192 O 0.39233 0.47954 1.13900
 C1193 C 0.41075 0.47171 1.13095
 C1194 C 0.42270 0.45299 1.14253
 C1195 C 0.41425 0.44388 1.16284
 H1196 H 0.39917 0.45098 1.17057
 O1197 O 0.52280 0.61417 1.07939
 O1198 O 0.52310 0.64069 1.10532
 C1199 C 0.53070 0.63256 1.08699
 C1200 C 0.54935 0.64419 1.07468
 C1201 C 0.55801 0.66485 1.08242
 H1202 H 0.55063 0.67268 1.09719
 O1203 O 0.47860 0.38872 1.08184
 O1204 O 0.47877 0.36280 1.10854
 C1205 C 0.47077 0.37056 1.09025
 C1206 C 0.45169 0.35887 1.07894
 C1207 C 0.44328 0.33823 1.08724
 H1208 H 0.45118 0.33039 1.10172
 O1209 O 0.61346 0.58324 1.01883
 O1210 O 0.64016 0.60935 1.01795
 C1211 C 0.63213 0.59116 1.02605
 C1212 C 0.64424 0.57946 1.04451
 C1213 C 0.66490 0.58795 1.05263
 H1214 H 0.67260 0.60247 1.04454
 O1215 O 0.38676 0.41992 1.02318
 O1216 O 0.35990 0.39396 1.02380
 C1217 C 0.36813 0.41236 1.03103
 C1218 C 0.35621 0.42477 1.04914
 C1219 C 0.33464 0.41781 1.05656
 H1220 H 0.32645 0.40357 1.04858
 O1221 O 0.47867 0.58352 1.11119
 O1222 O 0.47888 0.60985 1.13731
 C1223 C 0.47101 0.59149 1.12955
 C1224 C 0.45233 0.57956 1.14154
 C1225 C 0.44379 0.58771 1.16214
 H1226 H 0.45127 0.60254 1.16971
 O1227 O 0.52340 0.42013 1.11122
 O1228 O 0.52376 0.39435 1.13805
 C1229 C 0.53147 0.41252 1.12953
 C1230 C 0.55029 0.42473 1.14071
 C1231 C 0.55895 0.41719 1.16145
 H1232 H 0.55177 0.40225 1.16922
 O1233 O 0.61479 0.47954 1.07873
 O1234 O 0.64117 0.48002 1.10498
 C1235 C 0.63317 0.47188 1.08691
 C1236 C 0.64498 0.45282 1.07581
 C1237 C 0.66535 0.44438 1.08469
 H1238 H 0.67308 0.45268 1.09897
 O1239 O 0.38816 0.52340 1.08134
 O1240 O 0.36162 0.52394 1.10767
 C1241 C 0.36976 0.53139 1.08921
 C1242 C 0.35811 0.54989 1.07701
 C1243 C 0.33727 0.55844 1.08487
 H1244 H 0.32940 0.55115 1.09973
 O1245 O 0.41975 0.61312 1.02033
 O1246 O 0.39318 0.63931 1.01992
 C1247 C 0.41158 0.63146 1.02781
 C1248 C 0.42311 0.64339 1.04639
 C1249 C 0.41432 0.66374 1.05463
 H1250 H 0.39975 0.67135 1.04651
 O1251 O 0.58379 0.38750 1.02218
 O1252 O 0.61018 0.36113 1.02264
 C1253 C 0.59168 0.36926 1.03019
 C1254 C 0.57939 0.35784 1.04884
 C1255 C 0.58715 0.33719 1.05759
 H1256 H 0.60201 0.32920 1.05032
 O1257 O 0.41914 0.52350 1.11214
 O1258 O 0.39275 0.52375 1.13862
 C1259 C 0.41122 0.53139 1.13041
 C1260 C 0.42317 0.55011 1.14186
 C1261 C 0.41494 0.55849 1.16240
 H1262 H 0.40050 0.55041 1.17045
 O1263 O 0.58313 0.48024 1.10923
 O1264 O 0.60950 0.48062 1.13551
 C1265 C 0.59099 0.47287 1.12772
 C1266 C 0.57895 0.45457 1.13994
 C1267 C 0.58678 0.44730 1.16101
 H1268 H 0.60052 0.45642 1.16893
 O1269 O 0.52303 0.38880 1.08094
 O1270 O 0.52316 0.36295 1.10771
 C1271 C 0.53082 0.37060 1.08917
 C1272 C 0.54950 0.35857 1.07754
 C1273 C 0.55744 0.33794 1.08598
 H1274 H 0.54900 0.33023 1.10032
 O1275 O 0.47853 0.61415 1.08001
 O1276 O 0.47860 0.64067 1.10595
 C1277 C 0.47076 0.63252 1.08780
 C1278 C 0.45197 0.64401 1.07585
 C1279 C 0.44289 0.66440 1.08391
 H1280 H 0.45006 0.67221 1.09874
 O1281 O 0.38880 0.58207 1.02076
 O1282 O 0.36220 0.60823 1.02031
 C1283 C 0.37028 0.59005 1.02836
 C1284 C 0.35839 0.57848 1.04720
 C1285 C 0.33755 0.58672 1.05530
 H1286 H 0.32959 0.60091 1.04697
 O1287 O 0.61509 0.41819 1.02159
 O1288 O 0.64168 0.39202 1.02200
 C1289 C 0.63358 0.41043 1.02942
 C1290 C 0.64528 0.42268 1.04779
 C1291 C 0.66570 0.41448 1.05696
 H1292 H 0.67338 0.39935 1.05017
 O1293 O 0.47894 0.42031 1.11180
 O1294 O 0.47930 0.39443 1.13855
 C1295 C 0.47133 0.41256 1.13033
 C1296 C 0.45245 0.42420 1.14209
 C1297 C 0.44379 0.41541 1.16232
 H1298 H 0.45180 0.40085 1.16996
 O1299 O 0.52303 0.58338 1.11031
 O1300 O 0.52342 0.60970 1.13645
 C1301 C 0.53109 0.59136 1.12841
 C1302 C 0.55001 0.57947 1.13973
 C1303 C 0.55856 0.58726 1.16037
 H1304 H 0.55093 0.60180 1.16837
 O1305 O 0.38733 0.47948 1.08216
 O1306 O 0.36071 0.47992 1.10842
 C1307 C 0.36867 0.47207 1.09014
 C1308 C 0.35647 0.45381 1.07823
 C1309 C 0.33490 0.44650 1.08554
 H1310 H 0.32667 0.45480 1.09960
 O1311 O 0.61484 0.52375 1.07791
 O1312 O 0.64128 0.52414 1.10411
 C1313 C 0.63325 0.53167 1.08574
 C1314 C 0.64491 0.55033 1.07371
 C1315 C 0.66557 0.55914 1.08167
 H1316 H 0.67344 0.55178 1.09642
 O1317 O 0.41777 0.38894 1.02383
 O1318 O 0.39104 0.36287 1.02468
 C1319 C 0.40965 0.37083 1.03201
 C1320 C 0.42172 0.35919 1.05054
 C1321 C 0.41360 0.33860 1.05903
 H1322 H 0.39896 0.33072 1.05133
 O1323 O 0.58187 0.61365 1.01890
 O1324 O 0.60848 0.63985 1.01820
 C1325 C 0.59006 0.63198 1.02632
 C1326 C 0.57839 0.64385 1.04503
 C1327 C 0.58679 0.66446 1.05305
 H1328 H 0.60127 0.67226 1.04481
 Cu1329 Cu 0.59648 0.50192 1.09097
 Cu1330 Cu 0.62815 0.50232 1.12250
 Cu1331 Cu 0.40601 0.50137 1.09445
 Cu1332 Cu 0.37423 0.50184 1.12611
 Cu1333 Cu 0.50070 0.59617 1.09265
 Cu1334 Cu 0.50103 0.62787 1.12389
 Cu1335 Cu 0.50098 0.40707 1.09376
 Cu1336 Cu 0.50129 0.37606 1.12591
 C1337 C 0.56050 0.56094 1.12924
 H1338 H 0.55427 0.55505 1.11315
 C1339 C 0.57749 0.57688 1.17033
 C1340 C 0.44194 0.44311 1.13242
 H1341 H 0.44834 0.44972 1.11659
 C1342 C 0.42462 0.42494 1.17270
 C1343 C 0.55953 0.63396 1.05583
 H1344 H 0.55319 0.61788 1.04997
 C1345 C 0.57679 0.67504 1.07177
 C1346 C 0.44089 0.36909 1.06047
 H1347 H 0.44705 0.38514 1.05418
 C1348 C 0.42417 0.32803 1.07741
 C1349 C 0.63452 0.56050 1.05500
 H1350 H 0.61840 0.55409 1.04902
 C1351 C 0.67563 0.57803 1.07129
 C1352 C 0.36686 0.44295 1.05989
 H1353 H 0.38363 0.44822 1.05438
 C1354 C 0.32381 0.42857 1.07469
 C1355 C 0.44201 0.56063 1.13167
 H1356 H 0.44821 0.55447 1.11563
 C1357 C 0.42499 0.57733 1.17260
 C1358 C 0.56045 0.44344 1.13009
 H1359 H 0.55435 0.44896 1.11380
 C1360 C 0.57724 0.42838 1.17182
 C1361 C 0.63520 0.44198 1.05723
 H1362 H 0.61928 0.44819 1.05055
 C1363 C 0.67576 0.42516 1.07554
 C1364 C 0.36843 0.55992 1.05804
 H1365 H 0.38467 0.55368 1.05210
 C1366 C 0.32692 0.57690 1.07416
 C1367 C 0.44207 0.63378 1.05696
 H1368 H 0.44869 0.61789 1.05086
 C1369 C 0.42395 0.67429 1.07345
 C1370 C 0.56043 0.36828 1.05883
 H1371 H 0.55457 0.38438 1.05246
 C1372 C 0.57630 0.32719 1.07625
 O1373 O 0.58121 0.47601 0.88761
 O1374 O 0.60744 0.47561 0.86097
 C1375 C 0.58898 0.46809 0.86931
 C1376 C 0.57661 0.44964 0.85793
 C1377 C 0.58303 0.44249 0.83629
 H1378 H 0.59669 0.45108 0.82745
 O1379 O 0.41924 0.52081 0.88712
 O1380 O 0.39287 0.52042 0.86086
 C1381 C 0.41136 0.52817 0.86862
 C1382 C 0.42350 0.54634 0.85633
 C1383 C 0.41589 0.55369 0.83515
 H1384 H 0.40131 0.54564 0.82751
 O1385 O 0.47921 0.61142 0.91607
 O1386 O 0.47899 0.63742 0.88943
 C1387 C 0.47149 0.62971 0.90804
 C1388 C 0.45340 0.64193 0.92034
 C1389 C 0.44667 0.66352 0.91341
 H1390 H 0.45498 0.67139 0.89908
 O1391 O 0.52248 0.38500 0.92074
 O1392 O 0.52229 0.35843 0.89486
 C1393 C 0.53031 0.36666 0.91290
 C1394 C 0.54936 0.35522 0.92459
 C1395 C 0.55738 0.33418 0.91719
 H1396 H 0.54895 0.32574 0.90339
 O1397 O 0.61480 0.41771 0.97768
 O1398 O 0.64145 0.39161 0.97783
 C1399 C 0.63326 0.40980 0.96991
 C1400 C 0.64480 0.42164 0.95106
 C1401 C 0.66579 0.41400 0.94262
 H1402 H 0.67401 0.39959 0.95032
 O1403 O 0.38895 0.58160 0.97675
 O1404 O 0.36251 0.60792 0.97634
 C1405 C 0.37055 0.58952 0.96890
 C1406 C 0.35873 0.57764 0.95046
 C1407 C 0.33828 0.58617 0.94192
 H1408 H 0.33055 0.60079 0.94969
 O1409 O 0.52329 0.58038 0.88524
 O1410 O 0.52323 0.60616 0.85839
 C1411 C 0.53096 0.58795 0.86667
 C1412 C 0.54941 0.57560 0.85500
 C1413 C 0.55773 0.58297 0.83400
 H1414 H 0.55029 0.59762 0.82598
 O1415 O 0.47779 0.41561 0.89014
 O1416 O 0.47755 0.38921 0.86408
 C1417 C 0.46998 0.40768 0.87188
 C1418 C 0.45170 0.41993 0.85986
 C1419 C 0.44415 0.41261 0.83867
 H1420 H 0.45221 0.39827 0.83070
 O1421 O 0.61216 0.52049 0.91753
 O1422 O 0.63860 0.52017 0.89108
 C1423 C 0.63055 0.52818 0.90928
 C1424 C 0.64231 0.54709 0.92057
 C1425 C 0.66321 0.55496 0.91226
 H1426 H 0.67128 0.54641 0.89826
 O1427 O 0.38777 0.47758 0.91911
 O1428 O 0.36136 0.47730 0.89288
 C1429 C 0.36930 0.46981 0.91130
 C1430 C 0.35732 0.45136 0.92332
 C1431 C 0.33681 0.44280 0.91494
 H1432 H 0.32912 0.45053 0.90029
 O1433 O 0.58220 0.61388 0.97485
 O1434 O 0.60875 0.64015 0.97411
 C1435 C 0.59022 0.63211 0.96675
 C1436 C 0.57814 0.64363 0.94817
 C1437 C 0.58521 0.66493 0.94038
 H1438 H 0.59909 0.67352 0.94867
 O1439 O 0.41766 0.38775 0.98000
 O1440 O 0.39095 0.36165 0.98083
 C1441 C 0.40952 0.36926 0.97290
 C1442 C 0.42143 0.35684 0.95479
 C1443 C 0.41288 0.33620 0.94703
 H1444 H 0.39813 0.32878 0.95516
 O1445 O 0.41927 0.47679 0.88862
 O1446 O 0.39296 0.47647 0.86229
 C1447 C 0.41132 0.46877 0.87049
 C1448 C 0.42323 0.44995 0.85914
 C1449 C 0.41598 0.44240 0.83799
 H1450 H 0.40185 0.45070 0.82979
 O1451 O 0.58186 0.52003 0.88610
 O1452 O 0.60825 0.51951 0.85961
 C1453 C 0.58987 0.52742 0.86756
 C1454 C 0.57812 0.54588 0.85549
 C1455 C 0.58619 0.55345 0.83450
 H1456 H 0.60039 0.54494 0.82657
 O1457 O 0.47798 0.38503 0.92138
 O1458 O 0.47764 0.35848 0.89548
 C1459 C 0.46998 0.36671 0.91373
 C1460 C 0.45105 0.35544 0.92584
 C1461 C 0.44220 0.33481 0.91825
 H1462 H 0.44973 0.32663 0.90375
 O1463 O 0.52338 0.61202 0.91523
 O1464 O 0.52319 0.63797 0.88854
 C1465 C 0.53093 0.63037 0.90699
 C1466 C 0.54914 0.64271 0.91888
 C1467 C 0.55635 0.66403 0.91136
 H1468 H 0.54828 0.67170 0.89687
 O1469 O 0.38681 0.41888 0.97924
 O1470 O 0.36003 0.39284 0.97986
 C1471 C 0.36830 0.41092 0.97170
 C1472 C 0.35673 0.42250 0.95281
 C1473 C 0.33615 0.41418 0.94417
 H1474 H 0.32826 0.39949 0.95176
 O1475 O 0.61231 0.58206 0.97501
 O1476 O 0.63902 0.60816 0.97405
 C1477 C 0.63077 0.58971 0.96688
 C1478 C 0.64243 0.57724 0.94859
 C1479 C 0.66334 0.58490 0.93994
 H1480 H 0.67121 0.59981 0.94694
 O1481 O 0.52194 0.41588 0.88989
 O1482 O 0.52176 0.38951 0.86379
 C1483 C 0.52943 0.40799 0.87145
 C1484 C 0.54746 0.42028 0.85903
 C1485 C 0.55406 0.41340 0.83740
 H1486 H 0.54571 0.39913 0.82964
 O1487 O 0.47904 0.58041 0.88550
 O1488 O 0.47884 0.60620 0.85867
 C1489 C 0.47121 0.58797 0.86707
 C1490 C 0.45268 0.57567 0.85562
 C1491 C 0.44485 0.58278 0.83446
 H1492 H 0.45307 0.59682 0.82600
 O1493 O 0.38820 0.52160 0.91821
 O1494 O 0.36174 0.52137 0.89203
 C1495 C 0.36983 0.52935 0.91014
 C1496 C 0.35825 0.54830 0.92166
 C1497 C 0.33777 0.55715 0.91328
 H1498 H 0.32997 0.54972 0.89857
 O1499 O 0.61313 0.47644 0.91762
 O1500 O 0.63945 0.47617 0.89107
 C1501 C 0.63161 0.46872 0.90960
 C1502 C 0.64383 0.45048 0.92158
 C1503 C 0.66478 0.44263 0.91341
 H1504 H 0.67253 0.45070 0.89889
 O1505 O 0.58377 0.38675 0.97837
 O1506 O 0.61020 0.36041 0.97864
 C1507 C 0.59166 0.36825 0.97098
 C1508 C 0.57936 0.35604 0.95299
 C1509 C 0.58705 0.33497 0.94540
 H1510 H 0.60189 0.32738 0.95304
 O1511 O 0.41992 0.61272 0.97632
 O1512 O 0.39355 0.63912 0.97599
 C1513 C 0.41205 0.63104 0.96841
 C1514 C 0.42431 0.64266 0.94985
 C1515 C 0.41773 0.66428 0.94260
 H1516 H 0.40401 0.67295 0.95117
 Cu1517 Cu 0.59443 0.49824 0.90486
 Cu1518 Cu 0.62611 0.49780 0.87306
 Cu1519 Cu 0.40626 0.49927 0.90590
 Cu1520 Cu 0.37457 0.49885 0.87439
 Cu1521 Cu 0.59476 0.59563 0.99697
 Cu1522 Cu 0.62676 0.62701 0.99599
 Cu1523 Cu 0.59675 0.40517 0.99993
 Cu1524 Cu 0.62857 0.37367 1.00029
 Cu1525 Cu 0.40703 0.59476 0.99855
 Cu1526 Cu 0.37518 0.62626 0.99808
 Cu1527 Cu 0.40491 0.40651 1.00148
 Cu1528 Cu 0.37278 0.37521 1.00240
 Cu1529 Cu 0.50127 0.59345 0.90316
 Cu1530 Cu 0.50102 0.62453 0.87104
 Cu1531 Cu 0.50005 0.40295 0.90820
 Cu1532 Cu 0.49981 0.37118 0.87700
 C1533 C 0.55867 0.43855 0.86906
 H1534 H 0.55381 0.44378 0.88587
 C1535 C 0.57175 0.42445 0.82586
 C1536 C 0.44205 0.55729 0.86631
 H1537 H 0.44780 0.55193 0.88278
 C1538 C 0.42644 0.57191 0.82410
 C1539 C 0.44230 0.63174 0.93873
 H1540 H 0.44728 0.61497 0.94401
 C1541 C 0.42895 0.67489 0.92448
 C1542 C 0.56036 0.36590 0.94262
 H1543 H 0.55450 0.38226 0.94821
 C1544 C 0.57619 0.32389 0.92753
 C1545 C 0.63409 0.44003 0.94053
 H1546 H 0.61775 0.44581 0.94669
 C1547 C 0.67584 0.42437 0.92372
 C1548 C 0.36847 0.55857 0.94037
 H1549 H 0.38444 0.55212 0.94669
 C1550 C 0.32777 0.57621 0.92325
 C1551 C 0.55959 0.55692 0.86548
 H1552 H 0.55352 0.55134 0.88182
 C1553 C 0.57619 0.57202 0.82366
 C1554 C 0.44125 0.43874 0.86985
 H1555 H 0.44676 0.44433 0.88629
 C1556 C 0.42635 0.42381 0.82758
 C1557 C 0.63214 0.55820 0.93889
 H1558 H 0.61584 0.55241 0.94520
 C1559 C 0.67378 0.57390 0.92172
 C1560 C 0.36705 0.44123 0.94237
 H1561 H 0.38308 0.44753 0.94869
 C1562 C 0.32618 0.42416 0.92513
 C1563 C 0.55997 0.63279 0.93743
 H1564 H 0.55465 0.61623 0.94314
 C1565 C 0.57433 0.67532 0.92203
 C1566 C 0.44066 0.36618 0.94426
 H1567 H 0.44712 0.38228 0.94996
 C1568 C 0.42303 0.32513 0.92871
 C1569 C 1.16427 1.14117 1.30476
 C1570 C 1.15701 1.12991 1.28546
 C1571 C 1.13390 1.12557 1.28211
 C1572 C 1.11800 1.13278 1.29830
 C1573 C 1.12526 1.14410 1.31761
 C1574 C 1.14847 1.14832 1.32106
 N1575 N 1.12708 1.11407 1.26205
 N1576 N 1.10643 1.10912 1.25816
 C1577 C 1.09953 1.09803 1.23791
 C1578 C 1.07639 1.09402 1.23445
 C1579 C 1.06890 1.08441 1.21436
 C1580 C 1.08450 1.07860 1.19734
 C1581 C 1.10782 1.08201 1.20112
 C1582 C 1.11529 1.09171 1.22122
 H1583 H 1.18224 1.14440 1.30698
 H1584 H 1.16941 1.12454 1.27307
 H1585 H 1.10002 1.12967 1.29606
 H1586 H 1.11282 1.14935 1.33002
 H1587 H 1.06409 1.09872 1.24721
 H1588 H 1.05085 1.08172 1.21202
 H1589 H 1.12020 1.07790 1.18822
 H1590 H 1.13330 1.09462 1.22353
 C1591 C 1.15795 0.63588 0.80950
 C1592 C 1.15008 0.62697 0.78926
 C1593 C 1.12679 0.62402 0.78570
 C1594 C 1.11129 0.63047 0.80260
 C1595 C 1.11917 0.63946 0.82289
 C1596 C 1.14259 0.64204 0.82659
 N1597 N 1.11949 0.61426 0.76493
 N1598 N 1.09869 0.61036 0.76062
 C1599 C 1.09174 0.60052 0.73974
 C1600 C 1.06857 0.59714 0.73579
 C1601 C 1.06122 0.58796 0.71542
 C1602 C 1.07701 0.58194 0.69863
 C1603 C 1.10030 0.58507 0.70277
 C1604 C 1.10762 0.59430 0.72312
 H1605 H 1.17606 0.63790 0.81191
 H1606 H 1.16217 0.62215 0.77634
 H1607 H 1.09318 0.62838 0.80020
 H1608 H 1.10706 0.64401 0.83588
 H1609 H 1.05617 0.60177 0.74849
 H1610 H 1.04319 0.58551 0.71282
 H1611 H 1.11284 0.58087 0.69006
 H1612 H 1.12565 0.59673 0.72576
 C1613 C 0.66117 1.13560 0.80654
 C1614 C 0.65323 1.12617 0.78654
 C1615 C 0.62988 1.12438 0.78256
 C1616 C 0.61443 1.13218 0.79890
 C1617 C 0.62237 1.14163 0.81893
 C1618 C 0.64582 1.14341 0.82294
 N1619 N 0.62242 1.11471 0.76179
 N1620 N 0.60149 1.11237 0.75701
 C1621 C 0.59424 1.10283 0.73610
 C1622 C 0.57096 1.10091 0.73179
 C1623 C 0.56335 1.09205 0.71137
 C1624 C 0.57898 1.08492 0.69488
 C1625 C 0.60236 1.08672 0.69933
 C1626 C 0.60994 1.09559 0.71974
 H1627 H 0.67932 1.13698 0.80918
 H1628 H 0.66529 1.12029 0.77406
 H1629 H 0.59629 1.13097 0.79620
 H1630 H 0.61026 1.14744 0.83141
 H1631 H 0.55869 1.10637 0.74427
 H1632 H 0.54524 1.09065 0.70853
 H1633 H 0.61481 1.08167 0.68685
 H1634 H 0.62804 1.09694 0.72264
 C1635 C 0.61201 0.63953 1.32692
 C1636 C 0.60199 0.63109 1.30739
 C1637 C 0.61553 0.62340 1.28957
 C1638 C 0.63933 0.62392 1.29164
 C1639 C 0.64934 0.63229 1.31117
 C1640 C 0.63579 0.64032 1.32893
 N1641 N 0.60480 0.61551 1.26947
 N1642 N 0.61636 0.60937 1.25241
 C1643 C 0.60609 0.60153 1.23209
 C1644 C 0.62019 0.59529 1.21417
 C1645 C 0.61089 0.58745 1.19409
 C1646 C 0.58720 0.58567 1.19159
 C1647 C 0.57301 0.59216 1.20955
 C1648 C 0.58237 0.60001 1.22968
 H1649 H 0.60128 0.64559 1.34046
 H1650 H 0.58365 0.63075 1.30602
 H1651 H 0.65018 0.61806 1.27811
 H1652 H 0.66770 0.63295 1.31229
 H1653 H 0.63847 0.59652 1.21580
 H1654 H 0.62225 0.58297 1.18043
 H1655 H 0.55471 0.59080 1.20816
 H1656 H 0.57113 0.60477 1.24334
 C1657 C 0.86759 0.88631 1.33279
 C1658 C 0.87608 0.89630 1.31309
 C1659 C 0.88087 0.88312 1.29413
 C1660 C 0.87715 0.85971 1.29513
 C1661 C 0.86864 0.84976 1.31476
 C1662 C 0.86366 0.86296 1.33374
 N1663 N 0.88931 0.89378 1.27406
 N1664 N 0.89429 0.88240 1.25658
 C1665 C 0.90260 0.89250 1.23621
 C1666 C 0.90831 0.87847 1.21819
 C1667 C 0.91647 0.88759 1.19801
 C1668 C 0.91902 0.91104 1.19548
 C1669 C 0.91314 0.92516 1.21358
 C1670 C 0.90505 0.91597 1.23383
 H1671 H 0.86408 0.89675 1.34732
 H1672 H 0.87892 0.91433 1.31257
 H1673 H 0.88069 0.84913 1.28072
 H1674 H 0.86566 0.83174 1.31509
 H1675 H 0.90639 0.86038 1.21980
 H1676 H 0.92050 0.87631 1.18427
 H1677 H 0.91510 0.94326 1.21215
 H1678 H 0.90072 0.92716 1.24755
 C1679 C 0.87186 0.34376 0.81834
 C1680 C 0.88014 0.35052 0.79732
 C1681 C 0.88250 0.37341 0.79214
 C1682 C 0.87634 0.38963 0.80828
 C1683 C 0.86802 0.38287 0.82935
 C1684 C 0.86580 0.35987 0.83460
 N1685 N 0.89107 0.37962 0.77039
 N1686 N 0.89394 0.40005 0.76447
 C1687 C 0.90237 0.40600 0.74258
 C1688 C 0.90460 0.42879 0.73691
 C1689 C 0.91216 0.43515 0.71548
 C1690 C 0.91767 0.41874 0.69931
 C1691 C 0.91574 0.39583 0.70516
 C1692 C 0.90813 0.38949 0.72659
 H1693 H 0.87007 0.32594 0.82190
 H1694 H 0.88474 0.33788 0.78499
 H1695 H 0.87798 0.40745 0.80463
 H1696 H 0.86351 0.39554 0.84168
 H1697 H 0.90030 0.44166 0.74911
 H1698 H 0.91376 0.45293 0.71155
 H1699 H 0.91963 0.38282 0.69299
 H1700 H 0.90654 0.37174 0.73057
 C1701 C 0.36723 0.88574 0.83134
 C1702 C 0.37510 0.89602 0.81157
 C1703 C 0.38004 0.88305 0.79254
 C1704 C 0.37758 0.85948 0.79368
 C1705 C 0.36975 0.84918 0.81346
 C1706 C 0.36420 0.86224 0.83239
 N1707 N 0.38701 0.89420 0.77219
 N1708 N 0.39087 0.88333 0.75414
 C1709 C 0.39772 0.89411 0.73359
 C1710 C 0.40274 0.88063 0.71496
 C1711 C 0.41006 0.89038 0.69478
 C1712 C 0.41243 0.91390 0.69282
 C1713 C 0.40684 0.92751 0.71137
 C1714 C 0.39961 0.91769 0.73167
 H1715 H 0.36316 0.89613 0.84575
 H1716 H 0.37700 0.91417 0.81095
 H1717 H 0.38134 0.84906 0.77921
 H1718 H 0.36736 0.83108 0.81377
 H1719 H 0.40118 0.86248 0.71619
 H1720 H 0.41391 0.87950 0.68066
 H1721 H 0.40863 0.94565 0.71033
 H1722 H 0.39572 0.92846 0.74584
 C1723 C 0.36176 0.38254 1.32805
 C1724 C 0.37119 0.39319 1.30918
 C1725 C 0.37754 0.38060 1.29030
 C1726 C 0.37500 0.35701 1.29077
 C1727 C 0.36561 0.34633 1.30969
 C1728 C 0.35857 0.35906 1.32835
 N1729 N 0.38580 0.39220 1.27070
 N1730 N 0.39084 0.38180 1.25266
 C1731 C 0.39878 0.39318 1.23282
 C1732 C 0.40486 0.38027 1.21411
 C1733 C 0.41294 0.39064 1.19452
 C1734 C 0.41504 0.41424 1.19328
 C1735 C 0.40851 0.42726 1.21194
 C1736 C 0.40051 0.41681 1.23163
 H1737 H 0.35650 0.39265 1.34230
 H1738 H 0.37312 0.41135 1.30907
 H1739 H 0.37983 0.34689 1.27640
 H1740 H 0.36311 0.32825 1.30948
 H1741 H 0.40344 0.36207 1.21476
 H1742 H 0.41750 0.38020 1.18028
 H1743 H 0.41006 0.44545 1.21146
 H1744 H 0.39579 0.42716 1.24588
 C1745 C 0.86206 1.11727 0.67343
 C1746 C 0.87182 1.10738 0.69245
 C1747 C 0.87862 1.12072 0.71060
 C1748 C 0.87612 1.14427 0.70926
 C1749 C 0.86640 1.15419 0.69021
 C1750 C 0.85899 1.14074 0.67225
 N1751 N 0.88730 1.10990 0.73037
 N1752 N 0.89290 1.12100 0.74779
 C1753 C 0.90116 1.11030 0.76780
 C1754 C 0.90741 1.12379 0.78601
 C1755 C 0.91544 1.11401 0.80585
 C1756 C 0.91735 1.09045 0.80784
 C1757 C 0.91087 1.07689 0.78959
 C1758 C 0.90289 1.08672 0.76968
 H1759 H 0.85655 1.10661 0.65973
 H1760 H 0.87370 1.08924 0.69324
 H1761 H 0.88127 1.15495 0.72308
 H1762 H 0.86401 1.17228 0.68974
 H1763 H 0.90600 1.14196 0.78481
 H1764 H 0.91995 1.12489 0.81975
 H1765 H 0.91232 1.05871 0.79059
 H1766 H 0.89810 1.07593 0.75582
 C1767 C 0.88535 0.64285 0.17360
 C1768 C 0.89545 0.63478 0.19329
 C1769 C 0.88204 0.62613 0.21082
 C1770 C 0.85828 0.62547 0.20836
 C1771 C 0.84818 0.63345 0.18863
 C1772 C 0.86162 0.64222 0.17105
 N1773 N 0.89289 0.61821 0.23089
 N1774 N 0.88150 0.61110 0.24774
 C1775 C 0.89203 0.60300 0.26790
 C1776 C 0.87815 0.59587 0.28570
 C1777 C 0.88770 0.58750 0.30550
 C1778 C 0.91144 0.58602 0.30783
 C1779 C 0.92540 0.59345 0.29000
 C1780 C 0.91578 0.60186 0.27016
 H1781 H 0.89604 0.64953 0.16026
 H1782 H 0.91376 0.63537 0.19497
 H1783 H 0.84753 0.61888 0.22168
 H1784 H 0.82985 0.63310 0.18719
 H1785 H 0.85983 0.59678 0.28420
 H1786 H 0.87650 0.58231 0.31908
 H1787 H 0.94372 0.59236 0.29123
 H1788 H 0.92687 0.60728 0.25658
 C1789 C 0.36670 1.11191 0.16756
 C1790 C 0.37429 1.10154 0.18732
 C1791 C 0.38044 1.11454 0.20595
 C1792 C 0.37914 1.13818 0.20452
 C1793 C 0.37159 1.14855 0.18478
 C1794 C 0.36520 1.13552 0.16614
 N1795 N 0.38778 1.10347 0.22613
 N1796 N 0.39299 1.11457 0.24367
 C1797 C 0.40041 1.10406 0.26408
 C1798 C 0.40616 1.11780 0.28225
 C1799 C 0.41389 1.10833 0.30234
 C1800 C 0.41603 1.08482 0.30461
 C1801 C 0.40989 1.07097 0.28645
 C1802 C 0.40218 1.08052 0.26628
 H1803 H 0.36192 1.10156 0.15336
 H1804 H 0.37525 1.08332 0.18818
 H1805 H 0.38380 1.14864 0.21867
 H1806 H 0.37035 1.16675 0.18417
 H1807 H 0.40474 1.13595 0.28079
 H1808 H 0.41812 1.11941 0.31616
 H1809 H 0.41149 1.05283 0.28770
 H1810 H 0.39779 1.06955 0.25242
 C1811 C 0.36315 0.66235 0.69215
 C1812 C 0.37377 0.65447 0.71164
 C1813 C 0.37682 0.63134 0.71514
 C1814 C 0.36935 0.61605 0.69871
 C1815 C 0.35874 0.62391 0.67920
 C1816 C 0.35542 0.64713 0.67579
 N1817 N 0.38705 0.62385 0.73568
 N1818 N 0.38995 0.60306 0.74018
 C1819 C 0.39977 0.59568 0.76096
 C1820 C 0.40214 0.57255 0.76499
 C1821 C 0.41100 0.56477 0.78540
 C1822 C 0.41769 0.58010 0.80214
 C1823 C 0.41550 0.60334 0.79793
 C1824 C 0.40662 0.61108 0.77754
 H1825 H 0.36059 0.68030 0.69001
 H1826 H 0.37941 0.66641 0.72420
 H1827 H 0.37154 0.59807 0.70102
 H1828 H 0.35304 0.61190 0.66675
 H1829 H 0.39695 0.56051 0.75233
 H1830 H 0.41271 0.54679 0.78805
 H1831 H 0.42020 0.61555 0.81061
 H1832 H 0.40489 0.62905 0.77486
 C1833 C 1.11192 0.86393 0.66857
 C1834 C 1.10230 0.87334 0.68794
 C1835 C 1.11609 0.88010 0.70583
 C1836 C 1.13979 0.87753 0.70404
 C1837 C 1.14942 0.86812 0.68468
 C1838 C 1.13558 0.86110 0.66678
 N1839 N 1.10565 0.88911 0.72571
 N1840 N 1.11729 0.89538 0.74259
 C1841 C 1.10707 0.90413 0.76268
 C1842 C 1.12116 0.91075 0.78037
 C1843 C 1.11185 0.91909 0.80036
 C1844 C 1.08815 0.92096 0.80301
 C1845 C 1.07400 0.91429 0.78520
 C1846 C 1.08336 0.90597 0.76518
 H1847 H 1.10091 0.85878 0.65496
 H1848 H 1.08403 0.87524 0.68910
 H1849 H 1.15083 0.88258 0.71765
 H1850 H 1.16767 0.86592 0.68383
 H1851 H 1.13943 0.90931 0.77870
 H1852 H 1.12319 0.92373 0.81388
 H1853 H 1.05571 0.91571 0.78668
 H1854 H 1.07211 0.90096 0.75172
 C1855 C 1.13322 0.34088 0.19219
 C1856 C 1.12379 0.34900 0.21219
 C1857 C 1.12220 0.37220 0.21598
 C1858 C 1.13004 0.38735 0.19942
 C1859 C 1.13947 0.37923 0.17938
 C1860 C 1.14120 0.35593 0.17562
 N1861 N 1.11285 0.37985 0.23687
 N1862 N 1.11087 0.40066 0.24161
 C1863 C 1.10172 0.40797 0.26273
 C1864 C 1.09987 0.43108 0.26699
 C1865 C 1.09132 0.43870 0.28761
 C1866 C 1.08445 0.42323 0.30430
 C1867 C 1.08628 0.40002 0.29992
 C1868 C 1.09482 0.39245 0.27934
 H1869 H 1.13458 0.32286 0.18973
 H1870 H 1.11786 0.33719 0.22486
 H1871 H 1.12896 0.40538 0.20198
 H1872 H 1.14543 0.39109 0.16677
 H1873 H 1.10511 0.44320 0.25431
 H1874 H 1.08988 0.45667 0.29043
 H1875 H 1.08147 0.38771 0.31258
 H1876 H 1.09618 0.37448 0.27649
 C1877 C 0.64439 0.88596 0.17152
 C1878 C 0.63710 0.89668 0.19119
 C1879 C 0.62424 0.88494 0.20723
 C1880 C 0.61894 0.86217 0.20355
 C1881 C 0.62680 0.85122 0.18421
 C1882 C 0.63963 0.86297 0.16787
 N1883 N 0.61733 0.89618 0.22743
 N1884 N 0.59991 0.88983 0.23853
 C1885 C 0.59344 0.90011 0.25936
 C1886 C 0.57085 0.89852 0.26652
 C1887 C 0.56416 0.90750 0.28721
 C1888 C 0.58017 0.91759 0.30163
 C1889 C 0.60290 0.91928 0.29422
 C1890 C 0.60942 0.91083 0.27318
 H1891 H 0.65393 0.89565 0.15922
 H1892 H 0.64129 0.91425 0.19384
 H1893 H 0.60927 0.85270 0.21592
 H1894 H 0.62314 0.83346 0.18225
 H1895 H 0.55836 0.89038 0.25595
 H1896 H 0.54640 0.90642 0.29189
 H1897 H 0.61584 0.92652 0.30489
 H1898 H 0.62706 0.91198 0.26804
 C1899 C 0.65536 0.36561 0.68759
 C1900 C 0.64839 0.37515 0.70791
 C1901 C 0.62526 0.37771 0.71276
 C1902 C 0.60903 0.37056 0.69699
 C1903 C 0.61601 0.36098 0.67663
 C1904 C 0.63925 0.35845 0.67175
 N1905 N 0.61881 0.38737 0.73388
 N1906 N 0.59815 0.39043 0.73945
 C1907 C 0.59196 0.39980 0.76080
 C1908 C 0.56893 0.40227 0.76614
 C1909 C 0.56233 0.41060 0.78714
 C1910 C 0.57875 0.41665 0.80317
 C1911 C 0.60189 0.41452 0.79762
 C1912 C 0.60846 0.40614 0.77662
 H1913 H 0.67336 0.36363 0.68426
 H1914 H 0.66102 0.38052 0.71997
 H1915 H 0.59104 0.37236 0.70041
 H1916 H 0.60336 0.35565 0.66458
 H1917 H 0.55607 0.39751 0.75405
 H1918 H 0.54439 0.41234 0.79086
 H1919 H 0.61491 0.41879 0.80972
 H1920 H 0.62640 0.40438 0.77289
 C1921 C 1.33446 1.13680 1.11196
 C1922 C 1.31465 1.12877 1.10181
 C1923 C 1.29632 1.12138 1.11502
 C1924 C 1.29805 1.12205 1.13862
 C1925 C 1.31783 1.13006 1.14876
 C1926 C 1.33623 1.13754 1.13554
 N1927 N 1.27614 1.11340 1.10420
 N1928 N 1.25898 1.10669 1.11551
 C1929 C 1.23860 1.09863 1.10520
 C1930 C 1.22075 1.09144 1.11908
 C1931 C 1.20063 1.08330 1.10976
 C1932 C 1.19800 1.08219 1.08626
 C1933 C 1.21590 1.08960 1.07231
 C1934 C 1.23609 1.09773 1.08169
 H1935 H 1.34847 1.14241 1.10145
 H1936 H 1.31354 1.12832 1.08362
 H1937 H 1.28412 1.11648 1.14923
 H1938 H 1.31869 1.13070 1.16695
 H1939 H 1.22246 1.09216 1.13722
 H1940 H 1.18701 1.07810 1.12095
 H1941 H 1.21441 1.08879 1.05416
 H1942 H 1.24969 1.10320 1.07062
 C1943 C 1.30696 0.63643 0.66405
 C1944 C 1.28707 0.62595 0.65669
 C1945 C 1.28325 0.62274 0.63369
 C1946 C 1.29972 0.62996 0.61802
 C1947 C 1.31963 0.64042 0.62537
 C1948 C 1.32340 0.64384 0.64845
 N1949 N 1.26237 0.61257 0.62671
 N1950 N 1.25766 0.60943 0.60607
 C1951 C 1.23656 0.59970 0.59909
 C1952 C 1.23233 0.59729 0.57607
 C1953 C 1.21158 0.58865 0.56866
 C1954 C 1.19468 0.58223 0.58423
 C1955 C 1.19911 0.58435 0.60738
 C1956 C 1.21987 0.59303 0.61476
 H1957 H 1.30939 0.63907 0.68191
 H1958 H 1.27448 0.62053 0.66891
 H1959 H 1.29716 0.62765 0.60013
 H1960 H 1.33214 0.64589 0.61308
 H1961 H 1.24509 0.60232 0.56385
 H1962 H 1.20875 0.58695 0.55074
 H1963 H 1.18632 0.57981 0.61976
 H1964 H 1.22272 0.59478 0.63266
 C1965 C 0.80999 1.13252 0.66116
 C1966 C 0.78989 1.12261 0.65363
 C1967 C 0.78586 1.12018 0.63057
 C1968 C 0.80226 1.12774 0.61499
 C1969 C 0.82238 1.13769 0.62251
 C1970 C 0.82640 1.14019 0.64566
 N1971 N 0.76486 1.11034 0.62350
 N1972 N 0.76015 1.10732 0.60284
 C1973 C 0.73891 1.09785 0.59591
 C1974 C 0.73478 1.09503 0.57292
 C1975 C 0.71394 1.08655 0.56556
 C1976 C 0.69684 1.08075 0.58117
 C1977 C 0.70116 1.08333 0.60428
 C1978 C 0.72201 1.09181 0.61160
 H1979 H 0.81267 1.13445 0.67907
 H1980 H 0.77734 1.11692 0.66578
 H1981 H 0.79951 1.12606 0.59706
 H1982 H 0.83488 1.14340 0.61033
 H1983 H 0.74770 1.09958 0.56067
 H1984 H 0.71121 1.08449 0.54767
 H1985 H 0.68822 1.07929 0.61668
 H1986 H 0.72478 1.09389 0.62948
 C1987 C 0.83051 0.61655 1.13987
 C1988 C 0.81141 0.60600 1.13069
 C1989 C 0.79337 0.61885 1.12230
 C1990 C 0.79480 0.64250 1.12290
 C1991 C 0.81388 0.65305 1.13201
 C1992 C 0.83186 0.64020 1.14080
 N1993 N 0.77373 0.60761 1.11355
 N1994 N 0.75659 0.61857 1.10647
 C1995 C 0.73666 0.60787 1.09778
 C1996 C 0.71865 0.62143 1.09063
 C1997 C 0.69886 0.61173 1.08210
 C1998 C 0.69673 0.58817 1.08050
 C1999 C 0.71482 0.57453 1.08782
 C2000 C 0.73466 0.58430 1.09637
 H2001 H 0.84424 0.60627 1.14630
 H2002 H 0.81057 0.58777 1.13027
 H2003 H 0.78111 0.65285 1.11650
 H2004 H 0.81438 0.67128 1.13260
 H2005 H 0.71993 0.63961 1.09175
 H2006 H 0.68509 0.62270 1.07701
 H2007 H 0.71374 0.55635 1.08665
 H2008 H 0.74839 0.57347 1.10181
 C2009 C 1.33309 0.86322 0.88637
 C2010 C 1.31367 0.87207 0.89670
 C2011 C 1.29566 0.88010 0.88364
 C2012 C 1.29745 0.87962 0.86002
 C2013 C 1.31685 0.87083 0.84970
 C2014 C 1.33476 0.86238 0.86278
 N2015 N 1.27557 0.88816 0.89464
 N2016 N 1.25838 0.89468 0.88346
 C2017 C 1.23797 0.90254 0.89396
 C2018 C 1.22001 0.90939 0.88024
 C2019 C 1.19978 0.91713 0.88976
 C2020 C 1.19718 0.91818 0.91328
 C2021 C 1.21519 0.91112 0.92708
 C2022 C 1.23548 0.90337 0.91749
 H2023 H 1.34675 0.85681 0.89673
 H2024 H 1.31250 0.87237 0.91490
 H2025 H 1.28376 0.88574 0.84954
 H2026 H 1.31769 0.87011 0.83150
 H2027 H 1.22171 0.90867 0.86209
 H2028 H 1.18606 0.92209 0.87871
 H2029 H 1.21369 0.91190 0.94524
 H2030 H 1.24917 0.89812 0.92843
 C2031 C 1.30960 0.36672 0.33977
 C2032 C 1.28970 0.37690 0.34759
 C2033 C 1.28577 0.37926 0.37069
 C2034 C 1.30199 0.37117 0.38606
 C2035 C 1.32191 0.36093 0.37824
 C2036 C 1.32590 0.35868 0.35503
 N2037 N 1.26514 0.38974 0.37802
 N2038 N 1.26058 0.39297 0.39872
 C2039 C 1.23972 0.40319 0.40584
 C2040 C 1.23554 0.40588 0.42887
 C2041 C 1.21498 0.41500 0.43638
 C2042 C 1.19822 0.42161 0.42090
 C2043 C 1.20264 0.41927 0.39774
 C2044 C 1.22319 0.41012 0.39026
 H2045 H 1.31227 0.36500 0.32181
 H2046 H 1.27729 0.38298 0.33561
 H2047 H 1.29929 0.37277 0.40402
 H2048 H 1.33433 0.35493 0.39024
 H2049 H 1.24817 0.40068 0.44103
 H2050 H 1.21216 0.41684 0.45431
 H2051 H 1.18995 0.42393 0.38543
 H2052 H 1.22601 0.40819 0.37234
 C2053 C 0.83154 0.85803 0.38858
 C2054 C 0.81188 0.86571 0.39937
 C2055 C 0.79568 0.87809 0.38747
 C2056 C 0.79922 0.88261 0.36449
 C2057 C 0.81853 0.87435 0.35350
 C2058 C 0.83497 0.86190 0.36538
 N2059 N 0.77536 0.88515 0.39872
 N2060 N 0.76410 0.90216 0.39198
 C2061 C 0.74305 0.90859 0.40225
 C2062 C 0.73574 0.93089 0.40024
 C2063 C 0.71477 0.93746 0.40913
 C2064 C 0.70025 0.92159 0.41954
 C2065 C 0.70783 0.89916 0.42166
 C2066 C 0.72914 0.89278 0.41330
 H2067 H 0.84396 0.84880 0.39833
 H2068 H 0.80933 0.86212 0.41710
 H2069 H 0.78671 0.89191 0.35492
 H2070 H 0.82036 0.87735 0.33560
 H2071 H 0.74638 0.94324 0.39182
 H2072 H 0.70995 0.95501 0.40772
 H2073 H 0.69708 0.88633 0.42915
 H2074 H 0.73440 0.87535 0.41476
 C2075 C 0.83612 0.36634 0.88966
 C2076 C 0.81625 0.37490 0.89938
 C2077 C 0.79755 0.38029 0.88594
 C2078 C 0.79909 0.37744 0.86248
 C2079 C 0.81895 0.36890 0.85275
 C2080 C 0.83760 0.36306 0.86626
 N2081 N 0.77710 0.38815 0.89649
 N2082 N 0.75943 0.39283 0.88512
 C2083 C 0.73873 0.40045 0.89533
 C2084 C 0.72044 0.40590 0.88142
 C2085 C 0.69999 0.41350 0.89066
 C2086 C 0.69746 0.41575 0.91410
 C2087 C 0.71578 0.40999 0.92812
 C2088 C 0.73630 0.40245 0.91881
 H2089 H 0.85031 0.36205 0.90039
 H2090 H 0.81531 0.37707 0.91746
 H2091 H 0.78486 0.38148 0.85171
 H2092 H 0.81956 0.36630 0.83472
 H2093 H 0.72206 0.40428 0.86332
 H2094 H 0.68607 0.41746 0.87946
 H2095 H 0.71435 0.41170 0.94622
 H2096 H 0.75022 0.39827 0.92992
 C2097 C 0.67021 0.86198 1.11396
 C2098 C 0.69035 0.86916 1.10362
 C2099 C 0.70971 0.87349 1.11652
 C2100 C 0.70876 0.87037 1.14000
 C2101 C 0.68864 0.86316 1.15034
 C2102 C 0.66914 0.85908 1.13743
 N2103 N 0.72998 0.88124 1.10549
 N2104 N 0.74791 0.88587 1.11646
 C2105 C 0.76825 0.89392 1.10582
 C2106 C 0.78680 0.89946 1.11934
 C2107 C 0.80671 0.90803 1.10972
 C2108 C 0.80843 0.91117 1.08629
 C2109 C 0.78991 0.90521 1.07266
 C2110 C 0.76992 0.89670 1.08235
 H2111 H 0.65536 0.85883 1.10374
 H2112 H 0.69087 0.87148 1.08553
 H2113 H 0.72351 0.87352 1.15035
 H2114 H 0.68823 0.86068 1.16841
 H2115 H 0.78575 0.89729 1.13743
 H2116 H 0.82083 0.91212 1.12061
 H2117 H 0.79074 0.90758 1.05459
 H2118 H 0.75577 0.89250 1.07155
 C2119 C 0.66651 0.38225 0.63593
 C2120 C 0.68574 0.39229 0.62633
 C2121 C 0.70419 0.37906 0.61954
 C2122 C 0.70294 0.35548 0.62184
 C2123 C 0.68369 0.34542 0.63140
 C2124 C 0.66544 0.35875 0.63882
 N2125 N 0.72425 0.38997 0.61118
 N2126 N 0.74193 0.37888 0.60576
 C2127 C 0.76228 0.38957 0.59787
 C2128 C 0.78074 0.37605 0.59181
 C2129 C 0.80096 0.38581 0.58419
 C2130 C 0.80305 0.40938 0.58253
 C2131 C 0.78455 0.42298 0.58881
 C2132 C 0.76427 0.41315 0.59638
 H2133 H 0.65259 0.39279 0.64151
 H2134 H 0.68649 0.41046 0.62461
 H2135 H 0.71699 0.34488 0.61670
 H2136 H 0.68331 0.32731 0.63369
 H2137 H 0.77945 0.35787 0.59304
 H2138 H 0.81505 0.37492 0.57981
 H2139 H 0.78566 0.44116 0.58753
 H2140 H 0.75021 0.42396 0.60105
 C2141 C 0.18382 0.84238 0.63220
 C2142 C 0.20452 0.84956 0.62311
 C2143 C 0.20886 0.87253 0.61990
 C2144 C 0.19224 0.88840 0.62611
 C2145 C 0.17150 0.88122 0.63526
 C2146 C 0.16706 0.85813 0.63827
 N2147 N 0.23023 0.87918 0.61034
 N2148 N 0.23530 0.89970 0.60654
 C2149 C 0.25680 0.90613 0.59708
 C2150 C 0.26156 0.92903 0.59393
 C2151 C 0.28262 0.93589 0.58535
 C2152 C 0.29931 0.91989 0.57972
 C2153 C 0.29435 0.89686 0.58255
 C2154 C 0.27330 0.89002 0.59119
 H2155 H 0.18085 0.82451 0.63456
 H2156 H 0.21722 0.83719 0.61847
 H2157 H 0.19524 0.90627 0.62381
 H2158 H 0.15876 0.89361 0.63972
 H2159 H 0.24896 0.94159 0.59831
 H2160 H 0.28586 0.95374 0.58310
 H2161 H 0.30696 0.88417 0.57860
 H2162 H 0.27003 0.87220 0.59347
 C2163 C 0.18965 0.36301 1.16247
 C2164 C 0.20985 0.37287 1.15489
 C2165 C 0.21338 0.37691 1.13192
 C2166 C 0.19646 0.37070 1.11646
 C2167 C 0.17621 0.36079 1.12405
 C2168 C 0.17255 0.35700 1.14715
 N2169 N 0.23424 0.38727 1.12486
 N2170 N 0.23858 0.39177 1.10432
 C2171 C 0.25958 0.40197 1.09743
 C2172 C 0.26369 0.40543 1.07446
 C2173 C 0.28436 0.41451 1.06709
 C2174 C 0.30131 0.42038 1.08265
 C2175 C 0.29695 0.41737 1.10576
 C2176 C 0.27629 0.40820 1.11310
 H2177 H 0.18735 0.36004 1.18033
 H2178 H 0.22279 0.37747 1.16694
 H2179 H 0.19882 0.37360 1.09860
 H2180 H 0.16324 0.35638 1.11196
 H2181 H 0.25093 0.40081 1.06223
 H2182 H 0.28714 0.41688 1.04920
 H2183 H 0.30977 0.42151 1.11810
 H2184 H 0.27351 0.40572 1.13097
 C2185 C 0.67358 1.11893 0.85756
 C2186 C 0.69237 1.10848 0.86741
 C2187 C 0.71072 1.12133 0.87502
 C2188 C 0.70988 1.14496 0.87307
 C2189 C 0.69108 1.15544 0.86323
 C2190 C 0.67284 1.14251 0.85518
 N2191 N 0.73014 1.11000 0.88414
 N2192 N 0.74754 1.12070 0.89096
 C2193 C 0.76719 1.10954 0.89978
 C2194 C 0.78534 1.12264 0.90741
 C2195 C 0.80485 1.11242 0.91600
 C2196 C 0.80659 1.08879 0.91710
 C2197 C 0.78839 1.07562 0.90927
 C2198 C 0.76881 1.08589 0.90072
 H2199 H 0.65967 1.10864 0.85157
 H2200 H 0.69277 1.09028 0.86885
 H2201 H 0.72386 1.15529 0.87883
 H2202 H 0.69098 1.17361 0.86139
 H2203 H 0.78436 1.14086 0.90663
 H2204 H 0.81872 1.12303 0.92154
 H2205 H 0.78920 1.05739 0.91005
 H2206 H 0.75500 1.07539 0.89488
 C2207 C 0.66619 0.61563 0.36115
 C2208 C 0.68546 0.60496 0.36982
 C2209 C 0.70442 0.61763 0.37622
 C2210 C 0.70376 0.64126 0.37417
 C2211 C 0.68449 0.65193 0.36553
 C2212 C 0.66557 0.63921 0.35877
 N2213 N 0.72418 0.60616 0.38442
 N2214 N 0.74204 0.61682 0.39006
 C2215 C 0.76202 0.60575 0.39821
 C2216 C 0.78053 0.61897 0.40470
 C2217 C 0.80022 0.60892 0.41304
 C2218 C 0.80178 0.58534 0.41503
 C2219 C 0.78331 0.57201 0.40816
 C2220 C 0.76352 0.58213 0.39986
 H2221 H 0.65177 0.60548 0.35615
 H2222 H 0.68572 0.58677 0.37135
 H2223 H 0.71820 0.65145 0.37900
 H2224 H 0.68454 0.67009 0.36364
 H2225 H 0.77963 0.63716 0.40336
 H2226 H 0.81431 0.61961 0.41784
 H2227 H 0.78401 0.55382 0.40962
 H2228 H 0.74942 0.57156 0.39488
 C2229 C 0.19283 1.16615 0.36024
 C2230 C 0.21245 1.15796 0.37059
 C2231 C 0.21556 1.13476 0.37363
 C2232 C 0.19860 1.11974 0.36645
 C2233 C 0.17896 1.12792 0.35612
 C2234 C 0.17595 1.15119 0.35278
 N2235 N 0.23623 1.12691 0.38357
 N2236 N 0.24038 1.10604 0.38637
 C2237 C 0.26125 1.09824 0.39596
 C2238 C 0.26477 1.07504 0.39837
 C2239 C 0.28516 1.06686 0.40720
 C2240 C 0.30240 1.08186 0.41381
 C2241 C 0.29875 1.10518 0.41147
 C2242 C 0.27837 1.11331 0.40263
 H2243 H 0.19097 1.18413 0.35765
 H2244 H 0.22542 1.16969 0.37601
 H2245 H 0.20059 1.10173 0.36864
 H2246 H 0.16610 1.11611 0.35062
 H2247 H 0.25169 1.06326 0.39331
 H2248 H 0.28740 1.04883 0.40902
 H2249 H 0.31183 1.11713 0.41610
 H2250 H 0.27609 1.13133 0.40084
 C2251 C 0.17149 0.61572 0.85918
 C2252 C 0.19082 0.60513 0.86778
 C2253 C 0.20927 0.61795 0.87523
 C2254 C 0.20802 0.64162 0.87437
 C2255 C 0.18867 0.65221 0.86584
 C2256 C 0.17031 0.63936 0.85800
 N2257 N 0.22916 0.60661 0.88324
 N2258 N 0.24681 0.61744 0.88916
 C2259 C 0.26692 0.60654 0.89716
 C2260 C 0.28539 0.61991 0.90340
 C2261 C 0.30521 0.61001 0.91161
 C2262 C 0.30690 0.58646 0.91376
 C2263 C 0.28843 0.57298 0.90715
 C2264 C 0.26854 0.58295 0.89894
 H2265 H 0.15747 0.60552 0.85327
 H2266 H 0.19155 0.58690 0.86839
 H2267 H 0.22205 0.65192 0.88005
 H2268 H 0.18820 0.67044 0.86488
 H2269 H 0.28439 0.63808 0.90196
 H2270 H 0.31930 0.62081 0.91618
 H2271 H 0.28923 0.55481 0.90875
 H2272 H 0.25445 0.57226 0.89417
 C2273 C 1.11731 1.32765 1.14122
 C2274 C 1.10701 1.30852 1.13214
 C2275 C 1.12018 1.29004 1.12555
 C2276 C 1.14398 1.29117 1.12755
 C2277 C 1.15430 1.31034 1.13658
 C2278 C 1.14102 1.32863 1.14381
 N2279 N 1.10898 1.27019 1.11751
 N2280 N 1.11996 1.25247 1.11230
 C2281 C 1.10902 1.23239 1.10451
 C2282 C 1.12252 1.21401 1.09841
 C2283 C 1.11257 1.19422 1.09046
 C2284 C 1.08883 1.19245 1.08850
 C2285 C 1.07522 1.21078 1.09502
 C2286 C 1.08523 1.23066 1.10291
 H2287 H 1.10677 1.34161 1.14660
 H2288 H 1.08869 1.30790 1.13062
 H2289 H 1.15455 1.27711 1.12253
 H2290 H 1.17258 1.31065 1.13860
 H2291 H 1.14084 1.21508 1.09973
 H2292 H 1.12348 1.18024 1.08591
 H2293 H 1.05690 1.20990 1.09356
 H2294 H 1.07443 1.24465 1.10763
 C2295 C 1.13314 0.82947 0.61349
 C2296 C 1.12402 0.81013 0.60364
 C2297 C 1.11626 0.79230 0.61711
 C2298 C 1.11725 0.79423 0.64069
 C2299 C 1.12631 0.81359 0.65055
 C2300 C 1.13456 0.83129 0.63702
 N2301 N 1.10804 0.77225 0.60650
 N2302 N 1.10173 0.75513 0.61788
 C2303 C 1.09382 0.73484 0.60755
 C2304 C 1.08719 0.71686 0.62137
 C2305 C 1.07951 0.69673 0.61197
 C2306 C 1.07831 0.69422 0.58846
 C2307 C 1.08511 0.71227 0.57456
 C2308 C 1.09278 0.73245 0.58402
 H2309 H 1.13935 0.84296 0.60278
 H2310 H 1.12332 0.80886 0.58547
 H2311 H 1.11134 0.78067 0.65148
 H2312 H 1.12745 0.81456 0.66871
 H2313 H 1.08805 0.71846 0.63951
 H2314 H 1.07476 0.68301 0.62310
 H2315 H 1.08419 0.71087 0.55641
 H2316 H 1.09786 0.74614 0.57299
 C2317 C 0.63013 1.31091 0.65824
 C2318 C 0.62090 1.29063 0.65062
 C2319 C 0.61801 1.28686 0.62757
 C2320 C 0.62431 1.30376 0.61210
 C2321 C 0.63349 1.32410 0.61972
 C2322 C 0.63656 1.32786 0.64287
 N2323 N 0.60895 1.26566 0.62040
 N2324 N 0.60645 1.26073 0.59972
 C2325 C 0.59758 1.23936 0.59277
 C2326 C 0.59593 1.23470 0.56975
 C2327 C 0.58780 1.21383 0.56243
 C2328 C 0.58110 1.19725 0.57810
 C2329 C 0.58261 1.20204 0.60121
 C2330 C 0.59079 1.22289 0.60850
 H2331 H 0.63255 1.31324 0.67614
 H2332 H 0.61618 1.27771 0.66269
 H2333 H 0.62220 1.30124 0.59419
 H2334 H 0.63819 1.33694 0.60756
 H2335 H 0.60106 1.24726 0.55747
 H2336 H 0.58659 1.21071 0.54452
 H2337 H 0.57786 1.18951 0.61368
 H2338 H 0.59195 1.22606 0.62640
 C2339 C 0.61372 0.83126 1.13576
 C2340 C 0.60324 0.81195 1.12714
 C2341 C 0.61617 0.79288 1.12176
 C2342 C 0.63980 0.79332 1.12517
 C2343 C 0.65024 0.81254 1.13385
 C2344 C 0.63732 0.83168 1.13927
 N2345 N 0.60507 0.77330 1.11290
 N2346 N 0.61631 0.75596 1.10698
 C2347 C 0.60586 0.73606 1.09817
 C2348 C 0.61982 0.71825 1.09137
 C2349 C 0.61037 0.69850 1.08274
 C2350 C 0.58668 0.69619 1.08080
 C2351 C 0.57264 0.71407 1.08774
 C2352 C 0.58215 0.73391 1.09631
 H2353 H 0.60349 0.84593 1.13962
 H2354 H 0.58503 0.81186 1.12455
 H2355 H 0.65020 0.77881 1.12120
 H2356 H 0.66843 0.81247 1.13649
 H2357 H 0.63810 0.71969 1.09283
 H2358 H 0.62161 0.68489 1.07788
 H2359 H 0.55434 0.71280 1.08630
 H2360 H 0.57102 0.74747 1.10149
 C2361 C 0.89160 1.33165 0.86844
 C2362 C 0.90159 1.31230 0.87751
 C2363 C 0.88802 1.29456 0.88543
 C2364 C 0.86422 1.29660 0.88468
 C2365 C 0.85424 1.31595 0.87568
 C2366 C 0.86784 1.33354 0.86727
 N2367 N 0.89870 1.27445 0.89353
 N2368 N 0.88710 1.25739 0.89968
 C2369 C 0.89732 1.23696 0.90748
 C2370 C 0.88318 1.21901 0.91362
 C2371 C 0.89245 1.19870 0.92110
 C2372 C 0.91613 1.19602 0.92262
 C2373 C 0.93035 1.21406 0.91635
 C2374 C 0.92103 1.23441 0.90884
 H2375 H 0.90236 1.34508 0.86207
 H2376 H 0.91994 1.31094 0.87802
 H2377 H 0.85335 1.28312 0.89071
 H2378 H 0.83589 1.31696 0.87472
 H2379 H 0.86490 1.22075 0.91249
 H2380 H 0.88107 1.18498 0.92545
 H2381 H 0.94865 1.21251 0.91752
 H2382 H 0.93230 1.24809 0.90415
 C2383 C 0.88817 0.82980 0.36418
 C2384 C 0.89777 0.80973 0.37203
 C2385 C 0.88393 0.79126 0.37742
 C2386 C 0.86027 0.79298 0.37458
 C2387 C 0.85069 0.81301 0.36668
 C2388 C 0.86453 0.83168 0.36165
 N2389 N 0.89421 0.77109 0.38590
 N2390 N 0.88241 0.75405 0.39177
 C2391 C 0.89242 0.73383 0.40041
 C2392 C 0.87817 0.71603 0.40682
 C2393 C 0.88729 0.69608 0.41544
 C2394 C 0.91093 0.69359 0.41778
 C2395 C 0.92524 0.71149 0.41126
 C2396 C 0.91607 0.73147 0.40268
 H2397 H 0.89911 0.84400 0.36032
 H2398 H 0.91601 0.80859 0.37409
 H2399 H 0.84921 0.77890 0.37851
 H2400 H 0.83245 0.81403 0.36451
 H2401 H 0.85993 0.71763 0.40508
 H2402 H 0.87586 0.68247 0.41998
 H2403 H 0.94349 0.71011 0.41306
 H2404 H 0.92744 0.74504 0.39787
 C2405 C 0.33853 1.31056 0.36253
 C2406 C 0.34588 1.29018 0.37183
 C2407 C 0.36906 1.28608 0.37498
 C2408 C 0.38495 1.30266 0.36856
 C2409 C 0.37759 1.32308 0.35922
 C2410 C 0.35429 1.32727 0.35618
 N2411 N 0.37591 1.26498 0.38463
 N2412 N 0.39665 1.26011 0.38821
 C2413 C 0.40339 1.23891 0.39773
 C2414 C 0.42654 1.23452 0.40072
 C2415 C 0.43375 1.21382 0.40944
 C2416 C 0.41785 1.19707 0.41539
 C2417 C 0.39456 1.20163 0.41266
 C2418 C 0.38738 1.22235 0.40388
 H2419 H 0.32050 1.31323 0.36015
 H2420 H 0.33348 1.27752 0.37661
 H2421 H 0.40297 1.29988 0.37080
 H2422 H 0.39006 1.33572 0.35458
 H2423 H 0.43904 1.24716 0.39613
 H2424 H 0.45177 1.21093 0.41161
 H2425 H 0.38192 1.18899 0.41683
 H2426 H 0.36937 1.22531 0.40172
 C2427 C 0.34552 0.81353 0.86598
 C2428 C 0.35256 0.79275 0.87450
 C2429 C 0.37567 0.78809 0.87715
 C2430 C 0.39186 0.80442 0.87079
 C2431 C 0.38481 0.82527 0.86219
 C2432 C 0.36157 0.83008 0.85994
 N2433 N 0.38211 0.76676 0.88648
 N2434 N 0.40273 0.76141 0.89001
 C2435 C 0.40884 0.73997 0.89937
 C2436 C 0.43185 0.73478 0.90206
 C2437 C 0.43839 0.71379 0.91057
 C2438 C 0.42194 0.69760 0.91660
 C2439 C 0.39882 0.70300 0.91427
 C2440 C 0.39230 0.72399 0.90569
 H2441 H 0.32752 0.81677 0.86415
 H2442 H 0.33995 0.78026 0.87923
 H2443 H 0.40985 0.80116 0.87263
 H2444 H 0.39743 0.83781 0.85769
 H2445 H 0.44474 0.74698 0.89736
 H2446 H 0.45632 0.71019 0.91244
 H2447 H 0.38579 0.69079 0.91855
 H2448 H 0.37438 0.72761 0.90380
 C2449 C 1.13879 0.67122 0.88184
 C2450 C 1.13029 0.69072 0.89202
 C2451 C 1.12391 0.70929 0.87891
 C2452 C 1.12582 0.70801 0.85533
 C2453 C 1.13429 0.68850 0.84513
 C2454 C 1.14104 0.66996 0.85830
 N2455 N 1.11587 0.72926 0.88991
 N2456 N 1.11037 0.74688 0.87893
 C2457 C 1.10243 0.76701 0.88966
 C2458 C 1.09640 0.78542 0.87621
 C2459 C 1.08841 0.80530 0.88597
 C2460 C 1.08629 0.80715 0.90950
 C2461 C 1.09261 0.78871 0.92304
 C2462 C 1.10058 0.76877 0.91322
 H2463 H 1.14373 0.65711 0.89234
 H2464 H 1.12885 0.69144 0.91019
 H2465 H 1.12101 0.72213 0.84480
 H2466 H 1.13604 0.68805 0.82699
 H2467 H 1.09788 0.78433 0.85806
 H2468 H 1.08405 0.81932 0.87510
 H2469 H 1.09102 0.78958 0.94119
 H2470 H 1.10517 0.75475 0.92398
 C2471 C 1.13692 0.19598 0.33397
 C2472 C 1.12667 0.21574 0.34180
 C2473 C 1.12391 0.21941 0.36492
 C2474 C 1.13128 0.20287 0.38023
 C2475 C 1.14152 0.18310 0.37242
 C2476 C 1.14462 0.17953 0.34922
 N2477 N 1.11408 0.24021 0.37237
 N2478 N 1.11140 0.24475 0.39315
 C2479 C 1.10196 0.26572 0.40065
 C2480 C 1.09957 0.26951 0.42378
 C2481 C 1.09095 0.28997 0.43170
 C2482 C 1.08454 0.30707 0.41654
 C2483 C 1.08681 0.30314 0.39329
 C2484 C 1.09545 0.28267 0.38539
 H2485 H 1.13927 0.19373 0.31603
 H2486 H 1.12110 0.22837 0.32983
 H2487 H 1.12930 0.20527 0.39819
 H2488 H 1.14715 0.17059 0.38449
 H2489 H 1.10450 0.25657 0.43570
 H2490 H 1.08914 0.29237 0.44968
 H2491 H 1.08232 0.31608 0.38119
 H2492 H 1.09721 0.28018 0.36742
 C2493 C 0.63229 0.68876 0.34148
 C2494 C 0.62410 0.70942 0.34923
 C2495 C 0.62168 0.71336 0.37231
 C2496 C 0.62773 0.69636 0.38772
 C2497 C 0.63594 0.67563 0.37996
 C2498 C 0.63818 0.67161 0.35675
 N2499 N 0.61294 0.73469 0.37952
 N2500 N 0.61013 0.73964 0.40018
 C2501 C 0.60131 0.76109 0.40699
 C2502 C 0.59915 0.76579 0.42997
 C2503 C 0.59082 0.78666 0.43714
 C2504 C 0.58443 0.80318 0.42135
 C2505 C 0.58646 0.79834 0.39827
 C2506 C 0.59484 0.77750 0.39114
 H2507 H 0.63409 0.68616 0.32352
 H2508 H 0.61957 0.72241 0.33721
 H2509 H 0.62600 0.69903 0.40567
 H2510 H 0.64028 0.66262 0.39201
 H2511 H 0.60400 0.75326 0.44235
 H2512 H 0.58921 0.78981 0.45502
 H2513 H 0.58195 0.81083 0.38573
 H2514 H 0.59636 0.77430 0.37327
 C2515 C 0.63817 0.19119 0.83694
 C2516 C 0.62872 0.21125 0.84494
 C2517 C 0.62539 0.21450 0.86804
 C2518 C 0.63167 0.19734 0.88318
 C2519 C 0.64110 0.17723 0.87518
 C2520 C 0.64443 0.17393 0.85196
 N2521 N 0.61572 0.23534 0.87558
 N2522 N 0.61253 0.23970 0.89633
 C2523 C 0.60293 0.26065 0.90370
 C2524 C 0.60077 0.26470 0.92681
 C2525 C 0.59192 0.28514 0.93458
 C2526 C 0.58496 0.30190 0.91929
 C2527 C 0.58691 0.29768 0.89607
 C2528 C 0.59585 0.27726 0.88833
 H2529 H 0.64076 0.18920 0.81899
 H2530 H 0.62403 0.22435 0.83311
 H2531 H 0.62924 0.19944 0.90113
 H2532 H 0.64564 0.16414 0.88708
 H2533 H 0.60609 0.25202 0.93884
 H2534 H 0.59039 0.28780 0.95255
 H2535 H 0.58196 0.31036 0.88388
 H2536 H 0.59735 0.27456 0.87037
 C2537 C 0.85678 0.69200 1.15514
 C2538 C 0.86430 0.71271 1.14668
 C2539 C 0.87476 0.71399 1.12550
 C2540 C 0.87720 0.69431 1.11256
 C2541 C 0.86917 0.67366 1.12081
 C2542 C 0.85911 0.67239 1.14222
 N2543 N 0.88255 0.73544 1.11749
 N2544 N 0.89699 0.73731 1.10157
 C2545 C 0.90432 0.75890 1.09349
 C2546 C 0.92462 0.76049 1.08117
 C2547 C 0.93248 0.78147 1.07361
 C2548 C 0.91977 0.80100 1.07782
 C2549 C 0.89920 0.79940 1.08974
 C2550 C 0.89160 0.77851 1.09772
 H2551 H 0.84893 0.69119 1.17165
 H2552 H 0.86226 0.72776 1.15675
 H2553 H 0.88506 0.69497 1.09606
 H2554 H 0.87101 0.65860 1.11072
 H2555 H 0.93454 0.74551 1.07778
 H2556 H 0.94838 0.78248 1.06441
 H2557 H 0.88923 0.81437 1.09310
 H2558 H 0.87577 0.77765 1.10704
 C2559 C 0.83897 0.18817 0.63702
 C2560 C 0.84631 0.20825 0.62702
 C2561 C 0.86947 0.21219 0.62331
 C2562 C 0.88535 0.19575 0.62985
 C2563 C 0.87802 0.17561 0.63987
 C2564 C 0.85474 0.17158 0.64348
 N2565 N 0.87631 0.23303 0.61305
 N2566 N 0.89705 0.23786 0.60921
 C2567 C 0.90377 0.25884 0.59916
 C2568 C 0.92694 0.26349 0.59649
 C2569 C 0.93412 0.28414 0.58756
 C2570 C 0.91817 0.30054 0.58104
 C2571 C 0.89488 0.29565 0.58330
 C2572 C 0.88772 0.27500 0.59233
 H2573 H 0.82096 0.18560 0.63983
 H2574 H 0.83392 0.22082 0.62215
 H2575 H 0.90337 0.19842 0.62718
 H2576 H 0.89047 0.16304 0.64459
 H2577 H 0.93947 0.25115 0.60160
 H2578 H 0.95216 0.28733 0.58577
 H2579 H 0.88221 0.30803 0.57865
 H2580 H 0.86970 0.27181 0.59421
 C2581 C 0.33578 0.69174 0.63746
 C2582 C 0.34330 0.71145 0.62684
 C2583 C 0.36652 0.71515 0.62320
 C2584 C 0.38225 0.69874 0.63017
 C2585 C 0.37474 0.67901 0.64079
 C2586 C 0.35143 0.67535 0.64461
 N2587 N 0.37364 0.73583 0.61283
 N2588 N 0.39447 0.74042 0.60924
 C2589 C 0.40155 0.76133 0.59929
 C2590 C 0.42479 0.76549 0.59640
 C2591 C 0.43232 0.78606 0.58757
 C2592 C 0.41665 0.80286 0.58142
 C2593 C 0.39329 0.79849 0.58400
 C2594 C 0.38578 0.77792 0.59288
 H2595 H 0.31776 0.68940 0.64040
 H2596 H 0.33103 0.72399 0.62161
 H2597 H 0.40030 0.70121 0.62754
 H2598 H 0.38708 0.66655 0.64604
 H2599 H 0.43710 0.75282 0.60122
 H2600 H 0.45040 0.78884 0.58552
 H2601 H 0.38083 0.81120 0.57968
 H2602 H 0.36772 0.77512 0.59498
 C2603 C 0.39058 0.16893 1.13667
 C2604 C 0.40054 0.18905 1.12923
 C2605 C 0.38696 0.20734 1.12289
 C2606 C 0.36317 0.20522 1.12391
 C2607 C 0.35321 0.18511 1.13130
 C2608 C 0.36681 0.16678 1.13780
 N2609 N 0.39762 0.22784 1.11553
 N2610 N 0.38601 0.24512 1.11017
 C2611 C 0.39615 0.26577 1.10263
 C2612 C 0.38192 0.28373 1.09691
 C2613 C 0.39105 0.30400 1.08899
 C2614 C 0.41469 0.30668 1.08662
 C2615 C 0.42902 0.28873 1.09273
 C2616 C 0.41983 0.26839 1.10063
 H2617 H 0.40138 0.15498 1.14154
 H2618 H 0.41888 0.19044 1.12848
 H2619 H 0.35227 0.21910 1.11911
 H2620 H 0.33487 0.18395 1.13226
 H2621 H 0.36366 0.28195 1.09849
 H2622 H 0.37959 0.31765 1.08479
 H2623 H 0.44728 0.29026 1.09093
 H2624 H 0.43118 0.25471 1.10498
 C2625 C 1.11528 1.13765 0.67067
 C2626 C 1.10522 1.12880 0.69013
 C2627 C 1.11859 1.12287 0.70863
 C2628 C 1.14236 1.12515 0.70717
 C2629 C 1.15244 1.13394 0.68767
 C2630 C 1.13894 1.14064 0.66940
 N2631 N 1.10762 1.11532 0.72888
 N2632 N 1.11879 1.11096 0.74666
 C2633 C 1.10810 1.10374 0.76715
 C2634 C 1.12182 1.09834 0.78553
 C2635 C 1.11211 1.09087 0.80569
 C2636 C 1.08840 1.08872 0.80785
 C2637 C 1.07456 1.09463 0.78953
 C2638 C 1.08433 1.10203 0.76927
 H2639 H 1.10459 1.14267 0.65674
 H2640 H 1.08691 1.12705 0.69101
 H2641 H 1.15308 1.12062 0.72123
 H2642 H 1.17069 1.13630 0.68712
 H2643 H 1.14012 1.09977 0.78414
 H2644 H 1.12317 1.08675 0.81964
 H2645 H 1.05626 1.09301 0.79073
 H2646 H 1.07337 1.10623 0.75529
 C2647 C 1.11180 0.63642 0.16957
 C2648 C 1.10148 0.62921 0.18961
 C2649 C 1.11474 0.62301 0.20814
 C2650 C 1.13856 0.62394 0.20633
 C2651 C 1.14888 0.63109 0.18631
 C2652 C 1.13560 0.63746 0.16775
 N2653 N 1.10371 0.61589 0.22854
 N2654 N 1.11501 0.61076 0.24604
 C2655 C 1.10454 0.60343 0.26661
 C2656 C 1.11849 0.59792 0.28480
 C2657 C 1.10907 0.59012 0.30498
 C2658 C 1.08541 0.58766 0.30735
 C2659 C 1.07134 0.59360 0.28919
 C2660 C 1.08083 0.60138 0.26893
 H2661 H 1.10124 0.64118 0.15545
 H2662 H 1.08312 0.62853 0.19075
 H2663 H 1.14922 0.61924 0.22040
 H2664 H 1.16724 0.63198 0.18540
 H2665 H 1.13677 0.59955 0.28325
 H2666 H 1.12033 0.58607 0.31879
 H2667 H 1.05307 0.59174 0.29049
 H2668 H 1.06970 0.60557 0.25507
 C2669 C 0.61475 1.13697 0.16877
 C2670 C 0.60442 1.12845 0.18828
 C2671 C 0.61759 1.12213 0.20681
 C2672 C 0.64139 1.12413 0.20549
 C2673 C 0.65173 1.13263 0.18600
 C2674 C 0.63850 1.13928 0.16748
 N2675 N 0.60647 1.11407 0.22680
 N2676 N 0.61760 1.10844 0.24425
 C2677 C 0.60686 1.10046 0.26446
 C2678 C 0.62055 1.09402 0.28253
 C2679 C 0.61080 1.08593 0.30246
 C2680 C 0.58706 1.08417 0.30469
 C2681 C 0.57327 1.09094 0.28661
 C2682 C 0.58308 1.09898 0.26660
 H2683 H 0.60421 1.14187 0.15468
 H2684 H 0.58609 1.12696 0.18904
 H2685 H 0.65197 1.11936 0.21958
 H2686 H 0.67003 1.13446 0.18553
 H2687 H 0.63887 1.09522 0.28113
 H2688 H 0.62186 1.08121 0.31622
 H2689 H 0.55495 1.08964 0.28781
 H2690 H 0.57214 1.10392 0.25284
 C2691 C 0.60835 0.63381 0.66545
 C2692 C 0.59872 0.62510 0.68522
 C2693 C 0.61257 0.61847 0.70315
 C2694 C 0.63631 0.62039 0.70099
 C2695 C 0.64593 0.62910 0.68124
 C2696 C 0.63205 0.63601 0.66330
 N2697 N 0.60220 0.61023 0.72346
 N2698 N 0.61400 0.60423 0.74035
 C2699 C 0.60401 0.59620 0.76090
 C2700 C 0.61835 0.58964 0.77844
 C2701 C 0.60932 0.58182 0.79880
 C2702 C 0.58566 0.58043 0.80198
 C2703 C 0.57124 0.58714 0.78437
 C2704 C 0.58033 0.59493 0.76395
 H2705 H 0.59731 0.63893 0.65182
 H2706 H 0.58042 0.62368 0.68666
 H2707 H 0.64740 0.61542 0.71462
 H2708 H 0.66422 0.63086 0.68015
 H2709 H 0.63662 0.59066 0.77633
 H2710 H 0.62086 0.57713 0.81217
 H2711 H 0.55296 0.58609 0.78629
 H2712 H 0.56890 0.59994 0.75062
 C2713 C 0.86504 0.84167 0.69093
 C2714 C 0.87397 0.84956 0.71117
 C2715 C 0.87687 0.87268 0.71470
 C2716 C 0.87047 0.88798 0.69773
 C2717 C 0.86149 0.88008 0.67743
 C2718 C 0.85884 0.85683 0.67379
 N2719 N 0.88646 0.88003 0.73556
 N2720 N 0.88987 0.90072 0.74003
 C2721 C 0.89953 0.90775 0.76098
 C2722 C 0.90217 0.93080 0.76518
 C2723 C 0.91121 0.93820 0.78560
 C2724 C 0.91784 0.92260 0.80221
 C2725 C 0.91539 0.89944 0.79785
 C2726 C 0.90630 0.89207 0.77744
 H2727 H 0.86295 0.82369 0.68860
 H2728 H 0.87875 0.83761 0.72414
 H2729 H 0.87253 0.90595 0.70009
 H2730 H 0.85694 0.89205 0.66442
 H2731 H 0.89711 0.94305 0.75261
 H2732 H 0.91312 0.95614 0.78838
 H2733 H 0.92006 0.88703 0.81041
 H2734 H 0.90443 0.87414 0.77462
 C2735 C 0.86554 0.34128 0.19002
 C2736 C 0.87426 0.34896 0.21043
 C2737 C 0.87737 0.37202 0.21412
 C2738 C 0.87129 0.38749 0.19717
 C2739 C 0.86252 0.37980 0.17670
 C2740 C 0.85976 0.35660 0.17287
 N2741 N 0.88689 0.37912 0.23509
 N2742 N 0.89057 0.39974 0.23969
 C2743 C 0.90014 0.40650 0.26078
 C2744 C 0.90270 0.42949 0.26528
 C2745 C 0.91141 0.43665 0.28592
 C2746 C 0.91783 0.42086 0.30242
 C2747 C 0.91563 0.39775 0.29771
 C2748 C 0.90682 0.39062 0.27709
 H2749 H 0.86337 0.32333 0.18754
 H2750 H 0.87878 0.33689 0.22338
 H2751 H 0.87351 0.40543 0.19966
 H2752 H 0.85829 0.39188 0.16368
 H2753 H 0.89772 0.44189 0.25282
 H2754 H 0.91315 0.45456 0.28899
 H2755 H 0.92020 0.38521 0.31018
 H2756 H 0.90505 0.37273 0.27401
 C2757 C 0.36781 0.83997 0.19008
 C2758 C 0.37768 0.84715 0.21014
 C2759 C 0.38045 0.87014 0.21446
 C2760 C 0.37309 0.88603 0.19844
 C2761 C 0.36314 0.87885 0.17835
 C2762 C 0.36048 0.85575 0.17398
 N2763 N 0.39053 0.87684 0.23529
 N2764 N 0.39416 0.89741 0.24012
 C2765 C 0.40388 0.90401 0.26115
 C2766 C 0.40698 0.92695 0.26552
 C2767 C 0.41549 0.93402 0.28626
 C2768 C 0.42106 0.91818 0.30302
 C2769 C 0.41839 0.89510 0.29841
 C2770 C 0.40985 0.88805 0.27766
 H2771 H 0.36575 0.82208 0.18711
 H2772 H 0.38320 0.83477 0.22239
 H2773 H 0.37500 0.90392 0.20144
 H2774 H 0.35769 0.89125 0.16611
 H2775 H 0.40253 0.93939 0.25290
 H2776 H 0.41764 0.95190 0.28922
 H2777 H 0.42229 0.88253 0.31108
 H2778 H 0.40760 0.87020 0.27468
 C2779 C 0.36257 0.33640 0.69413
 C2780 C 0.37273 0.34371 0.71404
 C2781 C 0.37549 0.36674 0.71821
 C2782 C 0.36783 0.38252 0.70223
 C2783 C 0.35760 0.37522 0.68233
 C2784 C 0.35494 0.35209 0.67808
 N2785 N 0.38592 0.37361 0.73883
 N2786 N 0.38968 0.39422 0.74339
 C2787 C 0.39980 0.40108 0.76417
 C2788 C 0.40324 0.42407 0.76805
 C2789 C 0.41227 0.43144 0.78846
 C2790 C 0.41802 0.41586 0.80541
 C2791 C 0.41495 0.39273 0.80130
 C2792 C 0.40590 0.38538 0.78086
 H2793 H 0.36054 0.31850 0.69126
 H2794 H 0.37848 0.33141 0.72625
 H2795 H 0.36974 0.40043 0.70510
 H2796 H 0.35194 0.38756 0.67011
 H2797 H 0.39870 0.43632 0.75529
 H2798 H 0.41473 0.44934 0.79102
 H2799 H 0.41898 0.38035 0.81412
 H2800 H 0.40338 0.36750 0.77826
 C2801 C 1.11244 0.86004 1.32897
 C2802 C 1.10232 0.86827 1.30935
 C2803 C 1.11577 0.87578 1.29135
 C2804 C 1.13958 0.87543 1.29335
 C2805 C 1.14970 0.86726 1.31296
 C2806 C 1.13622 0.85931 1.33087
 N2807 N 1.10497 0.88328 1.27111
 N2808 N 1.11648 0.88906 1.25385
 C2809 C 1.10616 0.89652 1.23339
 C2810 C 1.12024 0.90271 1.21540
 C2811 C 1.11092 0.91045 1.19526
 C2812 C 1.08722 0.91215 1.19278
 C2813 C 1.07304 0.90556 1.21074
 C2814 C 1.08244 0.89784 1.23095
 H2815 H 1.10176 0.85402 1.34262
 H2816 H 1.08397 0.86849 1.30803
 H2817 H 1.15037 0.88119 1.27968
 H2818 H 1.16805 0.86663 1.31398
 H2819 H 1.13853 0.90161 1.21705
 H2820 H 1.12225 0.91503 1.18157
 H2821 H 1.05474 0.90684 1.20931
 H2822 H 1.07121 0.89309 1.24466
 C2823 C 1.14091 0.38884 0.83016
 C2824 C 1.13344 0.39914 0.81033
 C2825 C 1.12089 0.38690 0.79460
 C2826 C 1.11609 0.36408 0.79876
 C2827 C 1.12414 0.35357 0.81825
 C2828 C 1.13665 0.36581 0.83429
 N2829 N 1.11382 0.39770 0.77421
 N2830 N 1.09663 0.39079 0.76329
 C2831 C 1.09011 0.40064 0.74226
 C2832 C 1.06759 0.39865 0.73521
 C2833 C 1.06087 0.40736 0.71440
 C2834 C 1.07681 0.41757 0.69978
 C2835 C 1.09951 0.41952 0.70703
 C2836 C 1.10603 0.41136 0.72817
 H2837 H 1.15019 0.39889 0.84222
 H2838 H 1.13724 0.41676 0.80730
 H2839 H 1.10668 0.35423 0.78663
 H2840 H 1.12086 0.33575 0.82057
 H2841 H 1.05515 0.39047 0.74597
 H2842 H 1.04314 0.40605 0.70983
 H2843 H 1.11242 0.42679 0.69620
 H2844 H 1.12364 0.41277 0.73321
 C2845 C 0.63832 0.88382 0.82784
 C2846 C 0.62849 0.89417 0.80910
 C2847 C 0.62189 0.88131 0.79054
 C2848 C 0.62470 0.85776 0.79116
 C2849 C 0.63450 0.84739 0.80993
 C2850 C 0.64167 0.86037 0.82832
 N2851 N 0.61306 0.89258 0.77109
 N2852 N 0.60750 0.88186 0.75342
 C2853 C 0.59903 0.89289 0.73369
 C2854 C 0.59268 0.87969 0.71531
 C2855 C 0.58436 0.88977 0.69575
 C2856 C 0.58226 0.91334 0.69420
 C2857 C 0.58890 0.92663 0.71260
 C2858 C 0.59718 0.91649 0.73224
 H2859 H 0.64367 0.89412 0.84189
 H2860 H 0.62637 0.91230 0.80886
 H2861 H 0.61973 0.84743 0.77702
 H2862 H 0.63712 0.82933 0.80985
 H2863 H 0.59419 0.86152 0.71617
 H2864 H 0.57976 0.87910 0.68172
 H2865 H 0.58735 0.94481 0.71191
 H2866 H 0.60207 0.92706 0.74624
 C2867 C 0.62408 0.34310 1.31357
 C2868 C 0.61371 0.35109 1.29401
 C2869 C 0.61700 0.37337 1.28703
 C2870 C 0.63023 0.38791 1.30022
 C2871 C 0.64004 0.38014 1.32019
 C2872 C 0.63735 0.35753 1.32700
 N2873 N 0.60698 0.38078 1.26641
 N2874 N 0.61560 0.39682 1.25494
 C2875 C 0.60559 0.40453 1.23442
 C2876 C 0.61939 0.41514 1.21841
 C2877 C 0.61030 0.42246 1.19800
 C2878 C 0.58692 0.42004 1.19349
 C2879 C 0.57303 0.40961 1.20988
 C2880 C 0.58234 0.40168 1.23005
 H2881 H 0.62187 0.32553 1.31805
 H2882 H 0.60358 0.33973 1.28393
 H2883 H 0.63274 0.40530 1.29521
 H2884 H 0.64978 0.39179 1.33029
 H2885 H 0.63738 0.41728 1.22156
 H2886 H 0.62177 0.42974 1.18567
 H2887 H 0.55493 0.40780 1.20732
 H2888 H 0.57133 0.39371 1.24238
 C2889 C 0.88715 1.13626 1.33095
 C2890 C 0.89736 1.12727 1.31167
 C2891 C 0.88409 1.12056 1.29337
 C2892 C 0.86031 1.12267 1.29471
 C2893 C 0.85009 1.13166 1.31399
 C2894 C 0.86341 1.13869 1.33226
 N2895 N 0.89513 1.11203 1.27359
 N2896 N 0.88398 1.10591 1.25634
 C2897 C 0.89475 1.09755 1.23635
 C2898 C 0.88110 1.09074 1.21840
 C2899 C 0.89090 1.08251 1.19861
 C2900 C 0.91466 1.08096 1.19639
 C2901 C 0.92839 1.08798 1.21439
 C2902 C 0.91852 1.09617 1.23425
 H2903 H 0.89777 1.14142 1.34486
 H2904 H 0.91568 1.12569 1.31089
 H2905 H 0.84966 1.11763 1.28079
 H2906 H 0.83179 1.13355 1.31446
 H2907 H 0.86277 1.09185 1.21976
 H2908 H 0.87988 1.07760 1.18492
 H2909 H 0.94672 1.08683 1.21322
 H2910 H 0.92944 1.10137 1.24791
 C2911 C 0.86552 0.61616 0.83226
 C2912 C 0.87302 0.60527 0.81277
 C2913 C 0.87749 0.61761 0.79314
 C2914 C 0.87506 0.64122 0.79342
 C2915 C 0.86763 0.65213 0.81295
 C2916 C 0.86242 0.63965 0.83244
 N2917 N 0.88395 0.60582 0.77308
 N2918 N 0.88698 0.61606 0.75445
 C2919 C 0.89338 0.60467 0.73416
 C2920 C 0.89776 0.61759 0.71491
 C2921 C 0.90500 0.60731 0.69505
 C2922 C 0.90790 0.58381 0.69404
 C2923 C 0.90277 0.57071 0.71316
 C2924 C 0.89565 0.58107 0.73316
 H2925 H 0.86167 0.60623 0.84713
 H2926 H 0.87492 0.58711 0.81282
 H2927 H 0.87850 0.65117 0.77848
 H2928 H 0.86517 0.67022 0.81262
 H2929 H 0.89591 0.63574 0.71544
 H2930 H 0.90855 0.61777 0.68046
 H2931 H 0.90497 0.55259 0.71281
 H2932 H 0.89223 0.57072 0.74783
 C2933 C 0.37030 1.15872 0.81099
 C2934 C 0.37953 1.15143 0.79059
 C2935 C 0.38132 1.12840 0.78595
 C2936 C 0.37387 1.11260 0.80208
 C2937 C 0.36461 1.11989 0.82251
 C2938 C 0.36269 1.14302 0.82712
 N2939 N 0.39035 1.12159 0.76462
 N2940 N 0.39265 1.10097 0.75926
 C2941 C 0.40133 1.09437 0.73770
 C2942 C 0.40357 1.07142 0.73288
 C2943 C 0.41142 1.06443 0.71179
 C2944 C 0.41714 1.08038 0.69512
 C2945 C 0.41507 1.10345 0.70009
 C2946 C 0.40723 1.11040 0.72119
 H2947 H 0.36879 1.17664 0.81411
 H2948 H 0.38515 1.16375 0.77826
 H2949 H 0.37508 1.09469 0.79885
 H2950 H 0.35893 1.10753 0.83476
 H2951 H 0.39911 1.05892 0.74549
 H2952 H 0.41311 1.04656 0.70855
 H2953 H 0.41905 1.11612 0.68751
 H2954 H 0.40557 1.12826 0.72448
 C2955 C 0.38835 0.63753 1.33028
 C2956 C 0.39868 0.62995 1.31044
 C2957 C 0.38543 0.62337 1.29207
 C2958 C 0.36160 0.62428 1.29384
 C2959 C 0.35128 0.63182 1.31367
 C2960 C 0.36454 0.63860 1.33207
 N2961 N 0.39649 0.61593 1.27185
 N2962 N 0.38522 0.61019 1.25454
 C2963 C 0.39577 0.60261 1.23414
 C2964 C 0.38188 0.59623 1.21623
 C2965 C 0.39139 0.58828 1.19621
 C2966 C 0.41511 0.58656 1.19371
 C2967 C 0.42911 0.59334 1.21160
 C2968 C 0.41952 0.60126 1.23171
 H2969 H 0.39891 0.64258 1.34427
 H2970 H 0.41704 0.62930 1.30932
 H2971 H 0.35096 0.61930 1.27990
 H2972 H 0.33292 0.63272 1.31455
 H2973 H 0.36357 0.59732 1.21786
 H2974 H 0.38017 0.58356 1.18260
 H2975 H 0.44742 0.59208 1.21019
 H2976 H 0.43062 0.60614 1.24534
 C2977 C 1.11134 1.33385 0.86712
 C2978 C 1.10127 1.31425 0.87579
 C2979 C 1.11459 1.29537 0.88091
 C2980 C 1.13821 1.29633 0.87727
 C2981 C 1.14824 1.31584 0.86857
 C2982 C 1.13491 1.33476 0.86333
 N2983 N 1.10389 1.27543 0.88963
 N2984 N 1.11546 1.25815 0.89506
 C2985 C 1.10541 1.23787 0.90366
 C2986 C 1.11970 1.22008 0.90977
 C2987 C 1.11064 1.19994 0.91811
 C2988 C 1.08700 1.19723 0.92045
 C2989 C 1.07263 1.21511 0.91423
 C2990 C 1.08175 1.23532 0.90594
 H2991 H 1.10081 1.34834 0.86338
 H2992 H 1.08307 1.31376 0.87855
 H2993 H 1.14891 1.28199 0.88105
 H2994 H 1.16642 1.31616 0.86570
 H2995 H 1.13794 1.22182 0.90798
 H2996 H 1.12212 1.18635 0.92241
 H2997 H 1.05437 1.21354 0.91601
 H2998 H 1.07037 1.24888 0.90130
 C2999 C 1.13275 0.81082 0.34331
 C3000 C 1.12391 0.79034 0.35097
 C3001 C 1.12066 0.78652 0.37399
 C3002 C 1.12673 0.80338 0.38946
 C3003 C 1.13564 0.82392 0.38179
 C3004 C 1.13851 0.82789 0.35862
 N3005 N 1.11101 0.76548 0.38107
 N3006 N 1.10688 0.76087 0.40162
 C3007 C 1.09718 0.73970 0.40832
 C3008 C 1.09368 0.73533 0.43123
 C3009 C 1.08475 0.71463 0.43832
 C3010 C 1.07909 0.69794 0.42252
 C3011 C 1.08229 0.70251 0.39949
 C3012 C 1.09128 0.72319 0.39243
 H3013 H 1.13503 0.81341 0.32538
 H3014 H 1.11938 0.77745 0.33892
 H3015 H 1.12443 0.80076 0.40737
 H3016 H 1.13991 0.83688 0.39385
 H3017 H 1.09805 0.74794 0.44362
 H3018 H 1.08223 0.71168 0.45616
 H3019 H 1.07836 0.68988 0.38696
 H3020 H 1.09381 0.72616 0.37460
 C3021 C 0.61487 1.33050 0.36497
 C3022 C 0.60478 1.31143 0.37466
 C3023 C 0.61776 1.29218 0.37910
 C3024 C 0.64122 1.29246 0.37441
 C3025 C 0.65130 1.31151 0.36471
 C3026 C 0.63812 1.33052 0.35950
 N3027 N 0.60667 1.27234 0.38754
 N3028 N 0.61762 1.25426 0.39139
 C3029 C 0.60689 1.23405 0.39930
 C3030 C 0.62053 1.21547 0.40442
 C3031 C 0.61078 1.19543 0.41217
 C3032 C 0.58709 1.19358 0.41483
 C3033 C 0.57333 1.21215 0.40936
 C3034 C 0.58316 1.23230 0.40172
 H3035 H 0.60448 1.34508 0.36119
 H3036 H 0.58672 1.31146 0.37826
 H3037 H 0.65165 1.27782 0.37774
 H3038 H 0.66923 1.31117 0.36054
 H3039 H 0.63880 1.21657 0.40245
 H3040 H 0.62176 1.18128 0.41594
 H3041 H 0.55505 1.21119 0.41138
 H3042 H 0.57226 1.24644 0.39774
 C3043 C 0.66165 0.81206 0.86236
 C3044 C 0.65422 0.79160 0.87151
 C3045 C 0.63102 0.78746 0.87472
 C3046 C 0.61520 0.80413 0.86864
 C3047 C 0.62262 0.82464 0.85950
 C3048 C 0.64594 0.82883 0.85628
 N3049 N 0.62408 0.76621 0.88404
 N3050 N 0.60329 0.76112 0.88722
 C3051 C 0.59649 0.73976 0.89642
 C3052 C 0.57330 0.73502 0.89879
 C3053 C 0.56608 0.71418 0.90727
 C3054 C 0.58201 0.69769 0.91363
 C3055 C 0.60531 0.70260 0.91146
 C3056 C 0.61250 0.72343 0.90290
 H3057 H 0.67969 0.81473 0.85983
 H3058 H 0.66658 0.77887 0.87604
 H3059 H 0.59715 0.80134 0.87097
 H3060 H 0.61019 0.83734 0.85507
 H3061 H 0.56079 0.74747 0.89393
 H3062 H 0.54803 0.71099 0.90899
 H3063 H 0.61797 0.69015 0.91595
 H3064 H 0.63054 0.72667 0.90122
 C3065 C 0.88642 1.32740 1.14068
 C3066 C 0.89690 1.30792 1.13248
 C3067 C 0.88379 1.28968 1.12521
 C3068 C 0.85994 1.29129 1.12579
 C3069 C 0.84946 1.31078 1.13390
 C3070 C 0.86260 1.32893 1.14161
 N3071 N 0.89501 1.26963 1.11767
 N3072 N 0.88390 1.25212 1.11209
 C3073 C 0.89468 1.23187 1.10454
 C3074 C 0.88100 1.21358 1.09861
 C3075 C 0.89076 1.19366 1.09075
 C3076 C 0.91449 1.19168 1.08864
 C3077 C 0.92827 1.20994 1.09499
 C3078 C 0.91845 1.22994 1.10284
 H3079 H 0.89684 1.34124 1.14650
 H3080 H 0.91528 1.30692 1.13207
 H3081 H 0.84941 1.27743 1.12022
 H3082 H 0.83108 1.31155 1.13468
 H3083 H 0.86268 1.21483 1.09999
 H3084 H 0.87972 1.17974 1.08637
 H3085 H 0.94659 1.20892 1.09341
 H3086 H 0.92937 1.24388 1.10738
 C3087 C 0.88432 0.82666 0.64149
 C3088 C 0.89423 0.80714 0.63270
 C3089 C 0.88060 0.78947 0.62498
 C3090 C 0.85680 0.79164 0.62585
 C3091 C 0.84689 0.81115 0.63460
 C3092 C 0.86056 0.82879 0.64262
 N3093 N 0.89125 0.76943 0.61664
 N3094 N 0.87969 0.75255 0.61010
 C3095 C 0.89001 0.73233 0.60186
 C3096 C 0.87596 0.71461 0.59508
 C3097 C 0.88534 0.69462 0.58691
 C3098 C 0.90905 0.69199 0.58535
 C3099 C 0.92317 0.70977 0.59232
 C3100 C 0.91373 0.72981 0.60049
 H3101 H 0.89515 0.84010 0.64751
 H3102 H 0.91256 0.80570 0.63209
 H3103 H 0.84588 0.77821 0.61998
 H3104 H 0.82855 0.81236 0.63550
 H3105 H 0.85766 0.71631 0.59617
 H3106 H 0.87402 0.68110 0.58204
 H3107 H 0.94147 0.70829 0.59115
 H3108 H 0.92495 0.74330 0.60565
 C3109 C 0.37895 1.32551 0.64238
 C3110 C 0.38937 1.30698 0.63220
 C3111 C 0.37633 1.28877 0.62472
 C3112 C 0.35253 1.28954 0.62705
 C3113 C 0.34208 1.30812 0.63720
 C3114 C 0.35523 1.32615 0.64522
 N3115 N 0.38770 1.26954 0.61544
 N3116 N 0.37691 1.25208 0.60910
 C3117 C 0.38817 1.23263 0.60018
 C3118 C 0.37499 1.21433 0.59322
 C3119 C 0.38530 1.19501 0.58454
 C3120 C 0.40910 1.19362 0.58265
 C3121 C 0.42236 1.21196 0.58983
 C3122 C 0.41199 1.23134 0.59848
 H3123 H 0.38939 1.33926 0.64835
 H3124 H 0.40770 1.30662 0.63046
 H3125 H 0.34207 1.27568 0.62138
 H3126 H 0.32380 1.30816 0.63939
 H3127 H 0.35664 1.21505 0.59458
 H3128 H 0.37464 1.18103 0.57951
 H3129 H 0.44071 1.21142 0.58844
 H3130 H 0.42255 1.24527 0.60381
 C3131 C 0.38465 0.82887 1.13847
 C3132 C 0.39498 0.81005 1.12876
 C3133 C 0.38183 0.79171 1.12179
 C3134 C 0.35804 0.79266 1.12408
 C3135 C 0.34769 0.81151 1.13375
 C3136 C 0.36093 0.82967 1.14130
 N3137 N 0.39305 0.77214 1.11311
 N3138 N 0.38208 0.75461 1.10734
 C3139 C 0.39308 0.73477 1.09903
 C3140 C 0.37965 0.71649 1.09254
 C3141 C 0.38970 0.69683 1.08439
 C3142 C 0.41348 0.69509 1.08259
 C3143 C 0.42700 0.71339 1.08936
 C3144 C 0.41688 0.73313 1.09747
 H3145 H 0.39514 0.84273 1.14413
 H3146 H 0.41330 0.80955 1.12705
 H3147 H 0.34750 0.77869 1.11880
 H3148 H 0.32942 0.81168 1.13598
 H3149 H 0.36131 0.71751 1.09382
 H3150 H 0.37886 0.68287 1.07966
 H3151 H 0.44534 0.71255 1.08803
 H3152 H 0.42763 0.74705 1.10247
 C3153 C 0.84418 0.68909 0.86504
 C3154 C 0.85148 0.70988 0.87325
 C3155 C 0.87465 0.71436 0.87576
 C3156 C 0.89063 0.69785 0.86954
 C3157 C 0.88332 0.67700 0.86125
 C3158 C 0.86001 0.67235 0.85918
 N3159 N 0.88135 0.73565 0.88490
 N3160 N 0.90203 0.74087 0.88829
 C3161 C 0.90838 0.76224 0.89756
 C3162 C 0.93144 0.76726 0.90017
 C3163 C 0.93820 0.78812 0.90877
 C3164 C 0.92192 0.80433 0.91498
 C3165 C 0.89874 0.79913 0.91264
 C3166 C 0.89201 0.77828 0.90397
 H3167 H 0.82613 0.68601 0.86335
 H3168 H 0.83902 0.72250 0.87788
 H3169 H 0.90866 0.70096 0.87128
 H3170 H 0.89579 0.66431 0.85688
 H3171 H 0.94421 0.75502 0.89541
 H3172 H 0.95617 0.79155 0.91064
 H3173 H 0.88583 0.81136 0.91704
 H3174 H 0.87405 0.77480 0.90213
 C3175 C 0.86455 0.17000 0.38570
 C3176 C 0.87331 0.18938 0.39581
 C3177 C 0.88099 0.20741 0.38257
 C3178 C 0.88026 0.20568 0.35896
 C3179 C 0.87156 0.18628 0.34885
 C3180 C 0.86343 0.16836 0.36214
 N3181 N 0.88892 0.22745 0.39342
 N3182 N 0.89496 0.24478 0.38223
 C3183 C 0.90268 0.26505 0.39276
 C3184 C 0.90889 0.28329 0.37911
 C3185 C 0.91649 0.30337 0.38870
 C3186 C 0.91804 0.30554 0.41222
 C3187 C 0.91161 0.28723 0.42594
 C3188 C 0.90401 0.26711 0.41630
 H3189 H 0.85841 0.15633 0.39623
 H3190 H 0.87382 0.19049 0.41400
 H3191 H 0.88611 0.21939 0.34834
 H3192 H 0.87065 0.18544 0.33067
 H3193 H 0.90780 0.28194 0.36097
 H3194 H 0.92094 0.31730 0.37769
 H3195 H 0.91280 0.28837 0.44409
 H3196 H 0.89927 0.25320 0.42720
 C3197 C 0.36404 0.66825 0.38667
 C3198 C 0.37178 0.68789 0.39712
 C3199 C 0.37838 0.70658 0.38420
 C3200 C 0.37739 0.70532 0.36057
 C3201 C 0.36968 0.68571 0.35013
 C3202 C 0.36281 0.66702 0.36307
 N3203 N 0.38583 0.72663 0.39537
 N3204 N 0.39160 0.74419 0.38439
 C3205 C 0.39914 0.76445 0.39506
 C3206 C 0.40577 0.78261 0.38149
 C3207 C 0.41367 0.80252 0.39115
 C3208 C 0.41506 0.80465 0.41468
 C3209 C 0.40801 0.78652 0.42835
 C3210 C 0.40016 0.76652 0.41862
 H3211 H 0.35892 0.65401 0.39695
 H3212 H 0.37250 0.68862 0.41531
 H3213 H 0.38240 0.71953 0.35019
 H3214 H 0.36866 0.68522 0.33194
 H3215 H 0.40492 0.78126 0.36333
 H3216 H 0.41860 0.81634 0.38020
 H3217 H 0.40902 0.78767 0.44652
 H3218 H 0.39506 0.75268 0.42946
 C3219 C 0.38652 0.17046 0.86244
 C3220 C 0.39654 0.18931 0.87238
 C3221 C 0.38309 0.20729 0.87975
 C3222 C 0.35933 0.20600 0.87753
 C3223 C 0.34930 0.18714 0.86763
 C3224 C 0.36283 0.16930 0.85976
 N3225 N 0.39395 0.22689 0.88875
 N3226 N 0.38265 0.24411 0.89485
 C3227 C 0.39325 0.26401 0.90345
 C3228 C 0.37949 0.28212 0.90981
 C3229 C 0.38917 0.30194 0.91798
 C3230 C 0.41290 0.30400 0.91995
 C3231 C 0.42673 0.28580 0.91347
 C3232 C 0.41699 0.26592 0.90531
 H3233 H 0.39724 0.15684 0.85655
 H3234 H 0.41484 0.19008 0.87402
 H3235 H 0.34856 0.21970 0.88310
 H3236 H 0.33104 0.18671 0.86554
 H3237 H 0.36120 0.28088 0.90831
 H3238 H 0.37809 0.31580 0.92247
 H3239 H 0.44503 0.28685 0.91497
 H3240 H 0.42798 0.25213 0.90046
 C3241 C 1.13638 0.66644 1.11257
 C3242 C 1.12901 0.68610 1.10179
 C3243 C 1.12285 0.70504 1.11439
 C3244 C 1.12383 0.70401 1.13804
 C3245 C 1.13113 0.68437 1.14881
 C3246 C 1.13761 0.66544 1.13619
 N3247 N 1.11579 0.72513 1.10291
 N3248 N 1.11087 0.74301 1.11364
 C3249 C 1.10362 0.76332 1.10279
 C3250 C 1.09803 0.78183 1.11621
 C3251 C 1.09016 0.80174 1.10644
 C3252 C 1.08774 0.80352 1.08296
 C3253 C 1.09388 0.78509 1.06940
 C3254 C 1.10170 0.76507 1.07925
 H3255 H 1.14124 0.65200 1.10254
 H3256 H 1.12828 0.68664 1.08358
 H3257 H 1.11913 0.71841 1.14819
 H3258 H 1.13217 0.68407 1.16701
 H3259 H 1.09959 0.78071 1.13434
 H3260 H 1.08594 0.81579 1.11728
 H3261 H 1.09208 0.78600 1.05128
 H3262 H 1.10600 0.75096 1.06853
 C3263 C 1.13129 0.18911 0.65804
 C3264 C 1.12157 0.20921 0.65053
 C3265 C 1.11916 0.21341 0.62749
 C3266 C 1.12655 0.19719 0.61188
 C3267 C 1.13629 0.17705 0.61938
 C3268 C 1.13875 0.17286 0.64253
 N3269 N 1.10946 0.23437 0.62050
 N3270 N 1.10664 0.23946 0.59987
 C3271 C 1.09723 0.26069 0.59322
 C3272 C 1.09485 0.26551 0.57029
 C3273 C 1.08638 0.28638 0.56329
 C3274 C 1.08012 0.30277 0.57921
 C3275 C 1.08227 0.29776 0.60224
 C3276 C 1.09075 0.27691 0.60921
 H3277 H 1.13322 0.18631 0.67595
 H3278 H 1.11601 0.22162 0.66269
 H3279 H 1.12486 0.20009 0.59396
 H3280 H 1.14186 0.16467 0.60719
 H3281 H 1.09974 0.25313 0.55782
 H3282 H 1.08466 0.28969 0.54543
 H3283 H 1.07789 0.31015 0.61488
 H3284 H 1.09248 0.27361 0.62705
 C3285 C 0.63035 0.66755 0.60962
 C3286 C 0.62231 0.68738 0.59971
 C3287 C 0.61560 0.70555 0.61314
 C3288 C 0.61642 0.70346 0.63672
 C3289 C 0.62439 0.68362 0.64663
 C3290 C 0.63170 0.66560 0.63316
 N3291 N 0.60865 0.72611 0.60251
 N3292 N 0.60359 0.74350 0.61395
 C3293 C 0.59685 0.76432 0.60376
 C3294 C 0.59104 0.78232 0.61775
 C3295 C 0.58409 0.80283 0.60854
 C3296 C 0.58284 0.80569 0.58507
 C3297 C 0.58907 0.78770 0.57098
 C3298 C 0.59597 0.76711 0.58026
 H3299 H 0.63589 0.65382 0.59896
 H3300 H 0.62172 0.68877 0.58154
 H3301 H 0.61128 0.71726 0.64748
 H3302 H 0.62553 0.68256 0.66479
 H3303 H 0.59182 0.78040 0.63587
 H3304 H 0.57975 0.81652 0.61979
 H3305 H 0.58812 0.78943 0.55285
 H3306 H 0.60047 0.75340 0.56911
 C3307 C 0.63808 0.17028 1.11356
 C3308 C 0.62960 0.18972 1.10325
 C3309 C 0.62201 0.20783 1.11630
 C3310 C 0.62256 0.20611 1.13993
 C3311 C 0.63097 0.18666 1.15024
 C3312 C 0.63898 0.16865 1.13715
 N3313 N 0.61427 0.22789 1.10527
 N3314 N 0.60821 0.24520 1.11637
 C3315 C 0.60059 0.26551 1.10578
 C3316 C 0.59419 0.28361 1.11940
 C3317 C 0.58651 0.30368 1.10978
 C3318 C 0.58506 0.30599 1.08626
 C3319 C 0.59176 0.28787 1.07255
 C3320 C 0.59943 0.26774 1.08223
 H3321 H 0.64413 0.15654 1.10319
 H3322 H 0.62923 0.19082 1.08505
 H3323 H 0.61677 0.21987 1.15041
 H3324 H 0.63174 0.18584 1.16844
 H3325 H 0.59515 0.28213 1.13755
 H3326 H 0.58185 0.31747 1.12077
 H3327 H 0.59067 0.28914 1.05439
 H3328 H 0.60434 0.25394 1.07136
 C3329 C 1.31440 1.13504 0.84062
 C3330 C 1.29396 1.12573 0.84828
 C3331 C 1.29030 1.12206 0.87128
 C3332 C 1.30743 1.12776 0.88669
 C3333 C 1.32792 1.13706 0.87903
 C3334 C 1.33161 1.14080 0.85592
 N3335 N 1.26900 1.11274 0.87847
 N3336 N 1.26425 1.10921 0.89911
 C3337 C 1.24278 1.10008 0.90608
 C3338 C 1.23836 1.09722 0.92908
 C3339 C 1.21738 1.08885 0.93643
 C3340 C 1.20044 1.08312 0.92082
 C3341 C 1.20502 1.08580 0.89771
 C3342 C 1.22598 1.09422 0.89039
 H3343 H 1.31670 1.13799 0.82276
 H3344 H 1.28086 1.12148 0.83626
 H3345 H 1.30498 1.12507 0.90457
 H3346 H 1.34097 1.14126 0.89111
 H3347 H 1.25119 1.10162 0.94133
 H3348 H 1.21443 1.08674 0.95433
 H3349 H 1.19221 1.08182 0.88530
 H3350 H 1.22896 1.09631 0.87250
 C3351 C 1.33120 0.61323 0.36202
 C3352 C 1.31132 0.60334 0.37051
 C3353 C 1.29328 0.61681 0.37797
 C3354 C 1.29531 0.64040 0.37677
 C3355 C 1.31514 0.65028 0.36829
 C3356 C 1.33332 0.63681 0.36090
 N3357 N 1.27314 0.60623 0.38668
 N3358 N 1.25633 0.61774 0.39377
 C3359 C 1.23603 0.60759 0.40253
 C3360 C 1.21835 0.62160 0.40975
 C3361 C 1.19821 0.61239 0.41828
 C3362 C 1.19540 0.58888 0.41975
 C3363 C 1.21321 0.57481 0.41251
 C3364 C 1.23338 0.58408 0.40398
 H3365 H 1.34503 0.60253 0.35651
 H3366 H 1.30997 0.58515 0.37134
 H3367 H 1.28160 0.65120 0.38235
 H3368 H 1.31627 0.66848 0.36737
 H3369 H 1.22017 0.63974 0.40864
 H3370 H 1.18469 0.62367 0.42336
 H3371 H 1.21163 0.55666 0.41365
 H3372 H 1.24685 0.57290 0.39855
 C3373 C 0.81428 1.15680 0.36606
 C3374 C 0.79354 1.14943 0.37490
 C3375 C 0.78934 1.12642 0.37798
 C3376 C 0.80613 1.11070 0.37183
 C3377 C 0.82692 1.11807 0.36293
 C3378 C 0.83124 1.14121 0.36012
 N3379 N 0.76798 1.11961 0.38744
 N3380 N 0.76296 1.09904 0.39112
 C3381 C 0.74147 1.09251 0.40055
 C3382 C 0.73668 1.06958 0.40340
 C3383 C 0.71564 1.06263 0.41198
 C3384 C 0.69902 1.07859 0.41795
 C3385 C 0.70402 1.10165 0.41543
 C3386 C 0.72504 1.10856 0.40678
 H3387 H 0.81714 1.17471 0.36385
 H3388 H 0.78071 1.16169 0.37949
 H3389 H 0.80324 1.09280 0.37402
 H3390 H 0.83980 1.10580 0.35856
 H3391 H 0.74922 1.05706 0.39876
 H3392 H 0.71236 1.04477 0.41398
 H3393 H 0.69146 1.11431 0.41964
 H3394 H 0.72835 1.12641 0.40476
 C3395 C 0.83064 0.63980 0.88596
 C3396 C 0.81113 0.63091 0.89617
 C3397 C 0.79337 0.62257 0.88300
 C3398 C 0.79544 0.62292 0.85940
 C3399 C 0.81491 0.63176 0.84921
 C3400 C 0.83264 0.64040 0.86238
 N3401 N 0.77327 0.61420 0.89385
 N3402 N 0.75638 0.60723 0.88253
 C3403 C 0.73600 0.59897 0.89287
 C3404 C 0.71828 0.59183 0.87902
 C3405 C 0.69807 0.58375 0.88840
 C3406 C 0.69526 0.58263 0.91190
 C3407 C 0.71307 0.58992 0.92582
 C3408 C 0.73333 0.59802 0.91638
 H3409 H 0.84417 0.64633 0.89639
 H3410 H 0.80974 0.63071 0.91436
 H3411 H 0.78193 0.61659 0.84883
 H3412 H 0.81601 0.63228 0.83101
 H3413 H 0.72013 0.59262 0.86088
 H3414 H 0.68451 0.57862 0.87725
 H3415 H 0.71144 0.58907 0.94397
 H3416 H 0.74684 0.60346 0.92741
 C3417 C 1.31245 0.86447 1.16043
 C3418 C 1.29209 0.87373 1.15271
 C3419 C 1.28841 0.87677 1.12965
 C3420 C 1.30548 0.87049 1.11426
 C3421 C 1.32589 0.86123 1.12197
 C3422 C 1.32958 0.85809 1.14515
 N3423 N 1.26718 0.88603 1.12238
 N3424 N 1.26248 0.88903 1.10168
 C3425 C 1.24111 0.89813 1.09458
 C3426 C 1.23689 0.90060 1.07153
 C3427 C 1.21606 0.90904 1.06403
 C3428 C 1.19905 0.91522 1.07953
 C3429 C 1.20340 0.91287 1.10269
 C3430 C 1.22422 0.90439 1.11016
 H3431 H 1.31473 0.86202 1.17835
 H3432 H 1.27905 0.87844 1.16473
 H3433 H 1.30305 0.87269 1.09633
 H3434 H 1.33887 0.85659 1.10987
 H3435 H 1.24978 0.89589 1.05935
 H3436 H 1.21332 0.91089 1.04610
 H3437 H 1.19053 0.91720 1.11504
 H3438 H 1.22703 0.90260 1.12808
 C3439 C 1.30674 0.36079 0.66498
 C3440 C 1.28661 0.37073 0.65748
 C3441 C 1.28309 0.37459 0.63451
 C3442 C 1.30003 0.36829 0.61898
 C3443 C 1.32020 0.35832 0.62647
 C3444 C 1.32379 0.35451 0.64956
 N3445 N 1.26219 0.38479 0.62747
 N3446 N 1.25786 0.38892 0.60688
 C3447 C 1.23686 0.39892 0.59986
 C3448 C 1.23308 0.40232 0.57686
 C3449 C 1.21254 0.41141 0.56934
 C3450 C 1.19535 0.41732 0.58477
 C3451 C 1.19933 0.41424 0.60791
 C3452 C 1.21989 0.40508 0.61541
 H3453 H 1.30897 0.35786 0.68283
 H3454 H 1.27367 0.37543 0.66961
 H3455 H 1.29772 0.37108 0.60112
 H3456 H 1.33312 0.35377 0.61428
 H3457 H 1.24604 0.39774 0.56471
 H3458 H 1.21010 0.41384 0.55144
 H3459 H 1.18634 0.41839 0.62019
 H3460 H 1.22239 0.40262 0.63329
 C3461 C 0.82995 0.86128 0.61848
 C3462 C 0.81065 0.87023 0.60814
 C3463 C 0.79192 0.87693 0.62107
 C3464 C 0.79285 0.87491 0.64466
 C3465 C 0.81217 0.86599 0.65502
 C3466 C 0.83085 0.85891 0.64203
 N3467 N 0.77210 0.88537 0.60988
 N3468 N 0.75433 0.89118 0.62069
 C3469 C 0.73433 0.89947 0.60975
 C3470 C 0.71574 0.90581 0.62301
 C3471 C 0.69595 0.91405 0.61304
 C3472 C 0.69440 0.91612 0.58949
 C3473 C 0.71303 0.90953 0.57614
 C3474 C 0.73288 0.90130 0.58618
 H3475 H 0.84418 0.85607 0.60813
 H3476 H 0.81018 0.87174 0.58997
 H3477 H 0.77860 0.87998 0.65505
 H3478 H 0.81236 0.86415 0.67316
 H3479 H 0.71659 0.90435 0.64117
 H3480 H 0.68177 0.91862 0.62376
 H3481 H 0.71239 0.91108 0.55798
 H3482 H 0.74704 0.89647 0.57556
 C3483 C 0.83163 0.36048 1.11691
 C3484 C 0.81240 0.36923 1.10625
 C3485 C 0.79359 0.37623 1.11891
 C3486 C 0.79437 0.37466 1.14254
 C3487 C 0.81361 0.36592 1.15322
 C3488 C 0.83239 0.35858 1.14050
 N3489 N 0.77388 0.38453 1.10743
 N3490 N 0.75616 0.39083 1.11803
 C3491 C 0.73625 0.39904 1.10685
 C3492 C 0.71786 0.40625 1.11995
 C3493 C 0.69822 0.41456 1.10976
 C3494 C 0.69657 0.41580 1.08617
 C3495 C 0.71496 0.40827 1.07299
 C3496 C 0.73469 0.40001 1.08324
 H3497 H 0.84593 0.35508 1.10674
 H3498 H 0.81206 0.37039 1.08805
 H3499 H 0.78005 0.37995 1.15274
 H3500 H 0.81364 0.36444 1.17139
 H3501 H 0.71879 0.40546 1.13814
 H3502 H 0.68420 0.41986 1.12037
 H3503 H 0.71422 0.40914 1.05479
 H3504 H 0.74869 0.39447 1.07274
 C3505 C 0.68796 1.15638 1.13361
 C3506 C 0.70873 1.14865 1.12526
 C3507 C 0.71271 1.12556 1.12283
 C3508 C 0.69565 1.11010 1.12908
 C3509 C 0.67482 1.11783 1.13749
 C3510 C 0.67074 1.14105 1.13969
 N3511 N 0.73414 1.11839 1.11387
 N3512 N 0.73904 1.09774 1.11078
 C3513 C 0.76060 1.09098 1.10176
 C3514 C 0.76519 1.06801 1.09912
 C3515 C 0.78620 1.06090 1.09064
 C3516 C 0.80298 1.07674 1.08460
 C3517 C 0.79824 1.09982 1.08711
 C3518 C 0.77726 1.10690 1.09562
 H3519 H 0.68529 1.17434 1.13537
 H3520 H 0.72177 1.16071 1.12057
 H3521 H 0.69837 1.09214 1.12737
 H3522 H 0.66174 1.10575 1.14200
 H3523 H 0.75248 1.05559 1.10371
 H3524 H 0.78927 1.04302 1.08866
 H3525 H 0.81092 1.11241 1.08290
 H3526 H 0.77414 1.12477 1.09753
 C3527 C 0.68058 0.65357 0.62871
 C3528 C 0.70134 0.64606 0.62016
 C3529 C 0.70544 0.62302 0.61747
 C3530 C 0.68848 0.60739 0.62357
 C3531 C 0.66765 0.61491 0.63216
 C3532 C 0.66349 0.63807 0.63471
 N3533 N 0.72695 0.61608 0.60860
 N3534 N 0.73203 0.59549 0.60543
 C3535 C 0.75376 0.58899 0.59664
 C3536 C 0.75863 0.56608 0.59398
 C3537 C 0.77988 0.55923 0.58594
 C3538 C 0.79662 0.57527 0.58037
 C3539 C 0.79158 0.59829 0.58281
 C3540 C 0.77035 0.60511 0.59089
 H3541 H 0.67785 0.67150 0.63077
 H3542 H 0.71432 0.65824 0.61561
 H3543 H 0.69130 0.58947 0.62166
 H3544 H 0.65467 0.60271 0.63662
 H3545 H 0.74596 0.55351 0.59829
 H3546 H 0.78321 0.54138 0.58399
 H3547 H 0.80423 0.61102 0.57895
 H3548 H 0.76702 0.62294 0.59282
 C3549 C 0.18690 1.15989 0.63389
 C3550 C 0.20715 1.15243 0.62411
 C3551 C 0.21097 1.12942 0.62076
 C3552 C 0.19424 1.11379 0.62744
 C3553 C 0.17394 1.12124 0.63726
 C3554 C 0.17003 1.14438 0.64050
 N3555 N 0.23199 1.12247 0.61070
 N3556 N 0.23668 1.10187 0.60701
 C3557 C 0.25787 1.09511 0.59715
 C3558 C 0.26227 1.07212 0.59432
 C3559 C 0.28309 1.06492 0.58549
 C3560 C 0.29988 1.08067 0.57926
 C3561 C 0.29526 1.10378 0.58173
 C3562 C 0.27446 1.11096 0.59063
 H3563 H 0.18444 1.17778 0.63644
 H3564 H 0.21995 1.16462 0.61913
 H3565 H 0.19682 1.09589 0.62505
 H3566 H 0.16116 1.10900 0.64213
 H3567 H 0.24961 1.05975 0.59919
 H3568 H 0.28607 1.04702 0.58354
 H3569 H 0.30796 1.11628 0.57732
 H3570 H 0.27147 1.12884 0.59265
 C3571 C 0.16885 0.61148 1.13844
 C3572 C 0.18883 0.60143 1.13051
 C3573 C 0.20707 0.61475 1.12312
 C3574 C 0.20511 0.63836 1.12376
 C3575 C 0.18518 0.64841 1.13166
 C3576 C 0.16683 0.63508 1.13904
 N3577 N 0.22732 0.60403 1.11502
 N3578 N 0.24435 0.61546 1.10822
 C3579 C 0.26479 0.60528 1.09997
 C3580 C 0.28255 0.61928 1.09283
 C3581 C 0.30271 0.61007 1.08450
 C3582 C 0.30546 0.58656 1.08315
 C3583 C 0.28763 0.57249 1.09047
 C3584 C 0.26742 0.58176 1.09880
 H3585 H 0.15489 0.60090 1.14398
 H3586 H 0.19012 0.58322 1.13010
 H3587 H 0.21896 0.64906 1.11819
 H3588 H 0.18412 0.66662 1.13220
 H3589 H 0.28074 0.63743 1.09375
 H3590 H 0.31627 0.62135 1.07937
 H3591 H 0.28920 0.55433 1.08946
 H3592 H 0.25388 0.57059 1.10421
 C3593 C 0.69057 0.86848 0.83922
 C3594 C 0.71064 0.87842 0.84677
 C3595 C 0.71490 0.88034 0.86983
 C3596 C 0.69880 0.87213 0.88540
 C3597 C 0.67870 0.86214 0.87785
 C3598 C 0.67441 0.86024 0.85469
 N3599 N 0.73580 0.89040 0.87689
 N3600 N 0.74071 0.89310 0.89755
 C3601 C 0.76184 0.90285 0.90441
 C3602 C 0.76629 0.90511 0.92741
 C3603 C 0.78709 0.91378 0.93467
 C3604 C 0.80382 0.92036 0.91897
 C3605 C 0.79915 0.91841 0.89587
 C3606 C 0.77835 0.90972 0.88863
 H3607 H 0.68769 0.86702 0.82129
 H3608 H 0.72295 0.88461 0.83463
 H3609 H 0.70175 0.87340 0.90333
 H3610 H 0.66641 0.85600 0.89003
 H3611 H 0.75368 0.89995 0.93972
 H3612 H 0.79010 0.91534 0.95257
 H3613 H 0.81181 0.92307 0.88339
 H3614 H 0.77533 0.90810 0.87074
 C3615 C 0.68724 0.36241 0.33926
 C3616 C 0.70798 0.37127 0.34649
 C3617 C 0.71153 0.37594 0.36930
 C3618 C 0.69401 0.37158 0.38491
 C3619 C 0.67323 0.36280 0.37767
 C3620 C 0.66959 0.35827 0.35476
 N3621 N 0.73299 0.38505 0.37611
 N3622 N 0.73761 0.38899 0.39665
 C3623 C 0.75905 0.39810 0.40351
 C3624 C 0.76337 0.40066 0.42651
 C3625 C 0.78424 0.40911 0.43384
 C3626 C 0.80117 0.41530 0.41820
 C3627 C 0.79670 0.41297 0.39508
 C3628 C 0.77585 0.40438 0.38778
 H3629 H 0.68496 0.35871 0.32158
 H3630 H 0.72137 0.37444 0.33432
 H3631 H 0.69633 0.37503 0.40263
 H3632 H 0.65987 0.35970 0.38989
 H3633 H 0.75054 0.39596 0.43879
 H3634 H 0.78710 0.41096 0.45174
 H3635 H 0.80951 0.41737 0.38267
 H3636 H 0.77292 0.40257 0.36990
 C3637 C 0.16744 0.88362 0.36240
 C3638 C 0.18703 0.89404 0.37064
 C3639 C 0.20580 0.88112 0.37706
 C3640 C 0.20461 0.85748 0.37557
 C3641 C 0.18501 0.84705 0.36736
 C3642 C 0.16631 0.86003 0.36047
 N3643 N 0.22594 0.89235 0.38466
 N3644 N 0.24378 0.88148 0.38997
 C3645 C 0.26412 0.89234 0.39750
 C3646 C 0.28261 0.87892 0.40366
 C3647 C 0.30261 0.88876 0.41151
 C3648 C 0.30451 0.91233 0.41331
 C3649 C 0.28608 0.92585 0.40671
 C3650 C 0.26598 0.91594 0.39893
 H3651 H 0.15320 0.89398 0.35731
 H3652 H 0.18769 0.91225 0.37176
 H3653 H 0.21888 0.84709 0.38047
 H3654 H 0.18467 0.82887 0.36585
 H3655 H 0.28145 0.86074 0.40249
 H3656 H 0.31666 0.87793 0.41612
 H3657 H 0.28704 0.94403 0.40805
 H3658 H 0.25190 0.92667 0.39420
 C3659 C 0.16703 0.36568 0.88818
 C3660 C 0.18706 0.37304 0.89839
 C3661 C 0.20641 0.37762 0.88537
 C3662 C 0.20555 0.37468 0.86189
 C3663 C 0.18554 0.36729 0.85169
 C3664 C 0.16607 0.36286 0.86473
 N3665 N 0.22664 0.38530 0.89630
 N3666 N 0.24458 0.39011 0.88524
 C3667 C 0.26491 0.39798 0.89580
 C3668 C 0.28346 0.40382 0.88219
 C3669 C 0.30339 0.41212 0.89175
 C3670 C 0.30515 0.41469 0.91521
 C3671 C 0.28664 0.40844 0.92893
 C3672 C 0.26661 0.40021 0.91930
 H3673 H 0.15221 0.36226 0.89851
 H3674 H 0.18751 0.37522 0.91648
 H3675 H 0.22030 0.37801 0.85145
 H3676 H 0.18523 0.36485 0.83363
 H3677 H 0.28238 0.40207 0.86408
 H3678 H 0.31751 0.41644 0.88079
 H3679 H 0.28750 0.41036 0.94704
 H3680 H 0.25248 0.39576 0.93017
   
