data_POSCAR
  _audit_creation_date              2014-09-24
  _audit_creation_method            'ToBaCCo'
  _symmetry_space_group_name_H-M    'P1'
  _symmetry_Int_Tables_number       1
  _symmetry_cell_setting            triclinic
  loop_
  _symmetry_equiv_pos_as_xyz
 x,y,z
_cell_length_a 76.4882
_cell_length_b 77.2869
_cell_length_c 75.8641
_cell_angle_alpha 89.960600
_cell_angle_beta 90.034700
_cell_angle_gamma 90.010700
loop_
  _atom_site_label
  _atom_site_type_symbol
  _atom_site_fract_x
  _atom_site_fract_y
  _atom_site_fract_z
C1 C 0.30736 0.44117 0.92123
 C2 C 0.32263 0.44856 0.92829
 C3 C 0.33095 0.44139 0.94325
 C4 C 0.32322 0.42671 0.95116
 C5 C 0.30796 0.41918 0.94428
 C6 C 0.30010 0.42655 0.92937
 H7 H 0.32858 0.45918 0.92121
 H8 H 0.32859 0.42135 0.96317
 H9 H 0.28844 0.42070 0.92388
 C10 C 0.44314 0.83198 0.44368
 C11 C 0.42806 0.82420 0.45091
 C12 C 0.42036 0.80956 0.44317
 C13 C 0.42794 0.80239 0.42802
 C14 C 0.44299 0.80973 0.42055
 C15 C 0.45057 0.82433 0.42852
 H16 H 0.42251 0.82903 0.46306
 H17 H 0.42170 0.79149 0.42161
 H18 H 0.46186 0.83008 0.42227
 C19 C 0.93967 0.91657 0.80953
 C20 C 0.94717 0.92410 0.82460
 C21 C 0.93966 0.93882 0.83267
 C22 C 0.92444 0.94592 0.82495
 C23 C 0.91687 0.93860 0.80982
 C24 C 0.92462 0.92400 0.80219
 H25 H 0.95820 0.91764 0.83062
 H26 H 0.91846 0.95739 0.83042
 H27 H 0.91901 0.91849 0.79033
 C28 C 0.44203 -0.08261 0.30665
 C29 C 0.44974 -0.07461 0.32133
 C30 C 0.44235 -0.05971 0.32883
 C31 C 0.42721 -0.05260 0.32124
 C32 C 0.41936 -0.06035 0.30647
 C33 C 0.42693 -0.07531 0.29921
 H34 H 0.46161 -0.07997 0.32690
 H35 H 0.42109 -0.04146 0.32731
 H36 H 0.42085 -0.08148 0.28795
 C37 C 0.80523 0.30811 0.32747
 C38 C 0.82023 0.30019 0.32047
 C39 C 0.82854 0.30698 0.30548
 C40 C 0.82155 0.32178 0.29734
 C41 C 0.80655 0.32989 0.30413
 C42 C 0.79844 0.32290 0.31915
 H43 H 0.82564 0.28889 0.32691
 H44 H 0.82798 0.32720 0.28589
 H45 H 0.78700 0.32918 0.32458
 C46 C -0.19032 0.83371 0.80774
 C47 C -0.17481 0.82636 0.80098
 C48 C -0.16734 0.81161 0.80865
 C49 C -0.17545 0.80395 0.82325
 C50 C -0.19087 0.81086 0.83056
 C51 C -0.19822 0.82565 0.82246
 H52 H -0.16854 0.83184 0.78950
 H53 H -0.16993 0.79208 0.82837
 H54 H -0.20921 0.83191 0.82871
 C55 C 0.94185 0.33182 0.44413
 C56 C 0.92687 0.32412 0.45139
 C57 C 0.91948 0.30923 0.44383
 C58 C 0.92747 0.30184 0.42896
 C59 C 0.94256 0.30927 0.42156
 C60 C 0.94969 0.32422 0.42930
 H61 H 0.92098 0.32970 0.46306
 H62 H 0.92151 0.29073 0.42267
 H63 H 0.96119 0.33014 0.42356
 C64 C 0.44230 0.43924 0.83005
 C65 C 0.42764 0.44690 0.82180
 C66 C 0.41999 0.43954 0.80672
 C67 C 0.42727 0.42448 0.79955
 C68 C 0.44179 0.41655 0.80739
 C69 C 0.44924 0.42400 0.82251
 H70 H 0.42124 0.45795 0.82772
 H71 H 0.42168 0.41894 0.78770
 H72 H 0.46066 0.41787 0.82814
 C73 C 0.80922 0.91858 0.94286
 C74 C 0.82437 0.92613 0.95002
 C75 C 0.83221 0.94053 0.94196
 C76 C 0.82456 0.94754 0.92672
 C77 C 0.80948 0.94016 0.91930
 C78 C 0.80185 0.92573 0.92752
 H79 H 0.83025 0.92058 0.96172
 H80 H 0.83031 0.95890 0.92068
 H81 H 0.79057 0.91960 0.92155
 C82 C 0.30900 0.83256 0.30726
 C83 C 0.32411 0.82463 0.30018
 C84 C 0.33138 0.80975 0.30794
 C85 C 0.32331 0.80247 0.32279
 C86 C 0.30826 0.80994 0.33004
 C87 C 0.30117 0.82480 0.32217
 H88 H 0.33107 0.83059 0.28936
 H89 H 0.32894 0.79109 0.32890
 H90 H 0.28906 0.82982 0.32743
 C91 C 0.80814 0.41977 0.44366
 C92 C 0.82310 0.42749 0.45105
 C93 C 0.83112 0.44200 0.44312
 C94 C 0.82333 0.44888 0.42776
 C95 C 0.80837 0.44136 0.42022
 C96 C 0.80084 0.42685 0.42830
 H97 H 0.82882 0.42153 0.46258
 H98 H 0.82842 0.46058 0.42184
 H99 H 0.78969 0.42061 0.42221
 C100 C 0.94108 0.83293 -0.05764
 C101 C 0.92608 0.82516 -0.05018
 C102 C 0.91840 0.81039 -0.05768
 C103 C 0.92591 0.80308 -0.07278
 C104 C 0.94083 0.81042 -0.08050
 C105 C 0.94839 0.82518 -0.07281
 H106 H 0.92061 0.83009 -0.03804
 H107 H 0.91996 0.79179 -0.07872
 H108 H 0.95926 0.83121 -0.07953
 C109 C 0.30824 0.33040 0.80573
 C110 C 0.30015 0.32335 0.82073
 C111 C 0.30715 0.30873 0.82919
 C112 C 0.32235 0.30106 0.82237
 C113 C 0.33066 0.30792 0.80740
 C114 C 0.32345 0.32253 0.79912
 H115 H 0.28854 0.32944 0.82604
 H116 H 0.32791 0.28988 0.82892
 H117 H 0.32985 0.32798 0.78766
 C118 C 0.16977 0.55971 0.55700
 C119 C 0.17728 0.55256 0.57226
 C120 C 0.19206 0.56017 0.58009
 C121 C 0.19940 0.57503 0.57238
 C122 C 0.19205 0.58237 0.55715
 C123 C 0.17735 0.57453 0.54947
 H124 H 0.17116 0.54150 0.57849
 H125 H 0.21067 0.58107 0.57844
 H126 H 0.17184 0.57993 0.53752
 C127 C 0.57947 0.69179 0.05638
 C128 C 0.57147 0.69914 0.07128
 C129 C 0.55628 0.69184 0.07852
 C130 C 0.54892 0.67719 0.07050
 C131 C 0.55674 0.66957 0.05568
 C132 C 0.57196 0.67704 0.04861
 H133 H 0.57729 0.71037 0.07747
 H134 H 0.53700 0.67172 0.07582
 H135 H 0.57841 0.67091 0.03755
 C136 C 0.69193 0.19063 0.66996
 C137 C 0.67717 0.19788 0.67806
 C138 C 0.67037 0.19076 0.69362
 C139 C 0.67864 0.17632 0.70122
 C140 C 0.69342 0.16861 0.69331
 C141 C 0.69997 0.17615 0.67768
 H142 H 0.67054 0.20866 0.67184
 H143 H 0.67288 0.17074 0.71292
 H144 H 0.71181 0.17127 0.67170
 C145 C 1.08012 0.05899 0.19370
 C146 C 1.07227 0.05145 0.17882
 C147 C 1.05741 0.05892 0.17075
 C148 C 1.05049 0.07419 0.17827
 C149 C 1.05814 0.08184 0.19319
 C150 C 1.07285 0.07407 0.20086
 H151 H 1.07866 0.04042 0.17289
 H152 H 1.03894 0.08018 0.17277
 H153 H 1.07861 0.07975 0.21256
 C154 C 0.05933 0.16711 1.05929
 C155 C 0.05159 0.17468 1.07420
 C156 C 0.05862 0.18969 1.08208
 C157 C 0.07360 0.19715 1.07428
 C158 C 0.08158 0.18970 1.05943
 C159 C 0.07430 0.17474 1.05197
 H160 H 0.03958 0.16909 1.07913
 H161 H 0.07970 0.20840 1.08012
 H162 H 0.08069 0.16864 1.04086
 C163 C 0.16959 0.68995 0.69284
 C164 C 0.17705 0.67508 0.70038
 C165 C 0.19173 0.66715 0.69276
 C166 C 0.19914 0.67445 0.67754
 C167 C 0.19192 0.68936 0.66981
 C168 C 0.17717 0.69705 0.67759
 H169 H 0.17150 0.66972 0.71232
 H170 H 0.21040 0.66835 0.67153
 H171 H 0.17115 0.70816 0.67135
 C172 C 1.19115 0.16749 0.19314
 C173 C 1.19854 0.17483 0.17793
 C174 C 1.19095 0.18940 0.16990
 C175 C 1.17584 0.19670 0.17735
 C176 C 1.16826 0.18954 0.19256
 C177 C 1.17610 0.17503 0.20042
 H178 H 1.21008 0.16902 0.17216
 H179 H 1.16955 0.20754 0.17088
 H180 H 1.17052 0.16966 0.21235
 C181 C 0.66755 1.06169 0.55767
 C182 C 0.67547 1.05418 0.57263
 C183 C 0.69033 1.06155 0.58043
 C184 C 0.69759 1.07656 0.57307
 C185 C 0.69020 1.08451 0.55809
 C186 C 0.67523 1.07677 0.55050
 H187 H 0.66948 1.04321 0.57911
 H188 H 0.70956 1.08153 0.57874
 H189 H 0.66939 1.08266 0.53903
 C190 C 0.55787 0.55922 0.16996
 C191 C 0.55061 0.57380 0.17824
 C192 C 0.55851 0.58108 0.19323
 C193 C 0.57379 0.57347 0.20002
 C194 C 0.58128 0.55891 0.19191
 C195 C 0.57315 0.55182 0.17695
 H196 H 0.53894 0.57968 0.17281
 H197 H 0.58005 0.57908 0.21148
 H198 H 0.57891 0.54068 0.17055
 C199 C 0.66916 0.69012 0.19234
 C200 C 0.67653 0.69730 0.17704
 C201 C 0.69125 0.68974 0.16909
 C202 C 0.69867 0.67487 0.17672
 C203 C 0.69146 0.66749 0.19199
 C204 C 0.67682 0.67531 0.19979
 H205 H 0.67034 0.70837 0.17087
 H206 H 0.70991 0.66885 0.17058
 H207 H 0.67141 0.66989 0.21177
 C208 C 0.17113 0.05823 1.05510
 C209 C 0.17843 0.07346 1.04788
 C210 C 0.19317 0.08136 1.05541
 C211 C 0.20101 0.07380 1.07023
 C212 C 0.19416 0.05864 1.07769
 C213 C 0.17938 0.05090 1.07001
 H214 H 0.17312 0.07902 1.03594
 H215 H 0.21230 0.07992 1.07618
 H216 H 0.17368 0.03983 1.07658
 C217 C 0.58029 0.19135 0.55767
 C218 C 0.57209 0.19842 0.57259
 C219 C 0.55708 0.19070 0.57977
 C220 C 0.55016 0.17582 0.57174
 C221 C 0.55816 0.16856 0.55682
 C222 C 0.57317 0.17647 0.54983
 H223 H 0.57760 0.20979 0.57880
 H224 H 0.53869 0.16970 0.57732
 H225 H 0.57951 0.17086 0.53842
 C226 C 0.08136 0.55967 0.69332
 C227 C 0.07372 0.57432 0.70110
 C228 C 0.05856 0.58183 0.69397
 C229 C 0.05085 0.57430 0.67901
 C230 C 0.05824 0.55959 0.67106
 C231 C 0.07347 0.55234 0.67835
 H232 H 0.07953 0.57983 0.71284
 H233 H 0.03924 0.58008 0.67335
 H234 H 0.07960 0.54141 0.67192
 C235 C 0.66961 0.55960 0.05686
 C236 C 0.67661 0.57463 0.04920
 C237 C 0.69137 0.58275 0.05649
 C238 C 0.69923 0.57557 0.07156
 C239 C 0.69242 0.56054 0.07942
 C240 C 0.67767 0.55261 0.07191
 H241 H 0.67038 0.58018 0.03768
 H242 H 0.71051 0.58185 0.07735
 H243 H 0.67225 0.54112 0.07799
 C244 C 0.05824 0.69114 0.57962
 C245 C 0.07357 0.69817 0.57238
 C246 C 0.08157 0.69055 0.55763
 C247 C 0.07393 0.67580 0.54999
 C248 C 0.05859 0.66858 0.55706
 C249 C 0.05077 0.67647 0.57175
 H250 H 0.07948 0.70942 0.57846
 H251 H 0.08035 0.66949 0.53902
 H252 H 0.03875 0.67119 0.57706
 C253 C 0.55719 1.05845 0.66943
 C254 C 0.57221 1.05130 0.67734
 C255 C 0.57953 1.05846 0.69262
 C256 C 0.57158 1.07289 0.70040
 C257 C 0.55652 1.08053 0.69297
 C258 C 0.54940 1.07296 0.67758
 H259 H 0.57801 1.03963 0.67208
 H260 H 0.57801 1.07881 0.71158
 H261 H 0.53786 1.07857 0.67177
 C262 C 0.44103 0.33283 0.94225
 C263 C 0.44827 0.32520 0.92712
 C264 C 0.44094 0.31012 0.91986
 C265 C 0.42629 0.30261 0.92802
 C266 C 0.41887 0.31006 0.94314
 C267 C 0.42643 0.32508 0.95023
 H268 H 0.45917 0.33140 0.92056
 H269 H 0.42046 0.29110 0.92239
 H270 H 0.42100 0.33070 0.96211
 C271 C 0.94250 0.44062 0.33068
 C272 C 0.92780 0.44833 0.32252
 C273 C 0.92036 0.44127 0.30719
 C274 C 0.92790 0.42651 0.29964
 C275 C 0.94244 0.41854 0.30738
 C276 C 0.94969 0.42566 0.32277
 H277 H 0.92123 0.45913 0.32869
 H278 H 0.92246 0.42124 0.28760
 H279 H 0.96112 0.41951 0.32833
 C280 C 0.30717 0.94059 0.42002
 C281 C 0.30017 0.92593 0.42840
 C282 C 0.30793 0.91917 0.44373
 C283 C 0.32280 0.92735 0.45073
 C284 C 0.33001 0.94201 0.44252
 C285 C 0.32203 0.94858 0.42724
 H286 H 0.28882 0.91959 0.42280
 H287 H 0.32896 0.92211 0.46243
 H288 H 0.32759 0.95980 0.42076
 O289 O 0.29733 0.49746 0.77172
 O290 O 0.29108 0.52783 0.77115
 O291 O 0.25155 0.47649 0.79614
 O292 O 0.22277 0.47625 0.79121
 O293 O 0.27282 0.45315 0.74931
 O294 O 0.27111 0.46026 0.71863
 O295 O 0.20506 0.52200 0.74908
 O296 O 0.21023 0.51821 0.77967
 O297 O 0.24921 0.54510 0.72807
 O298 O 0.28090 0.53887 0.72911
 O299 O 0.22779 0.50193 0.70376
 O300 O 0.22899 0.47045 0.70924
 O301 O 0.20475 0.50175 0.72740
 O302 O 0.21084 0.46995 0.72850
 O303 O 0.24887 0.52261 0.70412
 O304 O 0.28093 0.52057 0.71025
 O305 O 0.22823 0.54467 0.74924
 O306 O 0.23074 0.53825 0.78100
 O307 O 0.29717 0.47731 0.74989
 O308 O 0.29043 0.47968 0.71886
 O309 O 0.25210 0.45267 0.77077
 O310 O 0.22070 0.45944 0.76804
 O311 O 0.27291 0.49695 0.79646
 O312 O 0.27157 0.52757 0.79065
 Zr313 Zr 0.27198 0.50807 0.77114
 O314 O 0.25664 0.52516 0.75605
 Zr315 Zr 0.24119 0.47772 0.77047
 O316 O 0.22431 0.49364 0.75562
 Zr317 Zr 0.27174 0.47853 0.73934
 O318 O 0.25617 0.49419 0.72291
 Zr319 Zr 0.23005 0.51979 0.76031
 O320 O 0.24538 0.50393 0.77703
 Zr321 Zr 0.26053 0.52032 0.72911
 O322 O 0.27766 0.50470 0.74419
 Zr323 Zr 0.22960 0.49010 0.72867
 O324 O 0.24519 0.47272 0.74351
 O325 O 0.26762 0.48202 0.76615
 O326 O 0.23396 0.51626 0.73340
 C327 C 0.30473 0.48558 0.76248
 C328 C 0.26394 0.48486 0.80381
 C329 C 0.26425 0.44548 0.76162
 C330 C 0.19762 0.51406 0.73622
 C331 C 0.23664 0.55215 0.73671
 C332 C 0.23621 0.51451 0.69665
 H333 H 0.25965 0.53721 0.75912
 H334 H 0.25888 0.49164 0.71045
 H335 H 0.27511 0.47447 0.77351
 H336 H 0.21200 0.49104 0.75857
 H337 H 0.21543 0.51227 0.79000
 H338 H 0.21264 0.48347 0.78782
 H339 H 0.27901 0.51079 0.70208
 H340 H 0.29634 0.49103 0.71993
 H341 H 0.24106 0.54577 0.77929
 H342 H 0.26000 0.52685 0.79643
 H343 H 0.23954 0.47177 0.70182
 H344 H 0.25942 0.45477 0.71904
 H345 H 0.29650 0.52773 0.75930
 H346 H 0.27974 0.54592 0.73992
 H347 H 0.22263 0.45313 0.75686
 H348 H 0.20306 0.47161 0.73878
 O349 O 0.24928 0.04596 0.22798
 O350 O 0.27990 0.03956 0.22916
 O351 O 0.22829 0.00148 0.20199
 O352 O 0.22772 -0.02710 0.20617
 O353 O 0.20386 0.02152 0.24887
 O354 O 0.21039 0.01913 0.27963
 O355 O 0.27305 -0.04599 0.24906
 O356 O 0.26971 -0.04027 0.21849
 O357 O 0.29608 -0.00310 0.27153
 O358 O 0.29011 0.02828 0.27123
 O359 O 0.25166 -0.02448 0.29432
 O360 O 0.22004 -0.02293 0.28810
 O361 O 0.25187 -0.04671 0.27002
 O362 O 0.21984 -0.04039 0.26842
 O363 O 0.27271 -0.00378 0.29502
 O364 O 0.27114 0.02810 0.28956
 O365 O 0.29596 -0.02326 0.24977
 O366 O 0.29010 -0.01997 0.21794
 O367 O 0.22842 0.04546 0.24932
 O368 O 0.23015 0.03808 0.28025
 O369 O 0.20365 0.00158 0.22685
 O370 O 0.21022 -0.02960 0.22892
 O371 O 0.24919 0.02240 0.20270
 O372 O 0.27999 0.02071 0.20920
 Zr373 Zr 0.25981 0.02079 0.22824
 O374 O 0.27661 0.00511 0.24333
 Zr375 Zr 0.22888 -0.00941 0.22741
 O376 O 0.24450 -0.02661 0.24219
 Zr377 Zr 0.22928 0.02006 0.25932
 O378 O 0.24458 0.00410 0.27570
 Zr379 Zr 0.27107 -0.02104 0.23826
 O380 O 0.25554 -0.00534 0.22158
 Zr381 Zr 0.27115 0.00834 0.27024
 O382 O 0.25586 0.02579 0.25523
 Zr383 Zr 0.24034 -0.02200 0.26917
 O384 O 0.22326 -0.00606 0.25435
 O385 O 0.23335 0.01659 0.23250
 O386 O 0.26693 -0.01780 0.26519
 C387 C 0.23709 0.05315 0.23709
 C388 C 0.23706 0.01383 0.19483
 C389 C 0.19628 0.01340 0.23620
 C390 C 0.26459 -0.05360 0.26146
 C391 C 0.30331 -0.01533 0.26268
 C392 C 0.26421 -0.01638 0.30199
 H393 H 0.28888 0.00806 0.24059
 H394 H 0.24172 0.00651 0.28816
 H395 H 0.22594 0.02422 0.22516
 H396 H 0.24185 -0.03870 0.23888
 H397 H 0.26399 -0.03487 0.20814
 H398 H 0.23483 -0.03728 0.20947
 H399 H 0.26102 0.02613 0.29742
 H400 H 0.24167 0.04389 0.27953
 H401 H 0.29779 -0.00992 0.22012
 H402 H 0.27927 0.00944 0.20306
 H403 H 0.22126 -0.01269 0.29580
 H404 H 0.20475 0.00763 0.27883
 H405 H 0.27955 0.04464 0.24113
 H406 H 0.29734 0.02745 0.26046
 H407 H 0.20360 -0.02791 0.24000
 H408 H 0.22166 -0.04784 0.25798
 O409 O 0.54651 0.72723 0.24970
 O410 O 0.54007 0.72907 0.28059
 O411 O 0.50085 0.70266 0.22900
 O412 O 0.47196 0.70752 0.22901
 O413 O 0.52217 0.74745 0.20337
 O414 O 0.52092 0.77782 0.20934
 O415 O 0.45436 0.75131 0.27321
 O416 O 0.45922 0.72102 0.27073
 O417 O 0.49869 0.77238 0.29596
 O418 O 0.53042 0.77081 0.28973
 O419 O 0.47761 0.79452 0.25083
 O420 O 0.47903 0.78763 0.21890
 O421 O 0.45439 0.77160 0.25154
 O422 O 0.46047 0.76912 0.21940
 O423 O 0.49864 0.79491 0.27195
 O424 O 0.53059 0.78857 0.27037
 O425 O 0.47751 0.75179 0.29646
 O426 O 0.47956 0.72047 0.29139
 O427 O 0.54660 0.74760 0.22806
 O428 O 0.54023 0.77816 0.22911
 O429 O 0.50122 0.72659 0.20381
 O430 O 0.46998 0.72947 0.21057
 O431 O 0.52204 0.70311 0.25003
 O432 O 0.52046 0.71000 0.28096
 Zr433 Zr 0.52112 0.72837 0.26032
 O434 O 0.50586 0.74405 0.27696
 Zr435 Zr 0.49045 0.72788 0.22932
 O436 O 0.47366 0.74335 0.24474
 Zr437 Zr 0.52128 0.75824 0.22880
 O438 O 0.50584 0.77518 0.24393
 Zr439 Zr 0.47924 0.73988 0.27160
 O440 O 0.49447 0.72262 0.25631
 Zr441 Zr 0.51005 0.77021 0.27082
 O442 O 0.52708 0.75459 0.25567
 Zr443 Zr 0.47925 0.76957 0.23991
 O444 O 0.49471 0.75407 0.22299
 O445 O 0.51690 0.73215 0.23356
 O446 O 0.48345 0.76608 0.26678
 C447 C 0.55402 0.73562 0.23716
 C448 C 0.51322 0.69546 0.23788
 C449 C 0.51338 0.73522 0.19606
 C450 C 0.44710 0.76362 0.26446
 C451 C 0.48606 0.76431 0.30353
 C452 C 0.48607 0.80198 0.26333
 H453 H 0.50881 0.74153 0.28937
 H454 H 0.50868 0.78726 0.24078
 H455 H 0.52435 0.72460 0.22618
 H456 H 0.46133 0.74046 0.24216
 H457 H 0.46437 0.71055 0.26531
 H458 H 0.46170 0.71139 0.23588
 H459 H 0.52888 0.79607 0.25994
 H460 H 0.54605 0.77758 0.24075
 H461 H 0.49011 0.72212 0.29873
 H462 H 0.50885 0.70437 0.28038
 H463 H 0.48940 0.79517 0.22022
 H464 H 0.50923 0.77734 0.20375
 H465 H 0.54567 0.74060 0.27994
 H466 H 0.52907 0.76059 0.29746
 H467 H 0.47180 0.74028 0.20381
 H468 H 0.45270 0.75907 0.22140
 O469 O 0.04715 0.72838 0.74973
 O470 O 0.04059 0.73015 0.78058
 O471 O 0.00151 0.70407 0.72869
 O472 O -0.02733 0.70905 0.72843
 O473 O 0.02324 0.74888 0.70338
 O474 O 0.02192 0.77930 0.70951
 O475 O -0.04502 0.75260 0.77284
 O476 O -0.04027 0.72230 0.77013
 O477 O -0.00089 0.77343 0.79601
 O478 O 0.03098 0.77176 0.78988
 O479 O -0.02164 0.79583 0.75092
 O480 O -0.01995 0.78921 0.71892
 O481 O -0.04484 0.77301 0.75129
 O482 O -0.03854 0.77068 0.71911
 O483 O -0.00082 0.79608 0.77226
 O484 O 0.03115 0.78983 0.77072
 O485 O -0.02209 0.75285 0.79614
 O486 O -0.02003 0.72153 0.79091
 O487 O 0.04747 0.74888 0.72821
 O488 O 0.04119 0.77946 0.72941
 O489 O 0.00221 0.72809 0.70362
 O490 O -0.02906 0.73111 0.71011
 O491 O 0.02258 0.70436 0.74986
 O492 O 0.02092 0.71117 0.78082
 Zr493 Zr 0.02172 0.72960 0.76023
 O494 O 0.00638 0.74520 0.77686
 Zr495 Zr -0.00876 0.72934 0.72903
 O496 O -0.02562 0.74475 0.74440
 Zr497 Zr 0.02217 0.75961 0.72887
 O498 O 0.00666 0.77651 0.74401
 Zr499 Zr -0.02020 0.74109 0.77126
 O500 O -0.00490 0.72389 0.75600
 Zr501 Zr 0.01066 0.77140 0.77092
 O502 O 0.02776 0.75582 0.75577
 Zr503 Zr -0.01992 0.77098 0.73977
 O504 O -0.00438 0.75554 0.72287
 O505 O 0.01768 0.73351 0.73347
 O506 O -0.01590 0.76730 0.76664
 C507 C 0.05478 0.73679 0.73727
 C508 C 0.01378 0.69678 0.73764
 C509 C 0.01448 0.73667 0.69599
 C510 C -0.05219 0.76500 0.76416
 C511 C -0.01362 0.76532 0.80338
 C512 C -0.01337 0.80318 0.76362
 H513 H 0.00924 0.74260 0.78928
 H514 H 0.00953 0.78861 0.74097
 H515 H 0.02514 0.72596 0.72611
 H516 H -0.03794 0.74191 0.74173
 H517 H -0.03511 0.71184 0.76467
 H518 H -0.03763 0.71291 0.73524
 H519 H 0.02950 0.79737 0.76031
 H520 H 0.04684 0.77886 0.74114
 H521 H -0.00959 0.72319 0.79841
 H522 H 0.00931 0.70554 0.78014
 H523 H -0.00959 0.79673 0.72038
 H524 H 0.01028 0.77882 0.70383
 H525 H 0.04620 0.74168 0.78003
 H526 H 0.02944 0.76160 0.79766
 H527 H -0.02714 0.74194 0.70342
 H528 H -0.04639 0.76069 0.72105
 O529 O 0.00241 0.04548 0.02227
 O530 O -0.02828 0.03912 0.02096
 O531 O 0.02348 0.00068 0.04733
 O532 O 0.02349 -0.02797 0.04272
 O533 O 0.04787 0.02122 0.00082
 O534 O 0.04119 0.01976 -0.02994
 O535 O -0.02123 -0.04609 -0.00050
 O536 O -0.01819 -0.04081 0.03015
 O537 O -0.04447 -0.00252 -0.02217
 O538 O -0.03831 0.02896 -0.02113
 O539 O -0.00037 -0.02368 -0.04535
 O540 O 0.03155 -0.02189 -0.03920
 O541 O -0.00036 -0.04618 -0.02179
 O542 O 0.03163 -0.04004 -0.02001
 O543 O -0.02124 -0.00280 -0.04568
 O544 O -0.01958 0.02889 -0.03972
 O545 O -0.04439 -0.02327 -0.00095
 O546 O -0.03865 -0.02069 0.03088
 O547 O 0.02341 0.04542 0.00106
 O548 O 0.02151 0.03880 -0.03002
 O549 O 0.04791 0.00096 0.02257
 O550 O 0.04134 -0.03004 0.01997
 O551 O 0.00241 0.02143 0.04712
 O552 O -0.02834 0.01996 0.04059
 Zr553 Zr -0.00819 0.02035 0.02154
 O554 O -0.02500 0.00500 0.00614
 Zr555 Zr 0.02266 -0.00989 0.02178
 O556 O 0.00706 -0.02675 0.00659
 Zr557 Zr 0.02238 0.02025 -0.00954
 O558 O 0.00703 0.00469 -0.02627
 Zr559 Zr -0.01951 -0.02127 0.01066
 O560 O -0.00399 -0.00592 0.02768
 Zr561 Zr -0.01953 0.00884 -0.02069
 O562 O -0.00420 0.02594 -0.00533
 Zr563 Zr 0.01121 -0.02154 -0.02029
 O564 O 0.02830 -0.00598 -0.00509
 O565 O 0.01827 0.01622 0.01719
 O566 O -0.01536 -0.01741 -0.01618
 C567 C 0.01468 0.05285 0.01341
 C568 C 0.01468 0.01285 0.05475
 C569 C 0.05538 0.01284 0.01337
 C570 C -0.01290 -0.05335 -0.01321
 C571 C -0.05172 -0.01498 -0.01365
 C572 C -0.01295 -0.01544 -0.05281
 H573 H -0.03726 0.00791 0.00894
 H574 H 0.00985 0.00734 -0.03869
 H575 H 0.02573 0.02368 0.02466
 H576 H 0.00972 -0.03891 0.00964
 H577 H -0.01250 -0.03557 0.04059
 H578 H 0.01668 -0.03823 0.03901
 H579 H -0.00935 0.02718 -0.04750
 H580 H 0.00998 0.04455 -0.02918
 H581 H -0.04620 -0.01047 0.02902
 H582 H -0.02773 0.00851 0.04643
 H583 H 0.02989 -0.01186 -0.04712
 H584 H 0.04665 0.00815 -0.02955
 H585 H -0.02784 0.04454 0.00914
 H586 H -0.04575 0.02771 -0.01055
 H587 H 0.04780 -0.02828 0.00881
 H588 H 0.02985 -0.04764 -0.00967
 O589 O 0.00138 0.54658 0.52190
 O590 O -0.02932 0.54015 0.52094
 O591 O 0.02256 0.50187 0.54732
 O592 O 0.02269 0.47323 0.54289
 O593 O 0.04666 0.52228 0.50061
 O594 O 0.03991 0.52026 0.46979
 O595 O -0.02240 0.45480 0.50012
 O596 O -0.01909 0.46033 0.53073
 O597 O -0.04586 0.49827 0.47840
 O598 O -0.03958 0.52965 0.47893
 O599 O -0.00152 0.47708 0.45481
 O600 O 0.03022 0.47855 0.46095
 O601 O -0.00160 0.45446 0.47877
 O602 O 0.03037 0.46066 0.48024
 O603 O -0.02280 0.49756 0.45467
 O604 O -0.02097 0.52936 0.46024
 O605 O -0.04550 0.47751 0.49960
 O606 O -0.03962 0.48041 0.53139
 O607 O 0.02220 0.54631 0.50051
 O608 O 0.02023 0.53935 0.46957
 O609 O 0.04691 0.50205 0.52237
 O610 O 0.04032 0.47100 0.52006
 O611 O 0.00165 0.52278 0.54699
 O612 O -0.02917 0.52115 0.54076
 Zr613 Zr -0.00919 0.52141 0.52152
 O614 O -0.02611 0.50591 0.50638
 Zr615 Zr 0.02166 0.49116 0.52183
 O616 O 0.00597 0.47417 0.50689
 Zr617 Zr 0.02117 0.52103 0.49025
 O618 O 0.00570 0.50533 0.47377
 Zr619 Zr -0.02057 0.47969 0.51107
 O620 O -0.00495 0.49519 0.52786
 Zr621 Zr -0.02083 0.50951 0.47948
 O622 O -0.00539 0.52675 0.49458
 Zr623 Zr 0.00995 0.47915 0.47993
 O624 O 0.02714 0.49484 0.49489
 O625 O 0.01723 0.51723 0.51704
 O626 O -0.01661 0.48329 0.48416
 C627 C 0.01355 0.55387 0.51285
 C628 C 0.01388 0.51418 0.55465
 C629 C 0.05427 0.51397 0.51315
 C630 C -0.01410 0.44737 0.48749
 C631 C -0.05299 0.48580 0.48700
 C632 C -0.01428 0.48513 0.44743
 H633 H -0.03835 0.50885 0.50924
 H634 H 0.00846 0.50790 0.46132
 H635 H 0.02471 0.52477 0.52440
 H636 H 0.00865 0.46205 0.51003
 H637 H -0.01339 0.46568 0.54110
 H638 H 0.01577 0.46299 0.53936
 H639 H -0.01089 0.52747 0.45231
 H640 H 0.00865 0.54502 0.47031
 H641 H -0.04717 0.49062 0.52949
 H642 H -0.02852 0.50974 0.54666
 H643 H 0.02884 0.48880 0.45326
 H644 H 0.04560 0.50878 0.47051
 H645 H -0.02894 0.54551 0.50909
 H646 H -0.04684 0.52863 0.48966
 H647 H 0.04675 0.47270 0.50886
 H648 H 0.02870 0.45319 0.49070
 O649 O 0.47823 -0.04543 0.49840
 O650 O 0.47929 -0.03859 0.52921
 O651 O 0.45349 -0.00046 0.47662
 O652 O 0.45834 0.02808 0.47608
 O653 O 0.49935 -0.02180 0.45223
 O654 O 0.52998 -0.02019 0.45885
 O655 O 0.50137 0.04632 0.52111
 O656 O 0.47085 0.04122 0.51795
 O657 O 0.52224 0.00273 0.54514
 O658 O 0.52124 -0.02869 0.53910
 O659 O 0.54572 0.02324 0.50009
 O660 O 0.53947 0.02141 0.46809
 O661 O 0.52237 0.04610 0.49996
 O662 O 0.52063 0.03961 0.46783
 O663 O 0.54566 0.00300 0.52180
 O664 O 0.53971 -0.02879 0.52026
 O665 O 0.50152 0.02377 0.54468
 O666 O 0.47001 0.02143 0.53894
 O667 O 0.49922 -0.04559 0.47718
 O668 O 0.53000 -0.03909 0.47888
 O669 O 0.47807 -0.00128 0.45191
 O670 O 0.48091 0.02978 0.45817
 O671 O 0.45360 -0.02126 0.49784
 O672 O 0.45994 -0.01933 0.52887
 Zr673 Zr 0.47893 -0.02011 0.50866
 O674 O 0.49430 -0.00466 0.52544
 Zr675 Zr 0.47894 0.00984 0.47723
 O676 O 0.49413 0.02677 0.49275
 Zr677 Zr 0.50979 -0.02047 0.47786
 O678 O 0.52648 -0.00488 0.49319
 Zr679 Zr 0.49005 0.02159 0.51960
 O680 O 0.47305 0.00617 0.50413
 Zr681 Zr 0.52089 -0.00870 0.52002
 O682 O 0.50556 -0.02586 0.50473
 Zr683 Zr 0.52075 0.02133 0.48863
 O684 O 0.50556 0.00571 0.47157
 O685 O 0.48330 -0.01626 0.48195
 O686 O 0.51664 0.01754 0.51548
 C687 C 0.48703 -0.05294 0.48614
 C688 C 0.44607 -0.01261 0.48549
 C689 C 0.48699 -0.01340 0.44456
 C690 C 0.51396 0.05345 0.51256
 C691 C 0.51391 0.01536 0.55226
 C692 C 0.55296 0.01528 0.51305
 H693 H 0.49149 -0.00743 0.53783
 H694 H 0.53878 -0.00764 0.49038
 H695 H 0.47584 -0.02378 0.47454
 H696 H 0.49119 0.03891 0.48993
 H697 H 0.46043 0.03595 0.51236
 H698 H 0.46205 0.03833 0.48293
 H699 H 0.54761 -0.02703 0.51009
 H700 H 0.52932 -0.04456 0.49066
 H701 H 0.47160 0.01111 0.54648
 H702 H 0.45423 -0.00786 0.52805
 H703 H 0.54702 0.01113 0.46964
 H704 H 0.52943 -0.00875 0.45300
 H705 H 0.49096 -0.04411 0.52888
 H706 H 0.51068 -0.02743 0.54650
 H707 H 0.49193 0.02785 0.45163
 H708 H 0.51039 0.04725 0.46947
 O709 O 0.54674 0.52277 -0.00029
 O710 O 0.54041 0.52086 -0.03123
 O711 O 0.50084 0.54724 0.02002
 O712 O 0.47206 0.54227 0.02038
 O713 O 0.52241 0.50251 0.04583
 O714 O 0.52095 0.47207 0.03988
 O715 O 0.45459 0.49876 -0.02421
 O716 O 0.45951 0.52903 -0.02160
 O717 O 0.49900 0.47775 -0.04693
 O718 O 0.53070 0.47921 -0.04049
 O719 O 0.47772 0.45548 -0.00194
 O720 O 0.47908 0.46210 0.02996
 O721 O 0.45448 0.47858 -0.00242
 O722 O 0.46073 0.48076 0.02973
 O723 O 0.49874 0.45510 -0.02305
 O724 O 0.53073 0.46134 -0.02120
 O725 O 0.47765 0.49818 -0.04727
 O726 O 0.47993 0.52959 -0.04221
 O727 O 0.54677 0.50222 0.02118
 O728 O 0.54033 0.47169 0.02017
 O729 O 0.50150 0.52340 0.04534
 O730 O 0.47018 0.52029 0.03861
 O731 O 0.52222 0.54687 -0.00080
 O732 O 0.52078 0.53994 -0.03171
 Zr733 Zr 0.52137 0.52158 -0.01105
 O734 O 0.50611 0.50595 -0.02777
 Zr735 Zr 0.49063 0.52198 0.01986
 O736 O 0.47385 0.50659 0.00437
 Zr737 Zr 0.52143 0.49165 0.02041
 O738 O 0.50600 0.47475 0.00517
 Zr739 Zr 0.47948 0.51013 -0.02247
 O740 O 0.49472 0.52732 -0.00709
 Zr741 Zr 0.51026 0.47977 -0.02170
 O742 O 0.52727 0.49534 -0.00644
 Zr743 Zr 0.47941 0.48036 0.00915
 O744 O 0.49486 0.49579 0.02616
 O745 O 0.51709 0.51775 0.01568
 O746 O 0.48365 0.48392 -0.01770
 C747 C 0.55422 0.51427 0.01220
 C748 C 0.51322 0.55449 0.01123
 C749 C 0.51370 0.51483 0.05310
 C750 C 0.44724 0.48657 -0.01538
 C751 C 0.48626 0.48575 -0.05441
 C752 C 0.48613 0.44804 -0.01448
 H753 H 0.50908 0.50850 -0.04018
 H754 H 0.50882 0.46266 0.00829
 H755 H 0.52453 0.52533 0.02305
 H756 H 0.46153 0.50949 0.00693
 H757 H 0.46469 0.53948 -0.01614
 H758 H 0.46190 0.53850 0.01327
 H759 H 0.52892 0.45376 -0.01086
 H760 H 0.54609 0.47220 0.00850
 H761 H 0.49030 0.52773 -0.04973
 H762 H 0.50913 0.54550 -0.03124
 H763 H 0.48958 0.45472 0.02878
 H764 H 0.50927 0.47263 0.04546
 H765 H 0.54603 0.50935 -0.03050
 H766 H 0.52942 0.48947 -0.04818
 H767 H 0.47217 0.50959 0.04550
 H768 H 0.45302 0.49086 0.02782
 O769 O 0.77116 0.29741 0.49947
 O770 O 0.76991 0.29051 0.53023
 O771 O 0.79552 0.25260 0.47744
 O772 O 0.79054 0.22409 0.47673
 O773 O 0.74968 0.27431 0.45318
 O774 O 0.71912 0.27288 0.45980
 O775 O 0.74759 0.20571 0.52170
 O776 O 0.77800 0.21071 0.51873
 O777 O 0.72652 0.24905 0.54585
 O778 O 0.72796 0.28062 0.54018
 O779 O 0.70321 0.22909 0.50081
 O780 O 0.70940 0.23103 0.46886
 O781 O 0.72636 0.20619 0.50075
 O782 O 0.72832 0.21283 0.46848
 O783 O 0.70324 0.24941 0.52240
 O784 O 0.70951 0.28108 0.52125
 O785 O 0.74736 0.22813 0.54538
 O786 O 0.77901 0.23052 0.53964
 O787 O 0.75008 0.29796 0.47832
 O788 O 0.71919 0.29157 0.48000
 O789 O 0.77080 0.25363 0.45272
 O790 O 0.76791 0.22253 0.45891
 O791 O 0.79549 0.27313 0.49890
 O792 O 0.78910 0.27108 0.52994
 Zr793 Zr 0.77017 0.27209 0.50964
 O794 O 0.75473 0.25664 0.52634
 Zr795 Zr 0.77001 0.24239 0.47802
 O796 O 0.75478 0.22542 0.49348
 Zr797 Zr 0.73932 0.27287 0.47882
 O798 O 0.72257 0.25721 0.49403
 Zr799 Zr 0.75890 0.23043 0.52035
 O800 O 0.77595 0.24584 0.50495
 Zr801 Zr 0.72815 0.26083 0.52089
 O802 O 0.74358 0.27803 0.50573
 Zr803 Zr 0.72817 0.23098 0.48938
 O804 O 0.74340 0.24669 0.47241
 O805 O 0.76579 0.26847 0.48289
 O806 O 0.73232 0.23461 0.51623
 C807 C 0.76242 0.30511 0.48727
 C808 C 0.80299 0.26460 0.48646
 C809 C 0.76192 0.26582 0.44542
 C810 C 0.73485 0.19872 0.51325
 C811 C 0.73485 0.23638 0.55293
 C812 C 0.69594 0.23713 0.51368
 H813 H 0.75754 0.25931 0.53875
 H814 H 0.71028 0.26004 0.49121
 H815 H 0.77328 0.27598 0.47551
 H816 H 0.75766 0.21328 0.49060
 H817 H 0.78841 0.21591 0.51306
 H818 H 0.78686 0.21385 0.48362
 H819 H 0.70174 0.27959 0.51094
 H820 H 0.72006 0.29709 0.49174
 H821 H 0.77722 0.24057 0.54748
 H822 H 0.79479 0.25961 0.52904
 H823 H 0.70197 0.24139 0.47038
 H824 H 0.71950 0.26142 0.45398
 H825 H 0.75820 0.29598 0.52998
 H826 H 0.73842 0.27910 0.54769
 H827 H 0.75688 0.22452 0.45240
 H828 H 0.73833 0.20494 0.47032
 O829 O 0.75007 0.77424 -0.04698
 O830 O 0.71938 0.77267 -0.04066
 O831 O 0.77085 0.79718 -0.00024
 O832 O 0.77087 0.79161 0.02870
 O833 O 0.79546 0.75265 -0.02300
 O834 O 0.78908 0.72228 -0.02223
 O835 O 0.72603 0.74843 0.04532
 O836 O 0.72907 0.77874 0.04104
 O837 O 0.70311 0.72870 0.00010
 O838 O 0.70938 0.73081 -0.03178
 O839 O 0.74741 0.70530 0.02097
 O840 O 0.77908 0.71147 0.01982
 O841 O 0.74712 0.72775 0.04486
 O842 O 0.77916 0.72979 0.03872
 O843 O 0.72642 0.70574 -0.00019
 O844 O 0.72837 0.71279 -0.03239
 O845 O 0.70305 0.74881 0.02191
 O846 O 0.70865 0.78009 0.02053
 O847 O 0.77087 0.75323 -0.04758
 O848 O 0.76950 0.72259 -0.04172
 O849 O 0.79536 0.77295 -0.00133
 O850 O 0.78862 0.76926 0.03014
 O851 O 0.75013 0.79769 -0.02174
 O852 O 0.71926 0.79127 -0.02035
 Zr853 Zr 0.73941 0.77258 -0.02145
 O854 O 0.72257 0.75684 -0.00646
 Zr855 Zr 0.77008 0.77174 0.00955
 O856 O 0.75445 0.75621 0.02609
 Zr857 Zr 0.77007 0.74213 -0.02224
 O858 O 0.75470 0.72512 -0.00708
 Zr859 Zr 0.72790 0.76032 0.02047
 O860 O 0.74345 0.77763 0.00554
 Zr861 Zr 0.72813 0.73066 -0.01124
 O862 O 0.74350 0.74641 -0.02802
 Zr863 Zr 0.75875 0.73005 0.01986
 O864 O 0.77587 0.74556 0.00465
 O865 O 0.76585 0.76819 -0.01723
 O866 O 0.73217 0.73414 0.01567
 C867 C 0.76222 0.76564 -0.05477
 C868 C 0.76229 0.80486 -0.01257
 C869 C 0.80288 0.76461 -0.01388
 C870 C 0.73448 0.73583 0.05238
 C871 C 0.69579 0.73662 0.01302
 C872 C 0.73483 0.69826 0.01235
 H873 H 0.71031 0.75965 -0.00941
 H874 H 0.75758 0.71304 -0.01020
 H875 H 0.77329 0.77579 -0.02456
 H876 H 0.75704 0.75878 0.03858
 H877 H 0.73470 0.78921 0.03609
 H878 H 0.76386 0.78768 0.03890
 H879 H 0.73835 0.70485 -0.03060
 H880 H 0.75792 0.72338 -0.04751
 H881 H 0.70133 0.77877 0.00987
 H882 H 0.71998 0.79667 -0.00854
 H883 H 0.77789 0.70446 0.00899
 H884 H 0.79464 0.72249 -0.01045
 H885 H 0.71984 0.76126 -0.04655
 H886 H 0.70204 0.74124 -0.03032
 H887 H 0.79525 0.75848 0.02792
 H888 H 0.77726 0.73957 0.04689
 O889 O 0.95324 0.25116 0.27318
 O890 O 0.95957 0.22086 0.27243
 O891 O 0.99911 0.27205 0.29764
 O892 O 1.02790 0.27212 0.29268
 O893 O 0.97770 0.29586 0.25123
 O894 O 0.97913 0.28909 0.22046
 O895 O 1.04539 0.22701 0.24987
 O896 O 1.04041 0.23043 0.28055
 O897 O 1.00116 0.20416 0.22882
 O898 O 0.96944 0.21035 0.23012
 O899 O 1.02249 0.24754 0.20500
 O900 O 1.02115 0.27902 0.21076
 O901 O 1.04555 0.24755 0.22846
 O902 O 1.03946 0.27932 0.22993
 O903 O 1.00125 0.22701 0.20507
 O904 O 0.96926 0.22887 0.21149
 O905 O 1.02222 0.20433 0.24994
 O906 O 1.01992 0.21035 0.28175
 O907 O 0.95325 0.27166 0.25165
 O908 O 0.95981 0.26970 0.22059
 O909 O 0.99857 0.29606 0.27257
 O910 O 1.02989 0.28929 0.26967
 O911 O 0.97772 0.25161 0.29787
 O912 O 0.97923 0.22098 0.29181
 Zr913 Zr 0.97862 0.24067 0.27246
 O914 O 0.99386 0.22376 0.25708
 Zr915 Zr 1.00939 0.27100 0.27197
 O916 O 1.02618 0.25528 0.25685
 Zr917 Zr 0.97864 0.27058 0.24098
 O918 O 0.99412 0.25512 0.22430
 Zr919 Zr 1.02047 0.22907 0.26128
 O920 O 1.00526 0.24473 0.27827
 Zr921 Zr 0.98980 0.22892 0.23021
 O922 O 0.97278 0.24435 0.24558
 Zr923 Zr 1.02071 0.25916 0.22998
 O924 O 1.00522 0.27634 0.24509
 O925 O 0.98293 0.26677 0.26772
 O926 O 1.01639 0.23293 0.23443
 C927 C 0.94575 0.26314 0.26412
 C928 C 0.98670 0.26368 0.30527
 C929 C 0.98639 0.30338 0.26355
 C930 C 1.05273 0.23512 0.23707
 C931 C 1.01377 0.19700 0.23735
 C932 C 1.01396 0.23513 0.19772
 H933 H 0.99086 0.21167 0.26004
 H934 H 0.99133 0.25782 0.21188
 H935 H 0.97546 0.27425 0.27517
 H936 H 1.03851 0.25785 0.25977
 H937 H 1.03527 0.23621 0.29098
 H938 H 1.03806 0.26504 0.28910
 H939 H 0.97107 0.23879 0.20345
 H940 H 0.95393 0.25832 0.22155
 H941 H 1.00951 0.20294 0.28008
 H942 H 0.99080 0.22175 0.29761
 H943 H 1.01066 0.27767 0.20327
 H944 H 0.99085 0.29451 0.22082
 H945 H 0.95416 0.22098 0.26058
 H946 H 0.97074 0.20311 0.24080
 H947 H 1.02794 0.29571 0.25855
 H948 H 1.04731 0.27754 0.24014
 O949 O 0.70304 1.02242 0.74940
 O950 O 0.70961 1.02061 0.78023
 O951 O 0.74907 1.04667 0.72867
 O952 O 0.77776 1.04145 0.72798
 O953 O 0.72687 1.00204 0.70313
 O954 O 0.72829 0.97157 0.70912
 O955 O 0.79519 0.99796 0.77272
 O956 O 0.79048 1.02826 0.76999
 O957 O 0.75093 0.97718 0.79577
 O958 O 0.71915 0.97885 0.78958
 O959 O 0.77164 0.95472 0.75057
 O960 O 0.77022 0.96140 0.71876
 O961 O 0.79495 0.97754 0.75121
 O962 O 0.78868 0.98005 0.71890
 O963 O 0.75098 0.95459 0.77205
 O964 O 0.71890 0.96092 0.77029
 O965 O 0.77220 0.99768 0.79594
 O966 O 0.77022 1.02903 0.79071
 O967 O 0.70274 1.00184 0.72800
 O968 O 0.70905 0.97127 0.72899
 O969 O 0.74793 1.02279 0.70342
 O970 O 0.77933 1.01940 0.70990
 O971 O 0.72769 1.04638 0.74949
 O972 O 0.72940 1.03954 0.78050
 Zr973 Zr 0.72850 1.02114 0.75992
 O974 O 0.74377 1.00545 0.77658
 Zr975 Zr 0.75904 1.02131 0.72879
 O976 O 0.77583 1.00585 0.74422
 Zr977 Zr 0.72804 0.99115 0.72856
 O978 O 0.74348 0.97419 0.74374
 Zr979 Zr 0.77038 1.00950 0.77107
 O980 O 0.75515 1.02674 0.75574
 Zr981 Zr 0.73946 0.97927 0.77063
 O982 O 0.72242 0.99492 0.75545
 Zr983 Zr 0.77008 0.97965 0.73956
 O984 O 0.75460 0.99513 0.72260
 O985 O 0.73258 1.01723 0.73317
 O986 O 0.76603 0.98331 0.76642
 C987 C 0.69542 1.01394 0.73700
 C988 C 0.73673 1.05397 0.73746
 C989 C 0.73558 1.01432 0.69579
 C990 C 0.80232 0.98554 0.76407
 C991 C 0.76368 0.98523 0.80316
 C992 C 0.76341 0.94742 0.76333
 H993 H 0.74090 1.00803 0.78900
 H994 H 0.74058 0.96210 0.74068
 H995 H 0.72512 1.02484 0.72585
 H996 H 0.78816 1.00867 0.74159
 H997 H 0.78535 1.03872 0.76449
 H998 H 0.78792 1.03767 0.73507
 H999 H 0.72073 0.95320 0.76007
 H1000 H 0.70343 0.97177 0.74073
 H1001 H 0.75978 1.02737 0.79820
 H1002 H 0.74101 1.04516 0.77979
 H1003 H 0.75958 0.95421 0.71989
 H1004 H 0.73989 0.97214 0.70338
 H1005 H 0.70399 1.00908 0.77969
 H1006 H 0.72059 0.98908 0.79727
 H1007 H 0.77719 1.00871 0.70305
 H1008 H 0.79666 0.98991 0.72098
 O1009 O 0.79736 0.49837 0.27157
 O1010 O 0.79093 0.52871 0.27091
 O1011 O 0.75159 0.47702 0.29556
 O1012 O 0.72276 0.47702 0.29045
 O1013 O 0.77322 0.45384 0.24897
 O1014 O 0.77186 0.46095 0.21827
 O1015 O 0.70517 0.52240 0.24795
 O1016 O 0.71006 0.51865 0.27860
 O1017 O 0.74948 0.54569 0.22741
 O1018 O 0.78126 0.53953 0.22886
 O1019 O 0.72851 0.50245 0.20292
 O1020 O 0.72989 0.47088 0.20850
 O1021 O 0.70524 0.50210 0.22632
 O1022 O 0.71141 0.47042 0.22741
 O1023 O 0.74949 0.52322 0.20347
 O1024 O 0.78143 0.52135 0.20988
 O1025 O 0.72830 0.54519 0.24837
 O1026 O 0.73044 0.53882 0.28012
 O1027 O 0.79752 0.47815 0.24981
 O1028 O 0.79112 0.48041 0.21872
 O1029 O 0.75225 0.45331 0.27019
 O1030 O 0.72095 0.45995 0.26729
 O1031 O 0.77274 0.49769 0.29602
 O1032 O 0.77126 0.52832 0.29024
 Zr1033 Zr 0.77196 0.50882 0.27072
 O1034 O 0.75668 0.52582 0.25546
 Zr1035 Zr 0.74134 0.47834 0.26983
 O1036 O 0.72454 0.49414 0.25474
 Zr1037 Zr 0.77219 0.47923 0.23898
 O1038 O 0.75673 0.49481 0.22237
 Zr1039 Zr 0.73008 0.52033 0.25946
 O1040 O 0.74532 0.50457 0.27637
 Zr1041 Zr 0.76090 0.52096 0.22858
 O1042 O 0.77794 0.50543 0.24385
 Zr1043 Zr 0.73013 0.49060 0.22785
 O1044 O 0.74562 0.47332 0.24291
 O1045 O 0.76779 0.48274 0.26574
 O1046 O 0.73430 0.51679 0.23259
 C1047 C 0.80492 0.48650 0.26245
 C1048 C 0.76388 0.48548 0.30330
 C1049 C 0.76449 0.44613 0.26115
 C1050 C 0.69792 0.51438 0.23504
 C1051 C 0.73680 0.55269 0.23592
 C1052 C 0.73694 0.51507 0.19588
 H1053 H 0.75961 0.53788 0.25856
 H1054 H 0.75958 0.49226 0.20994
 H1055 H 0.77524 0.47521 0.27315
 H1056 H 0.71221 0.49147 0.25756
 H1057 H 0.71518 0.51278 0.28900
 H1058 H 0.71252 0.48396 0.28680
 H1059 H 0.77973 0.51146 0.20179
 H1060 H 0.79691 0.49181 0.21979
 H1061 H 0.74080 0.54630 0.27858
 H1062 H 0.75964 0.52752 0.29592
 H1063 H 0.74037 0.47239 0.20103
 H1064 H 0.76017 0.45545 0.21853
 H1065 H 0.79650 0.52860 0.25914
 H1066 H 0.77982 0.54672 0.23954
 H1067 H 0.72289 0.45376 0.25604
 H1068 H 0.70363 0.47193 0.23770
 O1069 O 0.50106 0.20191 0.72977
 O1070 O 0.47048 0.20838 0.73090
 O1071 O 0.52199 0.24676 0.70406
 O1072 O 0.52244 0.27532 0.70856
 O1073 O 0.54674 0.22623 0.75055
 O1074 O 0.54031 0.22821 0.78140
 O1075 O 0.47763 0.29366 0.75170
 O1076 O 0.48061 0.28817 0.72107
 O1077 O 0.45451 0.25037 0.77382
 O1078 O 0.46073 0.21883 0.77300
 O1079 O 0.49886 0.27163 0.79672
 O1080 O 0.53058 0.26999 0.79049
 O1081 O 0.49872 0.29407 0.77279
 O1082 O 0.53073 0.28776 0.77100
 O1083 O 0.47785 0.25088 0.79720
 O1084 O 0.47947 0.21915 0.79161
 O1085 O 0.45453 0.27088 0.75237
 O1086 O 0.46014 0.26805 0.72056
 O1087 O 0.52226 0.20220 0.75080
 O1088 O 0.52058 0.20913 0.78182
 O1089 O 0.54671 0.24644 0.72877
 O1090 O 0.54016 0.27753 0.73123
 O1091 O 0.50118 0.22575 0.70461
 O1092 O 0.47041 0.22740 0.71115
 Zr1093 Zr 0.49061 0.22710 0.73018
 O1094 O 0.47387 0.24258 0.74550
 Zr1095 Zr 0.52149 0.25735 0.72959
 O1096 O 0.50595 0.27433 0.74466
 Zr1097 Zr 0.52135 0.22747 0.76114
 O1098 O 0.50606 0.24317 0.77778
 Zr1099 Zr 0.47936 0.26879 0.74073
 O1100 O 0.49481 0.25332 0.72380
 Zr1101 Zr 0.47947 0.23899 0.77234
 O1102 O 0.49473 0.22176 0.75709
 Zr1103 Zr 0.51022 0.26936 0.77158
 O1104 O 0.52726 0.25366 0.75647
 O1105 O 0.51710 0.23127 0.73439
 O1106 O 0.48363 0.26520 0.76759
 C1107 C 0.51337 0.19463 0.73863
 C1108 C 0.51326 0.23444 0.69681
 C1109 C 0.55420 0.23453 0.73792
 C1110 C 0.48609 0.30112 0.76421
 C1111 C 0.44723 0.26274 0.76517
 C1112 C 0.48626 0.26349 0.80426
 H1113 H 0.46159 0.23964 0.74277
 H1114 H 0.50894 0.24062 0.79021
 H1115 H 0.52448 0.22373 0.72694
 H1116 H 0.50859 0.28646 0.74148
 H1117 H 0.48625 0.28285 0.71065
 H1118 H 0.51541 0.28549 0.71207
 H1119 H 0.48976 0.22091 0.79930
 H1120 H 0.50902 0.20341 0.78112
 H1121 H 0.45263 0.25782 0.72250
 H1122 H 0.47108 0.23877 0.70518
 H1123 H 0.52924 0.25976 0.79820
 H1124 H 0.54588 0.23975 0.78074
 H1125 H 0.47082 0.20316 0.74282
 H1126 H 0.45311 0.22010 0.76254
 H1127 H 0.54679 0.27574 0.74229
 H1128 H 0.52888 0.29532 0.76064
 O1129 O 0.29732 0.75213 0.47813
 O1130 O 0.29113 0.72175 0.47883
 O1131 O 0.25141 0.77299 0.45390
 O1132 O 0.22265 0.77319 0.45893
 O1133 O 0.27290 0.79647 0.50054
 O1134 O 0.27138 0.78942 0.53126
 O1135 O 0.20522 0.72746 0.50123
 O1136 O 0.21020 0.73126 0.47063
 O1137 O 0.24953 0.70451 0.52208
 O1138 O 0.28122 0.71084 0.52092
 O1139 O 0.22813 0.74770 0.54639
 O1140 O 0.22926 0.77912 0.54091
 O1141 O 0.20502 0.74781 0.52282
 O1142 O 0.21111 0.77967 0.52163
 O1143 O 0.24920 0.72702 0.54601
 O1144 O 0.28124 0.72912 0.53980
 O1145 O 0.22846 0.70487 0.50098
 O1146 O 0.23076 0.71126 0.46921
 O1147 O 0.29729 0.77234 0.49990
 O1148 O 0.29073 0.77002 0.53099
 O1149 O 0.25206 0.79684 0.47918
 O1150 O 0.22068 0.79004 0.48208
 O1151 O 0.27279 0.75256 0.45353
 O1152 O 0.27150 0.72193 0.45941
 Zr1153 Zr 0.27199 0.74149 0.47887
 O1154 O 0.25676 0.72441 0.49407
 Zr1155 Zr 0.24118 0.77179 0.47960
 O1156 O 0.22440 0.75588 0.49455
 Zr1157 Zr 0.27192 0.77110 0.51059
 O1158 O 0.25644 0.75546 0.52712
 Zr1159 Zr 0.23015 0.72973 0.48988
 O1160 O 0.24536 0.74558 0.47307
 Zr1161 Zr 0.26079 0.72932 0.52098
 O1162 O 0.27782 0.74493 0.50578
 Zr1163 Zr 0.22984 0.75950 0.52147
 O1164 O 0.24533 0.77687 0.50653
 O1165 O 0.26764 0.76754 0.48382
 O1166 O 0.23419 0.73333 0.51678
 C1167 C 0.30477 0.76405 0.48728
 C1168 C 0.26378 0.76464 0.44620
 C1169 C 0.26425 0.80409 0.48825
 C1170 C 0.19785 0.73545 0.51409
 C1171 C 0.23694 0.69742 0.51348
 C1172 C 0.23656 0.73512 0.55350
 H1173 H 0.25977 0.71236 0.49100
 H1174 H 0.25920 0.75803 0.53957
 H1175 H 0.27508 0.77508 0.47640
 H1176 H 0.21207 0.75847 0.49165
 H1177 H 0.21533 0.73718 0.46027
 H1178 H 0.21254 0.76598 0.46238
 H1179 H 0.27935 0.73894 0.54794
 H1180 H 0.29661 0.75865 0.52993
 H1181 H 0.24110 0.70377 0.47089
 H1182 H 0.25992 0.72266 0.45363
 H1183 H 0.23991 0.77792 0.54821
 H1184 H 0.25968 0.79488 0.53089
 H1185 H 0.29663 0.72191 0.49064
 H1186 H 0.28000 0.70375 0.51015
 H1187 H 0.22269 0.79641 0.49322
 H1188 H 0.20321 0.77792 0.51146
 O1189 O 0.27152 0.29691 1.00064
 O1190 O 0.27013 0.28984 1.03137
 O1191 O 0.29627 0.25237 0.97854
 O1192 O 0.29148 0.22383 0.97764
 O1193 O 0.25045 0.27393 0.95411
 O1194 O 0.21985 0.27223 0.96055
 O1195 O 0.24841 0.20495 1.02224
 O1196 O 0.27883 0.21017 1.01945
 O1197 O 0.22698 0.24805 1.04653
 O1198 O 0.22821 0.27965 1.04102
 O1199 O 0.20404 0.22803 1.00138
 O1200 O 0.21024 0.23035 0.96943
 O1201 O 0.22752 0.20533 1.00096
 O1202 O 0.22931 0.21236 0.96886
 O1203 O 0.20382 0.24833 1.02300
 O1204 O 0.20985 0.28006 1.02202
 O1205 O 0.24793 0.22723 1.04606
 O1206 O 0.27955 0.22982 1.04053
 O1207 O 0.25053 0.29744 0.97941
 O1208 O 0.21968 0.29084 0.98085
 O1209 O 0.27172 0.25339 0.95370
 O1210 O 0.26899 0.22224 0.95966
 O1211 O 0.29601 0.27282 1.00007
 O1212 O 0.28948 0.27054 1.03106
 Zr1213 Zr 0.27064 0.27154 1.01068
 O1214 O 0.25521 0.25589 1.02721
 Zr1215 Zr 0.27083 0.24200 0.97891
 O1216 O 0.25563 0.22487 0.99417
 Zr1217 Zr 0.23994 0.27227 0.97970
 O1218 O 0.22321 0.25644 0.99474
 Zr1219 Zr 0.25958 0.22975 1.02110
 O1220 O 0.27661 0.24535 1.00588
 Zr1221 Zr 0.22864 0.25995 1.02164
 O1222 O 0.24403 0.27732 1.00665
 Zr1223 Zr 0.22900 0.23027 0.98996
 O1224 O 0.24423 0.24616 0.97316
 O1225 O 0.26641 0.26802 0.98389
 O1226 O 0.23299 0.23378 1.01686
 C1227 C 0.26278 0.30461 0.98845
 C1228 C 0.30362 0.26439 0.98763
 C1229 C 0.26281 0.26556 0.94640
 C1230 C 0.23593 0.19785 1.01350
 C1231 C 0.23535 0.23539 1.05359
 C1232 C 0.19667 0.23598 1.01425
 H1233 H 0.25794 0.25852 1.03965
 H1234 H 0.21092 0.25921 0.99188
 H1235 H 0.27390 0.27563 0.97660
 H1236 H 0.25862 0.21277 0.99122
 H1237 H 0.28924 0.21550 1.01390
 H1238 H 0.28783 0.21353 0.98445
 H1239 H 0.20211 0.27855 1.01169
 H1240 H 0.22042 0.29627 0.99264
 H1241 H 0.27773 0.23988 1.04835
 H1242 H 0.29525 0.25911 1.03013
 H1243 H 0.20270 0.24062 0.97104
 H1244 H 0.22031 0.26079 0.95472
 H1245 H 0.25841 0.29527 1.03106
 H1246 H 0.23865 0.27818 1.04856
 H1247 H 0.25802 0.22425 0.95304
 H1248 H 0.23949 0.20464 0.97053
 C1249 C 0.28790 0.37760 0.78340
 C1250 C 0.27652 0.36427 0.78860
 C1251 C 0.28311 0.34883 0.79555
 C1252 C 0.30122 0.34640 0.79749
 C1253 C 0.31260 0.35964 0.79204
 C1254 C 0.30602 0.37505 0.78506
 C1255 C 0.28097 0.39438 0.77688
 C1256 C 0.28917 0.40307 0.76286
 C1257 C 0.28340 0.41941 0.75755
 C1258 C 0.26931 0.42749 0.76616
 C1259 C 0.26079 0.41856 0.77985
 C1260 C 0.26655 0.40219 0.78513
 H1261 H 0.27402 0.33877 0.79940
 H1262 H 0.32660 0.35830 0.79364
 H1263 H 0.29025 0.42587 0.74693
 H1264 H 0.24992 0.42438 0.78680
 H1265 H 0.31512 0.38519 0.78146
 H1266 H 0.30015 0.39727 0.75608
 H1267 H 0.26250 0.36577 0.78725
 H1268 H 0.26007 0.39591 0.79610
 C1269 C 0.28873 -0.12051 0.28572
 C1270 C 0.29808 -0.13211 0.27506
 C1271 C 0.30473 -0.14752 0.28206
 C1272 C 0.30213 -0.15189 0.29997
 C1273 C 0.29264 -0.14011 0.31052
 C1274 C 0.28612 -0.12471 0.30351
 C1275 C 0.28201 -0.10390 0.27852
 C1276 C 0.26577 -0.09734 0.28404
 C1277 C 0.25994 -0.08120 0.27820
 C1278 C 0.27015 -0.07126 0.26659
 C1279 C 0.28617 -0.07803 0.26066
 C1280 C 0.29205 -0.09414 0.26659
 H1281 H 0.31131 -0.15624 0.27310
 H1282 H 0.29088 -0.14218 0.32450
 H1283 H 0.24749 -0.07643 0.28294
 H1284 H 0.29444 -0.07066 0.25183
 H1285 H 0.27941 -0.11583 0.31223
 H1286 H 0.25757 -0.10466 0.29297
 H1287 H 0.30005 -0.12940 0.26120
 H1288 H 0.30472 -0.09871 0.26225
 C1289 C 0.78845 0.88042 0.78662
 C1290 C 0.80634 0.87675 0.78505
 C1291 C 0.81327 0.86136 0.79173
 C1292 C 0.80253 0.84910 0.80035
 C1293 C 0.78448 0.85286 0.80165
 C1294 C 0.77759 0.86823 0.79487
 C1295 C 0.78128 0.89713 0.78008
 C1296 C 0.76854 0.90609 0.78982
 C1297 C 0.76243 0.92220 0.78416
 C1298 C 0.76895 0.92978 0.76864
 C1299 C 0.78145 0.92067 0.75872
 C1300 C 0.78751 0.90452 0.76436
 H1301 H 0.82728 0.85970 0.79088
 H1302 H 0.77540 0.84371 0.80737
 H1303 H 0.75290 0.92890 0.79220
 H1304 H 0.78671 0.92608 0.74667
 H1305 H 0.76365 0.87049 0.79593
 H1306 H 0.76365 0.90088 0.80212
 H1307 H 0.81516 0.88604 0.77913
 H1308 H 0.79711 0.89784 0.75640
 C1309 C 0.46260 0.86939 0.28656
 C1310 C 0.46169 0.87243 0.30479
 C1311 C 0.45513 0.88803 0.31125
 C1312 C 0.44934 0.90099 0.29963
 C1313 C 0.45029 0.89800 0.28138
 C1314 C 0.45684 0.88235 0.27491
 C1315 C 0.46924 0.85261 0.27985
 C1316 C 0.46081 0.84416 0.26583
 C1317 C 0.46648 0.82788 0.26020
 C1318 C 0.48075 0.81972 0.26845
 C1319 C 0.48942 0.82839 0.28221
 C1320 C 0.48373 0.84464 0.28783
 H1321 H 0.45424 0.88980 0.32538
 H1322 H 0.44611 0.90782 0.27211
 H1323 H 0.45945 0.82156 0.24962
 H1324 H 0.50048 0.82254 0.28884
 H1325 H 0.45757 0.88044 0.26079
 H1326 H 0.44949 0.84990 0.25955
 H1327 H 0.46570 0.86257 0.31411
 H1328 H 0.49065 0.85095 0.29849
 C1329 C -0.03883 0.86959 0.78786
 C1330 C -0.02773 0.88298 0.79354
 C1331 C -0.03467 0.89828 0.80045
 C1332 C -0.05286 0.90050 0.80186
 C1333 C -0.06393 0.88712 0.79614
 C1334 C -0.05700 0.87186 0.78922
 C1335 C -0.03156 0.85313 0.78093
 C1336 C -0.03944 0.84482 0.76649
 C1337 C -0.03326 0.82884 0.76058
 C1338 C -0.01903 0.82076 0.76899
 C1339 C -0.01090 0.82928 0.78318
 C1340 C -0.01708 0.84528 0.78906
 H1341 H -0.02581 0.90844 0.80456
 H1342 H -0.07799 0.88829 0.79736
 H1343 H -0.03984 0.82269 0.74961
 H1344 H 0.00004 0.82342 0.79002
 H1345 H -0.06589 0.86166 0.78528
 H1346 H -0.05047 0.85066 0.75979
 H1347 H -0.01367 0.88168 0.79247
 H1348 H -0.01085 0.85127 0.80034
 C1349 C -0.03768 -0.12031 -0.03676
 C1350 C -0.05539 -0.12442 -0.03437
 C1351 C -0.06229 -0.13983 -0.04099
 C1352 C -0.05172 -0.15165 -0.05039
 C1353 C -0.03387 -0.14744 -0.05259
 C1354 C -0.02698 -0.13206 -0.04583
 C1355 C -0.03057 -0.10359 -0.03020
 C1356 C -0.01843 -0.09419 -0.04030
 C1357 C -0.01239 -0.07809 -0.03457
 C1358 C -0.01840 -0.07094 -0.01865
 C1359 C -0.03032 -0.08046 -0.00841
 C1360 C -0.03628 -0.09662 -0.01409
 H1361 H -0.07620 -0.14184 -0.03946
 H1362 H -0.02490 -0.15624 -0.05899
 H1363 H -0.00333 -0.07104 -0.04287
 H1364 H -0.03516 -0.07539 0.00397
 H1365 H -0.01318 -0.12946 -0.04756
 H1366 H -0.01396 -0.09905 -0.05290
 H1367 H -0.06410 -0.11546 -0.02782
 H1368 H -0.04541 -0.10365 -0.00585
 C1369 C -0.03810 0.37985 0.46482
 C1370 C -0.05620 0.37706 0.46335
 C1371 C -0.06265 0.36143 0.45680
 C1372 C -0.05117 0.34820 0.45158
 C1373 C -0.03307 0.35092 0.45316
 C1374 C -0.02660 0.36659 0.45971
 C1375 C -0.03133 0.39671 0.47127
 C1376 C -0.01692 0.40462 0.46307
 C1377 C -0.01112 0.42090 0.46855
 C1378 C -0.01957 0.42965 0.48238
 C1379 C -0.03377 0.42157 0.49081
 C1380 C -0.03958 0.40530 0.48531
 H1381 H -0.07666 0.35986 0.45543
 H1382 H -0.02390 0.34089 0.44946
 H1383 H -0.00018 0.42674 0.46171
 H1384 H -0.04059 0.42790 0.50152
 H1385 H -0.01260 0.36827 0.46090
 H1386 H -0.01043 0.39842 0.45208
 H1387 H -0.06539 0.38714 0.46686
 H1388 H -0.05056 0.39944 0.49205
 C1389 C 0.46408 -0.12118 0.46470
 C1390 C 0.47493 -0.13298 0.45589
 C1391 C 0.46817 -0.14844 0.44916
 C1392 C 0.45029 -0.15266 0.45112
 C1393 C 0.43960 -0.14083 0.46037
 C1394 C 0.44638 -0.12536 0.46696
 C1395 C 0.47098 -0.10425 0.47093
 C1396 C 0.46498 -0.09690 0.48676
 C1397 C 0.47050 -0.08043 0.49194
 C1398 C 0.48225 -0.07095 0.48146
 C1399 C 0.48867 -0.07852 0.46590
 C1400 C 0.48307 -0.09495 0.46068
 H1401 H 0.47724 -0.15724 0.44292
 H1402 H 0.42568 -0.14287 0.46175
 H1403 H 0.46538 -0.07504 0.50405
 H1404 H 0.49765 -0.07156 0.45744
 H1405 H 0.43754 -0.11637 0.47331
 H1406 H 0.45590 -0.10385 0.49512
 H1407 H 0.48874 -0.13034 0.45428
 H1408 H 0.48777 -0.10010 0.44829
 C1409 C 0.46168 0.38084 -0.03761
 C1410 C 0.44355 0.37801 -0.03843
 C1411 C 0.43690 0.36243 -0.04489
 C1412 C 0.44822 0.34928 -0.05067
 C1413 C 0.46636 0.35208 -0.04985
 C1414 C 0.47302 0.36770 -0.04339
 C1415 C 0.46863 0.39759 -0.03106
 C1416 C 0.48272 0.40571 -0.03959
 C1417 C 0.48865 0.42191 -0.03398
 C1418 C 0.48063 0.43036 -0.01969
 C1419 C 0.46677 0.42205 -0.01094
 C1420 C 0.46085 0.40586 -0.01656
 H1421 H 0.42286 0.36080 -0.04568
 H1422 H 0.47541 0.34212 -0.05403
 H1423 H 0.49931 0.42794 -0.04108
 H1424 H 0.46030 0.42813 0.00013
 H1425 H 0.48705 0.36943 -0.04273
 H1426 H 0.48886 0.39976 -0.05092
 H1427 H 0.43446 0.38800 -0.03442
 H1428 H 0.45013 0.39982 -0.00956
 C1429 C 0.78673 0.37264 0.46515
 C1430 C 0.80491 0.37504 0.46400
 C1431 C 0.81181 0.39037 0.45721
 C1432 C 0.80072 0.40371 0.45144
 C1433 C 0.78253 0.40139 0.45270
 C1434 C 0.77561 0.38600 0.45948
 C1435 C 0.77952 0.35600 0.47175
 C1436 C 0.76528 0.34811 0.46324
 C1437 C 0.75936 0.33182 0.46862
 C1438 C 0.76753 0.32307 0.48265
 C1439 C 0.78141 0.33126 0.49151
 C1440 C 0.78733 0.34752 0.48612
 H1441 H 0.82587 0.39160 0.45606
 H1442 H 0.77365 0.41151 0.44852
 H1443 H 0.74866 0.32590 0.46146
 H1444 H 0.78799 0.32496 0.50241
 H1445 H 0.76155 0.38460 0.46037
 H1446 H 0.75909 0.35424 0.45202
 H1447 H 0.81382 0.36485 0.46793
 H1448 H 0.79815 0.35340 0.49311
 C1449 C 0.78719 0.87206 -0.03492
 C1450 C 0.80540 0.87425 -0.03599
 C1451 C 0.81251 0.88940 -0.04301
 C1452 C 0.80159 0.90275 -0.04911
 C1453 C 0.78337 0.90065 -0.04787
 C1454 C 0.77625 0.88546 -0.04086
 C1455 C 0.77975 0.85559 -0.02819
 C1456 C 0.76552 0.84773 -0.03674
 C1457 C 0.75944 0.83153 -0.03130
 C1458 C 0.76745 0.82282 -0.01715
 C1459 C 0.78129 0.83098 -0.00820
 C1460 C 0.78737 0.84717 -0.01367
 H1461 H 0.82659 0.89046 -0.04410
 H1462 H 0.77463 0.91079 -0.05225
 H1463 H 0.74879 0.82562 -0.03853
 H1464 H 0.78774 0.82471 0.00278
 H1465 H 0.76217 0.88422 -0.04002
 H1466 H 0.75949 0.85382 -0.04808
 H1467 H 0.81418 0.86404 -0.03184
 H1468 H 0.79818 0.85302 -0.00664
 C1469 C 0.78353 0.28873 0.37607
 C1470 C 0.78501 0.30662 0.37308
 C1471 C 0.79178 0.31289 0.35722
 C1472 C 0.79721 0.30141 0.34394
 C1473 C 0.79547 0.28352 0.34680
 C1474 C 0.78871 0.27725 0.36269
 C1475 C 0.77720 0.28214 0.39332
 C1476 C 0.78546 0.26800 0.40147
 C1477 C 0.78024 0.26245 0.41819
 C1478 C 0.76660 0.27090 0.42716
 C1479 C 0.75806 0.28478 0.41881
 C1480 C 0.76331 0.29034 0.40209
 H1481 H 0.79324 0.32673 0.35555
 H1482 H 0.79932 0.27437 0.33673
 H1483 H 0.78715 0.25174 0.42422
 H1484 H 0.74748 0.29157 0.42529
 H1485 H 0.78750 0.26340 0.36451
 H1486 H 0.79634 0.26155 0.39514
 H1487 H 0.78142 0.31580 0.38324
 H1488 H 0.75653 0.30112 0.39605
 C1489 C 0.78673 0.78939 -0.12277
 C1490 C 0.77624 0.79821 -0.13500
 C1491 C 0.78350 0.80516 -0.15038
 C1492 C 0.80154 0.80346 -0.15404
 C1493 C 0.81191 0.79439 -0.14168
 C1494 C 0.80462 0.78753 -0.12633
 C1495 C 0.77927 0.78259 -0.10605
 C1496 C 0.78511 0.76676 -0.09905
 C1497 C 0.77919 0.76102 -0.08265
 C1498 C 0.76720 0.77092 -0.07287
 C1499 C 0.76088 0.78644 -0.08016
 C1500 C 0.76687 0.79222 -0.09655
 H1501 H 0.77469 0.81133 -0.15960
 H1502 H 0.82591 0.79325 -0.14321
 H1503 H 0.78424 0.74894 -0.07750
 H1504 H 0.75171 0.79444 -0.07296
 H1505 H 0.81318 0.78121 -0.11695
 H1506 H 0.79441 0.75888 -0.10619
 H1507 H 0.76232 0.79958 -0.13279
 H1508 H 0.76226 0.80456 -0.10147
 C1509 C 0.28593 0.46139 0.87284
 C1510 C 0.29158 0.47266 0.88622
 C1511 C 0.29832 0.46613 0.90202
 C1512 C 0.29957 0.44818 0.90476
 C1513 C 0.29376 0.43693 0.89145
 C1514 C 0.28701 0.44345 0.87569
 C1515 C 0.27948 0.46822 0.85573
 C1516 C 0.26525 0.46038 0.84715
 C1517 C 0.25991 0.46607 0.83051
 C1518 C 0.26868 0.47974 0.82205
 C1519 C 0.28263 0.48788 0.83086
 C1520 C 0.28795 0.48219 0.84751
 H1521 H 0.30251 0.47511 0.91212
 H1522 H 0.29486 0.42304 0.89303
 H1523 H 0.24909 0.45953 0.82416
 H1524 H 0.28972 0.49842 0.82474
 H1525 H 0.28308 0.43443 0.86551
 H1526 H 0.25831 0.44975 0.85326
 H1527 H 0.29071 0.48654 0.88450
 H1528 H 0.29908 0.48837 0.85369
 C1529 C 0.28638 -0.04038 0.37086
 C1530 C 0.29130 -0.02882 0.38427
 C1531 C 0.29777 -0.03499 0.40032
 C1532 C 0.29947 -0.05285 0.40333
 C1533 C 0.29428 -0.06442 0.39002
 C1534 C 0.28781 -0.05825 0.37398
 C1535 C 0.28023 -0.03385 0.35352
 C1536 C 0.26637 -0.04201 0.34464
 C1537 C 0.26100 -0.03621 0.32804
 C1538 C 0.26939 -0.02211 0.31992
 C1539 C 0.28314 -0.01383 0.32891
 C1540 C 0.28847 -0.01963 0.34551
 H1541 H 0.30142 -0.02577 0.41042
 H1542 H 0.29570 -0.07825 0.39183
 H1543 H 0.25037 -0.04289 0.32153
 H1544 H 0.28995 -0.00298 0.32304
 H1545 H 0.28438 -0.06748 0.36382
 H1546 H 0.25962 -0.05287 0.35057
 H1547 H 0.29009 -0.01498 0.38237
 H1548 H 0.29935 -0.01321 0.35190
 C1549 C -0.03862 -0.04020 -0.12009
 C1550 C -0.05646 -0.03826 -0.12392
 C1551 C -0.06355 -0.04497 -0.13944
 C1552 C -0.05304 -0.05401 -0.15169
 C1553 C -0.03507 -0.05584 -0.14771
 C1554 C -0.02800 -0.04901 -0.13220
 C1555 C -0.03127 -0.03337 -0.10333
 C1556 C -0.01876 -0.04290 -0.09382
 C1557 C -0.01248 -0.03687 -0.07764
 C1558 C -0.01861 -0.02119 -0.07055
 C1559 C -0.03087 -0.01151 -0.08023
 C1560 C -0.03708 -0.01750 -0.09643
 H1561 H -0.07752 -0.04374 -0.14122
 H1562 H -0.02614 -0.06197 -0.15682
 H1563 H -0.00315 -0.04473 -0.07048
 H1564 H -0.03582 0.00065 -0.07521
 H1565 H -0.01412 -0.05043 -0.12981
 H1566 H -0.01418 -0.05528 -0.09863
 H1567 H -0.06511 -0.03192 -0.11466
 H1568 H -0.04649 -0.00971 -0.10356
 C1569 C -0.03742 0.46074 0.37902
 C1570 C -0.04587 0.47163 0.36690
 C1571 C -0.05235 0.46509 0.35101
 C1572 C -0.05052 0.44740 0.34665
 C1573 C -0.04176 0.43663 0.35886
 C1574 C -0.03540 0.44319 0.37477
 C1575 C -0.03108 0.46754 0.39622
 C1576 C -0.01534 0.46153 0.40360
 C1577 C -0.00977 0.46740 0.42009
 C1578 C -0.01975 0.47950 0.42958
 C1579 C -0.03534 0.48573 0.42207
 C1580 C -0.04095 0.47980 0.40562
 H1581 H -0.05824 0.47420 0.34195
 H1582 H -0.04053 0.42285 0.35676
 H1583 H 0.00235 0.46238 0.42544
 H1584 H -0.04343 0.49495 0.42906
 H1585 H -0.02932 0.43435 0.38400
 H1586 H -0.00729 0.45230 0.39659
 H1587 H -0.04729 0.48531 0.36959
 H1588 H -0.05327 0.48450 0.40046
 C1589 C 0.46397 -0.03797 0.37639
 C1590 C 0.45804 -0.02709 0.36278
 C1591 C 0.45113 -0.03410 0.34728
 C1592 C 0.45000 -0.05213 0.34508
 C1593 C 0.45597 -0.06297 0.35869
 C1594 C 0.46288 -0.05597 0.37414
 C1595 C 0.47079 -0.03068 0.39314
 C1596 C 0.48525 -0.03828 0.40156
 C1597 C 0.49085 -0.03232 0.41799
 C1598 C 0.48211 -0.01861 0.42640
 C1599 C 0.46800 -0.01064 0.41769
 C1600 C 0.46242 -0.01661 0.40124
 H1601 H 0.44681 -0.02543 0.33694
 H1602 H 0.45494 -0.07690 0.35756
 H1603 H 0.50180 -0.03872 0.42426
 H1604 H 0.46095 -0.00007 0.42378
 H1605 H 0.46700 -0.06469 0.38453
 H1606 H 0.49213 -0.04897 0.39551
 H1607 H 0.45887 -0.01316 0.36408
 H1608 H 0.45114 -0.01059 0.39515
 C1609 C 0.46297 0.46040 -0.12234
 C1610 C 0.45456 0.47106 -0.13469
 C1611 C 0.44790 0.46419 -0.15035
 C1612 C 0.44949 0.44637 -0.15424
 C1613 C 0.45823 0.43582 -0.14180
 C1614 C 0.46478 0.44273 -0.12613
 C1615 C 0.46943 0.46755 -0.10535
 C1616 C 0.48516 0.46161 -0.09791
 C1617 C 0.49079 0.46772 -0.08153
 C1618 C 0.48086 0.47999 -0.07223
 C1619 C 0.46529 0.48618 -0.07983
 C1620 C 0.45963 0.48001 -0.09617
 H1621 H 0.44205 0.47312 -0.15962
 H1622 H 0.45928 0.42198 -0.14353
 H1623 H 0.50288 0.46273 -0.07611
 H1624 H 0.45723 0.49553 -0.07298
 H1625 H 0.47083 0.43406 -0.11670
 H1626 H 0.49315 0.45221 -0.10477
 H1627 H 0.45330 0.48482 -0.13235
 H1628 H 0.44732 0.48466 -0.10139
 C1629 C 0.46316 0.78928 0.37174
 C1630 C 0.45784 0.77808 0.38532
 C1631 C 0.45146 0.78469 0.40122
 C1632 C 0.45025 0.80265 0.40388
 C1633 C 0.45564 0.81384 0.39032
 C1634 C 0.46203 0.80723 0.37445
 C1635 C 0.46955 0.78234 0.35465
 C1636 C 0.48372 0.79016 0.34597
 C1637 C 0.48927 0.78411 0.32955
 C1638 C 0.48078 0.77009 0.32140
 C1639 C 0.46677 0.76210 0.33023
 C1640 C 0.46124 0.76814 0.34668
 H1641 H 0.44758 0.77575 0.41150
 H1642 H 0.45454 0.82772 0.39181
 H1643 H 0.50012 0.79058 0.32316
 H1644 H 0.45987 0.75132 0.32434
 H1645 H 0.46572 0.81620 0.36412
 H1646 H 0.49054 0.80098 0.35188
 H1647 H 0.45876 0.76419 0.38371
 H1648 H 0.45015 0.76197 0.35294
 C1649 C -0.03841 0.78982 0.87102
 C1650 C -0.05655 0.79121 0.87359
 C1651 C -0.06324 0.79781 0.88932
 C1652 C -0.05196 0.80317 0.90289
 C1653 C -0.03381 0.80178 0.90035
 C1654 C -0.02711 0.79519 0.88457
 C1655 C -0.03141 0.78300 0.85415
 C1656 C -0.01698 0.79087 0.84597
 C1657 C -0.01096 0.78494 0.82965
 C1658 C -0.01922 0.77096 0.82118
 C1659 C -0.03344 0.76288 0.82958
 C1660 C -0.03945 0.76883 0.84586
 H1661 H -0.07728 0.79905 0.89072
 H1662 H -0.02480 0.80563 0.91064
 H1663 H -0.00003 0.79152 0.82354
 H1664 H -0.04011 0.75207 0.82349
 H1665 H -0.01308 0.79410 0.88305
 H1666 H -0.01063 0.80193 0.85195
 H1667 H -0.06559 0.78750 0.86327
 H1668 H -0.05044 0.76233 0.85197
 C1669 C 0.37962 0.78841 0.28817
 C1670 C 0.36647 0.79385 0.27645
 C1671 C 0.35078 0.80072 0.28284
 C1672 C 0.34792 0.80228 0.30106
 C1673 C 0.36108 0.79683 0.31276
 C1674 C 0.37673 0.78997 0.30639
 C1675 C 0.39646 0.78145 0.28149
 C1676 C 0.40460 0.76740 0.28993
 C1677 C 0.42086 0.76138 0.28419
 C1678 C 0.42936 0.76927 0.26986
 C1679 C 0.42105 0.78312 0.26121
 C1680 C 0.40479 0.78913 0.26695
 H1681 H 0.34081 0.80464 0.27352
 H1682 H 0.35942 0.79818 0.32686
 H1683 H 0.42684 0.75067 0.29116
 H1684 H 0.42723 0.78957 0.25017
 H1685 H 0.38674 0.78622 0.31574
 H1686 H 0.39840 0.76105 0.30102
 H1687 H 0.36823 0.79263 0.26235
 H1688 H 0.39896 0.80010 0.26031
 C1689 C -0.11927 0.79031 0.78841
 C1690 C -0.13252 0.79576 0.77681
 C1691 C -0.14814 0.80265 0.78333
 C1692 C -0.15083 0.80423 0.80159
 C1693 C -0.13758 0.79878 0.81316
 C1694 C -0.12199 0.79190 0.80666
 C1695 C -0.10254 0.78323 0.78158
 C1696 C -0.09446 0.76910 0.78994
 C1697 C -0.07832 0.76294 0.78404
 C1698 C -0.06987 0.77076 0.76964
 C1699 C -0.07813 0.78470 0.76107
 C1700 C -0.09428 0.79084 0.76697
 H1701 H -0.15821 0.80652 0.77410
 H1702 H -0.13915 0.80011 0.82728
 H1703 H -0.07237 0.75218 0.79096
 H1704 H -0.07197 0.79110 0.74999
 H1705 H -0.11191 0.78812 0.81592
 H1706 H -0.10062 0.76281 0.80108
 H1707 H -0.13088 0.79450 0.76270
 H1708 H -0.10008 0.80187 0.76038
 C1709 C 0.87129 0.28820 0.46415
 C1710 C 0.88477 0.27712 0.45858
 C1711 C 0.90047 0.28390 0.45209
 C1712 C 0.90298 0.30189 0.45100
 C1713 C 0.88947 0.31293 0.45656
 C1714 C 0.87384 0.30617 0.46307
 C1715 C 0.85444 0.28117 0.47071
 C1716 C 0.84604 0.28887 0.48518
 C1717 C 0.82959 0.28313 0.49062
 C1718 C 0.82113 0.26955 0.48170
 C1719 C 0.82979 0.26148 0.46756
 C1720 C 0.84628 0.26722 0.46215
 H1721 H 0.91071 0.27506 0.44810
 H1722 H 0.89083 0.32684 0.45554
 H1723 H 0.82338 0.28960 0.50160
 H1724 H 0.82366 0.25101 0.46037
 H1725 H 0.86356 0.31504 0.46692
 H1726 H 0.85213 0.29946 0.49222
 H1727 H 0.88323 0.26322 0.45941
 H1728 H 0.85237 0.26113 0.45086
 C1729 C 0.87083 0.78897 -0.03639
 C1730 C 0.87324 0.80697 -0.03738
 C1731 C 0.88873 0.81387 -0.04413
 C1732 C 0.90219 0.80294 -0.05002
 C1733 C 0.89984 0.78492 -0.04889
 C1734 C 0.88431 0.77801 -0.04217
 C1735 C 0.85408 0.78177 -0.02976
 C1736 C 0.84601 0.76780 -0.03838
 C1737 C 0.82961 0.76187 -0.03291
 C1738 C 0.82094 0.76976 -0.01868
 C1739 C 0.82931 0.78338 -0.00973
 C1740 C 0.84567 0.78931 -0.01522
 H1741 H 0.88999 0.82779 -0.04513
 H1742 H 0.91007 0.77617 -0.05310
 H1743 H 0.82355 0.75138 -0.04014
 H1744 H 0.82308 0.78973 0.00132
 H1745 H 0.88290 0.76409 -0.04137
 H1746 H 0.85210 0.76183 -0.04973
 H1747 H 0.86297 0.81575 -0.03334
 H1748 H 0.85170 0.79993 -0.00815
 C1749 C -0.11944 -0.03876 -0.03778
 C1750 C -0.12213 -0.04046 -0.05602
 C1751 C -0.13783 -0.04708 -0.06254
 C1752 C -0.15125 -0.05213 -0.05098
 C1753 C -0.14860 -0.05038 -0.03273
 C1754 C -0.13285 -0.04378 -0.02620
 C1755 C -0.10255 -0.03206 -0.03096
 C1756 C -0.09445 -0.03984 -0.01634
 C1757 C -0.07811 -0.03409 -0.01050
 C1758 C -0.06952 -0.02039 -0.01912
 C1759 C -0.07783 -0.01238 -0.03352
 C1760 C -0.09414 -0.01816 -0.03936
 H1761 H -0.13933 -0.04858 -0.07665
 H1762 H -0.15878 -0.05396 -0.02350
 H1763 H -0.07209 -0.04060 0.00060
 H1764 H -0.07164 -0.00178 -0.04047
 H1765 H -0.13123 -0.04243 -0.01209
 H1766 H -0.10052 -0.05070 -0.00971
 H1767 H -0.11192 -0.03702 -0.06527
 H1768 H -0.10017 -0.01174 -0.05051
 C1769 C -0.12113 0.46252 0.46345
 C1770 C -0.13305 0.45417 0.47465
 C1771 C -0.14878 0.44757 0.46808
 C1772 C -0.15316 0.44917 0.45004
 C1773 C -0.14113 0.45782 0.43896
 C1774 C -0.12540 0.46431 0.44556
 C1775 C -0.10409 0.46898 0.47023
 C1776 C -0.09696 0.48455 0.46389
 C1777 C -0.08052 0.49016 0.46955
 C1778 C -0.07085 0.48038 0.48177
 C1779 C -0.07814 0.46499 0.48841
 C1780 C -0.09455 0.45934 0.48268
 H1781 H -0.15769 0.44177 0.47743
 H1782 H -0.14324 0.45886 0.42491
 H1783 H -0.07535 0.50212 0.46423
 H1784 H -0.07101 0.45706 0.49773
 H1785 H -0.11632 0.47029 0.43646
 H1786 H -0.10409 0.49242 0.45452
 H1787 H -0.13032 0.45291 0.48860
 H1788 H -0.09955 0.44717 0.48764
 C1789 C 0.37778 -0.03575 0.46251
 C1790 C 0.37509 -0.03762 0.44429
 C1791 C 0.35955 -0.04467 0.43784
 C1792 C 0.34629 -0.05000 0.44946
 C1793 C 0.34889 -0.04799 0.46769
 C1794 C 0.36448 -0.04095 0.47415
 C1795 C 0.39464 -0.02891 0.46928
 C1796 C 0.40284 -0.03665 0.48387
 C1797 C 0.41931 -0.03104 0.48945
 C1798 C 0.42796 -0.01753 0.48059
 C1799 C 0.41949 -0.00944 0.46633
 C1800 C 0.40304 -0.01508 0.46074
 H1801 H 0.35809 -0.04635 0.42375
 H1802 H 0.33883 -0.05177 0.47695
 H1803 H 0.42543 -0.03759 0.50047
 H1804 H 0.42572 0.00103 0.45921
 H1805 H 0.36609 -0.03948 0.48825
 H1806 H 0.39678 -0.04745 0.49061
 H1807 H 0.38522 -0.03404 0.43500
 H1808 H 0.39694 -0.00869 0.44962
 C1809 C 0.37914 0.46213 -0.03777
 C1810 C 0.36713 0.47272 -0.04667
 C1811 C 0.35128 0.46600 -0.05282
 C1812 C 0.34687 0.44842 -0.05018
 C1813 C 0.35902 0.43794 -0.04104
 C1814 C 0.37487 0.44468 -0.03501
 C1815 C 0.39621 0.46909 -0.03164
 C1816 C 0.40340 0.46366 -0.01550
 C1817 C 0.41982 0.46954 -0.01010
 C1818 C 0.42942 0.48109 -0.02067
 C1819 C 0.42208 0.48680 -0.03664
 C1820 C 0.40568 0.48085 -0.04208
 H1821 H 0.34230 0.47490 -0.05906
 H1822 H 0.35688 0.42423 -0.03922
 H1823 H 0.42503 0.46495 0.00233
 H1824 H 0.42918 0.49558 -0.04517
 H1825 H 0.38402 0.43604 -0.02858
 H1826 H 0.39632 0.45485 -0.00700
 H1827 H 0.36986 0.48632 -0.04869
 H1828 H 0.40063 0.48510 -0.05469
 C1829 C 0.37264 0.46118 0.78509
 C1830 C 0.37485 0.44317 0.78636
 C1831 C 0.39024 0.43621 0.79324
 C1832 C 0.40383 0.44708 0.79898
 C1833 C 0.40169 0.46510 0.79761
 C1834 C 0.38623 0.47208 0.79076
 C1835 C 0.35595 0.46844 0.77835
 C1836 C 0.34799 0.48255 0.78681
 C1837 C 0.33159 0.48848 0.78133
 C1838 C 0.32281 0.48044 0.76723
 C1839 C 0.33109 0.46671 0.75840
 C1840 C 0.34745 0.46077 0.76391
 H1841 H 0.39133 0.42229 0.79445
 H1842 H 0.41201 0.47379 0.80174
 H1843 H 0.32561 0.49907 0.78845
 H1844 H 0.32477 0.46024 0.74746
 H1845 H 0.38496 0.48600 0.78977
 H1846 H 0.35415 0.48862 0.79807
 H1847 H 0.36447 0.43445 0.78243
 H1848 H 0.35339 0.45004 0.75696
 C1849 C 0.37099 -0.03998 0.28593
 C1850 C 0.37355 -0.05792 0.28746
 C1851 C 0.38927 -0.06450 0.29400
 C1852 C 0.40282 -0.05330 0.29913
 C1853 C 0.40030 -0.03535 0.29753
 C1854 C 0.38455 -0.02876 0.29101
 C1855 C 0.35408 -0.03307 0.27939
 C1856 C 0.34623 -0.01874 0.28756
 C1857 C 0.32990 -0.01277 0.28194
 C1858 C 0.32108 -0.02097 0.26798
 C1859 C 0.32913 -0.03510 0.25959
 C1860 C 0.34543 -0.04108 0.26524
 H1861 H 0.39067 -0.07838 0.29541
 H1862 H 0.41058 -0.02640 0.30118
 H1863 H 0.32407 -0.00189 0.28875
 H1864 H 0.32274 -0.04174 0.24879
 H1865 H 0.38303 -0.01488 0.28978
 H1866 H 0.35249 -0.01243 0.29863
 H1867 H 0.36324 -0.06689 0.28397
 H1868 H 0.35126 -0.05201 0.25853
 C1869 C 0.12987 0.53898 0.71327
 C1870 C 0.11643 0.52783 0.70772
 C1871 C 0.10064 0.53450 0.70136
 C1872 C 0.09796 0.55248 0.70040
 C1873 C 0.11140 0.56360 0.70599
 C1874 C 0.12715 0.55694 0.71235
 C1875 C 0.14681 0.53199 0.71970
 C1876 C 0.15535 0.53966 0.73412
 C1877 C 0.17166 0.53362 0.73969
 C1878 C 0.17983 0.51975 0.73098
 C1879 C 0.17113 0.51188 0.71675
 C1880 C 0.15480 0.51792 0.71119
 H1881 H 0.09045 0.52560 0.69735
 H1882 H 0.10988 0.57751 0.70510
 H1883 H 0.17795 0.54000 0.75071
 H1884 H 0.17705 0.50122 0.70967
 H1885 H 0.13737 0.56587 0.71621
 H1886 H 0.14942 0.55037 0.74110
 H1887 H 0.11806 0.51393 0.70847
 H1888 H 0.14863 0.51186 0.69992
 C1889 C 0.12804 0.03774 0.21446
 C1890 C 0.12567 0.05572 0.21321
 C1891 C 0.11009 0.06257 0.20664
 C1892 C 0.09645 0.05160 0.20121
 C1893 C 0.09875 0.03360 0.20259
 C1894 C 0.11439 0.02674 0.20912
 C1895 C 0.14489 0.03059 0.22087
 C1896 C 0.15278 0.01650 0.21229
 C1897 C 0.16926 0.01060 0.21755
 C1898 C 0.17819 0.01862 0.23155
 C1899 C 0.17002 0.03237 0.24047
 C1900 C 0.15359 0.03828 0.23518
 H1901 H 0.10888 0.07648 0.20542
 H1902 H 0.08841 0.02482 0.19872
 H1903 H 0.17516 -0.00001 0.21037
 H1904 H 0.17646 0.03883 0.25134
 H1905 H 0.11578 0.01283 0.21011
 H1906 H 0.14647 0.01041 0.20112
 H1907 H 0.13606 0.06452 0.21690
 H1908 H 0.14772 0.04900 0.24221
 C1909 C 0.62186 0.71152 0.21418
 C1910 C 0.62427 0.69352 0.21319
 C1911 C 0.63965 0.68664 0.20623
 C1912 C 0.65302 0.69757 0.20011
 C1913 C 0.65067 0.71558 0.20118
 C1914 C 0.63524 0.72249 0.20814
 C1915 C 0.60519 0.71869 0.22100
 C1916 C 0.59702 0.73265 0.21246
 C1917 C 0.58065 0.73851 0.21804
 C1918 C 0.57209 0.73055 0.23231
 C1919 C 0.58056 0.71696 0.24122
 C1920 C 0.59691 0.71111 0.23562
 H1921 H 0.64090 0.67271 0.20526
 H1922 H 0.66082 0.72433 0.19676
 H1923 H 0.57451 0.74899 0.21084
 H1924 H 0.57441 0.71057 0.25230
 H1925 H 0.63383 0.73640 0.20890
 H1926 H 0.60300 0.73865 0.20105
 H1927 H 0.61407 0.68474 0.21741
 H1928 H 0.60302 0.70050 0.24264
 C1929 C 0.12239 0.71194 0.71436
 C1930 C 0.13590 0.72274 0.70829
 C1931 C 0.15129 0.71564 0.70144
 C1932 C 0.15347 0.69760 0.70047
 C1933 C 0.13996 0.68684 0.70659
 C1934 C 0.12462 0.69391 0.71346
 C1935 C 0.10579 0.71932 0.72115
 C1936 C 0.09744 0.71188 0.73580
 C1937 C 0.08116 0.71793 0.74139
 C1938 C 0.07282 0.73158 0.73245
 C1939 C 0.08145 0.73940 0.71814
 C1940 C 0.09776 0.73334 0.71256
 H1941 H 0.16155 0.72427 0.69702
 H1942 H 0.14107 0.67290 0.70570
 H1943 H 0.07495 0.71163 0.75250
 H1944 H 0.07541 0.74991 0.71091
 H1945 H 0.11431 0.68525 0.71769
 H1946 H 0.10343 0.70123 0.74285
 H1947 H 0.13463 0.73667 0.70899
 H1948 H 0.10379 0.73924 0.70113
 C1949 C 0.62835 0.21292 0.53768
 C1950 C 0.62548 0.21149 0.55592
 C1951 C 0.60984 0.20464 0.56237
 C1952 C 0.59669 0.19908 0.55074
 C1953 C 0.59949 0.20062 0.53249
 C1954 C 0.61515 0.20746 0.52603
 C1955 C 0.64521 0.21972 0.53090
 C1956 C 0.65350 0.21183 0.51647
 C1957 C 0.66980 0.21769 0.51065
 C1958 C 0.67817 0.23161 0.51911
 C1959 C 0.66969 0.23971 0.53334
 C1960 C 0.65341 0.23383 0.53916
 H1961 H 0.60822 0.20333 0.57648
 H1962 H 0.58950 0.19664 0.52322
 H1963 H 0.67596 0.21109 0.49971
 H1964 H 0.67572 0.25047 0.54016
 H1965 H 0.61690 0.20860 0.51192
 H1966 H 0.64761 0.20080 0.50997
 H1967 H 0.63551 0.21528 0.56522
 H1968 H 0.64724 0.24032 0.55016
 C1969 C 0.62804 0.71236 0.03656
 C1970 C 0.61486 0.70699 0.02485
 C1971 C 0.59906 0.70038 0.03126
 C1972 C 0.59612 0.69901 0.04949
 C1973 C 0.60932 0.70437 0.06117
 C1974 C 0.62508 0.71098 0.05478
 C1975 C 0.64495 0.71915 0.02988
 C1976 C 0.65311 0.73324 0.03821
 C1977 C 0.66942 0.73913 0.03251
 C1978 C 0.67798 0.73106 0.01832
 C1979 C 0.66966 0.71717 0.00976
 C1980 C 0.65332 0.71130 0.01547
 H1981 H 0.58906 0.69652 0.02194
 H1982 H 0.60760 0.70314 0.07528
 H1983 H 0.67540 0.74988 0.03939
 H1984 H 0.67589 0.71060 -0.00116
 H1985 H 0.63510 0.71468 0.06413
 H1986 H 0.64687 0.73972 0.04918
 H1987 H 0.61669 0.70808 0.01075
 H1988 H 0.64746 0.70029 0.00891
 C1989 C 0.12394 0.03659 0.03474
 C1990 C 0.12771 0.05422 0.03252
 C1991 C 0.14326 0.06125 0.03894
 C1992 C 0.15560 0.05088 0.04795
 C1993 C 0.15175 0.03309 0.04994
 C1994 C 0.13619 0.02609 0.04341
 C1995 C 0.10699 0.02942 0.02855
 C1996 C 0.09777 0.01739 0.03888
 C1997 C 0.08124 0.01160 0.03369
 C1998 C 0.07352 0.01776 0.01807
 C1999 C 0.08296 0.02942 0.00749
 C2000 C 0.09951 0.03514 0.01265
 H2001 H 0.14496 0.07507 0.03760
 H2002 H 0.16094 0.02429 0.05604
 H2003 H 0.07430 0.00269 0.04221
 H2004 H 0.07747 0.03433 -0.00468
 H2005 H 0.13382 0.01236 0.04501
 H2006 H 0.10305 0.01289 0.05131
 H2007 H 0.11835 0.06277 0.02629
 H2008 H 0.10641 0.04417 0.00424
 C2009 C 0.12228 0.53823 0.53558
 C2010 C 0.12470 0.55623 0.53649
 C2011 C 0.14014 0.56314 0.54331
 C2012 C 0.15356 0.55223 0.54937
 C2013 C 0.15120 0.53421 0.54837
 C2014 C 0.13571 0.52728 0.54156
 C2015 C 0.10555 0.53102 0.52891
 C2016 C 0.09745 0.51709 0.53756
 C2017 C 0.08104 0.51119 0.53212
 C2018 C 0.07236 0.51909 0.51787
 C2019 C 0.08075 0.53266 0.50887
 C2020 C 0.09714 0.53856 0.51433
 H2021 H 0.14140 0.57707 0.54423
 H2022 H 0.16139 0.52548 0.55274
 H2023 H 0.07497 0.50073 0.53939
 H2024 H 0.07450 0.53901 0.49780
 H2025 H 0.13429 0.51336 0.54085
 H2026 H 0.10352 0.51113 0.54895
 H2027 H 0.11446 0.56500 0.53233
 H2028 H 0.10318 0.54914 0.50723
 C2029 C 0.62034 0.04049 0.53678
 C2030 C 0.62410 0.05817 0.53495
 C2031 C 0.63964 0.06509 0.54158
 C2032 C 0.65196 0.05456 0.55041
 C2033 C 0.64809 0.03674 0.55205
 C2034 C 0.63257 0.02985 0.54531
 C2035 C 0.60351 0.03332 0.53020
 C2036 C 0.59435 0.02084 0.54003
 C2037 C 0.57814 0.01470 0.53426
 C2038 C 0.57067 0.02093 0.51855
 C2039 C 0.57997 0.03319 0.50857
 C2040 C 0.59621 0.03928 0.51430
 H2041 H 0.64133 0.07894 0.54052
 H2042 H 0.65727 0.02783 0.55800
 H2043 H 0.57130 0.00535 0.54236
 H2044 H 0.57465 0.03822 0.49636
 H2045 H 0.63024 0.01608 0.54661
 H2046 H 0.59948 0.01617 0.55245
 H2047 H 0.61476 0.06682 0.52883
 H2048 H 0.60305 0.04868 0.50627
 C2049 C 0.62219 0.53750 0.03595
 C2050 C 0.63545 0.54323 0.02455
 C2051 C 0.65094 0.55022 0.03130
 C2052 C 0.65346 0.55164 0.04960
 C2053 C 0.64024 0.54578 0.06099
 C2054 C 0.62479 0.53878 0.05424
 C2055 C 0.60544 0.53067 0.02891
 C2056 C 0.59724 0.51645 0.03695
 C2057 C 0.58087 0.51079 0.03117
 C2058 C 0.57229 0.51924 0.01720
 C2059 C 0.58075 0.53314 0.00879
 C2060 C 0.59715 0.53878 0.01458
 H2061 H 0.66099 0.55442 0.02221
 H2062 H 0.64163 0.54700 0.07514
 H2063 H 0.57479 0.50000 0.03792
 H2064 H 0.57453 0.53998 -0.00198
 H2065 H 0.61468 0.53478 0.06337
 H2066 H 0.60343 0.50977 0.04785
 H2067 H 0.63390 0.54222 0.01040
 H2068 H 0.60306 0.54988 0.00822
 C2069 C 0.03658 0.03720 0.12347
 C2070 C 0.03453 0.05487 0.12720
 C2071 C 0.04108 0.06194 0.14280
 C2072 C 0.05006 0.05159 0.15521
 C2073 C 0.05181 0.03375 0.15143
 C2074 C 0.04515 0.02671 0.13585
 C2075 C 0.03027 0.02994 0.10647
 C2076 C 0.04031 0.01766 0.09727
 C2077 C 0.03497 0.01169 0.08073
 C2078 C 0.01950 0.01791 0.07296
 C2079 C 0.00923 0.02983 0.08237
 C2080 C 0.01453 0.03573 0.09894
 H2081 H 0.03985 0.07578 0.14445
 H2082 H 0.05783 0.02495 0.16071
 H2083 H 0.04326 0.00259 0.07382
 H2084 H -0.00282 0.03481 0.07684
 H2085 H 0.04660 0.01295 0.13356
 H2086 H 0.05261 0.01310 0.10258
 H2087 H 0.02834 0.06341 0.11775
 H2088 H 0.00634 0.04494 0.10581
 C2089 C 0.03682 0.53850 0.62305
 C2090 C 0.04274 0.52747 0.63653
 C2091 C 0.04952 0.53428 0.65218
 C2092 C 0.05054 0.55228 0.65469
 C2093 C 0.04452 0.56329 0.64124
 C2094 C 0.03773 0.55648 0.62562
 C2095 C 0.03014 0.53138 0.60615
 C2096 C 0.01568 0.53898 0.59774
 C2097 C 0.01010 0.53307 0.58128
 C2098 C 0.01884 0.51939 0.57281
 C2099 C 0.03300 0.51145 0.58147
 C2100 C 0.03857 0.51738 0.59796
 H2101 H 0.05386 0.52547 0.66239
 H2102 H 0.04544 0.57721 0.64261
 H2103 H -0.00089 0.53945 0.57505
 H2104 H 0.04008 0.50093 0.57534
 H2105 H 0.03359 0.56533 0.61536
 H2106 H 0.00875 0.54962 0.60384
 H2107 H 0.04202 0.51356 0.63501
 H2108 H 0.04986 0.51136 0.60402
 C2109 C 0.53726 0.03840 0.62101
 C2110 C 0.52606 0.04652 0.63309
 C2111 C 0.53250 0.05298 0.64904
 C2112 C 0.55039 0.05147 0.65347
 C2113 C 0.56147 0.04306 0.64126
 C2114 C 0.55501 0.03671 0.62532
 C2115 C 0.53060 0.03205 0.60378
 C2116 C 0.53694 0.01654 0.59652
 C2117 C 0.53133 0.01099 0.57993
 C2118 C 0.51917 0.02077 0.57023
 C2119 C 0.51256 0.03611 0.57765
 C2120 C 0.51823 0.04169 0.59421
 H2121 H 0.52315 0.05856 0.65808
 H2122 H 0.57541 0.04210 0.64343
 H2123 H 0.53663 -0.00093 0.57467
 H2124 H 0.50327 0.04403 0.57050
 H2125 H 0.56408 0.03089 0.61612
 H2126 H 0.54626 0.00867 0.60367
 H2127 H 0.51222 0.04769 0.63033
 H2128 H 0.51327 0.05381 0.59931
 C2129 C 0.53616 0.53875 0.12182
 C2130 C 0.53716 0.55671 0.12459
 C2131 C 0.54398 0.56332 0.14029
 C2132 C 0.54994 0.55213 0.15361
 C2133 C 0.54874 0.53417 0.15094
 C2134 C 0.54193 0.52755 0.13522
 C2135 C 0.52962 0.53182 0.10478
 C2136 C 0.53805 0.51781 0.09660
 C2137 C 0.53260 0.51198 0.08004
 C2138 C 0.51858 0.52004 0.07127
 C2139 C 0.50986 0.53377 0.07969
 C2140 C 0.51533 0.53958 0.09623
 H2141 H 0.54501 0.57721 0.14180
 H2142 H 0.55301 0.52523 0.16106
 H2143 H 0.53965 0.50142 0.07395
 H2144 H 0.49898 0.54025 0.07338
 H2145 H 0.54110 0.51366 0.13357
 H2146 H 0.54923 0.51168 0.10275
 H2147 H 0.53312 0.56568 0.11440
 H2148 H 0.50840 0.55024 0.10232
 C2149 C 0.21253 0.53960 0.62874
 C2150 C 0.20729 0.52843 0.61511
 C2151 C 0.20077 0.53508 0.59927
 C2152 C 0.19934 0.55304 0.59673
 C2153 C 0.20463 0.56420 0.61035
 C2154 C 0.21116 0.55756 0.62616
 C2155 C 0.21912 0.53262 0.64573
 C2156 C 0.23329 0.54053 0.65434
 C2157 C 0.23904 0.53445 0.67069
 C2158 C 0.23074 0.52031 0.67884
 C2159 C 0.21675 0.51222 0.67007
 C2160 C 0.21102 0.51829 0.65369
 H2161 H 0.19699 0.52617 0.58894
 H2162 H 0.20337 0.57808 0.60895
 H2163 H 0.24986 0.54100 0.67703
 H2164 H 0.21000 0.50134 0.67597
 H2165 H 0.21478 0.56649 0.63653
 H2166 H 0.23995 0.55145 0.64842
 H2167 H 0.20839 0.51454 0.61664
 H2168 H 0.19995 0.51205 0.64748
 C2169 C 0.21524 0.03788 0.12600
 C2170 C 0.21023 0.02677 0.11223
 C2171 C 0.20360 0.03348 0.09646
 C2172 C 0.20180 0.05145 0.09415
 C2173 C 0.20692 0.06254 0.10789
 C2174 C 0.21358 0.05584 0.12361
 C2175 C 0.22169 0.03087 0.14302
 C2176 C 0.23560 0.03893 0.15190
 C2177 C 0.24090 0.03309 0.16849
 C2178 C 0.23239 0.01906 0.17662
 C2179 C 0.21878 0.01070 0.16750
 C2180 C 0.21351 0.01653 0.15088
 H2181 H 0.19994 0.02463 0.08604
 H2182 H 0.20537 0.07641 0.10667
 H2183 H 0.25147 0.03981 0.17507
 H2184 H 0.21192 -0.00013 0.17335
 H2185 H 0.21701 0.06472 0.13409
 H2186 H 0.24232 0.04985 0.14606
 H2187 H 0.21154 0.01289 0.11363
 H2188 H 0.20263 0.01016 0.14443
 C2189 C 0.71136 0.21134 0.62092
 C2190 C 0.70584 0.22249 0.63445
 C2191 C 0.69957 0.21581 0.65039
 C2192 C 0.69869 0.19784 0.65312
 C2193 C 0.70417 0.18671 0.63956
 C2194 C 0.71043 0.19338 0.62367
 C2195 C 0.71788 0.21832 0.60390
 C2196 C 0.73222 0.21062 0.59542
 C2197 C 0.73793 0.21669 0.57906
 C2198 C 0.72943 0.23063 0.57077
 C2199 C 0.71526 0.23854 0.57941
 C2200 C 0.70956 0.23246 0.59580
 H2201 H 0.69563 0.22471 0.66066
 H2202 H 0.70333 0.17281 0.64113
 H2203 H 0.74890 0.21030 0.57283
 H2204 H 0.70835 0.24925 0.57339
 H2205 H 0.71426 0.18444 0.61338
 H2206 H 0.73906 0.19987 0.60145
 H2207 H 0.70659 0.23639 0.63281
 H2208 H 0.69835 0.23855 0.60191
 C2209 C 0.71123 0.71046 0.12031
 C2210 C 0.70997 0.69250 0.12288
 C2211 C 0.70361 0.68580 0.13873
 C2212 C 0.69838 0.69691 0.15241
 C2213 C 0.69971 0.71488 0.14988
 C2214 C 0.70605 0.72159 0.13399
 C2215 C 0.71768 0.71750 0.10330
 C2216 C 0.70946 0.73179 0.09539
 C2217 C 0.71507 0.73794 0.07901
 C2218 C 0.72908 0.72995 0.07018
 C2219 C 0.73748 0.71583 0.07827
 C2220 C 0.73184 0.70968 0.09462
 H2221 H 0.70242 0.67191 0.14012
 H2222 H 0.69598 0.72376 0.16025
 H2223 H 0.70825 0.74879 0.07315
 H2224 H 0.74832 0.70936 0.07189
 H2225 H 0.70708 0.73549 0.13248
 H2226 H 0.69838 0.73796 0.10166
 H2227 H 0.71355 0.68360 0.11247
 H2228 H 0.73859 0.69880 0.10050
 C2229 C 0.53514 0.71213 0.12693
 C2230 C 0.53612 0.69419 0.12407
 C2231 C 0.54278 0.68767 0.10830
 C2232 C 0.54861 0.69893 0.09498
 C2233 C 0.54748 0.71687 0.09774
 C2234 C 0.54082 0.72341 0.11356
 C2235 C 0.52873 0.71892 0.14404
 C2236 C 0.53729 0.73278 0.15234
 C2237 C 0.53204 0.73837 0.16903
 C2238 C 0.51808 0.73022 0.17780
 C2239 C 0.50921 0.71667 0.16926
 C2240 C 0.51447 0.71109 0.15258
 H2241 H 0.54379 0.67379 0.10671
 H2242 H 0.55167 0.72586 0.08763
 H2243 H 0.53920 0.74882 0.17522
 H2244 H 0.49835 0.71014 0.17557
 H2245 H 0.54003 0.73729 0.11530
 H2246 H 0.54844 0.73895 0.14618
 H2247 H 0.53217 0.68517 0.13424
 H2248 H 0.50745 0.70055 0.14640
 C2249 C 0.03692 0.71254 0.62746
 C2250 C 0.03761 0.69455 0.62490
 C2251 C 0.04434 0.68767 0.60931
 C2252 C 0.05051 0.69861 0.59588
 C2253 C 0.04969 0.71662 0.59836
 C2254 C 0.04297 0.72351 0.61400
 C2255 C 0.03034 0.71969 0.64436
 C2256 C 0.03903 0.73348 0.65266
 C2257 C 0.03360 0.73934 0.66921
 C2258 C 0.01933 0.73155 0.67781
 C2259 C 0.01032 0.71811 0.66921
 C2260 C 0.01576 0.71226 0.65270
 H2261 H 0.04511 0.67374 0.60795
 H2262 H 0.05415 0.72538 0.58817
 H2263 H 0.04087 0.74969 0.67544
 H2264 H -0.00077 0.71185 0.67538
 H2265 H 0.04241 0.73743 0.61553
 H2266 H 0.05041 0.73936 0.64663
 H2267 H 0.03336 0.68575 0.63515
 H2268 H 0.00864 0.70180 0.64650
 C2269 C 0.53739 0.62802 0.21541
 C2270 C 0.55555 0.62569 0.21386
 C2271 C 0.56237 0.61040 0.20689
 C2272 C 0.55120 0.59703 0.20131
 C2273 C 0.53304 0.59926 0.20306
 C2274 C 0.52621 0.61460 0.21001
 C2275 C 0.53023 0.64462 0.22212
 C2276 C 0.51578 0.65245 0.21389
 C2277 C 0.50989 0.66871 0.21936
 C2278 C 0.51829 0.67750 0.23321
 C2279 C 0.53237 0.66938 0.24181
 C2280 C 0.53828 0.65315 0.23632
 H2281 H 0.57640 0.60923 0.20542
 H2282 H 0.52410 0.58911 0.19911
 H2283 H 0.49903 0.67457 0.21240
 H2284 H 0.53914 0.67572 0.25256
 H2285 H 0.51217 0.61593 0.21124
 H2286 H 0.50942 0.64627 0.20280
 H2287 H 0.56450 0.63591 0.21760
 H2288 H 0.54927 0.64733 0.24310
 C2289 C 0.03750 0.62912 0.71542
 C2290 C 0.02627 0.61578 0.70990
 C2291 C 0.03306 0.60034 0.70314
 C2292 C 0.05123 0.59794 0.70170
 C2293 C 0.06243 0.61126 0.70732
 C2294 C 0.05566 0.62664 0.71411
 C2295 C 0.03043 0.64579 0.72204
 C2296 C 0.03839 0.65422 0.73635
 C2297 C 0.03261 0.67051 0.74177
 C2298 C 0.01873 0.67879 0.73300
 C2299 C 0.01040 0.67009 0.71903
 C2300 C 0.01618 0.65377 0.71364
 H2301 H 0.02409 0.59024 0.69914
 H2302 H 0.07647 0.60996 0.70607
 H2303 H 0.03931 0.67677 0.75261
 H2304 H -0.00031 0.67607 0.71195
 H2305 H 0.06465 0.63680 0.71792
 H2306 H 0.04923 0.64828 0.74326
 H2307 H 0.01223 0.61724 0.71094
 H2308 H 0.00987 0.64766 0.70247
 C2309 C 0.03826 0.11989 0.03766
 C2310 C 0.03926 0.12235 0.05598
 C2311 C 0.04607 0.13765 0.06294
 C2312 C 0.05202 0.15090 0.05175
 C2313 C 0.05104 0.14846 0.03341
 C2314 C 0.04424 0.13311 0.02644
 C2315 C 0.03133 0.10341 0.03042
 C2316 C 0.03964 0.09522 0.01618
 C2317 C 0.03389 0.07905 0.01026
 C2318 C 0.01968 0.07073 0.01844
 C2319 C 0.01102 0.07924 0.03229
 C2320 C 0.01678 0.09537 0.03821
 H2321 H 0.04697 0.13898 0.07712
 H2322 H 0.05534 0.15851 0.02445
 H2323 H 0.04091 0.07288 -0.00042
 H2324 H -0.00001 0.07328 0.03887
 H2325 H 0.04349 0.13164 0.01226
 H2326 H 0.05098 0.10102 0.01000
 H2327 H 0.03510 0.11228 0.06498
 H2328 H 0.00993 0.10150 0.04901
 C2329 C 0.03717 0.62128 0.53599
 C2330 C 0.03791 0.62408 0.55427
 C2331 C 0.04480 0.63942 0.56103
 C2332 C 0.05112 0.65237 0.54969
 C2333 C 0.05042 0.64959 0.53139
 C2334 C 0.04352 0.63420 0.52461
 C2335 C 0.03021 0.60471 0.52898
 C2336 C 0.03864 0.59619 0.51501
 C2337 C 0.03289 0.57993 0.50937
 C2338 C 0.01856 0.57183 0.51757
 C2339 C 0.00978 0.58064 0.53114
 C2340 C 0.01553 0.59688 0.53677
 H2341 H 0.04550 0.64100 0.57520
 H2342 H 0.05503 0.65941 0.52232
 H2343 H 0.04001 0.57352 0.49892
 H2344 H -0.00135 0.57485 0.53771
 H2345 H 0.04298 0.63247 0.51046
 H2346 H 0.05008 0.60181 0.50886
 H2347 H 0.03349 0.61423 0.56340
 H2348 H 0.00858 0.60326 0.54736
 C2349 C 0.53815 0.12076 0.53559
 C2350 C 0.55625 0.12352 0.53707
 C2351 C 0.56272 0.13910 0.54373
 C2352 C 0.55124 0.15230 0.54904
 C2353 C 0.53314 0.14962 0.54736
 C2354 C 0.52666 0.13401 0.54073
 C2355 C 0.53134 0.10394 0.52909
 C2356 C 0.51700 0.09598 0.53736
 C2357 C 0.51114 0.07974 0.53179
 C2358 C 0.51946 0.07112 0.51780
 C2359 C 0.53359 0.07927 0.50932
 C2360 C 0.53946 0.09548 0.51491
 H2361 H 0.57672 0.14064 0.54516
 H2362 H 0.52397 0.15964 0.55112
 H2363 H 0.50027 0.07383 0.53868
 H2364 H 0.54031 0.07304 0.49848
 H2365 H 0.51266 0.13235 0.53951
 H2366 H 0.51061 0.10209 0.54846
 H2367 H 0.56543 0.11345 0.53350
 H2368 H 0.55040 0.10139 0.50813
 C2369 C 0.53592 0.62215 0.03435
 C2370 C 0.54208 0.63521 0.02303
 C2371 C 0.54878 0.65065 0.02989
 C2372 C 0.54947 0.65333 0.04821
 C2373 C 0.54336 0.64023 0.05948
 C2374 C 0.53665 0.62485 0.05264
 C2375 C 0.52917 0.60555 0.02727
 C2376 C 0.51451 0.59760 0.03496
 C2377 C 0.50898 0.58129 0.02934
 C2378 C 0.51799 0.57252 0.01590
 C2379 C 0.53229 0.58075 0.00777
 C2380 C 0.53780 0.59709 0.01340
 H2381 H 0.55324 0.66058 0.02087
 H2382 H 0.54407 0.64172 0.07366
 H2383 H 0.49786 0.57541 0.03584
 H2384 H 0.53956 0.57438 -0.00260
 H2385 H 0.53237 0.61489 0.06171
 H2386 H 0.50741 0.60394 0.04548
 H2387 H 0.54156 0.63354 0.00887
 H2388 H 0.54923 0.60282 0.00732
 C2389 C 0.71101 0.13160 0.53743
 C2390 C 0.70234 0.11985 0.52636
 C2391 C 0.69563 0.10435 0.53304
 C2392 C 0.69743 0.10003 0.55107
 C2393 C 0.70642 0.11186 0.56201
 C2394 C 0.71302 0.12738 0.55530
 C2395 C 0.71761 0.14838 0.53049
 C2396 C 0.73348 0.15532 0.53659
 C2397 C 0.73924 0.17150 0.53075
 C2398 C 0.72931 0.18109 0.51858
 C2399 C 0.71362 0.17398 0.51219
 C2400 C 0.70782 0.15784 0.51810
 H2401 H 0.68963 0.09555 0.52376
 H2402 H 0.70766 0.10974 0.57605
 H2403 H 0.75143 0.17654 0.53590
 H2404 H 0.70556 0.18107 0.50292
 H2405 H 0.71928 0.13632 0.56430
 H2406 H 0.74148 0.14825 0.54591
 H2407 H 0.70093 0.12252 0.51242
 H2408 H 0.69542 0.15299 0.51332
 C2409 C 0.71101 0.63072 0.03524
 C2410 C 0.72260 0.61760 0.04055
 C2411 C 0.71625 0.60196 0.04725
 C2412 C 0.69816 0.59910 0.04880
 C2413 C 0.68658 0.61216 0.04332
 C2414 C 0.69293 0.62778 0.03662
 C2415 C 0.71769 0.64760 0.02873
 C2416 C 0.70949 0.65609 0.01458
 C2417 C 0.71527 0.67236 0.00902
 C2418 C 0.72940 0.68053 0.01749
 C2419 C 0.73779 0.67188 0.03145
 C2420 C 0.73201 0.65561 0.03699
 H2421 H 0.72549 0.59205 0.05114
 H2422 H 0.67259 0.61047 0.04464
 H2423 H 0.70850 0.67862 -0.00178
 H2424 H 0.74866 0.67780 0.03834
 H2425 H 0.68366 0.63774 0.03293
 H2426 H 0.69857 0.65015 0.00781
 H2427 H 0.73659 0.61939 0.03942
 H2428 H 0.73847 0.64950 0.04807
 C2429 C 0.21226 0.61943 0.71374
 C2430 C 0.22363 0.63259 0.70804
 C2431 C 0.21701 0.64815 0.70140
 C2432 C 0.19887 0.65088 0.70030
 C2433 C 0.18752 0.63777 0.70612
 C2434 C 0.19413 0.62224 0.71276
 C2435 C 0.21919 0.60267 0.72029
 C2436 C 0.21133 0.59430 0.73470
 C2437 C 0.21724 0.57809 0.74028
 C2438 C 0.23117 0.56985 0.73157
 C2439 C 0.23926 0.57840 0.71737
 C2440 C 0.23334 0.59462 0.71181
 H2441 H 0.22608 0.65810 0.69723
 H2442 H 0.17348 0.63935 0.70515
 H2443 H 0.21071 0.57193 0.75128
 H2444 H 0.24996 0.57242 0.71030
 H2445 H 0.18503 0.61224 0.71674
 H2446 H 0.20056 0.60029 0.74166
 H2447 H 0.23766 0.63089 0.70885
 H2448 H 0.23953 0.60064 0.70053
 C2449 C 0.21281 0.12065 0.21500
 C2450 C 0.22388 0.13400 0.20919
 C2451 C 0.21689 0.14930 0.20228
 C2452 C 0.19869 0.15154 0.20101
 C2453 C 0.18765 0.13822 0.20695
 C2454 C 0.19463 0.12297 0.21387
 C2455 C 0.22009 0.10408 0.22166
 C2456 C 0.21234 0.09563 0.23609
 C2457 C 0.21826 0.07937 0.24148
 C2458 C 0.23206 0.07115 0.23255
 C2459 C 0.24020 0.07988 0.21850
 C2460 C 0.23429 0.09616 0.21313
 H2461 H 0.22573 0.15942 0.19803
 H2462 H 0.17359 0.13941 0.20585
 H2463 H 0.21172 0.07308 0.25240
 H2464 H 0.25084 0.07394 0.21130
 H2465 H 0.18576 0.11279 0.21791
 H2466 H 0.20156 0.10153 0.24310
 H2467 H 0.23794 0.13266 0.21008
 H2468 H 0.24041 0.10227 0.20187
 C2469 C 0.71506 1.12213 0.71449
 C2470 C 0.71677 1.12606 0.69652
 C2471 C 0.71000 1.14143 0.68964
 C2472 C 0.70112 1.15340 0.70052
 C2473 C 0.69977 1.14944 0.71867
 C2474 C 0.70665 1.13408 0.72551
 C2475 C 0.72141 1.10528 0.72149
 C2476 C 0.71150 1.09606 0.73395
 C2477 C 0.71677 1.07965 0.73957
 C2478 C 0.73206 1.07203 0.73281
 C2479 C 0.74224 1.08147 0.72073
 C2480 C 0.73699 1.09791 0.71518
 H2481 H 0.71093 1.14326 0.67554
 H2482 H 0.69388 1.15838 0.72788
 H2483 H 0.70855 1.07272 0.74881
 H2484 H 0.75414 1.07605 0.71534
 H2485 H 0.70547 1.13162 0.73951
 H2486 H 0.69931 1.10125 0.73891
 H2487 H 0.72282 1.11695 0.68756
 H2488 H 0.74509 1.10481 0.70581
 C2489 C 0.71230 0.61985 0.21280
 C2490 C 0.72360 0.63303 0.20700
 C2491 C 0.71688 0.64856 0.20037
 C2492 C 0.69873 0.65123 0.19941
 C2493 C 0.68746 0.63807 0.20529
 C2494 C 0.69416 0.62258 0.21190
 C2495 C 0.71931 0.60315 0.21939
 C2496 C 0.71154 0.59485 0.23390
 C2497 C 0.71747 0.57867 0.23951
 C2498 C 0.73133 0.57039 0.23074
 C2499 C 0.73936 0.57887 0.21647
 C2500 C 0.73342 0.59507 0.21087
 H2501 H 0.72589 0.65854 0.19614
 H2502 H 0.67341 0.63961 0.20440
 H2503 H 0.71100 0.57255 0.25057
 H2504 H 0.75002 0.57285 0.20936
 H2505 H 0.68512 0.61256 0.21595
 H2506 H 0.70080 0.60087 0.24089
 H2507 H 0.73764 0.63138 0.20772
 H2508 H 0.73954 0.60104 0.19953
 C2509 C 0.53552 0.12694 0.71489
 C2510 C 0.53349 0.12320 0.69691
 C2511 C 0.54013 0.10792 0.68978
 C2512 C 0.54916 0.09581 0.70038
 C2513 C 0.55097 0.09963 0.71852
 C2514 C 0.54422 0.11492 0.72563
 C2515 C 0.52908 0.14362 0.72217
 C2516 C 0.53909 0.15288 0.73453
 C2517 C 0.53369 0.16919 0.74034
 C2518 C 0.51819 0.17665 0.73388
 C2519 C 0.50791 0.16714 0.72195
 C2520 C 0.51327 0.15082 0.71621
 H2521 H 0.53895 0.10627 0.67568
 H2522 H 0.55709 0.09061 0.72751
 H2523 H 0.54199 0.17618 0.74947
 H2524 H 0.49583 0.17243 0.71680
 H2525 H 0.54570 0.11727 0.73963
 H2526 H 0.55144 0.14781 0.73923
 H2527 H 0.52725 0.13240 0.68816
 H2528 H 0.50509 0.14388 0.70694
 C2529 C 1.03793 0.12984 0.21379
 C2530 C 1.05604 0.12712 0.21232
 C2531 C 1.06254 0.11152 0.20574
 C2532 C 1.05110 0.09826 0.20049
 C2533 C 1.03298 0.10093 0.20203
 C2534 C 1.02647 0.11656 0.20860
 C2535 C 1.03111 0.14661 0.22044
 C2536 C 1.01666 0.15456 0.21235
 C2537 C 1.01080 0.17075 0.21806
 C2538 C 1.01923 0.17935 0.23201
 C2539 C 1.03347 0.17120 0.24033
 C2540 C 1.03933 0.15503 0.23460
 H2541 H 1.07655 0.10998 0.20443
 H2542 H 1.02385 0.09087 0.19832
 H2543 H 0.99984 0.17665 0.21130
 H2544 H 1.04028 0.17741 0.25113
 H2545 H 1.01246 0.11820 0.20979
 H2546 H 1.01017 0.14848 0.20128
 H2547 H 1.06520 0.13720 0.21590
 H2548 H 1.05034 0.14913 0.24126
 C2549 C 0.21270 0.63009 0.53635
 C2550 C 0.22405 0.61693 0.54207
 C2551 C 0.21739 0.60136 0.54866
 C2552 C 0.19925 0.59864 0.54968
 C2553 C 0.18793 0.61178 0.54387
 C2554 C 0.19457 0.62731 0.53728
 C2555 C 0.21964 0.64685 0.52982
 C2556 C 0.21183 0.65516 0.51535
 C2557 C 0.21769 0.67139 0.50981
 C2558 C 0.23154 0.67969 0.51860
 C2559 C 0.23962 0.67119 0.53284
 C2560 C 0.23374 0.65495 0.53838
 H2561 H 0.22644 0.59139 0.55283
 H2562 H 0.17389 0.61021 0.54479
 H2563 H 0.21119 0.67751 0.49876
 H2564 H 0.25026 0.67722 0.53997
 H2565 H 0.18549 0.63733 0.53329
 H2566 H 0.20110 0.64913 0.50834
 H2567 H 0.23808 0.61862 0.54132
 H2568 H 0.23990 0.64895 0.54970
 C2569 C 0.21267 0.12985 1.03536
 C2570 C 0.22433 0.11670 1.04044
 C2571 C 0.21804 0.10088 1.04676
 C2572 C 0.19997 0.09789 1.04815
 C2573 C 0.18833 0.11101 1.04294
 C2574 C 0.19460 0.12679 1.03661
 C2575 C 0.21925 0.14686 1.02915
 C2576 C 0.21106 0.15543 1.01504
 C2577 C 0.21669 0.17182 1.00975
 C2578 C 0.23064 0.18004 1.01845
 C2579 C 0.23903 0.17132 1.03236
 C2580 C 0.23340 0.15491 1.03764
 H2581 H 0.22732 0.09094 1.05046
 H2582 H 0.17434 0.10922 1.04416
 H2583 H 0.20993 0.17812 0.99896
 H2584 H 0.24977 0.17728 1.03941
 H2585 H 0.18530 0.13678 1.03310
 H2586 H 0.20026 0.14945 1.00810
 H2587 H 0.23831 0.11861 1.03941
 H2588 H 0.23983 0.14873 1.04869
 C2589 C 0.21272 0.70993 0.62130
 C2590 C 0.20749 0.72109 0.63494
 C2591 C 0.20086 0.71444 0.65072
 C2592 C 0.19932 0.69647 0.65322
 C2593 C 0.20463 0.68533 0.63960
 C2594 C 0.21126 0.69198 0.62384
 C2595 C 0.21938 0.71693 0.60435
 C2596 C 0.23351 0.70898 0.59573
 C2597 C 0.23931 0.71509 0.57941
 C2598 C 0.23109 0.72930 0.57130
 C2599 C 0.21714 0.73743 0.58008
 C2600 C 0.21137 0.73133 0.59642
 H2601 H 0.19709 0.72334 0.66106
 H2602 H 0.20329 0.67145 0.64097
 H2603 H 0.25010 0.70851 0.57306
 H2604 H 0.21045 0.74836 0.57420
 H2605 H 0.21488 0.68305 0.61347
 H2606 H 0.24011 0.69801 0.60162
 H2607 H 0.20866 0.73498 0.63345
 H2608 H 0.20032 0.73760 0.60263
 C2609 C 0.21165 0.21009 1.12140
 C2610 C 0.20596 0.22122 1.13487
 C2611 C 0.19938 0.21453 1.15066
 C2612 C 0.19835 0.19656 1.15333
 C2613 C 0.20412 0.18544 1.13989
 C2614 C 0.21070 0.19212 1.12412
 C2615 C 0.21824 0.21711 1.10443
 C2616 C 0.23262 0.20945 1.09597
 C2617 C 0.23838 0.21558 1.07965
 C2618 C 0.22988 0.22954 1.07137
 C2619 C 0.21566 0.23738 1.07999
 C2620 C 0.20992 0.23125 1.09633
 H2621 H 0.19524 0.22342 1.16086
 H2622 H 0.20319 0.17154 1.14140
 H2623 H 0.24938 0.20924 1.07343
 H2624 H 0.20874 0.24810 1.07398
 H2625 H 0.21467 0.18320 1.11388
 H2626 H 0.23946 0.19870 1.10200
 H2627 H 0.20674 0.23512 1.13326
 H2628 H 0.19866 0.23729 1.10241
 C2629 C 0.71373 0.54016 0.12780
 C2630 C 0.70873 0.52897 0.11410
 C2631 C 0.70207 0.53557 0.09830
 C2632 C 0.70023 0.55351 0.09586
 C2633 C 0.70542 0.56471 0.10949
 C2634 C 0.71210 0.55811 0.12527
 C2635 C 0.72024 0.53319 0.14483
 C2636 C 0.73420 0.54124 0.15365
 C2637 C 0.73983 0.53515 0.17004
 C2638 C 0.73162 0.52087 0.17802
 C2639 C 0.71783 0.51265 0.16905
 C2640 C 0.71222 0.51874 0.15264
 H2641 H 0.69841 0.52663 0.08795
 H2642 H 0.70388 0.57857 0.10815
 H2643 H 0.75050 0.54181 0.17654
 H2644 H 0.71115 0.50167 0.17483
 H2645 H 0.71557 0.56706 0.13568
 H2646 H 0.74078 0.55227 0.14786
 H2647 H 0.71006 0.51509 0.11556
 H2648 H 0.70129 0.51239 0.14627
 C2649 C 0.71188 1.03958 0.62802
 C2650 C 0.71058 1.05760 0.62592
 C2651 C 0.70369 1.06468 0.61047
 C2652 C 0.69796 1.05391 0.59671
 C2653 C 0.69932 1.03588 0.59876
 C2654 C 0.70618 1.02879 0.61426
 C2655 C 0.71880 1.03219 0.64469
 C2656 C 0.71062 1.01791 0.65267
 C2657 C 0.71638 1.01175 0.66901
 C2658 C 0.73048 1.01973 0.67773
 C2659 C 0.73900 1.03366 0.66944
 C2660 C 0.73321 1.03982 0.65314
 H2661 H 0.70251 1.07861 0.60945
 H2662 H 0.69521 1.02725 0.58831
 H2663 H 0.70948 1.00102 0.67501
 H2664 H 0.74994 1.04009 0.67571
 H2665 H 0.70719 1.01486 0.61543
 H2666 H 0.69938 1.01185 0.64656
 H2667 H 0.71454 1.06626 0.63641
 H2668 H 0.73995 1.05067 0.64718
 C2669 C 0.53527 0.21098 0.62788
 C2670 C 0.53671 0.19304 0.62526
 C2671 C 0.54356 0.18649 0.60957
 C2672 C 0.54911 0.19772 0.59612
 C2673 C 0.54746 0.21567 0.59863
 C2674 C 0.54063 0.22223 0.61436
 C2675 C 0.52875 0.21786 0.64492
 C2676 C 0.53703 0.23202 0.65300
 C2677 C 0.53169 0.23772 0.66963
 C2678 C 0.51794 0.22939 0.67855
 C2679 C 0.50933 0.21555 0.67021
 C2680 C 0.51468 0.20985 0.65360
 H2681 H 0.54495 0.17262 0.60817
 H2682 H 0.55141 0.22463 0.58841
 H2683 H 0.53865 0.24839 0.67566
 H2684 H 0.49865 0.20887 0.67664
 H2685 H 0.53947 0.23611 0.61591
 H2686 H 0.54802 0.23833 0.64673
 H2687 H 0.53299 0.18405 0.63555
 H2688 H 0.50789 0.19907 0.64758
 C2689 C 1.03740 0.21055 0.12956
 C2690 C 1.03531 0.19298 0.12543
 C2691 C 1.04198 0.18621 0.10975
 C2692 C 1.05114 0.19678 0.09767
 C2693 C 1.05295 0.21452 0.10185
 C2694 C 1.04615 0.22126 0.11750
 C2695 C 1.03090 0.21752 0.14660
 C2696 C 1.04080 0.22971 0.15607
 C2697 C 1.03511 0.23569 0.17247
 C2698 C 1.01942 0.22958 0.17985
 C2699 C 1.00938 0.21758 0.17026
 C2700 C 1.01503 0.21167 0.15382
 H2701 H 1.04071 0.17241 0.10776
 H2702 H 1.05910 0.22349 0.09284
 H2703 H 1.04325 0.24482 0.17955
 H2704 H 0.99719 0.21266 0.17551
 H2705 H 1.04762 0.23496 0.12008
 H2706 H 1.05321 0.23429 0.15104
 H2707 H 1.02898 0.18427 0.13461
 H2708 H 1.00696 0.20250 0.14675
 C2709 C 0.62249 0.21112 0.71528
 C2710 C 0.63570 0.22236 0.70934
 C2711 C 0.65131 0.21579 0.70249
 C2712 C 0.65406 0.19783 0.70143
 C2713 C 0.64090 0.18662 0.70748
 C2714 C 0.62532 0.19318 0.71433
 C2715 C 0.60559 0.21798 0.72191
 C2716 C 0.59725 0.21023 0.73641
 C2717 C 0.58080 0.21591 0.74192
 C2718 C 0.57227 0.22949 0.73305
 C2719 C 0.58085 0.23756 0.71885
 C2720 C 0.59731 0.23188 0.71336
 H2721 H 0.66130 0.22474 0.69810
 H2722 H 0.64246 0.17273 0.70651
 H2723 H 0.57463 0.20942 0.75294
 H2724 H 0.57468 0.24803 0.71168
 H2725 H 0.61527 0.18418 0.71847
 H2726 H 0.60342 0.19966 0.74344
 H2727 H 0.63398 0.23625 0.71008
 H2728 H 0.60331 0.23800 0.70203
 C2729 C 1.12012 0.21029 0.21319
 C2730 C 1.12285 0.19233 0.21238
 C2731 C 1.13848 0.18565 0.20578
 C2732 C 1.15178 0.19676 0.19984
 C2733 C 1.14909 0.21473 0.20067
 C2734 C 1.13342 0.22143 0.20728
 C2735 C 1.10331 0.21729 0.21989
 C2736 C 1.09512 0.23127 0.21139
 C2737 C 1.07888 0.23729 0.21718
 C2738 C 1.07046 0.22948 0.23162
 C2739 C 1.07883 0.21571 0.24032
 C2740 C 1.09506 0.20969 0.23452
 H2741 H 1.14002 0.17174 0.20499
 H2742 H 1.15917 0.22362 0.19639
 H2743 H 1.07279 0.24787 0.21011
 H2744 H 1.07277 0.20939 0.25150
 H2745 H 1.13177 0.23532 0.20793
 H2746 H 1.10105 0.23726 0.19995
 H2747 H 1.11273 0.18341 0.21651
 H2748 H 1.10116 0.19905 0.24149
 C2749 C 0.13026 0.71085 0.53779
 C2750 C 0.11712 0.70536 0.52609
 C2751 C 0.10131 0.69879 0.53249
 C2752 C 0.09830 0.69757 0.55073
 C2753 C 0.11148 0.70300 0.56240
 C2754 C 0.12726 0.70957 0.55601
 C2755 C 0.14716 0.71769 0.53111
 C2756 C 0.15523 0.73187 0.53937
 C2757 C 0.17149 0.73784 0.53363
 C2758 C 0.18010 0.72978 0.51947
 C2759 C 0.17187 0.71578 0.51099
 C2760 C 0.15558 0.70982 0.51674
 H2761 H 0.09133 0.69488 0.52318
 H2762 H 0.10972 0.70188 0.57652
 H2763 H 0.17741 0.74867 0.54045
 H2764 H 0.17814 0.70920 0.50010
 H2765 H 0.13725 0.71335 0.56536
 H2766 H 0.14894 0.73837 0.55031
 H2767 H 0.11899 0.70637 0.51198
 H2768 H 0.14979 0.69875 0.51024
 C2769 C 0.12956 0.21084 1.03872
 C2770 C 0.12693 0.20944 1.05700
 C2771 C 0.11137 0.20264 1.06367
 C2772 C 0.09804 0.19710 1.05224
 C2773 C 0.10066 0.19845 1.03395
 C2774 C 0.11627 0.20525 1.02726
 C2775 C 0.14626 0.21789 1.03175
 C2776 C 0.15454 0.21013 1.01724
 C2777 C 0.17072 0.21623 1.01129
 C2778 C 0.17896 0.23025 1.01971
 C2779 C 0.17045 0.23823 1.03399
 C2780 C 0.15431 0.23212 1.03992
 H2781 H 0.10991 0.20141 1.07781
 H2782 H 0.09056 0.19443 1.02482
 H2783 H 0.17691 0.20971 1.00031
 H2784 H 0.17637 0.24907 1.04078
 H2785 H 0.11785 0.20634 1.01312
 H2786 H 0.14876 0.19903 1.01078
 H2787 H 0.13706 0.21330 1.06617
 H2788 H 0.14813 0.23854 1.05097
 C2789 C 0.62999 0.53819 0.21136
 C2790 C 0.61677 0.54325 0.22315
 C2791 C 0.60091 0.54983 0.21687
 C2792 C 0.59793 0.55151 0.19866
 C2793 C 0.61112 0.54638 0.18689
 C2794 C 0.62695 0.53979 0.19316
 C2795 C 0.64701 0.53157 0.21796
 C2796 C 0.65539 0.51770 0.20948
 C2797 C 0.67174 0.51192 0.21522
 C2798 C 0.68013 0.51988 0.22959
 C2799 C 0.67162 0.53359 0.23824
 C2800 C 0.65525 0.53935 0.23250
 H2801 H 0.59091 0.55347 0.22626
 H2802 H 0.60936 0.54781 0.17280
 H2803 H 0.67787 0.50132 0.20824
 H2804 H 0.67771 0.54009 0.24930
 H2805 H 0.63699 0.53630 0.18375
 H2806 H 0.64927 0.51128 0.19839
 H2807 H 0.61863 0.54197 0.23724
 H2808 H 0.64923 0.55020 0.23918
 C2809 C 0.62749 1.03754 0.71363
 C2810 C 0.61403 1.04281 0.72504
 C2811 C 0.59842 1.04955 0.71827
 C2812 C 0.59599 1.05120 0.69997
 C2813 C 0.60953 1.04602 0.68862
 C2814 C 0.62506 1.03925 0.69536
 C2815 C 0.64420 1.03061 0.72063
 C2816 C 0.65239 1.01652 0.71235
 C2817 C 0.66875 1.01077 0.71804
 C2818 C 0.67734 1.01898 0.73213
 C2819 C 0.66887 1.03272 0.74078
 C2820 C 0.65247 1.03845 0.73511
 H2821 H 0.58816 1.05328 0.72734
 H2822 H 0.60823 1.04747 0.67448
 H2823 H 0.67482 1.00010 0.71110
 H2824 H 0.67510 1.03937 0.75167
 H2825 H 0.63533 1.03565 0.68626
 H2826 H 0.64620 1.01004 0.70134
 H2827 H 0.61549 1.04152 0.73917
 H2828 H 0.64653 1.04942 0.74165
 C2829 C 0.87285 0.46265 0.28563
 C2830 C 0.88621 0.47363 0.29169
 C2831 C 0.90170 0.46675 0.29857
 C2832 C 0.90412 0.44874 0.29956
 C2833 C 0.89074 0.43780 0.29347
 C2834 C 0.87532 0.44466 0.28657
 C2835 C 0.85615 0.46978 0.27878
 C2836 C 0.84795 0.46223 0.26410
 C2837 C 0.83158 0.46802 0.25846
 C2838 C 0.82300 0.48151 0.26738
 C2839 C 0.83148 0.48945 0.28172
 C2840 C 0.84788 0.48366 0.28734
 H2841 H 0.91185 0.47551 0.30298
 H2842 H 0.89204 0.42387 0.29439
 H2843 H 0.82550 0.46164 0.24733
 H2844 H 0.82526 0.49986 0.28892
 H2845 H 0.86513 0.43586 0.28235
 H2846 H 0.85413 0.45169 0.25707
 H2847 H 0.88474 0.48755 0.29097
 H2848 H 0.85380 0.48964 0.29878
 C2849 C 0.86926 0.95986 0.78840
 C2850 C 0.87159 0.94187 0.78969
 C2851 C 0.88707 0.93501 0.79652
 C2852 C 0.90059 0.94598 0.80220
 C2853 C 0.89832 0.96398 0.80080
 C2854 C 0.88281 0.97085 0.79399
 C2855 C 0.85259 0.96707 0.78155
 C2856 C 0.84470 0.98136 0.78977
 C2857 C 0.82857 0.98760 0.78387
 C2858 C 0.81997 0.97971 0.76958
 C2859 C 0.82807 0.96563 0.76114
 C2860 C 0.84417 0.95939 0.76707
 H2861 H 0.88831 0.92110 0.79771
 H2862 H 0.90861 0.97276 0.80482
 H2863 H 0.82270 0.99841 0.79074
 H2864 H 0.82186 0.95923 0.75010
 H2865 H 0.88148 0.98476 0.79293
 H2866 H 0.85077 0.98743 0.80109
 H2867 H 0.86127 0.93307 0.78578
 H2868 H 0.85004 0.94850 0.76032
 C2869 C 0.37923 0.28658 0.78844
 C2870 C 0.36608 0.29161 0.77654
 C2871 C 0.35026 0.29837 0.78267
 C2872 C 0.34723 0.30024 0.80084
 C2873 C 0.36032 0.29507 0.81274
 C2874 C 0.37613 0.28831 0.80661
 C2875 C 0.39627 0.27992 0.78198
 C2876 C 0.40465 0.26611 0.79059
 C2877 C 0.42103 0.26032 0.78496
 C2878 C 0.42943 0.26822 0.77056
 C2879 C 0.42092 0.28187 0.76178
 C2880 C 0.40453 0.28764 0.76742
 H2881 H 0.34033 0.30202 0.77319
 H2882 H 0.35852 0.29664 0.82680
 H2883 H 0.42717 0.24978 0.79203
 H2884 H 0.42702 0.28832 0.75070
 H2885 H 0.38610 0.28484 0.81611
 H2886 H 0.39852 0.25976 0.80171
 H2887 H 0.36799 0.29021 0.76247
 H2888 H 0.39852 0.29845 0.76064
 C2889 C 0.87691 0.28543 0.28627
 C2890 C 0.87380 0.28696 0.30446
 C2891 C 0.85804 0.29374 0.31065
 C2892 C 0.84499 0.29914 0.29881
 C2893 C 0.84801 0.29743 0.28062
 C2894 C 0.86381 0.29066 0.27442
 C2895 C 0.89400 0.27891 0.27978
 C2896 C 0.90238 0.28694 0.26547
 C2897 C 0.91898 0.28154 0.26009
 C2898 C 0.92759 0.26797 0.26889
 C2899 C 0.91898 0.25964 0.28291
 C2900 C 0.90240 0.26505 0.28829
 H2901 H 0.85626 0.29519 0.32473
 H2902 H 0.83812 0.30127 0.27118
 H2903 H 0.92521 0.28828 0.24927
 H2904 H 0.92517 0.24910 0.28997
 H2905 H 0.86574 0.28944 0.26033
 H2906 H 0.89633 0.29777 0.25876
 H2907 H 0.88376 0.28335 0.31393
 H2908 H 0.89616 0.25845 0.29920
 C2909 C 0.37265 0.78828 0.46433
 C2910 C 0.37516 0.80627 0.46342
 C2911 C 0.39064 0.81311 0.45663
 C2912 C 0.40402 0.80215 0.45062
 C2913 C 0.40156 0.78414 0.45158
 C2914 C 0.38602 0.77728 0.45836
 C2915 C 0.35591 0.78113 0.47108
 C2916 C 0.34775 0.76718 0.46253
 C2917 C 0.33138 0.76128 0.46811
 C2918 C 0.32282 0.76919 0.48240
 C2919 C 0.33127 0.78279 0.49129
 C2920 C 0.34761 0.78869 0.48569
 H2921 H 0.39200 0.82704 0.45576
 H2922 H 0.41171 0.77536 0.44725
 H2923 H 0.32526 0.75080 0.46092
 H2924 H 0.32511 0.78916 0.50238
 H2925 H 0.38453 0.76336 0.45907
 H2926 H 0.35374 0.76120 0.45113
 H2927 H 0.36496 0.81508 0.46758
 H2928 H 0.35371 0.79929 0.49272
 C2929 C 0.37161 0.28863 0.96513
 C2930 C 0.38513 0.27768 0.95942
 C2931 C 0.40057 0.28460 0.95249
 C2932 C 0.40279 0.30261 0.95110
 C2933 C 0.38931 0.31353 0.95695
 C2934 C 0.37392 0.30663 0.96390
 C2935 C 0.35489 0.28143 0.97184
 C2936 C 0.34641 0.28910 0.98627
 C2937 C 0.33003 0.28320 0.99175
 C2938 C 0.32172 0.26949 0.98291
 C2939 C 0.33047 0.26144 0.96882
 C2940 C 0.34688 0.26734 0.96336
 H2941 H 0.41082 0.27585 0.94831
 H2942 H 0.39046 0.32745 0.95575
 H2943 H 0.32373 0.28967 1.00270
 H2944 H 0.32446 0.25087 0.96168
 H2945 H 0.36361 0.31540 0.96788
 H2946 H 0.35239 0.29981 0.99324
 H2947 H 0.38380 0.26376 0.96039
 H2948 H 0.35302 0.26126 0.95210
 C2949 C 0.78735 0.46174 0.37169
 C2950 C 0.80550 0.46048 0.37427
 C2951 C 0.81225 0.45387 0.38998
 C2952 C 0.80102 0.44840 0.40355
 C2953 C 0.78285 0.44959 0.40096
 C2954 C 0.77609 0.45617 0.38518
 C2955 C 0.78035 0.46862 0.35483
 C2956 C 0.76618 0.46055 0.34639
 C2957 C 0.76046 0.46631 0.32988
 C2958 C 0.76877 0.48032 0.32149
 C2959 C 0.78257 0.48873 0.33025
 C2960 C 0.78829 0.48295 0.34671
 H2961 H 0.82629 0.45278 0.39140
 H2962 H 0.77388 0.44564 0.41124
 H2963 H 0.74982 0.45951 0.32351
 H2964 H 0.78924 0.49960 0.32426
 H2965 H 0.76205 0.45713 0.38362
 H2966 H 0.75989 0.44940 0.35227
 H2967 H 0.81451 0.46432 0.36398
 H2968 H 0.79905 0.48961 0.35304
 C2969 C 0.78850 0.96039 0.87072
 C2970 C 0.80664 0.95891 0.87320
 C2971 C 0.81339 0.95236 0.88894
 C2972 C 0.80217 0.94715 0.90261
 C2973 C 0.78400 0.94854 0.90012
 C2974 C 0.77724 0.95508 0.88432
 C2975 C 0.78146 0.96731 0.85389
 C2976 C 0.76699 0.95951 0.84569
 C2977 C 0.76096 0.96553 0.82939
 C2978 C 0.76926 0.97952 0.82096
 C2979 C 0.78350 0.98754 0.82939
 C2980 C 0.78952 0.98150 0.84565
 H2981 H 0.82743 0.95110 0.89029
 H2982 H 0.77503 0.94480 0.91048
 H2983 H 0.75001 0.95900 0.82326
 H2984 H 0.79019 0.99836 0.82333
 H2985 H 0.76320 0.95623 0.88285
 H2986 H 0.76062 0.94845 0.85165
 H2987 H 0.81564 0.96256 0.86282
 H2988 H 0.80053 0.98793 0.85177
 C2989 C 0.28616 0.78882 0.37766
 C2990 C 0.28745 0.80681 0.37525
 C2991 C 0.29443 0.81361 0.35973
 C2992 C 0.30026 0.80259 0.34623
 C2993 C 0.29879 0.78460 0.34854
 C2994 C 0.29182 0.77779 0.36410
 C2995 C 0.27950 0.78170 0.39454
 C2996 C 0.28785 0.76758 0.40262
 C2997 C 0.28243 0.76171 0.41916
 C2998 C 0.26850 0.76982 0.42800
 C2999 C 0.25980 0.78360 0.41964
 C3000 C 0.26524 0.78947 0.40312
 H3001 H 0.29567 0.82751 0.35848
 H3002 H 0.30296 0.77580 0.33827
 H3003 H 0.28946 0.75108 0.42519
 H3004 H 0.24898 0.79012 0.42602
 H3005 H 0.29080 0.76388 0.36550
 H3006 H 0.29899 0.76144 0.39642
 H3007 H 0.28350 0.81564 0.38559
 H3008 H 0.25838 0.80022 0.39710
 C3009 C 0.28503 0.28900 0.87743
 C3010 C 0.28634 0.30691 0.87452
 C3011 C 0.29326 0.31329 0.85876
 C3012 C 0.29903 0.30191 0.84556
 C3013 C 0.29748 0.28399 0.84835
 C3014 C 0.29055 0.27761 0.86411
 C3015 C 0.27854 0.28228 0.89457
 C3016 C 0.28684 0.26818 0.90276
 C3017 C 0.28146 0.26250 0.91938
 C3018 C 0.26763 0.27077 0.92822
 C3019 C 0.25905 0.28461 0.91983
 C3020 C 0.26445 0.29030 0.90320
 H3021 H 0.29455 0.32715 0.85713
 H3022 H 0.30159 0.27491 0.83831
 H3023 H 0.28840 0.25183 0.92544
 H3024 H 0.24833 0.29127 0.92621
 H3025 H 0.28948 0.26374 0.86587
 H3026 H 0.29786 0.26187 0.89655
 H3027 H 0.28248 0.31602 0.88463
 H3028 H 0.25764 0.30104 0.89712
 C3029 C 0.46163 0.28877 0.87168
 C3030 C 0.47295 0.29477 0.88494
 C3031 C 0.46627 0.30162 0.90061
 C3032 C 0.44812 0.30262 0.90335
 C3033 C 0.43682 0.29662 0.89008
 C3034 C 0.44349 0.28977 0.87445
 C3035 C 0.46861 0.28173 0.85489
 C3036 C 0.46081 0.26723 0.84697
 C3037 C 0.46679 0.26109 0.83075
 C3038 C 0.48074 0.26930 0.82204
 C3039 C 0.48878 0.28361 0.83014
 C3040 C 0.48279 0.28974 0.84639
 H3041 H 0.47530 0.30597 0.91068
 H3042 H 0.42278 0.29754 0.89164
 H3043 H 0.46029 0.25002 0.82493
 H3044 H 0.49950 0.29031 0.82379
 H3045 H 0.43443 0.28557 0.86435
 H3046 H 0.45002 0.26062 0.85332
 H3047 H 0.48699 0.29399 0.88328
 H3048 H 0.48896 0.30105 0.85207
 C3049 C 0.96413 0.28804 0.37371
 C3050 C 0.95841 0.27705 0.38730
 C3051 C 0.95160 0.28391 0.40291
 C3052 C 0.95033 0.30191 0.40525
 C3053 C 0.95617 0.31289 0.39170
 C3054 C 0.96300 0.30603 0.37613
 C3055 C 0.97078 0.28088 0.35684
 C3056 C 0.98513 0.28855 0.34832
 C3057 C 0.99063 0.28261 0.33184
 C3058 C 0.98190 0.26886 0.32347
 C3059 C 0.96786 0.26085 0.33225
 C3060 C 0.96238 0.26678 0.34876
 H3061 H 0.94741 0.27513 0.41321
 H3062 H 0.95506 0.32680 0.39293
 H3063 H 1.00152 0.28907 0.32552
 H3064 H 0.96080 0.25026 0.32620
 H3065 H 0.96698 0.31484 0.36578
 H3066 H 0.99203 0.29926 0.35434
 H3067 H 0.95930 0.26313 0.38590
 H3068 H 0.95118 0.26071 0.35492
 C3069 C 0.46199 0.36851 0.78699
 C3070 C 0.44388 0.37134 0.78818
 C3071 C 0.43738 0.38696 0.79465
 C3072 C 0.44883 0.40014 0.80009
 C3073 C 0.46694 0.39738 0.79879
 C3074 C 0.47346 0.38172 0.79232
 C3075 C 0.46880 0.35168 0.78054
 C3076 C 0.48305 0.34368 0.78892
 C3077 C 0.48890 0.32743 0.78341
 C3078 C 0.48063 0.31882 0.76936
 C3079 C 0.46660 0.32701 0.76075
 C3080 C 0.46076 0.34324 0.76628
 H3081 H 0.42336 0.38859 0.79578
 H3082 H 0.47608 0.40739 0.80265
 H3083 H 0.49969 0.32149 0.79040
 H3084 H 0.45993 0.32079 0.74986
 H3085 H 0.48747 0.38000 0.79134
 H3086 H 0.48939 0.34977 0.80008
 H3087 H 0.43471 0.36130 0.78447
 H3088 H 0.44990 0.34919 0.75940
 C3089 C 0.96309 0.37113 0.28590
 C3090 C 0.94496 0.37386 0.28697
 C3091 C 0.93833 0.38928 0.29380
 C3092 C 0.94966 0.40237 0.29971
 C3093 C 0.96780 0.39972 0.29852
 C3094 C 0.97445 0.38425 0.29169
 C3095 C 0.97001 0.35441 0.27926
 C3096 C 0.98408 0.34624 0.28779
 C3097 C 0.98974 0.32990 0.28236
 C3098 C 0.98147 0.32135 0.26827
 C3099 C 0.96775 0.32979 0.25940
 C3100 C 0.96209 0.34612 0.26484
 H3101 H 0.92429 0.39081 0.29483
 H3102 H 0.97685 0.40966 0.30275
 H3103 H 1.00032 0.32379 0.28953
 H3104 H 0.96111 0.32364 0.24845
 H3105 H 0.98848 0.38260 0.29084
 H3106 H 0.99033 0.35222 0.29905
 H3107 H 0.93587 0.36387 0.28293
 H3108 H 0.95139 0.35221 0.25784
 C3109 C 0.28767 0.87196 0.46612
 C3110 C 0.30579 0.87472 0.46485
 C3111 C 0.31234 0.89013 0.45784
 C3112 C 0.30092 0.90315 0.45194
 C3113 C 0.28280 0.90051 0.45346
 C3114 C 0.27625 0.88508 0.46047
 C3115 C 0.28080 0.85517 0.47271
 C3116 C 0.26657 0.84714 0.46430
 C3117 C 0.26087 0.83079 0.46968
 C3118 C 0.26925 0.82208 0.48361
 C3119 C 0.28315 0.83035 0.49235
 C3120 C 0.28886 0.84670 0.48695
 H3121 H 0.32635 0.89164 0.45656
 H3122 H 0.27368 0.91041 0.44926
 H3123 H 0.25015 0.82481 0.46261
 H3124 H 0.28989 0.82407 0.50315
 H3125 H 0.26223 0.88343 0.46151
 H3126 H 0.26021 0.85324 0.45316
 H3127 H 0.31494 0.86474 0.46879
 H3128 H 0.29968 0.85267 0.49386
 C3129 C 0.28680 0.37222 0.96639
 C3130 C 0.27561 0.38565 0.96100
 C3131 C 0.28245 0.40100 0.95406
 C3132 C 0.30061 0.40322 0.95232
 C3133 C 0.31178 0.38984 0.95788
 C3134 C 0.30495 0.37454 0.96484
 C3135 C 0.27965 0.35560 0.97304
 C3136 C 0.28769 0.34701 0.98722
 C3137 C 0.28183 0.33073 0.99260
 C3138 C 0.26781 0.32261 0.98391
 C3139 C 0.25941 0.33146 0.97008
 C3140 C 0.26526 0.34778 0.96472
 H3141 H 0.27352 0.41116 0.95012
 H3142 H 0.32581 0.39102 0.95642
 H3143 H 0.28859 0.32434 1.00334
 H3144 H 0.24859 0.32561 0.96306
 H3145 H 0.31390 0.36432 0.96857
 H3146 H 0.29864 0.35283 0.99405
 H3147 H 0.26157 0.38431 0.96223
 H3148 H 0.25890 0.35400 0.95365
 C3149 C 0.78713 0.37773 0.28238
 C3150 C 0.77549 0.36457 0.28746
 C3151 C 0.78177 0.34893 0.29424
 C3152 C 0.79984 0.34611 0.29609
 C3153 C 0.81148 0.35918 0.29075
 C3154 C 0.80520 0.37479 0.28397
 C3155 C 0.78053 0.39471 0.27606
 C3156 C 0.78890 0.40341 0.26215
 C3157 C 0.78340 0.41989 0.25699
 C3158 C 0.76940 0.42808 0.26563
 C3159 C 0.76074 0.41917 0.27924
 C3160 C 0.76624 0.40268 0.28438
 H3161 H 0.77249 0.33902 0.29801
 H3162 H 0.82545 0.35753 0.29230
 H3163 H 0.79035 0.42634 0.24642
 H3164 H 0.74993 0.42507 0.28622
 H3165 H 0.81450 0.38478 0.28046
 H3166 H 0.79980 0.39750 0.25532
 H3167 H 0.76151 0.36636 0.28617
 H3168 H 0.75964 0.39639 0.29527
   
