data_POSCAR
  _audit_creation_date              2014-09-24
  _audit_creation_method            'ToBaCCo'
  _symmetry_space_group_name_H-M    'P1'
  _symmetry_Int_Tables_number       1
  _symmetry_cell_setting            triclinic
  loop_
  _symmetry_equiv_pos_as_xyz
 x,y,z
_cell_length_a 59.7574
_cell_length_b 58.2866
_cell_length_c 61.9973
_cell_angle_alpha 89.870200
_cell_angle_beta 89.756900
_cell_angle_gamma 90.257900
loop_
  _atom_site_label
  _atom_site_type_symbol
  _atom_site_fract_x
  _atom_site_fract_y
  _atom_site_fract_z
O1 O 0.31222 0.35607 0.01861
 O2 O 0.35239 0.32473 -0.01463
 O3 O 0.32151 0.35434 -0.02168
 O4 O 0.34373 0.32589 0.02645
 O5 O 0.32046 0.29690 0.02170
 O6 O 0.29509 0.32797 -0.02412
 O7 O 0.32749 0.29734 -0.02004
 O8 O 0.28822 0.32717 0.01692
 Cu9 Cu 0.33498 0.34294 0.00277
 Cu10 Cu 0.30544 0.30937 -0.00176
 C11 C 0.29328 0.34732 0.02304
 C12 C 0.34682 0.30593 -0.02341
 C13 C 0.30390 0.34669 -0.03061
 C14 C 0.33644 0.30623 0.03197
 O15 O 0.65357 0.68218 -0.02054
 O16 O 0.68834 0.65169 0.01833
 O17 O 0.65744 0.68212 0.02113
 O18 O 0.68433 0.65146 -0.02337
 O19 O 0.71018 0.67841 -0.02587
 O20 O 0.68290 0.70957 0.01899
 O21 O 0.71442 0.67854 0.01582
 O22 O 0.67872 0.70993 -0.02294
 Cu23 Cu 0.66838 0.66416 -0.00090
 Cu24 Cu 0.69913 0.69692 -0.00380
 C25 C 0.66001 0.70124 -0.02835
 C26 C 0.70726 0.65975 0.02374
 C27 C 0.66549 0.70100 0.02777
 C28 C 0.70195 0.65941 -0.03219
 O29 O 0.69683 0.33090 0.97114
 O30 O 0.66063 0.31105 1.01507
 O31 O 0.69153 0.34183 1.01137
 O32 O 0.66570 0.30027 0.97474
 O33 O 0.69068 0.27426 0.98407
 O34 O 0.71707 0.31658 1.02069
 O35 O 0.68561 0.28506 1.02437
 O36 O 0.72267 0.30578 0.98033
 Cu37 Cu 0.67617 0.32354 0.99214
 Cu38 Cu 0.70661 0.29280 1.00323
 C39 C 0.71597 0.32206 0.96834
 C40 C 0.66677 0.29467 1.02716
 C41 C 0.70873 0.33657 1.02227
 C42 C 0.67356 0.28016 0.97334
 O43 O 0.30852 0.65708 0.97597
 O44 O 0.34923 0.68459 1.01134
 O45 O 0.31947 0.65189 1.01657
 O46 O 0.33862 0.68813 0.97185
 O47 O 0.31448 0.71491 0.98122
 O48 O 0.29362 0.67709 1.02522
 O49 O 0.32403 0.70996 1.02160
 O50 O 0.28327 0.68308 0.98450
 Cu51 Cu 0.33130 0.66759 0.99328
 Cu52 Cu 0.30119 0.69876 1.00414
 C53 C 0.28917 0.66561 0.97370
 C54 C 0.34394 0.70240 1.02190
 C55 C 0.30317 0.65792 1.02845
 C56 C 0.33037 0.70795 0.96919
 O57 O 0.01791 0.31109 0.34152
 O58 O -0.01640 0.34111 0.30191
 O59 O -0.02371 0.31549 0.33459
 O60 O 0.02665 0.33930 0.30945
 O61 O 0.02796 0.31051 0.28645
 O62 O -0.02052 0.28408 0.31509
 O63 O -0.01543 0.31085 0.28057
 O64 O 0.02224 0.28199 0.31915
 Cu65 Cu 0.00123 0.32991 0.32381
 Cu66 Cu 0.00378 0.29394 0.29795
 C67 C 0.02529 0.29116 0.33747
 C68 C -0.02230 0.33095 0.28476
 C69 C -0.03020 0.29532 0.33007
 C70 C 0.03565 0.32948 0.29340
 O71 O 0.00947 0.67673 0.65084
 O72 O -0.03645 0.65667 0.68532
 O73 O -0.03317 0.68448 0.65303
 O74 O 0.00638 0.64928 0.68329
 O75 O 0.01233 0.67764 0.70614
 O76 O -0.02685 0.71373 0.67463
 O77 O -0.03044 0.68520 0.70801
 O78 O 0.01605 0.70542 0.67311
 Cu79 Cu -0.01411 0.66395 0.66594
 Cu80 Cu -0.00674 0.69849 0.69272
 C81 C 0.02073 0.69439 0.65601
 C82 C -0.04115 0.66725 0.70259
 C83 C -0.03665 0.70521 0.65827
 C84 C 0.01617 0.65730 0.69979
 O85 O 0.96715 0.68793 0.34132
 O86 O 1.01553 0.65494 0.32260
 O87 O 1.00800 0.68578 0.35259
 O88 O 0.97343 0.65794 0.31175
 O89 O 0.98111 0.68573 0.28861
 O90 O 1.01886 0.71214 0.32923
 O91 O 1.02328 0.68153 0.29826
 O92 O 0.97660 0.71641 0.31955
 Cu93 Cu 0.99040 0.66875 0.33427
 Cu94 Cu 1.00087 0.70171 0.30654
 C95 C 0.96392 0.70804 0.33414
 C96 C 1.02734 0.66223 0.30692
 C97 C 1.01903 0.70390 0.34827
 C98 C 0.97091 0.66717 0.29338
 O99 O 0.98203 0.33449 0.63388
 O100 O 1.02619 0.36091 0.66608
 O101 O 1.02508 0.32960 0.63692
 O102 O 0.98315 0.36557 0.66369
 O103 O 0.97830 0.33909 0.68876
 O104 O 1.02040 0.30281 0.66168
 O105 O 1.02164 0.33464 0.69141
 O106 O 0.97723 0.30760 0.65858
 Cu107 Cu 1.00453 0.35028 0.64765
 Cu108 Cu 0.99888 0.31835 0.67766
 C109 C 0.97215 0.31649 0.64051
 C110 C 1.03155 0.35243 0.68418
 C111 C 1.03001 0.31004 0.64462
 C112 C 0.97361 0.35862 0.68086
 O113 O 0.36211 0.01837 0.32905
 O114 O 0.33485 -0.02695 0.36068
 O115 O 0.36412 -0.02631 0.33026
 O116 O 0.33374 0.01740 0.36031
 O117 O 0.30614 0.01621 0.33680
 O118 O 0.33711 -0.02826 0.30615
 O119 O 0.30728 -0.02855 0.33715
 O120 O 0.33521 0.01670 0.30480
 Cu121 Cu 0.35147 -0.00420 0.34736
 Cu122 Cu 0.31869 -0.00609 0.31875
 C123 C 0.35333 0.02544 0.31167
 C124 C 0.31642 -0.03552 0.35443
 C125 C 0.35585 -0.03507 0.31336
 C126 C 0.31480 0.02431 0.35392
 O127 O 0.64618 0.02166 0.67452
 O128 O 0.67825 -0.02331 0.64718
 O129 O 0.64653 -0.02274 0.67564
 O130 O 0.67729 0.02119 0.64546
 O131 O 0.70334 0.02245 0.67058
 O132 O 0.67144 -0.02138 0.70178
 O133 O 0.70375 -0.02216 0.67280
 O134 O 0.67152 0.02332 0.70025
 Cu135 Cu 0.65958 -0.00094 0.65815
 Cu136 Cu 0.69009 0.00071 0.68896
 C137 C 0.65320 0.03011 0.69212
 C138 C 0.69649 -0.03040 0.65519
 C139 C 0.65343 -0.02947 0.69390
 C140 C 0.69555 0.02925 0.65261
 O141 O 0.34404 0.97717 0.68595
 O142 O 0.31713 1.02268 0.65514
 O143 O 0.34725 1.02147 0.68477
 O144 O 0.31339 0.97839 0.65665
 O145 O 0.28707 0.98105 0.68160
 O146 O 0.32140 1.02442 0.71014
 O147 O 0.29055 1.02555 0.67982
 O148 O 0.31847 0.98002 0.71161
 Cu149 Cu 0.33301 0.99962 0.66814
 Cu150 Cu 0.30169 1.00301 0.69833
 C151 C 0.33623 0.97103 0.70413
 C152 C 0.29924 1.03181 0.66198
 C153 C 0.34030 1.03020 0.70229
 C154 C 0.29439 0.97248 0.66410
 O155 O 0.64968 0.98212 0.30961
 O156 O 0.67306 1.02641 0.34464
 O157 O 0.64751 1.02676 0.31124
 O158 O 0.67530 0.98223 0.34291
 O159 O 0.70520 0.98463 0.32198
 O160 O 0.67684 1.02938 0.28959
 O161 O 0.70285 1.02906 0.32369
 O162 O 0.67897 0.98466 0.28788
 Cu163 Cu 0.65839 1.00413 0.32912
 Cu164 Cu 0.69394 1.00720 0.30357
 C165 C 0.66021 0.97572 0.29288
 C166 C 0.69210 1.03515 0.34048
 C167 C 0.65732 1.03577 0.29509
 C168 C 0.69500 0.97592 0.33811
 C169 C 0.86475 0.78581 0.49416
 C170 C 0.85623 0.79459 0.47493
 C171 C 0.84202 0.81359 0.47553
 C172 C 0.83660 0.82445 0.49527
 C173 C 0.84619 0.81565 0.51447
 C174 C 0.85953 0.79585 0.51401
 C175 C 0.81958 0.84342 0.49581
 C176 C 0.80687 0.84773 0.51470
 C177 C 0.78927 0.86356 0.51453
 C178 C 0.78384 0.87480 0.49535
 C179 C 0.79599 0.87091 0.47643
 C180 C 0.81439 0.85607 0.47693
 H181 H 0.87548 0.77085 0.49367
 H182 H 0.83453 0.81890 0.46052
 H183 H 0.84284 0.82345 0.52993
 H184 H 0.80968 0.83822 0.52940
 H185 H 0.76995 0.88671 0.49512
 H186 H 0.82393 0.85394 0.46223
 C187 C 0.12198 0.20504 0.49523
 C188 C 0.12435 0.18979 0.47795
 C189 C 0.13935 0.17145 0.47985
 C190 C 0.15239 0.16863 0.49864
 C191 C 0.14931 0.18410 0.51592
 C192 C 0.13404 0.20215 0.51427
 C193 C 0.16991 0.15044 0.49976
 C194 C 0.17673 0.14132 0.51980
 C195 C 0.19494 0.12631 0.52103
 C196 C 0.20558 0.11922 0.50204
 C197 C 0.19856 0.12726 0.48191
 C198 C 0.18096 0.14303 0.48085
 H199 H 0.11067 0.21946 0.49390
 H200 H 0.14067 0.15940 0.46667
 H201 H 0.15925 0.18283 0.53041
 H202 H 0.16840 0.14626 0.53459
 H203 H 0.21933 0.10718 0.50296
 H204 H 0.17666 0.15009 0.46527
 C205 C 0.12433 0.78699 0.50593
 C206 C 0.13643 0.79178 0.52466
 C207 C 0.15342 0.80837 0.52400
 C208 C 0.15774 0.82117 0.50508
 C209 C 0.14414 0.81706 0.48680
 C210 C 0.12776 0.79960 0.48686
 C211 C 0.17691 0.83795 0.50419
 C212 C 0.18737 0.84327 0.48429
 C213 C 0.20623 0.85761 0.48339
 C214 C 0.21524 0.86619 0.50253
 C215 C 0.20552 0.86102 0.52251
 C216 C 0.18592 0.84767 0.52325
 H217 H 0.11196 0.77341 0.50646
 H218 H 0.16347 0.81063 0.53829
 H219 H 0.14605 0.82753 0.47250
 H220 H 0.18158 0.83575 0.46939
 H221 H 0.22990 0.87720 0.50190
 H222 H 0.17828 0.84453 0.53881
 C223 C 0.88148 0.20501 0.49197
 C224 C 0.87195 0.19903 0.51188
 C225 C 0.85602 0.18133 0.51283
 C226 C 0.85008 0.16885 0.49418
 C227 C 0.86090 0.17455 0.47449
 C228 C 0.87573 0.19321 0.47316
 C229 C 0.83161 0.15127 0.49493
 C230 C 0.81941 0.14600 0.47610
 C231 C 0.80148 0.13045 0.47657
 C232 C 0.79478 0.12091 0.49629
 C233 C 0.80604 0.12630 0.51537
 C234 C 0.82495 0.14066 0.51453
 H235 H 0.89356 0.21892 0.49108
 H236 H 0.84778 0.17816 0.52810
 H237 H 0.85739 0.16518 0.45987
 H238 H 0.82309 0.15444 0.46097
 H239 H 0.78076 0.10905 0.49685
 H240 H 0.83386 0.14389 0.52936
 C241 C 0.49782 0.88791 0.80465
 C242 C 0.47769 0.88282 0.81521
 C243 C 0.47778 0.86848 0.83337
 C244 C 0.49764 0.85746 0.84004
 C245 C 0.51779 0.86294 0.82903
 C246 C 0.51796 0.87837 0.81163
 C247 C 0.49699 0.83890 0.85692
 C248 C 0.51666 0.83203 0.86778
 C249 C 0.51670 0.81246 0.88101
 C250 C 0.49662 0.80068 0.88485
 C251 C 0.47674 0.80768 0.87514
 C252 C 0.47700 0.82647 0.86103
 H253 H 0.49777 0.89937 0.79085
 H254 H 0.46206 0.86537 0.84156
 H255 H 0.53333 0.85458 0.83302
 H256 H 0.53225 0.84119 0.86549
 H257 H 0.49646 0.78584 0.89544
 H258 H 0.46168 0.83039 0.85265
 C259 C 0.49466 0.13927 0.21479
 C260 C 0.47504 0.14371 0.20336
 C261 C 0.47589 0.15783 0.18504
 C262 C 0.49612 0.16877 0.17885
 C263 C 0.51569 0.16405 0.19085
 C264 C 0.51503 0.14913 0.20860
 C265 C 0.49663 0.18603 0.16088
 C266 C 0.51675 0.19085 0.14964
 C267 C 0.51800 0.20890 0.13468
 C268 C 0.49864 0.22125 0.12979
 C269 C 0.47830 0.21633 0.14006
 C270 C 0.47737 0.19893 0.15570
 H271 H 0.49406 0.12782 0.22860
 H272 H 0.46063 0.16057 0.17610
 H273 H 0.53139 0.17249 0.18715
 H274 H 0.53172 0.18109 0.15281
 H275 H 0.49936 0.23474 0.11773
 H276 H 0.46177 0.19628 0.16427
 C277 C 0.50119 0.12172 0.79946
 C278 C 0.52174 0.12970 0.80721
 C279 C 0.52222 0.14253 0.82632
 C280 C 0.50245 0.14663 0.83833
 C281 C 0.48201 0.13779 0.83032
 C282 C 0.48123 0.12601 0.81059
 C283 C 0.50317 0.16035 0.85884
 C284 C 0.48409 0.17232 0.86627
 C285 C 0.48486 0.18557 0.88515
 C286 C 0.50494 0.18718 0.89663
 C287 C 0.52418 0.17599 0.88940
 C288 C 0.52317 0.16232 0.87086
 H289 H 0.50075 0.11153 0.78486
 H290 H 0.53811 0.14958 0.83135
 H291 H 0.46655 0.14012 0.83914
 H292 H 0.46877 0.17227 0.85707
 H293 H 0.50579 0.19772 0.91099
 H294 H 0.53814 0.15328 0.86609
 C295 C 0.50335 0.86054 0.21552
 C296 C 0.52393 0.85497 0.20617
 C297 C 0.52445 0.84175 0.18733
 C298 C 0.50448 0.83266 0.17856
 C299 C 0.48390 0.83844 0.18850
 C300 C 0.48329 0.85265 0.20668
 C301 C 0.50508 0.81629 0.15994
 C302 C 0.48614 0.81328 0.14662
 C303 C 0.48574 0.79634 0.13057
 C304 C 0.50484 0.78295 0.12719
 C305 C 0.52418 0.78638 0.13936
 C306 C 0.52420 0.80275 0.15585
 H307 H 0.50299 0.87144 0.22967
 H308 H 0.54052 0.83829 0.17999
 H309 H 0.46824 0.83144 0.18277
 H310 H 0.47163 0.82410 0.14848
 H311 H 0.50477 0.76968 0.11499
 H312 H 0.53898 0.80415 0.16576
 C313 C 0.77997 0.48977 0.86454
 C314 C 0.79304 0.47091 0.85878
 C315 C 0.81260 0.47428 0.84663
 C316 C 0.81834 0.49631 0.83868
 C317 C 0.80446 0.51500 0.84433
 C318 C 0.78567 0.51194 0.85771
 C319 C 0.83810 0.49971 0.82394
 C320 C 0.84831 0.52152 0.82162
 C321 C 0.86539 0.52509 0.80648
 C322 C 0.87342 0.50674 0.79434
 C323 C 0.86411 0.48479 0.79665
 C324 C 0.84630 0.48144 0.81119
 H325 H 0.76544 0.48706 0.87478
 H326 H 0.82288 0.45951 0.84317
 H327 H 0.80768 0.53198 0.83801
 H328 H 0.84296 0.53600 0.83116
 H329 H 0.88687 0.50971 0.78287
 H330 H 0.83846 0.46471 0.81175
 C331 C 0.20808 0.50195 0.13059
 C332 C 0.19676 0.48181 0.13651
 C333 C 0.18253 0.48205 0.15455
 C334 C 0.17998 0.50208 0.16714
 C335 C 0.19178 0.52213 0.16082
 C336 C 0.20565 0.52218 0.14248
 C337 C 0.16532 0.50191 0.18686
 C338 C 0.15521 0.52230 0.19439
 C339 C 0.14207 0.52232 0.21325
 C340 C 0.13815 0.50155 0.22406
 C341 C 0.14756 0.48103 0.21678
 C342 C 0.16136 0.48134 0.19844
 H343 H 0.21901 0.50187 0.11660
 H344 H 0.17325 0.46659 0.15839
 H345 H 0.19082 0.53762 0.17033
 H346 H 0.15750 0.53826 0.18574
 H347 H 0.12708 0.50120 0.23796
 H348 H 0.16925 0.46548 0.19362
 C349 C 0.81363 0.50048 0.10662
 C350 C 0.82403 0.52082 0.11297
 C351 C 0.84001 0.52047 0.12938
 C352 C 0.84437 0.50007 0.14102
 C353 C 0.83317 0.47971 0.13452
 C354 C 0.81806 0.47978 0.11720
 C355 C 0.85879 0.50045 0.16092
 C356 C 0.86743 0.47990 0.16976
 C357 C 0.87802 0.47986 0.18991
 C358 C 0.88172 0.50061 0.20057
 C359 C 0.87440 0.52131 0.19181
 C360 C 0.86271 0.52121 0.17227
 H361 H 0.80152 0.50102 0.09366
 H362 H 0.84809 0.53649 0.13340
 H363 H 0.83504 0.46388 0.14339
 H364 H 0.86545 0.46367 0.16161
 H365 H 0.89035 0.50063 0.21593
 H366 H 0.85599 0.53735 0.16680
 C367 C 0.20010 0.50392 0.87856
 C368 C 0.19190 0.52414 0.86959
 C369 C 0.17372 0.52331 0.85548
 C370 C 0.16305 0.50222 0.85060
 C371 C 0.17122 0.48205 0.86069
 C372 C 0.19030 0.48271 0.87382
 C373 C 0.14497 0.50106 0.83375
 C374 C 0.14031 0.48020 0.82297
 C375 C 0.12502 0.47936 0.80599
 C376 C 0.11463 0.49942 0.79909
 C377 C 0.11906 0.52042 0.80907
 C378 C 0.13342 0.52104 0.82694
 H379 H 0.21443 0.50475 0.88921
 H380 H 0.16890 0.53915 0.84778
 H381 H 0.16346 0.46557 0.85795
 H382 H 0.14910 0.46458 0.82674
 H383 H 0.10311 0.49869 0.78563
 H384 H 0.13595 0.53734 0.83479
 C385 C 0.25603 0.39752 0.03381
 C386 C 0.24716 0.39274 0.05455
 C387 C 0.25347 0.37189 0.06469
 C388 C 0.26763 0.35627 0.05399
 C389 C 0.27659 0.36179 0.03374
 C390 C 0.27066 0.38237 0.02379
 C391 C 0.24628 0.36720 0.08569
 C392 C 0.23417 0.38335 0.09738
 C393 C 0.22810 0.40462 0.08817
 C394 C 0.23334 0.40860 0.06595
 C395 C 0.22486 0.42847 0.05590
 C396 C 0.21377 0.44514 0.06764
 C397 C 0.21087 0.44279 0.08983
 C398 C 0.21744 0.42233 0.10045
 C399 C 0.21418 0.42109 0.12309
 C400 C 0.20615 0.43995 0.13468
 C401 C 0.20090 0.46047 0.12410
 C402 C 0.20232 0.46133 0.10157
 H403 H 0.25290 0.41331 0.02532
 H404 H 0.27256 0.34044 0.06182
 H405 H 0.27763 0.38688 0.00816
 H406 H 0.25078 0.35122 0.09349
 H407 H 0.22967 0.37862 0.11364
 H408 H 0.22649 0.43163 0.03883
 H409 H 0.20814 0.46046 0.05935
 H410 H 0.21880 0.40628 0.13247
 H411 H 0.20524 0.43888 0.15210
 H412 H 0.19785 0.47702 0.09322
 C413 C 0.72211 0.61900 0.06849
 C414 C 0.74570 0.61760 0.06688
 C415 C 0.75661 0.63148 0.05118
 C416 C 0.74418 0.64633 0.03793
 C417 C 0.72078 0.64675 0.03933
 C418 C 0.70997 0.63317 0.05482
 C419 C 0.77971 0.62981 0.04825
 C420 C 0.79210 0.61370 0.05966
 C421 C 0.78188 0.59899 0.07495
 C422 C 0.75857 0.60200 0.07953
 C423 C 0.74878 0.58907 0.09638
 C424 C 0.76064 0.57215 0.10698
 C425 C 0.78269 0.56745 0.10127
 C426 C 0.79395 0.58104 0.08557
 C427 C 0.81646 0.57531 0.08058
 C428 C 0.82679 0.55630 0.09012
 C429 C 0.81502 0.54265 0.10487
 C430 C 0.79327 0.54866 0.11079
 H431 H 0.71235 0.60860 0.07943
 H432 H 0.75260 0.65660 0.02572
 H433 H 0.69188 0.63322 0.05616
 H434 H 0.78822 0.64053 0.03646
 H435 H 0.80976 0.61321 0.05613
 H436 H 0.73186 0.59162 0.10188
 H437 H 0.75223 0.56220 0.11942
 H438 H 0.82626 0.58460 0.06881
 H439 H 0.84366 0.55175 0.08540
 H440 H 0.78426 0.53802 0.12233
 C441 C 0.76630 0.34850 0.94088
 C442 C 0.75637 0.35968 0.92297
 C443 C 0.73353 0.35479 0.91871
 C444 C 0.72094 0.34104 0.93283
 C445 C 0.73057 0.33181 0.95141
 C446 C 0.75351 0.33478 0.95486
 C447 C 0.72300 0.36448 0.90094
 C448 C 0.73398 0.38053 0.88820
 C449 C 0.75594 0.38789 0.89302
 C450 C 0.76778 0.37641 0.90990
 C451 C 0.79023 0.38285 0.91376
 C452 C 0.80017 0.40109 0.90279
 C453 C 0.78817 0.41375 0.88766
 C454 C 0.76606 0.40699 0.88214
 C455 C 0.75447 0.42057 0.86691
 C456 C 0.76389 0.44066 0.85870
 C457 C 0.78524 0.44775 0.86497
 C458 C 0.79772 0.43382 0.87880
 H459 H 0.78365 0.35072 0.94506
 H460 H 0.70321 0.33841 0.92992
 H461 H 0.76129 0.32765 0.96911
 H462 H 0.70577 0.36017 0.89722
 H463 H 0.72448 0.38724 0.87492
 H464 H 0.80048 0.37445 0.92561
 H465 H 0.81720 0.40589 0.90680
 H466 H 0.73770 0.41686 0.86168
 H467 H 0.75411 0.45121 0.84787
 H468 H 0.81427 0.43938 0.88370
 C469 C 0.23626 0.64282 0.94790
 C470 C 0.24491 0.62919 0.93088
 C471 C 0.26835 0.62982 0.92727
 C472 C 0.28240 0.64243 0.94087
 C473 C 0.27369 0.65473 0.95830
 C474 C 0.25050 0.65543 0.96133
 C475 C 0.27786 0.61738 0.91047
 C476 C 0.26490 0.60288 0.89799
 C477 C 0.24179 0.60003 0.90202
 C478 C 0.23139 0.61425 0.91795
 C479 C 0.20800 0.61243 0.92090
 C480 C 0.19547 0.59606 0.90996
 C481 C 0.20571 0.58074 0.89582
 C482 C 0.22893 0.58281 0.89123
 C483 C 0.23858 0.56657 0.87702
 C484 C 0.22605 0.54830 0.86904
 C485 C 0.20348 0.54585 0.87447
 C486 C 0.19310 0.56256 0.88714
 H487 H 0.21868 0.64365 0.95169
 H488 H 0.30035 0.64224 0.93815
 H489 H 0.24341 0.66501 0.97464
 H490 H 0.29570 0.61838 0.90727
 H491 H 0.27369 0.59387 0.88544
 H492 H 0.19884 0.62316 0.93192
 H493 H 0.17767 0.59482 0.91326
 H494 H 0.25600 0.56669 0.87258
 H495 H 0.23425 0.53543 0.85924
 H496 H 0.17560 0.56048 0.89146
 C497 C 0.03573 0.26752 0.39286
 C498 C 0.05222 0.25066 0.38919
 C499 C 0.06123 0.24861 0.36809
 C500 C 0.05246 0.26173 0.35102
 C501 C 0.03576 0.27800 0.35499
 C502 C 0.02784 0.28102 0.37605
 C503 C 0.07903 0.23369 0.36430
 C504 C 0.08874 0.22156 0.38121
 C505 C 0.08018 0.22302 0.40243
 C506 C 0.06060 0.23646 0.40603
 C507 C 0.04982 0.23512 0.42628
 C508 C 0.05906 0.22286 0.44315
 C509 C 0.07966 0.21207 0.44069
 C510 C 0.09051 0.21172 0.42030
 C511 C 0.11181 0.20120 0.41903
 C512 C 0.12233 0.19280 0.43756
 C513 C 0.11178 0.19416 0.45774
 C514 C 0.08993 0.20263 0.45887
 H515 H 0.02910 0.27117 0.40868
 H516 H 0.05887 0.25959 0.33476
 H517 H 0.01497 0.29355 0.37950
 H518 H 0.08596 0.23189 0.34821
 H519 H 0.10265 0.21067 0.37709
 H520 H 0.03390 0.24312 0.42943
 H521 H 0.05043 0.22266 0.45858
 H522 H 0.12135 0.20055 0.40426
 H523 H 0.13928 0.18643 0.43623
 H524 H 0.08137 0.20319 0.47432
 C525 C 0.06204 0.69604 0.60972
 C526 C 0.07229 0.71784 0.61199
 C527 C 0.06585 0.73143 0.62991
 C528 C 0.04965 0.72343 0.64468
 C529 C 0.03916 0.70213 0.64168
 C530 C 0.04577 0.68846 0.62427
 C531 C 0.07513 0.75320 0.63269
 C532 C 0.08970 0.76243 0.61742
 C533 C 0.09579 0.75007 0.59874
 C534 C 0.08787 0.72697 0.59657
 C535 C 0.09536 0.71397 0.57878
 C536 C 0.10831 0.72376 0.56258
 C537 C 0.11438 0.74682 0.56344
 C538 C 0.10890 0.76020 0.58179
 C539 C 0.11582 0.78350 0.58180
 C540 C 0.12613 0.79332 0.56371
 C541 C 0.13006 0.78029 0.54516
 C542 C 0.12507 0.75681 0.54553
 H543 H 0.06560 0.68465 0.59652
 H544 H 0.04467 0.73418 0.65811
 H545 H 0.03806 0.67185 0.62159
 H546 H 0.07058 0.76353 0.64654
 H547 H 0.09576 0.77949 0.62069
 H548 H 0.09131 0.69610 0.57672
 H549 H 0.11299 0.71331 0.54886
 H550 H 0.11261 0.79493 0.59506
 H551 H 0.12985 0.81153 0.56381
 H552 H 0.12851 0.74652 0.53136
 C553 C 0.93237 0.75890 0.35639
 C554 C 0.91640 0.74813 0.37011
 C555 C 0.91463 0.72388 0.36916
 C556 C 0.92912 0.71113 0.35608
 C557 C 0.94595 0.72194 0.34396
 C558 C 0.94691 0.74594 0.34359
 C559 C 0.89907 0.71229 0.38198
 C560 C 0.88643 0.72395 0.39715
 C561 C 0.88897 0.74781 0.40016
 C562 C 0.90307 0.76033 0.38552
 C563 C 0.90393 0.78446 0.38735
 C564 C 0.89290 0.79581 0.40396
 C565 C 0.88089 0.78360 0.41957
 C566 C 0.87843 0.75945 0.41775
 C567 C 0.86666 0.74777 0.43437
 C568 C 0.85872 0.75945 0.45241
 C569 C 0.86182 0.78313 0.45438
 C570 C 0.87220 0.79528 0.43757
 H571 H 0.93477 0.77721 0.35587
 H572 H 0.92801 0.69254 0.35620
 H573 H 0.95973 0.75471 0.33427
 H574 H 0.89717 0.69382 0.38081
 H575 H 0.87493 0.71363 0.40646
 H576 H 0.91326 0.79514 0.37630
 H577 H 0.89452 0.81431 0.40504
 H578 H 0.86421 0.72946 0.43454
 H579 H 0.85062 0.74981 0.46523
 H580 H 0.87474 0.81363 0.43917
 C581 C 0.93216 0.30725 0.59437
 C582 C 0.92570 0.28400 0.59692
 C583 C 0.93382 0.27204 0.61522
 C584 C 0.94809 0.28298 0.63001
 C585 C 0.95505 0.30569 0.62662
 C586 C 0.94663 0.31776 0.60890
 C587 C 0.92828 0.24901 0.61832
 C588 C 0.91585 0.23712 0.60306
 C589 C 0.90824 0.24794 0.58406
 C590 C 0.91234 0.27202 0.58146
 C591 C 0.90337 0.28321 0.56324
 C592 C 0.89244 0.27109 0.54721
 C593 C 0.88989 0.24739 0.54866
 C594 C 0.89718 0.23544 0.56729
 C595 C 0.89384 0.21134 0.56786
 C596 C 0.88477 0.19969 0.55024
 C597 C 0.87870 0.21160 0.53156
 C598 C 0.88066 0.23552 0.53117
 H599 H 0.92703 0.31768 0.58094
 H600 H 0.95456 0.27346 0.64366
 H601 H 0.95159 0.33539 0.60596
 H602 H 0.93414 0.23985 0.63243
 H603 H 0.91265 0.21932 0.60660
 H604 H 0.90464 0.30144 0.56071
 H605 H 0.88640 0.28035 0.53322
 H606 H 0.89872 0.20083 0.58133
 H607 H 0.88338 0.18116 0.55088
 H608 H 0.87554 0.24487 0.51688
 C609 C 0.38892 0.07752 0.30021
 C610 C 0.38841 0.07917 0.27745
 C611 C 0.37554 0.06275 0.26600
 C612 C 0.36321 0.04582 0.27720
 C613 C 0.36445 0.04422 0.29972
 C614 C 0.37729 0.06024 0.31104
 C615 C 0.37566 0.06286 0.24349
 C616 C 0.38934 0.07802 0.23204
 C617 C 0.40295 0.09423 0.24275
 C618 C 0.40124 0.09579 0.26572
 C619 C 0.41267 0.11372 0.27631
 C620 C 0.42727 0.12804 0.26524
 C621 C 0.43111 0.12503 0.24327
 C622 C 0.41864 0.10858 0.23145
 C623 C 0.42342 0.10642 0.20909
 C624 C 0.44086 0.11897 0.19944
 C625 C 0.45381 0.13406 0.21172
 C626 C 0.44818 0.13774 0.23333
 H627 H 0.39894 0.08866 0.31014
 H628 H 0.35352 0.03324 0.26834
 H629 H 0.37849 0.05932 0.32845
 H630 H 0.36568 0.05054 0.23460
 H631 H 0.38886 0.07667 0.21472
 H632 H 0.41066 0.11718 0.29326
 H633 H 0.43627 0.14110 0.27417
 H634 H 0.41480 0.09437 0.19889
 H635 H 0.44503 0.11593 0.18267
 H636 H 0.45810 0.14965 0.24277
 C637 C 0.60755 0.07323 0.70309
 C638 C 0.60991 0.07768 0.72542
 C639 C 0.62789 0.06697 0.73635
 C640 C 0.64265 0.05236 0.72524
 C641 C 0.63946 0.04752 0.70332
 C642 C 0.62198 0.05834 0.69238
 C643 C 0.63063 0.07030 0.75845
 C644 C 0.61525 0.08300 0.77026
 C645 C 0.59654 0.09323 0.76032
 C646 C 0.59449 0.09150 0.73737
 C647 C 0.57685 0.10329 0.72718
 C648 C 0.56064 0.11468 0.73904
 C649 C 0.56129 0.11481 0.76149
 C650 C 0.57948 0.10464 0.77254
 C651 C 0.57919 0.10547 0.79540
 C652 C 0.56101 0.11475 0.80662
 C653 C 0.54262 0.12362 0.79550
 C654 C 0.54332 0.12437 0.77293
 H655 H 0.59424 0.08025 0.69352
 H656 H 0.65604 0.04395 0.73392
 H657 H 0.61916 0.05499 0.67542
 H658 H 0.64450 0.06244 0.76687
 H659 H 0.61847 0.08440 0.78728
 H660 H 0.57496 0.10399 0.70993
 H661 H 0.54705 0.12292 0.73051
 H662 H 0.59227 0.09827 0.80517
 H663 H 0.56085 0.11393 0.82408
 H664 H 0.52933 0.13162 0.76420
 C665 C 0.37732 0.92444 0.71710
 C666 C 0.37966 0.92634 0.73975
 C667 C 0.36512 0.94159 0.75076
 C668 C 0.34959 0.95493 0.73925
 C669 C 0.34879 0.95391 0.71670
 C670 C 0.36234 0.93816 0.70587
 C671 C 0.36685 0.94424 0.77304
 C672 C 0.38349 0.93308 0.78458
 C673 C 0.39911 0.91863 0.77425
 C674 C 0.39660 0.91453 0.75160
 C675 C 0.41158 0.89932 0.74138
 C676 C 0.42937 0.88978 0.75239
 C677 C 0.43288 0.89472 0.77405
 C678 C 0.41756 0.90864 0.78559
 C679 C 0.42187 0.91245 0.80781
 C680 C 0.44103 0.90358 0.81768
 C681 C 0.45646 0.89084 0.80573
 C682 C 0.45200 0.88606 0.78410
 H683 H 0.38739 0.91324 0.70734
 H684 H 0.33921 0.96721 0.74772
 H685 H 0.36183 0.93693 0.68844
 H686 H 0.35563 0.95564 0.78160
 H687 H 0.38389 0.93649 0.80164
 H688 H 0.41031 0.89458 0.72467
 H689 H 0.44079 0.87871 0.74367
 H690 H 0.41104 0.92252 0.81795
 H691 H 0.44415 0.90724 0.83453
 H692 H 0.46375 0.87575 0.77495
 C693 C 0.63977 0.94309 0.24408
 C694 C 0.62516 0.92662 0.25358
 C695 C 0.62471 0.92522 0.27642
 C696 C 0.63691 0.94077 0.28897
 C697 C 0.65008 0.95780 0.27930
 C698 C 0.65208 0.95838 0.25682
 C699 C 0.61156 0.90878 0.28678
 C700 C 0.59774 0.89437 0.27510
 C701 C 0.59612 0.89615 0.25244
 C702 C 0.61045 0.91214 0.24141
 C703 C 0.60880 0.91382 0.21873
 C704 C 0.59281 0.90145 0.20735
 C705 C 0.57795 0.88674 0.21800
 C706 C 0.57988 0.88326 0.24059
 C707 C 0.56469 0.86777 0.25054
 C708 C 0.54731 0.85785 0.23893
 C709 C 0.54463 0.86258 0.21700
 C710 C 0.56052 0.87625 0.20635
 H711 H 0.64179 0.94491 0.22689
 H712 H 0.63574 0.93996 0.30642
 H713 H 0.66241 0.97132 0.24906
 H714 H 0.61158 0.90735 0.30422
 H715 H 0.58798 0.88248 0.28457
 H716 H 0.61918 0.92519 0.20928
 H717 H 0.59166 0.90393 0.19006
 H718 H 0.56525 0.86336 0.26739
 H719 H 0.53540 0.84690 0.24731
 H720 H 0.55853 0.87980 0.18929
 C721 C 0.40013 0.29429 0.94563
 C722 C 0.39744 0.27133 0.93871
 C723 C 0.37678 0.26026 0.94346
 C724 C 0.36000 0.27166 0.95531
 C725 C 0.36343 0.29412 0.96272
 C726 C 0.38351 0.30532 0.95743
 C727 C 0.37314 0.23775 0.93669
 C728 C 0.38967 0.22571 0.92570
 C729 C 0.41077 0.23569 0.92111
 C730 C 0.41464 0.25894 0.92763
 C731 C 0.43579 0.26889 0.92331
 C732 C 0.45278 0.25652 0.91360
 C733 C 0.44947 0.23379 0.90755
 C734 C 0.42834 0.22307 0.91072
 C735 C 0.42597 0.20005 0.90363
 C736 C 0.44407 0.18812 0.89473
 C737 C 0.46506 0.19864 0.89264
 C738 C 0.46745 0.22163 0.89866
 H739 H 0.41492 0.30433 0.94241
 H740 H 0.34448 0.26284 0.95918
 H741 H 0.38658 0.32278 0.96262
 H742 H 0.35737 0.22921 0.94014
 H743 H 0.38548 0.20836 0.92134
 H744 H 0.44008 0.28623 0.92758
 H745 H 0.46885 0.26482 0.91102
 H746 H 0.41046 0.19066 0.90491
 H747 H 0.44181 0.17036 0.89005
 H748 H 0.48356 0.23004 0.89662
 C749 C 0.61425 0.71103 0.93119
 C750 C 0.61319 0.73523 0.92975
 C751 C 0.62888 0.74820 0.94183
 C752 C 0.64501 0.73712 0.95463
 C753 C 0.64520 0.71314 0.95632
 C754 C 0.62986 0.70030 0.94434
 C755 C 0.62790 0.77212 0.94164
 C756 C 0.61102 0.78349 0.93057
 C757 C 0.59466 0.77134 0.91878
 C758 C 0.59649 0.74689 0.91750
 C759 C 0.58140 0.73481 0.90419
 C760 C 0.56401 0.74587 0.89388
 C761 C 0.56091 0.76936 0.89634
 C762 C 0.57632 0.78266 0.90843
 C763 C 0.57219 0.80656 0.91012
 C764 C 0.55321 0.81646 0.90078
 C765 C 0.53781 0.80289 0.88957
 C766 C 0.54211 0.77950 0.88700
 H767 H 0.60272 0.69977 0.92309
 H768 H 0.65669 0.74718 0.96409
 H769 H 0.62969 0.68174 0.94537
 H770 H 0.63995 0.78217 0.95065
 H771 H 0.61129 0.80194 0.93155
 H772 H 0.58258 0.71666 0.90127
 H773 H 0.55256 0.73578 0.88420
 H774 H 0.58293 0.81798 0.91902
 H775 H 0.55020 0.83463 0.90290
 H776 H 0.53045 0.76900 0.87792
 C777 C 0.40068 0.72669 0.03490
 C778 C 0.39642 0.74081 0.05294
 C779 C 0.37442 0.74094 0.06163
 C780 C 0.35711 0.72862 0.05145
 C781 C 0.36170 0.71503 0.03336
 C782 C 0.38363 0.71397 0.02544
 C783 C 0.36998 0.75313 0.08051
 C784 C 0.38710 0.76434 0.09149
 C785 C 0.40924 0.76465 0.08341
 C786 C 0.41353 0.75404 0.06306
 C787 C 0.43471 0.75718 0.05333
 C788 C 0.45182 0.76848 0.06398
 C789 C 0.44867 0.77659 0.08488
 C790 C 0.42734 0.77503 0.09492
 C791 C 0.42540 0.78294 0.11644
 C792 C 0.44412 0.79090 0.12770
 C793 C 0.46525 0.79163 0.11780
 C794 C 0.46708 0.78542 0.09606
 H795 H 0.41717 0.72453 0.02812
 H796 H 0.34021 0.72923 0.05785
 H797 H 0.38761 0.70352 0.01153
 H798 H 0.35319 0.75348 0.08721
 H799 H 0.38239 0.77310 0.10610
 H800 H 0.43846 0.75139 0.03722
 H801 H 0.46795 0.77014 0.05604
 H802 H 0.40993 0.78197 0.12541
 H803 H 0.44223 0.79541 0.14454
 H804 H 0.48323 0.78645 0.08806
 C805 C 0.62039 0.29505 0.06839
 C806 C 0.61838 0.27163 0.07422
 C807 C 0.63358 0.25591 0.06476
 C808 C 0.65026 0.26364 0.05035
 C809 C 0.65142 0.28679 0.04434
 C810 C 0.63650 0.30236 0.05360
 C811 C 0.63155 0.23251 0.06916
 C812 C 0.61406 0.22416 0.08185
 C813 C 0.59815 0.23905 0.09115
 C814 C 0.60116 0.26325 0.08827
 C815 C 0.58672 0.27829 0.09936
 C816 C 0.56883 0.27011 0.11142
 C817 C 0.56451 0.24666 0.11284
 C818 C 0.57919 0.23067 0.10307
 C819 C 0.57373 0.20703 0.10508
 C820 C 0.55423 0.19986 0.11578
 C821 C 0.53960 0.21593 0.12478
 C822 C 0.54520 0.23924 0.12369
 H823 H 0.60917 0.30809 0.07419
 H824 H 0.66157 0.25145 0.04293
 H825 H 0.63707 0.32034 0.04911
 H826 H 0.64322 0.22041 0.06217
 H827 H 0.61352 0.20584 0.08417
 H828 H 0.58888 0.29664 0.09922
 H829 H 0.55794 0.28235 0.11932
 H830 H 0.58376 0.19370 0.09799
 H831 H 0.55021 0.18173 0.11640
 H832 H 0.53418 0.25176 0.13104
 C833 C 0.29165 0.07641 0.61873
 C834 C 0.26809 0.07827 0.61728
 C835 C 0.25493 0.06590 0.63250
 C836 C 0.26517 0.05194 0.64815
 C837 C 0.28846 0.04937 0.64840
 C838 C 0.30153 0.06207 0.63388
 C839 C 0.23164 0.06674 0.63144
 C840 C 0.22103 0.07850 0.61487
 C841 C 0.23337 0.09020 0.59874
 C842 C 0.25724 0.09101 0.60061
 C843 C 0.26955 0.10406 0.58541
 C844 C 0.25923 0.11431 0.56795
 C845 C 0.23625 0.11217 0.56495
 C846 C 0.22278 0.10067 0.58050
 C847 C 0.19941 0.09949 0.57660
 C848 C 0.19019 0.10848 0.55767
 C849 C 0.20392 0.11879 0.54208
 C850 C 0.22681 0.12109 0.54610
 H851 H 0.30303 0.08496 0.60784
 H852 H 0.25494 0.04199 0.65927
 H853 H 0.31959 0.06047 0.63387
 H854 H 0.22147 0.05759 0.64318
 H855 H 0.20302 0.07788 0.61504
 H856 H 0.28736 0.10663 0.58639
 H857 H 0.26948 0.12362 0.55637
 H858 H 0.18785 0.09122 0.58753
 H859 H 0.17239 0.10664 0.55485
 H860 H 0.23742 0.12950 0.53421
 C861 C 0.69885 0.07205 0.38876
 C862 C 0.72132 0.07953 0.38688
 C863 C 0.73344 0.07296 0.36818
 C864 C 0.72337 0.05926 0.35228
 C865 C 0.70139 0.05104 0.35494
 C866 C 0.68919 0.05803 0.37317
 C867 C 0.75579 0.07944 0.36577
 C868 C 0.76688 0.09108 0.38210
 C869 C 0.75586 0.09703 0.40148
 C870 C 0.73241 0.09233 0.40336
 C871 C 0.72093 0.10021 0.42185
 C872 C 0.73221 0.11057 0.43873
 C873 C 0.75534 0.11341 0.43797
 C874 C 0.76754 0.10712 0.41923
 C875 C 0.79106 0.11032 0.41948
 C876 C 0.80189 0.11858 0.43783
 C877 C 0.78973 0.12401 0.45646
 C878 C 0.76639 0.12196 0.45618
 H879 H 0.68843 0.07590 0.40248
 H880 H 0.73310 0.05415 0.33830
 H881 H 0.67213 0.05226 0.37576
 H882 H 0.76506 0.07484 0.35136
 H883 H 0.78419 0.09515 0.37900
 H884 H 0.70308 0.09863 0.42385
 H885 H 0.72275 0.11585 0.45282
 H886 H 0.80172 0.10583 0.40612
 H887 H 0.81998 0.11990 0.43770
 H888 H 0.75682 0.12654 0.47043
 C889 C 0.74520 0.93471 0.63413
 C890 C 0.73530 0.92216 0.61704
 C891 C 0.71182 0.92409 0.61436
 C892 C 0.69925 0.93888 0.62740
 C893 C 0.70953 0.95209 0.64341
 C894 C 0.73246 0.94939 0.64706
 C895 C 0.70098 0.91175 0.59826
 C896 C 0.71300 0.89850 0.58381
 C897 C 0.73658 0.89725 0.58470
 C898 C 0.74786 0.90854 0.60207
 C899 C 0.77136 0.90650 0.60340
 C900 C 0.78360 0.89525 0.58754
 C901 C 0.77299 0.88557 0.56974
 C902 C 0.74929 0.88585 0.56832
 C903 C 0.73939 0.87570 0.54991
 C904 C 0.75251 0.86734 0.53308
 C905 C 0.77585 0.86834 0.53409
 C906 C 0.78604 0.87657 0.55284
 H907 H 0.76281 0.93406 0.63766
 H908 H 0.68140 0.94055 0.62471
 H909 H 0.74078 0.95928 0.65945
 H910 H 0.68296 0.91276 0.59648
 H911 H 0.70320 0.88977 0.57182
 H912 H 0.78097 0.91387 0.61631
 H913 H 0.80167 0.89477 0.58891
 H914 H 0.72160 0.87473 0.54749
 H915 H 0.74435 0.86073 0.51878
 H916 H 0.80416 0.87738 0.55363
 C917 C 0.30797 0.91912 0.39723
 C918 C 0.28488 0.91394 0.39564
 C919 C 0.27245 0.92522 0.37934
 C920 C 0.28294 0.94097 0.36530
 C921 C 0.30567 0.94639 0.36766
 C922 C 0.31805 0.93511 0.38355
 C923 C 0.24949 0.92129 0.37758
 C924 C 0.23827 0.90750 0.39244
 C925 C 0.24972 0.89670 0.40953
 C926 C 0.27357 0.89889 0.41035
 C927 C 0.28530 0.88633 0.42614
 C928 C 0.27408 0.87398 0.44197
 C929 C 0.25080 0.87362 0.44272
 C930 C 0.23817 0.88433 0.42622
 C931 C 0.21451 0.88316 0.42786
 C932 C 0.20407 0.87321 0.44584
 C933 C 0.21683 0.86403 0.46261
 C934 C 0.24012 0.86340 0.46047
 H935 H 0.31863 0.91183 0.40937
 H936 H 0.27317 0.94971 0.35311
 H937 H 0.33567 0.93890 0.38567
 H938 H 0.23994 0.92957 0.36495
 H939 H 0.22049 0.90573 0.39014
 H940 H 0.30329 0.88576 0.42682
 H941 H 0.28378 0.86524 0.45421
 H942 H 0.20357 0.89069 0.41607
 H943 H 0.18600 0.87382 0.44718
 H944 H 0.25004 0.85589 0.47327
 C945 C 0.07835 0.39298 0.69870
 C946 C 0.07974 0.39060 0.72138
 C947 C 0.06605 0.37368 0.73140
 C948 C 0.05119 0.36029 0.71911
 C949 C 0.04919 0.36394 0.69686
 C950 C 0.06326 0.37999 0.68679
 C951 C 0.06658 0.37085 0.75373
 C952 C 0.07922 0.38546 0.76656
 C953 C 0.09206 0.40348 0.75747
 C954 C 0.09326 0.40527 0.73446
 C955 C 0.10732 0.42225 0.72528
 C956 C 0.11787 0.43851 0.73797
 C957 C 0.11511 0.43835 0.76026
 C958 C 0.10298 0.42037 0.77053
 C959 C 0.10134 0.42091 0.79337
 C960 C 0.10984 0.43944 0.80511
 C961 C 0.12024 0.45779 0.79450
 C962 C 0.12363 0.45672 0.77224
 H963 H 0.08800 0.40534 0.68965
 H964 H 0.04037 0.34787 0.72705
 H965 H 0.06227 0.38294 0.66956
 H966 H 0.05647 0.35769 0.76148
 H967 H 0.07824 0.38241 0.78367
 H968 H 0.11026 0.42380 0.70821
 H969 H 0.12772 0.45182 0.73015
 H970 H 0.09283 0.40783 0.80259
 H971 H 0.10722 0.44002 0.82241
 H972 H 0.13197 0.47090 0.76410
 C973 C 0.07125 0.61599 0.30331
 C974 C 0.07742 0.61654 0.28123
 C975 C 0.06718 0.63324 0.26789
 C976 C 0.05181 0.64895 0.27660
 C977 C 0.04550 0.64767 0.29838
 C978 C 0.05543 0.63116 0.31160
 C979 C 0.07177 0.63370 0.24581
 C980 C 0.08540 0.61721 0.23640
 C981 C 0.09556 0.59988 0.24889
 C982 C 0.09258 0.60044 0.27181
 C983 C 0.10475 0.58483 0.28457
 C984 C 0.11803 0.56808 0.27525
 C985 C 0.11945 0.56595 0.25291
 C986 C 0.10846 0.58188 0.23931
 C987 C 0.11018 0.57848 0.21671
 C988 C 0.12168 0.55965 0.20820
 C989 C 0.13198 0.54374 0.22185
 C990 C 0.13135 0.54750 0.24416
 H991 H 0.07757 0.60341 0.31445
 H992 H 0.04390 0.66145 0.26617
 H993 H 0.05071 0.62976 0.32845
 H994 H 0.06420 0.64657 0.23554
 H995 H 0.08786 0.61863 0.21923
 H996 H 0.10458 0.58525 0.30193
 H997 H 0.12679 0.55623 0.28571
 H998 H 0.10205 0.58948 0.20520
 H999 H 0.12173 0.55708 0.19091
 H1000 H 0.13966 0.53555 0.25487
 C1001 C 0.95312 0.35557 0.23362
 C1002 C 0.93759 0.37171 0.24190
 C1003 C 0.93393 0.37184 0.26451
 C1004 C 0.94659 0.35787 0.27815
 C1005 C 0.96278 0.34311 0.26979
 C1006 C 0.96545 0.34144 0.24744
 C1007 C 0.91814 0.38639 0.27361
 C1008 C 0.90639 0.40169 0.26093
 C1009 C 0.91034 0.40345 0.23851
 C1010 C 0.92608 0.38813 0.22876
 C1011 C 0.93057 0.39051 0.20647
 C1012 C 0.92092 0.40795 0.19434
 C1013 C 0.90611 0.42343 0.20376
 C1014 C 0.89993 0.42085 0.22578
 C1015 C 0.88410 0.43640 0.23434
 C1016 C 0.87649 0.45484 0.22220
 C1017 C 0.88393 0.45828 0.20104
 C1018 C 0.89802 0.44202 0.19153
 H1019 H 0.95633 0.35361 0.21661
 H1020 H 0.94415 0.35880 0.29548
 H1021 H 0.97776 0.32989 0.24067
 H1022 H 0.91509 0.38627 0.29087
 H1023 H 0.89492 0.41255 0.26952
 H1024 H 0.94219 0.37967 0.19801
 H1025 H 0.92550 0.40961 0.17747
 H1026 H 0.87746 0.43513 0.25045
 H1027 H 0.86503 0.46688 0.22960
 H1028 H 0.90358 0.44449 0.17501
 C1029 C 0.90655 0.63617 0.71964
 C1030 C 0.91095 0.63094 0.74153
 C1031 C 0.93063 0.64027 0.75088
 C1032 C 0.94520 0.65414 0.73858
 C1033 C 0.94121 0.65773 0.71661
 C1034 C 0.92167 0.64902 0.70738
 C1035 C 0.93631 0.63459 0.77203
 C1036 C 0.92400 0.61831 0.78350
 C1037 C 0.90507 0.60754 0.77439
 C1038 C 0.89744 0.61539 0.75384
 C1039 C 0.87690 0.60687 0.74597
 C1040 C 0.86552 0.58936 0.75654
 C1041 C 0.87426 0.57951 0.77517
 C1042 C 0.89387 0.58871 0.78474
 C1043 C 0.90225 0.57761 0.80341
 C1044 C 0.89221 0.55755 0.81135
 C1045 C 0.87340 0.54834 0.80123
 C1046 C 0.86406 0.55975 0.78365
 H1047 H 0.89235 0.62934 0.71110
 H1048 H 0.96060 0.66052 0.74562
 H1049 H 0.91845 0.65153 0.69034
 H1050 H 0.95107 0.64199 0.77944
 H1051 H 0.92978 0.61443 0.79953
 H1052 H 0.86918 0.61340 0.73154
 H1053 H 0.85018 0.58281 0.74954
 H1054 H 0.91722 0.58321 0.81150
 H1055 H 0.89973 0.54864 0.82484
 H1056 H 0.84959 0.55232 0.77571
 C1057 C 0.74493 0.63903 0.92864
 C1058 C 0.73525 0.61831 0.92112
 C1059 C 0.71316 0.61308 0.92797
 C1060 C 0.70218 0.62696 0.94308
 C1061 C 0.71247 0.64675 0.95139
 C1062 C 0.73366 0.65301 0.94341
 C1063 C 0.70220 0.59370 0.92013
 C1064 C 0.71285 0.57889 0.90601
 C1065 C 0.73527 0.58254 0.89956
 C1066 C 0.74676 0.60245 0.90741
 C1067 C 0.76965 0.60518 0.90219
 C1068 C 0.78115 0.58866 0.89047
 C1069 C 0.77023 0.56909 0.88293
 C1070 C 0.74693 0.56623 0.88652
 C1071 C 0.73642 0.54677 0.87735
 C1072 C 0.74890 0.52985 0.86704
 C1073 C 0.77221 0.53176 0.86528
 C1074 C 0.78265 0.55191 0.87248
 H1075 H 0.76119 0.64495 0.92345
 H1076 H 0.68554 0.62209 0.94850
 H1077 H 0.74197 0.66841 0.94907
 H1078 H 0.68521 0.58975 0.92517
 H1079 H 0.70325 0.56410 0.90123
 H1080 H 0.77951 0.61948 0.90778
 H1081 H 0.79891 0.59108 0.88758
 H1082 H 0.71861 0.54396 0.87798
 H1083 H 0.74028 0.51491 0.86079
 H1084 H 0.80066 0.55372 0.87100
 C1085 C 0.29453 0.39345 0.92981
 C1086 C 0.27175 0.39044 0.92442
 C1087 C 0.26020 0.37141 0.93347
 C1088 C 0.27142 0.35577 0.94695
 C1089 C 0.29374 0.35975 0.95308
 C1090 C 0.30514 0.37860 0.94407
 C1091 C 0.23728 0.36873 0.92986
 C1092 C 0.22528 0.38531 0.91863
 C1093 C 0.23599 0.40484 0.90979
 C1094 C 0.25982 0.40647 0.91140
 C1095 C 0.27097 0.42422 0.90011
 C1096 C 0.25918 0.44107 0.88932
 C1097 C 0.23587 0.44114 0.88962
 C1098 C 0.22380 0.42296 0.89958
 C1099 C 0.20009 0.42431 0.89964
 C1100 C 0.18908 0.44332 0.89080
 C1101 C 0.20129 0.46142 0.88157
 C1102 C 0.22464 0.45974 0.88044
 H1103 H 0.30434 0.40789 0.92432
 H1104 H 0.26219 0.34150 0.95394
 H1105 H 0.32236 0.38226 0.94832
 H1106 H 0.22832 0.35412 0.93653
 H1107 H 0.20758 0.38225 0.91694
 H1108 H 0.28894 0.42540 0.89910
 H1109 H 0.26845 0.45463 0.88121
 H1110 H 0.18964 0.41146 0.90716
 H1111 H 0.17101 0.44422 0.89189
 H1112 H 0.23423 0.47340 0.87282
 C1113 C 0.29914 0.60668 0.06411
 C1114 C 0.27934 0.61080 0.07604
 C1115 C 0.26784 0.63160 0.07209
 C1116 C 0.27618 0.64763 0.05696
 C1117 C 0.29559 0.64296 0.04484
 C1118 C 0.30696 0.62236 0.04883
 C1119 C 0.24774 0.63603 0.08282
 C1120 C 0.23818 0.61980 0.09659
 C1121 C 0.24867 0.59855 0.10059
 C1122 C 0.27015 0.59454 0.09103
 C1123 C 0.28165 0.57428 0.09658
 C1124 C 0.27178 0.55755 0.10943
 C1125 C 0.25007 0.56025 0.11724
 C1126 C 0.23829 0.58093 0.11344
 C1127 C 0.21625 0.58256 0.12191
 C1128 C 0.20609 0.56395 0.13248
 C1129 C 0.21753 0.54323 0.13507
 C1130 C 0.23983 0.54189 0.12818
 H1131 H 0.30864 0.59110 0.06556
 H1132 H 0.26702 0.66336 0.05412
 H1133 H 0.32198 0.61803 0.03990
 H1134 H 0.23894 0.65199 0.08008
 H1135 H 0.22249 0.62447 0.10391
 H1136 H 0.29845 0.57075 0.09126
 H1137 H 0.28105 0.54201 0.11276
 H1138 H 0.20605 0.59758 0.11984
 H1139 H 0.18881 0.56538 0.13765
 H1140 H 0.24895 0.52603 0.13050
 C1141 C 0.71789 0.39156 0.05124
 C1142 C 0.73854 0.38797 0.06175
 C1143 C 0.74917 0.36650 0.05879
 C1144 C 0.73895 0.34918 0.04635
 C1145 C 0.71852 0.35316 0.03581
 C1146 C 0.70823 0.37459 0.03850
 C1147 C 0.77016 0.36262 0.06786
 C1148 C 0.78130 0.37989 0.07904
 C1149 C 0.77155 0.40166 0.08216
 C1150 C 0.74932 0.40528 0.07437
 C1151 C 0.73856 0.42610 0.07945
 C1152 C 0.74964 0.44351 0.09026
 C1153 C 0.77192 0.44104 0.09628
 C1154 C 0.78323 0.42006 0.09264
 C1155 C 0.80598 0.41878 0.09900
 C1156 C 0.81705 0.43783 0.10775
 C1157 C 0.80586 0.45867 0.11056
 C1158 C 0.78308 0.45982 0.10544
 H1159 H 0.70908 0.40762 0.05186
 H1160 H 0.74736 0.33287 0.04434
 H1161 H 0.69254 0.37847 0.03062
 H1162 H 0.77835 0.34620 0.06583
 H1163 H 0.79754 0.37554 0.08528
 H1164 H 0.72135 0.42944 0.07548
 H1165 H 0.74079 0.45935 0.09346
 H1166 H 0.81594 0.40362 0.09667
 H1167 H 0.83468 0.43652 0.11153
 H1168 H 0.77410 0.47571 0.10804
 C1169 C 0.93432 0.75562 0.63390
 C1170 C 0.92253 0.74535 0.61659
 C1171 C 0.92325 0.72112 0.61498
 C1172 C 0.93647 0.70813 0.62901
 C1173 C 0.94894 0.71856 0.64547
 C1174 C 0.94714 0.74240 0.64815
 C1175 C 0.91111 0.70979 0.59909
 C1176 C 0.89847 0.72194 0.58435
 C1177 C 0.89781 0.74615 0.58456
 C1178 C 0.91032 0.75812 0.60070
 C1179 C 0.91096 0.78234 0.59980
 C1180 C 0.90037 0.79442 0.58335
 C1181 C 0.88815 0.78297 0.56750
 C1182 C 0.88595 0.75873 0.56844
 C1183 C 0.87226 0.74798 0.55285
 C1184 C 0.86309 0.76044 0.53594
 C1185 C 0.86683 0.78406 0.53400
 C1186 C 0.87862 0.79547 0.55032
 H1187 H 0.93393 0.77382 0.63690
 H1188 H 0.93707 0.68967 0.62691
 H1189 H 0.95620 0.75106 0.66088
 H1190 H 0.91154 0.69124 0.59787
 H1191 H 0.89014 0.71171 0.57236
 H1192 H 0.92034 0.79249 0.61113
 H1193 H 0.90198 0.81295 0.58290
 H1194 H 0.86833 0.72994 0.55313
 H1195 H 0.85330 0.75141 0.52394
 H1196 H 0.88123 0.81385 0.54912
 C1197 C 0.92649 0.28938 0.37263
 C1198 C 0.92400 0.26533 0.37448
 C1199 C 0.93548 0.25143 0.35932
 C1200 C 0.94914 0.26148 0.34322
 C1201 C 0.95278 0.28534 0.34279
 C1202 C 0.94074 0.29906 0.35730
 C1203 C 0.93417 0.22757 0.36101
 C1204 C 0.92291 0.21717 0.37817
 C1205 C 0.91203 0.23030 0.39419
 C1206 C 0.91156 0.25471 0.39159
 C1207 C 0.89908 0.26779 0.40650
 C1208 C 0.88910 0.25775 0.42436
 C1209 C 0.89097 0.23429 0.42811
 C1210 C 0.90196 0.22001 0.41294
 C1211 C 0.90296 0.19619 0.41767
 C1212 C 0.89404 0.18730 0.43693
 C1213 C 0.88401 0.20182 0.45205
 C1214 C 0.88212 0.22518 0.44726
 H1215 H 0.91864 0.30132 0.38347
 H1216 H 0.95831 0.25053 0.33220
 H1217 H 0.94275 0.31755 0.35731
 H1218 H 0.94265 0.21679 0.34936
 H1219 H 0.92315 0.19870 0.37851
 H1220 H 0.89668 0.28600 0.40489
 H1221 H 0.88017 0.26861 0.43565
 H1222 H 0.91098 0.18405 0.40713
 H1223 H 0.89556 0.16913 0.44029
 H1224 H 0.87392 0.23643 0.45873
 C1225 C 0.06476 0.25977 0.62895
 C1226 C 0.07585 0.26791 0.61016
 C1227 C 0.07243 0.29114 0.60427
 C1228 C 0.05760 0.30500 0.61595
 C1229 C 0.04591 0.29639 0.63394
 C1230 C 0.05015 0.27380 0.64061
 C1231 C 0.08346 0.30044 0.58644
 C1232 C 0.09706 0.28698 0.57356
 C1233 C 0.09995 0.26336 0.57780
 C1234 C 0.08961 0.25376 0.59669
 C1235 C 0.09265 0.23016 0.60096
 C1236 C 0.10406 0.21610 0.58662
 C1237 C 0.11309 0.22494 0.56756
 C1238 C 0.11192 0.24883 0.56322
 C1239 C 0.12183 0.25694 0.54383
 C1240 C 0.13041 0.24175 0.52862
 C1241 C 0.12992 0.21809 0.53234
 C1242 C 0.12227 0.20983 0.55226
 H1243 H 0.06676 0.24258 0.63501
 H1244 H 0.05501 0.32256 0.61074
 H1245 H 0.04173 0.26661 0.65460
 H1246 H 0.08122 0.31832 0.58212
 H1247 H 0.10459 0.29562 0.55999
 H1248 H 0.08579 0.22176 0.61500
 H1249 H 0.10522 0.19793 0.59020
 H1250 H 0.12255 0.27480 0.53946
 H1251 H 0.13665 0.24845 0.51341
 H1252 H 0.12193 0.19148 0.55519
 C1253 C 0.03552 0.72107 0.40357
 C1254 C 0.05086 0.73910 0.39977
 C1255 C 0.05722 0.74383 0.37817
 C1256 C 0.04641 0.73257 0.36096
 C1257 C 0.03061 0.71506 0.36500
 C1258 C 0.02596 0.70906 0.38654
 C1259 C 0.07447 0.75955 0.37404
 C1260 C 0.08601 0.76999 0.39095
 C1261 C 0.07964 0.76627 0.41265
 C1262 C 0.06067 0.75194 0.41687
 C1263 C 0.05167 0.75135 0.43792
 C1264 C 0.06182 0.76312 0.45467
 C1265 C 0.08187 0.77494 0.45132
 C1266 C 0.09130 0.77651 0.43036
 C1267 C 0.11244 0.78736 0.42823
 C1268 C 0.12397 0.79547 0.44636
 C1269 C 0.11453 0.79379 0.46711
 C1270 C 0.09289 0.78449 0.46910
 H1271 H 0.03119 0.71534 0.41962
 H1272 H 0.05080 0.73700 0.34447
 H1273 H 0.01420 0.69545 0.39044
 H1274 H 0.07955 0.76330 0.35760
 H1275 H 0.09935 0.78164 0.38656
 H1276 H 0.03626 0.74248 0.44173
 H1277 H 0.05433 0.76216 0.47061
 H1278 H 0.12106 0.78853 0.41294
 H1279 H 0.14073 0.80221 0.44412
 H1280 H 0.08478 0.78379 0.48474
 C1281 C 0.60821 0.92711 0.70646
 C1282 C 0.60916 0.92512 0.72920
 C1283 C 0.62660 0.93700 0.73999
 C1284 C 0.64184 0.95087 0.72838
 C1285 C 0.63973 0.95359 0.70601
 C1286 C 0.62312 0.94118 0.69521
 C1287 C 0.62828 0.93561 0.76238
 C1288 C 0.61243 0.92364 0.77449
 C1289 C 0.59412 0.91246 0.76464
 C1290 C 0.59290 0.91257 0.74156
 C1291 C 0.57505 0.90073 0.73162
 C1292 C 0.55808 0.89063 0.74366
 C1293 C 0.55827 0.89161 0.76608
 C1294 C 0.57657 0.90182 0.77703
 C1295 C 0.57599 0.90161 0.79992
 C1296 C 0.55744 0.89293 0.81118
 C1297 C 0.53895 0.88424 0.80006
 C1298 C 0.53979 0.88298 0.77756
 H1299 H 0.59579 0.91862 0.69679
 H1300 H 0.65466 0.96040 0.73690
 H1301 H 0.62128 0.94269 0.67789
 H1302 H 0.64172 0.94439 0.77073
 H1303 H 0.61482 0.92386 0.79169
 H1304 H 0.57336 0.89921 0.71441
 H1305 H 0.54436 0.88238 0.73526
 H1306 H 0.58928 0.90855 0.80963
 H1307 H 0.55713 0.89393 0.82863
 H1308 H 0.52563 0.87585 0.76892
 C1309 C 0.39714 0.91724 0.30440
 C1310 C 0.39517 0.91263 0.28210
 C1311 C 0.37918 0.92531 0.27019
 C1312 C 0.36562 0.94172 0.28049
 C1313 C 0.36838 0.94645 0.30248
 C1314 C 0.38408 0.93390 0.31427
 C1315 C 0.37734 0.92206 0.24798
 C1316 C 0.39193 0.90755 0.23707
 C1317 C 0.40869 0.89524 0.24811
 C1318 C 0.40937 0.89677 0.27113
 C1319 C 0.42454 0.88271 0.28242
 C1320 C 0.44021 0.86956 0.27162
 C1321 C 0.44136 0.86981 0.24920
 C1322 C 0.42525 0.88199 0.23698
 C1323 C 0.42724 0.88131 0.21419
 C1324 C 0.44536 0.87042 0.20422
 C1325 C 0.46189 0.85983 0.21661
 C1326 C 0.45924 0.85872 0.23900
 H1327 H 0.40923 0.90899 0.31459
 H1328 H 0.35361 0.95150 0.27122
 H1329 H 0.38647 0.93713 0.33131
 H1330 H 0.36497 0.93143 0.23879
 H1331 H 0.38968 0.90640 0.21988
 H1332 H 0.42483 0.88152 0.29975
 H1333 H 0.45206 0.85968 0.28098
 H1334 H 0.41572 0.88992 0.20362
 H1335 H 0.44712 0.87142 0.18685
 H1336 H 0.47186 0.85018 0.24860
 C1337 C 0.63677 0.07243 0.24874
 C1338 C 0.61905 0.08487 0.25848
 C1339 C 0.61589 0.08220 0.28103
 C1340 C 0.62890 0.06668 0.29282
 C1341 C 0.64550 0.05366 0.28271
 C1342 C 0.64978 0.05713 0.26074
 C1343 C 0.59940 0.09457 0.29175
 C1344 C 0.58507 0.10881 0.28050
 C1345 C 0.58640 0.11100 0.25784
 C1346 C 0.60396 0.09922 0.24666
 C1347 C 0.60522 0.10143 0.22399
 C1348 C 0.58916 0.11350 0.21249
 C1349 C 0.57134 0.12407 0.22305
 C1350 C 0.57011 0.12369 0.24592
 C1351 C 0.55195 0.13519 0.25583
 C1352 C 0.53483 0.14464 0.24354
 C1353 C 0.53535 0.14343 0.22103
 C1354 C 0.55414 0.13408 0.21081
 H1355 H 0.64085 0.07382 0.23185
 H1356 H 0.62582 0.06444 0.30995
 H1357 H 0.66272 0.04740 0.25264
 H1358 H 0.59722 0.09288 0.30905
 H1359 H 0.57265 0.11735 0.29014
 H1360 H 0.61807 0.09339 0.21448
 H1361 H 0.59040 0.11402 0.19504
 H1362 H 0.54998 0.13663 0.27303
 H1363 H 0.52062 0.15224 0.25172
 H1364 H 0.55464 0.13322 0.19335
 C1365 C 0.38597 0.07367 0.71244
 C1366 C 0.38614 0.07546 0.73522
 C1367 C 0.36993 0.06264 0.74699
 C1368 C 0.35414 0.04888 0.73616
 C1369 C 0.35479 0.04682 0.71364
 C1370 C 0.37069 0.05947 0.70196
 C1371 C 0.37006 0.06300 0.76949
 C1372 C 0.38660 0.07487 0.78066
 C1373 C 0.40347 0.08738 0.76970
 C1374 C 0.40246 0.08867 0.74665
 C1375 C 0.41795 0.10295 0.73575
 C1376 C 0.43497 0.11410 0.74670
 C1377 C 0.43736 0.11143 0.76889
 C1378 C 0.42151 0.09841 0.78089
 C1379 C 0.42499 0.09635 0.80345
 C1380 C 0.44386 0.10603 0.81331
 C1381 C 0.45977 0.11809 0.80107
 C1382 C 0.45597 0.12129 0.77900
 H1383 H 0.39799 0.08224 0.70221
 H1384 H 0.34207 0.03887 0.74534
 H1385 H 0.37155 0.05812 0.68455
 H1386 H 0.35761 0.05344 0.77860
 H1387 H 0.38566 0.07395 0.79800
 H1388 H 0.41735 0.10602 0.71863
 H1389 H 0.44676 0.12449 0.73755
 H1390 H 0.41392 0.08668 0.81382
 H1391 H 0.44647 0.10327 0.83039
 H1392 H 0.46801 0.13100 0.76949
 C1393 C 0.64496 0.74816 0.06480
 C1394 C 0.62830 0.73669 0.07719
 C1395 C 0.62565 0.71275 0.07399
 C1396 C 0.63844 0.70123 0.05846
 C1397 C 0.65403 0.71304 0.04562
 C1398 C 0.65758 0.73645 0.04930
 C1399 C 0.60981 0.70043 0.08586
 C1400 C 0.59534 0.71152 0.09984
 C1401 C 0.59605 0.73556 0.10245
 C1402 C 0.61356 0.74821 0.09187
 C1403 C 0.61525 0.77200 0.09582
 C1404 C 0.59935 0.78340 0.10816
 C1405 C 0.58107 0.77165 0.11691
 C1406 C 0.57938 0.74747 0.11465
 C1407 C 0.56028 0.73644 0.12358
 C1408 C 0.54302 0.74908 0.13287
 C1409 C 0.54436 0.77298 0.13403
 C1410 C 0.56382 0.78412 0.12690
 H1411 H 0.64824 0.76627 0.06617
 H1412 H 0.63581 0.68300 0.05598
 H1413 H 0.66963 0.74596 0.03967
 H1414 H 0.60816 0.68202 0.08388
 H1415 H 0.58355 0.70066 0.10822
 H1416 H 0.62855 0.78247 0.08930
 H1417 H 0.60096 0.80180 0.11018
 H1418 H 0.55751 0.71821 0.12269
 H1419 H 0.52807 0.74022 0.13838
 H1420 H 0.56476 0.80269 0.12763
 C1421 C 0.35679 0.25786 0.06767
 C1422 C 0.37373 0.26873 0.07998
 C1423 C 0.37630 0.29281 0.07760
 C1424 C 0.36323 0.30505 0.06280
 C1425 C 0.34752 0.29379 0.04983
 C1426 C 0.34399 0.27023 0.05286
 C1427 C 0.39241 0.30455 0.08947
 C1428 C 0.40718 0.29280 0.10263
 C1429 C 0.40649 0.26865 0.10438
 C1430 C 0.38881 0.25651 0.09376
 C1431 C 0.38728 0.23252 0.09674
 C1432 C 0.40336 0.22056 0.10829
 C1433 C 0.42168 0.23191 0.11723
 C1434 C 0.42331 0.25618 0.11582
 C1435 C 0.44241 0.26681 0.12495
 C1436 C 0.45961 0.25381 0.13379
 C1437 C 0.45831 0.22985 0.13423
 C1438 C 0.43892 0.21901 0.12670
 H1439 H 0.35348 0.23971 0.06852
 H1440 H 0.36592 0.32335 0.06081
 H1441 H 0.33187 0.26109 0.04313
 H1442 H 0.39406 0.32303 0.08812
 H1443 H 0.41917 0.30327 0.11103
 H1444 H 0.37396 0.22232 0.09005
 H1445 H 0.40180 0.20207 0.10962
 H1446 H 0.44515 0.28507 0.12471
 H1447 H 0.47442 0.26249 0.13971
 H1448 H 0.43793 0.20043 0.12693
 C1449 C 0.64474 0.25483 0.92510
 C1450 C 0.63293 0.23601 0.93421
 C1451 C 0.63635 0.23113 0.95640
 C1452 C 0.65129 0.24445 0.96866
 C1453 C 0.66196 0.26355 0.95950
 C1454 C 0.65869 0.26857 0.93771
 C1455 C 0.62405 0.21372 0.96647
 C1456 C 0.60725 0.20212 0.95546
 C1457 C 0.60260 0.20701 0.93362
 C1458 C 0.61682 0.22289 0.92244
 C1459 C 0.61423 0.22535 0.89993
 C1460 C 0.59707 0.21424 0.88903
 C1461 C 0.58148 0.20080 0.90017
 C1462 C 0.58401 0.19686 0.92263
 C1463 C 0.56705 0.18410 0.93337
 C1464 C 0.54808 0.17644 0.92235
 C1465 C 0.54570 0.18061 0.90027
 C1466 C 0.56278 0.19216 0.88913
 H1467 H 0.64252 0.26024 0.90861
 H1468 H 0.65338 0.24098 0.98573
 H1469 H 0.66653 0.28357 0.93055
 H1470 H 0.62681 0.20965 0.98332
 H1471 H 0.59826 0.18916 0.96445
 H1472 H 0.62543 0.23565 0.89023
 H1473 H 0.59549 0.21695 0.87180
 H1474 H 0.56731 0.18091 0.95049
 H1475 H 0.53486 0.16779 0.93124
 H1476 H 0.56071 0.19581 0.87208
 C1477 C 0.35229 0.76137 0.94139
 C1478 C 0.36785 0.75211 0.92645
 C1479 C 0.36820 0.72793 0.92401
 C1480 C 0.35452 0.71382 0.93685
 C1481 C 0.34058 0.72318 0.95273
 C1482 C 0.33895 0.74706 0.95434
 C1483 C 0.38295 0.71776 0.90948
 C1484 C 0.39879 0.73082 0.89858
 C1485 C 0.40050 0.75472 0.90181
 C1486 C 0.38386 0.76576 0.91478
 C1487 C 0.38430 0.78994 0.91616
 C1488 C 0.40138 0.80275 0.90664
 C1489 C 0.41892 0.79201 0.89577
 C1490 C 0.41864 0.76785 0.89298
 C1491 C 0.43727 0.75767 0.88259
 C1492 C 0.45563 0.77084 0.87611
 C1493 C 0.45596 0.79455 0.87935
 C1494 C 0.43727 0.80519 0.88854
 H1495 H 0.35077 0.77952 0.94424
 H1496 H 0.35566 0.69533 0.93524
 H1497 H 0.32826 0.75473 0.96647
 H1498 H 0.38278 0.69934 0.90707
 H1499 H 0.40963 0.72158 0.88777
 H1500 H 0.37170 0.79953 0.92467
 H1501 H 0.40130 0.82123 0.90854
 H1502 H 0.43875 0.73946 0.88016
 H1503 H 0.46998 0.76236 0.86902
 H1504 H 0.43763 0.82357 0.89124
 C1505 C 0.70241 0.92913 0.37950
 C1506 C 0.72590 0.92834 0.38227
 C1507 C 0.73928 0.94283 0.36901
 C1508 C 0.72930 0.95750 0.35375
 C1509 C 0.70595 0.95860 0.35193
 C1510 C 0.69273 0.94407 0.36472
 C1511 C 0.76248 0.94314 0.37152
 C1512 C 0.77269 0.93016 0.38754
 C1513 C 0.76008 0.91600 0.40160
 C1514 C 0.73640 0.91439 0.39832
 C1515 C 0.72390 0.89915 0.41142
 C1516 C 0.73375 0.88718 0.42816
 C1517 C 0.75645 0.88971 0.43249
 C1518 C 0.77018 0.90368 0.41910
 C1519 C 0.79328 0.90515 0.42429
 C1520 C 0.80194 0.89394 0.44245
 C1521 C 0.78790 0.88106 0.45597
 C1522 C 0.76533 0.87859 0.45055
 H1523 H 0.69085 0.91905 0.38896
 H1524 H 0.73966 0.96885 0.34403
 H1525 H 0.67465 0.94450 0.36357
 H1526 H 0.77284 0.95400 0.36133
 H1527 H 0.79062 0.93172 0.38856
 H1528 H 0.70629 0.89604 0.40927
 H1529 H 0.72332 0.87610 0.43809
 H1530 H 0.80500 0.91523 0.41499
 H1531 H 0.81949 0.89597 0.44635
 H1532 H 0.75448 0.86823 0.46078
 C1533 C 0.24437 0.94198 0.63973
 C1534 C 0.25453 0.92781 0.62392
 C1535 C 0.27825 0.92714 0.62338
 C1536 C 0.29099 0.94116 0.63704
 C1537 C 0.28067 0.95593 0.65175
 C1538 C 0.25730 0.95576 0.65340
 C1539 C 0.28928 0.91292 0.60886
 C1540 C 0.27741 0.89983 0.59418
 C1541 C 0.25381 0.90066 0.59315
 C1542 C 0.24213 0.91475 0.60836
 C1543 C 0.21857 0.91597 0.60693
 C1544 C 0.20689 0.90465 0.59072
 C1545 C 0.21807 0.89137 0.57544
 C1546 C 0.24162 0.88861 0.57683
 C1547 C 0.25208 0.87436 0.56136
 C1548 C 0.23999 0.86485 0.54443
 C1549 C 0.21703 0.86881 0.54235
 C1550 C 0.20595 0.88141 0.55834
 H1551 H 0.22651 0.94306 0.64180
 H1552 H 0.30911 0.94087 0.63592
 H1553 H 0.24892 0.96692 0.66478
 H1554 H 0.30741 0.91216 0.60858
 H1555 H 0.28746 0.88971 0.58339
 H1556 H 0.20861 0.92615 0.61776
 H1557 H 0.18888 0.90665 0.58993
 H1558 H 0.26965 0.87040 0.56157
 H1559 H 0.24878 0.85464 0.53254
 H1560 H 0.18812 0.88436 0.55691
 C1561 C 0.30411 0.06907 0.39647
 C1562 C 0.28061 0.07186 0.39584
 C1563 C 0.26864 0.05982 0.37965
 C1564 C 0.27987 0.04509 0.36527
 C1565 C 0.30299 0.04171 0.36700
 C1566 C 0.31495 0.05419 0.38241
 C1567 C 0.24546 0.06200 0.37831
 C1568 C 0.23368 0.07506 0.39324
 C1569 C 0.24467 0.08657 0.41023
 C1570 C 0.26860 0.08547 0.41116
 C1571 C 0.27970 0.09748 0.42777
 C1572 C 0.26793 0.10885 0.44375
 C1573 C 0.24465 0.10904 0.44376
 C1574 C 0.23258 0.09856 0.42674
 C1575 C 0.20889 0.09997 0.42744
 C1576 C 0.19788 0.11018 0.44490
 C1577 C 0.21005 0.11924 0.46214
 C1578 C 0.23341 0.11920 0.46115
 H1579 H 0.31470 0.07761 0.40794
 H1580 H 0.27046 0.03553 0.35334
 H1581 H 0.33290 0.05220 0.38391
 H1582 H 0.23622 0.05307 0.36585
 H1583 H 0.21580 0.07543 0.39119
 H1584 H 0.29761 0.09818 0.42923
 H1585 H 0.27721 0.11725 0.45651
 H1586 H 0.19832 0.09294 0.41507
 H1587 H 0.17975 0.11018 0.44532
 H1588 H 0.24289 0.12665 0.47430
 C1589 C 0.70631 0.07505 0.61093
 C1590 C 0.72995 0.07558 0.60932
 C1591 C 0.74225 0.06152 0.62371
 C1592 C 0.73108 0.04743 0.63887
 C1593 C 0.70764 0.04642 0.63938
 C1594 C 0.69548 0.06059 0.62554
 C1595 C 0.76555 0.06094 0.62233
 C1596 C 0.77694 0.07308 0.60630
 C1597 C 0.76543 0.08666 0.59110
 C1598 C 0.74164 0.08873 0.59329
 C1599 C 0.73022 0.10353 0.57908
 C1600 C 0.74121 0.11444 0.56222
 C1601 C 0.76402 0.11126 0.55887
 C1602 C 0.77671 0.09787 0.57347
 C1603 C 0.80000 0.09574 0.56927
 C1604 C 0.80981 0.10564 0.55087
 C1605 C 0.79677 0.11785 0.53614
 C1606 C 0.77405 0.12109 0.54059
 H1607 H 0.69554 0.08484 0.60058
 H1608 H 0.74060 0.03631 0.64941
 H1609 H 0.67735 0.06017 0.62571
 H1610 H 0.77510 0.05043 0.63339
 H1611 H 0.79487 0.07131 0.60616
 H1612 H 0.71261 0.10707 0.58042
 H1613 H 0.73159 0.12514 0.55138
 H1614 H 0.81099 0.08605 0.57952
 H1615 H 0.82747 0.10305 0.54773
 H1616 H 0.76398 0.13093 0.52939
 C1617 C 0.94761 0.64406 0.24092
 C1618 C 0.93099 0.62838 0.24832
 C1619 C 0.92647 0.62784 0.27079
 C1620 C 0.93897 0.64129 0.28510
 C1621 C 0.95616 0.65566 0.27764
 C1622 C 0.95992 0.65749 0.25541
 C1623 C 0.90991 0.61340 0.27906
 C1624 C 0.89849 0.59835 0.26577
 C1625 C 0.90340 0.59687 0.24353
 C1626 C 0.91931 0.61270 0.23447
 C1627 C 0.92353 0.61174 0.21205
 C1628 C 0.91370 0.59503 0.19916
 C1629 C 0.89935 0.57855 0.20801
 C1630 C 0.89355 0.57952 0.23022
 C1631 C 0.87898 0.56230 0.23840
 C1632 C 0.87188 0.54418 0.22548
 C1633 C 0.87858 0.54274 0.20391
 C1634 C 0.89158 0.56043 0.19498
 H1635 H 0.95190 0.64599 0.22413
 H1636 H 0.93564 0.64013 0.30229
 H1637 H 0.97304 0.66862 0.24926
 H1638 H 0.90605 0.61336 0.29617
 H1639 H 0.88612 0.58778 0.27366
 H1640 H 0.93479 0.62341 0.20397
 H1641 H 0.91797 0.59457 0.18215
 H1642 H 0.87342 0.56168 0.25491
 H1643 H 0.86168 0.53070 0.23259
 H1644 H 0.89686 0.55927 0.17826
 C1645 C 0.93622 0.40931 0.69253
 C1646 C 0.92779 0.40437 0.71343
 C1647 C 0.93426 0.38336 0.72311
 C1648 C 0.94864 0.36819 0.71223
 C1649 C 0.95722 0.37370 0.69177
 C1650 C 0.95066 0.39427 0.68202
 C1651 C 0.92673 0.37777 0.74378
 C1652 C 0.91357 0.39292 0.75550
 C1653 C 0.90720 0.41436 0.74689
 C1654 C 0.91379 0.41982 0.72523
 C1655 C 0.90641 0.44070 0.71617
 C1656 C 0.89424 0.45635 0.72817
 C1657 C 0.88885 0.45193 0.74965
 C1658 C 0.89480 0.43074 0.75931
 C1659 C 0.88860 0.42724 0.78119
 C1660 C 0.87791 0.44443 0.79303
 C1661 C 0.87299 0.46560 0.78353
 C1662 C 0.87797 0.46895 0.76166
 H1663 H 0.93247 0.42489 0.68395
 H1664 H 0.95362 0.35233 0.71999
 H1665 H 0.95695 0.39899 0.66620
 H1666 H 0.93142 0.36163 0.75120
 H1667 H 0.90874 0.38727 0.77140
 H1668 H 0.90981 0.44563 0.69974
 H1669 H 0.88936 0.47236 0.72063
 H1670 H 0.89229 0.41170 0.78987
 H1671 H 0.87422 0.44145 0.80993
 H1672 H 0.87377 0.48514 0.75406
 C1673 C 0.05822 0.61073 0.71033
 C1674 C 0.06154 0.61198 0.73289
 C1675 C 0.04956 0.62892 0.74452
 C1676 C 0.03546 0.64441 0.73365
 C1677 C 0.03223 0.64258 0.71133
 C1678 C 0.04373 0.62566 0.69988
 C1679 C 0.05126 0.62987 0.76696
 C1680 C 0.06382 0.61377 0.77823
 C1681 C 0.07583 0.59642 0.76739
 C1682 C 0.07561 0.59637 0.74429
 C1683 C 0.08944 0.58067 0.73329
 C1684 C 0.10161 0.56430 0.74431
 C1685 C 0.10044 0.56278 0.76669
 C1686 C 0.08790 0.57894 0.77873
 C1687 C 0.08744 0.57631 0.80151
 C1688 C 0.09823 0.55786 0.81160
 C1689 C 0.10979 0.54160 0.79934
 C1690 C 0.11140 0.54467 0.77700
 H1691 H 0.06586 0.59784 0.70034
 H1692 H 0.02629 0.65725 0.74266
 H1693 H 0.04143 0.62385 0.68263
 H1694 H 0.04227 0.64283 0.77598
 H1695 H 0.06396 0.61550 0.79553
 H1696 H 0.09144 0.58071 0.71601
 H1697 H 0.11165 0.55230 0.73512
 H1698 H 0.07825 0.58769 0.81191
 H1699 H 0.09681 0.55582 0.82892
 H1700 H 0.12074 0.53238 0.76745
 C1701 C 0.07396 0.35206 0.24940
 C1702 C 0.08608 0.36949 0.26032
 C1703 C 0.08316 0.37106 0.28298
 C1704 C 0.06760 0.35702 0.29375
 C1705 C 0.05463 0.34106 0.28244
 C1706 C 0.05850 0.33811 0.26036
 C1707 C 0.09516 0.38722 0.29478
 C1708 C 0.10903 0.40296 0.28453
 C1709 C 0.11122 0.40345 0.26184
 C1710 C 0.10016 0.38597 0.24956
 C1711 C 0.10277 0.38622 0.22690
 C1712 C 0.11440 0.40375 0.21647
 C1713 C 0.12403 0.42168 0.22810
 C1714 C 0.12324 0.42144 0.25098
 C1715 C 0.13358 0.43991 0.26198
 C1716 C 0.14256 0.45855 0.25074
 C1717 C 0.14196 0.45936 0.22820
 C1718 C 0.13354 0.44041 0.21693
 H1719 H 0.07553 0.34914 0.23232
 H1720 H 0.06498 0.35911 0.31096
 H1721 H 0.04878 0.32574 0.25130
 H1722 H 0.09337 0.38811 0.31217
 H1723 H 0.11734 0.41497 0.29496
 H1724 H 0.09544 0.37341 0.21661
 H1725 H 0.11527 0.40363 0.19899
 H1726 H 0.13440 0.44100 0.27928
 H1727 H 0.14940 0.47284 0.25976
 H1728 H 0.13305 0.44093 0.19945
   
