data_POSCAR
  _audit_creation_date              2014-09-24
  _audit_creation_method            'ToBaCCo'
  _symmetry_space_group_name_H-M    'P1'
  _symmetry_Int_Tables_number       1
  _symmetry_cell_setting            triclinic
  loop_
  _symmetry_equiv_pos_as_xyz
 x,y,z
_cell_length_a 74.7769
_cell_length_b 74.6287
_cell_length_c 74.6811
_cell_angle_alpha 89.957400
_cell_angle_beta 90.028600
_cell_angle_gamma 90.000700
loop_
  _atom_site_label
  _atom_site_type_symbol
  _atom_site_fract_x
  _atom_site_fract_y
  _atom_site_fract_z
C1 C 0.20565 0.19710 0.22314
 C2 C 0.19115 0.20004 0.23468
 C3 C 0.17946 0.21454 0.23189
 C4 C 0.18243 0.22614 0.21733
 C5 C 0.19685 0.22334 0.20566
 C6 C 0.20852 0.20878 0.20856
 C7 C 0.21732 0.18265 0.22595
 C8 C 0.23183 0.17966 0.21435
 C9 C 0.23459 0.19137 0.19984
 C10 C 0.22306 0.20589 0.19689
 C11 C 0.22583 0.21757 0.18243
 C12 C 0.21424 0.23211 0.17943
 C13 C 0.19977 0.23489 0.19113
 H14 H 0.18911 0.19117 0.24600
 H15 H 0.17334 0.23720 0.21494
 H16 H 0.21495 0.17356 0.23702
 H17 H 0.24588 0.18931 0.19098
 H18 H 0.23688 0.21519 0.17334
 H19 H 0.19091 0.24620 0.18905
 C20 C 0.70563 0.69680 0.72322
 C21 C 0.69118 0.69976 0.73481
 C22 C 0.67950 0.71429 0.73206
 C23 C 0.68245 0.72589 0.71751
 C24 C 0.69685 0.72309 0.70581
 C25 C 0.70851 0.70851 0.70867
 C26 C 0.71729 0.68233 0.72600
 C27 C 0.73180 0.67937 0.71440
 C28 C 0.73457 0.69110 0.69992
 C29 C 0.72304 0.70564 0.69699
 C30 C 0.72578 0.71731 0.68252
 C31 C 0.71420 0.73186 0.67954
 C32 C 0.69975 0.73465 0.69127
 H33 H 0.68914 0.69089 0.74612
 H34 H 0.67338 0.73697 0.71515
 H35 H 0.71519 0.67349 0.73733
 H36 H 0.74558 0.68878 0.69077
 H37 H 0.73681 0.71493 0.67341
 H38 H 0.69090 0.74597 0.68922
 C39 C 0.29455 0.80315 0.72298
 C40 C 0.30905 0.80020 0.73456
 C41 C 0.32072 0.78567 0.73184
 C42 C 0.31771 0.77403 0.71736
 C43 C 0.30324 0.77678 0.70572
 C44 C 0.29161 0.79139 0.70855
 C45 C 0.28291 0.81763 0.72575
 C46 C 0.26817 0.82073 0.71427
 C47 C 0.26548 0.80875 0.69984
 C48 C 0.27704 0.79423 0.69693
 C49 C 0.27426 0.78253 0.68249
 C50 C 0.28581 0.76796 0.67953
 C51 C 0.30028 0.76518 0.69125
 H52 H 0.31115 0.80910 0.74583
 H53 H 0.32677 0.76294 0.71501
 H54 H 0.28510 0.82597 0.73739
 H55 H 0.25485 0.81098 0.69026
 H56 H 0.26293 0.78462 0.67367
 H57 H 0.30938 0.75412 0.68895
 C58 C 0.79404 0.30292 0.22360
 C59 C 0.80860 0.30004 0.23511
 C60 C 0.82043 0.28546 0.23255
 C61 C 0.81712 0.27379 0.21799
 C62 C 0.80260 0.27652 0.20641
 C63 C 0.79102 0.29113 0.20920
 C64 C 0.78237 0.31738 0.22638
 C65 C 0.76774 0.32028 0.21489
 C66 C 0.76486 0.30847 0.20051
 C67 C 0.77640 0.29395 0.19758
 C68 C 0.77354 0.28221 0.18321
 C69 C 0.78508 0.26764 0.18027
 C70 C 0.79959 0.26490 0.19195
 H71 H 0.81012 0.30890 0.24647
 H72 H 0.82620 0.26290 0.21504
 H73 H 0.78456 0.32629 0.23763
 H74 H 0.75377 0.31074 0.19143
 H75 H 0.76217 0.28428 0.17443
 H76 H 0.80868 0.25383 0.18964
 C77 C 0.79441 0.69708 0.27667
 C78 C 0.80889 0.70000 0.26510
 C79 C 0.82076 0.71455 0.26767
 C80 C 0.81757 0.72614 0.28231
 C81 C 0.80312 0.72337 0.29396
 C82 C 0.79149 0.70880 0.29115
 C83 C 0.78270 0.68265 0.27388
 C84 C 0.76813 0.67972 0.28543
 C85 C 0.76537 0.69145 0.29989
 C86 C 0.77694 0.70594 0.30283
 C87 C 0.77419 0.71761 0.31728
 C88 C 0.78577 0.73215 0.32023
 C89 C 0.80021 0.73492 0.30849
 H90 H 0.81032 0.69120 0.25368
 H91 H 0.82668 0.73700 0.28528
 H92 H 0.78479 0.67380 0.26257
 H93 H 0.75433 0.68915 0.30901
 H94 H 0.76287 0.71551 0.32611
 H95 H 0.80933 0.74597 0.31081
 C96 C 0.29472 0.19723 -0.22325
 C97 C 0.30927 0.20012 -0.23474
 C98 C 0.32113 0.21467 -0.23214
 C99 C 0.31787 0.22629 -0.21753
 C100 C 0.30337 0.22353 -0.20593
 C101 C 0.29176 0.20894 -0.20877
 C102 C 0.28303 0.18280 -0.22608
 C103 C 0.26844 0.17985 -0.21456
 C104 C 0.26563 0.19157 -0.20010
 C105 C 0.27718 0.20607 -0.19713
 C106 C 0.27435 0.21777 -0.18272
 C107 C 0.28590 0.23233 -0.17975
 C108 C 0.30039 0.23509 -0.19143
 H109 H 0.31075 0.19132 -0.24615
 H110 H 0.32696 0.23716 -0.21454
 H111 H 0.28543 0.17368 -0.23711
 H112 H 0.25430 0.18953 -0.19129
 H113 H 0.26300 0.21567 -0.17394
 H114 H 0.30950 0.24615 -0.18909
 C115 C 0.70611 0.30212 -0.22310
 C116 C 0.69160 0.29924 -0.23466
 C117 C 0.67967 0.28475 -0.23204
 C118 C 0.68282 0.27318 -0.21735
 C119 C 0.69729 0.27592 -0.20570
 C120 C 0.70900 0.29042 -0.20858
 C121 C 0.71775 0.31663 -0.22582
 C122 C 0.73230 0.31955 -0.21426
 C123 C 0.73513 0.30775 -0.19984
 C124 C 0.72360 0.29322 -0.19694
 C125 C 0.72639 0.28149 -0.18253
 C126 C 0.71481 0.26695 -0.17958
 C127 C 0.70029 0.26426 -0.19125
 H128 H 0.68933 0.30888 -0.24525
 H129 H 0.67453 0.26150 -0.21521
 H130 H 0.71562 0.32551 -0.23711
 H131 H 0.74619 0.31003 -0.19073
 H132 H 0.73748 0.28382 -0.17346
 H133 H 0.69143 0.25295 -0.18921
 C134 C 0.20555 0.80300 0.27676
 C135 C 0.19106 0.80005 0.26518
 C136 C 0.17937 0.78555 0.26793
 C137 C 0.18233 0.77394 0.28246
 C138 C 0.19677 0.77670 0.29413
 C139 C 0.20846 0.79126 0.29124
 C140 C 0.21722 0.81745 0.27395
 C141 C 0.23196 0.82055 0.28544
 C142 C 0.23461 0.80858 0.29991
 C143 C 0.22304 0.79408 0.30284
 C144 C 0.22578 0.78240 0.31733
 C145 C 0.21417 0.76788 0.32034
 C146 C 0.19969 0.76513 0.30865
 H147 H 0.18900 0.80893 0.25387
 H148 H 0.17324 0.76287 0.28484
 H149 H 0.21506 0.82577 0.26228
 H150 H 0.24523 0.81081 0.30950
 H151 H 0.23684 0.78475 0.32642
 H152 H 0.19081 0.75384 0.31071
 C153 C 0.44703 0.45575 0.47334
 C154 C 0.45000 0.44125 0.48492
 C155 C 0.46452 0.42958 0.48219
 C156 C 0.47611 0.43259 0.46766
 C157 C 0.47330 0.44703 0.45597
 C158 C 0.45872 0.45868 0.45881
 C159 C 0.43257 0.46740 0.47609
 C160 C 0.42959 0.48196 0.46450
 C161 C 0.44131 0.48479 0.45004
 C162 C 0.45584 0.47327 0.44714
 C163 C 0.46749 0.47606 0.43269
 C164 C 0.48204 0.46448 0.42973
 C165 C 0.48483 0.44999 0.44146
 H166 H 0.44114 0.43917 0.49621
 H167 H 0.48718 0.42352 0.46531
 H168 H 0.42374 0.46526 0.48740
 H169 H 0.43898 0.49584 0.44090
 H170 H 0.46510 0.48713 0.42359
 H171 H 0.49615 0.44115 0.43942
 C172 C -0.05188 -0.04367 0.97310
 C173 C -0.04901 -0.05823 0.98466
 C174 C -0.03465 -0.07007 0.98186
 C175 C -0.02308 -0.06717 0.96731
 C176 C -0.02576 -0.05267 0.95566
 C177 C -0.04018 -0.04084 0.95860
 C178 C -0.06623 -0.03191 0.97590
 C179 C -0.06926 -0.01712 0.96442
 C180 C -0.05731 -0.01451 0.94996
 C181 C -0.04291 -0.02619 0.94702
 C182 C -0.03126 -0.02349 0.93253
 C183 C -0.01685 -0.03522 0.92950
 C184 C -0.01420 -0.04977 0.94117
 H185 H -0.05814 -0.06051 0.99570
 H186 H -0.01185 -0.07610 0.96517
 H187 H -0.07454 -0.03404 0.98757
 H188 H -0.05948 -0.00383 0.94039
 H189 H -0.03354 -0.01238 0.92346
 H190 H -0.00299 -0.05874 0.93908
 C191 C 1.05286 0.54432 0.97312
 C192 C 1.04991 0.55880 0.98473
 C193 C 1.03532 0.57063 0.98223
 C194 C 1.02372 0.56740 0.96761
 C195 C 1.02653 0.55296 0.95594
 C196 C 1.04112 0.54134 0.95873
 C197 C 1.06734 0.53266 0.97589
 C198 C 1.07046 0.51791 0.96440
 C199 C 1.05849 0.51523 0.94998
 C200 C 1.04396 0.52676 0.94711
 C201 C 1.03228 0.52398 0.93266
 C202 C 1.01773 0.53555 0.92971
 C203 C 1.01496 0.55001 0.94143
 H204 H 1.05872 0.56028 0.99614
 H205 H 1.01283 0.57649 0.96468
 H206 H 1.07568 0.53483 0.98753
 H207 H 1.06073 0.50461 0.94038
 H208 H 1.03464 0.51292 0.92356
 H209 H 1.00363 0.55885 0.93940
 C210 C 0.55301 0.04409 0.47320
 C211 C 0.55008 0.05859 0.48480
 C212 C 0.53556 0.07027 0.48211
 C213 C 0.52391 0.06729 0.46763
 C214 C 0.52666 0.05284 0.45595
 C215 C 0.54124 0.04116 0.45877
 C216 C 0.56748 0.03244 0.47595
 C217 C 0.57057 0.01770 0.46444
 C218 C 0.55857 0.01502 0.45003
 C219 C 0.54404 0.02658 0.44716
 C220 C 0.53234 0.02381 0.43273
 C221 C 0.51780 0.03541 0.42978
 C222 C 0.51507 0.04989 0.44149
 H223 H 0.55898 0.06067 0.49606
 H224 H 0.51283 0.07636 0.46531
 H225 H 0.57583 0.03462 0.48758
 H226 H 0.56078 0.00439 0.44044
 H227 H 0.53467 0.01274 0.42363
 H228 H 0.50376 0.05876 0.43947
 C229 C -0.05323 0.04429 0.52681
 C230 C -0.05030 0.05879 0.51522
 C231 C -0.03579 0.07048 0.51793
 C232 C -0.02417 0.06749 0.53243
 C233 C -0.02692 0.05305 0.54414
 C234 C -0.04149 0.04137 0.54131
 C235 C -0.06767 0.03262 0.52408
 C236 C -0.07060 0.01805 0.53567
 C237 C -0.05884 0.01524 0.55011
 C238 C -0.04432 0.02678 0.55299
 C239 C -0.03262 0.02400 0.56742
 C240 C -0.01808 0.03560 0.57035
 C241 C -0.01534 0.05010 0.55862
 H242 H -0.05919 0.06086 0.50394
 H243 H -0.01309 0.07657 0.53477
 H244 H -0.07653 0.03475 0.51278
 H245 H -0.06113 0.00419 0.55925
 H246 H -0.03496 0.01293 0.57652
 H247 H -0.00403 0.05896 0.56063
 C248 C 0.44704 0.54430 0.02670
 C249 C 0.44998 0.55881 0.01512
 C250 C 0.46444 0.57076 0.01778
 C251 C 0.47591 0.56763 0.03254
 C252 C 0.47309 0.55317 0.04422
 C253 C 0.45862 0.54146 0.04131
 C254 C 0.43257 0.53265 0.02395
 C255 C 0.42954 0.51812 0.03557
 C256 C 0.44121 0.51534 0.05007
 C257 C 0.45572 0.52689 0.05301
 C258 C 0.46736 0.52410 0.06747
 C259 C 0.48189 0.53569 0.07045
 C260 C 0.48465 0.55020 0.05874
 H261 H 0.44042 0.56106 0.00448
 H262 H 0.48756 0.57594 0.03471
 H263 H 0.42350 0.53501 0.01286
 H264 H 0.43914 0.50404 0.05896
 H265 H 0.46498 0.51303 0.07657
 H266 H 0.49594 0.55906 0.06081
 C267 C 0.55195 -0.04317 0.02632
 C268 C 0.54908 -0.05773 0.01481
 C269 C 0.53473 -0.06957 0.01767
 C270 C 0.52319 -0.06667 0.03225
 C271 C 0.52589 -0.05217 0.04388
 C272 C 0.54030 -0.04034 0.04090
 C273 C 0.56626 -0.03136 0.02345
 C274 C 0.56915 -0.01676 0.03498
 C275 C 0.55747 -0.01403 0.04949
 C276 C 0.54309 -0.02571 0.05251
 C277 C 0.53149 -0.02303 0.06702
 C278 C 0.51711 -0.03477 0.07011
 C279 C 0.51441 -0.04932 0.05844
 H280 H 0.55790 -0.05973 0.00347
 H281 H 0.51223 -0.07587 0.03470
 H282 H 0.57505 -0.03343 0.01210
 H283 H 0.55974 -0.00295 0.05858
 H284 H 0.53381 -0.01192 0.07608
 H285 H 0.50321 -0.05830 0.06058
 C286 C 1.05268 0.45571 0.52683
 C287 C 1.04976 0.44122 0.51523
 C288 C 1.03530 0.42926 0.51786
 C289 C 1.02382 0.43235 0.53260
 C290 C 1.02663 0.44678 0.54430
 C291 C 1.04110 0.45851 0.54142
 C292 C 1.06715 0.46737 0.52410
 C293 C 1.07016 0.48187 0.53574
 C294 C 1.05848 0.48461 0.55023
 C295 C 1.04398 0.47305 0.55314
 C296 C 1.03233 0.47580 0.56758
 C297 C 1.01781 0.46420 0.57052
 C298 C 1.01506 0.44972 0.55880
 H299 H 1.05933 0.43900 0.50460
 H300 H 1.01217 0.42403 0.53475
 H301 H 1.07622 0.46504 0.51303
 H302 H 1.06055 0.49590 0.55913
 H303 H 1.03470 0.48686 0.57669
 H304 H 1.00377 0.44084 0.56084
 C305 C 0.40204 0.00828 0.22618
 H306 H 0.40278 0.02039 0.23410
 C307 C 0.41370 0.00583 0.21180
 H308 H 0.42349 0.01609 0.20880
 C309 C 0.38872 -0.02004 0.22092
 H310 H 0.37913 -0.03019 0.22464
 C311 C 0.40014 -0.02306 0.20645
 H312 H 0.39893 -0.03541 0.19894
 N313 N 0.38973 -0.00446 0.23032
 C314 C 0.34732 0.02399 0.25857
 H315 H 0.34656 0.01608 0.27070
 C316 C 0.33566 0.03837 0.25603
 H317 H 0.32585 0.04140 0.26625
 C318 C 0.36068 0.02918 0.23028
 H319 H 0.37029 0.02543 0.22016
 C320 C 0.34926 0.04366 0.22717
 H321 H 0.35048 0.05113 0.21480
 Zn322 Zn 0.37467 -0.00015 0.25024
 N323 N 0.35965 0.01980 0.24587
 C324 C 0.38865 0.01977 0.27957
 N325 N 0.38967 0.00417 0.27022
 C326 C 0.40197 -0.00857 0.27443
 C327 C 0.41363 -0.00606 0.28882
 C328 C 0.40007 0.02285 0.29405
 C329 C 0.34734 -0.02427 0.24179
 C330 C 0.33566 -0.03865 0.24426
 C331 C 0.34922 -0.04402 0.27314
 C332 C 0.36064 -0.02953 0.27011
 N333 N 0.35965 -0.02012 0.25454
 H334 H 0.37907 0.02992 0.27580
 H335 H 0.40272 -0.02070 0.26654
 H336 H 0.42341 -0.01631 0.29186
 H337 H 0.39887 0.03523 0.30150
 H338 H 0.34667 -0.01640 0.22963
 H339 H 0.32618 -0.04193 0.23381
 H340 H 0.35010 -0.05124 0.28569
 H341 H 0.37016 -0.02574 0.28030
 C342 C 0.33656 0.04846 0.24017
 C343 C 0.41281 -0.01001 0.20168
 C344 C 0.33654 -0.04878 0.26010
 C345 C 0.41274 0.00982 0.29887
 C346 C 0.09825 -0.00835 0.72540
 H347 H 0.09756 -0.02050 0.73330
 C348 C 0.08654 -0.00585 0.71106
 H349 H 0.07676 -0.01612 0.70805
 C350 C 0.11149 0.02002 0.72021
 H351 H 0.12106 0.03018 0.72394
 C352 C 0.10001 0.02309 0.70577
 H353 H 0.10116 0.03548 0.69831
 N354 N 0.11054 0.00441 0.72957
 C355 C 0.15300 -0.02400 0.75786
 H356 H 0.15370 -0.01614 0.77001
 C357 C 0.16469 -0.03837 0.75536
 H358 H 0.17420 -0.04165 0.76579
 C359 C 0.13962 -0.02924 0.72958
 H360 H 0.13008 -0.02545 0.71941
 C361 C 0.15105 -0.04372 0.72652
 H362 H 0.15013 -0.05093 0.71398
 Zn363 Zn 0.12561 0.00008 0.74949
 N364 N 0.14066 -0.01985 0.74515
 C365 C 0.11167 -0.01989 0.77882
 N366 N 0.11063 -0.00429 0.76945
 C367 C 0.09832 0.00844 0.77365
 C368 C 0.08669 0.00592 0.78805
 C369 C 0.10029 -0.02297 0.79332
 C370 C 0.15289 0.02429 0.74107
 C371 C 0.16455 0.03868 0.74358
 C372 C 0.15100 0.04392 0.77247
 C373 C 0.13961 0.02941 0.76941
 N374 N 0.14060 0.02006 0.75381
 H375 H 0.12126 -0.03002 0.77506
 H376 H 0.09754 0.02057 0.76575
 H377 H 0.07690 0.01617 0.79110
 H378 H 0.10152 -0.03535 0.80080
 H379 H 0.15356 0.01647 0.72890
 H380 H 0.17401 0.04202 0.73313
 H381 H 0.15013 0.05108 0.78504
 H382 H 0.13012 0.02556 0.77960
 C383 C 0.16377 -0.04848 0.73953
 C384 C 0.08735 0.01003 0.70099
 C385 C 0.16366 0.04875 0.75944
 C386 C 0.08762 -0.00994 0.79814
 C387 C 0.59757 0.49174 0.22599
 H388 H 0.59683 0.47961 0.23390
 C389 C 0.58590 0.49424 0.21162
 H390 H 0.57610 0.48399 0.20860
 C391 C 0.61088 0.52008 0.22079
 H392 H 0.62047 0.53022 0.22453
 C393 C 0.59945 0.52315 0.20632
 H394 H 0.60065 0.53553 0.19884
 N395 N 0.60988 0.50448 0.23017
 C396 C 0.65226 0.47602 0.25853
 H397 H 0.65296 0.48389 0.27068
 C398 C 0.66394 0.46164 0.25605
 H399 H 0.67344 0.45836 0.26649
 C400 C 0.63890 0.47078 0.23024
 H401 H 0.62936 0.47457 0.22006
 C402 C 0.65031 0.45628 0.22721
 H403 H 0.64940 0.44906 0.21467
 Zn404 Zn 0.62492 0.50015 0.25011
 N405 N 0.63993 0.48018 0.24580
 C406 C 0.61091 0.48021 0.27943
 N407 N 0.60991 0.49582 0.27006
 C408 C 0.59761 0.50856 0.27425
 C409 C 0.58595 0.50605 0.28863
 C410 C 0.59949 0.47713 0.29390
 C411 C 0.65227 0.52424 0.24169
 C412 C 0.66397 0.53861 0.24417
 C413 C 0.65039 0.54398 0.27301
 C414 C 0.63895 0.52950 0.26998
 N415 N 0.63995 0.52010 0.25442
 H416 H 0.62048 0.47006 0.27568
 H417 H 0.59687 0.52070 0.26635
 H418 H 0.57617 0.51631 0.29165
 H419 H 0.60068 0.46475 0.30136
 H420 H 0.65294 0.51638 0.22954
 H421 H 0.67346 0.54188 0.23372
 H422 H 0.64951 0.55120 0.28556
 H423 H 0.62943 0.52571 0.28016
 C424 C 0.66302 0.45152 0.24023
 C425 C 0.58677 0.51011 0.20153
 C426 C 0.66309 0.54873 0.25999
 C427 C 0.58682 0.49017 0.29869
 C428 C 0.90213 0.50806 0.72591
 H429 H 0.90285 0.52021 0.73377
 C430 C 0.91380 0.50555 0.71154
 H431 H 0.92356 0.51582 0.70849
 C432 C 0.88888 0.47968 0.72080
 H433 H 0.87931 0.46952 0.72458
 C434 C 0.90030 0.47661 0.70634
 H435 H 0.89912 0.46421 0.69891
 N436 N 0.88985 0.49530 0.73013
 C437 C 0.84743 0.52373 0.75838
 H438 H 0.84676 0.51589 0.77056
 C439 C 0.83573 0.53809 0.75585
 H440 H 0.82624 0.54138 0.76628
 C441 C 0.86076 0.52894 0.73008
 H442 H 0.87029 0.52514 0.71991
 C443 C 0.84933 0.54341 0.72699
 H444 H 0.85022 0.55060 0.71443
 Zn445 Zn 0.87482 0.49965 0.75006
 N446 N 0.85976 0.51957 0.74567
 C447 C 0.88881 0.51967 0.77932
 N448 N 0.88984 0.50405 0.77000
 C449 C 0.90218 0.49134 0.77422
 C450 C 0.91383 0.49389 0.78860
 C451 C 0.90023 0.52278 0.79379
 C452 C 0.84752 0.47545 0.74173
 C453 C 0.83588 0.46104 0.74426
 C454 C 0.84951 0.45578 0.77313
 C455 C 0.86089 0.47030 0.77004
 N456 N 0.85984 0.47966 0.75444
 H457 H 0.87921 0.52979 0.77554
 H458 H 0.90294 0.47919 0.76636
 H459 H 0.92364 0.48366 0.79166
 H460 H 0.89901 0.53517 0.80122
 H461 H 0.84682 0.48328 0.72955
 H462 H 0.82639 0.45771 0.73383
 H463 H 0.85044 0.44860 0.78569
 H464 H 0.87041 0.47414 0.78021
 C465 C 0.83662 0.54818 0.73999
 C466 C 0.91295 0.48966 0.70151
 C467 C 0.83682 0.45096 0.76012
 C468 C 0.91292 0.50978 0.79863
 C469 C 0.22566 0.40277 0.00811
 H470 H 0.23353 0.40351 0.02025
 C471 C 0.21129 0.41444 0.00559
 H472 H 0.20824 0.42423 0.01584
 C473 C 0.22054 0.38946 -0.02022
 H474 H 0.22431 0.37987 -0.03036
 C475 C 0.20608 0.40089 -0.02331
 H476 H 0.19864 0.39969 -0.03569
 N477 N 0.22987 0.39046 -0.00461
 C478 C 0.25812 0.34797 0.02387
 H479 H 0.27024 0.34724 0.01600
 C480 C 0.25560 0.33626 0.03824
 H481 H 0.26583 0.32645 0.04127
 C482 C 0.22984 0.36130 0.02901
 H483 H 0.21972 0.37092 0.02525
 C484 C 0.22675 0.34984 0.04347
 H485 H 0.21439 0.35103 0.05092
 Zn486 Zn 0.24979 0.37540 -0.00024
 N487 N 0.24542 0.36031 0.01968
 C488 C 0.27902 0.38941 0.01978
 N489 N 0.26969 0.39045 0.00417
 C490 C 0.27390 0.40281 -0.00854
 C491 C 0.28827 0.41447 -0.00599
 C492 C 0.29348 0.40083 0.02289
 C493 C 0.24149 0.34804 -0.02440
 C494 C 0.24404 0.33636 -0.03877
 C495 C 0.27285 0.35002 -0.04400
 C496 C 0.26975 0.36143 -0.02952
 N497 N 0.25417 0.36039 -0.02019
 H498 H 0.27525 0.37979 0.02990
 H499 H 0.26604 0.40358 -0.02068
 H500 H 0.29133 0.42429 -0.01622
 H501 H 0.30092 0.39960 0.03527
 H502 H 0.22932 0.34733 -0.01659
 H503 H 0.23363 0.32684 -0.04210
 H504 H 0.28541 0.35095 -0.05116
 H505 H 0.27990 0.37098 -0.02568
 C506 C 0.23976 0.33713 0.04828
 C507 C 0.20125 0.41357 -0.01028
 C508 C 0.25988 0.33730 -0.04882
 C509 C 0.29831 0.41355 0.00988
 C510 C 0.73110 0.09196 -0.00111
 H511 H 0.74306 0.08679 -0.00737
 C512 C 0.71644 0.08064 0.00135
 H513 H 0.71746 0.06674 -0.00269
 C514 C 0.71521 0.11627 0.01160
 H515 H 0.71468 0.13018 0.01542
 C516 C 0.70024 0.10541 0.01432
 H517 H 0.68831 0.11119 0.02015
 N518 N 0.73033 0.10939 0.00415
 C519 C 0.75828 0.15286 -0.02268
 H520 H 0.76960 0.15475 -0.01385
 C521 C 0.75568 0.16440 -0.03717
 H522 H 0.76501 0.17529 -0.03931
 C523 C 0.73213 0.13658 -0.03024
 H524 H 0.72303 0.12566 -0.02749
 C525 C 0.72901 0.14782 -0.04487
 H526 H 0.71755 0.14534 -0.05338
 Zn527 Zn 0.75064 0.12428 0.00045
 N528 N 0.74660 0.13925 -0.01955
 C529 C 0.78062 0.11133 -0.01903
 N530 N 0.77095 0.10955 -0.00370
 C531 C 0.77520 0.09688 0.00870
 C532 C 0.78982 0.08556 0.00606
 C533 C 0.79534 0.10027 -0.02222
 C534 C 0.74317 0.15330 0.02310
 C535 C 0.74550 0.16500 0.03749
 C536 C 0.77143 0.14793 0.04645
 C537 C 0.76862 0.13657 0.03186
 N538 N 0.75450 0.13926 0.02066
 H539 H 0.77692 0.12128 -0.02886
 H540 H 0.76709 0.09548 0.02062
 H541 H 0.79282 0.07543 0.01600
 H542 H 0.80300 0.10206 -0.03439
 H543 H 0.73243 0.15560 0.01368
 H544 H 0.73616 0.17594 0.03930
 H545 H 0.78282 0.14564 0.05510
 H546 H 0.77786 0.12574 0.02949
 C547 C 0.74087 0.16196 -0.04849
 C548 C 0.70075 0.08731 0.00922
 C549 C 0.75975 0.16235 0.04945
 C550 C 0.80012 0.08718 -0.00957
 C551 C 0.22574 0.59733 0.49178
 H552 H 0.23359 0.59658 0.47964
 C553 C 0.21137 0.58565 0.49432
 H554 H 0.20831 0.57586 0.48408
 C555 C 0.22064 0.61067 0.52011
 H556 H 0.22442 0.62027 0.53023
 C557 C 0.20618 0.59924 0.52321
 H558 H 0.19875 0.60045 0.53559
 N559 N 0.22996 0.60966 0.50450
 C560 C 0.25817 0.65211 0.47595
 H561 H 0.27030 0.65285 0.48382
 C562 C 0.25563 0.66380 0.46157
 H563 H 0.26586 0.67360 0.45852
 C564 C 0.22987 0.63876 0.47083
 H565 H 0.21976 0.62916 0.47461
 C566 C 0.22677 0.65021 0.45636
 H567 H 0.21440 0.64901 0.44892
 Zn568 Zn 0.24986 0.62471 0.50010
 N569 N 0.24547 0.63977 0.48016
 C570 C 0.27909 0.61070 0.48012
 N571 N 0.26977 0.60967 0.49573
 C572 C 0.27399 0.59733 0.50845
 C573 C 0.28836 0.58566 0.50591
 C574 C 0.29357 0.59930 0.47704
 C575 C 0.24155 0.65211 0.52422
 C576 C 0.24409 0.66381 0.53857
 C577 C 0.27292 0.65018 0.54384
 C578 C 0.26983 0.63874 0.52937
 N579 N 0.25424 0.63976 0.52003
 H580 H 0.27524 0.62024 0.46995
 H581 H 0.26620 0.59663 0.52063
 H582 H 0.29170 0.57615 0.51635
 H583 H 0.30072 0.60021 0.46447
 H584 H 0.22938 0.65279 0.51640
 H585 H 0.23367 0.67332 0.54188
 H586 H 0.28548 0.64928 0.55101
 H587 H 0.27998 0.62920 0.52555
 C588 C 0.23977 0.66291 0.45153
 C589 C 0.20134 0.58655 0.51019
 C590 C 0.25994 0.66290 0.54864
 C591 C 0.29840 0.58659 0.49005
 C592 C 0.72569 0.90249 0.50819
 H593 H 0.73349 0.90316 0.52038
 C594 C 0.71133 0.91417 0.50565
 H595 H 0.70800 0.92365 0.51610
 C596 C 0.72059 0.88917 0.47985
 H597 H 0.72443 0.87965 0.46968
 C598 C 0.70612 0.90060 0.47676
 H599 H 0.69897 0.89971 0.46418
 N600 N 0.72991 0.89017 0.49547
 C601 C 0.75813 0.84768 0.52399
 H602 H 0.77026 0.84696 0.51614
 C603 C 0.75559 0.83598 0.53835
 H604 H 0.76581 0.82617 0.54141
 C605 C 0.72982 0.86101 0.52908
 H606 H 0.71971 0.87062 0.52530
 C607 C 0.72672 0.84954 0.54353
 H608 H 0.71434 0.85073 0.55096
 Zn609 Zn 0.74982 0.87512 0.49986
 N610 N 0.74542 0.86002 0.51977
 C611 C 0.77902 0.88913 0.51992
 N612 N 0.76972 0.89016 0.50429
 C613 C 0.77395 0.90251 0.49159
 C614 C 0.78831 0.91418 0.49415
 C615 C 0.79347 0.90056 0.52305
 C616 C 0.74153 0.84777 0.47567
 C617 C 0.74409 0.83609 0.46130
 C618 C 0.77293 0.84973 0.45613
 C619 C 0.76982 0.86114 0.47061
 N620 N 0.75422 0.86010 0.47992
 H621 H 0.77523 0.87951 0.53004
 H622 H 0.76610 0.90327 0.47943
 H623 H 0.79138 0.92399 0.48392
 H624 H 0.80089 0.89933 0.53544
 H625 H 0.72935 0.84707 0.48346
 H626 H 0.73368 0.82659 0.45795
 H627 H 0.78550 0.85064 0.44899
 H628 H 0.77997 0.87067 0.47447
 C629 C 0.73972 0.83684 0.54837
 C630 C 0.70129 0.91328 0.48978
 C631 C 0.75995 0.83702 0.45128
 C632 C 0.79832 0.91326 0.51004
 C633 C 0.00830 0.22609 0.40216
 H634 H 0.02046 0.23392 0.40286
 C635 C 0.00576 0.21170 0.41385
 H636 H 0.01617 0.20838 0.42336
 C637 C -0.01997 0.22093 0.38877
 H638 H -0.03012 0.22477 0.37921
 C639 C -0.02306 0.20644 0.40019
 H640 H -0.03561 0.19926 0.39927
 N641 N -0.00439 0.23029 0.38980
 C642 C 0.02412 0.25864 0.34744
 H643 H 0.01626 0.27079 0.34669
 C644 C 0.03849 0.25611 0.33578
 H645 H 0.04154 0.26637 0.32598
 C646 C 0.02922 0.23028 0.36077
 H647 H 0.02545 0.22013 0.37036
 C648 C 0.04368 0.22718 0.34935
 H649 H 0.05111 0.21479 0.35056
 Zn650 Zn -0.00002 0.25026 0.37477
 N651 N 0.01991 0.24590 0.35976
 C652 C 0.01990 0.27956 0.38885
 N653 N 0.00433 0.27019 0.38983
 C654 C -0.00839 0.27436 0.40215
 C655 C -0.00589 0.28872 0.41385
 C656 C 0.02297 0.29401 0.40031
 C657 C -0.02411 0.24191 0.34738
 C658 C -0.03849 0.24442 0.33572
 C659 C -0.04374 0.27332 0.34930
 C660 C -0.02927 0.27024 0.36072
 N661 N -0.01992 0.25464 0.35971
 H662 H 0.03003 0.27582 0.37925
 H663 H -0.02050 0.26646 0.40287
 H664 H -0.01612 0.29173 0.42364
 H665 H 0.03533 0.30148 0.39912
 H666 H -0.01623 0.22977 0.34664
 H667 H -0.04152 0.23418 0.32592
 H668 H -0.05120 0.28569 0.35051
 H669 H -0.02552 0.28037 0.37032
 C670 C 0.04851 0.24022 0.33667
 C671 C -0.01008 0.20163 0.41292
 C672 C -0.04855 0.26029 0.33661
 C673 C 0.00995 0.29880 0.41299
 C674 C -0.00858 0.72565 0.09766
 H675 H -0.02069 0.73354 0.09689
 C676 C -0.00606 0.71125 0.08600
 H677 H -0.01629 0.70821 0.07619
 C678 C 0.01970 0.72048 0.11102
 H679 H 0.02982 0.72425 0.12062
 C680 C 0.02278 0.70600 0.09961
 H681 H 0.03514 0.69854 0.10083
 N682 N 0.00413 0.72985 0.10999
 C683 C -0.02431 0.75829 0.15230
 H684 H -0.01648 0.77046 0.15296
 C685 C -0.03867 0.75580 0.16399
 H686 H -0.04196 0.76626 0.17345
 C687 C -0.02950 0.72993 0.13902
 H688 H -0.02569 0.71973 0.12952
 C689 C -0.04397 0.72689 0.15044
 H690 H -0.05115 0.71432 0.14957
 Zn691 Zn -0.00021 0.74983 0.12498
 N692 N -0.02013 0.74553 0.14001
 C693 C -0.02006 0.77918 0.11085
 N694 N -0.00451 0.76977 0.10988
 C695 C 0.00821 0.77391 0.09755
 C696 C 0.00576 0.78830 0.08585
 C697 C -0.02308 0.79366 0.09939
 C698 C 0.02389 0.74149 0.15239
 C699 C 0.03826 0.74402 0.16406
 C700 C 0.04351 0.77291 0.15041
 C701 C 0.02905 0.76981 0.13898
 N702 N 0.01971 0.75420 0.14002
 H703 H -0.03020 0.77546 0.12045
 H704 H 0.02030 0.76597 0.09684
 H705 H 0.01601 0.79129 0.07606
 H706 H -0.03541 0.80117 0.10057
 H707 H 0.01601 0.72936 0.15316
 H708 H 0.04129 0.73379 0.17389
 H709 H 0.05096 0.78528 0.14918
 H710 H 0.02530 0.77993 0.12936
 C711 C -0.04875 0.73994 0.16312
 C712 C 0.00978 0.70118 0.08691
 C713 C 0.04831 0.75989 0.16314
 C714 C -0.01005 0.79843 0.08671
 C715 C 0.49194 0.22574 0.59803
 H716 H 0.47983 0.23364 0.59730
 C717 C 0.49442 0.21136 0.58634
 H718 H 0.48418 0.20835 0.57654
 C719 C 0.52023 0.22052 0.61135
 H720 H 0.53036 0.22425 0.62095
 C721 C 0.52328 0.20605 0.59990
 H722 H 0.53563 0.19857 0.60109
 N723 N 0.50466 0.22990 0.61036
 C724 C 0.47633 0.25822 0.65281
 H725 H 0.48424 0.27034 0.65356
 C726 C 0.46198 0.25573 0.66450
 H727 H 0.45898 0.26597 0.67431
 C728 C 0.47108 0.22992 0.63945
 H729 H 0.47479 0.21979 0.62984
 C730 C 0.45663 0.22686 0.65090
 H731 H 0.44915 0.21450 0.64968
 Zn732 Zn 0.50036 0.24984 0.62541
 N733 N 0.48047 0.24550 0.64047
 C734 C 0.48044 0.27919 0.61141
 N735 N 0.49601 0.26982 0.61037
 C736 C 0.50869 0.27401 0.59802
 C737 C 0.50616 0.28840 0.58634
 C738 C 0.47734 0.29367 0.59997
 C739 C 0.52448 0.24141 0.65276
 C740 C 0.53886 0.24389 0.66442
 C741 C 0.54416 0.27279 0.65082
 C742 C 0.52969 0.26974 0.63940
 N743 N 0.52031 0.25416 0.64043
 H744 H 0.47034 0.27543 0.62103
 H745 H 0.52080 0.26611 0.59726
 H746 H 0.51637 0.29143 0.57652
 H747 H 0.46499 0.30114 0.60119
 H748 H 0.51657 0.22929 0.65352
 H749 H 0.54188 0.23363 0.67422
 H750 H 0.55164 0.28515 0.64960
 H751 H 0.52594 0.27989 0.62980
 C752 C 0.45188 0.23988 0.66360
 C753 C 0.51026 0.20127 0.58721
 C754 C 0.54895 0.25974 0.66351
 C755 C 0.49032 0.29847 0.58724
 C756 C 0.50845 0.72603 0.90249
 H757 H 0.52059 0.73387 0.90320
 C758 C 0.50591 0.71164 0.91417
 H759 H 0.51631 0.70834 0.92370
 C760 C 0.48021 0.72083 0.88905
 H761 H 0.47007 0.72465 0.87948
 C762 C 0.47712 0.70633 0.90047
 H763 H 0.46458 0.69914 0.89954
 N764 N 0.49577 0.73021 0.89011
 C765 C 0.52432 0.75853 0.84775
 H766 H 0.51645 0.77068 0.84698
 C767 C 0.53869 0.75600 0.83610
 H768 H 0.54174 0.76624 0.82629
 C769 C 0.52942 0.73019 0.86112
 H770 H 0.52564 0.72005 0.87072
 C771 C 0.54388 0.72709 0.84971
 H772 H 0.55131 0.71469 0.85094
 Zn773 Zn 0.50015 0.75016 0.87506
 N774 N 0.52010 0.74580 0.86008
 C775 C 0.52000 0.77952 0.88912
 N776 N 0.50445 0.77012 0.89010
 C777 C 0.49171 0.77429 0.90239
 C778 C 0.49415 0.78870 0.91405
 C779 C 0.52302 0.79402 0.90053
 C780 C 0.47610 0.74178 0.84765
 C781 C 0.46175 0.74429 0.83594
 C782 C 0.45649 0.77320 0.84947
 C783 C 0.47093 0.77013 0.86094
 N784 N 0.48027 0.75452 0.85997
 H785 H 0.53015 0.77578 0.87954
 H786 H 0.47961 0.76637 0.90312
 H787 H 0.48390 0.79172 0.92382
 H788 H 0.53536 0.80152 0.89934
 H789 H 0.48397 0.72964 0.84693
 H790 H 0.45873 0.73403 0.82615
 H791 H 0.44904 0.78559 0.85065
 H792 H 0.47467 0.78027 0.87053
 C793 C 0.54872 0.74011 0.83701
 C794 C 0.49009 0.70154 0.91322
 C795 C 0.45170 0.76016 0.83679
 C796 C 0.50997 0.79882 0.91318
 C797 C 0.13508 0.22329 0.26742
 C798 C 0.14528 0.23781 0.26139
 C799 C 0.15971 0.23499 0.24984
 C800 C 0.16414 0.21756 0.24417
 C801 C 0.15380 0.20305 0.25031
 C802 C 0.13937 0.20591 0.26186
 C803 C 0.12023 0.22622 0.27930
 C804 C 0.10778 0.22866 0.28926
 C805 C 0.09291 0.23156 0.30114
 C806 C 0.09008 0.24849 0.30867
 C807 C 0.07564 0.25132 0.32022
 C808 C 0.06384 0.23723 0.32439
 C809 C 0.06682 0.22026 0.31674
 C810 C 0.08126 0.21746 0.30519
 H811 H 0.14210 0.25132 0.26565
 H812 H 0.16755 0.24640 0.24552
 H813 H 0.15674 0.18951 0.24601
 H814 H 0.13153 0.19458 0.26641
 H815 H 0.09905 0.25948 0.30566
 H816 H 0.07384 0.26447 0.32606
 H817 H 0.05785 0.20921 0.31949
 H818 H 0.08330 0.20432 0.29938
 C819 C 0.63521 0.72309 0.76769
 C820 C 0.63946 0.70570 0.76211
 C821 C 0.65387 0.70283 0.75054
 C822 C 0.66421 0.71733 0.74438
 C823 C 0.65982 0.73475 0.75007
 C824 C 0.64542 0.73760 0.76165
 C825 C 0.62038 0.72603 0.77960
 C826 C 0.60794 0.72848 0.78957
 C827 C 0.59310 0.73140 0.80146
 C828 C 0.58144 0.71731 0.80554
 C829 C 0.56701 0.72012 0.81710
 C830 C 0.56404 0.73710 0.82473
 C831 C 0.57584 0.75118 0.82053
 C832 C 0.59027 0.74833 0.80898
 H833 H 0.63162 0.69438 0.76667
 H834 H 0.65677 0.68929 0.74622
 H835 H 0.66767 0.74615 0.74574
 H836 H 0.64227 0.75110 0.76593
 H837 H 0.58348 0.70416 0.79976
 H838 H 0.55804 0.70907 0.81988
 H839 H 0.57405 0.76434 0.82636
 H840 H 0.59924 0.75933 0.80594
 C841 C 0.36513 0.77698 0.76740
 C842 C 0.36086 0.79434 0.76175
 C843 C 0.34642 0.79719 0.75019
 C844 C 0.33605 0.78267 0.74413
 C845 C 0.34046 0.76526 0.74989
 C846 C 0.35490 0.76245 0.76146
 C847 C 0.37999 0.77408 0.77930
 C848 C 0.39245 0.77165 0.78926
 C849 C 0.40731 0.76877 0.80116
 C850 C 0.41894 0.78288 0.80522
 C851 C 0.43338 0.78010 0.81680
 C852 C 0.43638 0.76314 0.82447
 C853 C 0.42461 0.74903 0.82029
 C854 C 0.41017 0.75184 0.80872
 H855 H 0.36873 0.80568 0.76623
 H856 H 0.34351 0.81071 0.74581
 H857 H 0.33259 0.75385 0.74564
 H858 H 0.35805 0.74896 0.76579
 H859 H 0.41688 0.79602 0.79940
 H860 H 0.44233 0.79117 0.81956
 H861 H 0.42642 0.73588 0.82616
 H862 H 0.40122 0.74083 0.80571
 C863 C -0.13542 0.27698 0.26756
 C864 C -0.14241 0.29417 0.26527
 C865 C -0.15692 0.29700 0.25380
 C866 C -0.16480 0.28262 0.24427
 C867 C -0.15746 0.26532 0.24682
 C868 C -0.14297 0.26258 0.25833
 C869 C -0.12049 0.27411 0.27939
 C870 C -0.10799 0.27171 0.28931
 C871 C -0.09308 0.26884 0.30116
 C872 C -0.08146 0.28298 0.30519
 C873 C -0.06698 0.28022 0.31671
 C874 C -0.06392 0.26324 0.32436
 C875 C -0.07568 0.24912 0.32020
 C876 C -0.09016 0.25192 0.30868
 H877 H -0.13655 0.30546 0.27224
 H878 H -0.16133 0.31068 0.25197
 H879 H -0.16323 0.25360 0.24058
 H880 H -0.13774 0.24915 0.26014
 H881 H -0.08357 0.29612 0.29939
 H882 H -0.05804 0.29129 0.31945
 H883 H -0.07383 0.23597 0.32605
 H884 H -0.09910 0.24090 0.30569
 C885 C -0.13531 0.72314 0.23245
 C886 C -0.14232 0.70595 0.23469
 C887 C -0.15676 0.70308 0.24623
 C888 C -0.16454 0.71742 0.25588
 C889 C -0.15717 0.73473 0.25339
 C890 C -0.14276 0.73751 0.24181
 C891 C -0.12045 0.72605 0.22055
 C892 C -0.10801 0.72847 0.21057
 C893 C -0.09316 0.73136 0.19868
 C894 C -0.09432 0.72608 0.18074
 C895 C -0.07989 0.72886 0.16917
 C896 C -0.06408 0.73698 0.17540
 C897 C -0.06305 0.74224 0.19347
 C898 C -0.07750 0.73943 0.20501
 H899 H -0.13654 0.69469 0.22761
 H900 H -0.16119 0.68941 0.24800
 H901 H -0.16287 0.74642 0.25974
 H902 H -0.13751 0.75093 0.24005
 H903 H -0.10640 0.71986 0.17568
 H904 H -0.08119 0.72488 0.15529
 H905 H -0.05099 0.74830 0.19873
 H906 H -0.07644 0.74352 0.21889
 C907 C 0.36521 0.22322 0.73282
 C908 C 0.35819 0.20602 0.73507
 C909 C 0.34371 0.20317 0.74655
 C910 C 0.33588 0.21753 0.75614
 C911 C 0.34325 0.23484 0.75365
 C912 C 0.35771 0.23759 0.74212
 C913 C 0.38010 0.22610 0.72096
 C914 C 0.39257 0.22850 0.71102
 C915 C 0.40745 0.23136 0.69915
 C916 C 0.41903 0.21721 0.69507
 C917 C 0.43348 0.21996 0.68352
 C918 C 0.43654 0.23694 0.67589
 C919 C 0.42482 0.25108 0.68009
 C920 C 0.41037 0.24829 0.69163
 H921 H 0.36401 0.19475 0.72803
 H922 H 0.33928 0.18950 0.74834
 H923 H 0.33752 0.24654 0.75995
 H924 H 0.36296 0.25101 0.74035
 H925 H 0.41692 0.20407 0.70086
 H926 H 0.44239 0.20887 0.68075
 H927 H 0.42668 0.26423 0.67425
 H928 H 0.40146 0.25933 0.69466
 C929 C 0.63567 0.27627 0.73278
 C930 C 0.63491 0.27014 0.75043
 C931 C 0.64934 0.27288 0.76201
 C932 C 0.66495 0.28190 0.75619
 C933 C 0.66539 0.28800 0.73823
 C934 C 0.65092 0.28519 0.72671
 C935 C 0.62078 0.27342 0.72089
 C936 C 0.60832 0.27104 0.71093
 C937 C 0.59343 0.26821 0.69904
 C938 C 0.59051 0.25129 0.69151
 C939 C 0.57605 0.24853 0.67996
 C940 C 0.56432 0.26267 0.67578
 C941 C 0.56738 0.27963 0.68343
 C942 C 0.58184 0.28236 0.69498
 H943 H 0.62307 0.26334 0.75531
 H944 H 0.64775 0.26850 0.77571
 H945 H 0.67713 0.29434 0.73264
 H946 H 0.65171 0.28986 0.71299
 H947 H 0.59943 0.24026 0.69453
 H948 H 0.57419 0.23538 0.67412
 H949 H 0.55846 0.29072 0.68067
 H950 H 0.58395 0.29549 0.70078
 C951 C 0.13497 0.77683 0.23236
 C952 C 0.14518 0.76230 0.23838
 C953 C 0.15962 0.76512 0.24994
 C954 C 0.16405 0.78254 0.25563
 C955 C 0.15371 0.79705 0.24949
 C956 C 0.13926 0.79420 0.23794
 C957 C 0.12010 0.77390 0.22049
 C958 C 0.10763 0.77146 0.21054
 C959 C 0.09275 0.76856 0.19866
 C960 C 0.08987 0.75162 0.19118
 C961 C 0.07542 0.74878 0.17964
 C962 C 0.06365 0.76289 0.17542
 C963 C 0.06667 0.77987 0.18302
 C964 C 0.08112 0.78267 0.19457
 H965 H 0.14200 0.74880 0.23410
 H966 H 0.16746 0.75371 0.25425
 H967 H 0.15664 0.81059 0.25381
 H968 H 0.13142 0.80553 0.23340
 H969 H 0.09883 0.74061 0.19422
 H970 H 0.07360 0.73562 0.17383
 H971 H 0.05772 0.79093 0.18024
 H972 H 0.08320 0.79583 0.20034
 C973 C 0.26734 0.13520 0.22316
 C974 C 0.26176 0.13948 0.20578
 C975 C 0.25022 0.15394 0.20291
 C976 C 0.24411 0.16431 0.21739
 C977 C 0.24980 0.15989 0.23481
 C978 C 0.26134 0.14543 0.23765
 C979 C 0.27922 0.12031 0.22610
 C980 C 0.28916 0.10783 0.22855
 C981 C 0.30104 0.09294 0.23147
 C982 C 0.30513 0.08130 0.21738
 C983 C 0.31667 0.06683 0.22019
 C984 C 0.32429 0.06381 0.23717
 C985 C 0.32007 0.07560 0.25125
 C986 C 0.30853 0.09006 0.24840
 H987 H 0.26629 0.13162 0.19447
 H988 H 0.24590 0.15687 0.18938
 H989 H 0.24550 0.16775 0.24620
 H990 H 0.26562 0.14225 0.25115
 H991 H 0.29936 0.08337 0.20423
 H992 H 0.31946 0.05787 0.20914
 H993 H 0.32589 0.07377 0.26441
 H994 H 0.30549 0.09903 0.25939
 C995 C 0.76732 0.63488 0.72308
 C996 C 0.77420 0.65162 0.71816
 C997 C 0.76266 0.66609 0.71534
 C998 C 0.74407 0.66400 0.71741
 C999 C 0.73730 0.64712 0.72237
 C1000 C 0.74886 0.63267 0.72518
 C1001 C 0.77921 0.61999 0.72597
 C1002 C 0.78917 0.60752 0.72840
 C1003 C 0.80106 0.59264 0.73131
 C1004 C 0.81899 0.59384 0.72609
 C1005 C 0.83056 0.57939 0.72890
 C1006 C 0.82434 0.56353 0.73699
 C1007 C 0.80628 0.56248 0.74219
 C1008 C 0.79473 0.57694 0.73935
 H1009 H 0.78847 0.65349 0.71655
 H1010 H 0.76829 0.67897 0.71175
 H1011 H 0.72304 0.64504 0.72384
 H1012 H 0.74339 0.61976 0.72894
 H1013 H 0.82405 0.60595 0.71990
 H1014 H 0.84444 0.58071 0.72496
 H1015 H 0.80102 0.55038 0.74822
 H1016 H 0.78086 0.57585 0.74339
 C1017 C 0.76777 0.36408 0.77709
 C1018 C 0.74929 0.36630 0.77507
 C1019 C 0.73775 0.35183 0.77788
 C1020 C 0.74455 0.33493 0.78276
 C1021 C 0.76315 0.33285 0.78476
 C1022 C 0.77467 0.34734 0.78193
 C1023 C 0.77963 0.37898 0.77418
 C1024 C 0.78956 0.39147 0.77174
 C1025 C 0.80141 0.40639 0.76883
 C1026 C 0.79502 0.42206 0.76077
 C1027 C 0.80652 0.43656 0.75792
 C1028 C 0.82459 0.43557 0.76313
 C1029 C 0.83087 0.41974 0.77123
 C1030 C 0.81935 0.40525 0.77405
 H1031 H 0.74380 0.37922 0.77137
 H1032 H 0.72349 0.35391 0.77646
 H1033 H 0.76881 0.31996 0.78828
 H1034 H 0.78896 0.34546 0.78348
 H1035 H 0.78114 0.42310 0.75672
 H1036 H 0.80122 0.44864 0.75188
 H1037 H 0.84475 0.41847 0.77517
 H1038 H 0.82445 0.39316 0.78025
 C1039 C 0.26719 -0.13547 0.27681
 C1040 C 0.24955 -0.13465 0.27075
 C1041 C 0.23795 -0.14907 0.27354
 C1042 C 0.24375 -0.16474 0.28254
 C1043 C 0.26171 -0.16524 0.28855
 C1044 C 0.27324 -0.15079 0.28569
 C1045 C 0.27910 -0.12060 0.27392
 C1046 C 0.28907 -0.10813 0.27150
 C1047 C 0.30097 -0.09325 0.26864
 C1048 C 0.29465 -0.07754 0.26060
 C1049 C 0.30620 -0.06307 0.25781
 C1050 C 0.32425 -0.06414 0.26304
 C1051 C 0.33047 -0.08000 0.27113
 C1052 C 0.31889 -0.09446 0.27389
 H1053 H 0.24467 -0.12276 0.26398
 H1054 H 0.22424 -0.14743 0.26923
 H1055 H 0.26729 -0.17703 0.29485
 H1056 H 0.28696 -0.15162 0.29030
 H1057 H 0.28078 -0.07645 0.25653
 H1058 H 0.30095 -0.05097 0.25178
 H1059 H 0.34433 -0.08133 0.27509
 H1060 H 0.32394 -0.10658 0.28008
 C1061 C 0.23302 -0.13522 0.72281
 C1062 C 0.22693 -0.15054 0.71399
 C1063 C 0.23843 -0.16502 0.71115
 C1064 C 0.25640 -0.16453 0.71714
 C1065 C 0.26224 -0.14886 0.72608
 C1066 C 0.25067 -0.13441 0.72884
 C1067 C 0.22114 -0.12032 0.72567
 C1068 C 0.21119 -0.10785 0.72808
 C1069 C 0.19930 -0.09296 0.73095
 C1070 C 0.18136 -0.09416 0.72575
 C1071 C 0.16980 -0.07970 0.72852
 C1072 C 0.17604 -0.06384 0.73657
 C1073 C 0.19411 -0.06278 0.74175
 C1074 C 0.20565 -0.07725 0.73895
 H1075 H 0.21320 -0.15136 0.70940
 H1076 H 0.23283 -0.17681 0.70490
 H1077 H 0.27596 -0.14723 0.73037
 H1078 H 0.25557 -0.12252 0.73557
 H1079 H 0.17630 -0.10628 0.71959
 H1080 H 0.15592 -0.08102 0.72460
 H1081 H 0.19938 -0.05068 0.74775
 H1082 H 0.21953 -0.07617 0.74298
 C1083 C 0.73225 0.36476 0.22356
 C1084 C 0.75073 0.36701 0.22549
 C1085 C 0.76228 0.35255 0.22269
 C1086 C 0.75548 0.33564 0.21790
 C1087 C 0.73688 0.33352 0.21600
 C1088 C 0.72535 0.34799 0.21881
 C1089 C 0.72037 0.37965 0.22642
 C1090 C 0.71042 0.39213 0.22882
 C1091 C 0.69853 0.40702 0.23168
 C1092 C 0.70489 0.42273 0.23968
 C1093 C 0.69335 0.43721 0.24247
 C1094 C 0.67529 0.43615 0.23728
 C1095 C 0.66904 0.42029 0.22924
 C1096 C 0.68060 0.40582 0.22648
 H1097 H 0.75621 0.37995 0.22911
 H1098 H 0.77655 0.35466 0.22404
 H1099 H 0.73123 0.32061 0.21255
 H1100 H 0.71106 0.34609 0.21733
 H1101 H 0.71876 0.42381 0.24371
 H1102 H 0.69863 0.44931 0.24847
 H1103 H 0.65516 0.41897 0.22531
 H1104 H 0.67553 0.39370 0.22032
 C1105 C 0.73252 0.63533 0.27671
 C1106 C 0.75098 0.63307 0.27466
 C1107 C 0.76257 0.64749 0.27748
 C1108 C 0.75583 0.66439 0.28240
 C1109 C 0.73724 0.66653 0.28442
 C1110 C 0.72568 0.65209 0.28159
 C1111 C 0.72060 0.62047 0.27382
 C1112 C 0.71062 0.60802 0.27141
 C1113 C 0.69870 0.59316 0.26854
 C1114 C 0.70501 0.57743 0.26054
 C1115 C 0.69345 0.56298 0.25775
 C1116 C 0.67539 0.56407 0.26294
 C1117 C 0.66918 0.57994 0.27099
 C1118 C 0.68077 0.59438 0.27375
 H1119 H 0.75642 0.62014 0.27094
 H1120 H 0.77683 0.64537 0.27605
 H1121 H 0.73164 0.67942 0.28798
 H1122 H 0.71140 0.65400 0.28316
 H1123 H 0.71888 0.57633 0.25650
 H1124 H 0.69869 0.55087 0.25175
 H1125 H 0.65531 0.58128 0.27492
 H1126 H 0.67573 0.60651 0.27992
 C1127 C 0.23289 0.13544 0.77654
 C1128 C 0.23838 0.13974 0.79393
 C1129 C 0.24993 0.15418 0.79684
 C1130 C 0.25615 0.16451 0.78236
 C1131 C 0.25056 0.16008 0.76493
 C1132 C 0.23900 0.14564 0.76205
 C1133 C 0.22100 0.12057 0.77357
 C1134 C 0.21105 0.10811 0.77109
 C1135 C 0.19916 0.09324 0.76814
 C1136 C 0.18124 0.09439 0.77338
 C1137 C 0.16968 0.07993 0.77056
 C1138 C 0.17592 0.06412 0.76242
 C1139 C 0.19397 0.06311 0.75719
 C1140 C 0.20550 0.07758 0.76004
 H1141 H 0.23377 0.13190 0.80524
 H1142 H 0.25418 0.15711 0.81039
 H1143 H 0.25494 0.16792 0.75354
 H1144 H 0.23479 0.14246 0.74854
 H1145 H 0.17618 0.10647 0.77962
 H1146 H 0.15582 0.08121 0.77452
 H1147 H 0.19924 0.05104 0.75112
 H1148 H 0.21937 0.07653 0.75598
 C1149 C 0.22293 0.26768 0.13495
 C1150 C 0.20559 0.26208 0.13924
 C1151 C 0.20275 0.25052 0.15370
 C1152 C 0.21724 0.24440 0.16406
 C1153 C 0.23462 0.25010 0.15963
 C1154 C 0.23743 0.26167 0.14517
 C1155 C 0.22583 0.27958 0.12006
 C1156 C 0.22826 0.28956 0.10760
 C1157 C 0.23114 0.30148 0.09272
 C1158 C 0.21706 0.30556 0.08106
 C1159 C 0.21984 0.31715 0.06661
 C1160 C 0.23678 0.32481 0.06362
 C1161 C 0.25085 0.32061 0.07542
 C1162 C 0.24804 0.30902 0.08987
 H1163 H 0.19428 0.26661 0.13139
 H1164 H 0.18925 0.24619 0.15664
 H1165 H 0.24602 0.24580 0.16748
 H1166 H 0.25090 0.26596 0.14199
 H1167 H 0.20394 0.29974 0.08312
 H1168 H 0.20880 0.31992 0.05764
 H1169 H 0.26398 0.32646 0.07362
 H1170 H 0.25902 0.30599 0.09884
 C1171 C 0.72283 0.76743 0.63506
 C1172 C 0.70550 0.76185 0.63938
 C1173 C 0.70268 0.75029 0.65385
 C1174 C 0.71718 0.74415 0.66418
 C1175 C 0.73456 0.74984 0.65971
 C1176 C 0.73735 0.76141 0.64525
 C1177 C 0.72572 0.77933 0.62017
 C1178 C 0.72815 0.78930 0.60770
 C1179 C 0.73105 0.80121 0.59282
 C1180 C 0.71699 0.80528 0.58114
 C1181 C 0.71978 0.81686 0.56668
 C1182 C 0.73672 0.82453 0.56372
 C1183 C 0.75078 0.82034 0.57554
 C1184 C 0.74795 0.80876 0.58999
 H1185 H 0.69417 0.76639 0.63155
 H1186 H 0.68917 0.74597 0.65681
 H1187 H 0.74597 0.74553 0.66755
 H1188 H 0.75082 0.76569 0.64204
 H1189 H 0.70387 0.79947 0.58317
 H1190 H 0.70876 0.81963 0.55769
 H1191 H 0.76391 0.82620 0.57375
 H1192 H 0.75892 0.80574 0.59898
 C1193 C 0.77708 0.76774 0.36464
 C1194 C 0.77502 0.74923 0.36687
 C1195 C 0.77784 0.73765 0.35245
 C1196 C 0.78278 0.74444 0.33557
 C1197 C 0.78484 0.76307 0.33347
 C1198 C 0.78200 0.77463 0.34792
 C1199 C 0.77416 0.77964 0.37950
 C1200 C 0.77169 0.78961 0.39196
 C1201 C 0.76875 0.80149 0.40683
 C1202 C 0.76067 0.79511 0.42248
 C1203 C 0.75779 0.80665 0.43694
 C1204 C 0.76299 0.82475 0.43593
 C1205 C 0.77112 0.83103 0.42013
 C1206 C 0.77396 0.81947 0.40569
 H1207 H 0.77127 0.74375 0.37978
 H1208 H 0.77638 0.72337 0.35454
 H1209 H 0.78840 0.76872 0.32060
 H1210 H 0.78358 0.78894 0.34604
 H1211 H 0.75663 0.78121 0.42353
 H1212 H 0.75173 0.80135 0.44899
 H1213 H 0.77505 0.84493 0.41885
 H1214 H 0.78019 0.82456 0.39361
 C1215 C 0.27706 0.26796 -0.13540
 C1216 C 0.28202 0.27483 -0.15212
 C1217 C 0.28490 0.26326 -0.16654
 C1218 C 0.28285 0.24464 -0.16443
 C1219 C 0.27786 0.23786 -0.14757
 C1220 C 0.27499 0.24946 -0.13316
 C1221 C 0.27410 0.27988 -0.12056
 C1222 C 0.27162 0.28985 -0.10811
 C1223 C 0.26867 0.30175 -0.09325
 C1224 C 0.27386 0.31973 -0.09442
 C1225 C 0.27101 0.33129 -0.07998
 C1226 C 0.26291 0.32502 -0.06417
 C1227 C 0.25773 0.30691 -0.06314
 C1228 C 0.26060 0.29537 -0.07759
 H1229 H 0.28361 0.28914 -0.15401
 H1230 H 0.28851 0.26890 -0.17941
 H1231 H 0.27640 0.22358 -0.14547
 H1232 H 0.27120 0.24399 -0.12026
 H1233 H 0.28007 0.32482 -0.10650
 H1234 H 0.27493 0.34520 -0.08127
 H1235 H 0.25168 0.30162 -0.05108
 H1236 H 0.25658 0.28146 -0.07653
 C1237 C 0.72362 0.23115 -0.13530
 C1238 C 0.70627 0.23678 -0.13953
 C1239 C 0.70339 0.24841 -0.15393
 C1240 C 0.71785 0.25457 -0.16429
 C1241 C 0.73524 0.24883 -0.15993
 C1242 C 0.73809 0.23719 -0.14553
 C1243 C 0.72657 0.21920 -0.12046
 C1244 C 0.72905 0.20921 -0.10801
 C1245 C 0.73200 0.19731 -0.09313
 C1246 C 0.71756 0.19147 -0.08274
 C1247 C 0.72042 0.17995 -0.06825
 C1248 C 0.73780 0.17413 -0.06394
 C1249 C 0.75223 0.18007 -0.07448
 C1250 C 0.74933 0.19158 -0.08898
 H1251 H 0.69498 0.23222 -0.13166
 H1252 H 0.68988 0.25276 -0.15681
 H1253 H 0.74661 0.25317 -0.16779
 H1254 H 0.75157 0.23288 -0.14240
 H1255 H 0.70409 0.19587 -0.08581
 H1256 H 0.70907 0.17581 -0.06026
 H1257 H 0.76573 0.17564 -0.07166
 H1258 H 0.76061 0.19598 -0.09696
 C1259 C 0.22286 0.73231 0.36482
 C1260 C 0.23736 0.73829 0.35460
 C1261 C 0.23455 0.74986 0.34014
 C1262 C 0.21717 0.75559 0.33571
 C1263 C 0.20268 0.74949 0.34607
 C1264 C 0.20552 0.73793 0.36053
 C1265 C 0.22576 0.72040 0.37971
 C1266 C 0.22819 0.71043 0.39218
 C1267 C 0.23110 0.69852 0.40707
 C1268 C 0.24799 0.69098 0.40991
 C1269 C 0.25083 0.67941 0.42437
 C1270 C 0.23677 0.67522 0.43618
 C1271 C 0.21983 0.68288 0.43319
 C1272 C 0.21703 0.69446 0.41873
 H1273 H 0.25083 0.73398 0.35778
 H1274 H 0.24594 0.75414 0.33228
 H1275 H 0.18918 0.75385 0.34313
 H1276 H 0.19421 0.73342 0.36839
 H1277 H 0.25896 0.69400 0.40093
 H1278 H 0.26396 0.67355 0.42617
 H1279 H 0.20881 0.68011 0.44217
 H1280 H 0.20391 0.70027 0.41668
 C1281 C 0.27700 0.73232 0.63519
 C1282 C 0.27494 0.75082 0.63293
 C1283 C 0.27779 0.76242 0.64734
 C1284 C 0.28276 0.75565 0.66422
 C1285 C 0.28480 0.73702 0.66634
 C1286 C 0.28193 0.72545 0.65192
 C1287 C 0.27406 0.72040 0.62034
 C1288 C 0.27160 0.71041 0.60790
 C1289 C 0.26867 0.69850 0.59304
 C1290 C 0.26061 0.70486 0.57736
 C1291 C 0.25776 0.69330 0.56292
 C1292 C 0.26295 0.67520 0.56397
 C1293 C 0.27105 0.66894 0.57980
 C1294 C 0.27388 0.68053 0.59423
 H1295 H 0.27118 0.75629 0.62002
 H1296 H 0.27634 0.77671 0.64523
 H1297 H 0.28839 0.73139 0.67922
 H1298 H 0.28351 0.71114 0.65382
 H1299 H 0.25658 0.71876 0.57628
 H1300 H 0.25171 0.69857 0.55084
 H1301 H 0.27499 0.65504 0.58111
 H1302 H 0.28008 0.67546 0.60633
 C1303 C 0.77621 0.23187 0.13603
 C1304 C 0.77413 0.25036 0.13374
 C1305 C 0.77699 0.26200 0.14811
 C1306 C 0.78200 0.25528 0.16500
 C1307 C 0.78405 0.23666 0.16717
 C1308 C 0.78117 0.22504 0.15277
 C1309 C 0.77330 0.21991 0.12121
 C1310 C 0.77088 0.20990 0.10878
 C1311 C 0.76802 0.19797 0.09392
 C1312 C 0.76273 0.20480 0.07729
 C1313 C 0.76001 0.19323 0.06283
 C1314 C 0.76255 0.17465 0.06482
 C1315 C 0.76786 0.16792 0.08161
 C1316 C 0.77056 0.17952 0.09606
 H1317 H 0.77034 0.25579 0.12082
 H1318 H 0.77553 0.27628 0.14597
 H1319 H 0.78767 0.23106 0.18005
 H1320 H 0.78278 0.21074 0.15471
 H1321 H 0.76078 0.21907 0.07548
 H1322 H 0.75617 0.19885 0.05002
 H1323 H 0.76971 0.15368 0.08363
 H1324 H 0.77461 0.17409 0.10889
 C1325 C 0.47333 0.38515 0.51781
 C1326 C 0.45598 0.38939 0.51219
 C1327 C 0.45310 0.40384 0.50062
 C1328 C 0.46756 0.41424 0.49450
 C1329 C 0.48496 0.40986 0.50022
 C1330 C 0.48780 0.39541 0.51181
 C1331 C 0.47627 0.37028 0.52972
 C1332 C 0.47873 0.35782 0.53971
 C1333 C 0.48164 0.34293 0.55162
 C1334 C 0.46756 0.33129 0.55574
 C1335 C 0.47036 0.31683 0.56732
 C1336 C 0.48732 0.31383 0.57494
 C1337 C 0.50139 0.32561 0.57070
 C1338 C 0.49855 0.34007 0.55912
 H1339 H 0.44469 0.38151 0.51672
 H1340 H 0.43959 0.40674 0.49627
 H1341 H 0.49633 0.41775 0.49592
 H1342 H 0.50128 0.39227 0.51611
 H1343 H 0.45443 0.33335 0.54996
 H1344 H 0.45933 0.30787 0.57012
 H1345 H 0.51453 0.32380 0.57652
 H1346 H 0.50953 0.34904 0.55606
 C1347 C -0.02631 0.88534 0.01739
 C1348 C -0.03105 0.90210 0.02429
 C1349 C -0.03377 0.91661 0.01275
 C1350 C -0.03175 0.91453 -0.00586
 C1351 C -0.02696 0.89762 -0.01267
 C1352 C -0.02427 0.88313 -0.00110
 C1353 C -0.02353 0.87041 0.02928
 C1354 C -0.02120 0.85791 0.03924
 C1355 C -0.01840 0.84299 0.05113
 C1356 C -0.03255 0.83139 0.05517
 C1357 C -0.02985 0.81690 0.06674
 C1358 C -0.01294 0.81381 0.07442
 C1359 C 0.00120 0.82555 0.07026
 C1360 C -0.00154 0.84004 0.05870
 H1361 H -0.03262 0.90397 0.03859
 H1362 H -0.03722 0.92951 0.01841
 H1363 H -0.02554 0.89555 -0.02694
 H1364 H -0.02064 0.87019 -0.00659
 H1365 H -0.04565 0.83352 0.04934
 H1366 H -0.04093 0.80798 0.06948
 H1367 H 0.01430 0.82367 0.07614
 H1368 H 0.00949 0.84896 0.05571
 C1369 C 0.02666 0.61456 0.01751
 C1370 C 0.04385 0.60762 0.01522
 C1371 C 0.04674 0.59319 0.00366
 C1372 C 0.03242 0.58532 -0.00596
 C1373 C 0.01512 0.59261 -0.00341
 C1374 C 0.01233 0.60702 0.00820
 C1375 C 0.02374 0.62942 0.02943
 C1376 C 0.02130 0.64187 0.03941
 C1377 C 0.01841 0.65674 0.05132
 C1378 C 0.03250 0.66838 0.05542
 C1379 C 0.02971 0.68283 0.06699
 C1380 C 0.01277 0.68583 0.07462
 C1381 C -0.00131 0.67404 0.07040
 C1382 C 0.00152 0.65959 0.05884
 H1383 H 0.05509 0.61347 0.02227
 H1384 H 0.06040 0.58883 0.00183
 H1385 H 0.00346 0.58684 -0.00973
 H1386 H -0.00109 0.61220 0.01000
 H1387 H 0.04562 0.66633 0.04963
 H1388 H 0.04075 0.69180 0.06977
 H1389 H -0.01444 0.67585 0.07624
 H1390 H -0.00947 0.65063 0.05579
 C1391 C 0.52693 0.11467 0.51774
 C1392 C 0.54425 0.11043 0.51206
 C1393 C 0.54707 0.09599 0.50049
 C1394 C 0.53258 0.08561 0.49442
 C1395 C 0.51521 0.08999 0.50020
 C1396 C 0.51243 0.10443 0.51179
 C1397 C 0.52405 0.12954 0.52966
 C1398 C 0.52164 0.14199 0.53964
 C1399 C 0.51878 0.15686 0.55156
 C1400 C 0.53289 0.16849 0.55565
 C1401 C 0.53013 0.18293 0.56723
 C1402 C 0.51321 0.18594 0.57489
 C1403 C 0.49911 0.17417 0.57069
 C1404 C 0.50190 0.15972 0.55911
 H1405 H 0.55557 0.11830 0.51655
 H1406 H 0.56056 0.09309 0.49609
 H1407 H 0.50382 0.08212 0.49595
 H1408 H 0.49897 0.10757 0.51614
 H1409 H 0.54600 0.16642 0.54984
 H1410 H 0.54119 0.19188 0.57001
 H1411 H 0.48599 0.17598 0.57654
 H1412 H 0.49090 0.15077 0.55607
 C1413 C -0.02710 0.11491 0.48228
 C1414 C -0.04443 0.11064 0.48791
 C1415 C -0.04728 0.09620 0.49949
 C1416 C -0.03279 0.08582 0.50561
 C1417 C -0.01541 0.09022 0.49986
 C1418 C -0.01260 0.10467 0.48828
 C1419 C -0.02419 0.12979 0.47037
 C1420 C -0.02174 0.14225 0.46039
 C1421 C -0.01881 0.15714 0.44849
 C1422 C -0.02402 0.15598 0.43053
 C1423 C -0.02119 0.17043 0.41895
 C1424 C -0.01309 0.18626 0.42521
 C1425 C -0.00791 0.18729 0.44330
 C1426 C -0.01076 0.17282 0.45485
 H1427 H -0.05574 0.11851 0.48339
 H1428 H -0.06078 0.09328 0.50385
 H1429 H -0.00402 0.08235 0.50416
 H1430 H 0.00087 0.10783 0.48396
 H1431 H -0.03022 0.14388 0.42545
 H1432 H -0.02512 0.16914 0.40506
 H1433 H -0.00187 0.19937 0.44858
 H1434 H -0.00673 0.17388 0.46874
 C1435 C 0.47311 0.61477 0.98253
 C1436 C 0.47914 0.61557 1.00021
 C1437 C 0.47634 0.60113 1.01181
 C1438 C 0.46735 0.58548 1.00599
 C1439 C 0.46135 0.58501 0.98800
 C1440 C 0.46423 0.59948 0.97646
 C1441 C 0.47602 0.62966 0.97062
 C1442 C 0.47846 0.64213 0.96066
 C1443 C 0.48138 0.65702 0.94876
 C1444 C 0.48940 0.67272 0.95514
 C1445 C 0.49224 0.68720 0.94360
 C1446 C 0.48709 0.68617 0.92550
 C1447 C 0.47903 0.67032 0.91923
 C1448 C 0.47621 0.65586 0.93079
 H1449 H 0.48591 0.62744 1.00510
 H1450 H 0.48064 0.60275 1.02554
 H1451 H 0.45506 0.57324 0.98240
 H1452 H 0.45964 0.59866 0.96272
 H1453 H 0.49341 0.67378 0.96904
 H1454 H 0.49825 0.69928 0.94889
 H1455 H 0.47512 0.66903 0.90533
 H1456 H 0.47004 0.64375 0.92571
 C1457 C 0.52629 0.88580 0.98228
 C1458 C 0.51172 0.89588 0.98832
 C1459 C 0.51444 0.91040 0.99983
 C1460 C 0.53181 0.91501 1.00544
 C1461 C 0.54637 0.90478 0.99929
 C1462 C 0.54361 0.89027 0.98779
 C1463 C 0.52347 0.87086 0.97043
 C1464 C 0.52112 0.85835 0.96050
 C1465 C 0.51832 0.84342 0.94865
 C1466 C 0.50146 0.84047 0.94107
 C1467 C 0.49873 0.82597 0.92955
 C1468 C 0.51286 0.81422 0.92544
 C1469 C 0.52977 0.81730 0.93313
 C1470 C 0.53246 0.83181 0.94466
 H1471 H 0.49826 0.89256 0.98410
 H1472 H 0.50299 0.91815 1.00416
 H1473 H 0.55986 0.90786 1.00355
 H1474 H 0.55498 0.88252 0.98323
 H1475 H 0.49043 0.84941 0.94403
 H1476 H 0.48562 0.82409 0.92367
 H1477 H 0.54085 0.80837 0.93042
 H1478 H 0.54556 0.83394 0.95049
 C1479 C 0.02668 0.38534 0.48254
 C1480 C 0.03555 0.40066 0.47650
 C1481 C 0.03841 0.41510 0.48806
 C1482 C 0.03240 0.41457 0.50604
 C1483 C 0.02341 0.39890 0.51183
 C1484 C 0.02063 0.38450 0.50020
 C1485 C 0.02379 0.37049 0.47060
 C1486 C 0.02138 0.35804 0.46060
 C1487 C 0.01852 0.34319 0.44867
 C1488 C 0.03261 0.33156 0.44459
 C1489 C 0.02985 0.31712 0.43299
 C1490 C 0.01292 0.31413 0.42531
 C1491 C -0.00117 0.32591 0.42951
 C1492 C 0.00163 0.34034 0.44111
 H1493 H 0.04016 0.40151 0.46277
 H1494 H 0.04471 0.42689 0.48249
 H1495 H 0.01910 0.39724 0.52554
 H1496 H 0.01386 0.37261 0.50506
 H1497 H 0.04573 0.33361 0.45041
 H1498 H 0.04090 0.30817 0.43022
 H1499 H -0.01429 0.32410 0.42364
 H1500 H -0.00936 0.34929 0.44414
 C1501 C 0.38512 0.51744 0.47314
 C1502 C 0.38294 0.49893 0.47521
 C1503 C 0.39740 0.48738 0.47241
 C1504 C 0.41423 0.49422 0.46749
 C1505 C 0.41627 0.51285 0.46544
 C1506 C 0.40180 0.52437 0.46825
 C1507 C 0.37023 0.52931 0.47603
 C1508 C 0.35776 0.53925 0.47846
 C1509 C 0.34288 0.55112 0.48137
 C1510 C 0.32724 0.54471 0.48943
 C1511 C 0.31277 0.55623 0.49227
 C1512 C 0.31376 0.57433 0.48705
 C1513 C 0.32954 0.58063 0.47895
 C1514 C 0.34400 0.56909 0.47614
 H1515 H 0.37007 0.49342 0.47895
 H1516 H 0.39535 0.47309 0.47387
 H1517 H 0.42912 0.51853 0.46188
 H1518 H 0.40364 0.53869 0.46666
 H1519 H 0.32622 0.53081 0.49349
 H1520 H 0.30073 0.55092 0.49832
 H1521 H 0.33080 0.59453 0.47500
 H1522 H 0.35606 0.57420 0.46993
 C1523 C 0.88701 0.01837 -0.02693
 C1524 C 0.90231 0.02438 -0.03580
 C1525 C 0.91669 0.01276 -0.03867
 C1526 C 0.91612 -0.00524 -0.03268
 C1527 C 0.90046 -0.01100 -0.02370
 C1528 C 0.88612 0.00068 -0.02090
 C1529 C 0.87222 0.03034 -0.02402
 C1530 C 0.85979 0.04033 -0.02155
 C1531 C 0.84492 0.05221 -0.01859
 C1532 C 0.83354 0.05674 -0.03277
 C1533 C 0.81901 0.06815 -0.02987
 C1534 C 0.81566 0.07519 -0.01271
 C1535 C 0.82721 0.07058 0.00144
 C1536 C 0.84174 0.05917 -0.00149
 H1537 H 0.90321 0.03813 -0.04040
 H1538 H 0.92847 0.01831 -0.04497
 H1539 H 0.89876 -0.02473 -0.01940
 H1540 H 0.87424 -0.00416 -0.01414
 H1541 H 0.83585 0.05137 -0.04604
 H1542 H 0.81023 0.07125 -0.04098
 H1543 H 0.82513 0.07595 0.01474
 H1544 H 0.85050 0.05578 0.00957
 C1545 C 0.61332 0.01905 0.02609
 C1546 C 0.61561 0.00056 0.02405
 C1547 C 0.60126 -0.01109 0.02693
 C1548 C 0.58439 -0.00438 0.03190
 C1549 C 0.58222 0.01424 0.03393
 C1550 C 0.59660 0.02587 0.03103
 C1551 C 0.62813 0.03101 0.02314
 C1552 C 0.64059 0.04095 0.02067
 C1553 C 0.65553 0.05273 0.01771
 C1554 C 0.66546 0.05148 0.00188
 C1555 C 0.68012 0.06276 -0.00093
 C1556 C 0.68505 0.07547 0.01208
 C1557 C 0.67492 0.07668 0.02792
 C1558 C 0.66028 0.06537 0.03070
 H1559 H 0.62852 -0.00486 0.02028
 H1560 H 0.60341 -0.02537 0.02549
 H1561 H 0.56935 0.01983 0.03752
 H1562 H 0.59466 0.04017 0.03260
 H1563 H 0.66187 0.04177 -0.00829
 H1564 H 0.68748 0.06167 -0.01336
 H1565 H 0.67851 0.08616 0.03829
 H1566 H 0.65271 0.06641 0.04303
 C1567 C 0.11460 0.51739 0.52706
 C1568 C 0.11032 0.51176 0.54442
 C1569 C 0.09586 0.50023 0.54726
 C1570 C 0.08550 0.49416 0.53274
 C1571 C 0.08992 0.49990 0.51535
 C1572 C 0.10437 0.51144 0.51254
 C1573 C 0.12949 0.52926 0.52416
 C1574 C 0.14197 0.53920 0.52172
 C1575 C 0.15686 0.55106 0.51883
 C1576 C 0.16852 0.55509 0.53293
 C1577 C 0.18298 0.56662 0.53014
 C1578 C 0.18599 0.57428 0.51318
 C1579 C 0.17419 0.57013 0.49909
 C1580 C 0.15973 0.55860 0.50192
 H1581 H 0.11818 0.51625 0.55575
 H1582 H 0.09293 0.49587 0.56077
 H1583 H 0.08206 0.49564 0.50394
 H1584 H 0.10754 0.51576 0.49906
 H1585 H 0.16645 0.54928 0.54607
 H1586 H 0.19195 0.56936 0.54119
 H1587 H 0.17600 0.57599 0.48595
 H1588 H 0.15075 0.55561 0.49092
 C1589 C 0.11452 0.48278 -0.02707
 C1590 C 0.11529 0.50047 -0.02103
 C1591 C 0.10084 0.51203 -0.02379
 C1592 C 0.08520 0.50616 -0.03273
 C1593 C 0.08476 0.48817 -0.03874
 C1594 C 0.09924 0.47667 -0.03591
 C1595 C 0.12942 0.47091 -0.02420
 C1596 C 0.14189 0.46097 -0.02179
 C1597 C 0.15678 0.44909 -0.01890
 C1598 C 0.15966 0.44154 -0.00199
 C1599 C 0.17412 0.42999 0.00083
 C1600 C 0.18590 0.42584 -0.01326
 C1601 C 0.18288 0.43352 -0.03022
 C1602 C 0.16842 0.44506 -0.03300
 H1603 H 0.12715 0.50539 -0.01429
 H1604 H 0.10244 0.52577 -0.01949
 H1605 H 0.07300 0.48254 -0.04501
 H1606 H 0.09845 0.46292 -0.04051
 H1607 H 0.15070 0.44453 0.00901
 H1608 H 0.17594 0.42413 0.01397
 H1609 H 0.19184 0.43078 -0.04127
 H1610 H 0.16635 0.45088 -0.04614
 C1611 C 0.61459 0.98252 0.47293
 C1612 C 0.61539 1.00020 0.47896
 C1613 C 0.60095 1.01178 0.47621
 C1614 C 0.58530 1.00593 0.46728
 C1615 C 0.58482 0.98793 0.46128
 C1616 C 0.59930 0.97642 0.46411
 C1617 C 0.62947 0.97063 0.47580
 C1618 C 0.64194 0.96067 0.47822
 C1619 C 0.65682 0.94879 0.48111
 C1620 C 0.67246 0.95517 0.48919
 C1621 C 0.68693 0.94364 0.49202
 C1622 C 0.68594 0.92555 0.48678
 C1623 C 0.67015 0.91929 0.47865
 C1624 C 0.65570 0.93084 0.47584
 H1625 H 0.62726 1.00512 0.48568
 H1626 H 0.60257 1.02552 0.48050
 H1627 H 0.57305 0.98231 0.45503
 H1628 H 0.59848 0.96267 0.45951
 H1629 H 0.67349 0.96906 0.49327
 H1630 H 0.69897 0.94893 0.49809
 H1631 H 0.66889 0.90539 0.47467
 H1632 H 0.64363 0.92575 0.46962
 C1633 C 0.88497 0.98251 0.52705
 C1634 C 0.90167 0.97560 0.53192
 C1635 C 0.91613 0.98714 0.53474
 C1636 C 0.91405 1.00577 0.53271
 C1637 C 0.89719 1.01258 0.52780
 C1638 C 0.88276 1.00102 0.52500
 C1639 C 0.87010 0.97061 0.52413
 C1640 C 0.85765 0.96066 0.52169
 C1641 C 0.84277 0.94878 0.51877
 C1642 C 0.83110 0.94472 0.53284
 C1643 C 0.81665 0.93318 0.53003
 C1644 C 0.81367 0.92554 0.51306
 C1645 C 0.82548 0.92971 0.49900
 C1646 C 0.83993 0.94125 0.50185
 H1647 H 0.90354 0.96129 0.53349
 H1648 H 0.92899 0.98148 0.53828
 H1649 H 0.89512 1.02687 0.52636
 H1650 H 0.86987 1.00651 0.52128
 H1651 H 0.83314 0.95052 0.54598
 H1652 H 0.80766 0.93042 0.54106
 H1653 H 0.82369 0.92387 0.48585
 H1654 H 0.84891 0.94426 0.49087
 C1655 C 0.38508 0.48265 0.02683
 C1656 C 0.38936 0.48824 0.04419
 C1657 C 0.40383 0.49977 0.04705
 C1658 C 0.41419 0.50586 0.03255
 C1659 C 0.40977 0.50016 0.01515
 C1660 C 0.39531 0.48862 0.01232
 C1661 C 0.37018 0.47080 0.02391
 C1662 C 0.35770 0.46087 0.02146
 C1663 C 0.34280 0.44901 0.01856
 C1664 C 0.33116 0.44496 0.03265
 C1665 C 0.31669 0.43343 0.02985
 C1666 C 0.31367 0.42581 0.01288
 C1667 C 0.32546 0.42999 -0.00120
 C1668 C 0.33992 0.44151 0.00163
 H1669 H 0.38150 0.48374 0.05551
 H1670 H 0.40676 0.50410 0.06057
 H1671 H 0.41763 0.50443 0.00375
 H1672 H 0.39214 0.48433 -0.00117
 H1673 H 0.33324 0.45074 0.04579
 H1674 H 0.30773 0.43067 0.04090
 H1675 H 0.32363 0.42416 -0.01435
 H1676 H 0.34889 0.44453 -0.00936
 C1677 C 0.51754 0.47327 0.38531
 C1678 C 0.51151 0.48779 0.39550
 C1679 C 0.49996 0.48495 0.40994
 C1680 C 0.49430 0.46752 0.41439
 C1681 C 0.50046 0.45301 0.40407
 C1682 C 0.51200 0.45589 0.38962
 C1683 C 0.52943 0.47621 0.37045
 C1684 C 0.53938 0.47865 0.35799
 C1685 C 0.55127 0.48154 0.34312
 C1686 C 0.55880 0.49847 0.34026
 C1687 C 0.57035 0.50129 0.32581
 C1688 C 0.57453 0.48719 0.31403
 C1689 C 0.56688 0.47022 0.31703
 C1690 C 0.55533 0.46744 0.33148
 H1691 H 0.51576 0.50130 0.39231
 H1692 H 0.49563 0.49636 0.41778
 H1693 H 0.49616 0.43947 0.40702
 H1694 H 0.51655 0.44456 0.38179
 H1695 H 0.55578 0.50947 0.34922
 H1696 H 0.57620 0.51444 0.32400
 H1697 H 0.56964 0.45917 0.30807
 H1698 H 0.54952 0.45429 0.33354
 C1699 C 0.01861 -0.02667 0.88501
 C1700 C 0.01289 -0.04401 0.88927
 C1701 C 0.00137 -0.04680 0.90375
 C1702 C -0.00459 -0.03227 0.91414
 C1703 C 0.00124 -0.01488 0.90974
 C1704 C 0.01277 -0.01212 0.89526
 C1705 C 0.03047 -0.02381 0.87010
 C1706 C 0.04039 -0.02141 0.85761
 C1707 C 0.05223 -0.01854 0.84270
 C1708 C 0.05626 -0.03266 0.83107
 C1709 C 0.06777 -0.02989 0.81658
 C1710 C 0.07539 -0.01292 0.81353
 C1711 C 0.07124 0.00120 0.82530
 C1712 C 0.05974 -0.00161 0.83979
 H1713 H 0.01730 -0.05536 0.88139
 H1714 H -0.00306 -0.06031 0.90666
 H1715 H -0.00294 -0.00346 0.91762
 H1716 H 0.01716 0.00135 0.89210
 H1717 H 0.05048 -0.04581 0.83317
 H1718 H 0.07050 -0.04096 0.80763
 H1719 H 0.07707 0.01435 0.82345
 H1720 H 0.05674 0.00941 0.84874
 C1721 C 0.01763 0.02685 0.61465
 C1722 C 0.01203 0.04422 0.61037
 C1723 C 0.00042 0.04708 0.59597
 C1724 C -0.00576 0.03257 0.58565
 C1725 C -0.00006 0.01515 0.59008
 C1726 C 0.01156 0.01232 0.60448
 C1727 C 0.02959 0.02393 0.62946
 C1728 C 0.03962 0.02150 0.64188
 C1729 C 0.05158 0.01862 0.65670
 C1730 C 0.05568 0.03273 0.66832
 C1731 C 0.06731 0.02996 0.68273
 C1732 C 0.07500 0.01300 0.68569
 C1733 C 0.07079 -0.00110 0.67392
 C1734 C 0.05916 0.00171 0.65952
 H1735 H 0.01661 0.05556 0.61818
 H1736 H -0.00390 0.06062 0.59303
 H1737 H -0.00440 0.00374 0.58226
 H1738 H 0.01585 -0.00118 0.60765
 H1739 H 0.04984 0.04587 0.66629
 H1740 H 0.07009 0.04102 0.69168
 H1741 H 0.07666 -0.01424 0.67571
 H1742 H 0.05612 -0.00930 0.65057
 C1743 C 0.51742 0.52695 0.11489
 C1744 C 0.51184 0.54432 0.11059
 C1745 C 0.50029 0.54718 0.09614
 C1746 C 0.49416 0.53267 0.08580
 C1747 C 0.49984 0.51525 0.09024
 C1748 C 0.51140 0.51242 0.10469
 C1749 C 0.52931 0.52403 0.12976
 C1750 C 0.53928 0.52159 0.14222
 C1751 C 0.55118 0.51871 0.15709
 C1752 C 0.55526 0.53283 0.16872
 C1753 C 0.56683 0.53006 0.18317
 C1754 C 0.57447 0.51309 0.18619
 C1755 C 0.57027 0.49897 0.17442
 C1756 C 0.55871 0.50179 0.15997
 H1757 H 0.51637 0.55565 0.11843
 H1758 H 0.49597 0.56072 0.09320
 H1759 H 0.49554 0.50384 0.08240
 H1760 H 0.51568 0.49892 0.10788
 H1761 H 0.54946 0.54598 0.16664
 H1762 H 0.56961 0.54112 0.19211
 H1763 H 0.57611 0.48582 0.17625
 H1764 H 0.55567 0.49077 0.15103
 C1765 C 0.48180 -0.02636 0.11475
 C1766 C 0.48759 -0.01178 0.10448
 C1767 C 0.49908 -0.01450 0.08997
 C1768 C 0.50491 -0.03187 0.08552
 C1769 C 0.49900 -0.04643 0.09593
 C1770 C 0.48753 -0.04368 0.11045
 C1771 C 0.46998 -0.02355 0.12969
 C1772 C 0.46008 -0.02120 0.14220
 C1773 C 0.44824 -0.01839 0.15712
 C1774 C 0.44072 -0.00148 0.16007
 C1775 C 0.42921 0.00126 0.17456
 C1776 C 0.42506 -0.01290 0.18630
 C1777 C 0.43270 -0.02986 0.18321
 C1778 C 0.44421 -0.03257 0.16871
 H1779 H 0.48320 0.00168 0.10767
 H1780 H 0.50321 -0.00305 0.08207
 H1781 H 0.50344 -0.05993 0.09299
 H1782 H 0.48316 -0.05506 0.11834
 H1783 H 0.44371 0.00957 0.15115
 H1784 H 0.42337 0.01440 0.17645
 H1785 H 0.42996 -0.04097 0.19213
 H1786 H 0.45000 -0.04570 0.16658
 C1787 C 0.98224 0.47286 0.61491
 C1788 C 0.98826 0.48741 0.60472
 C1789 C 0.99983 0.48461 0.59029
 C1790 C 1.00552 0.46719 0.58585
 C1791 C 0.99938 0.45266 0.59618
 C1792 C 0.98783 0.45550 0.61061
 C1793 C 0.97034 0.47576 0.62977
 C1794 C 0.96038 0.47818 0.64222
 C1795 C 0.94849 0.48106 0.65709
 C1796 C 0.94093 0.49798 0.65991
 C1797 C 0.92938 0.50079 0.67436
 C1798 C 0.92523 0.48669 0.68617
 C1799 C 0.93290 0.46973 0.68320
 C1800 C 0.94446 0.46695 0.66876
 H1801 H 0.98398 0.50090 0.60790
 H1802 H 1.00414 0.49603 0.58246
 H1803 H 1.00371 0.43913 0.59324
 H1804 H 0.98328 0.44415 0.61844
 H1805 H 0.94393 0.50898 0.65093
 H1806 H 0.92351 0.51393 0.67614
 H1807 H 0.93017 0.45867 0.69219
 H1808 H 0.95028 0.45382 0.66672
 C1809 C 0.98216 0.52679 0.88531
 C1810 C 0.98822 0.51226 0.89550
 C1811 C 0.99978 0.51509 0.90994
 C1812 C 1.00544 0.53252 0.91438
 C1813 C 0.99926 0.54703 0.90405
 C1814 C 0.98770 0.54417 0.88961
 C1815 C 0.97027 0.52385 0.87044
 C1816 C 0.96032 0.52140 0.85797
 C1817 C 0.94844 0.51849 0.84310
 C1818 C 0.94094 0.50155 0.84025
 C1819 C 0.92940 0.49870 0.82580
 C1820 C 0.92519 0.51279 0.81399
 C1821 C 0.93281 0.52978 0.81697
 C1822 C 0.94435 0.53259 0.83143
 H1823 H 0.98397 0.49875 0.89232
 H1824 H 1.00413 0.50368 0.91778
 H1825 H 1.00355 0.56057 0.90699
 H1826 H 0.98313 0.55550 0.88177
 H1827 H 0.94398 0.49055 0.84924
 H1828 H 0.92358 0.48554 0.82400
 H1829 H 0.93003 0.54083 0.80799
 H1830 H 0.95013 0.54574 0.83348
 C1831 C 0.48215 0.02667 0.38544
 C1832 C 0.48820 0.01214 0.39564
 C1833 C 0.49980 0.01497 0.41005
 C1834 C 0.50548 0.03239 0.41447
 C1835 C 0.49932 0.04690 0.40413
 C1836 C 0.48773 0.04405 0.38972
 C1837 C 0.47023 0.02375 0.37059
 C1838 C 0.46025 0.02132 0.35815
 C1839 C 0.44833 0.01844 0.34329
 C1840 C 0.44080 0.00151 0.34045
 C1841 C 0.42923 -0.00131 0.32601
 C1842 C 0.42503 0.01280 0.31421
 C1843 C 0.43268 0.02977 0.31720
 C1844 C 0.44425 0.03255 0.33164
 H1845 H 0.48392 -0.00136 0.39247
 H1846 H 0.50413 0.00355 0.41789
 H1847 H 0.50364 0.06044 0.40706
 H1848 H 0.48317 0.05538 0.38188
 H1849 H 0.44384 -0.00950 0.34942
 H1850 H 0.42339 -0.01446 0.32421
 H1851 H 0.42990 0.04083 0.30823
 H1852 H 0.45005 0.04570 0.33369
   
