data_POSCAR
  _audit_creation_date              2014-09-24
  _audit_creation_method            'ToBaCCo'
  _symmetry_space_group_name_H-M    'P1'
  _symmetry_Int_Tables_number       1
  _symmetry_cell_setting            triclinic
  loop_
  _symmetry_equiv_pos_as_xyz
 x,y,z
_cell_length_a 70.4346
_cell_length_b 70.4446
_cell_length_c 70.3947
_cell_angle_alpha 88.420800
_cell_angle_beta 88.460900
_cell_angle_gamma 88.466400
loop_
  _atom_site_label
  _atom_site_type_symbol
  _atom_site_fract_x
  _atom_site_fract_y
  _atom_site_fract_z
C1 C 0.74441 0.64795 0.97539
 H2 H 0.75780 0.64764 0.96748
 C3 C 0.72881 0.65820 0.96816
 H4 H 0.73041 0.66589 0.95471
 C5 C 0.72593 0.63749 1.00209
 H6 H 0.72464 0.62900 1.01503
 C7 C 0.71003 0.64756 0.99543
 H8 H 0.69678 0.64680 1.00354
 N9 N 0.74267 0.63775 0.99201
 C10 C 0.79925 0.62579 1.01387
 H11 H 0.79830 0.61056 1.01594
 C12 C 0.81551 0.63493 1.01916
 H13 H 0.82702 0.62654 1.02531
 C14 C 0.78510 0.65504 1.00355
 H15 H 0.77312 0.66281 0.99762
 C16 C 0.80114 0.66481 1.00871
 H17 H 0.80134 0.68009 1.00660
 Zn18 Zn 0.76323 0.62172 0.99976
 N19 N 0.78455 0.63585 1.00606
 C20 C 0.78765 0.60514 0.97189
 N21 N 0.76963 0.60563 0.97931
 C22 C 0.75561 0.59580 0.97141
 C23 C 0.75947 0.58503 0.95530
 C24 C 0.79216 0.59448 0.95592
 C25 C 0.75343 0.61741 1.03801
 C26 C 0.74724 0.60835 1.05482
 C27 C 0.74682 0.57883 1.03812
 C28 C 0.75311 0.58852 1.02162
 N29 N 0.75589 0.60753 1.02180
 H30 H 0.79852 0.61338 0.97801
 H31 H 0.74132 0.59669 0.97741
 H32 H 0.74805 0.57754 0.94906
 H33 H 0.80656 0.59456 0.95015
 H34 H 0.75598 0.63249 1.03777
 H35 H 0.74515 0.61683 1.06734
 H36 H 0.74441 0.56375 1.03739
 H37 H 0.75549 0.58088 1.00865
 C38 C 0.81665 0.65472 1.01661
 C39 C 0.71123 0.65786 0.97809
 C40 C 0.74346 0.58877 1.05509
 C41 C 0.77794 0.58440 0.94725
 C42 C 0.73967 0.34892 0.51467
 H43 H 0.75305 0.34793 0.52187
 C44 C 0.72417 0.33863 0.52172
 H45 H 0.72584 0.32963 0.53432
 C46 C 0.72113 0.36243 0.48991
 H47 H 0.71979 0.37205 0.47780
 C48 C 0.70533 0.35240 0.49644
 H49 H 0.69212 0.35434 0.48903
 N50 N 0.73789 0.36054 0.49903
 C51 C 0.79449 0.37054 0.47466
 H52 H 0.79354 0.38587 0.47340
 C53 C 0.81086 0.36088 0.46827
 H54 H 0.82244 0.36897 0.46208
 C55 C 0.78035 0.34156 0.48428
 H56 H 0.76836 0.33411 0.49042
 C57 C 0.79651 0.33129 0.47804
 H58 H 0.79677 0.31595 0.47954
 Zn59 Zn 0.75856 0.37580 0.49107
 N60 N 0.77976 0.36086 0.48271
 C61 C 0.78327 0.38858 0.51866
 N62 N 0.76533 0.39026 0.51205
 C63 C 0.75188 0.40141 0.52082
 C64 C 0.75641 0.41175 0.53670
 C65 C 0.78840 0.39863 0.53443
 C66 C 0.74856 0.38282 0.45367
 C67 C 0.74238 0.39315 0.43772
 C68 C 0.74254 0.42172 0.45593
 C69 C 0.74882 0.41082 0.47155
 N70 N 0.75130 0.39167 0.47025
 H71 H 0.79365 0.37927 0.51189
 H72 H 0.73760 0.40219 0.51553
 H73 H 0.74552 0.42057 0.54346
 H74 H 0.80280 0.39702 0.53937
 H75 H 0.75083 0.36761 0.45299
 H76 H 0.73994 0.38567 0.42482
 H77 H 0.74027 0.43688 0.45734
 H78 H 0.75143 0.41765 0.48474
 C79 C 0.81210 0.34097 0.47000
 C80 C 0.70665 0.34043 0.51265
 C81 C 0.73900 0.41283 0.43879
 C82 C 0.77492 0.41043 0.54369
 C83 C 0.23943 -0.15109 0.01438
 H84 H 0.25283 -0.15203 0.02155
 C85 C 0.22396 -0.16139 0.02151
 H86 H 0.22567 -0.17034 0.03412
 C87 C 0.22082 -0.13770 -0.01037
 H88 H 0.21944 -0.12812 -0.02251
 C89 C 0.20505 -0.14773 -0.00378
 H90 H 0.19182 -0.14584 -0.01117
 N91 N 0.23760 -0.13952 -0.00129
 C92 C 0.29409 -0.12946 -0.02592
 H93 H 0.29308 -0.11413 -0.02726
 C94 C 0.31047 -0.13910 -0.03233
 H95 H 0.32200 -0.13099 -0.03860
 C96 C 0.28009 -0.15845 -0.01609
 H97 H 0.26815 -0.16591 -0.00986
 C98 C 0.29626 -0.16870 -0.02234
 H99 H 0.29659 -0.18403 -0.02075
 Zn100 Zn 0.25822 -0.12424 -0.00936
 N101 N 0.27942 -0.13916 -0.01776
 C102 C 0.28302 -0.11133 0.01806
 N103 N 0.26504 -0.10970 0.01153
 C104 C 0.25162 -0.09855 0.02035
 C105 C 0.25620 -0.08818 0.03618
 C106 C 0.28821 -0.10125 0.03378
 C107 C 0.24809 -0.11737 -0.04673
 C108 C 0.24176 -0.10718 -0.06269
 C109 C 0.24181 -0.07851 -0.04457
 C110 C 0.24826 -0.08933 -0.02897
 N111 N 0.25083 -0.10846 -0.03021
 H112 H 0.29338 -0.12063 0.01126
 H113 H 0.23731 -0.09781 0.01512
 H114 H 0.24533 -0.07938 0.04298
 H115 H 0.30262 -0.10283 0.03866
 H116 H 0.25049 -0.13258 -0.04737
 H117 H 0.23943 -0.11492 -0.07546
 H118 H 0.23955 -0.06336 -0.04298
 H119 H 0.25090 -0.08245 -0.01582
 C120 C 0.31179 -0.15899 -0.03049
 C121 C 0.20642 -0.15965 0.01247
 C122 C 0.23812 -0.08742 -0.06178
 C123 C 0.27474 -0.08946 0.04309
 C124 C 0.24479 0.14782 0.47485
 H125 H 0.25816 0.14761 0.46691
 C126 C 0.22913 0.15804 0.46767
 H127 H 0.23067 0.16579 0.45425
 C128 C 0.22639 0.13720 0.50153
 H129 H 0.22515 0.12865 0.51444
 C130 C 0.21043 0.14723 0.49493
 H131 H 0.19720 0.14638 0.50307
 N132 N 0.24311 0.13756 0.49142
 C133 C 0.29978 0.12574 0.51312
 H134 H 0.29889 0.11050 0.51511
 C135 C 0.31601 0.13491 0.51843
 H136 H 0.32756 0.12654 0.52452
 C137 C 0.28550 0.15499 0.50296
 H138 H 0.27348 0.16274 0.49708
 C139 C 0.30151 0.16479 0.50815
 H140 H 0.30165 0.18008 0.50611
 Zn141 Zn 0.26375 0.12159 0.49909
 N142 N 0.28502 0.13578 0.50538
 C143 C 0.28816 0.10519 0.47111
 N144 N 0.27016 0.10556 0.47859
 C145 C 0.25617 0.09567 0.47073
 C146 C 0.26003 0.08492 0.45460
 C147 C 0.29267 0.09455 0.45512
 C148 C 0.25406 0.11717 0.53737
 C149 C 0.24802 0.10802 0.55418
 C150 C 0.24773 0.07854 0.53744
 C151 C 0.25386 0.08828 0.52092
 N152 N 0.25653 0.10732 0.52112
 H153 H 0.29900 0.11347 0.47720
 H154 H 0.24189 0.09648 0.47677
 H155 H 0.24864 0.07737 0.44840
 H156 H 0.30705 0.09471 0.44931
 H157 H 0.25647 0.13228 0.53714
 H158 H 0.24582 0.11628 0.56683
 H159 H 0.24533 0.06345 0.53693
 H160 H 0.25621 0.08066 0.50792
 C161 C 0.31707 0.15472 0.51598
 C162 C 0.21157 0.15759 0.47763
 C163 C 0.24451 0.08848 0.55432
 C164 C 0.27848 0.08439 0.44650
 C165 C 0.14837 0.47489 0.24475
 H166 H 0.14813 0.46700 0.25816
 C167 C 0.15859 0.46769 0.22912
 H168 H 0.16634 0.45428 0.23072
 C169 C 0.13776 0.50150 0.22625
 H170 H 0.12921 0.51439 0.22496
 C171 C 0.14780 0.49487 0.21031
 H172 H 0.14697 0.50296 0.19705
 N173 N 0.13810 0.49145 0.24301
 C174 C 0.12614 0.51316 0.29965
 H175 H 0.11090 0.51512 0.29873
 C176 C 0.13528 0.51851 0.31590
 H177 H 0.12687 0.52459 0.32743
 C178 C 0.15544 0.50307 0.28543
 H179 H 0.16322 0.49721 0.27343
 C180 C 0.16520 0.50830 0.30145
 H181 H 0.18049 0.50630 0.30162
 Zn182 Zn 0.12209 0.49912 0.26361
 N183 N 0.13623 0.50544 0.28492
 C184 C 0.10565 0.47114 0.28804
 N185 N 0.10606 0.47862 0.27002
 C186 C 0.09619 0.47076 0.25601
 C187 C 0.08543 0.45464 0.25987
 C188 C 0.09501 0.45515 0.29254
 C189 C 0.11766 0.53735 0.25381
 C190 C 0.10850 0.55413 0.24776
 C191 C 0.07902 0.53738 0.24754
 C192 C 0.08877 0.52088 0.25369
 N193 N 0.10782 0.52110 0.25633
 H194 H 0.11393 0.47723 0.29890
 H195 H 0.09701 0.47680 0.24173
 H196 H 0.07790 0.44844 0.24846
 H197 H 0.09515 0.44934 0.30694
 H198 H 0.13278 0.53714 0.25621
 H199 H 0.11675 0.56678 0.24551
 H200 H 0.06392 0.53684 0.24517
 H201 H 0.08116 0.50789 0.25609
 C202 C 0.15508 0.51611 0.31699
 C203 C 0.15816 0.47758 0.21151
 C204 C 0.08895 0.55425 0.24428
 C205 C 0.08488 0.44653 0.27834
 C206 C -0.15182 0.01490 0.23889
 H207 H -0.15287 0.02207 0.25229
 C208 C -0.16205 0.02198 0.22335
 H209 H -0.17104 0.03456 0.22512
 C210 C -0.13825 -0.00979 0.22039
 H211 H -0.12863 -0.02189 0.21908
 C212 C -0.14820 -0.00326 0.20453
 H213 H -0.14614 -0.01075 0.19137
 N214 N -0.14019 -0.00070 0.23714
 C215 C -0.13021 -0.02509 0.29377
 H216 H -0.11487 -0.02634 0.29280
 C217 C -0.13984 -0.03150 0.31017
 H218 H -0.13172 -0.03769 0.32174
 C219 C -0.15921 -0.01548 0.27968
 H220 H -0.16668 -0.00933 0.26770
 C221 C -0.16946 -0.02174 0.29587
 H222 H -0.18480 -0.02024 0.29618
 Zn223 Zn -0.12497 -0.00864 0.25785
 N224 N -0.13991 -0.01704 0.27906
 C225 C -0.11225 0.01892 0.28261
 N226 N -0.11052 0.01232 0.26466
 C227 C -0.09932 0.02110 0.25124
 C228 C -0.08896 0.03694 0.25581
 C229 C -0.10220 0.03466 0.28778
 C230 C -0.11790 -0.04601 0.24786
 C231 C -0.10756 -0.06194 0.24173
 C232 C -0.07899 -0.04371 0.24196
 C233 C -0.08991 -0.02811 0.24820
 N234 N -0.10906 -0.02943 0.25062
 H235 H -0.12161 0.01216 0.29296
 H236 H -0.09849 0.01581 0.23695
 H237 H -0.08009 0.04370 0.24494
 H238 H -0.10384 0.03958 0.30218
 H239 H -0.13313 -0.04671 0.25009
 H240 H -0.11502 -0.07484 0.23927
 H241 H -0.06382 -0.04229 0.23975
 H242 H -0.08309 -0.01493 0.25083
 C243 C -0.15974 -0.02978 0.31146
 C244 C -0.16019 0.01300 0.20573
 C245 C -0.08785 -0.06085 0.23841
 C246 C -0.09033 0.04391 0.27433
 C247 C 0.34846 0.51469 0.73971
 H248 H 0.34748 0.52184 0.75312
 C249 C 0.33816 0.52179 0.72422
 H250 H 0.32917 0.53436 0.72592
 C251 C 0.36195 0.49002 0.72110
 H252 H 0.37156 0.47792 0.71972
 C253 C 0.35192 0.49658 0.70531
 H254 H 0.35385 0.48923 0.69207
 N255 N 0.36007 0.49908 0.73789
 C256 C 0.37017 0.47459 0.79446
 H257 H 0.38550 0.47336 0.79348
 C258 C 0.36053 0.46812 0.81084
 H259 H 0.36865 0.46191 0.82239
 C260 C 0.34115 0.48418 0.78037
 H261 H 0.33368 0.49033 0.76840
 C262 C 0.33090 0.47786 0.79654
 H263 H 0.31556 0.47932 0.79683
 Zn264 Zn 0.37536 0.49108 0.75853
 N265 N 0.36045 0.48265 0.77975
 C266 C 0.38819 0.51860 0.78329
 N267 N 0.38983 0.51203 0.76532
 C268 C 0.40096 0.52084 0.75185
 C269 C 0.41131 0.53670 0.75638
 C270 C 0.39826 0.53435 0.78842
 C271 C 0.38238 0.45374 0.74843
 C272 C 0.39271 0.43784 0.74222
 C273 C 0.42128 0.45606 0.74240
 C274 C 0.41038 0.47164 0.74872
 N275 N 0.39123 0.47031 0.75121
 H276 H 0.37890 0.51181 0.79368
 H277 H 0.40171 0.51558 0.73755
 H278 H 0.42011 0.54348 0.74547
 H279 H 0.39668 0.53926 0.80283
 H280 H 0.36717 0.45304 0.75072
 H281 H 0.38523 0.42494 0.73976
 H282 H 0.43644 0.45749 0.74014
 H283 H 0.41721 0.48482 0.75136
 C284 C 0.34063 0.46979 0.81211
 C285 C 0.33995 0.51278 0.70666
 C286 C 0.41240 0.43893 0.73884
 C287 C 0.41003 0.54364 0.77491
 C288 C 0.64865 0.97534 0.74499
 H289 H 0.64843 0.96741 0.75837
 C290 C 0.65888 0.96819 0.72933
 H291 H 0.66664 0.95479 0.73088
 C292 C 0.63800 1.00199 0.72656
 H293 H 0.62943 1.01487 0.72531
 C294 C 0.64805 0.99542 0.71060
 H295 H 0.64720 1.00354 0.69736
 N296 N 0.63836 0.99188 0.74330
 C297 C 0.62630 1.01345 0.79998
 H298 H 0.61106 1.01536 0.79905
 C299 C 0.63540 1.01883 0.81624
 H300 H 0.62686 1.02484 0.82771
 C301 C 0.65562 1.00348 0.78577
 H302 H 0.66343 0.99765 0.77376
 C303 C 0.66537 1.00872 0.80180
 H304 H 0.68067 1.00673 0.80185
 Zn305 Zn 0.62232 0.99947 0.76391
 N306 N 0.63642 1.00579 0.78525
 C307 C 0.60591 0.97140 0.78826
 N308 N 0.60633 0.97892 0.77026
 C309 C 0.59650 0.97106 0.75622
 C310 C 0.58576 0.95492 0.76003
 C311 C 0.59529 0.95539 0.79272
 C312 C 0.61780 1.03771 0.75419
 C313 C 0.60860 1.05447 0.74812
 C314 C 0.57918 1.03763 0.74778
 C315 C 0.58896 1.02115 0.75395
 N316 N 0.60800 1.02143 0.75666
 H317 H 0.61415 0.97749 0.79915
 H318 H 0.59734 0.97713 0.74194
 H319 H 0.57826 0.94872 0.74860
 H320 H 0.59542 0.94956 0.80711
 H321 H 0.63290 1.03754 0.75664
 H322 H 0.61682 1.06715 0.74591
 H323 H 0.56409 1.03705 0.74535
 H324 H 0.58138 1.00813 0.75630
 C325 C 0.65526 1.01655 0.81740
 C326 C 0.65842 0.97814 0.71175
 C327 C 0.58907 1.05453 0.74456
 C328 C 0.58519 0.94678 0.77849
 C329 C 0.01434 0.23922 -0.15089
 H330 H 0.02149 0.25263 -0.15178
 C331 C 0.02151 0.22379 -0.16119
 H332 H 0.03414 0.22553 -0.17010
 C333 C -0.01041 0.22056 -0.13761
 H334 H -0.02257 0.21913 -0.12807
 C335 C -0.00378 0.20482 -0.14765
 H336 H -0.01114 0.19158 -0.14581
 N337 N -0.00135 0.23735 -0.13937
 C338 C -0.02604 0.29377 -0.12923
 H339 H -0.02741 0.29271 -0.11390
 C340 C -0.03244 0.31018 -0.13886
 H341 H -0.03873 0.32167 -0.13073
 C342 C -0.01615 0.27987 -0.15825
 H343 H -0.00989 0.26796 -0.16573
 C344 C -0.02238 0.29607 -0.16849
 H345 H -0.02077 0.29645 -0.18383
 Zn346 Zn -0.00947 0.25791 -0.12405
 N347 N -0.01786 0.27915 -0.13895
 C348 C 0.01790 0.28268 -0.11099
 N349 N 0.01139 0.26470 -0.10943
 C350 C 0.02020 0.25123 -0.09832
 C351 C 0.03603 0.25577 -0.08791
 C352 C 0.03362 0.28783 -0.10088
 C353 C -0.04682 0.24772 -0.11728
 C354 C -0.06277 0.24135 -0.10711
 C355 C -0.04470 0.24135 -0.07839
 C356 C -0.02910 0.24783 -0.08918
 N357 N -0.03032 0.25046 -0.10831
 H358 H 0.01111 0.29308 -0.12028
 H359 H 0.01498 0.23692 -0.09763
 H360 H 0.04283 0.24486 -0.07914
 H361 H 0.03849 0.30225 -0.10241
 H362 H -0.04744 0.25016 -0.13249
 H363 H -0.07553 0.23904 -0.11489
 H364 H -0.04313 0.23905 -0.06323
 H365 H -0.01597 0.25047 -0.08226
 C366 C -0.03056 0.31156 -0.15876
 C367 C 0.01250 0.20623 -0.15952
 C368 C -0.06188 0.23766 -0.08734
 C369 C 0.04293 0.27432 -0.08913
 C370 C 0.47533 0.24451 0.14820
 H371 H 0.46739 0.25787 0.14797
 C372 C 0.46818 0.22886 0.15845
 H373 H 0.45478 0.23039 0.16621
 C374 C 0.50199 0.22613 0.13755
 H375 H 0.51487 0.22491 0.12898
 C376 C 0.49542 0.21018 0.14762
 H377 H 0.50355 0.19696 0.14677
 N378 N 0.49187 0.24285 0.13790
 C379 C 0.51341 0.29954 0.12586
 H380 H 0.51535 0.29863 0.11061
 C381 C 0.51871 0.31581 0.13498
 H382 H 0.52474 0.32735 0.12656
 C383 C 0.50339 0.28530 0.15520
 H384 H 0.49757 0.27328 0.16300
 C385 C 0.50857 0.30133 0.16495
 H386 H 0.50659 0.30149 0.18025
 Zn387 Zn 0.49946 0.26347 0.12185
 N388 N 0.50574 0.28479 0.13597
 C389 C 0.47137 0.28777 0.10544
 N390 N 0.47890 0.26980 0.10585
 C391 C 0.47105 0.25576 0.09602
 C392 C 0.45488 0.25956 0.08529
 C393 C 0.45535 0.29222 0.09483
 C394 C 0.53771 0.25382 0.11735
 C395 C 0.55449 0.24779 0.10816
 C396 C 0.53766 0.24744 0.07871
 C397 C 0.52117 0.25357 0.08849
 N398 N 0.52144 0.25626 0.10754
 H399 H 0.47747 0.29865 0.11368
 H400 H 0.47712 0.24150 0.09685
 H401 H 0.44869 0.24813 0.07779
 H402 H 0.44950 0.30658 0.09497
 H403 H 0.53753 0.25626 0.13247
 H404 H 0.56716 0.24561 0.11640
 H405 H 0.53710 0.24502 0.06362
 H406 H 0.50815 0.25589 0.08090
 C407 C 0.51633 0.31689 0.15480
 C408 C 0.47814 0.21130 0.15800
 C409 C 0.55457 0.24425 0.08862
 C410 C 0.44673 0.27798 0.08474
 C411 C 0.97483 0.74473 0.64862
 H412 H 0.96692 0.75811 0.64842
 C413 C 0.96768 0.72909 0.65887
 H414 H 0.95428 0.73064 0.66666
 C415 C 1.00145 0.72631 0.63795
 H416 H 1.01433 0.72507 0.62937
 C417 C 0.99487 0.71037 0.64801
 H418 H 1.00298 0.69713 0.64716
 N419 N 0.99137 0.74304 0.63832
 C420 C 1.01306 0.79969 0.62638
 H421 H 1.01501 0.79879 0.61113
 C422 C 1.01841 0.81592 0.63553
 H423 H 1.02448 0.82746 0.62712
 C424 C 1.00299 0.78543 0.65569
 H425 H 0.99713 0.77342 0.66347
 C426 C 1.00822 0.80143 0.66547
 H427 H 1.00623 0.80158 0.68077
 Zn428 Zn 0.99901 0.76367 0.62231
 N429 N 1.00535 0.78494 0.63647
 C430 C 0.97101 0.78809 0.60592
 N431 N 0.97849 0.77009 0.60630
 C432 C 0.97060 0.75611 0.59641
 C433 C 0.95448 0.75999 0.58565
 C434 C 0.95503 0.79262 0.59528
 C435 C 1.03725 0.75394 0.61781
 C436 C 1.05402 0.74791 0.60862
 C437 C 1.03721 0.74768 0.57915
 C438 C 1.02073 0.75381 0.58893
 N439 N 1.02098 0.75644 0.60799
 H440 H 0.97712 0.79893 0.61421
 H441 H 0.97663 0.74183 0.59721
 H442 H 0.94827 0.74861 0.57810
 H443 H 0.94923 0.80700 0.59544
 H444 H 1.03706 0.75633 0.63293
 H445 H 1.06668 0.74567 0.61685
 H446 H 1.03666 0.74531 0.56404
 H447 H 1.00772 0.75618 0.58133
 C448 C 1.01603 0.81698 0.65535
 C449 C 0.97760 0.71151 0.65841
 C450 C 1.05411 0.74443 0.58906
 C451 C 0.94639 0.77844 0.58512
 C452 C 0.51474 0.73986 0.34799
 H453 H 0.52192 0.75325 0.34697
 C454 C 0.52180 0.72437 0.33770
 H455 H 0.53436 0.72605 0.32868
 C456 C 0.49005 0.72130 0.36155
 H457 H 0.47796 0.71994 0.37120
 C458 C 0.49657 0.70550 0.35153
 H459 H 0.48919 0.69228 0.35350
 N460 N 0.49914 0.73806 0.35964
 C461 C 0.47477 0.79462 0.36971
 H462 H 0.47354 0.79362 0.38506
 C463 C 0.46833 0.81101 0.36010
 H464 H 0.46216 0.82249 0.36835
 C465 C 0.48433 0.78058 0.34069
 H466 H 0.49046 0.76861 0.33321
 C467 C 0.47805 0.79675 0.33043
 H468 H 0.47957 0.79694 0.31508
 Zn469 Zn 0.49120 0.75871 0.37491
 N470 N 0.48280 0.77993 0.35999
 C471 C 0.51878 0.78342 0.38771
 N472 N 0.51217 0.76548 0.38939
 C473 C 0.52093 0.75203 0.40057
 C474 C 0.53678 0.75657 0.41095
 C475 C 0.53452 0.78856 0.39779
 C476 C 0.45383 0.74867 0.38197
 C477 C 0.43790 0.74250 0.39231
 C478 C 0.45613 0.74270 0.42090
 C479 C 0.47173 0.74897 0.40998
 N480 N 0.47041 0.75143 0.39081
 H481 H 0.51202 0.79379 0.37837
 H482 H 0.51564 0.73775 0.40135
 H483 H 0.54352 0.74568 0.41980
 H484 H 0.53945 0.80295 0.39618
 H485 H 0.45313 0.75093 0.36674
 H486 H 0.42500 0.74005 0.38484
 H487 H 0.45755 0.74046 0.43608
 H488 H 0.48491 0.75160 0.41680
 C489 C 0.46999 0.81238 0.34013
 C490 C 0.51276 0.70683 0.33954
 C491 C 0.43898 0.73915 0.41202
 C492 C 0.54375 0.77508 0.40964
 C493 C 0.39415 -0.00963 0.26105
 H494 H 0.39349 0.00374 0.26827
 C495 C 0.40458 -0.02505 0.26871
 H496 H 0.41203 -0.02332 0.28178
 C497 C 0.38453 -0.02826 0.23569
 H498 H 0.37634 -0.02966 0.22308
 C499 C 0.39477 -0.04400 0.24281
 H500 H 0.39444 -0.05724 0.23539
 N501 N 0.38434 -0.01151 0.24486
 C502 C 0.37306 0.04451 0.21900
 H503 H 0.35803 0.04323 0.21670
 C504 C 0.38224 0.06101 0.21304
 H505 H 0.37410 0.07232 0.20610
 C506 C 0.40172 0.03119 0.23098
 H507 H 0.40925 0.01951 0.23794
 C508 C 0.41150 0.04748 0.22524
 H509 H 0.42653 0.04815 0.22792
 Zn510 Zn 0.36844 0.00897 0.23636
 N511 N 0.38277 0.03016 0.22806
 C512 C 0.35145 0.03422 0.26267
 N513 N 0.35216 0.01590 0.25703
 C514 C 0.34261 0.00215 0.26694
 C515 C 0.33205 0.00658 0.28343
 C516 C 0.34096 0.03929 0.27889
 C517 C 0.36444 -0.00096 0.19888
 C518 C 0.35546 -0.00697 0.18279
 C519 C 0.32587 -0.00773 0.20095
 C520 C 0.33544 -0.00159 0.21673
 N521 N 0.35444 0.00137 0.21546
 H522 H 0.35942 0.04492 0.25492
 H523 H 0.34364 -0.01237 0.26233
 H524 H 0.32487 -0.00463 0.29135
 H525 H 0.34094 0.05392 0.28321
 H526 H 0.37951 0.00165 0.19826
 H527 H 0.36383 -0.00897 0.16984
 H528 H 0.31080 -0.01029 0.20228
 H529 H 0.32773 0.00058 0.23000
 C530 C 0.40170 0.06276 0.21629
 C531 C 0.40480 -0.04261 0.25968
 C532 C 0.33595 -0.01064 0.18372
 C533 C 0.33131 0.02536 0.28970
 C534 C 0.09326 1.02693 0.77201
 H535 H 0.09161 1.01325 0.77915
 C536 C 0.08306 1.04284 0.77860
 H537 H 0.07346 1.04120 0.79077
 C538 C 0.10834 1.04569 0.74790
 H539 H 0.11855 1.04691 0.73624
 C540 C 0.09843 1.06193 0.75398
 H541 H 0.10104 1.07538 0.74669
 N542 N 0.10561 1.02862 0.75691
 C543 C 0.11546 0.97206 0.73443
 H544 H 0.13083 0.97204 0.73401
 C545 C 0.10599 0.95653 0.72787
 H546 H 0.11428 0.94462 0.72241
 C547 C 0.08623 0.98789 0.74196
 H548 H 0.07863 1.00024 0.74732
 C549 C 0.07612 0.97260 0.73547
 H550 H 0.06075 0.97331 0.73600
 Zn551 Zn 0.12060 1.00713 0.74971
 N552 N 0.10556 0.98723 0.74149
 C553 C 0.13199 0.98083 0.77845
 N554 N 0.13459 0.99865 0.77109
 C555 C 0.14657 1.01071 0.77921
 C556 C 0.15699 1.00474 0.79502
 C557 C 0.14205 0.97431 0.79422
 C558 C 0.12844 1.01831 0.71229
 C559 C 0.13930 1.02316 0.69613
 C560 C 0.16766 1.01792 0.71431
 C561 C 0.15622 1.01312 0.73017
 N562 N 0.13697 1.01366 0.72894
 H563 H 0.12199 0.97163 0.77223
 H564 H 0.14808 1.02495 0.77331
 H565 H 0.16659 1.01448 0.80116
 H566 H 0.13978 0.96002 0.79970
 H567 H 0.11311 1.01832 0.71166
 H568 H 0.13213 1.02699 0.68311
 H569 H 0.18295 1.01756 0.71561
 H570 H 0.16277 1.00892 0.74338
 C571 C 0.08605 0.95660 0.72836
 C572 C 0.08570 1.06069 0.76964
 C573 C 0.15920 1.02313 0.69701
 C574 C 0.15486 0.98625 0.80267
 C575 C 0.59301 0.52726 0.27116
 H576 H 0.59139 0.51360 0.27833
 C577 C 0.58279 0.54317 0.27773
 H578 H 0.57321 0.54155 0.28992
 C579 C 0.60803 0.54601 0.24699
 H580 H 0.61822 0.54722 0.23533
 C581 C 0.59811 0.56224 0.25306
 H582 H 0.60068 0.57568 0.24574
 N583 N 0.60534 0.52895 0.25604
 C584 C 0.61535 0.47237 0.23365
 H585 H 0.63072 0.47239 0.23322
 C586 C 0.60593 0.45680 0.22711
 H587 H 0.61425 0.44491 0.22166
 C588 C 0.58608 0.48813 0.24118
 H589 H 0.57845 0.50046 0.24652
 C590 C 0.57602 0.47280 0.23471
 H591 H 0.56064 0.47347 0.23524
 Zn592 Zn 0.62039 0.50749 0.24888
 N593 N 0.60541 0.48752 0.24070
 C594 C 0.63188 0.48126 0.27766
 N595 N 0.63441 0.49908 0.27027
 C596 C 0.64633 0.51121 0.27837
 C597 C 0.65678 0.50531 0.29419
 C598 C 0.64198 0.47481 0.29343
 C599 C 0.62821 0.51861 0.21144
 C600 C 0.63906 0.52350 0.19528
 C601 C 0.66742 0.51841 0.21349
 C602 C 0.65600 0.51357 0.22934
 N603 N 0.63675 0.51403 0.22810
 H604 H 0.62193 0.47200 0.27145
 H605 H 0.64778 0.52545 0.27246
 H606 H 0.66633 0.51511 0.30031
 H607 H 0.63977 0.46051 0.29893
 H608 H 0.61288 0.51856 0.21080
 H609 H 0.63188 0.52729 0.18225
 H610 H 0.68271 0.51813 0.21480
 H611 H 0.66255 0.50942 0.24256
 C612 C 0.58598 0.45682 0.22761
 C613 C 0.58540 0.56102 0.26874
 C614 C 0.65895 0.52357 0.19618
 C615 C 0.65474 0.48682 0.30186
 C616 C 0.89367 0.49065 0.76181
 H617 H 0.89298 0.50402 0.76904
 C618 C 0.90407 0.47523 0.76948
 H619 H 0.91149 0.47695 0.78257
 C620 C 0.88411 0.47204 0.73640
 H621 H 0.87596 0.47065 0.72377
 C622 C 0.89434 0.45630 0.74354
 H623 H 0.89403 0.44307 0.73610
 N624 N 0.88389 0.48878 0.74559
 C625 C 0.87256 0.54480 0.71974
 H626 H 0.85754 0.54350 0.71742
 C627 C 0.88173 0.56130 0.71377
 H628 H 0.87358 0.57260 0.70682
 C629 C 0.90123 0.53151 0.73175
 H630 H 0.90876 0.51984 0.73872
 C631 C 0.91100 0.54781 0.72600
 H632 H 0.92603 0.54850 0.72868
 Zn633 Zn 0.86798 0.50924 0.73708
 N634 N 0.88228 0.53046 0.72881
 C635 C 0.85091 0.53446 0.76338
 N636 N 0.85166 0.51614 0.75774
 C637 C 0.84213 0.50236 0.76764
 C638 C 0.83155 0.50676 0.78412
 C639 C 0.84039 0.53950 0.77960
 C640 C 0.86405 0.49934 0.69958
 C641 C 0.85512 0.49330 0.68348
 C642 C 0.82551 0.49241 0.70161
 C643 C 0.83504 0.49859 0.71740
 N644 N 0.85403 0.50163 0.71616
 H645 H 0.85885 0.54517 0.75565
 H646 H 0.84319 0.48784 0.76301
 H647 H 0.82439 0.49553 0.79203
 H648 H 0.84034 0.55413 0.78393
 H649 H 0.87911 0.50201 0.69898
 H650 H 0.86351 0.49133 0.67054
 H651 H 0.81046 0.48978 0.70292
 H652 H 0.82730 0.50072 0.73067
 C653 C 0.90118 0.56307 0.71703
 C654 C 0.90432 0.45768 0.76043
 C655 C 0.83563 0.48954 0.68439
 C656 C 0.83078 0.52554 0.79040
 C657 C 0.26115 0.39305 -0.00913
 H658 H 0.26836 0.39236 0.00426
 C659 C 0.26883 0.40349 -0.02454
 H660 H 0.28190 0.41092 -0.02278
 C661 C 0.23579 0.38351 -0.02781
 H662 H 0.22317 0.37535 -0.02922
 C663 C 0.24293 0.39377 -0.04353
 H664 H 0.23551 0.39348 -0.05679
 N665 N 0.24495 0.38327 -0.01103
 C666 C 0.21909 0.37205 0.04502
 H667 H 0.21677 0.35702 0.04376
 C668 C 0.21314 0.38126 0.06150
 H669 H 0.20620 0.37314 0.07284
 C670 C 0.23109 0.40067 0.03163
 H671 H 0.23805 0.40818 0.01993
 C672 C 0.22537 0.41048 0.04791
 H673 H 0.22805 0.42551 0.04854
 Zn674 Zn 0.23641 0.36738 0.00945
 N675 N 0.22816 0.38172 0.03064
 C676 C 0.26268 0.35033 0.03474
 N677 N 0.25704 0.35106 0.01641
 C678 C 0.26694 0.34152 0.00265
 C679 C 0.28342 0.33097 0.00708
 C680 C 0.27889 0.33984 0.03983
 C681 C 0.19894 0.36349 -0.00051
 C682 C 0.18284 0.35457 -0.00654
 C683 C 0.20090 0.32493 -0.00730
 C684 C 0.21670 0.33445 -0.00114
 N685 N 0.21549 0.35345 0.00183
 H686 H 0.25494 0.35828 0.04545
 H687 H 0.26232 0.34257 -0.01189
 H688 H 0.29134 0.32381 -0.00413
 H689 H 0.28322 0.33981 0.05447
 H690 H 0.19837 0.37856 0.00210
 H691 H 0.16992 0.36297 -0.00855
 H692 H 0.20219 0.30986 -0.00986
 H693 H 0.22995 0.32670 0.00104
 C694 C 0.21641 0.40071 0.06321
 C695 C 0.25980 0.40377 -0.04212
 C696 C 0.18371 0.33506 -0.01022
 C697 C 0.28970 0.33022 0.02588
 C698 C 0.77175 0.09280 1.02681
 H699 H 0.77889 0.09114 1.01313
 C700 C 0.77833 0.08258 1.04274
 H701 H 0.79047 0.07297 1.04112
 C702 C 0.74768 0.10791 1.04556
 H703 H 0.73606 0.11814 1.04676
 C704 C 0.75375 0.09800 1.06182
 H705 H 0.74647 0.10062 1.07527
 N706 N 0.75669 0.10517 1.02848
 C707 C 0.73424 0.11517 0.97187
 H708 H 0.73386 0.13053 0.97186
 C709 C 0.72766 0.10575 0.95631
 H710 H 0.72223 0.11407 0.94439
 C711 C 0.74170 0.08590 0.98768
 H712 H 0.74703 0.07826 1.00004
 C713 C 0.73518 0.07584 0.97237
 H714 H 0.73566 0.06046 0.97307
 Zn715 Zn 0.74953 0.12020 1.00698
 N716 N 0.74128 0.10522 0.98704
 C717 C 0.77828 0.13158 0.98070
 N718 N 0.77092 0.13417 0.99852
 C719 C 0.77906 0.14611 1.01060
 C720 C 0.79489 0.15651 1.00464
 C721 C 0.79406 0.14162 0.97419
 C722 C 0.71215 0.12810 1.01812
 C723 C 0.69601 0.13898 1.02300
 C724 C 0.71425 0.16731 1.01782
 C725 C 0.73007 0.15585 1.01300
 N726 N 0.72880 0.13661 1.01351
 H727 H 0.77205 0.12161 0.97147
 H728 H 0.77317 0.14762 1.02485
 H729 H 0.80104 0.16609 1.01441
 H730 H 0.79953 0.13936 0.95989
 H731 H 0.71148 0.11278 1.01812
 H732 H 0.68298 0.13182 1.02681
 H733 H 0.71558 0.18259 1.01749
 H734 H 0.74329 0.16238 1.00882
 C735 C 0.72809 0.08580 0.95637
 C736 C 0.76938 0.08525 1.06060
 C737 C 0.69694 0.15887 1.02301
 C738 C 0.80252 0.15440 0.98615
 C739 C 0.27159 0.59347 0.52707
 H740 H 0.27873 0.59185 0.51339
 C741 C 0.27818 0.58325 0.54299
 H742 H 0.29035 0.57367 0.54136
 C743 C 0.24746 0.60848 0.54583
 H744 H 0.23580 0.61867 0.54704
 C745 C 0.25354 0.59856 0.56208
 H746 H 0.24624 0.60114 0.57553
 N747 N 0.25648 0.60579 0.52875
 C748 C 0.23399 0.61565 0.47214
 H749 H 0.23355 0.63102 0.47211
 C750 C 0.22745 0.60618 0.45660
 H751 H 0.22198 0.61445 0.44467
 C752 C 0.24156 0.58643 0.48800
 H753 H 0.24692 0.57884 0.50037
 C754 C 0.23508 0.57632 0.47271
 H755 H 0.23563 0.56094 0.47344
 Zn756 Zn 0.24927 0.62079 0.50725
 N757 N 0.24106 0.60576 0.48733
 C758 C 0.27797 0.63225 0.48094
 N759 N 0.27062 0.63481 0.49877
 C760 C 0.27873 0.64677 0.51086
 C761 C 0.29453 0.65721 0.50490
 C762 C 0.29372 0.64234 0.47444
 C763 C 0.21187 0.62859 0.51841
 C764 C 0.19570 0.63942 0.52329
 C765 C 0.21386 0.66780 0.51809
 C766 C 0.22971 0.65639 0.51325
 N767 N 0.22849 0.63714 0.51377
 H768 H 0.27176 0.62228 0.47171
 H769 H 0.27284 0.64825 0.52511
 H770 H 0.30066 0.66679 0.51467
 H771 H 0.29919 0.64010 0.46013
 H772 H 0.21124 0.61326 0.51841
 H773 H 0.18270 0.63223 0.52712
 H774 H 0.21515 0.68309 0.51775
 H775 H 0.24291 0.66295 0.50907
 C776 C 0.22796 0.58623 0.45669
 C777 C 0.26920 0.58585 0.56085
 C778 C 0.19658 0.65932 0.52330
 C779 C 0.30216 0.65513 0.48641
 C780 C 0.76110 0.89420 0.49064
 H781 H 0.76834 0.89353 0.50401
 C782 C 0.76873 0.90462 0.47520
 H783 H 0.78180 0.91207 0.47690
 C784 C 0.73571 0.88459 0.47205
 H785 H 0.72309 0.87642 0.47067
 C786 C 0.74279 0.89484 0.45628
 H787 H 0.73534 0.89451 0.44305
 N788 N 0.74491 0.88439 0.48879
 C789 C 0.71907 0.87310 0.54485
 H790 H 0.71675 0.85807 0.54356
 C791 C 0.71314 0.88227 0.56135
 H792 H 0.70619 0.87413 0.57267
 C793 C 0.73110 0.90175 0.53153
 H794 H 0.73808 0.90927 0.51985
 C795 C 0.72539 0.91152 0.54783
 H796 H 0.72809 0.92654 0.54851
 Zn797 Zn 0.73643 0.86849 0.50929
 N798 N 0.72815 0.88280 0.53049
 C799 C 0.76271 0.85149 0.53460
 N800 N 0.75711 0.85222 0.51626
 C801 C 0.76705 0.84270 0.50250
 C802 C 0.78352 0.83215 0.50696
 C803 C 0.77892 0.84100 0.53971
 C804 C 0.69896 0.86445 0.49938
 C805 C 0.68291 0.85547 0.49330
 C806 C 0.70113 0.82593 0.49240
 C807 C 0.71687 0.83550 0.49862
 N808 N 0.71556 0.85448 0.50168
 H809 H 0.75495 0.85942 0.54530
 H810 H 0.76245 0.84375 0.48796
 H811 H 0.79146 0.82500 0.49576
 H812 H 0.78322 0.84096 0.55436
 H813 H 0.69831 0.87950 0.50206
 H814 H 0.66995 0.86382 0.49131
 H815 H 0.70250 0.81089 0.48975
 H816 H 0.73015 0.82781 0.50077
 C817 C 0.71643 0.90171 0.56311
 C818 C 0.75966 0.90485 0.45764
 C819 C 0.68389 0.83599 0.48951
 C820 C 0.78976 0.83139 0.52577
 C821 C -0.00922 0.26109 0.39391
 H822 H 0.00418 0.26827 0.39323
 C823 C -0.02460 0.26878 0.40436
 H824 H -0.02281 0.28183 0.41181
 C825 C -0.02795 0.23581 0.38431
 H826 H -0.02940 0.22322 0.37612
 C827 C -0.04365 0.24296 0.39458
 H828 H -0.05692 0.23558 0.39426
 N829 N -0.01116 0.24493 0.38410
 C830 C 0.04477 0.21897 0.37268
 H831 H 0.04345 0.21670 0.35764
 C832 C 0.06126 0.21296 0.38183
 H833 H 0.07254 0.20602 0.37365
 C834 C 0.03153 0.23092 0.40139
 H835 H 0.01988 0.23789 0.40895
 C836 C 0.04783 0.22513 0.41114
 H837 H 0.04853 0.22777 0.42618
 Zn838 Zn 0.00926 0.23641 0.36814
 N839 N 0.03046 0.22804 0.38243
 C840 C 0.03456 0.26267 0.35112
 N841 N 0.01622 0.25708 0.35187
 C842 C 0.00247 0.26703 0.34236
 C843 C 0.00692 0.28352 0.33181
 C844 C 0.03965 0.27889 0.34063
 C845 C -0.00082 0.19899 0.36411
 C846 C -0.00694 0.18296 0.35512
 C847 C -0.00771 0.20119 0.32554
 C848 C -0.00146 0.21690 0.33513
 N849 N 0.00155 0.21558 0.35413
 H850 H 0.04526 0.25489 0.35904
 H851 H -0.01207 0.26245 0.34342
 H852 H -0.00429 0.29147 0.32466
 H853 H 0.05430 0.28319 0.34057
 H854 H 0.00183 0.19832 0.37918
 H855 H -0.00897 0.17001 0.36347
 H856 H -0.01031 0.20257 0.31048
 H857 H 0.00074 0.23018 0.32743
 C858 C 0.06306 0.21617 0.40129
 C859 C -0.04219 0.25980 0.40460
 C860 C -0.01067 0.18396 0.33561
 C861 C 0.02572 0.28975 0.33103
 C862 C 1.02696 0.77162 0.09289
 H863 H 1.01328 0.77875 0.09124
 C864 C 1.04286 0.77822 0.08266
 H865 H 1.04123 0.79038 0.07305
 C866 C 1.04573 0.74754 0.10798
 H867 H 1.04695 0.73590 0.11821
 C868 C 1.06197 0.75363 0.09806
 H869 H 1.07542 0.74636 0.10067
 N870 N 1.02865 0.75654 0.10526
 C871 C 0.97211 0.73405 0.11531
 H872 H 0.97213 0.73365 0.13069
 C873 C 0.95654 0.72746 0.10590
 H874 H 0.94465 0.72201 0.11425
 C875 C 0.98785 0.74155 0.08600
 H876 H 1.00017 0.74691 0.07835
 C877 C 0.97252 0.73503 0.07595
 H878 H 0.97320 0.73553 0.06057
 Zn879 Zn 1.00719 0.74935 0.12031
 N880 N 0.98724 0.74111 0.10534
 C881 C 0.98093 0.77807 0.13174
 N882 N 0.99875 0.77072 0.13430
 C883 C 1.01085 0.77885 0.14623
 C884 C 1.00492 0.79466 0.15665
 C885 C 0.97444 0.79383 0.14180
 C886 C 1.01836 0.71197 0.12819
 C887 C 1.02324 0.69583 0.13906
 C888 C 1.01812 0.71402 0.16742
 C889 C 1.01328 0.72986 0.15597
 N890 N 1.01375 0.72861 0.13671
 H891 H 0.97168 0.77184 0.12178
 H892 H 1.02510 0.77297 0.14771
 H893 H 1.01470 0.80081 0.16621
 H894 H 0.96014 0.79930 0.13957
 H895 H 1.01832 0.71132 0.11285
 H896 H 1.02704 0.68281 0.13189
 H897 H 1.01781 0.71534 0.18272
 H898 H 1.00911 0.74307 0.16251
 C899 C 0.95656 0.72792 0.08595
 C900 C 1.06072 0.76928 0.08531
 C901 C 1.02329 0.69673 0.15897
 C902 C 0.98643 0.80229 0.15456
 C903 C 0.52708 0.27168 0.59280
 H904 H 0.51340 0.27881 0.59116
 C905 C 0.54299 0.27828 0.58258
 H906 H 0.54136 0.29045 0.57298
 C907 C 0.54585 0.24758 0.60787
 H908 H 0.54706 0.23593 0.61808
 C909 C 0.56208 0.25367 0.59795
 H910 H 0.57553 0.24639 0.60055
 N911 N 0.52877 0.25658 0.60515
 C912 C 0.47221 0.23411 0.61512
 H913 H 0.47220 0.23371 0.63050
 C914 C 0.45666 0.22754 0.60568
 H915 H 0.44475 0.22209 0.61399
 C916 C 0.48801 0.24161 0.58585
 H917 H 0.50036 0.24695 0.57822
 C918 C 0.47271 0.23510 0.57576
 H919 H 0.47341 0.23560 0.56038
 Zn920 Zn 0.50730 0.24939 0.62019
 N921 N 0.48737 0.24116 0.60519
 C922 C 0.48103 0.27811 0.63164
 N923 N 0.49885 0.27075 0.63418
 C924 C 0.51096 0.27887 0.64611
 C925 C 0.50504 0.29467 0.65655
 C926 C 0.47455 0.29385 0.64172
 C927 C 0.51848 0.21200 0.62809
 C928 C 0.52337 0.19587 0.63898
 C929 C 0.51816 0.21408 0.66732
 C930 C 0.51333 0.22990 0.65585
 N931 N 0.51384 0.22864 0.63659
 H932 H 0.47178 0.27188 0.62168
 H933 H 0.52521 0.27299 0.64758
 H934 H 0.51483 0.30081 0.66611
 H935 H 0.46025 0.29932 0.63950
 H936 H 0.51848 0.21134 0.61275
 H937 H 0.52719 0.18285 0.63182
 H938 H 0.51782 0.21540 0.68262
 H939 H 0.50914 0.24311 0.66238
 C940 C 0.45671 0.22800 0.58572
 C941 C 0.56085 0.26933 0.58522
 C942 C 0.52337 0.19678 0.65889
 C943 C 0.48654 0.30230 0.65449
 C944 C 0.49072 0.76143 0.89367
 H945 H 0.50411 0.76863 0.89299
 C946 C 0.47531 0.76912 0.90408
 H947 H 0.47706 0.78219 0.91150
 C948 C 0.47206 0.73608 0.88411
 H949 H 0.47064 0.72346 0.87596
 C950 C 0.45633 0.74323 0.89434
 H951 H 0.44308 0.73582 0.89402
 N952 N 0.48882 0.74524 0.88390
 C953 C 0.54477 0.71926 0.87265
 H954 H 0.54347 0.71693 0.85762
 C955 C 0.56124 0.71326 0.88185
 H956 H 0.57254 0.70629 0.87372
 C957 C 0.53149 0.73132 0.90130
 H958 H 0.51984 0.73832 0.90881
 C959 C 0.54777 0.72555 0.91110
 H960 H 0.54845 0.72824 0.92613
 Zn961 Zn 0.50928 0.73669 0.86800
 N962 N 0.53045 0.72837 0.88235
 C963 C 0.53462 0.76289 0.85095
 N964 N 0.51628 0.75732 0.85169
 C965 C 0.50254 0.76728 0.84215
 C966 C 0.50702 0.78376 0.83160
 C967 C 0.53974 0.77910 0.84045
 C968 C 0.49928 0.69924 0.86407
 C969 C 0.49319 0.68317 0.85513
 C970 C 0.49235 0.70132 0.82551
 C971 C 0.49858 0.71708 0.83504
 N972 N 0.50161 0.71581 0.85404
 H973 H 0.54530 0.75511 0.85889
 H974 H 0.48800 0.76272 0.84321
 H975 H 0.49583 0.79173 0.82444
 H976 H 0.55439 0.78338 0.84041
 H977 H 0.50195 0.69863 0.87914
 H978 H 0.49119 0.67024 0.86353
 H979 H 0.48972 0.70265 0.81044
 H980 H 0.50074 0.73034 0.82730
 C981 C 0.56301 0.71654 0.90131
 C982 C 0.45774 0.76010 0.90432
 C983 C 0.48944 0.68411 0.83563
 C984 C 0.52583 0.78997 0.83084
 N985 N 0.45927 -0.15381 0.30170
 C986 C 0.45160 -0.13898 0.31140
 N987 N 0.45007 -0.14036 0.33060
 N988 N 0.45603 -0.15607 0.33983
 C989 C 0.46374 -0.17105 0.33025
 N990 N 0.46524 -0.16953 0.31095
 C991 C 0.44479 -0.12214 0.30155
 C992 C 0.43870 -0.10794 0.29361
 C993 C 0.43098 -0.09108 0.28449
 N994 N 0.43144 -0.07411 0.29307
 N995 N 0.42342 -0.05864 0.28505
 C996 C 0.41461 -0.05958 0.26816
 N997 N 0.41431 -0.07663 0.25959
 N998 N 0.42232 -0.09209 0.26760
 N999 N 0.95860 0.34638 0.80239
 C1000 C 0.95090 0.36118 0.81213
 N1001 N 0.94927 0.35971 0.83133
 N1002 N 0.95519 0.34396 0.84052
 C1003 C 0.96291 0.32906 0.83087
 N1004 N 0.96452 0.33061 0.81160
 C1005 C 0.94413 0.37806 0.80231
 C1006 C 0.93809 0.39228 0.79439
 C1007 C 0.93040 0.40916 0.78527
 N1008 N 0.93083 0.42611 0.79389
 N1009 N 0.92284 0.44160 0.78586
 C1010 C 0.91410 0.44070 0.76893
 N1011 N 0.91383 0.42366 0.76032
 N1012 N 0.92182 0.40818 0.76834
 N1013 N 0.01888 1.15694 0.82422
 C1014 C 0.03520 1.15790 0.81364
 N1015 N 0.04395 1.17477 0.81155
 N1016 N 0.03664 1.19019 0.81987
 C1017 C 0.02031 1.18930 0.83058
 N1018 N 0.01158 1.17235 0.83252
 C1019 C 0.04339 1.14110 0.80530
 C1020 C 0.05036 1.12689 0.79859
 C1021 C 0.05885 1.10993 0.79085
 N1022 N 0.07047 1.11094 0.77523
 N1023 N 0.07881 1.09527 0.76839
 C1024 C 0.07584 1.07801 0.77690
 N1025 N 0.06410 1.07708 0.79253
 N1026 N 0.05576 1.09276 0.79938
 N1027 N 0.51892 0.65745 0.32344
 C1028 C 0.53515 0.65835 0.31273
 N1029 N 0.54392 0.67520 0.31050
 N1030 N 0.53670 0.69067 0.31880
 C1031 C 0.52046 0.68985 0.32964
 N1032 N 0.51171 0.67291 0.33174
 C1033 C 0.54326 0.64151 0.30440
 C1034 C 0.55017 0.62727 0.29769
 C1035 C 0.55861 0.61029 0.28994
 N1036 N 0.57018 0.61128 0.27428
 N1037 N 0.57849 0.59559 0.26744
 C1038 C 0.57555 0.57834 0.27599
 N1039 N 0.56386 0.57744 0.29166
 N1040 N 0.55554 0.59313 0.29851
 N1041 N 0.52712 0.35008 0.19274
 C1042 C 0.53414 0.36505 0.18253
 N1043 N 0.53510 0.36432 0.16333
 N1044 N 0.52924 0.34911 0.15457
 C1045 C 0.52226 0.33401 0.16468
 N1046 N 0.52124 0.33485 0.18396
 C1047 C 0.54155 0.38104 0.19183
 C1048 C 0.54853 0.39442 0.19906
 C1049 C 0.55780 0.41015 0.20701
 N1050 N 0.54770 0.42552 0.21326
 N1051 N 0.55659 0.44033 0.21995
 C1052 C 0.57588 0.44031 0.22056
 N1053 N 0.58585 0.42482 0.21431
 N1054 N 0.57699 0.41004 0.20765
 N1055 N 0.02690 0.85008 0.69334
 C1056 C 0.03396 0.86505 0.68316
 N1057 N 0.03491 0.86434 0.66395
 N1058 N 0.02902 0.84916 0.65517
 C1059 C 0.02200 0.83406 0.66525
 N1060 N 0.02099 0.83488 0.68454
 C1061 C 0.04141 0.88100 0.69248
 C1062 C 0.04842 0.89435 0.69973
 C1063 C 0.05774 0.91004 0.70770
 N1064 N 0.04768 0.92543 0.71397
 N1065 N 0.05661 0.94020 0.72068
 C1066 C 0.07590 0.94013 0.72129
 N1067 N 0.08583 0.92462 0.71501
 N1068 N 0.07693 0.90988 0.70833
 N1069 N 0.97147 0.66149 0.67419
 C1070 C 0.95407 0.66219 0.68287
 N1071 N 0.94458 0.67913 0.68402
 N1072 N 0.95220 0.69488 0.67661
 C1073 C 0.96959 0.69426 0.66775
 N1074 N 0.97908 0.67724 0.66678
 C1075 C 0.94539 0.64505 0.68977
 C1076 C 0.93789 0.63059 0.69509
 C1077 C 0.92861 0.61342 0.70093
 N1078 N 0.90989 0.61150 0.69774
 N1079 N 0.90124 0.59550 0.70283
 C1080 C 0.91098 0.58079 0.71127
 N1081 N 0.92977 0.58279 0.71443
 N1082 N 0.93844 0.59881 0.70933
 N1083 N 0.44510 0.17886 0.18351
 C1084 C 0.45462 0.16193 0.18235
 N1085 N 0.47203 0.16126 0.17371
 N1086 N 0.47964 0.17702 0.16634
 C1087 C 0.47013 0.19403 0.16731
 N1088 N 0.45273 0.19463 0.17613
 C1089 C 0.44594 0.14476 0.18921
 C1090 C 0.43843 0.13030 0.19449
 C1091 C 0.42914 0.11311 0.20028
 N1092 N 0.43897 0.09849 0.20867
 N1093 N 0.43029 0.08247 0.21374
 C1094 C 0.41150 0.08048 0.21056
 N1095 N 0.40177 0.09520 0.20213
 N1096 N 0.41043 0.11121 0.19707
 N1097 N 0.33067 0.44950 -0.13976
 C1098 C 0.31147 0.45090 -0.13842
 N1099 N 0.30174 0.45850 -0.15328
 N1100 N 0.31096 0.46454 -0.16900
 C1101 C 0.33024 0.46315 -0.17044
 N1102 N 0.33988 0.45552 -0.15547
 C1103 C 0.30164 0.44401 -0.12158
 C1104 C 0.29373 0.43787 -0.10739
 C1105 C 0.28461 0.43007 -0.09055
 N1106 N 0.26774 0.42143 -0.09160
 N1107 N 0.25972 0.41337 -0.07614
 C1108 C 0.26829 0.41362 -0.05907
 N1109 N 0.28517 0.42241 -0.05810
 N1110 N 0.29319 0.43048 -0.07356
 N1111 N 0.80139 0.95916 0.34618
 C1112 C 0.81113 0.95160 0.36106
 N1113 N 0.83033 0.95015 0.35968
 N1114 N 0.83952 0.95609 0.34393
 C1115 C 0.82988 0.96367 0.32895
 N1116 N 0.81061 0.96511 0.33041
 C1117 C 0.80132 0.94481 0.37794
 C1118 C 0.79343 0.93873 0.39217
 C1119 C 0.78435 0.93102 0.40907
 N1120 N 0.79298 0.93146 0.42603
 N1121 N 0.78500 0.92345 0.44153
 C1122 C 0.76810 0.91466 0.44064
 N1123 N 0.75948 0.91438 0.42360
 N1124 N 0.76746 0.92239 0.40810
 N1125 N 0.81096 0.04358 1.17495
 C1126 C 0.81342 0.03499 1.15803
 N1127 N 0.82439 0.01895 1.15707
 N1128 N 0.83272 0.01175 1.17253
 C1129 C 0.83044 0.02032 1.18957
 N1130 N 0.81930 0.03637 1.19042
 C1131 C 0.80506 0.04311 1.14119
 C1132 C 0.79834 0.05001 1.12693
 C1133 C 0.79059 0.05845 1.10993
 N1134 N 0.79911 0.05534 1.09276
 N1135 N 0.79225 0.06365 1.07705
 C1136 C 0.77664 0.07540 1.07795
 N1137 N 0.76813 0.07839 1.09522
 N1138 N 0.77498 0.07008 1.11092
 N1139 N 0.31094 0.54405 0.67507
 C1140 C 0.31314 0.53533 0.65819
 N1141 N 0.32382 0.51909 0.65727
 N1142 N 0.33212 0.51183 0.67272
 C1143 C 0.33006 0.52053 0.68968
 N1144 N 0.31924 0.53678 0.69054
 C1145 C 0.30482 0.54349 0.64135
 C1146 C 0.29812 0.55045 0.62711
 C1147 C 0.29039 0.55894 0.61013
 N1148 N 0.29893 0.55589 0.59296
 N1149 N 0.29209 0.56425 0.57727
 C1150 C 0.27646 0.57598 0.57818
 N1151 N 0.26793 0.57890 0.59545
 N1152 N 0.27476 0.57055 0.61113
 N1153 N 0.19304 0.52701 0.35014
 C1154 C 0.18286 0.53407 0.36509
 N1155 N 0.16366 0.53502 0.36437
 N1156 N 0.15489 0.52911 0.34918
 C1157 C 0.16498 0.52209 0.33409
 N1158 N 0.18425 0.52108 0.33492
 C1159 C 0.19217 0.54153 0.38106
 C1160 C 0.19940 0.54856 0.39441
 C1161 C 0.20736 0.55789 0.41011
 N1162 N 0.20797 0.57708 0.40992
 N1163 N 0.21463 0.58600 0.42468
 C1164 C 0.22091 0.57607 0.44021
 N1165 N 0.22032 0.55678 0.44030
 N1166 N 0.21363 0.54785 0.42552
 N1167 N 0.66347 0.03569 0.86371
 C1168 C 0.68262 0.03408 0.86470
 N1169 N 0.69272 0.02643 0.85000
 N1170 N 0.68390 0.02057 0.83478
 C1171 C 0.66466 0.02223 0.83363
 N1172 N 0.65468 0.02986 0.84851
 C1173 C 0.69200 0.04144 0.88067
 C1174 C 0.69929 0.04839 0.89404
 C1175 C 0.70731 0.05765 0.90974
 N1176 N 0.71354 0.04755 0.92515
 N1177 N 0.72029 0.05642 0.93994
 C1178 C 0.72098 0.07571 0.93987
 N1179 N 0.71476 0.08568 0.92435
 N1180 N 0.70804 0.07684 0.90959
 N1181 N 0.68386 0.94508 0.67931
 C1182 C 0.68270 0.95460 0.66236
 N1183 N 0.67408 0.97202 0.66167
 N1184 N 0.66674 0.97964 0.67744
 C1185 C 0.66771 0.97013 0.69447
 N1186 N 0.67651 0.95271 0.69508
 C1187 C 0.68952 0.94592 0.64518
 C1188 C 0.69476 0.93841 0.63071
 C1189 C 0.70052 0.92913 0.61351
 N1190 N 0.69728 0.91043 0.61160
 N1191 N 0.70230 0.90178 0.59558
 C1192 C 0.71073 0.91151 0.58084
 N1193 N 0.71394 0.93029 0.58284
 N1194 N 0.70891 0.93896 0.59888
 N1195 N 0.18363 0.44442 0.17921
 C1196 C 0.18249 0.45389 0.16223
 N1197 N 0.17386 0.47130 0.16148
 N1198 N 0.16650 0.47897 0.17721
 C1199 C 0.16746 0.46951 0.19428
 N1200 N 0.17626 0.45210 0.19495
 C1201 C 0.18934 0.44515 0.14510
 C1202 C 0.19462 0.43760 0.13066
 C1203 C 0.20041 0.42827 0.11350
 N1204 N 0.20880 0.43805 0.09885
 N1205 N 0.21387 0.42934 0.08284
 C1206 C 0.21068 0.41055 0.08091
 N1207 N 0.20226 0.40085 0.09567
 N1208 N 0.19720 0.40954 0.11165
 N1209 N -0.15332 0.30202 0.45895
 C1210 C -0.13843 0.31172 0.45138
 N1211 N -0.13974 0.33091 0.44991
 N1212 N -0.15545 0.34015 0.45585
 C1213 C -0.17045 0.33055 0.46345
 N1214 N -0.16904 0.31128 0.46490
 C1215 C -0.12160 0.30185 0.44458
 C1216 C -0.10742 0.29390 0.43850
 C1217 C -0.09058 0.28474 0.43078
 N1218 N -0.07358 0.29327 0.43122
 N1219 N -0.05814 0.28521 0.42320
 C1220 C -0.05913 0.26833 0.41442
 N1221 N -0.07621 0.25980 0.41414
 N1222 N -0.09165 0.26786 0.42215
 N1223 N 0.34651 0.80214 0.95861
 C1224 C 0.36134 0.81186 0.95094
 N1225 N 0.35993 0.83104 0.94935
 N1226 N 0.34420 0.84025 0.95527
 C1227 C 0.32926 0.83063 0.96297
 N1228 N 0.33076 0.81136 0.96454
 C1229 C 0.37820 0.80202 0.94416
 C1230 C 0.39241 0.79410 0.93811
 C1231 C 0.40927 0.78497 0.93041
 N1232 N 0.42624 0.79355 0.93084
 N1233 N 0.44171 0.78551 0.92285
 C1234 C 0.44077 0.76861 0.91411
 N1235 N 0.42372 0.76003 0.91384
 N1236 N 0.40825 0.76806 0.92182
 N1237 N 1.15708 0.82411 0.01871
 C1238 C 1.15800 0.81346 0.03499
 N1239 N 1.17486 0.81132 0.04377
 N1240 N 1.19031 0.81965 0.03651
 C1241 C 1.18946 0.83043 0.02022
 N1242 N 1.17252 0.83243 0.01147
 C1243 C 1.14118 0.80509 0.04313
 C1244 C 1.12695 0.79835 0.05006
 C1245 C 1.10998 0.79058 0.05850
 N1246 N 1.11099 0.77495 0.07012
 N1247 N 1.09531 0.76807 0.07843
 C1248 C 1.07804 0.77657 0.07546
 N1249 N 1.07713 0.79221 0.06373
 N1250 N 1.09281 0.79909 0.05541
 N1251 N 0.67501 0.31133 0.54381
 C1252 C 0.65817 0.31353 0.53501
 N1253 N 0.65728 0.32425 0.51877
 N1254 N 0.67274 0.33257 0.51158
 C1255 C 0.68966 0.33051 0.52035
 N1256 N 0.69048 0.31966 0.53660
 C1257 C 0.64133 0.30516 0.54311
 C1258 C 0.62709 0.29842 0.55000
 C1259 C 0.61011 0.29064 0.55843
 N1260 N 0.59294 0.29915 0.55534
 N1261 N 0.57726 0.29227 0.56365
 C1262 C 0.57817 0.27662 0.57537
 N1263 N 0.59543 0.26812 0.57834
 N1264 N 0.61112 0.27500 0.57003
 N1265 N 0.36444 0.16342 0.53481
 C1266 C 0.36513 0.18262 0.53380
 N1267 N 0.35015 0.19276 0.52672
 N1268 N 0.33495 0.18392 0.52084
 C1269 C 0.33415 0.16465 0.52191
 N1270 N 0.34926 0.15461 0.52895
 C1271 C 0.38108 0.19197 0.54122
 C1272 C 0.39443 0.19925 0.54821
 C1273 C 0.41013 0.20726 0.55749
 N1274 N 0.42552 0.21351 0.54740
 N1275 N 0.44030 0.22025 0.55630
 C1276 C 0.44023 0.22090 0.57560
 N1277 N 0.42473 0.21465 0.58557
 N1278 N 0.40997 0.20794 0.57669
 N1279 N 0.86405 0.66334 0.03542
 C1280 C 0.86483 0.68253 0.03428
 N1281 N 0.84990 0.69268 0.02713
 N1282 N 0.83466 0.68388 0.02130
 C1283 C 0.83377 0.66462 0.02250
 N1284 N 0.84883 0.65456 0.02961
 C1285 C 0.88082 0.69186 0.04165
 C1286 C 0.89419 0.69913 0.04859
 C1287 C 0.90991 0.70714 0.05784
 N1288 N 0.92527 0.71340 0.04771
 N1289 N 0.94008 0.72015 0.05657
 C1290 C 0.94005 0.72081 0.07587
 N1291 N 0.92458 0.71454 0.08588
 N1292 N 0.90981 0.70782 0.07704
 N1293 N 0.67896 0.68337 0.94487
 C1294 C 0.66201 0.68233 0.95439
 N1295 N 0.66127 0.67376 0.97184
 N1296 N 0.67699 0.66635 0.97951
 C1297 C 0.69402 0.66721 0.97001
 N1298 N 0.69468 0.67595 0.95255
 C1299 C 0.64489 0.68924 0.94566
 C1300 C 0.63046 0.69456 0.93812
 C1301 C 0.61330 0.70041 0.92881
 N1302 N 0.61139 0.69719 0.91009
 N1303 N 0.59541 0.70229 0.90141
 C1304 C 0.58071 0.71077 0.91113
 N1305 N 0.58270 0.71395 0.92993
 N1306 N 0.59871 0.70884 0.93862
 N1307 N 0.17915 0.18311 0.44456
 C1308 C 0.16222 0.18197 0.45409
 N1309 N 0.16154 0.17332 0.47152
 N1310 N 0.17729 0.16594 0.47913
 C1311 C 0.19431 0.16690 0.46961
 N1312 N 0.19491 0.17572 0.45219
 C1313 C 0.14507 0.18885 0.44542
 C1314 C 0.13060 0.19416 0.43792
 C1315 C 0.11342 0.20000 0.42866
 N1316 N 0.09883 0.20839 0.43853
 N1317 N 0.08280 0.21351 0.42987
 C1318 C 0.08078 0.21038 0.41107
 N1319 N 0.09547 0.20195 0.40130
 N1320 N 0.11148 0.19684 0.40993
 N1321 N 0.55257 0.08716 0.72395
 C1322 C 0.56240 0.10331 0.72102
 N1323 N 0.58077 0.10362 0.72621
 N1324 N 0.58909 0.08822 0.73401
 C1325 C 0.57939 0.07193 0.73689
 N1326 N 0.56091 0.07175 0.73178
 C1327 C 0.55398 0.11951 0.71139
 C1328 C 0.54750 0.13308 0.70274
 C1329 C 0.54047 0.14912 0.69181
 N1330 N 0.53572 0.16572 0.70024
 N1331 N 0.53007 0.18082 0.68983
 C1332 C 0.52903 0.17988 0.67062
 N1333 N 0.53375 0.16316 0.66229
 N1334 N 0.53938 0.14808 0.67269
 N1335 N 1.08072 0.60337 0.22599
 C1336 C 1.06232 0.60313 0.22090
 N1337 N 1.05245 0.58701 0.22386
 N1338 N 1.06078 0.57156 0.23164
 C1339 C 1.07929 0.57168 0.23666
 N1340 N 1.08903 0.58794 0.23374
 C1341 C 1.05390 0.61936 0.21132
 C1342 C 1.04742 0.63296 0.20271
 C1343 C 1.04039 0.64901 0.19181
 N1344 N 1.03925 0.64799 0.17269
 N1345 N 1.03362 0.66309 0.16233
 C1346 C 1.02895 0.67981 0.17068
 N1347 N 1.03005 0.68073 0.18989
 N1348 N 1.03570 0.66561 0.20027
 N1349 N 0.92385 0.89152 0.22005
 C1350 C 0.94236 0.89307 0.21468
 N1351 N 0.95119 0.90960 0.21748
 N1352 N 0.94172 0.92415 0.22537
 C1353 C 0.92309 0.92270 0.23067
 N1354 N 0.91440 0.90605 0.22791
 C1355 C 0.95195 0.87776 0.20504
 C1356 C 0.95907 0.86469 0.19647
 C1357 C 0.96638 0.84897 0.18574
 N1358 N 0.98425 0.84185 0.18824
 N1359 N 0.99071 0.82707 0.17829
 C1360 C 0.97952 0.81888 0.16553
 N1361 N 0.96166 0.82614 0.16313
 N1362 N 0.95521 0.84089 0.17304
 N1363 N 0.45137 0.40944 0.71770
 C1364 C 0.44253 0.39292 0.71488
 N1365 N 0.42404 0.39135 0.72031
 N1366 N 0.41462 0.40586 0.72824
 C1367 C 0.42332 0.42251 0.73102
 N1368 N 0.44193 0.42396 0.72566
 C1369 C 0.45210 0.37763 0.70518
 C1370 C 0.45920 0.36459 0.69656
 C1371 C 0.46651 0.34890 0.68578
 N1372 N 0.45533 0.34086 0.67306
 N1373 N 0.46178 0.32613 0.66311
 C1374 C 0.47964 0.31887 0.66549
 N1375 N 0.49083 0.32701 0.67828
 N1376 N 0.48438 0.34177 0.68826
 N1377 N 0.42852 0.58217 0.80315
 C1378 C 0.43982 0.59142 0.79031
 N1379 N 0.44146 0.58504 0.77232
 N1380 N 0.43203 0.56985 0.76737
 C1381 C 0.42065 0.56051 0.78023
 N1382 N 0.41911 0.56702 0.79821
 C1383 C 0.44988 0.60770 0.79594
 C1384 C 0.45791 0.62121 0.80171
 C1385 C 0.46696 0.63700 0.80976
 N1386 N 0.47260 0.63576 0.82801
 N1387 N 0.48000 0.65065 0.83606
 C1388 C 0.48203 0.66736 0.82621
 N1389 N 0.47646 0.66849 0.80784
 N1390 N 0.46903 0.65358 0.79977
 N1391 N -0.07187 0.08237 0.30268
 C1392 C -0.06045 0.09157 0.28990
 N1393 N -0.05872 0.08518 0.27192
 N1394 N -0.06819 0.07003 0.26691
 C1395 C -0.07969 0.06075 0.27970
 N1396 N -0.08131 0.06726 0.29768
 C1397 C -0.05035 0.10779 0.29561
 C1398 C -0.04228 0.12126 0.30143
 C1399 C -0.03320 0.13699 0.30956
 N1400 N -0.03108 0.15360 0.29962
 N1401 N -0.02363 0.16846 0.30775
 C1402 C -0.01810 0.16726 0.32612
 N1403 N -0.02018 0.15053 0.33593
 N1404 N -0.02761 0.13569 0.32781
 N1405 N 0.06533 0.40513 0.30474
 C1406 C 0.05795 0.39509 0.29069
 N1407 N 0.05889 0.40213 0.27258
 N1408 N 0.06706 0.41870 0.26866
 C1409 C 0.07465 0.42875 0.28270
 N1410 N 0.07351 0.42164 0.30082
 C1411 C 0.05058 0.37663 0.29498
 C1412 C 0.04530 0.36097 0.29950
 C1413 C 0.04017 0.34227 0.30597
 N1414 N 0.02172 0.33725 0.30739
 N1415 N 0.01710 0.32034 0.31489
 C1416 C 0.03075 0.30792 0.32130
 N1417 N 0.04920 0.31302 0.31965
 N1418 N 0.05382 0.32987 0.31214
 N1419 N 0.56563 0.90532 0.80478
 C1420 C 0.55824 0.89532 0.79071
 N1421 N 0.55920 0.90240 0.77261
 N1422 N 0.56738 0.91897 0.76873
 C1423 C 0.57497 0.92899 0.78280
 N1424 N 0.57382 0.92184 0.80090
 C1425 C 0.55085 0.87687 0.79496
 C1426 C 0.54555 0.86121 0.79944
 C1427 C 0.54037 0.84250 0.80586
 N1428 N 0.52191 0.83751 0.80728
 N1429 N 0.51726 0.82060 0.81474
 C1430 C 0.53090 0.80814 0.82113
 N1431 N 0.54935 0.81321 0.81949
 N1432 N 0.55400 0.83006 0.81201
 N1433 N 0.72433 0.55288 0.08666
 C1434 C 0.72069 0.56291 0.10256
 N1435 N 0.72510 0.58150 0.10258
 N1436 N 0.73282 0.58984 0.08715
 C1437 C 0.73639 0.57999 0.07101
 N1438 N 0.73207 0.56125 0.07121
 C1439 C 0.71116 0.55441 0.11878
 C1440 C 0.70259 0.54787 0.13237
 C1441 C 0.69171 0.54077 0.14843
 N1442 N 0.70019 0.53609 0.16504
 N1443 N 0.68983 0.53040 0.18017
 C1444 C 0.67063 0.52926 0.17924
 N1445 N 0.66227 0.53391 0.16251
 N1446 N 0.67261 0.53959 0.14740
 N1447 N 0.22403 1.05205 0.58714
 C1448 C 0.22111 1.06193 0.60327
 N1449 N 0.22627 1.08031 0.60349
 N1450 N 0.23402 1.08859 0.58804
 C1451 C 0.23689 1.07884 0.57177
 N1452 N 0.23181 1.06035 0.57168
 C1453 C 0.21153 1.05354 0.61952
 C1454 C 0.20292 1.04710 0.63314
 C1455 C 0.19202 1.04011 0.64922
 N1456 N 0.20048 1.03537 0.66582
 N1457 N 0.19011 1.02976 0.68097
 C1458 C 0.17090 1.02875 0.68006
 N1459 N 0.16254 1.03347 0.66334
 N1460 N 0.17290 1.03906 0.64821
 N1461 N 0.21874 0.95092 0.90959
 C1462 C 0.21489 0.94185 0.89347
 N1463 N 0.21923 0.92308 0.89230
 N1464 N 0.22708 0.91361 0.90684
 C1465 C 0.23088 0.92249 0.92319
 N1466 N 0.22663 0.94144 0.92415
 C1467 C 0.20531 0.95153 0.87815
 C1468 C 0.19676 0.95871 0.86508
 C1469 C 0.18604 0.96607 0.84935
 N1470 N 0.17329 0.95495 0.84128
 N1471 N 0.16338 0.96144 0.82653
 C1472 C 0.16583 0.97930 0.81926
 N1473 N 0.17864 0.99043 0.82744
 N1474 N 0.18859 0.98393 0.84223
 N1475 N 0.71789 0.45178 0.40920
 C1476 C 0.71510 0.44294 0.39267
 N1477 N 0.72055 0.42446 0.39113
 N1478 N 0.72846 0.41504 0.40567
 C1479 C 0.73120 0.42374 0.42233
 N1480 N 0.72583 0.44235 0.42376
 C1481 C 0.70541 0.45249 0.37735
 C1482 C 0.69680 0.45958 0.36427
 C1483 C 0.68603 0.46686 0.34854
 N1484 N 0.67333 0.45566 0.34050
 N1485 N 0.66338 0.46208 0.32575
 C1486 C 0.66575 0.47994 0.31845
 N1487 N 0.67851 0.49115 0.32660
 N1488 N 0.68849 0.48472 0.34139
 N1489 N 0.77236 0.44184 0.58510
 C1490 C 0.79033 0.44016 0.59152
 N1491 N 0.80315 0.42884 0.58229
 N1492 N 0.79820 0.41945 0.56712
 C1493 C 0.78024 0.42103 0.56057
 N1494 N 0.76740 0.43243 0.56989
 C1495 C 0.79597 0.45018 0.60782
 C1496 C 0.80173 0.45819 0.62136
 C1497 C 0.80978 0.46720 0.63718
 N1498 N 0.82802 0.47283 0.63597
 N1499 N 0.83607 0.48019 0.65089
 C1500 C 0.82621 0.48218 0.66760
 N1501 N 0.80786 0.47662 0.66871
 N1502 N 0.79979 0.46923 0.65377
 N1503 N 0.27230 -0.05811 0.08455
 C1504 C 0.29031 -0.05974 0.09087
 N1505 N 0.30312 -0.07101 0.08156
 N1506 N 0.29812 -0.08038 0.06640
 C1507 C 0.28012 -0.07886 0.05995
 N1508 N 0.26730 -0.06751 0.06935
 C1509 C 0.29600 -0.04975 0.10718
 C1510 C 0.30181 -0.04179 0.12071
 C1511 C 0.30993 -0.03282 0.13653
 N1512 N 0.32819 -0.02729 0.13530
 N1513 N 0.33630 -0.01998 0.15021
 C1514 C 0.32648 -0.01795 0.16694
 N1515 N 0.30809 -0.02342 0.16807
 N1516 N 0.29997 -0.03076 0.15313
 N1517 N 0.27276 0.05841 0.40207
 C1518 C 0.29087 0.05749 0.39505
 N1519 N 0.30490 0.06488 0.40510
 N1520 N 0.30096 0.07305 0.42162
 C1521 C 0.28285 0.07418 0.42871
 N1522 N 0.26883 0.06658 0.41864
 C1523 C 0.29517 0.05013 0.37658
 C1524 C 0.29971 0.04487 0.36092
 C1525 C 0.30620 0.03975 0.34222
 N1526 N 0.31240 0.05341 0.32983
 N1527 N 0.31993 0.04881 0.31299
 C1528 C 0.32156 0.03037 0.30787
 N1529 N 0.31512 0.01671 0.32027
 N1530 N 0.30760 0.02131 0.33718
 N1531 N 0.77219 0.55852 0.90277
 C1532 C 0.79031 0.55750 0.89579
 N1533 N 0.80435 0.56479 0.90591
 N1534 N 0.80043 0.57295 0.92243
 C1535 C 0.78230 0.57418 0.92947
 N1536 N 0.76826 0.56668 0.91934
 C1537 C 0.79462 0.55017 0.87732
 C1538 C 0.79915 0.54493 0.86165
 C1539 C 0.80564 0.53984 0.84294
 N1540 N 0.81182 0.55352 0.83056
 N1541 N 0.81935 0.54895 0.81371
 C1542 C 0.82101 0.53052 0.80858
 N1543 N 0.81460 0.51683 0.82097
 N1544 N 0.80707 0.52140 0.83788
 N1545 N 0.08681 0.72403 0.55252
 C1546 C 0.10295 0.72108 0.56237
 N1547 N 0.10322 0.72618 0.58077
 N1548 N 0.08780 0.73392 0.58910
 C1549 C 0.07152 0.73682 0.57937
 N1550 N 0.07138 0.73180 0.56086
 C1551 C 0.11918 0.71152 0.55393
 C1552 C 0.13277 0.70294 0.54744
 C1553 C 0.14883 0.69206 0.54040
 N1554 N 0.16542 0.70055 0.53567
 N1555 N 0.18055 0.69019 0.53001
 C1556 C 0.17965 0.67099 0.52896
 N1557 N 0.16295 0.66262 0.53367
 N1558 N 0.14783 0.67295 0.53930
 N1559 N 0.60369 0.22602 1.08035
 C1560 C 0.60341 0.22085 1.06197
 N1561 N 0.58726 0.22375 1.05213
 N1562 N 0.57183 0.23153 1.06046
 C1563 C 0.57198 0.23663 1.07894
 N1564 N 0.58827 0.23378 1.08867
 C1565 C 0.61962 0.21126 1.05356
 C1566 C 0.63321 0.20264 1.04709
 C1567 C 0.64925 0.19173 1.04007
 N1568 N 0.64821 0.17262 1.03897
 N1569 N 0.66330 0.16225 1.03335
 C1570 C 0.68003 0.17058 1.02866
 N1571 N 0.68097 0.18978 1.02971
 N1572 N 0.66586 0.20017 1.03534
 N1573 N 0.90947 0.21820 0.95095
 C1574 C 0.89336 0.21436 0.94183
 N1575 N 0.89223 0.21874 0.92304
 N1576 N 0.90676 0.22661 0.91361
 C1577 C 0.92309 0.23039 0.92254
 N1578 N 0.92403 0.22611 0.94149
 C1579 C 0.87804 0.20478 0.95149
 C1580 C 0.86497 0.19623 0.95865
 C1581 C 0.84923 0.18553 0.96600
 N1582 N 0.84211 0.18807 0.98387
 N1583 N 0.82731 0.17814 0.99036
 C1584 C 0.81913 0.16535 0.97921
 N1585 N 0.82639 0.16291 0.96134
 N1586 N 0.84115 0.17280 0.95486
 N1587 N 0.39135 0.72073 0.42372
 C1588 C 0.39291 0.71534 0.44224
 N1589 N 0.40943 0.71815 0.45107
 N1590 N 0.42398 0.72606 0.44161
 C1591 C 0.42254 0.73138 0.42296
 N1592 N 0.40588 0.72861 0.41427
 C1593 C 0.37759 0.70569 0.45183
 C1594 C 0.36452 0.69711 0.45896
 C1595 C 0.34881 0.68637 0.46629
 N1596 N 0.34168 0.68887 0.48416
 N1597 N 0.32690 0.67891 0.49064
 C1598 C 0.31874 0.66612 0.47948
 N1599 N 0.32601 0.66370 0.46160
 N1600 N 0.34075 0.67363 0.45514
 N1601 N 0.58501 0.77257 0.44127
 C1602 C 0.59142 0.79054 0.43960
 N1603 N 0.58224 0.80334 0.42820
 N1604 N 0.56712 0.79838 0.41873
 C1605 C 0.56059 0.78042 0.42030
 N1606 N 0.56986 0.76760 0.43178
 C1607 C 0.60765 0.79620 0.44972
 C1608 C 0.62113 0.80198 0.45780
 C1609 C 0.63688 0.81005 0.46692
 N1610 N 0.63558 0.82826 0.47260
 N1611 N 0.65044 0.83634 0.48004
 C1612 C 0.66717 0.82654 0.48207
 N1613 N 0.66836 0.80821 0.47646
 N1614 N 0.65348 0.80012 0.46898
 N1615 N 0.08443 0.27172 -0.05780
 C1616 C 0.09074 0.28974 -0.05936
 N1617 N 0.08140 0.30260 -0.07057
 N1618 N 0.06623 0.29765 -0.07995
 C1619 C 0.05980 0.27965 -0.07850
 N1620 N 0.06922 0.26677 -0.06721
 C1621 C 0.10706 0.29537 -0.04937
 C1622 C 0.12061 0.30114 -0.04139
 C1623 C 0.13645 0.30920 -0.03242
 N1624 N 0.13529 0.32746 -0.02689
 N1625 N 0.15022 0.33552 -0.01957
 C1626 C 0.16691 0.32564 -0.01754
 N1627 N 0.16798 0.30727 -0.02301
 N1628 N 0.15302 0.29919 -0.03036
 N1629 N 0.40226 0.27207 0.05889
 C1630 C 0.39517 0.29015 0.05794
 N1631 N 0.40520 0.30422 0.06528
 N1632 N 0.42175 0.30036 0.07341
 C1633 C 0.42890 0.28227 0.07456
 N1634 N 0.41886 0.26821 0.06702
 C1635 C 0.37669 0.29438 0.05061
 C1636 C 0.36100 0.29884 0.04536
 C1637 C 0.34228 0.30526 0.04026
 N1638 N 0.32989 0.31141 0.05393
 N1639 N 0.31303 0.31888 0.04934
 C1640 C 0.30789 0.32051 0.03089
 N1641 N 0.32029 0.31413 0.01721
 N1642 N 0.33722 0.30667 0.02181
 N1643 N 0.90200 0.77277 0.55906
 C1644 C 0.89499 0.79088 0.55814
 N1645 N 0.90504 0.80489 0.56556
 N1646 N 0.92154 0.80094 0.57375
 C1647 C 0.92862 0.78283 0.57488
 N1648 N 0.91855 0.76882 0.56726
 C1649 C 0.87655 0.79520 0.55074
 C1650 C 0.86090 0.79975 0.54544
 C1651 C 0.84222 0.80625 0.54028
 N1652 N 0.83721 0.80769 0.52182
 N1653 N 0.82033 0.81521 0.51718
 C1654 C 0.80791 0.82163 0.53083
 N1655 N 0.81299 0.81997 0.54929
 N1656 N 0.82982 0.81244 0.55393
   
