data_POSCAR
  _audit_creation_date              2014-09-24
  _audit_creation_method            'ToBaCCo'
  _symmetry_space_group_name_H-M    'P1'
  _symmetry_Int_Tables_number       1
  _symmetry_cell_setting            triclinic
  loop_
  _symmetry_equiv_pos_as_xyz
 x,y,z
_cell_length_a 58.9769
_cell_length_b 58.9152
_cell_length_c 58.9364
_cell_angle_alpha 89.889000
_cell_angle_beta 90.118600
_cell_angle_gamma 89.914100
loop_
  _atom_site_label
  _atom_site_type_symbol
  _atom_site_fract_x
  _atom_site_fract_y
  _atom_site_fract_z
C1 C 0.25113 1.01307 0.00357
 C2 C 0.25031 1.01303 -0.02036
 C3 C 0.24864 0.99233 -0.03196
 C4 C 0.24776 0.97168 -0.02007
 C5 C 0.24859 0.97179 0.00384
 C6 C 0.25026 0.99246 0.01539
 H7 H 0.25089 0.99246 0.03382
 H8 H 0.24803 0.99229 -0.05039
 C9 C 0.74875 0.46912 0.47880
 C10 C 0.75018 0.46936 0.50266
 C11 C 0.75269 0.49005 0.51402
 C12 C 0.75376 0.51051 0.50200
 C13 C 0.75222 0.51035 0.47818
 C14 C 0.74975 0.48966 0.46675
 H15 H 0.74862 0.48953 0.44837
 H16 H 0.75383 0.49023 0.53241
 C17 C 0.74918 1.00264 0.96951
 C18 C 0.75112 0.97878 0.96974
 C19 C 0.75074 0.96715 0.99053
 C20 C 0.74848 0.97894 1.01104
 C21 C 0.74655 1.00277 1.01077
 C22 C 0.74690 1.01439 0.99004
 H23 H 0.74542 1.03278 0.98987
 H24 H 0.75224 0.94879 0.99076
 C25 C 0.25033 0.50374 0.47159
 C26 C 0.25180 0.47987 0.47170
 C27 C 0.25129 0.46815 0.49244
 C28 C 0.24937 0.47991 0.51299
 C29 C 0.24794 0.50374 0.51281
 C30 C 0.24842 0.51544 0.49215
 H31 H 0.24731 0.53383 0.49207
 H32 H 0.25240 0.44976 0.49258
 C33 C 0.96936 0.24774 -0.00331
 C34 C 0.96923 0.24584 0.02055
 C35 C 0.98984 0.24616 0.03249
 C36 C 1.01050 0.24831 0.02098
 C37 C 1.01058 0.25016 -0.00281
 C38 C 0.99006 0.24989 -0.01474
 H39 H 0.99025 0.25135 -0.03312
 H40 H 0.98980 0.24473 0.05085
 C41 C 0.47164 0.74701 0.52087
 C42 C 0.47134 0.74827 0.49700
 C43 C 0.49182 0.74954 0.48510
 C44 C 0.51259 0.74959 0.49660
 C45 C 0.51295 0.74840 0.52044
 C46 C 0.49247 0.74710 0.53240
 H47 H 0.49276 0.74617 0.55079
 H48 H 0.49160 0.75049 0.46671
 C49 C -0.02003 0.75323 0.02897
 C50 C 0.00384 0.75176 0.02915
 C51 C 0.01560 0.75000 0.00861
 C52 C 0.00402 0.74981 -0.01214
 C53 C -0.01981 0.75141 -0.01239
 C54 C -0.03164 0.75305 0.00815
 H55 H -0.05002 0.75424 0.00789
 H56 H 0.03398 0.74886 0.00882
 C57 C 0.47811 0.25113 0.48872
 C58 C 0.50188 0.24919 0.48849
 C59 C 0.51390 0.24913 0.50896
 C60 C 0.50259 0.25091 0.52974
 C61 C 0.47878 0.25272 0.53005
 C62 C 0.46672 0.25285 0.50950
 H63 H 0.44838 0.25430 0.50968
 H64 H 0.53226 0.24771 0.50872
 C65 C 1.02840 0.02082 0.24875
 C66 C 1.02847 -0.00307 0.25031
 C67 C 1.00789 -0.01475 0.25213
 C68 C 0.98721 -0.00306 0.25227
 C69 C 0.98706 0.02078 0.25048
 C70 C 1.00765 0.03253 0.24882
 H71 H 1.00748 0.05091 0.24750
 H72 H 1.00801 -0.03315 0.25336
 C73 C 0.48865 0.49811 0.75186
 C74 C 0.48923 0.52192 0.75016
 C75 C 0.51013 0.53301 0.74813
 C76 C 0.53046 0.52064 0.74769
 C77 C 0.52982 0.49679 0.74922
 C78 C 0.50892 0.48576 0.75132
 H79 H 0.50843 0.46738 0.75257
 H80 H 0.51058 0.55138 0.74692
 C81 C 1.02119 0.98942 0.74914
 C82 C 0.99738 0.98929 0.74785
 C83 C 0.98543 1.00980 0.74858
 C84 C 0.99687 1.03053 0.75061
 C85 C 1.02073 1.03069 0.75206
 C86 C 1.03269 1.01010 0.75129
 H87 H 1.05106 1.01018 0.75233
 H88 H 0.96704 1.00957 0.74752
 C89 C 0.52008 0.48795 0.24859
 C90 C 0.49625 0.48810 0.24756
 C91 C 0.48457 0.50877 0.24820
 C92 C 0.49628 0.52935 0.24990
 C93 C 0.52013 0.52925 0.25108
 C94 C 0.53184 0.50852 0.25039
 H95 H 0.55023 0.50840 0.25122
 H96 H 0.46618 0.50883 0.24733
 O97 O 0.26658 0.19133 0.20126
 O98 O 0.29181 0.18480 0.23277
 O99 O 0.20757 0.21845 0.23459
 O100 O 0.19944 0.24805 0.25674
 O101 O 0.23465 0.25073 0.17416
 O102 O 0.26625 0.27560 0.16786
 O103 O 0.26665 0.28152 0.29164
 O104 O 0.24038 0.25073 0.29739
 O105 O 0.32499 0.25052 0.26431
 O106 O 0.33165 0.22462 0.23205
 O107 O 0.29773 0.30853 0.23386
 O108 O 0.26504 0.31533 0.20755
 O109 O 0.26689 0.30872 0.26416
 O110 O 0.24146 0.31587 0.23203
 O111 O 0.32493 0.28109 0.23379
 O112 O 0.33174 0.24883 0.20790
 O113 O 0.29782 0.25161 0.29165
 O114 O 0.27067 0.22579 0.29914
 O115 O 0.26644 0.21882 0.17402
 O116 O 0.29134 0.25022 0.16768
 O117 O 0.20751 0.25012 0.20161
 O118 O 0.20221 0.27633 0.23337
 O119 O 0.23490 0.19115 0.23330
 O120 O 0.26783 0.18399 0.25761
 Zr121 Zr 0.26559 0.20931 0.23217
 O122 O 0.28664 0.22880 0.25343
 Zr123 Zr 0.22571 0.24915 0.23239
 O124 O 0.24520 0.27043 0.25350
 Zr125 Zr 0.26538 0.24935 0.19235
 O126 O 0.28668 0.27044 0.21175
 Zr127 Zr 0.26715 0.25075 0.27353
 O128 O 0.24569 0.22903 0.25445
 Zr129 Zr 0.30674 0.25048 0.23357
 O130 O 0.28741 0.22917 0.21208
 Zr131 Zr 0.26689 0.29051 0.23352
 O132 O 0.24535 0.27116 0.21222
 O133 O 0.24440 0.22818 0.21117
 O134 O 0.28827 0.27194 0.25477
 C135 C 0.26692 0.19803 0.18051
 C136 C 0.21418 0.19768 0.23466
 C137 C 0.21394 0.25096 0.18082
 C138 C 0.26668 0.30227 0.28496
 C139 C 0.31852 0.25120 0.28507
 C140 C 0.31846 0.30186 0.23399
 H141 H 0.29583 0.21853 0.26305
 H142 H 0.29603 0.27979 0.20145
 H143 H 0.23462 0.21848 0.20158
 H144 H 0.23498 0.27969 0.26302
 H145 H 0.23041 0.23779 0.29352
 H146 H 0.20506 0.25588 0.27046
 H147 H 0.32854 0.26103 0.19679
 H148 H 0.30338 0.23978 0.17307
 H149 H 0.26217 0.21237 0.29387
 H150 H 0.25493 0.18625 0.26808
 H151 H 0.27771 0.31261 0.19693
 H152 H 0.25571 0.28752 0.17319
 H153 H 0.30355 0.19011 0.22202
 H154 H 0.32829 0.21348 0.24415
 H155 H 0.20685 0.28729 0.22151
 H156 H 0.23000 0.31224 0.24371
 O157 O 0.74960 0.82562 0.23525
 O158 O 0.72497 0.83182 0.26697
 O159 O 0.80947 0.79877 0.26779
 O160 O 0.81775 0.76944 0.29069
 O161 O 0.78235 0.76636 0.20806
 O162 O 0.75071 0.74138 0.20183
 O163 O 0.75129 0.73528 0.32566
 O164 O 0.77731 0.76617 0.33124
 O165 O 0.69254 0.76520 0.29851
 O166 O 0.68533 0.79169 0.26649
 O167 O 0.71989 0.70803 0.26747
 O168 O 0.75250 0.70139 0.24171
 O169 O 0.75071 0.70812 0.29825
 O170 O 0.77630 0.70122 0.26598
 O171 O 0.69249 0.73526 0.26730
 O172 O 0.68529 0.76795 0.24206
 O173 O 0.71995 0.76464 0.32574
 O174 O 0.74676 0.79101 0.33287
 O175 O 0.75005 0.79828 0.20797
 O176 O 0.72569 0.76665 0.20144
 O177 O 0.80960 0.76689 0.23549
 O178 O 0.81524 0.74097 0.26731
 O179 O 0.78192 0.82587 0.26665
 O180 O 0.74937 0.83266 0.29158
 Zr181 Zr 0.75134 0.80749 0.26608
 O182 O 0.73054 0.78780 0.28740
 Zr183 Zr 0.79150 0.76796 0.26622
 O184 O 0.77230 0.74648 0.28739
 Zr185 Zr 0.75161 0.76761 0.22625
 O186 O 0.73057 0.74634 0.24572
 Zr187 Zr 0.75039 0.76599 0.30744
 O188 O 0.77158 0.78790 0.28830
 Zr189 Zr 0.71048 0.76601 0.26763
 O190 O 0.72953 0.78751 0.24606
 Zr191 Zr 0.75060 0.72630 0.26749
 O192 O 0.77187 0.74586 0.24612
 O193 O 0.77253 0.78885 0.24499
 O194 O 0.72926 0.74465 0.28879
 C195 C 0.74916 0.81903 0.21450
 C196 C 0.80270 0.81949 0.26765
 C197 C 0.80310 0.76601 0.21472
 C198 C 0.75115 0.71455 0.31903
 C199 C 0.69920 0.76455 0.31925
 C200 C 0.69910 0.71452 0.26727
 H201 H 0.72133 0.79795 0.29706
 H202 H 0.72125 0.73699 0.23540
 H203 H 0.78211 0.79858 0.23524
 H204 H 0.78263 0.73726 0.29689
 H205 H 0.78711 0.77925 0.32738
 H206 H 0.81238 0.76122 0.30429
 H207 H 0.68860 0.75603 0.23073
 H208 H 0.71346 0.77677 0.20691
 H209 H 0.75539 0.80437 0.32767
 H210 H 0.76257 0.83055 0.30177
 H211 H 0.74008 0.70434 0.23079
 H212 H 0.76141 0.72954 0.20714
 H213 H 0.71292 0.82622 0.25669
 H214 H 0.68837 0.80242 0.27902
 H215 H 0.81051 0.72985 0.25565
 H216 H 0.78756 0.70466 0.27794
 O217 O 0.75000 0.18993 0.78092
 O218 O 0.72645 0.18286 0.74941
 O219 O 0.80920 0.21902 0.74970
 O220 O 0.81784 0.24878 0.72866
 O221 O 0.78007 0.24939 0.80975
 O222 O 0.74858 0.27312 0.81633
 O223 O 0.74866 0.28002 0.69118
 O224 O 0.77481 0.25128 0.68471
 O225 O 0.69115 0.24957 0.71890
 O226 O 0.68331 0.22495 0.75012
 O227 O 0.71849 0.30781 0.74931
 O228 O 0.74965 0.31587 0.77379
 O229 O 0.74850 0.30753 0.71823
 O230 O 0.77553 0.31372 0.75159
 O231 O 0.69117 0.28059 0.74920
 O232 O 0.68530 0.24706 0.77601
 O233 O 0.71823 0.24984 0.69145
 O234 O 0.75055 0.22308 0.68542
 O235 O 0.74895 0.21677 0.80867
 O236 O 0.72299 0.24866 0.81447
 O237 O 0.80790 0.25004 0.78303
 O238 O 0.81263 0.27734 0.75081
 O239 O 0.78262 0.19099 0.74979
 O240 O 0.75090 0.18478 0.72378
 Zr241 Zr 0.75137 0.20857 0.75060
 O242 O 0.72956 0.22784 0.72980
 Zr243 Zr 0.79039 0.24916 0.75168
 O244 O 0.77088 0.26962 0.72965
 Zr245 Zr 0.74994 0.24794 0.79087
 O246 O 0.72921 0.26954 0.77126
 Zr247 Zr 0.74913 0.24965 0.70964
 O248 O 0.77126 0.22894 0.72908
 Zr249 Zr 0.70933 0.24964 0.74949
 O250 O 0.72870 0.22777 0.77054
 Zr251 Zr 0.74902 0.28962 0.74935
 O252 O 0.76993 0.27048 0.77160
 O253 O 0.77174 0.22749 0.77225
 O254 O 0.72781 0.27092 0.72815
 C255 C 0.74895 0.19609 0.80174
 C256 C 0.80321 0.19811 0.74927
 C257 C 0.80090 0.25025 0.80367
 C258 C 0.74839 0.30080 0.69751
 C259 C 0.69752 0.24974 0.69813
 C260 C 0.69778 0.30136 0.74918
 H261 H 0.72017 0.21747 0.72059
 H262 H 0.71984 0.27893 0.78149
 H263 H 0.78147 0.21779 0.78195
 H264 H 0.78101 0.27889 0.72003
 H265 H 0.78725 0.24126 0.68998
 H266 H 0.81234 0.25566 0.71435
 H267 H 0.68681 0.26066 0.78570
 H268 H 0.71204 0.23688 0.80967
 H269 H 0.73750 0.21287 0.68792
 H270 H 0.76244 0.18981 0.71269
 H271 H 0.74010 0.31093 0.78665
 H272 H 0.75826 0.28577 0.81103
 H273 H 0.71368 0.18822 0.75888
 H274 H 0.68821 0.21221 0.74040
 H275 H 0.80871 0.28715 0.76385
 H276 H 0.78498 0.31231 0.73781
 O277 O 0.23328 0.79258 0.78236
 O278 O 0.25777 0.79930 0.75065
 O279 O 0.17399 0.76474 0.74909
 O280 O 0.16621 0.73506 0.72695
 O281 O 0.20152 0.73336 0.80960
 O282 O 0.23331 0.70844 0.81610
 O283 O 0.23413 0.70207 0.69238
 O284 O 0.20697 0.73222 0.68650
 O285 O 0.29165 0.73365 0.71947
 O286 O 0.29833 0.75949 0.75173
 O287 O 0.26504 0.67535 0.75082
 O288 O 0.23225 0.66859 0.77661
 O289 O 0.23475 0.67498 0.71996
 O290 O 0.20891 0.66774 0.75176
 O291 O 0.29198 0.70296 0.75038
 O292 O 0.29867 0.73552 0.77596
 O293 O 0.26436 0.73267 0.69213
 O294 O 0.23669 0.75789 0.68471
 O295 O 0.23346 0.76520 0.80970
 O296 O 0.25822 0.73382 0.81629
 O297 O 0.17434 0.73341 0.78207
 O298 O 0.16939 0.70683 0.75059
 O299 O 0.20099 0.79229 0.75048
 O300 O 0.23367 0.79961 0.72590
 Zr301 Zr 0.23195 0.77445 0.75153
 O302 O 0.25317 0.75504 0.73039
 Zr303 Zr 0.19252 0.73427 0.75140
 O304 O 0.21218 0.71308 0.73038
 Zr305 Zr 0.23227 0.73459 0.79150
 O306 O 0.25375 0.71359 0.77222
 Zr307 Zr 0.23384 0.73289 0.71034
 O308 O 0.21219 0.75449 0.72930
 Zr309 Zr 0.27357 0.73354 0.75030
 O310 O 0.25406 0.75480 0.77168
 Zr311 Zr 0.23411 0.69328 0.75052
 O312 O 0.21243 0.71252 0.77172
 O313 O 0.21103 0.75552 0.77257
 O314 O 0.25526 0.71190 0.72919
 C315 C 0.23398 0.78596 0.80314
 C316 C 0.18036 0.78556 0.74908
 C317 C 0.18079 0.73296 0.80288
 C318 C 0.23464 0.68136 0.69915
 C319 C 0.28509 0.73323 0.69869
 C320 C 0.28570 0.68213 0.75066
 H321 H 0.26221 0.76538 0.72076
 H322 H 0.26319 0.70437 0.78261
 H323 H 0.20128 0.76524 0.78215
 H324 H 0.20211 0.70367 0.72084
 H325 H 0.19674 0.74500 0.69028
 H326 H 0.17172 0.72685 0.71343
 H327 H 0.29563 0.72335 0.78713
 H328 H 0.27031 0.74409 0.81081
 H329 H 0.22754 0.77099 0.68974
 H330 H 0.22067 0.79720 0.71554
 H331 H 0.24469 0.67159 0.78747
 H332 H 0.22263 0.69657 0.81092
 H333 H 0.26985 0.79399 0.76107
 H334 H 0.29480 0.77062 0.73964
 H335 H 0.17434 0.69590 0.76239
 H336 H 0.19769 0.67103 0.73970
 O337 O 0.24903 0.32772 0.73795
 O338 O 0.22434 0.33393 0.76967
 O339 O 0.30892 0.30101 0.77037
 O340 O 0.31709 0.27192 0.79366
 O341 O 0.28182 0.26844 0.71092
 O342 O 0.25025 0.24344 0.70469
 O343 O 0.25069 0.23758 0.82859
 O344 O 0.27682 0.26846 0.83405
 O345 O 0.19204 0.26750 0.80135
 O346 O 0.18480 0.29383 0.76925
 O347 O 0.21939 0.21020 0.77028
 O348 O 0.25222 0.20359 0.74466
 O349 O 0.25001 0.21037 0.80123
 O350 O 0.27575 0.20333 0.76918
 O351 O 0.19199 0.23743 0.77016
 O352 O 0.18475 0.27001 0.74491
 O353 O 0.21945 0.26705 0.82858
 O354 O 0.24631 0.29331 0.83568
 O355 O 0.24953 0.30031 0.71074
 O356 O 0.22512 0.26861 0.70433
 O357 O 0.30907 0.26893 0.73836
 O358 O 0.31480 0.24327 0.77023
 O359 O 0.28133 0.32809 0.76925
 O360 O 0.24887 0.33491 0.79425
 Zr361 Zr 0.25078 0.30967 0.76881
 O362 O 0.23002 0.29002 0.79019
 Zr363 Zr 0.29097 0.27017 0.76907
 O364 O 0.27179 0.24871 0.79028
 Zr365 Zr 0.25108 0.26969 0.72909
 O366 O 0.23007 0.24845 0.74861
 Zr367 Zr 0.24987 0.26826 0.81028
 O368 O 0.27103 0.29015 0.79109
 Zr369 Zr 0.20997 0.26818 0.77046
 O370 O 0.22899 0.28964 0.74884
 Zr371 Zr 0.25010 0.22848 0.77043
 O372 O 0.27136 0.24801 0.74903
 O373 O 0.27197 0.29098 0.74779
 O374 O 0.22874 0.24687 0.79168
 C375 C 0.24861 0.32108 0.71721
 C376 C 0.30213 0.32173 0.77016
 C377 C 0.30256 0.26806 0.71759
 C378 C 0.25045 0.21684 0.82200
 C379 C 0.19870 0.26698 0.82209
 C380 C 0.19861 0.21670 0.77008
 H381 H 0.22081 0.30019 0.79982
 H382 H 0.22077 0.23908 0.73830
 H383 H 0.28154 0.30068 0.73799
 H384 H 0.28211 0.23950 0.79982
 H385 H 0.28663 0.28153 0.83015
 H386 H 0.31190 0.26335 0.80713
 H387 H 0.18823 0.25826 0.73347
 H388 H 0.21301 0.27896 0.70963
 H389 H 0.25486 0.30670 0.83039
 H390 H 0.26208 0.33282 0.80442
 H391 H 0.23983 0.20648 0.73370
 H392 H 0.26102 0.23165 0.70997
 H393 H 0.21239 0.32839 0.75925
 H394 H 0.18791 0.30467 0.78167
 H395 H 0.30985 0.23192 0.75890
 H396 H 0.28692 0.20675 0.78123
 O397 O 0.77071 0.69092 0.69860
 O398 O 0.79579 0.68434 0.73018
 O399 O 0.71131 0.71739 0.73183
 O400 O 0.70290 0.74674 0.75424
 O401 O 0.73835 0.75025 0.67178
 O402 O 0.76977 0.77539 0.66575
 O403 O 0.76977 0.78048 0.78959
 O404 O 0.74368 0.74957 0.79505
 O405 O 0.82838 0.75018 0.76226
 O406 O 0.83542 0.72455 0.72992
 O407 O 0.80076 0.80813 0.73198
 O408 O 0.76809 0.81488 0.70575
 O409 O 0.76985 0.80786 0.76229
 O410 O 0.74443 0.81502 0.73014
 O411 O 0.82817 0.78091 0.73182
 O412 O 0.83529 0.74876 0.70580
 O413 O 0.80110 0.75078 0.78951
 O414 O 0.77407 0.72464 0.79664
 O415 O 0.77041 0.71859 0.67155
 O416 O 0.79505 0.75025 0.66549
 O417 O 0.71113 0.74925 0.69913
 O418 O 0.70552 0.77521 0.73104
 O419 O 0.73884 0.69029 0.73049
 O420 O 0.77175 0.68320 0.75490
 Zr421 Zr 0.76941 0.70868 0.72962
 O422 O 0.79024 0.72818 0.75108
 Zr423 Zr 0.72923 0.74821 0.72996
 O424 O 0.74848 0.76948 0.75129
 Zr425 Zr 0.76903 0.74899 0.69008
 O426 O 0.79010 0.77010 0.70969
 Zr427 Zr 0.77051 0.74984 0.77126
 O428 O 0.74927 0.72810 0.75196
 Zr429 Zr 0.81024 0.75015 0.73144
 O430 O 0.79115 0.72884 0.70974
 Zr431 Zr 0.77007 0.78986 0.73152
 O432 O 0.74876 0.77051 0.71001
 O433 O 0.74815 0.72753 0.70867
 O434 O 0.79154 0.77132 0.75272
 C435 C 0.77108 0.69777 0.67789
 C436 C 0.71808 0.69666 0.73179
 C437 C 0.71762 0.75029 0.67838
 C438 C 0.76965 0.80127 0.78305
 C439 C 0.82183 0.75062 0.78300
 C440 C 0.82154 0.80162 0.73209
 H441 H 0.79948 0.71791 0.76067
 H442 H 0.79939 0.77958 0.69947
 H443 H 0.73849 0.71782 0.69896
 H444 H 0.73817 0.77861 0.76084
 H445 H 0.73375 0.73664 0.79104
 H446 H 0.70837 0.75462 0.76799
 H447 H 0.83207 0.76104 0.69479
 H448 H 0.80715 0.73985 0.67082
 H449 H 0.76538 0.71135 0.79137
 H450 H 0.75880 0.68530 0.76533
 H451 H 0.78068 0.81221 0.69503
 H452 H 0.75910 0.78719 0.67111
 H453 H 0.80759 0.68988 0.71962
 H454 H 0.83210 0.71330 0.74194
 H455 H 0.71001 0.78621 0.71915
 H456 H 0.73290 0.81113 0.74166
 O457 O 0.24999 0.69141 0.28108
 O458 O 0.22627 0.68462 0.24957
 O459 O 0.30922 0.72041 0.24987
 O460 O 0.31806 0.75030 0.22919
 O461 O 0.28018 0.75069 0.31016
 O462 O 0.24877 0.77453 0.31676
 O463 O 0.24897 0.78189 0.19172
 O464 O 0.27506 0.75299 0.18520
 O465 O 0.19131 0.75150 0.21926
 O466 O 0.18338 0.72677 0.25044
 O467 O 0.21881 0.80953 0.24984
 O468 O 0.24997 0.81736 0.27452
 O469 O 0.24882 0.80928 0.21890
 O470 O 0.27588 0.81524 0.25232
 O471 O 0.19141 0.78239 0.24959
 O472 O 0.18541 0.74883 0.27638
 O473 O 0.21842 0.75197 0.19184
 O474 O 0.25050 0.72497 0.18569
 O475 O 0.24896 0.71815 0.30893
 O476 O 0.22315 0.75011 0.31491
 O477 O 0.30802 0.75134 0.28346
 O478 O 0.31280 0.77877 0.25123
 O479 O 0.28253 0.69250 0.24980
 O480 O 0.25075 0.68645 0.22398
 Zr481 Zr 0.25135 0.71018 0.25084
 O482 O 0.22963 0.72961 0.23010
 Zr483 Zr 0.29053 0.75062 0.25209
 O484 O 0.27109 0.77125 0.23014
 Zr485 Zr 0.25006 0.74938 0.29126
 O486 O 0.22939 0.77113 0.27173
 Zr487 Zr 0.24929 0.75143 0.21004
 O488 O 0.27133 0.73056 0.22941
 Zr489 Zr 0.20946 0.75139 0.24987
 O490 O 0.22874 0.72938 0.27085
 Zr491 Zr 0.24929 0.79124 0.24993
 O492 O 0.27014 0.77193 0.27209
 O493 O 0.27179 0.72893 0.27256
 O494 O 0.22805 0.77269 0.22865
 C495 C 0.24894 0.69750 0.30192
 C496 C 0.30314 0.69954 0.24926
 C497 C 0.30101 0.75152 0.30410
 C498 C 0.24870 0.80264 0.19814
 C499 C 0.19771 0.75187 0.19851
 C500 C 0.19808 0.80314 0.24960
 H501 H 0.22021 0.71932 0.22083
 H502 H 0.22003 0.78051 0.28199
 H503 H 0.28152 0.71915 0.28221
 H504 H 0.28126 0.78053 0.22058
 H505 H 0.28733 0.74269 0.19034
 H506 H 0.31249 0.75685 0.21476
 H507 H 0.18691 0.76245 0.28606
 H508 H 0.21208 0.73850 0.30999
 H509 H 0.23728 0.71493 0.18803
 H510 H 0.26211 0.69159 0.21275
 H511 H 0.24005 0.81259 0.28716
 H512 H 0.25836 0.78722 0.31140
 H513 H 0.21357 0.69000 0.25913
 H514 H 0.18819 0.71409 0.24058
 H515 H 0.30896 0.78852 0.26434
 H516 H 0.28524 0.81398 0.23846
 O517 O 0.73050 0.28908 0.28096
 O518 O 0.75513 0.29567 0.24936
 O519 O 0.67097 0.26201 0.24758
 O520 O 0.66279 0.23250 0.22541
 O521 O 0.69824 0.23010 0.30794
 O522 O 0.72976 0.20467 0.31418
 O523 O 0.73055 0.19904 0.19052
 O524 O 0.70362 0.22939 0.18477
 O525 O 0.78830 0.22992 0.21775
 O526 O 0.79529 0.25545 0.25012
 O527 O 0.76107 0.17171 0.24863
 O528 O 0.72839 0.16511 0.27454
 O529 O 0.73061 0.17181 0.21797
 O530 O 0.70486 0.16471 0.24989
 O531 O 0.78832 0.19901 0.24838
 O532 O 0.79533 0.23138 0.27427
 O533 O 0.76100 0.22942 0.19041
 O534 O 0.73347 0.25496 0.18320
 O535 O 0.73054 0.26156 0.30816
 O536 O 0.75483 0.22988 0.31469
 O537 O 0.67104 0.23063 0.28044
 O538 O 0.66583 0.20411 0.24881
 O539 O 0.69825 0.28927 0.24909
 O540 O 0.73108 0.29643 0.22459
 Zr541 Zr 0.72904 0.27112 0.25005
 O542 O 0.75004 0.25161 0.22880
 Zr543 Zr 0.68919 0.23136 0.24974
 O544 O 0.70861 0.21009 0.22859
 Zr545 Zr 0.72898 0.23105 0.28982
 O546 O 0.75023 0.20993 0.27041
 Zr547 Zr 0.73048 0.22978 0.20864
 O548 O 0.70904 0.25149 0.22773
 Zr549 Zr 0.77024 0.22980 0.24858
 O550 O 0.75096 0.25114 0.27008
 Zr551 Zr 0.73034 0.18996 0.24862
 O552 O 0.70888 0.20930 0.26994
 O553 O 0.70795 0.25229 0.27101
 O554 O 0.75167 0.20847 0.22737
 C555 C 0.73119 0.28236 0.30170
 C556 C 0.67754 0.28277 0.24768
 C557 C 0.67751 0.23000 0.30123
 C558 C 0.73072 0.17829 0.19719
 C559 C 0.78173 0.22973 0.19697
 C560 C 0.78180 0.17826 0.24846
 H561 H 0.75918 0.26192 0.21923
 H562 H 0.75959 0.20055 0.28072
 H563 H 0.69830 0.26208 0.28064
 H564 H 0.69844 0.20084 0.21900
 H565 H 0.69346 0.24221 0.18862
 H566 H 0.66825 0.22446 0.21176
 H567 H 0.79231 0.21904 0.28524
 H568 H 0.76717 0.23980 0.30915
 H569 H 0.72435 0.26804 0.18830
 H570 H 0.71804 0.29428 0.21424
 H571 H 0.74091 0.16791 0.28537
 H572 H 0.71889 0.19300 0.30895
 H573 H 0.76714 0.29018 0.25979
 H574 H 0.79184 0.26671 0.23813
 H575 H 0.67036 0.19334 0.26091
 H576 H 0.69343 0.16841 0.23815
 C577 C 0.25275 0.03265 0.01587
 C578 C 0.25415 0.04931 0.02761
 C579 C 0.25575 0.06837 0.04273
 C580 C 0.27698 0.07738 0.04833
 C581 C 0.27874 0.09433 0.06481
 C582 C 0.25927 0.10238 0.07599
 C583 C 0.23795 0.09365 0.06977
 C584 C 0.23623 0.07673 0.05327
 C585 C 0.26123 0.11917 0.09462
 C586 C 0.24817 0.11671 0.11444
 C587 C 0.25007 0.13236 0.13211
 C588 C 0.26504 0.15066 0.13026
 C589 C 0.27817 0.15324 0.11066
 C590 C 0.27633 0.13757 0.09296
 C591 C 0.26636 0.16710 0.14821
 C592 C 0.26693 0.18106 0.16312
 H593 H 0.29222 0.07089 0.04040
 H594 H 0.29540 0.10056 0.06938
 H595 H 0.22262 0.09976 0.07782
 H596 H 0.21972 0.06983 0.04911
 H597 H 0.23669 0.10252 0.11639
 H598 H 0.23982 0.13021 0.14720
 H599 H 0.28971 0.16744 0.10900
 H600 H 0.28645 0.14002 0.07784
 C601 C 0.75650 0.53123 0.51470
 C602 C 0.75883 0.54790 0.52628
 C603 C 0.76159 0.56701 0.54116
 C604 C 0.74287 0.58041 0.54692
 C605 C 0.74510 0.59764 0.56303
 C606 C 0.76611 0.60163 0.57367
 C607 C 0.78494 0.58840 0.56738
 C608 C 0.78267 0.57119 0.55125
 C609 C 0.76814 0.61894 0.59183
 C610 C 0.75690 0.63993 0.58990
 C611 C 0.75815 0.65584 0.60742
 C612 C 0.77062 0.65098 0.62707
 C613 C 0.78205 0.63026 0.62907
 C614 C 0.78084 0.61433 0.61156
 C615 C 0.77130 0.66716 0.64530
 C616 C 0.77146 0.68095 0.66037
 H617 H 0.72642 0.57717 0.53936
 H618 H 0.73023 0.60734 0.56772
 H619 H 0.80139 0.59126 0.57504
 H620 H 0.79726 0.56085 0.54697
 H621 H 0.74723 0.64408 0.57481
 H622 H 0.74928 0.67187 0.60569
 H623 H 0.79169 0.62631 0.64425
 H624 H 0.78942 0.59820 0.61369
 C625 C 0.74822 0.96617 0.03198
 C626 C 0.74804 0.95517 0.04925
 C627 C 0.74789 0.94162 0.06957
 C628 C 0.72760 0.93800 0.08130
 C629 C 0.72728 0.92399 0.10047
 C630 C 0.74730 0.91341 0.10817
 C631 C 0.76766 0.91742 0.09642
 C632 C 0.76792 0.93141 0.07724
 C633 C 0.74687 0.89777 0.12795
 C634 C 0.76464 0.89779 0.14393
 C635 C 0.76466 0.88240 0.16202
 C636 C 0.74694 0.86681 0.16440
 C637 C 0.72904 0.86685 0.14877
 C638 C 0.72898 0.88223 0.13068
 C639 C 0.74749 0.85028 0.18240
 C640 C 0.74813 0.83615 0.19720
 H641 H 0.71199 0.94583 0.07550
 H642 H 0.71141 0.92145 0.10931
 H643 H 0.78327 0.90928 0.10171
 H644 H 0.78370 0.93401 0.06822
 H645 H 0.77851 0.90972 0.14245
 H646 H 0.77860 0.88252 0.17403
 H647 H 0.71530 0.85477 0.15039
 H648 H 0.71522 0.88158 0.11851
 C649 C 0.24894 0.46719 0.53393
 C650 C 0.24863 0.45626 0.55124
 C651 C 0.24831 0.44282 0.57164
 C652 C 0.22793 0.43927 0.58322
 C653 C 0.22746 0.42540 0.60250
 C654 C 0.24742 0.41489 0.61043
 C655 C 0.26787 0.41882 0.59883
 C656 C 0.26829 0.43268 0.57956
 C657 C 0.24682 0.39938 0.63031
 C658 C 0.26445 0.39952 0.64644
 C659 C 0.26432 0.38425 0.66463
 C660 C 0.24659 0.36867 0.66695
 C661 C 0.22883 0.36859 0.65118
 C662 C 0.22891 0.38385 0.63299
 C663 C 0.24703 0.35222 0.68502
 C664 C 0.24762 0.33814 0.69987
 H665 H 0.21237 0.44706 0.57725
 H666 H 0.21152 0.42292 0.61123
 H667 H 0.28345 0.41074 0.60432
 H668 H 0.28414 0.43523 0.57065
 H669 H 0.27833 0.41145 0.64500
 H670 H 0.27815 0.38446 0.67676
 H671 H 0.21508 0.35652 0.65275
 H672 H 0.21526 0.38311 0.62070
 C673 C 0.74945 0.01510 0.94996
 C674 C 0.74947 0.02770 0.93382
 C675 C 0.74923 0.04445 0.91602
 C676 C 0.76963 0.05330 0.90777
 C677 C 0.76942 0.07192 0.89303
 C678 C 0.74878 0.08201 0.88642
 C679 C 0.72834 0.07251 0.89424
 C680 C 0.72860 0.05390 0.90897
 C681 C 0.74854 0.10283 0.87216
 C682 C 0.73218 0.10568 0.85499
 C683 C 0.73181 0.12542 0.84179
 C684 C 0.74773 0.14260 0.84561
 C685 C 0.76404 0.13999 0.86269
 C686 C 0.76444 0.12025 0.87591
 C687 C 0.74796 0.16234 0.83118
 C688 C 0.74829 0.17824 0.81828
 H689 H 0.78571 0.04625 0.91327
 H690 H 0.78542 0.07862 0.88702
 H691 H 0.71219 0.08002 0.88969
 H692 H 0.71271 0.04740 0.91551
 H693 H 0.71987 0.09251 0.85152
 H694 H 0.71925 0.12718 0.82846
 H695 H 0.77651 0.15313 0.86573
 H696 H 0.77703 0.11874 0.88924
 C697 C 0.25070 0.51703 0.45101
 C698 C 0.25081 0.52979 0.43500
 C699 C 0.25071 0.54661 0.41727
 C700 C 0.27102 0.55693 0.41065
 C701 C 0.27067 0.57545 0.39578
 C702 C 0.24997 0.58396 0.38741
 C703 C 0.22970 0.57304 0.39363
 C704 C 0.23009 0.55453 0.40851
 C705 C 0.24943 0.60463 0.37293
 C706 C 0.23445 0.60616 0.35437
 C707 C 0.23381 0.62573 0.34094
 C708 C 0.24807 0.64405 0.34588
 C709 C 0.26297 0.64275 0.36433
 C710 C 0.26365 0.62318 0.37779
 C711 C 0.24808 0.66371 0.33133
 C712 C 0.24832 0.67959 0.31842
 H713 H 0.28707 0.55107 0.41748
 H714 H 0.28658 0.58327 0.39104
 H715 H 0.21347 0.57933 0.38769
 H716 H 0.21424 0.54689 0.41377
 H717 H 0.22348 0.59209 0.35004
 H718 H 0.22235 0.62648 0.32656
 H719 H 0.27413 0.65680 0.36826
 H720 H 0.27511 0.62268 0.39216
 C721 C 0.24617 0.95203 0.96776
 C722 C 0.24483 0.93536 0.95599
 C723 C 0.24335 0.91630 0.94081
 C724 C 0.26313 0.90669 0.93191
 C725 C 0.26176 0.88965 0.91549
 C726 C 0.24053 0.88203 0.90766
 C727 C 0.22073 0.89145 0.91709
 C728 C 0.22215 0.90849 0.93352
 C729 C 0.23909 0.86491 0.88923
 C730 C 0.22296 0.86729 0.87173
 C731 C 0.22197 0.85152 0.85405
 C732 C 0.23705 0.83318 0.85360
 C733 C 0.25308 0.83060 0.87096
 C734 C 0.25412 0.84635 0.88865
 C735 C 0.23597 0.81688 0.83545
 C736 C 0.23506 0.80297 0.82049
 H737 H 0.27963 0.91278 0.93724
 H738 H 0.27730 0.88296 0.90838
 H739 H 0.20415 0.88573 0.91165
 H740 H 0.20672 0.91587 0.94022
 H741 H 0.21138 0.88156 0.87150
 H742 H 0.20950 0.85369 0.84070
 H743 H 0.26477 0.81639 0.87085
 H744 H 0.26655 0.84391 0.90199
 C745 C 0.74645 0.44834 0.46609
 C746 C 0.74464 0.43169 0.45436
 C747 C 0.74265 0.41265 0.43923
 C748 C 0.76217 0.40193 0.43103
 C749 C 0.76041 0.38490 0.41464
 C750 C 0.73907 0.37840 0.40614
 C751 C 0.71951 0.38893 0.41486
 C752 C 0.72131 0.40595 0.43127
 C753 C 0.73731 0.36128 0.38773
 C754 C 0.72189 0.36441 0.36972
 C755 C 0.72062 0.34862 0.35208
 C756 C 0.73473 0.32950 0.35219
 C757 C 0.75004 0.32618 0.37007
 C758 C 0.75135 0.34195 0.38772
 C759 C 0.73343 0.31320 0.33406
 C760 C 0.73240 0.29930 0.31910
 H761 H 0.77879 0.40714 0.43689
 H762 H 0.77580 0.37733 0.40808
 H763 H 0.70283 0.38409 0.40890
 H764 H 0.70609 0.41420 0.43741
 H765 H 0.71109 0.37928 0.36905
 H766 H 0.70872 0.35137 0.33831
 H767 H 0.76097 0.31138 0.37037
 H768 H 0.76321 0.33893 0.40145
 C769 C 0.03129 0.24857 0.03394
 C770 C 0.04845 0.24876 0.04508
 C771 C 0.06867 0.24893 0.05878
 C772 C 0.07368 0.23042 0.07282
 C773 C 0.09284 0.23085 0.08681
 C774 C 0.10726 0.24986 0.08695
 C775 C 0.10220 0.26831 0.07259
 C776 C 0.08303 0.26783 0.05859
 C777 C 0.12714 0.25061 0.10243
 C778 C 0.14059 0.23116 0.10596
 C779 C 0.15873 0.23163 0.12125
 C780 C 0.16370 0.25152 0.13319
 C781 C 0.15063 0.27104 0.12959
 C782 C 0.13248 0.27062 0.11429
 C783 C 0.18173 0.25165 0.14968
 C784 C 0.19658 0.25150 0.16377
 H785 H 0.06262 0.21575 0.07318
 H786 H 0.09609 0.21652 0.09789
 H787 H 0.11312 0.28306 0.07213
 H788 H 0.07932 0.28224 0.04776
 H789 H 0.13709 0.21560 0.09686
 H790 H 0.16876 0.21642 0.12390
 H791 H 0.15426 0.28649 0.13885
 H792 H 0.12229 0.28578 0.11218
 C793 C 0.53399 0.74853 0.53297
 C794 C 0.55137 0.74865 0.54375
 C795 C 0.57186 0.74880 0.55705
 C796 C 0.57792 0.72967 0.56980
 C797 C 0.59726 0.73009 0.58353
 C798 C 0.61081 0.74970 0.58471
 C799 C 0.60473 0.76876 0.57159
 C800 C 0.58537 0.76829 0.55785
 C801 C 0.63079 0.75045 0.60006
 C802 C 0.63529 0.76993 0.61309
 C803 C 0.65348 0.77026 0.62832
 C804 C 0.66745 0.75118 0.63070
 C805 C 0.66333 0.73185 0.61758
 C806 C 0.64513 0.73146 0.60235
 C807 C 0.68548 0.75114 0.64717
 C808 C 0.70031 0.75089 0.66128
 H809 H 0.56751 0.71454 0.56939
 H810 H 0.60131 0.71527 0.59365
 H811 H 0.61496 0.78400 0.57193
 H812 H 0.58084 0.78319 0.54802
 H813 H 0.62438 0.78469 0.61195
 H814 H 0.65645 0.78527 0.63849
 H815 H 0.67405 0.71698 0.61928
 H816 H 0.64228 0.71633 0.59235
 C817 C 0.01642 0.74817 0.96840
 C818 C 0.02829 0.74673 0.95183
 C819 C 0.04352 0.74505 0.93288
 C820 C 0.04876 0.72380 0.92367
 C821 C 0.06525 0.72192 0.90676
 C822 C 0.07679 0.74129 0.89894
 C823 C 0.07100 0.76264 0.90792
 C824 C 0.05449 0.76448 0.92480
 C825 C 0.09533 0.73918 0.88207
 C826 C 0.11536 0.75190 0.88456
 C827 C 0.13292 0.74987 0.86882
 C828 C 0.13073 0.73510 0.85039
 C829 C 0.11092 0.72230 0.84778
 C830 C 0.09333 0.72428 0.86354
 C831 C 0.14857 0.73365 0.83385
 C832 C 0.16342 0.73299 0.81984
 H833 H 0.04051 0.70862 0.92996
 H834 H 0.06950 0.70524 0.90036
 H835 H 0.07935 0.77789 0.90201
 H836 H 0.05063 0.78100 0.93187
 H837 H 0.11757 0.76323 0.89884
 H838 H 0.14818 0.75986 0.87099
 H839 H 0.10901 0.71091 0.83349
 H840 H 0.07805 0.71443 0.86106
 C841 C 0.51454 0.24728 0.46767
 C842 C 0.52614 0.24566 0.45095
 C843 C 0.54109 0.24375 0.43182
 C844 C 0.54632 0.22238 0.42290
 C845 C 0.56262 0.22031 0.40583
 C846 C 0.57397 0.23961 0.39757
 C847 C 0.56816 0.26107 0.40625
 C848 C 0.55186 0.26310 0.42329
 C849 C 0.59238 0.23730 0.38060
 C850 C 0.61239 0.25010 0.38278
 C851 C 0.62987 0.24784 0.36699
 C852 C 0.62761 0.23276 0.34883
 C853 C 0.60782 0.21989 0.34652
 C854 C 0.59030 0.22211 0.36232
 C855 C 0.64538 0.23107 0.33225
 C856 C 0.66017 0.23022 0.31821
 H857 H 0.53824 0.20727 0.42954
 H858 H 0.56689 0.20354 0.39965
 H859 H 0.57638 0.27627 0.40000
 H860 H 0.54800 0.27972 0.43015
 H861 H 0.61465 0.26167 0.39686
 H862 H 0.64512 0.25788 0.36893
 H863 H 0.60585 0.20827 0.33242
 H864 H 0.57502 0.21219 0.36008
 C865 C 0.96760 0.75481 0.04848
 C866 C 0.95569 0.75615 0.06505
 C867 C 0.94040 0.75764 0.08401
 C868 C 0.93394 0.73796 0.09564
 C869 C 0.91749 0.73906 0.11266
 C870 C 0.90721 0.75989 0.11825
 C871 C 0.91419 0.77966 0.10680
 C872 C 0.93064 0.77851 0.08977
 C873 C 0.88881 0.76088 0.13542
 C874 C 0.88753 0.77901 0.15089
 C875 C 0.86995 0.78007 0.16675
 C876 C 0.85338 0.76309 0.16734
 C877 C 0.85451 0.74498 0.15206
 C878 C 0.87209 0.74387 0.13621
 C879 C 0.83537 0.76413 0.18378
 C880 C 0.82047 0.76499 0.19773
 H881 H 0.94130 0.72169 0.09126
 H882 H 0.91272 0.72360 0.12138
 H883 H 0.90643 0.79590 0.11050
 H884 H 0.93534 0.79382 0.08073
 H885 H 0.90026 0.79223 0.15088
 H886 H 0.86930 0.79412 0.17857
 H887 H 0.84177 0.73175 0.15235
 H888 H 0.87237 0.72989 0.12432
 C889 C 0.46614 0.25437 0.55091
 C890 C 0.45449 0.25569 0.56765
 C891 C 0.43947 0.25721 0.58681
 C892 C 0.42954 0.23753 0.59563
 C893 C 0.41325 0.23909 0.61277
 C894 C 0.40661 0.26039 0.62126
 C895 C 0.41708 0.28004 0.61263
 C896 C 0.43338 0.27844 0.59550
 C897 C 0.38832 0.26211 0.63848
 C898 C 0.37174 0.27927 0.63685
 C899 C 0.35417 0.28053 0.65270
 C900 C 0.35291 0.26469 0.67037
 C901 C 0.36937 0.24764 0.67221
 C902 C 0.38695 0.24633 0.65638
 C903 C 0.33485 0.26596 0.68671
 C904 C 0.31993 0.26694 0.70063
 H905 H 0.43396 0.22102 0.58888
 H906 H 0.40532 0.22367 0.61884
 H907 H 0.41256 0.29665 0.61903
 H908 H 0.44089 0.29379 0.58873
 H909 H 0.37212 0.29146 0.62309
 H910 H 0.34151 0.29379 0.65110
 H911 H 0.36862 0.23535 0.68589
 H912 H 0.39957 0.23309 0.65824
 C913 C 0.94999 0.24762 0.98397
 C914 C 0.93396 0.24773 0.97125
 C915 C 0.91621 0.24812 0.95447
 C916 C 0.90855 0.26890 0.94580
 C917 C 0.89369 0.26941 0.92730
 C918 C 0.88637 0.24910 0.91713
 C919 C 0.89363 0.22828 0.92640
 C920 C 0.90850 0.22781 0.94492
 C921 C 0.87191 0.24966 0.89647
 C922 C 0.87596 0.23451 0.87847
 C923 C 0.86251 0.23516 0.85891
 C924 C 0.84488 0.25097 0.85705
 C925 C 0.84077 0.26616 0.87481
 C926 C 0.85420 0.26555 0.89438
 C927 C 0.83032 0.25099 0.83743
 C928 C 0.81739 0.25080 0.82157
 H929 H 0.91467 0.28472 0.95286
 H930 H 0.88863 0.28570 0.92041
 H931 H 0.88803 0.21236 0.91917
 H932 H 0.91447 0.21163 0.95136
 H933 H 0.88970 0.22233 0.87940
 H934 H 0.86579 0.22327 0.84530
 H935 H 0.82702 0.27834 0.87363
 H936 H 0.85051 0.27728 0.90801
 C937 C 0.45066 0.74840 0.48391
 C938 C 0.43455 0.74869 0.47129
 C939 C 0.41671 0.74922 0.45461
 C940 C 0.40950 0.77002 0.44562
 C941 C 0.39452 0.77057 0.42721
 C942 C 0.38665 0.75026 0.41745
 C943 C 0.39347 0.72944 0.42705
 C944 C 0.40844 0.72894 0.44547
 C945 C 0.37211 0.75081 0.39684
 C946 C 0.37574 0.73528 0.37908
 C947 C 0.36227 0.73595 0.35954
 C948 C 0.34503 0.75215 0.35746
 C949 C 0.34131 0.76771 0.37499
 C950 C 0.35477 0.76709 0.39454
 C951 C 0.33043 0.75220 0.33786
 C952 C 0.31750 0.75203 0.32200
 H953 H 0.41606 0.78582 0.45234
 H954 H 0.38980 0.78685 0.42006
 H955 H 0.38743 0.71354 0.42013
 H956 H 0.41407 0.71274 0.45215
 H957 H 0.38918 0.72278 0.38018
 H958 H 0.36524 0.72377 0.34611
 H959 H 0.32786 0.78020 0.37364
 H960 H 0.35140 0.77911 0.40799
 C961 C 0.04796 0.03312 0.24724
 C962 C 0.06456 0.04499 0.24596
 C963 C 0.08355 0.06026 0.24451
 C964 C 0.08990 0.06934 0.22351
 C965 C 0.10692 0.08579 0.22229
 C966 C 0.11778 0.09347 0.24213
 C967 C 0.11161 0.08388 0.26312
 C968 C 0.09459 0.06742 0.26428
 C969 C 0.13496 0.11188 0.24098
 C970 C 0.13525 0.12922 0.25739
 C971 C 0.15109 0.14681 0.25607
 C972 C 0.16685 0.14734 0.23836
 C973 C 0.16675 0.13015 0.22200
 C974 C 0.15091 0.11255 0.22327
 C975 C 0.18326 0.16539 0.23708
 C976 C 0.19720 0.18030 0.23600
 H977 H 0.08132 0.06409 0.20812
 H978 H 0.11108 0.09302 0.20592
 H979 H 0.11987 0.08920 0.27864
 H980 H 0.08976 0.06058 0.28065
 H981 H 0.12299 0.12940 0.27103
 H982 H 0.15099 0.16004 0.26882
 H983 H 0.17894 0.13033 0.20827
 H984 H 0.15129 0.09934 0.21053
 C985 C 0.55145 0.53303 0.74581
 C986 C 0.56825 0.54456 0.74429
 C987 C 0.58744 0.55950 0.74252
 C988 C 0.59770 0.56802 0.76217
 C989 C 0.61484 0.58430 0.76054
 C990 C 0.62190 0.59236 0.73920
 C991 C 0.61183 0.58331 0.71953
 C992 C 0.59470 0.56702 0.72120
 C993 C 0.63911 0.61068 0.73751
 C994 C 0.63643 0.62840 0.72167
 C995 C 0.65230 0.64597 0.72046
 C996 C 0.67103 0.64609 0.73506
 C997 C 0.67392 0.62849 0.75080
 C998 C 0.65807 0.61091 0.75205
 C999 C 0.68735 0.66419 0.73387
 C1000 C 0.70122 0.67918 0.73291
 H1001 H 0.59204 0.56251 0.77877
 H1002 H 0.62204 0.59113 0.77600
 H1003 H 0.61710 0.58894 0.70286
 H1004 H 0.58679 0.56064 0.70589
 H1005 H 0.62185 0.62890 0.71049
 H1006 H 0.64988 0.65952 0.70823
 H1007 H 0.68842 0.62837 0.76212
 H1008 H 0.66074 0.59740 0.76424
 C1009 C 0.98413 0.04989 0.75102
 C1010 C 0.97137 0.06589 0.75122
 C1011 C 0.95453 0.08357 0.75135
 C1012 C 0.94317 0.08878 0.77151
 C1013 C 0.92465 0.10360 0.77122
 C1014 C 0.91716 0.11335 0.75071
 C1015 C 0.92910 0.10852 0.73063
 C1016 C 0.94764 0.09369 0.73097
 C1017 C 0.89650 0.12780 0.75018
 C1018 C 0.88059 0.12567 0.73246
 C1019 C 0.86093 0.13898 0.73220
 C1020 C 0.85691 0.15456 0.74963
 C1021 C 0.87263 0.15680 0.76731
 C1022 C 0.89228 0.14351 0.76761
 C1023 C 0.83715 0.16891 0.74907
 C1024 C 0.82118 0.18171 0.74893
 H1025 H 0.94814 0.08078 0.78733
 H1026 H 0.91567 0.10675 0.78691
 H1027 H 0.92395 0.11603 0.71464
 H1028 H 0.95618 0.08963 0.71523
 H1029 H 0.88319 0.11350 0.71897
 H1030 H 0.84891 0.13715 0.71840
 H1031 H 0.86978 0.16894 0.78079
 H1032 H 0.90431 0.14573 0.78133
 C1033 C 0.48303 0.54994 0.25021
 C1034 C 0.47032 0.56598 0.25022
 C1035 C 0.45357 0.58375 0.25000
 C1036 C 0.44478 0.59152 0.22932
 C1037 C 0.42633 0.60645 0.22899
 C1038 C 0.41634 0.61372 0.24939
 C1039 C 0.42572 0.60633 0.27011
 C1040 C 0.44418 0.59141 0.27039
 C1041 C 0.39574 0.62827 0.24903
 C1042 C 0.37784 0.62423 0.26429
 C1043 C 0.35834 0.63775 0.26380
 C1044 C 0.35643 0.65545 0.24805
 C1045 C 0.37409 0.65956 0.23276
 C1046 C 0.39360 0.64606 0.23321
 C1047 C 0.33686 0.67008 0.24819
 C1048 C 0.32103 0.68304 0.24852
 H1049 H 0.45170 0.58545 0.21343
 H1050 H 0.41935 0.61161 0.21278
 H1051 H 0.41863 0.61189 0.28610
 H1052 H 0.45072 0.58535 0.28650
 H1053 H 0.37881 0.61044 0.27643
 H1054 H 0.34481 0.63446 0.27577
 H1055 H 0.37287 0.67335 0.22063
 H1056 H 0.40716 0.64975 0.22141
 C1057 C 0.03421 0.96870 0.74811
 C1058 C 0.04550 0.95166 0.74719
 C1059 C 0.05950 0.93168 0.74609
 C1060 C 0.05103 0.91060 0.75302
 C1061 C 0.06496 0.89136 0.75246
 C1062 C 0.08753 0.89300 0.74491
 C1063 C 0.09578 0.91424 0.73779
 C1064 C 0.08185 0.93343 0.73840
 C1065 C 0.10262 0.87280 0.74488
 C1066 C 0.11790 0.86917 0.72693
 C1067 C 0.13287 0.85077 0.72743
 C1068 C 0.13278 0.83574 0.74584
 C1069 C 0.11741 0.83898 0.76362
 C1070 C 0.10239 0.85736 0.76314
 C1071 C 0.14908 0.81757 0.74689
 C1072 C 0.16315 0.80274 0.74784
 H1073 H 0.03372 0.90905 0.75896
 H1074 H 0.05805 0.87520 0.75780
 H1075 H 0.11316 0.91613 0.73221
 H1076 H 0.08860 0.94968 0.73307
 H1077 H 0.11828 0.88057 0.71251
 H1078 H 0.14470 0.84841 0.71359
 H1079 H 0.11728 0.82751 0.77801
 H1080 H 0.09104 0.85986 0.77734
 C1081 C 0.53284 0.46707 0.24766
 C1082 C 0.54396 0.44991 0.24681
 C1083 C 0.55780 0.42982 0.24575
 C1084 C 0.54926 0.40885 0.25295
 C1085 C 0.56304 0.38950 0.25235
 C1086 C 0.58552 0.39091 0.24450
 C1087 C 0.59385 0.41205 0.23717
 C1088 C 0.58008 0.43135 0.23781
 C1089 C 0.60044 0.37059 0.24431
 C1090 C 0.61541 0.36679 0.22615
 C1091 C 0.63026 0.34828 0.22649
 C1092 C 0.63033 0.33331 0.24495
 C1093 C 0.61524 0.33671 0.26293
 C1094 C 0.60035 0.35521 0.26262
 C1095 C 0.64653 0.31504 0.24581
 C1096 C 0.66049 0.30010 0.24660
 H1097 H 0.53201 0.40748 0.25909
 H1098 H 0.55607 0.37343 0.25789
 H1099 H 0.61118 0.41377 0.23138
 H1100 H 0.58689 0.44751 0.23229
 H1101 H 0.61567 0.37815 0.21169
 H1102 H 0.64186 0.34580 0.21248
 H1103 H 0.61524 0.32528 0.27735
 H1104 H 0.58923 0.35782 0.27697
 C1105 C 0.96770 0.98462 0.25406
 C1106 C 0.95109 0.97283 0.25567
 C1107 C 0.93209 0.95767 0.25757
 C1108 C 0.92136 0.94962 0.23799
 C1109 C 0.90444 0.93312 0.23965
 C1110 C 0.89808 0.92439 0.26095
 C1111 C 0.90855 0.93304 0.28058
 C1112 C 0.92549 0.94953 0.27887
 C1113 C 0.88124 0.90575 0.26262
 C1114 C 0.86486 0.90562 0.27994
 C1115 C 0.84926 0.88783 0.28158
 C1116 C 0.84988 0.86995 0.26598
 C1117 C 0.86614 0.86992 0.24874
 C1118 C 0.88172 0.88767 0.24705
 C1119 C 0.83350 0.85192 0.26722
 C1120 C 0.81959 0.83696 0.26773
 H1121 H 0.92640 0.95574 0.22140
 H1122 H 0.89646 0.92704 0.22426
 H1123 H 0.90421 0.92649 0.29719
 H1124 H 0.93385 0.95549 0.29413
 H1125 H 0.86393 0.91940 0.29204
 H1126 H 0.83664 0.88809 0.29492
 H1127 H 0.86676 0.85616 0.23657
 H1128 H 0.89434 0.88710 0.23375
 C1129 C 0.46772 0.48573 0.75425
 C1130 C 0.45092 0.47431 0.75628
 C1131 C 0.43173 0.45949 0.75866
 C1132 C 0.41950 0.45275 0.73947
 C1133 C 0.40248 0.43639 0.74139
 C1134 C 0.39751 0.42651 0.76256
 C1135 C 0.40946 0.43389 0.78187
 C1136 C 0.42649 0.45024 0.77990
 C1137 C 0.38064 0.40793 0.76434
 C1138 C 0.36553 0.40689 0.78276
 C1139 C 0.34992 0.38913 0.78449
 C1140 C 0.34926 0.37218 0.76790
 C1141 C 0.36424 0.37305 0.74955
 C1142 C 0.37983 0.39078 0.74777
 C1143 C 0.33290 0.35416 0.76933
 C1144 C 0.31900 0.33920 0.77002
 H1145 H 0.42349 0.45974 0.72293
 H1146 H 0.39334 0.43130 0.72628
 H1147 H 0.40620 0.42643 0.79835
 H1148 H 0.43601 0.45518 0.79483
 H1149 H 0.36562 0.41994 0.79567
 H1150 H 0.33830 0.38867 0.79870
 H1151 H 0.36388 0.36001 0.73661
 H1152 H 0.39149 0.39090 0.73360
 C1153 C 0.03130 0.25226 0.98442
 C1154 C 0.04800 0.25396 0.97281
 C1155 C 0.06719 0.25592 0.95794
 C1156 C 0.07439 0.27733 0.95063
 C1157 C 0.09168 0.27919 0.93454
 C1158 C 0.10194 0.25962 0.92553
 C1159 C 0.09491 0.23818 0.93338
 C1160 C 0.07762 0.23637 0.94945
 C1161 C 0.11933 0.26147 0.90746
 C1162 C 0.13839 0.24708 0.90745
 C1163 C 0.15435 0.24838 0.89000
 C1164 C 0.15146 0.26404 0.87234
 C1165 C 0.13266 0.27853 0.87226
 C1166 C 0.11669 0.27728 0.88970
 C1167 C 0.16784 0.26521 0.85434
 C1168 C 0.18176 0.26609 0.83944
 H1169 H 0.06635 0.29258 0.95702
 H1170 H 0.09692 0.29592 0.92905
 H1171 H 0.10227 0.22280 0.92656
 H1172 H 0.07201 0.21971 0.95484
 H1173 H 0.14103 0.23494 0.92102
 H1174 H 0.16891 0.23715 0.89027
 H1175 H 0.13027 0.29070 0.85866
 H1176 H 0.10204 0.28836 0.88906
 C1177 C 0.53309 0.75082 0.48335
 C1178 C 0.54957 0.75180 0.47135
 C1179 C 0.56847 0.75291 0.45601
 C1180 C 0.57567 0.73330 0.44474
 C1181 C 0.59265 0.73463 0.42829
 C1182 C 0.60262 0.75562 0.42285
 C1183 C 0.59562 0.77516 0.43464
 C1184 C 0.57861 0.77380 0.45108
 C1185 C 0.61973 0.75723 0.40447
 C1186 C 0.63882 0.77133 0.40684
 C1187 C 0.65473 0.77301 0.38936
 C1188 C 0.65174 0.76068 0.36929
 C1189 C 0.63282 0.74662 0.36678
 C1190 C 0.61691 0.74489 0.38424
 C1191 C 0.66823 0.76225 0.35141
 C1192 C 0.68222 0.76341 0.33658
 H1193 H 0.56787 0.71706 0.44837
 H1194 H 0.59789 0.71924 0.41974
 H1195 H 0.60278 0.79160 0.43065
 H1196 H 0.57302 0.78911 0.45956
 H1197 H 0.64158 0.78085 0.42229
 H1198 H 0.66938 0.78387 0.39151
 H1199 H 0.63033 0.73702 0.35131
 H1200 H 0.60221 0.73417 0.38176
 C1201 C 0.96745 0.75163 0.96666
 C1202 C 0.95645 0.75195 0.94941
 C1203 C 0.94283 0.75246 0.92914
 C1204 C 0.92544 0.76850 0.92696
 C1205 C 0.91162 0.76862 0.90768
 C1206 C 0.91500 0.75265 0.89029
 C1207 C 0.93269 0.73672 0.89253
 C1208 C 0.94651 0.73665 0.91184
 C1209 C 0.89975 0.75228 0.87021
 C1210 C 0.89196 0.73154 0.86135
 C1211 C 0.87684 0.73122 0.84305
 C1212 C 0.86935 0.75159 0.83334
 C1213 C 0.87722 0.77230 0.84182
 C1214 C 0.89233 0.77267 0.86013
 C1215 C 0.85298 0.75126 0.81520
 C1216 C 0.83893 0.75097 0.80032
 H1217 H 0.92237 0.78074 0.94031
 H1218 H 0.89796 0.78087 0.90662
 H1219 H 0.93587 0.72438 0.87931
 H1220 H 0.95995 0.72418 0.91335
 H1221 H 0.89709 0.71558 0.86893
 H1222 H 0.87074 0.71510 0.83669
 H1223 H 0.87152 0.78818 0.83443
 H1224 H 0.89822 0.78889 0.86640
 C1225 C 0.46507 0.25150 0.46799
 C1226 C 0.45385 0.25189 0.45087
 C1227 C 0.44004 0.25246 0.43073
 C1228 C 0.42191 0.26773 0.42923
 C1229 C 0.40801 0.26794 0.41000
 C1230 C 0.41205 0.25283 0.39199
 C1231 C 0.43044 0.23765 0.39359
 C1232 C 0.44435 0.23749 0.41285
 C1233 C 0.39680 0.25262 0.37192
 C1234 C 0.38992 0.23194 0.36220
 C1235 C 0.37474 0.23171 0.34394
 C1236 C 0.36630 0.25212 0.33513
 C1237 C 0.37330 0.27279 0.34445
 C1238 C 0.38846 0.27306 0.36271
 C1239 C 0.34983 0.25182 0.31710
 C1240 C 0.33570 0.25154 0.30231
 H1241 H 0.41837 0.27933 0.44303
 H1242 H 0.39381 0.27959 0.40945
 H1243 H 0.43413 0.22599 0.37990
 H1244 H 0.45836 0.22561 0.41384
 H1245 H 0.39579 0.21592 0.36908
 H1246 H 0.36934 0.21562 0.33692
 H1247 H 0.36688 0.28869 0.33775
 H1248 H 0.39367 0.28925 0.36963
 C1249 C 0.01715 0.75221 0.04972
 C1250 C 0.02998 0.75258 0.06566
 C1251 C 0.04693 0.75301 0.08324
 C1252 C 0.05760 0.77348 0.08876
 C1253 C 0.07624 0.77358 0.10345
 C1254 C 0.08454 0.75317 0.11274
 C1255 C 0.07330 0.73276 0.10758
 C1256 C 0.05465 0.73269 0.09289
 C1257 C 0.10527 0.75311 0.12711
 C1258 C 0.12172 0.73594 0.12466
 C1259 C 0.14133 0.73598 0.13805
 C1260 C 0.14477 0.75318 0.15402
 C1261 C 0.12857 0.77038 0.15651
 C1262 C 0.10896 0.77038 0.14314
 C1263 C 0.16432 0.75267 0.16867
 C1264 C 0.18006 0.75228 0.18175
 H1265 H 0.05199 0.78926 0.08112
 H1266 H 0.08468 0.78953 0.10686
 H1267 H 0.07907 0.71681 0.11472
 H1268 H 0.04665 0.71673 0.08857
 H1269 H 0.11956 0.72262 0.11222
 H1270 H 0.15372 0.72255 0.13604
 H1271 H 0.13097 0.78366 0.16897
 H1272 H 0.09653 0.78368 0.14560
 C1273 C 0.51622 0.25095 0.55008
 C1274 C 0.52925 0.25089 0.56587
 C1275 C 0.54637 0.25072 0.58329
 C1276 C 0.55576 0.23010 0.59049
 C1277 C 0.57447 0.22992 0.60509
 C1278 C 0.58412 0.25042 0.61261
 C1279 C 0.57416 0.27106 0.60576
 C1280 C 0.55544 0.27118 0.59116
 C1281 C 0.60486 0.25025 0.62697
 C1282 C 0.62236 0.26604 0.62316
 C1283 C 0.64197 0.26573 0.63656
 C1284 C 0.64436 0.24964 0.65389
 C1285 C 0.62708 0.23384 0.65777
 C1286 C 0.60748 0.23411 0.64441
 C1287 C 0.66403 0.24979 0.66840
 C1288 C 0.67983 0.24981 0.68140
 H1289 H 0.54908 0.21416 0.58425
 H1290 H 0.58188 0.21377 0.60983
 H1291 H 0.58098 0.28710 0.61152
 H1292 H 0.54843 0.28725 0.58553
 H1293 H 0.62100 0.27845 0.60966
 H1294 H 0.65519 0.27809 0.63346
 H1295 H 0.62867 0.22144 0.67128
 H1296 H 0.59423 0.22191 0.64794
 C1297 C 0.94854 0.24357 0.03341
 C1298 C 0.93197 0.24167 0.04521
 C1299 C 0.91302 0.23947 0.06041
 C1300 C 0.90921 0.21888 0.07165
 C1301 C 0.89217 0.21724 0.08802
 C1302 C 0.87873 0.23622 0.09343
 C1303 C 0.88237 0.25671 0.08166
 C1304 C 0.89942 0.25831 0.06529
 C1305 C 0.86151 0.23486 0.11176
 C1306 C 0.85883 0.25289 0.12716
 C1307 C 0.84291 0.25150 0.14465
 C1308 C 0.82946 0.23210 0.14702
 C1309 C 0.83197 0.21407 0.13179
 C1310 C 0.84790 0.21541 0.11428
 C1311 C 0.81287 0.23089 0.16487
 C1312 C 0.79880 0.23018 0.17966
 H1313 H 0.91978 0.20425 0.06817
 H1314 H 0.88999 0.20132 0.09696
 H1315 H 0.87211 0.27153 0.08521
 H1316 H 0.90228 0.27435 0.05675
 H1317 H 0.86928 0.26793 0.12591
 H1318 H 0.84112 0.26555 0.15634
 H1319 H 0.82156 0.19902 0.13339
 H1320 H 0.84939 0.20136 0.10257
 C1321 C 0.45110 0.74564 0.53408
 C1322 C 0.43465 0.74448 0.54614
 C1323 C 0.41581 0.74312 0.56158
 C1324 C 0.40637 0.72203 0.56704
 C1325 C 0.38939 0.72049 0.58351
 C1326 C 0.38167 0.74006 0.59479
 C1327 C 0.39098 0.76124 0.58886
 C1328 C 0.40795 0.76273 0.57240
 C1329 C 0.36444 0.73836 0.61309
 C1330 C 0.34725 0.75481 0.61512
 C1331 C 0.33137 0.75346 0.63265
 C1332 C 0.33244 0.73567 0.64840
 C1333 C 0.34940 0.71916 0.64648
 C1334 C 0.36530 0.72048 0.62896
 C1335 C 0.31608 0.73444 0.66645
 C1336 C 0.30212 0.73371 0.68136
 H1337 H 0.41238 0.70672 0.55884
 H1338 H 0.38236 0.70399 0.58747
 H1339 H 0.38564 0.77657 0.59743
 H1340 H 0.41530 0.77912 0.56848
 H1341 H 0.34596 0.76863 0.60304
 H1342 H 0.31825 0.76628 0.63392
 H1343 H 0.35041 0.70534 0.65860
 H1344 H 0.37852 0.70773 0.62807
 C1345 C 0.25112 0.03269 0.96732
 C1346 C 0.25182 0.04981 0.95611
 C1347 C 0.25260 0.06991 0.94224
 C1348 C 0.24297 0.09023 0.94988
 C1349 C 0.24321 0.10953 0.93600
 C1350 C 0.25314 0.10872 0.91432
 C1351 C 0.26292 0.08825 0.90690
 C1352 C 0.26263 0.06899 0.92077
 C1353 C 0.25298 0.12897 0.89927
 C1354 C 0.27205 0.13428 0.88598
 C1355 C 0.27156 0.15273 0.87105
 C1356 C 0.25205 0.16616 0.86921
 C1357 C 0.23309 0.16123 0.88258
 C1358 C 0.23355 0.14277 0.89755
 C1359 C 0.25131 0.18447 0.85302
 C1360 C 0.25084 0.19945 0.83906
 H1361 H 0.23519 0.09112 0.96649
 H1362 H 0.23576 0.12510 0.94228
 H1363 H 0.27038 0.08698 0.89018
 H1364 H 0.27004 0.05332 0.91465
 H1365 H 0.28735 0.12416 0.88713
 H1366 H 0.28634 0.15639 0.86079
 H1367 H 0.21785 0.17144 0.88119
 H1368 H 0.21851 0.13896 0.90734
 C1369 C 0.75312 0.53107 0.46512
 C1370 C 0.75379 0.54815 0.45386
 C1371 C 0.75450 0.56823 0.43995
 C1372 C 0.74346 0.58808 0.44689
 C1373 C 0.74356 0.60732 0.43294
 C1374 C 0.75475 0.60693 0.41187
 C1375 C 0.76596 0.58694 0.40517
 C1376 C 0.76581 0.56774 0.41912
 C1377 C 0.75438 0.62706 0.39668
 C1378 C 0.77384 0.63331 0.38440
 C1379 C 0.77321 0.65165 0.36934
 C1380 C 0.75315 0.66402 0.36636
 C1381 C 0.73378 0.65817 0.37872
 C1382 C 0.73438 0.63983 0.39382
 C1383 C 0.75230 0.68222 0.35006
 C1384 C 0.75170 0.69716 0.33607
 H1385 H 0.73467 0.58864 0.46301
 H1386 H 0.73500 0.62253 0.43867
 H1387 H 0.77444 0.58598 0.38892
 H1388 H 0.77431 0.55243 0.41354
 H1389 H 0.78957 0.62401 0.38645
 H1390 H 0.78831 0.65606 0.35987
 H1391 H 0.71813 0.66757 0.37646
 H1392 H 0.71905 0.63528 0.40281
 C1393 C 0.74446 0.01513 0.03023
 C1394 C 0.74267 0.02688 0.04684
 C1395 C 0.74063 0.04191 0.06592
 C1396 C 0.71936 0.05046 0.07204
 C1397 C 0.71757 0.06667 0.08922
 C1398 C 0.73707 0.07459 0.10048
 C1399 C 0.75832 0.06550 0.09455
 C1400 C 0.76007 0.04929 0.07735
 C1401 C 0.73537 0.09280 0.11777
 C1402 C 0.74870 0.09202 0.13757
 C1403 C 0.74750 0.10950 0.15352
 C1404 C 0.73300 0.12798 0.14989
 C1405 C 0.71958 0.12887 0.13031
 C1406 C 0.72074 0.11140 0.11434
 C1407 C 0.73195 0.14601 0.16628
 C1408 C 0.73126 0.16092 0.18022
 H1409 H 0.70421 0.04491 0.06324
 H1410 H 0.70095 0.07311 0.09363
 H1411 H 0.77367 0.07143 0.10270
 H1412 H 0.77664 0.04293 0.07260
 H1413 H 0.75993 0.07781 0.14081
 H1414 H 0.75791 0.10862 0.16867
 H1415 H 0.70833 0.14313 0.12731
 H1416 H 0.71052 0.11266 0.09911
 C1417 C 0.24607 0.51680 0.53340
 C1418 C 0.24455 0.52866 0.54995
 C1419 C 0.24279 0.54384 0.56893
 C1420 C 0.26199 0.54890 0.58195
 C1421 C 0.26076 0.56527 0.59905
 C1422 C 0.24031 0.57683 0.60329
 C1423 C 0.22098 0.57123 0.59044
 C1424 C 0.22225 0.55487 0.57335
 C1425 C 0.23931 0.59522 0.62044
 C1426 C 0.22030 0.59759 0.63464
 C1427 C 0.21920 0.61528 0.65038
 C1428 C 0.23703 0.63082 0.65211
 C1429 C 0.25604 0.62857 0.63812
 C1430 C 0.25719 0.61090 0.62239
 C1431 C 0.23599 0.64891 0.66842
 C1432 C 0.23528 0.66390 0.68228
 H1433 H 0.27800 0.54052 0.57860
 H1434 H 0.27584 0.56898 0.60887
 H1435 H 0.20507 0.58001 0.59310
 H1436 H 0.20735 0.55123 0.56322
 H1437 H 0.20639 0.58565 0.63371
 H1438 H 0.20446 0.61680 0.66122
 H1439 H 0.26994 0.64052 0.63933
 H1440 H 0.27188 0.60974 0.61147
 C1441 C 0.75352 0.96560 0.94924
 C1442 C 0.75555 0.95355 0.93286
 C1443 C 0.75796 0.93811 0.91410
 C1444 C 0.77914 0.92852 0.90932
 C1445 C 0.78121 0.91204 0.89240
 C1446 C 0.76207 0.90489 0.88004
 C1447 C 0.74092 0.91494 0.88471
 C1448 C 0.73889 0.93141 0.90165
 C1449 C 0.76402 0.88662 0.86279
 C1450 C 0.75185 0.88795 0.84227
 C1451 C 0.75333 0.87050 0.82628
 C1452 C 0.76695 0.85149 0.83057
 C1453 C 0.77921 0.85004 0.85087
 C1454 C 0.77778 0.86748 0.86688
 C1455 C 0.76819 0.83346 0.81413
 C1456 C 0.76900 0.81859 0.80013
 H1457 H 0.79400 0.93350 0.91893
 H1458 H 0.79776 0.90485 0.88902
 H1459 H 0.72582 0.90960 0.87573
 H1460 H 0.72237 0.93854 0.90537
 H1461 H 0.74133 0.90255 0.83850
 H1462 H 0.74381 0.87183 0.81059
 H1463 H 0.78977 0.83538 0.85439
 H1464 H 0.78709 0.86579 0.88264
 C1465 C 0.25385 0.46686 0.45109
 C1466 C 0.25557 0.45495 0.43456
 C1467 C 0.25759 0.43966 0.41564
 C1468 C 0.27871 0.43033 0.41015
 C1469 C 0.28042 0.41390 0.39315
 C1470 C 0.26097 0.40652 0.38143
 C1471 C 0.23988 0.41635 0.38676
 C1472 C 0.23821 0.43277 0.40378
 C1473 C 0.26255 0.38817 0.36422
 C1474 C 0.24967 0.38921 0.34412
 C1475 C 0.25077 0.37165 0.32823
 C1476 C 0.26471 0.35280 0.33219
 C1477 C 0.27766 0.35163 0.35208
 C1478 C 0.27660 0.36918 0.36799
 C1479 C 0.26563 0.33468 0.31584
 C1480 C 0.26622 0.31971 0.30192
 H1481 H 0.29381 0.43546 0.41930
 H1482 H 0.29693 0.40689 0.38924
 H1483 H 0.22456 0.41084 0.37827
 H1484 H 0.22174 0.43970 0.40804
 H1485 H 0.23889 0.40369 0.34060
 H1486 H 0.24072 0.37277 0.31285
 H1487 H 0.28847 0.33710 0.35536
 H1488 H 0.28646 0.36770 0.38344
 C1489 C 0.24780 0.95136 0.01737
 C1490 C 0.24725 0.93551 0.03032
 C1491 C 0.24667 0.91800 0.04735
 C1492 C 0.22641 0.91341 0.05879
 C1493 C 0.22632 0.89872 0.07744
 C1494 C 0.24656 0.88848 0.08498
 C1495 C 0.26673 0.89270 0.07297
 C1496 C 0.26678 0.90740 0.05431
 C1497 C 0.24675 0.87412 0.10573
 C1498 C 0.26459 0.87582 0.12154
 C1499 C 0.26470 0.86244 0.14116
 C1500 C 0.24697 0.84723 0.14527
 C1501 C 0.22909 0.84550 0.12971
 C1502 C 0.22895 0.85886 0.11009
 C1503 C 0.24762 0.83254 0.16480
 C1504 C 0.24816 0.81943 0.18052
 H1505 H 0.21081 0.92178 0.05376
 H1506 H 0.21058 0.89604 0.08647
 H1507 H 0.28252 0.88482 0.07815
 H1508 H 0.28260 0.91099 0.04571
 H1509 H 0.27835 0.88766 0.11886
 H1510 H 0.27866 0.86386 0.15305
 H1511 H 0.21539 0.83362 0.13263
 H1512 H 0.21510 0.85699 0.09814
 C1513 C 0.74910 0.44902 0.51627
 C1514 C 0.74832 0.43323 0.52928
 C1515 C 0.74751 0.41578 0.54638
 C1516 C 0.72720 0.41152 0.55785
 C1517 C 0.72692 0.39686 0.57653
 C1518 C 0.74702 0.38636 0.58407
 C1519 C 0.76723 0.39026 0.57202
 C1520 C 0.76746 0.40492 0.55333
 C1521 C 0.74704 0.37203 0.60485
 C1522 C 0.76494 0.37351 0.62063
 C1523 C 0.76490 0.36016 0.64027
 C1524 C 0.74698 0.34520 0.64444
 C1525 C 0.72905 0.34368 0.62892
 C1526 C 0.72905 0.35702 0.60927
 C1527 C 0.74747 0.33057 0.66402
 C1528 C 0.74790 0.31752 0.67980
 H1529 H 0.71171 0.42010 0.55282
 H1530 H 0.71115 0.39442 0.58558
 H1531 H 0.78291 0.38216 0.57720
 H1532 H 0.78332 0.40825 0.54470
 H1533 H 0.77885 0.38516 0.61789
 H1534 H 0.77890 0.36141 0.65213
 H1535 H 0.71520 0.33199 0.63187
 H1536 H 0.71516 0.35531 0.59735
 C1537 C 0.03361 0.05140 0.75429
 C1538 C 0.04548 0.06793 0.75615
 C1539 C 0.06079 0.08681 0.75831
 C1540 C 0.06771 0.09877 0.73900
 C1541 C 0.08428 0.11563 0.74076
 C1542 C 0.09422 0.12070 0.76188
 C1543 C 0.08676 0.10894 0.78128
 C1544 C 0.07019 0.09208 0.77948
 C1545 C 0.11280 0.13763 0.76356
 C1546 C 0.11392 0.15274 0.78199
 C1547 C 0.13163 0.16842 0.78365
 C1548 C 0.14847 0.16917 0.76697
 C1549 C 0.14751 0.15422 0.74858
 C1550 C 0.12982 0.13854 0.74688
 C1551 C 0.16647 0.18559 0.76843
 C1552 C 0.18134 0.19959 0.76936
 H1553 H 0.06062 0.09476 0.72252
 H1554 H 0.08942 0.12461 0.72557
 H1555 H 0.09425 0.11224 0.79773
 H1556 H 0.06512 0.08277 0.79450
 H1557 H 0.10096 0.15262 0.79497
 H1558 H 0.13213 0.18002 0.79788
 H1559 H 0.16045 0.15466 0.73555
 H1560 H 0.12965 0.12691 0.73267
 C1561 C 0.53319 0.54986 0.25298
 C1562 C 0.54522 0.56631 0.25461
 C1563 C 0.56072 0.58506 0.25655
 C1564 C 0.57001 0.59060 0.27769
 C1565 C 0.58672 0.60733 0.27935
 C1566 C 0.59445 0.61870 0.25982
 C1567 C 0.58463 0.61335 0.23871
 C1568 C 0.56791 0.59662 0.23710
 C1569 C 0.61313 0.63553 0.26138
 C1570 C 0.63029 0.63610 0.24482
 C1571 C 0.64804 0.65172 0.24641
 C1572 C 0.64894 0.66697 0.26455
 C1573 C 0.63198 0.66655 0.28112
 C1574 C 0.61420 0.65093 0.27958
 C1575 C 0.66696 0.68339 0.26584
 C1576 C 0.68183 0.69741 0.26666
 H1577 H 0.56473 0.58159 0.29283
 H1578 H 0.59410 0.61085 0.29580
 H1579 H 0.58997 0.62203 0.22342
 H1580 H 0.56092 0.59240 0.22063
 H1581 H 0.63016 0.62425 0.23080
 H1582 H 0.66107 0.65189 0.23347
 H1583 H 0.63242 0.67837 0.29518
 H1584 H 0.60114 0.65109 0.29247
 C1585 C 0.04897 0.98351 0.24981
 C1586 C 0.06487 0.97066 0.24938
 C1587 C 0.08246 0.95371 0.24888
 C1588 C 0.09235 0.94616 0.26913
 C1589 C 0.10713 0.92757 0.26903
 C1590 C 0.11213 0.91623 0.24864
 C1591 C 0.10259 0.92437 0.22828
 C1592 C 0.08782 0.94294 0.22843
 C1593 C 0.12660 0.89556 0.24869
 C1594 C 0.14245 0.89184 0.23127
 C1595 C 0.15587 0.87226 0.23123
 C1596 C 0.15363 0.85612 0.24854
 C1597 C 0.13787 0.85962 0.26590
 C1598 C 0.12443 0.87919 0.26598
 C1599 C 0.16827 0.83656 0.24896
 C1600 C 0.18133 0.82081 0.24928
 H1601 H 0.08817 0.95423 0.28509
 H1602 H 0.11446 0.92193 0.28493
 H1603 H 0.10588 0.91586 0.21235
 H1604 H 0.08000 0.94843 0.21269
 H1605 H 0.14471 0.90422 0.21787
 H1606 H 0.16818 0.86983 0.21782
 H1607 H 0.13606 0.84728 0.27943
 H1608 H 0.11215 0.88138 0.27943
 C1609 C 0.54996 0.48289 0.74876
 C1610 C 0.56561 0.46971 0.74857
 C1611 C 0.58292 0.45247 0.74861
 C1612 C 0.59087 0.44360 0.72810
 C1613 C 0.60546 0.42486 0.72812
 C1614 C 0.61221 0.41470 0.74869
 C1615 C 0.60458 0.42413 0.76923
 C1616 C 0.59001 0.44286 0.76916
 C1617 C 0.62659 0.39397 0.74876
 C1618 C 0.64391 0.39124 0.76499
 C1619 C 0.65725 0.37162 0.76523
 C1620 C 0.65347 0.35444 0.74931
 C1621 C 0.63627 0.35694 0.73311
 C1622 C 0.62290 0.37657 0.73283
 C1623 C 0.66797 0.33477 0.74912
 C1624 C 0.68100 0.31899 0.74909
 H1625 H 0.58534 0.45079 0.71208
 H1626 H 0.61130 0.41819 0.71205
 H1627 H 0.60924 0.41656 0.78533
 H1628 H 0.58371 0.44939 0.78513
 H1629 H 0.64736 0.40442 0.77730
 H1630 H 0.67067 0.36995 0.77772
 H1631 H 0.63326 0.34379 0.72064
 H1632 H 0.60949 0.37801 0.72034
 C1633 C 0.96618 0.03361 0.25005
 C1634 C 0.94900 0.04470 0.24951
 C1635 C 0.92881 0.05843 0.24870
 C1636 C 0.92888 0.07885 0.23655
 C1637 C 0.90954 0.09255 0.23605
 C1638 C 0.88981 0.08601 0.24774
 C1639 C 0.88985 0.06537 0.25982
 C1640 C 0.90925 0.05167 0.26027
 C1641 C 0.86948 0.10092 0.24761
 C1642 C 0.85691 0.10441 0.26757
 C1643 C 0.83843 0.11932 0.26766
 C1644 C 0.83224 0.13086 0.24781
 C1645 C 0.84440 0.12721 0.22778
 C1646 C 0.86288 0.11234 0.22766
 C1647 C 0.81401 0.14712 0.24814
 C1648 C 0.79911 0.16114 0.24832
 H1649 H 0.94397 0.08429 0.22761
 H1650 H 0.91017 0.10849 0.22690
 H1651 H 0.87486 0.05977 0.26879
 H1652 H 0.90901 0.03586 0.26970
 H1653 H 0.86173 0.09608 0.28326
 H1654 H 0.82920 0.12211 0.28329
 H1655 H 0.83974 0.13605 0.21232
 H1656 H 0.87202 0.10977 0.21195
 C1657 C 0.46876 0.53535 0.75042
 C1658 C 0.45199 0.54706 0.75056
 C1659 C 0.43239 0.56162 0.75068
 C1660 C 0.43517 0.58511 0.74864
 C1661 C 0.41630 0.59945 0.74894
 C1662 C 0.39432 0.59048 0.75131
 C1663 C 0.39167 0.56681 0.75320
 C1664 C 0.41061 0.55248 0.75292
 C1665 C 0.37435 0.60585 0.75181
 C1666 C 0.35427 0.60022 0.74018
 C1667 C 0.33576 0.61511 0.74015
 C1668 C 0.33707 0.63575 0.75181
 C1669 C 0.35686 0.64135 0.76366
 C1670 C 0.37536 0.62652 0.76369
 C1671 C 0.31842 0.65153 0.75128
 C1672 C 0.30324 0.66524 0.75094
 H1673 H 0.45195 0.59235 0.74680
 H1674 H 0.41888 0.61755 0.74708
 H1675 H 0.37500 0.55942 0.75526
 H1676 H 0.40829 0.53431 0.75454
 H1677 H 0.35305 0.58454 0.73070
 H1678 H 0.32054 0.61064 0.73086
 H1679 H 0.35804 0.65725 0.77278
 H1680 H 0.39044 0.63118 0.77310
 C1681 C 0.98462 0.96854 0.74576
 C1682 C 0.97298 0.95185 0.74405
 C1683 C 0.95802 0.93272 0.74205
 C1684 C 0.94771 0.92793 0.72120
 C1685 C 0.93147 0.91075 0.71965
 C1686 C 0.92527 0.89820 0.73900
 C1687 C 0.93613 0.90279 0.75977
 C1688 C 0.95238 0.91997 0.76127
 C1689 C 0.90695 0.88100 0.73767
 C1690 C 0.89067 0.87940 0.75503
 C1691 C 0.87310 0.86359 0.75359
 C1692 C 0.87154 0.84919 0.73482
 C1693 C 0.88766 0.85060 0.71748
 C1694 C 0.90525 0.86642 0.71886
 C1695 C 0.85361 0.83273 0.73357
 C1696 C 0.83878 0.81871 0.73276
 H1697 H 0.95180 0.93785 0.70627
 H1698 H 0.92322 0.90782 0.70350
 H1699 H 0.93193 0.89321 0.77488
 H1700 H 0.96020 0.92361 0.77751
 H1701 H 0.89131 0.89063 0.76954
 H1702 H 0.86070 0.86263 0.76710
 H1703 H 0.88666 0.83944 0.70292
 H1704 H 0.91764 0.86711 0.70535
 C1705 C 0.48319 0.46748 0.24592
 C1706 C 0.47132 0.45091 0.24466
 C1707 C 0.45609 0.43193 0.24328
 C1708 C 0.44838 0.42439 0.22213
 C1709 C 0.43190 0.40740 0.22085
 C1710 C 0.42285 0.39781 0.24075
 C1711 C 0.43111 0.40514 0.26192
 C1712 C 0.44760 0.42211 0.26315
 C1713 C 0.40435 0.38080 0.23946
 C1714 C 0.38598 0.38181 0.25464
 C1715 C 0.36835 0.36606 0.25324
 C1716 C 0.36879 0.34912 0.23666
 C1717 C 0.38699 0.34793 0.22149
 C1718 C 0.40465 0.36368 0.22284
 C1719 C 0.35076 0.33275 0.23545
 C1720 C 0.33583 0.31883 0.23465
 H1721 H 0.45469 0.43203 0.20665
 H1722 H 0.42571 0.40231 0.20432
 H1723 H 0.42471 0.39786 0.27752
 H1724 H 0.45338 0.42789 0.27962
 H1725 H 0.38508 0.39500 0.26739
 H1726 H 0.35434 0.36713 0.26507
 H1727 H 0.38756 0.33479 0.20866
 H1728 H 0.41866 0.36232 0.21107
   
