data_POSCAR
  _audit_creation_date              2014-09-24
  _audit_creation_method            'ToBaCCo'
  _symmetry_space_group_name_H-M    'P1'
  _symmetry_Int_Tables_number       1
  _symmetry_cell_setting            triclinic
  loop_
  _symmetry_equiv_pos_as_xyz
 x,y,z
_cell_length_a 64.7436
_cell_length_b 64.3089
_cell_length_c 64.4423
_cell_angle_alpha 96.623600
_cell_angle_beta 97.057000
_cell_angle_gamma 95.655000
loop_
  _atom_site_label
  _atom_site_type_symbol
  _atom_site_fract_x
  _atom_site_fract_y
  _atom_site_fract_z
C1 C 0.71677 0.67259 0.97601
 H2 H 0.73199 0.67287 0.97083
 C3 C 0.70206 0.68454 0.96686
 H4 H 0.70629 0.69410 0.95493
 C5 C 0.69238 0.65920 0.99706
 H6 H 0.68826 0.64877 1.00824
 C7 C 0.67735 0.67116 0.98861
 H8 H 0.66199 0.66993 0.99369
 N9 N 0.71173 0.66012 0.99077
 C10 C 0.76565 0.65952 1.03306
 H11 H 0.75641 0.65305 1.04409
 C12 C 0.78609 0.66873 1.04027
 H13 H 0.79200 0.66948 1.05684
 C14 C 0.76980 0.66518 0.99809
 H15 H 0.76377 0.66287 0.98151
 C16 C 0.79035 0.67448 1.00462
 H17 H 0.79966 0.67972 0.99295
 Zn18 Zn 0.73128 0.64233 1.00166
 N19 N 0.75784 0.65791 1.01226
 C20 C 0.75198 0.61019 0.98384
 N21 N 0.73620 0.62217 0.97962
 C22 C 0.72610 0.62152 0.95971
 C23 C 0.73255 0.60924 0.94290
 C24 C 0.75878 0.59753 0.96755
 C25 C 0.71596 0.64170 1.04032
 C26 C 0.70855 0.63324 1.05731
 C27 C 0.71035 0.59836 1.03962
 C28 C 0.71773 0.60760 1.02288
 N29 N 0.72055 0.62893 1.02362
 H30 H 0.75988 0.61121 0.99978
 H31 H 0.71354 0.63111 0.95670
 H32 H 0.72479 0.60946 0.92706
 H33 H 0.77185 0.58868 0.97121
 H34 H 0.71822 0.65862 1.04048
 H35 H 0.70522 0.64409 1.07030
 H36 H 0.70839 0.58133 1.03859
 H37 H 0.72128 0.59768 1.00937
 C38 C 0.79886 0.67613 1.02595
 C39 C 0.68203 0.68388 0.97314
 C40 C 0.70568 0.61120 1.05734
 C41 C 0.74942 0.59741 0.94667
 C42 C 0.72997 0.36840 0.49757
 H43 H 0.74507 0.37088 0.50730
 C44 C 0.71472 0.35300 0.50133
 H45 H 0.71832 0.34363 0.51395
 C46 C 0.70677 0.37849 0.47008
 H47 H 0.70366 0.38875 0.45820
 C48 C 0.69087 0.36343 0.47356
 H49 H 0.67565 0.36208 0.46412
 N50 N 0.72585 0.38074 0.48212
 C51 C 0.78901 0.40368 0.47129
 H52 H 0.78803 0.42034 0.47132
 C53 C 0.80758 0.39551 0.46736
 H54 H 0.82085 0.40613 0.46493
 C55 C 0.77253 0.36949 0.47288
 H56 H 0.75875 0.35919 0.47427
 C57 C 0.79070 0.36066 0.46892
 H58 H 0.79060 0.34372 0.46781
 Zn59 Zn 0.74710 0.40260 0.47978
 N60 N 0.77209 0.39073 0.47450
 C61 C 0.76847 0.43590 0.51100
 N62 N 0.75150 0.42111 0.50578
 C63 C 0.73739 0.41828 0.51951
 C64 C 0.74092 0.42920 0.53982
 C65 C 0.77254 0.44733 0.53119
 C66 C 0.73647 0.40602 0.43725
 C67 C 0.73060 0.41575 0.41951
 C68 C 0.72990 0.44810 0.44247
 C69 C 0.73574 0.43770 0.45979
 N70 N 0.73881 0.41703 0.45686
 H71 H 0.77923 0.43852 0.49983
 H72 H 0.72350 0.40720 0.51497
 H73 H 0.72981 0.42606 0.55065
 H74 H 0.78659 0.45839 0.53532
 H75 H 0.73917 0.38961 0.43542
 H76 H 0.72877 0.40664 0.40406
 H77 H 0.72745 0.46455 0.44514
 H78 H 0.73779 0.44614 0.47555
 C79 C 0.80862 0.37371 0.46626
 C80 C 0.69477 0.35052 0.48945
 C81 C 0.72718 0.43707 0.42198
 C82 C 0.75900 0.44350 0.54611
 C83 C 0.23992 -0.12881 -0.00418
 H84 H 0.25534 -0.12504 0.00485
 C85 C 0.22506 -0.14278 0.00253
 H86 H 0.22934 -0.14985 0.01667
 C87 C 0.21554 -0.12324 -0.03301
 H88 H 0.21174 -0.11515 -0.04652
 C89 C 0.20012 -0.13708 -0.02679
 H90 H 0.18463 -0.13963 -0.03579
 N91 N 0.23494 -0.11927 -0.02158
 C92 C 0.29434 -0.09693 -0.04141
 H93 H 0.29221 -0.08056 -0.04226
 C94 C 0.31233 -0.10481 -0.04752
 H95 H 0.32402 -0.09431 -0.05298
 C96 C 0.28138 -0.13051 -0.03366
 H97 H 0.26913 -0.14060 -0.02863
 C98 C 0.29917 -0.13901 -0.03945
 H99 H 0.30041 -0.15557 -0.03865
 Zn100 Zn 0.25512 -0.09808 -0.02721
 N101 N 0.27938 -0.10976 -0.03453
 C102 C 0.28169 -0.07231 0.00672
 N103 N 0.26159 -0.07877 -0.00219
 C104 C 0.24513 -0.07322 0.00760
 C105 C 0.24854 -0.06135 0.02750
 C106 C 0.28581 -0.06002 0.02644
 C107 C 0.24013 -0.09570 -0.06940
 C108 C 0.23196 -0.08636 -0.08667
 C109 C 0.23242 -0.05399 -0.06334
 C110 C 0.24062 -0.06399 -0.04659
 N111 N 0.24408 -0.08452 -0.04985
 H112 H 0.29457 -0.07716 -0.00112
 H113 H 0.22930 -0.07874 0.00025
 H114 H 0.23523 -0.05768 0.03533
 H115 H 0.30190 -0.05550 0.03355
 H116 H 0.24325 -0.11198 -0.07154
 H117 H 0.22884 -0.09583 -0.10198
 H118 H 0.22971 -0.03766 -0.06007
 H119 H 0.24415 -0.05531 -0.03096
 C120 C 0.31493 -0.12613 -0.04656
 C121 C 0.20471 -0.14679 -0.00858
 C122 C 0.22779 -0.06515 -0.08386
 C123 C 0.26910 -0.05484 0.03728
 C124 C 0.21453 0.16726 0.47582
 H125 H 0.22957 0.16719 0.47027
 C126 C 0.20038 0.18044 0.46790
 H127 H 0.20483 0.19054 0.45648
 C128 C 0.19011 0.15379 0.49680
 H129 H 0.18575 0.14293 0.50751
 C130 C 0.17568 0.16697 0.48962
 H131 H 0.16052 0.16619 0.49515
 N132 N 0.20924 0.15425 0.49004
 C133 C 0.26288 0.15140 0.53157
 H134 H 0.25357 0.14483 0.54248
 C135 C 0.28347 0.16002 0.53887
 H136 H 0.28939 0.16023 0.55536
 C137 C 0.26714 0.15776 0.49681
 H138 H 0.26106 0.15596 0.48026
 C139 C 0.28787 0.16645 0.50343
 H140 H 0.29729 0.17175 0.49187
 Zn141 Zn 0.22825 0.13557 0.50006
 N142 N 0.25505 0.15041 0.51084
 C143 C 0.24816 0.10332 0.48144
 N144 N 0.23274 0.11578 0.47750
 C145 C 0.22302 0.11603 0.45759
 C146 C 0.22958 0.10422 0.44051
 C147 C 0.25504 0.09112 0.46489
 C148 C 0.21342 0.13458 0.53886
 C149 C 0.20665 0.12600 0.55604
 C150 C 0.20739 0.09120 0.53768
 C151 C 0.21426 0.10053 0.52075
 N152 N 0.21742 0.12189 0.52178
 H153 H 0.25580 0.10366 0.49740
 H154 H 0.21080 0.12605 0.45480
 H155 H 0.22219 0.10519 0.42469
 H156 H 0.26787 0.08191 0.46837
 H157 H 0.21589 0.15152 0.53924
 H158 H 0.20387 0.13656 0.56949
 H159 H 0.20524 0.07419 0.53673
 H160 H 0.21730 0.09069 0.50695
 C161 C 0.29638 0.16740 0.52468
 C162 C 0.18069 0.18044 0.47489
 C163 C 0.20375 0.10403 0.55575
 C164 C 0.24617 0.09198 0.44402
 C165 C 0.16151 0.46648 0.21121
 H166 H 0.16349 0.46262 0.22714
 C167 C 0.17385 0.45801 0.19670
 H168 H 0.18533 0.44782 0.20171
 C169 C 0.14392 0.48396 0.18512
 H170 H 0.13181 0.49351 0.18037
 C171 C 0.15610 0.47614 0.17026
 H172 H 0.15331 0.48005 0.15433
 N173 N 0.14697 0.47935 0.20528
 C174 C 0.14680 0.52213 0.25850
 H175 H 0.14043 0.53304 0.24866
 C176 C 0.15601 0.52972 0.27904
 H177 H 0.15682 0.54641 0.28438
 C178 C 0.15225 0.48723 0.26405
 H179 H 0.14994 0.47056 0.25844
 C180 C 0.16154 0.49415 0.28478
 H181 H 0.16674 0.48268 0.29472
 Zn182 Zn 0.12945 0.49058 0.22455
 N183 N 0.14506 0.50119 0.25134
 C184 C 0.09646 0.47350 0.24396
 N185 N 0.10932 0.46893 0.22933
 C186 C 0.10959 0.44882 0.22018
 C187 C 0.09717 0.43222 0.22634
 C188 C 0.08352 0.45744 0.25033
 C189 C 0.13002 0.52851 0.20784
 C190 C 0.12253 0.54610 0.20019
 C191 C 0.08736 0.53149 0.20316
 C192 C 0.09558 0.51400 0.21073
 N193 N 0.11664 0.51299 0.21317
 H194 H 0.09685 0.48958 0.25128
 H195 H 0.12003 0.44551 0.20868
 H196 H 0.09805 0.41625 0.21936
 H197 H 0.07383 0.46136 0.26244
 H198 H 0.14668 0.52730 0.20983
 H199 H 0.13367 0.55826 0.19632
 H200 H 0.07060 0.53217 0.20151
 H201 H 0.08515 0.50141 0.21484
 C202 C 0.16326 0.51565 0.29261
 C203 C 0.17134 0.46301 0.17596
 C204 C 0.10096 0.54792 0.19791
 C205 C 0.08418 0.43641 0.24187
 C206 C -0.11851 0.00086 0.24617
 H207 H -0.11629 0.00870 0.26220
 C208 C -0.13094 0.00886 0.23045
 H209 H -0.13827 0.02287 0.23476
 C210 C -0.11092 -0.02657 0.22142
 H211 H -0.10276 -0.04015 0.21793
 C212 C -0.12332 -0.01917 0.20516
 H213 H -0.12461 -0.02737 0.18933
 N214 N -0.10882 -0.01654 0.24146
 C215 C -0.09679 -0.04226 0.30078
 H216 H -0.08000 -0.04247 0.30204
 C217 C -0.10763 -0.04894 0.31669
 H218 H -0.09901 -0.05433 0.33015
 C219 C -0.12828 -0.03482 0.28167
 H220 H -0.13629 -0.02940 0.26795
 C221 C -0.13979 -0.04156 0.29711
 H222 H -0.15657 -0.04104 0.29515
 Zn223 Zn -0.09106 -0.02476 0.26382
 N224 N -0.10712 -0.03489 0.28398
 C225 C -0.07337 0.00724 0.29674
 N226 N -0.07302 -0.00024 0.27620
 C227 C -0.06227 0.01112 0.26359
 C228 C -0.05195 0.03118 0.27140
 C229 C -0.06321 0.02706 0.30519
 C230 C -0.08760 -0.06569 0.24682
 C231 C -0.07791 -0.08288 0.23922
 C232 C -0.04469 -0.06092 0.24639
 C233 C -0.05505 -0.04411 0.25393
 N234 N -0.07617 -0.04675 0.25377
 H235 H -0.08238 -0.00162 0.30644
 H236 H -0.06261 0.00502 0.24717
 H237 H -0.04422 0.04031 0.26089
 H238 H -0.06434 0.03283 0.32143
 H239 H -0.10435 -0.06736 0.24711
 H240 H -0.08741 -0.09773 0.23356
 H241 H -0.02789 -0.05848 0.24648
 H242 H -0.04624 -0.02899 0.25983
 C243 C -0.12941 -0.04844 0.31508
 C244 C -0.13345 -0.00105 0.20950
 C245 C -0.05617 -0.08062 0.23882
 C246 C -0.05280 0.03961 0.29235
 C247 C 0.36947 0.49307 0.73367
 H248 H 0.37220 0.50072 0.74977
 C249 C 0.35520 0.50022 0.71888
 H250 H 0.34697 0.51340 0.72385
 C251 C 0.37738 0.46686 0.70778
 H252 H 0.38633 0.45410 0.70348
 C253 C 0.36321 0.47352 0.69243
 H254 H 0.36134 0.46568 0.67641
 N255 N 0.38019 0.47668 0.72795
 C256 C 0.39857 0.45392 0.78772
 H257 H 0.41535 0.45476 0.78783
 C258 C 0.38966 0.44840 0.80524
 H259 H 0.39971 0.44479 0.81875
 C260 C 0.36521 0.45822 0.77010
 H261 H 0.35573 0.46215 0.75643
 C262 C 0.35559 0.45240 0.78714
 H263 H 0.33876 0.45205 0.78642
 Zn264 Zn 0.40010 0.46961 0.74917
 N265 N 0.38639 0.45937 0.77092
 C266 C 0.41722 0.50309 0.78058
 N267 N 0.41757 0.49495 0.76020
 C268 C 0.42788 0.50605 0.74708
 C269 C 0.43791 0.52638 0.75423
 C270 C 0.42700 0.52319 0.78834
 C271 C 0.40436 0.42887 0.73200
 C272 C 0.41434 0.41199 0.72411
 C273 C 0.44678 0.43514 0.72911
 C274 C 0.43616 0.45159 0.73703
 N275 N 0.41528 0.44820 0.73816
 H276 H 0.40844 0.49457 0.79068
 H277 H 0.42751 0.49948 0.73079
 H278 H 0.44538 0.53528 0.74337
 H279 H 0.42593 0.52941 0.80447
 H280 H 0.38780 0.42659 0.73328
 H281 H 0.40526 0.39678 0.71925
 H282 H 0.46339 0.43816 0.72827
 H283 H 0.44463 0.46699 0.74233
 C284 C 0.36792 0.44784 0.80518
 C285 C 0.35202 0.49054 0.69789
 C286 C 0.43585 0.41499 0.72253
 C287 C 0.43707 0.53537 0.77501
 C288 C 0.67510 0.97540 0.72335
 H289 H 0.67464 0.96858 0.73788
 C290 C 0.68766 0.96779 0.70869
 H291 H 0.69696 0.95519 0.71216
 C292 C 0.66277 0.99942 0.70079
 H293 H 0.65247 1.01115 0.69734
 C294 C 0.67535 0.99253 0.68587
 H295 H 0.67470 0.99930 0.67121
 N296 N 0.66276 0.99073 0.71906
 C297 C 0.64455 1.01030 0.78036
 H298 H 0.62790 1.00554 0.77637
 C299 C 0.65286 1.01784 0.80111
 H300 H 0.64230 1.01879 0.81289
 C301 C 0.67816 1.01465 0.76942
 H302 H 0.68785 1.01331 0.75692
 C303 C 0.68712 1.02301 0.78996
 H304 H 0.70381 1.02790 0.79304
 Zn305 Zn 0.64343 0.99746 0.73793
 N306 N 0.65722 1.00845 0.76511
 C307 C 0.63408 0.96140 0.75631
 N308 N 0.62703 0.97183 0.74013
 C309 C 0.61056 0.96307 0.72551
 C310 C 0.59970 0.94367 0.72771
 C311 C 0.62407 0.94188 0.75881
 C312 C 0.63997 1.03730 0.72824
 C313 C 0.63118 1.05479 0.72183
 C314 C 0.59701 1.03477 0.71729
 C315 C 0.60654 1.01754 0.72392
 N316 N 0.62776 1.01899 0.72876
 H317 H 0.64782 0.96804 0.76718
 H318 H 0.60597 0.97097 0.71204
 H319 H 0.58641 0.93701 0.71618
 H320 H 0.62993 0.93403 0.77195
 H321 H 0.65674 1.03821 0.73265
 H322 H 0.64144 1.06901 0.72133
 H323 H 0.58015 1.03329 0.71322
 H324 H 0.59693 1.00321 0.72530
 C325 C 0.67446 1.02443 0.80628
 C326 C 0.68768 0.97621 0.68954
 C327 C 0.60944 1.05367 0.71599
 C328 C 0.60651 0.93286 0.74456
 C329 C -0.00014 0.23855 -0.13185
 H330 H 0.00786 0.25422 -0.13136
 C331 C 0.00429 0.22212 -0.14608
 H332 H 0.01578 0.22533 -0.15651
 C333 C -0.02442 0.21542 -0.11832
 H334 H -0.03535 0.21286 -0.10722
 C335 C -0.02026 0.19843 -0.13215
 H336 H -0.02823 0.18291 -0.13170
 N337 N -0.01441 0.23501 -0.11848
 C338 C -0.02925 0.29885 -0.10246
 H339 H -0.02562 0.30059 -0.08546
 C340 C -0.03530 0.31583 -0.11245
 H341 H -0.03638 0.33063 -0.10298
 C342 C -0.03225 0.27732 -0.13535
 H343 H -0.03129 0.26222 -0.14420
 C344 C -0.03863 0.29382 -0.14598
 H345 H -0.04224 0.29126 -0.16300
 Zn346 Zn -0.01828 0.25825 -0.09922
 N347 N -0.02738 0.28022 -0.11399
 C348 C 0.01916 0.28516 -0.08681
 N349 N 0.00824 0.26718 -0.08290
 C350 C 0.01724 0.25428 -0.06998
 C351 C 0.03804 0.25935 -0.06040
 C352 C 0.04000 0.29057 -0.07794
 C353 C -0.05886 0.24505 -0.09360
 C354 C -0.07562 0.23887 -0.08318
 C355 C -0.05205 0.24477 -0.05039
 C356 C -0.03576 0.25099 -0.06151
 N357 N -0.03936 0.25063 -0.08278
 H358 H 0.01215 0.29478 -0.09775
 H359 H 0.00854 0.23965 -0.06776
 H360 H 0.04520 0.24864 -0.05068
 H361 H 0.04858 0.30459 -0.08183
 H362 H -0.06131 0.24523 -0.11049
 H363 H -0.09085 0.23431 -0.09246
 H364 H -0.04857 0.24496 -0.03349
 H365 H -0.02027 0.25604 -0.05312
 C366 C -0.03997 0.31346 -0.13452
 C367 C -0.00571 0.20169 -0.14627
 C368 C -0.07243 0.23831 -0.06121
 C369 C 0.04977 0.27745 -0.06482
 C370 C 0.48485 0.21169 0.17239
 H371 H 0.48052 0.22749 0.17449
 C372 C 0.47615 0.19651 0.18369
 H373 H 0.46534 0.20094 0.19452
 C374 C 0.50349 0.18650 0.15523
 H375 H 0.51358 0.18237 0.14362
 C376 C 0.49537 0.17093 0.16635
 H377 H 0.49961 0.15510 0.16329
 N378 N 0.49824 0.20649 0.15841
 C379 C 0.53984 0.26038 0.15980
 H380 H 0.55082 0.25084 0.15326
 C381 C 0.54696 0.28092 0.16909
 H382 H 0.56338 0.28657 0.16980
 C383 C 0.50511 0.26528 0.16543
 H384 H 0.48865 0.25949 0.16303
 C385 C 0.51156 0.28598 0.17481
 H386 H 0.49995 0.29566 0.18003
 Zn387 Zn 0.50870 0.22662 0.14155
 N388 N 0.51919 0.25293 0.15802
 C389 C 0.49069 0.24803 0.10980
 N390 N 0.48665 0.23239 0.12173
 C391 C 0.46687 0.22284 0.12129
 C392 C 0.45005 0.22956 0.10908
 C393 C 0.47439 0.25504 0.09715
 C394 C 0.54704 0.21057 0.14063
 C395 C 0.56449 0.20400 0.13225
 C396 C 0.54755 0.20746 0.09747
 C397 C 0.53034 0.21407 0.10659
 N398 N 0.53059 0.21588 0.12789
 H399 H 0.50653 0.25557 0.11069
 H400 H 0.46398 0.21049 0.13095
 H401 H 0.43435 0.22216 0.10938
 H402 H 0.47790 0.26789 0.08820
 H403 H 0.54676 0.21193 0.15749
 H404 H 0.57749 0.20026 0.14288
 H405 H 0.54726 0.20648 0.08056
 H406 H 0.51699 0.21805 0.09668
 C407 C 0.53270 0.29418 0.17639
 C408 C 0.48135 0.17578 0.18069
 C409 C 0.56508 0.20267 0.11043
 C410 C 0.45368 0.24611 0.09708
 C411 C 0.96315 0.71681 0.65505
 H412 H 0.95699 0.73184 0.65514
 C413 C 0.95663 0.70272 0.66856
 H414 H 0.94549 0.70709 0.67905
 C415 C 0.98470 0.69265 0.64085
 H416 H 0.99508 0.68841 0.62955
 C417 C 0.97883 0.67823 0.65425
 H418 H 0.98503 0.66317 0.65323
 N419 N 0.97687 0.71155 0.64147
 C420 C 0.99610 0.77243 0.62265
 H421 H 0.99105 0.76855 0.60589
 C422 C 1.00381 0.79306 0.63099
 H423 H 1.00470 0.80504 0.62052
 C424 C 1.00104 0.76133 0.65658
 H425 H 0.99990 0.74883 0.66639
 C426 C 1.00935 0.78178 0.66556
 H427 H 1.01443 0.78498 0.68237
 Zn428 Zn 0.98333 0.73015 0.62174
 N429 N 0.99454 0.75715 0.63548
 C430 C 0.94704 0.74839 0.61393
 N431 N 0.95768 0.73321 0.60512
 C432 C 0.94919 0.72067 0.58698
 C433 C 0.92975 0.72404 0.57645
 C434 C 0.92752 0.75194 0.60428
 C435 C 1.02254 0.71942 0.62005
 C436 C 1.04025 0.71269 0.61242
 C437 C 1.02171 0.70878 0.57708
 C438 C 1.00418 0.71571 0.58548
 N439 N 1.00480 0.72040 0.60673
 H440 H 0.95365 0.75773 0.62869
 H441 H 0.95722 0.70786 0.58083
 H442 H 0.92327 0.71417 0.56189
 H443 H 0.91955 0.76427 0.61162
 H444 H 1.02282 0.72372 0.63682
 H445 H 1.05397 0.71185 0.62359
 H446 H 1.02093 0.70485 0.56018
 H447 H 0.99033 0.71747 0.57497
 C448 C 1.01056 0.79795 0.65269
 C449 C 0.96440 0.68306 0.66816
 C450 C 1.04001 0.70703 0.59069
 C451 C 0.91869 0.73985 0.58520
 C452 C 0.48920 0.73232 0.37456
 H453 H 0.49743 0.74795 0.37895
 C454 C 0.49821 0.71727 0.36241
 H455 H 0.51311 0.72174 0.35723
 C456 C 0.46048 0.70737 0.37709
 H457 H 0.44599 0.70339 0.38313
 C458 C 0.46895 0.69176 0.36491
 H459 H 0.46071 0.67600 0.36163
 N460 N 0.47054 0.72731 0.38143
 C461 C 0.43063 0.77469 0.38149
 H462 H 0.42058 0.76785 0.39168
 C463 C 0.42331 0.78960 0.36917
 H464 H 0.40755 0.79362 0.36998
 C465 C 0.46343 0.77834 0.36886
 H466 H 0.47917 0.77418 0.36897
 C467 C 0.45689 0.79358 0.35653
 H468 H 0.46778 0.80068 0.34719
 Zn469 Zn 0.46028 0.74914 0.39834
 N470 N 0.45035 0.76920 0.38105
 C471 C 0.48783 0.78378 0.41997
 N472 N 0.48318 0.76251 0.41807
 C473 C 0.49617 0.75032 0.42807
 C474 C 0.51533 0.75936 0.43952
 C475 C 0.50680 0.79346 0.43120
 C476 C 0.42028 0.72850 0.40045
 C477 C 0.40341 0.72092 0.41008
 C478 C 0.42400 0.73259 0.44403
 C479 C 0.44046 0.74009 0.43373
 N480 N 0.43832 0.73796 0.41230
 H481 H 0.47721 0.79320 0.41205
 H482 H 0.49216 0.73341 0.42618
 H483 H 0.52589 0.74926 0.44651
 H484 H 0.51051 0.81032 0.43180
 H485 H 0.41887 0.72720 0.38343
 H486 H 0.38918 0.71359 0.40027
 H487 H 0.42600 0.73454 0.46109
 H488 H 0.45486 0.74778 0.44287
 C489 C 0.43653 0.79945 0.35652
 C490 C 0.48806 0.69666 0.35736
 C491 C 0.40510 0.72295 0.43217
 C492 C 0.52116 0.78114 0.44058
 C493 C 0.36854 -0.02741 0.26952
 C494 C 0.35110 -0.03009 0.25079
 C495 C 0.34307 -0.01192 0.24703
 C496 C 0.35288 0.00736 0.26273
 C497 C 0.38471 -0.01005 0.26477
 C498 C 0.37651 0.00820 0.26121
 C499 C 0.35892 -0.01725 0.28805
 C500 C 0.35055 0.00081 0.28464
 H501 H 0.34710 -0.04464 0.24013
 H502 H 0.34600 0.02207 0.25979
 H503 H 0.40095 -0.01219 0.26378
 H504 H 0.35848 -0.02416 0.30258
 C505 C 0.08664 1.04274 0.74707
 C506 C 0.10053 1.05040 0.73128
 C507 C 0.11358 1.03642 0.72478
 C508 C 0.11169 1.01584 0.73482
 C509 C 0.07524 1.02157 0.73618
 C510 C 0.08831 1.00740 0.72994
 C511 C 0.10204 1.03717 0.76499
 C512 C 0.11511 1.02306 0.75872
 H513 H 0.09981 1.06545 0.72537
 H514 H 0.12241 1.00447 0.72954
 H515 H 0.05839 1.01783 0.73453
 H516 H 0.10214 1.04353 0.78133
 C517 C 0.59427 0.54572 0.25216
 C518 C 0.60431 0.55323 0.23377
 C519 C 0.61739 0.54013 0.22564
 C520 C 0.61905 0.52020 0.23669
 C521 C 0.58328 0.52361 0.24366
 C522 C 0.59624 0.51016 0.23565
 C523 C 0.61265 0.54206 0.26806
 C524 C 0.62555 0.52859 0.26019
 H525 H 0.60135 0.56791 0.22785
 H526 H 0.62974 0.50947 0.23013
 H527 H 0.56698 0.51881 0.24469
 H528 H 0.61428 0.54837 0.28459
 C529 C 0.87954 0.48155 0.77674
 C530 C 0.86245 0.47555 0.75769
 C531 C 0.85145 0.49172 0.75278
 C532 C 0.85822 0.51239 0.76766
 C533 C 0.89294 0.50068 0.77137
 C534 C 0.88184 0.51684 0.76655
 C535 C 0.86801 0.49027 0.79449
 C536 C 0.85679 0.50635 0.78993
 H537 H 0.86038 0.46043 0.74791
 H538 H 0.84901 0.52544 0.76376
 H539 H 0.90958 0.50094 0.77065
 H540 H 0.86847 0.48385 0.80934
 C541 C 0.28507 0.37718 -0.02250
 C542 C 0.26580 0.36097 -0.02954
 C543 C 0.26027 0.34938 -0.01429
 C544 C 0.27482 0.35489 0.00681
 C545 C 0.27986 0.39038 -0.00291
 C546 C 0.27433 0.37879 0.01242
 C547 C 0.30212 0.36431 -0.01428
 C548 C 0.29702 0.35267 0.00107
 H549 H 0.25642 0.35978 -0.04483
 H550 H 0.27044 0.34531 0.01920
 H551 H 0.27962 0.40728 -0.00181
 H552 H 0.31704 0.36448 -0.02028
 C553 C 0.76861 0.10092 1.05137
 C554 C 0.75109 0.11296 1.05861
 C555 C 0.74324 0.12553 1.04474
 C556 C 0.75375 0.12489 1.02452
 C557 C 0.75919 0.08880 1.02981
 C558 C 0.75157 0.10138 1.01571
 C559 C 0.78491 0.11789 1.04650
 C560 C 0.77730 0.13039 1.03239
 H561 H 0.74515 0.11130 1.07341
 H562 H 0.74735 0.13514 1.01315
 H563 H 0.75932 0.07200 1.02578
 H564 H 0.80132 0.11912 1.05292
 C565 C 0.24100 0.58867 0.54348
 C566 C 0.22235 0.59950 0.54980
 C567 C 0.21445 0.61183 0.53569
 C568 C 0.22601 0.61209 0.51617
 C569 C 0.23313 0.57648 0.52155
 C570 C 0.22535 0.58874 0.50720
 C571 C 0.25682 0.60656 0.53954
 C572 C 0.24918 0.61872 0.52512
 H573 H 0.21599 0.59749 0.56432
 H574 H 0.21965 0.62223 0.50467
 H575 H 0.23421 0.55984 0.51759
 H576 H 0.27312 0.60835 0.54644
 C577 C 0.76483 0.87743 0.47389
 C578 C 0.74161 0.86907 0.46778
 C579 C 0.73338 0.85829 0.48244
 C580 C 0.74924 0.85681 0.50195
 C581 C 0.76583 0.89062 0.49545
 C582 C 0.75755 0.87994 0.51016
 C583 C 0.77564 0.85803 0.47835
 C584 C 0.76775 0.84731 0.49312
 H585 H 0.73234 0.87201 0.45348
 H586 H 0.74259 0.84795 0.51386
 H587 H 0.77150 0.90725 0.49834
 H588 H 0.78915 0.85382 0.47111
 C589 C -0.02360 0.28511 0.38866
 C590 C -0.03012 0.26270 0.37741
 C591 C -0.01593 0.25511 0.36541
 C592 C 0.00356 0.27096 0.36549
 C593 C -0.00208 0.28414 0.40110
 C594 C 0.01215 0.27652 0.38909
 C595 C -0.01933 0.29823 0.37109
 C596 C -0.00502 0.29115 0.35902
 H597 H -0.04413 0.25314 0.37983
 H598 H 0.01510 0.26494 0.35558
 H599 H 0.00104 0.28770 0.41810
 H600 H -0.02651 0.31250 0.36901
 C601 C 1.04845 0.75539 0.09166
 C602 C 1.05527 0.73627 0.10147
 C603 C 1.04200 0.72829 0.11410
 C604 C 1.02266 0.74026 0.11566
 C605 C 1.02630 0.74803 0.08005
 C606 C 1.01274 0.74015 0.09263
 C607 C 1.04522 0.77111 0.11032
 C608 C 1.03161 0.76340 0.12282
 H609 H 1.06951 0.72959 0.09846
 H610 H 1.01183 0.73383 0.12604
 H611 H 1.02165 0.74950 0.06361
 H612 H 1.05204 0.78742 0.11248
 C613 C 0.54604 0.24263 0.58740
 C614 C 0.55415 0.22608 0.60060
 C615 C 0.54107 0.21964 0.61417
 C616 C 0.52086 0.23049 0.61338
 C617 C 0.52435 0.23275 0.57653
 C618 C 0.51105 0.22655 0.59007
 C619 C 0.54174 0.26043 0.60362
 C620 C 0.52846 0.25426 0.61714
 H621 H 0.56891 0.21981 0.59920
 H622 H 0.51025 0.22534 0.62457
 H623 H 0.51970 0.23178 0.55968
 H624 H 0.54783 0.27673 0.60355
 C625 C 0.47911 0.78304 0.86770
 C626 C 0.47095 0.76072 0.85716
 C627 C 0.48515 0.75077 0.84693
 C628 C 0.50633 0.76431 0.84794
 C629 C 0.49921 0.78048 0.88198
 C630 C 0.51346 0.77060 0.87172
 C631 C 0.48652 0.79445 0.84988
 C632 C 0.50078 0.78479 0.83960
 H633 H 0.45553 0.75319 0.85850
 H634 H 0.51786 0.75634 0.83944
 H635 H 0.50151 0.78535 0.89884
 H636 H 0.48149 0.80931 0.84617
 C637 C 0.41660 -0.15387 0.32264
 N638 N 0.43654 -0.15878 0.32306
 N639 N 0.44291 -0.17406 0.33375
 C640 C 0.42967 -0.18492 0.34460
 N641 N 0.40969 -0.17996 0.34401
 N642 N 0.40328 -0.16480 0.33323
 C643 C 0.40963 -0.13648 0.31174
 N644 N 0.38916 -0.13315 0.30982
 N645 N 0.38282 -0.11673 0.30104
 C646 C 0.39670 -0.10295 0.29393
 N647 N 0.41719 -0.10634 0.29567
 N648 N 0.42353 -0.12286 0.30437
 C649 C 0.38965 -0.08407 0.28582
 N650 N 0.40352 -0.06845 0.28142
 N651 N 0.39697 -0.05066 0.27566
 C652 C 0.37632 -0.04791 0.27408
 N653 N 0.36250 -0.06368 0.27822
 N654 N 0.36903 -0.08139 0.28399
 C655 C 0.94240 0.36427 0.83465
 N656 N 0.95124 0.36742 0.85513
 N657 N 0.95683 0.35128 0.86489
 C658 C 0.95384 0.33136 0.85455
 N659 N 0.94509 0.32826 0.83399
 N660 N 0.93940 0.34440 0.82425
 C661 C 0.93555 0.38201 0.82424
 N662 N 0.92403 0.37869 0.80483
 N663 N 0.91685 0.39474 0.79594
 C664 C 0.92105 0.41471 0.80609
 N665 N 0.93279 0.41804 0.82537
 N666 N 0.93989 0.40199 0.83429
 C667 C 0.91181 0.43220 0.79718
 N668 N 0.91639 0.45214 0.80728
 N669 N 0.90668 0.46780 0.80030
 C670 C 0.89195 0.46412 0.78298
 N671 N 0.88761 0.44421 0.77267
 N672 N 0.89738 0.42855 0.77962
 C673 C 0.01171 1.15152 0.81456
 N674 N 0.00011 1.14772 0.83018
 N675 N -0.00584 1.16362 0.84236
 C676 C -0.00031 1.18392 0.83945
 N677 N 0.01112 1.18763 0.82367
 N678 N 0.01699 1.17175 0.81146
 C679 C 0.01971 1.13426 0.80213
 N680 N 0.03128 1.13841 0.78660
 N681 N 0.04001 1.12315 0.77634
 C682 C 0.03755 1.10318 0.78126
 N683 N 0.02576 1.09895 0.79663
 N684 N 0.01698 1.11422 0.80687
 C685 C 0.04876 1.08693 0.77116
 N686 N 0.04806 1.06740 0.77728
 N687 N 0.05962 1.05326 0.76922
 C688 C 0.07230 1.05814 0.75475
 N689 N 0.07274 1.07760 0.74846
 N690 N 0.06120 1.09172 0.75651
 C691 C 0.51612 0.65092 0.32221
 N692 N 0.52565 0.67091 0.32736
 N693 N 0.51662 0.68538 0.33838
 C694 C 0.49771 0.68047 0.34474
 N695 N 0.48813 0.66044 0.33949
 N696 N 0.49716 0.64592 0.32843
 C697 C 0.52663 0.63504 0.31060
 N698 N 0.51746 0.61491 0.30499
 N699 N 0.52750 0.60055 0.29493
 C700 C 0.54705 0.60584 0.29019
 N701 N 0.55612 0.62596 0.29574
 N702 N 0.54610 0.64029 0.30573
 C703 C 0.55868 0.59014 0.27980
 N704 N 0.57881 0.59560 0.27697
 N705 N 0.58981 0.58150 0.26807
 C706 C 0.58110 0.56138 0.26153
 N707 N 0.56090 0.55588 0.26430
 N708 N 0.54988 0.57002 0.27329
 C709 C 0.55205 0.35842 0.19630
 N710 N 0.56603 0.34517 0.19063
 N711 N 0.55994 0.32473 0.18471
 C712 C 0.53965 0.31669 0.18424
 N713 N 0.52571 0.32998 0.19009
 N714 N 0.53179 0.35043 0.19602
 C715 C 0.55865 0.38108 0.20211
 N716 N 0.54465 0.39443 0.20752
 N717 N 0.55058 0.41503 0.21244
 C718 C 0.57072 0.42304 0.21208
 N719 N 0.58473 0.40969 0.20669
 N720 N 0.57880 0.38909 0.20178
 C721 C 0.57725 0.44574 0.21760
 N722 N 0.59739 0.45382 0.21735
 N723 N 0.60336 0.47436 0.22277
 C724 C 0.58941 0.48760 0.22862
 N725 N 0.56924 0.47951 0.22874
 N726 N 0.56327 0.45898 0.22331
 C727 C 0.03404 0.86024 0.67686
 N728 N 0.04081 0.84397 0.68650
 N729 N 0.03316 0.82413 0.67905
 C730 C 0.01864 0.81985 0.66156
 N731 N 0.01193 0.83616 0.65197
 N732 N 0.01939 0.85596 0.65954
 C733 C 0.04240 0.88214 0.68479
 N734 N 0.03217 0.89821 0.67842
 N735 N 0.03971 0.91815 0.68535
 C736 C 0.05792 0.92277 0.69870
 N737 N 0.06823 0.90670 0.70503
 N738 N 0.06056 0.88673 0.69826
 C739 C 0.06605 0.94478 0.70636
 N740 N 0.08618 0.95000 0.71562
 N741 N 0.09338 0.97001 0.72275
 C742 C 0.08067 0.98548 0.72105
 N743 N 0.06055 0.98024 0.71178
 N744 N 0.05342 0.96028 0.70445
 C745 C 0.94217 0.63720 0.70394
 N746 N 0.95991 0.63535 0.69497
 N747 N 0.96711 0.65007 0.68390
 C748 C 0.95693 0.66729 0.68142
 N749 N 0.93929 0.66924 0.69062
 N750 N 0.93202 0.65445 0.70162
 C751 C 0.93374 0.62036 0.71519
 N752 N 0.91449 0.62046 0.72150
 N753 N 0.90650 0.60461 0.73079
 C754 C 0.91753 0.58813 0.73418
 N755 N 0.93684 0.58813 0.72804
 N756 N 0.94478 0.60392 0.71867
 C757 C 0.90848 0.57017 0.74358
 N758 N 0.92006 0.55434 0.74790
 N759 N 0.91169 0.53758 0.75557
 C760 C 0.89139 0.53595 0.75914
 N761 N 0.87983 0.55185 0.75492
 N762 N 0.88823 0.56867 0.74731
 C763 C 0.45300 0.12785 0.21040
 N764 N 0.47004 0.12477 0.20060
 N765 N 0.47917 0.14007 0.19142
 C766 C 0.47171 0.15912 0.19175
 N767 N 0.45477 0.16224 0.20177
 N768 N 0.44556 0.14690 0.21088
 C769 C 0.44236 0.11059 0.21962
 N770 N 0.42380 0.11266 0.22697
 N771 N 0.41375 0.09667 0.23450
 C772 C 0.42193 0.07806 0.23504
 N773 N 0.44058 0.07605 0.22785
 N774 N 0.45058 0.09201 0.22023
 C775 C 0.41048 0.06016 0.24261
 N776 N 0.41920 0.04197 0.24433
 N777 N 0.40854 0.02552 0.25054
 C778 C 0.38874 0.02662 0.25518
 N779 N 0.38008 0.04485 0.25350
 N780 N 0.39075 0.06132 0.24738
 C781 C 0.34059 0.43425 -0.14149
 N782 N 0.36145 0.44033 -0.13994
 N783 N 0.37012 0.44456 -0.15690
 C784 C 0.35827 0.44292 -0.17606
 N785 N 0.33737 0.43692 -0.17756
 N786 N 0.32871 0.43258 -0.16062
 C787 C 0.33117 0.42896 -0.12293
 N788 N 0.31085 0.42054 -0.12493
 N789 N 0.30258 0.41475 -0.10827
 C790 C 0.31426 0.41729 -0.08897
 N791 N 0.33452 0.42595 -0.08691
 N792 N 0.34282 0.43166 -0.10359
 C793 C 0.30567 0.40905 -0.07114
 N794 N 0.31696 0.41196 -0.05162
 N795 N 0.31000 0.40259 -0.03601
 C796 C 0.29156 0.38983 -0.03939
 N797 N 0.28010 0.38735 -0.05881
 N798 N 0.28699 0.39680 -0.07436
 C799 C 0.83756 0.93431 0.36375
 N800 N 0.82713 0.93753 0.34501
 N801 N 0.83759 0.94297 0.32954
 C802 C 0.85889 0.94528 0.33215
 N803 N 0.86926 0.94200 0.35092
 N804 N 0.85882 0.93664 0.36641
 C805 C 0.82614 0.92805 0.38077
 N806 N 0.83672 0.92599 0.39982
 N807 N 0.82651 0.91968 0.41512
 C808 C 0.80534 0.91516 0.41193
 N809 N 0.79474 0.91733 0.39292
 N810 N 0.80495 0.92371 0.37762
 C811 C 0.79435 0.90696 0.42842
 N812 N 0.77360 0.89990 0.42452
 N813 N 0.76403 0.89108 0.43902
 C814 C 0.77482 0.88905 0.45800
 N815 N 0.79550 0.89643 0.46198
 N816 N 0.80507 0.90519 0.44747
 C817 C 0.83310 0.02473 1.16208
 N818 N 0.83534 0.03392 1.18237
 N819 N 0.84587 0.02540 1.19765
 C820 C 0.85472 0.00736 1.19333
 N821 N 0.85228 -0.00193 1.17297
 N822 N 0.84167 0.00657 1.15764
 C823 C 0.82237 0.03493 1.14530
 N824 N 0.81866 0.02549 1.12501
 N825 N 0.80952 0.03532 1.10984
 C826 C 0.80392 0.05496 1.11444
 N827 N 0.80760 0.06431 1.13472
 N828 N 0.81661 0.05447 1.14986
 C829 C 0.79453 0.06637 1.09791
 N830 N 0.79208 0.08701 1.10254
 N831 N 0.78385 0.09772 1.08774
 C832 C 0.77758 0.08819 1.06774
 N833 N 0.78004 0.06750 1.06305
 N834 N 0.78841 0.05678 1.07788
 C835 C 0.31309 0.51522 0.65209
 N836 N 0.31672 0.52463 0.67234
 N837 N 0.32879 0.51656 0.68689
 C838 C 0.33778 0.49879 0.68178
 N839 N 0.33399 0.48928 0.66151
 N840 N 0.32187 0.49733 0.64693
 C841 C 0.30063 0.52488 0.63599
 N842 N 0.29637 0.51548 0.61571
 N843 N 0.28577 0.52483 0.60104
 C844 C 0.27915 0.54392 0.60614
 N845 N 0.28333 0.55323 0.62643
 N846 N 0.29384 0.54387 0.64108
 C847 C 0.26844 0.55489 0.58995
 N848 N 0.26443 0.57505 0.59488
 N849 N 0.25551 0.58548 0.58017
 C850 C 0.25011 0.57613 0.55998
 N851 N 0.25403 0.55590 0.55505
 N852 N 0.26306 0.54548 0.56977
 C853 C 0.18427 0.53722 0.35647
 N854 N 0.17865 0.55087 0.34282
 N855 N 0.17234 0.54404 0.32252
 C856 C 0.17140 0.52329 0.31501
 N857 N 0.17719 0.50966 0.32870
 N858 N 0.18351 0.51649 0.34903
 C859 C 0.19054 0.54477 0.37898
 N860 N 0.19603 0.53123 0.39284
 N861 N 0.20134 0.53810 0.41330
 C862 C 0.20129 0.55876 0.42066
 N863 N 0.19583 0.57229 0.40680
 N864 N 0.19054 0.56542 0.38635
 C865 C 0.20714 0.56640 0.44321
 N866 N 0.20693 0.58703 0.45049
 N867 N 0.21249 0.59405 0.47088
 C868 C 0.21845 0.58071 0.48477
 N869 N 0.21858 0.56005 0.47747
 N870 N 0.21300 0.55301 0.45708
 C871 C 0.69886 0.04702 0.86787
 N872 N 0.71081 0.04883 0.85212
 N873 N 0.70304 0.04138 0.83221
 C874 C 0.68293 0.03215 0.82724
 N875 N 0.67105 0.03054 0.84310
 N876 N 0.67888 0.03767 0.86300
 C877 C 0.70721 0.05496 0.88986
 N878 N 0.69876 0.04671 0.90580
 N879 N 0.70600 0.05401 0.92582
 C880 C 0.72173 0.07007 0.93064
 N881 N 0.73013 0.07842 0.91470
 N882 N 0.72309 0.07090 0.89466
 C883 C 0.72941 0.07826 0.95273
 N884 N 0.73903 0.09822 0.95805
 N885 N 0.74580 0.10567 0.97815
 C886 C 0.74342 0.09334 0.99363
 N887 N 0.73389 0.07334 0.98829
 N888 N 0.72685 0.06599 0.96823
 C889 C 0.71790 0.94936 0.64077
 N890 N 0.71240 0.96919 0.64086
 N891 N 0.70323 0.97789 0.65658
 C892 C 0.69930 0.96716 0.67291
 N893 N 0.70511 0.94742 0.67294
 N894 N 0.71416 0.93866 0.65715
 C895 C 0.72657 0.93924 0.62265
 N896 N 0.72802 0.91820 0.62036
 N897 N 0.73458 0.90879 0.60323
 C898 C 0.74006 0.92011 0.58782
 N899 N 0.73886 0.94120 0.59024
 N900 N 0.73218 0.95058 0.60730
 C901 C 0.74603 0.90960 0.56832
 N902 N 0.75321 0.92112 0.55377
 N903 N 0.75742 0.91165 0.53552
 C904 C 0.75450 0.89031 0.53104
 N905 N 0.74747 0.87881 0.54567
 N906 N 0.74337 0.88826 0.56399
 C907 C 0.20725 0.43900 0.13069
 N908 N 0.20568 0.42971 0.14841
 N909 N 0.19448 0.43743 0.16294
 C910 C 0.18429 0.45462 0.16022
 N911 N 0.18595 0.46388 0.14250
 N912 N 0.19724 0.45627 0.12806
 C913 C 0.21908 0.43038 0.11427
 N914 N 0.22259 0.44132 0.09802
 N915 N 0.23262 0.43335 0.08264
 C916 C 0.23942 0.41407 0.08286
 N917 N 0.23599 0.40311 0.09915
 N918 N 0.22605 0.41115 0.11462
 C919 C 0.24959 0.40507 0.06526
 N920 N 0.25351 0.38462 0.06338
 N921 N 0.26173 0.37632 0.04676
 C922 C 0.26643 0.38819 0.03148
 N923 N 0.26269 0.40869 0.03353
 N924 N 0.25440 0.41695 0.05006
 C925 C -0.13712 0.34730 0.45242
 N926 N -0.15478 0.33482 0.45424
 N927 N -0.17189 0.34325 0.45885
 C928 C -0.17207 0.36448 0.46176
 N929 N -0.15431 0.37696 0.46007
 N930 N -0.13715 0.36853 0.45548
 C931 C -0.11873 0.33785 0.44617
 N932 N -0.10090 0.35008 0.44427
 N933 N -0.08472 0.34144 0.43735
 C934 C -0.08583 0.32026 0.43204
 N935 N -0.10358 0.30803 0.43414
 N936 N -0.11970 0.31666 0.44112
 C937 C -0.06888 0.31079 0.42262
 N938 N -0.07164 0.29020 0.41429
 N939 N -0.05712 0.28191 0.40407
 C940 C -0.03924 0.29386 0.40183
 N941 N -0.03628 0.31438 0.41058
 N942 N -0.05086 0.32271 0.42073
 C943 C 0.36736 0.84840 0.93307
 N944 N 0.35383 0.83690 0.94298
 N945 N 0.33729 0.84504 0.94960
 C946 C 0.33364 0.86501 0.94660
 N947 N 0.34730 0.87652 0.93679
 N948 N 0.36381 0.86837 0.93012
 C949 C 0.38514 0.83921 0.92501
 N950 N 0.39734 0.85005 0.91327
 N951 N 0.41298 0.84148 0.90522
 C952 C 0.41708 0.82177 0.90868
 N953 N 0.40499 0.81096 0.92056
 N954 N 0.38928 0.81952 0.92855
 C955 C 0.43372 0.81209 0.89891
 N956 N 0.43880 0.79285 0.90304
 N957 N 0.45337 0.78383 0.89343
 C958 C 0.46327 0.79365 0.87921
 N959 N 0.45827 0.81297 0.87528
 N960 N 0.44381 0.82202 0.88495
 C961 C 1.15761 0.81845 0.01649
 N962 N 1.15317 0.82613 -0.00211
 N963 N 1.16819 0.83678 -0.01037
 C964 C 1.18821 0.84012 -0.00036
 N965 N 1.19259 0.83218 0.01811
 N966 N 1.17761 0.82157 0.02637
 C967 C 1.14105 0.80785 0.02647
 N968 N 1.14565 0.80223 0.04601
 N969 N 1.13069 0.79343 0.05568
 C970 C 1.11055 0.78986 0.04617
 N971 N 1.10591 0.79534 0.02654
 N972 N 1.12091 0.80424 0.01687
 C973 C 1.09421 0.78072 0.05742
 N974 N 1.07413 0.77547 0.04795
 N975 N 1.05950 0.76736 0.05857
 C976 C 1.06445 0.76433 0.07904
 N977 N 1.08451 0.76969 0.08842
 N978 N 1.09910 0.77767 0.07782
 C979 C 0.64744 0.30972 0.50724
 N980 N 0.66792 0.30743 0.51269
 N981 N 0.68290 0.32004 0.50653
 C982 C 0.67801 0.33540 0.49459
 N983 N 0.65748 0.33742 0.48878
 N984 N 0.64247 0.32486 0.49505
 C985 C 0.63119 0.29716 0.51591
 N986 N 0.61104 0.30163 0.51363
 N987 N 0.59677 0.29146 0.52322
 C988 C 0.60216 0.27644 0.53539
 N989 N 0.62223 0.27175 0.53739
 N990 N 0.63648 0.28195 0.52786
 C991 C 0.58704 0.26649 0.54748
 N992 N 0.59281 0.25187 0.55998
 N993 N 0.57972 0.24392 0.57220
 C994 C 0.56036 0.25031 0.57245
 N995 N 0.55453 0.26480 0.55978
 N996 N 0.56762 0.27273 0.54752
 C997 C 0.36039 0.18616 0.54454
 N998 N 0.35228 0.18549 0.52399
 N999 N 0.33190 0.17991 0.51774
 C1000 C 0.31882 0.17479 0.53179
 N1001 N 0.32698 0.17563 0.55237
 N1002 N 0.34735 0.18123 0.55864
 C1003 C 0.38294 0.19174 0.55135
 N1004 N 0.39102 0.19247 0.57193
 N1005 N 0.41151 0.19736 0.57808
 C1006 C 0.42467 0.20162 0.56386
 N1007 N 0.41658 0.20086 0.54329
 N1008 N 0.39609 0.19600 0.53714
 C1009 C 0.44721 0.20731 0.57062
 N1010 N 0.46027 0.21151 0.55632
 N1011 N 0.48063 0.21725 0.56246
 C1012 C 0.48874 0.21897 0.58314
 N1013 N 0.47568 0.21462 0.59742
 N1014 N 0.45530 0.20886 0.59128
 C1015 C 0.86236 0.69787 0.04583
 N1016 N 0.84972 0.69164 0.05980
 N1017 N 0.82952 0.68504 0.05354
 C1018 C 0.82113 0.68442 0.03305
 N1019 N 0.83380 0.69081 0.01912
 N1020 N 0.85401 0.69742 0.02538
 C1021 C 0.88478 0.70450 0.05269
 N1022 N 0.89759 0.71056 0.03878
 N1023 N 0.91799 0.71617 0.04499
 C1024 C 0.92632 0.71587 0.06534
 N1025 N 0.91349 0.70985 0.07925
 N1026 N 0.89311 0.70426 0.07304
 C1027 C 0.94882 0.72195 0.07226
 N1028 N 0.95705 0.72137 0.09257
 N1029 N 0.97740 0.72699 0.09894
 C1030 C 0.99032 0.73339 0.08527
 N1031 N 0.98208 0.73393 0.06493
 N1032 N 0.96171 0.72829 0.05853
 C1033 C 0.63520 0.71584 0.94420
 N1034 N 0.65229 0.71206 0.93471
 N1035 N 0.66736 0.70225 0.94405
 C1036 C 0.66584 0.69570 0.96318
 N1037 N 0.64874 0.69957 0.97266
 N1038 N 0.63376 0.70951 0.96340
 C1039 C 0.61815 0.72593 0.93365
 N1040 N 0.60241 0.73198 0.94423
 N1041 N 0.58650 0.74038 0.93452
 C1042 C 0.58565 0.74291 0.91382
 N1043 N 0.60142 0.73691 0.90323
 N1044 N 0.61742 0.72863 0.91299
 C1045 C 0.56753 0.75120 0.90293
 N1046 N 0.56458 0.75017 0.88159
 N1047 N 0.54755 0.75667 0.87169
 C1048 C 0.53291 0.76459 0.88275
 N1049 N 0.53600 0.76585 0.90411
 N1050 N 0.55295 0.75923 0.91400
 C1051 C 0.13560 0.21709 0.45067
 N1052 N 0.15165 0.21248 0.43984
 N1053 N 0.16622 0.20117 0.44770
 C1054 C 0.16519 0.19389 0.46656
 N1055 N 0.14915 0.19860 0.47737
 N1056 N 0.13470 0.21003 0.46961
 C1057 C 0.11895 0.22872 0.44174
 N1058 N 0.10448 0.23543 0.45374
 N1059 N 0.08869 0.24500 0.44549
 C1060 C 0.08669 0.24812 0.42490
 N1061 N 0.10122 0.24152 0.41290
 N1062 N 0.11712 0.23206 0.42121
 C1063 C 0.06834 0.25723 0.41559
 N1064 N 0.06386 0.25664 0.39437
 N1065 N 0.04626 0.26334 0.38594
 C1066 C 0.03255 0.27099 0.39841
 N1067 N 0.03725 0.27188 0.41964
 N1068 N 0.05477 0.26510 0.42807
 C1069 C 0.58455 0.10572 0.69271
 N1070 N 0.60533 0.10625 0.69927
 N1071 N 0.61300 0.08984 0.70690
 C1072 C 0.60028 0.07211 0.70829
 N1073 N 0.57939 0.07160 0.70186
 N1074 N 0.57166 0.08810 0.69421
 C1075 C 0.57678 0.12367 0.68320
 N1076 N 0.55606 0.12423 0.67671
 N1077 N 0.54961 0.14027 0.66717
 C1078 C 0.56367 0.15624 0.66374
 N1079 N 0.58428 0.15567 0.67037
 N1080 N 0.59069 0.13976 0.67996
 C1081 C 0.55729 0.17328 0.65185
 N1082 N 0.57216 0.18590 0.64473
 N1083 N 0.56688 0.20078 0.63306
 C1084 C 0.54651 0.20381 0.62816
 N1085 N 0.53155 0.19142 0.63554
 N1086 N 0.53685 0.17632 0.64712
 C1087 C 1.07965 0.60232 0.17633
 N1088 N 1.10016 0.59923 0.17764
 N1089 N 1.10674 0.58197 0.18445
 C1090 C 1.09312 0.56696 0.19021
 N1091 N 1.07251 0.57002 0.18889
 N1092 N 1.06589 0.58738 0.18207
 C1093 C 1.07294 0.62150 0.16848
 N1094 N 1.05265 0.62567 0.16696
 N1095 N 1.04707 0.64308 0.15935
 C1096 C 1.06160 0.65685 0.15302
 N1097 N 1.08180 0.65264 0.15466
 N1098 N 1.08736 0.63536 0.16226
 C1099 C 1.05600 0.67571 0.14372
 N1100 N 1.07083 0.68732 0.13550
 N1101 N 1.06625 0.70409 0.12637
 C1102 C 1.04667 0.71006 0.12512
 N1103 N 1.03177 0.69860 0.13355
 N1104 N 1.03634 0.68165 0.14266
 C1105 C 0.97303 0.86884 0.21299
 N1106 N 0.98403 0.88811 0.21913
 N1107 N 0.97486 0.90407 0.22760
 C1108 C 0.95429 0.90143 0.23019
 N1109 N 0.94336 0.88207 0.22414
 N1110 N 0.95253 0.86610 0.21571
 C1111 C 0.98287 0.85161 0.20256
 N1112 N 0.97187 0.83238 0.19607
 N1113 N 0.98044 0.81719 0.18542
 C1114 C 1.00032 0.82071 0.18090
 N1115 N 1.01137 0.83987 0.18759
 N1116 N 1.00282 0.85502 0.19825
 C1117 C 1.00926 0.80481 0.16753
 N1118 N 1.02785 0.80985 0.16065
 N1119 N 1.03524 0.79634 0.14698
 C1120 C 1.02441 0.77719 0.13972
 N1121 N 1.00600 0.77193 0.14694
 N1122 N 0.99852 0.78553 0.16057
 C1123 C 0.46623 0.36476 0.69788
 N1124 N 0.47647 0.38454 0.70241
 N1125 N 0.46690 0.40045 0.71038
 C1126 C 0.44668 0.39724 0.71404
 N1127 N 0.43650 0.37740 0.70954
 N1128 N 0.44607 0.36148 0.70162
 C1129 C 0.47655 0.34739 0.68835
 N1130 N 0.46650 0.32750 0.68408
 N1131 N 0.47553 0.31198 0.67454
 C1132 C 0.49495 0.31581 0.66890
 N1133 N 0.50504 0.33566 0.67333
 N1134 N 0.49604 0.35115 0.68291
 C1135 C 0.50440 0.29922 0.65696
 N1136 N 0.52234 0.30414 0.64884
 N1137 N 0.53025 0.28965 0.63666
 C1138 C 0.52060 0.26962 0.63220
 N1139 N 0.50282 0.26457 0.64062
 N1140 N 0.49483 0.27913 0.65275
 C1141 C 0.45659 0.59939 0.79566
 N1142 N 0.44501 0.58751 0.80704
 N1143 N 0.43933 0.56714 0.80063
 C1144 C 0.44489 0.55774 0.78251
 N1145 N 0.45662 0.56962 0.77111
 N1146 N 0.46243 0.59007 0.77761
 C1147 C 0.46168 0.62207 0.80260
 N1148 N 0.47568 0.63419 0.79372
 N1149 N 0.47979 0.65484 0.80023
 C1150 C 0.46989 0.66404 0.81568
 N1151 N 0.45591 0.65189 0.82445
 N1152 N 0.45194 0.63131 0.81810
 C1153 C 0.47383 0.68673 0.82297
 N1154 N 0.46084 0.69582 0.83533
 N1155 N 0.46432 0.71623 0.84257
 C1156 C 0.48102 0.72839 0.83787
 N1157 N 0.49407 0.71933 0.82547
 N1158 N 0.49049 0.69886 0.81806
 C1159 C -0.03338 0.10341 0.31445
 N1160 N -0.04310 0.09065 0.32650
 N1161 N -0.04859 0.07031 0.31967
 C1162 C -0.04468 0.06183 0.30046
 N1163 N -0.03468 0.07457 0.28847
 N1164 N -0.02908 0.09498 0.29535
 C1165 C -0.02914 0.12615 0.32166
 N1166 N -0.01761 0.13941 0.31139
 N1167 N -0.01477 0.16013 0.31785
 C1168 C -0.02356 0.16824 0.33465
 N1169 N -0.03500 0.15493 0.34486
 N1170 N -0.03767 0.13431 0.33854
 C1171 C -0.02151 0.19099 0.34175
 N1172 N -0.03425 0.19844 0.35534
 N1173 N -0.03261 0.21885 0.36241
 C1174 C -0.01807 0.23271 0.35633
 N1175 N -0.00524 0.22531 0.34267
 N1176 N -0.00702 0.20480 0.33541
 C1177 C 0.05279 0.38777 0.26815
 N1178 N 0.04676 0.40744 0.27010
 N1179 N 0.05644 0.42277 0.26138
 C1180 C 0.07245 0.41900 0.25021
 N1181 N 0.07829 0.39921 0.24801
 N1182 N 0.06869 0.38389 0.25686
 C1183 C 0.04291 0.37141 0.27906
 N1184 N 0.05108 0.35289 0.28062
 N1185 N 0.04275 0.33875 0.29177
 C1186 C 0.02590 0.34265 0.30165
 N1187 N 0.01764 0.36106 0.29984
 N1188 N 0.02600 0.37518 0.28881
 C1189 C 0.01723 0.32801 0.31513
 N1190 N 0.00031 0.33257 0.32450
 N1191 N -0.00696 0.32044 0.33796
 C1192 C 0.00235 0.30325 0.34266
 N1193 N 0.01915 0.29845 0.33306
 N1194 N 0.02647 0.31063 0.31952
 C1195 C 0.57452 0.87685 0.75719
 N1196 N 0.56440 0.88994 0.74543
 N1197 N 0.57469 0.90740 0.74070
 C1198 C 0.59542 0.91251 0.74778
 N1199 N 0.60554 0.89922 0.75926
 N1200 N 0.59531 0.88171 0.76384
 C1201 C 0.56288 0.85904 0.76464
 N1202 N 0.57324 0.84560 0.77572
 N1203 N 0.56278 0.83104 0.78478
 C1204 C 0.54157 0.82947 0.78319
 N1205 N 0.53120 0.84267 0.77179
 N1206 N 0.54165 0.85714 0.76263
 C1207 C 0.53024 0.81572 0.79572
 N1208 N 0.51034 0.81868 0.79877
 N1209 N 0.50077 0.80825 0.81223
 C1210 C 0.51066 0.79434 0.82305
 N1211 N 0.53040 0.79095 0.81961
 N1212 N 0.54007 0.80156 0.80627
 C1213 C 0.68434 0.58664 0.10742
 N1214 N 0.68716 0.60774 0.10702
 N1215 N 0.69418 0.61565 0.09070
 C1216 C 0.69866 0.60286 0.07393
 N1217 N 0.69585 0.58162 0.07440
 N1218 N 0.68882 0.57366 0.09081
 C1219 C 0.67602 0.57845 0.12550
 N1220 N 0.67335 0.55748 0.12714
 N1221 N 0.66522 0.55058 0.14352
 C1222 C 0.65948 0.56444 0.15876
 N1223 N 0.66228 0.58532 0.15707
 N1224 N 0.67042 0.59218 0.14082
 C1225 C 0.64939 0.55751 0.17642
 N1226 N 0.64103 0.57190 0.18894
 N1227 N 0.63112 0.56620 0.20461
 C1228 C 0.62921 0.54589 0.20855
 N1229 N 0.63781 0.53140 0.19620
 N1230 N 0.64767 0.53711 0.18033
 C1231 C 0.18496 1.07906 0.60883
 N1232 N 0.18628 1.06602 0.59099
 N1233 N 0.19234 1.07382 0.57410
 C1234 C 0.19720 1.09494 0.57439
 N1235 N 0.19593 1.10784 0.59229
 N1236 N 0.18993 1.10008 0.60912
 C1237 C 0.17747 1.07111 0.62737
 N1238 N 0.17580 1.08496 0.64444
 N1239 N 0.16783 1.07844 0.66093
 C1240 C 0.16126 1.05778 0.66108
 N1241 N 0.16317 1.04377 0.64413
 N1242 N 0.17115 1.05033 0.62754
 C1243 C 0.15059 1.05150 0.67861
 N1244 N 0.14446 1.03098 0.68027
 N1245 N 0.13331 1.02595 0.69546
 C1246 C 0.12777 1.04129 0.70935
 N1247 N 0.13417 1.06170 0.70779
 N1248 N 0.14541 1.06669 0.69280
 C1249 C 0.20149 0.96263 0.86719
 N1250 N 0.20616 0.97346 0.88682
 N1251 N 0.21496 0.96444 0.90273
 C1252 C 0.21940 0.94415 0.89976
 N1253 N 0.21482 0.93343 0.87996
 N1254 N 0.20605 0.94246 0.86401
 C1255 C 0.19081 0.97239 0.85000
 N1256 N 0.18622 0.96193 0.83015
 N1257 N 0.17559 0.97054 0.81491
 C1258 C 0.16913 0.98987 0.81903
 N1259 N 0.17386 1.00034 0.83883
 N1260 N 0.18453 0.99179 0.85402
 C1261 C 0.15617 0.99895 0.80284
 N1262 N 0.14737 1.01673 0.80825
 N1263 N 0.13461 1.02452 0.79409
 C1264 C 0.13021 1.01492 0.77391
 N1265 N 0.13922 0.99726 0.76839
 N1266 N 0.15193 0.98937 0.78262
 C1267 C 0.70719 0.46673 0.36951
 N1268 N 0.71145 0.47780 0.38908
 N1269 N 0.71800 0.46844 0.40567
 C1270 C 0.72053 0.44762 0.40339
 N1271 N 0.71639 0.43660 0.38374
 N1272 N 0.70981 0.44595 0.36712
 C1273 C 0.69875 0.47688 0.35152
 N1274 N 0.69300 0.46568 0.33211
 N1275 N 0.68392 0.47465 0.31625
 C1276 C 0.68031 0.49516 0.31924
 N1277 N 0.68633 0.50640 0.33857
 N1278 N 0.69540 0.49744 0.35439
 C1279 C 0.66827 0.50464 0.30268
 N1280 N 0.66228 0.52408 0.30723
 N1281 N 0.64939 0.53199 0.29328
 C1282 C 0.64206 0.52086 0.27416
 N1283 N 0.64846 0.50160 0.26934
 N1284 N 0.66130 0.49360 0.28338
 C1285 C 0.77648 0.46735 0.60990
 N1286 N 0.76094 0.45125 0.60394
 N1287 N 0.75496 0.44424 0.58363
 C1288 C 0.76437 0.45291 0.56845
 N1289 N 0.77978 0.46921 0.57442
 N1290 N 0.78568 0.47634 0.59477
 C1291 C 0.78442 0.47342 0.63234
 N1292 N 0.79810 0.49102 0.63897
 N1293 N 0.80659 0.49538 0.65913
 C1294 C 0.80186 0.48218 0.67331
 N1295 N 0.78805 0.46471 0.66670
 N1296 N 0.77940 0.46049 0.64662
 C1297 C 0.81301 0.48546 0.69489
 N1298 N 0.81406 0.46897 0.70620
 N1299 N 0.82580 0.47115 0.72494
 C1300 C 0.83672 0.48999 0.73322
 N1301 N 0.83532 0.50663 0.72213
 N1302 N 0.82376 0.50438 0.70323
 C1303 C 0.28165 -0.02824 0.10065
 N1304 N 0.26302 -0.03975 0.09297
 N1305 N 0.25877 -0.04752 0.07266
 C1306 C 0.27308 -0.04432 0.05926
 N1307 N 0.29165 -0.03261 0.06693
 N1308 N 0.29582 -0.02465 0.08722
 C1309 C 0.28724 -0.02175 0.12341
 N1310 N 0.30407 -0.00740 0.13098
 N1311 N 0.31043 -0.00325 0.15166
 C1312 C 0.30032 -0.01345 0.16547
 N1313 N 0.28334 -0.02759 0.15789
 N1314 N 0.27684 -0.03156 0.13726
 C1315 C 0.30918 -0.01135 0.18779
 N1316 N 0.30489 -0.02720 0.19934
 N1317 N 0.31504 -0.02692 0.21865
 C1318 C 0.32961 -0.01060 0.22726
 N1319 N 0.33350 0.00557 0.21595
 N1320 N 0.32355 0.00514 0.19649
 C1321 C 0.27438 0.06434 0.39411
 N1322 N 0.25974 0.07769 0.39047
 N1323 N 0.25034 0.08606 0.40621
 C1324 C 0.25523 0.08141 0.42616
 N1325 N 0.26975 0.06790 0.42966
 N1326 N 0.27908 0.05950 0.41395
 C1327 C 0.28553 0.05561 0.37720
 N1328 N 0.29962 0.04187 0.38133
 N1329 N 0.31017 0.03405 0.36636
 C1330 C 0.30714 0.03974 0.34668
 N1331 N 0.29305 0.05353 0.34247
 N1332 N 0.28243 0.06134 0.35749
 C1333 C 0.31878 0.03053 0.33040
 N1334 N 0.31694 0.03618 0.31062
 N1335 N 0.32733 0.02710 0.29601
 C1336 C 0.33985 0.01204 0.30071
 N1337 N 0.34171 0.00662 0.32053
 N1338 N 0.33145 0.01569 0.33508
 C1339 C 0.77661 0.56776 0.89704
 N1340 N 0.76215 0.58124 0.89317
 N1341 N 0.75308 0.59025 0.90884
 C1342 C 0.75815 0.58616 0.92897
 N1343 N 0.77249 0.57252 0.93272
 N1344 N 0.78148 0.56346 0.91707
 C1345 C 0.78751 0.55849 0.88019
 N1346 N 0.80132 0.54452 0.88447
 N1347 N 0.81189 0.53649 0.86961
 C1348 C 0.80916 0.54216 0.84991
 N1349 N 0.79529 0.55612 0.84554
 N1350 N 0.78464 0.56414 0.86044
 C1351 C 0.82131 0.53323 0.83396
 N1352 N 0.82002 0.53913 0.81429
 N1353 N 0.83136 0.53076 0.80017
 C1354 C 0.84435 0.51622 0.80527
 N1355 N 0.84557 0.51045 0.82495
 N1356 N 0.83433 0.51879 0.83900
 C1357 C 0.09322 0.68358 0.56963
 N1358 N 0.07649 0.68588 0.55545
 N1359 N 0.05958 0.69353 0.56195
 C1360 C 0.05881 0.69914 0.58285
 N1361 N 0.07566 0.69692 0.59685
 N1362 N 0.09245 0.68930 0.59040
 C1363 C 0.11172 0.67430 0.56324
 N1364 N 0.12672 0.67023 0.57837
 N1365 N 0.14329 0.66118 0.57324
 C1366 C 0.14565 0.65591 0.55275
 N1367 N 0.13075 0.66011 0.53749
 N1368 N 0.11403 0.66912 0.54265
 C1369 C 0.16371 0.64501 0.54776
 N1370 N 0.16863 0.64170 0.52781
 N1371 N 0.18495 0.63140 0.52383
 C1372 C 0.19678 0.62393 0.53965
 N1373 N 0.19182 0.62735 0.55951
 N1374 N 0.17569 0.63772 0.56349
 C1375 C 0.61960 0.18641 1.08637
 N1376 N 0.61895 0.18969 1.10743
 N1377 N 0.60162 0.19478 1.11491
 C1378 C 0.58416 0.19680 1.10167
 N1379 N 0.58480 0.19358 1.08051
 N1380 N 0.60219 0.18842 1.07299
 C1381 C 0.63885 0.18022 1.07870
 N1382 N 0.64006 0.17536 1.05780
 N1383 N 0.65746 0.16874 1.05143
 C1384 C 0.67420 0.16682 1.06576
 N1385 N 0.67296 0.17191 1.08654
 N1386 N 0.65567 0.17850 1.09288
 C1387 C 0.69288 0.15782 1.05958
 N1388 N 0.70740 0.15322 1.07486
 N1389 N 0.72365 0.14353 1.06994
 C1390 C 0.72620 0.13813 1.04953
 N1391 N 0.71195 0.14312 1.03410
 N1392 N 0.69549 0.15274 1.03905
 C1393 C 0.88007 0.21586 0.96917
 N1394 N 0.89944 0.22231 0.97991
 N1395 N 0.91488 0.22997 0.97007
 C1396 C 0.91168 0.23141 0.94903
 N1397 N 0.89212 0.22512 0.93843
 N1398 N 0.87667 0.21752 0.94827
 C1399 C 0.86346 0.20611 0.97969
 N1400 N 0.84400 0.19981 0.96902
 N1401 N 0.82934 0.18969 0.97818
 C1402 C 0.83363 0.18546 0.99832
 N1403 N 0.85302 0.19195 1.00903
 N1404 N 0.86764 0.20212 0.99991
 C1405 C 0.81823 0.17270 1.00789
 N1406 N 0.82402 0.16560 1.02651
 N1407 N 0.81076 0.15259 1.03452
 C1408 C 0.79114 0.14625 1.02430
 N1409 N 0.78518 0.15366 1.00584
 N1410 N 0.79851 0.16661 0.99775
 C1411 C 0.35483 0.70008 0.46184
 N1412 N 0.35244 0.70045 0.44067
 N1413 N 0.36837 0.70781 0.43129
 C1414 C 0.38730 0.71509 0.44269
 N1415 N 0.38959 0.71482 0.46390
 N1416 N 0.37369 0.70742 0.47328
 C1417 C 0.33761 0.69102 0.47208
 N1418 N 0.34079 0.68864 0.49284
 N1419 N 0.32562 0.67928 0.50191
 C1420 C 0.30667 0.67205 0.49060
 N1421 N 0.30338 0.67466 0.46989
 N1422 N 0.31858 0.68397 0.46079
 C1423 C 0.29073 0.66008 0.50028
 N1424 N 0.27151 0.65300 0.48940
 N1425 N 0.25788 0.64051 0.49764
 C1426 C 0.26302 0.63457 0.51699
 N1427 N 0.28210 0.64196 0.52795
 N1428 N 0.29566 0.65452 0.51979
 C1429 C 0.58324 0.80690 0.46211
 N1430 N 0.57627 0.78729 0.46599
 N1431 N 0.55638 0.77930 0.45976
 C1432 C 0.54266 0.79065 0.44954
 N1433 N 0.54963 0.81040 0.44606
 N1434 N 0.56951 0.81834 0.45217
 C1435 C 0.60551 0.81513 0.46706
 N1436 N 0.61281 0.83256 0.45900
 N1437 N 0.63314 0.83948 0.46220
 C1438 C 0.64697 0.82932 0.47370
 N1439 N 0.63967 0.81200 0.48201
 N1440 N 0.61930 0.80497 0.47866
 C1441 C 0.66945 0.83670 0.47630
 N1442 N 0.68336 0.82934 0.49043
 N1443 N 0.70373 0.83619 0.49246
 C1444 C 0.71093 0.85044 0.48028
 N1445 N 0.69699 0.85769 0.46613
 N1446 N 0.67665 0.85101 0.46423
 C1447 C 0.11458 0.28941 -0.04591
 N1448 N 0.10570 0.29453 -0.06454
 N1449 N 0.08511 0.29089 -0.07027
 C1450 C 0.07253 0.28178 -0.05771
 N1451 N 0.08138 0.27648 -0.03907
 N1452 N 0.10205 0.28039 -0.03318
 C1453 C 0.13737 0.29388 -0.04010
 N1454 N 0.14661 0.29583 -0.01974
 N1455 N 0.16719 0.30163 -0.01484
 C1456 C 0.17921 0.30543 -0.03018
 N1457 N 0.16996 0.30307 -0.05048
 N1458 N 0.14947 0.29749 -0.05534
 C1459 C 0.20140 0.31400 -0.02529
 N1460 N 0.21232 0.31767 -0.04140
 N1461 N 0.23146 0.32802 -0.03769
 C1462 C 0.24055 0.33512 -0.01770
 N1463 N 0.22993 0.33092 -0.00144
 N1464 N 0.21065 0.32055 -0.00517
 C1465 C 0.40400 0.27270 0.06585
 N1466 N 0.42379 0.27667 0.06126
 N1467 N 0.43949 0.26794 0.07092
 C1468 C 0.43600 0.25478 0.08546
 N1469 N 0.41611 0.25063 0.08987
 N1470 N 0.40041 0.25945 0.08029
 C1471 C 0.38703 0.28322 0.05580
 N1472 N 0.36776 0.28191 0.06222
 N1473 N 0.35276 0.29227 0.05351
 C1474 C 0.35654 0.30425 0.03804
 N1475 N 0.37575 0.30540 0.03159
 N1476 N 0.39072 0.29514 0.04032
 C1477 C 0.34052 0.31623 0.02849
 N1478 N 0.34499 0.32750 0.01278
 N1479 N 0.33102 0.33887 0.00413
 C1480 C 0.31199 0.33953 0.01081
 N1481 N 0.30742 0.32820 0.02655
 N1482 N 0.32145 0.31673 0.03524
 C1483 C 0.86254 0.75646 0.55541
 N1484 N 0.87560 0.74619 0.54395
 N1485 N 0.89310 0.74014 0.55342
 C1486 C 0.89828 0.74433 0.57468
 N1487 N 0.88500 0.75429 0.58609
 N1488 N 0.86747 0.76019 0.57666
 C1489 C 0.84457 0.76540 0.54503
 N1490 N 0.83142 0.77520 0.55673
 N1491 N 0.81660 0.78551 0.54770
 C1492 C 0.81445 0.78648 0.52663
 N1493 N 0.82737 0.77636 0.51487
 N1494 N 0.84213 0.76597 0.52389
 C1495 C 0.80019 0.80024 0.51711
 N1496 N 0.80165 0.80487 0.49731
 N1497 N 0.79070 0.81931 0.48945
 C1498 C 0.77777 0.82961 0.50102
 N1499 N 0.77590 0.82462 0.52066
 N1500 N 0.78698 0.81025 0.52860
   
