data_POSCAR
  _audit_creation_date              2014-09-24
  _audit_creation_method            'ToBaCCo'
  _symmetry_space_group_name_H-M    'P1'
  _symmetry_Int_Tables_number       1
  _symmetry_cell_setting            triclinic
  loop_
  _symmetry_equiv_pos_as_xyz
 x,y,z
_cell_length_a 55.1797
_cell_length_b 55.1633
_cell_length_c 55.2311
_cell_angle_alpha 89.992700
_cell_angle_beta 90.012500
_cell_angle_gamma 90.038500
loop_
  _atom_site_label
  _atom_site_type_symbol
  _atom_site_fract_x
  _atom_site_fract_y
  _atom_site_fract_z
N1 N 0.16796 0.22549 0.23105
 N2 N 0.17454 0.20644 0.24371
 C3 C 0.15895 0.20347 0.26224
 C4 C 0.14162 0.22167 0.26116
 C5 C 0.14802 0.23526 0.24104
 H6 H 0.16020 0.18916 0.27554
 H7 H 0.13884 0.25106 0.23403
 Cu8 Cu 0.20288 0.18757 0.23452
 Cu9 Cu 0.18571 0.23644 0.20258
 Cu10 Cu 0.23604 0.20284 0.18584
 N11 N 0.23103 0.16862 0.22493
 N12 N 0.24393 0.17486 0.20593
 C13 C 0.26234 0.15914 0.20327
 C14 C 0.26102 0.14195 0.22154
 C15 C 0.24081 0.14860 0.23495
 H16 H 0.27578 0.16033 0.18911
 H17 H 0.23361 0.13944 0.25068
 N18 N 0.22510 0.23175 0.16795
 N19 N 0.20602 0.24459 0.17442
 C20 C 0.20330 0.26316 0.15886
 C21 C 0.22151 0.26202 0.14161
 C22 C 0.23498 0.24180 0.14804
 H23 H 0.18910 0.27657 0.16012
 H24 H 0.25074 0.23474 0.13884
 H25 H 0.19935 0.20276 0.19327
 H26 H 0.21893 0.22240 0.21266
 N27 N 0.66816 0.72585 0.73125
 N28 N 0.67469 0.70674 0.74383
 C29 C 0.65918 0.70384 0.76245
 C30 C 0.64193 0.72212 0.76148
 C31 C 0.64830 0.73571 0.74135
 H32 H 0.66047 0.68954 0.77575
 H33 H 0.63910 0.75149 0.73434
 Cu34 Cu 0.70265 0.68745 0.73434
 Cu35 Cu 0.68587 0.73673 0.70273
 Cu36 Cu 0.73612 0.70309 0.68591
 N37 N 0.73112 0.66889 0.72494
 N38 N 0.74404 0.67519 0.70598
 C39 C 0.76252 0.65955 0.70333
 C40 C 0.76123 0.64236 0.72159
 C41 C 0.74099 0.64893 0.73499
 H42 H 0.77593 0.66074 0.68914
 H43 H 0.73383 0.63979 0.75074
 N44 N 0.72515 0.73192 0.66802
 N45 N 0.70610 0.74479 0.67451
 C46 C 0.70343 0.76338 0.65898
 C47 C 0.72166 0.76224 0.64176
 C48 C 0.73507 0.74197 0.64813
 H49 H 0.68928 0.77682 0.66029
 H50 H 0.75084 0.73491 0.63896
 H51 H 0.69940 0.70305 0.69317
 H52 H 0.71897 0.72238 0.71290
 N53 N 0.33144 0.77484 0.73114
 N54 N 0.32512 0.79417 0.74350
 C55 C 0.34072 0.79718 0.76204
 C56 C 0.35778 0.77869 0.76130
 C57 C 0.35122 0.76491 0.74134
 H58 H 0.33958 0.81163 0.77518
 H59 H 0.36016 0.74886 0.73460
 Cu60 Cu 0.29682 0.81305 0.73412
 Cu61 Cu 0.31349 0.76371 0.70280
 Cu62 Cu 0.26327 0.79748 0.68584
 N63 N 0.26851 0.83191 0.72473
 N64 N 0.25567 0.82572 0.70570
 C65 C 0.23724 0.84141 0.70301
 C66 C 0.23836 0.85852 0.72145
 C67 C 0.25858 0.85177 0.73491
 H68 H 0.22390 0.84008 0.68877
 H69 H 0.26574 0.86066 0.75080
 N70 N 0.27397 0.76830 0.66819
 N71 N 0.29302 0.75543 0.67474
 C72 C 0.29567 0.73678 0.65925
 C73 C 0.27746 0.73788 0.64199
 C74 C 0.26405 0.75817 0.64832
 H75 H 0.30986 0.72337 0.66054
 H76 H 0.24834 0.76523 0.63903
 H77 H 0.29983 0.79720 0.69308
 H78 H 0.28026 0.77801 0.71288
 N79 N 0.83217 0.27404 0.23175
 N80 N 0.82586 0.29336 0.24411
 C81 C 0.84149 0.29644 0.26257
 C82 C 0.85865 0.27799 0.26185
 C83 C 0.85196 0.26412 0.24193
 H84 H 0.84029 0.31102 0.27555
 H85 H 0.86087 0.24814 0.23500
 Cu86 Cu 0.79789 0.31262 0.23463
 Cu87 Cu 0.81458 0.26322 0.20314
 Cu88 Cu 0.76448 0.29701 0.18615
 N89 N 0.76940 0.33116 0.22525
 N90 N 0.75651 0.32490 0.20626
 C91 C 0.73807 0.34060 0.20358
 C92 C 0.73940 0.35780 0.22184
 C93 C 0.75957 0.35114 0.23529
 H94 H 0.72467 0.33943 0.18938
 H95 H 0.76675 0.36027 0.25104
 N96 N 0.77548 0.26816 0.16823
 N97 N 0.79446 0.25523 0.17480
 C98 C 0.79710 0.23659 0.15930
 C99 C 0.77893 0.23780 0.14200
 C100 C 0.76556 0.25811 0.14834
 H101 H 0.81114 0.22304 0.16069
 H102 H 0.74980 0.26516 0.13915
 H103 H 0.80129 0.29702 0.19343
 H104 H 0.78160 0.27773 0.21309
 N105 N 0.83187 0.72595 0.26867
 N106 N 0.82506 0.70707 0.25585
 C107 C 0.84050 0.70416 0.23721
 C108 C 0.85804 0.72217 0.23838
 C109 C 0.85188 0.73564 0.25866
 H110 H 0.83898 0.69007 0.22370
 H111 H 0.86133 0.75120 0.26588
 Cu112 Cu 0.79687 0.68810 0.26531
 Cu113 Cu 0.81432 0.73675 0.29732
 Cu114 Cu 0.76401 0.70298 0.31421
 N115 N 0.76868 0.66914 0.27478
 N116 N 0.75599 0.67514 0.29400
 C117 C 0.73768 0.65930 0.29676
 C118 C 0.73886 0.64228 0.27832
 C119 C 0.75884 0.64920 0.26469
 H120 H 0.72451 0.66023 0.31119
 H121 H 0.76581 0.64030 0.24872
 N122 N 0.77512 0.73176 0.33217
 N123 N 0.79417 0.74466 0.32566
 C124 C 0.79682 0.76328 0.34117
 C125 C 0.77859 0.76211 0.35839
 C126 C 0.76520 0.74181 0.35205
 H127 H 0.81091 0.77680 0.33983
 H128 H 0.74940 0.73478 0.36120
 H129 H 0.80072 0.70302 0.30668
 H130 H 0.78102 0.72276 0.28749
 N131 N 0.33194 0.22585 -0.23185
 N132 N 0.32575 0.20641 -0.24409
 C133 C 0.34146 0.20331 -0.26252
 C134 C 0.35852 0.22191 -0.26187
 C135 C 0.35168 0.23586 -0.24206
 H136 H 0.34030 0.18873 -0.27551
 H137 H 0.36050 0.25193 -0.23518
 Cu138 Cu 0.29743 0.18753 -0.23466
 Cu139 Cu 0.31422 0.23675 -0.20322
 Cu140 Cu 0.26398 0.20299 -0.18639
 N141 N 0.26900 0.16869 -0.22544
 N142 N 0.25604 0.17502 -0.20653
 C143 C 0.23750 0.15941 -0.20393
 C144 C 0.23878 0.14220 -0.22217
 C145 C 0.25907 0.14877 -0.23555
 H146 H 0.22408 0.16062 -0.18975
 H147 H 0.26618 0.13967 -0.25134
 N148 N 0.27493 0.23184 -0.16840
 N149 N 0.29399 0.24475 -0.17487
 C150 C 0.29659 0.26337 -0.15933
 C151 C 0.27832 0.26220 -0.14213
 C152 C 0.26494 0.24191 -0.14855
 H153 H 0.31068 0.27690 -0.16064
 H154 H 0.24910 0.23489 -0.13945
 H155 H 0.30084 0.20305 -0.19352
 H156 H 0.28128 0.22237 -0.21323
 N157 N 0.66798 0.27402 -0.23143
 N158 N 0.67404 0.29356 -0.24361
 C159 C 0.65830 0.29665 -0.26199
 C160 C 0.64139 0.27792 -0.26146
 C161 C 0.64827 0.26396 -0.24166
 H162 H 0.65940 0.31129 -0.27493
 H163 H 0.63957 0.24778 -0.23488
 Cu164 Cu 0.70254 0.31243 -0.23468
 Cu165 Cu 0.68586 0.26313 -0.20297
 Cu166 Cu 0.73592 0.29700 -0.18614
 N167 N 0.73066 0.33147 -0.22493
 N168 N 0.74371 0.32508 -0.20608
 C169 C 0.76221 0.34073 -0.20346
 C170 C 0.76085 0.35798 -0.22166
 C171 C 0.74050 0.35147 -0.23497
 H172 H 0.77572 0.33943 -0.18937
 H173 H 0.73333 0.36063 -0.25071
 N174 N 0.72519 0.26803 -0.16828
 N175 N 0.70618 0.25507 -0.17477
 C176 C 0.70353 0.23652 -0.15915
 C177 C 0.72174 0.23780 -0.14188
 C178 C 0.73510 0.25809 -0.14833
 H179 H 0.68936 0.22306 -0.16035
 H180 H 0.75079 0.26527 -0.13909
 H181 H 0.69918 0.29691 -0.19364
 H182 H 0.71887 0.27753 -0.21325
 N183 N 0.16835 0.77475 0.26889
 N184 N 0.17498 0.79379 0.25622
 C185 C 0.15944 0.79675 0.23765
 C186 C 0.14207 0.77856 0.23871
 C187 C 0.14841 0.76498 0.25885
 H188 H 0.16079 0.81100 0.22430
 H189 H 0.13916 0.74922 0.26588
 Cu190 Cu 0.20341 0.81260 0.26537
 Cu191 Cu 0.18604 0.76381 0.29740
 Cu192 Cu 0.23618 0.79759 0.31445
 N193 N 0.23157 0.83152 0.27505
 N194 N 0.24404 0.82565 0.29444
 C195 C 0.26228 0.84156 0.29735
 C196 C 0.26143 0.85845 0.27870
 C197 C 0.24157 0.85134 0.26486
 H198 H 0.27528 0.84057 0.31192
 H199 H 0.23465 0.86002 0.24875
 N200 N 0.22527 0.76855 0.33222
 N201 N 0.20624 0.75565 0.32564
 C202 C 0.20354 0.73701 0.34113
 C203 C 0.22171 0.73816 0.35844
 C204 C 0.23514 0.75846 0.35211
 H205 H 0.18941 0.72353 0.33975
 H206 H 0.25090 0.76551 0.36134
 H207 H 0.19965 0.79752 0.30671
 H208 H 0.21939 0.77789 0.28755
 N209 N 0.47562 0.41754 0.48126
 N210 N 0.45651 0.42403 0.49387
 C211 C 0.45358 0.40845 0.51243
 C212 C 0.47184 0.39117 0.51144
 C213 C 0.48546 0.39762 0.49134
 H214 H 0.43929 0.40972 0.52573
 H215 H 0.50133 0.38851 0.48440
 Cu216 Cu 0.43756 0.45237 0.48469
 Cu217 Cu 0.48650 0.43544 0.45276
 Cu218 Cu 0.45282 0.48563 0.43599
 N219 N 0.41852 0.48046 0.47501
 N220 N 0.42480 0.49341 0.45605
 C221 C 0.40908 0.51181 0.45335
 C222 C 0.39183 0.51042 0.47154
 C223 C 0.39848 0.49022 0.48498
 H224 H 0.41031 0.52528 0.43921
 H225 H 0.38933 0.48303 0.50072
 N226 N 0.48175 0.47485 0.41809
 N227 N 0.49463 0.45579 0.42456
 C228 C 0.51321 0.45316 0.40898
 C229 C 0.51202 0.47140 0.39173
 C230 C 0.49176 0.48480 0.39817
 H231 H 0.52668 0.43903 0.41025
 H232 H 0.48467 0.50054 0.38896
 H233 H 0.47224 0.46867 0.46300
 H234 H 0.45265 0.44899 0.44352
 N235 N -0.02403 -0.08190 0.98136
 N236 N -0.04293 -0.07514 0.99418
 C237 C -0.04573 -0.09052 1.01291
 C238 C -0.02771 -0.10801 1.01174
 C239 C -0.01427 -0.10184 0.99143
 H240 H -0.05983 -0.08905 1.02639
 H241 H 0.00133 -0.11123 0.98427
 Cu242 Cu -0.06207 -0.04717 0.98453
 Cu243 Cu -0.01332 -0.06451 0.95246
 Cu244 Cu -0.04549 -0.01275 0.93759
 N245 N -0.08130 -0.01920 0.97486
 N246 N -0.07481 -0.00603 0.95612
 C247 C -0.09064 0.01227 0.95331
 C248 C -0.10809 0.01066 0.97131
 C249 C -0.10150 -0.00962 0.98466
 H250 H -0.08919 0.02592 0.93937
 H251 H -0.11064 -0.01685 1.00038
 N252 N -0.01801 -0.02462 0.91816
 N253 N -0.00558 -0.04416 0.92408
 C254 C 0.01258 -0.04712 0.90810
 C255 C 0.01156 -0.02865 0.89109
 C256 C -0.00821 -0.01477 0.89809
 H257 H 0.02579 -0.06152 0.90908
 H258 H -0.01495 0.00138 0.88934
 H259 H -0.02627 -0.03209 0.96382
 H260 H -0.04658 -0.04991 0.94344
 N261 N 1.02422 0.58211 0.98102
 N262 N 1.04297 0.57525 0.99398
 C263 C 1.04544 0.59036 1.01296
 C264 C 1.02733 0.60777 1.01184
 C265 C 1.01417 0.60182 0.99127
 H266 H 1.05954 0.58888 1.02645
 H267 H 0.99880 0.61143 0.98387
 Cu268 Cu 1.06291 0.54780 0.98422
 Cu269 Cu 1.01533 0.56589 0.95099
 Cu270 Cu 1.04709 0.51405 0.93581
 N271 N 1.08145 0.51932 0.97471
 N272 N 1.07505 0.50626 0.95586
 C273 C 1.09065 0.48772 0.95332
 C274 C 1.10787 0.48909 0.97155
 C275 C 1.10138 0.50946 0.98479
 H276 H 1.08939 0.47424 0.93920
 H277 H 1.11053 0.51669 1.00050
 N278 N 1.01828 0.52511 0.91790
 N279 N 1.00593 0.54465 0.92393
 C280 C 0.98722 0.54726 0.90852
 C281 C 0.98789 0.52858 0.89172
 C282 C 1.00790 0.51490 0.89834
 H283 H 0.97411 0.56175 0.90952
 H284 H 1.01466 0.49885 0.88942
 H285 H 1.02805 0.53242 0.96221
 H286 H 1.04884 0.55034 0.94238
 N287 N 0.52406 0.08198 0.48132
 N288 N 0.54260 0.07490 0.49448
 C289 C 0.54506 0.08999 0.51349
 C290 C 0.52716 0.10760 0.51222
 C291 C 0.51413 0.10181 0.49149
 H292 H 0.55909 0.08847 0.52705
 H293 H 0.49913 0.11174 0.48377
 Cu294 Cu 0.56276 0.04767 0.48447
 Cu295 Cu 0.51561 0.06619 0.45082
 Cu296 Cu 0.54521 0.01250 0.43803
 N297 N 0.58160 0.01946 0.47459
 N298 N 0.57482 0.00608 0.45610
 C299 C 0.59059 -0.01226 0.45326
 C300 C 0.60830 -0.01048 0.47101
 C301 C 0.60196 0.01000 0.48417
 H302 H 0.58903 -0.02594 0.43935
 H303 H 0.61140 0.01743 0.49962
 N304 N 0.51781 0.02452 0.41863
 N305 N 0.50611 0.04466 0.42393
 C306 C 0.48789 0.04763 0.40800
 C307 C 0.48824 0.02858 0.39157
 C308 C 0.50759 0.01433 0.39895
 H309 H 0.47527 0.06257 0.40847
 H310 H 0.51394 -0.00218 0.39058
 H311 H 0.52693 0.03339 0.46360
 H312 H 0.54869 0.04906 0.44273
 N313 N -0.02414 0.08211 0.51857
 N314 N -0.04306 0.07537 0.50579
 C315 C -0.04595 0.09082 0.48718
 C316 C -0.02788 0.10826 0.48825
 C317 C -0.01437 0.10209 0.50852
 H318 H -0.06019 0.08939 0.47387
 H319 H 0.00128 0.11149 0.51565
 Cu320 Cu -0.06281 0.04755 0.51483
 Cu321 Cu -0.01355 0.06456 0.54726
 Cu322 Cu -0.04560 0.01300 0.56210
 N323 N -0.08153 0.01943 0.52519
 N324 N -0.07495 0.00626 0.54389
 C325 C -0.09081 -0.01203 0.54679
 C326 C -0.10833 -0.01040 0.52884
 C327 C -0.10182 0.00992 0.51555
 H328 H -0.08934 -0.02569 0.56075
 H329 H -0.11102 0.01724 0.49993
 N330 N -0.01808 0.02475 0.58140
 N331 N -0.00565 0.04428 0.57551
 C332 C 0.01244 0.04731 0.59158
 C333 C 0.01134 0.02884 0.60860
 C334 C -0.00840 0.01496 0.60155
 H335 H 0.02558 0.06180 0.59073
 H336 H -0.01529 -0.00108 0.61040
 H337 H -0.02682 0.03225 0.53520
 H338 H -0.04707 0.05008 0.55583
 N339 N 0.47573 0.58213 0.01920
 N340 N 0.45662 0.57564 0.00660
 C341 C 0.45368 0.59123 -0.01192
 C342 C 0.47197 0.60847 -0.01099
 C343 C 0.48561 0.60205 0.00912
 H344 H 0.43936 0.59001 -0.02517
 H345 H 0.50149 0.61118 0.01603
 Cu346 Cu 0.43720 0.54752 0.01545
 Cu347 Cu 0.48658 0.56418 0.04756
 Cu348 Cu 0.45297 0.51406 0.06423
 N349 N 0.41864 0.51918 0.02540
 N350 N 0.42494 0.50623 0.04432
 C351 C 0.40922 0.48777 0.04699
 C352 C 0.39197 0.48917 0.02878
 C353 C 0.39857 0.50944 0.01546
 H354 H 0.41046 0.47427 0.06109
 H355 H 0.38937 0.51669 -0.00020
 N356 N 0.48189 0.52477 0.08208
 N357 N 0.49477 0.54383 0.07563
 C358 C 0.51330 0.54654 0.09125
 C359 C 0.51209 0.52831 0.10851
 C360 C 0.49185 0.51487 0.10204
 H361 H 0.52671 0.56075 0.09006
 H362 H 0.48469 0.49918 0.11130
 H363 H 0.47216 0.53101 0.03672
 H364 H 0.45261 0.55072 0.05649
 N365 N 0.52459 -0.08230 0.01922
 N366 N 0.54394 -0.07597 0.00690
 C367 C 0.54693 -0.09149 -0.01170
 C368 C 0.52842 -0.10853 -0.01106
 C369 C 0.51463 -0.10204 0.00892
 H370 H 0.56139 -0.09030 -0.02482
 H371 H 0.49854 -0.11098 0.01560
 Cu372 Cu 0.56295 -0.04778 0.01632
 Cu373 Cu 0.51352 -0.06433 0.04761
 Cu374 Cu 0.54732 -0.01401 0.06440
 N375 N 0.58194 -0.01959 0.02575
 N376 N 0.57548 -0.00638 0.04444
 C377 C 0.59108 0.01218 0.04691
 C378 C 0.60844 0.01060 0.02882
 C379 C 0.60200 -0.00989 0.01573
 H380 H 0.58967 0.02590 0.06078
 H381 H 0.61126 -0.01727 0.00015
 N382 N 0.51823 -0.02475 0.08220
 N383 N 0.50532 -0.04381 0.07571
 C384 C 0.48676 -0.04648 0.09130
 C385 C 0.48797 -0.02827 0.10857
 C386 C 0.50822 -0.01484 0.10213
 H387 H 0.47331 -0.06065 0.09007
 H388 H 0.51536 0.00087 0.11139
 H389 H 0.52789 -0.03116 0.03744
 H390 H 0.54702 -0.05067 0.05734
 N391 N 1.02375 0.41806 0.51853
 N392 N 1.04255 0.42494 0.50565
 C393 C 1.04540 0.40956 0.48694
 C394 C 1.02748 0.39195 0.48818
 C395 C 1.01408 0.39803 0.50853
 H396 H 1.05944 0.41115 0.47341
 H397 H 0.99857 0.38851 0.51579
 Cu398 Cu 1.06156 0.45310 0.51507
 Cu399 Cu 1.01305 0.43558 0.54729
 Cu400 Cu 1.04693 0.48585 0.56408
 N401 N 1.08059 0.48127 0.52451
 N402 N 1.07469 0.49392 0.54376
 C403 C 1.09056 0.51221 0.54650
 C404 C 1.10752 0.51106 0.52800
 C405 C 1.10050 0.49112 0.51434
 H406 H 1.08971 0.52534 0.56098
 H407 H 1.10931 0.48415 0.49833
 N408 N 1.01822 0.47476 0.58220
 N409 N 1.00526 0.45574 0.57571
 C410 C 0.98670 0.45311 0.59130
 C411 C 0.98798 0.47132 0.60855
 C412 C 1.00827 0.48468 0.60213
 H413 H 0.97311 0.43908 0.58997
 H414 H 1.01536 0.50046 0.61131
 H415 H 1.02697 0.46880 0.53742
 H416 H 1.04676 0.44907 0.55647
 C417 C 0.37404 -0.00033 0.25021
 C418 C 0.12570 -0.00034 0.74966
 C419 C 0.62595 0.49976 0.25009
 C420 C 0.87425 0.50015 0.74997
 C421 C 0.24995 0.37576 -0.00017
 C422 C 0.75024 0.12436 0.00015
 C423 C 0.25007 0.62411 0.50003
 C424 C 0.74995 0.87579 0.49991
 C425 C -0.00029 0.25011 0.37450
 C426 C 0.00020 0.75000 0.12519
 C427 C 0.50015 0.24981 0.62592
 C428 C 0.49978 0.75002 0.87475
 C429 C 0.08141 0.23323 0.30906
 C430 C 0.08674 0.25061 0.29131
 C431 C 0.10647 0.24681 0.27576
 C432 C 0.12083 0.22574 0.27780
 C433 C 0.11515 0.20855 0.29582
 C434 C 0.09546 0.21217 0.31144
 C435 C 0.06068 0.23711 0.32546
 C436 C 0.05518 0.21959 0.34299
 C437 C 0.03544 0.22328 0.35850
 C438 C 0.02159 0.24493 0.35747
 C439 C 0.02727 0.26194 0.33905
 C440 C 0.04670 0.25818 0.32318
 C441 C 0.08947 0.19507 0.32931
 C442 C 0.06959 0.19866 0.34474
 C443 C 0.07219 0.27143 0.28944
 C444 C 0.05251 0.27516 0.30513
 H445 H 0.10021 0.17876 0.33135
 H446 H 0.06559 0.18501 0.35827
 H447 H 0.07603 0.28496 0.27574
 H448 H 0.04178 0.29148 0.30312
 H449 H 0.11057 0.26038 0.26221
 H450 H 0.12582 0.19221 0.29769
 H451 H 0.03113 0.20894 0.37105
 H452 H 0.01666 0.27839 0.33744
 C453 C 0.58146 0.73332 0.80918
 C454 C 0.58702 0.75094 0.79173
 C455 C 0.60683 0.74726 0.77624
 C456 C 0.62107 0.72609 0.77807
 C457 C 0.61513 0.70862 0.79575
 C458 C 0.59535 0.71212 0.81129
 C459 C 0.56070 0.73713 0.82558
 C460 C 0.55498 0.71939 0.84282
 C461 C 0.53521 0.72302 0.85833
 C462 C 0.52159 0.74483 0.85762
 C463 C 0.52748 0.76205 0.83947
 C464 C 0.54692 0.75836 0.82359
 C465 C 0.58912 0.69480 0.82887
 C466 C 0.56921 0.69831 0.84428
 C467 C 0.57265 0.77191 0.79013
 C468 C 0.55296 0.77557 0.80582
 H469 H 0.59973 0.67838 0.83071
 H470 H 0.56505 0.68448 0.85758
 H471 H 0.57667 0.78562 0.77667
 H472 H 0.54238 0.79201 0.80403
 H473 H 0.61111 0.76099 0.76292
 H474 H 0.62565 0.69216 0.79739
 H475 H 0.53070 0.70853 0.87064
 H476 H 0.51703 0.77864 0.83809
 C477 C 0.41798 0.76704 0.80932
 C478 C 0.41233 0.74945 0.79187
 C479 C 0.39257 0.75327 0.77633
 C480 C 0.37849 0.77456 0.77807
 C481 C 0.38446 0.79195 0.79583
 C482 C 0.40420 0.78831 0.81142
 C483 C 0.43875 0.76313 0.82570
 C484 C 0.44461 0.78085 0.84290
 C485 C 0.46440 0.77713 0.85838
 C486 C 0.47790 0.75524 0.85770
 C487 C 0.47191 0.73805 0.83955
 C488 C 0.45245 0.74184 0.82368
 C489 C 0.41055 0.80561 0.82898
 C490 C 0.43049 0.80201 0.84435
 C491 C 0.42661 0.72843 0.79025
 C492 C 0.44632 0.72468 0.80591
 H493 H 0.40005 0.82210 0.83081
 H494 H 0.43478 0.81584 0.85761
 H495 H 0.42252 0.71476 0.77677
 H496 H 0.45684 0.70821 0.80408
 H497 H 0.38823 0.73956 0.76302
 H498 H 0.37399 0.80844 0.79749
 H499 H 0.46904 0.79164 0.87062
 H500 H 0.48230 0.72144 0.83814
 C501 C -0.08199 0.26690 0.30899
 C502 C -0.08684 0.24985 0.29081
 C503 C -0.10649 0.25364 0.27515
 C504 C -0.12153 0.27426 0.27762
 C505 C -0.11625 0.29110 0.29621
 C506 C -0.09649 0.28757 0.31176
 C507 C -0.06128 0.26304 0.32545
 C508 C -0.05611 0.28034 0.34328
 C509 C -0.03630 0.27674 0.35875
 C510 C -0.02217 0.25529 0.35747
 C511 C -0.02765 0.23842 0.33888
 C512 C -0.04701 0.24221 0.32292
 C513 C -0.09088 0.30442 0.33001
 C514 C -0.07094 0.30095 0.34539
 C515 C -0.07197 0.22928 0.28868
 C516 C -0.05244 0.22548 0.30453
 H517 H -0.10196 0.32046 0.33236
 H518 H -0.06723 0.31442 0.35918
 H519 H -0.07547 0.21598 0.27467
 H520 H -0.04148 0.20934 0.30234
 H521 H -0.10999 0.24025 0.26129
 H522 H -0.12721 0.30715 0.29864
 H523 H -0.03223 0.29097 0.37150
 H524 H -0.01689 0.22208 0.33713
 C525 C -0.08145 0.73317 0.19073
 C526 C -0.08682 0.75069 0.20834
 C527 C -0.10661 0.74704 0.22383
 C528 C -0.12105 0.72601 0.22185
 C529 C -0.11529 0.70861 0.20405
 C530 C -0.09551 0.71209 0.18848
 C531 C -0.06071 0.73699 0.17432
 C532 C -0.05517 0.71938 0.15691
 C533 C -0.03540 0.72303 0.14139
 C534 C -0.02162 0.74476 0.14227
 C535 C -0.02735 0.76185 0.16057
 C536 C -0.04677 0.75812 0.17646
 C537 C -0.08948 0.69489 0.17073
 C538 C -0.06959 0.69841 0.15529
 C539 C -0.07229 0.77155 0.21007
 C540 C -0.05262 0.77522 0.19437
 H541 H -0.10023 0.67856 0.16877
 H542 H -0.06559 0.68469 0.14183
 H543 H -0.07617 0.78517 0.22365
 H544 H -0.04193 0.79160 0.19624
 H545 H -0.11075 0.76071 0.23725
 H546 H -0.12597 0.69225 0.20231
 H547 H -0.03104 0.70864 0.12893
 H548 H -0.01680 0.77837 0.16206
 C549 C 0.41817 0.23301 0.69125
 C550 C 0.40402 0.21203 0.68882
 C551 C 0.38413 0.20853 0.70426
 C552 C 0.37842 0.22567 0.72242
 C553 C 0.39312 0.24660 0.72457
 C554 C 0.41286 0.25039 0.70899
 C555 C 0.43899 0.23686 0.67490
 C556 C 0.45294 0.25797 0.67710
 C557 C 0.47242 0.26171 0.66124
 C558 C 0.47824 0.24461 0.64297
 C559 C 0.46445 0.22289 0.64207
 C560 C 0.44459 0.21927 0.65749
 C561 C 0.42739 0.27126 0.71077
 C562 C 0.44703 0.27502 0.69504
 C563 C 0.41009 0.19487 0.67103
 C564 C 0.43012 0.19835 0.65575
 H565 H 0.42351 0.28484 0.72439
 H566 H 0.45770 0.29141 0.69694
 H567 H 0.39930 0.17859 0.66894
 H568 H 0.43418 0.18464 0.64230
 H569 H 0.37346 0.19222 0.70213
 H570 H 0.38926 0.26024 0.73809
 H571 H 0.48297 0.27823 0.66277
 H572 H 0.46886 0.20848 0.62965
 C573 C 0.58207 0.26658 0.69132
 C574 C 0.59622 0.28757 0.68890
 C575 C 0.61603 0.29110 0.70440
 C576 C 0.62168 0.27401 0.72265
 C577 C 0.60706 0.25302 0.72471
 C578 C 0.58737 0.24921 0.70908
 C579 C 0.56127 0.26274 0.67495
 C580 C 0.54730 0.24165 0.67717
 C581 C 0.52782 0.23791 0.66130
 C582 C 0.52203 0.25500 0.64300
 C583 C 0.53583 0.27671 0.64210
 C584 C 0.55569 0.28033 0.65753
 C585 C 0.57282 0.22835 0.71087
 C586 C 0.55317 0.22461 0.69514
 C587 C 0.59016 0.30472 0.67110
 C588 C 0.57014 0.30125 0.65580
 H589 H 0.57669 0.21478 0.72451
 H590 H 0.54247 0.20825 0.69707
 H591 H 0.60095 0.32101 0.66902
 H592 H 0.56607 0.31497 0.64237
 H593 H 0.62669 0.30742 0.70229
 H594 H 0.61090 0.23939 0.73826
 H595 H 0.51723 0.22143 0.66286
 H596 H 0.53142 0.29114 0.62970
 C597 C 0.08184 0.76698 0.19079
 C598 C 0.09577 0.78816 0.18858
 C599 C 0.11545 0.79181 0.20421
 C600 C 0.12126 0.77450 0.22208
 C601 C 0.10699 0.75334 0.22400
 C602 C 0.08727 0.74951 0.20842
 C603 C 0.06114 0.76306 0.17434
 C604 C 0.04729 0.74187 0.17645
 C605 C 0.02789 0.73808 0.16052
 C606 C 0.02209 0.75519 0.14224
 C607 C 0.03579 0.77697 0.14141
 C608 C 0.05552 0.78068 0.15695
 C609 C 0.07284 0.72856 0.21012
 C610 C 0.05321 0.72480 0.19438
 C611 C 0.08967 0.80534 0.17084
 C612 C 0.06982 0.80173 0.15537
 H613 H 0.07675 0.71497 0.22373
 H614 H 0.04256 0.70839 0.19626
 H615 H 0.10031 0.82175 0.16893
 H616 H 0.06574 0.81546 0.14195
 H617 H 0.12604 0.80823 0.20246
 H618 H 0.11119 0.73970 0.23743
 H619 H 0.01740 0.72152 0.16198
 H620 H 0.03138 0.79138 0.12899
 C621 C 0.30880 0.08160 0.23326
 C622 C 0.31096 0.09537 0.21201
 C623 C 0.29539 0.11510 0.20834
 C624 C 0.27761 0.12111 0.22569
 C625 C 0.27582 0.10707 0.24697
 C626 C 0.29134 0.08729 0.25082
 C627 C 0.32510 0.06077 0.23716
 C628 C 0.32303 0.04706 0.25842
 C629 C 0.33881 0.02751 0.26216
 C630 C 0.35696 0.02151 0.24499
 C631 C 0.35771 0.03505 0.22316
 C632 C 0.34232 0.05490 0.21947
 C633 C 0.28972 0.07304 0.27185
 C634 C 0.30531 0.05327 0.27560
 C635 C 0.32856 0.08903 0.19476
 C636 C 0.34388 0.06907 0.19837
 H637 H 0.27628 0.07720 0.28553
 H638 H 0.30350 0.04278 0.29208
 H639 H 0.33047 0.09956 0.17831
 H640 H 0.35721 0.06480 0.18461
 H641 H 0.29708 0.12552 0.19183
 H642 H 0.26249 0.11148 0.26064
 H643 H 0.33737 0.01709 0.27875
 H644 H 0.36998 0.03043 0.20868
 C645 C 0.80882 0.58186 0.73298
 C646 C 0.81102 0.59571 0.71179
 C647 C 0.79548 0.61548 0.70822
 C648 C 0.77774 0.62146 0.72562
 C649 C 0.77583 0.60726 0.74677
 C650 C 0.79131 0.58744 0.75052
 C651 C 0.82521 0.56111 0.73688
 C652 C 0.82313 0.54735 0.75811
 C653 C 0.83900 0.52790 0.76188
 C654 C 0.85720 0.52199 0.74474
 C655 C 0.85799 0.53558 0.72294
 C656 C 0.84250 0.55536 0.71923
 C657 C 0.78964 0.57310 0.77148
 C658 C 0.80531 0.55341 0.77523
 C659 C 0.82866 0.58947 0.69455
 C660 C 0.84405 0.56956 0.69815
 H661 H 0.77613 0.57716 0.78512
 H662 H 0.80346 0.54284 0.79166
 H663 H 0.83058 0.60005 0.67813
 H664 H 0.85742 0.56536 0.68440
 H665 H 0.79720 0.62598 0.69176
 H666 H 0.76247 0.61158 0.76043
 H667 H 0.83756 0.51746 0.77845
 H668 H 0.87032 0.53104 0.70850
 C669 C 0.80869 0.41837 0.76680
 C670 C 0.79115 0.41280 0.74926
 C671 C 0.77561 0.39300 0.75303
 C672 C 0.77748 0.37881 0.77420
 C673 C 0.79529 0.38474 0.79156
 C674 C 0.81087 0.40449 0.78797
 C675 C 0.82508 0.43915 0.76294
 C676 C 0.84239 0.44489 0.78060
 C677 C 0.85790 0.46468 0.77693
 C678 C 0.85712 0.47832 0.75517
 C679 C 0.83888 0.47244 0.73802
 C680 C 0.82301 0.45295 0.74175
 C681 C 0.82853 0.41072 0.80521
 C682 C 0.84393 0.43065 0.80165
 C683 C 0.78950 0.42717 0.72831
 C684 C 0.80517 0.44690 0.72461
 H685 H 0.83044 0.40011 0.82161
 H686 H 0.85729 0.43483 0.81542
 H687 H 0.77598 0.42313 0.71466
 H688 H 0.80333 0.45749 0.70819
 H689 H 0.76221 0.38868 0.73939
 H690 H 0.79700 0.37424 0.80801
 H691 H 0.87026 0.46919 0.79137
 H692 H 0.83744 0.48292 0.72148
 C693 C 0.30846 -0.08206 0.26731
 C694 C 0.29074 -0.08750 0.24994
 C695 C 0.27510 -0.10719 0.25381
 C696 C 0.27716 -0.12170 0.27483
 C697 C 0.29533 -0.11587 0.29197
 C698 C 0.31082 -0.09603 0.28838
 C699 C 0.32487 -0.06130 0.26337
 C700 C 0.34221 -0.05554 0.28098
 C701 C 0.35767 -0.03572 0.27727
 C702 C 0.35693 -0.02217 0.25544
 C703 C 0.33869 -0.02810 0.23832
 C704 C 0.32276 -0.04752 0.24216
 C705 C 0.32855 -0.08981 0.30556
 C706 C 0.34385 -0.06979 0.30200
 C707 C 0.28903 -0.07313 0.22899
 C708 C 0.30482 -0.05353 0.22513
 H709 H 0.33057 -0.10043 0.32194
 H710 H 0.35723 -0.06556 0.31574
 H711 H 0.27539 -0.07710 0.21545
 H712 H 0.30295 -0.04297 0.20870
 H713 H 0.26161 -0.11120 0.24017
 H714 H 0.29745 -0.12641 0.30834
 H715 H 0.36998 -0.03115 0.29173
 H716 H 0.33726 -0.01769 0.22173
 C717 C 0.19110 -0.08224 0.73301
 C718 C 0.20930 -0.08718 0.75003
 C719 C 0.22499 -0.10682 0.74615
 C720 C 0.22250 -0.12176 0.72546
 C721 C 0.20381 -0.11646 0.70874
 C722 C 0.18828 -0.09669 0.71232
 C723 C 0.17469 -0.06149 0.73687
 C724 C 0.15689 -0.05623 0.71956
 C725 C 0.14148 -0.03638 0.72314
 C726 C 0.14275 -0.02225 0.74456
 C727 C 0.16135 -0.02777 0.76144
 C728 C 0.17726 -0.04722 0.75769
 C729 C 0.17007 -0.09099 0.69547
 C730 C 0.15477 -0.07100 0.69894
 C731 C 0.21145 -0.07233 0.77060
 C732 C 0.19564 -0.05274 0.77441
 H733 H 0.16770 -0.10202 0.67941
 H734 H 0.14102 -0.06718 0.68546
 H735 H 0.22544 -0.07589 0.78389
 H736 H 0.19786 -0.04179 0.79054
 H737 H 0.23891 -0.11041 0.75947
 H738 H 0.20133 -0.12733 0.69265
 H739 H 0.12877 -0.03227 0.70890
 H740 H 0.16312 -0.01699 0.77776
 C741 C 0.69174 0.41829 0.23320
 C742 C 0.70928 0.41275 0.25074
 C743 C 0.72484 0.39298 0.24697
 C744 C 0.72295 0.37877 0.22582
 C745 C 0.70521 0.38474 0.20841
 C746 C 0.68962 0.40445 0.21200
 C747 C 0.67528 0.43898 0.23710
 C748 C 0.65797 0.44468 0.21944
 C749 C 0.64239 0.46437 0.22314
 C750 C 0.64308 0.47794 0.24495
 C751 C 0.66129 0.47209 0.26212
 C752 C 0.67727 0.45272 0.25834
 C753 C 0.67195 0.41064 0.19475
 C754 C 0.65648 0.43048 0.19836
 C755 C 0.71088 0.42708 0.27172
 C756 C 0.69512 0.44671 0.27547
 H757 H 0.67009 0.40007 0.17832
 H758 H 0.64310 0.43463 0.18460
 H759 H 0.72442 0.42308 0.28535
 H760 H 0.69691 0.45725 0.29192
 H761 H 0.73820 0.38867 0.26065
 H762 H 0.70351 0.37425 0.19196
 H763 H 0.63005 0.46887 0.20868
 H764 H 0.66267 0.48251 0.27870
 C765 C 0.69156 0.58144 0.26705
 C766 C 0.70903 0.58711 0.24948
 C767 C 0.72446 0.60699 0.25322
 C768 C 0.72253 0.62119 0.27438
 C769 C 0.70489 0.61508 0.29183
 C770 C 0.68940 0.59525 0.28827
 C771 C 0.67517 0.56067 0.26315
 C772 C 0.65789 0.55489 0.28082
 C773 C 0.64235 0.53514 0.27710
 C774 C 0.64306 0.52160 0.25528
 C775 C 0.66126 0.52753 0.23812
 C776 C 0.67718 0.54697 0.24189
 C777 C 0.67181 0.58894 0.30554
 C778 C 0.65639 0.56904 0.30192
 C779 C 0.71066 0.57281 0.22849
 C780 C 0.69497 0.55309 0.22474
 H781 H 0.66993 0.59949 0.32198
 H782 H 0.64304 0.56482 0.31568
 H783 H 0.72413 0.57691 0.21483
 H784 H 0.69677 0.54259 0.20827
 H785 H 0.73779 0.61139 0.23954
 H786 H 0.70316 0.62555 0.30830
 H787 H 0.63001 0.53059 0.29154
 H788 H 0.66265 0.51712 0.22152
 C789 C 0.19107 0.08166 0.76643
 C790 C 0.20885 0.08701 0.74909
 C791 C 0.22438 0.10681 0.75285
 C792 C 0.22224 0.12127 0.77382
 C793 C 0.20420 0.11553 0.79101
 C794 C 0.18861 0.09577 0.78741
 C795 C 0.17470 0.06085 0.76256
 C796 C 0.15712 0.05535 0.78001
 C797 C 0.14166 0.03553 0.77636
 C798 C 0.14277 0.02158 0.75480
 C799 C 0.16123 0.02727 0.73784
 C800 C 0.17705 0.04681 0.74155
 C801 C 0.17065 0.08979 0.80443
 C802 C 0.15524 0.06987 0.80084
 C803 C 0.21075 0.07244 0.72830
 C804 C 0.19510 0.05270 0.72459
 H805 H 0.16850 0.10059 0.82068
 H806 H 0.14162 0.06589 0.81441
 H807 H 0.22444 0.07634 0.71480
 H808 H 0.19712 0.04198 0.70828
 H809 H 0.23797 0.11094 0.73935
 H810 H 0.20226 0.12622 0.80731
 H811 H 0.12906 0.03125 0.79065
 H812 H 0.16289 0.01662 0.72143
 C813 C 0.23296 0.31003 0.08137
 C814 C 0.21196 0.31243 0.09547
 C815 C 0.20835 0.29676 0.11514
 C816 C 0.22553 0.27867 0.12078
 C817 C 0.24650 0.27657 0.10632
 C818 C 0.25029 0.29218 0.08661
 C819 C 0.23689 0.32653 0.06071
 C820 C 0.25794 0.32425 0.04671
 C821 C 0.26173 0.34022 0.02734
 C822 C 0.24476 0.35869 0.02170
 C823 C 0.22315 0.35975 0.03559
 C824 C 0.21945 0.34416 0.05530
 C825 C 0.27107 0.29031 0.07202
 C826 C 0.27485 0.30610 0.05243
 C827 C 0.19494 0.33041 0.08957
 C828 C 0.19856 0.34593 0.06976
 H829 H 0.28455 0.27654 0.07580
 H830 H 0.29114 0.30409 0.04168
 H831 H 0.17867 0.33251 0.10035
 H832 H 0.18497 0.35955 0.06583
 H833 H 0.19204 0.29865 0.12585
 H834 H 0.26001 0.26295 0.11035
 H835 H 0.27818 0.33862 0.01673
 H836 H 0.20887 0.37239 0.03135
 C837 C 0.73323 0.81027 0.58163
 C838 C 0.75036 0.79217 0.58663
 C839 C 0.74658 0.77659 0.60635
 C840 C 0.72578 0.77894 0.62102
 C841 C 0.70884 0.79732 0.61567
 C842 C 0.71246 0.81298 0.59602
 C843 C 0.73709 0.82670 0.56092
 C844 C 0.71984 0.84460 0.55577
 C845 C 0.72348 0.86012 0.53603
 C846 C 0.74485 0.85874 0.52181
 C847 C 0.76161 0.83998 0.52717
 C848 C 0.75788 0.82409 0.54660
 C849 C 0.69564 0.83124 0.59040
 C850 C 0.69921 0.84670 0.57054
 C851 C 0.77092 0.79001 0.57177
 C852 C 0.77462 0.80571 0.55210
 H853 H 0.67957 0.83359 0.60142
 H854 H 0.68579 0.86055 0.56683
 H855 H 0.78426 0.77607 0.57538
 H856 H 0.79073 0.80345 0.54111
 H857 H 0.75993 0.76276 0.61019
 H858 H 0.69270 0.79946 0.62658
 H859 H 0.70934 0.87298 0.53203
 H860 H 0.77787 0.83811 0.51631
 C861 C 0.76684 0.81025 0.41833
 C862 C 0.78764 0.81298 0.40398
 C863 C 0.79131 0.79730 0.38437
 C864 C 0.77440 0.77887 0.37904
 C865 C 0.75356 0.77650 0.39366
 C866 C 0.74973 0.79211 0.41334
 C867 C 0.76292 0.82669 0.43901
 C868 C 0.74211 0.82405 0.45329
 C869 C 0.73834 0.83995 0.47269
 C870 C 0.75508 0.85874 0.47805
 C871 C 0.77648 0.86015 0.46387
 C872 C 0.78016 0.84462 0.44416
 C873 C 0.72915 0.78991 0.42816
 C874 C 0.72540 0.80563 0.44780
 C875 C 0.80444 0.83127 0.40961
 C876 C 0.80082 0.84675 0.42943
 H877 H 0.71583 0.77592 0.42455
 H878 H 0.70928 0.80334 0.45877
 H879 H 0.82053 0.83363 0.39862
 H880 H 0.81423 0.86062 0.43315
 H881 H 0.80747 0.79945 0.37350
 H882 H 0.74023 0.76264 0.38983
 H883 H 0.72207 0.83807 0.48353
 H884 H 0.79062 0.87302 0.46788
 C885 C 0.26674 0.31012 -0.08182
 C886 C 0.24937 0.29232 -0.08715
 C887 C 0.25313 0.27678 -0.10693
 C888 C 0.27416 0.27889 -0.12135
 C889 C 0.29134 0.29697 -0.11565
 C890 C 0.28774 0.31256 -0.09593
 C891 C 0.26288 0.32653 -0.06108
 C892 C 0.28037 0.34413 -0.05563
 C893 C 0.27670 0.35968 -0.03590
 C894 C 0.25509 0.35864 -0.02201
 C895 C 0.23813 0.34012 -0.02762
 C896 C 0.24186 0.32421 -0.04705
 C897 C 0.30481 0.33050 -0.08997
 C898 C 0.30124 0.34594 -0.07010
 C899 C 0.22859 0.29042 -0.07254
 C900 C 0.22489 0.30610 -0.05284
 H901 H 0.32107 0.33263 -0.10075
 H902 H 0.31485 0.35955 -0.06615
 H903 H 0.21506 0.27671 -0.07637
 H904 H 0.20860 0.30406 -0.04208
 H905 H 0.23960 0.26319 -0.11103
 H906 H 0.30766 0.29888 -0.12632
 H907 H 0.29102 0.37227 -0.03163
 H908 H 0.22170 0.33847 -0.01697
 C909 C 0.73331 0.19001 -0.08148
 C910 C 0.71232 0.18751 -0.09561
 C911 C 0.70869 0.20310 -0.11532
 C912 C 0.72583 0.22122 -0.12100
 C913 C 0.74683 0.22340 -0.10655
 C914 C 0.75063 0.20787 -0.08677
 C915 C 0.73721 0.17360 -0.06074
 C916 C 0.75821 0.17599 -0.04668
 C917 C 0.76197 0.16009 -0.02724
 C918 C 0.74507 0.14150 -0.02167
 C919 C 0.72347 0.14041 -0.03558
 C920 C 0.71978 0.15594 -0.05532
 C921 C 0.77139 0.20983 -0.07215
 C922 C 0.77512 0.19415 -0.05245
 C923 C 0.69532 0.16949 -0.08969
 C924 C 0.69893 0.15406 -0.06982
 H925 H 0.78489 0.22358 -0.07598
 H926 H 0.79139 0.19624 -0.04167
 H927 H 0.67909 0.16730 -0.10051
 H928 H 0.68536 0.14040 -0.06589
 H929 H 0.69239 0.20113 -0.12603
 H930 H 0.76033 0.23703 -0.11064
 H931 H 0.77838 0.16179 -0.01657
 H932 H 0.70917 0.12779 -0.03133
 C933 C 0.23315 0.69000 0.41859
 C934 C 0.25054 0.70781 0.41332
 C935 C 0.24676 0.72345 0.39364
 C936 C 0.22573 0.72144 0.37922
 C937 C 0.20849 0.70340 0.38488
 C938 C 0.21209 0.68770 0.40454
 C939 C 0.23707 0.67345 0.43921
 C940 C 0.21956 0.65587 0.44466
 C941 C 0.22327 0.64024 0.46433
 C942 C 0.24494 0.64119 0.47815
 C943 C 0.26198 0.65961 0.47248
 C944 C 0.25818 0.67563 0.45315
 C945 C 0.19499 0.66977 0.41049
 C946 C 0.19861 0.65422 0.43028
 C947 C 0.27137 0.70959 0.42786
 C948 C 0.27515 0.69375 0.44740
 H949 H 0.17867 0.66775 0.39977
 H950 H 0.18496 0.64065 0.43424
 H951 H 0.28489 0.72333 0.42407
 H952 H 0.29149 0.69570 0.45811
 H953 H 0.26031 0.73704 0.38958
 H954 H 0.19214 0.70158 0.37423
 H955 H 0.20893 0.62767 0.46863
 H956 H 0.27846 0.66115 0.48305
 C957 C 0.26638 0.68987 0.58168
 C958 C 0.24888 0.70755 0.58693
 C959 C 0.25251 0.72314 0.60670
 C960 C 0.27351 0.72120 0.62117
 C961 C 0.29083 0.70326 0.61553
 C962 C 0.28737 0.68760 0.59583
 C963 C 0.26266 0.67341 0.56095
 C964 C 0.28026 0.65591 0.55556
 C965 C 0.27672 0.64033 0.53582
 C966 C 0.25514 0.64125 0.52187
 C967 C 0.23807 0.65966 0.52743
 C968 C 0.24166 0.67558 0.54687
 C969 C 0.30454 0.66976 0.58996
 C970 C 0.30110 0.65426 0.57010
 C971 C 0.22811 0.70927 0.57230
 C972 C 0.22456 0.69354 0.55261
 H973 H 0.32078 0.66775 0.60080
 H974 H 0.31479 0.64073 0.56622
 H975 H 0.21448 0.72286 0.57610
 H976 H 0.20827 0.69544 0.54182
 H977 H 0.23888 0.73664 0.61075
 H978 H 0.30714 0.70148 0.62623
 H979 H 0.29110 0.62781 0.53160
 H980 H 0.22166 0.66120 0.51674
 C981 C 0.76730 0.18987 0.08180
 C982 C 0.78828 0.18737 0.09593
 C983 C 0.79193 0.20299 0.11562
 C984 C 0.77481 0.22113 0.12124
 C985 C 0.75384 0.22331 0.10677
 C986 C 0.75002 0.20776 0.08703
 C987 C 0.76335 0.17343 0.06110
 C988 C 0.74233 0.17580 0.04708
 C989 C 0.73851 0.15988 0.02768
 C990 C 0.75543 0.14137 0.02204
 C991 C 0.77702 0.14022 0.03597
 C992 C 0.78075 0.15575 0.05570
 C993 C 0.72927 0.20974 0.07241
 C994 C 0.72547 0.19400 0.05279
 C995 C 0.80526 0.16935 0.09003
 C996 C 0.80161 0.15389 0.07018
 H997 H 0.71584 0.22355 0.07618
 H998 H 0.70919 0.19608 0.04201
 H999 H 0.82151 0.16718 0.10082
 H1000 H 0.81516 0.14023 0.06626
 H1001 H 0.80822 0.20103 0.12634
 H1002 H 0.74038 0.23698 0.11079
 H1003 H 0.72207 0.16155 0.01705
 H1004 H 0.79127 0.12755 0.03174
 C1005 C 0.48327 0.33113 0.55976
 C1006 C 0.50080 0.33650 0.54217
 C1007 C 0.49704 0.35614 0.52644
 C1008 C 0.47586 0.37039 0.52817
 C1009 C 0.45850 0.36463 0.54602
 C1010 C 0.46208 0.34502 0.56178
 C1011 C 0.48714 0.31052 0.57637
 C1012 C 0.46948 0.30497 0.59374
 C1013 C 0.47320 0.28536 0.60949
 C1014 C 0.49499 0.27169 0.60880
 C1015 C 0.51211 0.27743 0.59052
 C1016 C 0.50834 0.29671 0.57444
 C1017 C 0.44481 0.33895 0.57946
 C1018 C 0.44838 0.31919 0.59508
 C1019 C 0.52173 0.32207 0.54063
 C1020 C 0.52545 0.30253 0.55652
 H1021 H 0.42836 0.34953 0.58120
 H1022 H 0.43459 0.31514 0.60844
 H1023 H 0.53536 0.32590 0.52704
 H1024 H 0.54186 0.29190 0.55476
 H1025 H 0.51073 0.36031 0.51305
 H1026 H 0.44208 0.37520 0.54765
 H1027 H 0.45879 0.28100 0.62193
 H1028 H 0.52867 0.26695 0.58916
 C1029 C -0.01671 0.83149 0.05946
 C1030 C 0.00082 0.83690 0.04187
 C1031 C -0.00285 0.85667 0.02634
 C1032 C -0.02389 0.87106 0.02827
 C1033 C -0.04133 0.86522 0.04603
 C1034 C -0.03784 0.84547 0.06163
 C1035 C -0.01286 0.81081 0.07594
 C1036 C -0.03049 0.80523 0.09333
 C1037 C -0.02678 0.78554 0.10894
 C1038 C -0.00501 0.77187 0.10815
 C1039 C 0.01209 0.77764 0.08988
 C1040 C 0.00832 0.79697 0.07389
 C1041 C -0.05507 0.83938 0.07933
 C1042 C -0.05152 0.81953 0.09484
 C1043 C 0.02170 0.82243 0.04020
 C1044 C 0.02541 0.80283 0.05598
 H1045 H -0.07145 0.85004 0.08122
 H1046 H -0.06526 0.81548 0.10826
 H1047 H 0.03532 0.82632 0.02661
 H1048 H 0.04180 0.79218 0.05415
 H1049 H 0.01084 0.86086 0.01296
 H1050 H -0.05771 0.87585 0.04772
 H1051 H -0.04119 0.78113 0.12138
 H1052 H 0.02866 0.76717 0.08846
 C1053 C 0.01668 0.66850 0.05937
 C1054 C -0.00092 0.66312 0.04183
 C1055 C 0.00257 0.64322 0.02640
 C1056 C 0.02354 0.62871 0.02837
 C1057 C 0.04103 0.63453 0.04609
 C1058 C 0.03771 0.65440 0.06157
 C1059 C 0.01298 0.68926 0.07579
 C1060 C 0.03066 0.69476 0.09317
 C1061 C 0.02706 0.71444 0.10881
 C1062 C 0.00534 0.72819 0.10806
 C1063 C -0.01179 0.72254 0.08976
 C1064 C -0.00812 0.70320 0.07375
 C1065 C 0.05505 0.66048 0.07919
 C1066 C 0.05164 0.68038 0.09465
 C1067 C -0.02170 0.67775 0.04011
 C1068 C -0.02525 0.69743 0.05583
 H1069 H 0.07138 0.64975 0.08107
 H1070 H 0.06544 0.68441 0.10802
 H1071 H -0.03536 0.67392 0.02655
 H1072 H -0.04156 0.70819 0.05398
 H1073 H -0.01115 0.63905 0.01304
 H1074 H 0.05737 0.62384 0.04780
 H1075 H 0.04148 0.71876 0.12126
 H1076 H -0.02830 0.73310 0.08834
 C1077 C 0.51679 0.16837 0.55989
 C1078 C 0.49921 0.16309 0.54230
 C1079 C 0.50270 0.14327 0.52675
 C1080 C 0.52360 0.12869 0.52868
 C1081 C 0.54114 0.13446 0.54640
 C1082 C 0.53784 0.15427 0.56201
 C1083 C 0.51305 0.18904 0.57644
 C1084 C 0.53070 0.19451 0.59386
 C1085 C 0.52705 0.21417 0.60957
 C1086 C 0.50533 0.22795 0.60880
 C1087 C 0.48823 0.22229 0.59049
 C1088 C 0.49194 0.20298 0.57444
 C1089 C 0.55515 0.16029 0.57970
 C1090 C 0.55169 0.18013 0.59527
 C1091 C 0.47843 0.17769 0.54066
 C1092 C 0.47484 0.19727 0.55648
 H1093 H 0.57151 0.14959 0.58153
 H1094 H 0.56549 0.18413 0.60866
 H1095 H 0.46480 0.17392 0.52705
 H1096 H 0.45852 0.20803 0.55465
 H1097 H 0.48895 0.13915 0.51339
 H1098 H 0.55744 0.12371 0.54807
 H1099 H 0.54143 0.21846 0.62208
 H1100 H 0.47170 0.23282 0.58908
 C1101 C -0.01703 0.16853 0.44022
 C1102 C 0.00040 0.16339 0.45799
 C1103 C -0.00318 0.14364 0.47355
 C1104 C -0.02408 0.12905 0.47154
 C1105 C -0.04140 0.13457 0.45355
 C1106 C -0.03798 0.15430 0.43790
 C1107 C -0.01324 0.18921 0.42372
 C1108 C -0.03076 0.19454 0.40613
 C1109 C -0.02710 0.21425 0.39050
 C1110 C -0.00549 0.22821 0.39152
 C1111 C 0.01150 0.22265 0.40997
 C1112 C 0.00776 0.20330 0.42595
 C1113 C -0.05512 0.16014 0.42001
 C1114 C -0.05163 0.18000 0.40448
 C1115 C 0.02111 0.17810 0.45983
 C1116 C 0.02474 0.19771 0.44406
 H1117 H -0.07136 0.14927 0.41798
 H1118 H -0.06531 0.18386 0.39093
 H1119 H 0.03464 0.17439 0.47354
 H1120 H 0.04098 0.20858 0.44604
 H1121 H 0.01042 0.13968 0.48710
 H1122 H -0.05766 0.12375 0.45174
 H1123 H -0.04140 0.21845 0.37787
 H1124 H 0.02793 0.23331 0.41156
 C1125 C 0.48318 0.66850 0.94070
 C1126 C 0.50084 0.66306 0.95815
 C1127 C 0.49719 0.64337 0.97382
 C1128 C 0.47597 0.62917 0.97221
 C1129 C 0.45850 0.63494 0.95447
 C1130 C 0.46198 0.65460 0.93875
 C1131 C 0.48695 0.68918 0.92416
 C1132 C 0.46917 0.69482 0.90693
 C1133 C 0.47280 0.71452 0.89128
 C1134 C 0.49462 0.72817 0.89188
 C1135 C 0.51186 0.72235 0.91003
 C1136 C 0.50818 0.70299 0.92603
 C1137 C 0.44459 0.66073 0.92119
 C1138 C 0.44806 0.68058 0.90565
 C1139 C 0.52179 0.67748 0.95961
 C1140 C 0.52541 0.69709 0.94381
 H1141 H 0.42814 0.65012 0.91948
 H1142 H 0.43417 0.68470 0.89240
 H1143 H 0.53552 0.67356 0.97308
 H1144 H 0.54182 0.70774 0.94553
 H1145 H 0.51096 0.63916 0.98711
 H1146 H 0.44206 0.62439 0.95292
 H1147 H 0.45830 0.71898 0.87898
 H1148 H 0.52845 0.73281 0.91133
 C1149 C 0.51683 0.83157 0.94050
 C1150 C 0.53811 0.84536 0.93853
 C1151 C 0.54173 0.86501 0.95426
 C1152 C 0.52431 0.87087 0.97203
 C1153 C 0.50301 0.85678 0.97362
 C1154 C 0.49921 0.83712 0.95795
 C1155 C 0.51293 0.81088 0.92401
 C1156 C 0.49164 0.79716 0.92593
 C1157 C 0.48787 0.77777 0.90999
 C1158 C 0.50505 0.77186 0.89184
 C1159 C 0.52694 0.78541 0.89120
 C1160 C 0.53067 0.80513 0.90680
 C1161 C 0.47818 0.82281 0.95945
 C1162 C 0.47445 0.80319 0.94369
 C1163 C 0.55543 0.83912 0.92097
 C1164 C 0.55184 0.81927 0.90546
 H1165 H 0.46449 0.82681 0.97292
 H1166 H 0.45798 0.79263 0.94543
 H1167 H 0.57194 0.84963 0.91923
 H1168 H 0.56569 0.81506 0.89221
 H1169 H 0.55824 0.87548 0.95270
 H1170 H 0.48927 0.86103 0.98692
 H1171 H 0.47125 0.76736 0.91134
 H1172 H 0.54143 0.78085 0.87892
 C1173 C 0.01656 0.33155 0.44033
 C1174 C -0.00085 0.33671 0.45810
 C1175 C 0.00277 0.35647 0.47365
 C1176 C 0.02368 0.37107 0.47159
 C1177 C 0.04099 0.36549 0.45364
 C1178 C 0.03753 0.34576 0.43800
 C1179 C 0.01275 0.31088 0.42383
 C1180 C 0.03024 0.30557 0.40623
 C1181 C 0.02655 0.28589 0.39059
 C1182 C 0.00492 0.27196 0.39158
 C1183 C -0.01202 0.27747 0.41007
 C1184 C -0.00827 0.29680 0.42605
 C1185 C 0.05464 0.33993 0.42010
 C1186 C 0.05111 0.32010 0.40455
 C1187 C -0.02159 0.32202 0.45993
 C1188 C -0.02524 0.30241 0.44415
 H1189 H 0.07089 0.35078 0.41808
 H1190 H 0.06475 0.31625 0.39098
 H1191 H -0.03512 0.32573 0.47364
 H1192 H -0.04151 0.29158 0.44610
 H1193 H -0.01083 0.36047 0.48717
 H1194 H 0.05725 0.37630 0.45182
 H1195 H 0.04086 0.28171 0.37798
 H1196 H -0.02846 0.26681 0.41165
 C1197 C 0.33148 0.55822 0.48306
 C1198 C 0.33687 0.54049 0.50046
 C1199 C 0.35661 0.52491 0.49665
 C1200 C 0.37092 0.52693 0.47558
 C1201 C 0.36512 0.54488 0.45833
 C1202 C 0.34543 0.56050 0.46195
 C1203 C 0.31082 0.57472 0.48700
 C1204 C 0.30529 0.59222 0.46947
 C1205 C 0.28566 0.60787 0.47323
 C1206 C 0.27196 0.60702 0.49494
 C1207 C 0.27766 0.58863 0.51198
 C1208 C 0.29697 0.57258 0.50814
 C1209 C 0.33935 0.57830 0.44480
 C1210 C 0.31954 0.59380 0.44844
 C1211 C 0.32237 0.53869 0.52130
 C1212 C 0.30278 0.55449 0.52510
 H1213 H 0.34998 0.58024 0.42842
 H1214 H 0.31548 0.60728 0.43476
 H1215 H 0.32622 0.52497 0.53481
 H1216 H 0.29211 0.55254 0.54145
 H1217 H 0.36082 0.51141 0.51022
 H1218 H 0.37573 0.54674 0.44196
 H1219 H 0.28132 0.62038 0.45888
 H1220 H 0.26715 0.58713 0.52849
 C1221 C 0.83183 0.05873 -0.01682
 C1222 C 0.83679 0.04051 0.00021
 C1223 C 0.85641 0.02483 -0.00372
 C1224 C 0.87108 0.02726 -0.02451
 C1225 C 0.86575 0.04575 -0.04134
 C1226 C 0.84617 0.06146 -0.03760
 C1227 C 0.81118 0.07522 -0.01285
 C1228 C 0.80601 0.09313 -0.03007
 C1229 C 0.78625 0.10863 -0.02641
 C1230 C 0.77211 0.10728 -0.00500
 C1231 C 0.77758 0.08860 0.01181
 C1232 C 0.79695 0.07264 0.00799
 C1233 C 0.84060 0.07981 -0.05433
 C1234 C 0.82077 0.09529 -0.05070
 C1235 C 0.82200 0.03837 0.02082
 C1236 C 0.80244 0.05419 0.02467
 H1237 H 0.85161 0.08219 -0.07039
 H1238 H 0.81707 0.10917 -0.06408
 H1239 H 0.82558 0.02434 0.03408
 H1240 H 0.79152 0.05194 0.04082
 H1241 H 0.86024 0.01091 0.00954
 H1242 H 0.87664 0.04796 -0.05747
 H1243 H 0.78220 0.12145 -0.04056
 H1244 H 0.76682 0.08680 0.02814
 C1245 C 0.66869 0.05853 0.01707
 C1246 C 0.66339 0.04069 -0.00025
 C1247 C 0.64364 0.02509 0.00357
 C1248 C 0.62927 0.02719 0.02461
 C1249 C 0.63498 0.04528 0.04174
 C1250 C 0.65465 0.06092 0.03810
 C1251 C 0.68938 0.07503 0.01315
 C1252 C 0.69484 0.09262 0.03062
 C1253 C 0.71453 0.10823 0.02690
 C1254 C 0.72837 0.10725 0.00528
 C1255 C 0.72272 0.08877 -0.01170
 C1256 C 0.70335 0.07277 -0.00790
 C1257 C 0.66062 0.07883 0.05516
 C1258 C 0.68046 0.09433 0.05154
 C1259 C 0.67797 0.03883 -0.02103
 C1260 C 0.69760 0.05462 -0.02481
 H1261 H 0.64990 0.08085 0.07146
 H1262 H 0.68446 0.10788 0.06517
 H1263 H 0.67418 0.02505 -0.03449
 H1264 H 0.70837 0.05259 -0.04109
 H1265 H 0.63950 0.01148 -0.00991
 H1266 H 0.62434 0.04718 0.05807
 H1267 H 0.71879 0.12083 0.04121
 H1268 H 0.73333 0.08720 -0.02815
 C1269 C 0.16837 0.55842 0.51676
 C1270 C 0.15412 0.56099 0.53762
 C1271 C 0.13430 0.54551 0.54114
 C1272 C 0.12861 0.52740 0.52401
 C1273 C 0.14326 0.52504 0.50319
 C1274 C 0.16313 0.54052 0.49948
 C1275 C 0.18913 0.57484 0.51290
 C1276 C 0.20322 0.57249 0.49194
 C1277 C 0.22261 0.58847 0.48817
 C1278 C 0.22822 0.60697 0.50514
 C1279 C 0.21427 0.60803 0.52669
 C1280 C 0.19450 0.59251 0.53032
 C1281 C 0.17786 0.53852 0.47881
 C1282 C 0.19752 0.55427 0.47507
 C1283 C 0.15999 0.57901 0.55461
 C1284 C 0.17991 0.59441 0.55109
 H1285 H 0.17411 0.52470 0.46538
 H1286 H 0.20834 0.55218 0.45884
 H1287 H 0.14907 0.58123 0.57077
 H1288 H 0.18379 0.60808 0.56465
 H1289 H 0.12349 0.54762 0.55733
 H1290 H 0.13924 0.51135 0.48976
 H1291 H 0.23326 0.58686 0.47176
 H1292 H 0.21849 0.62064 0.54099
 C1293 C 0.16825 0.44130 -0.01692
 C1294 C 0.16317 0.45934 0.00026
 C1295 C 0.14339 0.47488 -0.00350
 C1296 C 0.12871 0.47250 -0.02430
 C1297 C 0.13415 0.45418 -0.04127
 C1298 C 0.15389 0.43862 -0.03770
 C1299 C 0.18899 0.42490 -0.01307
 C1300 C 0.19426 0.40713 -0.03041
 C1301 C 0.21403 0.39164 -0.02679
 C1302 C 0.22810 0.39285 -0.00531
 C1303 C 0.22259 0.41144 0.01157
 C1304 C 0.20321 0.42740 0.00780
 C1305 C 0.15962 0.42049 -0.05461
 C1306 C 0.17956 0.40511 -0.05110
 C1307 C 0.17801 0.46147 0.02083
 C1308 C 0.19767 0.44574 0.02456
 H1309 H 0.14863 0.41819 -0.07070
 H1310 H 0.18336 0.39138 -0.06461
 H1311 H 0.17439 0.47540 0.03418
 H1312 H 0.20862 0.44796 0.04070
 H1313 H 0.13948 0.48867 0.00986
 H1314 H 0.12327 0.45201 -0.05741
 H1315 H 0.21817 0.37894 -0.04103
 H1316 H 0.23333 0.41317 0.02793
 C1317 C 0.66837 0.94146 0.48292
 C1318 C 0.65385 0.93855 0.46228
 C1319 C 0.63428 0.95428 0.45851
 C1320 C 0.62916 0.97296 0.47517
 C1321 C 0.64403 0.97559 0.49581
 C1322 C 0.66364 0.95988 0.49977
 C1323 C 0.68898 0.92491 0.48693
 C1324 C 0.70340 0.92766 0.50762
 C1325 C 0.72274 0.91166 0.51146
 C1326 C 0.72803 0.89281 0.49479
 C1327 C 0.71368 0.89128 0.47353
 C1328 C 0.69394 0.90680 0.46985
 C1329 C 0.67864 0.96221 0.52023
 C1330 C 0.69816 0.94634 0.52410
 C1331 C 0.65922 0.92002 0.44571
 C1332 C 0.67903 0.90452 0.44934
 H1333 H 0.67527 0.97642 0.53334
 H1334 H 0.70928 0.94875 0.54009
 H1335 H 0.64807 0.91754 0.42975
 H1336 H 0.68259 0.89053 0.43604
 H1337 H 0.62323 0.95191 0.44251
 H1338 H 0.64034 0.98966 0.50894
 H1339 H 0.73363 0.91358 0.52769
 H1340 H 0.71754 0.87830 0.45947
 C1341 C 0.83158 0.94151 0.51682
 C1342 C 0.83641 0.95987 0.49992
 C1343 C 0.85608 0.97555 0.50384
 C1344 C 0.87088 0.97296 0.52454
 C1345 C 0.86568 0.95432 0.54122
 C1346 C 0.84607 0.93863 0.53749
 C1347 C 0.81095 0.92497 0.51284
 C1348 C 0.80592 0.90691 0.52996
 C1349 C 0.78618 0.89137 0.52629
 C1350 C 0.77187 0.89286 0.50500
 C1351 C 0.77720 0.91168 0.48829
 C1352 C 0.79656 0.92768 0.49211
 C1353 C 0.84061 0.92017 0.55413
 C1354 C 0.82077 0.90468 0.55051
 C1355 C 0.82144 0.96217 0.47944
 C1356 C 0.80188 0.94631 0.47558
 H1357 H 0.85173 0.91772 0.57011
 H1358 H 0.81715 0.89073 0.56385
 H1359 H 0.82489 0.97631 0.46628
 H1360 H 0.79081 0.94869 0.45955
 H1361 H 0.85977 0.98961 0.49069
 H1362 H 0.87667 0.95202 0.55727
 H1363 H 0.78226 0.87845 0.54038
 H1364 H 0.76631 0.91357 0.47205
 C1365 C 0.33152 0.44152 0.01701
 C1366 C 0.34548 0.43912 0.03810
 C1367 C 0.36524 0.45466 0.04178
 C1368 C 0.37108 0.47266 0.02461
 C1369 C 0.35677 0.47479 0.00354
 C1370 C 0.33696 0.45929 -0.00032
 C1371 C 0.31081 0.42507 0.01302
 C1372 C 0.29693 0.42731 -0.00810
 C1373 C 0.27755 0.41132 -0.01197
 C1374 C 0.27183 0.39286 0.00500
 C1375 C 0.28555 0.39192 0.02670
 C1376 C 0.30523 0.40752 0.03049
 C1377 C 0.32245 0.46119 -0.02117
 C1378 C 0.30278 0.44545 -0.02500
 C1379 C 0.33937 0.42128 0.05518
 C1380 C 0.31950 0.40583 0.05151
 H1381 H 0.32634 0.47494 -0.03464
 H1382 H 0.29208 0.44750 -0.04133
 H1383 H 0.35002 0.41924 0.07154
 H1384 H 0.31539 0.39233 0.06515
 H1385 H 0.37583 0.45273 0.05815
 H1386 H 0.36100 0.48834 -0.00997
 H1387 H 0.26701 0.41290 -0.02847
 H1388 H 0.28119 0.37938 0.04102
 C1389 C 0.56000 0.48286 0.33144
 C1390 C 0.54245 0.50042 0.33692
 C1391 C 0.52684 0.49666 0.35665
 C1392 C 0.52865 0.47547 0.37088
 C1393 C 0.54644 0.45807 0.36498
 C1394 C 0.56209 0.46166 0.34531
 C1395 C 0.57653 0.48675 0.31079
 C1396 C 0.59386 0.46908 0.30516
 C1397 C 0.60948 0.47277 0.28549
 C1398 C 0.60880 0.49458 0.27188
 C1399 C 0.59056 0.51175 0.27768
 C1400 C 0.57456 0.50799 0.29702
 C1401 C 0.57978 0.44440 0.33917
 C1402 C 0.59530 0.44799 0.31937
 C1403 C 0.54090 0.52140 0.32255
 C1404 C 0.55670 0.52513 0.30296
 H1405 H 0.58163 0.42798 0.34977
 H1406 H 0.60869 0.43423 0.31527
 H1407 H 0.52739 0.53508 0.32650
 H1408 H 0.55493 0.54158 0.29237
 H1409 H 0.51346 0.51034 0.36089
 H1410 H 0.54809 0.44159 0.37547
 H1411 H 0.62184 0.45831 0.28103
 H1412 H 0.58919 0.52832 0.26721
 C1413 C 0.05974 -0.01707 0.83101
 C1414 C 0.04181 0.00022 0.83610
 C1415 C 0.02611 -0.00358 0.85575
 C1416 C 0.02821 -0.02454 0.87028
 C1417 C 0.04642 -0.04163 0.86479
 C1418 C 0.06216 -0.03801 0.84521
 C1419 C 0.07632 -0.01318 0.81041
 C1420 C 0.09402 -0.03061 0.80516
 C1421 C 0.10965 -0.02696 0.78550
 C1422 C 0.10858 -0.00543 0.77150
 C1423 C 0.09005 0.01154 0.77698
 C1424 C 0.07403 0.00779 0.79630
 C1425 C 0.08025 -0.05499 0.83950
 C1426 C 0.09582 -0.05141 0.81974
 C1427 C 0.03997 0.02096 0.82142
 C1428 C 0.05583 0.02469 0.80188
 H1429 H 0.08237 -0.07119 0.85038
 H1430 H 0.10951 -0.06497 0.81595
 H1431 H 0.02617 0.03444 0.82508
 H1432 H 0.05383 0.04095 0.79104
 H1433 H 0.01239 0.00986 0.85965
 H1434 H 0.04839 -0.05789 0.87555
 H1435 H 0.12233 -0.04123 0.78138
 H1436 H 0.08843 0.02793 0.76627
 C1437 C 0.05956 0.01691 0.66854
 C1438 C 0.04158 -0.00033 0.66338
 C1439 C 0.02582 0.00364 0.64383
 C1440 C 0.02792 0.02471 0.62945
 C1441 C 0.04613 0.04178 0.63504
 C1442 C 0.06193 0.03799 0.65454
 C1443 C 0.07622 0.01282 0.68904
 C1444 C 0.09393 0.03022 0.69439
 C1445 C 0.10961 0.02643 0.71397
 C1446 C 0.10860 0.00479 0.72780
 C1447 C 0.09004 -0.01215 0.72223
 C1448 C 0.07396 -0.00827 0.70298
 C1449 C 0.08002 0.05494 0.66036
 C1450 C 0.09566 0.05119 0.68003
 C1451 C 0.03975 -0.02120 0.67788
 C1452 C 0.05569 -0.02511 0.69733
 H1453 H 0.08208 0.07127 0.64966
 H1454 H 0.10933 0.06475 0.68395
 H1455 H 0.02589 -0.03461 0.67417
 H1456 H 0.05368 -0.04144 0.70805
 H1457 H 0.01210 -0.00979 0.63983
 H1458 H 0.04809 0.05811 0.62439
 H1459 H 0.12224 0.04073 0.71819
 H1460 H 0.08842 -0.02861 0.73284
 C1461 C 0.56009 0.51675 0.16871
 C1462 C 0.54255 0.49918 0.16318
 C1463 C 0.52691 0.50300 0.14349
 C1464 C 0.52870 0.52425 0.12935
 C1465 C 0.54647 0.54167 0.13530
 C1466 C 0.56215 0.53802 0.15494
 C1467 C 0.57662 0.51281 0.18935
 C1468 C 0.59392 0.53051 0.19506
 C1469 C 0.60952 0.52679 0.21474
 C1470 C 0.60885 0.50493 0.22827
 C1471 C 0.59065 0.48774 0.22239
 C1472 C 0.57466 0.49152 0.20304
 C1473 C 0.57982 0.55530 0.16115
 C1474 C 0.59534 0.55166 0.18094
 C1475 C 0.54101 0.47814 0.17746
 C1476 C 0.55682 0.47437 0.19704
 H1477 H 0.58164 0.57178 0.15063
 H1478 H 0.60870 0.56545 0.18511
 H1479 H 0.52749 0.46447 0.17346
 H1480 H 0.55505 0.45788 0.20756
 H1481 H 0.51355 0.48930 0.13918
 H1482 H 0.54810 0.55818 0.12486
 H1483 H 0.62184 0.54128 0.21927
 H1484 H 0.58928 0.47112 0.23280
 C1485 C 0.44007 -0.01707 0.16894
 C1486 C 0.43801 -0.03826 0.15506
 C1487 C 0.45366 -0.04177 0.13538
 C1488 C 0.47140 -0.02431 0.12948
 C1489 C 0.47321 -0.00315 0.14375
 C1490 C 0.45760 0.00054 0.16349
 C1491 C 0.42352 -0.01324 0.18958
 C1492 C 0.42546 0.00799 0.20336
 C1493 C 0.40942 0.01171 0.22266
 C1494 C 0.39119 -0.00550 0.22843
 C1495 C 0.39050 -0.02729 0.21481
 C1496 C 0.40618 -0.03095 0.19517
 C1497 C 0.45914 0.02150 0.17789
 C1498 C 0.44332 0.02517 0.19747
 C1499 C 0.42035 -0.05557 0.16118
 C1500 C 0.40479 -0.05203 0.18095
 H1501 H 0.47265 0.03521 0.17397
 H1502 H 0.44506 0.04160 0.20807
 H1503 H 0.41854 -0.07200 0.15058
 H1504 H 0.39141 -0.06584 0.18503
 H1505 H 0.45202 -0.05823 0.12487
 H1506 H 0.48657 0.01058 0.13951
 H1507 H 0.41077 0.02829 0.23312
 H1508 H 0.37810 -0.04174 0.21922
 C1509 C 0.94000 0.48309 0.66864
 C1510 C 0.93782 0.46186 0.65483
 C1511 C 0.95345 0.45818 0.63518
 C1512 C 0.97131 0.47551 0.62929
 C1513 C 0.97319 0.49675 0.64342
 C1514 C 0.95761 0.50060 0.66312
 C1515 C 0.92354 0.48704 0.68930
 C1516 C 0.92561 0.50829 0.70303
 C1517 C 0.90964 0.51210 0.72237
 C1518 C 0.89137 0.49496 0.72820
 C1519 C 0.89061 0.47313 0.71466
 C1520 C 0.90618 0.46939 0.69499
 C1521 C 0.95928 0.52159 0.67745
 C1522 C 0.94353 0.52538 0.69706
 C1523 C 0.92011 0.44464 0.66102
 C1524 C 0.90464 0.44828 0.68083
 H1525 H 0.97287 0.53520 0.67348
 H1526 H 0.94539 0.54183 0.70762
 H1527 H 0.91820 0.42818 0.65047
 H1528 H 0.89122 0.43454 0.68500
 H1529 H 0.95174 0.44169 0.62473
 H1530 H 0.98661 0.51039 0.63913
 H1531 H 0.91106 0.52870 0.73280
 H1532 H 0.87824 0.45868 0.71916
 C1533 C 0.94012 0.51717 0.83132
 C1534 C 0.93799 0.53838 0.84516
 C1535 C 0.95353 0.54193 0.86493
 C1536 C 0.97125 0.52450 0.87090
 C1537 C 0.97311 0.50332 0.85669
 C1538 C 0.95762 0.49959 0.83688
 C1539 C 0.92367 0.51328 0.81061
 C1540 C 0.92565 0.49202 0.79689
 C1541 C 0.90963 0.48821 0.77758
 C1542 C 0.89139 0.50536 0.77176
 C1543 C 0.89075 0.52723 0.78525
 C1544 C 0.90637 0.53097 0.80490
 C1545 C 0.95927 0.47864 0.82249
 C1546 C 0.94353 0.47491 0.80284
 C1547 C 0.92039 0.55569 0.83891
 C1548 C 0.90495 0.55210 0.81904
 H1549 H 0.97280 0.46499 0.82647
 H1550 H 0.94536 0.45848 0.79225
 H1551 H 0.91855 0.57214 0.84945
 H1552 H 0.89162 0.56589 0.81485
 H1553 H 0.95183 0.55838 0.87544
 H1554 H 0.98645 0.48962 0.86098
 H1555 H 0.91100 0.47161 0.76716
 H1556 H 0.87843 0.54170 0.78073
 C1557 C 0.44017 0.01687 0.33136
 C1558 C 0.45763 -0.00073 0.33698
 C1559 C 0.47329 0.00313 0.35666
 C1560 C 0.47161 0.02446 0.37071
 C1561 C 0.45392 0.04190 0.36464
 C1562 C 0.43823 0.03822 0.34501
 C1563 C 0.42358 0.01287 0.31077
 C1564 C 0.40634 0.03059 0.30499
 C1565 C 0.39065 0.02680 0.28541
 C1566 C 0.39119 0.00487 0.27200
 C1567 C 0.40935 -0.01234 0.27791
 C1568 C 0.42541 -0.00850 0.29720
 C1569 C 0.42066 0.05554 0.33871
 C1570 C 0.40507 0.05184 0.31897
 C1571 C 0.45907 -0.02184 0.32279
 C1572 C 0.44321 -0.02567 0.30326
 H1573 H 0.41895 0.07210 0.34910
 H1574 H 0.39179 0.06566 0.31471
 H1575 H 0.47255 -0.03553 0.32682
 H1576 H 0.44488 -0.04221 0.29282
 H1577 H 0.48662 -0.01057 0.36098
 H1578 H 0.45231 0.05845 0.37502
 H1579 H 0.37837 0.04129 0.28083
 H1580 H 0.41063 -0.02901 0.26758
   
