data_POSCAR
  _audit_creation_date              2014-09-24
  _audit_creation_method            'ToBaCCo'
  _symmetry_space_group_name_H-M    'P1'
  _symmetry_Int_Tables_number       1
  _symmetry_cell_setting            triclinic
  loop_
  _symmetry_equiv_pos_as_xyz
 x,y,z
_cell_length_a 55.6122
_cell_length_b 55.2608
_cell_length_c 54.7145
_cell_angle_alpha 89.928400
_cell_angle_beta 90.043300
_cell_angle_gamma 90.232700
loop_
  _atom_site_label
  _atom_site_type_symbol
  _atom_site_fract_x
  _atom_site_fract_y
  _atom_site_fract_z
O1 O 0.35526 0.38325 0.02615
 O2 O 0.38844 0.35303 -0.02339
 O3 O 0.35572 0.38737 -0.02109
 O4 O 0.38674 0.34901 0.02434
 O5 O 0.35711 0.32248 0.02194
 O6 O 0.32809 0.35908 -0.02586
 O7 O 0.36019 0.32499 -0.02540
 O8 O 0.32538 0.35721 0.02152
 Cu9 Cu 0.37452 0.37086 0.00165
 Cu10 Cu 0.33983 0.33820 -0.00227
 C11 C 0.33451 0.37557 0.03204
 C12 C 0.38019 0.33358 -0.03257
 C13 C 0.33653 0.37981 -0.03127
 C14 C 0.37693 0.32934 0.03125
 O15 O 0.65781 0.62708 0.02415
 O16 O 0.62400 0.65702 -0.02492
 O17 O 0.65883 0.62556 -0.02319
 O18 O 0.62407 0.65957 0.02275
 O19 O 0.65257 0.68751 0.02345
 O20 O 0.68420 0.65617 -0.02608
 O21 O 0.64955 0.68769 -0.02401
 O22 O 0.68597 0.65520 0.02159
 Cu23 Cu 0.63841 0.63939 -0.00025
 Cu24 Cu 0.67080 0.67458 -0.00144
 C25 C 0.67786 0.63580 0.03103
 C26 C 0.63073 0.67767 -0.03253
 C27 C 0.67736 0.63524 -0.03279
 C28 C 0.63280 0.67908 0.03137
 O29 O 0.61697 0.34637 1.02364
 O30 O 0.65269 0.37459 0.97457
 O31 O 0.61641 0.34448 0.97668
 O32 O 0.65362 0.37654 1.02208
 O33 O 0.67792 0.34520 1.02412
 O34 O 0.64233 0.31430 0.97668
 O35 O 0.67852 0.34446 0.97648
 O36 O 0.64190 0.31537 1.02428
 Cu37 Cu 0.63246 0.36365 0.99917
 Cu38 Cu 0.66272 0.32678 1.00044
 C39 C 0.62312 0.32586 1.03202
 C40 C 0.67185 0.36447 0.96728
 C41 C 0.62301 0.32387 0.96900
 C42 C 0.67207 0.36630 1.03108
 O43 O 0.37872 0.65977 1.02745
 O44 O 0.35114 0.62343 0.97844
 O45 O 0.38337 0.65771 0.98009
 O46 O 0.34595 0.62596 1.02573
 O47 O 0.31773 0.65347 1.02112
 O48 O 0.35515 0.68536 0.97595
 O49 O 0.32287 0.65101 0.97410
 O50 O 0.35046 0.68733 1.02307
 Cu51 Cu 0.36763 0.63896 1.00338
 Cu52 Cu 0.33373 0.67204 0.99811
 C53 C 0.36940 0.67981 1.03358
 C54 C 0.33220 0.63096 0.96795
 C55 C 0.37567 0.67706 0.97030
 C56 C 0.32531 0.63421 1.03117
 O57 O -0.02431 0.38611 0.35047
 O58 O 0.02244 0.35180 0.38294
 O59 O 0.02268 0.38666 0.35125
 O60 O -0.02428 0.35057 0.38211
 O61 O -0.02513 0.32543 0.35088
 O62 O 0.02417 0.35934 0.32194
 O63 O 0.02156 0.32411 0.35387
 O64 O -0.02242 0.36046 0.31968
 Cu65 Cu -0.00100 0.37149 0.36970
 Cu66 Cu -0.00029 0.33966 0.33358
 C67 C -0.03119 0.37932 0.32941
 C68 C 0.02969 0.33189 0.37411
 C69 C 0.03166 0.37896 0.33139
 C70 C -0.03300 0.33195 0.37163
 O71 O 0.02455 0.64151 0.61660
 O72 O -0.02687 0.61284 0.64794
 O73 O -0.02194 0.64557 0.61372
 O74 O 0.01959 0.60881 0.65059
 O75 O 0.02272 0.63865 0.67721
 O76 O -0.02343 0.67266 0.64318
 O77 O -0.02395 0.63986 0.67749
 O78 O 0.02348 0.67161 0.64306
 Cu79 Cu -0.00130 0.62432 0.62938
 Cu80 Cu -0.00021 0.65860 0.66303
 C81 C 0.03245 0.66176 0.62420
 C82 C -0.03372 0.62108 0.66845
 C83 C -0.03017 0.66525 0.62226
 C84 C 0.02856 0.61762 0.67001
 O85 O 1.01835 0.61281 0.34612
 O86 O 0.97362 0.65092 0.37742
 O87 O 0.97204 0.61763 0.34386
 O88 O 1.02021 0.64597 0.38024
 O89 O 1.02376 0.67481 0.35261
 O90 O 0.97780 0.64479 0.31481
 O91 O 0.97753 0.67846 0.34846
 O92 O 1.02420 0.64175 0.31889
 Cu93 Cu 0.99563 0.62904 0.36479
 Cu94 Cu 1.00122 0.66277 0.33085
 C95 C 1.02895 0.62084 0.32718
 C96 C 0.96786 0.67121 0.36820
 C97 C 0.96704 0.62609 0.32289
 C98 C 1.03002 0.66549 0.37287
 O99 O 0.97602 0.34514 0.62866
 O100 O 1.02568 0.37640 0.66080
 O101 O 1.02285 0.34485 0.62548
 O102 O 0.97882 0.37710 0.66346
 O103 O 0.98029 0.34780 0.69083
 O104 O 1.02374 0.31518 0.65241
 O105 O 1.02684 0.34672 0.68776
 O106 O 0.97726 0.31591 0.65611
 Cu107 Cu 1.00075 0.36384 0.64187
 Cu108 Cu 1.00220 0.32847 0.67448
 C109 C 0.96814 0.32513 0.63698
 C110 C 1.03467 0.36689 0.67989
 C111 C 1.03074 0.32436 0.63230
 C112 C 0.97203 0.36801 0.68366
 O113 O 0.37716 0.02307 0.34736
 O114 O 0.34807 -0.02490 0.38381
 O115 O 0.37947 -0.02389 0.34835
 O116 O 0.34576 0.02228 0.38249
 O117 O 0.31691 0.02077 0.35483
 O118 O 0.34921 -0.02743 0.32243
 O119 O 0.31801 -0.02605 0.35748
 O120 O 0.34865 0.01954 0.31948
 Cu121 Cu 0.36555 -0.00064 0.36825
 Cu122 Cu 0.33025 -0.00342 0.33582
 C123 C 0.36807 0.02918 0.32698
 C124 C 0.32793 -0.03351 0.37699
 C125 C 0.36995 -0.03371 0.32970
 C126 C 0.32560 0.02952 0.37442
 O127 O 0.61521 0.01965 0.64544
 O128 O 0.65574 -0.02216 0.61301
 O129 O 0.62289 -0.02653 0.64660
 O130 O 0.64788 0.02458 0.61116
 O131 O 0.67564 0.02991 0.63947
 O132 O 0.65050 -0.02061 0.67496
 O133 O 0.68353 -0.01612 0.64121
 O134 O 0.64331 0.02587 0.67329
 Cu135 Cu 0.63269 -0.00164 0.62614
 Cu136 Cu 0.66600 0.00527 0.66008
 C137 C 0.62237 0.02983 0.66497
 C138 C 0.67658 -0.02623 0.62160
 C139 C 0.63230 -0.03214 0.66699
 C140 C 0.66615 0.03593 0.61926
 O141 O 0.34393 1.01878 0.61285
 O142 O 0.37652 0.97303 0.64878
 O143 O 0.34261 0.97152 0.61567
 O144 O 0.37770 1.01987 0.64560
 O145 O 0.35059 1.02151 0.67496
 O146 O 0.31473 0.97455 0.64418
 O147 O 0.34830 0.97439 0.67710
 O148 O 0.31656 1.02111 0.64195
 Cu149 Cu 0.36293 0.99552 0.62778
 Cu150 Cu 0.32985 0.99818 0.66252
 C151 C 0.32466 1.02774 0.62130
 C152 C 0.36790 0.96585 0.66903
 C153 C 0.32254 0.96497 0.62468
 C154 C 0.37022 1.02880 0.66556
 O155 O 0.65578 1.02501 0.38331
 O156 O 0.62602 0.97840 0.34562
 O157 O 0.65642 0.97819 0.38159
 O158 O 0.62425 1.02558 0.34742
 O159 O 0.65351 1.02670 0.32026
 O160 O 0.68672 0.98093 0.35573
 O161 O 0.65618 0.97993 0.31951
 O162 O 0.68462 1.02812 0.35589
 Cu163 Cu 0.63759 1.00172 0.36711
 Cu164 Cu 0.67326 1.00415 0.33523
 C165 C 0.67539 1.03455 0.37609
 C166 C 0.63613 0.97107 0.32618
 C167 C 0.67715 0.97158 0.37463
 C168 C 0.63314 1.03393 0.32774
 C169 C 0.82934 0.79354 0.48857
 C170 C 0.82794 0.79316 0.51449
 C171 C 0.81196 0.80902 0.52625
 C172 C 0.79821 0.82571 0.51300
 C173 C 0.80043 0.82684 0.48731
 C174 C 0.81582 0.81062 0.47545
 H175 H 0.81692 0.81098 0.45566
 H176 H 0.81077 0.80901 0.54602
 C177 C 0.16342 0.19882 0.48713
 C178 C 0.16385 0.19731 0.51294
 C179 C 0.18001 0.18137 0.52422
 C180 C 0.19527 0.16670 0.51036
 C181 C 0.19479 0.16817 0.48460
 C182 C 0.17901 0.18444 0.47329
 H183 H 0.17833 0.18541 0.45350
 H184 H 0.18037 0.17993 0.54399
 C185 C 0.17850 0.78238 0.51096
 C186 C 0.17644 0.78477 0.48530
 C187 C 0.19186 0.80078 0.47294
 C188 C 0.20891 0.81474 0.48556
 C189 C 0.21134 0.81178 0.51110
 C190 C 0.19630 0.79545 0.52349
 H191 H 0.19742 0.79410 0.54323
 H192 H 0.19021 0.80286 0.45329
 C193 C 0.81827 0.21885 0.51479
 C194 C 0.82131 0.21704 0.48915
 C195 C 0.80664 0.20097 0.47591
 C196 C 0.78985 0.18578 0.48758
 C197 C 0.78748 0.18703 0.51337
 C198 C 0.80142 0.20386 0.52643
 H199 H 0.79930 0.20512 0.54610
 H200 H 0.80919 0.19940 0.45633
 C201 C 0.49069 0.82982 0.79152
 C202 C 0.51592 0.82649 0.78980
 C203 C 0.52737 0.81084 0.80628
 C204 C 0.51438 0.79854 0.82437
 C205 C 0.48915 0.80109 0.82559
 C206 C 0.47764 0.81670 0.80911
 H207 H 0.45833 0.81903 0.81034
 H208 H 0.54673 0.80867 0.80544
 C209 C 0.48401 0.18094 0.21620
 C210 C 0.50933 0.17895 0.21576
 C211 C 0.52255 0.19392 0.19994
 C212 C 0.51120 0.21074 0.18452
 C213 C 0.48578 0.21286 0.18523
 C214 C 0.47258 0.19792 0.20115
 H215 H 0.45313 0.19927 0.20159
 H216 H 0.54196 0.19226 0.19944
 C217 C 0.50903 0.17235 0.78946
 C218 C 0.48363 0.17136 0.79136
 C219 C 0.47196 0.18669 0.80795
 C220 C 0.48478 0.20278 0.82297
 C221 C 0.51021 0.20353 0.82139
 C222 C 0.52185 0.18847 0.80449
 H223 H 0.54133 0.18863 0.80367
 H224 H 0.45249 0.18624 0.80903
 C225 C 0.51719 0.82643 0.20884
 C226 C 0.49174 0.82772 0.20954
 C227 C 0.47818 0.81215 0.19464
 C228 C 0.48925 0.79606 0.17841
 C229 C 0.51466 0.79604 0.17640
 C230 C 0.52827 0.81090 0.19201
 H231 H 0.54773 0.81058 0.19091
 H232 H 0.45871 0.81273 0.19547
 C233 C 0.79128 0.48508 0.82562
 C234 C 0.79229 0.51067 0.82781
 C235 C 0.80861 0.52373 0.81320
 C236 C 0.82440 0.51190 0.79732
 C237 C 0.82392 0.48641 0.79572
 C238 C 0.80725 0.47335 0.80975
 H239 H 0.80661 0.45380 0.80813
 H240 H 0.80979 0.54324 0.81493
 C241 C 0.20800 0.48775 0.17309
 C242 C 0.20871 0.51328 0.17401
 C243 C 0.19348 0.52545 0.19026
 C244 C 0.17747 0.51279 0.20558
 C245 C 0.17713 0.48711 0.20485
 C246 C 0.19256 0.47501 0.18869
 H247 H 0.19218 0.45540 0.18783
 H248 H 0.19383 0.54507 0.19068
 C249 C 0.78709 0.51201 0.17718
 C250 C 0.78969 0.48681 0.17298
 C251 C 0.80654 0.47379 0.18685
 C252 C 0.82114 0.48528 0.20430
 C253 C 0.81857 0.51039 0.20821
 C254 C 0.80144 0.52334 0.19490
 H255 H 0.79975 0.54267 0.19789
 H256 H 0.80868 0.45455 0.18369
 C257 C 0.21178 0.51447 0.82323
 C258 C 0.21347 0.48887 0.82233
 C259 C 0.19885 0.47615 0.80569
 C260 C 0.18263 0.48809 0.79014
 C261 C 0.18090 0.51364 0.79119
 C262 C 0.19564 0.52636 0.80758
 H263 H 0.19426 0.54591 0.80849
 H264 H 0.19983 0.45657 0.80503
 C265 C 0.33295 0.40031 0.07017
 C266 C 0.32002 0.41265 0.08812
 C267 C 0.29492 0.41376 0.08696
 C268 C 0.28273 0.40175 0.06798
 C269 C 0.29561 0.38885 0.05038
 C270 C 0.32085 0.38827 0.05118
 N271 N 0.28221 0.42718 0.10516
 N272 N 0.26104 0.43501 0.10143
 C273 C 0.24804 0.44803 0.11971
 C274 C 0.22862 0.46244 0.11257
 C275 C 0.21573 0.47558 0.12995
 C276 C 0.22183 0.47401 0.15477
 C277 C 0.24095 0.45918 0.16205
 C278 C 0.25420 0.44647 0.14459
 H279 H 0.35240 0.40000 0.07124
 H280 H 0.32958 0.42176 0.10272
 H281 H 0.26331 0.40221 0.06686
 H282 H 0.28590 0.37976 0.03586
 H283 H 0.22368 0.46372 0.09347
 H284 H 0.20092 0.48687 0.12410
 H285 H 0.24577 0.45774 0.18118
 H286 H 0.26901 0.43524 0.15051
 C287 C 0.71507 0.63114 0.05640
 C288 C 0.72840 0.61888 0.07413
 C289 C 0.71875 0.59863 0.08599
 C290 C 0.69544 0.59073 0.08003
 C291 C 0.68212 0.60289 0.06222
 C292 C 0.69183 0.62318 0.05015
 N293 N 0.73328 0.58601 0.10337
 N294 N 0.72551 0.56797 0.11554
 C295 C 0.74069 0.55507 0.13215
 C296 C 0.73119 0.53556 0.14542
 C297 C 0.74602 0.52182 0.16070
 C298 C 0.77063 0.52732 0.16261
 C299 C 0.77996 0.54728 0.14981
 C300 C 0.76515 0.56104 0.13470
 H301 H 0.72306 0.64668 0.04742
 H302 H 0.74639 0.62507 0.07853
 H303 H 0.68764 0.57505 0.08892
 H304 H 0.66424 0.59634 0.05787
 H305 H 0.71237 0.53081 0.14364
 H306 H 0.73845 0.50664 0.17063
 H307 H 0.79890 0.55179 0.15099
 H308 H 0.77294 0.57602 0.12464
 C309 C 0.70955 0.36703 0.94237
 C310 C 0.72408 0.37878 0.92520
 C311 C 0.71607 0.39974 0.91346
 C312 C 0.69312 0.40880 0.91888
 C313 C 0.67860 0.39717 0.93617
 C314 C 0.68673 0.37624 0.94823
 N315 N 0.73195 0.41193 0.89689
 N316 N 0.72549 0.43025 0.88443
 C317 C 0.74192 0.44285 0.86872
 C318 C 0.73344 0.46191 0.85425
 C319 C 0.74930 0.47531 0.83968
 C320 C 0.77400 0.47003 0.83972
 C321 C 0.78239 0.45055 0.85381
 C322 C 0.76650 0.43705 0.86819
 H323 H 0.71636 0.35099 0.95135
 H324 H 0.74177 0.37168 0.92123
 H325 H 0.68657 0.42505 0.91008
 H326 H 0.66111 0.40469 0.94025
 H327 H 0.71454 0.46653 0.85446
 H328 H 0.74240 0.49005 0.82870
 H329 H 0.80135 0.44618 0.85416
 H330 H 0.77352 0.42243 0.87924
 C331 C 0.33250 0.59594 0.93878
 C332 C 0.32121 0.58161 0.92106
 C333 C 0.29790 0.58701 0.91319
 C334 C 0.28613 0.60733 0.92287
 C335 C 0.29747 0.62180 0.94035
 C336 C 0.32069 0.61615 0.94868
 N337 N 0.28634 0.57151 0.89576
 N338 N 0.26408 0.57370 0.89089
 C339 C 0.25176 0.55865 0.87366
 C340 C 0.22675 0.56042 0.87209
 C341 C 0.21390 0.54595 0.85577
 C342 C 0.22591 0.52955 0.84052
 C343 C 0.25112 0.52803 0.84176
 C344 C 0.26398 0.54234 0.85840
 H345 H 0.35043 0.59117 0.94477
 H346 H 0.33049 0.56603 0.91373
 H347 H 0.26814 0.61198 0.91700
 H348 H 0.28788 0.63721 0.94762
 H349 H 0.21718 0.57293 0.88375
 H350 H 0.19449 0.54742 0.85517
 H351 H 0.26077 0.51575 0.82992
 H352 H 0.28336 0.54082 0.85921
 C353 C 0.06494 0.32930 0.40222
 C354 C 0.08179 0.31579 0.41533
 C355 C 0.08111 0.29049 0.41467
 C356 C 0.06379 0.27874 0.40016
 C357 C 0.04735 0.29226 0.38651
 C358 C 0.04763 0.31764 0.38766
 N359 N 0.09825 0.27714 0.42871
 N360 N 0.09468 0.25514 0.43460
 C361 C 0.11210 0.24155 0.44804
 C362 C 0.10488 0.22026 0.45988
 C363 C 0.12153 0.20656 0.47304
 C364 C 0.14571 0.21378 0.47402
 C365 C 0.15307 0.23489 0.46187
 C366 C 0.13631 0.24889 0.44919
 H367 H 0.06558 0.34887 0.40327
 H368 H 0.09515 0.32502 0.42635
 H369 H 0.06310 0.25918 0.39923
 H370 H 0.03409 0.28289 0.37547
 H371 H 0.08630 0.21439 0.45903
 H372 H 0.11568 0.19018 0.48221
 H373 H 0.17174 0.24057 0.46239
 H374 H 0.14231 0.26518 0.43997
 C375 C 0.06831 0.66080 0.59658
 C376 C 0.08677 0.67259 0.58384
 C377 C 0.08888 0.69782 0.58467
 C378 C 0.07267 0.71118 0.59895
 C379 C 0.05457 0.69937 0.61214
 C380 C 0.05207 0.67409 0.61087
 N381 N 0.10746 0.70952 0.57084
 N382 N 0.10640 0.73194 0.56561
 C383 C 0.12488 0.74412 0.55212
 C384 C 0.11960 0.76638 0.54120
 C385 C 0.13708 0.77869 0.52768
 C386 C 0.16026 0.76910 0.52535
 C387 C 0.16582 0.74707 0.53673
 C388 C 0.14813 0.73445 0.54981
 H389 H 0.06686 0.64129 0.59542
 H390 H 0.09918 0.66210 0.57296
 H391 H 0.07407 0.73069 0.60000
 H392 H 0.04226 0.71005 0.62297
 H393 H 0.10179 0.77405 0.54294
 H394 H 0.13258 0.79576 0.51909
 H395 H 0.18370 0.73952 0.53515
 H396 H 0.15263 0.71735 0.55831
 C397 C 0.94623 0.71062 0.37264
 C398 C 0.93022 0.72571 0.38497
 C399 C 0.91762 0.71727 0.40540
 C400 C 0.92110 0.69335 0.41338
 C401 C 0.93727 0.67826 0.40117
 C402 C 0.95009 0.68678 0.38071
 N403 N 0.90196 0.73357 0.41796
 N404 N 0.88852 0.72693 0.43558
 C405 C 0.87346 0.74375 0.44826
 C406 C 0.85724 0.73512 0.46581
 C407 C 0.84261 0.75119 0.47871
 C408 C 0.84433 0.77624 0.47453
 C409 C 0.86047 0.78484 0.45676
 C410 C 0.87490 0.76876 0.44372
 H411 H 0.95586 0.71777 0.35701
 H412 H 0.92773 0.74412 0.37869
 H413 H 0.91159 0.68645 0.42919
 H414 H 0.93982 0.65999 0.40782
 H415 H 0.85592 0.71589 0.46945
 H416 H 0.83005 0.74410 0.49206
 H417 H 0.86215 0.80406 0.45325
 H418 H 0.88735 0.77591 0.43031
 C419 C 0.94080 0.28933 0.63272
 C420 C 0.92257 0.27670 0.62063
 C421 C 0.91137 0.28665 0.60010
 C422 C 0.91852 0.30965 0.59176
 C423 C 0.93690 0.32232 0.60380
 C424 C 0.94832 0.31222 0.62436
 N425 N 0.89349 0.27255 0.58771
 N426 N 0.88146 0.28043 0.56960
 C427 C 0.86439 0.26531 0.55715
 C428 C 0.85089 0.27491 0.53784
 C429 C 0.83519 0.26010 0.52450
 C430 C 0.83307 0.23535 0.53011
 C431 C 0.84609 0.22595 0.54993
 C432 C 0.86160 0.24076 0.56334
 H433 H 0.94918 0.28100 0.64848
 H434 H 0.91725 0.25897 0.62718
 H435 H 0.91015 0.31766 0.57584
 H436 H 0.94225 0.33992 0.59694
 H437 H 0.85282 0.29380 0.53291
 H438 H 0.82512 0.26779 0.50944
 H439 H 0.84481 0.20692 0.55455
 H440 H 0.87182 0.23286 0.57816
 C441 C 0.37789 0.04700 0.28617
 C442 C 0.39048 0.06355 0.27163
 C443 C 0.40520 0.08116 0.28237
 C444 C 0.40744 0.08193 0.30794
 C445 C 0.39534 0.06500 0.32248
 C446 C 0.38041 0.04742 0.31172
 N447 N 0.41830 0.09749 0.26698
 N448 N 0.42676 0.11742 0.27492
 C449 C 0.44074 0.13317 0.25972
 C450 C 0.44314 0.15757 0.26617
 C451 C 0.45685 0.17329 0.25172
 C452 C 0.46894 0.16455 0.23109
 C453 C 0.46673 0.14008 0.22469
 C454 C 0.45254 0.12450 0.23878
 H455 H 0.36665 0.03350 0.27743
 H456 H 0.38872 0.06271 0.25194
 H457 H 0.41891 0.09527 0.31662
 H458 H 0.39756 0.06571 0.34214
 H459 H 0.43420 0.16442 0.28230
 H460 H 0.45844 0.19215 0.25687
 H461 H 0.47597 0.13311 0.20878
 H462 H 0.45111 0.10565 0.23360
 C463 C 0.58114 0.04289 0.67750
 C464 C 0.56595 0.05777 0.69120
 C465 C 0.57550 0.07660 0.70533
 C466 C 0.60051 0.08026 0.70588
 C467 C 0.61573 0.06502 0.69272
 C468 C 0.60618 0.04624 0.67835
 N469 N 0.55965 0.09137 0.71949
 N470 N 0.56593 0.11234 0.72673
 C471 C 0.55084 0.12694 0.74186
 C472 C 0.55494 0.15190 0.74273
 C473 C 0.54097 0.16661 0.75778
 C474 C 0.52296 0.15650 0.77270
 C475 C 0.51924 0.13131 0.77220
 C476 C 0.53280 0.11668 0.75659
 H477 H 0.57336 0.02841 0.66672
 H478 H 0.54671 0.05470 0.69072
 H479 H 0.60830 0.09457 0.71686
 H480 H 0.63498 0.06797 0.69367
 H481 H 0.56892 0.15999 0.73159
 H482 H 0.54429 0.18594 0.75788
 H483 H 0.50604 0.12291 0.78404
 H484 H 0.52966 0.09733 0.75652
 C485 C 0.36823 0.93175 0.69902
 C486 C 0.38057 0.91460 0.71297
 C487 C 0.40568 0.91348 0.71213
 C488 C 0.41839 0.92925 0.69662
 C489 C 0.40603 0.94597 0.68217
 C490 C 0.38087 0.94754 0.68348
 N491 N 0.41787 0.89622 0.72714
 N492 N 0.43989 0.89883 0.73292
 C493 C 0.45228 0.88134 0.74747
 C494 C 0.47330 0.88826 0.75968
 C495 C 0.48561 0.87169 0.77431
 C496 C 0.47757 0.84760 0.77616
 C497 C 0.45648 0.84068 0.76380
 C498 C 0.44383 0.85745 0.74969
 H499 H 0.34881 0.93253 0.70022
 H500 H 0.37060 0.90247 0.72479
 H501 H 0.43782 0.92852 0.69555
 H502 H 0.41616 0.95801 0.67037
 H503 H 0.47990 0.90667 0.75821
 H504 H 0.50141 0.87769 0.78421
 H505 H 0.44989 0.82225 0.76497
 H506 H 0.42767 0.85170 0.74027
 C507 C 0.63316 0.94694 0.28755
 C508 C 0.62162 0.92975 0.27289
 C509 C 0.60130 0.91741 0.28146
 C510 C 0.59260 0.92239 0.30502
 C511 C 0.60399 0.93974 0.31964
 C512 C 0.62436 0.95226 0.31102
 N513 N 0.58945 0.90053 0.26562
 N514 N 0.57211 0.88725 0.27284
 C515 C 0.55969 0.87105 0.25672
 C516 C 0.54186 0.85582 0.26627
 C517 C 0.52852 0.84075 0.25083
 C518 C 0.53259 0.84099 0.22549
 C519 C 0.55093 0.85579 0.21599
 C520 C 0.56439 0.87073 0.23147
 H521 H 0.64876 0.95631 0.28034
 H522 H 0.62844 0.92613 0.25473
 H523 H 0.57684 0.91315 0.31201
 H524 H 0.59681 0.94339 0.33764
 H525 H 0.53811 0.85586 0.28568
 H526 H 0.51470 0.82921 0.25859
 H527 H 0.55436 0.85630 0.19651
 H528 H 0.57807 0.88237 0.22364
 C529 C 0.41445 0.33115 0.93758
 C530 C 0.42762 0.31850 0.91995
 C531 C 0.42078 0.29506 0.91310
 C532 C 0.40032 0.28449 0.92383
 C533 C 0.38704 0.29717 0.94123
 C534 C 0.39402 0.32058 0.94844
 N535 N 0.43492 0.28219 0.89550
 N536 N 0.43105 0.25991 0.89104
 C537 C 0.44465 0.24635 0.87362
 C538 C 0.44093 0.22135 0.87233
 C539 C 0.45398 0.20731 0.85586
 C540 C 0.47091 0.21811 0.84020
 C541 C 0.47431 0.24333 0.84112
 C542 C 0.46142 0.25736 0.85788
 H543 H 0.42025 0.34917 0.94269
 H544 H 0.44333 0.32687 0.91182
 H545 H 0.39458 0.26643 0.91880
 H546 H 0.37143 0.28848 0.94925
 H547 H 0.42803 0.21268 0.88433
 H548 H 0.45105 0.18792 0.85553
 H549 H 0.48699 0.25211 0.82896
 H550 H 0.46444 0.27671 0.85844
 C551 C 0.60246 0.67683 0.93197
 C552 C 0.58892 0.68870 0.91411
 C553 C 0.58867 0.71398 0.91304
 C554 C 0.60261 0.72738 0.92968
 C555 C 0.61662 0.71553 0.94716
 C556 C 0.61647 0.69016 0.94860
 N557 N 0.57432 0.72567 0.89485
 N558 N 0.56810 0.74770 0.89696
 C559 C 0.55436 0.75980 0.87857
 C560 C 0.54262 0.78132 0.88461
 C561 C 0.52923 0.79370 0.86702
 C562 C 0.52789 0.78491 0.84303
 C563 C 0.53992 0.76354 0.83682
 C564 C 0.55286 0.75086 0.85457
 H565 H 0.60218 0.65724 0.93262
 H566 H 0.57832 0.67820 0.90130
 H567 H 0.60284 0.74696 0.92902
 H568 H 0.62723 0.72620 0.95982
 H569 H 0.54375 0.78842 0.90301
 H570 H 0.52017 0.81030 0.87199
 H571 H 0.53910 0.75664 0.81831
 H572 H 0.56200 0.73436 0.84948
 C573 C 0.37266 0.71824 0.05765
 C574 C 0.38420 0.73268 0.07507
 C575 C 0.40398 0.72386 0.08806
 C576 C 0.41202 0.70019 0.08366
 C577 C 0.40059 0.68576 0.06615
 C578 C 0.38088 0.69469 0.05284
 N579 N 0.41609 0.73956 0.10489
 N580 N 0.43354 0.73241 0.11806
 C581 C 0.44625 0.74841 0.13414
 C582 C 0.46458 0.73909 0.14888
 C583 C 0.47818 0.75444 0.16379
 C584 C 0.47382 0.77947 0.16388
 C585 C 0.45502 0.78873 0.14955
 C586 C 0.44133 0.77334 0.13476
 H587 H 0.35757 0.72568 0.04769
 H588 H 0.37789 0.75092 0.07826
 H589 H 0.42733 0.69297 0.09344
 H590 H 0.40733 0.66769 0.06290
 H591 H 0.46851 0.71992 0.14859
 H592 H 0.49238 0.74688 0.17496
 H593 H 0.45136 0.80797 0.14932
 H594 H 0.42727 0.78099 0.12350
 C595 C 0.58299 0.31742 0.05064
 C596 C 0.56841 0.30478 0.06712
 C597 C 0.57860 0.28891 0.08412
 C598 C 0.60364 0.28561 0.08439
 C599 C 0.61819 0.29774 0.06749
 C600 C 0.60798 0.31378 0.05050
 N601 N 0.56318 0.27578 0.10037
 N602 N 0.57092 0.26674 0.12026
 C603 C 0.55570 0.25276 0.13596
 C604 C 0.56154 0.25080 0.16074
 C605 C 0.54690 0.23739 0.17652
 C606 C 0.52646 0.22522 0.16760
 C607 C 0.52117 0.22649 0.14250
 C608 C 0.53541 0.24051 0.12687
 H609 H 0.57469 0.32951 0.03755
 H610 H 0.54912 0.30737 0.06667
 H611 H 0.61186 0.27325 0.09726
 H612 H 0.63740 0.29464 0.06770
 H613 H 0.57725 0.26001 0.16790
 H614 H 0.55147 0.23659 0.19575
 H615 H 0.50602 0.21663 0.13497
 H616 H 0.53088 0.24140 0.10765
 C617 C 0.32325 0.06064 0.58987
 C618 C 0.31046 0.07783 0.57638
 C619 C 0.28555 0.07998 0.57921
 C620 C 0.27355 0.06509 0.59612
 C621 C 0.28639 0.04833 0.61004
 C622 C 0.31132 0.04584 0.60691
 N623 N 0.27282 0.09755 0.56505
 N624 N 0.25022 0.09593 0.56171
 C625 C 0.23706 0.11382 0.54842
 C626 C 0.21420 0.10792 0.53947
 C627 C 0.20075 0.12509 0.52671
 C628 C 0.20987 0.14851 0.52323
 C629 C 0.23256 0.15464 0.53257
 C630 C 0.24627 0.13729 0.54483
 H631 H 0.34249 0.05914 0.58723
 H632 H 0.31990 0.08929 0.56347
 H633 H 0.25433 0.06660 0.59877
 H634 H 0.27676 0.03707 0.62299
 H635 H 0.20688 0.08994 0.54227
 H636 H 0.18315 0.12023 0.51973
 H637 H 0.23966 0.17277 0.53021
 H638 H 0.26378 0.14229 0.55189
 C639 C 0.67948 0.05649 0.41475
 C640 C 0.69197 0.07289 0.42955
 C641 C 0.71167 0.08577 0.42032
 C642 C 0.71907 0.08183 0.39615
 C643 C 0.70714 0.06486 0.38155
 C644 C 0.68710 0.05197 0.39061
 N645 N 0.72433 0.10226 0.43591
 N646 N 0.73559 0.12046 0.42731
 C647 C 0.74914 0.13640 0.44267
 C648 C 0.75129 0.16079 0.43618
 C649 C 0.76423 0.17679 0.45099
 C650 C 0.77585 0.16849 0.47222
 C651 C 0.77456 0.14371 0.47807
 C652 C 0.76085 0.12789 0.46372
 H653 H 0.66425 0.04690 0.42249
 H654 H 0.68616 0.07575 0.44821
 H655 H 0.73442 0.09147 0.38876
 H656 H 0.71358 0.06199 0.36311
 H657 H 0.74253 0.16749 0.41985
 H658 H 0.76510 0.19573 0.44591
 H659 H 0.78411 0.13659 0.49372
 H660 H 0.75984 0.10895 0.46869
 C661 C 0.71804 0.95997 0.61105
 C662 C 0.73367 0.94448 0.59868
 C663 C 0.72460 0.92565 0.58426
 C664 C 0.69958 0.92275 0.58188
 C665 C 0.68391 0.93861 0.59377
 C666 C 0.69301 0.95724 0.60864
 N667 N 0.74110 0.90989 0.57210
 N668 N 0.73477 0.88914 0.56427
 C669 C 0.75112 0.87359 0.55164
 C670 C 0.74561 0.84893 0.54968
 C671 C 0.76123 0.83326 0.53754
 C672 C 0.78224 0.84224 0.52658
 C673 C 0.78773 0.86698 0.52832
 C674 C 0.77236 0.88256 0.54096
 H675 H 0.72552 0.97429 0.62225
 H676 H 0.75290 0.94696 0.60057
 H677 H 0.69218 0.90842 0.57065
 H678 H 0.66470 0.93611 0.59163
 H679 H 0.72929 0.84182 0.55779
 H680 H 0.75674 0.81421 0.53626
 H681 H 0.80388 0.87416 0.51991
 H682 H 0.77688 0.90160 0.54208
 C683 C 0.32827 0.93523 0.41031
 C684 C 0.31675 0.91713 0.42394
 C685 C 0.29260 0.91138 0.41951
 C686 C 0.28006 0.92385 0.40112
 C687 C 0.29160 0.94171 0.38732
 C688 C 0.31582 0.94762 0.39178
 N689 N 0.28122 0.89275 0.43367
 N690 N 0.25870 0.88882 0.43227
 C691 C 0.24688 0.87009 0.44585
 C692 C 0.22175 0.86914 0.44560
 C693 C 0.20951 0.85115 0.45857
 C694 C 0.22229 0.83367 0.47189
 C695 C 0.24755 0.83430 0.47172
 C696 C 0.25980 0.85254 0.45898
 H697 H 0.34695 0.93933 0.41411
 H698 H 0.32663 0.90763 0.43803
 H699 H 0.26140 0.91970 0.39727
 H700 H 0.28150 0.95099 0.37323
 H701 H 0.21162 0.88250 0.43543
 H702 H 0.19003 0.85093 0.45837
 H703 H 0.25777 0.82055 0.48118
 H704 H 0.27927 0.85275 0.45916
 C705 C 0.06177 0.37057 0.71621
 C706 C 0.07955 0.38269 0.72948
 C707 C 0.09027 0.40367 0.72017
 C708 C 0.08307 0.41247 0.69719
 C709 C 0.06510 0.40044 0.68393
 C710 C 0.05419 0.37940 0.69336
 N711 N 0.10769 0.41604 0.73489
 N712 N 0.11975 0.43416 0.72727
 C713 C 0.13638 0.44662 0.74289
 C714 C 0.15078 0.46512 0.73319
 C715 C 0.16640 0.47823 0.74831
 C716 C 0.16747 0.47326 0.77350
 C717 C 0.15341 0.45436 0.78308
 C718 C 0.13802 0.44113 0.76794
 H719 H 0.05372 0.35446 0.72405
 H720 H 0.08490 0.37581 0.74721
 H721 H 0.09105 0.42876 0.68969
 H722 H 0.05966 0.40768 0.66638
 H723 H 0.14975 0.46951 0.71393
 H724 H 0.17733 0.49252 0.74047
 H725 H 0.15390 0.45024 0.80243
 H726 H 0.12706 0.42695 0.77592
 C727 C 0.04475 0.58028 0.31506
 C728 C 0.06063 0.56595 0.30160
 C729 C 0.07901 0.57666 0.28783
 C730 C 0.08129 0.60199 0.28749
 C731 C 0.06506 0.61636 0.30043
 C732 C 0.04666 0.60563 0.31434
 N733 N 0.09462 0.56162 0.27371
 N734 N 0.11506 0.56909 0.26637
 C735 C 0.13029 0.55456 0.25133
 C736 C 0.15495 0.55961 0.25064
 C737 C 0.17026 0.54582 0.23603
 C738 C 0.16104 0.52704 0.22141
 C739 C 0.13612 0.52255 0.22152
 C740 C 0.12092 0.53590 0.23669
 H741 H 0.03059 0.57158 0.32548
 H742 H 0.05863 0.54645 0.30192
 H743 H 0.09524 0.61067 0.27679
 H744 H 0.06691 0.63586 0.29958
 H745 H 0.16234 0.57408 0.26169
 H746 H 0.18935 0.54976 0.23619
 H747 H 0.12841 0.50875 0.20985
 H748 H 0.10183 0.53203 0.23659
 C749 C 0.93752 0.41183 0.32790
 C750 C 0.91983 0.42478 0.31534
 C751 C 0.91487 0.41970 0.29081
 C752 C 0.92776 0.40137 0.27888
 C753 C 0.94529 0.38827 0.29145
 C754 C 0.95037 0.39337 0.31610
 N755 N 0.89662 0.43326 0.27847
 N756 N 0.89275 0.43098 0.25566
 C757 C 0.87440 0.44434 0.24330
 C758 C 0.87312 0.44323 0.21779
 C759 C 0.85570 0.45641 0.20512
 C760 C 0.83918 0.47081 0.21787
 C761 C 0.84008 0.47141 0.24352
 C762 C 0.85767 0.45844 0.25616
 H763 H 0.94096 0.41613 0.34689
 H764 H 0.90999 0.43885 0.32473
 H765 H 0.92420 0.39706 0.25992
 H766 H 0.95490 0.37419 0.28184
 H767 H 0.88586 0.43235 0.20770
 H768 H 0.85532 0.45565 0.18534
 H769 H 0.82717 0.48191 0.25376
 H770 H 0.85812 0.45936 0.27591
 C771 C 0.92978 0.59443 0.66985
 C772 C 0.91183 0.58230 0.68298
 C773 C 0.91126 0.58352 0.70853
 C774 C 0.92851 0.59758 0.72086
 C775 C 0.94610 0.61018 0.70773
 C776 C 0.94706 0.60852 0.68213
 N777 N 0.89312 0.57033 0.72155
 N778 N 0.89541 0.56522 0.74412
 C779 C 0.87719 0.55242 0.75740
 C780 C 0.88339 0.54084 0.77928
 C781 C 0.86616 0.52766 0.79233
 C782 C 0.84238 0.52642 0.78390
 C783 C 0.83593 0.53861 0.76240
 C784 C 0.85331 0.55130 0.74902
 H785 H 0.93007 0.59296 0.65012
 H786 H 0.89858 0.57158 0.67328
 H787 H 0.92830 0.59892 0.74060
 H788 H 0.95927 0.62085 0.71763
 H789 H 0.90171 0.54166 0.78595
 H790 H 0.87134 0.51836 0.80895
 H791 H 0.81760 0.53782 0.75575
 H792 H 0.84809 0.56033 0.73228
 C793 C 0.70894 0.63450 0.93614
 C794 C 0.72212 0.62207 0.91846
 C795 C 0.71779 0.59752 0.91417
 C796 C 0.69947 0.58560 0.92715
 C797 C 0.68567 0.59819 0.94426
 C798 C 0.69046 0.62276 0.94929
 N799 N 0.73218 0.58506 0.89660
 N800 N 0.73625 0.56249 0.89836
 C801 C 0.75021 0.54989 0.88052
 C802 C 0.75186 0.55814 0.85629
 C803 C 0.76532 0.54525 0.83914
 C804 C 0.77768 0.52416 0.84603
 C805 C 0.77651 0.51644 0.87052
 C806 C 0.76242 0.52889 0.88744
 H807 H 0.71312 0.65341 0.93928
 H808 H 0.73615 0.63144 0.90847
 H809 H 0.69571 0.56664 0.92387
 H810 H 0.67165 0.58847 0.95393
 H811 H 0.74242 0.57428 0.85057
 H812 H 0.76596 0.55165 0.82043
 H813 H 0.78649 0.50077 0.87658
 H814 H 0.76143 0.52248 0.90612
 C815 C 0.33073 0.41898 0.94851
 C816 C 0.31756 0.43383 0.93269
 C817 C 0.29844 0.42432 0.91908
 C818 C 0.29234 0.39979 0.92168
 C819 C 0.30490 0.38511 0.93808
 C820 C 0.32434 0.39446 0.95175
 N821 N 0.28490 0.43990 0.90335
 N822 N 0.27467 0.43185 0.88417
 C823 C 0.25992 0.44685 0.86903
 C824 C 0.25856 0.44205 0.84398
 C825 C 0.24391 0.45607 0.82884
 C826 C 0.22971 0.47471 0.83863
 C827 C 0.23055 0.47893 0.86399
 C828 C 0.24592 0.46547 0.87898
 H829 H 0.34545 0.42695 0.95873
 H830 H 0.32238 0.45275 0.93090
 H831 H 0.27745 0.39216 0.91148
 H832 H 0.29938 0.36638 0.93994
 H833 H 0.26912 0.42759 0.83614
 H834 H 0.24362 0.45231 0.80942
 H835 H 0.21919 0.49250 0.87226
 H836 H 0.24633 0.46906 0.89843
 C837 C 0.28736 0.63030 0.05343
 C838 C 0.27261 0.61784 0.06988
 C839 C 0.28086 0.59701 0.08165
 C840 C 0.30418 0.58863 0.07676
 C841 C 0.31893 0.60093 0.06013
 C842 C 0.31072 0.62195 0.04818
 N843 N 0.26506 0.58455 0.09811
 N844 N 0.27191 0.56660 0.11089
 C845 C 0.25588 0.55393 0.12696
 C846 C 0.26507 0.53573 0.14207
 C847 C 0.24985 0.52276 0.15767
 C848 C 0.22507 0.52756 0.15808
 C849 C 0.21588 0.54601 0.14313
 C850 C 0.23115 0.55912 0.12767
 H851 H 0.28027 0.64634 0.04465
 H852 H 0.25465 0.62443 0.07347
 H853 H 0.31093 0.57248 0.08559
 H854 H 0.33676 0.59388 0.05666
 H855 H 0.28410 0.53164 0.14178
 H856 H 0.25742 0.50896 0.16940
 H857 H 0.19683 0.55000 0.14315
 H858 H 0.22359 0.57307 0.11612
 C859 C 0.70463 0.36605 0.06116
 C860 C 0.71865 0.37800 0.07862
 C861 C 0.71516 0.40258 0.08331
 C862 C 0.69694 0.41507 0.07086
 C863 C 0.68233 0.40299 0.05396
 C864 C 0.68616 0.37834 0.04864
 N865 N 0.73004 0.41439 0.10103
 N866 N 0.73442 0.43699 0.10000
 C867 C 0.74860 0.44891 0.11824
 C868 C 0.76065 0.47037 0.11226
 C869 C 0.77457 0.48239 0.12977
 C870 C 0.77572 0.47368 0.15391
 C871 C 0.76366 0.45205 0.15982
 C872 C 0.75036 0.43965 0.14209
 H873 H 0.70810 0.34707 0.05776
 H874 H 0.73257 0.36817 0.08822
 H875 H 0.69381 0.43405 0.07447
 H876 H 0.66836 0.41312 0.04476
 H877 H 0.75955 0.47759 0.09389
 H878 H 0.78431 0.49856 0.12449
 H879 H 0.76432 0.44490 0.17825
 H880 H 0.74104 0.42314 0.14712
 C881 C 0.94880 0.67308 0.58378
 C882 C 0.93325 0.68723 0.56972
 C883 C 0.92128 0.70686 0.58015
 C884 C 0.92533 0.71256 0.60480
 C885 C 0.94153 0.69896 0.61871
 C886 C 0.95343 0.67892 0.60843
 N887 N 0.90578 0.72124 0.56520
 N888 N 0.88780 0.73241 0.57400
 C889 C 0.87311 0.74762 0.55901
 C890 C 0.84868 0.75013 0.56447
 C891 C 0.83394 0.76460 0.54982
 C892 C 0.84360 0.77739 0.52983
 C893 C 0.86840 0.77560 0.52509
 C894 C 0.88292 0.76045 0.53921
 H895 H 0.95763 0.65792 0.57509
 H896 H 0.93034 0.68276 0.55068
 H897 H 0.91640 0.72786 0.61310
 H898 H 0.94452 0.70406 0.63759
 H899 H 0.84096 0.74045 0.57981
 H900 H 0.81495 0.76568 0.55402
 H901 H 0.87659 0.78595 0.51047
 H902 H 0.90190 0.75914 0.53504
 C903 C 0.93647 0.30003 0.37009
 C904 C 0.91825 0.28658 0.38133
 C905 C 0.91250 0.29053 0.40584
 C906 C 0.92459 0.30873 0.41891
 C907 C 0.94224 0.32282 0.40748
 C908 C 0.94869 0.31844 0.38298
 N909 N 0.89431 0.27596 0.41711
 N910 N 0.89493 0.27109 0.43982
 C911 C 0.87646 0.25714 0.45142
 C912 C 0.88202 0.24407 0.47255
 C913 C 0.86433 0.23041 0.48436
 C914 C 0.84045 0.23058 0.47588
 C915 C 0.83496 0.24357 0.45450
 C916 C 0.85288 0.25660 0.44223
 H917 H 0.94071 0.29617 0.35117
 H918 H 0.90894 0.27266 0.37106
 H919 H 0.92015 0.31220 0.43785
 H920 H 0.95117 0.33679 0.41805
 H921 H 0.90020 0.24420 0.47967
 H922 H 0.86927 0.21988 0.50028
 H923 H 0.81674 0.24389 0.44751
 H924 H 0.84822 0.26670 0.42594
 C925 C 0.05584 0.32207 0.59562
 C926 C 0.07178 0.30931 0.58073
 C927 C 0.07907 0.28596 0.58710
 C928 C 0.07056 0.27555 0.60889
 C929 C 0.05485 0.28835 0.62398
 C930 C 0.04708 0.31175 0.61747
 N931 N 0.09503 0.27320 0.57118
 N932 N 0.09974 0.25089 0.57426
 C933 C 0.11583 0.23799 0.55861
 C934 C 0.11776 0.21290 0.56129
 C935 C 0.13325 0.19971 0.54633
 C936 C 0.14722 0.21149 0.52851
 C937 C 0.14554 0.23675 0.52607
 C938 C 0.12982 0.24990 0.54087
 H939 H 0.05042 0.34003 0.58994
 H940 H 0.07829 0.31755 0.56401
 H941 H 0.07606 0.25755 0.61428
 H942 H 0.04860 0.27973 0.64061
 H943 H 0.10711 0.20354 0.57493
 H944 H 0.13425 0.18026 0.54856
 H945 H 0.15657 0.24631 0.51291
 H946 H 0.12881 0.26934 0.53863
 C947 C 0.05579 0.66646 0.40921
 C948 C 0.07306 0.67820 0.42358
 C949 C 0.08225 0.70074 0.41655
 C950 C 0.07434 0.71130 0.39464
 C951 C 0.05736 0.69949 0.38006
 C952 C 0.04765 0.67697 0.38722
 N953 N 0.09957 0.71256 0.43185
 N954 N 0.10545 0.73460 0.42850
 C955 C 0.12302 0.74667 0.44327
 C956 C 0.12587 0.77171 0.44075
 C957 C 0.14304 0.78408 0.45461
 C958 C 0.15785 0.77152 0.47108
 C959 C 0.15514 0.74632 0.47340
 C960 C 0.13771 0.73399 0.45977
 H961 H 0.04888 0.64914 0.41536
 H962 H 0.07910 0.66983 0.44039
 H963 H 0.08133 0.72866 0.38872
 H964 H 0.05167 0.70823 0.36330
 H965 H 0.11469 0.78164 0.42805
 H966 H 0.14475 0.80351 0.45251
 H967 H 0.16672 0.73614 0.48551
 H968 H 0.13599 0.71457 0.46180
 C969 C 0.63069 0.94309 0.70533
 C970 C 0.61971 0.92558 0.72004
 C971 C 0.59965 0.91274 0.71160
 C972 C 0.59087 0.91726 0.68795
 C973 C 0.60179 0.93484 0.67322
 C974 C 0.62166 0.94815 0.68187
 N975 N 0.58791 0.89617 0.72785
 N976 N 0.56990 0.88338 0.72145
 C977 C 0.55770 0.86784 0.73841
 C978 C 0.53845 0.85358 0.73022
 C979 C 0.52524 0.83947 0.74672
 C980 C 0.53094 0.83973 0.77175
 C981 C 0.55068 0.85350 0.77980
 C982 C 0.56396 0.86744 0.76330
 H983 H 0.64596 0.95300 0.71255
 H984 H 0.62659 0.92228 0.73825
 H985 H 0.57532 0.90758 0.68105
 H986 H 0.59442 0.93828 0.65523
 H987 H 0.53346 0.85370 0.71109
 H988 H 0.51026 0.82875 0.74008
 H989 H 0.55537 0.85402 0.79901
 H990 H 0.57873 0.87832 0.77012
 C991 C 0.37053 0.92939 0.30344
 C992 C 0.38298 0.91176 0.29031
 C993 C 0.40810 0.91235 0.28914
 C994 C 0.42079 0.93040 0.30191
 C995 C 0.40838 0.94767 0.31558
 C996 C 0.38313 0.94748 0.31620
 N997 N 0.42029 0.89458 0.27481
 N998 N 0.44158 0.89800 0.26700
 C999 C 0.45393 0.88013 0.25295
 C1000 C 0.47346 0.88725 0.23852
 C1001 C 0.48554 0.87034 0.22416
 C1002 C 0.47882 0.84578 0.22473
 C1003 C 0.45928 0.83865 0.23938
 C1004 C 0.44682 0.85571 0.25326
 H1005 H 0.35106 0.92879 0.30377
 H1006 H 0.37303 0.89788 0.28061
 H1007 H 0.44024 0.93104 0.30140
 H1008 H 0.41848 0.96148 0.32523
 H1009 H 0.47901 0.90605 0.23804
 H1010 H 0.50009 0.87646 0.21253
 H1011 H 0.45375 0.81985 0.24017
 H1012 H 0.43184 0.84980 0.26443
 C1013 C 0.62707 0.05794 0.28936
 C1014 C 0.61381 0.07417 0.27517
 C1015 C 0.59297 0.08483 0.28446
 C1016 C 0.58546 0.07907 0.30830
 C1017 C 0.59859 0.06264 0.32247
 C1018 C 0.61954 0.05187 0.31314
 N1019 N 0.57971 0.10111 0.26918
 N1020 N 0.56189 0.11325 0.27697
 C1021 C 0.54866 0.12926 0.26134
 C1022 C 0.53166 0.14481 0.27165
 C1023 C 0.51885 0.16098 0.25692
 C1024 C 0.52249 0.16148 0.23151
 C1025 C 0.53945 0.14574 0.22118
 C1026 C 0.55247 0.12980 0.23594
 H1027 H 0.64305 0.04990 0.28157
 H1028 H 0.61977 0.07843 0.25682
 H1029 H 0.56935 0.08704 0.31587
 H1030 H 0.59231 0.05834 0.34070
 H1031 H 0.52863 0.14467 0.29119
 H1032 H 0.50636 0.17334 0.26544
 H1033 H 0.54258 0.14578 0.20164
 H1034 H 0.56543 0.11788 0.22750
 C1035 C 0.40424 0.05876 0.66629
 C1036 C 0.41808 0.07623 0.67838
 C1037 C 0.41273 0.08272 0.70247
 C1038 C 0.39301 0.07182 0.71427
 C1039 C 0.37902 0.05455 0.70214
 C1040 C 0.38459 0.04768 0.67808
 N1041 N 0.42767 0.10010 0.71468
 N1042 N 0.42529 0.10443 0.73739
 C1043 C 0.43995 0.12160 0.75016
 C1044 C 0.43792 0.12297 0.77557
 C1045 C 0.45214 0.13915 0.78883
 C1046 C 0.46859 0.15441 0.77681
 C1047 C 0.47032 0.15339 0.75120
 C1048 C 0.45623 0.13694 0.73795
 H1049 H 0.40893 0.05392 0.64773
 H1050 H 0.43320 0.08451 0.66908
 H1051 H 0.38843 0.07659 0.73288
 H1052 H 0.36404 0.04633 0.71174
 H1053 H 0.42542 0.11127 0.78516
 H1054 H 0.45050 0.13960 0.80855
 H1055 H 0.48260 0.16525 0.74152
 H1056 H 0.45797 0.13630 0.71826
 C1057 C 0.63311 0.70538 0.06833
 C1058 C 0.62117 0.71815 0.08666
 C1059 C 0.59605 0.71853 0.08737
 C1060 C 0.58285 0.70529 0.06996
 C1061 C 0.59480 0.69192 0.05201
 C1062 C 0.62002 0.69216 0.05086
 N1063 N 0.58440 0.73259 0.10580
 N1064 N 0.56294 0.74007 0.10325
 C1065 C 0.55123 0.75393 0.12180
 C1066 C 0.53143 0.76810 0.11541
 C1067 C 0.51988 0.78218 0.13299
 C1068 C 0.52738 0.78155 0.15754
 C1069 C 0.54728 0.76727 0.16393
 C1070 C 0.55923 0.75368 0.14617
 H1071 H 0.65258 0.70568 0.06791
 H1072 H 0.63151 0.72821 0.10003
 H1073 H 0.56339 0.70519 0.07035
 H1074 H 0.58436 0.68188 0.03870
 H1075 H 0.52521 0.76857 0.09665
 H1076 H 0.50505 0.79355 0.12741
 H1077 H 0.55344 0.76646 0.18269
 H1078 H 0.57447 0.74275 0.15151
 C1079 C 0.37965 0.29101 0.05561
 C1080 C 0.39053 0.27674 0.07355
 C1081 C 0.41034 0.28544 0.08668
 C1082 C 0.41933 0.30871 0.08156
 C1083 C 0.40857 0.32297 0.06345
 C1084 C 0.38857 0.31428 0.05029
 N1085 N 0.42113 0.27007 0.10470
 N1086 N 0.43805 0.27710 0.11872
 C1087 C 0.44891 0.26111 0.13618
 C1088 C 0.46666 0.27008 0.15198
 C1089 C 0.47823 0.25465 0.16850
 C1090 C 0.47242 0.22988 0.16919
 C1091 C 0.45420 0.22104 0.15377
 C1092 C 0.44255 0.23649 0.13740
 H1093 H 0.36433 0.28374 0.04579
 H1094 H 0.38350 0.25881 0.07726
 H1095 H 0.43470 0.31579 0.09141
 H1096 H 0.41583 0.34083 0.05984
 H1097 H 0.47168 0.28902 0.15131
 H1098 H 0.49202 0.26191 0.18043
 H1099 H 0.44945 0.20201 0.15395
 H1100 H 0.42889 0.22908 0.12543
 C1101 C 0.58265 0.31312 0.95230
 C1102 C 0.56801 0.29967 0.93656
 C1103 C 0.57823 0.28423 0.91925
 C1104 C 0.60337 0.28207 0.91800
 C1105 C 0.61802 0.29498 0.93422
 C1106 C 0.60776 0.31068 0.95143
 N1107 N 0.56278 0.27042 0.90363
 N1108 N 0.56988 0.26234 0.88313
 C1109 C 0.55465 0.24772 0.86805
 C1110 C 0.55880 0.24699 0.84286
 C1111 C 0.54409 0.23297 0.82771
 C1112 C 0.52532 0.21894 0.83763
 C1113 C 0.52175 0.21908 0.86307
 C1114 C 0.53600 0.23370 0.87812
 H1115 H 0.57432 0.32493 0.96560
 H1116 H 0.54865 0.30136 0.93776
 H1117 H 0.61161 0.27003 0.90488
 H1118 H 0.63735 0.29281 0.93326
 H1119 H 0.57323 0.25760 0.83494
 H1120 H 0.54734 0.23310 0.80819
 H1121 H 0.50801 0.20781 0.87133
 H1122 H 0.53282 0.23365 0.89763
 C1123 C 0.41134 0.67936 0.94234
 C1124 C 0.42552 0.69188 0.92538
 C1125 C 0.41956 0.71546 0.91834
 C1126 C 0.39901 0.72638 0.92828
 C1127 C 0.38467 0.71380 0.94503
 C1128 C 0.39073 0.69018 0.95231
 N1129 N 0.43451 0.72783 0.90101
 N1130 N 0.43160 0.75011 0.89590
 C1131 C 0.44628 0.76245 0.87832
 C1132 C 0.44390 0.78752 0.87563
 C1133 C 0.45790 0.80010 0.85860
 C1134 C 0.47445 0.78773 0.84386
 C1135 C 0.47657 0.76251 0.84632
 C1136 C 0.46274 0.74997 0.86354
 H1137 H 0.41644 0.66117 0.94752
 H1138 H 0.44129 0.68325 0.91779
 H1139 H 0.39396 0.74457 0.92305
 H1140 H 0.36895 0.72267 0.95242
 H1141 H 0.43122 0.79733 0.88687
 H1142 H 0.45593 0.81953 0.85701
 H1143 H 0.48876 0.75248 0.83476
 H1144 H 0.46473 0.73056 0.86509
 C1145 C 0.67861 0.94017 0.40767
 C1146 C 0.69099 0.92281 0.42130
 C1147 C 0.71520 0.91803 0.41653
 C1148 C 0.72695 0.93067 0.39765
 C1149 C 0.71453 0.94792 0.38385
 C1150 C 0.69025 0.95296 0.38881
 N1151 N 0.72740 0.90037 0.43114
 N1152 N 0.74986 0.89653 0.42918
 C1153 C 0.76200 0.87883 0.44379
 C1154 C 0.78703 0.87700 0.44211
 C1155 C 0.79946 0.86009 0.45627
 C1156 C 0.78699 0.84469 0.47235
 C1157 C 0.76182 0.84624 0.47372
 C1158 C 0.74941 0.86329 0.45969
 H1159 H 0.65991 0.94356 0.41191
 H1160 H 0.68174 0.91317 0.43577
 H1161 H 0.74567 0.92724 0.39357
 H1162 H 0.72401 0.95748 0.36948
 H1163 H 0.79692 0.88881 0.42989
 H1164 H 0.81886 0.85915 0.45486
 H1165 H 0.75176 0.83416 0.48551
 H1166 H 0.73003 0.86421 0.46116
 C1167 C 0.28320 0.94424 0.61744
 C1168 C 0.26908 0.92696 0.60552
 C1169 C 0.27941 0.91108 0.58871
 C1170 C 0.30414 0.91276 0.58370
 C1171 C 0.31825 0.93038 0.59530
 C1172 C 0.30790 0.94624 0.61234
 N1173 N 0.26420 0.89398 0.57652
 N1174 N 0.27242 0.87604 0.56466
 C1175 C 0.25674 0.85973 0.55193
 C1176 C 0.26566 0.83752 0.54371
 C1177 C 0.25074 0.82148 0.53094
 C1178 C 0.22694 0.82789 0.52563
 C1179 C 0.21793 0.85003 0.53394
 C1180 C 0.23266 0.86581 0.54714
 H1181 H 0.27469 0.95631 0.63036
 H1182 H 0.25002 0.92589 0.60943
 H1183 H 0.31246 0.90077 0.57059
 H1184 H 0.33723 0.93152 0.59104
 H1185 H 0.28416 0.83263 0.54728
 H1186 H 0.25784 0.80434 0.52474
 H1187 H 0.19955 0.85511 0.53003
 H1188 H 0.22538 0.88289 0.55322
 C1189 C 0.32259 0.06032 0.40787
 C1190 C 0.30950 0.07744 0.42108
 C1191 C 0.28561 0.08243 0.41491
 C1192 C 0.27498 0.07035 0.39504
 C1193 C 0.28810 0.05339 0.38169
 C1194 C 0.31200 0.04807 0.38806
 N1195 N 0.27248 0.09954 0.42926
 N1196 N 0.25008 0.10300 0.42614
 C1197 C 0.23679 0.11996 0.44050
 C1198 C 0.21177 0.12075 0.43796
 C1199 C 0.19816 0.13659 0.45219
 C1200 C 0.20946 0.15195 0.46912
 C1201 C 0.23462 0.15163 0.47119
 C1202 C 0.24821 0.13562 0.45713
 H1203 H 0.34098 0.05667 0.41320
 H1204 H 0.31789 0.08664 0.43635
 H1205 H 0.25654 0.07395 0.38987
 H1206 H 0.27941 0.04424 0.36656
 H1207 H 0.20278 0.10883 0.42516
 H1208 H 0.17878 0.13662 0.45026
 H1209 H 0.24373 0.16381 0.48362
 H1210 H 0.26756 0.13552 0.45921
 C1211 C 0.66619 0.06456 0.58338
 C1212 C 0.67707 0.08318 0.56986
 C1213 C 0.69882 0.09345 0.57768
 C1214 C 0.70932 0.08523 0.59953
 C1215 C 0.69844 0.06683 0.61307
 C1216 C 0.67688 0.05610 0.60508
 N1217 N 0.71039 0.11164 0.56305
 N1218 N 0.73157 0.11878 0.56822
 C1219 C 0.74449 0.13658 0.55445
 C1220 C 0.76874 0.14028 0.56003
 C1221 C 0.78244 0.15680 0.54672
 C1222 C 0.77205 0.17021 0.52766
 C1223 C 0.74745 0.16706 0.52245
 C1224 C 0.73376 0.15014 0.53563
 H1225 H 0.64955 0.05670 0.57678
 H1226 H 0.66877 0.08933 0.55307
 H1227 H 0.72606 0.09289 0.60609
 H1228 H 0.70716 0.06081 0.62969
 H1229 H 0.77714 0.12995 0.57452
 H1230 H 0.80135 0.15885 0.55105
 H1231 H 0.73899 0.17745 0.50804
 H1232 H 0.71495 0.14766 0.53117
 C1233 C 0.94952 0.61629 0.28200
 C1234 C 0.93331 0.60346 0.26735
 C1235 C 0.91597 0.58838 0.27797
 C1236 C 0.91499 0.58614 0.30353
 C1237 C 0.93152 0.59856 0.31819
 C1238 C 0.94895 0.61374 0.30754
 N1239 N 0.90008 0.57500 0.26242
 N1240 N 0.88089 0.56516 0.27036
 C1241 C 0.86560 0.55116 0.25473
 C1242 C 0.84169 0.54705 0.26163
 C1243 C 0.82626 0.53386 0.24643
 C1244 C 0.83485 0.52402 0.22451
 C1245 C 0.85890 0.52774 0.21778
 C1246 C 0.87416 0.54138 0.23270
 H1247 H 0.96289 0.62772 0.27331
 H1248 H 0.93428 0.60525 0.24767
 H1249 H 0.90182 0.57443 0.31211
 H1250 H 0.93069 0.59629 0.33783
 H1251 H 0.83493 0.55443 0.27860
 H1252 H 0.80770 0.53113 0.25180
 H1253 H 0.86573 0.52029 0.20086
 H1254 H 0.89264 0.54415 0.22714
 C1255 C 0.94913 0.37305 0.72275
 C1256 C 0.93246 0.38540 0.73715
 C1257 C 0.92058 0.40574 0.72797
 C1258 C 0.92568 0.41379 0.70416
 C1259 C 0.94249 0.40158 0.68980
 C1260 C 0.95436 0.38103 0.69892
 N1261 N 0.90357 0.41792 0.74321
 N1262 N 0.89066 0.43523 0.73534
 C1263 C 0.87388 0.44758 0.75069
 C1264 C 0.85875 0.46498 0.74032
 C1265 C 0.84226 0.47744 0.75483
 C1266 C 0.84097 0.47293 0.78005
 C1267 C 0.85599 0.45532 0.79042
 C1268 C 0.87234 0.44272 0.77587
 H1269 H 0.95802 0.35733 0.73034
 H1270 H 0.92871 0.37906 0.75550
 H1271 H 0.91677 0.42953 0.69668
 H1272 H 0.94609 0.40816 0.67151
 H1273 H 0.85967 0.46878 0.72092
 H1274 H 0.83043 0.49050 0.74635
 H1275 H 0.85522 0.45154 0.80983
 H1276 H 0.88385 0.42936 0.78432
 C1277 C 0.04488 0.57778 0.68376
 C1278 C 0.06091 0.56407 0.69772
 C1279 C 0.07851 0.57547 0.71196
 C1280 C 0.07964 0.60088 0.71251
 C1281 C 0.06322 0.61463 0.69905
 C1282 C 0.04581 0.60319 0.68441
 N1283 N 0.09483 0.56093 0.72587
 N1284 N 0.11487 0.56922 0.73346
 C1285 C 0.13097 0.55495 0.74789
 C1286 C 0.15519 0.56172 0.74921
 C1287 C 0.17141 0.54809 0.76299
 C1288 C 0.16353 0.52767 0.77613
 C1289 C 0.13901 0.52134 0.77538
 C1290 C 0.12293 0.53463 0.76105
 H1291 H 0.03151 0.56853 0.67277
 H1292 H 0.05980 0.54451 0.69722
 H1293 H 0.09299 0.61006 0.72357
 H1294 H 0.06432 0.63418 0.69984
 H1295 H 0.16157 0.57743 0.73925
 H1296 H 0.19016 0.55344 0.76334
 H1297 H 0.13230 0.50617 0.78592
 H1298 H 0.10417 0.52932 0.76061
 C1299 C 0.06155 0.41315 0.33036
 C1300 C 0.07946 0.42646 0.31835
 C1301 C 0.08680 0.42000 0.29479
 C1302 C 0.07627 0.39974 0.28346
 C1303 C 0.05855 0.38632 0.29549
 C1304 C 0.05086 0.39295 0.31901
 N1305 N 0.10461 0.43437 0.28254
 N1306 N 0.10972 0.43076 0.26018
 C1307 C 0.12723 0.44473 0.24716
 C1308 C 0.12925 0.44137 0.22194
 C1309 C 0.14558 0.45506 0.20834
 C1310 C 0.16037 0.47228 0.21983
 C1311 C 0.15883 0.47523 0.24530
 C1312 C 0.14220 0.46170 0.25889
 H1313 H 0.05607 0.41867 0.34850
 H1314 H 0.08743 0.44202 0.32729
 H1315 H 0.08168 0.39429 0.26529
 H1316 H 0.05069 0.37089 0.28624
 H1317 H 0.11783 0.42832 0.21274
 H1318 H 0.14639 0.45249 0.18874
 H1319 H 0.17032 0.48815 0.25459
 H1320 H 0.14105 0.46445 0.27843
   
