data_POSCAR
  _audit_creation_date              2014-09-24
  _audit_creation_method            'ToBaCCo'
  _symmetry_space_group_name_H-M    'P1'
  _symmetry_Int_Tables_number       1
  _symmetry_cell_setting            triclinic
  loop_
  _symmetry_equiv_pos_as_xyz
 x,y,z
_cell_length_a 41.6275
_cell_length_b 41.8431
_cell_length_c 48.7040
_cell_angle_alpha 89.955700
_cell_angle_beta 89.941800
_cell_angle_gamma 90.014400
loop_
  _atom_site_label
  _atom_site_type_symbol
  _atom_site_fract_x
  _atom_site_fract_y
  _atom_site_fract_z
Zr1 Zr 0.24687 0.24852 0.29810
 O2 O 0.27008 0.27287 0.33067
 O3 O 0.21582 0.21791 0.31986
 O4 O 0.21590 0.27872 0.32063
 O5 O 0.30983 0.19534 0.28778
 O6 O 0.19046 0.30860 0.28792
 O7 O 0.27906 0.21963 0.32058
 O8 O 0.18780 0.19278 0.28586
 O9 O 0.20504 0.24968 0.27423
 O10 O 0.24802 0.20725 0.27389
 O11 O 0.24942 0.29130 0.27548
 O12 O 0.29033 0.25054 0.27575
 Zr13 Zr 0.25116 0.25310 0.20225
 Zr14 Zr 0.20863 0.29119 0.25027
 Zr15 Zr 0.28960 0.21023 0.25008
 Zr16 Zr 0.20753 0.20940 0.24896
 O17 O 0.34026 0.21389 0.24820
 O18 O 0.15718 0.21692 0.24727
 O19 O 0.24899 0.20980 0.22450
 O20 O 0.20821 0.25070 0.22496
 O21 O 0.25030 0.29465 0.22621
 O22 O 0.29272 0.25165 0.22635
 C23 C 0.19432 0.19837 0.31109
 C24 C 0.30239 0.20152 0.31291
 C25 C 0.19655 0.30103 0.31301
 O26 O 0.15800 0.28692 0.24953
 O27 O 0.19110 0.30951 0.21269
 O28 O 0.22091 0.28417 0.17986
 C29 C 0.19862 0.30353 0.18756
 O30 O 0.31130 0.30793 0.28890
 Zr31 Zr 0.29086 0.29186 0.25138
 O32 O 0.28203 0.28388 0.18048
 O33 O 0.21313 0.34154 0.25113
 O34 O 0.28351 0.34198 0.25319
 O35 O 0.34140 0.28552 0.25043
 O36 O 0.30759 0.31148 0.21448
 C37 C 0.30183 0.30512 0.18925
 O38 O 0.22644 0.23024 0.16969
 O39 O 0.28565 0.15984 0.25182
 O40 O 0.27994 0.22102 0.17962
 O41 O 0.30429 0.19016 0.21227
 O42 O 0.21370 0.15909 0.24978
 O43 O 0.19117 0.18926 0.21143
 C44 C 0.29803 0.19769 0.18719
 H45 H 0.24829 0.18740 0.28497
 H46 H 0.18918 0.25030 0.21281
 H47 H 0.31263 0.25131 0.21522
 H48 H 0.24997 0.31020 0.28767
 H49 H 0.14658 0.19619 0.25118
 H50 H 0.14925 0.30893 0.25013
 H51 H 0.19104 0.35034 0.25060
 H52 H 0.30436 0.35245 0.24922
 H53 H 0.19238 0.14938 0.25339
 H54 H 0.30785 0.15132 0.25236
 H55 H 0.34870 0.19176 0.24756
 H56 H 0.35124 0.30670 0.24688
 H57 H 0.17302 0.17457 0.21513
 H58 H 0.23521 0.23868 0.15216
 H59 H 0.26160 0.26412 0.34820
 H60 H 0.32606 0.32600 0.28521
 Zr61 Zr 0.74946 0.75272 0.29789
 O62 O 0.72591 0.72727 0.32972
 O63 O 0.77966 0.78320 0.32050
 O64 O 0.78056 0.72276 0.32045
 O65 O 0.68601 0.80522 0.28742
 O66 O 0.80719 0.69390 0.28775
 O67 O 0.71642 0.78074 0.32033
 O68 O 0.80819 0.80921 0.28722
 O69 O 0.79179 0.75253 0.27456
 O70 O 0.74833 0.79445 0.27423
 O71 O 0.74799 0.71034 0.27470
 O72 O 0.70650 0.75059 0.27495
 Zr73 Zr 0.74721 0.75001 0.20197
 Zr74 Zr 0.78928 0.71144 0.25002
 Zr75 Zr 0.70728 0.79141 0.24984
 Zr76 Zr 0.78935 0.79327 0.24981
 O77 O 0.65672 0.78715 0.24712
 O78 O 0.83982 0.78640 0.24862
 O79 O 0.74839 0.79287 0.22483
 O80 O 0.78969 0.75242 0.22524
 O81 O 0.74812 0.70803 0.22541
 O82 O 0.70514 0.75044 0.22551
 C83 C 0.80124 0.80301 0.31229
 C84 C 0.69299 0.79866 0.31256
 C85 C 0.80056 0.70104 0.31285
 O86 O 0.83985 0.71630 0.24965
 O87 O 0.80740 0.69375 0.21237
 O88 O 0.77800 0.71955 0.17954
 C89 C 0.80017 0.70006 0.18723
 O90 O 0.68596 0.69278 0.28707
 Zr91 Zr 0.70703 0.70976 0.25004
 O92 O 0.71728 0.71927 0.17936
 O93 O 0.78539 0.66104 0.25052
 O94 O 0.71487 0.65970 0.25147
 O95 O 0.65645 0.71551 0.24831
 O96 O 0.69161 0.69049 0.21265
 C97 C 0.69782 0.69741 0.18758
 O98 O 0.77246 0.77380 0.17013
 O99 O 0.71049 0.84179 0.25242
 O100 O 0.71857 0.78231 0.17940
 O101 O 0.69324 0.81219 0.21219
 O102 O 0.78259 0.84348 0.25131
 O103 O 0.80618 0.81440 0.21279
 C104 C 0.70013 0.80533 0.18709
 H105 H 0.74759 0.81405 0.28558
 H106 H 0.80894 0.75323 0.21332
 H107 H 0.68549 0.75074 0.21409
 H108 H 0.74750 0.69122 0.28667
 H109 H 0.85008 0.80716 0.25298
 H110 H 0.84884 0.69438 0.25016
 H111 H 0.80759 0.65253 0.25011
 H112 H 0.69422 0.64908 0.24710
 H113 H 0.80371 0.85333 0.25539
 H114 H 0.68818 0.85002 0.25274
 H115 H 0.64801 0.80918 0.24669
 H116 H 0.64698 0.69429 0.24428
 H117 H 0.82404 0.82926 0.21693
 H118 H 0.76413 0.76567 0.15235
 H119 H 0.73384 0.73577 0.34750
 H120 H 0.67129 0.67479 0.28293
 Zr121 Zr 0.75417 0.24677 -0.29985
 O122 O 0.73105 0.27087 -0.33263
 O123 O 0.78589 0.21660 -0.32133
 O124 O 0.78507 0.27710 -0.32229
 O125 O 0.69131 0.19344 -0.28972
 O126 O 0.81017 0.30720 -0.28957
 O127 O 0.72230 0.21764 -0.32245
 O128 O 0.81392 0.19191 -0.28707
 O129 O 0.79579 0.24830 -0.27572
 O130 O 0.75313 0.20553 -0.27557
 O131 O 0.75119 0.28959 -0.27736
 O132 O 0.71054 0.24859 -0.27775
 Zr133 Zr 0.74913 0.25154 -0.20404
 Zr134 Zr 0.79179 0.28985 -0.25192
 Zr135 Zr 0.71135 0.20834 -0.25198
 Zr136 Zr 0.79339 0.20804 -0.25037
 O137 O 0.66066 0.21163 -0.25024
 O138 O 0.84369 0.21578 -0.24807
 O139 O 0.75174 0.20822 -0.22617
 O140 O 0.79228 0.24941 -0.22650
 O141 O 0.74991 0.29303 -0.22813
 O142 O 0.70776 0.24977 -0.22835
 C143 C 0.80772 0.19753 -0.31237
 C144 C 0.69887 0.19958 -0.31483
 C145 C 0.80428 0.29949 -0.31467
 O146 O 0.84243 0.28594 -0.25084
 O147 O 0.80882 0.30845 -0.21428
 O148 O 0.77901 0.28284 -0.18156
 C149 C 0.80114 0.30244 -0.18917
 O150 O 0.68917 0.30564 -0.29117
 Zr151 Zr 0.70955 0.28994 -0.25349
 O152 O 0.71815 0.28238 -0.18254
 O153 O 0.78694 0.34015 -0.25303
 O154 O 0.71646 0.34011 -0.25568
 O155 O 0.65906 0.28317 -0.25254
 O156 O 0.69276 0.30985 -0.21674
 C157 C 0.69852 0.30370 -0.19146
 O158 O 0.77370 0.22889 -0.17126
 O159 O 0.71560 0.15798 -0.25373
 O160 O 0.72036 0.21926 -0.18152
 O161 O 0.69662 0.18811 -0.21428
 O162 O 0.78759 0.15770 -0.25142
 O163 O 0.80928 0.18794 -0.21265
 C164 C 0.70260 0.19571 -0.18918
 H165 H 0.75313 0.18570 -0.28665
 H166 H 0.81121 0.24917 -0.21423
 H167 H 0.68780 0.24937 -0.21728
 H168 H 0.75061 0.30846 -0.28962
 H169 H 0.85443 0.19509 -0.25178
 H170 H 0.85103 0.30801 -0.25146
 H171 H 0.80897 0.34911 -0.25241
 H172 H 0.69549 0.35042 -0.25190
 H173 H 0.80902 0.14818 -0.25486
 H174 H 0.69346 0.14932 -0.25437
 H175 H 0.65235 0.18944 -0.24964
 H176 H 0.64906 0.30428 -0.24904
 H177 H 0.82740 0.17318 -0.21617
 H178 H 0.76471 0.23731 -0.15381
 H179 H 0.73973 0.26214 -0.35009
 H180 H 0.67399 0.32336 -0.28759
 Zr181 Zr 0.24817 0.75179 -0.29620
 O182 O 0.27177 0.72722 -0.32847
 O183 O 0.21720 0.78206 -0.31831
 O184 O 0.21735 0.72156 -0.31882
 O185 O 0.31109 0.80494 -0.28564
 O186 O 0.19124 0.69207 -0.28618
 O187 O 0.28067 0.78064 -0.31858
 O188 O 0.18874 0.80732 -0.28466
 O189 O 0.20605 0.75082 -0.27260
 O190 O 0.24908 0.79320 -0.27218
 O191 O 0.25027 0.70913 -0.27337
 O192 O 0.29135 0.74979 -0.27354
 Zr193 Zr 0.25124 0.74773 -0.20028
 Zr194 Zr 0.20917 0.70944 -0.24843
 Zr195 Zr 0.29036 0.79024 -0.24804
 Zr196 Zr 0.20829 0.79125 -0.24752
 O197 O 0.34098 0.78645 -0.24577
 O198 O 0.15790 0.78390 -0.24589
 O199 O 0.24945 0.79090 -0.22276
 O200 O 0.20857 0.75009 -0.22330
 O201 O 0.25056 0.70608 -0.22411
 O202 O 0.29311 0.74894 -0.22408
 C203 C 0.19539 0.80145 -0.30985
 C204 C 0.30398 0.79877 -0.31083
 C205 C 0.19766 0.69950 -0.31126
 O206 O 0.15856 0.71382 -0.24790
 O207 O 0.19132 0.69121 -0.21084
 O208 O 0.22067 0.71683 -0.17795
 C209 C 0.19854 0.69729 -0.18565
 O210 O 0.31242 0.69252 -0.28630
 Zr211 Zr 0.29143 0.70861 -0.24898
 O212 O 0.28148 0.71671 -0.17817
 O213 O 0.21358 0.65910 -0.24922
 O214 O 0.28414 0.65849 -0.25099
 O215 O 0.34196 0.71487 -0.24735
 O216 O 0.30721 0.68876 -0.21190
 C217 C 0.30103 0.69511 -0.18672
 O218 O 0.22621 0.77090 -0.16802
 O219 O 0.28658 0.84062 -0.25002
 O220 O 0.27992 0.77988 -0.17759
 O221 O 0.30464 0.81053 -0.21025
 O222 O 0.21455 0.84154 -0.24879
 O223 O 0.19173 0.81182 -0.21020
 C224 C 0.29810 0.80318 -0.18517
 H225 H 0.24947 0.81296 -0.28338
 H226 H 0.18940 0.75057 -0.21127
 H227 H 0.31285 0.74923 -0.21277
 H228 H 0.25088 0.69016 -0.28549
 H229 H 0.14740 0.80462 -0.24998
 H230 H 0.14976 0.69182 -0.24849
 H231 H 0.19146 0.65034 -0.24878
 H232 H 0.30494 0.64803 -0.24688
 H233 H 0.19330 0.85121 -0.25265
 H234 H 0.30880 0.84910 -0.25043
 H235 H 0.34949 0.80855 -0.24518
 H236 H 0.35166 0.69368 -0.24360
 H237 H 0.17375 0.82663 -0.21409
 H238 H 0.23474 0.76253 -0.15039
 H239 H 0.26353 0.73589 -0.34609
 H240 H 0.32740 0.67470 -0.28244
 Zr241 Zr 1.24956 1.25280 0.79777
 O242 O 1.22588 1.22746 0.82960
 O243 O 1.27982 1.28317 0.82038
 O244 O 1.28054 1.22278 0.82037
 O245 O 1.18641 1.30558 0.78723
 O246 O 1.30704 1.19375 0.78771
 O247 O 1.21668 1.28097 0.82016
 O248 O 1.30852 1.30899 0.78709
 O249 O 1.29189 1.25239 0.77446
 O250 O 1.24863 1.29451 0.77408
 O251 O 1.24787 1.21040 0.77464
 O252 O 1.20659 1.25088 0.77483
 Zr253 Zr 1.24729 1.25006 0.70189
 Zr254 Zr 1.28915 1.21130 0.74998
 Zr255 Zr 1.20758 1.29166 0.74968
 Zr256 Zr 1.28966 1.29312 0.74968
 O257 O 1.15700 1.28767 0.74697
 O258 O 1.34009 1.28600 0.74851
 O259 O 1.24870 1.29293 0.72469
 O260 O 1.28978 1.25225 0.72516
 O261 O 1.24799 1.20809 0.72537
 O262 O 1.20522 1.25068 0.72541
 C263 C 1.30148 1.30288 0.81216
 C264 C 1.19335 1.29899 0.81236
 C265 C 1.30046 1.20098 0.81280
 O266 O 1.33975 1.21590 0.74954
 O267 O 1.30708 1.19345 0.71236
 O268 O 1.27783 1.21939 0.67951
 C269 C 1.29985 1.19977 0.68723
 O270 O 1.18572 1.19322 0.78702
 Zr271 Zr 1.20691 1.21002 0.74998
 O272 O 1.21725 1.21945 0.67928
 O273 O 1.28503 1.16092 0.75056
 O274 O 1.21451 1.15992 0.75145
 O275 O 1.15635 1.21595 0.74821
 O276 O 1.19147 1.19078 0.71259
 C277 C 1.19773 1.19766 0.68752
 O278 O 1.27270 1.27369 0.67007
 O279 O 1.21104 1.34204 0.75223
 O280 O 1.21879 1.28242 0.67927
 O281 O 1.19362 1.31246 0.71202
 O282 O 1.28315 1.34336 0.75115
 O283 O 1.30664 1.31412 0.71265
 C284 C 1.20046 1.30552 0.68693
 H285 H 1.24798 1.31413 0.78541
 H286 H 1.30903 1.25293 0.71323
 H287 H 1.18556 1.25106 0.71399
 H288 H 1.24729 1.19130 0.78664
 H289 H 1.35045 1.30671 0.75288
 H290 H 1.34863 1.19394 0.75007
 H291 H 1.30720 1.15230 0.75014
 H292 H 1.19381 1.14939 0.74707
 H293 H 1.30432 1.35311 0.75524
 H294 H 1.18876 1.35037 0.75255
 H295 H 1.14840 1.30974 0.74654
 H296 H 1.14681 1.19476 0.74419
 H297 H 1.32453 1.32893 0.71680
 H298 H 1.26436 1.26560 0.65229
 H299 H 1.23384 1.23594 0.84738
 H300 H 1.17103 1.17524 0.78290
 Zr301 Zr 0.74692 0.74875 0.79805
 O302 O 0.77013 0.77332 0.83050
 O303 O 0.71594 0.71824 0.81994
 O304 O 0.71591 0.77899 0.82048
 O305 O 0.80992 0.69563 0.78791
 O306 O 0.69045 0.80871 0.78769
 O307 O 0.77912 0.72005 0.82062
 O308 O 0.68790 0.69296 0.78604
 O309 O 0.70508 0.74975 0.77420
 O310 O 0.74810 0.70735 0.77400
 O311 O 0.74945 0.79143 0.77529
 O312 O 0.79038 0.75066 0.77568
 Zr313 Zr 0.75120 0.75280 0.70222
 Zr314 Zr 0.70866 0.79114 0.75010
 Zr315 Zr 0.78966 0.71022 0.75016
 Zr316 Zr 0.70760 0.70934 0.74908
 O317 O 0.84032 0.71387 0.74823
 O318 O 0.65724 0.71680 0.74734
 O319 O 0.74905 0.70961 0.72461
 O320 O 0.70826 0.75052 0.72494
 O321 O 0.75032 0.79448 0.72602
 O322 O 0.79277 0.75152 0.72631
 C323 C 0.69444 0.69867 0.81125
 C324 C 0.80248 0.70197 0.81300
 C325 C 0.69654 0.80123 0.81281
 O326 O 0.65803 0.78686 0.74937
 O327 O 0.69116 0.80924 0.71248
 O328 O 0.72097 0.78373 0.67974
 C329 C 0.69869 0.80310 0.68738
 O330 O 0.81133 0.80812 0.78864
 Zr331 Zr 0.79088 0.79186 0.75118
 O332 O 0.78203 0.78345 0.68032
 O333 O 0.71314 0.84149 0.75078
 O334 O 0.78353 0.84199 0.75281
 O335 O 0.84143 0.78555 0.75025
 O336 O 0.80754 0.81128 0.71421
 C337 C 0.80181 0.80475 0.68900
 O338 O 0.72646 0.72976 0.66977
 O339 O 0.78575 0.65984 0.75215
 O340 O 0.77998 0.72064 0.67969
 O341 O 0.80435 0.68994 0.71244
 O342 O 0.71377 0.65903 0.75013
 O343 O 0.69125 0.68899 0.71162
 C344 C 0.79808 0.69735 0.68733
 H345 H 0.74838 0.68756 0.78516
 H346 H 0.68922 0.75004 0.71280
 H347 H 0.81268 0.75113 0.71518
 H348 H 0.74998 0.81039 0.78742
 H349 H 0.64666 0.69609 0.75134
 H350 H 0.64928 0.80888 0.74987
 H351 H 0.69104 0.85028 0.75022
 H352 H 0.80439 0.85243 0.74880
 H353 H 0.69246 0.64935 0.75378
 H354 H 0.80795 0.65134 0.75272
 H355 H 0.84876 0.69174 0.74771
 H356 H 0.85125 0.80671 0.74658
 H357 H 0.67314 0.67428 0.71539
 H358 H 0.73522 0.73810 0.65220
 H359 H 0.76167 0.76466 0.84807
 H360 H 0.82609 0.82616 0.78488
 Zr361 Zr 1.25425 0.74726 0.20014
 O362 O 1.23104 0.77159 0.16752
 O363 O 1.28606 0.71741 0.17848
 O364 O 1.28509 0.77779 0.17788
 O365 O 1.19160 0.69364 0.20987
 O366 O 1.31006 0.80773 0.21076
 O367 O 1.22258 0.71822 0.17734
 O368 O 1.31417 0.69255 0.21259
 O369 O 1.29583 0.74871 0.22428
 O370 O 1.25332 0.70580 0.22416
 O371 O 1.25108 0.78990 0.22284
 O372 O 1.21057 0.74872 0.22219
 Zr373 Zr 1.24907 0.75118 0.29590
 Zr374 Zr 1.29165 0.79005 0.24830
 Zr375 Zr 1.21150 0.70826 0.24772
 Zr376 Zr 1.29355 0.70824 0.24939
 O377 O 1.16079 0.71133 0.24942
 O378 O 1.34381 0.71610 0.25181
 O379 O 1.25186 0.70804 0.27355
 O380 O 1.29225 0.74941 0.27348
 O381 O 1.24974 0.79287 0.27207
 O382 O 1.20772 0.74950 0.27157
 C383 C 1.30796 0.69837 0.18733
 C384 C 1.19921 0.70004 0.18483
 C385 C 1.30423 0.80016 0.18563
 O386 O 1.34231 0.78633 0.24945
 O387 O 1.30849 0.80841 0.28606
 O388 O 1.27872 0.78239 0.31859
 C389 C 1.30077 0.80214 0.31111
 O390 O 1.18899 0.80572 0.20906
 Zr391 Zr 1.20941 0.78988 0.24667
 O392 O 1.21803 0.78176 0.31758
 O393 O 1.28665 0.84035 0.24746
 O394 O 1.21614 0.84009 0.24475
 O395 O 1.15894 0.78301 0.24759
 O396 O 1.19261 0.80945 0.28353
 C397 C 1.19838 0.80311 0.30878
 O398 O 1.27371 0.72829 0.32851
 O399 O 1.21593 0.65793 0.24568
 O400 O 1.22031 0.71873 0.31823
 O401 O 1.19673 0.68774 0.28530
 O402 O 1.28795 0.65788 0.24799
 O403 O 1.30945 0.68788 0.28700
 C404 C 1.20262 0.69521 0.31045
 H405 H 1.25340 0.68607 0.21295
 H406 H 1.31117 0.74914 0.28577
 H407 H 1.18775 0.74896 0.28262
 H408 H 1.25046 0.80885 0.21068
 H409 H 1.35462 0.69548 0.24796
 H410 H 1.35083 0.80844 0.24897
 H411 H 1.30865 0.84937 0.24815
 H412 H 1.19513 0.85029 0.24858
 H413 H 1.30942 0.64849 0.24451
 H414 H 1.19381 0.64920 0.24498
 H415 H 1.15257 0.68911 0.24985
 H416 H 1.14890 0.80407 0.25119
 H417 H 1.32760 0.67318 0.28341
 H418 H 1.26472 0.73652 0.34602
 H419 H 1.23975 0.76306 0.15000
 H420 H 1.17380 0.82343 0.21269
 Zr421 Zr 0.74926 1.25038 0.20395
 O422 O 0.77307 1.22574 0.17183
 O423 O 0.71814 1.28030 0.18170
 O424 O 0.71857 1.21995 0.18143
 O425 O 0.81175 1.30406 0.21432
 O426 O 0.69266 1.19044 0.21416
 O427 O 0.78147 1.27934 0.18146
 O428 O 0.68946 1.30556 0.21527
 O429 O 0.70716 1.24926 0.22755
 O430 O 0.74989 1.29192 0.22782
 O431 O 0.75167 1.20783 0.22690
 O432 O 0.79246 1.24883 0.22661
 Zr433 Zr 0.75242 1.24688 0.29984
 Zr434 Zr 0.71059 1.20803 0.25184
 Zr435 Zr 0.79119 1.28939 0.25197
 Zr436 Zr 0.70911 1.28984 0.25248
 O437 O 0.84185 1.28598 0.25421
 O438 O 0.65878 1.28212 0.25415
 O439 O 0.75029 1.28993 0.27724
 O440 O 0.70971 1.24879 0.27683
 O441 O 0.75200 1.20511 0.27616
 O442 O 0.79427 1.24823 0.27604
 C443 C 0.69621 1.29956 0.19013
 C444 C 0.80461 1.29766 0.18919
 C445 C 0.69897 1.19785 0.18906
 O446 O 0.65994 1.21200 0.25247
 O447 O 0.69299 1.18982 0.28949
 O448 O 0.72216 1.21589 0.32228
 C449 C 0.70023 1.19614 0.31461
 O450 O 0.81398 1.19171 0.21400
 Zr451 Zr 0.79285 1.20776 0.25128
 O452 O 0.78279 1.21615 0.32206
 O453 O 0.71536 1.15771 0.25116
 O454 O 0.78596 1.15758 0.24940
 O455 O 0.84334 1.21435 0.25294
 O456 O 0.80867 1.18816 0.28844
 C457 C 0.80242 1.19459 0.31359
 O458 O 0.72721 1.27008 0.33198
 O459 O 0.78706 1.33974 0.24980
 O460 O 0.78091 1.27926 0.32243
 O461 O 0.80537 1.30996 0.28967
 O462 O 0.71498 1.34016 0.25100
 O463 O 0.69240 1.31046 0.28973
 C464 C 0.79892 1.30265 0.31478
 H465 H 0.75013 1.31163 0.21656
 H466 H 0.69054 1.24919 0.28887
 H467 H 0.81401 1.24870 0.28736
 H468 H 0.75239 1.18883 0.21483
 H469 H 0.64812 1.30274 0.24997
 H470 H 0.65131 1.18994 0.25195
 H471 H 0.69331 1.14879 0.25163
 H472 H 0.80685 1.14730 0.25353
 H473 H 0.69364 1.34965 0.24714
 H474 H 0.80922 1.34837 0.24938
 H475 H 0.85019 1.30815 0.25472
 H476 H 0.85316 1.19324 0.25676
 H477 H 0.67431 1.32511 0.28579
 H478 H 0.73577 1.26187 0.34965
 H479 H 0.76478 1.23422 0.15416
 H480 H 0.82909 1.17402 0.21791
 O481 O 0.54394 1.05830 0.04967
 O482 O 0.58046 1.03021 0.02373
 C483 C 0.57297 1.05065 0.04284
 O484 O 0.45535 0.94356 0.04711
 O485 O 0.41883 0.97349 0.02274
 C486 C 0.42633 0.95140 0.04044
 O487 O 0.54396 0.94674 0.05017
 O488 O 0.58048 0.97466 0.02405
 C489 C 0.57300 0.95433 0.04325
 O490 O 0.45534 1.06134 0.04701
 O491 O 0.41896 1.03066 0.02322
 C492 C 0.42633 1.05300 0.04069
 Zr493 Zr 0.49967 1.04284 0.03355
 O494 O 0.49690 1.04456 0.07693
 O495 O 0.50111 1.09318 0.02998
 Zr496 Zr 0.49966 0.96298 0.03468
 O497 O 0.49842 0.96913 0.07773
 O498 O 0.50042 0.91272 0.03931
 O499 O 0.52872 1.00291 0.03946
 O500 O 0.47124 1.00288 0.03914
 O501 O 0.45564 1.06066 -0.04854
 O502 O 0.41904 1.03108 -0.02381
 C503 C 0.42658 1.05294 -0.04175
 O504 O 0.54395 0.94548 -0.04998
 O505 O 0.58049 0.97392 -0.02440
 C506 C 0.57298 0.95316 -0.04323
 O507 O 0.45529 0.94340 -0.04794
 O508 O 0.41891 0.97397 -0.02403
 C509 C 0.42628 0.95164 -0.04152
 O510 O 0.54439 1.05741 -0.05113
 O511 O 0.58070 1.02933 -0.02500
 C512 C 0.57337 1.04961 -0.04425
 Zr513 Zr 0.49991 1.04184 -0.03532
 O514 O 0.49633 1.04048 -0.07869
 O515 O 0.50297 1.09234 -0.03582
 Zr516 Zr 0.49970 0.96175 -0.03446
 O517 O 0.49634 0.96177 -0.07786
 O518 O 0.50249 0.91122 -0.03370
 Zr519 Zr 0.54851 1.00216 -0.00043
 Zr520 Zr 0.45107 1.00228 -0.00044
 O521 O 0.47157 1.00182 -0.03996
 O522 O 0.52881 1.00165 -0.04035
 O523 O 0.47088 1.04864 -0.00094
 O524 O 0.52776 0.95629 0.00016
 O525 O 0.52809 1.04818 -0.00089
 O526 O 0.47097 0.95590 0.00015
 H527 H 0.45679 1.00290 0.05532
 H528 H 0.54198 0.93732 0.00031
 H529 H 0.45723 1.00180 -0.05619
 H530 H 0.54242 1.06709 -0.00104
 H531 H 0.50550 0.90355 0.02115
 H532 H 0.48457 0.90329 -0.02219
 H533 H 0.51474 0.97411 -0.08514
 H534 H 0.51500 1.02840 -0.08577
 H535 H 0.48826 1.10042 -0.02144
 H536 H 0.50118 1.10165 0.04898
 H537 H 0.51156 1.02795 0.08413
 H538 H 0.49756 0.94737 0.08573
 O539 O 1.04381 0.55844 0.54966
 O540 O 1.08042 0.53040 0.52376
 C541 C 1.07287 0.55088 0.54283
 O542 O 0.95553 0.44341 0.54714
 O543 O 0.91894 0.47325 0.52276
 C544 C 0.92648 0.45116 0.54046
 O545 O 1.04413 0.44683 0.55020
 O546 O 1.08058 0.47483 0.52407
 C547 C 1.07314 0.45448 0.54326
 O548 O 0.95522 0.56120 0.54703
 O549 O 0.91892 0.53044 0.52323
 C550 C 0.92623 0.55279 0.54071
 Zr551 Zr 0.99960 0.54282 0.53356
 O552 O 0.99684 0.54453 0.57694
 O553 O 1.00089 0.59316 0.52997
 Zr554 Zr 0.99978 0.46296 0.53472
 O555 O 0.99853 0.46913 0.57777
 O556 O 1.00067 0.41271 0.53937
 O557 O 1.02875 0.50296 0.53949
 O558 O 0.97127 0.50279 0.53916
 O559 O 0.95556 0.56051 0.45146
 O560 O 0.91901 0.53088 0.47619
 C561 C 0.92652 0.55274 0.45825
 O562 O 1.04411 0.44551 0.45008
 O563 O 1.08060 0.47405 0.47563
 C564 C 1.07313 0.45325 0.45682
 O565 O 0.95546 0.44326 0.45210
 O566 O 0.91901 0.47375 0.47600
 C567 C 0.92643 0.45145 0.45852
 O568 O 1.04431 0.55742 0.44886
 O569 O 1.08068 0.52946 0.47503
 C570 C 1.07330 0.54968 0.45575
 Zr571 Zr 0.99985 0.54180 0.46469
 O572 O 0.99627 0.54044 0.42132
 O573 O 1.00282 0.59230 0.46420
 Zr574 Zr 0.99982 0.46171 0.46557
 O575 O 0.99648 0.46170 0.42218
 O576 O 1.00273 0.41118 0.46635
 Zr577 Zr 1.04854 0.50224 0.49960
 Zr578 Zr 0.95110 0.50214 0.49958
 O579 O 0.97160 0.50171 0.46006
 O580 O 1.02885 0.50167 0.45967
 O581 O 0.97080 0.54854 0.49907
 O582 O 1.02789 0.45632 0.50020
 O583 O 1.02801 0.54821 0.49912
 O584 O 0.97111 0.45581 0.50019
 H585 H 0.95681 0.50278 0.55535
 H586 H 1.04216 0.43738 0.50036
 H587 H 0.95727 0.50166 0.44383
 H588 H 1.04230 0.56716 0.49895
 H589 H 1.00575 0.40355 0.52120
 H590 H 0.98481 0.40321 0.47786
 H591 H 1.01487 0.47405 0.41489
 H592 H 1.01492 0.52833 0.41424
 H593 H 0.98807 0.60036 0.47855
 H594 H 1.00094 0.60165 0.54897
 H595 H 1.01159 0.52799 0.58414
 H596 H 0.99771 0.44737 0.58577
 O597 O 1.05525 0.45676 0.04976
 O598 O 1.02652 0.42050 0.02419
 C599 C 1.04736 0.42790 0.04308
 O600 O 0.94054 0.54561 0.04792
 O601 O 0.97056 0.58168 0.02311
 C602 C 0.94854 0.57443 0.04111
 O603 O 0.94304 0.45740 0.05112
 O604 O 0.97064 0.42084 0.02493
 C605 C 0.95046 0.42844 0.04427
 O606 O 1.05888 0.54485 0.04671
 O607 O 1.02807 0.58119 0.02302
 C608 C 1.05068 0.57374 0.04031
 Zr609 Zr 1.03979 0.50083 0.03363
 O610 O 1.04183 0.50372 0.07699
 O611 O 1.09035 0.49905 0.02981
 Zr612 Zr 0.95952 0.50136 0.03533
 O613 O 0.96610 0.50258 0.07834
 O614 O 0.90902 0.50116 0.04020
 O615 O 0.99951 0.47219 0.03993
 O616 O 0.99989 0.52939 0.03939
 O617 O 1.05736 0.54418 -0.04883
 O618 O 1.02822 0.58091 -0.02402
 C619 C 1.04997 0.57318 -0.04211
 O620 O 0.94102 0.45725 -0.04930
 O621 O 0.96948 0.42076 -0.02374
 C622 C 0.94866 0.42832 -0.04260
 O623 O 0.93952 0.54546 -0.04731
 O624 O 0.97075 0.58149 -0.02374
 C625 C 0.94816 0.57426 -0.04109
 O626 O 1.05338 0.45594 -0.05089
 O627 O 1.02510 0.42008 -0.02446
 C628 C 1.04541 0.42718 -0.04382
 Zr629 Zr 1.03815 0.50039 -0.03525
 O630 O 1.03623 0.50380 -0.07862
 O631 O 1.08887 0.49703 -0.03618
 Zr632 Zr 0.95764 0.50115 -0.03377
 O633 O 0.95684 0.50443 -0.07716
 O634 O 0.90684 0.49869 -0.03231
 Zr635 Zr 0.99826 0.45239 0.00012
 Zr636 Zr 0.99910 0.54935 -0.00025
 O637 O 0.99808 0.52884 -0.03969
 O638 O 0.99750 0.47191 -0.03986
 O639 O 1.04552 0.52931 -0.00101
 O640 O 0.95230 0.47330 0.00096
 O641 O 1.04464 0.47243 -0.00075
 O642 O 0.95233 0.52990 0.00077
 H643 H 1.00021 0.54380 0.05552
 H644 H 0.93320 0.45919 0.00124
 H645 H 0.99804 0.54304 -0.05597
 H646 H 1.06358 0.45809 -0.00097
 H647 H 0.89963 0.49502 0.02236
 H648 H 0.89919 0.51677 -0.02095
 H649 H 0.96986 0.48662 -0.08452
 H650 H 1.02433 0.48500 -0.08555
 H651 H 1.09724 0.51140 -0.02173
 H652 H 1.09901 0.49902 0.04876
 H653 H 1.02523 0.48911 0.08435
 H654 H 0.94431 0.50355 0.08648
 O655 O 0.44041 0.95561 0.45121
 O656 O 0.46826 0.91914 0.47730
 C657 C 0.44779 0.92670 0.45818
 O658 O 0.55674 1.04245 0.45290
 O659 O 0.52719 1.07930 0.47719
 C660 C 0.54924 1.07148 0.45944
 O661 O 0.55245 0.95435 0.45032
 O662 O 0.52409 0.91850 0.47670
 C663 C 0.54451 0.92559 0.45737
 O664 O 0.43833 1.04380 0.45334
 O665 O 0.46966 1.07982 0.47685
 C666 C 0.44707 1.07262 0.45945
 Zr667 Zr 0.45645 0.99961 0.46706
 O668 O 0.45453 1.00203 0.42367
 O669 O 0.40586 0.99880 0.47082
 Zr670 Zr 0.53672 0.99869 0.46568
 O671 O 0.53040 0.99967 0.42264
 O672 O 0.58722 0.99728 0.46096
 O673 O 0.49623 0.97020 0.46119
 O674 O 0.49694 1.02738 0.46118
 O675 O 0.43943 1.04427 0.54893
 O676 O 0.46950 1.08014 0.52392
 C677 C 0.44752 1.07303 0.54196
 O678 O 0.55410 0.95498 0.55045
 O679 O 0.52495 0.91878 0.52518
 C680 C 0.54601 0.92615 0.54387
 O681 O 0.55722 1.04316 0.54806
 O682 O 0.52691 1.07955 0.52400
 C683 C 0.54928 1.07207 0.54151
 O684 O 0.44151 0.95601 0.55214
 O685 O 0.46918 0.91932 0.52615
 C686 C 0.44895 0.92701 0.54546
 Zr687 Zr 0.45770 0.99989 0.53591
 O688 O 0.45922 1.00379 0.57926
 O689 O 0.40691 0.99745 0.53647
 Zr690 Zr 0.53820 0.99912 0.53482
 O691 O 0.53835 1.00276 0.57820
 O692 O 0.58896 0.99574 0.53396
 Zr693 Zr 0.49688 0.95077 0.50118
 Zr694 Zr 0.49794 1.04774 0.50064
 O695 O 0.49829 1.02763 0.54027
 O696 O 0.49777 0.97068 0.54099
 O697 O 0.45111 1.02860 0.50139
 O698 O 0.54322 0.97089 0.50033
 O699 O 0.45087 0.97164 0.50166
 O700 O 0.54431 1.02739 0.50004
 H701 H 0.49703 1.04163 0.44492
 H702 H 0.56212 0.95651 0.50017
 H703 H 0.49855 1.04201 0.55643
 H704 H 0.43171 0.95760 0.50196
 H705 H 0.59642 0.99236 0.47915
 H706 H 0.59712 1.01341 0.52237
 H707 H 0.52593 0.98453 0.58561
 H708 H 0.47138 0.98526 0.58640
 H709 H 0.39893 1.01225 0.52216
 H710 H 0.39725 0.99860 0.45186
 H711 H 0.47112 0.98729 0.41649
 H712 H 0.55225 1.00022 0.41457
 O713 O 1.06054 1.05213 0.46116
 O714 O 1.02886 1.02417 0.43089
 C715 C 1.05144 1.04441 0.43668
 O716 O 1.05836 0.93837 0.53716
 O717 O 1.03074 0.96884 0.56852
 C718 C 1.05089 0.94651 0.56195
 O719 O 1.06012 0.94220 0.46113
 O720 O 1.02878 0.97061 0.43091
 C721 C 1.05123 0.95025 0.43666
 O722 O 1.05892 1.05564 0.53718
 O723 O 1.03098 1.02535 0.56855
 C724 C 1.05140 1.04746 0.56196
 Zr725 Zr 1.04268 1.03745 0.49951
 O726 O 1.09348 1.03849 0.50083
 O727 O 1.03965 1.08785 0.49818
 Zr728 Zr 1.04268 0.95725 0.49946
 O729 O 1.09334 0.96069 0.50001
 O730 O 1.04439 0.90682 0.49650
 O731 O 1.04832 0.99735 0.47478
 O732 O 1.04925 0.99726 0.52348
 O733 O 0.94839 1.05644 0.53920
 O734 O 0.97724 1.02567 0.56954
 C735 C 0.95691 1.04813 0.56369
 O736 O 0.94251 0.94219 0.46338
 O737 O 0.97222 0.97067 0.43197
 C738 C 0.95014 0.95023 0.43859
 O739 O 0.94741 0.93926 0.53939
 O740 O 0.97697 0.96937 0.56967
 C741 C 0.95608 0.94745 0.56386
 O742 O 0.94289 1.05299 0.46337
 O743 O 0.97223 1.02420 0.43197
 C744 C 0.95031 1.04480 0.43859
 Zr745 Zr 0.96207 1.03760 0.50101
 O746 O 0.91142 1.03730 0.50527
 O747 O 0.96208 1.08809 0.49833
 Zr748 Zr 0.96186 0.95724 0.50103
 O749 O 0.91122 0.95716 0.50515
 O750 O 0.96206 0.90676 0.49785
 Zr751 Zr 1.00120 0.99739 0.45904
 Zr752 Zr 1.00333 0.99726 0.54148
 O753 O 0.95657 0.99745 0.52512
 O754 O 0.95488 0.99746 0.47660
 O755 O 1.00304 1.04374 0.52483
 O756 O 1.00166 0.95129 0.47629
 O757 O 1.00182 1.04349 0.47618
 O758 O 1.00286 0.95079 0.52476
 H759 H 1.06846 0.99720 0.53548
 H760 H 1.00139 0.93243 0.46400
 H761 H 0.93796 0.99762 0.53783
 H762 H 1.00158 1.06233 0.46384
 H763 H 1.02881 0.89819 0.50992
 H764 H 0.97455 0.89823 0.51349
 H765 H 0.90235 0.97060 0.49028
 H766 H 0.90247 1.02491 0.48978
 H767 H 0.97966 1.09593 0.51021
 H768 H 1.06207 1.09581 0.49763
 H769 H 1.10122 1.02056 0.48936
 H770 H 1.10154 0.93846 0.49987
 O771 O 0.56044 0.55227 -0.03941
 O772 O 0.52852 0.52460 -0.06969
 C773 C 0.55127 0.54464 -0.06390
 O774 O 0.55712 0.43864 0.03667
 O775 O 0.52979 0.46942 0.06799
 C776 C 0.54971 0.44689 0.06144
 O777 O 0.55911 0.44238 -0.03935
 O778 O 0.52810 0.47106 -0.06962
 C779 C 0.55039 0.45052 -0.06383
 O780 O 0.55882 0.55591 0.03661
 O781 O 0.53055 0.52592 0.06798
 C782 C 0.55119 0.54784 0.06139
 Zr783 Zr 0.54244 0.53781 -0.00106
 O784 O 0.59324 0.53838 0.00030
 O785 O 0.53988 0.58824 -0.00243
 Zr786 Zr 0.54171 0.45762 -0.00106
 O787 O 0.59239 0.46061 -0.00045
 O788 O 0.54297 0.40717 -0.00399
 O789 O 0.54774 0.49764 -0.02575
 O790 O 0.54861 0.49759 0.02294
 O791 O 0.44833 0.55769 0.03853
 O792 O 0.47682 0.52665 0.06892
 C793 C 0.45674 0.54930 0.06304
 O794 O 0.44152 0.44341 -0.03724
 O795 O 0.47154 0.47159 -0.06864
 C796 C 0.44930 0.45133 -0.06202
 O797 O 0.44620 0.44049 0.03879
 O798 O 0.47602 0.47033 0.06907
 C799 C 0.45494 0.44858 0.06327
 O800 O 0.44279 0.55422 -0.03728
 O801 O 0.47187 0.52512 -0.06864
 C802 C 0.45012 0.54590 -0.06206
 Zr803 Zr 0.46183 0.53869 0.00037
 O804 O 0.41118 0.53885 0.00460
 O805 O 0.46230 0.58917 -0.00236
 Zr806 Zr 0.46088 0.45834 0.00044
 O807 O 0.41023 0.45879 0.00449
 O808 O 0.46056 0.40785 -0.00270
 Zr809 Zr 0.50065 0.49809 -0.04154
 Zr810 Zr 0.50267 0.49802 0.04090
 O811 O 0.45593 0.49861 0.02451
 O812 O 0.45431 0.49859 -0.02403
 O813 O 0.50283 0.54448 0.02422
 O814 O 0.50067 0.45200 -0.02426
 O815 O 0.50166 0.54420 -0.02443
 O816 O 0.50179 0.45154 0.02420
 H817 H 0.56780 0.49737 0.03496
 H818 H 0.50027 0.43313 -0.03654
 H819 H 0.43732 0.49895 0.03721
 H820 H 0.50159 0.56302 -0.03679
 H821 H 0.52727 0.39869 0.00940
 H822 H 0.47303 0.39922 0.01292
 H823 H 0.40151 0.47217 -0.01050
 H824 H 0.40213 0.52647 -0.01085
 H825 H 0.47996 0.59687 0.00950
 H826 H 0.56237 0.59599 -0.00299
 H827 H 0.60083 0.52041 -0.01120
 H828 H 0.60039 0.43831 -0.00053
 C829 C 0.38388 1.12486 0.11115
 C830 C 0.36151 1.15343 0.10483
 C831 C 0.33811 1.14129 0.12691
 C832 C 0.36030 1.11295 0.13347
 C833 C 0.36582 1.10477 0.08967
 C834 C 0.34242 1.09259 0.11176
 C835 C 0.34365 1.13311 0.08305
 C836 C 0.31991 1.12125 0.10548
 C837 C 0.32361 1.16167 0.14818
 C838 C 0.31205 1.17826 0.16592
 C839 C 0.38373 1.08491 0.07001
 C840 C 0.40142 1.06953 0.05544
 H841 H 0.41039 1.12620 0.11335
 H842 H 0.36933 1.17861 0.10219
 H843 H 0.36713 1.10486 0.15438
 H844 H 0.33465 1.06740 0.11440
 H845 H 0.33688 1.14116 0.06212
 H846 H 0.29339 1.12000 0.10337
 C847 C 0.84274 0.59206 0.61219
 C848 C 0.86066 0.61278 0.63361
 C849 C 0.83806 0.64081 0.62712
 C850 C 0.81981 0.62042 0.60598
 C851 C 0.86569 0.60433 0.58981
 C852 C 0.84311 0.63237 0.58325
 C853 C 0.88381 0.62479 0.61101
 C854 C 0.86103 0.65305 0.60474
 C855 C 0.82361 0.66120 0.64840
 C856 C 0.81208 0.67784 0.66613
 C857 C 0.88359 0.58454 0.57009
 C858 C 0.90129 0.56923 0.55548
 H859 H 0.83528 0.56680 0.61503
 H860 H 0.86785 0.60492 0.65449
 H861 H 0.79328 0.61884 0.60413
 H862 H 0.83597 0.64019 0.56234
 H863 H 0.91033 0.62644 0.61294
 H864 H 0.86852 0.67830 0.60189
 C865 C 0.61541 0.88376 0.11469
 C866 C 0.63485 0.85340 0.10754
 C867 C 0.66083 0.86389 0.12802
 C868 C 0.64156 0.89401 0.13541
 C869 C 0.63333 0.90205 0.09192
 C870 C 0.65929 0.91260 0.11240
 C871 C 0.65257 0.87192 0.08448
 C872 C 0.67888 0.88212 0.10530
 C873 C 0.67515 0.84257 0.14868
 C874 C 0.68649 0.82530 0.16604
 C875 C 0.61549 0.92256 0.07273
 C876 C 0.59784 0.93811 0.05828
 H877 H 0.58911 0.88461 0.11844
 H878 H 0.62485 0.82890 0.10573
 H879 H 0.63706 0.90288 0.15654
 H880 H 0.66924 0.93712 0.11419
 H881 H 0.65703 0.86308 0.06334
 H882 H 0.70519 0.88118 0.10165
 C883 C 1.11546 0.38066 0.61221
 C884 C 1.13840 0.35283 0.60501
 C885 C 1.16118 0.36406 0.62786
 C886 C 1.13841 0.39164 0.63528
 C887 C 1.13360 0.40224 0.59182
 C888 C 1.15636 0.41350 0.61467
 C889 C 1.15635 0.37465 0.58433
 C890 C 1.17946 0.38558 0.60752
 C891 C 1.17551 0.34274 0.64850
 C892 C 1.18685 0.32549 0.66587
 C893 C 1.11572 0.42275 0.57267
 C894 C 1.09803 0.43829 0.55826
 H895 H 1.08893 0.37879 0.61401
 H896 H 1.13106 0.32771 0.60124
 H897 H 1.13104 0.39840 0.65640
 H898 H 1.16366 0.43863 0.61843
 H899 H 1.16366 0.36792 0.56319
 H900 H 1.20599 0.38735 0.60582
 C901 C 0.66626 1.11820 -0.08865
 C902 C 0.67751 1.10770 -0.11769
 C903 C 0.66237 1.13814 -0.12980
 C904 C 0.65143 1.14897 -0.10113
 C905 C 0.63428 1.10072 -0.09342
 C906 C 0.61926 1.13119 -0.10559
 C907 C 0.64523 1.08992 -0.12210
 C908 C 0.63041 1.12063 -0.13447
 C909 C 0.67702 1.15906 -0.15060
 C910 C 0.68863 1.17603 -0.16806
 C911 C 0.61617 1.08065 -0.07405
 C912 C 0.59835 1.06545 -0.05945
 H913 H 0.68087 1.11695 -0.06963
 H914 H 0.70167 1.09825 -0.12292
 H915 H 0.65403 1.17348 -0.09272
 H916 H 0.59510 1.14072 -0.10043
 H917 H 0.64261 1.06541 -0.13053
 H918 H 0.61572 1.12184 -0.15346
 C919 C 1.11634 0.62159 0.38544
 C920 C 1.13926 0.64957 0.39226
 C921 C 1.16229 0.63770 0.36981
 C922 C 1.13955 0.60996 0.36276
 C923 C 1.13419 0.60055 0.40639
 C924 C 1.15721 0.58864 0.38393
 C925 C 1.15691 0.62829 0.41349
 C926 C 1.18027 0.61671 0.39069
 C927 C 1.17695 0.65851 0.34894
 C928 C 1.18860 0.67546 0.33148
 C929 C 1.11608 0.58061 0.42584
 C930 C 1.09826 0.56548 0.44049
 H931 H 1.08984 0.62344 0.38342
 H932 H 1.13192 0.67480 0.39547
 H933 H 1.13244 0.60265 0.34172
 H934 H 1.16450 0.56340 0.38073
 H935 H 1.16397 0.63558 0.43455
 H936 H 1.20678 0.61495 0.39262
 C937 C 0.34234 0.91002 -0.11173
 C938 C 0.36018 0.88891 -0.13295
 C939 C 0.33793 0.86083 -0.12567
 C940 C 0.31977 0.88161 -0.10472
 C941 C 0.36571 0.89856 -0.08938
 C942 C 0.34348 0.87048 -0.08203
 C943 C 0.38373 0.87773 -0.11039
 C944 C 0.36131 0.84941 -0.10333
 C945 C 0.32343 0.83983 -0.14648
 C946 C 0.31193 0.82285 -0.16398
 C947 C 0.38366 0.91904 -0.07022
 C948 C 0.40137 0.93481 -0.05599
 H949 H 0.33461 0.93513 -0.11498
 H950 H 0.36703 0.89630 -0.15405
 H951 H 0.29325 0.88297 -0.10260
 H952 H 0.33668 0.86314 -0.06091
 H953 H 0.41024 0.87628 -0.11260
 H954 H 0.36908 0.82431 -0.10007
 C955 C 0.84266 0.40974 0.38822
 C956 C 0.86059 0.38872 0.36699
 C957 C 0.83843 0.36056 0.37422
 C958 C 0.82017 0.38124 0.39518
 C959 C 0.86603 0.39832 0.41057
 C960 C 0.84389 0.37015 0.41787
 C961 C 0.88416 0.37758 0.38956
 C962 C 0.86182 0.34917 0.39657
 C963 C 0.82405 0.33951 0.35340
 C964 C 0.81264 0.32245 0.33591
 C965 C 0.88391 0.41880 0.42977
 C966 C 0.90156 0.43459 0.44402
 H967 H 0.83484 0.43482 0.38499
 H968 H 0.86745 0.39616 0.34590
 H969 H 0.79365 0.38251 0.39727
 H970 H 0.83709 0.36275 0.43899
 H971 H 0.91067 0.37622 0.38738
 H972 H 0.86967 0.32410 0.39981
 C973 C 1.09064 0.34687 0.11531
 C974 C 1.11923 0.32446 0.10836
 C975 C 1.14055 0.34355 0.12828
 C976 C 1.11230 0.36565 0.13550
 C977 C 1.10124 0.36933 0.09202
 C978 C 1.12262 0.38830 0.11199
 C979 C 1.12950 0.34724 0.08473
 C980 C 1.15113 0.36602 0.10500
 C981 C 1.16224 0.32977 0.14903
 C982 C 1.17940 0.31827 0.16646
 C983 C 1.08000 0.38622 0.07269
 C984 C 1.06391 0.40329 0.05813
 H985 H 1.06560 0.33903 0.11935
 H986 H 1.11808 0.29800 0.10706
 H987 H 1.10544 0.37324 0.15654
 H988 H 1.12385 0.41475 0.11337
 H989 H 1.13632 0.33970 0.06367
 H990 H 1.17616 0.37389 0.10095
 C991 C 0.62894 0.84613 0.58475
 C992 C 0.65032 0.86512 0.60506
 C993 C 0.64018 0.84234 0.62824
 C994 C 0.61912 0.82303 0.60829
 C995 C 0.60036 0.86769 0.59223
 C996 C 0.59019 0.84492 0.61543
 C997 C 0.62149 0.88688 0.61224
 C998 C 0.61160 0.86392 0.63565
 C999 C 0.66210 0.82886 0.64888
 C1000 C 0.67940 0.81760 0.66628
 C1001 C 0.57888 0.88445 0.57310
 C1002 C 0.56264 0.90152 0.55872
 H1003 H 0.63580 0.83884 0.56364
 H1004 H 0.67522 0.87341 0.60100
 H1005 H 0.61842 0.79656 0.60687
 H1006 H 0.56529 0.83666 0.61948
 H1007 H 0.62227 0.91334 0.61374
 H1008 H 0.60472 0.87125 0.65675
 C1009 C 1.13650 0.64860 -0.08417
 C1010 C 1.15303 0.63067 -0.10819
 C1011 C 1.14320 0.65773 -0.12781
 C1012 C 1.12697 0.67597 -0.10412
 C1013 C 1.10477 0.63150 -0.09094
 C1014 C 1.09491 0.65856 -0.11057
 C1015 C 1.12107 0.61337 -0.11468
 C1016 C 1.11148 0.64061 -0.13453
 C1017 C 1.16438 0.67187 -0.14889
 C1018 C 1.18118 0.68369 -0.16649
 C1019 C 1.08372 0.61452 -0.07139
 C1020 C 1.06740 0.59757 -0.05684
 H1021 H 1.14659 0.65187 -0.06328
 H1022 H 1.17706 0.61921 -0.10740
 H1023 H 1.12964 0.70191 -0.09995
 H1024 H 1.07087 0.66999 -0.11136
 H1025 H 1.11847 0.58744 -0.11893
 H1026 H 1.10137 0.63730 -0.15542
 C1027 C 0.59381 1.15382 0.38921
 C1028 C 0.62373 1.17455 0.39589
 C1029 C 0.64313 1.15567 0.37443
 C1030 C 0.61355 1.13524 0.36748
 C1031 C 0.60449 1.12968 0.41117
 C1032 C 0.62395 1.11090 0.38966
 C1033 C 0.63407 1.15008 0.41818
 C1034 C 0.65378 1.13151 0.39638
 C1035 C 0.66437 1.16960 0.35339
 C1036 C 0.68121 1.18123 0.33578
 C1037 C 0.58333 1.11277 0.43058
 C1038 C 0.56688 1.09581 0.44495
 H1039 H 0.56899 1.16295 0.38646
 H1040 H 0.62387 1.20094 0.39825
 H1041 H 0.60532 1.12912 0.34645
 H1042 H 0.62388 1.08452 0.38722
 H1043 H 0.64227 1.15615 0.43922
 H1044 H 0.67860 1.12235 0.39912
 C1045 C 0.90614 0.65745 0.11182
 C1046 C 0.87635 0.67851 0.10548
 C1047 C 0.85704 0.65973 0.12710
 C1048 C 0.88650 0.63897 0.13372
 C1049 C 0.89493 0.63350 0.08991
 C1050 C 0.87555 0.61484 0.11159
 C1051 C 0.86546 0.65423 0.08324
 C1052 C 0.84585 0.63577 0.10521
 C1053 C 0.83607 0.67372 0.14834
 C1054 C 0.81931 0.68532 0.16603
 C1055 C 0.91559 0.61638 0.07023
 C1056 C 0.93156 0.59917 0.05567
 H1057 H 0.93109 0.66633 0.11434
 H1058 H 0.87646 0.70490 0.10316
 H1059 H 0.89496 0.63268 0.15464
 H1060 H 0.87537 0.58845 0.11399
 H1061 H 0.85703 0.66048 0.06229
 H1062 H 0.82091 0.62685 0.10268
 C1063 C 0.40569 1.15587 0.61265
 C1064 C 0.37659 1.17781 0.60619
 C1065 C 0.35642 1.15913 0.62729
 C1066 C 0.38518 1.13751 0.63402
 C1067 C 0.39424 1.13264 0.59028
 C1068 C 0.37400 1.11409 0.61143
 C1069 C 0.36547 1.15425 0.58348
 C1070 C 0.34499 1.13589 0.60493
 C1071 C 0.33553 1.17323 0.64843
 C1072 C 0.31884 1.18491 0.66608
 C1073 C 0.41483 1.11532 0.57077
 C1074 C 0.43071 1.09791 0.55638
 H1075 H 0.43082 1.16404 0.61560
 H1076 H 0.37741 1.20424 0.60426
 H1077 H 0.39307 1.13062 0.65497
 H1078 H 0.37310 1.08767 0.61345
 H1079 H 0.35761 1.16108 0.56251
 H1080 H 0.31986 1.12769 0.60198
 C1081 C 0.87547 0.38838 -0.11332
 C1082 C 0.88648 0.36489 -0.13595
 C1083 C 0.85755 0.34343 -0.12919
 C1084 C 0.84630 0.36674 -0.10680
 C1085 C 0.89560 0.36969 -0.09221
 C1086 C 0.86667 0.34825 -0.08539
 C1087 C 0.90688 0.34640 -0.11462
 C1088 C 0.87763 0.32463 -0.10813
 C1089 C 0.83656 0.32932 -0.15030
 C1090 C 0.81990 0.31753 -0.16794
 C1091 C 0.91626 0.38674 -0.07252
 C1092 C 0.93208 0.40382 -0.05775
 H1093 H 0.87474 0.41480 -0.11533
 H1094 H 0.89442 0.37176 -0.15691
 H1095 H 0.82124 0.37509 -0.10377
 H1096 H 0.85875 0.34143 -0.06442
 H1097 H 0.93195 0.33807 -0.11764
 H1098 H 0.87829 0.29820 -0.10620
 C1099 C 0.37444 0.88717 0.38790
 C1100 C 0.38555 0.86437 0.36480
 C1101 C 0.35696 0.84241 0.37138
 C1102 C 0.34560 0.86503 0.39424
 C1103 C 0.39497 0.86822 0.40854
 C1104 C 0.36638 0.84628 0.41518
 C1105 C 0.40635 0.84561 0.38567
 C1106 C 0.37743 0.82335 0.39196
 C1107 C 0.33602 0.82860 0.35017
 C1108 C 0.31943 0.81703 0.33243
 C1109 C 0.41558 0.88512 0.42827
 C1110 C 0.43133 0.90219 0.44304
 H1111 H 0.37339 0.91363 0.38637
 H1112 H 0.39320 0.87182 0.34392
 H1113 H 0.32046 0.87300 0.39755
 H1114 H 0.35876 0.83888 0.43609
 H1115 H 0.43150 0.83768 0.38236
 H1116 H 0.37842 0.79689 0.39341
 C1117 C 1.13915 1.09522 0.38048
 C1118 C 1.13555 1.10551 0.35010
 C1119 C 1.13975 1.14049 0.35901
 C1120 C 1.14367 1.13054 0.38909
 C1121 C 1.10271 1.09903 0.38401
 C1122 C 1.10693 1.13403 0.39288
 C1123 C 1.09875 1.10897 0.35392
 C1124 C 1.10331 1.14433 0.36252
 C1125 C 1.16013 1.16294 0.34433
 C1126 C 1.17635 1.18019 0.33040
 C1127 C 1.08279 1.07703 0.39962
 C1128 C 1.06753 1.06073 0.41508
 H1129 H 1.15353 1.07462 0.38793
 H1130 H 1.14775 1.09415 0.33233
 H1131 H 1.16229 1.13976 0.40333
 H1132 H 1.09476 1.14542 0.41065
 H1133 H 1.08012 1.09974 0.33969
 H1134 H 1.08895 1.16493 0.35507
 C1135 C 0.63899 0.59485 -0.12063
 C1136 C 0.63482 0.60621 -0.15067
 C1137 C 0.63985 0.64081 -0.14100
 C1138 C 0.64435 0.62979 -0.11125
 C1139 C 0.60273 0.59918 -0.11635
 C1140 C 0.60778 0.63379 -0.10671
 C1141 C 0.59819 0.61018 -0.14610
 C1142 C 0.60359 0.64515 -0.13673
 C1143 C 0.66027 0.66332 -0.15552
 C1144 C 0.67650 0.68057 -0.16941
 C1145 C 0.58275 0.57714 -0.10089
 C1146 C 0.56743 0.56085 -0.08547
 H1147 H 0.65316 0.57376 -0.11395
 H1148 H 0.64636 0.59525 -0.16894
 H1149 H 0.66348 0.63822 -0.09714
 H1150 H 0.59626 0.64479 -0.08845
 H1151 H 0.57904 0.60174 -0.16019
 H1152 H 0.58943 0.66625 -0.14340
 C1153 C 0.87928 1.09291 0.63597
 C1154 C 0.88953 1.12031 0.65545
 C1155 C 0.86619 1.14278 0.64042
 C1156 C 0.85563 1.11572 0.62123
 C1157 C 0.90579 1.10329 0.61598
 C1158 C 0.88244 1.12578 0.60099
 C1159 C 0.91641 1.13035 0.63515
 C1160 C 0.89269 1.15318 0.62043
 C1161 C 0.84425 1.16400 0.65479
 C1162 C 0.82683 1.18027 0.66851
 C1163 C 0.92655 1.08186 0.60059
 C1164 C 0.94177 1.06539 0.58524
 H1165 H 0.87421 1.06790 0.64226
 H1166 H 0.89207 1.11843 0.67808
 H1167 H 0.83042 1.11012 0.61559
 H1168 H 0.87985 1.12771 0.57836
 H1169 H 0.94163 1.13592 0.64077
 H1170 H 0.89775 1.17818 0.61414
 C1171 C 0.37950 0.59426 0.13533
 C1172 C 0.38980 0.62160 0.15485
 C1173 C 0.36649 0.64412 0.13987
 C1174 C 0.35587 0.61713 0.12065
 C1175 C 0.40601 0.60465 0.11535
 C1176 C 0.38267 0.62721 0.10041
 C1177 C 0.41668 0.63165 0.13456
 C1178 C 0.39298 0.65455 0.11989
 C1179 C 0.34456 0.66525 0.15431
 C1180 C 0.32712 0.68136 0.16812
 C1181 C 0.42666 0.58320 0.09994
 C1182 C 0.44176 0.56667 0.08457
 H1183 H 0.37440 0.56924 0.14158
 H1184 H 0.39235 0.61967 0.17748
 H1185 H 0.33065 0.61159 0.11501
 H1186 H 0.38007 0.62918 0.07778
 H1187 H 0.44191 0.63717 0.14017
 H1188 H 0.39805 0.67956 0.11364
 C1189 C 1.12645 0.86891 0.60118
 C1190 C 1.15248 0.87974 0.62184
 C1191 C 1.14099 0.85358 0.64161
 C1192 C 1.11528 0.84242 0.62124
 C1193 C 1.10263 0.89212 0.61475
 C1194 C 1.09111 0.86596 0.63452
 C1195 C 1.12835 0.90326 0.63513
 C1196 C 1.11717 0.87677 0.65521
 C1197 C 1.16207 0.83289 0.65743
 C1198 C 1.17867 0.81704 0.67222
 C1199 C 1.08224 0.91305 0.59852
 C1200 C 1.06687 0.92924 0.58306
 H1201 H 1.12994 0.86601 0.57871
 H1202 H 1.17794 0.88498 0.61675
 H1203 H 1.11034 0.81718 0.61566
 H1204 H 1.06564 0.86072 0.63960
 H1205 H 1.13330 0.92850 0.64071
 H1206 H 1.11371 0.87965 0.67767
 C1207 C 0.63759 0.39714 0.11691
 C1208 C 0.63470 0.38877 0.14777
 C1209 C 0.63966 0.35339 0.14049
 C1210 C 0.64288 0.36145 0.10992
 C1211 C 0.60121 0.39219 0.11405
 C1212 C 0.60617 0.35681 0.10678
 C1213 C 0.59796 0.38415 0.14462
 C1214 C 0.60328 0.34841 0.13765
 C1215 C 0.66088 0.33256 0.15598
 C1216 C 0.67770 0.31658 0.17045
 C1217 C 0.58082 0.41326 0.09799
 C1218 C 0.56553 0.42955 0.08257
 H1219 H 0.65134 0.41756 0.10829
 H1220 H 0.64686 0.40158 0.16479
 H1221 H 0.66154 0.35181 0.09590
 H1222 H 0.59402 0.34399 0.08975
 H1223 H 0.57929 0.39381 0.15863
 H1224 H 0.58956 0.32798 0.14628
 C1225 C 0.86833 0.90840 0.36755
 C1226 C 0.87903 0.88223 0.34701
 C1227 C 0.85655 0.85842 0.36150
 C1228 C 0.84550 0.88423 0.38173
 C1229 C 0.89538 0.89780 0.38685
 C1230 C 0.87288 0.87398 0.40132
 C1231 C 0.90643 0.87198 0.36662
 C1232 C 0.88360 0.84784 0.38081
 C1233 C 0.83548 0.83704 0.34644
 C1234 C 0.81905 0.82053 0.33209
 C1235 C 0.91643 0.91872 0.40241
 C1236 C 0.93272 0.93434 0.41757
 H1237 H 0.86249 0.93353 0.36222
 H1238 H 0.88121 0.88524 0.32444
 H1239 H 0.82022 0.88882 0.38784
 H1240 H 0.87069 0.87095 0.42389
 H1241 H 0.93171 0.86738 0.36052
 H1242 H 0.88945 0.82271 0.38615
 C1243 C 0.36752 0.40881 -0.13274
 C1244 C 0.37842 0.38286 -0.15341
 C1245 C 0.35644 0.35869 -0.13881
 C1246 C 0.34520 0.38427 -0.11844
 C1247 C 0.39492 0.39856 -0.11367
 C1248 C 0.37293 0.37437 -0.09909
 C1249 C 0.40616 0.37296 -0.13404
 C1250 C 0.38384 0.34845 -0.11973
 C1251 C 0.33555 0.33708 -0.15376
 C1252 C 0.31923 0.32044 -0.16806
 C1253 C 0.41578 0.41970 -0.09819
 C1254 C 0.43196 0.43542 -0.08305
 H1255 H 0.36126 0.43387 -0.13797
 H1256 H 0.38031 0.38596 -0.17600
 H1257 H 0.31992 0.38845 -0.11214
 H1258 H 0.37101 0.37124 -0.07650
 H1259 H 0.43145 0.36877 -0.14033
 H1260 H 0.39012 0.32340 -0.11449
 C1261 C 1.09324 0.36937 -0.12390
 C1262 C 1.12991 0.37466 -0.12624
 C1263 C 1.13461 0.33837 -0.12869
 C1264 C 1.09817 0.33282 -0.12661
 C1265 C 1.09670 0.36629 -0.09258
 C1266 C 1.10132 0.32996 -0.09494
 C1267 C 1.13316 0.37178 -0.09471
 C1268 C 1.13815 0.33522 -0.09739
 C1269 C 1.15588 0.32393 -0.14934
 C1270 C 1.17320 0.31257 -0.16668
 C1271 C 1.07643 0.38435 -0.07336
 C1272 C 1.06118 0.40218 -0.05889
 H1273 H 1.07453 0.38351 -0.13466
 H1274 H 1.14183 0.39296 -0.13925
 H1275 H 1.08397 0.31666 -0.14000
 H1276 H 1.08935 0.31175 -0.08188
 H1277 H 1.14741 0.38793 -0.08137
 H1278 H 1.15691 0.32108 -0.08669
 C1279 C 0.62405 0.84257 0.41547
 C1280 C 0.61280 0.81952 0.39241
 C1281 C 0.63412 0.83770 0.37182
 C1282 C 0.64565 0.86043 0.39454
 C1283 C 0.59616 0.86514 0.40826
 C1284 C 0.61754 0.88319 0.38761
 C1285 C 0.58458 0.84243 0.38554
 C1286 C 0.60624 0.86029 0.36468
 C1287 C 0.65541 0.82344 0.35101
 C1288 C 0.67276 0.81217 0.33359
 C1289 C 0.57581 0.88297 0.42767
 C1290 C 0.56044 0.90063 0.44227
 H1291 H 0.63114 0.83534 0.43654
 H1292 H 0.61108 0.79312 0.39417
 H1293 H 0.67093 0.86781 0.39804
 H1294 H 0.61934 0.90958 0.38576
 H1295 H 0.55928 0.83509 0.38205
 H1296 H 0.59911 0.86757 0.34362
 C1297 C 0.86795 0.65692 -0.08310
 C1298 C 0.87981 0.68034 -0.10571
 C1299 C 0.85939 0.66223 -0.12692
 C1300 C 0.84723 0.63915 -0.10467
 C1301 C 0.89624 0.63467 -0.08983
 C1302 C 0.87576 0.61669 -0.11110
 C1303 C 0.90844 0.65774 -0.11209
 C1304 C 0.88768 0.63995 -0.13359
 C1305 C 0.83881 0.67661 -0.14811
 C1306 C 0.82206 0.68807 -0.16579
 C1307 C 0.91622 0.61679 -0.07026
 C1308 C 0.93165 0.59912 -0.05577
 H1309 H 0.86008 0.66383 -0.06215
 H1310 H 0.88125 0.70673 -0.10373
 H1311 H 0.82189 0.63154 -0.10184
 H1312 H 0.87424 0.59031 -0.11318
 H1313 H 0.93379 0.66531 -0.11491
 H1314 H 0.89558 0.63300 -0.15452
 C1315 C 0.36756 1.15573 0.41685
 C1316 C 0.37969 1.17892 0.39418
 C1317 C 0.35902 1.16101 0.37300
 C1318 C 0.34660 1.13815 0.39533
 C1319 C 0.39557 1.13309 0.41019
 C1320 C 0.37485 1.11531 0.38896
 C1321 C 0.40803 1.15594 0.38786
 C1322 C 0.38703 1.13835 0.36641
 C1323 C 0.33857 1.17566 0.35179
 C1324 C 0.32191 1.18736 0.33410
 C1325 C 0.41540 1.11513 0.42990
 C1326 C 0.43069 1.09747 0.44456
 H1327 H 0.35977 1.16282 0.43779
 H1328 H 0.38148 1.20529 0.39611
 H1329 H 0.32118 1.13085 0.39820
 H1330 H 0.37299 1.08895 0.38694
 H1331 H 0.43346 1.16320 0.38500
 H1332 H 0.39485 1.13121 0.34549
 C1333 C 1.12947 0.61583 0.10551
 C1334 C 1.15390 0.64276 0.09934
 C1335 C 1.14191 0.66071 0.12488
 C1336 C 1.11774 0.63396 0.13127
 C1337 C 1.10420 0.63357 0.08822
 C1338 C 1.09221 0.65152 0.11377
 C1339 C 1.12836 0.66031 0.08173
 C1340 C 1.11669 0.67858 0.10764
 C1341 C 1.16283 0.67489 0.14590
 C1342 C 1.17971 0.68622 0.16355
 C1343 C 1.08367 0.61594 0.06892
 C1344 C 1.06777 0.59844 0.05468
 H1345 H 1.13459 0.58981 0.10447
 H1346 H 1.17948 0.63920 0.09362
 H1347 H 1.11360 0.62316 0.15180
 H1348 H 1.06664 0.65506 0.11950
 H1349 H 1.13246 0.67104 0.06118
 H1350 H 1.11165 0.70460 0.10877
 C1351 C 0.59175 1.15541 0.61158
 C1352 C 0.61276 1.13760 0.63290
 C1353 C 0.64116 1.15953 0.62565
 C1354 C 0.62048 1.17765 0.60460
 C1355 C 0.60320 1.13200 0.58931
 C1356 C 0.63160 1.15391 0.58199
 C1357 C 0.62394 1.11401 0.61042
 C1358 C 0.65259 1.13612 0.60339
 C1359 C 0.66225 1.17399 0.64649
 C1360 C 0.67925 1.18555 0.66400
 C1361 C 0.58251 1.11424 0.57013
 C1362 C 0.56649 1.09675 0.55592
 H1363 H 0.56655 1.16328 0.61475
 H1364 H 0.60520 1.13090 0.65400
 H1365 H 0.61928 1.20403 0.60240
 H1366 H 0.63912 1.16056 0.56088
 H1367 H 0.62522 1.08764 0.61270
 H1368 H 0.67777 1.12821 0.60022
 C1369 C 0.87158 0.34469 0.08629
 C1370 C 0.88345 0.32151 0.10904
 C1371 C 0.86194 0.33894 0.12992
 C1372 C 0.84979 0.36179 0.10751
 C1373 C 0.89907 0.36770 0.09358
 C1374 C 0.87751 0.38501 0.11452
 C1375 C 0.91126 0.34486 0.11599
 C1376 C 0.88943 0.36197 0.13716
 C1377 C 0.84116 0.32387 0.15070
 C1378 C 0.82427 0.31193 0.16812
 C1379 C 0.91906 0.38601 0.07422
 C1380 C 0.93432 0.40376 0.05960
 H1381 H 0.86447 0.33766 0.06518
 H1382 H 0.88567 0.29518 0.10699
 H1383 H 0.82434 0.36871 0.10422
 H1384 H 0.87521 0.41132 0.11664
 H1385 H 0.93672 0.33798 0.11928
 H1386 H 0.89657 0.36905 0.15825
 C1387 C 0.36948 0.84410 0.58812
 C1388 C 0.38115 0.82084 0.61088
 C1389 C 0.35987 0.83851 0.63180
 C1390 C 0.34791 0.86146 0.60937
 C1391 C 0.39723 0.86685 0.59530
 C1392 C 0.37590 0.88441 0.61627
 C1393 C 0.40923 0.84392 0.61774
 C1394 C 0.38762 0.86129 0.63893
 C1395 C 0.33894 0.82358 0.65264
 C1396 C 0.32196 0.81169 0.67008
 C1397 C 0.41739 0.88490 0.57578
 C1398 C 0.43277 0.90244 0.56099
 H1399 H 0.36221 0.83708 0.56704
 H1400 H 0.38311 0.79449 0.60885
 H1401 H 0.32253 0.86864 0.60609
 H1402 H 0.37387 0.91075 0.61838
 H1403 H 0.43462 0.83677 0.62101
 H1404 H 0.39491 0.86834 0.65999
 C1405 C 0.34620 1.13577 -0.08330
 C1406 C 0.36479 1.15580 -0.10491
 C1407 C 0.34108 1.14471 -0.12711
 C1408 C 0.32217 1.12499 -0.10585
 C1409 C 0.36742 1.10680 -0.09015
 C1410 C 0.34372 1.09569 -0.11236
 C1411 C 0.38622 1.12657 -0.11146
 C1412 C 0.36233 1.11573 -0.13388
 C1413 C 0.32703 1.16558 -0.14825
 C1414 C 0.31535 1.18218 -0.16595
 C1415 C 0.38461 1.08608 -0.07065
 C1416 C 0.40187 1.07004 -0.05624
 H1417 H 0.33960 1.14378 -0.06232
 H1418 H 0.37344 1.18067 -0.10206
 H1419 H 0.29561 1.12458 -0.10376
 H1420 H 0.33511 1.07080 -0.11521
 H1421 H 0.41277 1.12706 -0.11363
 H1422 H 0.36898 1.10770 -0.15485
 C1423 C 0.88618 0.62567 0.38802
 C1424 C 0.86157 0.61509 0.36608
 C1425 C 0.84115 0.64464 0.37289
 C1426 C 0.86559 0.65547 0.39459
 C1427 C 0.86740 0.60663 0.40982
 C1428 C 0.84700 0.63618 0.41669
 C1429 C 0.84297 0.59577 0.38811
 C1430 C 0.82224 0.62565 0.39464
 C1431 C 0.82713 0.66557 0.35176
 C1432 C 0.81546 0.68221 0.33408
 C1433 C 0.88455 0.58587 0.42932
 C1434 C 0.90179 0.56982 0.44374
 H1435 H 0.91268 0.62552 0.38542
 H1436 H 0.86757 0.60662 0.34510
 H1437 H 0.87487 0.68018 0.39705
 H1438 H 0.84105 0.64462 0.43769
 H1439 H 0.83372 0.57105 0.38565
 H1440 H 0.79574 0.62589 0.39715
 C1441 C 0.65705 1.09233 0.11377
 C1442 C 0.67726 1.12258 0.10718
 C1443 C 0.65846 1.14109 0.12927
 C1444 C 0.63856 1.11118 0.13614
 C1445 C 0.63212 1.10306 0.09243
 C1446 C 0.61343 1.12162 0.11456
 C1447 C 0.65199 1.13297 0.08551
 C1448 C 0.63351 1.15177 0.10793
 C1449 C 0.67251 1.16213 0.15029
 C1450 C 0.68417 1.17888 0.16787
 C1451 C 0.61494 1.08249 0.07281
 C1452 C 0.59770 1.06686 0.05806
 H1453 H 0.66667 1.06772 0.11597
 H1454 H 0.70371 1.12322 0.10435
 H1455 H 0.63302 1.10243 0.15714
 H1456 H 0.58698 1.12105 0.11748
 H1457 H 0.65749 1.14170 0.06449
 H1458 H 0.62384 1.17637 0.10573
 C1459 C 1.15407 0.63199 0.58528
 C1460 C 1.13521 0.65339 0.60567
 C1461 C 1.15756 0.64244 0.62894
 C1462 C 1.17673 0.62134 0.60889
 C1463 C 1.13162 0.60395 0.59224
 C1464 C 1.15395 0.59298 0.61551
 C1465 C 1.11257 0.62510 0.61234
 C1466 C 1.13509 0.61440 0.63583
 C1467 C 1.17142 0.66368 0.64992
 C1468 C 1.18295 0.68053 0.66750
 C1469 C 1.11465 0.58312 0.57269
 C1470 C 1.09753 0.56728 0.55799
 H1471 H 1.16185 0.63898 0.56431
 H1472 H 1.12752 0.67839 0.60183
 H1473 H 1.20333 0.62003 0.60768
 H1474 H 1.16162 0.56796 0.61936
 H1475 H 1.08597 0.62649 0.61363
 H1476 H 1.12727 0.60739 0.65679
 C1477 C 0.63291 0.90504 -0.12292
 C1478 C 0.66841 0.89392 -0.12304
 C1479 C 0.65700 0.85941 -0.12796
 C1480 C 0.62177 0.87029 -0.12810
 C1481 C 0.63149 0.89889 -0.09181
 C1482 C 0.62016 0.86436 -0.09677
 C1483 C 0.66676 0.88807 -0.09158
 C1484 C 0.65563 0.85319 -0.09686
 C1485 C 0.67059 0.83766 -0.14867
 C1486 C 0.68193 0.82047 -0.16609
 C1487 C 0.61472 0.92024 -0.07256
 C1488 C 0.59765 0.93644 -0.05811
 H1489 H 0.62353 0.92661 -0.13349
 H1490 H 0.68839 0.90590 -0.13411
 H1491 H 0.60332 0.86279 -0.14322
 H1492 H 0.60017 0.85232 -0.08575
 H1493 H 0.68514 0.89562 -0.07642
 H1494 H 0.66501 0.83159 -0.08634
 C1495 C 1.12174 0.39666 0.37802
 C1496 C 1.15765 0.39589 0.36978
 C1497 C 1.15713 0.35925 0.37229
 C1498 C 1.12144 0.35979 0.38027
 C1499 C 1.13166 0.39883 0.40838
 C1500 C 1.13117 0.36218 0.41087
 C1501 C 1.16739 0.39838 0.40045
 C1502 C 1.16716 0.36133 0.40263
 C1503 C 1.17069 0.33745 0.35160
 C1504 C 1.18200 0.32024 0.33417
 C1505 C 1.11490 0.42026 0.42757
 C1506 C 1.09783 0.43652 0.44198
 H1507 H 1.10297 0.41145 0.36799
 H1508 H 1.16859 0.40958 0.35262
 H1509 H 1.10261 0.34379 0.37183
 H1510 H 1.12021 0.34847 0.42801
 H1511 H 1.18616 0.41442 0.40891
 H1512 H 1.18593 0.34649 0.41258
 C1513 C 0.34801 0.86674 0.08187
 C1514 C 0.36736 0.84747 0.10346
 C1515 C 0.34327 0.85769 0.12569
 C1516 C 0.32360 0.87665 0.10446
 C1517 C 0.36812 0.89651 0.08866
 C1518 C 0.34404 0.90676 0.11090
 C1519 C 0.38766 0.87749 0.10994
 C1520 C 0.36340 0.88745 0.13240
 C1521 C 0.33000 0.83634 0.14684
 C1522 C 0.31882 0.81936 0.16450
 C1523 C 0.38467 0.91769 0.06914
 C1524 C 0.40166 0.93406 0.05476
 H1525 H 0.34172 0.85849 0.06091
 H1526 H 0.37694 0.82293 0.10063
 H1527 H 0.29705 0.87604 0.10243
 H1528 H 0.33450 0.93131 0.11373
 H1529 H 0.41421 0.87801 0.11206
 H1530 H 0.36974 0.89574 0.15336
 C1531 C 0.84827 0.36616 0.58157
 C1532 C 0.86756 0.34683 0.60315
 C1533 C 0.84339 0.35695 0.62535
 C1534 C 0.82377 0.37596 0.60412
 C1535 C 0.86832 0.39593 0.58848
 C1536 C 0.84415 0.40607 0.61069
 C1537 C 0.88781 0.37685 0.60976
 C1538 C 0.86346 0.38671 0.63219
 C1539 C 0.83007 0.33553 0.64645
 C1540 C 0.81886 0.31858 0.66412
 C1541 C 0.88488 0.41723 0.56905
 C1542 C 0.90185 0.43370 0.55473
 H1543 H 0.84205 0.35797 0.56057
 H1544 H 0.87718 0.32232 0.60027
 H1545 H 0.79723 0.37533 0.60203
 H1546 H 0.83457 0.43059 0.61357
 H1547 H 0.91435 0.37740 0.61194
 H1548 H 0.86973 0.39494 0.65317
 C1549 C 1.09339 1.12837 0.63293
 C1550 C 1.12011 1.11827 0.65326
 C1551 C 1.14341 1.14113 0.63858
 C1552 C 1.11703 1.15157 0.61855
 C1553 C 1.10440 1.10167 0.61355
 C1554 C 1.12772 1.12454 0.59890
 C1555 C 1.13078 1.09122 0.63358
 C1556 C 1.15442 1.11444 0.61920
 C1557 C 1.16447 1.16263 0.65348
 C1558 C 1.18064 1.17944 0.66775
 C1559 C 1.08352 1.08051 0.59812
 C1560 C 1.06773 1.06438 0.58300
 H1561 H 1.06806 1.13365 0.63846
 H1562 H 1.11736 1.11607 0.67586
 H1563 H 1.11183 1.17661 0.61249
 H1564 H 1.13048 1.12677 0.57630
 H1565 H 1.13598 1.06617 0.63964
 H1566 H 1.17975 1.10916 0.61367
 C1567 C 0.62793 0.62457 0.09864
 C1568 C 0.61726 0.65159 0.11831
 C1569 C 0.64347 0.64099 0.13844
 C1570 C 0.65448 0.61430 0.11905
 C1571 C 0.60443 0.60176 0.11315
 C1572 C 0.63065 0.59115 0.13327
 C1573 C 0.59342 0.62846 0.13254
 C1574 C 0.61998 0.61820 0.15297
 C1575 C 0.66455 0.66240 0.15347
 C1576 C 0.68073 0.67918 0.16779
 C1577 C 0.58350 0.58072 0.09761
 C1578 C 0.56763 0.56468 0.08244
 H1579 H 0.63086 0.62685 0.07606
 H1580 H 0.61220 0.67668 0.11227
 H1581 H 0.67981 0.60892 0.11361
 H1582 H 0.63570 0.56606 0.13931
 H1583 H 0.56809 0.63384 0.13796
 H1584 H 0.61708 0.61594 0.17555
 C1585 C 1.11110 0.90011 0.35233
 C1586 C 1.14744 0.89616 0.35835
 C1587 C 1.14331 0.85972 0.35732
 C1588 C 1.10734 0.86330 0.35100
 C1589 C 1.10446 0.89860 0.38325
 C1590 C 1.10036 0.86216 0.38220
 C1591 C 1.14044 0.89501 0.38955
 C1592 C 1.13664 0.85825 0.38823
 C1593 C 1.16438 0.83836 0.34223
 C1594 C 1.18075 0.82152 0.32810
 C1595 C 1.08361 0.91921 0.39930
 C1596 C 1.06775 0.93458 0.41499
 H1597 H 1.10030 0.91754 0.33785
 H1598 H 1.16721 0.90976 0.34844
 H1599 H 1.09407 0.84982 0.33499
 H1600 H 1.08061 0.84853 0.39210
 H1601 H 1.15373 0.90847 0.40556
 H1602 H 1.14743 0.84083 0.40274
 C1603 C 0.59950 0.38839 -0.14703
 C1604 C 0.63570 0.39475 -0.15216
 C1605 C 0.64313 0.36036 -0.14309
 C1606 C 0.60731 0.35365 -0.13827
 C1607 C 0.60400 0.39902 -0.11718
 C1608 C 0.61147 0.36461 -0.10816
 C1609 C 0.63983 0.40573 -0.12200
 C1610 C 0.64760 0.37100 -0.11325
 C1611 C 0.66435 0.33907 -0.15815
 C1612 C 0.68081 0.32222 -0.17222
 C1613 C 0.58297 0.41951 -0.10115
 C1614 C 0.56699 0.43483 -0.08549
 H1615 H 0.57952 0.39587 -0.16068
 H1616 H 0.64610 0.40680 -0.17043
 H1617 H 0.59432 0.33186 -0.14504
 H1618 H 0.60110 0.35250 -0.08990
 H1619 H 0.65281 0.42751 -0.11522
 H1620 H 0.66756 0.36353 -0.09958
 C1621 C 0.87270 1.12080 0.40176
 C1622 C 0.88341 1.14728 0.38155
 C1623 C 0.85639 1.13698 0.36210
 C1624 C 0.84534 1.11082 0.38205
 C1625 C 0.89526 1.09726 0.38707
 C1626 C 0.86824 1.08692 0.36763
 C1627 C 0.90629 1.12343 0.36712
 C1628 C 0.87893 1.11346 0.34738
 C1629 C 0.83550 1.15880 0.34729
 C1630 C 0.81947 1.17596 0.33316
 C1631 C 0.91640 1.07627 0.40248
 C1632 C 0.93281 1.06065 0.41758
 H1633 H 0.87047 1.12347 0.42437
 H1634 H 0.88922 1.17232 0.38718
 H1635 H 0.82006 1.10609 0.38808
 H1636 H 0.86245 1.06187 0.36202
 H1637 H 0.93157 1.12817 0.36110
 H1638 H 0.88114 1.11081 0.32478
 C1639 C 0.40536 0.62357 -0.13437
 C1640 C 0.37717 0.61334 -0.15314
 C1641 C 0.35545 0.63761 -0.13840
 C1642 C 0.38330 0.64816 -0.11992
 C1643 C 0.39474 0.59819 -0.11352
 C1644 C 0.37300 0.62247 -0.09882
 C1645 C 0.36689 0.58760 -0.13200
 C1646 C 0.34482 0.61224 -0.11756
 C1647 C 0.33434 0.65931 -0.15315
 C1648 C 0.31817 0.67643 -0.16722
 C1649 C 0.41609 0.57732 -0.09815
 C1650 C 0.43259 0.56177 -0.08308
 H1651 H 0.43046 0.62780 -0.14116
 H1652 H 0.37852 0.60994 -0.17572
 H1653 H 0.38962 0.67330 -0.11505
 H1654 H 0.37163 0.62590 -0.07624
 H1655 H 0.36059 0.56245 -0.13686
 H1656 H 0.31971 0.60802 -0.11077
 C1657 C 0.87682 0.87501 0.60162
 C1658 C 0.88557 0.84684 0.62079
 C1659 C 0.86016 0.85876 0.64116
 C1660 C 0.85107 0.88661 0.62225
 C1661 C 0.90188 0.89576 0.61643
 C1662 C 0.87646 0.90769 0.63679
 C1663 C 0.91099 0.86790 0.63533
 C1664 C 0.88519 0.87948 0.65601
 C1665 C 0.83752 0.83850 0.65573
 C1666 C 0.82012 0.82246 0.66965
 C1667 C 0.92389 0.91572 0.60091
 C1668 C 0.94007 0.93111 0.58546
 H1669 H 0.87375 0.87347 0.57902
 H1670 H 0.88883 0.82162 0.61431
 H1671 H 0.82618 0.89388 0.61697
 H1672 H 0.87320 0.93291 0.64326
 H1673 H 0.93588 0.86064 0.64059
 H1674 H 0.88822 0.88097 0.67861
 C1675 C 0.37614 0.37553 0.10149
 C1676 C 0.38526 0.34770 0.12090
 C1677 C 0.35974 0.35955 0.14120
 C1678 C 0.35029 0.38706 0.12206
 C1679 C 0.40098 0.39676 0.11607
 C1680 C 0.37545 0.40862 0.13637
 C1681 C 0.41045 0.36924 0.13521
 C1682 C 0.38456 0.38076 0.15583
 C1683 C 0.33735 0.33916 0.15596
 C1684 C 0.32009 0.32300 0.16993
 C1685 C 0.42279 0.41682 0.10038
 C1686 C 0.43889 0.43225 0.08487
 H1687 H 0.37305 0.37368 0.07891
 H1688 H 0.38883 0.32244 0.11464
 H1689 H 0.32531 0.39398 0.11674
 H1690 H 0.37188 0.43388 0.14262
 H1691 H 0.43543 0.36233 0.14051
 H1692 H 0.38761 0.38256 0.17841
   
