data_POSCAR
  _audit_creation_date              2014-09-24
  _audit_creation_method            'ToBaCCo'
  _symmetry_space_group_name_H-M    'P1'
  _symmetry_Int_Tables_number       1
  _symmetry_cell_setting            triclinic
  loop_
  _symmetry_equiv_pos_as_xyz
 x,y,z
_cell_length_a 65.7729
_cell_length_b 66.3306
_cell_length_c 67.5057
_cell_angle_alpha 90.051800
_cell_angle_beta 89.206500
_cell_angle_gamma 90.076400
loop_
  _atom_site_label
  _atom_site_type_symbol
  _atom_site_fract_x
  _atom_site_fract_y
  _atom_site_fract_z
C1 C 0.19149 0.22221 0.21612
 C2 C 0.20141 0.22684 0.19818
 C3 C 0.21815 0.21579 0.19209
 C4 C 0.22516 0.19989 0.20383
 C5 C 0.21537 0.19526 0.22150
 C6 C 0.19836 0.20650 0.22770
 C7 C 0.17498 0.23054 0.22574
 N8 N 0.17157 0.22029 0.24290
 C9 C 0.18582 0.20552 0.24418
 C10 C 0.22567 0.17937 0.22980
 N11 N 0.24149 0.17425 0.21759
 C12 C 0.24119 0.18677 0.20165
 C13 C 0.22487 0.22381 0.17439
 N14 N 0.21258 0.23947 0.16954
 C15 C 0.19817 0.24139 0.18406
 H16 H 0.16595 0.24301 0.22046
 H17 H 0.18716 0.19499 0.25633
 H18 H 0.22209 0.17235 0.24388
 H19 H 0.25171 0.18632 0.18919
 H20 H 0.23768 0.21849 0.16562
 H21 H 0.18641 0.25278 0.18456
 C22 C 0.68858 0.71568 0.71244
 C23 C 0.69859 0.72005 0.69450
 C24 C 0.71587 0.70952 0.68905
 C25 C 0.72330 0.69433 0.70143
 C26 C 0.71342 0.68999 0.71915
 C27 C 0.69591 0.70081 0.72473
 C28 C 0.67159 0.72370 0.72143
 N29 N 0.66832 0.71418 0.73903
 C30 C 0.68319 0.70009 0.74112
 C31 C 0.72402 0.67463 0.72800
 N32 N 0.74009 0.66954 0.71609
 C33 C 0.73970 0.68160 0.69982
 C34 C 0.72265 0.71735 0.67126
 N35 N 0.70986 0.73239 0.66582
 C36 C 0.69507 0.73408 0.67998
 H37 H 0.66217 0.73545 0.71533
 H38 H 0.68490 0.69020 0.75371
 H39 H 0.72037 0.66783 0.74218
 H40 H 0.75031 0.68096 0.68745
 H41 H 0.73593 0.71246 0.66294
 H42 H 0.68294 0.74510 0.68005
 C43 C 0.30654 0.77343 0.71241
 C44 C 0.29493 0.76915 0.69561
 C45 C 0.27858 0.78127 0.69102
 C46 C 0.27358 0.79781 0.70308
 C47 C 0.28501 0.80205 0.71950
 C48 C 0.30159 0.78979 0.72423
 C49 C 0.32329 0.76438 0.72059
 N50 N 0.32863 0.77490 0.73704
 C51 C 0.31540 0.79048 0.73931
 C52 C 0.27695 0.81907 0.72817
 N53 N 0.26073 0.82549 0.71744
 C54 C 0.25872 0.81231 0.70200
 C55 C 0.27025 0.77380 0.67395
 N56 N 0.28115 0.75743 0.66792
 C57 C 0.29628 0.75449 0.68117
 H58 H 0.33114 0.75125 0.71482
 H59 H 0.31556 0.80139 0.75124
 H60 H 0.28276 0.82597 0.74144
 H61 H 0.24759 0.81308 0.69042
 H62 H 0.25706 0.77983 0.66662
 H63 H 0.30773 0.74282 0.68024
 C64 C 0.80978 0.27884 0.21061
 C65 C 0.79864 0.27421 0.19359
 C66 C 0.78321 0.28689 0.18768
 C67 C 0.77860 0.30422 0.19871
 C68 C 0.78946 0.30871 0.21553
 C69 C 0.80520 0.29589 0.22149
 C70 C 0.82596 0.26962 0.21955
 N71 N 0.83151 0.28060 0.23575
 C72 C 0.81863 0.29673 0.23690
 C73 C 0.78179 0.32652 0.22304
 N74 N 0.76659 0.33293 0.21113
 C75 C 0.76458 0.31931 0.19622
 C76 C 0.77534 0.27906 0.17056
 N77 N 0.78554 0.26187 0.16590
 C78 C 0.79982 0.25876 0.17995
 H79 H 0.83290 0.25580 0.21438
 H80 H 0.81905 0.30872 0.24773
 H81 H 0.78716 0.33438 0.23602
 H82 H 0.75358 0.32016 0.18448
 H83 H 0.76295 0.28537 0.16221
 H84 H 0.81054 0.24639 0.18006
 C85 C 0.81160 0.72861 0.28209
 C86 C 0.80096 0.73343 0.29958
 C87 C 0.78431 0.72214 0.30535
 C88 C 0.77795 0.70593 0.29363
 C89 C 0.78838 0.70118 0.27633
 C90 C 0.80545 0.71263 0.27055
 C91 C 0.82853 0.73685 0.27319
 N92 N 0.83316 0.72630 0.25634
 C93 C 0.81886 0.71142 0.25473
 C94 C 0.77859 0.68493 0.26799
 N95 N 0.76245 0.67980 0.27980
 C96 C 0.76208 0.69260 0.29555
 C97 C 0.77698 0.73023 0.32279
 N98 N 0.78877 0.74630 0.32777
 C99 C 0.80350 0.74829 0.31354
 H100 H 0.83688 0.74945 0.27915
 H101 H 0.81798 0.70030 0.24308
 H102 H 0.78272 0.67770 0.25414
 H103 H 0.75118 0.69220 0.30770
 H104 H 0.76410 0.72461 0.33125
 H105 H 0.81505 0.75990 0.31304
 C106 C 0.30768 0.22035 -0.21849
 C107 C 0.29760 0.22578 -0.20084
 C108 C 0.28084 0.21490 -0.19438
 C109 C 0.27400 0.19839 -0.20545
 C110 C 0.28398 0.19302 -0.22274
 C111 C 0.30091 0.20414 -0.22935
 C112 C 0.32431 0.22818 -0.22836
 N113 N 0.32796 0.21717 -0.24515
 C114 C 0.31349 0.20238 -0.24567
 C115 C 0.27415 0.17646 -0.23025
 N116 N 0.25824 0.17147 -0.21798
 C117 C 0.25820 0.18505 -0.20274
 C118 C 0.27416 0.22352 -0.17693
 N119 N 0.28648 0.23935 -0.17260
 C120 C 0.30087 0.24081 -0.18719
 H121 H 0.33276 0.24120 -0.22347
 H122 H 0.31204 0.19082 -0.25684
 H123 H 0.27836 0.16902 -0.24394
 H124 H 0.24781 0.18527 -0.19021
 H125 H 0.26144 0.21840 -0.16792
 H126 H 0.31272 0.25213 -0.18800
 C127 C 0.68844 0.27805 -0.21171
 C128 C 0.69944 0.27278 -0.19486
 C129 C 0.71548 0.28464 -0.18878
 C130 C 0.72082 0.30198 -0.19964
 C131 C 0.70996 0.30709 -0.21623
 C132 C 0.69366 0.29504 -0.22231
 C133 C 0.67190 0.26955 -0.22073
 N134 N 0.66675 0.28095 -0.23675
 C135 C 0.68025 0.29661 -0.23768
 C136 C 0.71831 0.32447 -0.22377
 N137 N 0.73421 0.33031 -0.21228
 C138 C 0.73569 0.31642 -0.19741
 C139 C 0.72307 0.27594 -0.17189
 N140 N 0.71203 0.25906 -0.16759
 C141 C 0.69759 0.25709 -0.18171
 H142 H 0.66444 0.25593 -0.21573
 H143 H 0.68034 0.30874 -0.24834
 H144 H 0.71301 0.33191 -0.23695
 H145 H 0.74656 0.31656 -0.18557
 H146 H 0.73552 0.28175 -0.16326
 H147 H 0.68659 0.24501 -0.18263
 C148 C 0.19129 0.78394 0.28772
 C149 C 0.20143 0.77717 0.30461
 C150 C 0.21826 0.78751 0.31133
 C151 C 0.22514 0.80480 0.30131
 C152 C 0.21512 0.81149 0.28479
 C153 C 0.19809 0.80099 0.27791
 C154 C 0.17450 0.77700 0.27780
 N155 N 0.17095 0.78945 0.26223
 C156 C 0.18537 0.80417 0.26223
 C157 C 0.22497 0.82855 0.27824
 N158 N 0.24094 0.83259 0.29035
 C159 C 0.24098 0.81790 0.30454
 C160 C 0.22494 0.77765 0.32793
 N161 N 0.21258 0.76158 0.33152
 C162 C 0.19815 0.76120 0.31727
 H163 H 0.16539 0.76401 0.28186
 H164 H 0.18672 0.81621 0.25149
 H165 H 0.22066 0.83703 0.26531
 H166 H 0.25144 0.81666 0.31666
 H167 H 0.23767 0.78213 0.33693
 H168 H 0.18622 0.75003 0.31605
 C169 C 0.47652 0.44898 0.46325
 C170 C 0.48119 0.45969 0.44592
 C171 C 0.46881 0.47528 0.43984
 C172 C 0.45146 0.48034 0.45118
 C173 C 0.44688 0.46968 0.46829
 C174 C 0.45948 0.45387 0.47436
 C175 C 0.48542 0.43260 0.47201
 N176 N 0.47413 0.42722 0.48819
 C177 C 0.45822 0.44027 0.48974
 C178 C 0.42905 0.47735 0.47596
 N179 N 0.42254 0.49243 0.46398
 C180 C 0.43622 0.49434 0.44876
 C181 C 0.47676 0.48228 0.42211
 N182 N 0.49352 0.47119 0.41732
 C183 C 0.49631 0.45740 0.43190
 H184 H 0.49908 0.42513 0.46679
 H185 H 0.44617 0.43956 0.50079
 H186 H 0.42150 0.47234 0.48942
 H187 H 0.43501 0.50482 0.43656
 H188 H 0.47044 0.49415 0.41309
 H189 H 0.50844 0.44642 0.43231
 C190 C -0.03046 -0.05987 0.95746
 C191 C -0.02619 -0.04814 0.94062
 C192 C -0.03837 -0.03184 0.93621
 C193 C -0.05502 -0.02707 0.94854
 C194 C -0.05922 -0.03863 0.96505
 C195 C -0.04681 -0.05515 0.96957
 C196 C -0.02115 -0.07645 0.96546
 N197 N -0.03138 -0.08212 0.98232
 C198 C -0.04717 -0.06894 0.98477
 C199 C -0.07609 -0.03046 0.97423
 N200 N -0.08241 -0.01404 0.96376
 C201 C -0.06936 -0.01204 0.94795
 C202 C -0.03054 -0.02312 0.91926
 N203 N -0.01388 -0.03373 0.91325
 C204 C -0.01115 -0.04909 0.92628
 H205 H -0.00771 -0.08350 0.95924
 H206 H -0.05844 -0.06912 0.99655
 H207 H -0.08285 -0.03622 0.98776
 H208 H -0.07003 -0.00069 0.93651
 H209 H -0.03668 -0.01009 0.91180
 H210 H 0.00110 -0.05996 0.92566
 C211 C 1.03235 0.55808 0.96722
 C212 C 1.02524 0.54743 0.95074
 C213 C 1.03558 0.53057 0.94403
 C214 C 1.05307 0.52406 0.95379
 C215 C 1.06000 0.53451 0.97000
 C216 C 1.04954 0.55165 0.97679
 C217 C 1.02544 0.57498 0.97699
 N218 N 1.03800 0.57915 0.99243
 C219 C 1.05280 0.56470 0.99224
 C220 C 1.07707 0.52473 0.97650
 N221 N 1.08083 0.50839 0.96465
 C222 C 1.06599 0.50808 0.95068
 C223 C 1.02534 0.52328 0.92791
 N224 N 1.00897 0.53527 0.92468
 C225 C 1.00881 0.55009 0.93861
 H226 H 1.01197 0.58325 0.97301
 H227 H 1.06538 0.56360 1.00229
 H228 H 1.08572 0.52934 0.98920
 H229 H 1.06441 0.49722 0.93887
 H230 H 1.02934 0.51001 0.91937
 H231 H 0.99770 0.56207 0.93974
 C232 C 0.53501 0.06567 0.46206
 C233 C 0.52938 0.05370 0.44586
 C234 C 0.53975 0.03599 0.44184
 C235 C 0.55586 0.03000 0.45389
 C236 C 0.56135 0.04175 0.46975
 C237 C 0.55092 0.05970 0.47386
 C238 C 0.52792 0.08373 0.46955
 N239 N 0.53922 0.08881 0.48553
 C240 C 0.55330 0.07413 0.48822
 C241 C 0.57759 0.03259 0.47854
 N242 N 0.58237 0.01534 0.46843
 C243 C 0.56890 0.01381 0.45325
 C244 C 0.53135 0.02764 0.42522
 N245 N 0.51612 0.03981 0.41893
 C246 C 0.51482 0.05579 0.43154
 H247 H 0.51564 0.09262 0.46361
 H248 H 0.56436 0.07378 0.49994
 H249 H 0.58539 0.03861 0.49122
 H250 H 0.56834 0.00194 0.44231
 H251 H 0.53595 0.01358 0.41837
 H252 H 0.50437 0.06828 0.43023
 C253 C -0.03073 0.05660 0.53524
 C254 C -0.02318 0.04481 0.55077
 C255 C -0.03407 0.02821 0.55734
 C256 C -0.05264 0.02323 0.54868
 C257 C -0.06014 0.03488 0.53354
 C258 C -0.04909 0.05165 0.52673
 C259 C -0.02317 0.07313 0.52521
 N260 N -0.03645 0.07826 0.51077
 C261 C -0.05238 0.06518 0.51173
 C262 C -0.07815 0.02627 0.52775
 N263 N -0.08177 0.00956 0.53899
 C264 C -0.06612 0.00768 0.55183
 C265 C -0.02324 0.01945 0.57227
 N266 N -0.00600 0.03031 0.57507
 C267 C -0.00583 0.04589 0.56197
 H268 H -0.00875 0.08045 0.52786
 H269 H -0.06548 0.06539 0.50221
 H270 H -0.08785 0.03190 0.51620
 H271 H -0.06425 -0.00439 0.56241
 H272 H -0.02783 0.00632 0.58074
 H273 H 0.00609 0.05709 0.56055
 C274 C 0.47192 0.55528 0.03791
 C275 C 0.47713 0.54455 0.05499
 C276 C 0.46572 0.52807 0.06079
 C277 C 0.44908 0.52195 0.04954
 C278 C 0.44399 0.53242 0.03263
 C279 C 0.45552 0.54931 0.02681
 C280 C 0.48012 0.57206 0.02898
 N281 N 0.46914 0.57674 0.01258
 C282 C 0.45405 0.56261 0.01126
 C283 C 0.42750 0.52274 0.02456
 N284 N 0.42254 0.50662 0.03615
 C285 C 0.43569 0.50618 0.05151
 C286 C 0.47424 0.52051 0.07769
 N287 N 0.49073 0.53191 0.08235
 C288 C 0.49252 0.54670 0.06844
 H289 H 0.49320 0.58008 0.03444
 H290 H 0.44245 0.56191 0.00011
 H291 H 0.42003 0.52688 0.01097
 H292 H 0.43557 0.49523 0.06338
 H293 H 0.46859 0.50769 0.08598
 H294 H 0.50435 0.55803 0.06779
 C295 C 0.52562 -0.06245 0.03654
 C296 C 0.52124 -0.05182 0.05404
 C297 C 0.53253 -0.03499 0.05890
 C298 C 0.54847 -0.02863 0.04637
 C299 C 0.55277 -0.03909 0.02908
 C300 C 0.54123 -0.05614 0.02412
 C301 C 0.51713 -0.07931 0.02816
 N302 N 0.52709 -0.08345 0.01082
 C303 C 0.54189 -0.06926 0.00829
 C304 C 0.56898 -0.02959 0.01997
 N305 N 0.57467 -0.01362 0.03129
 C306 C 0.56212 -0.01295 0.04747
 C307 C 0.52476 -0.02763 0.07651
 N308 N 0.50901 -0.03959 0.08245
 C309 C 0.50681 -0.05445 0.06874
 H310 H 0.50477 -0.08804 0.03451
 H311 H 0.55228 -0.06826 -0.00422
 H312 H 0.57631 -0.03424 0.00626
 H313 H 0.56270 -0.00178 0.05914
 H314 H 0.53030 -0.01461 0.08446
 H315 H 0.49529 -0.06611 0.06917
 C316 C 1.02528 0.43847 0.53971
 C317 C 1.02144 0.44888 0.55744
 C318 C 1.03310 0.46548 0.56234
 C319 C 1.04890 0.47179 0.54957
 C320 C 1.05268 0.46147 0.53216
 C321 C 1.04074 0.44474 0.52714
 C322 C 1.01652 0.42174 0.53130
 N323 N 1.02622 0.41767 0.51380
 C324 C 1.04109 0.43177 0.51121
 C325 C 1.06906 0.47051 0.52299
 N326 N 1.07559 0.48625 0.53432
 C327 C 1.06306 0.48704 0.55064
 C328 C 1.02590 0.47251 0.58033
 N329 N 1.01019 0.46055 0.58644
 C330 C 1.00742 0.44607 0.57246
 H331 H 1.00421 0.41301 0.53776
 H332 H 1.05138 0.43277 0.49861
 H333 H 1.07545 0.46573 0.50893
 H334 H 1.06425 0.49747 0.56288
 H335 H 1.03184 0.48524 0.58845
 H336 H 0.99582 0.43449 0.57297
 C337 C 0.40841 0.01017 0.22653
 H338 H 0.40997 0.02423 0.23449
 C339 C 0.42145 0.00583 0.21058
 H340 H 0.43309 0.01664 0.20642
 C341 C 0.39181 -0.02131 0.22286
 H342 H 0.38047 -0.03201 0.22784
 C343 C 0.40454 -0.02627 0.20688
 H344 H 0.40251 -0.04060 0.19947
 N345 N 0.39380 -0.00325 0.23220
 C346 C 0.34653 0.03139 0.26299
 H347 H 0.34511 0.02285 0.27659
 C348 C 0.33392 0.04797 0.25980
 H349 H 0.32293 0.05226 0.27112
 C350 C 0.36270 0.03618 0.23176
 H351 H 0.37367 0.03138 0.22071
 C352 C 0.35051 0.05293 0.22803
 H353 H 0.35228 0.06085 0.21409
 Zn354 Zn 0.37725 0.00331 0.25451
 N355 N 0.36073 0.02598 0.24915
 C356 C 0.39377 0.02630 0.28621
 N357 N 0.39493 0.00881 0.27571
 C358 C 0.40946 -0.00517 0.27949
 C359 C 0.42350 -0.00192 0.29446
 C360 C 0.40743 0.03009 0.30145
 C361 C 0.34535 -0.02381 0.24784
 C362 C 0.33238 -0.04006 0.25175
 C363 C 0.34905 -0.04477 0.28307
 C364 C 0.36171 -0.02845 0.27855
 N365 N 0.35987 -0.01855 0.26103
 H366 H 0.38239 0.03741 0.28273
 H367 H 0.41015 -0.01885 0.27077
 H368 H 0.43486 -0.01331 0.29736
 H369 H 0.40643 0.04415 0.30957
 H370 H 0.34406 -0.01552 0.23412
 H371 H 0.32131 -0.04433 0.24079
 H372 H 0.35072 -0.05241 0.29712
 H373 H 0.37300 -0.02375 0.28906
 C374 C 0.33595 0.05906 0.24218
 C375 C 0.41961 -0.01262 0.20053
 C376 C 0.33424 -0.05088 0.26951
 C377 C 0.42259 0.01590 0.30566
 C378 C 0.09773 -0.01187 0.71627
 H379 H 0.09647 -0.02544 0.72509
 C380 C 0.08605 -0.00971 0.69931
 H381 H 0.07568 -0.02166 0.69524
 C382 C 0.11236 0.02043 0.71131
 H383 H 0.12241 0.03226 0.71617
 C384 C 0.10090 0.02325 0.69427
 H385 H 0.10259 0.03712 0.68596
 N386 N 0.11078 0.00296 0.72177
 C387 C 0.15616 -0.02817 0.75700
 H388 H 0.15554 -0.01929 0.77045
 C389 C 0.16970 -0.04431 0.75539
 H390 H 0.17925 -0.04794 0.76782
 C391 C 0.14429 -0.03420 0.72455
 H392 H 0.13468 -0.03000 0.71241
 C393 C 0.15760 -0.05045 0.72230
 H394 H 0.15804 -0.05856 0.70838
 Zn395 Zn 0.12590 -0.00132 0.74506
 N396 N 0.14362 -0.02361 0.74181
 C397 C 0.10754 -0.02306 0.77710
 N398 N 0.10701 -0.00598 0.76599
 C399 C 0.09267 0.00842 0.76933
 C400 C 0.07858 0.00631 0.78485
 C401 C 0.09372 -0.02580 0.79277
 C402 C 0.15685 0.02684 0.73746
 C403 C 0.16923 0.04354 0.74099
 C404 C 0.15160 0.04850 0.77224
 C405 C 0.13953 0.03175 0.76809
 N406 N 0.14213 0.02148 0.75079
 H407 H 0.11875 -0.03455 0.77395
 H408 H 0.09236 0.02169 0.76004
 H409 H 0.06734 0.01799 0.78729
 H410 H 0.09474 -0.03925 0.80177
 H411 H 0.15881 0.01821 0.72396
 H412 H 0.18051 0.04785 0.72995
 H413 H 0.14939 0.05634 0.78617
 H414 H 0.12821 0.02690 0.77880
 C415 C 0.17048 -0.05576 0.73788
 C416 C 0.08761 0.00801 0.68801
 C417 C 0.16661 0.05469 0.75854
 C418 C 0.07912 -0.01089 0.79695
 C419 C 0.60103 0.49298 0.22087
 H420 H 0.60186 0.47894 0.22897
 C421 C 0.58731 0.49499 0.20544
 H422 H 0.57795 0.48220 0.20153
 C423 C 0.61258 0.52650 0.21616
 H424 H 0.62220 0.53885 0.22066
 C425 C 0.59887 0.52927 0.20077
 H426 H 0.59810 0.54384 0.19363
 N427 N 0.61348 0.50851 0.22576
 C428 C 0.66271 0.47797 0.25648
 H429 H 0.66269 0.48605 0.27041
 C430 C 0.67669 0.46245 0.25309
 H431 H 0.68746 0.45869 0.26449
 C432 C 0.64911 0.47357 0.22445
 H433 H 0.63862 0.47815 0.21315
 C434 C 0.66285 0.45805 0.22041
 H435 H 0.66238 0.45053 0.20618
 Zn436 Zn 0.63084 0.50458 0.24750
 N437 N 0.64909 0.48303 0.24234
 C438 C 0.61529 0.48155 0.28007
 N439 N 0.61376 0.49901 0.26964
 C440 C 0.59906 0.51277 0.27401
 C441 C 0.58539 0.50946 0.28967
 C442 C 0.60190 0.47760 0.29584
 C443 C 0.66038 0.53334 0.23774
 C444 C 0.67255 0.55041 0.24020
 C445 C 0.65624 0.55601 0.27203
 C446 C 0.64453 0.53875 0.26904
 N447 N 0.64659 0.52797 0.25198
 H448 H 0.62674 0.47056 0.27610
 H449 H 0.59791 0.52632 0.26519
 H450 H 0.57368 0.52052 0.29276
 H451 H 0.60350 0.46374 0.30412
 H452 H 0.66184 0.52437 0.22441
 H453 H 0.68326 0.55464 0.22860
 H454 H 0.65444 0.56440 0.28570
 H455 H 0.63387 0.53397 0.28040
 C456 C 0.67687 0.45227 0.23483
 C457 C 0.58598 0.51337 0.19519
 C458 C 0.67042 0.56206 0.25747
 C459 C 0.58669 0.49166 0.30082
 C460 C 0.90769 0.50623 0.73080
 H461 H 0.90852 0.52024 0.73897
 C462 C 0.92159 0.50237 0.71544
 H463 H 0.93318 0.51347 0.71193
 C464 C 0.89189 0.47454 0.72589
 H465 H 0.88045 0.46362 0.73013
 C466 C 0.90551 0.47003 0.71048
 H467 H 0.90410 0.45580 0.70275
 N468 N 0.89303 0.49251 0.73553
 C469 C 0.84377 0.52674 0.76342
 H470 H 0.84165 0.51808 0.77686
 C471 C 0.83131 0.54330 0.75974
 H472 H 0.81974 0.54745 0.77055
 C473 C 0.86161 0.53188 0.73310
 H474 H 0.87320 0.52720 0.72260
 C475 C 0.84957 0.54862 0.72888
 H476 H 0.85206 0.55668 0.71512
 Zn477 Zn 0.87476 0.49878 0.75661
 N478 N 0.85871 0.52150 0.75028
 C479 C 0.88945 0.52254 0.78833
 N480 N 0.89049 0.50424 0.77926
 C481 C 0.90340 0.48972 0.78566
 C482 C 0.91555 0.49314 0.80213
 C483 C 0.90138 0.52663 0.80479
 C484 C 0.84337 0.47238 0.74687
 C485 C 0.82923 0.45689 0.74954
 C486 C 0.84237 0.45141 0.78233
 C487 C 0.85626 0.46705 0.77904
 N488 N 0.85665 0.47704 0.76144
 H489 H 0.87956 0.53410 0.78269
 H490 H 0.90416 0.47541 0.77798
 H491 H 0.92540 0.48121 0.80723
 H492 H 0.90051 0.54139 0.81161
 H493 H 0.84383 0.48075 0.73312
 H494 H 0.81901 0.45323 0.73761
 H495 H 0.84214 0.44378 0.79650
 H496 H 0.86653 0.47131 0.79067
 C497 C 0.83423 0.55456 0.74233
 C498 C 0.92057 0.48408 0.70500
 C499 C 0.82860 0.44616 0.76746
 C500 C 0.91461 0.51180 0.81197
 C501 C 0.22280 0.40230 0.00664
 H502 H 0.23097 0.40328 0.02041
 C503 C 0.20651 0.41524 0.00318
 H504 H 0.20204 0.42597 0.01452
 C505 C 0.21865 0.38690 -0.02473
 H506 H 0.22361 0.37607 -0.03571
 C507 C 0.20228 0.39953 -0.02880
 H508 H 0.19484 0.39827 -0.04296
 N509 N 0.22835 0.38829 -0.00711
 C510 C 0.25797 0.33999 0.02542
 H511 H 0.27211 0.33877 0.01713
 C512 C 0.25397 0.32689 0.04119
 H513 H 0.26510 0.31553 0.04487
 C514 C 0.22604 0.35588 0.03017
 H515 H 0.21506 0.36700 0.02571
 C516 C 0.22141 0.34309 0.04602
 H517 H 0.20704 0.34486 0.05384
 Zn518 Zn 0.25059 0.37132 -0.00135
 N519 N 0.24419 0.35430 0.02040
 C520 C 0.28357 0.38585 0.02150
 N521 N 0.27304 0.38810 0.00444
 C522 C 0.27804 0.40271 -0.00889
 C523 C 0.29456 0.41546 -0.00556
 C524 C 0.30030 0.39815 0.02533
 C525 C 0.24288 0.34037 -0.02843
 C526 C 0.24671 0.32744 -0.04437
 C527 C 0.27935 0.34359 -0.04920
 C528 C 0.27489 0.35621 -0.03316
 N529 N 0.25680 0.35454 -0.02329
 H530 H 0.27910 0.37451 0.03215
 H531 H 0.26926 0.40432 -0.02223
 H532 H 0.29857 0.42676 -0.01652
 H533 H 0.30855 0.39612 0.03895
 H534 H 0.22877 0.33914 -0.02009
 H535 H 0.23548 0.31617 -0.04813
 H536 H 0.29367 0.34541 -0.05709
 H537 H 0.28593 0.36730 -0.02864
 C538 C 0.23550 0.32839 0.05177
 C539 C 0.19593 0.41387 -0.01471
 C540 C 0.26513 0.32900 -0.05504
 C541 C 0.30604 0.41311 0.01165
 C542 C 0.72024 0.09338 -0.00967
 H543 H 0.72954 0.09303 -0.02301
 C544 C 0.70364 0.08038 -0.00771
 H545 H 0.70038 0.06992 -0.01958
 C546 C 0.71363 0.10717 0.02216
 H547 H 0.71771 0.11748 0.03384
 C548 C 0.69690 0.09437 0.02477
 H549 H 0.68801 0.09525 0.03836
 N550 N 0.72473 0.10663 0.00501
 C551 C 0.75808 0.15284 -0.02809
 H552 H 0.77252 0.15278 -0.02062
 C553 C 0.75516 0.16555 -0.04431
 H554 H 0.76763 0.17493 -0.04942
 C555 C 0.72443 0.14041 -0.03050
 H556 H 0.71233 0.13094 -0.02483
 C557 C 0.72078 0.15301 -0.04660
 H558 H 0.70581 0.15302 -0.05306
 Zn559 Zn 0.74755 0.12354 0.00044
 N560 N 0.74293 0.14033 -0.02176
 C561 C 0.78040 0.10617 -0.02173
 N562 N 0.77009 0.10632 -0.00413
 C563 C 0.77483 0.09324 0.01060
 C564 C 0.79075 0.07955 0.00808
 C565 C 0.79644 0.09271 -0.02490
 C566 C 0.73723 0.15380 0.02760
 C567 C 0.74003 0.16743 0.04310
 C568 C 0.77385 0.15410 0.04737
 C569 C 0.77034 0.14064 0.03184
 N570 N 0.75221 0.14066 0.02239
 H571 H 0.77600 0.11619 -0.03351
 H572 H 0.76617 0.09347 0.02434
 H573 H 0.79446 0.06949 0.02011
 H574 H 0.80426 0.09261 -0.03912
 H575 H 0.72307 0.15372 0.01962
 H576 H 0.72775 0.17752 0.04717
 H577 H 0.78854 0.15412 0.05440
 H578 H 0.78230 0.13051 0.02711
 C579 C 0.73631 0.16570 -0.05387
 C580 C 0.69163 0.08084 0.00964
 C581 C 0.75859 0.16779 0.05317
 C582 C 0.80180 0.07914 -0.00988
 C583 C 0.21961 0.59238 0.48904
 H584 H 0.22866 0.59182 0.47555
 C585 C 0.20370 0.57871 0.49194
 H586 H 0.20043 0.56787 0.48042
 C587 C 0.21291 0.60741 0.52030
 H588 H 0.21676 0.61840 0.53145
 C589 C 0.19688 0.59397 0.52385
 H590 H 0.18859 0.59477 0.53780
 N591 N 0.22378 0.60648 0.50304
 C592 C 0.25465 0.65524 0.47123
 H593 H 0.26844 0.65656 0.47969
 C594 C 0.25116 0.66843 0.45551
 H595 H 0.26232 0.67994 0.45204
 C596 C 0.22301 0.63910 0.46608
 H597 H 0.21191 0.62788 0.47039
 C598 C 0.21889 0.65197 0.45028
 H599 H 0.20481 0.65015 0.44235
 Zn600 Zn 0.24610 0.62393 0.49805
 N601 N 0.24075 0.64081 0.47608
 C602 C 0.28056 0.60940 0.47614
 N603 N 0.26910 0.60744 0.49296
 C604 C 0.27311 0.59282 0.50646
 C605 C 0.28928 0.57953 0.50338
 C606 C 0.29701 0.59652 0.47254
 C607 C 0.23633 0.65505 0.52439
 C608 C 0.23906 0.66850 0.54005
 C609 C 0.27114 0.65243 0.54687
 C610 C 0.26787 0.63937 0.53097
 N611 N 0.25062 0.64082 0.52019
 H612 H 0.27688 0.62079 0.46536
 H613 H 0.26361 0.59144 0.51960
 H614 H 0.29230 0.56808 0.51437
 H615 H 0.30585 0.59815 0.45899
 H616 H 0.22284 0.65600 0.51545
 H617 H 0.22745 0.67965 0.54324
 H618 H 0.28506 0.65121 0.55516
 H619 H 0.27924 0.62824 0.52717
 C620 C 0.23306 0.66689 0.44480
 C621 C 0.19209 0.57935 0.50956
 C622 C 0.25666 0.66729 0.55152
 C623 C 0.30146 0.58127 0.48623
 C624 C 0.72003 0.90279 0.51256
 H625 H 0.72771 0.90170 0.52659
 C626 C 0.70446 0.91679 0.51018
 H627 H 0.70001 0.92623 0.52259
 C628 C 0.71665 0.89174 0.47938
 H629 H 0.72179 0.88235 0.46725
 C630 C 0.70099 0.90556 0.47634
 H631 H 0.69418 0.90656 0.46186
 N632 N 0.72567 0.89048 0.49735
 C633 C 0.75566 0.84108 0.52783
 H634 H 0.77024 0.84121 0.52022
 C635 C 0.75178 0.82697 0.54275
 H636 H 0.76346 0.81617 0.54644
 C637 C 0.72253 0.85465 0.53171
 H638 H 0.71106 0.86525 0.52717
 C639 C 0.71800 0.84080 0.54669
 H640 H 0.70317 0.84123 0.55385
 Zn641 Zn 0.74764 0.87284 0.50207
 N642 N 0.74119 0.85468 0.52277
 C643 C 0.77838 0.88851 0.52715
 N644 N 0.76998 0.88926 0.50887
 C645 C 0.77666 0.90262 0.49499
 C646 C 0.79283 0.91554 0.49901
 C647 C 0.79444 0.90136 0.53190
 C648 C 0.73913 0.84549 0.47158
 C649 C 0.74312 0.83363 0.45489
 C650 C 0.77793 0.84527 0.45514
 C651 C 0.77320 0.85709 0.47167
 N652 N 0.75398 0.85723 0.47935
 H653 H 0.77244 0.87821 0.53818
 H654 H 0.76949 0.90308 0.48067
 H655 H 0.79823 0.92562 0.48748
 H656 H 0.80065 0.90078 0.54665
 H657 H 0.72408 0.84555 0.47825
 H658 H 0.73088 0.82491 0.44860
 H659 H 0.79341 0.84517 0.44950
 H660 H 0.78502 0.86587 0.47853
 C661 C 0.73275 0.82674 0.55243
 C662 C 0.69473 0.91834 0.49186
 C663 C 0.76275 0.83345 0.44638
 C664 C 0.80195 0.91509 0.51770
 C665 C 0.00472 0.22229 0.40665
 H666 H 0.01796 0.23181 0.40825
 C667 C 0.00181 0.20581 0.41924
 H668 H 0.01304 0.20258 0.43038
 C669 C -0.02593 0.21493 0.39005
 H670 H -0.03692 0.21874 0.37894
 C671 C -0.02938 0.19825 0.40226
 H672 H -0.04303 0.18936 0.40034
 N673 N -0.00894 0.22639 0.39226
 C674 C 0.02519 0.26040 0.34771
 H675 H 0.01569 0.27366 0.34674
 C676 C 0.04245 0.25863 0.33559
 H677 H 0.04602 0.27056 0.32517
 C678 C 0.03151 0.22846 0.36204
 H679 H 0.02706 0.21663 0.37219
 C680 C 0.04892 0.22606 0.35017
 H681 H 0.05792 0.21250 0.35163
 Zn682 Zn -0.00387 0.24919 0.37605
 N683 N 0.02016 0.24552 0.36072
 C684 C 0.01698 0.28167 0.39417
 N685 N -0.00103 0.27167 0.39312
 C686 C -0.01705 0.27674 0.40504
 C687 C -0.01549 0.29279 0.41834
 C688 C 0.01929 0.29767 0.40741
 C689 C -0.02863 0.23842 0.34442
 C690 C -0.04394 0.24048 0.33045
 C691 C -0.05193 0.27315 0.34429
 C692 C -0.03648 0.27045 0.35803
 N693 N -0.02536 0.25317 0.35802
 H694 H 0.02975 0.27702 0.38504
 H695 H -0.03109 0.26830 0.40417
 H696 H -0.02861 0.29682 0.42734
 H697 H 0.03392 0.30508 0.40827
 H698 H -0.01933 0.22498 0.34450
 H699 H -0.04653 0.22835 0.32003
 H700 H -0.06043 0.28712 0.34440
 H701 H -0.03326 0.28230 0.36850
 C702 C 0.05462 0.24129 0.33674
 C703 C -0.01537 0.19347 0.41704
 C704 C -0.05588 0.25802 0.33027
 C705 C 0.00291 0.30350 0.41972
 C706 C -0.00227 0.72467 0.09293
 H707 H -0.01614 0.73332 0.09175
 C708 C 0.00077 0.70772 0.08099
 H709 H -0.01101 0.70325 0.07084
 C710 C 0.02981 0.72003 0.10780
 H711 H 0.04125 0.72509 0.11800
 C712 C 0.03349 0.70299 0.09613
 H713 H 0.04780 0.69511 0.09750
 N714 N 0.01205 0.73034 0.10616
 C715 C -0.02121 0.76526 0.15057
 H716 H -0.01237 0.77903 0.15026
 C717 C -0.03761 0.76335 0.16375
 H718 H -0.04148 0.77588 0.17337
 C719 C -0.02680 0.73228 0.13827
 H720 H -0.02229 0.72005 0.12861
 C721 C -0.04333 0.72970 0.15126
 H722 H -0.05136 0.71544 0.15143
 Zn723 Zn 0.00682 0.75375 0.12141
 N724 N -0.01624 0.74992 0.13806
 C725 C -0.01558 0.78535 0.10348
 N726 N 0.00237 0.77517 0.10347
 C727 C 0.01732 0.77941 0.08999
 C728 C 0.01471 0.79471 0.07606
 C729 C -0.01883 0.80076 0.08982
 C730 C 0.03323 0.74591 0.15250
 C731 C 0.04879 0.74961 0.16589
 C732 C 0.05509 0.78152 0.14971
 C733 C 0.03943 0.77720 0.13660
 N734 N 0.02895 0.75956 0.13813
 H735 H -0.02753 0.78139 0.11389
 H736 H 0.03132 0.77087 0.09011
 H737 H 0.02694 0.79806 0.06568
 H738 H -0.03331 0.80850 0.08992
 H739 H 0.02438 0.73219 0.15363
 H740 H 0.05175 0.73866 0.17738
 H741 H 0.06338 0.79556 0.14814
 H742 H 0.03552 0.78807 0.12538
 C743 C -0.04889 0.74535 0.16427
 C744 C 0.01884 0.69660 0.08253
 C745 C 0.05993 0.76764 0.16463
 C746 C -0.00356 0.80565 0.07587
 C747 C 0.49335 0.23094 0.59063
 H748 H 0.47968 0.23992 0.58973
 C749 C 0.49706 0.21572 0.57674
 H750 H 0.48618 0.21311 0.56512
 C751 C 0.52450 0.22402 0.60647
 H752 H 0.53532 0.22749 0.61786
 C753 C 0.52886 0.20872 0.59285
 H754 H 0.54284 0.20027 0.59422
 N755 N 0.50691 0.23466 0.60522
 C756 C 0.47188 0.26476 0.65191
 H757 H 0.48085 0.27830 0.65378
 C758 C 0.45479 0.26142 0.66396
 H759 H 0.45051 0.27264 0.67489
 C760 C 0.46670 0.23370 0.63536
 H761 H 0.47164 0.22271 0.62452
 C762 C 0.44951 0.22974 0.64709
 H763 H 0.44140 0.21569 0.64509
 Zn764 Zn 0.50130 0.25624 0.62281
 N765 N 0.47738 0.25107 0.63784
 C766 C 0.48115 0.29096 0.60774
 N767 N 0.49834 0.27958 0.60709
 C768 C 0.51371 0.28372 0.59405
 C769 C 0.51214 0.29983 0.58090
 C770 C 0.47900 0.30734 0.59494
 C771 C 0.52597 0.24427 0.65394
 C772 C 0.54132 0.24580 0.66792
 C773 C 0.54955 0.27886 0.65512
 C774 C 0.53404 0.27669 0.64135
 N775 N 0.52276 0.25950 0.64090
 H776 H 0.46890 0.28715 0.61787
 H777 H 0.52710 0.27426 0.59369
 H778 H 0.52452 0.30287 0.57058
 H779 H 0.46508 0.31603 0.59537
 H780 H 0.51660 0.23087 0.65338
 H781 H 0.54386 0.23333 0.67792
 H782 H 0.55821 0.29275 0.65541
 H783 H 0.53093 0.28882 0.63117
 C784 C 0.44336 0.24369 0.66164
 C785 C 0.51505 0.20442 0.57773
 C786 C 0.55338 0.26327 0.66864
 C787 C 0.49455 0.31179 0.58116
 C788 C 0.50695 0.71962 0.90580
 H789 H 0.52045 0.72895 0.90575
 C790 C 0.50503 0.70379 0.91927
 H791 H 0.51730 0.70086 0.92939
 C792 C 0.47463 0.71218 0.89249
 H793 H 0.46266 0.71576 0.88230
 C794 C 0.47207 0.69617 0.90575
 H795 H 0.45807 0.68757 0.90560
 N796 N 0.49194 0.72343 0.89269
 C797 C 0.52436 0.75716 0.84687
 H798 H 0.51577 0.77105 0.84712
 C799 C 0.54085 0.75500 0.83382
 H800 H 0.54504 0.76755 0.82436
 C801 C 0.52927 0.72410 0.85915
 H802 H 0.52442 0.71194 0.86875
 C803 C 0.54573 0.72121 0.84616
 H804 H 0.55333 0.70674 0.84594
 Zn805 Zn 0.49584 0.74582 0.87574
 N806 N 0.51904 0.74191 0.85933
 C807 C 0.51734 0.77865 0.89282
 N808 N 0.49925 0.76871 0.89223
 C809 C 0.48350 0.77403 0.90439
 C810 C 0.48538 0.79029 0.91739
 C811 C 0.51996 0.79486 0.90577
 C812 C 0.46971 0.73372 0.84582
 C813 C 0.45390 0.73517 0.83231
 C814 C 0.44621 0.76830 0.84525
 C815 C 0.46219 0.76621 0.85851
 N816 N 0.47344 0.74901 0.85869
 H817 H 0.52994 0.77375 0.88361
 H818 H 0.46941 0.76561 0.90394
 H819 H 0.47244 0.79450 0.92655
 H820 H 0.53465 0.80221 0.90627
 H821 H 0.47916 0.72038 0.84599
 H822 H 0.45137 0.72291 0.82205
 H823 H 0.43726 0.78199 0.84555
 H824 H 0.46570 0.77844 0.86846
 C825 C 0.55173 0.73678 0.83322
 C826 C 0.48738 0.69184 0.91943
 C827 C 0.44187 0.75265 0.83191
 C828 C 0.50384 0.80094 0.91829
 C829 C 0.12385 0.23185 0.28424
 C830 C 0.13198 0.24776 0.27290
 C831 C 0.14779 0.24397 0.25943
 C832 C 0.15556 0.22441 0.25713
 C833 C 0.14705 0.20893 0.26876
 N834 N 0.13156 0.21296 0.28171
 C835 C 0.10658 0.23484 0.29825
 N836 N 0.09442 0.21882 0.30282
 C837 C 0.07801 0.22043 0.31519
 C838 C 0.07294 0.23908 0.32380
 C839 C 0.08552 0.25569 0.31962
 C840 C 0.10233 0.25364 0.30695
 H841 H 0.15397 0.25638 0.25086
 H842 H 0.15238 0.19358 0.26726
 H843 H 0.06870 0.20724 0.31791
 H844 H 0.08250 0.27024 0.32631
 H845 H 0.12598 0.26289 0.27397
 H846 H 0.11196 0.26662 0.30430
 C847 C 0.61904 0.72563 0.77870
 C848 C 0.62512 0.74051 0.76511
 C849 C 0.64148 0.73685 0.75230
 C850 C 0.65186 0.71835 0.75282
 C851 C 0.64553 0.70403 0.76698
 N852 N 0.62955 0.70799 0.77939
 C853 C 0.60156 0.72877 0.79234
 N854 N 0.60162 0.72000 0.81056
 C855 C 0.58601 0.72233 0.82380
 C856 C 0.56894 0.73396 0.81892
 C857 C 0.56848 0.74281 0.80003
 C858 C 0.58472 0.74031 0.78678
 H859 H 0.64607 0.74865 0.74214
 H860 H 0.65295 0.68954 0.76798
 H861 H 0.58715 0.71533 0.83821
 H862 H 0.55543 0.75139 0.79532
 H863 H 0.61753 0.75496 0.76456
 H864 H 0.58385 0.74698 0.77220
 C865 C 0.37695 0.76214 0.77608
 C866 C 0.36802 0.74635 0.76532
 C867 C 0.35223 0.75054 0.75234
 C868 C 0.34529 0.77038 0.74997
 C869 C 0.35487 0.78574 0.76072
 N870 N 0.37021 0.78130 0.77325
 C871 C 0.39365 0.75880 0.79023
 N872 N 0.40571 0.77470 0.79510
 C873 C 0.42110 0.77310 0.80823
 C874 C 0.42509 0.75461 0.81750
 C875 C 0.41275 0.73803 0.81281
 C876 C 0.39704 0.74005 0.79927
 H877 H 0.34526 0.73822 0.74438
 H878 H 0.35032 0.80130 0.75907
 H879 H 0.43033 0.78624 0.81121
 H880 H 0.41499 0.72358 0.81991
 H881 H 0.37323 0.73096 0.76665
 H882 H 0.38745 0.72715 0.79638
 C883 C -0.12013 0.26877 0.27390
 C884 C -0.12269 0.25683 0.25697
 C885 C -0.13883 0.26066 0.24431
 C886 C -0.15271 0.27643 0.24831
 C887 C -0.14963 0.28777 0.26575
 N888 N -0.13379 0.28366 0.27782
 C889 C -0.10329 0.26549 0.28790
 N890 N -0.10546 0.27221 0.30688
 C891 C -0.09066 0.27000 0.32057
 C892 C -0.07220 0.26058 0.31545
 C893 C -0.06955 0.25372 0.29590
 C894 C -0.08497 0.25617 0.28211
 H895 H -0.14001 0.25125 0.23134
 H896 H -0.15976 0.29977 0.27016
 H897 H -0.09347 0.27537 0.33549
 H898 H -0.05540 0.24682 0.29114
 H899 H -0.11257 0.24443 0.25355
 H900 H -0.08227 0.25121 0.26704
 C901 C -0.11667 0.73606 0.21855
 C902 C -0.12059 0.74946 0.23417
 C903 C -0.13735 0.74633 0.24663
 C904 C -0.15057 0.72982 0.24373
 C905 C -0.14624 0.71707 0.22743
 N906 N -0.12972 0.72048 0.21554
 C907 C -0.09891 0.73861 0.20506
 N908 N -0.09968 0.73088 0.18639
 C909 C -0.08397 0.73273 0.17320
 C910 C -0.06610 0.74288 0.17854
 C911 C -0.06487 0.75064 0.19783
 C912 C -0.08114 0.74851 0.21111
 H913 H -0.13973 0.75717 0.25834
 H914 H -0.15562 0.70421 0.22406
 H915 H -0.08561 0.72657 0.15846
 H916 H -0.05118 0.75808 0.20278
 H917 H -0.11107 0.76250 0.23666
 H918 H -0.07956 0.75423 0.22601
 C919 C 0.37478 0.22723 0.71321
 C920 C 0.36010 0.21240 0.70956
 C921 C 0.34450 0.20905 0.72337
 C922 C 0.34328 0.22035 0.74109
 C923 C 0.35855 0.23500 0.74410
 N924 N 0.37359 0.23789 0.73039
 C925 C 0.39193 0.23128 0.69932
 N926 N 0.40895 0.24030 0.70643
 C927 C 0.42539 0.24451 0.69473
 C928 C 0.42534 0.23957 0.67450
 C929 C 0.40785 0.23051 0.66679
 C930 C 0.39113 0.22641 0.67908
 H931 H 0.33347 0.19760 0.71981
 H932 H 0.35898 0.24408 0.75733
 H933 H 0.43860 0.25136 0.70136
 H934 H 0.40698 0.22687 0.65119
 H935 H 0.36074 0.20313 0.69638
 H936 H 0.37770 0.21986 0.67263
 C937 C 0.61792 0.27136 0.72506
 C938 C 0.62022 0.25891 0.74165
 C939 C 0.63650 0.26201 0.75432
 C940 C 0.65080 0.27753 0.75068
 C941 C 0.64795 0.28940 0.73356
 N942 N 0.63196 0.28601 0.72148
 C943 C 0.60096 0.26884 0.71106
 N944 N 0.60323 0.27604 0.69228
 C945 C 0.58835 0.27448 0.67858
 C946 C 0.56974 0.26523 0.68349
 C947 C 0.56697 0.25792 0.70285
 C948 C 0.58246 0.25972 0.71665
 H949 H 0.63748 0.25220 0.76701
 H950 H 0.65837 0.30128 0.72944
 H951 H 0.59122 0.28020 0.66380
 H952 H 0.55269 0.25112 0.70744
 H953 H 0.60979 0.24666 0.74477
 H954 H 0.57969 0.25441 0.73159
 C955 C 0.12337 0.78326 0.22080
 C956 C 0.13163 0.80242 0.22455
 C957 C 0.14720 0.80446 0.23824
 C958 C 0.15473 0.78751 0.24818
 C959 C 0.14617 0.76862 0.24390
 N960 N 0.13102 0.76701 0.23049
 C961 C 0.10695 0.78004 0.20629
 N962 N 0.10420 0.76121 0.19872
 C963 C 0.08944 0.75693 0.18545
 C964 C 0.07624 0.77211 0.17901
 C965 C 0.07866 0.79160 0.18674
 C966 C 0.09389 0.79561 0.20039
 H967 H 0.15322 0.81934 0.24113
 H968 H 0.15170 0.75510 0.25094
 H969 H 0.08822 0.74171 0.17979
 H970 H 0.06851 0.80366 0.18255
 H971 H 0.12650 0.81571 0.21685
 H972 H 0.09498 0.81064 0.20648
 C973 C 0.28423 0.12745 0.22744
 C974 C 0.28947 0.14369 0.21499
 C975 C 0.27549 0.15912 0.21191
 C976 C 0.25615 0.15847 0.22095
 C977 C 0.25145 0.14193 0.23318
 N978 N 0.26536 0.12709 0.23600
 C979 C 0.29825 0.11037 0.23118
 N980 N 0.29053 0.09324 0.23950
 C981 C 0.30221 0.07682 0.24330
 C982 C 0.32304 0.07697 0.23854
 C983 C 0.33141 0.09451 0.23019
 C984 C 0.31917 0.11124 0.22661
 H985 H 0.27993 0.17161 0.20251
 H986 H 0.23666 0.14057 0.24023
 H987 H 0.29512 0.06356 0.24970
 H988 H 0.34750 0.09540 0.22669
 H989 H 0.30399 0.14455 0.20738
 H990 H 0.32628 0.12463 0.22061
 C991 C 0.78284 0.62296 0.72665
 C992 C 0.78825 0.63924 0.71433
 C993 C 0.77428 0.65464 0.71106
 C994 C 0.75481 0.65393 0.71983
 C995 C 0.74998 0.63739 0.73199
 N996 N 0.76386 0.62257 0.73498
 C997 C 0.79677 0.60585 0.73049
 N998 N 0.78883 0.58858 0.73832
 C999 C 0.80041 0.57214 0.74226
 C1000 C 0.82139 0.57241 0.73822
 C1001 C 0.82997 0.59007 0.73031
 C1002 C 0.81780 0.60682 0.72654
 H1003 H 0.77880 0.66714 0.70170
 H1004 H 0.73509 0.63599 0.73883
 H1005 H 0.79314 0.55879 0.74827
 H1006 H 0.84617 0.59106 0.72737
 H1007 H 0.80288 0.64010 0.70692
 H1008 H 0.82503 0.62032 0.72093
 C1009 C 0.77166 0.38083 0.77873
 C1010 C 0.75496 0.37766 0.76644
 C1011 C 0.74246 0.36095 0.76948
 C1012 C 0.74640 0.34698 0.78473
 C1013 C 0.76351 0.35081 0.79662
 N1014 N 0.77546 0.36724 0.79328
 C1015 C 0.78568 0.39815 0.77590
 N1016 N 0.80499 0.39678 0.78280
 C1017 C 0.81882 0.41188 0.78048
 C1018 C 0.81353 0.42973 0.77063
 C1019 C 0.79360 0.43162 0.76375
 C1020 C 0.77964 0.41598 0.76641
 H1021 H 0.72975 0.35930 0.75969
 H1022 H 0.76776 0.34080 0.80843
 H1023 H 0.83405 0.40975 0.78598
 H1024 H 0.78870 0.44532 0.75653
 H1025 H 0.75168 0.38769 0.75428
 H1026 H 0.76427 0.41808 0.76133
 C1027 C 0.28195 -0.11927 0.28420
 C1028 C 0.28526 -0.13401 0.29867
 C1029 C 0.27162 -0.15002 0.30078
 C1030 C 0.25442 -0.15159 0.28856
 C1031 C 0.25166 -0.13616 0.27443
 N1032 N 0.26519 -0.12075 0.27273
 C1033 C 0.29586 -0.10192 0.28115
 N1034 N 0.28864 -0.08512 0.27207
 C1035 C 0.30047 -0.06870 0.26836
 C1036 C 0.32100 -0.06858 0.27377
 C1037 C 0.32881 -0.08579 0.28305
 C1038 C 0.31635 -0.10246 0.28672
 H1039 H 0.27493 -0.16112 0.31195
 H1040 H 0.23875 -0.13595 0.26477
 H1041 H 0.29374 -0.05570 0.26133
 H1042 H 0.34467 -0.08656 0.28707
 H1043 H 0.29805 -0.13317 0.30852
 H1044 H 0.32295 -0.11571 0.29336
 C1045 C 0.22457 -0.12357 0.72848
 C1046 C 0.24131 -0.12745 0.74052
 C1047 C 0.25333 -0.14441 0.73690
 C1048 C 0.24885 -0.15784 0.72129
 C1049 C 0.23162 -0.15337 0.70982
 N1050 N 0.22020 -0.13674 0.71370
 C1051 C 0.21117 -0.10585 0.73153
 N1052 N 0.19204 -0.10641 0.72409
 C1053 C 0.17887 -0.09074 0.72597
 C1054 C 0.18471 -0.07303 0.73581
 C1055 C 0.20442 -0.07205 0.74347
 C1056 C 0.21768 -0.08834 0.74133
 H1057 H 0.26613 -0.14665 0.74646
 H1058 H 0.22689 -0.16296 0.69784
 H1059 H 0.16377 -0.09225 0.71998
 H1060 H 0.20973 -0.05853 0.75077
 H1061 H 0.24503 -0.11776 0.75283
 H1062 H 0.23295 -0.08691 0.74691
 C1063 C 0.73089 0.38563 0.21902
 C1064 C 0.73428 0.37790 0.19987
 C1065 C 0.74619 0.36071 0.19728
 C1066 C 0.75471 0.35103 0.21367
 C1067 C 0.75098 0.35922 0.23256
 N1068 N 0.73924 0.37597 0.23473
 C1069 C 0.71775 0.40343 0.22270
 N1070 N 0.70887 0.40579 0.24090
 C1071 C 0.69615 0.42137 0.24524
 C1072 C 0.69156 0.43575 0.23072
 C1073 C 0.70094 0.43390 0.21202
 C1074 C 0.71407 0.41788 0.20797
 H1075 H 0.74876 0.35503 0.18243
 H1076 H 0.75700 0.35210 0.24563
 H1077 H 0.68923 0.42220 0.25985
 H1078 H 0.69825 0.44494 0.20054
 H1079 H 0.72749 0.38466 0.18698
 H1080 H 0.72134 0.41708 0.19353
 C1081 C 0.72050 0.63221 0.26997
 C1082 C 0.71471 0.64880 0.28173
 C1083 C 0.72842 0.66451 0.28472
 C1084 C 0.74803 0.66381 0.27628
 C1085 C 0.75325 0.64699 0.26465
 N1086 N 0.73961 0.63186 0.26190
 C1087 C 0.70685 0.61472 0.26657
 N1088 N 0.71500 0.59747 0.25891
 C1089 C 0.70371 0.58063 0.25565
 C1090 C 0.68287 0.58044 0.26035
 C1091 C 0.67405 0.59809 0.26797
 C1092 C 0.68588 0.61526 0.27096
 H1093 H 0.72355 0.67724 0.29360
 H1094 H 0.76826 0.64563 0.25805
 H1095 H 0.71111 0.56730 0.24978
 H1096 H 0.65792 0.59869 0.27139
 H1097 H 0.69999 0.64972 0.28893
 H1098 H 0.67842 0.62868 0.27643
 C1099 C 0.21759 0.12356 0.77386
 C1100 C 0.21384 0.13765 0.78895
 C1101 C 0.22736 0.15360 0.79171
 C1102 C 0.24483 0.15576 0.77950
 C1103 C 0.24798 0.14103 0.76464
 N1104 N 0.23459 0.12562 0.76236
 C1105 C 0.20394 0.10621 0.77031
 N1106 N 0.21165 0.08954 0.76114
 C1107 C 0.20012 0.07303 0.75724
 C1108 C 0.17942 0.07266 0.76260
 C1109 C 0.17109 0.08978 0.77185
 C1110 C 0.18324 0.10655 0.77570
 H1111 H 0.22372 0.16422 0.80334
 H1112 H 0.26115 0.14131 0.75496
 H1113 H 0.20724 0.06013 0.75022
 H1114 H 0.15510 0.09037 0.77581
 H1115 H 0.20082 0.13630 0.79882
 H1116 H 0.17631 0.11971 0.78240
 C1117 C 0.21920 0.27655 0.11868
 C1118 C 0.19985 0.27385 0.12738
 C1119 C 0.19766 0.26159 0.14407
 C1120 C 0.21463 0.25202 0.15220
 C1121 C 0.23370 0.25520 0.14312
 N1122 N 0.23548 0.26726 0.12692
 C1123 C 0.22264 0.28968 0.10120
 N1124 N 0.24166 0.29715 0.09774
 C1125 C 0.24612 0.30935 0.08211
 C1126 C 0.23093 0.31476 0.06871
 C1127 C 0.21127 0.30700 0.07182
 C1128 C 0.20708 0.29445 0.08795
 H1129 H 0.18265 0.25950 0.15052
 H1130 H 0.24726 0.24843 0.14906
 H1131 H 0.26145 0.31508 0.08039
 H1132 H 0.19920 0.31039 0.06160
 H1133 H 0.18656 0.28135 0.12173
 H1134 H 0.19191 0.28834 0.08968
 C1135 C 0.71665 0.77053 0.61580
 C1136 C 0.69712 0.76653 0.62354
 C1137 C 0.69487 0.75377 0.63984
 C1138 C 0.71197 0.74497 0.64851
 C1139 C 0.73120 0.74925 0.64027
 N1140 N 0.73303 0.76184 0.62447
 C1141 C 0.72014 0.78460 0.59908
 N1142 N 0.73872 0.79348 0.59701
 C1143 C 0.74311 0.80678 0.58226
 C1144 C 0.72828 0.81192 0.56839
 C1145 C 0.70910 0.80272 0.57004
 C1146 C 0.70499 0.78904 0.58527
 H1147 H 0.67975 0.75079 0.64565
 H1148 H 0.74481 0.74305 0.64667
 H1149 H 0.75806 0.81359 0.58164
 H1150 H 0.69737 0.80588 0.55939
 H1151 H 0.68371 0.77352 0.61752
 H1152 H 0.69022 0.78187 0.58592
 C1153 C 0.78004 0.78426 0.37782
 C1154 C 0.79902 0.78391 0.36809
 C1155 C 0.80195 0.77132 0.35174
 C1156 C 0.78602 0.75912 0.34492
 C1157 C 0.76731 0.75983 0.35526
 N1158 N 0.76488 0.77212 0.37123
 C1159 C 0.77615 0.79722 0.39526
 N1160 N 0.76250 0.79101 0.40930
 C1161 C 0.75804 0.80220 0.42567
 C1162 C 0.76743 0.82100 0.42855
 C1163 C 0.78136 0.82778 0.41405
 C1164 C 0.78579 0.81595 0.39746
 H1165 H 0.81680 0.77101 0.34468
 H1166 H 0.75450 0.75091 0.35057
 H1167 H 0.74739 0.79621 0.43651
 H1168 H 0.78859 0.84238 0.41532
 H1169 H 0.81161 0.79291 0.37326
 H1170 H 0.79628 0.82165 0.38631
 C1171 C 0.28055 0.27724 -0.12222
 C1172 C 0.29979 0.27439 -0.13107
 C1173 C 0.30176 0.26191 -0.14764
 C1174 C 0.28464 0.25228 -0.15550
 C1175 C 0.26567 0.25567 -0.14632
 N1176 N 0.26413 0.26793 -0.13023
 C1177 C 0.27737 0.29048 -0.10476
 N1178 N 0.25844 0.29805 -0.10117
 C1179 C 0.25419 0.31024 -0.08547
 C1180 C 0.26952 0.31551 -0.07214
 C1181 C 0.28910 0.30769 -0.07542
 C1182 C 0.29308 0.29516 -0.09162
 H1183 H 0.31670 0.25966 -0.15417
 H1184 H 0.25202 0.24886 -0.15207
 H1185 H 0.23891 0.31604 -0.08362
 H1186 H 0.30126 0.31098 -0.06526
 H1187 H 0.31319 0.28190 -0.12560
 H1188 H 0.30818 0.28896 -0.09348
 C1189 C 0.72124 0.21867 -0.11976
 C1190 C 0.70244 0.21898 -0.12930
 C1191 C 0.69935 0.23241 -0.14482
 C1192 C 0.71496 0.24554 -0.15108
 C1193 C 0.73345 0.24496 -0.14086
 N1194 N 0.73605 0.23179 -0.12565
 C1195 C 0.72513 0.20461 -0.10325
 N1196 N 0.73768 0.21036 -0.08841
 C1197 C 0.74160 0.19825 -0.07266
 C1198 C 0.73270 0.17899 -0.07125
 C1199 C 0.72011 0.17265 -0.08670
 C1200 C 0.71626 0.18537 -0.10263
 H1201 H 0.68462 0.23259 -0.15171
 H1202 H 0.74598 0.25467 -0.14508
 H1203 H 0.75130 0.20389 -0.06109
 H1204 H 0.71338 0.15774 -0.08662
 H1205 H 0.69008 0.20923 -0.12460
 H1206 H 0.70670 0.18004 -0.11446
 C1207 C 0.21823 0.72092 0.37964
 C1208 C 0.19907 0.72407 0.37120
 C1209 C 0.19721 0.73740 0.35534
 C1210 C 0.21434 0.74757 0.34774
 C1211 C 0.23324 0.74378 0.35642
 N1212 N 0.23468 0.73072 0.37184
 C1213 C 0.22126 0.70698 0.39651
 N1214 N 0.24023 0.69959 0.39972
 C1215 C 0.24436 0.68688 0.41493
 C1216 C 0.22884 0.68087 0.42816
 C1217 C 0.20920 0.68849 0.42527
 C1218 C 0.20535 0.70154 0.40957
 H1219 H 0.18233 0.73990 0.34919
 H1220 H 0.24692 0.75098 0.35083
 H1221 H 0.25969 0.68128 0.41649
 H1222 H 0.19687 0.68465 0.43537
 H1223 H 0.18566 0.71620 0.37648
 H1224 H 0.19019 0.70756 0.40806
 C1225 C 0.26996 0.72199 0.61669
 C1226 C 0.26297 0.74200 0.61762
 C1227 C 0.26679 0.75365 0.63438
 C1228 C 0.27738 0.74552 0.65042
 C1229 C 0.28402 0.72545 0.64896
 N1230 N 0.28018 0.71441 0.63244
 C1231 C 0.26634 0.70859 0.59939
 N1232 N 0.27078 0.68861 0.60110
 C1233 C 0.26794 0.67523 0.58611
 C1234 C 0.26003 0.68170 0.56800
 C1235 C 0.25548 0.70221 0.56579
 C1236 C 0.25870 0.71569 0.58131
 H1237 H 0.26154 0.76909 0.63464
 H1238 H 0.29198 0.71839 0.66101
 H1239 H 0.27157 0.65952 0.58848
 H1240 H 0.24974 0.70789 0.55191
 H1241 H 0.25444 0.74878 0.60583
 H1242 H 0.25540 0.73141 0.57882
 C1243 C 0.77371 0.22451 0.11632
 C1244 C 0.77081 0.24546 0.11492
 C1245 C 0.77476 0.25772 0.13123
 C1246 C 0.78185 0.24932 0.14889
 C1247 C 0.78505 0.22842 0.14956
 N1248 N 0.78089 0.21674 0.13354
 C1249 C 0.76946 0.21052 0.09966
 N1250 N 0.77678 0.19134 0.10053
 C1251 C 0.77352 0.17752 0.08602
 C1252 C 0.76217 0.18265 0.06928
 C1253 C 0.75433 0.20228 0.06815
 C1254 C 0.75781 0.21616 0.08326
 H1255 H 0.77254 0.27382 0.12992
 H1256 H 0.79044 0.22132 0.16291
 H1257 H 0.77958 0.16248 0.08772
 H1258 H 0.74567 0.20702 0.05546
 H1259 H 0.76584 0.25257 0.10145
 H1260 H 0.75114 0.23096 0.08201
 C1261 C 0.48457 0.37683 0.52551
 C1262 C 0.49315 0.37729 0.50633
 C1263 C 0.48966 0.39380 0.49409
 C1264 C 0.47788 0.41012 0.50085
 C1265 C 0.46983 0.40923 0.52022
 N1266 N 0.47333 0.39290 0.53183
 C1267 C 0.48750 0.35965 0.53928
 N1268 N 0.48199 0.36199 0.55868
 C1269 C 0.48403 0.34703 0.57227
 C1270 C 0.49217 0.32832 0.56662
 C1271 C 0.49781 0.32547 0.54672
 C1272 C 0.49540 0.34096 0.53301
 H1273 H 0.49605 0.39359 0.47925
 H1274 H 0.46094 0.42154 0.52624
 H1275 H 0.47954 0.34985 0.58750
 H1276 H 0.50372 0.31110 0.54166
 H1277 H 0.50263 0.36528 0.50064
 H1278 H 0.49941 0.33794 0.51774
 C1279 C -0.01746 0.86943 0.01966
 C1280 C -0.00601 0.87246 0.00225
 C1281 C -0.01062 0.88855 -0.01020
 C1282 C -0.02665 0.90196 -0.00549
 C1283 C -0.03756 0.89833 0.01234
 N1284 N -0.03270 0.88254 0.02417
 C1285 C -0.01328 0.85272 0.03359
 N1286 N -0.02004 0.85437 0.05267
 C1287 C -0.01707 0.83968 0.06635
 C1288 C -0.00677 0.82189 0.06111
 C1289 C 0.00021 0.81978 0.04147
 C1290 C -0.00304 0.83507 0.02769
 H1291 H -0.00146 0.89016 -0.02348
 H1292 H -0.04983 0.90794 0.01723
 H1293 H -0.02258 0.84205 0.08135
 H1294 H 0.00782 0.80613 0.03665
 H1295 H 0.00665 0.86281 -0.00169
 H1296 H 0.00202 0.83276 0.01255
 C1297 C 0.03184 0.62722 0.03245
 C1298 C 0.04683 0.61259 0.03550
 C1299 C 0.04890 0.59658 0.02221
 C1300 C 0.03612 0.59489 0.00565
 C1301 C 0.02140 0.61014 0.00319
 N1302 N 0.01978 0.62559 0.01635
 C1303 C 0.02900 0.64471 0.04586
 N1304 N 0.01960 0.66145 0.03880
 C1305 C 0.01624 0.67808 0.05014
 C1306 C 0.02243 0.67853 0.06996
 C1307 C 0.03200 0.66137 0.07761
 C1308 C 0.03526 0.64445 0.06568
 H1309 H 0.06052 0.58559 0.02529
 H1310 H 0.01126 0.61022 -0.00922
 H1311 H 0.00897 0.69102 0.04354
 H1312 H 0.03661 0.66087 0.09294
 H1313 H 0.05718 0.61355 0.04777
 H1314 H 0.04218 0.63127 0.07214
 C1315 C 0.53166 0.14009 0.52243
 C1316 C 0.55101 0.13141 0.52003
 C1317 C 0.55352 0.11475 0.50765
 C1318 C 0.53685 0.10656 0.49768
 C1319 C 0.51778 0.11573 0.50035
 N1320 N 0.51568 0.13191 0.51260
 C1321 C 0.52793 0.15724 0.53609
 N1322 N 0.50879 0.16019 0.54347
 C1323 C 0.50427 0.17522 0.55651
 C1324 C 0.51955 0.18836 0.56299
 C1325 C 0.53929 0.18587 0.55525
 C1326 C 0.54353 0.17045 0.54176
 H1327 H 0.56853 0.10829 0.50590
 H1328 H 0.50448 0.10975 0.49316
 H1329 H 0.48884 0.17658 0.56212
 H1330 H 0.55142 0.19600 0.55945
 H1331 H 0.56405 0.13696 0.52795
 H1332 H 0.55880 0.16918 0.53577
 C1333 C -0.02845 0.12540 0.46883
 C1334 C -0.04091 0.10885 0.46428
 C1335 C -0.04345 0.09335 0.47803
 C1336 C -0.03384 0.09424 0.49645
 C1337 C -0.02170 0.11114 0.50052
 N1338 N -0.01940 0.12606 0.48685
 C1339 C -0.02521 0.14245 0.45490
 N1340 N -0.01802 0.16023 0.46210
 C1341 C -0.01467 0.17660 0.45038
 C1342 C -0.01869 0.17569 0.43003
 C1343 C -0.02588 0.15747 0.42222
 C1344 C -0.02904 0.14083 0.43451
 H1345 H -0.05282 0.08059 0.47409
 H1346 H -0.01425 0.11267 0.51462
 H1347 H -0.00920 0.19039 0.45704
 H1348 H -0.02873 0.15597 0.40652
 H1349 H -0.04892 0.10783 0.45045
 H1350 H -0.03407 0.12688 0.42789
 C1351 C 0.47836 0.62614 0.97474
 C1352 C 0.49093 0.62355 0.99112
 C1353 C 0.48796 0.60709 1.00365
 C1354 C 0.47245 0.59284 1.00006
 C1355 C 0.46048 0.59594 0.98309
 N1356 N 0.46373 0.61216 0.97115
 C1357 C 0.48080 0.64342 0.96102
 N1358 N 0.47406 0.64164 0.94211
 C1359 C 0.47585 0.65682 0.92867
 C1360 C 0.48490 0.67520 0.93398
 C1361 C 0.49162 0.67748 0.95350
 C1362 C 0.48956 0.66172 0.96704
 H1363 H 0.49796 0.60589 1.01611
 H1364 H 0.44853 0.58564 0.97906
 H1365 H 0.47052 0.65437 0.91376
 H1366 H 0.49819 0.69157 0.95841
 H1367 H 0.50321 0.63390 0.99419
 H1368 H 0.49444 0.66411 0.98209
 C1369 C 0.51493 0.86737 0.97235
 C1370 C 0.49997 0.87368 0.98600
 C1371 C 0.50389 0.88994 0.99850
 C1372 C 0.52272 0.89997 0.99759
 C1373 C 0.53717 0.89330 0.98349
 N1374 N 0.53294 0.87747 0.97139
 C1375 C 0.51153 0.85019 0.95880
 N1376 N 0.52097 0.85007 0.94073
 C1377 C 0.51867 0.83471 0.92759
 C1378 C 0.50638 0.81800 0.93243
 C1379 C 0.49672 0.81775 0.95113
 C1380 C 0.49920 0.83378 0.96428
 H1381 H 0.49200 0.89474 1.00865
 H1382 H 0.55194 0.90036 0.98222
 H1383 H 0.52626 0.83572 0.91331
 H1384 H 0.48756 0.80501 0.95580
 H1385 H 0.48524 0.86641 0.98679
 H1386 H 0.49194 0.83303 0.97874
 C1387 C 0.01356 0.36900 0.47489
 C1388 C -0.00123 0.37510 0.48880
 C1389 C 0.00285 0.39117 0.50151
 C1390 C 0.02169 0.40119 0.50052
 C1391 C 0.03598 0.39467 0.48620
 N1392 N 0.03158 0.37906 0.47392
 C1393 C 0.01003 0.35213 0.46101
 N1394 N 0.01962 0.35230 0.44302
 C1395 C 0.01742 0.33717 0.42962
 C1396 C 0.00512 0.32039 0.43409
 C1397 C -0.00478 0.31987 0.45267
 C1398 C -0.00242 0.33568 0.46610
 H1399 H -0.00889 0.39585 0.51187
 H1400 H 0.05076 0.40169 0.48488
 H1401 H 0.02516 0.33842 0.41543
 H1402 H -0.01400 0.30706 0.45704
 H1403 H -0.01597 0.36785 0.48964
 H1404 H -0.00982 0.33471 0.48049
 C1405 C 0.36907 0.52732 0.47308
 C1406 C 0.37037 0.50790 0.48130
 C1407 C 0.38782 0.49639 0.47809
 C1408 C 0.40422 0.50410 0.46691
 C1409 C 0.40237 0.52358 0.45899
 N1410 N 0.38516 0.53452 0.46229
 C1411 C 0.35110 0.54054 0.47630
 N1412 N 0.35293 0.56061 0.47235
 C1413 C 0.33735 0.57381 0.47516
 C1414 C 0.31849 0.56704 0.48255
 C1415 C 0.31612 0.54641 0.48643
 C1416 C 0.33225 0.53312 0.48322
 H1417 H 0.38839 0.48140 0.48434
 H1418 H 0.41468 0.53029 0.45051
 H1419 H 0.33983 0.58962 0.47200
 H1420 H 0.30167 0.54049 0.49170
 H1421 H 0.35835 0.50160 0.49043
 H1422 H 0.32967 0.51727 0.48593
 C1423 C 0.86772 0.02323 -0.02302
 C1424 C 0.87127 0.00613 -0.01139
 C1425 C 0.88784 -0.00629 -0.01576
 C1426 C 0.90122 -0.00186 -0.03172
 C1427 C 0.89707 0.01569 -0.04281
 N1428 N 0.88082 0.02751 -0.03819
 C1429 C 0.85046 0.03709 -0.01911
 N1430 N 0.85161 0.05629 -0.02615
 C1431 C 0.83639 0.06990 -0.02339
 C1432 C 0.81858 0.06445 -0.01300
 C1433 C 0.81698 0.04467 -0.00577
 C1434 C 0.83279 0.03096 -0.00883
 H1435 H 0.88983 -0.01936 -0.00649
 H1436 H 0.90665 0.02039 -0.05504
 H1437 H 0.83837 0.08502 -0.02910
 H1438 H 0.80332 0.03965 0.00190
 H1439 H 0.86164 0.00242 0.00120
 H1440 H 0.83087 0.01568 -0.00354
 C1441 C 0.62335 0.02685 0.01923
 C1442 C 0.61383 0.01685 0.00349
 C1443 C 0.59779 0.00358 0.00745
 C1444 C 0.59120 0.00010 0.02701
 C1445 C 0.60124 0.01025 0.04232
 N1446 N 0.61684 0.02309 0.03810
 C1447 C 0.64061 0.04097 0.01608
 N1448 N 0.65302 0.04508 0.03157
 C1449 C 0.66920 0.05779 0.02995
 C1450 C 0.67375 0.06727 0.01183
 C1451 C 0.66100 0.06349 -0.00425
 C1452 C 0.64442 0.05048 -0.00220
 H1453 H 0.59046 -0.00381 -0.00484
 H1454 H 0.59696 0.00778 0.05764
 H1455 H 0.67867 0.06017 0.04272
 H1456 H 0.66366 0.07085 -0.01837
 H1457 H 0.61880 0.01885 -0.01170
 H1458 H 0.63463 0.04828 -0.01474
 C1459 C 0.12561 0.52386 0.52255
 C1460 C 0.12208 0.50712 0.51040
 C1461 C 0.10540 0.49466 0.51424
 C1462 C 0.09192 0.49866 0.53022
 C1463 C 0.09600 0.51591 0.54182
 N1464 N 0.11236 0.52783 0.53769
 C1465 C 0.14308 0.53760 0.51908
 N1466 N 0.14175 0.55706 0.52542
 C1467 C 0.15712 0.57056 0.52267
 C1468 C 0.17525 0.56472 0.51303
 C1469 C 0.17706 0.54463 0.50670
 C1470 C 0.16110 0.53106 0.50971
 H1471 H 0.10352 0.48180 0.50464
 H1472 H 0.08622 0.52029 0.55403
 H1473 H 0.15499 0.58591 0.52771
 H1474 H 0.19095 0.53929 0.49968
 H1475 H 0.13186 0.50372 0.49783
 H1476 H 0.16311 0.51558 0.50507
 C1477 C 0.12829 0.46684 -0.02891
 C1478 C 0.11382 0.46382 -0.04367
 C1479 C 0.09805 0.47764 -0.04587
 C1480 C 0.09646 0.49475 -0.03347
 C1481 C 0.11164 0.49723 -0.01905
 N1482 N 0.12682 0.48351 -0.01726
 C1483 C 0.14537 0.45272 -0.02580
 N1484 N 0.16221 0.45954 -0.01635
 C1485 C 0.17845 0.44752 -0.01270
 C1486 C 0.17835 0.42723 -0.01863
 C1487 C 0.16108 0.41982 -0.02823
 C1488 C 0.14458 0.43244 -0.03178
 H1489 H 0.08721 0.47457 -0.05733
 H1490 H 0.11180 0.51000 -0.00917
 H1491 H 0.19150 0.45393 -0.00540
 H1492 H 0.16015 0.40415 -0.03264
 H1493 H 0.11470 0.45113 -0.05370
 H1494 H 0.13128 0.42615 -0.03871
 C1495 C 0.63038 0.97584 0.48030
 C1496 C 0.62631 0.99191 0.49323
 C1497 C 0.61030 1.00500 0.48935
 C1498 C 0.59798 1.00227 0.47258
 C1499 C 0.60247 0.98556 0.46027
 N1500 N 0.61822 0.97308 0.46441
 C1501 C 0.64726 0.96153 0.48362
 N1502 N 0.64626 0.94280 0.47541
 C1503 C 0.66117 0.92885 0.47776
 C1504 C 0.67842 0.93345 0.48893
 C1505 C 0.67990 0.95277 0.49726
 C1506 C 0.66445 0.96684 0.49461
 H1507 H 0.60771 1.01703 0.49984
 H1508 H 0.59380 0.98230 0.44722
 H1509 H 0.65935 0.91410 0.47114
 H1510 H 0.69317 0.95715 0.50556
 H1511 H 0.63509 0.99427 0.50646
 H1512 H 0.66626 0.98177 0.50079
 C1513 C 0.86878 0.96888 0.53307
 C1514 C 0.87991 0.96903 0.55064
 C1515 C 0.89601 0.98255 0.55269
 C1516 C 0.90120 0.99590 0.53725
 C1517 C 0.88943 0.99540 0.52002
 N1518 N 0.87375 0.98216 0.51844
 C1519 C 0.85163 0.95486 0.53005
 N1520 N 0.83616 0.96062 0.51816
 C1521 C 0.82012 0.94838 0.51427
 C1522 C 0.81914 0.92885 0.52232
 C1523 C 0.83503 0.92260 0.53457
 C1524 C 0.85123 0.93554 0.53851
 H1525 H 0.90418 0.98263 0.56647
 H1526 H 0.89281 1.00520 0.50764
 H1527 H 0.80812 0.95403 0.50501
 H1528 H 0.83522 0.90755 0.54075
 H1529 H 0.87603 0.95908 0.56282
 H1530 H 0.86355 0.93022 0.54758
 C1531 C 0.37512 0.46444 0.02605
 C1532 C 0.39186 0.45889 0.03755
 C1533 C 0.40749 0.47268 0.04068
 C1534 C 0.40654 0.49218 0.03265
 C1535 C 0.38952 0.49720 0.02134
 N1536 N 0.37448 0.48345 0.01843
 C1537 C 0.35784 0.45056 0.02235
 N1538 N 0.34026 0.45835 0.01516
 C1539 C 0.32366 0.44677 0.01150
 C1540 C 0.32407 0.42597 0.01525
 C1541 C 0.34206 0.41755 0.02242
 C1542 C 0.35897 0.42969 0.02585
 H1543 H 0.42036 0.46797 0.04931
 H1544 H 0.38794 0.51210 0.01508
 H1545 H 0.31005 0.45387 0.00600
 H1546 H 0.34314 0.40149 0.02508
 H1547 H 0.39298 0.44425 0.04442
 H1548 H 0.37270 0.42254 0.03089
 C1549 C 0.53124 0.47729 0.36621
 C1550 C 0.52891 0.45833 0.37522
 C1551 C 0.51629 0.45632 0.39184
 C1552 C 0.50599 0.47310 0.39969
 C1553 C 0.50862 0.49177 0.39022
 N1554 N 0.52111 0.49340 0.37406
 C1555 C 0.54508 0.48041 0.34896
 N1556 N 0.55274 0.49918 0.34552
 C1557 C 0.56587 0.50315 0.33027
 C1558 C 0.57212 0.48766 0.31736
 C1559 C 0.56413 0.46828 0.32043
 C1560 C 0.55059 0.46460 0.33609
 H1561 H 0.51458 0.44159 0.39853
 H1562 H 0.50116 0.50514 0.39592
 H1563 H 0.57169 0.51831 0.32849
 H1564 H 0.56812 0.45600 0.31053
 H1565 H 0.53707 0.44521 0.36991
 H1566 H 0.54435 0.44961 0.33780
 C1567 C 0.02433 -0.02105 0.86364
 C1568 C 0.01315 -0.00539 0.87261
 C1569 C 0.00054 -0.00956 0.88890
 C1570 C -0.00111 -0.02929 0.89626
 C1571 C 0.01005 -0.04455 0.88666
 N1572 N 0.02225 -0.04012 0.87084
 C1573 C 0.03813 -0.01762 0.84642
 N1574 N 0.04334 -0.03360 0.83474
 C1575 C 0.05620 -0.03183 0.81889
 C1576 C 0.06479 -0.01306 0.81401
 C1577 C 0.05974 0.00360 0.82592
 C1578 C 0.04653 0.00140 0.84212
 H1579 H -0.00769 0.00272 0.89585
 H1580 H 0.00896 -0.06003 0.89157
 H1581 H 0.05953 -0.04506 0.81004
 H1582 H 0.06639 0.01826 0.82299
 H1583 H 0.01382 0.00989 0.86709
 H1584 H 0.04344 0.01440 0.85134
 C1585 C 0.03682 0.01845 0.61993
 C1586 C 0.02619 0.00241 0.61125
 C1587 C 0.01242 0.00630 0.59622
 C1588 C 0.00909 0.02611 0.58978
 C1589 C 0.02019 0.04171 0.59863
 N1590 N 0.03343 0.03757 0.61338
 C1591 C 0.05070 0.01533 0.63675
 N1592 N 0.05423 0.03098 0.64932
 C1593 C 0.06616 0.02912 0.66551
 C1594 C 0.07528 0.01056 0.66993
 C1595 C 0.07224 -0.00564 0.65692
 C1596 C 0.06008 -0.00331 0.64032
 H1597 H 0.00430 -0.00620 0.58971
 H1598 H 0.01791 0.05722 0.59427
 H1599 H 0.06805 0.04200 0.67516
 H1600 H 0.07941 -0.02007 0.65949
 H1601 H 0.02790 -0.01295 0.61631
 H1602 H 0.05830 -0.01597 0.63038
 C1603 C 0.52976 0.52281 0.13114
 C1604 C 0.51681 0.50721 0.12515
 C1605 C 0.50409 0.51015 0.10908
 C1606 C 0.50403 0.52866 0.09893
 C1607 C 0.51739 0.54383 0.10539
 N1608 N 0.52979 0.54052 0.12100
 C1609 C 0.54370 0.52026 0.14791
 N1610 N 0.56201 0.52985 0.14750
 C1611 C 0.57565 0.52797 0.16234
 C1612 C 0.57111 0.51593 0.17896
 C1613 C 0.55209 0.50627 0.17981
 C1614 C 0.53842 0.50834 0.16435
 H1615 H 0.49458 0.49775 0.10450
 H1616 H 0.51791 0.55840 0.09826
 H1617 H 0.59014 0.53558 0.16091
 H1618 H 0.54760 0.49733 0.19255
 H1619 H 0.51682 0.49272 0.13250
 H1620 H 0.52376 0.50097 0.16545
 C1621 C 0.47202 -0.03108 0.13377
 C1622 C 0.47458 -0.05056 0.12591
 C1623 C 0.48687 -0.05337 0.10913
 C1624 C 0.49658 -0.03689 0.10002
 C1625 C 0.49358 -0.01767 0.10830
 N1626 N 0.48149 -0.01529 0.12463
 C1627 C 0.45879 -0.02702 0.15128
 N1628 N 0.45147 -0.00801 0.15406
 C1629 C 0.43913 -0.00305 0.16963
 C1630 C 0.43339 -0.01769 0.18364
 C1631 C 0.44100 -0.03732 0.18124
 C1632 C 0.45373 -0.04202 0.16519
 H1633 H 0.48882 -0.06847 0.10335
 H1634 H 0.50048 -0.00449 0.10160
 H1635 H 0.43354 0.01225 0.17083
 H1636 H 0.43738 -0.04897 0.19195
 H1637 H 0.46693 -0.06349 0.13228
 H1638 H 0.45972 -0.05715 0.16402
 C1639 C 0.97431 0.46781 0.63868
 C1640 C 0.97687 0.44852 0.63041
 C1641 C 0.98888 0.44612 0.61338
 C1642 C 0.99832 0.46283 0.60442
 C1643 C 0.99545 0.48185 0.61318
 N1644 N 0.98359 0.48383 0.62974
 C1645 C 0.96107 0.47142 0.65629
 N1646 N 0.95339 0.49025 0.65933
 C1647 C 0.94075 0.49469 0.67483
 C1648 C 0.93501 0.47966 0.68844
 C1649 C 0.94307 0.46025 0.68583
 C1650 C 0.95614 0.45609 0.66989
 H1651 H 0.99077 0.43115 0.60724
 H1652 H 1.00220 0.49519 0.60664
 H1653 H 0.93484 0.50985 0.67622
 H1654 H 0.93945 0.44832 0.69624
 H1655 H 0.96936 0.43541 0.63660
 H1656 H 0.96241 0.44109 0.66851
 C1657 C 0.96614 0.52708 0.87893
 C1658 C 0.95992 0.53588 0.89700
 C1659 C 0.97405 0.53870 0.91200
 C1660 C 0.99431 0.53263 0.90923
 C1661 C 0.99988 0.52378 0.89108
 N1662 N 0.98590 0.52130 0.87665
 C1663 C 0.95210 0.52352 0.86222
 N1664 N 0.95901 0.51254 0.84645
 C1665 C 0.94741 0.50856 0.83042
 C1666 C 0.92743 0.51587 0.82949
 C1667 C 0.91995 0.52728 0.84552
 C1668 C 0.93218 0.53121 0.86181
 H1669 H 0.96903 0.54526 0.92591
 H1670 H 1.01538 0.51906 0.88824
 H1671 H 0.95396 0.49998 0.81829
 H1672 H 0.90456 0.53306 0.84555
 H1673 H 0.94439 0.54036 0.89989
 H1674 H 0.92592 0.54029 0.87367
 C1675 C 0.47921 0.02955 0.36876
 C1676 C 0.49864 0.02082 0.36960
 C1677 C 0.51081 0.02435 0.38600
 C1678 C 0.50373 0.03638 0.40175
 C1679 C 0.48420 0.04476 0.40040
 N1680 N 0.47262 0.04113 0.38424
 C1681 C 0.46532 0.02612 0.35193
 N1682 N 0.44525 0.03072 0.35436
 C1683 C 0.43144 0.02783 0.33983
 C1684 C 0.43753 0.01969 0.32150
 C1685 C 0.45815 0.01511 0.31852
 C1686 C 0.47208 0.01841 0.33357
 H1687 H 0.52581 0.01771 0.38623
 H1688 H 0.47795 0.05387 0.41228
 H1689 H 0.41565 0.03152 0.34275
 H1690 H 0.46355 0.00923 0.30444
 H1691 H 0.50446 0.01106 0.35804
 H1692 H 0.48791 0.01515 0.33056
   
