data_POSCAR
  _audit_creation_date              2014-09-24
  _audit_creation_method            'ToBaCCo'
  _symmetry_space_group_name_H-M    'P1'
  _symmetry_Int_Tables_number       1
  _symmetry_cell_setting            triclinic
  loop_
  _symmetry_equiv_pos_as_xyz
 x,y,z
_cell_length_a 45.4006
_cell_length_b 45.3779
_cell_length_c 45.4606
_cell_angle_alpha 89.470500
_cell_angle_beta 90.658800
_cell_angle_gamma 89.200400
loop_
  _atom_site_label
  _atom_site_type_symbol
  _atom_site_fract_x
  _atom_site_fract_y
  _atom_site_fract_z
C1 C 0.13952 -0.03907 0.25604
 C2 C 0.12960 -0.01039 0.26153
 C3 C 0.11775 -0.00354 0.28881
 C4 C 0.11389 -0.02553 0.31007
 C5 C 0.12526 -0.05396 0.30518
 C6 C 0.13788 -0.06130 0.27783
 C7 C 0.12942 0.01222 0.23822
 C8 C 0.11476 0.00733 0.21157
 C9 C 0.11095 0.03013 0.19052
 C10 C 0.12560 0.05700 0.19537
 C11 C 0.14151 0.06135 0.22166
 C12 C 0.14223 0.03938 0.24338
 H13 H 0.14795 -0.04409 0.23442
 H14 H 0.10956 0.01862 0.29278
 H15 H 0.10564 -0.01425 0.20764
 H16 H 0.15371 0.04313 0.26404
 H17 H 0.12424 -0.07014 0.32278
 H18 H 0.12413 0.07478 0.17934
 C19 C 0.37267 -0.04099 0.74998
 C20 C 0.38312 -0.01276 0.74361
 C21 C 0.39299 -0.00628 0.71527
 C22 C 0.39131 -0.02733 0.69300
 C23 C 0.38042 -0.05542 0.69948
 C24 C 0.37141 -0.06248 0.72812
 C25 C 0.38151 0.01047 0.76600
 C26 C 0.38994 0.00446 0.79511
 C27 C 0.38520 0.02525 0.81741
 C28 C 0.37158 0.05252 0.80981
 C29 C 0.36303 0.05864 0.78051
 C30 C 0.36913 0.03795 0.75869
 H31 H 0.36462 -0.04605 0.77179
 H32 H 0.40185 0.01527 0.71044
 H33 H 0.39957 -0.01693 0.80055
 H34 H 0.36257 0.04269 0.73611
 H35 H 0.37884 -0.07169 0.68224
 H36 H 0.36806 0.06914 0.82642
 C37 C 0.86278 0.46980 0.23807
 C38 C 0.87743 0.49609 0.23228
 C39 C 0.88699 0.50211 0.20370
 C40 C 0.88147 0.48228 0.18082
 C41 C 0.86598 0.45626 0.18679
 C42 C 0.85600 0.45030 0.21537
 C43 C 0.88013 0.51814 0.25576
 C44 C 0.88955 0.50965 0.28409
 C45 C 0.88745 0.52922 0.30786
 C46 C 0.87651 0.55805 0.30235
 C47 C 0.86789 0.56699 0.27380
 C48 C 0.86982 0.54694 0.25068
 H49 H 0.85528 0.46512 0.26016
 H50 H 0.89897 0.52215 0.19932
 H51 H 0.89720 0.48717 0.28786
 H52 H 0.86199 0.55343 0.22891
 H53 H 0.86143 0.44094 0.16921
 H54 H 0.87510 0.57377 0.32010
 C55 C 0.63912 0.46046 0.75051
 C56 C 0.62904 0.48871 0.75734
 C57 C 0.61605 0.49393 0.78449
 C58 C 0.61113 0.47060 0.80414
 C59 C 0.62163 0.44221 0.79742
 C60 C 0.63568 0.43711 0.77049
 C61 C 0.62994 0.51244 0.73535
 C62 C 0.61558 0.50911 0.70831
 C63 C 0.61304 0.53282 0.68841
 C64 C 0.62770 0.55921 0.69459
 C65 C 0.64342 0.56200 0.72126
 C66 C 0.64343 0.53899 0.74196
 H67 H 0.64996 0.45671 0.72972
 H68 H 0.60821 0.51594 0.78968
 H69 H 0.60491 0.48845 0.70341
 H70 H 0.65476 0.54147 0.76290
 H71 H 0.61854 0.42416 0.81280
 H72 H 0.62693 0.57731 0.67888
 C73 C 0.23718 0.13758 1.03371
 C74 C 0.23044 0.12647 1.00599
 C75 C 0.20205 0.11655 0.99978
 C76 C 0.18016 0.11712 1.02147
 C77 C 0.18776 0.12733 1.04978
 C78 C 0.21615 0.13760 1.05586
 C79 C 0.25379 0.12307 0.98427
 C80 C 0.27936 0.10718 0.99195
 C81 C 0.30126 0.10128 0.97114
 C82 C 0.29778 0.11402 0.94279
 C83 C 0.27343 0.13238 0.93592
 C84 C 0.25085 0.13573 0.95630
 H85 H 0.25902 0.14596 1.03814
 H86 H 0.19715 0.10839 0.97796
 H87 H 0.28216 0.09978 1.01455
 H88 H 0.23165 0.14929 0.95092
 H89 H 0.17196 0.12652 1.06745
 H90 H 0.31411 0.11025 0.92600
 C91 C 0.76041 0.36178 1.03723
 C92 C 0.76504 0.37209 1.00854
 C93 C 0.79070 0.38718 1.00197
 C94 C 0.81045 0.39462 1.02440
 C95 C 0.80500 0.38556 1.05342
 C96 C 0.78084 0.36739 1.06011
 C97 C 0.74177 0.36964 0.98602
 C98 C 0.71449 0.38309 0.99089
 C99 C 0.69262 0.38402 0.96881
 C100 C 0.69729 0.36801 0.94275
 C101 C 0.72473 0.35407 0.93775
 C102 C 0.74724 0.35622 0.95908
 H103 H 0.74114 0.34858 1.04113
 H104 H 0.79456 0.39449 0.97958
 H105 H 0.71067 0.39391 1.01172
 H106 H 0.76890 0.34690 0.95496
 H107 H 0.81957 0.39313 1.07072
 H108 H 0.68029 0.36761 0.92583
 C109 C 0.25616 0.86581 0.54035
 C110 C 0.26096 0.87626 0.51190
 C111 C 0.28726 0.89042 0.50530
 C112 C 0.30846 0.89564 0.52744
 C113 C 0.30362 0.88414 0.55592
 C114 C 0.27740 0.86957 0.56242
 C115 C 0.23801 0.87287 0.48928
 C116 C 0.20998 0.88492 0.49370
 C117 C 0.18823 0.88311 0.47178
 C118 C 0.19395 0.86718 0.44608
 C119 C 0.22188 0.85403 0.44201
 C120 C 0.24413 0.85818 0.46318
 H121 H 0.23604 0.85421 0.54519
 H122 H 0.29108 0.89741 0.48281
 H123 H 0.20557 0.89726 0.51354
 H124 H 0.26610 0.84930 0.45966
 H125 H 0.31964 0.88736 0.57341
 H126 H 0.17711 0.86565 0.42913
 C127 C 0.74174 0.64156 0.53818
 C128 C 0.73557 0.63259 0.50949
 C129 C 0.70862 0.61949 0.50301
 C130 C 0.68863 0.61346 0.52553
 C131 C 0.69488 0.62273 0.55435
 C132 C 0.72166 0.63660 0.56073
 C133 C 0.75902 0.63284 0.48754
 C134 C 0.78562 0.61834 0.49420
 C135 C 0.80770 0.61560 0.47308
 C136 C 0.80367 0.62969 0.44557
 C137 C 0.77677 0.64389 0.43858
 C138 C 0.75452 0.64546 0.45969
 H139 H 0.76254 0.65201 0.54307
 H140 H 0.70407 0.61209 0.48082
 H141 H 0.78889 0.60851 0.51586
 H142 H 0.73373 0.65641 0.45438
 H143 H 0.67943 0.61846 0.57182
 H144 H 0.82058 0.62804 0.42899
 C145 C -0.04007 0.26164 0.13811
 C146 C -0.01344 0.26616 0.12383
 C147 C -0.00671 0.29416 0.11281
 C148 C -0.02634 0.31817 0.11636
 C149 C -0.05323 0.31307 0.13060
 C150 C -0.05974 0.28510 0.14184
 C151 C 0.00783 0.24171 0.12131
 C152 C -0.00068 0.21541 0.10818
 C153 C 0.01909 0.19155 0.10696
 C154 C 0.04854 0.19557 0.11642
 C155 C 0.05710 0.22132 0.13137
 C156 C 0.03606 0.24423 0.13367
 H157 H -0.04495 0.24018 0.14737
 H158 H 0.01346 0.29683 0.10060
 H159 H -0.02314 0.21316 0.10024
 H160 H 0.04123 0.26411 0.14555
 H161 H -0.06855 0.33112 0.13447
 H162 H 0.06461 0.17842 0.11190
 C163 C -0.03973 0.74897 0.36515
 C164 C -0.01416 0.74051 0.38066
 C165 C -0.01091 0.71141 0.39092
 C166 C -0.03167 0.68990 0.38336
 C167 C -0.05483 0.69807 0.36387
 C168 C -0.05998 0.72777 0.35618
 C169 C 0.01093 0.76073 0.38148
 C170 C 0.00770 0.78969 0.39171
 C171 C 0.02972 0.81078 0.38667
 C172 C 0.05440 0.80208 0.37015
 C173 C 0.05929 0.77236 0.36310
 C174 C 0.03730 0.75191 0.36832
 H175 H -0.04297 0.77180 0.35848
 H176 H 0.00814 0.70564 0.40443
 H177 H -0.01220 0.79561 0.40328
 H178 H 0.04032 0.72935 0.36115
 H179 H -0.06956 0.68154 0.35535
 H180 H 0.07044 0.81811 0.36334
 C181 C 0.46409 0.24474 0.86393
 C182 C 0.49072 0.23687 0.87778
 C183 C 0.49345 0.21017 0.89318
 C184 C 0.46880 0.19210 0.89657
 C185 C 0.44204 0.20018 0.88243
 C186 C 0.43968 0.22650 0.86607
 C187 C 0.51514 0.25750 0.87649
 C188 C 0.51236 0.28485 0.89029
 C189 C 0.53251 0.30768 0.88492
 C190 C 0.55516 0.30178 0.86473
 C191 C 0.55938 0.27361 0.85283
 C192 C 0.53931 0.25143 0.85882
 H193 H 0.46247 0.26505 0.85122
 H194 H 0.51418 0.20446 0.90403
 H195 H 0.49428 0.28782 0.90533
 H196 H 0.54159 0.23012 0.84844
 H197 H 0.42313 0.18594 0.88402
 H198 H 0.56924 0.31924 0.85714
 C199 C 0.46617 0.75745 0.63859
 C200 C 0.49296 0.76547 0.62625
 C201 C 0.49779 0.79483 0.61856
 C202 C 0.47601 0.81642 0.62320
 C203 C 0.44941 0.80840 0.63656
 C204 C 0.44472 0.77888 0.64497
 C205 C 0.51580 0.74301 0.62097
 C206 C 0.50895 0.71793 0.60486
 C207 C 0.53033 0.69604 0.60039
 C208 C 0.55937 0.70056 0.61000
 C209 C 0.56607 0.72450 0.62833
 C210 C 0.54404 0.74594 0.63322
 H211 H 0.46234 0.73452 0.64406
 H212 H 0.51813 0.80069 0.60783
 H213 H 0.48678 0.71509 0.59633
 H214 H 0.54849 0.76458 0.64724
 H215 H 0.43253 0.82501 0.64038
 H216 H 0.57624 0.68445 0.60465
 C217 C 0.87208 1.03935 0.75166
 C218 C 0.88490 1.01174 0.75769
 C219 C 0.89588 1.00537 0.78597
 C220 C 0.89254 1.02569 0.80887
 C221 C 0.87914 1.05336 0.80259
 C222 C 0.86955 1.06048 0.77375
 C223 C 0.88365 0.98856 0.73526
 C224 C 0.89251 0.99423 0.70642
 C225 C 0.88904 0.97294 0.68439
 C226 C 0.87566 0.94595 0.69170
 C227 C 0.86512 0.94087 0.72033
 C228 C 0.87092 0.96157 0.74223
 H229 H 0.86300 1.04409 0.72993
 H230 H 0.90569 0.98384 0.79050
 H231 H 0.90297 1.01499 0.70139
 H232 H 0.86378 0.95737 0.76454
 H233 H 0.87671 1.06948 0.81988
 H234 H 0.87202 0.92966 0.67481
 C235 C 0.36912 0.53583 0.24915
 C236 C 0.38250 0.50865 0.25578
 C237 C 0.39294 0.50277 0.28427
 C238 C 0.38986 0.52386 0.30625
 C239 C 0.37483 0.55059 0.30000
 C240 C 0.36353 0.55630 0.27141
 C241 C 0.38286 0.48541 0.23357
 C242 C 0.39452 0.49065 0.20573
 C243 C 0.39278 0.46915 0.18389
 C244 C 0.37928 0.44210 0.19016
 C245 C 0.36757 0.43680 0.21821
 C246 C 0.36946 0.45855 0.23971
 H247 H 0.36136 0.54031 0.22689
 H248 H 0.40363 0.48177 0.28932
 H249 H 0.40491 0.51151 0.20100
 H250 H 0.35963 0.45487 0.26104
 H251 H 0.37160 0.56652 0.31730
 H252 H 0.37773 0.42543 0.17332
 C253 C 0.64216 1.04336 0.24690
 C254 C 0.62828 1.01659 0.24139
 C255 C 0.61585 1.01149 0.21369
 C256 C 0.61718 1.03281 0.19142
 C257 C 0.63293 1.05888 0.19636
 C258 C 0.64600 1.06416 0.22413
 C259 C 0.62634 0.99369 0.26442
 C260 C 0.61315 0.99992 0.29133
 C261 C 0.60736 0.97730 0.31192
 C262 C 0.61878 0.94863 0.30618
 C263 C 0.63308 0.94261 0.27949
 C264 C 0.63624 0.96510 0.25865
 H265 H 0.65081 1.04758 0.26875
 H266 H 0.60407 0.99123 0.20978
 H267 H 0.60684 1.02253 0.29583
 H268 H 0.64676 0.96035 0.23789
 H269 H 0.63461 1.07505 0.17880
 H270 H 0.61541 0.93066 0.32155
 C271 C 0.13842 0.54495 0.74307
 C272 C 0.12926 0.51636 0.73668
 C273 C 0.11632 0.51067 0.70929
 C274 C 0.10990 0.53359 0.68916
 C275 C 0.11993 0.56218 0.69545
 C276 C 0.13439 0.56787 0.72243
 C277 C 0.13123 0.49265 0.75914
 C278 C 0.12038 0.49751 0.78748
 C279 C 0.11944 0.47447 0.80827
 C280 C 0.12992 0.44623 0.80032
 C281 C 0.14165 0.44141 0.77224
 C282 C 0.14200 0.46461 0.75175
 H283 H 0.14922 0.54930 0.76395
 H284 H 0.10962 0.48842 0.70427
 H285 H 0.11185 0.51914 0.79313
 H286 H 0.15083 0.46081 0.73003
 H287 H 0.11616 0.57997 0.67975
 H288 H 0.12903 0.42808 0.81592
 C289 C 0.74005 0.86630 -0.04789
 C290 C 0.73522 0.87761 -0.01982
 C291 C 0.70899 0.89276 -0.01402
 C292 C 0.68809 0.89842 -0.03638
 C293 C 0.69266 0.88617 -0.06446
 C294 C 0.71862 0.86972 -0.07008
 C295 C 0.75793 0.87464 0.00339
 C296 C 0.78655 0.88413 -0.00202
 C297 C 0.80839 0.88306 0.02020
 C298 C 0.80060 0.87220 0.04832
 C299 C 0.77189 0.86245 0.05379
 C300 C 0.75072 0.86373 0.03122
 H301 H 0.76009 0.85387 -0.05218
 H302 H 0.70524 0.90103 0.00795
 H303 H 0.79176 0.89224 -0.02383
 H304 H 0.72861 0.85607 0.03532
 H305 H 0.67614 0.88909 -0.08165
 H306 H 0.81647 0.87214 0.06630
 C307 C 0.24264 0.36541 0.45282
 C308 C 0.23692 0.37656 0.48070
 C309 C 0.20914 0.38835 0.48666
 C310 C 0.18752 0.39107 0.46444
 C311 C 0.19256 0.37734 0.43707
 C312 C 0.22003 0.36334 0.43157
 C313 C 0.25995 0.37581 0.50378
 C314 C 0.28728 0.38846 0.49869
 C315 C 0.30839 0.39036 0.52139
 C316 C 0.30339 0.37533 0.54825
 C317 C 0.27656 0.36053 0.55281
 C318 C 0.25438 0.36285 0.53109
 H319 H 0.26443 0.35664 0.44828
 H320 H 0.20486 0.39701 0.50838
 H321 H 0.29147 0.39843 0.47741
 H322 H 0.23297 0.35338 0.53499
 H323 H 0.17540 0.37758 0.42033
 H324 H 0.32011 0.37527 0.56543
 C325 C 0.25525 0.63854 -0.04029
 C326 C 0.26184 0.62809 -0.01194
 C327 C 0.28907 0.61443 -0.00606
 C328 C 0.30886 0.60877 -0.02888
 C329 C 0.30242 0.62006 -0.05727
 C330 C 0.27559 0.63510 -0.06289
 C331 C 0.23891 0.62764 0.01053
 C332 C 0.21268 0.61306 0.00450
 C333 C 0.19175 0.60814 0.02651
 C334 C 0.19626 0.62173 0.05410
 C335 C 0.22206 0.63782 0.05977
 C336 C 0.24371 0.63975 0.03824
 H337 H 0.23421 0.64938 -0.04480
 H338 H 0.29401 0.60641 0.01601
 H339 H 0.20891 0.60513 -0.01762
 H340 H 0.26391 0.65145 0.04275
 H341 H 0.31786 0.61674 -0.07497
 H342 H 0.18032 0.61940 0.07148
 C343 C 0.75335 0.14192 0.45763
 C344 C 0.75897 0.13024 0.48556
 C345 C 0.78572 0.11573 0.49162
 C346 C 0.80637 0.11049 0.46936
 C347 C 0.80097 0.12375 0.44142
 C348 C 0.77445 0.13934 0.43568
 C349 C 0.73616 0.13084 0.50811
 C350 C 0.70877 0.11843 0.50225
 C351 C 0.68911 0.11267 0.52512
 C352 C 0.69591 0.12281 0.55366
 C353 C 0.72299 0.13674 0.55920
 C354 C 0.74297 0.14036 0.53638
 H355 H 0.73268 0.15344 0.45305
 H356 H 0.79009 0.10797 0.51388
 H357 H 0.70362 0.11131 0.48010
 H358 H 0.76406 0.15051 0.54069
 H359 H 0.81653 0.12103 0.42374
 H360 H 0.68068 0.11935 0.57149
 C361 C 1.04310 0.75885 0.86182
 C362 C 1.01550 0.76314 0.87446
 C363 C 1.00946 0.78904 0.88976
 C364 C 1.03156 0.80998 0.89494
 C365 C 1.05917 0.80559 0.88128
 C366 C 1.06469 0.78033 0.86426
 C367 C 0.99329 0.73992 0.87258
 C368 C 1.00050 0.71150 0.88257
 C369 C 0.98023 0.68853 0.88039
 C370 C 0.95201 0.69468 0.86818
 C371 C 0.94422 0.72363 0.85924
 C372 C 0.96505 0.74603 0.86134
 H373 H 1.04748 0.73908 0.84927
 H374 H 0.98734 0.79260 0.89782
 H375 H 1.02230 0.70717 0.89180
 H376 H 0.95937 0.76815 0.85380
 H377 H 1.07666 0.82134 0.88411
 H378 H 0.93582 0.67741 0.86676
 C379 C 0.53822 0.25668 0.36192
 C380 C 0.51111 0.26203 0.37527
 C381 C 0.50572 0.28895 0.38909
 C382 C 0.52749 0.31046 0.39005
 C383 C 0.55457 0.30526 0.37598
 C384 C 0.55997 0.27820 0.36198
 C385 C 0.48800 0.23984 0.37354
 C386 C 0.49291 0.21144 0.38488
 C387 C 0.47098 0.19018 0.38257
 C388 C 0.44474 0.19691 0.36686
 C389 C 0.44008 0.22531 0.35471
 C390 C 0.46127 0.24695 0.35958
 H391 H 0.54218 0.23594 0.35087
 H392 H 0.48476 0.29291 0.39967
 H393 H 0.51333 0.20624 0.39652
 H394 H 0.45749 0.26920 0.35132
 H395 H 0.57145 0.32191 0.37639
 H396 H 0.42799 0.18029 0.36452
 C397 C 1.04192 0.24135 0.63167
 C398 C 1.01398 0.23625 0.61977
 C399 C 1.00740 0.20859 0.60832
 C400 C 1.02808 0.18522 0.60954
 C401 C 1.05656 0.19096 0.62099
 C402 C 1.06319 0.21881 0.63272
 C403 C 0.99086 0.25922 0.62107
 C404 C 0.99616 0.28775 0.61080
 C405 C 0.97452 0.31019 0.61273
 C406 C 0.94684 0.30283 0.62482
 C407 C 0.94145 0.27403 0.63525
 C408 C 0.96374 0.25261 0.63354
 H409 H 1.04668 0.26249 0.64145
 H410 H 0.98599 0.20551 0.59808
 H411 H 1.01768 0.29257 0.60200
 H412 H 0.96008 0.23069 0.64237
 H413 H 1.07297 0.17344 0.62261
 H414 H 0.92925 0.31918 0.62559
 C415 C 0.53605 0.73896 0.13317
 C416 C 0.50876 0.73340 0.11974
 C417 C 0.50346 0.70570 0.10768
 C418 C 0.52540 0.68369 0.10851
 C419 C 0.55286 0.68947 0.12177
 C420 C 0.55801 0.71701 0.13483
 C421 C 0.48542 0.75627 0.11986
 C422 C 0.49144 0.78485 0.11027
 C423 C 0.47045 0.80746 0.11306
 C424 C 0.44348 0.80162 0.12694
 C425 C 0.43746 0.77290 0.13739
 C426 C 0.45793 0.75012 0.13185
 H427 H 0.53983 0.76012 0.14334
 H428 H 0.48234 0.70130 0.09739
 H429 H 0.51257 0.78954 0.10050
 H430 H 0.45326 0.72775 0.13875
 H431 H 0.56985 0.67246 0.12254
 H432 H 0.42774 0.81941 0.13019
 O433 O -0.02924 0.98812 0.92121
 O434 O 0.01794 1.01041 0.91650
 O435 O -0.00293 0.91646 0.98265
 O436 O 0.00784 0.91023 1.02890
 O437 O -0.08518 0.96989 0.99626
 O438 O -0.09263 1.01958 1.01426
 O439 O 0.06103 1.00090 1.06031
 O440 O 0.06999 0.95661 1.03308
 O441 O 0.04733 1.06779 0.99817
 O442 O 0.01490 1.07345 0.95371
 O443 O -0.01094 1.05729 1.06652
 O444 O -0.05449 1.02278 1.07430
 O445 O 0.01908 1.01188 1.08498
 O446 O -0.02830 0.99212 1.09174
 O447 O 0.00182 1.08256 1.02544
 O448 O -0.02163 1.08525 0.97554
 O449 O 0.07525 1.02915 1.01516
 O450 O 0.08480 0.98175 0.99396
 O451 O -0.06966 1.00326 0.94584
 O452 O -0.08345 1.04059 0.97644
 O453 O -0.05603 0.93083 1.00836
 O454 O -0.02432 0.92947 1.05451
 O455 O 0.00380 0.94159 0.93999
 O456 O 0.04317 0.97429 0.93086
 Zr457 Zr 0.00438 0.98585 0.95357
 O458 O 0.03076 1.01484 0.97812
 Zr459 Zr -0.01402 0.94888 1.01343
 O460 O 0.01113 0.97620 1.04078
 Zr461 Zr -0.05573 1.00513 0.99006
 O462 O -0.03214 1.03542 1.01585
 Zr463 Zr 0.04611 0.99383 1.01692
 O464 O 0.02298 0.96361 0.99042
 Zr465 Zr 0.00480 1.05025 0.99286
 O466 O -0.02096 1.02293 0.96560
 Zr467 Zr -0.01440 1.01319 1.05279
 O468 O -0.04077 0.98363 1.02862
 O469 O -0.03162 0.96883 0.97561
 O470 O 0.02175 1.03022 1.03098
 C471 C -0.05643 0.99655 0.92198
 C472 C 0.00198 0.91749 0.95490
 C473 C -0.08144 0.94264 1.00399
 C474 C 0.04703 1.00733 1.08385
 C475 C 0.07173 1.05628 1.00762
 C476 C -0.00360 1.08103 1.05304
 H477 H 0.04711 1.02180 0.96585
 H478 H -0.04529 1.05192 1.02146
 H479 H -0.04326 0.95540 0.96311
 H480 H 0.01834 0.96467 1.05805
 H481 H 0.06522 0.93998 1.01998
 H482 H 0.02650 0.91652 1.03816
 H483 H -0.03827 1.08850 0.98905
 H484 H -0.07064 1.05480 0.96626
 H485 H 0.08452 0.99212 0.97475
 H486 H 0.05509 0.96168 0.94448
 H487 H -0.06247 1.04160 1.06620
 H488 H -0.09165 1.00910 1.03345
 H489 H 0.00661 1.02920 0.91669
 H490 H 0.03305 1.06461 0.94555
 H491 H -0.04350 0.93797 1.06056
 H492 H -0.02118 0.97150 1.09078
 O493 O 0.55845 0.56412 0.49186
 O494 O 0.52966 0.56891 0.44601
 O495 O 0.49372 0.56408 0.55755
 O496 O 0.45080 0.53794 0.56626
 O497 O 0.56153 0.49990 0.55923
 O498 O 0.56911 0.45350 0.53254
 O499 O 0.41633 0.48066 0.48907
 O500 O 0.41407 0.53128 0.50496
 O501 O 0.47708 0.48905 0.41587
 O502 O 0.52983 0.50743 0.41436
 O503 O 0.49201 0.41797 0.47996
 O504 O 0.50318 0.41429 0.52897
 O505 O 0.44079 0.43883 0.50207
 O506 O 0.47069 0.43361 0.54997
 O507 O 0.50511 0.44103 0.43759
 O508 O 0.54594 0.46831 0.42656
 O509 O 0.43546 0.50416 0.43899
 O510 O 0.42565 0.54622 0.46086
 O511 O 0.58194 0.52323 0.51027
 O512 O 0.58606 0.47306 0.49558
 O513 O 0.51994 0.51739 0.58067
 O514 O 0.47107 0.49792 0.58373
 O515 O 0.51013 0.58549 0.51561
 O516 O 0.49317 0.58777 0.46613
 Zr517 Zr 0.51441 0.55073 0.48595
 O518 O 0.48721 0.52486 0.45927
 Zr519 Zr 0.48855 0.51928 0.54642
 O520 O 0.46110 0.49107 0.52213
 Zr521 Zr 0.54852 0.49212 0.51519
 O522 O 0.52366 0.46385 0.48872
 Zr523 Zr 0.44960 0.51166 0.48219
 O524 O 0.47468 0.54142 0.50760
 Zr525 Zr 0.50936 0.48531 0.44970
 O526 O 0.53808 0.51242 0.47436
 Zr527 Zr 0.48436 0.45278 0.50980
 O528 O 0.51083 0.47901 0.53804
 O529 O 0.52709 0.53115 0.52561
 O530 O 0.47047 0.47225 0.47012
 C531 C 0.58163 0.55012 0.50120
 C532 C 0.50223 0.58660 0.54259
 C533 C 0.54719 0.50942 0.58156
 C534 C 0.41683 0.45318 0.49594
 C535 C 0.44973 0.49691 0.41595
 C536 C 0.50037 0.41780 0.45297
 H537 H 0.48197 0.53637 0.44135
 H538 H 0.53622 0.44642 0.48482
 H539 H 0.53947 0.54422 0.53771
 H540 H 0.44366 0.48643 0.53403
 H541 H 0.42132 0.54976 0.51375
 H542 H 0.43326 0.52804 0.55820
 H543 H 0.55754 0.45574 0.44045
 H544 H 0.58510 0.47904 0.47462
 H545 H 0.44011 0.56109 0.45482
 H546 H 0.47392 0.59015 0.47590
 H547 H 0.52449 0.41797 0.53086
 H548 H 0.55827 0.44788 0.55047
 H549 H 0.54627 0.55624 0.43958
 H550 H 0.51690 0.52418 0.40827
 H551 H 0.47866 0.47741 0.58335
 H552 H 0.45106 0.44189 0.55473
 O553 O 0.44074 -0.06103 0.49970
 O554 O 0.47120 -0.07073 0.45750
 O555 O 0.50536 -0.05277 0.56901
 O556 O 0.54614 -0.02450 0.57686
 O557 O 0.43470 0.00766 0.56012
 O558 O 0.42760 0.05245 0.52884
 O559 O 0.58103 0.02482 0.49294
 O560 O 0.58437 -0.02389 0.51388
 O561 O 0.52090 0.00964 0.41960
 O562 O 0.47158 -0.00865 0.41554
 O563 O 0.50429 0.08503 0.47583
 O564 O 0.49352 0.09354 0.52237
 O565 O 0.55571 0.06700 0.50208
 O566 O 0.52371 0.07434 0.54878
 O567 O 0.49134 0.05839 0.43571
 O568 O 0.44905 0.02585 0.42856
 O569 O 0.56270 -0.00268 0.44480
 O570 O 0.57264 -0.04328 0.47139
 O571 O 0.41603 -0.01896 0.51178
 O572 O 0.41088 0.02968 0.49420
 O573 O 0.47657 -0.00575 0.58493
 O574 O 0.52523 0.01720 0.58685
 O575 O 0.48802 -0.07857 0.52997
 O576 O 0.50821 -0.08549 0.48156
 Zr577 Zr 0.48480 -0.04751 0.49528
 O578 O 0.51118 -0.02329 0.46631
 Zr579 Zr 0.50887 -0.00942 0.55249
 O580 O 0.53621 0.01649 0.52581
 Zr581 Zr 0.44877 0.01282 0.51625
 O582 O 0.47340 0.03930 0.48798
 Zr583 Zr 0.54840 -0.00723 0.48845
 O584 O 0.52394 -0.03485 0.51685
 Zr585 Zr 0.48838 0.01485 0.45191
 O586 O 0.46046 -0.01109 0.47843
 Zr587 Zr 0.51219 0.05300 0.50911
 O588 O 0.48559 0.02906 0.53899
 O589 O 0.47096 -0.02441 0.53181
 O590 O 0.52677 0.03057 0.47195
 C591 C 0.41704 -0.04647 0.50555
 C592 C 0.49638 -0.07664 0.55702
 C593 C 0.44886 0.00027 0.58378
 C594 C 0.57986 0.05265 0.49769
 C595 C 0.54850 0.00301 0.42075
 C596 C 0.49576 0.08289 0.44885
 H597 H 0.51687 -0.03607 0.44976
 H598 H 0.46046 0.05594 0.48194
 H599 H 0.45847 -0.03674 0.54451
 H600 H 0.55347 0.02240 0.53769
 H601 H 0.57743 -0.04147 0.52472
 H602 H 0.56382 -0.01736 0.56667
 H603 H 0.44040 0.04371 0.43755
 H604 H 0.41250 0.02319 0.47359
 H605 H 0.55848 -0.05918 0.46779
 H606 H 0.52641 -0.08682 0.49375
 H607 H 0.47243 0.08981 0.52569
 H608 H 0.43906 0.06019 0.54565
 H609 H 0.45594 -0.05831 0.44753
 H610 H 0.48176 -0.02806 0.41520
 H611 H 0.51214 0.03477 0.58789
 H612 H 0.54392 0.06793 0.55446
 O613 O 0.00324 0.44820 1.06444
 O614 O 0.04479 0.47966 1.07373
 O615 O -0.06616 0.51197 1.04915
 O616 O -0.07078 0.55320 1.01915
 O617 O -0.05814 0.43988 0.99243
 O618 O -0.02524 0.42772 0.95215
 O619 O 0.01575 0.58118 0.96556
 O620 O -0.00925 0.58969 1.01147
 O621 O 0.08503 0.52141 0.99141
 O622 O 0.08902 0.47429 1.01153
 O623 O 0.03063 0.50350 0.91515
 O624 O -0.02270 0.48459 0.91148
 O625 O 0.00034 0.55412 0.92700
 O626 O -0.03811 0.52519 0.91473
 O627 O 0.06934 0.49105 0.94442
 O628 O 0.07254 0.44792 0.98156
 O629 O 0.06037 0.56438 0.99909
 O630 O 0.03160 0.57824 1.03645
 O631 O -0.01298 0.42171 1.02527
 O632 O 0.00962 0.41264 0.97911
 O633 O -0.08223 0.48272 1.00292
 O634 O -0.08304 0.52996 0.97802
 O635 O -0.02730 0.49574 1.07721
 O636 O 0.02050 0.51747 1.08369
 Zr637 Zr 0.00757 0.49135 1.04761
 O638 O 0.03733 0.51530 1.02213
 Zr639 Zr -0.04884 0.51406 1.00616
 O640 O -0.02133 0.53836 0.97818
 Zr641 Zr -0.01335 0.45183 0.98996
 O642 O 0.01626 0.47363 0.96220
 Zr643 Zr 0.01616 0.55167 1.00164
 O644 O -0.01298 0.53005 1.03085
 Zr645 Zr 0.05191 0.48961 0.98697
 O646 O 0.02436 0.46422 1.01432
 Zr647 Zr -0.00443 0.51152 0.94460
 O648 O -0.03534 0.48817 0.97024
 O649 O -0.02899 0.47671 1.02455
 O650 O 0.03276 0.52689 0.96682
 C651 C -0.00549 0.42427 1.05244
 C652 C -0.05440 0.50367 1.07385
 C653 C -0.08174 0.45498 0.99758
 C654 C 0.00800 0.57861 0.93838
 C655 C 0.08427 0.54929 0.99615
 C656 C 0.05770 0.49513 0.91894
 H657 H 0.05375 0.52136 1.03509
 H658 H 0.02263 0.45978 0.94679
 H659 H -0.04245 0.46511 1.03692
 H660 H -0.03267 0.55544 0.97017
 H661 H -0.02077 0.58504 1.02927
 H662 H -0.06295 0.56965 1.00728
 H663 H 0.06525 0.43961 0.96284
 H664 H 0.02835 0.41272 0.99047
 H665 H 0.03626 0.56490 1.05319
 H666 H 0.00818 0.53565 1.08286
 H667 H -0.00886 0.46792 0.90830
 H668 H -0.04039 0.43962 0.94142
 H669 H 0.05579 0.46456 1.06259
 H670 H 0.08847 0.48401 1.03090
 H671 H -0.08112 0.51897 0.95945
 H672 H -0.05146 0.53865 0.92542
 O673 O 0.00459 0.41963 0.52913
 O674 O -0.01084 0.41150 0.47944
 O675 O 0.07903 0.47912 0.50152
 O676 O 0.08644 0.52530 0.49382
 O677 O 0.02103 0.49908 0.58152
 O678 O -0.02610 0.51374 0.58713
 O679 O -0.00144 0.55325 0.42947
 O680 O 0.04224 0.52457 0.42532
 O681 O -0.07009 0.49587 0.44334
 O682 O -0.07808 0.45579 0.46887
 O683 O -0.06155 0.56574 0.50104
 O684 O -0.02833 0.57854 0.54047
 O685 O -0.02012 0.57969 0.46742
 O686 O 0.00758 0.58875 0.51631
 O687 O -0.08611 0.52415 0.48917
 O688 O -0.08754 0.47530 0.51412
 O689 O -0.03024 0.50975 0.41725
 O690 O 0.01876 0.48371 0.41324
 O691 O -0.00761 0.44775 0.56783
 O692 O -0.05145 0.48209 0.57213
 O693 O 0.06245 0.50728 0.55561
 O694 O 0.06455 0.55227 0.52150
 O695 O 0.05504 0.43588 0.49822
 O696 O 0.02387 0.42510 0.45714
 Zr697 Zr 0.01064 0.44990 0.49396
 O698 O -0.01730 0.47355 0.46439
 Zr699 Zr 0.04644 0.51066 0.51180
 O700 O 0.02058 0.53683 0.48248
 Zr701 Zr -0.01167 0.49037 0.54985
 O702 O -0.04011 0.51599 0.52293
 Zr703 Zr 0.00439 0.51091 0.44814
 O704 O 0.03342 0.48562 0.47525
 Zr705 Zr -0.05366 0.49090 0.48669
 O706 O -0.02782 0.46374 0.51552
 Zr707 Zr -0.01735 0.55148 0.50446
 O708 O 0.01015 0.52792 0.53465
 O709 O 0.02599 0.47384 0.52969
 O710 O -0.03285 0.52742 0.46902
 C711 C -0.00345 0.42260 0.55609
 C712 C 0.07881 0.45101 0.49842
 C713 C 0.04866 0.50436 0.58004
 C714 C -0.01274 0.57677 0.44038
 C715 C -0.05779 0.50415 0.41939
 C716 C -0.08527 0.55173 0.49519
 H717 H -0.02393 0.46050 0.44842
 H718 H -0.05693 0.52249 0.53500
 H719 H 0.03897 0.46177 0.54285
 H720 H 0.03231 0.55327 0.47464
 H721 H 0.05903 0.51284 0.43345
 H722 H 0.08198 0.53123 0.47323
 H723 H -0.08148 0.45548 0.52148
 H724 H -0.05888 0.46301 0.56506
 H725 H 0.00410 0.46809 0.41017
 H726 H 0.03641 0.43815 0.44520
 H727 H -0.04308 0.56792 0.55221
 H728 H -0.02106 0.53462 0.58363
 H729 H -0.02972 0.41039 0.49004
 H730 H -0.06538 0.43803 0.47061
 H731 H 0.05452 0.55965 0.53925
 H732 H 0.02085 0.59349 0.49987
 O733 O 0.50717 0.91739 0.02916
 O734 O 0.49178 0.91523 -0.02181
 O735 O 0.57865 0.98385 0.00668
 O736 O 0.58185 1.03176 0.00148
 O737 O 0.52261 0.99472 0.09024
 O738 O 0.47329 1.00227 0.09820
 O739 O 0.48963 1.06196 -0.05214
 O740 O 0.53745 1.03604 -0.06122
 O741 O 0.42854 0.99442 -0.04671
 O742 O 0.42767 0.94672 -0.01616
 O743 O 0.43230 1.05994 0.01265
 O744 O 0.46284 1.06679 0.06106
 O745 O 0.47783 1.08375 -0.00917
 O746 O 0.49535 1.08680 0.03955
 O747 O 0.41032 1.01701 0.00042
 O748 O 0.41015 0.96791 0.01863
 O749 O 0.46586 1.01624 -0.07110
 O750 O 0.51167 0.99894 -0.08130
 O751 O 0.49809 0.94058 0.07227
 O752 O 0.45320 0.96736 0.08182
 O753 O 0.56261 1.00626 0.06307
 O754 O 0.56236 1.05278 0.03501
 O755 O 0.55699 0.93963 0.00159
 O756 O 0.52766 0.93053 -0.04028
 Zr757 Zr 0.51227 0.95180 -0.00210
 O758 O 0.48254 0.97672 -0.02873
 Zr759 Zr 0.54458 1.01236 0.02077
 O760 O 0.51556 1.04020 -0.00346
 Zr761 Zr 0.48967 0.98422 0.05889
 O762 O 0.45778 1.00948 0.03534
 Zr763 Zr 0.50036 1.01775 -0.04048
 O764 O 0.53187 0.99078 -0.01796
 Zr765 Zr 0.44563 0.98760 -0.00360
 O766 O 0.47418 0.96050 0.02226
 Zr767 Zr 0.47708 1.04860 0.02080
 O768 O 0.50817 1.02454 0.04669
 O769 O 0.52740 0.97264 0.03574
 O770 O 0.46257 1.02792 -0.01721
 C771 C 0.50162 0.91731 0.05688
 C772 C 0.57983 0.95599 0.00183
 C773 C 0.54949 1.00299 0.08764
 C774 C 0.48136 1.08447 -0.03701
 C775 C 0.43956 1.00645 -0.06976
 C776 C 0.40972 1.04470 0.00531
 H777 H 0.47715 0.96532 -0.04638
 H778 H 0.44060 1.01346 0.04793
 H779 H 0.54158 0.96043 0.04747
 H780 H 0.52596 1.05841 -0.00900
 H781 H 0.55399 1.02178 -0.05830
 H782 H 0.57513 1.04064 -0.01741
 H783 H 0.41003 0.97576 0.03884
 H784 H 0.44450 0.95199 0.06921
 H785 H 0.51547 0.97777 -0.07748
 H786 H 0.54113 0.94437 -0.05013
 H787 H 0.44270 1.05977 0.06491
 H788 H 0.47225 1.02382 0.09497
 H789 H 0.47257 0.91287 -0.01207
 H790 H 0.43474 0.94211 -0.03613
 H791 H 0.55134 1.05875 0.05272
 H792 H 0.51520 1.08901 0.03114
 O793 O 0.41889 0.51782 0.00140
 O794 O 0.41652 0.46755 -0.01500
 O795 O 0.48062 0.49966 0.07700
 O796 O 0.52765 0.48593 0.08220
 O797 O 0.49305 0.57836 0.01942
 O798 O 0.50808 0.58391 -0.03046
 O799 O 0.56247 0.43371 -0.00250
 O800 O 0.53244 0.42448 0.04043
 O801 O 0.49882 0.44149 -0.07224
 O802 O 0.45128 0.47158 -0.07668
 O803 O 0.56414 0.50186 -0.06467
 O804 O 0.57104 0.54736 -0.03348
 O805 O 0.58456 0.47523 -0.01898
 O806 O 0.58829 0.52505 0.00031
 O807 O 0.52255 0.48802 -0.08881
 O808 O 0.47294 0.50673 -0.09284
 O809 O 0.51997 0.41691 -0.03342
 O810 O 0.49699 0.40608 0.00977
 O811 O 0.44241 0.56065 -0.00719
 O812 O 0.46978 0.57073 -0.05040
 O813 O 0.50653 0.55150 0.05998
 O814 O 0.55120 0.52158 0.06525
 O815 O 0.43853 0.48955 0.05164
 O816 O 0.43025 0.44768 0.02197
 Zr817 Zr 0.45254 0.48588 0.00797
 O818 O 0.47825 0.45892 -0.01951
 Zr819 Zr 0.51176 0.50839 0.04414
 O820 O 0.54033 0.48344 0.01752
 Zr821 Zr 0.48623 0.54670 -0.01351
 O822 O 0.51266 0.52273 -0.04297
 Zr823 Zr 0.51800 0.44659 0.00159
 O824 O 0.49023 0.46976 0.03088
 Zr825 Zr 0.49110 0.48414 -0.05590
 O826 O 0.46294 0.51032 -0.02988
 Zr827 Zr 0.55081 0.50753 -0.02070
 O828 O 0.52566 0.53407 0.00809
 O829 O 0.47316 0.52343 0.02364
 O830 O 0.53036 0.46984 -0.03581
 C831 C 0.41886 0.54576 -0.00343
 C832 C 0.45315 0.49325 0.07559
 C833 C 0.50090 0.57600 0.04660
 C834 C 0.58514 0.44793 -0.01109
 C835 C 0.51127 0.41875 -0.06034
 C836 C 0.54991 0.49458 -0.08806
 H837 H 0.46705 0.44134 -0.02536
 H838 H 0.51733 0.53532 -0.06010
 H839 H 0.46058 0.53540 0.03675
 H840 H 0.55804 0.47772 0.02922
 H841 H 0.51698 0.42754 0.05534
 H842 H 0.53866 0.46836 0.07545
 H843 H 0.47837 0.52762 -0.09089
 H844 H 0.45437 0.55854 -0.05964
 H845 H 0.47803 0.41104 0.01902
 H846 H 0.44223 0.43851 0.03802
 H847 H 0.56165 0.55430 -0.05208
 H848 H 0.52819 0.58339 -0.02183
 H849 H 0.41527 0.47774 -0.03433
 H850 H 0.44610 0.45179 -0.06920
 H851 H 0.55815 0.53931 0.05470
 H852 H 0.58777 0.51823 0.02097
 O853 O -0.08481 0.02201 0.50250
 O854 O -0.08665 -0.02763 0.48376
 O855 O -0.02521 0.00272 0.57846
 O856 O 0.02122 -0.01296 0.58429
 O857 O -0.01077 0.08193 0.52330
 O858 O 0.00541 0.08862 0.47403
 O859 O 0.05934 -0.06167 0.49985
 O860 O 0.02731 -0.07301 0.54098
 O861 O -0.00396 -0.05277 0.42812
 O862 O -0.05057 -0.02197 0.42312
 O863 O 0.06217 0.00816 0.43901
 O864 O 0.06958 0.05114 0.47066
 O865 O 0.08061 -0.02055 0.48207
 O866 O 0.08273 0.02955 0.50754
 O867 O 0.02154 -0.00647 0.41372
 O868 O -0.02831 0.01339 0.40867
 O869 O 0.01756 -0.07786 0.46640
 O870 O -0.00644 -0.09044 0.50859
 O871 O -0.06107 0.06492 0.49438
 O872 O -0.03257 0.07619 0.45274
 O873 O 0.00352 0.05415 0.56302
 O874 O 0.04631 0.02293 0.56895
 O875 O -0.06634 -0.00829 0.55192
 O876 O -0.07395 -0.04877 0.52084
 Zr877 Zr -0.05130 -0.01023 0.50848
 O878 O -0.02495 -0.03649 0.48086
 Zr879 Zr 0.00712 0.01113 0.54654
 O880 O 0.03629 -0.01316 0.51991
 Zr881 Zr -0.01712 0.05112 0.48935
 O882 O 0.00994 0.02791 0.45988
 Zr883 Zr 0.01438 -0.04948 0.50245
 O884 O -0.01411 -0.02707 0.53169
 Zr885 Zr -0.01126 -0.01038 0.44541
 O886 O -0.03998 0.01514 0.47153
 Zr887 Zr 0.04750 0.01210 0.48266
 O888 O 0.02169 0.03778 0.51146
 O889 O -0.03101 0.02691 0.52562
 O890 O 0.02747 -0.02519 0.46609
 C891 C -0.08463 0.04995 0.49753
 C892 C -0.05244 -0.00450 0.57626
 C893 C -0.00193 0.07893 0.55014
 C894 C 0.08184 -0.04756 0.49045
 C895 C 0.00890 -0.07559 0.43946
 C896 C 0.04879 0.00053 0.41525
 H897 H -0.03603 -0.05389 0.47427
 H898 H 0.01513 0.04090 0.44320
 H899 H -0.04374 0.03866 0.53877
 H900 H 0.05370 -0.01929 0.53184
 H901 H 0.01142 -0.07022 0.55550
 H902 H 0.03283 -0.03005 0.57731
 H903 H -0.02182 0.03396 0.41070
 H904 H -0.04698 0.06383 0.44220
 H905 H -0.02613 -0.08593 0.51649
 H906 H -0.06188 -0.05883 0.53629
 H907 H 0.05872 0.06034 0.45389
 H908 H 0.02534 0.08766 0.48310
 H909 H -0.08772 -0.01635 0.46503
 H910 H -0.05661 -0.04151 0.43056
 H911 H 0.05536 0.03887 0.55727
 H912 H 0.08749 0.01531 0.52355
 O913 O 0.73999 0.23317 0.33209
 O914 O 0.75704 0.28534 0.33574
 O915 O 0.66618 0.24903 0.26971
 O916 O 0.66092 0.26344 0.22281
 O917 O 0.73143 0.17607 0.25489
 O918 O 0.78204 0.17580 0.24026
 O919 O 0.74464 0.32635 0.19411
 O920 O 0.69764 0.32774 0.21763
 O921 O 0.80923 0.32079 0.25467
 O922 O 0.81417 0.29155 0.30458
 O923 O 0.81058 0.26291 0.19164
 O924 O 0.78233 0.21473 0.18071
 O925 O 0.76587 0.28734 0.17098
 O926 O 0.74842 0.23861 0.16162
 O927 O 0.83237 0.27288 0.23523
 O928 O 0.83563 0.25877 0.28401
 O929 O 0.76690 0.34381 0.23941
 O930 O 0.71974 0.34559 0.26095
 O931 O 0.75606 0.19338 0.30639
 O932 O 0.79975 0.18824 0.27954
 O933 O 0.68836 0.19920 0.24327
 O934 O 0.68265 0.22857 0.19871
 O935 O 0.68951 0.26155 0.31231
 O936 O 0.71374 0.29983 0.32638
 Zr937 Zr 0.73330 0.26688 0.30017
 O938 O 0.75806 0.29786 0.27649
 Zr939 Zr 0.70053 0.24377 0.23895
 O940 O 0.72545 0.27250 0.21232
 Zr941 Zr 0.76117 0.21007 0.26379
 O942 O 0.78890 0.23799 0.24005
 Zr943 Zr 0.73667 0.30966 0.23674
 O944 O 0.70960 0.28239 0.26261
 Zr945 Zr 0.79715 0.27671 0.26382
 O946 O 0.77343 0.24639 0.28956
 Zr947 Zr 0.76642 0.25293 0.20207
 O948 O 0.73942 0.22256 0.22461
 O949 O 0.72171 0.22913 0.27730
 O950 O 0.77679 0.29078 0.22492
 C951 C 0.74911 0.20628 0.33030
 C952 C 0.66636 0.25575 0.29720
 C953 C 0.70389 0.17570 0.24831
 C954 C 0.75731 0.31438 0.17199
 C955 C 0.79446 0.34371 0.24582
 C956 C 0.83315 0.26993 0.20743
 H957 H 0.76177 0.31550 0.28852
 H958 H 0.80715 0.22687 0.23553
 H959 H 0.70938 0.21578 0.28915
 H960 H 0.71426 0.27830 0.19436
 H961 H 0.68113 0.32094 0.22986
 H962 H 0.66626 0.27908 0.20863
 H963 H 0.83696 0.23793 0.27793
 H964 H 0.80830 0.20091 0.29497
 H965 H 0.70291 0.33810 0.27230
 H966 H 0.71639 0.31874 0.31584
 H967 H 0.80195 0.20973 0.18922
 H968 H 0.77298 0.17583 0.22036
 H969 H 0.77488 0.27290 0.33905
 H970 H 0.80760 0.31222 0.30730
 H971 H 0.69700 0.21422 0.19068
 H972 H 0.72744 0.24473 0.16113
 O973 O 0.76190 0.68475 0.69086
 O974 O 0.80659 0.68048 0.72141
 O975 O 0.69406 0.69066 0.75319
 O976 O 0.67923 0.72112 0.78884
 O977 O 0.69939 0.75266 0.67835
 O978 O 0.72853 0.79704 0.67169
 O979 O 0.75773 0.77717 0.82807
 O980 O 0.74054 0.72631 0.83135
 O981 O 0.83603 0.76100 0.77316
 O982 O 0.84015 0.74159 0.72124
 O983 O 0.77512 0.83395 0.75317
 O984 O 0.72352 0.83448 0.73023
 O985 O 0.74359 0.81706 0.80043
 O986 O 0.70537 0.82599 0.76909
 O987 O 0.81775 0.80919 0.74473
 O988 O 0.83058 0.78213 0.70471
 O989 O 0.80960 0.74946 0.81371
 O990 O 0.78384 0.70962 0.82476
 O991 O 0.74657 0.72493 0.66422
 O992 O 0.76710 0.77351 0.65886
 O993 O 0.67463 0.73434 0.71766
 O994 O 0.66720 0.76072 0.76470
 O995 O 0.73562 0.66754 0.73771
 O996 O 0.78520 0.66601 0.75929
 Zr997 Zr 0.76672 0.70109 0.73409
 O998 O 0.79188 0.72760 0.76208
 Zr999 Zr 0.70499 0.73569 0.75317
 O1000 O 0.72792 0.76436 0.78099
 Zr1001 Zr 0.74236 0.75872 0.69511
 O1002 O 0.76753 0.78767 0.72069
 Zr1003 Zr 0.76654 0.74366 0.79713
 O1004 O 0.74221 0.71345 0.77132
 Zr1005 Zr 0.80439 0.76557 0.73912
 O1006 O 0.78154 0.73759 0.70977
 Zr1007 Zr 0.74296 0.80103 0.75714
 O1008 O 0.71630 0.77424 0.72986
 O1009 O 0.72890 0.72135 0.71763
 O1010 O 0.78109 0.78144 0.77536
 C1011 C 0.75321 0.69741 0.66674
 C1012 C 0.70869 0.66735 0.74597
 C1013 C 0.67639 0.74189 0.69038
 C1014 C 0.74809 0.80391 0.82524
 C1015 C 0.83400 0.75421 0.80055
 C1016 C 0.80301 0.83314 0.74861
 H1017 H 0.80900 0.71565 0.76898
 H1018 H 0.77334 0.80450 0.70818
 H1019 H 0.71729 0.70761 0.70568
 H1020 H 0.71441 0.77024 0.79679
 H1021 H 0.73030 0.70885 0.82352
 H1022 H 0.68728 0.73012 0.80689
 H1023 H 0.81694 0.78961 0.68919
 H1024 H 0.78591 0.76219 0.65937
 H1025 H 0.79436 0.69547 0.81210
 H1026 H 0.77438 0.66584 0.77806
 H1027 H 0.73751 0.83913 0.71438
 H1028 H 0.71141 0.80531 0.68228
 H1029 H 0.81446 0.69236 0.70498
 H1030 H 0.84421 0.72446 0.73436
 H1031 H 0.66516 0.77697 0.75010
 H1032 H 0.69126 0.81201 0.77768
 O1033 O 0.31784 0.19202 0.74246
 O1034 O 0.32382 0.22179 0.69780
 O1035 O 0.31199 0.25941 0.80824
 O1036 O 0.28199 0.29776 0.81897
 O1037 O 0.25232 0.18669 0.80531
 O1038 O 0.20634 0.17975 0.77691
 O1039 O 0.22784 0.33316 0.73487
 O1040 O 0.27730 0.33624 0.75437
 O1041 O 0.24270 0.27229 0.66285
 O1042 O 0.26256 0.21976 0.66224
 O1043 O 0.16936 0.25642 0.72298
 O1044 O 0.16373 0.24514 0.77043
 O1045 O 0.18729 0.30790 0.74857
 O1046 O 0.18270 0.27587 0.79498
 O1047 O 0.19437 0.24350 0.68190
 O1048 O 0.22398 0.20355 0.67180
 O1049 O 0.25418 0.31435 0.68631
 O1050 O 0.29555 0.32460 0.71166
 O1051 O 0.27701 0.16786 0.75748
 O1052 O 0.22761 0.16315 0.74070
 O1053 O 0.26703 0.22821 0.82850
 O1054 O 0.24185 0.27706 0.83033
 O1055 O 0.33583 0.24029 0.76888
 O1056 O 0.33949 0.25886 0.71983
 Zr1057 Zr 0.30280 0.23616 0.73649
 O1058 O 0.27665 0.26288 0.70821
 Zr1059 Zr 0.26735 0.26084 0.79512
 O1060 O 0.23945 0.28821 0.76903
 Zr1061 Zr 0.24465 0.20073 0.76158
 O1062 O 0.21634 0.22534 0.73392
 Zr1063 Zr 0.26072 0.30033 0.73018
 O1064 O 0.29027 0.27557 0.75767
 Zr1065 Zr 0.23851 0.24014 0.69631
 O1066 O 0.26614 0.21187 0.72224
 Zr1067 Zr 0.20271 0.26424 0.75475
 O1068 O 0.22879 0.23773 0.78417
 O1069 O 0.28217 0.22282 0.77467
 O1070 O 0.22274 0.27871 0.71607
 C1071 C 0.30421 0.16852 0.75023
 C1072 C 0.33530 0.24996 0.79534
 C1073 C 0.26131 0.20053 0.82816
 C1074 C 0.20069 0.33189 0.74247
 C1075 C 0.24877 0.29985 0.66275
 C1076 C 0.17044 0.24772 0.69611
 H1077 H 0.28859 0.26825 0.69097
 H1078 H 0.19970 0.21248 0.72896
 H1079 H 0.29569 0.21070 0.78717
 H1080 H 0.23385 0.30558 0.78078
 H1081 H 0.29538 0.32920 0.76481
 H1082 H 0.27487 0.31558 0.80828
 H1083 H 0.21131 0.19167 0.68475
 H1084 H 0.23403 0.16441 0.72003
 H1085 H 0.31057 0.31020 0.70517
 H1086 H 0.34029 0.27789 0.73028
 H1087 H 0.16891 0.22448 0.77548
 H1088 H 0.20015 0.19009 0.79495
 H1089 H 0.31201 0.20538 0.68996
 H1090 H 0.27923 0.23266 0.65733
 H1091 H 0.22522 0.26342 0.83290
 H1092 H 0.19051 0.29514 0.80110
 O1093 O 0.19253 0.73861 0.31596
 O1094 O 0.22340 0.69491 0.32114
 O1095 O 0.25548 0.80760 0.31137
 O1096 O 0.29493 0.81818 0.28358
 O1097 O 0.18351 0.80521 0.25108
 O1098 O 0.17450 0.77729 0.20599
 O1099 O 0.33050 0.73898 0.22605
 O1100 O 0.33553 0.75595 0.27438
 O1101 O 0.27247 0.66488 0.23863
 O1102 O 0.22030 0.66209 0.25886
 O1103 O 0.25330 0.72750 0.16728
 O1104 O 0.23973 0.77537 0.16294
 O1105 O 0.30406 0.75242 0.18548
 O1106 O 0.27113 0.79940 0.18193
 O1107 O 0.24199 0.68505 0.19135
 O1108 O 0.20306 0.67321 0.21960
 O1109 O 0.31409 0.68934 0.25003
 O1110 O 0.32370 0.71495 0.29484
 O1111 O 0.16663 0.75733 0.27687
 O1112 O 0.16082 0.73884 0.22755
 O1113 O 0.22469 0.82860 0.26684
 O1114 O 0.27202 0.83280 0.24218
 O1115 O 0.24100 0.76553 0.33434
 O1116 O 0.26045 0.71620 0.33623
 Zr1117 Zr 0.23611 0.73468 0.30058
 O1118 O 0.26272 0.70822 0.27378
 Zr1119 Zr 0.25786 0.79581 0.26672
 O1120 O 0.28517 0.77172 0.23814
 Zr1121 Zr 0.19797 0.76157 0.24356
 O1122 O 0.22268 0.73594 0.21434
 Zr1123 Zr 0.29887 0.73225 0.25863
 O1124 O 0.27428 0.75777 0.28872
 Zr1125 Zr 0.23912 0.69763 0.23555
 O1126 O 0.21097 0.72150 0.26394
 Zr1127 Zr 0.26068 0.75823 0.20121
 O1128 O 0.23394 0.78572 0.22805
 O1129 O 0.22102 0.77355 0.28105
 O1130 O 0.27663 0.71913 0.22049
 C1131 C 0.16868 0.74865 0.30380
 C1132 C 0.24831 0.79279 0.33442
 C1133 C 0.19707 0.82801 0.26050
 C1134 C 0.32860 0.74607 0.19870
 C1135 C 0.30027 0.66558 0.24419
 C1136 C 0.24580 0.70023 0.16780
 H1137 H 0.26877 0.69046 0.28518
 H1138 H 0.20964 0.73137 0.19751
 H1139 H 0.20903 0.78541 0.29471
 H1140 H 0.30206 0.78402 0.23263
 H1141 H 0.32862 0.76790 0.29114
 H1142 H 0.31234 0.81160 0.27240
 H1143 H 0.18887 0.68753 0.21073
 H1144 H 0.16049 0.71971 0.23819
 H1145 H 0.31286 0.69831 0.30351
 H1146 H 0.28070 0.72369 0.33430
 H1147 H 0.21864 0.77740 0.16774
 H1148 H 0.18468 0.79514 0.19897
 H1149 H 0.20736 0.68671 0.30891
 H1150 H 0.23414 0.65622 0.27490
 H1151 H 0.25866 0.83488 0.22491
 H1152 H 0.29092 0.80498 0.18908
 O1153 O 0.25086 0.81767 0.69366
 O1154 O 0.21075 0.82965 0.72622
 O1155 O 0.32123 0.80417 0.75770
 O1156 O 0.32782 0.77533 0.79810
 O1157 O 0.31145 0.74497 0.68661
 O1158 O 0.27847 0.70390 0.67780
 O1159 O 0.24252 0.72590 0.83164
 O1160 O 0.26605 0.77269 0.83646
 O1161 O 0.16992 0.75070 0.77199
 O1162 O 0.17141 0.76950 0.71683
 O1163 O 0.22417 0.67090 0.75597
 O1164 O 0.27506 0.66443 0.73793
 O1165 O 0.25262 0.68471 0.80522
 O1166 O 0.29444 0.67285 0.77589
 O1167 O 0.18459 0.70000 0.74399
 O1168 O 0.17524 0.72832 0.70468
 O1169 O 0.19592 0.75868 0.81416
 O1170 O 0.22465 0.79623 0.82511
 O1171 O 0.26555 0.77712 0.66841
 O1172 O 0.24305 0.73037 0.66220
 O1173 O 0.33637 0.75586 0.72873
 O1174 O 0.33793 0.73325 0.77704
 O1175 O 0.28297 0.83176 0.73950
 O1176 O 0.23567 0.84008 0.76219
 Zr1177 Zr 0.24750 0.80260 0.73738
 O1178 O 0.21795 0.77875 0.76324
 Zr1179 Zr 0.30386 0.76136 0.76065
 O1180 O 0.27664 0.73524 0.78708
 Zr1181 Zr 0.26700 0.74306 0.70006
 O1182 O 0.23768 0.71685 0.72403
 Zr1183 Zr 0.23978 0.76006 0.80006
 O1184 O 0.26876 0.78754 0.77622
 Zr1185 Zr 0.20237 0.74242 0.73981
 O1186 O 0.22967 0.76813 0.71227
 Zr1187 Zr 0.25889 0.70065 0.76225
 O1188 O 0.28942 0.72458 0.73672
 O1189 O 0.28360 0.77852 0.72297
 O1190 O 0.22225 0.72414 0.77762
 C1191 C 0.25850 0.80459 0.66995
 C1192 C 0.30996 0.82853 0.74786
 C1193 C 0.33535 0.74997 0.70118
 C1194 C 0.24813 0.69817 0.82948
 C1195 C 0.17168 0.75680 0.79956
 C1196 C 0.19696 0.67477 0.74874
 H1197 H 0.20205 0.79253 0.76886
 H1198 H 0.23076 0.70090 0.71112
 H1199 H 0.29691 0.79031 0.71060
 H1200 H 0.28836 0.72798 0.80417
 H1201 H 0.27750 0.79005 0.83020
 H1202 H 0.31907 0.76583 0.81554
 H1203 H 0.18842 0.71953 0.68986
 H1204 H 0.22435 0.74184 0.66228
 H1205 H 0.22051 0.81259 0.81114
 H1206 H 0.24864 0.84007 0.77986
 H1207 H 0.26329 0.66336 0.71953
 H1208 H 0.29375 0.69370 0.69000
 H1209 H 0.19822 0.81783 0.71309
 H1210 H 0.16455 0.78479 0.73057
 H1211 H 0.33539 0.71411 0.76718
 H1212 H 0.30493 0.68267 0.79219
 O1213 O 0.25562 0.18750 0.18481
 O1214 O 0.30071 0.18206 0.21396
 O1215 O 0.18959 0.19232 0.24998
 O1216 O 0.17559 0.22258 0.28601
 O1217 O 0.19257 0.25471 0.17505
 O1218 O 0.22019 0.29975 0.16882
 O1219 O 0.25684 0.27635 0.32334
 O1220 O 0.24020 0.22820 0.32794
 O1221 O 0.33200 0.26168 0.26513
 O1222 O 0.33436 0.24348 0.21241
 O1223 O 0.27130 0.33549 0.24960
 O1224 O 0.21884 0.33681 0.22903
 O1225 O 0.24341 0.31750 0.29784
 O1226 O 0.20216 0.32680 0.26875
 O1227 O 0.31319 0.31025 0.23814
 O1228 O 0.32440 0.28392 0.19719
 O1229 O 0.30716 0.25185 0.30680
 O1230 O 0.28031 0.20696 0.31575
 O1231 O 0.23998 0.22824 0.15924
 O1232 O 0.25919 0.27774 0.15449
 O1233 O 0.16917 0.23612 0.21507
 O1234 O 0.16335 0.26268 0.26265
 O1235 O 0.23067 0.16933 0.23300
 O1236 O 0.28099 0.16745 0.25195
 Zr1237 Zr 0.26151 0.20290 0.22811
 O1238 O 0.28809 0.22871 0.25529
 Zr1239 Zr 0.20052 0.23739 0.24985
 O1240 O 0.22481 0.26523 0.27759
 Zr1241 Zr 0.23578 0.26131 0.19094
 O1242 O 0.26192 0.28975 0.21616
 Zr1243 Zr 0.26399 0.24398 0.29144
 O1244 O 0.23822 0.21465 0.26628
 Zr1245 Zr 0.29939 0.26697 0.23231
 O1246 O 0.27532 0.23965 0.20357
 Zr1247 Zr 0.23914 0.30247 0.25409
 O1248 O 0.21130 0.27638 0.22707
 O1249 O 0.22321 0.22352 0.21330
 O1250 O 0.27781 0.28205 0.26982
 C1251 C 0.24691 0.20071 0.16103
 C1252 C 0.20409 0.16907 0.24234
 C1253 C 0.17008 0.24359 0.18767
 C1254 C 0.24940 0.30372 0.32212
 C1255 C 0.33118 0.25653 0.29287
 C1256 C 0.29889 0.33407 0.24350
 H1257 H 0.30556 0.21676 0.26120
 H1258 H 0.26725 0.30684 0.20377
 H1259 H 0.21147 0.20979 0.20151
 H1260 H 0.21230 0.27082 0.29435
 H1261 H 0.22722 0.21245 0.32058
 H1262 H 0.18400 0.23152 0.30393
 H1263 H 0.31038 0.29338 0.18311
 H1264 H 0.27811 0.26664 0.15402
 H1265 H 0.29779 0.19889 0.30565
 H1266 H 0.27326 0.16893 0.27214
 H1267 H 0.23172 0.34112 0.21216
 H1268 H 0.20388 0.30786 0.18069
 H1269 H 0.30873 0.19466 0.19817
 H1270 H 0.33975 0.22668 0.22552
 H1271 H 0.16090 0.27894 0.24811
 H1272 H 0.18855 0.31249 0.27758
 O1273 O 0.71951 0.83700 0.23906
 O1274 O 0.76891 0.84306 0.25335
 O1275 O 0.73862 0.77693 0.16292
 O1276 O 0.75267 0.73169 0.15642
 O1277 O 0.66414 0.75560 0.22428
 O1278 O 0.65843 0.74704 0.27176
 O1279 O 0.81624 0.70113 0.24311
 O1280 O 0.81833 0.72870 0.19700
 O1281 O 0.80653 0.76063 0.30928
 O1282 O 0.77331 0.80436 0.31753
 O1283 O 0.74806 0.69084 0.30423
 O1284 O 0.70536 0.67904 0.27128
 O1285 O 0.77792 0.67520 0.26103
 O1286 O 0.72882 0.66665 0.23735
 O1287 O 0.76214 0.73215 0.32803
 O1288 O 0.73923 0.78119 0.33240
 O1289 O 0.83133 0.74871 0.26781
 O1290 O 0.83450 0.76791 0.22026
 O1291 O 0.67982 0.80976 0.25139
 O1292 O 0.67749 0.77751 0.29610
 O1293 O 0.68909 0.74645 0.18220
 O1294 O 0.72235 0.70398 0.17763
 O1295 O 0.74677 0.81959 0.18739
 O1296 O 0.78923 0.83022 0.21621
 Zr1297 Zr 0.75308 0.80557 0.23127
 O1298 O 0.78340 0.78163 0.25798
 Zr1299 Zr 0.73329 0.74506 0.19632
 O1300 O 0.76289 0.71840 0.22138
 Zr1301 Zr 0.69698 0.76659 0.25549
 O1302 O 0.72463 0.74072 0.28339
 Zr1303 Zr 0.79824 0.74378 0.23595
 O1304 O 0.77068 0.76962 0.20781
 Zr1305 Zr 0.76202 0.76520 0.29533
 O1306 O 0.73245 0.79219 0.27022
 Zr1307 Zr 0.74206 0.70482 0.26021
 O1308 O 0.71141 0.72859 0.23354
 O1309 O 0.71628 0.78231 0.21721
 O1310 O 0.77871 0.72816 0.27421
 C1311 C 0.69263 0.83443 0.24713
 C1312 C 0.74362 0.80474 0.16368
 C1313 C 0.66531 0.74813 0.19706
 C1314 C 0.80504 0.67754 0.25385
 C1315 C 0.83035 0.75464 0.29529
 C1316 C 0.75599 0.70460 0.32753
 H1317 H 0.79990 0.79456 0.26339
 H1318 H 0.71328 0.73421 0.30064
 H1319 H 0.70250 0.79411 0.20462
 H1320 H 0.77002 0.70156 0.20966
 H1321 H 0.81117 0.74177 0.18079
 H1322 H 0.77116 0.72100 0.16159
 H1323 H 0.72183 0.76866 0.33529
 H1324 H 0.68779 0.79508 0.30353
 H1325 H 0.83102 0.78874 0.22542
 H1326 H 0.79883 0.81848 0.20067
 H1327 H 0.69396 0.69035 0.28579
 H1328 H 0.66261 0.72565 0.27299
 H1329 H 0.76209 0.84142 0.27389
 H1330 H 0.79086 0.81264 0.30796
 H1331 H 0.70751 0.69488 0.19052
 H1332 H 0.74263 0.66336 0.22100
 O1333 O 0.68993 0.24813 0.80424
 O1334 O 0.71907 0.19953 0.81100
 O1335 O 0.75568 0.31190 0.80333
 O1336 O 0.79728 0.32074 0.77748
 O1337 O 0.68923 0.30835 0.73449
 O1338 O 0.68432 0.27686 0.69051
 O1339 O 0.83589 0.23929 0.72596
 O1340 O 0.83696 0.25997 0.77323
 O1341 O 0.77672 0.16601 0.73860
 O1342 O 0.72297 0.16524 0.75656
 O1343 O 0.76336 0.22403 0.66344
 O1344 O 0.74508 0.27760 0.65972
 O1345 O 0.81180 0.25099 0.68317
 O1346 O 0.78545 0.29192 0.67018
 O1347 O 0.74989 0.18318 0.68907
 O1348 O 0.70907 0.17282 0.71478
 O1349 O 0.81732 0.19136 0.75269
 O1350 O 0.82243 0.21678 0.79499
 O1351 O 0.66788 0.26110 0.76095
 O1352 O 0.66572 0.24270 0.71346
 O1353 O 0.72835 0.33162 0.75485
 O1354 O 0.77685 0.33494 0.73488
 O1355 O 0.73955 0.27063 0.82650
 O1356 O 0.74965 0.22246 0.83409
 Zr1357 Zr 0.73458 0.23962 0.79321
 O1358 O 0.76420 0.21191 0.77080
 Zr1359 Zr 0.76082 0.29854 0.75909
 O1360 O 0.78949 0.27294 0.73336
 Zr1361 Zr 0.70282 0.26388 0.73159
 O1362 O 0.72906 0.23539 0.70660
 Zr1363 Zr 0.80167 0.23470 0.75680
 O1364 O 0.77457 0.26123 0.78391
 Zr1365 Zr 0.74362 0.19865 0.73174
 O1366 O 0.71288 0.22478 0.75523
 Zr1367 Zr 0.76784 0.25720 0.69552
 O1368 O 0.74044 0.28694 0.71885
 O1369 O 0.72219 0.27775 0.77064
 O1370 O 0.78213 0.21928 0.71816
 C1371 C 0.66728 0.25640 0.78871
 C1372 C 0.74775 0.29756 0.82648
 C1373 C 0.70178 0.33128 0.74492
 C1374 C 0.83532 0.24573 0.69830
 C1375 C 0.80391 0.16746 0.74663
 C1376 C 0.75570 0.19689 0.66515
 H1377 H 0.76974 0.19507 0.78378
 H1378 H 0.71727 0.22962 0.68922
 H1379 H 0.70956 0.29079 0.78262
 H1380 H 0.80674 0.28490 0.72823
 H1381 H 0.82933 0.27120 0.79016
 H1382 H 0.81519 0.31401 0.76716
 H1383 H 0.69538 0.18645 0.70418
 H1384 H 0.66545 0.22271 0.72237
 H1385 H 0.81377 0.22717 0.81192
 H1386 H 0.77045 0.21655 0.83138
 H1387 H 0.72905 0.26434 0.65361
 H1388 H 0.69649 0.29312 0.68296
 H1389 H 0.70039 0.19505 0.80062
 H1390 H 0.73650 0.15935 0.77286
 H1391 H 0.76601 0.33550 0.71585
 H1392 H 0.79350 0.30634 0.68420
 C1393 C 0.06687 1.00897 1.16563
 C1394 C 0.09347 1.02546 1.16494
 C1395 C 0.10351 1.03560 1.13750
 C1396 C 0.08892 1.02846 1.11141
 C1397 C 0.06399 1.01065 1.11162
 C1398 C 0.05348 0.99982 1.13884
 C1399 C 0.05205 1.00295 1.19224
 C1400 C 0.02752 0.98484 1.19272
 C1401 C 0.01693 0.97273 1.16678
 C1402 C 0.02968 0.98016 1.14004
 H1403 H 0.05892 1.01251 1.21286
 H1404 H 0.01686 0.97999 1.21335
 H1405 H -0.00160 0.95799 1.16728
 H1406 H 0.02099 0.97014 1.12040
 H1407 H 0.12347 1.04826 1.13590
 H1408 H 0.09699 1.03728 1.09083
 C1409 C 0.56510 0.51921 0.66345
 C1410 C 0.59449 0.52929 0.66163
 C1411 C 0.60752 0.53221 0.63402
 C1412 C 0.59214 0.52485 0.60845
 C1413 C 0.56350 0.51361 0.60970
 C1414 C 0.55020 0.50968 0.63760
 C1415 C 0.55021 0.51822 0.69060
 C1416 C 0.52241 0.50581 0.69263
 C1417 C 0.50902 0.49402 0.66783
 C1418 C 0.52276 0.49577 0.64062
 H1419 H 0.55986 0.52708 0.71046
 H1420 H 0.51146 0.50487 0.71365
 H1421 H 0.48784 0.48352 0.66965
 H1422 H 0.51209 0.48533 0.62228
 H1423 H 0.62997 0.53977 0.63228
 H1424 H 0.60266 0.52823 0.58743
 C1425 C 0.39313 0.00474 0.64686
 C1426 C 0.40277 -0.02030 0.66347
 C1427 C 0.42594 -0.03778 0.65317
 C1428 C 0.44030 -0.03037 0.62746
 C1429 C 0.43222 -0.00507 0.61111
 C1430 C 0.40841 0.01287 0.62080
 C1431 C 0.36854 0.02183 0.65554
 C1432 C 0.36008 0.04713 0.63984
 C1433 C 0.37588 0.05590 0.61531
 C1434 C 0.39984 0.03906 0.60586
 H1435 H 0.35553 0.01570 0.67436
 H1436 H 0.34130 0.06011 0.64687
 H1437 H 0.36951 0.07584 0.60349
 H1438 H 0.41169 0.04712 0.58712
 H1439 H 0.43354 -0.05697 0.66560
 H1440 H 0.45805 -0.04471 0.62027
 C1441 C -0.11100 0.51472 1.13538
 C1442 C -0.10603 0.48796 1.15129
 C1443 C -0.08611 0.46709 1.14044
 C1444 C -0.07016 0.47279 1.11519
 C1445 C -0.07341 0.49962 1.09980
 C1446 C -0.09419 0.52085 1.10970
 C1447 C -0.13237 0.53552 1.14442
 C1448 C -0.13625 0.56221 1.12935
 C1449 C -0.11897 0.56872 1.10511
 C1450 C -0.09807 0.54834 1.09534
 H1451 H -0.14640 0.53125 1.16302
 H1452 H -0.15263 0.57801 1.13663
 H1453 H -0.12182 0.58966 1.09376
 H1454 H -0.08490 0.55455 1.07672
 H1455 H -0.08202 0.44655 1.15224
 H1456 H -0.05472 0.45607 1.10776
 C1457 C -0.11827 0.52647 0.36256
 C1458 C -0.10260 0.52029 0.33626
 C1459 C -0.07531 0.50547 0.33859
 C1460 C -0.06222 0.49957 0.36574
 C1461 C -0.07580 0.50777 0.39199
 C1462 C -0.10461 0.52073 0.39064
 C1463 C -0.14789 0.53661 0.36161
 C1464 C -0.16299 0.54297 0.38731
 C1465 C -0.14916 0.53913 0.41448
 C1466 C -0.12029 0.52838 0.41624
 H1467 H -0.15998 0.53898 0.34108
 H1468 H -0.18559 0.55088 0.38613
 H1469 H -0.16089 0.54448 0.43434
 H1470 H -0.11083 0.52640 0.43792
 H1471 H -0.06282 0.50007 0.31914
 H1472 H -0.04056 0.48920 0.36615
 C1473 C 0.37887 1.02389 -0.12784
 C1474 C 0.39562 1.01893 -0.15373
 C1475 C 0.42425 1.00710 -0.15068
 C1476 C 0.43709 1.00232 -0.12329
 C1477 C 0.42200 1.00881 -0.09744
 C1478 C 0.39227 1.01908 -0.09946
 C1479 C 0.34859 1.03161 -0.12942
 C1480 C 0.33240 1.03615 -0.10400
 C1481 C 0.34578 1.03278 -0.07654
 C1482 C 0.37541 1.02462 -0.07417
 H1483 H 0.33683 1.03328 -0.15017
 H1484 H 0.30923 1.04200 -0.10561
 H1485 H 0.33293 1.03596 -0.05695
 H1486 H 0.38454 1.02230 -0.05232
 H1487 H 0.43769 1.00290 -0.16979
 H1488 H 0.45960 0.99407 -0.12235
 C1489 C 0.56611 0.49042 -0.16995
 C1490 C 0.59421 0.47633 -0.16883
 C1491 C 0.60758 0.47012 -0.14151
 C1492 C 0.59359 0.47761 -0.11546
 C1493 C 0.56606 0.49201 -0.11599
 C1494 C 0.55278 0.49980 -0.14344
 C1495 C 0.55078 0.49523 -0.19689
 C1496 C 0.52432 0.51116 -0.19785
 C1497 C 0.51264 0.52261 -0.17216
 C1498 C 0.52670 0.51710 -0.14520
 H1499 H 0.55894 0.48662 -0.21739
 H1500 H 0.51304 0.51497 -0.21868
 H1501 H 0.49252 0.53568 -0.17307
 H1502 H 0.51735 0.52709 -0.12593
 H1503 H 0.62908 0.45947 -0.14035
 H1504 H 0.60400 0.47139 -0.09471
 C1505 C 0.06771 -0.00583 0.33414
 C1506 C 0.09635 -0.01873 0.33652
 C1507 C 0.10912 -0.02337 0.36440
 C1508 C 0.09401 -0.01558 0.38975
 C1509 C 0.06600 -0.00217 0.38794
 C1510 C 0.05335 0.00420 0.35986
 C1511 C 0.05275 -0.00299 0.30674
 C1512 C 0.02579 0.01195 0.30446
 C1513 C 0.01319 0.02431 0.32928
 C1514 C 0.02679 0.02056 0.35672
 H1515 H 0.06154 -0.01244 0.28688
 H1516 H 0.01483 0.01429 0.28327
 H1517 H -0.00733 0.03664 0.32731
 H1518 H 0.01666 0.03114 0.37529
 H1519 H 0.13093 -0.03322 0.36656
 H1520 H 0.10395 -0.02086 0.41098
 C1521 C 0.12545 1.11837 1.02621
 C1522 C 0.15200 1.10543 1.01558
 C1523 C 0.15038 1.07872 1.00021
 C1524 C 0.12403 1.06384 0.99742
 C1525 C 0.09810 1.07496 1.00965
 C1526 C 0.09857 1.10251 1.02419
 C1527 C 0.12465 1.14732 1.03753
 C1528 C 0.09894 1.15908 1.04930
 C1529 C 0.07346 1.14255 1.04958
 C1530 C 0.07314 1.11459 1.03720
 H1531 H 0.14367 1.16138 1.03691
 H1532 H 0.09878 1.18111 1.05825
 H1533 H 0.05372 1.15172 1.05893
 H1534 H 0.05287 1.10268 1.03797
 H1535 H 0.17000 1.06802 0.99185
 H1536 H 0.12406 1.04288 0.98616
 C1537 C 0.66362 0.56787 0.50584
 C1538 C 0.66195 0.59618 0.51886
 C1539 C 0.63433 0.60901 0.52418
 C1540 C 0.60855 0.59430 0.51699
 C1541 C 0.60952 0.56648 0.50386
 C1542 C 0.63725 0.55356 0.49711
 C1543 C 0.69093 0.55321 0.50165
 C1544 C 0.69232 0.52627 0.48722
 C1545 C 0.66669 0.51342 0.47671
 C1546 C 0.63941 0.52688 0.48152
 H1547 H 0.71141 0.56220 0.50964
 H1548 H 0.71342 0.51547 0.48391
 H1549 H 0.66793 0.49284 0.46490
 H1550 H 0.62015 0.51655 0.47237
 H1551 H 0.63272 0.63060 0.53407
 H1552 H 0.58763 0.60440 0.52254
 C1553 C 0.66774 0.43051 -0.01622
 C1554 C 0.66680 0.40105 -0.02687
 C1555 C 0.63934 0.38769 -0.03051
 C1556 C 0.61333 0.40257 -0.02343
 C1557 C 0.61367 0.43157 -0.01308
 C1558 C 0.64121 0.44505 -0.00773
 C1559 C 0.69433 0.44646 -0.01502
 C1560 C 0.69528 0.47433 -0.00247
 C1561 C 0.66988 0.48698 0.00895
 C1562 C 0.64311 0.47252 0.00641
 H1563 H 0.71458 0.43776 -0.02399
 H1564 H 0.71591 0.48597 -0.00126
 H1565 H 0.67084 0.50820 0.01957
 H1566 H 0.62414 0.48264 0.01636
 H1567 H 0.63798 0.36515 -0.03803
 H1568 H 0.59260 0.39153 -0.02697
 C1569 C 0.16274 -0.06746 0.47309
 C1570 C 0.16133 -0.09855 0.47481
 C1571 C 0.13533 -0.11186 0.48363
 C1572 C 0.11035 -0.09487 0.48971
 C1573 C 0.11069 -0.06385 0.48797
 C1574 C 0.13800 -0.04987 0.48141
 C1575 C 0.18877 -0.05354 0.46378
 C1576 C 0.19122 -0.02305 0.46451
 C1577 C 0.16818 -0.00593 0.47508
 C1578 C 0.14207 -0.01908 0.48376
 H1579 H 0.20752 -0.06608 0.45599
 H1580 H 0.21139 -0.01273 0.45760
 H1581 H 0.17062 0.01769 0.47684
 H1582 H 0.12613 -0.00467 0.49356
 H1583 H 0.13428 -0.13563 0.48561
 H1584 H 0.09033 -0.10634 0.49507
 C1585 C 0.33497 -0.06313 0.50280
 C1586 C 0.33456 -0.08900 0.52098
 C1587 C 0.36148 -0.10043 0.53207
 C1588 C 0.38807 -0.08738 0.52527
 C1589 C 0.38900 -0.06247 0.50709
 C1590 C 0.36248 -0.05086 0.49469
 C1591 C 0.30885 -0.04777 0.49416
 C1592 C 0.30976 -0.02350 0.47518
 C1593 C 0.33659 -0.01359 0.46485
 C1594 C 0.36276 -0.02697 0.47459
 H1595 H 0.28753 -0.05380 0.50241
 H1596 H 0.28951 -0.01236 0.46843
 H1597 H 0.33717 0.00491 0.44967
 H1598 H 0.38319 -0.01867 0.46607
 H1599 H 0.36221 -0.12018 0.54565
 H1600 H 0.40807 -0.09634 0.53507
 C1601 C -0.16417 0.43898 1.00219
 C1602 C -0.16280 0.41140 1.01711
 C1603 C -0.13535 0.39808 1.02302
 C1604 C -0.10940 0.41175 1.01483
 C1605 C -0.10999 0.43913 1.00030
 C1606 C -0.13767 0.45228 0.99259
 C1607 C -0.19131 0.45382 0.99684
 C1608 C -0.19251 0.47999 0.98055
 C1609 C -0.16685 0.49177 0.96923
 C1610 C -0.13971 0.47807 0.97505
 H1611 H -0.21180 0.44549 1.00525
 H1612 H -0.21349 0.49095 0.97637
 H1613 H -0.16797 0.51166 0.95591
 H1614 H -0.12053 0.48737 0.96500
 H1615 H -0.13398 0.37682 1.03404
 H1616 H -0.08863 0.40114 1.02068
 C1617 C -0.16758 0.57001 0.49212
 C1618 C -0.16667 0.59893 0.47962
 C1619 C -0.13930 0.61219 0.47556
 C1620 C -0.11322 0.59740 0.48304
 C1621 C -0.11348 0.56858 0.49422
 C1622 C -0.14086 0.55552 0.50089
 C1623 C -0.19424 0.55435 0.49455
 C1624 C -0.19489 0.52689 0.50847
 C1625 C -0.16912 0.51432 0.52001
 C1626 C -0.14234 0.52842 0.51630
 H1627 H -0.21477 0.56286 0.48543
 H1628 H -0.21555 0.51546 0.51058
 H1629 H -0.16982 0.49340 0.53159
 H1630 H -0.12299 0.51824 0.52623
 H1631 H -0.13803 0.63446 0.46688
 H1632 H -0.09256 0.60820 0.47875
 C1633 C 0.32730 1.06108 -0.00003
 C1634 C 0.32717 1.08526 -0.02054
 C1635 C 0.35435 1.09452 -0.03173
 C1636 C 0.38067 1.08152 -0.02237
 C1637 C 0.38138 1.06002 -0.00025
 C1638 C 0.35462 1.04972 0.01134
 C1639 C 0.30123 1.04623 0.00769
 C1640 C 0.30170 1.02379 0.02886
 C1641 C 0.32814 1.01500 0.04217
 C1642 C 0.35446 1.02757 0.03336
 H1643 H 0.28035 1.05125 -0.00299
 H1644 H 0.28144 1.01310 0.03486
 H1645 H 0.32836 0.99780 0.05884
 H1646 H 0.37465 1.01970 0.04377
 H1647 H 0.35568 1.11249 -0.04747
 H1648 H 0.40063 1.08753 -0.03346
 C1649 C 0.01647 1.13734 1.11241
 C1650 C 0.00953 1.16388 1.09690
 C1651 C -0.00574 1.16217 1.06996
 C1652 C -0.01060 1.13502 1.05681
 C1653 C -0.00056 1.10862 1.07008
 C1654 C 0.01326 1.10969 1.09832
 C1655 C 0.02516 1.13772 1.14231
 C1656 C 0.03459 1.11206 1.15675
 C1657 C 0.03502 1.08552 1.14181
 C1658 C 0.02448 1.08424 1.11293
 H1659 H 0.02401 1.15784 1.15485
 H1660 H 0.04176 1.11281 1.17953
 H1661 H 0.04292 1.06573 1.15288
 H1662 H 0.02549 1.06321 1.10247
 H1663 H -0.01209 1.18201 1.05789
 H1664 H -0.02142 1.13473 1.03545
 C1665 C 0.49945 0.64980 0.59855
 C1666 C 0.52185 0.66787 0.58678
 C1667 C 0.53581 0.65959 0.56092
 C1668 C 0.52821 0.63383 0.54671
 C1669 C 0.50605 0.61540 0.55754
 C1670 C 0.49047 0.62417 0.58306
 C1671 C 0.48592 0.65650 0.62559
 C1672 C 0.46257 0.63986 0.63588
 C1673 C 0.45215 0.61642 0.61949
 C1674 C 0.46580 0.60867 0.59330
 H1675 H 0.49327 0.67449 0.63913
 H1676 H 0.45221 0.64548 0.65645
 H1677 H 0.43341 0.60412 0.62711
 H1678 H 0.45613 0.59113 0.58089
 H1679 H 0.55286 0.67321 0.55164
 H1680 H 0.54031 0.62809 0.52715
 C1681 C -0.05276 0.64189 0.40469
 C1682 C -0.02842 0.65908 0.39539
 C1683 C 0.00011 0.64653 0.39778
 C1684 C 0.00499 0.61905 0.41109
 C1685 C -0.01861 0.60232 0.42076
 C1686 C -0.04771 0.61254 0.41519
 C1687 C -0.08200 0.65306 0.40482
 C1688 C -0.10565 0.63441 0.40927
 C1689 C -0.10062 0.60477 0.41563
 C1690 C -0.07196 0.59409 0.41999
 H1691 H -0.08712 0.67616 0.40183
 H1692 H -0.12798 0.64306 0.40805
 H1693 H -0.11911 0.59049 0.41890
 H1694 H -0.06889 0.57129 0.42670
 H1695 H 0.01908 0.65844 0.39010
 H1696 H 0.02741 0.61119 0.41465
 C1697 C 0.45203 1.16157 -0.06150
 C1698 C 0.47095 1.16657 -0.08570
 C1699 C 0.49302 1.14572 -0.09192
 C1700 C 0.49539 1.11941 -0.07616
 C1701 C 0.47670 1.11327 -0.05262
 C1702 C 0.45500 1.13492 -0.04462
 C1703 C 0.43144 1.18340 -0.05252
 C1704 C 0.41307 1.17860 -0.02877
 C1705 C 0.41527 1.15247 -0.01286
 C1706 C 0.43609 1.13110 -0.02036
 H1707 H 0.42963 1.20469 -0.06325
 H1708 H 0.39726 1.19541 -0.02247
 H1709 H 0.40093 1.14881 0.00565
 H1710 H 0.43644 1.11172 -0.00677
 H1711 H 0.50794 1.14930 -0.11001
 H1712 H 0.51241 1.10373 -0.08231
 C1713 C 0.55242 0.35580 -0.09607
 C1714 C 0.52866 0.33607 -0.10216
 C1715 C 0.49967 0.34616 -0.09627
 C1716 C 0.49415 0.37358 -0.08397
 C1717 C 0.51705 0.39291 -0.07867
 C1718 C 0.54599 0.38508 -0.08675
 C1719 C 0.58248 0.34710 -0.09692
 C1720 C 0.60477 0.36790 -0.09556
 C1721 C 0.59781 0.39741 -0.09096
 C1722 C 0.56885 0.40579 -0.08516
 H1723 H 0.58925 0.32425 -0.09826
 H1724 H 0.62756 0.36102 -0.09767
 H1725 H 0.61515 0.41352 -0.08999
 H1726 H 0.56443 0.42854 -0.07953
 H1727 H 0.48058 0.33318 -0.10163
 H1728 H 0.47178 0.37964 -0.07823
 C1729 C 0.05004 -0.14086 0.40844
 C1730 C 0.02613 -0.15823 0.39785
 C1731 C -0.00239 -0.14541 0.39758
 C1732 C -0.00781 -0.11773 0.40967
 C1733 C 0.01536 -0.10101 0.42054
 C1734 C 0.04459 -0.11129 0.41729
 C1735 C 0.07914 -0.15196 0.41156
 C1736 C 0.10260 -0.13319 0.41699
 C1737 C 0.09738 -0.10330 0.42132
 C1738 C 0.06857 -0.09261 0.42293
 H1739 H 0.08422 -0.17506 0.41027
 H1740 H 0.12488 -0.14195 0.41795
 H1741 H 0.11565 -0.08863 0.42485
 H1742 H 0.06516 -0.06954 0.42799
 H1743 H -0.02101 -0.15718 0.38872
 H1744 H -0.03032 -0.10975 0.41138
 C1745 C 0.50588 -0.13699 0.61682
 C1746 C 0.48034 -0.15366 0.61072
 C1747 C 0.46095 -0.14424 0.58837
 C1748 C 0.46702 -0.11954 0.57135
 C1749 C 0.49263 -0.10319 0.57595
 C1750 C 0.51256 -0.11203 0.59882
 C1751 C 0.52513 -0.14487 0.64028
 C1752 C 0.55106 -0.12948 0.64511
 C1753 C 0.55841 -0.10620 0.62660
 C1754 C 0.53952 -0.09760 0.60357
 H1755 H 0.52023 -0.16290 0.65511
 H1756 H 0.56571 -0.13588 0.66308
 H1757 H 0.57892 -0.09477 0.63003
 H1758 H 0.54670 -0.08013 0.58926
 H1759 H 0.44155 -0.15690 0.58313
 H1760 H 0.45159 -0.11333 0.55406
 C1761 C 0.00856 0.35882 1.10471
 C1762 C -0.02015 0.34626 1.10431
 C1763 C -0.04307 0.36164 1.08946
 C1764 C -0.03764 0.38701 1.07331
 C1765 C -0.00925 0.39817 1.07134
 C1766 C 0.01417 0.38439 1.08726
 C1767 C 0.03145 0.34765 1.12323
 C1768 C 0.05964 0.35940 1.12229
 C1769 C 0.06555 0.38281 1.10340
 C1770 C 0.04306 0.39536 1.08612
 H1771 H 0.02771 0.33020 1.13904
 H1772 H 0.07698 0.35030 1.13633
 H1773 H 0.08756 0.39163 1.10252
 H1774 H 0.04848 0.41369 1.07197
 H1775 H -0.06521 0.35308 1.08859
 H1776 H -0.05581 0.39782 1.06174
 C1777 C 0.80001 0.34637 0.10825
 C1778 C 0.77641 0.35571 0.08898
 C1779 C 0.74727 0.35342 0.09945
 C1780 C 0.74128 0.34155 0.12709
 C1781 C 0.76411 0.33270 0.14601
 C1782 C 0.79363 0.33703 0.13752
 C1783 C 0.82962 0.34380 0.09895
 C1784 C 0.85244 0.33836 0.11911
 C1785 C 0.84620 0.33367 0.14858
 C1786 C 0.81708 0.33170 0.15759
 H1787 H 0.83562 0.34542 0.07610
 H1788 H 0.87506 0.33779 0.11182
 H1789 H 0.86402 0.33060 0.16428
 H1790 H 0.81297 0.32641 0.18042
 H1791 H 0.72859 0.36109 0.08635
 H1792 H 0.71857 0.33861 0.13346
 C1793 C 0.24724 0.86250 0.60852
 C1794 C 0.27267 0.85627 0.59172
 C1795 C 0.29239 0.83414 0.60110
 C1796 C 0.28694 0.81764 0.62623
 C1797 C 0.26161 0.82257 0.64288
 C1798 C 0.24118 0.84497 0.63385
 C1799 C 0.22763 0.88574 0.60057
 C1800 C 0.20187 0.89062 0.61628
 C1801 C 0.19508 0.87243 0.63997
 C1802 C 0.21441 0.84973 0.64864
 H1803 H 0.23209 0.90037 0.58228
 H1804 H 0.18693 0.90838 0.60982
 H1805 H 0.17472 0.87588 0.65168
 H1806 H 0.20777 0.83567 0.66650
 H1807 H 0.31177 0.82896 0.58833
 H1808 H 0.30272 0.80070 0.63271
 C1809 C 0.75526 0.63931 0.60566
 C1810 C 0.72878 0.64742 0.59051
 C1811 C 0.71083 0.66977 0.60166
 C1812 C 0.71948 0.68530 0.62633
 C1813 C 0.74634 0.67905 0.64088
 C1814 C 0.76440 0.65555 0.63083
 C1815 C 0.77293 0.61549 0.59612
 C1816 C 0.79948 0.60844 0.61038
 C1817 C 0.80895 0.62496 0.63425
 C1818 C 0.79172 0.64836 0.64438
 H1819 H 0.76628 0.60204 0.57773
 H1820 H 0.81286 0.59018 0.60276
 H1821 H 0.82979 0.61963 0.64497
 H1822 H 0.80028 0.66085 0.66257
 H1823 H 0.69058 0.67623 0.59033
 H1824 H 0.70503 0.70279 0.63393
 C1825 C 0.24907 0.14133 0.10124
 C1826 C 0.22366 0.15026 0.08478
 C1827 C 0.20672 0.17422 0.09415
 C1828 C 0.21509 0.19012 0.11864
 C1829 C 0.24090 0.18289 0.13459
 C1830 C 0.25831 0.15828 0.12587
 C1831 C 0.26547 0.11586 0.09375
 C1832 C 0.29124 0.10817 0.10907
 C1833 C 0.30118 0.12564 0.13201
 C1834 C 0.28502 0.15050 0.14033
 H1835 H 0.25842 0.10158 0.07616
 H1836 H 0.30369 0.08870 0.10293
 H1837 H 0.32152 0.11989 0.14346
 H1838 H 0.29405 0.16368 0.15773
 H1839 H 0.18724 0.18128 0.08184
 H1840 H 0.20108 0.20839 0.12520
 C1841 C 0.29414 0.17031 0.90077
 C1842 C 0.27217 0.14965 0.90815
 C1843 C 0.24793 0.14605 0.88927
 C1844 C 0.24500 0.16257 0.86345
 C1845 C 0.26635 0.18308 0.85550
 C1846 C 0.29183 0.18623 0.87366
 C1847 C 0.31819 0.17583 0.91991
 C1848 C 0.34056 0.19473 0.91157
 C1849 C 0.33940 0.20853 0.88420
 C1850 C 0.31544 0.20433 0.86534
 H1851 H 0.32000 0.16588 0.94154
 H1852 H 0.35901 0.19847 0.92630
 H1853 H 0.35708 0.22271 0.87768
 H1854 H 0.31600 0.21493 0.84410
 H1855 H 0.23095 0.13045 0.89476
 H1856 H 0.22563 0.15958 0.84972
 C1857 C 0.74832 0.64755 0.39036
 C1858 C 0.77149 0.65694 0.40905
 C1859 C 0.78848 0.68095 0.40073
 C1860 C 0.78258 0.69606 0.37457
 C1861 C 0.75955 0.68776 0.35565
 C1862 C 0.74159 0.66364 0.36396
 C1863 C 0.73159 0.62250 0.39749
 C1864 C 0.70770 0.61444 0.38000
 C1865 C 0.69987 0.63125 0.35535
 C1866 C 0.71644 0.65566 0.34747
 H1867 H 0.73684 0.60890 0.41656
 H1868 H 0.69494 0.59534 0.38586
 H1869 H 0.68078 0.62539 0.34228
 H1870 H 0.70869 0.66851 0.32893
 H1871 H 0.80610 0.68847 0.41496
 H1872 H 0.79620 0.71464 0.36916
 C1873 C 0.24229 0.80864 0.41652
 C1874 C 0.22875 0.83705 0.41515
 C1875 C 0.22379 0.85060 0.38770
 C1876 C 0.23177 0.83653 0.36186
 C1877 C 0.24552 0.80867 0.36259
 C1878 C 0.25202 0.79506 0.39018
 C1879 C 0.24568 0.79299 0.44342
 C1880 C 0.26054 0.76592 0.44464
 C1881 C 0.27228 0.75391 0.41924
 C1882 C 0.26816 0.76829 0.39226
 H1883 H 0.23663 0.80128 0.46367
 H1884 H 0.26323 0.75437 0.46546
 H1885 H 0.28447 0.73325 0.42040
 H1886 H 0.27824 0.75857 0.37322
 H1887 H 0.21366 0.87234 0.38625
 H1888 H 0.22632 0.84719 0.34102
 C1889 C 0.74393 0.30990 0.90923
 C1890 C 0.73089 0.33854 0.90972
 C1891 C 0.72607 0.35377 0.88305
 C1892 C 0.73337 0.34099 0.85623
 C1893 C 0.74636 0.31284 0.85521
 C1894 C 0.75332 0.29786 0.88203
 C1895 C 0.74750 0.29266 0.93513
 C1896 C 0.76247 0.26564 0.93466
 C1897 C 0.77413 0.25526 0.90851
 C1898 C 0.76970 0.27116 0.88243
 H1899 H 0.73861 0.29971 0.95591
 H1900 H 0.76535 0.25289 0.95475
 H1901 H 0.78645 0.23467 0.90838
 H1902 H 0.77972 0.26268 0.86273
 H1903 H 0.71650 0.37578 0.88295
 H1904 H 0.72805 0.35288 0.83611
 C1905 C 0.81126 0.42566 0.23728
 C1906 C 0.83846 0.42377 0.22219
 C1907 C 0.85060 0.39601 0.21606
 C1908 C 0.83655 0.37039 0.22490
 C1909 C 0.81029 0.37159 0.24078
 C1910 C 0.79784 0.39948 0.24783
 C1911 C 0.79687 0.45304 0.24186
 C1912 C 0.77122 0.45477 0.25835
 C1913 C 0.75939 0.42940 0.27055
 C1914 C 0.77250 0.40200 0.26543
 H1915 H 0.80511 0.47330 0.23258
 H1916 H 0.76065 0.47594 0.26192
 H1917 H 0.73984 0.43093 0.28388
 H1918 H 0.76287 0.38297 0.27582
 H1919 H 0.87128 0.39413 0.20450
 H1920 H 0.84587 0.34942 0.21853
 C1921 C 0.37316 0.88138 0.72961
 C1922 C 0.35839 0.90851 0.73491
 C1923 C 0.32990 0.90838 0.74625
 C1924 C 0.31548 0.88213 0.75136
 C1925 C 0.32876 0.85489 0.74500
 C1926 C 0.35805 0.85428 0.73392
 C1927 C 0.40270 0.88065 0.72020
 C1928 C 0.41669 0.85404 0.71377
 C1929 C 0.40160 0.82777 0.71653
 C1930 C 0.37257 0.82775 0.72620
 H1931 H 0.41537 0.90054 0.71799
 H1932 H 0.43931 0.85380 0.70648
 H1933 H 0.41259 0.80726 0.71137
 H1934 H 0.36201 0.80674 0.72726
 H1935 H 0.31834 0.92892 0.75054
 H1936 H 0.29326 0.88320 0.75979
 C1937 C 0.13688 0.88360 0.28262
 C1938 C 0.14985 0.91024 0.27243
 C1939 C 0.17682 0.90831 0.25746
 C1940 C 0.19135 0.88154 0.25374
 C1941 C 0.17988 0.85546 0.26503
 C1942 C 0.15280 0.85637 0.28034
 C1943 C 0.10783 0.88293 0.29358
 C1944 C 0.09653 0.85723 0.30575
 C1945 C 0.11353 0.83156 0.30658
 C1946 C 0.14129 0.83095 0.29384
 H1947 H 0.09335 0.90202 0.29245
 H1948 H 0.07452 0.85727 0.31467
 H1949 H 0.10491 0.81190 0.31661
 H1950 H 0.15364 0.81052 0.29499
 H1951 H 0.18777 0.92789 0.24965
 H1952 H 0.21212 0.88127 0.24221
 C1953 C 0.64344 0.39316 0.73709
 C1954 C 0.64909 0.40814 0.76380
 C1955 C 0.67103 0.39750 0.78301
 C1956 C 0.68796 0.37303 0.77586
 C1957 C 0.68377 0.35830 0.74918
 C1958 C 0.66146 0.36850 0.72929
 C1959 C 0.62014 0.40211 0.71805
 C1960 C 0.61558 0.38806 0.69129
 C1961 C 0.63414 0.36505 0.68293
 C1962 C 0.65694 0.35538 0.70160
 H1963 H 0.60515 0.41984 0.72379
 H1964 H 0.59772 0.39525 0.67684
 H1965 H 0.63085 0.35460 0.66186
 H1966 H 0.67116 0.33799 0.69381
 H1967 H 0.67575 0.40880 0.80339
 H1968 H 0.70455 0.36545 0.79153
 C1969 C 0.69192 0.58622 0.73184
 C1970 C 0.66098 0.58829 0.72785
 C1971 C 0.64626 0.61477 0.73381
 C1972 C 0.66193 0.63974 0.74164
 C1973 C 0.69280 0.63879 0.74466
 C1974 C 0.70765 0.61104 0.74216
 C1975 C 0.70756 0.55978 0.72599
 C1976 C 0.73753 0.55710 0.73248
 C1977 C 0.75232 0.58040 0.74528
 C1978 C 0.73756 0.60698 0.75034
 H1979 H 0.69680 0.54094 0.71648
 H1980 H 0.74915 0.53661 0.72823
 H1981 H 0.77533 0.57785 0.75145
 H1982 H 0.74951 0.62366 0.76186
 H1983 H 0.62250 0.61632 0.73162
 H1984 H 0.64978 0.66028 0.74400
 C1985 C 0.18922 0.08722 0.23169
 C1986 C 0.15834 0.08841 0.22697
 C1987 C 0.14292 0.11487 0.23131
 C1988 C 0.15787 0.14054 0.23835
 C1989 C 0.18863 0.14031 0.24208
 C1990 C 0.20409 0.11281 0.24127
 C1991 C 0.20564 0.06092 0.22739
 C1992 C 0.23546 0.05922 0.23484
 C1993 C 0.24932 0.08340 0.24706
 C1994 C 0.23378 0.10983 0.25051
 H1995 H 0.19560 0.04144 0.21838
 H1996 H 0.24768 0.03884 0.23179
 H1997 H 0.27217 0.08166 0.25400
 H1998 H 0.24486 0.12738 0.26162
 H1999 H 0.11918 0.11579 0.22861
 H2000 H 0.14532 0.16096 0.23949
 C2001 C 0.32005 0.08616 0.75624
 C2002 C 0.34716 0.08635 0.77217
 C2003 C 0.36063 0.11331 0.77799
 C2004 C 0.34747 0.13985 0.76884
 C2005 C 0.32075 0.14025 0.75311
 C2006 C 0.30772 0.11314 0.74530
 C2007 C 0.30458 0.05979 0.75129
 C2008 C 0.27914 0.05974 0.73382
 C2009 C 0.26857 0.08582 0.72105
 C2010 C 0.28266 0.11230 0.72668
 H2011 H 0.31177 0.03903 0.76098
 H2012 H 0.26777 0.03931 0.72992
 H2013 H 0.24923 0.08559 0.70691
 H2014 H 0.27419 0.13199 0.71586
 H2015 H 0.38145 0.11382 0.78985
 H2016 H 0.35772 0.16026 0.77502
 C2017 C 0.86855 0.62320 0.27418
 C2018 C 0.85411 0.59637 0.26827
 C2019 C 0.82539 0.59711 0.25685
 C2020 C 0.81061 0.62365 0.25177
 C2021 C 0.82381 0.65067 0.25808
 C2022 C 0.85318 0.65063 0.26959
 C2023 C 0.89806 0.62335 0.28435
 C2024 C 0.91185 0.64972 0.29097
 C2025 C 0.89662 0.67632 0.28761
 C2026 C 0.86756 0.67688 0.27732
 H2027 H 0.91082 0.60319 0.28705
 H2028 H 0.93446 0.64952 0.29882
 H2029 H 0.90749 0.69664 0.29281
 H2030 H 0.85677 0.69807 0.27576
 H2031 H 0.81405 0.57679 0.25214
 H2032 H 0.78833 0.62300 0.24301
 C2033 C 0.91247 0.29320 0.18862
 C2034 C 0.91417 0.28106 0.16018
 C2035 C 0.89075 0.26514 0.14874
 C2036 C 0.86520 0.26163 0.16474
 C2037 C 0.86194 0.27425 0.19267
 C2038 C 0.88599 0.29059 0.20498
 C2039 C 0.93677 0.30811 0.20095
 C2040 C 0.93482 0.32147 0.22823
 C2041 C 0.90874 0.32041 0.24370
 C2042 C 0.88466 0.30535 0.23239
 H2043 H 0.95754 0.30961 0.18966
 H2044 H 0.95353 0.33300 0.23725
 H2045 H 0.90708 0.33145 0.26464
 H2046 H 0.86529 0.30680 0.24554
 H2047 H 0.89217 0.25557 0.12704
 H2048 H 0.84763 0.24904 0.15487
 C2049 C 0.41771 0.75303 0.68642
 C2050 C 0.41727 0.76983 0.65985
 C2051 C 0.39019 0.77663 0.64618
 C2052 C 0.36380 0.76792 0.65872
 C2053 C 0.36356 0.75186 0.68516
 C2054 C 0.39076 0.74285 0.69830
 C2055 C 0.44421 0.74696 0.70212
 C2056 C 0.44441 0.72915 0.72728
 C2057 C 0.41835 0.71717 0.73737
 C2058 C 0.39175 0.72391 0.72309
 H2059 H 0.46496 0.75614 0.69546
 H2060 H 0.46494 0.72443 0.73884
 H2061 H 0.41869 0.70280 0.75651
 H2062 H 0.37208 0.71371 0.73123
 H2063 H 0.38943 0.78908 0.62572
 H2064 H 0.34335 0.77486 0.64827
 C2065 C 0.39680 0.26117 0.85276
 C2066 C 0.41243 0.23410 0.84932
 C2067 C 0.40327 0.21433 0.82781
 C2068 C 0.37903 0.22074 0.80993
 C2069 C 0.36292 0.24709 0.81286
 C2070 C 0.37221 0.26801 0.83393
 C2071 C 0.40465 0.28131 0.87491
 C2072 C 0.38971 0.30820 0.87742
 C2073 C 0.36677 0.31553 0.85804
 C2074 C 0.35807 0.29574 0.83643
 H2075 H 0.42220 0.27643 0.89057
 H2076 H 0.39612 0.32352 0.89437
 H2077 H 0.35561 0.33667 0.85977
 H2078 H 0.34064 0.30267 0.82144
 H2079 H 0.41517 0.19375 0.82467
 H2080 H 0.37239 0.20453 0.79399
 C2081 C 0.91282 0.75373 0.31356
 C2082 C 0.91271 0.73672 0.33994
 C2083 C 0.88570 0.72857 0.35199
 C2084 C 0.85917 0.73620 0.33812
 C2085 C 0.85859 0.75262 0.31194
 C2086 C 0.88554 0.76268 0.30015
 C2087 C 0.93936 0.76123 0.29957
 C2088 C 0.93909 0.77901 0.27439
 C2089 C 0.91252 0.78957 0.26263
 C2090 C 0.88597 0.78155 0.27532
 H2091 H 0.96050 0.75323 0.30765
 H2092 H 0.95962 0.78481 0.26410
 H2093 H 0.91247 0.80388 0.24344
 H2094 H 0.86588 0.79070 0.26588
 H2095 H 0.88512 0.71578 0.37221
 H2096 H 0.83898 0.72810 0.34731
 C2097 C 0.11465 0.76627 0.36605
 C2098 C 0.08774 0.76272 0.35055
 C2099 C 0.08804 0.75180 0.32192
 C2100 C 0.11458 0.74615 0.30789
 C2101 C 0.14172 0.75174 0.32178
 C2102 C 0.14189 0.76227 0.35124
 C2103 C 0.11493 0.77396 0.39606
 C2104 C 0.14122 0.78021 0.41057
 C2105 C 0.16764 0.77877 0.39553
 C2106 C 0.16811 0.77004 0.36621
 H2107 H 0.09482 0.77494 0.40857
 H2108 H 0.14107 0.78647 0.43349
 H2109 H 0.18791 0.78416 0.40676
 H2110 H 0.18917 0.77001 0.35571
 H2111 H 0.06757 0.74864 0.30996
 H2112 H 0.11387 0.73823 0.28548
 C2113 C 0.58990 0.28528 0.80837
 C2114 C 0.58477 0.26784 0.83363
 C2115 C 0.60581 0.24680 0.84284
 C2116 C 0.63221 0.24343 0.82792
 C2117 C 0.63876 0.26150 0.80375
 C2118 C 0.61768 0.28346 0.79431
 C2119 C 0.56796 0.30486 0.79707
 C2120 C 0.57398 0.32398 0.77388
 C2121 C 0.60192 0.32420 0.76183
 C2122 C 0.62360 0.30447 0.77207
 H2123 H 0.54599 0.30554 0.80604
 H2124 H 0.55709 0.33906 0.76562
 H2125 H 0.60678 0.33971 0.74443
 H2126 H 0.64502 0.30673 0.76289
 H2127 H 0.60205 0.23333 0.86220
 H2128 H 0.64780 0.22668 0.83556
 C2129 C 0.61120 0.70279 0.65596
 C2130 C 0.59555 0.72720 0.64303
 C2131 C 0.60842 0.75525 0.64402
 C2132 C 0.63510 0.75969 0.65867
 C2133 C 0.65058 0.73600 0.67147
 C2134 C 0.63987 0.70708 0.66804
 C2135 C 0.59918 0.67424 0.65785
 C2136 C 0.61684 0.64999 0.66565
 C2137 C 0.64624 0.65389 0.67327
 C2138 C 0.65731 0.68221 0.67594
 H2139 H 0.57622 0.67015 0.65337
 H2140 H 0.60771 0.62809 0.66557
 H2141 H 0.66028 0.63496 0.67811
 H2142 H 0.67985 0.68435 0.68328
 H2143 H 0.59745 0.77415 0.63387
 H2144 H 0.64344 0.78186 0.66050
 C2145 C 0.10527 0.20173 0.15659
 C2146 C 0.08764 0.22521 0.14426
 C2147 C 0.09986 0.25371 0.14372
 C2148 C 0.12698 0.25951 0.15707
 C2149 C 0.14407 0.23666 0.16931
 C2150 C 0.13459 0.20732 0.16623
 C2151 C 0.09476 0.17289 0.16051
 C2152 C 0.11397 0.14936 0.16663
 C2153 C 0.14379 0.15447 0.17094
 C2154 C 0.15382 0.18328 0.17231
 H2155 H 0.07177 0.16824 0.15937
 H2156 H 0.10567 0.12716 0.16802
 H2157 H 0.15896 0.13618 0.17466
 H2158 H 0.17682 0.18648 0.17718
 H2159 H 0.08811 0.27209 0.13350
 H2160 H 0.13445 0.28205 0.15823
 C2161 C -0.11554 1.01643 0.86240
 C2162 C -0.09705 1.01794 0.83735
 C2163 C -0.06757 1.00873 0.84033
 C2164 C -0.05552 1.00091 0.86754
 C2165 C -0.07261 1.00047 0.89312
 C2166 C -0.10357 1.00642 0.89018
 C2167 C -0.14616 1.02234 0.85995
 C2168 C -0.16459 1.01857 0.88390
 C2169 C -0.15328 1.00784 0.91045
 C2170 C -0.12331 1.00136 0.91353
 H2171 H -0.15644 1.02911 0.83939
 H2172 H -0.18798 1.02312 0.88156
 H2173 H -0.16794 1.00386 0.92864
 H2174 H -0.11657 0.99096 0.93394
 H2175 H -0.05316 1.00894 0.82147
 H2176 H -0.03213 0.99592 0.86849
 C2177 C 0.38968 0.49839 0.35611
 C2178 C 0.40315 0.51735 0.33546
 C2179 C 0.43177 0.52712 0.34078
 C2180 C 0.44703 0.51881 0.36633
 C2181 C 0.43409 0.50056 0.38744
 C2182 C 0.40531 0.48982 0.38228
 C2183 C 0.36103 0.48767 0.35123
 C2184 C 0.34817 0.46870 0.37155
 C2185 C 0.36362 0.45990 0.39685
 C2186 C 0.39198 0.47018 0.40219
 H2187 H 0.34837 0.49392 0.33178
 H2188 H 0.32617 0.46063 0.36755
 H2189 H 0.35363 0.44492 0.41237
 H2190 H 0.40348 0.46224 0.42174
 H2191 H 0.44253 0.54106 0.32482
 H2192 H 0.46887 0.52747 0.37007
 C2193 C 0.56703 0.00436 0.33839
 C2194 C 0.59118 -0.01632 0.33789
 C2195 C 0.60030 -0.02937 0.36473
 C2196 C 0.58712 -0.02179 0.39122
 C2197 C 0.56453 -0.00041 0.39239
 C2198 C 0.55546 0.01401 0.36584
 C2199 C 0.55269 0.01441 0.31226
 C2200 C 0.53124 0.03665 0.31290
 C2201 C 0.52316 0.04900 0.33952
 C2202 C 0.53497 0.03776 0.36578
 H2203 H 0.55752 0.00492 0.29111
 H2204 H 0.52107 0.04454 0.29261
 H2205 H 0.50719 0.06692 0.33989
 H2206 H 0.52816 0.04823 0.38585
 H2207 H 0.61854 -0.04500 0.36564
 H2208 H 0.59452 -0.03323 0.41103
 C2209 C 0.12021 0.47230 0.86464
 C2210 C 0.10601 0.47998 0.83765
 C2211 C 0.07796 0.49308 0.83831
 C2212 C 0.06366 0.49815 0.86470
 C2213 C 0.07614 0.48953 0.89200
 C2214 C 0.10492 0.47560 0.89194
 C2215 C 0.14963 0.46169 0.86496
 C2216 C 0.16312 0.45195 0.89091
 C2217 C 0.14772 0.45263 0.91703
 C2218 C 0.11919 0.46434 0.91773
 H2219 H 0.16266 0.46098 0.84523
 H2220 H 0.18554 0.44354 0.89070
 H2221 H 0.15812 0.44441 0.93709
 H2222 H 0.10924 0.46350 0.93890
 H2223 H 0.06673 0.49931 0.81798
 H2224 H 0.04212 0.50867 0.86346
 C2225 C 0.06692 0.50925 0.66259
 C2226 C 0.09256 0.52692 0.66186
 C2227 C 0.10355 0.53562 0.63448
 C2228 C 0.08974 0.52723 0.60829
 C2229 C 0.06513 0.50873 0.60836
 C2230 C 0.05479 0.49806 0.63592
 C2231 C 0.05289 0.50247 0.68939
 C2232 C 0.03013 0.48223 0.69038
 C2233 C 0.02088 0.46842 0.66482
 C2234 C 0.03299 0.47614 0.63785
 H2235 H 0.05931 0.51273 0.70981
 H2236 H 0.02007 0.47680 0.71117
 H2237 H 0.00406 0.45182 0.66588
 H2238 H 0.02563 0.46403 0.61887
 H2239 H 0.12310 0.54897 0.63331
 H2240 H 0.09825 0.53565 0.58775
 C2241 C 0.57401 1.04358 0.15694
 C2242 C 0.60039 1.02777 0.16380
 C2243 C 0.60919 1.00434 0.14584
 C2244 C 0.59236 0.99638 0.12139
 C2245 C 0.56599 1.01133 0.11442
 C2246 C 0.55696 1.03563 0.13177
 C2247 C 0.56393 1.06690 0.17476
 C2248 C 0.53839 1.08280 0.16730
 C2249 C 0.52243 1.07587 0.14206
 C2250 C 0.53155 1.05260 0.12439
 H2251 H 0.57561 1.07315 0.19455
 H2252 H 0.53106 1.10074 0.18107
 H2253 H 0.50284 1.08855 0.13616
 H2254 H 0.51865 1.04832 0.10483
 H2255 H 0.62910 0.99184 0.15110
 H2256 H 0.59981 0.97820 0.10796
 C2257 C 0.39579 0.49850 0.13624
 C2258 C 0.40604 0.47520 0.15492
 C2259 C 0.43141 0.45923 0.14745
 C2260 C 0.44687 0.46611 0.12209
 C2261 C 0.43729 0.48903 0.10335
 C2262 C 0.41175 0.50566 0.11039
 C2263 C 0.36991 0.51474 0.14259
 C2264 C 0.36049 0.53799 0.12435
 C2265 C 0.37659 0.54553 0.09958
 C2266 C 0.40203 0.52964 0.09262
 H2267 H 0.35667 0.50952 0.16153
 H2268 H 0.34064 0.55028 0.12953
 H2269 H 0.36929 0.56374 0.08564
 H2270 H 0.41409 0.53645 0.07338
 H2271 H 0.43966 0.44164 0.16172
 H2272 H 0.46628 0.45312 0.11679
 C2273 C -0.10577 0.00518 0.64010
 C2274 C -0.09996 -0.02163 0.65593
 C2275 C -0.08048 -0.04246 0.64387
 C2276 C -0.06490 -0.03611 0.61842
 C2277 C -0.06900 -0.00924 0.60353
 C2278 C -0.09014 0.01132 0.61374
 C2279 C -0.12814 0.02515 0.64881
 C2280 C -0.13414 0.05082 0.63266
 C2281 C -0.11838 0.05706 0.60736
 C2282 C -0.09638 0.03770 0.59804
 H2283 H -0.14181 0.02074 0.66762
 H2284 H -0.15136 0.06576 0.63970
 H2285 H -0.12346 0.07685 0.59472
 H2286 H -0.08470 0.04330 0.57819
 H2287 H -0.07579 -0.06314 0.65523
 H2288 H -0.04935 -0.05235 0.61027
 C2289 C -0.13664 0.88096 1.02531
 C2290 C -0.16320 0.89448 1.01462
 C2291 C -0.16126 0.92101 0.99865
 C2292 C -0.13464 0.93514 0.99507
 C2293 C -0.10833 0.92397 1.00761
 C2294 C -0.10923 0.89619 1.02314
 C2295 C -0.13651 0.85176 1.03657
 C2296 C -0.11110 0.83897 1.04861
 C2297 C -0.08520 0.85471 1.04937
 C2298 C -0.08409 0.88276 1.03677
 H2299 H -0.15590 0.83823 1.03567
 H2300 H -0.11156 0.81677 1.05750
 H2301 H -0.06557 0.84486 1.05928
 H2302 H -0.06310 0.89295 1.03842
 H2303 H -0.18084 0.93209 0.99000
 H2304 H -0.13499 0.95573 0.98281
 C2305 C 0.33381 0.43678 0.50316
 C2306 C 0.33538 0.40814 0.51616
 C2307 C 0.36306 0.39503 0.52106
 C2308 C 0.38879 0.40955 0.51338
 C2309 C 0.38806 0.43739 0.49929
 C2310 C 0.35987 0.45037 0.49243
 C2311 C 0.30666 0.45233 0.50066
 C2312 C 0.30442 0.47872 0.48493
 C2313 C 0.32905 0.49014 0.47136
 C2314 C 0.35643 0.47624 0.47494
 H2315 H 0.28690 0.44428 0.51088
 H2316 H 0.28334 0.49003 0.48274
 H2317 H 0.32700 0.51002 0.45810
 H2318 H 0.37420 0.48565 0.46274
 H2319 H 0.36484 0.37317 0.53077
 H2320 H 0.40958 0.39873 0.51881
 C2321 C 0.33561 0.56379 -0.00674
 C2322 C 0.33608 0.59097 -0.02259
 C2323 C 0.36319 0.60272 -0.03046
 C2324 C 0.38949 0.58821 -0.02312
 C2325 C 0.38993 0.56175 -0.00671
 C2326 C 0.36261 0.55019 0.00304
 C2327 C 0.30880 0.54960 -0.00060
 C2328 C 0.30824 0.52465 0.01743
 C2329 C 0.33423 0.51329 0.02962
 C2330 C 0.36114 0.52580 0.02258
 H2331 H 0.28804 0.55750 -0.00975
 H2332 H 0.28746 0.51438 0.02234
 H2333 H 0.33361 0.49451 0.04445
 H2334 H 0.38036 0.51651 0.03345
 H2335 H 0.36407 0.62347 -0.04238
 H2336 H 0.40974 0.59776 -0.03084
 C2337 C -0.16750 0.06839 0.49520
 C2338 C -0.16777 0.09338 0.47567
 C2339 C -0.14080 0.10269 0.46423
 C2340 C -0.11434 0.08903 0.47257
 C2341 C -0.11337 0.06573 0.49310
 C2342 C -0.14014 0.05611 0.50560
 C2343 C -0.19375 0.05409 0.50341
 C2344 C -0.19341 0.03181 0.52470
 C2345 C -0.16696 0.02273 0.53776
 C2346 C -0.14052 0.03450 0.52821
 H2347 H -0.21476 0.05974 0.49327
 H2348 H -0.21381 0.02172 0.53126
 H2349 H -0.16683 0.00601 0.55490
 H2350 H -0.12062 0.02670 0.53907
 H2351 H -0.13975 0.12154 0.44952
 H2352 H -0.09433 0.09675 0.46250
 C2353 C 0.66254 0.06945 0.50163
 C2354 C 0.66190 0.09571 0.51854
 C2355 C 0.63462 0.10766 0.52661
 C2356 C 0.60839 0.09416 0.51847
 C2357 C 0.60826 0.06873 0.50097
 C2358 C 0.63570 0.05732 0.49086
 C2359 C 0.68938 0.05475 0.49533
 C2360 C 0.69013 0.03100 0.47614
 C2361 C 0.66429 0.02141 0.46289
 C2362 C 0.63734 0.03439 0.47004
 H2363 H 0.71001 0.06134 0.50522
 H2364 H 0.71093 0.02034 0.47114
 H2365 H 0.66509 0.00366 0.44716
 H2366 H 0.61813 0.02674 0.45834
 H2367 H 0.63357 0.12772 0.53931
 H2368 H 0.58798 0.10353 0.52652
 C2369 C 0.16686 0.56632 1.00099
 C2370 C 0.16628 0.59129 1.02004
 C2371 C 0.13884 0.60102 1.03048
 C2372 C 0.11278 0.58785 1.02148
 C2373 C 0.11268 0.56468 1.00120
 C2374 C 0.13998 0.55464 0.98975
 C2375 C 0.19353 0.55156 0.99398
 C2376 C 0.19417 0.52946 0.97294
 C2377 C 0.16830 0.52111 0.95891
 C2378 C 0.14138 0.53329 0.96733
 H2379 H 0.21411 0.55681 1.00479
 H2380 H 0.21490 0.51904 0.96722
 H2381 H 0.16907 0.50475 0.94180
 H2382 H 0.12193 0.52617 0.95565
 H2383 H 0.13713 0.61986 1.04484
 H2384 H 0.09238 0.59586 1.03083
 C2385 C 0.16126 0.43612 0.48517
 C2386 C 0.16006 0.40830 0.47101
 C2387 C 0.13263 0.39512 0.46704
 C2388 C 0.10683 0.40876 0.47694
 C2389 C 0.10751 0.43552 0.49240
 C2390 C 0.13543 0.44844 0.49811
 C2391 C 0.18782 0.45198 0.48689
 C2392 C 0.18981 0.47733 0.50378
 C2393 C 0.16556 0.48729 0.51938
 C2394 C 0.13869 0.47301 0.51678
 H2395 H 0.20727 0.44493 0.47520
 H2396 H 0.21046 0.48890 0.50529
 H2397 H 0.16752 0.50629 0.53346
 H2398 H 0.12100 0.48100 0.53036
 H2399 H 0.13116 0.37389 0.45646
 H2400 H 0.08606 0.39825 0.47221
 C2401 C 0.66255 0.94261 -0.01288
 C2402 C 0.66110 0.91592 -0.02901
 C2403 C 0.63359 0.90345 -0.03427
 C2404 C 0.60795 0.91646 -0.02351
 C2405 C 0.60872 0.94202 -0.00617
 C2406 C 0.63663 0.95459 0.00029
 C2407 C 0.68942 0.95761 -0.00944
 C2408 C 0.69147 0.98198 0.00882
 C2409 C 0.66694 0.99180 0.02409
 C2410 C 0.63983 0.97827 0.02008
 H2411 H 0.70907 0.95065 -0.02086
 H2412 H 0.71233 0.99295 0.01156
 H2413 H 0.66889 1.01008 0.03909
 H2414 H 0.62195 0.98613 0.03343
 H2415 H 0.63194 0.88302 -0.04630
 H2416 H 0.58720 0.90626 -0.02896
 C2417 C 0.00630 0.83492 0.93696
 C2418 C 0.02531 0.83544 0.91206
 C2419 C 0.03619 0.86286 0.90281
 C2420 C 0.02768 0.88896 0.91641
 C2421 C 0.00740 0.88911 0.93944
 C2422 C -0.00456 0.86188 0.94896
 C2423 C -0.00104 0.80825 0.95136
 C2424 C -0.02204 0.80776 0.97344
 C2425 C -0.03580 0.83376 0.98205
 C2426 C -0.02714 0.86061 0.97011
 H2427 H 0.00955 0.78756 0.94589
 H2428 H -0.02795 0.78705 0.98364
 H2429 H -0.05286 0.83317 0.99845
 H2430 H -0.03875 0.88012 0.97733
 H2431 H 0.05051 0.86456 0.88401
 H2432 H 0.03725 0.90935 0.90877
 C2433 C 0.53621 0.34330 0.43405
 C2434 C 0.52180 0.33774 0.40691
 C2435 C 0.50014 0.35759 0.39639
 C2436 C 0.49298 0.38299 0.41198
 C2437 C 0.50695 0.38917 0.43882
 C2438 C 0.52913 0.36941 0.44989
 C2439 C 0.55749 0.32334 0.44589
 C2440 C 0.57230 0.32948 0.47208
 C2441 C 0.56634 0.35551 0.48690
 C2442 C 0.54510 0.37533 0.47596
 H2443 H 0.56291 0.30287 0.43509
 H2444 H 0.58867 0.31406 0.48080
 H2445 H 0.57822 0.36037 0.50702
 H2446 H 0.54165 0.39533 0.48803
 H2447 H 0.48873 0.35340 0.37581
 H2448 H 0.47644 0.39807 0.40294
 C2449 C -0.02724 0.36546 0.61631
 C2450 C -0.01935 0.33892 0.60164
 C2451 C -0.00454 0.34125 0.57479
 C2452 C 0.00089 0.36833 0.56166
 C2453 C -0.00845 0.39500 0.57419
 C2454 C -0.02288 0.39363 0.60228
 C2455 C -0.03755 0.36468 0.64559
 C2456 C -0.04660 0.39019 0.65969
 C2457 C -0.04499 0.41714 0.64536
 C2458 C -0.03306 0.41904 0.61734
 H2459 H -0.03807 0.34448 0.65830
 H2460 H -0.05483 0.38903 0.68192
 H2461 H -0.05235 0.43694 0.65636
 H2462 H -0.03223 0.44096 0.60870
 H2463 H 0.00193 0.32172 0.56280
 H2464 H 0.01206 0.36807 0.54074
 C2465 C 0.49976 0.85467 0.11407
 C2466 C 0.47766 0.83698 0.10115
 C2467 C 0.46544 0.84529 0.07389
 C2468 C 0.47468 0.87066 0.05936
 C2469 C 0.49630 0.88871 0.07170
 C2470 C 0.50919 0.88070 0.09925
 C2471 C 0.51275 0.84692 0.14145
 C2472 C 0.53486 0.86408 0.15372
 C2473 C 0.54444 0.88920 0.13906
 C2474 C 0.53181 0.89752 0.11207
 H2475 H 0.50589 0.82763 0.15361
 H2476 H 0.54465 0.85771 0.17468
 H2477 H 0.56182 0.90227 0.14858
 H2478 H 0.54026 0.91689 0.10118
 H2479 H 0.44901 0.83165 0.06346
 H2480 H 0.46430 0.87664 0.03852
 C2481 C 0.49886 0.63480 0.10658
 C2482 C 0.51932 0.65494 0.09472
 C2483 C 0.53226 0.64905 0.06760
 C2484 C 0.52520 0.62377 0.05206
 C2485 C 0.50521 0.60340 0.06328
 C2486 C 0.49168 0.60883 0.09070
 C2487 C 0.48541 0.63988 0.13394
 C2488 C 0.46494 0.62016 0.14511
 C2489 C 0.45749 0.59513 0.12933
 C2490 C 0.47065 0.58943 0.10236
 H2491 H 0.49064 0.65902 0.14693
 H2492 H 0.45472 0.62439 0.16608
 H2493 H 0.44140 0.58006 0.13800
 H2494 H 0.46391 0.56995 0.09065
 H2495 H 0.54761 0.66445 0.05813
 H2496 H 0.53585 0.61980 0.03122
 C2497 C -0.00793 0.14431 0.60258
 C2498 C 0.02042 0.15713 0.59840
 C2499 C 0.04070 0.14224 0.58048
 C2500 C 0.03269 0.11720 0.56499
 C2501 C 0.00431 0.10582 0.56695
 C2502 C -0.01619 0.11902 0.58607
 C2503 C -0.02763 0.15483 0.62414
 C2504 C -0.05549 0.14277 0.62723
 C2505 C -0.06408 0.11939 0.60972
 C2506 C -0.04457 0.10728 0.58953
 H2507 H -0.02152 0.17198 0.63928
 H2508 H -0.07042 0.15149 0.64348
 H2509 H -0.08577 0.11027 0.61228
 H2510 H -0.05174 0.08857 0.57685
 H2511 H 0.06245 0.15097 0.57683
 H2512 H 0.04878 0.10679 0.55086
 C2513 C 0.45961 0.15649 0.42539
 C2514 C 0.47497 0.16206 0.39902
 C2515 C 0.49646 0.14184 0.38968
 C2516 C 0.50291 0.11630 0.40601
 C2517 C 0.48836 0.11042 0.43238
 C2518 C 0.46597 0.13029 0.44194
 C2519 C 0.43826 0.17666 0.43590
 C2520 C 0.42270 0.17064 0.46144
 C2521 C 0.42802 0.14455 0.47696
 C2522 C 0.44932 0.12455 0.46736
 H2523 H 0.43331 0.19722 0.42459
 H2524 H 0.40629 0.18621 0.46911
 H2525 H 0.41561 0.13978 0.49659
 H2526 H 0.45227 0.10457 0.47994
 H2527 H 0.50860 0.14609 0.36974
 H2528 H 0.51976 0.10124 0.39824
 C2529 C -0.01171 0.63418 0.87573
 C2530 C -0.01195 0.66062 0.89233
 C2531 C -0.00154 0.65959 0.92148
 C2532 C 0.00624 0.63313 0.93515
 C2533 C 0.00522 0.60628 0.92009
 C2534 C -0.00180 0.60706 0.88930
 C2535 C -0.01883 0.63450 0.84536
 C2536 C -0.01624 0.60907 0.82864
 C2537 C -0.00557 0.58309 0.84143
 C2538 C 0.00200 0.58209 0.87122
 H2539 H -0.02565 0.65449 0.83395
 H2540 H -0.02167 0.60977 0.80539
 H2541 H -0.00253 0.56370 0.82804
 H2542 H 0.01224 0.56192 0.87908
 H2543 H -0.00084 0.67948 0.93450
 H2544 H 0.01215 0.63384 0.95828
 C2545 C 0.24610 0.63824 0.88930
 C2546 C 0.26875 0.64868 0.90812
 C2547 C 0.28296 0.67489 0.90110
 C2548 C 0.27499 0.69098 0.87603
 C2549 C 0.25283 0.68119 0.85695
 C2550 C 0.23813 0.65461 0.86338
 C2551 C 0.23121 0.61189 0.89564
 C2552 C 0.20877 0.60208 0.87708
 C2553 C 0.20077 0.61825 0.85196
 C2554 C 0.21523 0.64430 0.84509
 H2555 H 0.23686 0.59865 0.91488
 H2556 H 0.19749 0.58185 0.88224
 H2557 H 0.18321 0.61061 0.83776
 H2558 H 0.20810 0.65641 0.82560
 H2559 H 0.29995 0.68333 0.91555
 H2560 H 0.28667 0.71109 0.87117
 C2561 C 0.74549 0.14498 0.38797
 C2562 C 0.76842 0.15410 0.40716
 C2563 C 0.78325 0.18027 0.40125
 C2564 C 0.77565 0.19756 0.37684
 C2565 C 0.75315 0.18905 0.35756
 C2566 C 0.73773 0.16270 0.36299
 C2567 C 0.73019 0.11858 0.39303
 C2568 C 0.70748 0.11011 0.37411
 C2569 C 0.69957 0.12772 0.34996
 C2570 C 0.71443 0.15384 0.34440
 H2571 H 0.73577 0.10423 0.41148
 H2572 H 0.69593 0.08981 0.37824
 H2573 H 0.68184 0.12111 0.33544
 H2574 H 0.70742 0.16708 0.32561
 H2575 H 0.80043 0.18769 0.41606
 H2576 H 0.78783 0.21750 0.37263
 C2577 C 0.24164 0.31898 0.40484
 C2578 C 0.22613 0.34647 0.40403
 C2579 C 0.21978 0.35953 0.37660
 C2580 C 0.22842 0.34600 0.35049
 C2581 C 0.24522 0.31963 0.35071
 C2582 C 0.25379 0.30720 0.37854
 C2583 C 0.24542 0.30281 0.43141
 C2584 C 0.26398 0.27816 0.43293
 C2585 C 0.27922 0.26921 0.40818
 C2586 C 0.27439 0.28357 0.38129
 H2587 H 0.23409 0.30909 0.45124
 H2588 H 0.26713 0.26642 0.45359
 H2589 H 0.29472 0.25089 0.40973
 H2590 H 0.28784 0.27647 0.36321
 H2591 H 0.20810 0.38049 0.37532
 H2592 H 0.22163 0.35629 0.32988
 C2593 C 0.70950 0.82632 0.89663
 C2594 C 0.72311 0.85369 0.90196
 C2595 C 0.74425 0.86399 0.88225
 C2596 C 0.75211 0.84763 0.85758
 C2597 C 0.73954 0.82014 0.85215
 C2598 C 0.71748 0.80957 0.87145
 C2599 C 0.68826 0.81506 0.91608
 C2600 C 0.67452 0.78841 0.91044
 C2601 C 0.68156 0.77252 0.88543
 C2602 C 0.70270 0.78293 0.86608
 H2603 H 0.68195 0.82674 0.93570
 H2604 H 0.65818 0.78014 0.92545
 H2605 H 0.67057 0.75199 0.88096
 H2606 H 0.70701 0.76996 0.84687
 H2607 H 0.75514 0.88467 0.88633
 H2608 H 0.76854 0.85627 0.84284
 C2609 C 0.74258 0.86239 0.10130
 C2610 C 0.76408 0.84955 0.08271
 C2611 C 0.77712 0.82249 0.09067
 C2612 C 0.76922 0.80799 0.11644
 C2613 C 0.74825 0.82019 0.13535
 C2614 C 0.73448 0.84751 0.12776
 C2615 C 0.72915 0.88985 0.09431
 C2616 C 0.70768 0.90197 0.11247
 C2617 C 0.69923 0.88708 0.13786
 C2618 C 0.71241 0.86010 0.14552
 H2619 H 0.73517 0.90223 0.07489
 H2620 H 0.69748 0.92298 0.10676
 H2621 H 0.68235 0.89648 0.15171
 H2622 H 0.70486 0.84911 0.16520
 H2623 H 0.79335 0.81230 0.07658
 H2624 H 0.78015 0.78727 0.12203
 C2625 C 0.25690 0.31523 0.57959
 C2626 C 0.27051 0.34331 0.58030
 C2627 C 0.27515 0.35661 0.60756
 C2628 C 0.26682 0.34276 0.63365
 C2629 C 0.25226 0.31552 0.63367
 C2630 C 0.24544 0.30257 0.60594
 C2631 C 0.25453 0.29929 0.55311
 C2632 C 0.23822 0.27358 0.55171
 C2633 C 0.22385 0.26332 0.57651
 C2634 C 0.22722 0.27763 0.60331
 H2635 H 0.26530 0.30648 0.53325
 H2636 H 0.23617 0.26195 0.53112
 H2637 H 0.21013 0.24406 0.57503
 H2638 H 0.21441 0.26939 0.62134
 H2639 H 0.28523 0.37808 0.60873
 H2640 H 0.27223 0.35357 0.65411
 C2641 C 0.75639 0.13953 0.60429
 C2642 C 0.73083 0.14898 0.58825
 C2643 C 0.71512 0.17390 0.59743
 C2644 C 0.72454 0.18979 0.62171
 C2645 C 0.74975 0.18108 0.63774
 C2646 C 0.76585 0.15573 0.62932
 C2647 C 0.77274 0.11431 0.59602
 C2648 C 0.79811 0.10570 0.61165
 C2649 C 0.80746 0.12176 0.63594
 C2650 C 0.79145 0.14647 0.64488
 H2651 H 0.76601 0.10102 0.57754
 H2652 H 0.81054 0.08646 0.60485
 H2653 H 0.82721 0.11509 0.64794
 H2654 H 0.79943 0.15843 0.66379
 H2655 H 0.69593 0.18168 0.58510
 H2656 H 0.71172 0.20888 0.62836
 C2657 C 0.21028 0.68006 0.09385
 C2658 C 0.22634 0.65390 0.08766
 C2659 C 0.24839 0.64399 0.10734
 C2660 C 0.25461 0.65944 0.13301
 C2661 C 0.23928 0.68552 0.13957
 C2662 C 0.21646 0.69575 0.12019
 C2663 C 0.18830 0.69110 0.07427
 C2664 C 0.17202 0.71636 0.08096
 C2665 C 0.17721 0.73103 0.10719
 C2666 C 0.19908 0.72086 0.12667
 H2667 H 0.18342 0.68037 0.05367
 H2668 H 0.15513 0.72447 0.06583
 H2669 H 0.16422 0.75041 0.11248
 H2670 H 0.20190 0.73273 0.14687
 H2671 H 0.26099 0.62416 0.10267
 H2672 H 0.27168 0.65105 0.14784
 C2673 C 0.13879 0.61439 0.75331
 C2674 C 0.14726 0.59711 0.72879
 C2675 C 0.17106 0.60606 0.71173
 C2676 C 0.18692 0.63108 0.71895
 C2677 C 0.17932 0.64824 0.74323
 C2678 C 0.15497 0.64017 0.76056
 C2679 C 0.11450 0.60669 0.77074
 C2680 C 0.10672 0.62359 0.79501
 C2681 C 0.12282 0.64845 0.80231
 C2682 C 0.14672 0.65678 0.78529
 H2683 H 0.10125 0.58773 0.76564
 H2684 H 0.08808 0.61737 0.80822
 H2685 H 0.11671 0.66138 0.82124
 H2686 H 0.15873 0.67617 0.79173
 H2687 H 0.17804 0.59298 0.69317
 H2688 H 0.20539 0.63715 0.70538
 C2689 C 0.68985 0.09188 0.24576
 C2690 C 0.66258 0.09182 0.23003
 C2691 C 0.64954 0.11885 0.22182
 C2692 C 0.66289 0.14545 0.22862
 C2693 C 0.68931 0.14637 0.24507
 C2694 C 0.70204 0.11911 0.25535
 C2695 C 0.70553 0.06537 0.25199
 C2696 C 0.73038 0.06512 0.27022
 C2697 C 0.74015 0.09115 0.28253
 C2698 C 0.72625 0.11785 0.27527
 H2699 H 0.69887 0.04459 0.24276
 H2700 H 0.74177 0.04454 0.27525
 H2701 H 0.75877 0.09073 0.29762
 H2702 H 0.73433 0.13700 0.28640
 H2703 H 0.62867 0.11947 0.21002
 H2704 H 0.65237 0.16558 0.22062
 C2705 C 0.86447 0.10823 0.74398
 C2706 C 0.85457 0.08900 0.76660
 C2707 C 0.82809 0.09549 0.78081
 C2708 C 0.81138 0.12038 0.77304
 C2709 C 0.82071 0.13971 0.75097
 C2710 C 0.84725 0.13365 0.73600
 C2711 C 0.89129 0.10299 0.72931
 C2712 C 0.90028 0.12168 0.70667
 C2713 C 0.88303 0.14605 0.69843
 C2714 C 0.85681 0.15213 0.71296
 H2715 H 0.90561 0.08461 0.73529
 H2716 H 0.92077 0.11724 0.69548
 H2717 H 0.89005 0.16041 0.68079
 H2718 H 0.84399 0.17122 0.70583
 H2719 H 0.82003 0.08085 0.79779
 H2720 H 0.79124 0.12496 0.78483
 C2721 C 0.31914 0.58281 0.24767
 C2722 C 0.34598 0.58349 0.26418
 C2723 C 0.35781 0.61076 0.27153
 C2724 C 0.34348 0.63696 0.26344
 C2725 C 0.31716 0.63710 0.24674
 C2726 C 0.30598 0.60964 0.23697
 C2727 C 0.30482 0.55598 0.24178
 C2728 C 0.28037 0.55520 0.22304
 C2729 C 0.26968 0.58100 0.20982
 C2730 C 0.28228 0.60796 0.21660
 H2731 H 0.31224 0.53539 0.25168
 H2732 H 0.27000 0.53441 0.21833
 H2733 H 0.25135 0.58016 0.19442
 H2734 H 0.27376 0.62711 0.20490
 H2735 H 0.37838 0.61184 0.28377
 H2736 H 0.35293 0.65736 0.27103
 C2737 C 0.36051 0.39002 0.24820
 C2738 C 0.35142 0.40953 0.22515
 C2739 C 0.32457 0.40494 0.21055
 C2740 C 0.30684 0.38132 0.21818
 C2741 C 0.31547 0.36158 0.24061
 C2742 C 0.34218 0.36610 0.25623
 C2743 C 0.38764 0.39350 0.26321
 C2744 C 0.39598 0.37446 0.28618
 C2745 C 0.37758 0.35169 0.29465
 C2746 C 0.35090 0.34748 0.27989
 H2747 H 0.40269 0.41075 0.25720
 H2748 H 0.41680 0.37743 0.29753
 H2749 H 0.38408 0.33712 0.31263
 H2750 H 0.33711 0.32966 0.28727
 H2751 H 0.31714 0.41996 0.19325
 H2752 H 0.28667 0.37785 0.20580
 C2753 C 0.82091 0.91575 0.74362
 C2754 C 0.84777 0.91420 0.72776
 C2755 C 0.85958 0.88657 0.72083
 C2756 C 0.84534 0.86084 0.72890
 C2757 C 0.81912 0.86150 0.74516
 C2758 C 0.80772 0.88934 0.75420
 C2759 C 0.80658 0.94302 0.74894
 C2760 C 0.78200 0.94461 0.76694
 C2761 C 0.77118 0.91921 0.77997
 C2762 C 0.78384 0.89184 0.77379
 H2763 H 0.81405 0.96334 0.73915
 H2764 H 0.77160 0.96573 0.77119
 H2765 H 0.75273 0.92067 0.79478
 H2766 H 0.77518 0.87304 0.78533
 H2767 H 0.88008 0.88485 0.70896
 H2768 H 0.85486 0.84014 0.72173
 C2769 C 0.63319 0.89535 0.24994
 C2770 C 0.64529 0.91300 0.27257
 C2771 C 0.67215 0.90457 0.28571
 C2772 C 0.68729 0.87943 0.27652
 C2773 C 0.67596 0.86169 0.25409
 C2774 C 0.64862 0.86948 0.24063
 C2775 C 0.60610 0.90302 0.23623
 C2776 C 0.59468 0.88592 0.21361
 C2777 C 0.60992 0.86093 0.20422
 C2778 C 0.63666 0.85269 0.21754
 H2779 H 0.59351 0.92219 0.24294
 H2780 H 0.57392 0.89220 0.20331
 H2781 H 0.60100 0.84788 0.18649
 H2782 H 0.64798 0.83333 0.20937
 H2783 H 0.68194 0.91811 0.30261
 H2784 H 0.70805 0.87360 0.28722
 C2785 C 0.14071 0.39253 0.74516
 C2786 C 0.15491 0.41255 0.76427
 C2787 C 0.18358 0.40627 0.77424
 C2788 C 0.19825 0.38060 0.76580
 C2789 C 0.18465 0.36010 0.74735
 C2790 C 0.15566 0.36607 0.73666
 C2791 C 0.11193 0.39825 0.73435
 C2792 C 0.09827 0.37857 0.71535
 C2793 C 0.11297 0.35299 0.70672
 C2794 C 0.14142 0.34673 0.71714
 H2795 H 0.09978 0.41789 0.74052
 H2796 H 0.07619 0.38326 0.70717
 H2797 H 0.10231 0.33795 0.69176
 H2798 H 0.15221 0.32690 0.70943
 H2799 H 0.19483 0.42156 0.78852
 H2800 H 0.22026 0.37633 0.77443
 C2801 C 0.10019 0.79495 0.82411
 C2802 C 0.09258 0.77628 0.84793
 C2803 C 0.11072 0.75189 0.85500
 C2804 C 0.13615 0.74582 0.83905
 C2805 C 0.14414 0.76384 0.81538
 C2806 C 0.12648 0.78908 0.80817
 C2807 C 0.08202 0.81913 0.81544
 C2808 C 0.09025 0.83792 0.79266
 C2809 C 0.11660 0.83306 0.77809
 C2810 C 0.13457 0.80898 0.78574
 H2811 H 0.06130 0.82378 0.82603
 H2812 H 0.07621 0.85646 0.78642
 H2813 H 0.12313 0.84798 0.76071
 H2814 H 0.15492 0.80643 0.77416
 H2815 H 0.10498 0.73725 0.87294
 H2816 H 0.14959 0.72674 0.84507
 C2817 C 0.60843 0.25028 0.35712
 C2818 C 0.58796 0.27196 0.34668
 C2819 C 0.59264 0.28587 0.31954
 C2820 C 0.61734 0.27895 0.30286
 C2821 C 0.63817 0.25805 0.31293
 C2822 C 0.63363 0.24314 0.34003
 C2823 C 0.60456 0.23572 0.38436
 C2824 C 0.62466 0.21418 0.39419
 C2825 C 0.64892 0.20673 0.37719
 C2826 C 0.65346 0.22100 0.35036
 H2827 H 0.58610 0.24095 0.39833
 H2828 H 0.62136 0.20313 0.41508
 H2829 H 0.66432 0.18982 0.38482
 H2830 H 0.67238 0.21427 0.33768
 H2831 H 0.57689 0.30210 0.31110
 H2832 H 0.62074 0.29077 0.28238
 C2833 C 0.59431 0.70761 0.17717
 C2834 C 0.58582 0.72318 0.15114
 C2835 C 0.60328 0.74644 0.14119
 C2836 C 0.62882 0.75436 0.15637
 C2837 C 0.63767 0.73937 0.18209
 C2838 C 0.62082 0.71525 0.19228
 C2839 C 0.57687 0.68485 0.18880
 C2840 C 0.58609 0.66892 0.21368
 C2841 C 0.61276 0.67526 0.22743
 C2842 C 0.63004 0.69810 0.21688
 H2843 H 0.55595 0.67915 0.17896
 H2844 H 0.57259 0.65139 0.22220
 H2845 H 0.62006 0.66247 0.24643
 H2846 H 0.65079 0.70187 0.22796
 H2847 H 0.59695 0.75871 0.12150
 H2848 H 0.64170 0.77249 0.14807
 C2849 C 0.09707 0.21088 0.67687
 C2850 C 0.09107 0.22415 0.64907
 C2851 C 0.11066 0.24491 0.63778
 C2852 C 0.13604 0.25253 0.65342
 C2853 C 0.14251 0.23984 0.68099
 C2854 C 0.12332 0.21815 0.69257
 C2855 C 0.07736 0.19069 0.68959
 C2856 C 0.08406 0.17678 0.71632
 C2857 C 0.11042 0.18257 0.73083
 C2858 C 0.12989 0.20291 0.71912
 H2859 H 0.05663 0.18541 0.67912
 H2860 H 0.06886 0.16120 0.72566
 H2861 H 0.11580 0.17129 0.75132
 H2862 H 0.15021 0.20610 0.73091
 H2863 H 0.10609 0.25551 0.61674
 H2864 H 0.15069 0.26862 0.64399
 C2865 C 0.89559 0.24240 0.64023
 C2866 C 0.91335 0.26618 0.64978
 C2867 C 0.90594 0.28094 0.67565
 C2868 C 0.88152 0.27273 0.69198
 C2869 C 0.86350 0.24965 0.68287
 C2870 C 0.87059 0.23405 0.65699
 C2871 C 0.90181 0.22697 0.61412
 C2872 C 0.88462 0.20326 0.60543
 C2873 C 0.86065 0.19477 0.62216
 C2874 C 0.85348 0.21009 0.64759
 H2875 H 0.91983 0.23314 0.60009
 H2876 H 0.88989 0.19146 0.58554
 H2877 H 0.84745 0.17631 0.61532
 H2878 H 0.83469 0.20279 0.65999
 H2879 H 0.91945 0.29879 0.68351
 H2880 H 0.87610 0.28514 0.71149
 C2881 C 0.41104 0.74808 0.18024
 C2882 C 0.41025 0.76615 0.15444
 C2883 C 0.38281 0.77572 0.14329
 C2884 C 0.35667 0.76801 0.15715
 C2885 C 0.35673 0.74926 0.18199
 C2886 C 0.38426 0.73746 0.19234
 C2887 C 0.43792 0.74049 0.19462
 C2888 C 0.43883 0.71991 0.21755
 C2889 C 0.41311 0.70656 0.22667
 C2890 C 0.38608 0.71511 0.21425
 H2891 H 0.45847 0.75043 0.18841
 H2892 H 0.45968 0.71388 0.22789
 H2893 H 0.41403 0.68971 0.24368
 H2894 H 0.36696 0.70331 0.22147
 H2895 H 0.38154 0.78938 0.12364
 H2896 H 0.33620 0.77728 0.14851
 C2897 C 0.41405 0.24839 0.31006
 C2898 C 0.41294 0.23324 0.33752
 C2899 C 0.38557 0.22829 0.35031
 C2900 C 0.35956 0.23752 0.33629
 C2901 C 0.35983 0.25295 0.30928
 C2902 C 0.38765 0.26021 0.29696
 C2903 C 0.44096 0.25185 0.29511
 C2904 C 0.44247 0.26923 0.26980
 C2905 C 0.41734 0.28344 0.25884
 C2906 C 0.39024 0.27905 0.27214
 H2907 H 0.46107 0.24110 0.30274
 H2908 H 0.46335 0.27209 0.25894
 H2909 H 0.41877 0.29779 0.23977
 H2910 H 0.37185 0.29150 0.26313
 H2911 H 0.38427 0.21711 0.37141
 H2912 H 0.33896 0.23181 0.34652
 C2913 C 0.89448 0.75024 0.86051
 C2914 C 0.91471 0.73087 0.84657
 C2915 C 0.90815 0.72047 0.81845
 C2916 C 0.88230 0.72916 0.80388
 C2917 C 0.86189 0.74833 0.81699
 C2918 C 0.86788 0.75911 0.84558
 C2919 C 0.90007 0.76091 0.88907
 C2920 C 0.88032 0.78032 0.90236
 C2921 C 0.85474 0.78948 0.88754
 C2922 C 0.84850 0.77909 0.85940
 H2923 H 0.91963 0.75425 0.90139
 H2924 H 0.88495 0.78839 0.92424
 H2925 H 0.83965 0.80476 0.89790
 H2926 H 0.82863 0.78716 0.84853
 H2927 H 0.92352 0.70594 0.80741
 H2928 H 0.87797 0.72038 0.78219
   
