data_POSCAR
  _audit_creation_date              2014-09-24
  _audit_creation_method            'ToBaCCo'
  _symmetry_space_group_name_H-M    'P1'
  _symmetry_Int_Tables_number       1
  _symmetry_cell_setting            triclinic
  loop_
  _symmetry_equiv_pos_as_xyz
 x,y,z
_cell_length_a 51.6381
_cell_length_b 52.2338
_cell_length_c 53.7670
_cell_angle_alpha 90.292000
_cell_angle_beta 89.980900
_cell_angle_gamma 89.920500
loop_
  _atom_site_label
  _atom_site_type_symbol
  _atom_site_fract_x
  _atom_site_fract_y
  _atom_site_fract_z
O1 O 0.34915 0.31595 -0.02042
 O2 O 0.32003 0.35342 0.02989
 O3 O 0.35177 0.31482 0.02647
 O4 O 0.31839 0.35543 -0.01838
 O5 O 0.28457 0.32980 -0.01819
 O6 O 0.31858 0.28824 0.02737
 O7 O 0.28623 0.32766 0.03040
 O8 O 0.31569 0.28966 -0.02066
 Cu9 Cu 0.33796 0.33772 0.00435
 Cu10 Cu 0.29774 0.30634 0.00482
 C11 C 0.33806 0.29587 -0.02842
 C12 C 0.29814 0.34719 0.03870
 C13 C 0.34158 0.29408 0.03374
 C14 C 0.29580 0.34992 -0.02598
 O15 O 0.68645 0.63768 0.01436
 O16 O 0.64457 0.67643 -0.02519
 O17 O 0.67869 0.64150 -0.03236
 O18 O 0.65102 0.67237 0.02272
 O19 O 0.67994 0.70329 0.02053
 O20 O 0.71037 0.66975 -0.03306
 O21 O 0.67503 0.70582 -0.02814
 O22 O 0.71612 0.66808 0.01464
 Cu23 Cu 0.66205 0.65420 -0.00473
 Cu24 Cu 0.69829 0.68994 -0.00659
 C25 C 0.70863 0.64582 0.02077
 C26 C 0.65276 0.69739 -0.03404
 C27 C 0.69967 0.64964 -0.04175
 C28 C 0.66032 0.69323 0.03091
 O29 O 0.67268 0.35535 0.97138
 O30 O 0.64196 0.31899 1.02128
 O31 O 0.67728 0.35391 1.01946
 O32 O 0.63763 0.32029 0.97328
 O33 O 0.66772 0.29053 0.96932
 O34 O 0.70750 0.32424 1.01638
 O35 O 0.67162 0.28876 1.01770
 O36 O 0.70329 0.32605 0.96788
 Cu37 Cu 0.65443 0.34011 0.99673
 Cu38 Cu 0.69062 0.30439 0.99250
 C39 C 0.69313 0.34704 0.96100
 C40 C 0.65128 0.29762 1.02796
 C41 C 0.69914 0.34499 1.02596
 C42 C 0.64580 0.29973 0.96330
 O43 O 0.31124 0.65554 0.97610
 O44 O 0.35573 0.68832 1.01885
 O45 O 0.32090 0.65265 1.02362
 O46 O 0.34672 0.68993 0.97191
 O47 O 0.31834 0.72066 0.97940
 O48 O 0.29071 0.68167 1.03052
 O49 O 0.32598 0.71755 1.02699
 O50 O 0.28157 0.68523 0.98303
 Cu51 Cu 0.33646 0.66855 0.99701
 Cu52 Cu 0.30108 0.70426 1.00560
 C53 C 0.28883 0.66473 0.97227
 C54 C 0.34869 0.70870 1.02995
 C55 C 0.30130 0.66037 1.03584
 C56 C 0.33756 0.71190 0.96718
 O57 O -0.02030 0.36601 0.32622
 O58 O 0.02818 0.33398 0.36481
 O59 O 0.02925 0.36777 0.33029
 O60 O -0.02200 0.33276 0.36250
 O61 O -0.01884 0.30104 0.33551
 O62 O 0.03176 0.33743 0.30169
 O63 O 0.03168 0.30312 0.33685
 O64 O -0.01853 0.33454 0.29875
 Cu65 Cu 0.00327 0.35314 0.34876
 Cu66 Cu 0.00663 0.31584 0.31541
 C67 C -0.02725 0.35618 0.30563
 C68 C 0.03853 0.31326 0.35734
 C69 C 0.03922 0.35886 0.31048
 C70 C -0.02884 0.31066 0.35511
 O71 O 0.02296 0.67578 0.64042
 O72 O -0.02173 0.63708 0.67720
 O73 O -0.02695 0.67176 0.64287
 O74 O 0.02770 0.64045 0.67355
 O75 O 0.02662 0.66921 0.70372
 O76 O -0.02657 0.70291 0.67065
 O77 O -0.02401 0.66770 0.70558
 O78 O 0.02359 0.70542 0.66980
 Cu79 Cu 0.00044 0.65337 0.65558
 Cu80 Cu -0.00017 0.68931 0.69043
 C81 C 0.03099 0.69715 0.64870
 C82 C -0.03029 0.64557 0.69777
 C83 C -0.03573 0.69300 0.65084
 C84 C 0.03623 0.64898 0.69410
 O85 O 1.01081 0.64456 0.31674
 O86 O 0.96273 0.67555 0.35665
 O87 O 0.96058 0.64434 0.31960
 O88 O 1.01274 0.67587 0.35390
 O89 O 1.01105 0.70887 0.32858
 O90 O 0.95894 0.67641 0.29306
 O91 O 0.96043 0.70827 0.33096
 O92 O 1.00950 0.67692 0.29056
 Cu93 Cu 0.98691 0.65684 0.33923
 Cu94 Cu 0.98483 0.69594 0.30815
 C95 C 1.01852 0.65527 0.29695
 C96 C 0.95324 0.69710 0.35076
 C97 C 0.95080 0.65481 0.30054
 C98 C 1.02081 0.69781 0.34744
 O99 O 0.98115 0.31178 0.66101
 O100 O 1.03668 0.34244 0.69102
 O101 O 1.03050 0.30905 0.65551
 O102 O 0.98759 0.34430 0.69751
 O103 O 0.98750 0.31194 0.72377
 O104 O 1.03416 0.27787 0.68273
 O105 O 1.03768 0.31207 0.71938
 O106 O 0.98409 0.27895 0.68651
 Cu107 Cu 1.00875 0.32999 0.67360
 Cu108 Cu 1.01112 0.29199 0.70585
 C109 C 0.97370 0.28978 0.66786
 C110 C 1.04605 0.33319 0.71085
 C111 C 1.03946 0.28729 0.66155
 C112 C 0.98047 0.33445 0.71792
 O113 O 0.32128 -0.02999 0.35006
 O114 O 0.35393 0.02008 0.31495
 O115 O 0.31829 0.01942 0.34872
 O116 O 0.35620 -0.02942 0.31566
 O117 O 0.32598 -0.03216 0.28680
 O118 O 0.28786 0.01746 0.31998
 O119 O 0.32414 0.01789 0.28563
 O120 O 0.29037 -0.03227 0.32181
 Cu121 Cu 0.34042 -0.00474 0.33519
 Cu122 Cu 0.30404 -0.00750 0.30058
 C123 C 0.30023 -0.03958 0.34226
 C124 C 0.34492 0.02751 0.29427
 C125 C 0.29657 0.02672 0.34022
 C126 C 0.34771 -0.03917 0.29558
 O127 O 0.64328 0.03554 0.68048
 O128 O 0.67161 -0.02084 0.65073
 O129 O 0.63991 -0.01267 0.68796
 O130 O 0.67565 0.02845 0.64495
 O131 O 0.70791 0.03115 0.67170
 O132 O 0.67315 -0.01323 0.71374
 O133 O 0.70534 -0.01893 0.67581
 O134 O 0.67461 0.03601 0.70845
 Cu135 Cu 0.65450 0.00723 0.66331
 Cu136 Cu 0.69371 0.00876 0.69498
 C137 C 0.65357 0.04505 0.69983
 C138 C 0.69349 -0.02927 0.65762
 C139 C 0.65001 -0.01948 0.70843
 C140 C 0.69758 0.03742 0.65113
 O141 O 0.35513 0.96958 0.67764
 O142 O 0.31879 1.01381 0.63828
 O143 O 0.35227 1.01904 0.67399
 O144 O 0.32298 0.96487 0.64123
 O145 O 0.28999 0.96519 0.66733
 O146 O 0.32089 1.01875 0.70183
 O147 O 0.28709 1.01507 0.66584
 O148 O 0.32290 0.96890 0.70458
 Cu149 Cu 0.34054 0.99189 0.65516
 Cu150 Cu 0.30197 0.99192 0.68767
 C151 C 0.34529 0.96157 0.69779
 C152 C 0.29672 1.02190 0.64518
 C153 C 0.34193 1.02808 0.69357
 C154 C 0.30135 0.95597 0.64825
 O155 O 0.65270 0.98248 0.31721
 O156 O 0.68852 1.03036 0.35313
 O157 O 0.65458 1.03158 0.31808
 O158 O 0.68605 0.98092 0.35383
 O159 O 0.71851 0.97968 0.32719
 O160 O 0.68527 1.02938 0.28956
 O161 O 0.72021 1.02940 0.32569
 O162 O 0.68475 0.97960 0.29019
 Cu163 Cu 0.66738 1.00634 0.33832
 Cu164 Cu 0.70542 1.00433 0.30539
 C165 C 0.66219 0.97327 0.29730
 C166 C 0.71052 1.03812 0.34579
 C167 C 0.66407 1.03883 0.29754
 C168 C 0.70790 0.97208 0.34720
 C169 C 0.86402 0.77438 0.50643
 C170 C 0.85479 0.78448 0.48416
 C171 C 0.83937 0.80654 0.48460
 C172 C 0.83375 0.81940 0.50725
 C173 C 0.84479 0.80950 0.52941
 C174 C 0.85901 0.78658 0.52910
 C175 C 0.81516 0.84173 0.50784
 C176 C 0.80232 0.84874 0.53013
 C177 C 0.78340 0.86793 0.53032
 C178 C 0.77629 0.87981 0.50816
 C179 C 0.78844 0.87335 0.48573
 C180 C 0.80852 0.85514 0.48584
 H181 H 0.87563 0.75706 0.50609
 H182 H 0.83124 0.81270 0.46714
 H183 H 0.84203 0.81892 0.54714
 H184 H 0.80594 0.83891 0.54739
 H185 H 0.76125 0.89431 0.50847
 H186 H 0.81817 0.85117 0.46844
 C187 C 0.12251 0.21607 0.50164
 C188 C 0.13580 0.21187 0.47941
 C189 C 0.15297 0.19125 0.47740
 C190 C 0.15651 0.17406 0.49736
 C191 C 0.14216 0.17836 0.51950
 C192 C 0.12545 0.19948 0.52179
 C193 C 0.17561 0.15240 0.49520
 C194 C 0.18659 0.14125 0.51670
 C195 C 0.20511 0.12164 0.51480
 C196 C 0.21412 0.11442 0.49124
 C197 C 0.20371 0.12504 0.46969
 C198 C 0.18380 0.14317 0.47163
 H199 H 0.10960 0.23240 0.50317
 H200 H 0.16384 0.18935 0.46033
 H201 H 0.14335 0.16528 0.53496
 H202 H 0.18096 0.14763 0.53503
 H203 H 0.22940 0.10027 0.48954
 H204 H 0.17533 0.15021 0.45461
 C205 C 0.11608 0.77984 0.49240
 C206 C 0.12312 0.79092 0.51509
 C207 C 0.14094 0.81114 0.51542
 C208 C 0.15374 0.81893 0.49338
 C209 C 0.14623 0.80710 0.47069
 C210 C 0.12721 0.78804 0.47022
 C211 C 0.17612 0.83747 0.49433
 C212 C 0.18595 0.84873 0.47235
 C213 C 0.20917 0.86257 0.47266
 C214 C 0.22177 0.86714 0.49522
 C215 C 0.21157 0.85792 0.51746
 C216 C 0.18920 0.84278 0.51698
 H217 H 0.10189 0.76455 0.49197
 H218 H 0.14521 0.81984 0.53318
 H219 H 0.15558 0.81151 0.45329
 H220 H 0.17635 0.84638 0.45467
 H221 H 0.23942 0.87838 0.49549
 H222 H 0.18306 0.83465 0.53440
 C223 C 0.88453 0.22263 0.50648
 C224 C 0.87709 0.21013 0.52829
 C225 C 0.85937 0.18983 0.52688
 C226 C 0.84731 0.18316 0.50410
 C227 C 0.85492 0.19662 0.48246
 C228 C 0.87384 0.21588 0.48347
 C229 C 0.82611 0.16328 0.50311
 C230 C 0.81850 0.15202 0.48020
 C231 C 0.79686 0.13586 0.47879
 C232 C 0.78386 0.12918 0.50061
 C233 C 0.79165 0.13885 0.52364
 C234 C 0.81235 0.15615 0.52486
 H235 H 0.89910 0.23751 0.50744
 H236 H 0.85481 0.17986 0.54385
 H237 H 0.84579 0.19305 0.46473
 H238 H 0.82876 0.15599 0.46316
 H239 H 0.76769 0.11598 0.49971
 H240 H 0.81673 0.16443 0.54280
 C241 C 0.50151 0.89492 0.79953
 C242 C 0.47904 0.88050 0.80287
 C243 C 0.47899 0.86072 0.82031
 C244 C 0.50111 0.85540 0.83486
 C245 C 0.52375 0.87015 0.83093
 C246 C 0.52400 0.88978 0.81315
 C247 C 0.50056 0.83373 0.85302
 C248 C 0.52335 0.81999 0.85880
 C249 C 0.52228 0.79819 0.87383
 C250 C 0.49839 0.78964 0.88277
 C251 C 0.47557 0.80302 0.87762
 C252 C 0.47685 0.82550 0.86353
 H253 H 0.50166 0.91010 0.78586
 H254 H 0.46183 0.84897 0.82167
 H255 H 0.54110 0.86678 0.84170
 H256 H 0.54182 0.82538 0.85095
 H257 H 0.49762 0.77255 0.89412
 H258 H 0.45910 0.83596 0.86027
 C259 C 0.50172 0.11953 0.21518
 C260 C 0.47800 0.12809 0.20579
 C261 C 0.47774 0.14454 0.18529
 C262 C 0.50093 0.15158 0.17312
 C263 C 0.52457 0.14158 0.18240
 C264 C 0.52508 0.12649 0.20393
 C265 C 0.50045 0.17003 0.15166
 C266 C 0.52285 0.18404 0.14513
 C267 C 0.52240 0.20182 0.12572
 C268 C 0.49918 0.20643 0.11315
 C269 C 0.47652 0.19317 0.11921
 C270 C 0.47739 0.17463 0.13803
 H271 H 0.50203 0.10692 0.23112
 H272 H 0.45926 0.15217 0.17957
 H273 H 0.54281 0.14572 0.17347
 H274 H 0.54069 0.18204 0.15542
 H275 H 0.49876 0.22068 0.09859
 H276 H 0.45997 0.16385 0.14157
 C277 C 0.49023 0.13214 0.77154
 C278 C 0.51330 0.13895 0.78345
 C279 C 0.51229 0.15374 0.80523
 C280 C 0.48852 0.16346 0.81432
 C281 C 0.46552 0.15645 0.80174
 C282 C 0.46625 0.14034 0.78077
 C283 C 0.48792 0.18098 0.83656
 C284 C 0.46520 0.18394 0.85103
 C285 C 0.46465 0.20071 0.87149
 C286 C 0.48715 0.21402 0.87809
 C287 C 0.50998 0.21122 0.86442
 C288 C 0.51014 0.19518 0.84347
 H289 H 0.49096 0.11959 0.75544
 H290 H 0.53029 0.15771 0.81471
 H291 H 0.44690 0.16368 0.80769
 H292 H 0.44793 0.17306 0.84695
 H293 H 0.48688 0.22680 0.89402
 H294 H 0.52762 0.19449 0.83245
 C295 C 0.50745 0.87701 0.21541
 C296 C 0.53116 0.87279 0.20338
 C297 C 0.53249 0.85453 0.18416
 C298 C 0.51043 0.84016 0.17719
 C299 C 0.48675 0.84507 0.18960
 C300 C 0.48516 0.86363 0.20846
 C301 C 0.51210 0.81996 0.15733
 C302 C 0.49001 0.81313 0.14325
 C303 C 0.49097 0.79316 0.12564
 C304 C 0.51454 0.78050 0.12155
 C305 C 0.53687 0.78764 0.13443
 C306 C 0.53565 0.80700 0.15249
 H307 H 0.50622 0.89103 0.23028
 H308 H 0.55065 0.85205 0.17442
 H309 H 0.46954 0.83416 0.18522
 H310 H 0.47204 0.82352 0.14555
 H311 H 0.51568 0.76486 0.10828
 H312 H 0.55299 0.81134 0.16296
 C313 C 0.77368 0.49641 0.86312
 C314 C 0.78380 0.47260 0.85620
 C315 C 0.80757 0.47141 0.84366
 C316 C 0.82212 0.49384 0.83906
 C317 C 0.81207 0.51752 0.84775
 C318 C 0.78756 0.51891 0.85889
 C319 C 0.84713 0.49260 0.82472
 C320 C 0.85678 0.51448 0.81237
 C321 C 0.87974 0.51343 0.79842
 C322 C 0.89239 0.48987 0.79565
 C323 C 0.88350 0.46786 0.80764
 C324 C 0.86124 0.46942 0.82253
 H325 H 0.75531 0.49738 0.87286
 H326 H 0.81409 0.45286 0.83728
 H327 H 0.82286 0.53509 0.84582
 H328 H 0.84654 0.53246 0.81328
 H329 H 0.90895 0.48843 0.78336
 H330 H 0.85533 0.45243 0.83237
 C331 C 0.22653 0.50765 0.13104
 C332 C 0.21385 0.48486 0.13674
 C333 C 0.19159 0.48546 0.15161
 C334 C 0.18294 0.50865 0.16261
 C335 C 0.19604 0.53155 0.15623
 C336 C 0.21749 0.53110 0.14019
 C337 C 0.16179 0.50861 0.18191
 C338 C 0.14835 0.53138 0.18841
 C339 C 0.13128 0.53190 0.20874
 C340 C 0.12606 0.50929 0.22156
 C341 C 0.13798 0.48634 0.21479
 C342 C 0.15604 0.48605 0.19539
 H343 H 0.24336 0.50712 0.11897
 H344 H 0.18174 0.46758 0.15495
 H345 H 0.19055 0.54977 0.16424
 H346 H 0.15146 0.54899 0.17840
 H347 H 0.11248 0.50952 0.23696
 H348 H 0.16613 0.46828 0.19185
 C349 C 0.79586 0.49168 0.10643
 C350 C 0.80803 0.51495 0.11188
 C351 C 0.82446 0.51654 0.13257
 C352 C 0.82836 0.49518 0.14815
 C353 C 0.81601 0.47184 0.14208
 C354 C 0.79977 0.47014 0.12127
 C355 C 0.84435 0.49761 0.17116
 C356 C 0.85839 0.47648 0.18043
 C357 C 0.87301 0.47871 0.20235
 C358 C 0.87345 0.50220 0.21503
 C359 C 0.86020 0.52352 0.20592
 C360 C 0.84554 0.52115 0.18415
 H361 H 0.78270 0.49036 0.09076
 H362 H 0.83421 0.53447 0.13632
 H363 H 0.81804 0.45528 0.15394
 H364 H 0.85860 0.45849 0.17035
 H365 H 0.88459 0.50411 0.23201
 H366 H 0.83473 0.53764 0.17781
 C367 C 0.20418 0.50910 0.89353
 C368 C 0.19224 0.53091 0.88388
 C369 C 0.17619 0.52866 0.86294
 C370 C 0.17285 0.50485 0.85065
 C371 C 0.18592 0.48326 0.86047
 C372 C 0.20129 0.48523 0.88193
 C373 C 0.15698 0.50272 0.82717
 C374 C 0.14783 0.47867 0.81864
 C375 C 0.13503 0.47623 0.79571
 C376 C 0.12973 0.49824 0.78184
 C377 C 0.13727 0.52243 0.79036
 C378 C 0.15127 0.52457 0.81262
 H379 H 0.21657 0.51090 0.90972
 H380 H 0.16657 0.54577 0.85655
 H381 H 0.18535 0.46494 0.85109
 H382 H 0.15075 0.46155 0.82945
 H383 H 0.11891 0.49664 0.76463
 H384 H 0.15804 0.54338 0.81785
 C385 C 0.26299 0.39860 0.09076
 C386 C 0.28974 0.39994 0.08615
 C387 C 0.30124 0.38251 0.06991
 C388 C 0.28632 0.36363 0.05811
 C389 C 0.25979 0.36237 0.06371
 N390 N 0.24887 0.37987 0.07941
 C391 C 0.24961 0.41859 0.10565
 N392 N 0.22429 0.42409 0.10076
 C393 C 0.21177 0.44420 0.11168
 C394 C 0.22516 0.46048 0.12797
 C395 C 0.25075 0.45445 0.13421
 C396 C 0.26293 0.43338 0.12340
 H397 H 0.32175 0.38429 0.06607
 H398 H 0.24756 0.34818 0.05488
 H399 H 0.19190 0.44826 0.10663
 H400 H 0.26149 0.46645 0.14706
 H401 H 0.30164 0.41498 0.09395
 H402 H 0.28271 0.42918 0.12857
 C403 C 0.76036 0.59461 0.05710
 C404 C 0.74014 0.58502 0.04242
 C405 C 0.72302 0.60188 0.03118
 C406 C 0.72613 0.62836 0.03417
 C407 C 0.74661 0.63731 0.04904
 N408 N 0.76287 0.62038 0.06032
 C409 C 0.77779 0.57667 0.06990
 N410 N 0.78227 0.57947 0.09471
 C411 C 0.79425 0.56092 0.10822
 C412 C 0.80156 0.53775 0.09681
 C413 C 0.79886 0.53545 0.07095
 C414 C 0.78698 0.55483 0.05746
 H415 H 0.70759 0.59417 0.01974
 H416 H 0.74954 0.65764 0.05180
 H417 H 0.79618 0.56348 0.12812
 H418 H 0.80474 0.51809 0.06138
 H419 H 0.73733 0.56462 0.04000
 H420 H 0.78390 0.55228 0.03767
 C421 C 0.72842 0.39305 0.90490
 C422 C 0.70311 0.39849 0.91292
 C423 C 0.69155 0.38313 0.93083
 C424 C 0.70500 0.36228 0.94090
 C425 C 0.73004 0.35704 0.93202
 N426 N 0.74110 0.37255 0.91474
 C427 C 0.74253 0.41071 0.88824
 N428 N 0.76881 0.41219 0.89002
 C429 C 0.78273 0.43044 0.87801
 C430 C 0.77002 0.44914 0.86390
 C431 C 0.74322 0.44699 0.86047
 C432 C 0.72945 0.42765 0.87233
 H433 H 0.67220 0.38791 0.93712
 H434 H 0.74110 0.34115 0.93932
 H435 H 0.80344 0.43145 0.88097
 H436 H 0.73283 0.46089 0.84937
 H437 H 0.69259 0.41506 0.90641
 H438 H 0.70873 0.42661 0.86962
 C439 C 0.23884 0.61894 0.92765
 C440 C 0.26443 0.62315 0.91989
 C441 C 0.28057 0.63880 0.93412
 C442 C 0.27107 0.65081 0.95561
 C443 C 0.24504 0.64713 0.96213
 N444 N 0.22991 0.63098 0.94850
 C445 C 0.22286 0.59917 0.91539
 N446 N 0.20989 0.58203 0.92973
 C447 C 0.19812 0.56103 0.91987
 C448 C 0.19932 0.55626 0.89419
 C449 C 0.21121 0.57447 0.87892
 C450 C 0.22314 0.59590 0.88947
 H451 H 0.30063 0.64110 0.92865
 H452 H 0.23718 0.65591 0.97878
 H453 H 0.18896 0.54741 0.93216
 H454 H 0.21270 0.57128 0.85905
 H455 H 0.27231 0.61331 0.90380
 H456 H 0.23327 0.60926 0.87761
 C457 C 0.09325 0.27573 0.40437
 C458 C 0.08382 0.30012 0.41088
 C459 C 0.06651 0.31254 0.39519
 C460 C 0.05836 0.30084 0.37301
 C461 C 0.06872 0.27680 0.36677
 N462 N 0.08542 0.26491 0.38252
 C463 C 0.10889 0.26025 0.42185
 N464 N 0.10906 0.23430 0.41903
 C465 C 0.11980 0.21847 0.43617
 C466 C 0.13032 0.22865 0.45809
 C467 C 0.13185 0.25527 0.46073
 C468 C 0.12154 0.27116 0.44250
 H469 H 0.05900 0.33107 0.40078
 H470 H 0.06302 0.26712 0.34980
 H471 H 0.11841 0.19796 0.43353
 H472 H 0.14015 0.26371 0.47736
 H473 H 0.08861 0.30924 0.42835
 H474 H 0.12284 0.29164 0.44515
 C475 C 0.07737 0.74190 0.59964
 C476 C 0.06777 0.75328 0.62155
 C477 C 0.05329 0.73853 0.63818
 C478 C 0.04843 0.71260 0.63301
 C479 C 0.05926 0.70182 0.61147
 N480 N 0.07308 0.71653 0.59560
 C481 C 0.09117 0.75617 0.57994
 N482 N 0.10271 0.74220 0.56162
 C483 C 0.11372 0.75305 0.54140
 C484 C 0.11316 0.77967 0.53840
 C485 C 0.10219 0.79474 0.55732
 C486 C 0.09103 0.78307 0.57813
 H487 H 0.04536 0.74754 0.65469
 H488 H 0.05630 0.68185 0.60686
 H489 H 0.12248 0.74080 0.52744
 H490 H 0.10138 0.81537 0.55555
 H491 H 0.07110 0.77323 0.62587
 H492 H 0.08168 0.79502 0.59192
 C493 C 0.89979 0.73210 0.40137
 C494 C 0.90699 0.70636 0.40440
 C495 C 0.92390 0.69497 0.38752
 C496 C 0.93389 0.70900 0.36754
 C497 C 0.92588 0.73453 0.36477
 N498 N 0.90950 0.74537 0.38169
 C499 C 0.88415 0.74569 0.42046
 N500 N 0.88689 0.77151 0.42311
 C501 C 0.87584 0.78473 0.44225
 C502 C 0.86182 0.77169 0.46055
 C503 C 0.85748 0.74543 0.45746
 C504 C 0.86826 0.73242 0.43727
 H505 H 0.92957 0.67525 0.39047
 H506 H 0.93316 0.74605 0.34964
 H507 H 0.87942 0.80507 0.44405
 H508 H 0.84642 0.73486 0.47111
 H509 H 0.90068 0.69524 0.42017
 H510 H 0.86467 0.71212 0.43540
 C511 C 0.92328 0.25063 0.61764
 C512 C 0.93528 0.23675 0.63686
 C513 C 0.95062 0.24968 0.65433
 C514 C 0.95398 0.27629 0.65275
 C515 C 0.94041 0.28953 0.63425
 N516 N 0.92591 0.27656 0.61737
 C517 C 0.90940 0.23853 0.59641
 N518 N 0.89912 0.25436 0.57896
 C519 C 0.88813 0.24561 0.55767
 C520 C 0.88728 0.21929 0.55255
 C521 C 0.89692 0.20237 0.57050
 C522 C 0.90808 0.21187 0.59243
 H523 H 0.96077 0.23873 0.66834
 H524 H 0.94216 0.31008 0.63248
 H525 H 0.88040 0.25930 0.54456
 H526 H 0.89662 0.18191 0.56720
 H527 H 0.93367 0.21620 0.63820
 H528 H 0.91605 0.19836 0.60549
 C529 C 0.39144 0.08017 0.25329
 C530 C 0.36961 0.06917 0.24175
 C531 C 0.35372 0.05258 0.25527
 C532 C 0.35947 0.04701 0.28017
 C533 C 0.38065 0.05938 0.29126
 N534 N 0.39588 0.07516 0.27772
 C535 C 0.41109 0.09559 0.23993
 N536 N 0.43047 0.10628 0.25366
 C537 C 0.45115 0.11807 0.24323
 C538 C 0.45358 0.11918 0.21731
 C539 C 0.43339 0.10938 0.20266
 C540 C 0.41213 0.09752 0.21385
 H541 H 0.33742 0.04358 0.24607
 H542 H 0.38562 0.05599 0.31052
 H543 H 0.46610 0.12580 0.25519
 H544 H 0.43469 0.10972 0.18256
 H545 H 0.36489 0.07281 0.22252
 H546 H 0.39755 0.08909 0.20199
 C547 C 0.60478 0.09787 0.73747
 C548 C 0.60605 0.09814 0.71139
 C549 C 0.62332 0.08199 0.69913
 C550 C 0.63974 0.06592 0.71271
 C551 C 0.63948 0.06768 0.73874
 N552 N 0.62186 0.08305 0.75036
 C553 C 0.58324 0.11107 0.75052
 N554 N 0.56461 0.12294 0.73684
 C555 C 0.54277 0.13275 0.74715
 C556 C 0.53836 0.13054 0.77277
 C557 C 0.55766 0.11930 0.78750
 C558 C 0.58013 0.10949 0.77644
 H559 H 0.62307 0.08126 0.67899
 H560 H 0.65188 0.05552 0.74982
 H561 H 0.52859 0.14178 0.73523
 H562 H 0.55492 0.11722 0.80736
 H563 H 0.59290 0.10967 0.70046
 H564 H 0.59444 0.10006 0.78791
 C565 C 0.39354 0.91567 0.74414
 C566 C 0.37024 0.92556 0.75384
 C567 C 0.35382 0.93973 0.73847
 C568 C 0.36059 0.94417 0.71360
 C569 C 0.38340 0.93306 0.70440
 N570 N 0.39910 0.91955 0.71970
 C571 C 0.41377 0.90350 0.75967
 N572 N 0.43758 0.90008 0.74928
 C573 C 0.45823 0.89153 0.76238
 C574 C 0.45579 0.88628 0.78780
 C575 C 0.43123 0.88838 0.79877
 C576 C 0.41013 0.89694 0.78479
 H577 H 0.33638 0.94803 0.74629
 H578 H 0.38924 0.93572 0.68525
 H579 H 0.47671 0.88952 0.75306
 H580 H 0.42858 0.88438 0.81835
 H581 H 0.36501 0.92345 0.77317
 H582 H 0.39155 0.89878 0.79386
 C583 C 0.61318 0.92764 0.25106
 C584 C 0.64013 0.92564 0.24802
 C585 C 0.65648 0.94026 0.26329
 C586 C 0.64594 0.95624 0.28181
 C587 C 0.61894 0.95714 0.28446
 N588 N 0.60354 0.94329 0.26909
 C589 C 0.59452 0.91392 0.23512
 N590 N 0.57139 0.92541 0.23052
 C591 C 0.55175 0.91324 0.21868
 C592 C 0.55430 0.88745 0.21162
 C593 C 0.57841 0.87548 0.21512
 C594 C 0.59866 0.88872 0.22679
 H595 H 0.67724 0.93920 0.26056
 H596 H 0.60996 0.96943 0.29825
 H597 H 0.53378 0.92346 0.21572
 H598 H 0.58114 0.85556 0.21010
 H599 H 0.64838 0.91359 0.23361
 H600 H 0.61671 0.87890 0.23055
 C601 C 0.38264 0.24485 0.92662
 C602 C 0.35559 0.24482 0.92380
 C603 C 0.34057 0.26163 0.93828
 C604 C 0.35267 0.27878 0.95477
 C605 C 0.37974 0.27834 0.95658
 N606 N 0.39374 0.26150 0.94290
 C607 C 0.40003 0.22775 0.91261
 N608 N 0.42197 0.21966 0.92414
 C609 C 0.44165 0.20823 0.91164
 C610 C 0.44057 0.20571 0.88570
 C611 C 0.41743 0.21229 0.87355
 C612 C 0.39696 0.22324 0.88702
 H613 H 0.31967 0.26128 0.93662
 H614 H 0.38982 0.29088 0.96942
 H615 H 0.45893 0.20284 0.92176
 H616 H 0.41593 0.21077 0.85351
 H617 H 0.34624 0.23164 0.91107
 H618 H 0.37994 0.22996 0.87727
 C619 C 0.60304 0.73874 0.91683
 C620 C 0.59678 0.71365 0.92385
 C621 C 0.61320 0.70027 0.93963
 C622 C 0.63593 0.71168 0.94862
 C623 C 0.64171 0.73672 0.94105
 N624 N 0.62520 0.74957 0.92576
 C625 C 0.58482 0.75424 0.90186
 N626 N 0.58408 0.78011 0.90522
 C627 C 0.56550 0.79500 0.89461
 C628 C 0.54581 0.78370 0.88039
 C629 C 0.54708 0.75740 0.87546
 C630 C 0.56673 0.74267 0.88585
 H631 H 0.60786 0.68103 0.94500
 H632 H 0.65902 0.74625 0.94763
 H633 H 0.56509 0.81533 0.89866
 H634 H 0.53231 0.74816 0.86430
 H635 H 0.57893 0.70460 0.91807
 H636 H 0.56717 0.72234 0.88193
 C637 C 0.40456 0.74964 0.07315
 C638 C 0.37815 0.75511 0.07651
 C639 C 0.35970 0.74163 0.06260
 C640 C 0.36755 0.72255 0.04570
 C641 C 0.39412 0.71756 0.04317
 N642 N 0.41165 0.73117 0.05656
 C643 C 0.42521 0.76351 0.08658
 N644 N 0.44871 0.76580 0.07539
 C645 C 0.46941 0.77643 0.08700
 C646 C 0.46746 0.78486 0.11179
 C647 C 0.44319 0.78334 0.12352
 C648 C 0.42199 0.77276 0.11096
 H649 H 0.33938 0.74617 0.06497
 H650 H 0.40106 0.70323 0.03016
 H651 H 0.48752 0.77778 0.07697
 H652 H 0.44084 0.78928 0.14271
 H653 H 0.37183 0.76999 0.08922
 H654 H 0.40372 0.77078 0.12062
 C655 C 0.60710 0.25489 0.08053
 C656 C 0.62749 0.24271 0.06769
 C657 C 0.64275 0.25683 0.05120
 C658 C 0.63768 0.28291 0.04740
 C659 C 0.61795 0.29453 0.06139
 N660 N 0.60329 0.28041 0.07710
 C661 C 0.58762 0.24088 0.09549
 N662 N 0.56538 0.25349 0.10153
 C663 C 0.54505 0.24182 0.11268
 C664 C 0.54610 0.21560 0.11798
 C665 C 0.56928 0.20240 0.11331
 C666 C 0.59014 0.21495 0.10212
 H667 H 0.65778 0.24713 0.04072
 H668 H 0.61357 0.31468 0.05931
 H669 H 0.52772 0.25282 0.11653
 H670 H 0.57083 0.18214 0.11723
 H671 H 0.63111 0.22242 0.06931
 H672 H 0.60755 0.20416 0.09827
 C673 C 0.25365 0.06836 0.59518
 C674 C 0.24927 0.07112 0.62081
 C675 C 0.26330 0.05594 0.63743
 C676 C 0.28198 0.03867 0.62843
 C677 C 0.28602 0.03694 0.60272
 N678 N 0.27172 0.05136 0.58697
 C679 C 0.23864 0.08241 0.57649
 N680 N 0.23249 0.07002 0.55503
 C681 C 0.22071 0.08195 0.53582
 C682 C 0.21528 0.10828 0.53709
 C683 C 0.22081 0.12137 0.55937
 C684 C 0.23237 0.10842 0.57922
 H685 H 0.25965 0.05771 0.65720
 H686 H 0.30005 0.02365 0.59504
 H687 H 0.21607 0.07087 0.51936
 H688 H 0.21716 0.14171 0.56113
 H689 H 0.23473 0.08426 0.62781
 H690 H 0.23744 0.11884 0.59598
 C691 C 0.75166 0.08760 0.39339
 C692 C 0.76370 0.07871 0.37154
 C693 C 0.74987 0.06291 0.35512
 C694 C 0.72420 0.05578 0.36056
 C695 C 0.71274 0.06599 0.38217
 N696 N 0.72654 0.08125 0.39769
 C697 C 0.76508 0.10284 0.41274
 N698 N 0.75013 0.11550 0.42963
 C699 C 0.76015 0.12734 0.44992
 C700 C 0.78681 0.12629 0.45467
 C701 C 0.80292 0.11433 0.43708
 C702 C 0.79212 0.10250 0.41605
 H703 H 0.75952 0.05577 0.33859
 H704 H 0.69294 0.06154 0.38714
 H705 H 0.74714 0.13683 0.46280
 H706 H 0.82359 0.11304 0.44021
 H707 H 0.78348 0.08374 0.36713
 H708 H 0.80470 0.09217 0.40342
 C709 C 0.72910 0.91374 0.61167
 C710 C 0.70237 0.91846 0.60973
 C711 C 0.69066 0.93618 0.62556
 C712 C 0.70533 0.94939 0.64341
 C713 C 0.73173 0.94338 0.64558
 N714 N 0.74285 0.92625 0.62965
 C715 C 0.74318 0.89806 0.59291
 N716 N 0.76916 0.90168 0.59010
 C717 C 0.78288 0.89060 0.57129
 C718 C 0.77019 0.87553 0.55349
 C719 C 0.74380 0.87048 0.55656
 C720 C 0.73030 0.88132 0.57646
 H721 H 0.67023 0.94019 0.62319
 H722 H 0.74376 0.95313 0.65910
 H723 H 0.80331 0.89478 0.56940
 H724 H 0.73355 0.85874 0.54315
 H725 H 0.69061 0.90978 0.59539
 H726 H 0.70994 0.87703 0.57832
 C727 C 0.26181 0.90828 0.39063
 C728 C 0.28853 0.91253 0.39310
 C729 C 0.30106 0.92884 0.37670
 C730 C 0.28721 0.94104 0.35774
 C731 C 0.26066 0.93579 0.35535
 N732 N 0.24869 0.92004 0.37187
 C733 C 0.24742 0.89341 0.40948
 N734 N 0.22220 0.89938 0.41436
 C735 C 0.20892 0.88863 0.43353
 C736 C 0.22140 0.87140 0.44945
 C737 C 0.24684 0.86401 0.44402
 C738 C 0.25980 0.87467 0.42391
 H739 H 0.32155 0.93239 0.37928
 H740 H 0.24926 0.94497 0.34104
 H741 H 0.18915 0.89452 0.43712
 H742 H 0.25685 0.85036 0.45571
 H743 H 0.29960 0.90442 0.40820
 H744 H 0.27946 0.86865 0.42014
 C745 C 0.09483 0.38401 0.75165
 C746 C 0.08420 0.36268 0.76383
 C747 C 0.06953 0.34492 0.75024
 C748 C 0.06553 0.34837 0.72466
 C749 C 0.07792 0.36895 0.71300
 N750 N 0.09180 0.38603 0.72659
 C751 C 0.10772 0.40551 0.76487
 N752 N 0.12089 0.42288 0.75095
 C753 C 0.13070 0.44483 0.76067
 C754 C 0.12699 0.45084 0.78588
 C755 C 0.11426 0.43292 0.80090
 C756 C 0.10453 0.41027 0.79049
 H757 H 0.06033 0.32925 0.75995
 H758 H 0.07565 0.37216 0.69325
 H759 H 0.14084 0.45790 0.74853
 H760 H 0.11081 0.43695 0.82040
 H761 H 0.08656 0.35988 0.78360
 H762 H 0.09365 0.39746 0.80224
 C763 C 0.07329 0.61320 0.25325
 C764 C 0.05925 0.63311 0.24197
 C765 C 0.04175 0.64754 0.25627
 C766 C 0.03815 0.64197 0.28157
 C767 C 0.05313 0.62246 0.29214
 N768 N 0.06995 0.60885 0.27796
 C769 C 0.09093 0.59572 0.23957
 N770 N 0.10759 0.58136 0.25327
 C771 C 0.12201 0.56223 0.24327
 C772 C 0.11960 0.55597 0.21802
 C773 C 0.10358 0.57117 0.20307
 C774 C 0.08912 0.59113 0.21379
 H775 H 0.03062 0.66256 0.24746
 H776 H 0.05130 0.61776 0.31165
 H777 H 0.13443 0.55108 0.25531
 H778 H 0.10116 0.56669 0.18352
 H779 H 0.06162 0.63752 0.22248
 H780 H 0.07572 0.60167 0.20227
 C781 C 0.92738 0.40145 0.25622
 C782 C 0.92838 0.37487 0.25239
 C783 C 0.94277 0.35969 0.26879
 C784 C 0.95553 0.37099 0.28914
 C785 C 0.95326 0.39752 0.29260
 N786 N 0.93978 0.41185 0.27614
 C787 C 0.91431 0.41906 0.23898
 N788 N 0.92457 0.44280 0.23616
 C789 C 0.91258 0.46137 0.22297
 C790 C 0.88811 0.45693 0.21246
 C791 C 0.87759 0.43221 0.21412
 C792 C 0.89073 0.41311 0.22731
 H793 H 0.94419 0.33928 0.26541
 H794 H 0.96297 0.40709 0.30787
 H795 H 0.92176 0.47992 0.22155
 H796 H 0.85869 0.42805 0.20637
 H797 H 0.91898 0.36608 0.23651
 H798 H 0.88189 0.39448 0.22952
 C799 C 0.92575 0.59529 0.74331
 C800 C 0.92020 0.62158 0.74424
 C801 C 0.93447 0.63837 0.72933
 C802 C 0.95348 0.62871 0.71312
 C803 C 0.95785 0.60223 0.71241
 N804 N 0.94437 0.58648 0.72758
 C805 C 0.91304 0.57676 0.75971
 N806 N 0.92798 0.55867 0.77073
 C807 C 0.91773 0.53929 0.78418
 C808 C 0.89074 0.53655 0.78626
 C809 C 0.87493 0.55549 0.77555
 C810 C 0.88606 0.57579 0.76243
 H811 H 0.93069 0.65874 0.73039
 H812 H 0.97257 0.59411 0.70037
 H813 H 0.93078 0.52574 0.79276
 H814 H 0.85404 0.55412 0.77640
 H815 H 0.90566 0.62906 0.75685
 H816 H 0.87374 0.58979 0.75348
 C817 C 0.73611 0.60365 0.90428
 C818 C 0.71040 0.59872 0.91114
 C819 C 0.69816 0.61450 0.92838
 C820 C 0.71123 0.63553 0.93887
 C821 C 0.73661 0.64054 0.93064
 N822 N 0.74844 0.62436 0.91420
 C823 C 0.75053 0.58501 0.88876
 N824 N 0.77588 0.58003 0.89394
 C825 C 0.78892 0.56021 0.88310
 C826 C 0.77601 0.54360 0.86671
 C827 C 0.75047 0.54937 0.85995
 C828 C 0.73776 0.57016 0.87072
 H829 H 0.67858 0.60972 0.93392
 H830 H 0.74752 0.65649 0.93814
 H831 H 0.80873 0.55642 0.88855
 H832 H 0.74006 0.53721 0.84701
 H833 H 0.70017 0.58203 0.90432
 H834 H 0.71784 0.57394 0.86566
 C835 C 0.25713 0.40252 0.92793
 C836 C 0.28314 0.40653 0.93433
 C837 C 0.29602 0.38877 0.94904
 C838 C 0.28324 0.36671 0.95754
 C839 C 0.25744 0.36287 0.94990
 N840 N 0.24516 0.38072 0.93571
 C841 C 0.24257 0.42250 0.91419
 N842 N 0.25419 0.44538 0.90960
 C843 C 0.24165 0.46518 0.89866
 C844 C 0.21558 0.46278 0.89176
 C845 C 0.20329 0.43916 0.89554
 C846 C 0.21669 0.41899 0.90685
 H847 H 0.31594 0.39269 0.95410
 H848 H 0.24677 0.34613 0.95576
 H849 H 0.25198 0.48291 0.89565
 H850 H 0.18315 0.43661 0.89050
 H851 H 0.29341 0.42353 0.92847
 H852 H 0.20678 0.40109 0.91020
 C853 C 0.26974 0.61227 0.09064
 C854 C 0.29316 0.60569 0.07899
 C855 C 0.30376 0.62188 0.06123
 C856 C 0.29126 0.64487 0.05486
 C857 C 0.26811 0.65107 0.06741
 N858 N 0.25790 0.63467 0.08443
 C859 C 0.25665 0.59408 0.10756
 N860 N 0.23027 0.59315 0.10804
 C861 C 0.21715 0.57446 0.12034
 C862 C 0.23077 0.55483 0.13234
 C863 C 0.25783 0.55639 0.13346
 C864 C 0.27081 0.57607 0.12134
 H865 H 0.32159 0.61604 0.05220
 H866 H 0.25769 0.66852 0.06319
 H867 H 0.19623 0.57392 0.11922
 H868 H 0.26896 0.54175 0.14287
 H869 H 0.30277 0.58769 0.08266
 H870 H 0.29174 0.57661 0.12210
 C871 C 0.74382 0.38797 0.07662
 C872 C 0.75376 0.36475 0.06724
 C873 C 0.73882 0.35011 0.05075
 C874 C 0.71401 0.35846 0.04356
 C875 C 0.70454 0.38126 0.05419
 N876 N 0.71947 0.39515 0.06997
 C877 C 0.75897 0.40616 0.09213
 N878 N 0.74642 0.42732 0.10086
 C879 C 0.75890 0.44697 0.11221
 C880 C 0.78585 0.44638 0.11482
 C881 C 0.79925 0.42433 0.10731
 C882 C 0.78590 0.40411 0.09591
 H883 H 0.74693 0.33252 0.04333
 H884 H 0.68545 0.38847 0.04966
 H885 H 0.74795 0.46369 0.11792
 H886 H 0.82015 0.42345 0.10884
 H887 H 0.77281 0.35792 0.07218
 H888 H 0.79692 0.38795 0.08910
 C889 C 0.90969 0.73218 0.60701
 C890 C 0.91656 0.70687 0.60109
 C891 C 0.93410 0.69380 0.61598
 C892 C 0.94497 0.70565 0.63707
 C893 C 0.93700 0.73082 0.64279
 N894 N 0.92016 0.74341 0.62760
 C895 C 0.89307 0.74718 0.58995
 N896 N 0.89798 0.77254 0.58631
 C897 C 0.88580 0.78629 0.56824
 C898 C 0.86819 0.77421 0.55217
 C899 C 0.86176 0.74859 0.55661
 C900 C 0.87392 0.73511 0.57557
 H901 H 0.93949 0.67450 0.61059
 H902 H 0.94485 0.74085 0.65877
 H903 H 0.89108 0.80611 0.56541
 H904 H 0.84798 0.73876 0.54476
 H905 H 0.90935 0.69751 0.58448
 H906 H 0.86897 0.71520 0.57835
 C907 C 0.92104 0.26825 0.40109
 C908 C 0.93020 0.25719 0.37882
 C909 C 0.94619 0.27144 0.36304
 C910 C 0.95314 0.29671 0.36928
 C911 C 0.94254 0.30732 0.39114
 N912 N 0.92730 0.29302 0.40620
 C913 C 0.90613 0.25399 0.42026
 N914 N 0.89857 0.26707 0.44102
 C915 C 0.88707 0.25557 0.46072
 C916 C 0.88286 0.22906 0.46061
 C917 C 0.88947 0.21519 0.43909
 C918 C 0.90113 0.22751 0.41891
 H919 H 0.95362 0.26240 0.34632
 H920 H 0.94690 0.32678 0.39676
 H921 H 0.88183 0.26709 0.47675
 H922 H 0.88667 0.19466 0.43832
 H923 H 0.92565 0.23772 0.37360
 H924 H 0.90679 0.21606 0.40305
 C925 C 0.07758 0.24356 0.60700
 C926 C 0.06907 0.26831 0.60148
 C927 C 0.05759 0.28317 0.61992
 C928 C 0.05409 0.27337 0.64401
 C929 C 0.06397 0.24874 0.64906
 N930 N 0.07531 0.23458 0.63063
 C931 C 0.08796 0.22732 0.58685
 N932 N 0.11246 0.21774 0.58818
 C933 C 0.12416 0.20648 0.56817
 C934 C 0.11128 0.20527 0.54516
 C935 C 0.08542 0.21344 0.54408
 C936 C 0.07377 0.22452 0.56481
 H937 H 0.05065 0.30204 0.61493
 H938 H 0.06205 0.24045 0.66738
 H939 H 0.14408 0.20023 0.56974
 H940 H 0.07467 0.21243 0.52681
 H941 H 0.07099 0.27595 0.58287
 H942 H 0.05423 0.23194 0.56336
 C943 C 0.07708 0.73423 0.39175
 C944 C 0.06974 0.70894 0.39683
 C945 C 0.05149 0.69685 0.38185
 C946 C 0.04030 0.70971 0.36161
 C947 C 0.04862 0.73486 0.35676
 N948 N 0.06625 0.74642 0.37196
 C949 C 0.09417 0.74854 0.40902
 N950 N 0.09078 0.77428 0.41184
 C951 C 0.10312 0.78791 0.42994
 C952 C 0.11928 0.77537 0.44691
 C953 C 0.12425 0.74926 0.44350
 C954 C 0.11205 0.73584 0.42438
 H955 H 0.04584 0.67749 0.38654
 H956 H 0.04063 0.74562 0.34141
 H957 H 0.09893 0.80811 0.43214
 H958 H 0.13671 0.73909 0.45630
 H959 H 0.07704 0.69880 0.41286
 H960 H 0.11593 0.71559 0.42229
 C961 C 0.60270 0.94318 0.76236
 C962 C 0.59131 0.95762 0.74338
 C963 C 0.60685 0.96906 0.72550
 C964 C 0.63386 0.96654 0.72658
 C965 C 0.64461 0.95178 0.74580
 N966 N 0.62893 0.94032 0.76289
 C967 C 0.58601 0.93067 0.78097
 N968 N 0.58821 0.90504 0.78513
 C969 C 0.57000 0.89183 0.79819
 C970 C 0.54769 0.90439 0.80695
 C971 C 0.54624 0.93106 0.80457
 C972 C 0.56533 0.94424 0.79164
 H973 H 0.59772 0.98038 0.71113
 H974 H 0.66538 0.94933 0.74719
 H975 H 0.57179 0.87125 0.79976
 H976 H 0.52938 0.94142 0.81121
 H977 H 0.57048 0.95982 0.74223
 H978 H 0.56318 0.96464 0.78870
 C979 C 0.39712 0.90827 0.25664
 C980 C 0.37350 0.91566 0.24574
 C981 C 0.35694 0.93236 0.25861
 C982 C 0.36376 0.94160 0.28229
 C983 C 0.38697 0.93290 0.29286
 N984 N 0.40279 0.91690 0.27994
 C985 C 0.41712 0.89277 0.24356
 N986 N 0.43794 0.88477 0.25700
 C987 C 0.45894 0.87352 0.24640
 C988 C 0.46023 0.87029 0.22053
 C989 C 0.43855 0.87707 0.20630
 C990 C 0.41696 0.88836 0.21769
 H991 H 0.33909 0.93841 0.24985
 H992 H 0.39291 0.93922 0.31119
 H993 H 0.47516 0.86823 0.25805
 H994 H 0.43896 0.87510 0.18624
 H995 H 0.36779 0.90902 0.22750
 H996 H 0.40119 0.89468 0.20605
 C997 C 0.61432 0.08680 0.25496
 C998 C 0.61460 0.08885 0.28102
 C999 C 0.63187 0.07415 0.29476
 C1000 C 0.64927 0.05761 0.28275
 C1001 C 0.64967 0.05730 0.25663
 N1002 N 0.63212 0.07139 0.24355
 C1003 C 0.59334 0.09929 0.24045
 N1004 N 0.57424 0.11198 0.25290
 C1005 C 0.55306 0.12165 0.24138
 C1006 C 0.54979 0.11849 0.21567
 C1007 C 0.56960 0.10640 0.20211
 C1008 C 0.59140 0.09666 0.21446
 H1009 H 0.63104 0.07508 0.31488
 H1010 H 0.66282 0.04475 0.24669
 H1011 H 0.53844 0.13129 0.25243
 H1012 H 0.56773 0.10361 0.18222
 H1013 H 0.60088 0.10090 0.29085
 H1014 H 0.60613 0.08660 0.20391
 C1015 C 0.38390 0.08617 0.73279
 C1016 C 0.36155 0.07570 0.74372
 C1017 C 0.34725 0.05722 0.73072
 C1018 C 0.35510 0.04924 0.70690
 C1019 C 0.37681 0.06104 0.69628
 N1020 N 0.39046 0.07874 0.70932
 C1021 C 0.40183 0.10372 0.74605
 N1022 N 0.42059 0.11549 0.73246
 C1023 C 0.44016 0.12898 0.74307
 C1024 C 0.44218 0.13064 0.76903
 C1025 C 0.42242 0.11984 0.78349
 C1026 C 0.40223 0.10633 0.77211
 H1027 H 0.33046 0.04876 0.73951
 H1028 H 0.38339 0.05580 0.67782
 H1029 H 0.45478 0.13739 0.73125
 H1030 H 0.42346 0.12048 0.80360
 H1031 H 0.35519 0.08134 0.76210
 H1032 H 0.38818 0.09693 0.78380
 C1033 C 0.61838 0.73152 0.08874
 C1034 C 0.61440 0.70527 0.08435
 C1035 C 0.62886 0.69268 0.06616
 C1036 C 0.64739 0.70598 0.05222
 C1037 C 0.65164 0.73191 0.05783
 N1038 N 0.63693 0.74395 0.07540
 C1039 C 0.60065 0.74658 0.10494
 N1040 N 0.59753 0.77203 0.10034
 C1041 C 0.57881 0.78630 0.11165
 C1042 C 0.56137 0.77472 0.12804
 C1043 C 0.56506 0.74900 0.13422
 C1044 C 0.58494 0.73495 0.12305
 H1045 H 0.62493 0.67265 0.06248
 H1046 H 0.66574 0.74289 0.04751
 H1047 H 0.57636 0.80615 0.10645
 H1048 H 0.55180 0.73953 0.14679
 H1049 H 0.59938 0.69466 0.09374
 H1050 H 0.58717 0.71502 0.12794
 C1051 C 0.39088 0.24152 0.07188
 C1052 C 0.36407 0.24040 0.07636
 C1053 C 0.34752 0.25756 0.06407
 C1054 C 0.35786 0.27609 0.04805
 C1055 C 0.38475 0.27658 0.04443
 N1056 N 0.40023 0.25944 0.05603
 C1057 C 0.40982 0.22416 0.08362
 N1058 N 0.43163 0.21824 0.07062
 C1059 C 0.45209 0.20604 0.08105
 C1060 C 0.45195 0.20017 0.10649
 C1061 C 0.42908 0.20473 0.12001
 C1062 C 0.40786 0.21664 0.10858
 H1063 H 0.32683 0.25644 0.06712
 H1064 H 0.39352 0.29020 0.03188
 H1065 H 0.46905 0.20229 0.06976
 H1066 H 0.42822 0.20067 0.13972
 H1067 H 0.35602 0.22617 0.08871
 H1068 H 0.39098 0.22151 0.11958
 C1069 C 0.59579 0.26118 0.91187
 C1070 C 0.61966 0.24990 0.91824
 C1071 C 0.63630 0.26262 0.93469
 C1072 C 0.62931 0.28648 0.94478
 C1073 C 0.60574 0.29738 0.93735
 N1074 N 0.58986 0.28460 0.92151
 C1075 C 0.57579 0.24826 0.89642
 N1076 N 0.55309 0.26096 0.89262
 C1077 C 0.53248 0.25009 0.88105
 C1078 C 0.53372 0.22461 0.87287
 C1079 C 0.55723 0.21141 0.87541
 C1080 C 0.57832 0.22311 0.88715
 H1081 H 0.65440 0.25358 0.93984
 H1082 H 0.59962 0.31585 0.94444
 H1083 H 0.51484 0.26111 0.87903
 H1084 H 0.55888 0.19164 0.86943
 H1085 H 0.62551 0.23140 0.91116
 H1086 H 0.59582 0.21207 0.88953
 C1087 C 0.38485 0.75534 0.91836
 C1088 C 0.38157 0.72899 0.91418
 C1089 C 0.36473 0.71513 0.92916
 C1090 C 0.35072 0.72741 0.94809
 C1091 C 0.35291 0.75410 0.95048
 N1092 N 0.37007 0.76718 0.93606
 C1093 C 0.40613 0.76930 0.90571
 N1094 N 0.42341 0.75576 0.89172
 C1095 C 0.44495 0.76648 0.88183
 C1096 C 0.45050 0.79239 0.88608
 C1097 C 0.43256 0.80714 0.89957
 C1098 C 0.41037 0.79562 0.90953
 H1099 H 0.36347 0.69458 0.92662
 H1100 H 0.34242 0.76424 0.96492
 H1101 H 0.45809 0.75458 0.87113
 H1102 H 0.43623 0.82722 0.90320
 H1103 H 0.39282 0.71885 0.90027
 H1104 H 0.39714 0.80699 0.92065
 C1105 C 0.74683 0.92350 0.39915
 C1106 C 0.76037 0.93224 0.37811
 C1107 C 0.74752 0.94734 0.36050
 C1108 C 0.72128 0.95369 0.36375
 C1109 C 0.70831 0.94369 0.38446
 N1110 N 0.72121 0.92926 0.40132
 C1111 C 0.75907 0.90897 0.41976
 N1112 N 0.74317 0.89886 0.43734
 C1113 C 0.75219 0.88693 0.45795
 C1114 C 0.77890 0.88483 0.46220
 C1115 C 0.79586 0.89446 0.44411
 C1116 C 0.78606 0.90663 0.42291
 H1117 H 0.75826 0.95461 0.34475
 H1118 H 0.68804 0.94786 0.38767
 H1119 H 0.73841 0.87931 0.47115
 H1120 H 0.81661 0.89333 0.44678
 H1121 H 0.78059 0.92784 0.37521
 H1122 H 0.79959 0.91469 0.40979
 C1123 C 0.26543 0.90082 0.60052
 C1124 C 0.29211 0.90569 0.59849
 C1125 C 0.30387 0.92282 0.61482
 C1126 C 0.28933 0.93532 0.63328
 C1127 C 0.26296 0.92924 0.63543
 N1128 N 0.25176 0.91268 0.61900
 C1129 C 0.25135 0.88569 0.58136
 N1130 N 0.22540 0.88954 0.57848
 C1131 C 0.21180 0.87909 0.55928
 C1132 C 0.22459 0.86454 0.54107
 C1133 C 0.25092 0.85915 0.54430
 C1134 C 0.26427 0.86929 0.56459
 H1135 H 0.32428 0.92692 0.61243
 H1136 H 0.25102 0.93848 0.64939
 H1137 H 0.19141 0.88350 0.55737
 H1138 H 0.26128 0.84769 0.53069
 H1139 H 0.30378 0.89757 0.58375
 H1140 H 0.28459 0.86478 0.56652
 C1141 C 0.25228 0.07820 0.38549
 C1142 C 0.24056 0.06691 0.36453
 C1143 C 0.25515 0.05066 0.34914
 C1144 C 0.28128 0.04569 0.35458
 C1145 C 0.29243 0.05822 0.37505
 N1146 N 0.27787 0.07374 0.38975
 C1147 C 0.23799 0.09363 0.40426
 N1148 N 0.25221 0.10630 0.42171
 C1149 C 0.24135 0.11809 0.44166
 C1150 C 0.21455 0.11702 0.44541
 C1151 C 0.19916 0.10523 0.42721
 C1152 C 0.21080 0.09343 0.40657
 H1153 H 0.24584 0.04150 0.33340
 H1154 H 0.31258 0.05527 0.37979
 H1155 H 0.25380 0.12723 0.45525
 H1156 H 0.17840 0.10387 0.42970
 H1157 H 0.22044 0.07022 0.36006
 H1158 H 0.19865 0.08321 0.39354
 C1159 C 0.73562 0.08885 0.60116
 C1160 C 0.71057 0.07992 0.59583
 C1161 C 0.69832 0.06333 0.61222
 C1162 C 0.71082 0.05532 0.63399
 C1163 C 0.73589 0.06460 0.63872
 N1164 N 0.74757 0.08074 0.62233
 C1165 C 0.74984 0.10533 0.58335
 N1166 N 0.77623 0.10445 0.58270
 C1167 C 0.79026 0.11684 0.56498
 C1168 C 0.77759 0.13047 0.54614
 C1169 C 0.75060 0.13281 0.54725
 C1170 C 0.73670 0.12059 0.56595
 H1171 H 0.67906 0.05660 0.60765
 H1172 H 0.74629 0.05884 0.65524
 H1173 H 0.81111 0.11470 0.56468
 H1174 H 0.74024 0.14341 0.53312
 H1175 H 0.70066 0.08495 0.57883
 H1176 H 0.71587 0.12268 0.56629
 C1177 C 0.89592 0.61011 0.26024
 C1178 C 0.89815 0.60726 0.28610
 C1179 C 0.91539 0.62259 0.29931
 C1180 C 0.93012 0.64114 0.28702
 C1181 C 0.92606 0.64471 0.26147
 N1182 N 0.90965 0.62898 0.24878
 C1183 C 0.88162 0.59078 0.24534
 N1184 N 0.87059 0.57052 0.25714
 C1185 C 0.86122 0.54989 0.24469
 C1186 C 0.86345 0.54841 0.21875
 C1187 C 0.87305 0.56971 0.20596
 C1188 C 0.88215 0.59099 0.21920
 H1189 H 0.91771 0.61945 0.31909
 H1190 H 0.93698 0.65895 0.25136
 H1191 H 0.85357 0.53394 0.25515
 H1192 H 0.87519 0.56915 0.18592
 H1193 H 0.88764 0.59252 0.29593
 H1194 H 0.89087 0.60669 0.20915
 C1195 C 0.93770 0.38258 0.76742
 C1196 C 0.93226 0.35622 0.76712
 C1197 C 0.94641 0.34002 0.75122
 C1198 C 0.96523 0.35033 0.73532
 C1199 C 0.96999 0.37671 0.73634
 N1200 N 0.95647 0.39185 0.75222
 C1201 C 0.92350 0.40117 0.78301
 N1202 N 0.93644 0.42233 0.79099
 C1203 C 0.92421 0.44272 0.80137
 C1204 C 0.89709 0.44322 0.80299
 C1205 C 0.88339 0.42099 0.79634
 C1206 C 0.89658 0.39981 0.78642
 H1207 H 0.94239 0.31968 0.75101
 H1208 H 0.98467 0.38530 0.72469
 H1209 H 0.93556 0.45921 0.80685
 H1210 H 0.86244 0.42067 0.79713
 H1211 H 0.91755 0.34825 0.77915
 H1212 H 0.88566 0.38348 0.77978
 C1213 C 0.09141 0.60237 0.73247
 C1214 C 0.08667 0.59836 0.70700
 C1215 C 0.06952 0.61430 0.69443
 C1216 C 0.05684 0.63433 0.70695
 C1217 C 0.06269 0.63835 0.73218
 N1218 N 0.07931 0.62230 0.74419
 C1219 C 0.10694 0.58394 0.74735
 N1220 N 0.10328 0.58297 0.77245
 C1221 C 0.11440 0.56464 0.78689
 C1222 C 0.12956 0.54531 0.77600
 C1223 C 0.13469 0.54663 0.75047
 C1224 C 0.12380 0.56606 0.73616
 H1225 H 0.06559 0.61038 0.67500
 H1226 H 0.05329 0.65353 0.74258
 H1227 H 0.11012 0.56426 0.80660
 H1228 H 0.14661 0.53220 0.74151
 H1229 H 0.09495 0.58241 0.69689
 H1230 H 0.12822 0.56651 0.71653
 C1231 C 0.09372 0.40605 0.27219
 C1232 C 0.08724 0.41140 0.29706
 C1233 C 0.07012 0.39549 0.30961
 C1234 C 0.05922 0.37417 0.29762
 C1235 C 0.06666 0.36899 0.27298
 N1236 N 0.08321 0.38504 0.26095
 C1237 C 0.10932 0.42425 0.25728
 N1238 N 0.10585 0.42504 0.23216
 C1239 C 0.11677 0.44348 0.21776
 C1240 C 0.13146 0.46301 0.22877
 C1241 C 0.13649 0.46184 0.25430
 C1242 C 0.12584 0.44230 0.26856
 H1243 H 0.06492 0.40030 0.32859
 H1244 H 0.05865 0.35278 0.26302
 H1245 H 0.11258 0.44387 0.19804
 H1246 H 0.14790 0.47661 0.26331
 H1247 H 0.09422 0.42830 0.30659
 H1248 H 0.12995 0.44194 0.28827
   
