data_POSCAR
  _audit_creation_date              2014-09-24
  _audit_creation_method            'ToBaCCo'
  _symmetry_space_group_name_H-M    'P1'
  _symmetry_Int_Tables_number       1
  _symmetry_cell_setting            triclinic
  loop_
  _symmetry_equiv_pos_as_xyz
 x,y,z
_cell_length_a 55.7681
_cell_length_b 55.7608
_cell_length_c 49.0451
_cell_angle_alpha 91.187300
_cell_angle_beta 89.386000
_cell_angle_gamma 90.514500
loop_
  _atom_site_label
  _atom_site_type_symbol
  _atom_site_fract_x
  _atom_site_fract_y
  _atom_site_fract_z
C1 C 0.37311 0.02721 0.30167
 C2 C 0.35886 0.04843 0.29160
 C3 C 0.34473 0.04316 0.26977
 C4 C 0.34612 0.01676 0.26000
 C5 C 0.35437 0.00770 0.30720
 C6 C 0.34034 0.00194 0.28544
 C7 C 0.38708 0.01798 0.27648
 C8 C 0.37300 0.01247 0.25465
 H9 H 0.36038 0.06624 0.30070
 H10 H 0.33454 0.01235 0.24229
 H11 H 0.35366 -0.00199 0.32612
 H12 H 0.40638 0.01608 0.27592
 C13 C 0.12439 -0.01847 0.76742
 C14 C 0.13452 -0.04189 0.75576
 C15 C 0.14797 -0.03924 0.73268
 C16 C 0.14963 -0.01313 0.72303
 C17 C 0.14643 -0.00199 0.77100
 C18 C 0.15955 0.00103 0.74777
 C19 C 0.11100 -0.00823 0.74537
 C20 C 0.12478 -0.00522 0.72082
 H21 H 0.13263 -0.05881 0.76609
 H22 H 0.16067 -0.01112 0.70422
 H23 H 0.15012 0.00807 0.78963
 H24 H 0.09236 -0.00311 0.74744
 C25 C 0.62304 0.47872 0.26702
 C26 C 0.63958 0.45823 0.25820
 C27 C 0.65434 0.46352 0.23691
 C28 C 0.65109 0.48888 0.22593
 C29 C 0.63998 0.49995 0.27250
 C30 C 0.65470 0.50532 0.25114
 C31 C 0.60956 0.48525 0.24125
 C32 C 0.62413 0.49087 0.21976
 H33 H 0.64067 0.44149 0.26892
 H34 H 0.66319 0.49302 0.20849
 H35 H 0.64015 0.50985 0.29174
 H36 H 0.59020 0.48642 0.24063
 C37 C 0.87469 0.52605 0.80211
 C38 C 0.86010 0.54715 0.79239
 C39 C 0.84582 0.54185 0.77071
 C40 C 0.84742 0.51553 0.76071
 C41 C 0.85623 0.50628 0.80772
 C42 C 0.84206 0.50050 0.78609
 C43 C 0.88852 0.51712 0.77669
 C44 C 0.87429 0.51155 0.75502
 H45 H 0.86149 0.56492 0.80162
 H46 H 0.83571 0.51111 0.74312
 H47 H 0.85581 0.49648 0.82657
 H48 H 0.90783 0.51533 0.77591
 C49 C 0.28255 0.41926 0.98819
 C50 C 0.27558 0.40325 1.01220
 C51 C 0.25731 0.38754 1.00661
 C52 C 0.24796 0.38904 0.97734
 C53 C 0.28816 0.40181 0.96471
 C54 C 0.27030 0.38590 0.95892
 C55 C 0.25911 0.43131 0.98036
 C56 C 0.24080 0.41555 0.97506
 H57 H 0.28332 0.40527 1.03228
 H58 H 0.23327 0.37611 0.97255
 H59 H 0.30528 0.40178 0.95404
 H60 H 0.25662 0.45053 0.98200
 C61 C 0.76246 0.06665 0.97756
 C62 C 0.75564 0.08339 0.95451
 C63 C 0.73928 0.10034 0.96216
 C64 C 0.73118 0.09877 0.99223
 C65 C 0.77090 0.08349 1.00061
 C66 C 0.75464 0.10029 1.00851
 C67 C 0.74000 0.05647 0.98711
 C68 C 0.72260 0.07408 0.99506
 H69 H 0.76314 0.08199 0.93408
 H70 H 0.71799 0.11270 0.99847
 H71 H 0.78826 0.08187 1.01010
 H72 H 0.73631 0.03735 0.98680
 C73 C 0.26306 0.56491 0.47848
 C74 C 0.25649 0.58231 0.45602
 C75 C 0.23980 0.59883 0.46384
 C76 C 0.23106 0.59633 0.49351
 C77 C 0.27058 0.58099 0.50255
 C78 C 0.25400 0.59738 0.51059
 C79 C 0.23917 0.55365 0.48729
 C80 C 0.22228 0.57008 0.49503
 H81 H 0.26441 0.58162 0.43577
 H82 H 0.21745 0.60977 0.49992
 H83 H 0.28772 0.57926 0.51251
 H84 H 0.23566 0.53452 0.48616
 C85 C 0.77765 0.92217 0.49507
 C86 C 0.77032 0.90657 0.51929
 C87 C 0.75260 0.89030 0.51346
 C88 C 0.74408 0.89091 0.48378
 C89 C 0.78433 0.90435 0.47234
 C90 C 0.76702 0.88791 0.46630
 C91 C 0.75422 0.93347 0.48595
 C92 C 0.73643 0.91717 0.48041
 H93 H 0.77751 0.90915 0.53957
 H94 H 0.72984 0.87754 0.47881
 H95 H 0.80171 0.90459 0.46223
 H96 H 0.75127 0.95264 0.48692
 C97 C -0.00947 0.28070 0.38983
 C98 C 0.01120 0.28302 0.36923
 C99 C 0.01391 0.26358 0.35212
 C100 C -0.00478 0.24342 0.35732
 C101 C -0.03043 0.27541 0.37367
 C102 C -0.02815 0.25511 0.35561
 C103 C -0.00429 0.25744 0.40477
 C104 C -0.00174 0.23779 0.38793
 H105 H 0.02310 0.29848 0.36895
 H106 H -0.00268 0.22754 0.34349
 H107 H -0.04654 0.28613 0.37519
 H108 H -0.00241 0.25670 0.42668
 C109 C 0.01511 0.77145 0.11181
 C110 C -0.00545 0.77287 0.13256
 C111 C -0.00640 0.75443 0.15029
 C112 C 0.01381 0.73603 0.14573
 C113 C 0.03764 0.76938 0.12888
 C114 C 0.03716 0.75111 0.14685
 C115 C 0.01220 0.74679 0.09779
 C116 C 0.01151 0.72815 0.11543
 H117 H -0.01883 0.78684 0.13226
 H118 H 0.01325 0.72104 0.16028
 H119 H 0.05262 0.78178 0.12701
 H120 H 0.01075 0.74436 0.07591
 C121 C 0.51556 0.27667 0.61162
 C122 C 0.49408 0.27734 0.63118
 C123 C 0.49273 0.25860 0.64849
 C124 C 0.51348 0.24068 0.64473
 C125 C 0.53731 0.27480 0.62996
 C126 C 0.53646 0.25619 0.64745
 C127 C 0.51375 0.25214 0.59697
 C128 C 0.51261 0.23320 0.61422
 H129 H 0.48047 0.29105 0.63039
 H130 H 0.51262 0.22547 0.65898
 H131 H 0.55225 0.28732 0.62895
 H132 H 0.51306 0.25001 0.57501
 C133 C 0.49204 0.78155 0.89435
 C134 C 0.51243 0.78409 0.87340
 C135 C 0.51506 0.76475 0.85615
 C136 C 0.49661 0.74445 0.86158
 C137 C 0.46982 0.77614 0.87726
 C138 C 0.47194 0.75685 0.85990
 C139 C 0.49689 0.75942 0.90829
 C140 C 0.49954 0.73891 0.89046
 H141 H 0.52424 0.79962 0.87300
 H142 H 0.49848 0.72879 0.84738
 H143 H 0.45380 0.78696 0.87880
 H144 H 0.49888 0.75852 0.93018
 C145 C -0.22394 0.62252 0.95034
 C146 C -0.20267 0.60778 0.95969
 C147 C -0.20773 0.59352 0.98128
 C148 C -0.23392 0.59524 0.99148
 C149 C -0.24377 0.60406 0.94465
 C150 C -0.24930 0.58991 0.96614
 C151 C -0.23236 0.63633 0.97596
 C152 C -0.23769 0.62214 0.99751
 H153 H -0.18498 0.60902 0.95048
 H154 H -0.23815 0.58355 1.00897
 H155 H -0.25368 0.60349 0.92576
 H156 H -0.23391 0.65568 0.97681
 C157 C -0.26966 0.37073 0.48529
 C158 C -0.29243 0.38237 0.49688
 C159 C -0.28851 0.39740 0.51864
 C160 C -0.26199 0.39900 0.52720
 C161 C -0.25282 0.39186 0.47922
 C162 C -0.24850 0.40659 0.50115
 C163 C -0.25907 0.35876 0.50811
 C164 C -0.25473 0.37417 0.53127
 H165 H -0.30988 0.38014 0.48765
 H166 H -0.25895 0.41127 0.54498
 H167 H -0.24383 0.39389 0.45969
 H168 H -0.25493 0.33980 0.50763
 C169 C 0.22958 -0.12669 -0.01659
 C170 C 0.20912 -0.10978 -0.00858
 C171 C 0.21417 -0.09491 0.01296
 C172 C 0.23929 -0.09850 0.02487
 C173 C 0.25103 -0.10992 -0.02145
 C174 C 0.25618 -0.09508 0.00016
 C175 C 0.23511 -0.13940 0.00801
 C176 C 0.24083 -0.12404 0.03083
 H177 H 0.19255 -0.10868 -0.01980
 H178 H 0.24319 -0.08617 0.04237
 H179 H 0.26119 -0.10992 -0.04041
 H180 H 0.23595 -0.15879 0.00862
 C181 C 0.27095 1.11682 0.44148
 C182 C 0.29263 1.10368 0.45229
 C183 C 0.28799 1.09089 0.47512
 C184 C 0.26173 1.09229 0.48500
 C185 C 0.25174 1.09726 0.43740
 C186 C 0.24664 1.08459 0.46020
 C187 C 0.26173 1.13208 0.46571
 C188 C 0.25693 1.11930 0.48854
 H189 H 0.31026 1.10497 0.44292
 H190 H 0.25789 1.08173 0.50351
 H191 H 0.24149 1.09515 0.41887
 H192 H 0.25939 1.15131 0.46479
 C193 C 0.17057 0.53357 0.25922
 C194 C 0.15478 0.52602 0.23494
 C195 C 0.13924 0.50766 0.24043
 C196 C 0.14065 0.49886 0.26985
 C197 C 0.15291 0.53939 0.28231
 C198 C 0.13716 0.52146 0.28797
 C199 C 0.18280 0.51039 0.26753
 C200 C 0.16720 0.49201 0.27272
 H201 H 0.15688 0.53341 0.21481
 H202 H 0.12785 0.48412 0.27455
 H203 H 0.15264 0.55668 0.29282
 H204 H 0.20204 0.50806 0.26624
 C205 C -0.18368 1.01242 0.26654
 C206 C -0.16715 1.00610 0.29009
 C207 C -0.15012 0.98962 0.28310
 C208 C -0.15136 0.98094 0.25308
 C209 C -0.16666 1.02045 0.24379
 C210 C -0.14977 1.00410 0.23649
 C211 C -0.19371 0.98974 0.25706
 C212 C -0.17600 0.97220 0.24987
 H213 H -0.16892 1.01380 0.31045
 H214 H -0.13735 0.96769 0.24735
 H215 H -0.16830 1.03759 0.23398
 H216 H -0.21280 0.98594 0.25724
 C217 C 0.31596 0.51226 -0.23140
 C218 C 0.33310 0.50521 -0.20877
 C219 C 0.34964 0.48861 -0.21678
 C220 C 0.34743 0.48045 -0.24681
 C221 C 0.33228 0.52021 -0.25480
 C222 C 0.34870 0.50373 -0.26304
 C223 C 0.30475 0.48857 -0.24133
 C224 C 0.32120 0.47178 -0.24927
 H225 H 0.33221 0.51274 -0.18826
 H226 H 0.36089 0.46690 -0.25338
 H227 H 0.33066 0.53754 -0.26419
 H228 H 0.28562 0.48506 -0.24065
 C229 C 0.67189 0.03260 -0.24041
 C230 C 0.65553 0.02508 -0.26417
 C231 C 0.63988 0.00697 -0.25813
 C232 C 0.64182 -0.00172 -0.22871
 C233 C 0.65478 0.03876 -0.21690
 C234 C 0.63895 0.02104 -0.21068
 C235 C 0.68405 0.00935 -0.23223
 C236 C 0.66836 -0.00882 -0.22647
 H237 H 0.65716 0.03246 -0.28435
 H238 H 0.62896 -0.01629 -0.22357
 H239 H 0.65490 0.05612 -0.20656
 H240 H 0.70325 0.00683 -0.23389
 C241 C 0.03244 0.23939 0.85580
 C242 C 0.03537 0.25951 0.87731
 C243 C 0.01619 0.26207 0.89464
 C244 C -0.00430 0.24384 0.88875
 C245 C 0.02703 0.21699 0.87226
 C246 C 0.00792 0.21903 0.88969
 C247 C 0.01020 0.24461 0.84208
 C248 C -0.01009 0.24721 0.86000
 H249 H 0.05095 0.27124 0.87795
 H250 H -0.01982 0.24564 0.90300
 H251 H 0.03769 0.20089 0.87024
 H252 H 0.00909 0.24701 0.82028
 C253 C 0.52357 0.26897 0.14217
 C254 C 0.52548 0.24766 0.12219
 C255 C 0.50713 0.24566 0.10418
 C256 C 0.48842 0.26577 0.10752
 C257 C 0.52133 0.29076 0.12399
 C258 C 0.50317 0.28928 0.10571
 C259 C 0.49887 0.26627 0.15569
 C260 C 0.48036 0.26456 0.13774
 H261 H 0.53974 0.23465 0.12317
 H262 H 0.47353 0.26440 0.09271
 H263 H 0.53339 0.30605 0.12529
 H264 H 0.49641 0.26561 0.17760
 C265 C 0.02352 0.76572 0.64029
 C266 C 0.02488 0.74412 0.62064
 C267 C 0.00619 0.74210 0.60305
 C268 C -0.01229 0.76241 0.60653
 C269 C 0.02116 0.78726 0.62175
 C270 C 0.00262 0.78573 0.60399
 C271 C -0.00098 0.76343 0.65442
 C272 C -0.01982 0.76166 0.63692
 H273 H 0.03912 0.73106 0.62139
 H274 H -0.02745 0.76102 0.59207
 H275 H 0.03321 0.80259 0.62265
 H276 H -0.00307 0.76307 0.67639
 C277 C 0.53313 0.74391 0.35913
 C278 C 0.53540 0.76443 0.38016
 C279 C 0.51602 0.76698 0.39714
 C280 C 0.49590 0.74836 0.39148
 C281 C 0.52769 0.72173 0.37587
 C282 C 0.50838 0.72377 0.39296
 C283 C 0.50976 0.74887 0.34420
 C284 C 0.49020 0.75132 0.36094
 H285 H 0.55082 0.77637 0.38084
 H286 H 0.48008 0.75020 0.40527
 H287 H 0.53852 0.70572 0.37428
 H288 H 0.50890 0.75084 0.32232
 B289 B -0.02228 0.01048 1.02950
 B290 B -0.03274 0.00312 0.99851
 B291 B -0.01315 0.02592 1.00226
 B292 B 0.00680 0.01887 1.02651
 B293 B -0.00091 -0.00906 1.03761
 B294 B -0.02574 -0.01865 1.02027
 B295 B 0.01063 -0.01283 0.98351
 B296 B 0.02118 -0.00555 1.01439
 B297 B 0.00143 -0.02818 1.01063
 B298 B -0.01833 -0.02117 0.98649
 B299 B -0.01064 0.00671 0.97531
 B300 B 0.01420 0.01632 0.99266
 B301 B 0.47949 0.51448 0.53197
 B302 B 0.47004 0.50817 0.50030
 B303 B 0.48874 0.53143 0.50599
 B304 B 0.50834 0.52394 0.53048
 B305 B 0.50129 0.49527 0.53967
 B306 B 0.47730 0.48567 0.52099
 B307 B 0.51427 0.49432 0.48586
 B308 B 0.52388 0.50064 0.51746
 B309 B 0.50510 0.47751 0.51175
 B310 B 0.48559 0.48494 0.48742
 B311 B 0.49257 0.51352 0.47810
 B312 B 0.51664 0.52318 0.49682
 B313 B 0.51269 0.97380 0.55296
 B314 B 0.52548 0.98011 0.52273
 B315 B 0.50177 0.96146 0.52422
 B316 B 0.48274 0.97134 0.54893
 B317 B 0.49519 0.99689 0.56284
 B318 B 0.52201 1.00207 0.54666
 B319 B 0.48663 1.00485 0.50915
 B320 B 0.47376 0.99854 0.53918
 B321 B 0.49755 1.01713 0.53780
 B322 B 0.51652 1.00724 0.51311
 B323 B 0.50395 0.98178 0.49915
 B324 B 0.47725 0.97664 0.51535
 B325 B 0.01636 0.46944 1.04939
 B326 B 0.02935 0.47751 1.01993
 B327 B 0.00631 0.45801 1.01975
 B328 B -0.01346 0.46608 1.04457
 B329 B -0.00215 0.49145 1.06015
 B330 B 0.02471 0.49829 1.04490
 B331 B -0.01016 0.50145 1.00684
 B332 B -0.02328 0.49335 1.03615
 B333 B -0.00015 0.51283 1.03635
 B334 B 0.01957 0.50473 1.01162
 B335 B 0.00818 0.47955 0.99598
 B336 B -0.01858 0.47261 1.01119
 B337 B -0.00927 0.52095 0.47819
 B338 B 0.00529 0.51591 0.50719
 B339 B -0.01609 0.53682 0.50652
 B340 B -0.03822 0.52711 0.48569
 B341 B -0.03014 0.49935 0.47356
 B342 B -0.00284 0.49264 0.48678
 B343 B -0.03474 0.49709 0.52891
 B344 B -0.04939 0.50216 0.50000
 B345 B -0.02789 0.48128 0.50058
 B346 B -0.00581 0.49105 0.52139
 B347 B -0.01400 0.51870 0.53363
 B348 B -0.04126 0.52548 0.52038
 B349 B 0.49450 0.02380 -0.01867
 B350 B 0.50846 0.01844 0.01062
 B351 B 0.48706 0.03930 0.00973
 B352 B 0.46540 0.02983 -0.01178
 B353 B 0.47379 0.00226 -0.02418
 B354 B 0.50081 -0.00461 -0.01038
 B355 B 0.46807 -0.00080 0.03100
 B356 B 0.45401 0.00470 0.00180
 B357 B 0.47549 -0.01621 0.00258
 B358 B 0.49714 -0.00667 0.02410
 B359 B 0.48867 0.02083 0.03659
 B360 B 0.46170 0.02774 0.02279
 B361 B 0.50189 0.49185 -0.04604
 B362 B 0.48789 0.50054 -0.01712
 B363 B 0.50780 0.47818 -0.01698
 B364 B 0.53038 0.48456 -0.03909
 B365 B 0.52394 0.51163 -0.05285
 B366 B 0.49728 0.52128 -0.03926
 B367 B 0.52933 0.51838 0.00212
 B368 B 0.54326 0.50992 -0.02689
 B369 B 0.52317 0.53219 -0.02701
 B370 B 0.50078 0.52570 -0.00488
 B371 B 0.50726 0.49860 0.00884
 B372 B 0.53384 0.48893 -0.00478
 B373 B -0.00340 0.99158 0.46065
 B374 B -0.01694 1.00127 0.48941
 B375 B 0.00255 0.97860 0.49012
 B376 B 0.02501 0.98391 0.46758
 B377 B 0.01900 1.01067 0.45291
 B378 B -0.00735 1.02122 0.46639
 B379 B 0.02497 1.01887 0.50758
 B380 B 0.03849 1.00931 0.47873
 B381 B 0.01886 1.03195 0.47798
 B382 B -0.00349 1.02654 0.50056
 B383 B 0.00257 0.99975 0.51523
 B384 B 0.02885 0.98915 0.50171
 B385 B 0.76364 0.22935 0.21571
 B386 B 0.75704 0.21765 0.24619
 B387 B 0.78011 0.23701 0.24291
 B388 B 0.77254 0.25814 0.22029
 B389 B 0.74412 0.25136 0.20970
 B390 B 0.73473 0.22599 0.22562
 B391 B 0.74244 0.26062 0.26455
 B392 B 0.74877 0.27238 0.23419
 B393 B 0.72600 0.25288 0.23740
 B394 B 0.73351 0.23194 0.25992
 B395 B 0.76188 0.23876 0.27061
 B396 B 0.77130 0.26415 0.25457
 B397 B 0.72227 0.76572 0.70335
 B398 B 0.73044 0.77898 0.73286
 B399 B 0.71097 0.75591 0.73292
 B400 B 0.71897 0.73595 0.70814
 B401 B 0.74425 0.74716 0.69271
 B402 B 0.75112 0.77415 0.70801
 B403 B 0.75447 0.73960 0.74611
 B404 B 0.74627 0.72624 0.71672
 B405 B 0.76573 0.74937 0.71665
 B406 B 0.75771 0.76930 0.74134
 B407 B 0.73259 0.75802 0.75681
 B408 B 0.72563 0.73111 0.74155
 B409 B 0.27045 0.24089 0.76544
 B410 B 0.26561 0.25540 0.73647
 B411 B 0.28650 0.23405 0.73736
 B412 B 0.27671 0.21195 0.75775
 B413 B 0.24887 0.21999 0.76944
 B414 B 0.24222 0.24728 0.75637
 B415 B 0.24695 0.21535 0.71397
 B416 B 0.25189 0.20073 0.74283
 B417 B 0.23097 0.22217 0.74210
 B418 B 0.24083 0.24427 0.72169
 B419 B 0.26856 0.23610 0.70990
 B420 B 0.27530 0.20887 0.72300
 B421 B 0.24274 0.75312 0.29556
 B422 B 0.25104 0.73933 0.26630
 B423 B 0.22845 0.75898 0.26680
 B424 B 0.23496 0.78155 0.28918
 B425 B 0.26237 0.77538 0.30247
 B426 B 0.27209 0.74888 0.28830
 B427 B 0.26800 0.78107 0.24752
 B428 B 0.25993 0.79479 0.27688
 B429 B 0.28244 0.77496 0.27636
 B430 B 0.27580 0.75257 0.25394
 B431 B 0.24837 0.75878 0.24070
 B432 B 0.23863 0.78520 0.25489
 B433 B 0.26275 0.72725 0.71823
 B434 B 0.25668 0.71811 0.74989
 B435 B 0.27978 0.73690 0.74426
 B436 B 0.27204 0.75616 0.71968
 B437 B 0.24337 0.74881 0.71038
 B438 B 0.23402 0.72499 0.72910
 B439 B 0.24264 0.76241 0.76416
 B440 B 0.24871 0.77169 0.73254
 B441 B 0.22573 0.75283 0.73820
 B442 B 0.23343 0.73365 0.76264
 B443 B 0.26201 0.74091 0.77206
 B444 B 0.27142 0.76483 0.75331
 B445 B 0.22191 0.26693 0.19958
 B446 B 0.22961 0.28018 0.22929
 B447 B 0.21005 0.25713 0.22891
 B448 B 0.21845 0.23717 0.20430
 B449 B 0.24400 0.24832 0.18945
 B450 B 0.25068 0.27530 0.20492
 B451 B 0.25325 0.24073 0.24311
 B452 B 0.24553 0.22737 0.21351
 B453 B 0.26506 0.25045 0.21386
 B454 B 0.25670 0.27037 0.23838
 B455 B 0.23122 0.25923 0.25329
 B456 B 0.22447 0.23231 0.23789
 B457 B 0.77375 0.74356 0.27302
 B458 B 0.76875 0.75716 0.24348
 B459 B 0.78945 0.73567 0.24502
 B460 B 0.77968 0.71434 0.26642
 B461 B 0.75206 0.72304 0.27814
 B462 B 0.74547 0.74992 0.26401
 B463 B 0.74948 0.71659 0.22291
 B464 B 0.75464 0.70289 0.25232
 B465 B 0.73386 0.72445 0.25093
 B466 B 0.74371 0.74578 0.22949
 B467 B 0.77125 0.73701 0.21770
 B468 B 0.77789 0.71020 0.23182
 B469 B 0.74344 0.25172 0.79178
 B470 B 0.75273 0.23803 0.76289
 B471 B 0.73038 0.25791 0.76234
 B472 B 0.73621 0.28027 0.78520
 B473 B 0.76297 0.27378 0.79986
 B474 B 0.77297 0.24727 0.78606
 B475 B 0.77089 0.27966 0.74529
 B476 B 0.76177 0.29332 0.77428
 B477 B 0.78406 0.27329 0.77480
 B478 B 0.77812 0.25105 0.75195
 B479 B 0.75136 0.25759 0.73729
 B480 B 0.74130 0.28406 0.75112
 N481 N 0.38995 1.04496 0.37230
 C482 C 0.41395 1.04130 0.37205
 N483 N 0.42482 1.03370 0.34863
 N484 N 0.41208 1.02984 0.32613
 C485 C 0.38800 1.03325 0.32633
 N486 N 0.37721 1.04111 0.34979
 C487 C 0.42703 1.04201 0.39701
 C488 C 0.43779 1.04057 0.41805
 C489 C 0.45012 1.03618 0.44286
 N490 N 0.47442 1.03604 0.44328
 N491 N 0.48589 1.02770 0.46477
 C492 C 0.47343 1.01914 0.48649
 N493 N 0.44911 1.01967 0.48611
 N494 N 0.43765 1.02804 0.46469
 N495 N -0.07319 0.53320 0.84834
 C496 C -0.08394 0.54047 0.87196
 N497 N -0.10799 0.54366 0.87259
 N498 N -0.12092 0.53970 0.85025
 C499 C -0.11026 0.53217 0.82658
 N500 N -0.08611 0.52922 0.82600
 C501 C -0.07062 0.54110 0.89673
 C502 C -0.05965 0.53945 0.91757
 C503 C -0.04702 0.53466 0.94207
 N504 N -0.05931 0.52663 0.96407
 N505 N -0.04771 0.51765 0.98505
 C506 C -0.02342 0.51635 0.98477
 N507 N -0.01113 0.52483 0.96289
 N508 N -0.02274 0.53378 0.94185
 N509 N 0.10574 -0.01628 0.84036
 C510 C 0.08617 -0.03079 0.84047
 N511 N 0.07853 -0.04084 0.81664
 N512 N 0.09039 -0.03669 0.79343
 C513 C 0.11011 -0.02216 0.79328
 N514 N 0.11754 -0.01213 0.81723
 C515 C 0.07329 -0.03418 0.86547
 C516 C 0.06308 -0.03513 0.88715
 C517 C 0.05132 -0.03368 0.91317
 N518 N 0.02839 -0.04148 0.91622
 N519 N 0.01619 -0.03643 0.93908
 C520 C 0.02649 -0.02339 0.95959
 N521 N 0.04958 -0.01595 0.95659
 N522 N 0.06179 -0.02105 0.93379
 N523 N 0.59866 0.45160 0.33020
 C524 C 0.58305 0.46862 0.33900
 N525 N 0.57947 0.48809 0.32353
 N526 N 0.59136 0.49067 0.30010
 C527 C 0.60725 0.47383 0.29131
 N528 N 0.61054 0.45416 0.30672
 C529 C 0.57260 0.46775 0.36570
 C530 C 0.56413 0.46905 0.38831
 C531 C 0.55408 0.47322 0.41489
 N532 N 0.53718 0.45825 0.42529
 N533 N 0.52571 0.46408 0.44844
 C534 C 0.53081 0.48503 0.46189
 N535 N 0.54791 0.49978 0.45151
 N536 N 0.55940 0.49394 0.42846
 N537 N 0.58211 0.51188 0.16803
 C538 C 0.59714 0.51848 0.14760
 N539 N 0.62111 0.51573 0.15063
 N540 N 0.62975 0.50688 0.17357
 C541 C 0.61471 0.50026 0.19411
 N542 N 0.59074 0.50304 0.19090
 C543 C 0.58746 0.52623 0.12227
 C544 C 0.57844 0.53115 0.10089
 C545 C 0.56685 0.53445 0.07527
 N546 N 0.57913 0.53041 0.05167
 N547 N 0.56752 0.52791 0.02818
 C548 C 0.54325 0.52937 0.02738
 N549 N 0.53109 0.53425 0.05096
 N550 N 0.54268 0.53674 0.07449
 N551 N 0.08248 1.02042 0.67432
 C552 C 0.09607 1.02277 0.65144
 N553 N 0.11934 1.01595 0.65176
 N554 N 0.12875 1.00715 0.67430
 C555 C 0.11517 1.00463 0.69727
 N556 N 0.09188 1.01162 0.69683
 C557 C 0.08522 1.02983 0.62644
 C558 C 0.07556 1.03407 0.60520
 C559 C 0.06353 1.03655 0.57968
 N560 N 0.07548 1.03190 0.55598
 N561 N 0.06356 1.02883 0.53277
 C562 C 0.03928 1.03030 0.53233
 N563 N 0.02744 1.03576 0.55599
 N564 N 0.03935 1.03882 0.57924
 N565 N -0.08321 0.49172 0.70119
 C566 C -0.09795 0.48745 0.67983
 N567 N -0.12186 0.49079 0.68320
 N568 N -0.13077 0.49811 0.70726
 C569 C -0.11604 0.50255 0.72868
 N570 N -0.09211 0.49905 0.72522
 C571 C -0.08802 0.48225 0.65330
 C572 C -0.07936 0.47965 0.63084
 C573 C -0.06893 0.47905 0.60402
 N574 N -0.08207 0.48611 0.58261
 N575 N -0.07160 0.49000 0.55858
 C576 C -0.04764 0.48691 0.55502
 N577 N -0.03458 0.47940 0.57640
 N578 N -0.04505 0.47555 0.60050
 N579 N 0.41591 -0.00775 0.20145
 C580 C 0.40145 -0.01153 0.17973
 N581 N 0.37756 -0.00776 0.18266
 N582 N 0.36842 -0.00050 0.20663
 C583 C 0.38288 0.00345 0.22841
 N584 N 0.40678 -0.00048 0.22538
 C585 C 0.41176 -0.01669 0.15337
 C586 C 0.42100 -0.01930 0.13120
 C587 C 0.43247 -0.01995 0.10489
 N588 N 0.41961 -0.01541 0.08233
 N589 N 0.43068 -0.01131 0.05868
 C590 C 0.45497 -0.01157 0.05670
 N591 N 0.46778 -0.01669 0.07922
 N592 N 0.45672 -0.02079 0.10291
 N593 N 0.33727 0.44735 0.01787
 C594 C 0.34432 0.46224 -0.00225
 N595 N 0.33036 0.46428 -0.02451
 N596 N 0.31012 0.45158 -0.02677
 C597 C 0.30315 0.43635 -0.00687
 N598 N 0.31701 0.43465 0.01562
 C599 C 0.36782 0.47280 -0.00197
 C600 C 0.38812 0.48029 -0.00292
 C601 C 0.41270 0.48766 -0.00539
 N602 N 0.42820 0.48412 0.01523
 N603 N 0.45154 0.48857 0.01180
 C604 C 0.46019 0.49638 -0.01247
 N605 N 0.44453 0.50036 -0.03286
 N606 N 0.42120 0.49593 -0.02943
 N607 N -0.17481 0.96742 0.48245
 C608 C -0.16108 0.96568 0.50494
 N609 N -0.16837 0.95113 0.52526
 N610 N -0.18860 0.93840 0.52297
 C611 C -0.20220 0.93974 0.50024
 N612 N -0.19503 0.95469 0.48015
 C613 C -0.13743 0.97589 0.50516
 C614 C -0.11697 0.98293 0.50424
 C615 C -0.09221 0.98966 0.50196
 N616 N -0.08408 1.00124 0.47962
 N617 N -0.06069 1.00524 0.47601
 C618 C -0.04463 0.99756 0.49445
 N619 N -0.05288 0.98628 0.51700
 N620 N -0.07627 0.98227 0.52062
 N621 N -0.19161 0.02068 0.98717
 C622 C -0.17640 0.02488 0.96605
 N623 N -0.18275 0.04063 0.94681
 N624 N -0.20339 0.05234 0.94904
 C625 C -0.21837 0.04875 0.97062
 N626 N -0.21223 0.03239 0.98941
 C627 C -0.15199 0.01768 0.96784
 C628 C -0.13110 0.01382 0.97122
 C629 C -0.10624 0.01125 0.97703
 N630 N -0.09420 0.02951 0.98958
 N631 N -0.07127 0.02714 0.99610
 C632 C -0.05962 0.00638 0.99030
 N633 N -0.07175 -0.01188 0.97770
 N634 N -0.09471 -0.00952 0.97118
 N635 N 0.31022 0.52016 0.48773
 C636 C 0.32563 0.52535 0.46710
 N637 N 0.31901 0.54122 0.44812
 N638 N 0.29793 0.55215 0.45019
 C639 C 0.28274 0.54762 0.47134
 N640 N 0.28913 0.53108 0.48981
 C641 C 0.35030 0.51900 0.46918
 C642 C 0.37134 0.51587 0.47267
 C643 C 0.39631 0.51414 0.47851
 N644 N 0.40743 0.53223 0.49242
 N645 N 0.43046 0.53060 0.49889
 C646 C 0.44315 0.51081 0.49163
 N647 N 0.43195 0.49272 0.47762
 N648 N 0.40889 0.49434 0.47115
 N649 N 0.16720 0.53426 0.50560
 C650 C 0.15070 0.55154 0.51058
 N651 N 0.15781 0.57485 0.51123
 N652 N 0.18073 0.58070 0.50689
 C653 C 0.19730 0.56345 0.50168
 N654 N 0.19011 0.54011 0.50126
 C655 C 0.12580 0.54533 0.51298
 C656 C 0.10485 0.53996 0.51386
 C657 C 0.07998 0.53336 0.51357
 N658 N 0.06343 0.54695 0.52701
 N659 N 0.04020 0.54136 0.52545
 C660 C 0.03275 0.52209 0.51032
 N661 N 0.04941 0.50844 0.49709
 N662 N 0.07262 0.51400 0.49865
 N663 N 0.65986 0.07927 0.01360
 C664 C 0.65298 0.05592 0.01407
 N665 N 0.66945 0.03866 0.00896
 N666 N 0.69212 0.04458 0.00339
 C667 C 0.69912 0.06796 0.00257
 N668 N 0.68255 0.08519 0.00803
 C669 C 0.62823 0.04952 0.01737
 C670 C 0.60741 0.04384 0.01876
 C671 C 0.58268 0.03680 0.01879
 N672 N 0.57598 0.01569 0.00687
 N673 N 0.55288 0.00979 0.00495
 C674 C 0.53570 0.02483 0.01481
 N675 N 0.54250 0.04587 0.02697
 N676 N 0.56562 0.05179 0.02888
 N677 N 0.68198 0.95415 0.47957
 C678 C 0.66439 0.93727 0.48072
 N679 N 0.67042 0.91377 0.48011
 N680 N 0.69337 0.90736 0.47877
 C681 C 0.71109 0.92422 0.47806
 N682 N 0.70492 0.94774 0.47825
 C683 C 0.63998 0.94425 0.48546
 C684 C 0.61976 0.95039 0.49075
 C685 C 0.59605 0.95799 0.49830
 N686 N 0.57650 0.94794 0.48629
 N687 N 0.55454 0.95474 0.49393
 C688 C 0.55139 0.97164 0.51397
 N689 N 0.57103 0.98182 0.52571
 N690 N 0.59298 0.97505 0.51808
 N691 N 0.18705 0.45361 0.97779
 C692 C 0.16917 0.43700 0.97848
 N693 N 0.17475 0.41342 0.97648
 N694 N 0.19755 0.40664 0.97423
 C695 C 0.21556 0.42320 0.97392
 N696 N 0.20984 0.44683 0.97555
 C697 C 0.14489 0.44421 0.98368
 C698 C 0.12464 0.45023 0.98903
 C699 C 0.10070 0.45732 0.99626
 N700 N 0.08164 0.44392 0.98796
 N701 N 0.05946 0.45019 0.99531
 C702 C 0.05559 0.46997 1.01131
 N703 N 0.07474 0.48338 1.01951
 N704 N 0.09693 0.47713 1.01216
 N705 N -0.01636 0.32162 0.45071
 C706 C -0.02029 0.34297 0.43884
 N707 N -0.02023 0.34403 0.41127
 N708 N -0.01652 0.32438 0.39598
 C709 C -0.01266 0.30290 0.40769
 N710 N -0.01264 0.30191 0.43539
 C711 C -0.02434 0.36443 0.45493
 C712 C -0.02761 0.38331 0.46681
 C713 C -0.03104 0.40684 0.47864
 N714 N -0.04439 0.42294 0.46531
 N715 N -0.04482 0.44583 0.47354
 C716 C -0.03211 0.45349 0.49557
 N717 N -0.01901 0.43721 0.50917
 N718 N -0.01851 0.41428 0.50087
 N719 N 0.48639 -0.17693 -0.04496
 C720 C 0.48199 -0.15574 -0.05701
 N721 N 0.48118 -0.15507 -0.08458
 N722 N 0.48454 -0.17489 -0.09968
 C723 C 0.48892 -0.19618 -0.08782
 N724 N 0.48976 -0.19681 -0.06010
 C725 C 0.47842 -0.13401 -0.04120
 C726 C 0.47547 -0.11481 -0.02986
 C727 C 0.47225 -0.09085 -0.01907
 N728 N 0.46179 -0.07433 -0.03479
 N729 N 0.46140 -0.05135 -0.02696
 C730 C 0.47122 -0.04397 -0.00297
 N731 N 0.48151 -0.06062 0.01294
 N732 N 0.48198 -0.08369 0.00505
 N733 N 0.01343 -0.18899 1.05129
 C734 C 0.01665 -0.16704 1.06325
 N735 N 0.01951 -0.16536 1.09059
 N736 N 0.01918 -0.18493 1.10560
 C737 C 0.01596 -0.20696 1.09387
 N738 N 0.01312 -0.20867 1.06637
 C739 C 0.01611 -0.14542 1.04793
 C740 C 0.01544 -0.12596 1.03774
 C741 C 0.01432 -0.10161 1.02898
 N742 N 0.02062 -0.08374 1.04665
 N743 N 0.01741 -0.06093 1.04032
 C744 C 0.00788 -0.05512 1.01603
 N745 N 0.00168 -0.07306 0.99820
 N746 N 0.00482 -0.09597 1.00459
 N747 N 0.51737 0.31701 0.55170
 C748 C 0.51929 0.33889 0.56420
 N749 N 0.51996 0.34029 0.59177
 N750 N 0.51882 0.32052 0.60645
 C751 C 0.51691 0.29856 0.59414
 N752 N 0.51625 0.29715 0.56643
 C753 C 0.51974 0.36063 0.54901
 C754 C 0.51965 0.37992 0.53833
 C755 C 0.51879 0.40384 0.52811
 N756 N 0.53214 0.42147 0.54006
 N757 N 0.52884 0.44433 0.53380
 C758 C 0.51209 0.45039 0.51536
 N759 N 0.49897 0.43263 0.50313
 N760 N 0.50223 0.40976 0.50942
 N761 N 0.50562 1.16717 0.61337
 C762 C 0.50459 1.16193 0.58626
 N763 N 0.50634 1.18006 0.56833
 N764 N 0.50895 1.20268 0.57722
 C765 C 0.50997 1.20803 0.60437
 N766 N 0.50823 1.18980 0.62226
 C767 C 0.50193 1.13745 0.57667
 C768 C 0.49991 1.11678 0.56899
 C769 C 0.49789 1.09192 0.56063
 N770 N 0.49448 1.07486 0.57960
 N771 N 0.49375 1.05173 0.57227
 C772 C 0.49633 1.04477 0.54569
 N773 N 0.49963 1.06190 0.52668
 N774 N 0.50037 1.08508 0.53402
 N775 N 0.00518 0.66206 1.11557
 C776 C 0.00316 0.65665 1.08858
 N777 N 0.00388 0.67467 1.07046
 N778 N 0.00650 0.69736 1.07905
 C779 C 0.00855 0.70290 1.10606
 N780 N 0.00781 0.68478 1.12416
 C781 C 0.00077 0.63211 1.07918
 C782 C -0.00088 0.61149 1.07127
 C783 C -0.00229 0.58681 1.06217
 N784 N -0.00392 0.56909 1.08061
 N785 N -0.00392 0.54616 1.07242
 C786 C -0.00237 0.54009 1.04549
 N787 N -0.00088 0.55788 1.02702
 N788 N -0.00086 0.58085 1.03523
 N789 N 0.51332 0.69147 -0.06286
 C790 C 0.51623 0.67237 -0.08007
 N791 N 0.51348 0.67542 -0.10725
 N792 N 0.50808 0.69691 -0.11690
 C793 C 0.50515 0.71614 -0.09970
 N794 N 0.50793 0.71290 -0.07250
 C795 C 0.52133 0.64905 -0.06945
 C796 C 0.52498 0.62937 -0.06052
 C797 C 0.52826 0.60552 -0.05042
 N798 N 0.52131 0.59998 -0.02468
 N799 N 0.52151 0.57729 -0.01652
 C800 C 0.52881 0.55934 -0.03376
 N801 N 0.53610 0.56508 -0.05936
 N802 N 0.53593 0.58772 -0.06751
 N803 N 0.01195 1.18972 0.43596
 C804 C 0.01460 1.17035 0.41912
 N805 N 0.01184 1.17302 0.39186
 N806 N 0.00670 1.19443 0.38180
 C807 C 0.00403 1.21388 0.39867
 N808 N 0.00681 1.21105 0.42592
 C809 C 0.01931 1.14717 0.43031
 C810 C 0.02259 1.12771 0.43999
 C811 C 0.02540 1.10421 0.45119
 N812 N 0.01828 1.09973 0.47717
 N813 N 0.01802 1.07738 0.48639
 C814 C 0.02504 1.05871 0.47003
 N815 N 0.03249 1.06338 0.44418
 N816 N 0.03277 1.08569 0.43497
 N817 N 0.76630 0.66630 0.89591
 C818 C 0.78742 0.66589 0.88203
 N819 N 0.80525 0.65161 0.89065
 N820 N 0.80197 0.63815 0.91255
 C821 C 0.78073 0.63845 0.92645
 N822 N 0.76301 0.65284 0.91773
 C823 C 0.78980 0.67912 0.85743
 C824 C 0.78949 0.69010 0.83657
 C825 C 0.78607 0.70280 0.81187
 N826 N 0.77923 0.69057 0.78907
 N827 N 0.77100 0.70220 0.76773
 C828 C 0.76928 0.72647 0.76843
 N829 N 0.77667 0.73872 0.79109
 N830 N 0.78487 0.72708 0.81248
 N831 N 0.27061 0.13951 0.37076
 C832 C 0.28585 0.15851 0.37256
 N833 N 0.29658 0.16372 0.39666
 N834 N 0.29216 0.15025 0.41832
 C835 C 0.27668 0.13131 0.41666
 N836 N 0.26617 0.12610 0.39238
 C837 C 0.28825 0.17421 0.34996
 C838 C 0.28798 0.18718 0.33067
 C839 C 0.28466 0.20211 0.30766
 N840 N 0.27808 0.22526 0.31158
 N841 N 0.26988 0.23783 0.29090
 C842 C 0.26785 0.22763 0.26564
 N843 N 0.27503 0.20462 0.26169
 N844 N 0.28323 0.19204 0.28235
 N845 N 0.74345 0.33127 0.42536
 C846 C 0.72186 0.32965 0.41301
 N847 N 0.70265 0.34055 0.42481
 N848 N 0.70506 0.35289 0.44818
 C849 C 0.72675 0.35478 0.46051
 N850 N 0.74586 0.34362 0.44869
 C851 C 0.72008 0.31823 0.38673
 C852 C 0.72026 0.30909 0.36431
 C853 C 0.72276 0.29856 0.33762
 N854 N 0.73857 0.30826 0.31975
 N855 N 0.74363 0.29702 0.29624
 C856 C 0.73297 0.27574 0.28971
 N857 N 0.71689 0.26617 0.30753
 N858 N 0.71186 0.27741 0.33112
 N859 N 0.23925 0.82973 0.92640
 C860 C 0.21939 0.83267 0.91119
 N861 N 0.20212 0.84787 0.92025
 N862 N 0.20479 0.85998 0.94373
 C863 C 0.22483 0.85735 0.95890
 N864 N 0.24194 0.84185 0.94985
 C865 C 0.21818 0.82187 0.88454
 C866 C 0.21904 0.81314 0.86194
 C867 C 0.22258 0.80282 0.83529
 N868 N 0.24261 0.80862 0.82096
 N869 N 0.24802 0.79695 0.79783
 C870 C 0.23350 0.77918 0.78810
 N871 N 0.21322 0.77361 0.80232
 N872 N 0.20783 0.78526 0.82556
 N873 N 0.25976 0.83422 0.08171
 C874 C 0.26646 0.84919 0.10240
 N875 N 0.26428 0.87321 0.09943
 N876 N 0.25590 0.88195 0.07631
 C877 C 0.24921 0.86698 0.05544
 N878 N 0.25138 0.84295 0.05865
 C879 C 0.27401 0.83945 0.12777
 C880 C 0.27891 0.83042 0.14912
 C881 C 0.28238 0.81884 0.17465
 N882 N 0.27831 0.83106 0.19838
 N883 N 0.27630 0.81943 0.22175
 C884 C 0.27830 0.79519 0.22231
 N885 N 0.28318 0.78311 0.19859
 N886 N 0.28519 0.79473 0.17518
 N887 N 0.77135 0.33413 0.57968
 C888 C 0.77476 0.34890 0.60158
 N889 N 0.76852 0.37229 0.60000
 N890 N 0.75926 0.38064 0.57713
 C891 C 0.75566 0.36583 0.55515
 N892 N 0.76208 0.34246 0.55688
 C893 C 0.78212 0.33909 0.62697
 C894 C 0.78654 0.32986 0.64835
 C895 C 0.78908 0.31797 0.67382
 N896 N 0.78440 0.33000 0.69752
 N897 N 0.78116 0.31814 0.72058
 C898 C 0.78247 0.29383 0.72082
 N899 N 0.78797 0.28191 0.69718
 N900 N 0.79121 0.29377 0.67409
 N901 N 0.23865 0.16459 0.54043
 C902 C 0.23471 0.15090 0.56258
 N903 N 0.23766 0.12684 0.56029
 N904 N 0.24430 0.11676 0.53657
 C905 C 0.24842 0.13040 0.51437
 N906 N 0.24529 0.15450 0.51670
 C907 C 0.23035 0.16194 0.58880
 C908 C 0.22842 0.17102 0.61121
 C909 C 0.22856 0.18143 0.63817
 N910 N 0.23644 0.16831 0.65913
 N911 N 0.24059 0.17867 0.68332
 C912 C 0.23690 0.20249 0.68750
 N913 N 0.22865 0.21556 0.66655
 N914 N 0.22455 0.20520 0.64227
 N915 N 0.74261 0.62628 0.06954
 C916 C 0.73917 0.65020 0.07302
 N917 N 0.74308 0.66483 0.05169
 N918 N 0.75013 0.65583 0.02759
 C919 C 0.75371 0.63190 0.02400
 N920 N 0.74965 0.61727 0.04539
 C921 C 0.73409 0.66031 0.09956
 C922 C 0.73148 0.66942 0.12187
 C923 C 0.73077 0.68077 0.14837
 N924 N 0.72925 0.70497 0.15077
 N925 N 0.73322 0.71605 0.17466
 C926 C 0.73888 0.70330 0.19696
 N927 N 0.73983 0.67903 0.19456
 N928 N 0.73585 0.66795 0.17071
 N929 N 0.19829 0.58820 0.22978
 C930 C 0.21311 0.59557 0.25007
 N931 N 0.21521 0.58186 0.27240
 N932 N 0.20264 0.56156 0.27453
 C933 C 0.18749 0.55426 0.25444
 N934 N 0.18572 0.56788 0.23190
 C935 C 0.22358 0.61912 0.24987
 C936 C 0.23105 0.63945 0.25096
 C937 C 0.23843 0.66405 0.25366
 N938 N 0.23469 0.67953 0.23321
 N939 N 0.23910 0.70289 0.23690
 C940 C 0.24709 0.71158 0.26127
 N941 N 0.25128 0.69593 0.28148
 N942 N 0.24689 0.67259 0.27780
 N943 N 0.69933 0.08669 0.72869
 C944 C 0.71447 0.09428 0.74857
 N945 N 0.71692 0.08085 0.77106
 N946 N 0.70437 0.06060 0.77378
 C947 C 0.68888 0.05310 0.75412
 N948 N 0.68678 0.06643 0.73140
 C949 C 0.72484 0.11785 0.74781
 C950 C 0.73221 0.13821 0.74840
 C951 C 0.73950 0.16286 0.75049
 N952 N 0.73247 0.17871 0.73164
 N953 N 0.73703 0.20206 0.73515
 C954 C 0.74853 0.21035 0.75776
 N955 N 0.75586 0.19436 0.77637
 N956 N 0.75132 0.17102 0.77287
 N957 N 0.78939 0.06714 0.29684
 C958 C 0.77419 0.07351 0.27695
 N959 N 0.77064 0.05837 0.25539
 N960 N 0.78247 0.03778 0.25338
 C961 C 0.79831 0.03165 0.27284
 N962 N 0.80122 0.04655 0.29484
 C963 C 0.76688 0.09788 0.27529
 C964 C 0.76295 0.11879 0.27220
 C965 C 0.76031 0.14369 0.26689
 N966 N 0.74643 0.15073 0.24609
 N967 N 0.74577 0.17372 0.23941
 C968 C 0.75937 0.19035 0.25289
 N969 N 0.77301 0.18325 0.27394
 N970 N 0.77368 0.16025 0.28064
 N971 N 0.29150 0.56744 0.80045
 C972 C 0.27546 0.57409 0.78156
 N973 N 0.27057 0.55898 0.76032
 N974 N 0.28189 0.53814 0.75762
 C975 C 0.29854 0.53172 0.77605
 N976 N 0.30282 0.54660 0.79776
 C977 C 0.26873 0.59868 0.78017
 C978 C 0.26533 0.61969 0.77709
 C979 C 0.26339 0.64463 0.77150
 N980 N 0.28107 0.65566 0.75718
 N981 N 0.27921 0.67863 0.75080
 C982 C 0.25960 0.69135 0.75856
 N983 N 0.24193 0.68024 0.77299
 N984 N 0.24377 0.65723 0.77936
 N985 N 0.28516 0.41704 0.73815
 C986 C 0.30237 0.40040 0.73364
 N987 N 0.32573 0.40730 0.73385
 N988 N 0.33170 0.43018 0.73859
 C989 C 0.31452 0.44690 0.74338
 N990 N 0.29112 0.43991 0.74290
 C991 C 0.29598 0.37555 0.73105
 C992 C 0.29042 0.35465 0.73009
 C993 C 0.28362 0.32985 0.73029
 N994 N 0.29740 0.31304 0.71758
 N995 N 0.29163 0.28987 0.71911
 C996 C 0.27198 0.28276 0.73349
 N997 N 0.25814 0.29968 0.74602
 N998 N 0.26389 0.32284 0.74448
 N999 N 0.82949 0.90865 0.23494
 C1000 C 0.80617 0.90163 0.23454
 N1001 N 0.78884 0.91826 0.23830
 N1002 N 0.79466 0.94123 0.24258
 C1003 C 0.81800 0.94838 0.24337
 N1004 N 0.83530 0.93164 0.23920
 C1005 C 0.79988 0.87672 0.23269
 C1006 C 0.79427 0.85583 0.23244
 C1007 C 0.78734 0.83110 0.23357
 N1008 N 0.76627 0.82481 0.24554
 N1009 N 0.76035 0.80179 0.24818
 C1010 C 0.77536 0.78429 0.23903
 N1011 N 0.79638 0.79067 0.22686
 N1012 N 0.80231 0.81370 0.22422
 N1013 N 0.66628 0.92512 0.77383
 C1014 C 0.68985 0.91951 0.77197
 N1015 N 0.70644 0.93742 0.77216
 N1016 N 0.69965 0.96025 0.77379
 C1017 C 0.67603 0.96599 0.77528
 N1018 N 0.65950 0.94796 0.77547
 C1019 C 0.69704 0.89510 0.76739
 C1020 C 0.70309 0.87475 0.76251
 C1021 C 0.71024 0.85068 0.75574
 N1022 N 0.73013 0.84666 0.74025
 N1023 N 0.73642 0.82436 0.73321
 C1024 C 0.72296 0.80533 0.74133
 N1025 N 0.70310 0.80945 0.75692
 N1026 N 0.69680 0.83174 0.76397
 N1027 N 0.16546 0.42596 0.27187
 C1028 C 0.18905 0.42048 0.26992
 N1029 N 0.20557 0.43846 0.27049
 N1030 N 0.19868 0.46125 0.27256
 C1031 C 0.17503 0.46685 0.27413
 N1032 N 0.15858 0.44874 0.27394
 C1033 C 0.19631 0.39616 0.26485
 C1034 C 0.20223 0.37584 0.25959
 C1035 C 0.20908 0.35175 0.25248
 N1036 N 0.23251 0.34550 0.25177
 N1037 N 0.23886 0.32328 0.24449
 C1038 C 0.22199 0.30656 0.23759
 N1039 N 0.19855 0.31294 0.23827
 N1040 N 0.19220 0.33516 0.24555
 N1041 N 0.07251 0.23356 0.79437
 C1042 C 0.09390 0.22881 0.80589
 N1043 N 0.09527 0.22794 0.83343
 N1044 N 0.07586 0.23154 0.84899
 C1045 C 0.05434 0.23624 0.83762
 N1046 N 0.05306 0.23717 0.80996
 C1047 C 0.11509 0.22498 0.78945
 C1048 C 0.13370 0.22192 0.77710
 C1049 C 0.15690 0.21871 0.76453
 N1050 N 0.16418 0.23264 0.74359
 N1051 N 0.18694 0.23225 0.73492
 C1052 C 0.20319 0.21786 0.74680
 N1053 N 0.19567 0.20373 0.76749
 N1054 N 0.17295 0.20406 0.77611
 N1055 N 0.57396 0.73769 0.29853
 C1056 C 0.59527 0.73343 0.31051
 N1057 N 0.59631 0.73302 0.33809
 N1058 N 0.57668 0.73660 0.35326
 C1059 C 0.55525 0.74081 0.34143
 N1060 N 0.55428 0.74128 0.31374
 C1061 C 0.61672 0.72941 0.29458
 C1062 C 0.63567 0.72605 0.28306
 C1063 C 0.65935 0.72231 0.27199
 N1064 N 0.66668 0.73287 0.24860
 N1065 N 0.68966 0.73199 0.24072
 C1066 C 0.70606 0.72046 0.25591
 N1067 N 0.69849 0.70981 0.27915
 N1068 N 0.67560 0.71059 0.28695
 N1069 N 0.56934 0.25122 0.19243
 C1070 C 0.58442 0.27046 0.19262
 N1071 N 0.57900 0.28969 0.17752
 N1072 N 0.55929 0.28962 0.16245
 C1073 C 0.54428 0.27028 0.16179
 N1074 N 0.54956 0.25117 0.17736
 C1075 C 0.60738 0.26934 0.20549
 C1076 C 0.62743 0.26836 0.21434
 C1077 C 0.65202 0.26688 0.22248
 N1078 N 0.66945 0.27653 0.20655
 N1079 N 0.69247 0.27308 0.21203
 C1080 C 0.69892 0.25993 0.23370
 N1081 N 0.68142 0.25044 0.24980
 N1082 N 0.65834 0.25386 0.24428
 N1083 N 0.07929 0.78693 0.67464
 C1084 C 0.08473 0.76804 0.69026
 N1085 N 0.06967 0.74879 0.69056
 N1086 N 0.04988 0.74841 0.67550
 C1087 C 0.04455 0.76720 0.65948
 N1088 N 0.05956 0.78654 0.65959
 C1089 C 0.10751 0.76741 0.70360
 C1090 C 0.12738 0.76683 0.71305
 C1091 C 0.15174 0.76579 0.72216
 N1092 N 0.15799 0.75075 0.74221
 N1093 N 0.18100 0.74771 0.74824
 C1094 C 0.19856 0.75961 0.73446
 N1095 N 0.19216 0.77482 0.71461
 N1096 N 0.16918 0.77790 0.70860
 N1097 N 0.92729 0.75534 0.68241
 C1098 C 0.90910 0.75327 0.66438
 N1099 N 0.91420 0.75402 0.63729
 N1100 N 0.93678 0.75670 0.62852
 C1101 C 0.95507 0.75877 0.64653
 N1102 N 0.94984 0.75801 0.67364
 C1103 C 0.88469 0.75076 0.67394
 C1104 C 0.86417 0.74899 0.68192
 C1105 C 0.83956 0.74742 0.69102
 N1106 N 0.83379 0.74926 0.71794
 N1107 N 0.81088 0.74915 0.72611
 C1108 C 0.79296 0.74713 0.70762
 N1109 N 0.79885 0.74516 0.68072
 N1110 N 0.82172 0.74527 0.67257
 N1111 N 0.41443 0.25640 0.13678
 C1112 C 0.40897 0.25526 0.16377
 N1113 N 0.42690 0.25723 0.18214
 N1114 N 0.44954 0.26019 0.17381
 C1115 C 0.45513 0.26134 0.14681
 N1116 N 0.43710 0.25936 0.12845
 C1117 C 0.38446 0.25248 0.17290
 C1118 C 0.36388 0.25050 0.18059
 C1119 C 0.33919 0.24871 0.18938
 N1120 N 0.33310 0.25085 0.21619
 N1121 N 0.31010 0.25061 0.22403
 C1122 C 0.29241 0.24815 0.20532
 N1123 N 0.29863 0.24587 0.17853
 N1124 N 0.32157 0.24610 0.17070
 N1125 N 0.42562 0.76574 0.35745
 C1126 C 0.42260 0.76842 0.33024
 N1127 N 0.44167 0.76537 0.31323
 N1128 N 0.46307 0.75993 0.32308
 C1129 C 0.46624 0.75723 0.35029
 N1130 N 0.44708 0.76029 0.36731
 C1131 C 0.39933 0.77356 0.31937
 C1132 C 0.37968 0.77723 0.31021
 C1133 C 0.35586 0.78051 0.29989
 N1134 N 0.35016 0.77305 0.27422
 N1135 N 0.32744 0.77315 0.26595
 C1136 C 0.30961 0.78087 0.28300
 N1137 N 0.31552 0.78867 0.30852
 N1138 N 0.33819 0.78860 0.31677
 N1139 N 0.92663 0.26209 0.85798
 C1140 C 0.92348 0.26530 0.83088
 N1141 N 0.94242 0.26236 0.81366
 N1142 N 0.96382 0.25651 0.82320
 C1143 C 0.96716 0.25328 0.85031
 N1144 N 0.94808 0.25624 0.86753
 C1145 C 0.90021 0.27082 0.82027
 C1146 C 0.88062 0.27475 0.81114
 C1147 C 0.85692 0.27826 0.80057
 N1148 N 0.85180 0.27217 0.77432
 N1149 N 0.82925 0.27244 0.76553
 C1150 C 0.81101 0.27895 0.78264
 N1151 N 0.81631 0.28540 0.80879
 N1152 N 0.83883 0.28515 0.81756
 N1153 N 0.61144 0.99197 0.67617
 C1154 C 0.59687 0.97335 0.68273
 N1155 N 0.59611 0.96587 0.70887
 N1156 N 0.60975 0.97662 0.72777
 C1157 C 0.62440 0.99531 0.72121
 N1158 N 0.62501 1.00270 0.69502
 C1159 C 0.58141 0.96311 0.66233
 C1160 C 0.56852 0.95688 0.64389
 C1161 C 0.55343 0.95300 0.62072
 N1162 N 0.56341 0.95252 0.59540
 N1163 N 0.55004 0.95616 0.57357
 C1164 C 0.52621 0.96048 0.57623
 N1165 N 0.51609 0.95981 0.60153
 N1166 N 0.52945 0.95620 0.62338
 N1167 N 0.11309 0.49157 1.17374
 C1168 C 0.09902 0.47245 1.17987
 N1169 N 0.09778 0.46507 1.20602
 N1170 N 0.11049 0.47637 1.22536
 C1171 C 0.12464 0.49554 1.21925
 N1172 N 0.12574 0.50286 1.19303
 C1173 C 0.08452 0.46150 1.15899
 C1174 C 0.07228 0.45454 1.14028
 C1175 C 0.05771 0.44976 1.11685
 N1176 N 0.06791 0.45044 1.09167
 N1177 N 0.05447 0.45346 1.06975
 C1178 C 0.03035 0.45594 1.07217
 N1179 N 0.02008 0.45401 1.09729
 N1180 N 0.03352 0.45103 1.11924
 N1181 N -0.10320 -0.00511 1.18329
 C1182 C -0.10319 0.01636 1.17071
 N1183 N -0.11797 0.03383 1.18012
 N1184 N -0.13240 0.02995 1.20137
 C1185 C -0.13265 0.00846 1.21396
 N1186 N -0.11766 -0.00899 1.20461
 C1187 C -0.08903 0.02002 1.14657
 C1188 C -0.07776 0.02256 1.12573
 C1189 C -0.06482 0.02407 1.10042
 N1190 N -0.07516 0.01595 1.07710
 N1191 N -0.06227 0.01377 1.05421
 C1192 C -0.03864 0.01983 1.05372
 N1193 N -0.02848 0.02851 1.07701
 N1194 N -0.04136 0.03066 1.09997
 N1195 N 0.37981 0.53372 0.68025
 C1196 C 0.39499 0.51651 0.67104
 N1197 N 0.39531 0.49509 0.68370
 N1198 N 0.38081 0.49102 0.70494
 C1199 C 0.36547 0.50821 0.71414
 N1200 N 0.36535 0.52964 0.70143
 C1201 C 0.40950 0.52047 0.64724
 C1202 C 0.42121 0.52325 0.62676
 C1203 C 0.43477 0.52513 0.60191
 N1204 N 0.45784 0.53300 0.60217
 N1205 N 0.47136 0.53157 0.57962
 C1206 C 0.46221 0.52233 0.55604
 N1207 N 0.43897 0.51488 0.55583
 N1208 N 0.42546 0.51635 0.57831
 N1209 N 0.38433 0.47943 -0.15456
 C1210 C 0.40330 0.46672 -0.16415
 N1211 N 0.40442 0.46054 -0.19103
 N1212 N 0.38700 0.46692 -0.20777
 C1213 C 0.36808 0.47993 -0.19821
 N1214 N 0.36701 0.48586 -0.17125
 C1215 C 0.42321 0.46305 -0.14657
 C1216 C 0.43957 0.46262 -0.13078
 C1217 C 0.45829 0.46547 -0.11121
 N1218 N 0.45587 0.45605 -0.08604
 N1219 N 0.47052 0.46297 -0.06601
 C1220 C 0.48786 0.47975 -0.07043
 N1221 N 0.49057 0.48865 -0.09583
 N1222 N 0.47601 0.48168 -0.11584
 N1223 N -0.11822 0.98104 0.34738
 C1224 C -0.09923 0.96768 0.33917
 N1225 N -0.09710 0.96099 0.31250
 N1226 N -0.11358 0.96749 0.29463
 C1227 C -0.13252 0.98112 0.30282
 N1228 N -0.13459 0.98759 0.32956
 C1229 C -0.08035 0.96360 0.35805
 C1230 C -0.06481 0.96274 0.37484
 C1231 C -0.04687 0.96501 0.39542
 N1232 N -0.02682 0.97809 0.39029
 N1233 N -0.01247 0.98497 0.41054
 C1234 C -0.01770 0.97912 0.43667
 N1235 N -0.03745 0.96541 0.44169
 N1236 N -0.05188 0.95859 0.42141
 N1237 N 0.08464 0.50974 0.33251
 C1238 C 0.08296 0.53070 0.34696
 N1239 N 0.09907 0.54845 0.34215
 N1240 N 0.11626 0.54539 0.32340
 C1241 C 0.11806 0.52446 0.30884
 N1242 N 0.10187 0.50668 0.31371
 C1243 C 0.06500 0.53375 0.36790
 C1244 C 0.05029 0.53576 0.38598
 C1245 C 0.03321 0.53662 0.40805
 N1246 N 0.03956 0.54577 0.43282
 N1247 N 0.02527 0.54286 0.45448
 C1248 C 0.00416 0.53070 0.45213
 N1249 N -0.00242 0.52226 0.42710
 N1250 N 0.01182 0.52519 0.40545
 N1251 N 0.58695 0.01053 -0.16495
 C1252 C 0.58585 0.03162 -0.15068
 N1253 N 0.60221 0.04903 -0.15596
 N1254 N 0.61905 0.04553 -0.17501
 C1255 C 0.62026 0.02447 -0.18942
 N1256 N 0.60384 0.00702 -0.18406
 C1257 C 0.56828 0.03517 -0.12942
 C1258 C 0.55391 0.03767 -0.11106
 C1259 C 0.53726 0.03917 -0.08861
 N1260 N 0.51470 0.03035 -0.09144
 N1261 N 0.50051 0.02773 -0.06968
 C1262 C 0.50832 0.03388 -0.04431
 N1263 N 0.53067 0.04347 -0.04170
 N1264 N 0.54489 0.04608 -0.06346
 N1265 N 0.69675 0.55751 -0.05750
 C1266 C 0.68753 0.54899 -0.03393
 N1267 N 0.69973 0.55280 -0.01042
 N1268 N 0.72043 0.56499 -0.01049
 C1269 C 0.72951 0.57389 -0.03406
 N1270 N 0.71737 0.56970 -0.05757
 C1271 C 0.66382 0.53884 -0.03355
 C1272 C 0.64332 0.53182 -0.03367
 C1273 C 0.61842 0.52519 -0.03392
 N1274 N 0.61071 0.50425 -0.02317
 N1275 N 0.58734 0.49910 -0.02189
 C1276 C 0.57092 0.51471 -0.03127
 N1277 N 0.57878 0.53550 -0.04229
 N1278 N 0.60211 0.54065 -0.04361
 N1279 N 0.19593 1.04965 0.48799
 C1280 C 0.18347 1.04401 0.46510
 N1281 N 0.19251 1.05045 0.44056
 N1282 N 0.21320 1.06244 0.43895
 C1283 C 0.22558 1.06849 0.46183
 N1284 N 0.21668 1.06162 0.48637
 C1285 C 0.15958 1.03446 0.46692
 C1286 C 0.13892 1.02803 0.46799
 C1287 C 0.11385 1.02221 0.46903
 N1288 N 0.09776 1.03769 0.45896
 N1289 N 0.07434 1.03331 0.46128
 C1290 C 0.06618 1.01331 0.47375
 N1291 N 0.08236 0.99767 0.48358
 N1292 N 0.10582 1.00205 0.48128
 N1293 N 0.17303 -0.05602 1.05251
 C1294 C 0.16208 -0.04420 1.03221
 N1295 N 0.16965 -0.04782 1.00617
 N1296 N 0.18724 -0.06306 1.00041
 C1297 C 0.19795 -0.07527 1.02049
 N1298 N 0.19089 -0.07119 1.04676
 C1299 C 0.13945 -0.03276 1.03657
 C1300 C 0.11917 -0.02556 1.03676
 C1301 C 0.09434 -0.02024 1.03332
 N1302 N 0.08009 -0.03724 1.02170
 N1303 N 0.05740 -0.03254 1.01608
 C1304 C 0.04806 -0.01064 1.02182
 N1305 N 0.06237 0.00651 1.03346
 N1306 N 0.08523 0.00182 1.03902
 N1307 N 0.65096 0.41959 0.53321
 C1308 C 0.65530 0.44225 0.54236
 N1309 N 0.67833 0.44972 0.54579
 N1310 N 0.69646 0.43496 0.53979
 C1311 C 0.69207 0.41240 0.52994
 N1312 N 0.66899 0.40495 0.52708
 C1313 C 0.63565 0.45861 0.54414
 C1314 C 0.61786 0.47063 0.54293
 C1315 C 0.59562 0.48261 0.53867
 N1316 N 0.57771 0.48139 0.55751
 N1317 N 0.55562 0.48825 0.55137
 C1318 C 0.55062 0.49625 0.52609
 N1319 N 0.56873 0.49799 0.50754
 N1320 N 0.59081 0.49119 0.51368
 N1321 N -0.20214 0.44997 0.52344
 C1322 C -0.19142 0.45553 0.49939
 N1323 N -0.20039 0.44615 0.47591
 N1324 N -0.21930 0.43144 0.47644
 C1325 C -0.22986 0.42547 0.50048
 N1326 N -0.22112 0.43527 0.52397
 C1327 C -0.16863 0.46756 0.49899
 C1328 C -0.14854 0.47562 0.49839
 C1329 C -0.12379 0.48270 0.49780
 N1330 N -0.10680 0.46585 0.50103
 N1331 N -0.08370 0.47192 0.50097
 C1332 C -0.07670 0.49502 0.49748
 N1333 N -0.09378 0.51193 0.49418
 N1334 N -0.11698 0.50585 0.49424
 N1335 N 0.30212 -0.05087 0.02174
 C1336 C 0.31481 -0.04801 -0.00173
 N1337 N 0.30794 -0.06014 -0.02456
 N1338 N 0.28897 -0.07474 -0.02397
 C1339 C 0.27628 -0.07784 -0.00052
 N1340 N 0.28306 -0.06548 0.02231
 C1341 C 0.33687 -0.03477 -0.00194
 C1342 C 0.35630 -0.02530 -0.00273
 C1343 C 0.38028 -0.01611 -0.00393
 N1344 N 0.39748 -0.02914 -0.01691
 N1345 N 0.42032 -0.02214 -0.01599
 C1346 C 0.42677 -0.00193 -0.00201
 N1347 N 0.40940 0.01141 0.01048
 N1348 N 0.38651 0.00439 0.00962
 N1349 N 0.32016 1.05601 0.52638
 C1350 C 0.34280 1.05613 0.51595
 N1351 N 0.34725 1.06729 0.49216
 N1352 N 0.32972 1.07813 0.47919
 C1353 C 0.30703 1.07819 0.48948
 N1354 N 0.30255 1.06691 0.51334
 C1355 C 0.36216 1.04457 0.52927
 C1356 C 0.37993 1.03546 0.53799
 C1357 C 0.40250 1.02534 0.54505
 N1358 N 0.42145 1.04005 0.55028
 N1359 N 0.44361 1.03138 0.55068
 C1360 C 0.44763 1.00771 0.54579
 N1361 N 0.42853 0.99291 0.54128
 N1362 N 0.40636 1.00158 0.54084
 N1363 N -0.17655 0.55357 1.02842
 C1364 C -0.15410 0.55329 1.01746
 N1365 N -0.14948 0.56586 0.99467
 N1366 N -0.16665 0.57844 0.98317
 C1367 C -0.18914 0.57891 0.99400
 N1368 N -0.19381 0.56620 1.01686
 C1369 C -0.13501 0.54012 1.02937
 C1370 C -0.11743 0.52994 1.03703
 C1371 C -0.09500 0.51895 1.04310
 N1372 N -0.07644 0.53276 1.05202
 N1373 N -0.05424 0.52416 1.05194
 C1374 C -0.04978 0.50146 1.04284
 N1375 N -0.06852 0.48746 1.03462
 N1376 N -0.09073 0.49607 1.03467
 N1377 N 0.01999 0.68601 0.56526
 C1378 C -0.00115 0.68053 0.55322
 N1379 N -0.01983 0.69581 0.55664
 N1380 N -0.01739 0.71589 0.57174
 C1381 C 0.00375 0.72122 0.58413
 N1382 N 0.02240 0.70596 0.58037
 C1383 C -0.00418 0.65740 0.54007
 C1384 C -0.00578 0.63709 0.53117
 C1385 C -0.00694 0.61207 0.52347
 N1386 N -0.01529 0.60450 0.49880
 N1387 N -0.01728 0.58108 0.49285
 C1388 C -0.01085 0.56449 0.51130
 N1389 N -0.00245 0.57225 0.53584
 N1390 N -0.00043 0.59556 0.54176
 N1391 N 0.52189 0.18970 0.06668
 C1392 C 0.50074 0.18361 0.05502
 N1393 N 0.48177 0.19853 0.05843
 N1394 N 0.48391 0.21882 0.07321
 C1395 C 0.50505 0.22474 0.08527
 N1396 N 0.52400 0.20986 0.08147
 C1397 C 0.49803 0.16022 0.04242
 C1398 C 0.49660 0.13976 0.03398
 C1399 C 0.49549 0.11464 0.02671
 N1400 N 0.48970 0.10686 0.00117
 N1401 N 0.48789 0.08339 -0.00462
 C1402 C 0.49196 0.06698 0.01489
 N1403 N 0.49784 0.07493 0.04032
 N1404 N 0.49966 0.09828 0.04609
 N1405 N -0.02461 0.18180 0.94031
 C1406 C -0.01137 0.16142 0.93951
 N1407 N 0.00789 0.16017 0.92256
 N1408 N 0.01382 0.17854 0.90694
 C1409 C 0.00074 0.19898 0.90753
 N1410 N -0.01863 0.20030 0.92460
 C1411 C -0.01746 0.14085 0.95559
 C1412 C -0.02074 0.12228 0.96747
 C1413 C -0.02271 0.09896 0.97950
 N1414 N -0.01000 0.09378 1.00206
 N1415 N -0.00838 0.07121 1.01037
 C1416 C -0.01939 0.05299 0.99640
 N1417 N -0.03229 0.05832 0.97401
 N1418 N -0.03395 0.08085 0.96575
 N1419 N 0.47587 0.68694 0.44400
 C1420 C 0.48923 0.66665 0.44359
 N1421 N 0.50855 0.66530 0.42673
 N1422 N 0.51442 0.68351 0.41083
 C1423 C 0.50122 0.70387 0.41104
 N1424 N 0.48179 0.70527 0.42801
 C1425 C 0.48322 0.64624 0.45999
 C1426 C 0.48002 0.62779 0.47213
 C1427 C 0.47816 0.60455 0.48442
 N1428 N 0.49180 0.59925 0.50622
 N1429 N 0.49362 0.57666 0.51440
 C1430 C 0.48188 0.55853 0.50107
 N1431 N 0.46801 0.56401 0.47949
 N1432 N 0.46615 0.58656 0.47136
 N1433 N 0.49235 0.80977 0.44934
 C1434 C 0.51139 0.82479 0.45311
 N1435 N 0.53197 0.82047 0.43902
 N1436 N 0.53349 0.80182 0.42170
 C1437 C 0.51446 0.78679 0.41768
 N1438 N 0.49388 0.79105 0.43199
 C1439 C 0.50931 0.84623 0.46988
 C1440 C 0.50770 0.86497 0.48260
 C1441 C 0.50541 0.88815 0.49587
 N1442 N 0.48620 0.90188 0.49052
 N1443 N 0.48489 0.92427 0.50029
 C1444 C 0.50274 0.93388 0.51580
 N1445 N 0.52185 0.91997 0.52156
 N1446 N 0.52319 0.89750 0.51169
 N1447 N 0.03343 0.31461 0.93732
 C1448 C 0.01268 0.31993 0.95062
 N1449 N -0.00691 0.30578 0.94619
 N1450 N -0.00573 0.28694 0.92896
 C1451 C 0.01503 0.28173 0.91540
 N1452 N 0.03459 0.29586 0.92011
 C1453 C 0.01106 0.34182 0.96668
 C1454 C 0.01035 0.36113 0.97834
 C1455 C 0.00990 0.38520 0.98961
 N1456 N 0.00868 0.38971 1.01694
 N1457 N 0.00804 0.41228 1.02668
 C1458 C 0.00873 0.43104 1.00939
 N1459 N 0.01000 0.42633 0.98214
 N1460 N 0.01065 0.40389 0.97245
 N1461 N 0.47833 0.32606 0.05052
 C1462 C 0.49381 0.34505 0.05071
 N1463 N 0.51198 0.34556 0.06874
 N1464 N 0.51472 0.32777 0.08600
 C1465 C 0.49940 0.30870 0.08605
 N1466 N 0.48112 0.30812 0.06789
 C1467 C 0.49117 0.36508 0.03298
 C1468 C 0.49091 0.38321 0.01991
 C1469 C 0.49245 0.40598 0.00667
 N1470 N 0.51079 0.41067 -0.01089
 N1471 N 0.51479 0.43290 -0.01950
 C1472 C 0.50064 0.45128 -0.01075
 N1473 N 0.48215 0.44644 0.00657
 N1474 N 0.47813 0.42424 0.01515
 N1475 N -0.02627 0.82531 0.55430
 C1476 C -0.00915 0.84260 0.55127
 N1477 N 0.01168 0.84076 0.56489
 N1478 N 0.01533 0.82241 0.58114
 C1479 C -0.00168 0.80512 0.58452
 N1480 N -0.02255 0.80679 0.57060
 C1481 C -0.01306 0.86376 0.53568
 C1482 C -0.01424 0.88276 0.52440
 C1483 C -0.01355 0.90644 0.51330
 N1484 N -0.02101 0.92532 0.52891
 N1485 N -0.01694 0.94770 0.52098
 C1486 C -0.00525 0.95208 0.49715
 N1487 N 0.00204 0.93312 0.48139
 N1488 N -0.00198 0.91069 0.48937
 N1489 N 0.24313 0.36071 0.07296
 C1490 C 0.22386 0.34668 0.06699
 N1491 N 0.21574 0.34565 0.04102
 N1492 N 0.22650 0.35852 0.02171
 C1493 C 0.24582 0.37266 0.02767
 N1494 N 0.25387 0.37352 0.05369
 C1495 C 0.21333 0.33230 0.08795
 C1496 C 0.20675 0.32044 0.10693
 C1497 C 0.20240 0.30667 0.13087
 N1498 N 0.20404 0.31767 0.15567
 N1499 N 0.20719 0.30489 0.17794
 C1500 C 0.20875 0.28062 0.17631
 N1501 N 0.20599 0.26959 0.15156
 N1502 N 0.20293 0.28238 0.12922
 N1503 N 0.73774 0.86413 0.57998
 C1504 C 0.71960 0.84878 0.57357
 N1505 N 0.71240 0.84676 0.54729
 N1506 N 0.72292 0.85994 0.52809
 C1507 C 0.74113 0.87536 0.53449
 N1508 N 0.74825 0.87724 0.56082
 C1509 C 0.70975 0.83371 0.59431
 C1510 C 0.70384 0.82116 0.61298
 C1511 C 0.70034 0.80645 0.63634
 N1512 N 0.70123 0.81672 0.66159
 N1513 N 0.70519 0.80345 0.68332
 C1514 C 0.70843 0.77942 0.68061
 N1515 N 0.70640 0.76905 0.65541
 N1516 N 0.70248 0.78232 0.63366
 N1517 N 0.28307 0.62784 0.56902
 C1518 C 0.26576 0.64299 0.57801
 N1519 N 0.24458 0.64350 0.56467
 N1520 N 0.24082 0.62922 0.54295
 C1521 C 0.25812 0.61391 0.53396
 N1522 N 0.27931 0.61359 0.54737
 C1523 C 0.26941 0.65732 0.60222
 C1524 C 0.27198 0.66891 0.62299
 C1525 C 0.27366 0.68240 0.64808
 N1526 N 0.28202 0.70531 0.64838
 N1527 N 0.28047 0.71882 0.67106
 C1528 C 0.27064 0.70983 0.69421
 N1529 N 0.26270 0.68674 0.69386
 N1530 N 0.26428 0.67323 0.67125
 N1531 N 0.74643 0.14748 0.06160
 C1532 C 0.76792 0.14728 0.07431
 N1533 N 0.78508 0.13203 0.06514
 N1534 N 0.78087 0.11739 0.04394
 C1535 C 0.75935 0.11739 0.03119
 N1536 N 0.74221 0.13280 0.04034
 C1537 C 0.77200 0.16193 0.09818
 C1538 C 0.77483 0.17378 0.11871
 C1539 C 0.77672 0.18758 0.14356
 N1540 N 0.77400 0.17671 0.16787
 N1541 N 0.77190 0.18973 0.19082
 C1542 C 0.77252 0.21404 0.19030
 N1543 N 0.77592 0.22483 0.16596
 N1544 N 0.77800 0.21183 0.14298
 N1545 N 0.71156 0.15481 0.93543
 C1546 C 0.71786 0.15328 0.90866
 N1547 N 0.73057 0.13413 0.89946
 N1548 N 0.73687 0.11705 0.91642
 C1549 C 0.73080 0.11855 0.94327
 N1550 N 0.71781 0.13764 0.95244
 C1551 C 0.71424 0.17289 0.89082
 C1552 C 0.71375 0.18904 0.87493
 C1553 C 0.71643 0.20758 0.85535
 N1554 N 0.70880 0.20398 0.82941
 N1555 N 0.71582 0.21873 0.80977
 C1556 C 0.73091 0.23739 0.81537
 N1557 N 0.73800 0.24125 0.84149
 N1558 N 0.73093 0.22658 0.86111
 N1559 N 0.21228 0.65395 0.43847
 C1560 C 0.21920 0.65327 0.41186
 N1561 N 0.23225 0.63449 0.40229
 N1562 N 0.23830 0.61694 0.41875
 C1563 C 0.23161 0.61757 0.44544
 N1564 N 0.21828 0.63630 0.45497
 C1565 C 0.21568 0.67334 0.39463
 C1566 C 0.21524 0.68982 0.37918
 C1567 C 0.21792 0.70870 0.36001
 N1568 N 0.20772 0.70678 0.33506
 N1569 N 0.21420 0.72167 0.31532
 C1570 C 0.23129 0.73878 0.31982
 N1571 N 0.24100 0.74097 0.34500
 N1572 N 0.23447 0.72617 0.36472
 N1573 N 0.79615 0.85060 0.41282
 C1574 C 0.77890 0.83414 0.40692
 N1575 N 0.75757 0.83524 0.42050
 N1576 N 0.75367 0.85227 0.43951
 C1577 C 0.77095 0.86883 0.44544
 N1578 N 0.79225 0.86758 0.43176
 C1579 C 0.78283 0.81664 0.38552
 C1580 C 0.78577 0.80249 0.36689
 C1581 C 0.78790 0.78623 0.34396
 N1582 N 0.79363 0.79466 0.31898
 N1583 N 0.79150 0.78059 0.29683
 C1584 C 0.78362 0.75758 0.29889
 N1585 N 0.77867 0.74901 0.32409
 N1586 N 0.78080 0.76306 0.34624
 N1587 N 0.29700 0.34841 0.90391
 C1588 C 0.27940 0.33208 0.89895
 N1589 N 0.25862 0.33342 0.91355
 N1590 N 0.25559 0.35053 0.93267
 C1591 C 0.27322 0.36694 0.93770
 N1592 N 0.29397 0.36548 0.92297
 C1593 C 0.28242 0.31430 0.87764
 C1594 C 0.28451 0.29980 0.85922
 C1595 C 0.28556 0.28300 0.83669
 N1596 N 0.29428 0.28989 0.81211
 N1597 N 0.29156 0.27577 0.79007
 C1598 C 0.28004 0.25429 0.79185
 N1599 N 0.27202 0.24719 0.81669
 N1600 N 0.27476 0.26127 0.83872
 N1601 N 0.80450 0.44970 0.76214
 C1602 C 0.80101 0.43740 0.78546
 N1603 N 0.80994 0.44647 0.80911
 N1604 N 0.82220 0.46706 0.80943
 C1605 C 0.82605 0.47930 0.78610
 N1606 N 0.81676 0.47035 0.76248
 C1607 C 0.79075 0.41374 0.78471
 C1608 C 0.78361 0.39327 0.78435
 C1609 C 0.77685 0.36840 0.78389
 N1610 N 0.79185 0.35198 0.79420
 N1611 N 0.78673 0.32867 0.79206
 C1612 C 0.76642 0.32094 0.77954
 N1613 N 0.75124 0.33747 0.76955
 N1614 N 0.75638 0.36082 0.77166
 N1615 N 0.30730 0.94859 0.30882
 C1616 C 0.29885 0.93912 0.28512
 N1617 N 0.30292 0.95097 0.26161
 N1618 N 0.31529 0.97156 0.26179
 C1619 C 0.32413 0.98089 0.28548
 N1620 N 0.31968 0.96911 0.30899
 C1621 C 0.28855 0.91545 0.28467
 C1622 C 0.28146 0.89497 0.28468
 C1623 C 0.27484 0.87006 0.28478
 N1624 N 0.25389 0.86225 0.27384
 N1625 N 0.24882 0.83885 0.27231
 C1626 C 0.26454 0.82250 0.28164
 N1627 N 0.28532 0.83047 0.29288
 N1628 N 0.29039 0.85383 0.29444
 N1629 N 0.16848 0.89937 0.71935
 C1630 C 0.19037 0.90299 0.70794
 N1631 N 0.19771 0.92572 0.70265
 N1632 N 0.18360 0.94427 0.70903
 C1633 C 0.16186 0.94064 0.72113
 N1634 N 0.15450 0.91783 0.72585
 C1635 C 0.20640 0.88311 0.70567
 C1636 C 0.21831 0.86526 0.70666
 C1637 C 0.23031 0.84306 0.71088
 N1638 N 0.22843 0.82480 0.69235
 N1639 N 0.23537 0.80280 0.69860
 C1640 C 0.24410 0.79825 0.72372
 N1641 N 0.24651 0.81671 0.74195
 N1642 N 0.23963 0.83871 0.73569
 N1643 N 0.69321 0.42244 0.19723
 C1644 C 0.70572 0.41216 0.21747
 N1645 N 0.70245 0.42010 0.24348
 N1646 N 0.68692 0.43742 0.24927
 C1647 C 0.67407 0.44749 0.22926
 N1648 N 0.67775 0.44004 0.20302
 C1649 C 0.71778 0.38983 0.21321
 C1650 C 0.72573 0.36985 0.21342
 C1651 C 0.73220 0.34547 0.21782
 N1652 N 0.71930 0.33288 0.23623
 N1653 N 0.72479 0.31032 0.24138
 C1654 C 0.74347 0.29949 0.22842
 N1655 N 0.75647 0.31212 0.20988
 N1656 N 0.75098 0.33483 0.20471
 N1657 N 0.69903 0.55130 0.23111
 C1658 C 0.70196 0.56376 0.25490
 N1659 N 0.68985 0.55671 0.27745
 N1660 N 0.67520 0.53779 0.27628
 C1661 C 0.67202 0.52534 0.25249
 N1662 N 0.68437 0.53230 0.22995
 C1663 C 0.71521 0.58581 0.25569
 C1664 C 0.72472 0.60522 0.25680
 C1665 C 0.73398 0.62918 0.25816
 N1666 N 0.72124 0.64645 0.27145
 N1667 N 0.72819 0.66929 0.27048
 C1668 C 0.74803 0.67567 0.25609
 N1669 N 0.76111 0.65823 0.24333
 N1670 N 0.75415 0.63534 0.24424
 N1671 N 0.20016 0.04733 0.72065
 C1672 C 0.20850 0.05783 0.74392
 N1673 N 0.20210 0.04855 0.76824
 N1674 N 0.18750 0.02960 0.76932
 C1675 C 0.17866 0.01932 0.74614
 N1676 N 0.18557 0.02829 0.72173
 C1677 C 0.21995 0.08086 0.74328
 C1678 C 0.22746 0.10115 0.74340
 C1679 C 0.23396 0.12602 0.74378
 N1680 N 0.25661 0.13344 0.74950
 N1681 N 0.26213 0.15676 0.74991
 C1682 C 0.24512 0.17337 0.74487
 N1683 N 0.22251 0.16577 0.73926
 N1684 N 0.21700 0.14253 0.73883
 N1685 N 0.30512 0.07395 0.22182
 C1686 C 0.30545 0.09670 0.23224
 N1687 N 0.31837 0.10166 0.25490
 N1688 N 0.33068 0.08453 0.26677
 C1689 C 0.33053 0.06174 0.25649
 N1690 N 0.31750 0.05674 0.23376
 C1691 C 0.29232 0.11567 0.22015
 C1692 C 0.28209 0.13319 0.21244
 C1693 C 0.27091 0.15552 0.20647
 N1694 N 0.28436 0.17388 0.19673
 N1695 N 0.27576 0.19610 0.19688
 C1696 C 0.25347 0.20076 0.20691
 N1697 N 0.23981 0.18220 0.21596
 N1698 N 0.24841 0.15999 0.21581
 N1699 N 0.81838 0.60004 0.75695
 C1700 C 0.80565 0.59522 0.73414
 N1701 N 0.80576 0.57263 0.72324
 N1702 N 0.81838 0.55545 0.73491
 C1703 C 0.83124 0.56033 0.75780
 N1704 N 0.83094 0.58295 0.76855
 C1705 C 0.79246 0.61422 0.72221
 C1706 C 0.78232 0.63184 0.71467
 C1707 C 0.77143 0.65434 0.70891
 N1708 N 0.78532 0.67285 0.70036
 N1709 N 0.77687 0.69512 0.70080
 C1710 C 0.75427 0.69969 0.70993
 N1711 N 0.74020 0.68102 0.71782
 N1712 N 0.74866 0.65874 0.71740
 N1713 N 0.93986 0.76919 0.19123
 C1714 C 0.93359 0.74771 0.20164
 N1715 N 0.94780 0.72846 0.19637
 N1716 N 0.96757 0.73067 0.18097
 C1717 C 0.97361 0.75215 0.17011
 N1718 N 0.95949 0.77137 0.17582
 C1719 C 0.91041 0.74505 0.21437
 C1720 C 0.89000 0.74382 0.22270
 C1721 C 0.86488 0.74308 0.22954
 N1722 N 0.85689 0.73767 0.25495
 N1723 N 0.83338 0.73623 0.26030
 C1724 C 0.81716 0.74032 0.24046
 N1725 N 0.82533 0.74582 0.21516
 N1726 N 0.84871 0.74728 0.20984
 N1727 N 0.43688 0.27143 0.68653
 C1728 C 0.43105 0.24980 0.69686
 N1729 N 0.44614 0.23109 0.69242
 N1730 N 0.46635 0.23397 0.67792
 C1731 C 0.47198 0.25560 0.66716
 N1732 N 0.45694 0.27427 0.67201
 C1733 C 0.40767 0.24640 0.70890
 C1734 C 0.38716 0.24458 0.71678
 C1735 C 0.36197 0.24318 0.72324
 N1736 N 0.35384 0.23637 0.74813
 N1737 N 0.33031 0.23434 0.75310
 C1738 C 0.31420 0.23922 0.73339
 N1739 N 0.32251 0.24611 0.70862
 N1740 N 0.34592 0.24816 0.70368
 N1741 N 0.41367 0.75718 0.82508
 C1742 C 0.41503 0.73781 0.80809
 N1743 N 0.43526 0.72436 0.80792
 N1744 N 0.45354 0.73026 0.82427
 C1745 C 0.45212 0.74973 0.84138
 N1746 N 0.43182 0.76301 0.84134
 C1747 C 0.39465 0.73178 0.79135
 C1748 C 0.37622 0.72856 0.77895
 C1749 C 0.35298 0.72666 0.76640
 N1750 N 0.33507 0.71448 0.77907
 N1751 N 0.31251 0.71626 0.77075
 C1752 C 0.30692 0.73021 0.74937
 N1753 N 0.32497 0.74212 0.73643
 N1754 N 0.34758 0.74038 0.74480
 N1755 N 0.91431 0.25537 0.32234
 C1756 C 0.91586 0.23638 0.30485
 N1757 N 0.93630 0.22325 0.30417
 N1758 N 0.95461 0.22912 0.32051
 C1759 C 0.95303 0.24826 0.33813
 N1760 N 0.93247 0.26118 0.33857
 C1761 C 0.89548 0.23051 0.28804
 C1762 C 0.87698 0.22757 0.27569
 C1763 C 0.85366 0.22611 0.26328
 N1764 N 0.83602 0.21291 0.27507
 N1765 N 0.81334 0.21500 0.26723
 C1766 C 0.80737 0.23030 0.24727
 N1767 N 0.82516 0.24323 0.23516
 N1768 N 0.84787 0.24118 0.24303
 N1769 N 0.06680 0.28066 0.31078
 C1770 C 0.07239 0.25985 0.29760
 N1771 N 0.05835 0.24018 0.30169
 N1772 N 0.03935 0.24135 0.31851
 C1773 C 0.03387 0.26220 0.33195
 N1774 N 0.04792 0.28181 0.32757
 C1775 C 0.09423 0.25850 0.28165
 C1776 C 0.11344 0.25847 0.26992
 C1777 C 0.13727 0.25936 0.25827
 N1778 N 0.14214 0.25065 0.23275
 N1779 N 0.16460 0.25075 0.22297
 C1780 C 0.18291 0.25971 0.23832
 N1781 N 0.17785 0.26845 0.26376
 N1782 N 0.15549 0.26838 0.27349
 N1783 N 0.55900 0.74140 0.80521
 C1784 C 0.57307 0.76103 0.80102
 N1785 N 0.56762 0.78185 0.81429
 N1786 N 0.54885 0.78304 0.83125
 C1787 C 0.53480 0.76345 0.83573
 N1788 N 0.54013 0.74261 0.82219
 C1789 C 0.59494 0.75949 0.78516
 C1790 C 0.61423 0.75898 0.77367
 C1791 C 0.63826 0.75892 0.76255
 N1792 N 0.65700 0.76104 0.77975
 N1793 N 0.67941 0.76067 0.77021
 C1794 C 0.68402 0.75833 0.74305
 N1795 N 0.66521 0.75627 0.72571
 N1796 N 0.64268 0.75663 0.73531
 N1797 N 0.59181 0.26640 0.68636
 C1798 C 0.59394 0.24584 0.70025
 N1799 N 0.57680 0.22851 0.69737
 N1800 N 0.55812 0.23175 0.68099
 C1801 C 0.55614 0.25236 0.66684
 N1802 N 0.57330 0.26958 0.67004
 C1803 C 0.61522 0.24241 0.71597
 C1804 C 0.63427 0.24151 0.72738
 C1805 C 0.65800 0.24234 0.73860
 N1806 N 0.67676 0.23441 0.72325
 N1807 N 0.69918 0.23839 0.73133
 C1808 C 0.70374 0.25047 0.75506
 N1809 N 0.68490 0.25827 0.77055
 N1810 N 0.66242 0.25433 0.76242
 N1811 N 0.07532 0.72757 0.20161
 C1812 C 0.09452 0.74272 0.20037
 N1813 N 0.09482 0.76016 0.18162
 N1814 N 0.07658 0.76254 0.16472
 C1815 C 0.05728 0.74757 0.16577
 N1816 N 0.05695 0.72998 0.18460
 C1817 C 0.11484 0.74059 0.21793
 C1818 C 0.13314 0.74070 0.23086
 C1819 C 0.15607 0.74261 0.24391
 N1820 N 0.16084 0.76122 0.26134
 N1821 N 0.18317 0.76555 0.26971
 C1822 C 0.20155 0.75149 0.26084
 N1823 N 0.19662 0.73273 0.24366
 N1824 N 0.17433 0.72838 0.23531
   
