data_POSCAR
  _audit_creation_date              2014-09-24
  _audit_creation_method            'ToBaCCo'
  _symmetry_space_group_name_H-M    'P1'
  _symmetry_Int_Tables_number       1
  _symmetry_cell_setting            triclinic
  loop_
  _symmetry_equiv_pos_as_xyz
 x,y,z
_cell_length_a 73.7078
_cell_length_b 73.6989
_cell_length_c 73.7698
_cell_angle_alpha 89.985900
_cell_angle_beta 89.982900
_cell_angle_gamma 89.967500
loop_
  _atom_site_label
  _atom_site_type_symbol
  _atom_site_fract_x
  _atom_site_fract_y
  _atom_site_fract_z
C1 C 0.35162 0.35145 0.32842
 C2 C 0.36704 0.34349 0.32061
 C3 C 0.37482 0.32776 0.32816
 C4 C 0.36702 0.32017 0.34385
 C5 C 0.35159 0.32799 0.35181
 C6 C 0.34384 0.34368 0.34406
 C7 C 0.34370 0.36692 0.32065
 C8 C 0.32801 0.37474 0.32824
 C9 C 0.32043 0.36695 0.34393
 C10 C 0.32820 0.35148 0.35185
 C11 C 0.32040 0.34354 0.36728
 C12 C 0.32797 0.32781 0.37505
 C13 C 0.34365 0.32020 0.36724
 H14 H 0.37287 0.34948 0.30852
 H15 H 0.37283 0.30805 0.34981
 H16 H 0.34969 0.37275 0.30856
 H17 H 0.30834 0.37280 0.34993
 H18 H 0.30832 0.34955 0.37311
 H19 H 0.34962 0.30808 0.37305
 C20 C 0.35159 0.85159 -0.17232
 C21 C 0.36703 0.84363 -0.18014
 C22 C 0.37491 0.82790 -0.17259
 C23 C 0.36711 0.82040 -0.15681
 C24 C 0.35169 0.82823 -0.14886
 C25 C 0.34388 0.84386 -0.15664
 C26 C 0.34363 0.86702 -0.18013
 C27 C 0.32790 0.87490 -0.17257
 C28 C 0.32042 0.86708 -0.15678
 C29 C 0.32825 0.85166 -0.14885
 C30 C 0.32052 0.84377 -0.13336
 C31 C 0.32813 0.82809 -0.12555
 C32 C 0.34380 0.82048 -0.13337
 H33 H 0.37274 0.84968 -0.19226
 H34 H 0.37288 0.80833 -0.15070
 H35 H 0.34967 0.87274 -0.19225
 H36 H 0.30834 0.87285 -0.15067
 H37 H 0.30844 0.84977 -0.12751
 H38 H 0.34981 0.80840 -0.12752
 C39 C 0.85164 0.35167 -0.17221
 C40 C 0.86709 0.34373 -0.18001
 C41 C 0.87498 0.32800 -0.17246
 C42 C 0.86716 0.32049 -0.15669
 C43 C 0.85171 0.32830 -0.14876
 C44 C 0.84390 0.34393 -0.15655
 C45 C 0.84367 0.36710 -0.18003
 C46 C 0.82792 0.37496 -0.17249
 C47 C 0.82042 0.36713 -0.15672
 C48 C 0.82826 0.35171 -0.14878
 C49 C 0.82050 0.34380 -0.13330
 C50 C 0.82812 0.32812 -0.12549
 C51 C 0.84382 0.32054 -0.13329
 H52 H 0.87282 0.34979 -0.19212
 H53 H 0.87293 0.30842 -0.15058
 H54 H 0.84973 0.37283 -0.19213
 H55 H 0.80833 0.37288 -0.15063
 H56 H 0.80840 0.34978 -0.12747
 H57 H 0.84983 0.30846 -0.12744
 C58 C 0.85132 0.85183 0.32824
 C59 C 0.86679 0.84390 0.32048
 C60 C 0.87461 0.82822 0.32808
 C61 C 0.86683 0.82065 0.34377
 C62 C 0.85136 0.82843 0.35169
 C63 C 0.84356 0.84407 0.34389
 C64 C 0.84337 0.86725 0.32042
 C65 C 0.82759 0.87509 0.32793
 C66 C 0.82006 0.86726 0.34368
 C67 C 0.82789 0.85183 0.35164
 C68 C 0.82011 0.84390 0.36709
 C69 C 0.82772 0.82823 0.37491
 C70 C 0.84344 0.82065 0.36713
 H71 H 0.87261 0.84987 0.30838
 H72 H 0.87267 0.80856 0.34978
 H73 H 0.84945 0.87299 0.30833
 H74 H 0.80795 0.87300 0.34975
 H75 H 0.80800 0.84988 0.37290
 H76 H 0.84945 0.80857 0.37298
 C77 C 0.64835 0.64837 0.32823
 C78 C 0.63292 0.65633 0.32043
 C79 C 0.62511 0.67202 0.32802
 C80 C 0.63287 0.67957 0.34373
 C81 C 0.64830 0.67176 0.35168
 C82 C 0.65609 0.65611 0.34390
 C83 C 0.65630 0.63293 0.32043
 C84 C 0.67199 0.62512 0.32802
 C85 C 0.67955 0.63288 0.34373
 C86 C 0.67174 0.64832 0.35167
 C87 C 0.67950 0.65623 0.36713
 C88 C 0.67190 0.67192 0.37493
 C89 C 0.65621 0.67952 0.36713
 H90 H 0.62711 0.65036 0.30833
 H91 H 0.62703 0.69167 0.34972
 H92 H 0.65034 0.62713 0.30833
 H93 H 0.69164 0.62704 0.34971
 H94 H 0.69160 0.65024 0.37296
 H95 H 0.65021 0.69162 0.37296
 C96 C 0.64865 0.14825 -0.17190
 C97 C 0.63318 0.15619 -0.17966
 C98 C 0.62538 0.17188 -0.17208
 C99 C 0.63317 0.17946 -0.15640
 C100 C 0.64862 0.17167 -0.14848
 C101 C 0.65642 0.15602 -0.15626
 C102 C 0.65659 0.13281 -0.17970
 C103 C 0.67235 0.12496 -0.17219
 C104 C 0.67989 0.13281 -0.15645
 C105 C 0.67207 0.14825 -0.14851
 C106 C 0.67986 0.15618 -0.13308
 C107 C 0.67226 0.17188 -0.12528
 C108 C 0.65656 0.17946 -0.13305
 H109 H 0.62736 0.15021 -0.19175
 H110 H 0.62733 0.19156 -0.15041
 H111 H 0.65050 0.12707 -0.19178
 H112 H 0.69199 0.12706 -0.15038
 H113 H 0.69197 0.15020 -0.12726
 H114 H 0.65056 0.19155 -0.12722
 C115 C 0.14877 0.64830 -0.17197
 C116 C 0.13331 0.65623 -0.17974
 C117 C 0.12549 0.67193 -0.17216
 C118 C 0.13328 0.67950 -0.15647
 C119 C 0.14873 0.67171 -0.14855
 C120 C 0.15653 0.65606 -0.15633
 C121 C 0.15671 0.63286 -0.17977
 C122 C 0.17248 0.62501 -0.17225
 C123 C 0.18001 0.63286 -0.15652
 C124 C 0.17219 0.64830 -0.14858
 C125 C 0.17997 0.65624 -0.13314
 C126 C 0.17237 0.67192 -0.12534
 C127 C 0.15666 0.67950 -0.13312
 H128 H 0.12748 0.65025 -0.19183
 H129 H 0.12744 0.69160 -0.15048
 H130 H 0.15063 0.62712 -0.19185
 H131 H 0.19211 0.62712 -0.15044
 H132 H 0.19208 0.65026 -0.12732
 H133 H 0.15065 0.69159 -0.12729
 C134 C 0.14851 0.14849 0.32782
 C135 C 0.13308 0.15645 0.32000
 C136 C 0.12519 0.17218 0.32755
 C137 C 0.13298 0.17966 0.34334
 C138 C 0.14840 0.17183 0.35129
 C139 C 0.15621 0.15621 0.34350
 C140 C 0.15648 0.13307 0.32000
 C141 C 0.17221 0.12519 0.32756
 C142 C 0.17968 0.13299 0.34335
 C143 C 0.17183 0.14840 0.35130
 C144 C 0.17956 0.15628 0.36679
 C145 C 0.17193 0.17195 0.37461
 C146 C 0.15627 0.17956 0.36679
 H147 H 0.12738 0.15041 0.30788
 H148 H 0.12720 0.19173 0.34945
 H149 H 0.15045 0.12736 0.30788
 H150 H 0.19176 0.12722 0.34946
 H151 H 0.19164 0.15027 0.37264
 H152 H 0.15025 0.19164 0.37264
 C153 C 0.64830 0.35173 0.67151
 C154 C 0.63285 0.34380 0.67930
 C155 C 0.62504 0.32813 0.67169
 C156 C 0.63281 0.32057 0.65598
 C157 C 0.64826 0.32836 0.64805
 C158 C 0.65606 0.34399 0.65584
 C159 C 0.65627 0.36714 0.67933
 C160 C 0.67197 0.37493 0.67176
 C161 C 0.67954 0.36716 0.65604
 C162 C 0.67172 0.35175 0.64808
 C163 C 0.67949 0.34384 0.63262
 C164 C 0.67189 0.32817 0.62481
 C165 C 0.65618 0.32059 0.63259
 H166 H 0.62705 0.34977 0.69141
 H167 H 0.62697 0.30849 0.64998
 H168 H 0.65029 0.37295 0.69144
 H169 H 0.69164 0.37298 0.65007
 H170 H 0.69160 0.34981 0.62681
 H171 H 0.65018 0.30851 0.62675
 C172 C 0.64816 0.85137 1.17195
 C173 C 0.63272 0.84345 1.17977
 C174 C 0.62485 0.82771 1.17224
 C175 C 0.63268 0.82017 1.15649
 C176 C 0.64812 0.82796 1.14855
 C177 C 0.65591 0.84360 1.15631
 C178 C 0.65612 0.86680 1.17973
 C179 C 0.67181 0.87458 1.17214
 C180 C 0.67937 0.86679 1.15645
 C181 C 0.67156 0.85136 1.14852
 C182 C 0.67934 0.84343 1.13308
 C183 C 0.67174 0.82774 1.12529
 C184 C 0.65604 0.82017 1.13309
 H185 H 0.62698 0.84954 1.19186
 H186 H 0.62692 0.80808 1.15041
 H187 H 0.65015 0.87263 1.19183
 H188 H 0.69147 0.87261 1.15045
 H189 H 0.69143 0.84941 1.12724
 H190 H 0.65005 0.80808 1.12727
 C191 C 0.14830 0.35134 1.17212
 C192 C 0.13289 0.34337 1.17995
 C193 C 0.12507 0.32760 1.17243
 C194 C 0.13291 0.32009 1.15667
 C195 C 0.14831 0.32793 1.14871
 C196 C 0.15606 0.34359 1.15646
 C197 C 0.15621 0.36681 1.17989
 C198 C 0.17188 0.37464 1.17228
 C199 C 0.17944 0.36687 1.15657
 C200 C 0.17168 0.35141 1.14866
 C201 C 0.17946 0.34350 1.13320
 C202 C 0.17190 0.32779 1.12543
 C203 C 0.15624 0.32017 1.13325
 H204 H 0.12715 0.34943 1.19205
 H205 H 0.12718 0.30799 1.15060
 H206 H 0.15024 0.37262 1.19200
 H207 H 0.19151 0.37272 1.15056
 H208 H 0.19153 0.34952 1.12736
 H209 H 0.15028 0.30806 1.12744
 C210 C 0.14803 0.85142 0.67195
 C211 C 0.13261 0.84346 0.67978
 C212 C 0.12475 0.82772 0.67223
 C213 C 0.13257 0.82022 0.65645
 C214 C 0.14799 0.82806 0.64850
 C215 C 0.15576 0.84369 0.65628
 C216 C 0.15597 0.86685 0.67975
 C217 C 0.17165 0.87467 0.67215
 C218 C 0.17919 0.86693 0.65642
 C219 C 0.17139 0.85150 0.64848
 C220 C 0.17915 0.84361 0.63300
 C221 C 0.17156 0.82793 0.62520
 C222 C 0.15590 0.82031 0.63301
 H223 H 0.12689 0.84951 0.69189
 H224 H 0.12682 0.80814 0.65036
 H225 H 0.15002 0.87265 0.69188
 H226 H 0.19126 0.87277 0.65041
 H227 H 0.19122 0.84963 0.62716
 H228 H 0.14991 0.80822 0.62718
 C229 C 0.35154 0.64840 0.67158
 C230 C 0.36698 0.65635 0.67937
 C231 C 0.37476 0.67205 0.67180
 C232 C 0.36698 0.67963 0.65610
 C233 C 0.35154 0.67183 0.64816
 C234 C 0.34377 0.65617 0.65594
 C235 C 0.34361 0.63296 0.67938
 C236 C 0.32791 0.62517 0.67181
 C237 C 0.32034 0.63295 0.65611
 C238 C 0.32812 0.64840 0.64817
 C239 C 0.32034 0.65633 0.63273
 C240 C 0.32791 0.67203 0.62494
 C241 C 0.34360 0.67962 0.63273
 H242 H 0.37279 0.65036 0.69147
 H243 H 0.37280 0.69173 0.65012
 H244 H 0.34959 0.62714 0.69147
 H245 H 0.30824 0.62713 0.65013
 H246 H 0.30824 0.65034 0.62691
 H247 H 0.34959 0.69172 0.62690
 C248 C 0.35166 0.14841 1.17233
 C249 C 0.36710 0.15634 1.18013
 C250 C 0.37499 0.17205 1.17256
 C251 C 0.36718 0.17955 1.15678
 C252 C 0.35174 0.17175 1.14886
 C253 C 0.34393 0.15614 1.15666
 C254 C 0.34368 0.13299 1.18016
 C255 C 0.32794 0.12514 1.17262
 C256 C 0.32045 0.13296 1.15684
 C257 C 0.32830 0.14837 1.14889
 C258 C 0.32055 0.15626 1.13341
 C259 C 0.32817 0.17192 1.12558
 C260 C 0.34385 0.17951 1.13337
 H261 H 0.37282 0.15028 1.19224
 H262 H 0.37296 0.19162 1.15066
 H263 H 0.34973 0.12726 1.19228
 H264 H 0.30837 0.12722 1.15075
 H265 H 0.30846 0.15028 1.12758
 H266 H 0.34986 0.19158 1.12752
 C267 C 0.85147 0.64803 1.17201
 C268 C 0.86691 0.65599 1.17979
 C269 C 0.87471 0.67167 1.17217
 C270 C 0.86694 0.67921 1.15646
 C271 C 0.85150 0.67140 1.14854
 C272 C 0.84372 0.65577 1.15635
 C273 C 0.84353 0.63261 1.17984
 C274 C 0.82779 0.62474 1.17231
 C275 C 0.82027 0.63256 1.15655
 C276 C 0.82808 0.64798 1.14859
 C277 C 0.82031 0.65589 1.13312
 C278 C 0.82790 0.67157 1.12530
 C279 C 0.84359 0.67916 1.13308
 H280 H 0.87273 0.65004 1.19190
 H281 H 0.87276 0.69129 1.15045
 H282 H 0.84960 0.62689 1.19195
 H283 H 0.80819 0.62680 1.15047
 H284 H 0.80822 0.64990 1.12730
 H285 H 0.84958 0.69125 1.12723
 C286 C 0.85158 0.14851 0.67172
 C287 C 0.86700 0.15646 0.67952
 C288 C 0.87480 0.17215 0.67194
 C289 C 0.86704 0.17972 0.65622
 C290 C 0.85162 0.17191 0.64827
 C291 C 0.84384 0.15626 0.65605
 C292 C 0.84364 0.13308 0.67952
 C293 C 0.82795 0.12527 0.67193
 C294 C 0.82040 0.13304 0.65622
 C295 C 0.82820 0.14848 0.64827
 C296 C 0.82044 0.15639 0.63281
 C297 C 0.82803 0.17208 0.62501
 C298 C 0.84371 0.17968 0.63281
 H299 H 0.87281 0.15049 0.69163
 H300 H 0.87287 0.19181 0.65024
 H301 H 0.84960 0.12727 0.69163
 H302 H 0.80831 0.12721 0.65023
 H303 H 0.80835 0.15040 0.62698
 H304 H 0.84970 0.19177 0.62698
 C305 C 0.35130 0.35153 0.67185
 C306 C 0.34335 0.36697 0.67964
 C307 C 0.32764 0.37476 0.67209
 C308 C 0.32004 0.36696 0.65642
 C309 C 0.32784 0.35151 0.64848
 C310 C 0.34351 0.34375 0.65623
 C311 C 0.36676 0.34360 0.67962
 C312 C 0.37456 0.32790 0.67204
 C313 C 0.36676 0.32031 0.65636
 C314 C 0.35130 0.32809 0.64845
 C315 C 0.34335 0.32029 0.63303
 C316 C 0.32763 0.32787 0.62527
 C317 C 0.32004 0.34356 0.63306
 H318 H 0.34935 0.37280 0.69172
 H319 H 0.30792 0.37278 0.65046
 H320 H 0.37260 0.34959 0.69170
 H321 H 0.37259 0.30821 0.65038
 H322 H 0.34935 0.30820 0.62721
 H323 H 0.30792 0.34954 0.62725
 C324 C 0.35167 0.85221 0.17150
 C325 C 0.34372 0.86765 0.17930
 C326 C 0.32801 0.87544 0.17175
 C327 C 0.32041 0.86764 0.15607
 C328 C 0.32822 0.85220 0.14812
 C329 C 0.34389 0.84443 0.15587
 C330 C 0.36713 0.84428 0.17927
 C331 C 0.37494 0.82858 0.17169
 C332 C 0.36714 0.82100 0.15601
 C333 C 0.35168 0.82879 0.14809
 C334 C 0.34374 0.82099 0.13267
 C335 C 0.32802 0.82856 0.12490
 C336 C 0.32042 0.84425 0.13270
 H337 H 0.34972 0.87347 0.19138
 H338 H 0.30830 0.87346 0.15011
 H339 H 0.37296 0.85026 0.19136
 H340 H 0.37298 0.80890 0.15002
 H341 H 0.34974 0.80890 0.12684
 H342 H 0.30831 0.85023 0.12689
 C343 C 0.85214 0.35157 0.17157
 C344 C 0.84420 0.36703 0.17934
 C345 C 0.82851 0.37484 0.17175
 C346 C 0.82094 0.36704 0.15606
 C347 C 0.82873 0.35159 0.14814
 C348 C 0.84438 0.34380 0.15593
 C349 C 0.86757 0.34361 0.17937
 C350 C 0.87537 0.32790 0.17181
 C351 C 0.86758 0.32032 0.15612
 C352 C 0.85215 0.32812 0.14818
 C353 C 0.84422 0.32034 0.13274
 C354 C 0.82853 0.32794 0.12494
 C355 C 0.82095 0.34365 0.13271
 H356 H 0.85017 0.37285 0.19143
 H357 H 0.80885 0.37288 0.15007
 H358 H 0.87339 0.34960 0.19146
 H359 H 0.87341 0.30821 0.15015
 H360 H 0.85020 0.30822 0.12693
 H361 H 0.80886 0.34965 0.12688
 C362 C 0.85156 0.85180 0.67179
 C363 C 0.84361 0.86723 0.67960
 C364 C 0.82788 0.87501 0.67205
 C365 C 0.82029 0.86723 0.65637
 C366 C 0.82810 0.85179 0.64842
 C367 C 0.84378 0.84403 0.65615
 C368 C 0.86703 0.84388 0.67955
 C369 C 0.87485 0.82819 0.67195
 C370 C 0.86705 0.82061 0.65627
 C371 C 0.85158 0.82839 0.64836
 C372 C 0.84363 0.82060 0.63294
 C373 C 0.82791 0.82817 0.62518
 C374 C 0.82030 0.84386 0.63299
 H375 H 0.84960 0.87306 0.69168
 H376 H 0.80817 0.87304 0.65042
 H377 H 0.87286 0.84986 0.69163
 H378 H 0.87289 0.80852 0.65027
 H379 H 0.84963 0.80851 0.62710
 H380 H 0.80819 0.84984 0.62719
 C381 C 0.64841 0.64839 0.67219
 C382 C 0.65638 0.63295 0.67999
 C383 C 0.67207 0.62515 0.67239
 C384 C 0.67962 0.63293 0.65668
 C385 C 0.67180 0.64836 0.64873
 C386 C 0.65615 0.65614 0.65652
 C387 C 0.63296 0.65634 0.67998
 C388 C 0.62514 0.67202 0.67239
 C389 C 0.63291 0.67958 0.65667
 C390 C 0.64835 0.67178 0.64873
 C391 C 0.65626 0.67955 0.63327
 C392 C 0.67196 0.67196 0.62547
 C393 C 0.67957 0.65628 0.63327
 H394 H 0.65041 0.62714 0.69210
 H395 H 0.69172 0.62709 0.65068
 H396 H 0.62716 0.65037 0.69209
 H397 H 0.62706 0.69167 0.65067
 H398 H 0.65025 0.69164 0.62744
 H399 H 0.69166 0.65029 0.62744
 C400 C 0.64845 0.14802 0.17145
 C401 C 0.65640 0.13259 0.17926
 C402 C 0.67214 0.12483 0.17173
 C403 C 0.67976 0.13263 0.15606
 C404 C 0.67195 0.14807 0.14810
 C405 C 0.65625 0.15581 0.15582
 C406 C 0.63296 0.15593 0.17919
 C407 C 0.62515 0.17162 0.17160
 C408 C 0.63297 0.17922 0.15593
 C409 C 0.64846 0.17146 0.14804
 C410 C 0.65643 0.17927 0.13262
 C411 C 0.67217 0.17172 0.12488
 C412 C 0.67977 0.15603 0.13269
 H413 H 0.65039 0.12675 0.19133
 H414 H 0.69189 0.12683 0.15011
 H415 H 0.62712 0.14993 0.19127
 H416 H 0.62713 0.19132 0.14993
 H417 H 0.65043 0.19136 0.12679
 H418 H 0.69190 0.15006 0.12690
 C419 C 0.14828 0.64838 0.17150
 C420 C 0.15622 0.63293 0.17929
 C421 C 0.17192 0.62514 0.17172
 C422 C 0.17952 0.63293 0.15604
 C423 C 0.17173 0.64838 0.14811
 C424 C 0.15607 0.65616 0.15586
 C425 C 0.13283 0.65632 0.17928
 C426 C 0.12504 0.67203 0.17170
 C427 C 0.13284 0.67962 0.15602
 C428 C 0.14830 0.67183 0.14810
 C429 C 0.15625 0.67962 0.13267
 C430 C 0.17196 0.67204 0.12489
 C431 C 0.17954 0.65633 0.13268
 H432 H 0.15022 0.62710 0.19137
 H433 H 0.19163 0.62710 0.15007
 H434 H 0.12700 0.65033 0.19136
 H435 H 0.12702 0.69173 0.15005
 H436 H 0.15027 0.69173 0.12685
 H437 H 0.19165 0.65034 0.12687
 C438 C 0.14817 0.14822 0.67216
 C439 C 0.15613 0.13279 0.67997
 C440 C 0.17180 0.12496 0.67236
 C441 C 0.17935 0.13271 0.65663
 C442 C 0.17154 0.14815 0.64868
 C443 C 0.15591 0.15595 0.65648
 C444 C 0.13275 0.15620 0.67997
 C445 C 0.12494 0.17189 0.67237
 C446 C 0.13270 0.17943 0.65665
 C447 C 0.14812 0.17160 0.64869
 C448 C 0.15602 0.17935 0.63321
 C449 C 0.17170 0.17173 0.62540
 C450 C 0.17930 0.15604 0.63321
 H451 H 0.15017 0.12699 0.69209
 H452 H 0.19143 0.12686 0.65063
 H453 H 0.12695 0.15025 0.69210
 H454 H 0.12686 0.19152 0.65065
 H455 H 0.15002 0.19144 0.62738
 H456 H 0.19138 0.15003 0.62737
 C457 C 0.35166 0.64858 0.32806
 C458 C 0.34374 0.63313 0.32029
 C459 C 0.32805 0.62532 0.32788
 C460 C 0.32047 0.63311 0.34357
 C461 C 0.32825 0.64857 0.35149
 C462 C 0.34389 0.65635 0.34371
 C463 C 0.36709 0.65653 0.32026
 C464 C 0.37487 0.67224 0.32782
 C465 C 0.36707 0.67982 0.34351
 C466 C 0.35164 0.67202 0.35146
 C467 C 0.34370 0.67981 0.36690
 C468 C 0.32802 0.67221 0.37470
 C469 C 0.32045 0.65650 0.36692
 H470 H 0.34973 0.62730 0.30819
 H471 H 0.30838 0.62728 0.34957
 H472 H 0.37292 0.65055 0.30817
 H473 H 0.37289 0.69193 0.34948
 H474 H 0.34967 0.69192 0.37271
 H475 H 0.30836 0.65051 0.37276
 C476 C 0.35187 0.14796 0.82851
 C477 C 0.34394 0.13251 0.82074
 C478 C 0.32825 0.12471 0.82834
 C479 C 0.32068 0.13250 0.84403
 C480 C 0.32846 0.14795 0.85195
 C481 C 0.34410 0.15573 0.84417
 C482 C 0.36730 0.15591 0.82071
 C483 C 0.37508 0.17162 0.82827
 C484 C 0.36729 0.17919 0.84396
 C485 C 0.35187 0.17139 0.85192
 C486 C 0.34393 0.17918 0.86736
 C487 C 0.32825 0.17159 0.87516
 C488 C 0.32067 0.15589 0.86739
 H489 H 0.34992 0.12669 0.80864
 H490 H 0.30859 0.12666 0.85003
 H491 H 0.37311 0.14993 0.80861
 H492 H 0.37311 0.19130 0.84993
 H493 H 0.34991 0.19129 0.87316
 H494 H 0.30858 0.14989 0.87323
 C495 C 0.85200 0.64819 0.82836
 C496 C 0.84410 0.63272 0.82060
 C497 C 0.82843 0.62490 0.82820
 C498 C 0.82083 0.63268 0.84388
 C499 C 0.82859 0.64815 0.85179
 C500 C 0.84421 0.65596 0.84400
 C501 C 0.86741 0.65617 0.82055
 C502 C 0.87517 0.67189 0.82810
 C503 C 0.86736 0.67947 0.84379
 C504 C 0.85194 0.67165 0.85175
 C505 C 0.84399 0.67943 0.86718
 C506 C 0.82832 0.67181 0.87499
 C507 C 0.82078 0.65609 0.86722
 H508 H 0.85009 0.62690 0.80850
 H509 H 0.80875 0.62683 0.84988
 H510 H 0.87325 0.65018 0.80846
 H511 H 0.87316 0.69159 0.84975
 H512 H 0.84994 0.69155 0.87298
 H513 H 0.80870 0.65007 0.87306
 C514 C 0.85206 0.14809 0.32816
 C515 C 0.84413 0.13264 0.32039
 C516 C 0.82842 0.12487 0.32796
 C517 C 0.82082 0.13268 0.34364
 C518 C 0.82861 0.14812 0.35156
 C519 C 0.84428 0.15588 0.34379
 C520 C 0.86752 0.15601 0.32038
 C521 C 0.87531 0.17171 0.32795
 C522 C 0.86750 0.17931 0.34362
 C523 C 0.85204 0.17154 0.35155
 C524 C 0.84409 0.17935 0.36697
 C525 C 0.82838 0.17179 0.37475
 C526 C 0.82080 0.15608 0.36697
 H527 H 0.85012 0.12680 0.30831
 H528 H 0.80872 0.12687 0.34962
 H529 H 0.87336 0.15001 0.30830
 H530 H 0.87332 0.19142 0.34959
 H531 H 0.85007 0.19146 0.37278
 H532 H 0.80870 0.15011 0.37279
 C533 C 0.64833 0.35145 0.32767
 C534 C 0.65627 0.36690 0.31988
 C535 C 0.67194 0.37471 0.32748
 C536 C 0.67949 0.36694 0.34319
 C537 C 0.67170 0.35150 0.35112
 C538 C 0.65608 0.34370 0.34334
 C539 C 0.63290 0.34349 0.31987
 C540 C 0.62511 0.32780 0.32746
 C541 C 0.63288 0.32024 0.34317
 C542 C 0.64831 0.32805 0.35112
 C543 C 0.65623 0.32028 0.36658
 C544 C 0.67190 0.32789 0.37438
 C545 C 0.67948 0.34358 0.36658
 H546 H 0.65030 0.37271 0.30777
 H547 H 0.69157 0.37278 0.34919
 H548 H 0.62709 0.34946 0.30776
 H549 H 0.62706 0.30814 0.34917
 H550 H 0.65024 0.30818 0.37241
 H551 H 0.69156 0.34959 0.37241
 C552 C 0.64802 0.85187 0.82861
 C553 C 0.65595 0.86732 0.82084
 C554 C 0.67166 0.87509 0.82841
 C555 C 0.67926 0.86726 0.84407
 C556 C 0.67147 0.85180 0.85199
 C557 C 0.65580 0.84406 0.84423
 C558 C 0.63256 0.84395 0.82083
 C559 C 0.62477 0.82824 0.82839
 C560 C 0.63258 0.82062 0.84406
 C561 C 0.64803 0.82839 0.85198
 C562 C 0.65599 0.82056 0.86739
 C563 C 0.67170 0.82812 0.87517
 C564 C 0.67928 0.84383 0.86740
 H565 H 0.64996 0.87317 0.80877
 H566 H 0.69137 0.87306 0.85004
 H567 H 0.62673 0.84997 0.80876
 H568 H 0.62676 0.80851 0.85002
 H569 H 0.65001 0.80845 0.87320
 H570 H 0.69139 0.84979 0.87321
 C571 C 0.14810 0.35187 0.82878
 C572 C 0.15603 0.36732 0.82100
 C573 C 0.17174 0.37509 0.82856
 C574 C 0.17935 0.36726 0.84422
 C575 C 0.17157 0.35180 0.85214
 C576 C 0.15590 0.34405 0.84439
 C577 C 0.13264 0.34396 0.82100
 C578 C 0.12486 0.32824 0.82856
 C579 C 0.13268 0.32062 0.84422
 C580 C 0.14814 0.32838 0.85214
 C581 C 0.15610 0.32055 0.86754
 C582 C 0.17182 0.32811 0.87531
 C583 C 0.17939 0.34382 0.86754
 H584 H 0.15002 0.37318 0.80894
 H585 H 0.19147 0.37306 0.85018
 H586 H 0.12680 0.34997 0.80894
 H587 H 0.12686 0.30850 0.85018
 H588 H 0.15013 0.30844 0.87335
 H589 H 0.19150 0.34979 0.87335
 C590 C 0.14815 0.85213 0.32807
 C591 C 0.15609 0.86758 0.32029
 C592 C 0.17177 0.87538 0.32788
 C593 C 0.17934 0.86759 0.34358
 C594 C 0.17155 0.85214 0.35151
 C595 C 0.15591 0.84436 0.34372
 C596 C 0.13273 0.84418 0.32027
 C597 C 0.12494 0.82848 0.32784
 C598 C 0.13272 0.82090 0.34354
 C599 C 0.14814 0.82870 0.35149
 C600 C 0.15607 0.82091 0.36693
 C601 C 0.17175 0.82849 0.37473
 C602 C 0.17933 0.84420 0.36695
 H603 H 0.15012 0.87340 0.30819
 H604 H 0.19142 0.87342 0.34958
 H605 H 0.12691 0.85016 0.30817
 H606 H 0.12689 0.80880 0.34952
 H607 H 0.15008 0.80880 0.37275
 H608 H 0.19142 0.85019 0.37279
 O609 O 0.25192 1.01839 0.22698
 O610 O 0.22689 0.98300 0.25182
 O611 O 0.22691 1.01839 0.25185
 O612 O 0.25184 0.98301 0.22690
 O613 O 0.27301 0.98293 0.24809
 O614 O 0.24807 1.01832 0.27305
 O615 O 0.24806 0.98294 0.27302
 O616 O 0.27308 1.01832 0.24818
 Cu617 Cu 0.23726 1.00071 0.23726
 Cu618 Cu 0.26268 1.00062 0.26272
 C619 C 0.26672 1.02443 0.23340
 C620 C 0.23326 0.97690 0.26661
 C621 C 0.23328 1.02443 0.26665
 C622 C 0.26663 0.97690 0.23329
 O623 O 0.25164 0.51783 0.72713
 O624 O 0.22670 0.48254 0.75220
 O625 O 0.22676 0.51793 0.75214
 O626 O 0.25157 0.48244 0.72719
 O627 O 0.27283 0.48243 0.74831
 O628 O 0.24801 0.51791 0.77325
 O629 O 0.24795 0.48252 0.77332
 O630 O 0.27289 0.51781 0.74825
 Cu631 Cu 0.23703 0.50019 0.73755
 Cu632 Cu 0.26255 0.50017 0.76290
 C633 C 0.26646 0.52388 0.73347
 C634 C 0.23312 0.47647 0.76698
 C635 C 0.23320 0.52401 0.76689
 C636 C 0.26638 0.47635 0.73355
 O637 O 0.75198 -0.01799 0.27320
 O638 O 0.72712 0.01741 0.24818
 O639 O 0.72705 -0.01797 0.24826
 O640 O 0.75206 0.01740 0.27312
 O641 O 0.77327 0.01731 0.25195
 O642 O 0.74826 -0.01806 0.22709
 O643 O 0.74833 0.01732 0.22702
 O644 O 0.77319 -0.01808 0.25203
 Cu645 Cu 0.73742 -0.00028 0.26282
 Cu646 Cu 0.76289 -0.00039 0.23740
 C647 C 0.76677 -0.02411 0.26683
 C648 C 0.73354 0.02344 0.23338
 C649 C 0.73344 -0.02408 0.23348
 C650 C 0.76687 0.02342 0.26672
 O651 O 0.72724 0.51746 0.74837
 O652 O 0.75219 0.48198 0.77318
 O653 O 0.75223 0.51737 0.77325
 O654 O 0.72723 0.48208 0.74826
 O655 O 0.74841 0.48211 0.72706
 O656 O 0.77340 0.51739 0.75204
 O657 O 0.77336 0.48200 0.75197
 O658 O 0.74842 0.51750 0.72716
 Cu659 Cu 0.73759 0.49972 0.76289
 Cu660 Cu 0.76303 0.49975 0.73743
 C661 C 0.73362 0.52357 0.73359
 C662 C 0.76698 0.47590 0.76676
 C663 C 0.76703 0.52344 0.76685
 C664 C 0.73360 0.47605 0.73345
 O665 O 0.22692 0.51769 0.24813
 O666 O 0.25184 0.48234 0.27315
 O667 O 0.25185 0.51773 0.27307
 O668 O 0.22689 0.48231 0.24823
 O669 O 0.24809 0.48224 0.22705
 O670 O 0.27305 0.51766 0.25189
 O671 O 0.27304 0.48228 0.25197
 O672 O 0.24812 0.51763 0.22695
 Cu673 Cu 0.23725 0.50003 0.26277
 Cu674 Cu 0.26271 0.49995 0.23734
 C675 C 0.23332 0.52373 0.23333
 C676 C 0.26664 0.47624 0.26677
 C677 C 0.26665 0.52377 0.26666
 C678 C 0.23329 0.47620 0.23346
 O679 O 0.72670 0.98258 0.75217
 O680 O 0.75165 1.01791 0.72717
 O681 O 0.75162 0.98253 0.72721
 O682 O 0.72674 1.01797 0.75215
 O683 O 0.74796 1.01795 0.77329
 O684 O 0.77285 0.98251 0.74835
 O685 O 0.77287 1.01789 0.74831
 O686 O 0.74793 0.98256 0.77331
 Cu687 Cu 0.73705 1.00025 0.73755
 Cu688 Cu 0.76253 1.00023 0.76294
 C689 C 0.73311 0.97651 0.76695
 C690 C 0.76646 1.02396 0.73353
 C691 C 0.76643 0.97644 0.73357
 C692 C 0.73316 1.02404 0.76692
 O693 O 0.74832 0.51769 0.27284
 O694 O 0.77332 0.48236 0.24787
 O695 O 0.77328 0.51775 0.24792
 O696 O 0.74829 0.48230 0.27274
 O697 O 0.72714 0.48236 0.25153
 O698 O 0.75212 0.51779 0.22671
 O699 O 0.75216 0.48240 0.22666
 O700 O 0.72715 0.51774 0.25163
 Cu701 Cu 0.76293 0.50002 0.26247
 Cu702 Cu 0.73752 0.50008 0.23700
 C703 C 0.73352 0.52378 0.26644
 C704 C 0.76695 0.47632 0.23307
 C705 C 0.76690 0.52385 0.23313
 C706 C 0.73351 0.47625 0.26631
 O707 O 0.25199 -0.01812 0.77325
 O708 O 0.22699 0.01735 0.74846
 O709 O 0.22696 -0.01804 0.74841
 O710 O 0.25198 0.01726 0.77334
 O711 O 0.27313 0.01729 0.75211
 O712 O 0.24810 -0.01802 0.72717
 O713 O 0.24814 0.01737 0.72722
 O714 O 0.27314 -0.01809 0.75201
 Cu715 Cu 0.23736 -0.00039 0.76300
 Cu716 Cu 0.26275 -0.00036 0.73750
 C717 C 0.26678 -0.02420 0.76680
 C718 C 0.23335 0.02344 0.73366
 C719 C 0.23331 -0.02409 0.73359
 C720 C 0.26677 0.02334 0.76692
 O721 O 0.24821 0.27288 0.98257
 O722 O 0.27319 0.24795 1.01792
 O723 O 0.27317 0.24792 0.98257
 O724 O 0.24819 0.27287 1.01792
 O725 O 0.22702 0.25166 1.01793
 O726 O 0.25199 0.22671 0.98259
 O727 O 0.25201 0.22674 1.01794
 O728 O 0.22703 0.25167 0.98258
 Cu729 Cu 0.26282 0.26253 1.00024
 Cu730 Cu 0.23739 0.23706 1.00026
 C731 C 0.23341 0.26648 0.97651
 C732 C 0.26681 0.23315 1.02400
 C733 C 0.26679 0.23311 0.97651
 C734 C 0.23340 0.26646 1.02399
 O735 O 0.24788 0.77332 0.48221
 O736 O 0.27282 0.74833 0.51753
 O737 O 0.27284 0.74837 0.48218
 O738 O 0.24783 0.77324 0.51756
 O739 O 0.22666 0.75203 0.51751
 O740 O 0.25167 0.72716 0.48214
 O741 O 0.25166 0.72711 0.51749
 O742 O 0.22671 0.75211 0.48216
 Cu743 Cu 0.26247 0.76295 0.49987
 Cu744 Cu 0.23705 0.73747 0.49982
 C745 C 0.23309 0.76693 0.47612
 C746 C 0.26645 0.73351 0.52358
 C747 C 0.26647 0.73358 0.47609
 C748 C 0.23303 0.76682 0.52361
 O749 O 0.27327 0.75207 -0.01783
 O750 O 0.24831 0.72713 0.01753
 O751 O 0.24837 0.72709 -0.01782
 O752 O 0.27321 0.75213 0.01753
 O753 O 0.25197 0.77330 0.01747
 O754 O 0.22713 0.74826 -0.01788
 O755 O 0.22707 0.74830 0.01747
 O756 O 0.25203 0.77324 -0.01789
 Cu757 Cu 0.26292 0.73748 -0.00014
 Cu758 Cu 0.23742 0.76290 -0.00021
 C759 C 0.26686 0.76686 -0.02393
 C760 C 0.23349 0.73352 0.02357
 C761 C 0.23357 0.73346 -0.02392
 C762 C 0.26677 0.76694 0.02356
 O763 O 0.27279 0.25159 0.48246
 O764 O 0.24780 0.22664 0.51778
 O765 O 0.24783 0.22667 0.48242
 O766 O 0.27272 0.25160 0.51781
 O767 O 0.25152 0.27280 0.51779
 O768 O 0.22663 0.24787 0.48240
 O769 O 0.22660 0.24784 0.51776
 O770 O 0.25159 0.27280 0.48244
 Cu771 Cu 0.26241 0.23699 0.50012
 Cu772 Cu 0.23695 0.26246 0.50009
 C773 C 0.26640 0.26640 0.47638
 C774 C 0.23299 0.23303 0.52383
 C775 C 0.23304 0.23307 0.47633
 C776 C 0.26631 0.26640 0.52387
 O777 O 0.74802 0.77283 0.98246
 O778 O 0.77296 0.74783 1.01779
 O779 O 0.77301 0.74790 0.98244
 O780 O 0.74800 0.77278 1.01780
 O781 O 0.72683 0.75157 1.01776
 O782 O 0.75184 0.72669 0.98239
 O783 O 0.75179 0.72662 1.01774
 O784 O 0.72685 0.75162 0.98241
 Cu785 Cu 0.76263 0.76246 1.00013
 Cu786 Cu 0.73720 0.73699 1.00007
 C787 C 0.73323 0.76644 0.97637
 C788 C 0.76657 0.73301 1.02383
 C789 C 0.76665 0.73311 0.97635
 C790 C 0.73320 0.76637 1.02385
 O791 O 0.74812 0.27307 0.48197
 O792 O 0.77308 0.24818 0.51737
 O793 O 0.77311 0.24815 0.48202
 O794 O 0.74811 0.27313 0.51732
 O795 O 0.72694 0.25191 0.51735
 O796 O 0.75195 0.22694 0.48205
 O797 O 0.75191 0.22697 0.51739
 O798 O 0.72695 0.25185 0.48200
 Cu799 Cu 0.76273 0.26276 0.49967
 Cu800 Cu 0.73731 0.23729 0.49970
 C801 C 0.73333 0.26665 0.47591
 C802 C 0.76670 0.23338 0.52346
 C803 C 0.76675 0.23333 0.47598
 C804 C 0.73331 0.26673 0.52340
 O805 O 0.77338 0.25187 -0.01787
 O806 O 0.74848 0.22687 0.01750
 O807 O 0.74847 0.22689 -0.01785
 O808 O 0.77344 0.25181 0.01748
 O809 O 0.75223 0.27301 0.01753
 O810 O 0.72726 0.24808 -0.01782
 O811 O 0.72727 0.24807 0.01753
 O812 O 0.75217 0.27306 -0.01783
 Cu813 Cu 0.76308 0.23723 -0.00019
 Cu814 Cu 0.73760 0.26269 -0.00014
 C815 C 0.76697 0.26668 -0.02392
 C816 C 0.73368 0.23326 0.02358
 C817 C 0.73366 0.23329 -0.02390
 C818 C 0.76704 0.26661 0.02357
 O819 O 0.77286 0.75194 0.48243
 O820 O 0.74798 0.72695 0.51781
 O821 O 0.74797 0.72694 0.48246
 O822 O 0.77289 0.75193 0.51778
 O823 O 0.75166 0.77310 0.51780
 O824 O 0.72674 0.74812 0.48247
 O825 O 0.72674 0.74812 0.51782
 O826 O 0.75163 0.77311 0.48245
 Cu827 Cu 0.76256 0.73731 0.50012
 Cu828 Cu 0.73706 0.76274 0.50014
 C829 C 0.76644 0.76674 0.47637
 C830 C 0.73317 0.73333 0.52389
 C831 C 0.73316 0.73332 0.47640
 C832 C 0.76647 0.76672 0.52385
 O833 O 0.98292 0.25167 0.22690
 O834 O 1.01832 0.22674 0.25184
 O835 O 0.98293 0.22672 0.25183
 O836 O 1.01831 0.25171 0.22693
 O837 O 1.01826 0.27289 0.24811
 O838 O 0.98289 0.24791 0.27301
 O839 O 1.01827 0.24793 0.27303
 O840 O 0.98288 0.27286 0.24808
 Cu841 Cu 1.00062 0.23708 0.23725
 Cu842 Cu 1.00057 0.26253 0.26268
 C843 C 0.97683 0.26647 0.23329
 C844 C 1.02437 0.23313 0.26664
 C845 C 0.97684 0.23311 0.26662
 C846 C 1.02435 0.26651 0.23332
 O847 O 0.51765 0.27301 0.74802
 O848 O 0.48235 0.24802 0.77302
 O849 O 0.51773 0.24807 0.77296
 O850 O 0.48227 0.27296 0.74808
 O851 O 0.48228 0.25176 0.72691
 O852 O 0.51774 0.22686 0.75180
 O853 O 0.48237 0.22681 0.75185
 O854 O 0.51766 0.25180 0.72685
 Cu855 Cu 0.50000 0.26265 0.76264
 Cu856 Cu 0.50002 0.23718 0.73723
 C857 C 0.52372 0.26661 0.73322
 C858 C 0.47630 0.23321 0.76665
 C859 C 0.52382 0.23327 0.76658
 C860 C 0.47619 0.26656 0.73330
 O861 O 0.01736 0.25215 0.77340
 O862 O -0.01795 0.22724 0.74838
 O863 O 0.01743 0.22720 0.74848
 O864 O -0.01802 0.25220 0.77330
 O865 O -0.01795 0.27340 0.75211
 O866 O 0.01750 0.24840 0.72730
 O867 O -0.01787 0.24844 0.72720
 O868 O 0.01744 0.27335 0.75222
 Cu869 Cu -0.00030 0.23757 0.76302
 Cu870 Cu -0.00021 0.26302 0.73758
 C871 C 0.02346 0.26695 0.76703
 C872 C -0.02397 0.23364 0.73357
 C873 C 0.02354 0.23358 0.73371
 C874 C -0.02407 0.26701 0.76688
 O875 O 0.51757 0.25146 0.27270
 O876 O 0.48212 0.22649 0.24791
 O877 O 0.51751 0.22650 0.24778
 O878 O 0.48219 0.25144 0.27283
 O879 O 0.48211 0.27264 0.25165
 O880 O 0.51743 0.24769 0.22660
 O881 O 0.48205 0.24769 0.22672
 O882 O 0.51749 0.27265 0.25151
 Cu883 Cu 0.49986 0.23684 0.26243
 Cu884 Cu 0.49976 0.26230 0.23699
 C885 C 0.52362 0.26626 0.26628
 C886 C 0.47600 0.23289 0.23314
 C887 C 0.52354 0.23289 0.23297
 C888 C 0.47609 0.26624 0.26646
 O889 O 1.01791 0.77317 0.74796
 O890 O 0.98254 0.74823 0.77292
 O891 O 1.01792 0.74821 0.77289
 O892 O 0.98253 0.77318 0.74798
 O893 O 0.98252 0.75198 0.72681
 O894 O 1.01792 0.72702 0.75171
 O895 O 0.98254 0.72703 0.75175
 O896 O 1.01791 0.75197 0.72678
 Cu897 Cu 1.00023 0.76283 0.76256
 Cu898 Cu 1.00022 0.73737 0.73713
 C899 C 1.02398 0.76677 0.73317
 C900 C 0.97647 0.73343 0.76654
 C901 C 1.02400 0.73341 0.76650
 C902 C 0.97645 0.76679 0.73320
 O903 O 0.51783 0.77338 0.24788
 O904 O 0.48239 0.74849 0.27279
 O905 O 0.51776 0.74845 0.27283
 O906 O 0.48244 0.77345 0.24786
 O907 O 0.48245 0.75225 0.22669
 O908 O 0.51777 0.72725 0.25166
 O909 O 0.48239 0.72729 0.25162
 O910 O 0.51783 0.75218 0.22672
 Cu911 Cu 0.50010 0.76307 0.26247
 Cu912 Cu 0.50011 0.73761 0.23705
 C913 C 0.52391 0.76697 0.23310
 C914 C 0.47631 0.73370 0.26640
 C915 C 0.52383 0.73363 0.26646
 C916 C 0.47638 0.76706 0.23307
 O917 O 0.01757 0.75204 0.27295
 O918 O -0.01780 0.72700 0.24814
 O919 O 0.01758 0.72707 0.24804
 O920 O -0.01781 0.75199 0.27302
 O921 O -0.01789 0.77317 0.25181
 O922 O 0.01749 0.74825 0.22684
 O923 O -0.01788 0.74818 0.22693
 O924 O 0.01749 0.77322 0.25174
 Cu925 Cu -0.00011 0.73740 0.26267
 Cu926 Cu -0.00021 0.76283 0.23720
 C927 C 0.02360 0.76685 0.26653
 C928 C -0.02391 0.73337 0.23335
 C929 C 0.02361 0.73346 0.23323
 C930 C -0.02392 0.76678 0.26662
 O931 O 0.48198 0.77330 0.75194
 O932 O 0.51747 0.74833 0.72715
 O933 O 0.48209 0.74834 0.72702
 O934 O 0.51737 0.77330 0.75206
 O935 O 0.51730 0.75211 0.77324
 O936 O 0.48202 0.72715 0.74821
 O937 O 0.51741 0.72714 0.74834
 O938 O 0.48192 0.75211 0.77313
 Cu939 Cu 0.49974 0.76295 0.73741
 Cu940 Cu 0.49966 0.73750 0.76286
 C941 C 0.47586 0.76691 0.76671
 C942 C 0.52353 0.73353 0.73356
 C943 C 0.47600 0.73354 0.73340
 C944 C 0.52339 0.76690 0.76687
 C945 C 0.41935 0.30261 0.30296
 N946 N 0.41211 0.31803 0.29599
 N947 N 0.39810 0.32609 0.30408
 C948 C 0.39076 0.31906 0.31945
 N949 N 0.39811 0.30365 0.32644
 N950 N 0.41212 0.29558 0.31836
 C951 C 0.43446 0.29343 0.29376
 N952 N 0.44145 0.27778 0.30051
 N953 N 0.45484 0.26920 0.29190
 C954 C 0.46172 0.27597 0.27623
 N955 N 0.45478 0.29166 0.26951
 N956 N 0.44140 0.30023 0.27812
 C957 C 0.41885 0.80324 0.80283
 N958 N 0.41161 0.79626 0.81823
 N959 N 0.39753 0.80429 0.82623
 C960 C 0.39008 0.81964 0.81917
 N961 N 0.39748 0.82663 0.80378
 N962 N 0.41156 0.81860 0.79577
 C963 C 0.43403 0.79409 0.79372
 N964 N 0.44102 0.80086 0.77809
 N965 N 0.45448 0.79229 0.76957
 C966 C 0.46142 0.77664 0.77637
 N967 N 0.45447 0.76990 0.79203
 N968 N 0.44102 0.77847 0.80055
 C969 C -0.08106 0.30336 0.80300
 N970 N -0.08835 0.31872 0.79594
 N971 N -0.10243 0.32675 0.80394
 C972 C -0.10984 0.31976 0.81932
 N973 N -0.10239 0.30441 0.82638
 N974 N -0.08831 0.29637 0.81839
 C975 C -0.06588 0.29421 0.79389
 N976 N -0.05890 0.27859 0.80072
 N977 N -0.04545 0.27001 0.79221
 C978 C -0.03850 0.27675 0.77655
 N979 N -0.04543 0.29241 0.76975
 N980 N -0.05888 0.30098 0.77827
 C981 C -0.08076 0.80312 0.30299
 N982 N -0.08803 0.81851 0.29597
 N983 N -0.10207 0.82655 0.30402
 C984 C -0.10942 0.81954 0.31940
 N985 N -0.10203 0.80417 0.32643
 N986 N -0.08799 0.79611 0.31839
 C987 C -0.06562 0.79395 0.29382
 N988 N -0.05862 0.77833 0.30061
 N989 N -0.04521 0.76975 0.29204
 C990 C -0.03832 0.77650 0.27635
 N991 N -0.04527 0.79217 0.26960
 N992 N -0.05868 0.80074 0.27818
 C993 C 0.58056 0.69720 0.30287
 N994 N 0.58779 0.70420 0.31827
 N995 N 0.60181 0.69612 0.32633
 C996 C 0.60917 0.68073 0.31932
 N997 N 0.60183 0.67372 0.30394
 N998 N 0.58781 0.68179 0.29587
 C999 C 0.56546 0.70639 0.29369
 N1000 N 0.55850 0.69960 0.27805
 N1001 N 0.54512 0.70820 0.26946
 C1002 C 0.53820 0.72389 0.27620
 N1003 N 0.54510 0.73063 0.29187
 N1004 N 0.55849 0.72204 0.30046
 C1005 C 0.58073 0.19697 0.80286
 N1006 N 0.58798 0.20399 0.81824
 N1007 N 0.60203 0.19594 0.82627
 C1008 C 0.60940 0.18056 0.81925
 N1009 N 0.60204 0.17353 0.80389
 N1010 N 0.58799 0.18157 0.79585
 C1011 C 0.56558 0.20613 0.79371
 N1012 N 0.55861 0.19933 0.77809
 N1013 N 0.54518 0.20789 0.76954
 C1014 C 0.53824 0.22356 0.77628
 N1015 N 0.54517 0.23033 0.79193
 N1016 N 0.55860 0.22177 0.80049
 C1017 C 1.08086 0.69704 0.80278
 N1018 N 1.08811 0.70404 0.81817
 N1019 N 1.10215 0.69599 0.82620
 C1020 C 1.10952 0.68061 0.81918
 N1021 N 1.10217 0.67359 0.80381
 N1022 N 1.08812 0.68164 0.79577
 C1023 C 1.06572 0.70621 0.79363
 N1024 N 1.05874 0.69942 0.77801
 N1025 N 1.04533 0.70800 0.76945
 C1026 C 1.03840 0.72368 0.77621
 N1027 N 1.04532 0.73043 0.79187
 N1028 N 1.05874 0.72185 0.80042
 C1029 C 1.08129 0.19683 0.30292
 N1030 N 1.08851 0.20382 0.31832
 N1031 N 1.10257 0.19578 0.32634
 C1032 C 1.11003 0.18043 0.31930
 N1033 N 1.10266 0.17345 0.30391
 N1034 N 1.08860 0.18147 0.29588
 C1035 C 1.06613 0.20598 0.29377
 N1036 N 1.05918 0.19920 0.27814
 N1037 N 1.04575 0.20776 0.26958
 C1038 C 1.03879 0.22341 0.27635
 N1039 N 1.04569 0.23016 0.29202
 N1040 N 1.05911 0.22160 0.30058
 C1041 C 0.58046 0.30301 0.69681
 N1042 N 0.58771 0.31841 0.70382
 N1043 N 0.60174 0.32646 0.69576
 C1044 C 0.60908 0.31944 0.68038
 N1045 N 0.60173 0.30407 0.67336
 N1046 N 0.58770 0.29601 0.68141
 C1047 C 0.56535 0.29383 0.70599
 N1048 N 0.55838 0.27819 0.69922
 N1049 N 0.54500 0.26960 0.70781
 C1050 C 0.53809 0.27635 0.72348
 N1051 N 0.54500 0.29204 0.73021
 N1052 N 0.55838 0.30062 0.72163
 C1053 C 0.58089 0.80316 0.19685
 N1054 N 0.58818 0.81853 0.20387
 N1055 N 0.60226 0.82652 0.19584
 C1056 C 0.60967 0.81949 0.18048
 N1057 N 0.60222 0.80413 0.17346
 N1058 N 0.58815 0.79613 0.18148
 C1059 C 0.56572 0.79404 0.20599
 N1060 N 0.55871 0.77843 0.19920
 N1061 N 0.54527 0.76989 0.20775
 C1062 C 0.53834 0.77667 0.22340
 N1063 N 0.54529 0.79232 0.23015
 N1064 N 0.55873 0.80086 0.22160
 C1065 C 1.08122 0.30289 0.19707
 N1066 N 1.08845 0.31828 0.20409
 N1067 N 1.10250 0.32633 0.19606
 C1068 C 1.10992 0.31933 0.18068
 N1069 N 1.10253 0.30395 0.17367
 N1070 N 1.08848 0.29589 0.18169
 C1071 C 1.06607 0.29372 0.20621
 N1072 N 1.05911 0.27809 0.19941
 N1073 N 1.04570 0.26951 0.20796
 C1074 C 1.03876 0.27625 0.22362
 N1075 N 1.04566 0.29192 0.23038
 N1076 N 1.05908 0.30050 0.22183
 C1077 C 1.08087 0.80306 0.69687
 N1078 N 1.08815 0.81843 0.70390
 N1079 N 1.10220 0.82646 0.69587
 C1080 C 1.10960 0.81946 0.68048
 N1081 N 1.10217 0.80410 0.67345
 N1082 N 1.08811 0.79607 0.68147
 C1083 C 1.06572 0.79391 0.70602
 N1084 N 1.05873 0.77829 0.69922
 N1085 N 1.04531 0.76973 0.70778
 C1086 C 1.03839 0.77649 0.72345
 N1087 N 1.04533 0.79215 0.73020
 N1088 N 1.05875 0.80070 0.72164
 C1089 C 0.41930 0.69718 0.69694
 N1090 N 0.41207 0.70419 0.68155
 N1091 N 0.39806 0.69613 0.67348
 C1092 C 0.39070 0.68074 0.68049
 N1093 N 0.39804 0.67372 0.69587
 N1094 N 0.41206 0.68177 0.70394
 C1095 C 0.43440 0.70635 0.70613
 N1096 N 0.44134 0.69956 0.72178
 N1097 N 0.45472 0.70813 0.73038
 C1098 C 0.46164 0.72381 0.72364
 N1099 N 0.45476 0.73057 0.70796
 N1100 N 0.44138 0.72199 0.69936
 C1101 C 0.41897 0.19663 0.19707
 N1102 N 0.41167 0.18129 0.20414
 N1103 N 0.39758 0.17328 0.19615
 C1104 C 0.39018 0.18028 0.18077
 N1105 N 0.39763 0.19561 0.17370
 N1106 N 0.41172 0.20363 0.18168
 C1107 C 0.43415 0.20576 0.20616
 N1108 N 0.44115 0.22137 0.19932
 N1109 N 0.45460 0.22992 0.20783
 C1110 C 0.46156 0.22317 0.22348
 N1111 N 0.45462 0.20753 0.23028
 N1112 N 0.44116 0.19898 0.22178
 C1113 C -0.08071 0.69687 0.19719
 N1114 N -0.08797 0.70383 0.18178
 N1115 N -0.10199 0.69574 0.17376
 C1116 C -0.10934 0.68038 0.18083
 N1117 N -0.10198 0.67340 0.19622
 N1118 N -0.08795 0.68148 0.20424
 C1119 C -0.06559 0.70607 0.20631
 N1120 N -0.05859 0.69932 0.22195
 N1121 N -0.04519 0.70793 0.23047
 C1122 C -0.03830 0.72360 0.22368
 N1123 N -0.04525 0.73031 0.20801
 N1124 N -0.05865 0.72170 0.19948
 C1125 C -0.08068 0.19729 0.69711
 N1126 N -0.08790 0.20430 0.68170
 N1127 N -0.10190 0.19624 0.67363
 C1128 C -0.10926 0.18085 0.68064
 N1129 N -0.10194 0.17383 0.69603
 N1130 N -0.08793 0.18189 0.70411
 C1131 C -0.06558 0.20646 0.70631
 N1132 N -0.05865 0.19967 0.72195
 N1133 N -0.04527 0.20824 0.73055
 C1134 C -0.03834 0.22392 0.72382
 N1135 N -0.04522 0.23068 0.70814
 N1136 N -0.05859 0.22210 0.69954
 C1137 C 0.30295 0.41940 0.30316
 N1138 N 0.31835 0.41213 0.29616
 N1139 N 0.32638 0.39808 0.30421
 C1140 C 0.31935 0.39073 0.31958
 N1141 N 0.30397 0.39811 0.32659
 N1142 N 0.29593 0.41216 0.31855
 C1143 C 0.29380 0.43454 0.29400
 N1144 N 0.27816 0.44154 0.30077
 N1145 N 0.26960 0.45495 0.29219
 C1146 C 0.27636 0.46185 0.27652
 N1147 N 0.29204 0.45491 0.26978
 N1148 N 0.30060 0.44150 0.27836
 C1149 C 0.30319 -0.08118 0.80289
 N1150 N 0.31854 -0.08846 0.79581
 N1151 N 0.32659 -0.10253 0.80381
 C1152 C 0.31963 -0.10994 0.81921
 N1153 N 0.30428 -0.10250 0.82628
 N1154 N 0.29623 -0.08843 0.81829
 C1155 C 0.29401 -0.06601 0.79379
 N1156 N 0.27840 -0.05902 0.80064
 N1157 N 0.26982 -0.04558 0.79214
 C1158 C 0.27652 -0.03863 0.77646
 N1159 N 0.29217 -0.04557 0.76964
 N1160 N 0.30075 -0.05901 0.77815
 C1161 C 0.80327 0.41889 0.80291
 N1162 N 0.81864 0.41161 0.79588
 N1163 N 0.82667 0.39754 0.80389
 C1164 C 0.81967 0.39013 0.81927
 N1165 N 0.80430 0.39756 0.82631
 N1166 N 0.79627 0.41163 0.81830
 C1167 C 0.79412 0.43406 0.79379
 N1168 N 0.77850 0.44106 0.80061
 N1169 N 0.76994 0.45451 0.79209
 C1170 C 0.77669 0.46145 0.77643
 N1171 N 0.79235 0.45451 0.76964
 N1172 N 0.80090 0.44106 0.77817
 C1173 C 0.80297 -0.08102 0.30324
 N1174 N 0.81837 -0.08829 0.29625
 N1175 N 0.82639 -0.10234 0.30430
 C1176 C 0.81935 -0.10975 0.31967
 N1177 N 0.80396 -0.10232 0.32665
 N1178 N 0.79593 -0.08826 0.31861
 C1179 C 0.79384 -0.06586 0.29406
 N1180 N 0.77821 -0.05885 0.30083
 N1181 N 0.76967 -0.04542 0.29224
 C1182 C 0.77646 -0.03852 0.27658
 N1183 N 0.79213 -0.04549 0.26985
 N1184 N 0.80067 -0.05891 0.27844
 C1185 C 0.30281 0.58060 0.69697
 N1186 N 0.31823 0.58783 0.70394
 N1187 N 0.32627 0.60185 0.69586
 C1188 C 0.31923 0.60922 0.68051
 N1189 N 0.30383 0.60188 0.67352
 N1190 N 0.29577 0.58786 0.68159
 C1191 C 0.29364 0.56549 0.70617
 N1192 N 0.27798 0.55854 0.69944
 N1193 N 0.26941 0.54516 0.70804
 C1194 C 0.27619 0.53824 0.72370
 N1195 N 0.29189 0.54514 0.73039
 N1196 N 0.30046 0.55852 0.72179
 C1197 C 0.30319 1.08129 0.19723
 N1198 N 0.31856 1.08854 0.20428
 N1199 N 0.32662 1.10259 0.19626
 C1200 C 0.31966 1.11000 0.18087
 N1201 N 0.30430 1.10259 0.17382
 N1202 N 0.29623 1.08855 0.18183
 C1203 C 0.29400 1.06615 0.20635
 N1204 N 0.27838 1.05920 0.19952
 N1205 N 0.26978 1.04579 0.20805
 C1206 C 0.27648 1.03883 0.22372
 N1207 N 0.29214 1.04573 0.23052
 N1208 N 0.30074 1.05915 0.22199
 C1209 C 0.80319 0.58082 0.19694
 N1210 N 0.81855 0.58810 0.20397
 N1211 N 0.82656 0.60217 0.19594
 C1212 C 0.81956 0.60957 0.18056
 N1213 N 0.80420 0.60213 0.17353
 N1214 N 0.79618 0.58806 0.18155
 C1215 C 0.79405 0.56565 0.20607
 N1216 N 0.77844 0.55866 0.19925
 N1217 N 0.76988 0.54522 0.20779
 C1218 C 0.77662 0.53828 0.22345
 N1219 N 0.79227 0.54522 0.23023
 N1220 N 0.80083 0.55866 0.22170
 C1221 C 0.80282 1.08072 0.69709
 N1222 N 0.81823 1.08796 0.70408
 N1223 N 0.82628 1.10198 0.69601
 C1224 C 0.81926 1.10933 0.68063
 N1225 N 0.80387 1.10198 0.67363
 N1226 N 0.79581 1.08796 0.68170
 C1227 C 0.79365 1.06561 0.70628
 N1228 N 0.77800 1.05864 0.69952
 N1229 N 0.76943 1.04526 0.70812
 C1230 C 0.77619 1.03834 0.72378
 N1231 N 0.79188 1.04525 0.73050
 N1232 N 0.80045 1.05864 0.72190
 C1233 C 0.69713 0.58055 0.30286
 N1234 N 0.70413 0.58777 0.31827
 N1235 N 0.69607 0.60179 0.32633
 C1236 C 0.68069 0.60917 0.31932
 N1237 N 0.67368 0.60185 0.30393
 N1238 N 0.68174 0.58782 0.29586
 C1239 C 0.70631 0.56543 0.29368
 N1240 N 0.69954 0.55850 0.27803
 N1241 N 0.70812 0.54511 0.26944
 C1242 C 0.72378 0.53816 0.27618
 N1243 N 0.73052 0.54504 0.29187
 N1244 N 0.72194 0.55843 0.30046
 C1245 C 0.69695 1.08102 0.80320
 N1246 N 0.70399 1.08828 0.81856
 N1247 N 0.69597 1.10236 0.82658
 C1248 C 0.68059 1.10979 0.81957
 N1249 N 0.67355 1.10237 0.80423
 N1250 N 0.68156 1.08829 0.79620
 C1251 C 0.70608 1.06584 0.79406
 N1252 N 0.69926 1.05886 0.77846
 N1253 N 0.70780 1.04542 0.76990
 C1254 C 0.72347 1.03847 0.77663
 N1255 N 0.73026 1.04540 0.79227
 N1256 N 0.72172 1.05884 0.80083
 C1257 C 0.19706 0.58105 0.80315
 N1258 N 0.20410 0.58832 0.81850
 N1259 N 0.19609 0.60240 0.82651
 C1260 C 0.18071 0.60983 0.81951
 N1261 N 0.17367 0.60240 0.80417
 N1262 N 0.18167 0.58832 0.79615
 C1263 C 0.20617 0.56586 0.79402
 N1264 N 0.19933 0.55886 0.77843
 N1265 N 0.20785 0.54541 0.76988
 C1266 C 0.22353 0.53846 0.77661
 N1267 N 0.23033 0.54540 0.79223
 N1268 N 0.22181 0.55886 0.80078
 C1269 C 0.19692 1.08132 0.30293
 N1270 N 0.18156 1.08860 0.29589
 N1271 N 0.17351 1.10266 0.30391
 C1272 C 0.18048 1.11004 0.31931
 N1273 N 0.19584 1.10259 0.32636
 N1274 N 0.20389 1.08854 0.31834
 C1275 C 0.20609 1.06617 0.29379
 N1276 N 0.22170 1.05916 0.30060
 N1277 N 0.23028 1.04574 0.29205
 C1278 C 0.22356 1.03884 0.27637
 N1279 N 0.20790 1.04580 0.26959
 N1280 N 0.19933 1.05922 0.27815
 C1281 C 0.69716 0.41940 0.69697
 N1282 N 0.68175 0.41216 0.70396
 N1283 N 0.67368 0.39817 0.69587
 C1284 C 0.68069 0.39085 0.68048
 N1285 N 0.69608 0.39820 0.67347
 N1286 N 0.70416 0.41219 0.68155
 C1287 C 0.70636 0.43448 0.70617
 N1288 N 0.72200 0.44145 0.69940
 N1289 N 0.73059 0.45481 0.70800
 C1290 C 0.72386 0.46169 0.72369
 N1291 N 0.70818 0.45478 0.73043
 N1292 N 0.69958 0.44141 0.72183
 C1293 C 0.69699 -0.08086 0.19721
 N1294 N 0.68158 -0.08808 0.20423
 N1295 N 0.67351 -0.10210 0.19619
 C1296 C 0.68052 -0.10947 0.18082
 N1297 N 0.69591 -0.10214 0.17379
 N1298 N 0.70399 -0.08812 0.18182
 C1299 C 0.70619 -0.06574 0.20636
 N1300 N 0.72184 -0.05881 0.19957
 N1301 N 0.73044 -0.04542 0.20812
 C1302 C 0.72369 -0.03847 0.22378
 N1303 N 0.70801 -0.04535 0.23054
 N1304 N 0.69941 -0.05874 0.22198
 C1305 C 0.19695 0.41930 0.19728
 N1306 N 0.20394 0.41204 0.18189
 N1307 N 0.19590 0.39799 0.17388
 C1308 C 0.18054 0.39062 0.18093
 N1309 N 0.17353 0.39798 0.19631
 N1310 N 0.18157 0.41203 0.20433
 C1311 C 0.20611 0.43445 0.20641
 N1312 N 0.19933 0.44144 0.22203
 N1313 N 0.20790 0.45487 0.23056
 C1314 C 0.22356 0.46178 0.22378
 N1315 N 0.23031 0.45484 0.20812
 N1316 N 0.22173 0.44141 0.19959
 C1317 C 0.19683 -0.08080 0.69726
 N1318 N 0.18145 -0.08806 0.70431
 N1319 N 0.17338 -0.10207 0.69625
 C1320 C 0.18035 -0.10939 0.68084
 N1321 N 0.19571 -0.10202 0.67378
 N1322 N 0.20379 -0.08801 0.68183
 C1323 C 0.20603 -0.06570 0.70643
 N1324 N 0.22165 -0.05872 0.69961
 N1325 N 0.23026 -0.04534 0.70817
 C1326 C 0.22355 -0.03845 0.72387
 N1327 N 0.20789 -0.04538 0.73066
 N1328 N 0.19929 -0.05875 0.72209
 C1329 C 0.30282 0.30272 0.41961
 N1330 N 0.31821 0.29569 0.41237
 N1331 N 0.32627 0.30373 0.39834
 C1332 C 0.31927 0.31913 0.39100
 N1333 N 0.30389 0.32618 0.39835
 N1334 N 0.29583 0.31814 0.41237
 C1335 C 0.29364 0.29356 0.43473
 N1336 N 0.27800 0.30037 0.44169
 N1337 N 0.26940 0.29181 0.45508
 C1338 C 0.27614 0.27612 0.46201
 N1339 N 0.29182 0.26935 0.45510
 N1340 N 0.30041 0.27792 0.44171
 C1341 C 0.30314 0.80310 -0.08083
 N1342 N 0.31853 0.79607 -0.08809
 N1343 N 0.32654 0.80409 -0.10216
 C1344 C 0.31949 0.81945 -0.10954
 N1345 N 0.30412 0.82649 -0.10218
 N1346 N 0.29610 0.81848 -0.08811
 C1347 C 0.29400 0.79397 -0.06567
 N1348 N 0.27836 0.80077 -0.05871
 N1349 N 0.26980 0.79222 -0.04528
 C1350 C 0.27658 0.77657 -0.03833
 N1351 N 0.29226 0.76981 -0.04524
 N1352 N 0.30082 0.77835 -0.05866
 C1353 C 0.80315 0.30305 -0.08081
 N1354 N 0.81855 0.29605 -0.08808
 N1355 N 0.82655 0.30410 -0.10213
 C1356 C 0.81948 0.31946 -0.10950
 N1357 N 0.80410 0.32647 -0.10212
 N1358 N 0.79609 0.31843 -0.08806
 C1359 C 0.79403 0.29389 -0.06566
 N1360 N 0.77840 0.30066 -0.05866
 N1361 N 0.76987 0.29208 -0.04524
 C1362 C 0.77666 0.27642 -0.03832
 N1363 N 0.79233 0.26968 -0.04527
 N1364 N 0.80087 0.27826 -0.05869
 C1365 C 0.80268 0.80312 0.41952
 N1366 N 0.81809 0.79613 0.41228
 N1367 N 0.82612 0.80419 0.39825
 C1368 C 0.81906 0.81955 0.39087
 N1369 N 0.80366 0.82655 0.39822
 N1370 N 0.79562 0.81850 0.41226
 C1371 C 0.79354 0.79395 0.43466
 N1372 N 0.77788 0.80072 0.44163
 N1373 N 0.76934 0.79214 0.45504
 C1374 C 0.77613 0.77648 0.46197
 N1375 N 0.79182 0.76975 0.45505
 N1376 N 0.80037 0.77833 0.44164
 C1377 C 0.69696 0.30309 0.58019
 N1378 N 0.70397 0.31848 0.58744
 N1379 N 0.69593 0.32652 0.60148
 C1380 C 0.68055 0.31950 0.60884
 N1381 N 0.67352 0.30413 0.60148
 N1382 N 0.68156 0.29608 0.58744
 C1383 C 0.70612 0.29393 0.56506
 N1384 N 0.69933 0.27828 0.55810
 N1385 N 0.70791 0.26971 0.54470
 C1386 C 0.72358 0.27646 0.53778
 N1387 N 0.73032 0.29214 0.54468
 N1388 N 0.72175 0.30072 0.55808
 C1389 C 0.69682 0.80265 1.08068
 N1390 N 0.70383 0.81805 1.08792
 N1391 N 0.69578 0.82609 1.10196
 C1392 C 0.68041 0.81906 1.10933
 N1393 N 0.67339 0.80368 1.10198
 N1394 N 0.68143 0.79563 1.08794
 C1395 C 0.70599 0.79350 1.06555
 N1396 N 0.69921 0.77786 1.05858
 N1397 N 0.70779 0.76930 1.04517
 C1398 C 0.72346 0.77607 1.03825
 N1399 N 0.73020 0.79175 1.04517
 N1400 N 0.72162 0.80031 1.05858
 C1401 C 0.19701 0.30275 1.08081
 N1402 N 0.20400 0.31816 1.08805
 N1403 N 0.19594 0.32619 1.10209
 C1404 C 0.18058 0.31913 1.10946
 N1405 N 0.17358 0.30374 1.10211
 N1406 N 0.18163 0.29571 1.08807
 C1407 C 0.20618 0.29361 1.06568
 N1408 N 0.19942 0.27796 1.05871
 N1409 N 0.20800 0.26941 1.04530
 C1410 C 0.22366 0.27618 1.03838
 N1411 N 0.23039 0.29186 1.04529
 N1412 N 0.22181 0.30042 1.05870
 C1413 C 0.19663 0.80298 0.58051
 N1414 N 0.18126 0.79592 0.58777
 N1415 N 0.17322 0.80393 0.60183
 C1416 C 0.18023 0.81930 0.60920
 N1417 N 0.19558 0.82637 0.60183
 N1418 N 0.20362 0.81837 0.58777
 C1419 C 0.20580 0.79387 0.56535
 N1420 N 0.22142 0.80070 0.55838
 N1421 N 0.23001 0.79218 0.54496
 C1422 C 0.22328 0.77651 0.53801
 N1423 N 0.20762 0.76971 0.54493
 N1424 N 0.19904 0.77824 0.55835
 C1425 C 0.30280 0.69714 0.58036
 N1426 N 0.29580 0.68173 0.58760
 N1427 N 0.30386 0.67369 0.60163
 C1428 C 0.31923 0.68072 0.60899
 N1429 N 0.32624 0.69610 0.60163
 N1430 N 0.31819 0.70416 0.58761
 C1431 C 0.29363 0.70631 0.56524
 N1432 N 0.30041 0.72196 0.55828
 N1433 N 0.29184 0.73053 0.54488
 C1434 C 0.27617 0.72378 0.53796
 N1435 N 0.26943 0.70809 0.54487
 N1436 N 0.27801 0.69951 0.55826
 C1437 C 0.30314 0.19692 1.08089
 N1438 N 0.31852 0.20395 1.08814
 N1439 N 0.32655 0.19593 1.10220
 C1440 C 0.31952 0.18057 1.10958
 N1441 N 0.30416 0.17352 1.10222
 N1442 N 0.29613 0.18153 1.08816
 C1443 C 0.29399 0.20605 1.06573
 N1444 N 0.27837 0.19923 1.05877
 N1445 N 0.26980 0.20777 1.04535
 C1446 C 0.27654 0.22344 1.03840
 N1447 N 0.29220 0.23022 1.04532
 N1448 N 0.30077 0.22168 1.05874
 C1449 C 0.80286 0.69663 1.08066
 N1450 N 0.81825 0.70364 1.08791
 N1451 N 0.82627 0.69560 1.10195
 C1452 C 0.81924 0.68023 1.10932
 N1453 N 0.80387 0.67321 1.10196
 N1454 N 0.79583 0.68124 1.08792
 C1455 C 0.79371 0.70580 1.06552
 N1456 N 0.77808 0.69901 1.05854
 N1457 N 0.76953 0.70759 1.04513
 C1458 C 0.77629 0.72327 1.03822
 N1459 N 0.79195 0.73002 1.04515
 N1460 N 0.80051 0.72144 1.05856
 C1461 C 0.80299 0.19712 0.58035
 N1462 N 0.81837 0.20416 0.58761
 N1463 N 0.82640 0.19612 0.60167
 C1464 C 0.81937 0.18074 0.60903
 N1465 N 0.80402 0.17370 0.60166
 N1466 N 0.79598 0.18173 0.58761
 C1467 C 0.79385 0.20627 0.56520
 N1468 N 0.77823 0.19946 0.55822
 N1469 N 0.76967 0.20801 0.54480
 C1470 C 0.77642 0.22368 0.53787
 N1471 N 0.79207 0.23045 0.54480
 N1472 N 0.80063 0.22190 0.55822
 C1473 C 0.69691 0.69698 0.41956
 N1474 N 0.70396 0.68160 0.41230
 N1475 N 0.69594 0.67357 0.39826
 C1476 C 0.68055 0.68059 0.39090
 N1477 N 0.67349 0.69595 0.39827
 N1478 N 0.68151 0.70399 0.41231
 C1479 C 0.70605 0.70614 0.43470
 N1480 N 0.69922 0.72176 0.44168
 N1481 N 0.70777 0.73033 0.45509
 C1482 C 0.72345 0.72359 0.46201
 N1483 N 0.73024 0.70793 0.45508
 N1484 N 0.72169 0.69936 0.44167
 C1485 C 0.69734 0.19697 -0.08070
 N1486 N 0.70437 0.18157 -0.08795
 N1487 N 0.69633 0.17353 -0.10198
 C1488 C 0.68094 0.18055 -0.10933
 N1489 N 0.67390 0.19593 -0.10196
 N1490 N 0.68194 0.20398 -0.08794
 C1491 C 0.70650 0.20613 -0.06558
 N1492 N 0.69970 0.22176 -0.05860
 N1493 N 0.70826 0.23032 -0.04520
 C1494 C 0.72394 0.22357 -0.03829
 N1495 N 0.73071 0.20790 -0.04522
 N1496 N 0.72215 0.19933 -0.05862
 C1497 C 0.19739 0.69704 -0.08074
 N1498 N 0.20445 0.68165 -0.08799
 N1499 N 0.19642 0.67360 -0.10203
 C1500 C 0.18103 0.68061 -0.10938
 N1501 N 0.17396 0.69597 -0.10202
 N1502 N 0.18198 0.70403 -0.08799
 C1503 C 0.20651 0.70621 -0.06561
 N1504 N 0.19967 0.72184 -0.05865
 N1505 N 0.20820 0.73043 -0.04524
 C1506 C 0.22389 0.72370 -0.03831
 N1507 N 0.23069 0.70804 -0.04522
 N1508 N 0.22216 0.69945 -0.05862
 C1509 C 0.19686 0.19688 0.41936
 N1510 N 0.18148 0.20393 0.41209
 N1511 N 0.17349 0.19593 0.39801
 C1512 C 0.18055 0.18057 0.39063
 N1513 N 0.19590 0.17351 0.39801
 N1514 N 0.20390 0.18150 0.41209
 C1515 C 0.20597 0.20599 0.43454
 N1516 N 0.22159 0.19918 0.44154
 N1517 N 0.23012 0.20771 0.45498
 C1518 C 0.22334 0.22337 0.46192
 N1519 N 0.20769 0.23015 0.45497
 N1520 N 0.19916 0.22162 0.44153
 C1521 C 0.30257 0.41940 0.69720
 N1522 N 0.29552 0.41213 0.68184
 N1523 N 0.30355 0.39808 0.67380
 C1524 C 0.31896 0.39073 0.68078
 N1525 N 0.32602 0.39810 0.69611
 N1526 N 0.31800 0.41215 0.70417
 C1527 C 0.29344 0.43455 0.70637
 N1528 N 0.30028 0.44154 0.72196
 N1529 N 0.29175 0.45498 0.73053
 C1530 C 0.27606 0.46191 0.72382
 N1531 N 0.26925 0.45498 0.70820
 N1532 N 0.27778 0.44154 0.69962
 C1533 C 0.30292 0.92004 0.19689
 N1534 N 0.29589 0.91281 0.18150
 N1535 N 0.30394 0.89877 0.17344
 C1536 C 0.31932 0.89140 0.18044
 N1537 N 0.32636 0.89874 0.19581
 N1538 N 0.31832 0.91277 0.20388
 C1539 C 0.29377 0.93518 0.20607
 N1540 N 0.30057 0.94212 0.22170
 N1541 N 0.29201 0.95553 0.23029
 C1542 C 0.27634 0.96249 0.22355
 N1543 N 0.26958 0.95560 0.20788
 N1544 N 0.27814 0.94219 0.19930
 C1545 C 0.80338 0.41948 0.19678
 N1546 N 0.81876 0.41221 0.20382
 N1547 N 0.82682 0.39817 0.19578
 C1548 C 0.81982 0.39081 0.18041
 N1549 N 0.80445 0.39819 0.17336
 N1550 N 0.79639 0.41223 0.18139
 C1551 C 0.79419 0.43462 0.20593
 N1552 N 0.77857 0.44160 0.19912
 N1553 N 0.76998 0.45501 0.20767
 C1554 C 0.77670 0.46192 0.22335
 N1555 N 0.79236 0.45499 0.23012
 N1556 N 0.80096 0.44158 0.22156
 C1557 C 0.80275 0.91959 0.69720
 N1558 N 0.81817 0.91235 0.70418
 N1559 N 0.82622 0.89832 0.69611
 C1560 C 0.81918 0.89096 0.68075
 N1561 N 0.80378 0.89832 0.67377
 N1562 N 0.79572 0.91234 0.68183
 C1563 C 0.79358 0.93472 0.70638
 N1564 N 0.77793 0.94170 0.69962
 N1565 N 0.76936 0.95511 0.70820
 C1566 C 0.77614 0.96203 0.72385
 N1567 N 0.79183 0.95510 0.73057
 N1568 N 0.80039 0.94169 0.72199
 C1569 C 0.69724 0.58053 0.69743
 N1570 N 0.68185 0.58778 0.70447
 N1571 N 0.67379 0.60183 0.69645
 C1572 C 0.68078 0.60919 0.68106
 N1573 N 0.69615 0.60182 0.67401
 N1574 N 0.70422 0.58778 0.68203
 C1575 C 0.70642 0.56537 0.70656
 N1576 N 0.72204 0.55839 0.69973
 N1577 N 0.73063 0.54496 0.70825
 C1578 C 0.72389 0.53801 0.72392
 N1579 N 0.70823 0.54494 0.73071
 N1580 N 0.69965 0.55837 0.72218
 C1581 C 0.69726 0.08026 0.19692
 N1582 N 0.70430 0.08750 0.18153
 N1583 N 0.69624 0.10153 0.17346
 C1584 C 0.68083 0.10888 0.18044
 N1585 N 0.67378 0.10153 0.19580
 N1586 N 0.68183 0.08750 0.20388
 C1587 C 0.70641 0.06514 0.20611
 N1588 N 0.69959 0.05819 0.22174
 N1589 N 0.70815 0.04478 0.23034
 C1590 C 0.72384 0.03784 0.22363
 N1591 N 0.73062 0.04474 0.20797
 N1592 N 0.72207 0.05814 0.19936
 C1593 C 0.19701 0.58053 0.19687
 N1594 N 0.20404 0.58777 0.18148
 N1595 N 0.19600 0.60180 0.17342
 C1596 C 0.18060 0.60917 0.18042
 N1597 N 0.17356 0.60182 0.19578
 N1598 N 0.18160 0.58779 0.20385
 C1599 C 0.20617 0.56540 0.20606
 N1600 N 0.19936 0.55846 0.22169
 N1601 N 0.20792 0.54506 0.23029
 C1602 C 0.22360 0.53811 0.22357
 N1603 N 0.23037 0.54501 0.20790
 N1604 N 0.22181 0.55841 0.19930
 C1605 C 0.19695 0.08035 0.69745
 N1606 N 0.20393 0.08757 0.68203
 N1607 N 0.19586 0.10161 0.67399
 C1608 C 0.18050 0.10900 0.68105
 N1609 N 0.17352 0.10167 0.69645
 N1610 N 0.18158 0.08763 0.70449
 C1611 C 0.20613 0.06521 0.70659
 N1612 N 0.19938 0.05824 0.72224
 N1613 N 0.20796 0.04481 0.73078
 C1614 C 0.22361 0.03787 0.72398
 N1615 N 0.23033 0.04479 0.70830
 N1616 N 0.22175 0.05821 0.69976
 C1617 C 0.30298 0.58068 0.30286
 N1618 N 0.29597 0.58794 0.31824
 N1619 N 0.30401 0.60199 0.32626
 C1620 C 0.31938 0.60935 0.31922
 N1621 N 0.32641 0.60198 0.30386
 N1622 N 0.31837 0.58793 0.29583
 C1623 C 0.29382 0.56553 0.29373
 N1624 N 0.30062 0.55853 0.27811
 N1625 N 0.29205 0.54510 0.26958
 C1626 C 0.27638 0.53819 0.27635
 N1627 N 0.26962 0.54514 0.29200
 N1628 N 0.27819 0.55856 0.30054
 C1629 C 0.30315 0.08011 0.80326
 N1630 N 0.31854 0.08737 0.79623
 N1631 N 0.32658 0.10141 0.80428
 C1632 C 0.31957 0.10875 0.81966
 N1633 N 0.30421 0.10137 0.82670
 N1634 N 0.29616 0.08734 0.81866
 C1635 C 0.29398 0.06499 0.79409
 N1636 N 0.27836 0.05800 0.80090
 N1637 N 0.26978 0.04461 0.79233
 C1638 C 0.27651 0.03771 0.77664
 N1639 N 0.29217 0.04465 0.76987
 N1640 N 0.30075 0.05804 0.77844
 C1641 C 0.80338 0.58024 0.80316
 N1642 N 0.79638 0.58748 0.81856
 N1643 N 0.80441 0.60153 0.82658
 C1644 C 0.81977 0.60891 0.81954
 N1645 N 0.82679 0.60156 0.80416
 N1646 N 0.81876 0.58751 0.79613
 C1647 C 0.79423 0.56510 0.79402
 N1648 N 0.80100 0.55814 0.77838
 N1649 N 0.79243 0.54474 0.76981
 C1650 C 0.77677 0.53781 0.77658
 N1651 N 0.77003 0.54472 0.79226
 N1652 N 0.77860 0.55812 0.80082
 C1653 C 0.80329 0.08025 0.30294
 N1654 N 0.81870 0.08748 0.29592
 N1655 N 0.82675 0.10152 0.30394
 C1656 C 0.81973 0.10890 0.31931
 N1657 N 0.80434 0.10157 0.32634
 N1658 N 0.79628 0.08753 0.31832
 C1659 C 0.79411 0.06512 0.29380
 N1660 N 0.77846 0.05818 0.30060
 N1661 N 0.76987 0.04478 0.29206
 C1662 C 0.77662 0.03782 0.27641
 N1663 N 0.79231 0.04470 0.26965
 N1664 N 0.80089 0.05811 0.27819
 C1665 C 0.69708 0.41934 0.30245
 N1666 N 0.68171 0.41208 0.29540
 N1667 N 0.67365 0.39804 0.30342
 C1668 C 0.68063 0.39068 0.31881
 N1669 N 0.69598 0.39804 0.32587
 N1670 N 0.70405 0.41209 0.31786
 C1671 C 0.70627 0.43449 0.29333
 N1672 N 0.72188 0.44145 0.30017
 N1673 N 0.73047 0.45488 0.29165
 C1674 C 0.72376 0.46183 0.27598
 N1675 N 0.70811 0.45492 0.26918
 N1676 N 0.69952 0.44149 0.27770
 C1677 C 0.69677 0.91970 0.80333
 N1678 N 0.68135 0.91248 0.79634
 N1679 N 0.67330 0.89844 0.80439
 C1680 C 0.68035 0.89105 0.81974
 N1681 N 0.69574 0.89838 0.82674
 N1682 N 0.70380 0.91242 0.81870
 C1683 C 0.70593 0.93483 0.79416
 N1684 N 0.72159 0.94178 0.80092
 N1685 N 0.73016 0.95518 0.79234
 C1686 C 0.72339 0.96212 0.77669
 N1687 N 0.70769 0.95523 0.76997
 N1688 N 0.69912 0.94182 0.77855
 C1689 C 0.19682 0.41970 0.80344
 N1690 N 0.18139 0.41248 0.79648
 N1691 N 0.17335 0.39845 0.80454
 C1692 C 0.18042 0.39106 0.81988
 N1693 N 0.19582 0.39839 0.82686
 N1694 N 0.20387 0.41242 0.81880
 C1695 C 0.20597 0.43483 0.79426
 N1696 N 0.22164 0.44178 0.80099
 N1697 N 0.23020 0.45517 0.79239
 C1698 C 0.22341 0.46210 0.77675
 N1699 N 0.20770 0.45521 0.77006
 N1700 N 0.19914 0.44182 0.77866
 C1701 C 0.19687 0.92002 0.30284
 N1702 N 0.18149 0.91276 0.29581
 N1703 N 0.17345 0.89872 0.30384
 C1704 C 0.18045 0.89135 0.31922
 N1705 N 0.19581 0.89871 0.32626
 N1706 N 0.20387 0.91276 0.31823
 C1707 C 0.20604 0.93516 0.29370
 N1708 N 0.22167 0.94213 0.30051
 N1709 N 0.23025 0.95555 0.29197
 C1710 C 0.22351 0.96249 0.27630
 N1711 N 0.20785 0.95557 0.26953
 N1712 N 0.19927 0.94216 0.27807
 C1713 C 0.41924 0.30283 0.69706
 N1714 N 0.41198 0.31823 0.70407
 N1715 N 0.39792 0.32627 0.69604
 C1716 C 0.39055 0.31923 0.68069
 N1717 N 0.39792 0.30385 0.67367
 N1718 N 0.41198 0.29581 0.68169
 C1719 C 0.43440 0.29368 0.70620
 N1720 N 0.44139 0.27805 0.69941
 N1721 N 0.45483 0.26949 0.70796
 C1722 C 0.46176 0.27626 0.72360
 N1723 N 0.45483 0.29193 0.73035
 N1724 N 0.44139 0.30049 0.72181
 C1725 C 0.41957 0.80347 0.19674
 N1726 N 0.41232 0.79646 0.18136
 N1727 N 0.39828 0.80451 0.17333
 C1728 C 0.39091 0.81990 0.18035
 N1729 N 0.39827 0.82692 0.19571
 N1730 N 0.41232 0.81887 0.20375
 C1731 C 0.43470 0.79429 0.20590
 N1732 N 0.44168 0.80108 0.22152
 N1733 N 0.45508 0.79249 0.23009
 C1734 C 0.46200 0.77680 0.22334
 N1735 N 0.45508 0.77006 0.20768
 N1736 N 0.44167 0.77864 0.19911
 C1737 C 0.91996 0.30279 0.19694
 N1738 N 0.91270 0.31819 0.20393
 N1739 N 0.89867 0.32624 0.19587
 C1740 C 0.89132 0.31921 0.18050
 N1741 N 0.89869 0.30382 0.17350
 N1742 N 0.91273 0.29577 0.18155
 C1743 C 0.93510 0.29362 0.20611
 N1744 N 0.94210 0.27799 0.19933
 N1745 N 0.95551 0.26942 0.20790
 C1746 C 0.96242 0.27619 0.22356
 N1747 N 0.95547 0.29186 0.23030
 N1748 N 0.94206 0.30042 0.22173
 C1749 C 0.91953 0.80311 0.69695
 N1750 N 0.91227 0.79610 0.68158
 N1751 N 0.89821 0.80414 0.67356
 C1752 C 0.89084 0.81952 0.68059
 N1753 N 0.89821 0.82655 0.69595
 N1754 N 0.91227 0.81851 0.70397
 C1755 C 0.93469 0.79396 0.70609
 N1756 N 0.94168 0.80075 0.72170
 N1757 N 0.95510 0.79219 0.73025
 C1758 C 0.96203 0.77651 0.72349
 N1759 N 0.95510 0.76975 0.70784
 N1760 N 0.94167 0.77832 0.69929
 C1761 C 0.58052 0.30264 0.30243
 N1762 N 0.58778 0.29565 0.31782
 N1763 N 0.60181 0.30372 0.32584
 C1764 C 0.60916 0.31909 0.31879
 N1765 N 0.60179 0.32610 0.30342
 N1766 N 0.58776 0.31804 0.29539
 C1767 C 0.56538 0.29346 0.29330
 N1768 N 0.55837 0.30024 0.27769
 N1769 N 0.54494 0.29166 0.26916
 C1770 C 0.53804 0.27599 0.27595
 N1771 N 0.54500 0.26925 0.29160
 N1772 N 0.55842 0.27783 0.30012
 C1773 C 0.58016 0.80320 0.80328
 N1774 N 0.58740 0.79617 0.81867
 N1775 N 0.60144 0.80420 0.82672
 C1776 C 0.60881 0.81959 0.81971
 N1777 N 0.60146 0.82663 0.80435
 N1778 N 0.58742 0.81861 0.79629
 C1779 C 0.56504 0.79406 0.79411
 N1780 N 0.55809 0.80086 0.77847
 N1781 N 0.54470 0.79230 0.76988
 C1782 C 0.53776 0.77662 0.77662
 N1783 N 0.54465 0.76986 0.79229
 N1784 N 0.55805 0.77842 0.80088
 C1785 C 0.08025 0.30321 0.80345
 N1786 N 0.08749 0.29617 0.81883
 N1787 N 0.10153 0.30420 0.82688
 C1788 C 0.10889 0.31958 0.81988
 N1789 N 0.10154 0.32664 0.80453
 N1790 N 0.08750 0.31862 0.79647
 C1791 C 0.06512 0.29407 0.79427
 N1792 N 0.05818 0.30089 0.77864
 N1793 N 0.04478 0.29233 0.77005
 C1794 C 0.03784 0.27666 0.77678
 N1795 N 0.04473 0.26988 0.79245
 N1796 N 0.05813 0.27843 0.80104
 C1797 C 0.08039 0.80331 0.30276
 N1798 N 0.08763 0.79632 0.31816
 N1799 N 0.10165 0.80440 0.32620
 C1800 C 0.10899 0.81978 0.31916
 N1801 N 0.10165 0.82677 0.30377
 N1802 N 0.08763 0.81871 0.29573
 C1803 C 0.06527 0.79412 0.29361
 N1804 N 0.05828 0.80088 0.27798
 N1805 N 0.04489 0.79228 0.26943
 C1806 C 0.03799 0.77661 0.27621
 N1807 N 0.04492 0.76988 0.29188
 N1808 N 0.05832 0.77848 0.30043
 C1809 C 0.58050 0.69715 0.69742
 N1810 N 0.58775 0.70414 0.68202
 N1811 N 0.60180 0.69608 0.67400
 C1812 C 0.60917 0.68071 0.68105
 N1813 N 0.60181 0.67371 0.69644
 N1814 N 0.58776 0.68177 0.70446
 C1815 C 0.56534 0.70633 0.70654
 N1816 N 0.55833 0.69955 0.72217
 N1817 N 0.54489 0.70813 0.73069
 C1818 C 0.53797 0.72380 0.72390
 N1819 N 0.54492 0.73053 0.70824
 N1820 N 0.55836 0.72195 0.69972
 C1821 C 0.58043 0.19663 0.19661
 N1822 N 0.58769 0.20367 0.18124
 N1823 N 0.60177 0.19565 0.17322
 C1824 C 0.60915 0.18027 0.18024
 N1825 N 0.60177 0.17322 0.19559
 N1826 N 0.58770 0.18123 0.20362
 C1827 C 0.56527 0.20577 0.20577
 N1828 N 0.55830 0.19895 0.22139
 N1829 N 0.54488 0.20751 0.22997
 C1830 C 0.53793 0.22318 0.22323
 N1831 N 0.54484 0.22995 0.20757
 N1832 N 0.55826 0.22140 0.19899
 C1833 C 0.08043 0.69714 0.19683
 N1834 N 0.08767 0.70416 0.18143
 N1835 N 0.10171 0.69610 0.17338
 C1836 C 0.10908 0.68072 0.18039
 N1837 N 0.10173 0.67369 0.19576
 N1838 N 0.08769 0.68173 0.20382
 C1839 C 0.06530 0.70630 0.20601
 N1840 N 0.05836 0.69950 0.22165
 N1841 N 0.04495 0.70807 0.23023
 C1842 C 0.03800 0.72374 0.22349
 N1843 N 0.04490 0.73050 0.20782
 N1844 N 0.05830 0.72194 0.19923
 C1845 C 0.08039 0.19711 0.69748
 N1846 N 0.08763 0.18171 0.70451
 N1847 N 0.10166 0.17363 0.69646
 C1848 C 0.10900 0.18061 0.68106
 N1849 N 0.10165 0.19600 0.67402
 N1850 N 0.08763 0.20409 0.68206
 C1851 C 0.06526 0.20632 0.70662
 N1852 N 0.05831 0.22196 0.69981
 N1853 N 0.04490 0.23056 0.70836
 C1854 C 0.03796 0.22383 0.72402
 N1855 N 0.04486 0.20815 0.73080
 N1856 N 0.05827 0.19955 0.72226
 C1857 C 0.41945 0.69737 0.30271
 N1858 N 0.41222 0.68197 0.29571
 N1859 N 0.39819 0.67391 0.30377
 C1860 C 0.39082 0.68094 0.31913
 N1861 N 0.39816 0.69632 0.32614
 N1862 N 0.41219 0.70438 0.31810
 C1863 C 0.43458 0.70654 0.29355
 N1864 N 0.44155 0.72218 0.30033
 N1865 N 0.45496 0.73074 0.29177
 C1866 C 0.46190 0.72398 0.27611
 N1867 N 0.45498 0.70831 0.26937
 N1868 N 0.44157 0.69974 0.27793
 C1869 C 0.41960 0.19678 0.80309
 N1870 N 0.41236 0.20378 0.81849
 N1871 N 0.39835 0.19571 0.82656
 C1872 C 0.39101 0.18032 0.81956
 N1873 N 0.39836 0.17330 0.80418
 N1874 N 0.41237 0.18136 0.79611
 C1875 C 0.43470 0.20597 0.79390
 N1876 N 0.44166 0.19918 0.77827
 N1877 N 0.45504 0.20777 0.76967
 C1878 C 0.46194 0.22346 0.77640
 N1879 N 0.45503 0.23021 0.79207
 N1880 N 0.44165 0.22162 0.80066
 C1881 C 0.91970 0.69706 0.80294
 N1882 N 0.91244 0.70408 0.81833
 N1883 N 0.89843 0.69600 0.82639
 C1884 C 0.89110 0.68060 0.81940
 N1885 N 0.89846 0.67358 0.80403
 N1886 N 0.91247 0.68164 0.79596
 C1887 C 0.93481 0.70624 0.79375
 N1888 N 0.94178 0.69944 0.77813
 N1889 N 0.95518 0.70802 0.76954
 C1890 C 0.96209 0.72370 0.77627
 N1891 N 0.95516 0.73047 0.79194
 N1892 N 0.94177 0.72189 0.80052
 C1893 C 0.91996 0.19677 0.30289
 N1894 N 0.91271 0.18138 0.29588
 N1895 N 0.89866 0.17335 0.30392
 C1896 C 0.89129 0.18038 0.31928
 N1897 N 0.89865 0.19575 0.32630
 N1898 N 0.91270 0.20379 0.31827
 C1899 C 0.93511 0.20593 0.29374
 N1900 N 0.94208 0.22156 0.30054
 N1901 N 0.95549 0.23013 0.29198
 C1902 C 0.96244 0.22338 0.27633
 N1903 N 0.95552 0.20771 0.26957
 N1904 N 0.94210 0.19914 0.27812
 C1905 C 0.30256 0.30275 0.58070
 N1906 N 0.29552 0.31814 0.58795
 N1907 N 0.30356 0.32619 0.60197
 C1908 C 0.31895 0.31918 0.60932
 N1909 N 0.32600 0.30380 0.60197
 N1910 N 0.31797 0.29574 0.58794
 C1911 C 0.29342 0.29358 0.56557
 N1912 N 0.30023 0.27795 0.55861
 N1913 N 0.29168 0.26937 0.54520
 C1914 C 0.27601 0.27612 0.53827
 N1915 N 0.26923 0.29180 0.54518
 N1916 N 0.27778 0.30037 0.55859
 C1917 C 0.30297 0.80340 0.08035
 N1918 N 0.31839 0.79643 0.08758
 N1919 N 0.32642 0.80450 0.10160
 C1920 C 0.31935 0.81986 0.10896
 N1921 N 0.30395 0.82685 0.10162
 N1922 N 0.29591 0.81879 0.08759
 C1923 C 0.29383 0.79421 0.06523
 N1924 N 0.27818 0.80096 0.05825
 N1925 N 0.26965 0.79236 0.04485
 C1926 C 0.27645 0.77670 0.03795
 N1927 N 0.29214 0.76998 0.04488
 N1928 N 0.30068 0.77858 0.05828
 C1929 C 0.80342 0.30287 0.08036
 N1930 N 0.79641 0.31828 0.08761
 N1931 N 0.80447 0.32631 0.10164
 C1932 C 0.81985 0.31926 0.10899
 N1933 N 0.82686 0.30388 0.10163
 N1934 N 0.81881 0.29584 0.08761
 C1935 C 0.79425 0.29373 0.06524
 N1936 N 0.80103 0.27809 0.05825
 N1937 N 0.79245 0.26954 0.04486
 C1938 C 0.77677 0.27631 0.03796
 N1939 N 0.77003 0.29199 0.04489
 N1940 N 0.77861 0.30054 0.05829
 C1941 C 0.80280 0.80308 0.58063
 N1942 N 0.79576 0.81846 0.58789
 N1943 N 0.80382 0.82651 0.60191
 C1944 C 0.81922 0.81949 0.60924
 N1945 N 0.82626 0.80413 0.60186
 N1946 N 0.81822 0.79607 0.58784
 C1947 C 0.79364 0.79391 0.56551
 N1948 N 0.80045 0.77829 0.55852
 N1949 N 0.79188 0.76971 0.54513
 C1950 C 0.77619 0.77645 0.53823
 N1951 N 0.76941 0.79212 0.54517
 N1952 N 0.77798 0.80069 0.55856
 C1953 C 0.30288 0.69730 0.41928
 N1954 N 0.31827 0.70433 0.41203
 N1955 N 0.32633 0.69628 0.39800
 C1956 C 0.31932 0.68089 0.39065
 N1957 N 0.30396 0.67385 0.39801
 N1958 N 0.29589 0.68189 0.41204
 C1959 C 0.29371 0.70645 0.43441
 N1960 N 0.27808 0.69964 0.44138
 N1961 N 0.26949 0.70819 0.45478
 C1962 C 0.27622 0.72387 0.46170
 N1963 N 0.29189 0.73065 0.45478
 N1964 N 0.30047 0.72209 0.44138
 C1965 C 0.30315 0.19672 0.91974
 N1966 N 0.29614 0.18131 0.91251
 N1967 N 0.30419 0.17326 0.89849
 C1968 C 0.31957 0.18028 0.89112
 N1969 N 0.32658 0.19567 0.89845
 N1970 N 0.31854 0.20373 0.91247
 C1971 C 0.29398 0.20590 0.93485
 N1972 N 0.30076 0.22155 0.94180
 N1973 N 0.29219 0.23013 0.95520
 C1974 C 0.27652 0.22338 0.96213
 N1975 N 0.26978 0.20769 0.95523
 N1976 N 0.27835 0.19911 0.94184
 C1977 C 0.80312 0.69687 0.91955
 N1978 N 0.79616 0.68145 0.91231
 N1979 N 0.80424 0.67342 0.89829
 C1980 C 0.81961 0.68048 0.89093
 N1981 N 0.82658 0.69588 0.89828
 N1982 N 0.81851 0.70392 0.91231
 C1983 C 0.79392 0.70601 0.93467
 N1984 N 0.80067 0.72165 0.94166
 N1985 N 0.79207 0.73020 0.95505
 C1986 C 0.77640 0.72341 0.96196
 N1987 N 0.76969 0.70773 0.95502
 N1988 N 0.77829 0.69918 0.94163
 C1989 C 0.80320 0.19694 0.41926
 N1990 N 0.79621 0.18153 0.41204
 N1991 N 0.80429 0.17347 0.39803
 C1992 C 0.81967 0.18049 0.39068
 N1993 N 0.82667 0.19589 0.39801
 N1994 N 0.81860 0.20396 0.41202
 C1995 C 0.79401 0.20612 0.43436
 N1996 N 0.80077 0.22178 0.44132
 N1997 N 0.79217 0.23036 0.45469
 C1998 C 0.77650 0.22360 0.46161
 N1999 N 0.76977 0.20791 0.45471
 N2000 N 0.77837 0.19933 0.44133
 C2001 C 0.69698 0.30287 0.41903
 N2002 N 0.70397 0.31827 0.41177
 N2003 N 0.69592 0.32629 0.39772
 C2004 C 0.68057 0.31923 0.39036
 N2005 N 0.67356 0.30385 0.39772
 N2006 N 0.68160 0.29583 0.41177
 C2007 C 0.70614 0.29374 0.43417
 N2008 N 0.69937 0.27810 0.44117
 N2009 N 0.70794 0.26956 0.45459
 C2010 C 0.72360 0.27635 0.46150
 N2011 N 0.73033 0.29202 0.45456
 N2012 N 0.72176 0.30056 0.44114
 C2013 C 0.69685 0.80290 0.91966
 N2014 N 0.68145 0.79590 0.91242
 N2015 N 0.67339 0.80399 0.89842
 C2016 C 0.68040 0.81939 0.89109
 N2017 N 0.69578 0.82640 0.89844
 N2018 N 0.70385 0.81832 0.91244
 C2019 C 0.70603 0.79370 0.93476
 N2020 N 0.72167 0.80048 0.94173
 N2021 N 0.73025 0.79188 0.95511
 C2022 C 0.72351 0.77619 0.96200
 N2023 N 0.70783 0.76944 0.95508
 N2024 N 0.69925 0.77804 0.94170
 C2025 C 0.19700 0.30289 0.91979
 N2026 N 0.18159 0.29589 0.91255
 N2027 N 0.17352 0.30398 0.89856
 C2028 C 0.18053 0.31938 0.89123
 N2029 N 0.19591 0.32639 0.89857
 N2030 N 0.20399 0.31831 0.91257
 C2031 C 0.20618 0.29370 0.93488
 N2032 N 0.22182 0.30048 0.94185
 N2033 N 0.23041 0.29190 0.95523
 C2034 C 0.22367 0.27621 0.96213
 N2035 N 0.20800 0.26945 0.95522
 N2036 N 0.19941 0.27804 0.94184
 C2037 C 0.19680 0.80335 0.41932
 N2038 N 0.20382 0.81876 0.41210
 N2039 N 0.19578 0.82682 0.39806
 C2040 C 0.18041 0.81980 0.39069
 N2041 N 0.17339 0.80441 0.39803
 N2042 N 0.18142 0.79635 0.41206
 C2043 C 0.20595 0.79417 0.43445
 N2044 N 0.19916 0.77852 0.44139
 N2045 N 0.20772 0.76993 0.45479
 C2046 C 0.22338 0.77668 0.46174
 N2047 N 0.23013 0.79237 0.45484
 N2048 N 0.22157 0.80096 0.44145
 C2049 C 0.69696 0.69701 0.58079
 N2050 N 0.68156 0.70402 0.58805
 N2051 N 0.67354 0.69598 0.60211
 C2052 C 0.68060 0.68062 0.60948
 N2053 N 0.69598 0.67360 0.60212
 N2054 N 0.70401 0.68163 0.58806
 C2055 C 0.70609 0.70616 0.56564
 N2056 N 0.72173 0.69938 0.55866
 N2057 N 0.73027 0.70794 0.54523
 C2058 C 0.72348 0.72360 0.53830
 N2059 N 0.70780 0.73035 0.54523
 N2060 N 0.69926 0.72178 0.55865
 C2061 C 0.69733 0.19687 0.08036
 N2062 N 0.68191 0.20387 0.08758
 N2063 N 0.67385 0.19580 0.10159
 C2064 C 0.68088 0.18042 0.10895
 N2065 N 0.69628 0.17341 0.10162
 N2066 N 0.70435 0.18147 0.08761
 C2067 C 0.70651 0.20605 0.06524
 N2068 N 0.72216 0.19927 0.05828
 N2069 N 0.73073 0.20785 0.04489
 C2070 C 0.72396 0.22353 0.03797
 N2071 N 0.70828 0.23027 0.04488
 N2072 N 0.69970 0.22169 0.05827
 C2073 C 0.19711 0.69716 0.08034
 N2074 N 0.18169 0.70417 0.08757
 N2075 N 0.17363 0.69611 0.10159
 C2076 C 0.18066 0.68073 0.10895
 N2077 N 0.19606 0.67371 0.10162
 N2078 N 0.20413 0.68176 0.08760
 C2079 C 0.20628 0.70633 0.06523
 N2080 N 0.22194 0.69955 0.05829
 N2081 N 0.23052 0.70812 0.04489
 C2082 C 0.22376 0.72379 0.03795
 N2083 N 0.20806 0.73053 0.04484
 N2084 N 0.19948 0.72196 0.05824
 C2085 C 0.19670 0.19674 0.58071
 N2086 N 0.18131 0.20377 0.58797
 N2087 N 0.17330 0.19575 0.60203
 C2088 C 0.18035 0.18038 0.60941
 N2089 N 0.19571 0.17333 0.60203
 N2090 N 0.20374 0.18135 0.58797
 C2091 C 0.20584 0.20588 0.56555
 N2092 N 0.22148 0.19908 0.55857
 N2093 N 0.23003 0.20764 0.54516
 C2094 C 0.22327 0.22331 0.53823
 N2095 N 0.20759 0.23007 0.54515
 N2096 N 0.19904 0.22151 0.55857
   
