data_POSCAR
  _audit_creation_date              2014-09-24
  _audit_creation_method            'ToBaCCo'
  _symmetry_space_group_name_H-M    'P1'
  _symmetry_Int_Tables_number       1
  _symmetry_cell_setting            triclinic
  loop_
  _symmetry_equiv_pos_as_xyz
 x,y,z
_cell_length_a 88.6589
_cell_length_b 87.3574
_cell_length_c 91.4742
_cell_angle_alpha 89.955400
_cell_angle_beta 89.858600
_cell_angle_gamma 90.042900
loop_
  _atom_site_label
  _atom_site_type_symbol
  _atom_site_fract_x
  _atom_site_fract_y
  _atom_site_fract_z
C1 C 0.35394 0.33449 0.33897
 C2 C 0.34728 0.34748 0.33268
 C3 C 0.33509 0.35488 0.33953
 C4 C 0.32953 0.34896 0.35281
 C5 C 0.33582 0.33573 0.35901
 C6 C 0.34812 0.32865 0.35211
 H7 H 0.35160 0.35175 0.32237
 H8 H 0.32012 0.35448 0.35823
 H9 H 0.35306 0.31846 0.35688
 C10 C 0.35590 0.83241 -0.16248
 C11 C 0.34875 0.84529 -0.16878
 C12 C 0.33617 0.85248 -0.16214
 C13 C 0.33079 0.84634 -0.14884
 C14 C 0.33741 0.83338 -0.14256
 C15 C 0.34989 0.82657 -0.14932
 H16 H 0.35218 0.84891 -0.17956
 H17 H 0.32153 0.85165 -0.14305
 H18 H 0.35522 0.81711 -0.14372
 C19 C 0.85680 0.33458 -0.16005
 C20 C 0.85009 0.32793 -0.14766
 C21 C 0.83710 0.33428 -0.14139
 C22 C 0.83075 0.34748 -0.14755
 C23 C 0.83726 0.35454 -0.15993
 C24 C 0.85040 0.34794 -0.16599
 H25 H 0.85508 0.31789 -0.14269
 H26 H 0.82087 0.35237 -0.14236
 H27 H 0.85513 0.35255 -0.17598
 C28 C 0.85610 0.83831 0.33944
 C29 C 0.85054 0.85234 0.33420
 C30 C 0.83761 0.85932 0.34033
 C31 C 0.83087 0.85213 0.35256
 C32 C 0.83646 0.83827 0.35811
 C33 C 0.84891 0.83133 0.35138
 H34 H 0.85681 0.85803 0.32563
 H35 H 0.82067 0.85663 0.35742
 H36 H 0.85297 0.82046 0.35549
 C37 C 0.64829 0.66600 0.33652
 C38 C 0.65525 0.65306 0.33037
 C39 C 0.66726 0.64565 0.33749
 C40 C 0.67240 0.65152 0.35090
 C41 C 0.66588 0.66469 0.35699
 C42 C 0.65376 0.67176 0.34984
 H43 H 0.65159 0.64899 0.31978
 H44 H 0.68163 0.64598 0.35655
 H45 H 0.64844 0.68161 0.35484
 C46 C 0.64192 0.16405 -0.16521
 C47 C 0.64841 0.16988 -0.15241
 C48 C 0.66111 0.16296 -0.14622
 C49 C 0.66737 0.14996 -0.15287
 C50 C 0.66120 0.14374 -0.16581
 C51 C 0.64836 0.15104 -0.17180
 H52 H 0.64343 0.17971 -0.14703
 H53 H 0.67764 0.14542 -0.14825
 H54 H 0.64304 0.14655 -0.18149
 C55 C 0.14628 0.66643 -0.15994
 C56 C 0.15298 0.67228 -0.14725
 C57 C 0.16586 0.66541 -0.14133
 C58 C 0.17210 0.65250 -0.14816
 C59 C 0.16574 0.64633 -0.16104
 C60 C 0.15270 0.65353 -0.16671
 H61 H 0.14803 0.68205 -0.14175
 H62 H 0.18249 0.64800 -0.14374
 H63 H 0.14719 0.64903 -0.17630
 C64 C 0.14324 0.16723 0.33549
 C65 C 0.15026 0.15438 0.32920
 C66 C 0.16240 0.14705 0.33617
 C67 C 0.16758 0.15286 0.34959
 C68 C 0.16100 0.16593 0.35581
 C69 C 0.14878 0.17295 0.34879
 H70 H 0.14654 0.15036 0.31861
 H71 H 0.17690 0.14737 0.35513
 H72 H 0.14344 0.18275 0.35388
 C73 C 0.64360 0.33694 0.66348
 C74 C 0.65096 0.34900 0.67070
 C75 C 0.66398 0.35579 0.66475
 C76 C 0.66986 0.35005 0.65155
 C77 C 0.66283 0.33781 0.64427
 C78 C 0.64951 0.33161 0.65017
 H79 H 0.64680 0.35280 0.68123
 H80 H 0.68004 0.35500 0.64702
 H81 H 0.64366 0.32264 0.64431
 C82 C 0.64310 0.83884 1.16163
 C83 C 0.65005 0.83301 1.14890
 C84 C 0.66394 0.83869 1.14394
 C85 C 0.67100 0.85056 1.15158
 C86 C 0.66421 0.85718 1.16399
 C87 C 0.65027 0.85118 1.16884
 H88 H 0.64471 0.82410 1.14255
 H89 H 0.68144 0.85514 1.14723
 H90 H 0.64580 0.85526 1.17912
 C91 C 0.14379 0.33635 1.15910
 C92 C 0.15071 0.33015 1.14647
 C93 C 0.16379 0.33669 1.14044
 C94 C 0.17016 0.34961 1.14701
 C95 C 0.16360 0.35603 1.15951
 C96 C 0.15048 0.34948 1.16542
 H97 H 0.14569 0.32061 1.14074
 H98 H 0.18034 0.35461 1.14246
 H99 H 0.14620 0.35422 1.17552
 C100 C 0.14455 0.83154 0.66109
 C101 C 0.15148 0.84466 0.66716
 C102 C 0.16390 0.85201 0.66039
 C103 C 0.16939 0.84575 0.64719
 C104 C 0.16301 0.83254 0.64114
 C105 C 0.15067 0.82558 0.64803
 H106 H 0.14801 0.84838 0.67789
 H107 H 0.17855 0.85115 0.64130
 H108 H 0.14552 0.81590 0.64262
 C109 C 0.35673 0.66699 0.66065
 C110 C 0.34973 0.65412 0.66688
 C111 C 0.33761 0.64683 0.65984
 C112 C 0.33247 0.65274 0.64643
 C113 C 0.33910 0.66585 0.64028
 C114 C 0.35131 0.67283 0.64738
 H115 H 0.35374 0.64985 0.67729
 H116 H 0.32315 0.64729 0.64084
 H117 H 0.35650 0.68292 0.64264
 C118 C 0.35610 0.16703 1.15985
 C119 C 0.34966 0.17304 1.14710
 C120 C 0.33675 0.16639 1.14102
 C121 C 0.33020 0.15357 1.14775
 C122 C 0.33629 0.14725 1.16069
 C123 C 0.34938 0.15420 1.16652
 H124 H 0.35482 0.18277 1.14171
 H125 H 0.31978 0.14926 1.14322
 H126 H 0.35469 0.14958 1.17616
 C127 C 0.85758 0.66420 1.16303
 C128 C 0.85032 0.67134 1.15120
 C129 C 0.83761 0.66464 1.14469
 C130 C 0.83184 0.65089 1.15036
 C131 C 0.83877 0.64365 1.16232
 C132 C 0.85184 0.65024 1.16832
 H133 H 0.85450 0.68215 1.14703
 H134 H 0.82163 0.64616 1.14571
 H135 H 0.85767 0.64440 1.17707
 C136 C 0.85574 0.16529 0.66165
 C137 C 0.84910 0.15195 0.66768
 C138 C 0.83608 0.14510 0.66160
 C139 C 0.82990 0.15184 0.64893
 C140 C 0.83622 0.16504 0.64275
 C141 C 0.84899 0.17167 0.64911
 H142 H 0.85407 0.14692 0.67727
 H143 H 0.81957 0.14753 0.64419
 H144 H 0.85397 0.18145 0.64366
 C145 C 0.33413 0.35609 0.65918
 C146 C 0.34691 0.34956 0.66571
 C147 C 0.35349 0.33629 0.65987
 C148 C 0.34723 0.32960 0.64733
 C149 C 0.33446 0.33602 0.64067
 C150 C 0.32798 0.34928 0.64665
 H151 H 0.35165 0.35472 0.67544
 H152 H 0.35221 0.31930 0.64282
 H153 H 0.31804 0.35422 0.64163
 C154 C 0.33758 0.85605 0.16265
 C155 C 0.34974 0.84878 0.16967
 C156 C 0.35590 0.83512 0.16413
 C157 C 0.34962 0.82869 0.15144
 C158 C 0.33769 0.83592 0.14414
 C159 C 0.33185 0.84965 0.14971
 H160 H 0.35431 0.85369 0.17956
 H161 H 0.35396 0.81798 0.14720
 H162 H 0.32264 0.85519 0.14404
 C163 C 0.83377 0.35299 0.15834
 C164 C 0.84752 0.34719 0.16351
 C165 C 0.85399 0.33412 0.15717
 C166 C 0.84685 0.32716 0.14521
 C167 C 0.83323 0.33299 0.13975
 C168 C 0.82665 0.34579 0.14650
 H169 H 0.85287 0.35246 0.17289
 H170 H 0.85184 0.31711 0.14023
 H171 H 0.81615 0.35036 0.14232
 C172 C 0.83749 0.85280 0.66282
 C173 C 0.84925 0.84472 0.66953
 C174 C 0.85534 0.83159 0.66297
 C175 C 0.84932 0.82634 0.64970
 C176 C 0.83737 0.83417 0.64288
 C177 C 0.83175 0.84758 0.64944
 H178 H 0.85389 0.84887 0.67974
 H179 H 0.85364 0.81584 0.64500
 H180 H 0.82269 0.85388 0.64427
 C181 C 0.66584 0.64506 0.66326
 C182 C 0.65236 0.65145 0.66853
 C183 C 0.64544 0.66374 0.66121
 C184 C 0.65207 0.66932 0.64826
 C185 C 0.66566 0.66317 0.64299
 C186 C 0.67252 0.65110 0.65060
 H187 H 0.64760 0.64715 0.67865
 H188 H 0.64681 0.67863 0.64236
 H189 H 0.68290 0.64617 0.64646
 C190 C 0.66123 0.14414 0.16135
 C191 C 0.66683 0.14935 0.14787
 C192 C 0.66056 0.16230 0.14113
 C193 C 0.64826 0.16971 0.14772
 C194 C 0.64235 0.16451 0.16111
 C195 C 0.64905 0.15179 0.16790
 H196 H 0.67648 0.14374 0.14295
 H197 H 0.64317 0.17941 0.14226
 H198 H 0.64485 0.14784 0.17838
 C199 C 0.16293 0.64520 0.16285
 C200 C 0.14998 0.65213 0.16878
 C201 C 0.14435 0.66595 0.16312
 C202 C 0.15154 0.67254 0.15092
 C203 C 0.16410 0.66546 0.14447
 C204 C 0.16979 0.65189 0.15054
 H205 H 0.14420 0.64668 0.17783
 H206 H 0.14745 0.68324 0.14646
 H207 H 0.17993 0.64690 0.14596
 C208 C 0.16399 0.14357 0.66279
 C209 C 0.15122 0.15076 0.66882
 C210 C 0.14404 0.16291 0.66152
 C211 C 0.14990 0.16793 0.64804
 C212 C 0.16287 0.16117 0.64206
 C213 C 0.16974 0.14893 0.64940
 H214 H 0.14713 0.14718 0.67945
 H215 H 0.14453 0.17726 0.64226
 H216 H 0.17945 0.14344 0.64449
 C217 C 0.33755 0.64465 0.33759
 C218 C 0.35118 0.65025 0.33187
 C219 C 0.35852 0.66273 0.33841
 C220 C 0.35228 0.66938 0.35102
 C221 C 0.33853 0.66403 0.35673
 C222 C 0.33118 0.65173 0.34990
 H223 H 0.35599 0.64500 0.32220
 H224 H 0.35776 0.67914 0.35602
 H225 H 0.32066 0.64746 0.35437
 C226 C 0.33327 0.14403 0.83608
 C227 C 0.32782 0.14982 0.84941
 C228 C 0.33427 0.16296 0.85564
 C229 C 0.34657 0.17002 0.84868
 C230 C 0.35227 0.16425 0.83547
 C231 C 0.34546 0.15135 0.82916
 H232 H 0.31817 0.14447 0.85461
 H233 H 0.35163 0.18013 0.85349
 H234 H 0.34987 0.14679 0.81899
 C235 C 0.83737 0.64581 0.84140
 C236 C 0.83130 0.65116 0.85465
 C237 C 0.83803 0.66337 0.86216
 C238 C 0.85120 0.67009 0.85651
 C239 C 0.85739 0.66505 0.84319
 C240 C 0.85033 0.65297 0.83570
 H241 H 0.82142 0.64570 0.85930
 H242 H 0.85646 0.67940 0.86241
 H243 H 0.85466 0.64943 0.82516
 C244 C 0.83528 0.14978 0.33823
 C245 C 0.84832 0.15648 0.33221
 C246 C 0.85509 0.16934 0.33872
 C247 C 0.84868 0.17542 0.35152
 C248 C 0.83571 0.16886 0.35773
 C249 C 0.82910 0.15606 0.35106
 H250 H 0.85315 0.15176 0.32232
 H251 H 0.85389 0.18513 0.35686
 H252 H 0.81881 0.15136 0.35563
 C253 C 0.66305 0.35544 0.33974
 C254 C 0.66829 0.34968 0.35316
 C255 C 0.66166 0.33669 0.35951
 C256 C 0.64933 0.32971 0.35262
 C257 C 0.64374 0.33538 0.33932
 C258 C 0.65081 0.34815 0.33290
 H259 H 0.67771 0.35513 0.35859
 H260 H 0.64395 0.31997 0.35781
 H261 H 0.64706 0.35213 0.32230
 C262 C 0.66591 0.85340 0.83878
 C263 C 0.67217 0.84709 0.85150
 C264 C 0.66573 0.83409 0.85802
 C265 C 0.65289 0.82741 0.85172
 C266 C 0.64646 0.83354 0.83896
 C267 C 0.65307 0.84660 0.83260
 H268 H 0.68213 0.85224 0.85627
 H269 H 0.64778 0.81757 0.85697
 H270 H 0.64857 0.85123 0.82253
 C271 C 0.16463 0.35535 0.83583
 C272 C 0.17101 0.34900 0.84847
 C273 C 0.16466 0.33595 0.85498
 C274 C 0.15177 0.32929 0.84877
 C275 C 0.14523 0.33545 0.83607
 C276 C 0.15175 0.34857 0.82972
 H277 H 0.18102 0.35413 0.85317
 H278 H 0.14673 0.31942 0.85402
 H279 H 0.14716 0.35323 0.81970
 C280 C 0.16393 0.85755 0.33890
 C281 C 0.17030 0.85077 0.35134
 C282 C 0.16314 0.83840 0.35835
 C283 C 0.14949 0.83283 0.35261
 C284 C 0.14321 0.83913 0.33985
 C285 C 0.15046 0.85165 0.33319
 H286 H 0.18091 0.85511 0.35548
 H287 H 0.14367 0.82361 0.35817
 H288 H 0.14599 0.85648 0.32319
 O289 O 0.23187 0.98676 0.25137
 O290 O 0.25150 1.01686 0.23051
 O291 O 0.25183 0.98702 0.23071
 O292 O 0.23136 1.01661 0.25139
 O293 O 0.24962 1.01711 0.26773
 O294 O 0.27007 0.98746 0.24708
 O295 O 0.26957 1.01729 0.24705
 O296 O 0.24990 0.98727 0.26796
 Cu297 Cu 0.23982 1.00181 0.23935
 Cu298 Cu 0.26161 1.00228 0.25911
 C299 C 0.23755 0.98183 0.26321
 C300 C 0.26387 1.02227 0.23525
 C301 C 0.26441 0.98212 0.23539
 C302 C 0.23703 1.02199 0.26305
 O303 O 0.26842 0.48683 0.74574
 O304 O 0.24889 0.51682 0.76672
 O305 O 0.24838 0.48712 0.76652
 O306 O 0.26891 0.51673 0.74575
 O307 O 0.25043 0.51752 0.72965
 O308 O 0.23055 0.48703 0.74973
 O309 O 0.23055 0.51698 0.75046
 O310 O 0.25064 0.48773 0.72893
 Cu311 Cu 0.26049 0.50185 0.75781
 Cu312 Cu 0.23870 0.50234 0.73806
 C313 C 0.26290 0.48217 0.73375
 C314 C 0.23635 0.52200 0.76221
 C315 C 0.23603 0.48190 0.76159
 C316 C 0.26309 0.52231 0.73423
 O317 O 0.75143 -0.01166 0.27175
 O318 O 0.72996 0.01645 0.25018
 O319 O 0.73116 -0.01343 0.25139
 O320 O 0.75033 0.01798 0.27072
 O321 O 0.76832 0.01795 0.25400
 O322 O 0.74867 -0.01279 0.23419
 O323 O 0.74814 0.01694 0.23367
 O324 O 0.76907 -0.01196 0.25470
 Cu325 Cu 0.73889 0.00234 0.26267
 Cu326 Cu 0.76037 0.00250 0.24247
 C327 C 0.76389 -0.01670 0.26686
 C328 C 0.73545 0.02163 0.23832
 C329 C 0.73661 -0.01843 0.23946
 C330 C 0.76263 0.02331 0.26568
 O331 O 0.75309 0.48588 0.77179
 O332 O 0.73259 0.51523 0.75084
 O333 O 0.73262 0.48536 0.75123
 O334 O 0.75277 0.51570 0.77112
 O335 O 0.77088 0.51523 0.75454
 O336 O 0.75059 0.48506 0.73451
 O337 O 0.75046 0.51490 0.73400
 O338 O 0.77079 0.48532 0.75478
 Cu339 Cu 0.74096 0.50051 0.76293
 Cu340 Cu 0.76249 0.50014 0.74278
 C341 C 0.76538 0.48051 0.76680
 C342 C 0.73809 0.52018 0.73890
 C343 C 0.73818 0.47997 0.73950
 C344 C 0.76523 0.52072 0.76619
 O345 O 0.24840 0.48492 0.23171
 O346 O 0.26836 0.51498 0.25210
 O347 O 0.26862 0.48505 0.25243
 O348 O 0.24813 0.51457 0.23162
 O349 O 0.23042 0.51484 0.24861
 O350 O 0.25033 0.48464 0.26882
 O351 O 0.25069 0.51446 0.26912
 O352 O 0.23027 0.48493 0.24829
 Cu353 Cu 0.26022 0.49987 0.24032
 Cu354 Cu 0.23862 0.49972 0.26038
 C355 C 0.23590 0.47983 0.23646
 C356 C 0.26295 0.51988 0.26408
 C357 C 0.26288 0.47968 0.26410
 C358 C 0.23581 0.51983 0.23664
 O359 O 0.76945 0.98471 0.74666
 O360 O 0.74804 1.01412 0.76672
 O361 O 0.74888 0.98444 0.76713
 O362 O 0.76859 1.01457 0.74643
 O363 O 0.75112 1.01354 0.72932
 O364 O 0.73109 0.98373 0.75032
 O365 O 0.73051 1.01369 0.74966
 O366 O 0.75151 0.98373 0.73000
 Cu367 Cu 0.76053 0.99952 0.75841
 Cu368 Cu 0.73927 0.99862 0.73815
 C369 C 0.76408 0.97910 0.73496
 C370 C 0.73566 1.01902 0.76156
 C371 C 0.73661 0.97893 0.76228
 C372 C 0.76325 1.01922 0.73434
 O373 O 0.75122 0.51366 0.26836
 O374 O 0.77008 0.48325 0.24731
 O375 O 0.77080 0.51313 0.24726
 O376 O 0.75055 0.48375 0.26844
 O377 O 0.73200 0.48420 0.25241
 O378 O 0.75240 0.51346 0.23106
 O379 O 0.75165 0.48375 0.23114
 O380 O 0.73269 0.51400 0.25231
 Cu381 Cu 0.76251 0.49841 0.25946
 Cu382 Cu 0.74032 0.49890 0.24013
 C383 C 0.73874 0.51906 0.26392
 C384 C 0.76409 0.47829 0.23563
 C385 C 0.76508 0.51832 0.23555
 C386 C 0.73784 0.47890 0.26403
 O387 O 0.26809 0.01130 0.75256
 O388 O 0.24860 -0.01804 0.73079
 O389 O 0.24866 0.01194 0.73138
 O390 O 0.26801 -0.01838 0.75209
 O391 O 0.24935 -0.01865 0.76809
 O392 O 0.22982 0.01140 0.74718
 O393 O 0.22993 -0.01835 0.74677
 O394 O 0.24927 0.01131 0.76839
 Cu395 Cu 0.26018 -0.00328 0.74007
 Cu396 Cu 0.23773 -0.00362 0.75923
 C397 C 0.26198 0.01641 0.76414
 C398 C 0.23597 -0.02329 0.73508
 C399 C 0.23597 0.01691 0.73578
 C400 C 0.26200 -0.02369 0.76365
 O401 O 0.24908 0.26970 0.98348
 O402 O 0.26916 0.24852 1.01224
 O403 O 0.26914 0.24800 0.98396
 O404 O 0.24899 0.27007 1.01217
 O405 O 0.23072 0.25289 1.01223
 O406 O 0.25089 0.23080 0.98409
 O407 O 0.25090 0.23134 1.01273
 O408 O 0.23084 0.25251 0.98389
 Cu409 Cu 0.26088 0.26085 0.99793
 Cu410 Cu 0.23904 0.24012 0.99825
 C411 C 0.23657 0.26470 0.97871
 C412 C 0.26344 0.23634 1.01745
 C413 C 0.26344 0.23564 0.97918
 C414 C 0.23645 0.26520 1.01708
 O415 O 0.24930 0.77030 0.48442
 O416 O 0.27135 0.74921 0.51195
 O417 O 0.27085 0.75021 0.48345
 O418 O 0.24980 0.76941 0.51292
 O419 O 0.23240 0.75138 0.51202
 O420 O 0.25456 0.73110 0.48397
 O421 O 0.25392 0.73118 0.51246
 O422 O 0.23299 0.75123 0.48353
 Cu423 Cu 0.26202 0.76165 0.49822
 Cu424 Cu 0.24177 0.73936 0.49798
 C425 C 0.23751 0.76423 0.47907
 C426 C 0.26628 0.73670 0.51708
 C427 C 0.26635 0.73732 0.47872
 C428 C 0.23744 0.76375 0.51743
 O429 O 0.27154 0.75142 -0.01241
 O430 O 0.25094 0.73032 0.01622
 O431 O 0.25109 0.73009 -0.01248
 O432 O 0.27143 0.75158 0.01592
 O433 O 0.25351 0.76910 0.01590
 O434 O 0.23310 0.74754 -0.01243
 O435 O 0.23302 0.74783 0.01594
 O436 O 0.25357 0.76888 -0.01275
 Cu437 Cu 0.26301 0.73905 0.00182
 Cu438 Cu 0.24153 0.76012 0.00164
 C439 C 0.26604 0.76373 -0.01752
 C440 C 0.23851 0.73552 0.02105
 C441 C 0.23866 0.73518 -0.01737
 C442 C 0.26592 0.76398 0.02082
 O443 O 0.24864 0.26802 0.51422
 O444 O 0.22779 0.24743 0.48557
 O445 O 0.22805 0.24700 0.51402
 O446 O 0.24860 0.26852 0.48561
 O447 O 0.26651 0.25099 0.48567
 O448 O 0.24538 0.22891 0.51320
 O449 O 0.24575 0.22998 0.48468
 O450 O 0.26615 0.25008 0.51400
 Cu451 Cu 0.23651 0.25954 0.49987
 Cu452 Cu 0.25770 0.23818 0.49935
 C453 C 0.26089 0.26250 0.51910
 C454 C 0.23326 0.23525 0.48015
 C455 C 0.23319 0.23426 0.51845
 C456 C 0.26112 0.26346 0.48084
 O457 O 0.73152 0.75317 1.01685
 O458 O 0.75268 0.73128 0.98922
 O459 O 0.75214 0.73231 1.01771
 O460 O 0.73181 0.75237 0.98835
 O461 O 0.74949 0.77015 0.98783
 O462 O 0.76985 0.75007 1.01719
 O463 O 0.77016 0.74927 0.98869
 O464 O 0.74902 0.77114 1.01637
 Cu465 Cu 0.74027 0.74049 1.00302
 Cu466 Cu 0.76138 0.76196 1.00251
 C467 C 0.73671 0.76584 1.02143
 C468 C 0.76501 0.73656 0.98418
 C469 C 0.76442 0.73780 1.02253
 C470 C 0.73721 0.76464 0.98301
 O471 O 0.74753 0.27157 0.48723
 O472 O 0.76840 0.25052 0.51564
 O473 O 0.76831 0.25059 0.48724
 O474 O 0.74766 0.27170 0.51579
 O475 O 0.73036 0.25354 0.51632
 O476 O 0.75036 0.23308 0.48694
 O477 O 0.75089 0.23255 0.51558
 O478 O 0.72957 0.25408 0.48791
 Cu479 Cu 0.75973 0.26290 0.50147
 Cu480 Cu 0.73855 0.24150 0.50167
 C481 C 0.73495 0.26643 0.48274
 C482 C 0.76319 0.23794 0.52048
 C483 C 0.76278 0.23832 0.48209
 C484 C 0.73558 0.26613 0.52107
 O485 O 0.74578 0.22557 0.01165
 O486 O 0.76729 0.24744 -0.01580
 O487 O 0.76627 0.24664 0.01267
 O488 O 0.74657 0.22634 -0.01696
 O489 O 0.72861 0.24381 -0.01662
 O490 O 0.74890 0.26470 0.01221
 O491 O 0.74930 0.26486 -0.01636
 O492 O 0.72821 0.24346 0.01171
 Cu493 Cu 0.75824 0.23470 -0.00213
 Cu494 Cu 0.73701 0.25602 -0.00226
 C495 C 0.73339 0.23085 0.01648
 C496 C 0.76190 0.25981 -0.02089
 C497 C 0.76095 0.25915 0.01751
 C498 C 0.73419 0.23158 -0.02182
 O499 O 0.73133 0.74768 0.48640
 O500 O 0.75236 0.76936 0.51420
 O501 O 0.75167 0.76914 0.48556
 O502 O 0.73206 0.74809 0.51483
 O503 O 0.74969 0.73028 0.51421
 O504 O 0.76987 0.75193 0.48564
 O505 O 0.77018 0.75174 0.51407
 O506 O 0.74954 0.73050 0.48566
 Cu507 Cu 0.74008 0.76035 0.50025
 Cu508 Cu 0.76161 0.73935 0.49988
 C509 C 0.73690 0.73545 0.48118
 C510 C 0.76477 0.76416 0.51903
 C511 C 0.76412 0.76414 0.48058
 C512 C 0.73750 0.73557 0.51952
 O513 O 1.01335 0.23321 0.25055
 O514 O 0.98438 0.25271 0.22865
 O515 O 1.01376 0.25237 0.22883
 O516 O 0.98404 0.23362 0.25066
 O517 O 0.98438 0.25292 0.26619
 O518 O 1.01352 0.27199 0.24400
 O519 O 0.98414 0.27186 0.24437
 O520 O 1.01391 0.25281 0.26574
 Cu521 Cu 0.99883 0.24104 0.23812
 Cu522 Cu 0.99901 0.26432 0.25664
 C523 C 1.01872 0.23975 0.26179
 C524 C 0.97922 0.26556 0.23281
 C525 C 1.01872 0.26540 0.23268
 C526 C 0.97913 0.24007 0.26217
 O527 O 0.48230 0.25067 0.76704
 O528 O 0.51206 0.27027 0.74599
 O529 O 0.48283 0.27029 0.74565
 O530 O 0.51188 0.25068 0.76737
 O531 O 0.51194 0.23154 0.75164
 O532 O 0.48284 0.25115 0.72992
 O533 O 0.51238 0.25115 0.73025
 O534 O 0.48268 0.23154 0.75131
 Cu535 Cu 0.49724 0.26236 0.75814
 Cu536 Cu 0.49748 0.23946 0.73917
 C537 C 0.47735 0.23779 0.76274
 C538 C 0.51735 0.26403 0.73455
 C539 C 0.47782 0.26405 0.73410
 C540 C 0.51695 0.23780 0.76318
 O541 O -0.01442 0.26927 0.75249
 O542 O 0.01482 0.25002 0.73050
 O543 O -0.01474 0.25003 0.73076
 O544 O 0.01484 0.26931 0.75216
 O545 O 0.01512 0.24989 0.76760
 O546 O -0.01448 0.23067 0.74625
 O547 O 0.01476 0.23063 0.74596
 O548 O -0.01443 0.24985 0.76794
 Cu549 Cu 0.00011 0.26157 0.73989
 Cu550 Cu 0.00026 0.23835 0.75853
 C551 C -0.01947 0.26281 0.76395
 C552 C 0.01983 0.23706 0.73450
 C553 C -0.01971 0.23707 0.73487
 C554 C 0.02009 0.26286 0.76351
 O555 O 0.48471 0.27073 0.25335
 O556 O 0.51426 0.25194 0.23147
 O557 O 0.48474 0.25191 0.23134
 O558 O 0.51401 0.27077 0.25345
 O559 O 0.51404 0.25111 0.26861
 O560 O 0.48484 0.23223 0.24647
 O561 O 0.51403 0.23229 0.24664
 O562 O 0.48445 0.25105 0.26848
 Cu563 Cu 0.49944 0.26330 0.24086
 Cu564 Cu 0.49933 0.23974 0.25912
 C565 C 0.47946 0.26406 0.26460
 C566 C 0.51923 0.23892 0.23533
 C567 C 0.47978 0.23884 0.23513
 C568 C 0.51910 0.26412 0.26476
 O569 O 1.01520 0.76863 0.74826
 O570 O 0.98612 0.75029 0.77113
 O571 O 1.01564 0.75041 0.77070
 O572 O 0.98590 0.76845 0.74859
 O573 O 0.98564 0.74836 0.73398
 O574 O 1.01541 0.73033 0.75607
 O575 O 0.98617 0.73021 0.75651
 O576 O 1.01521 0.74860 0.73359
 Cu577 Cu 1.00072 0.76144 0.76116
 Cu578 Cu 1.00060 0.73740 0.74353
 C579 C 1.02025 0.76172 0.73706
 C580 C 0.98115 0.73712 0.76772
 C581 C 1.02065 0.73730 0.76714
 C582 C 0.98061 0.76146 0.73756
 O583 O 0.51544 0.77049 0.24748
 O584 O 0.48795 0.74921 0.26997
 O585 O 0.51741 0.75061 0.26859
 O586 O 0.48608 0.76907 0.24902
 O587 O 0.48647 0.75058 0.23259
 O588 O 0.51718 0.73161 0.25271
 O589 O 0.48794 0.73055 0.25373
 O590 O 0.51585 0.75149 0.23161
 Cu591 Cu 0.50173 0.76172 0.26039
 Cu592 Cu 0.50185 0.73919 0.24103
 C593 C 0.52045 0.76456 0.23575
 C594 C 0.48316 0.73628 0.26563
 C595 C 0.52263 0.73793 0.26403
 C596 C 0.48092 0.76299 0.23746
 O597 O 0.01502 0.75212 0.23216
 O598 O -0.01501 0.77167 0.25279
 O599 O 0.01443 0.77245 0.25306
 O600 O -0.01426 0.75141 0.23199
 O601 O -0.01437 0.73324 0.24876
 O602 O 0.01502 0.75372 0.26924
 O603 O -0.01431 0.75354 0.26958
 O604 O 0.01514 0.73357 0.24855
 Cu605 Cu 0.00002 0.76378 0.24086
 Cu606 Cu 0.00037 0.74164 0.26067
 C607 C 0.02022 0.73949 0.23684
 C608 C -0.01977 0.76597 0.26472
 C609 C 0.01976 0.76659 0.26468
 C610 C -0.01931 0.73878 0.23685
 O611 O 0.48721 0.76903 0.75341
 O612 O 0.51650 0.74996 0.73139
 O613 O 0.48696 0.75013 0.73156
 O614 O 0.51652 0.76891 0.75337
 O615 O 0.51665 0.74924 0.76852
 O616 O 0.48698 0.73056 0.74683
 O617 O 0.51623 0.73032 0.74657
 O618 O 0.48709 0.74949 0.76871
 Cu619 Cu 0.50183 0.76145 0.74088
 Cu620 Cu 0.50175 0.73798 0.75923
 C621 C 0.48206 0.76247 0.76477
 C622 C 0.52138 0.73688 0.73521
 C623 C 0.48184 0.73718 0.73552
 C624 C 0.52169 0.76225 0.76464
 C625 C 0.39180 0.31302 0.31773
 C626 C 0.39217 0.31625 0.33279
 C627 C 0.37981 0.32305 0.33972
 C628 C 0.36688 0.32693 0.33171
 C629 C 0.36644 0.32369 0.31670
 C630 C 0.37872 0.31673 0.30980
 C631 C 0.40501 0.30594 0.31028
 C632 C 0.40890 0.31023 0.29594
 C633 C 0.42121 0.30352 0.28887
 C634 C 0.43007 0.29248 0.29601
 C635 C 0.42626 0.28827 0.31040
 C636 C 0.41384 0.29487 0.31742
 C637 C 0.44313 0.28530 0.28839
 C638 C 0.44656 0.26973 0.29053
 C639 C 0.45856 0.26291 0.28304
 C640 C 0.46727 0.27144 0.27311
 C641 C 0.46397 0.28701 0.27107
 C642 C 0.45210 0.29388 0.27869
 H643 H 0.40213 0.31380 0.33920
 H644 H 0.38046 0.32558 0.35129
 H645 H 0.35651 0.32639 0.31033
 H646 H 0.37788 0.31412 0.29826
 H647 H 0.40251 0.31888 0.29018
 H648 H 0.42365 0.30688 0.27772
 H649 H 0.43293 0.27995 0.31630
 H650 H 0.41108 0.29115 0.32840
 H651 H 0.43976 0.26270 0.29774
 H652 H 0.46078 0.25085 0.28476
 H653 H 0.47058 0.29392 0.26358
 H654 H 0.45001 0.30596 0.27700
 C655 C 0.39427 0.81166 0.81724
 C656 C 0.39074 0.82707 0.81461
 C657 C 0.37821 0.83387 0.82124
 C658 C 0.36867 0.82546 0.83072
 C659 C 0.37235 0.80992 0.83324
 C660 C 0.38493 0.80319 0.82664
 C661 C 0.40758 0.80442 0.81012
 C662 C 0.40688 0.78921 0.80512
 C663 C 0.41933 0.78245 0.79832
 C664 C 0.43274 0.79076 0.79626
 C665 C 0.43349 0.80593 0.80128
 C666 C 0.42107 0.81267 0.80818
 C667 C 0.44577 0.78370 0.78864
 C668 C 0.45371 0.79191 0.77787
 C669 C 0.46560 0.78507 0.77025
 C670 C 0.46990 0.76992 0.77331
 C671 C 0.46215 0.76182 0.78429
 C672 C 0.45016 0.76861 0.79182
 H673 H 0.39763 0.83392 0.80733
 H674 H 0.37648 0.84594 0.81923
 H675 H 0.36529 0.80258 0.83987
 H676 H 0.38736 0.79130 0.82899
 H677 H 0.39660 0.78261 0.80619
 H678 H 0.41837 0.77081 0.79437
 H679 H 0.44375 0.81254 0.79999
 H680 H 0.42211 0.82430 0.81214
 H681 H 0.45047 0.80350 0.77510
 H682 H 0.47135 0.79162 0.76186
 H683 H 0.46518 0.75013 0.78690
 H684 H 0.44433 0.76209 0.80017
 C685 C -0.10488 0.31330 0.81885
 C686 C -0.10618 0.32934 0.81941
 C687 C -0.11844 0.33624 0.82643
 C688 C -0.12983 0.32729 0.83291
 C689 C -0.12850 0.31126 0.83239
 C690 C -0.11614 0.30437 0.82556
 C691 C -0.09198 0.30589 0.81114
 C692 C -0.09403 0.29206 0.80351
 C693 C -0.08196 0.28507 0.79630
 C694 C -0.06761 0.29185 0.79634
 C695 C -0.06551 0.30570 0.80383
 C696 C -0.07753 0.31259 0.81125
 C697 C -0.05495 0.28454 0.78843
 C698 C -0.04591 0.29312 0.77882
 C699 C -0.03434 0.28607 0.77089
 C700 C -0.03143 0.27036 0.77261
 C701 C -0.04029 0.26185 0.78246
 C702 C -0.05201 0.26885 0.79020
 H703 H -0.09785 0.33661 0.81421
 H704 H -0.11896 0.34861 0.82678
 H705 H -0.13714 0.30396 0.83705
 H706 H -0.11543 0.29200 0.82560
 H707 H -0.10503 0.28672 0.80288
 H708 H -0.08390 0.27449 0.79042
 H709 H -0.05450 0.31107 0.80412
 H710 H -0.07543 0.32307 0.81721
 H711 H -0.04803 0.30521 0.77721
 H712 H -0.02768 0.29292 0.76341
 H713 H -0.03834 0.24972 0.78399
 H714 H -0.05878 0.26202 0.79763
 C715 C -0.10555 0.81713 0.31854
 C716 C -0.11626 0.82513 0.31026
 C717 C -0.12873 0.83186 0.31703
 C718 C -0.13066 0.83095 0.33228
 C719 C -0.11987 0.82294 0.34056
 C720 C -0.10750 0.81601 0.33374
 C721 C -0.09243 0.80993 0.31127
 C722 C -0.08856 0.79469 0.31430
 C723 C -0.07653 0.78771 0.30697
 C724 C -0.06799 0.79592 0.29660
 C725 C -0.07173 0.81130 0.29384
 C726 C -0.08388 0.81819 0.30101
 C727 C -0.05541 0.78841 0.28852
 C728 C -0.05254 0.79208 0.27379
 C729 C -0.04084 0.78494 0.26614
 C730 C -0.03187 0.77381 0.27296
 C731 C -0.03471 0.77009 0.28766
 C732 C -0.04627 0.77738 0.29538
 H733 H -0.11511 0.82595 0.29850
 H734 H -0.13697 0.83761 0.31026
 H735 H -0.12084 0.82221 0.35234
 H736 H -0.09930 0.81000 0.34036
 H737 H -0.09509 0.78805 0.32206
 H738 H -0.07417 0.77579 0.30921
 H739 H -0.06522 0.81809 0.28619
 H740 H -0.08654 0.83003 0.29864
 H741 H -0.05951 0.80027 0.26805
 H742 H -0.03901 0.78795 0.25479
 H743 H -0.02790 0.76163 0.29323
 H744 H -0.04796 0.77446 0.30677
 C745 C 0.61053 0.68771 0.31507
 C746 C 0.61234 0.67172 0.31462
 C747 C 0.62453 0.66471 0.32159
 C748 C 0.63535 0.67351 0.32904
 C749 C 0.63361 0.68951 0.32938
 C750 C 0.62132 0.69650 0.32256
 C751 C 0.59744 0.69516 0.30778
 C752 C 0.59902 0.70954 0.30099
 C753 C 0.58672 0.71653 0.29419
 C754 C 0.57262 0.70923 0.29384
 C755 C 0.57100 0.69486 0.30053
 C756 C 0.58323 0.68795 0.30752
 C757 C 0.55967 0.71653 0.28639
 C758 C 0.55074 0.70809 0.27662
 C759 C 0.53871 0.71505 0.26935
 C760 C 0.53524 0.73052 0.27187
 C761 C 0.54406 0.73890 0.28180
 C762 C 0.55623 0.73199 0.28891
 H763 H 0.60441 0.66458 0.30878
 H764 H 0.62538 0.65235 0.32126
 H765 H 0.64182 0.69668 0.33482
 H766 H 0.62021 0.70881 0.32332
 H767 H 0.60982 0.71530 0.30072
 H768 H 0.58830 0.72754 0.28893
 H769 H 0.56019 0.68908 0.30055
 H770 H 0.58149 0.67703 0.31287
 H771 H 0.55324 0.69618 0.27442
 H772 H 0.53210 0.70830 0.26178
 H773 H 0.54168 0.75085 0.28394
 H774 H 0.56289 0.73870 0.29648
 C775 C 0.60329 0.18622 0.81530
 C776 C 0.61472 0.19487 0.82203
 C777 C 0.62720 0.18769 0.82830
 C778 C 0.62851 0.17165 0.82821
 C779 C 0.61697 0.16298 0.82169
 C780 C 0.60458 0.17017 0.81524
 C781 C 0.59019 0.19391 0.80824
 C782 C 0.57576 0.18717 0.80853
 C783 C 0.56357 0.19425 0.80161
 C784 C 0.56548 0.20834 0.79445
 C785 C 0.57980 0.21520 0.79429
 C786 C 0.59204 0.20802 0.80101
 C787 C 0.55267 0.21575 0.78690
 C788 C 0.54967 0.23138 0.78899
 C789 C 0.53784 0.23847 0.78153
 C790 C 0.52894 0.23012 0.77165
 C791 C 0.53190 0.21446 0.76964
 C792 C 0.54357 0.20731 0.77728
 H793 H 0.61401 0.20723 0.82252
 H794 H 0.63594 0.19476 0.83305
 H795 H 0.61745 0.15060 0.82163
 H796 H 0.59613 0.16312 0.81000
 H797 H 0.57382 0.17649 0.81423
 H798 H 0.55260 0.18882 0.80199
 H799 H 0.58159 0.22596 0.78866
 H800 H 0.60300 0.21342 0.80027
 H801 H 0.55648 0.23809 0.79643
 H802 H 0.53586 0.25057 0.78327
 H803 H 0.52520 0.20773 0.76212
 H804 H 0.54573 0.19527 0.77542
 C805 C 1.10723 0.68821 0.82101
 C806 C 1.10857 0.67217 0.82114
 C807 C 1.12107 0.66511 0.82751
 C808 C 1.13268 0.67391 0.83376
 C809 C 1.13129 0.68994 0.83373
 C810 C 1.11870 0.69700 0.82752
 C811 C 1.09409 0.69574 0.81388
 C812 C 1.09590 0.70964 0.80628
 C813 C 1.08365 0.71654 0.79931
 C814 C 1.06937 0.70961 0.79961
 C815 C 1.06749 0.69578 0.80721
 C816 C 1.07969 0.68897 0.81436
 C817 C 1.05657 0.71663 0.79170
 C818 C 1.04752 0.70771 0.78244
 C819 C 1.03581 0.71442 0.77450
 C820 C 1.03278 0.73014 0.77584
 C821 C 1.04167 0.73901 0.78531
 C822 C 1.05353 0.73234 0.79308
 H823 H 1.10009 0.66502 0.81608
 H824 H 1.12162 0.65273 0.82756
 H825 H 1.14007 0.69709 0.83831
 H826 H 1.11795 0.70936 0.82786
 H827 H 1.10685 0.71504 0.80541
 H828 H 1.08543 0.72712 0.79335
 H829 H 1.05654 0.69030 0.80773
 H830 H 1.07778 0.67845 0.82034
 H831 H 1.04973 0.69559 0.78111
 H832 H 1.02914 0.70729 0.76731
 H833 H 1.03962 0.75116 0.78653
 H834 H 1.06030 0.73943 0.80022
 C835 C 1.10539 0.18882 0.31424
 C836 C 1.11611 0.19768 0.32171
 C837 C 1.12844 0.19071 0.32850
 C838 C 1.13021 0.17470 0.32813
 C839 C 1.11938 0.16587 0.32072
 C840 C 1.10716 0.17286 0.31378
 C841 C 1.09244 0.19622 0.30687
 C842 C 1.08849 0.19202 0.29258
 C843 C 1.07636 0.19905 0.28556
 C844 C 1.06776 0.21032 0.29273
 C845 C 1.07170 0.21444 0.30710
 C846 C 1.08396 0.20752 0.31405
 C847 C 1.05482 0.21778 0.28521
 C848 C 1.05165 0.23340 0.28742
 C849 C 1.03973 0.24046 0.28005
 C850 C 1.03083 0.23213 0.27017
 C851 C 1.03388 0.21651 0.26805
 C852 C 1.04567 0.20940 0.27555
 H853 H 1.11510 0.21002 0.32206
 H854 H 1.13669 0.19790 0.33386
 H855 H 1.12021 0.15351 0.32044
 H856 H 1.09895 0.16577 0.30824
 H857 H 1.09498 0.18348 0.28674
 H858 H 1.07388 0.19581 0.27440
 H859 H 1.06519 0.22286 0.31306
 H860 H 1.08668 0.21084 0.32515
 H861 H 1.05859 0.24027 0.29459
 H862 H 1.03771 0.25254 0.28183
 H863 H 1.02713 0.20976 0.26060
 H864 H 1.04755 0.19730 0.27381
 C865 C 0.60457 0.31541 0.68306
 C866 C 0.61522 0.30671 0.67525
 C867 C 0.62782 0.31369 0.66892
 C868 C 0.63002 0.32959 0.67005
 C869 C 0.61926 0.33833 0.67768
 C870 C 0.60674 0.33132 0.68416
 C871 C 0.59138 0.30787 0.69016
 C872 C 0.57727 0.31521 0.69075
 C873 C 0.56497 0.30818 0.69762
 C874 C 0.56647 0.29358 0.70388
 C875 C 0.58049 0.28617 0.70320
 C876 C 0.59283 0.29327 0.69651
 C877 C 0.55353 0.28617 0.71132
 C878 C 0.55010 0.27073 0.70864
 C879 C 0.53815 0.26361 0.71597
 C880 C 0.52954 0.27174 0.72628
 C881 C 0.53293 0.28722 0.72889
 C882 C 0.54475 0.29439 0.72141
 H883 H 0.61382 0.29448 0.67397
 H884 H 0.63596 0.30655 0.66333
 H885 H 0.62049 0.35062 0.67862
 H886 H 0.59888 0.33836 0.69023
 H887 H 0.57565 0.32633 0.68577
 H888 H 0.55423 0.31406 0.69788
 H889 H 0.58199 0.27501 0.70814
 H890 H 0.60358 0.28740 0.69654
 H891 H 0.55664 0.26418 0.70083
 H892 H 0.53582 0.25166 0.71376
 H893 H 0.52647 0.29379 0.73675
 H894 H 0.54725 0.30628 0.72374
 C895 C 0.60394 0.81801 0.18041
 C896 C 0.61323 0.80983 0.17074
 C897 C 0.62587 0.81671 0.16438
 C898 C 0.62966 0.83212 0.16739
 C899 C 0.61988 0.84040 0.17672
 C900 C 0.60730 0.83343 0.18315
 C901 C 0.59111 0.81030 0.18794
 C902 C 0.57752 0.81813 0.19066
 C903 C 0.56566 0.81092 0.19808
 C904 C 0.56709 0.79569 0.20281
 C905 C 0.58060 0.78783 0.20002
 C906 C 0.59248 0.79506 0.19273
 C907 C 0.55464 0.78801 0.21083
 C908 C 0.55061 0.77287 0.20742
 C909 C 0.53932 0.76538 0.21535
 C910 C 0.53190 0.77280 0.22694
 C911 C 0.53581 0.78802 0.23023
 C912 C 0.54702 0.79556 0.22220
 H913 H 0.61085 0.79797 0.16819
 H914 H 0.63299 0.80947 0.15774
 H915 H 0.62160 0.85242 0.17896
 H916 H 0.60038 0.84010 0.19055
 H917 H 0.57599 0.82979 0.18694
 H918 H 0.55530 0.81718 0.19996
 H919 H 0.58209 0.77617 0.20376
 H920 H 0.60288 0.78879 0.19113
 H921 H 0.55619 0.76684 0.19861
 H922 H 0.53656 0.75367 0.21253
 H923 H 0.53029 0.79406 0.23908
 H924 H 0.55000 0.80719 0.22513
 C925 C 1.10506 0.31546 0.17864
 C926 C 1.11473 0.30698 0.16958
 C927 C 1.12734 0.31380 0.16312
 C928 C 1.13072 0.32945 0.16541
 C929 C 1.12073 0.33792 0.17436
 C930 C 1.10818 0.33102 0.18088
 C931 C 1.09193 0.30803 0.18592
 C932 C 1.07823 0.31594 0.18769
 C933 C 1.06605 0.30907 0.19488
 C934 C 1.06724 0.29409 0.20033
 C935 C 1.08084 0.28610 0.19842
 C936 C 1.09306 0.29301 0.19135
 C937 C 1.05446 0.28690 0.20824
 C938 C 1.05038 0.27164 0.20542
 C939 C 1.03861 0.26473 0.21318
 C940 C 1.03078 0.27289 0.22405
 C941 C 1.03480 0.28819 0.22679
 C942 C 1.04647 0.29514 0.21892
 H943 H 1.11259 0.29497 0.16749
 H944 H 1.13470 0.30643 0.15686
 H945 H 1.12218 0.35007 0.17612
 H946 H 1.10101 0.33790 0.18786
 H947 H 1.07687 0.32742 0.18342
 H948 H 1.05563 0.31542 0.19605
 H949 H 1.08213 0.27462 0.20271
 H950 H 1.10351 0.28668 0.19043
 H951 H 1.05627 0.26508 0.19715
 H952 H 1.03578 0.25293 0.21082
 H953 H 1.02897 0.29479 0.23508
 H954 H 1.04948 0.30687 0.22141
 C955 C 1.10659 0.81049 0.68188
 C956 C 1.11603 0.80200 0.67261
 C957 C 1.12847 0.80884 0.66582
 C958 C 1.13190 0.82449 0.66802
 C959 C 1.12223 0.83292 0.67734
 C960 C 1.10985 0.82603 0.68415
 C961 C 1.09345 0.80316 0.68925
 C962 C 1.07985 0.81121 0.69112
 C963 C 1.06765 0.80447 0.69839
 C964 C 1.06873 0.78949 0.70385
 C965 C 1.08223 0.78134 0.70182
 C966 C 1.09447 0.78812 0.69465
 C967 C 1.05596 0.78250 0.71197
 C968 C 1.05170 0.76724 0.70938
 C969 C 1.03992 0.76056 0.71734
 C970 C 1.03226 0.76896 0.72815
 C971 C 1.03645 0.78426 0.73064
 C972 C 1.04813 0.79097 0.72259
 H973 H 1.11379 0.79002 0.67053
 H974 H 1.13563 0.80150 0.65931
 H975 H 1.12376 0.84506 0.67908
 H976 H 1.10288 0.83290 0.69132
 H977 H 1.07857 0.82270 0.68685
 H978 H 1.05731 0.81094 0.69963
 H979 H 1.08344 0.76985 0.70611
 H980 H 1.10485 0.78168 0.69363
 H981 H 1.05746 0.76050 0.70115
 H982 H 1.03697 0.74875 0.71517
 H983 H 1.03077 0.79104 0.73888
 H984 H 1.05127 0.80270 0.72491
 C985 C 0.39443 0.68823 0.68224
 C986 C 0.39505 0.68487 0.66721
 C987 C 0.38275 0.67812 0.66018
 C988 C 0.36964 0.67441 0.66805
 C989 C 0.36897 0.67773 0.68305
 C990 C 0.38119 0.68465 0.69005
 C991 C 0.40756 0.69533 0.68977
 C992 C 0.41120 0.69118 0.70419
 C993 C 0.42344 0.69790 0.71131
 C994 C 0.43249 0.70883 0.70416
 C995 C 0.42891 0.71290 0.68970
 C996 C 0.41657 0.70630 0.68262
 C997 C 0.44550 0.71600 0.71181
 C998 C 0.44911 0.73151 0.70954
 C999 C 0.46109 0.73831 0.71701
 C1000 C 0.46964 0.72982 0.72706
 C1001 C 0.46615 0.71430 0.72925
 C1002 C 0.45429 0.70744 0.72165
 H1003 H 0.40514 0.68721 0.66090
 H1004 H 0.38359 0.67552 0.64863
 H1005 H 0.35890 0.67516 0.68931
 H1006 H 0.38018 0.68735 0.70156
 H1007 H 0.40467 0.68262 0.70997
 H1008 H 0.42570 0.69464 0.72251
 H1009 H 0.43573 0.72113 0.68378
 H1010 H 0.41399 0.70992 0.67159
 H1011 H 0.44245 0.73851 0.70222
 H1012 H 0.46345 0.75033 0.71517
 H1013 H 0.47262 0.70742 0.73684
 H1014 H 0.45206 0.69540 0.72345
 C1015 C 0.39492 0.18811 0.17985
 C1016 C 0.39347 0.17211 0.17954
 C1017 C 0.38106 0.16526 0.17279
 C1018 C 0.36971 0.17428 0.16638
 C1019 C 0.37130 0.19031 0.16656
 C1020 C 0.38382 0.19714 0.17315
 C1021 C 0.40777 0.19535 0.18751
 C1022 C 0.41602 0.20720 0.18087
 C1023 C 0.42806 0.21409 0.18821
 C1024 C 0.43197 0.20942 0.20244
 C1025 C 0.42360 0.19759 0.20906
 C1026 C 0.41171 0.19057 0.20163
 C1027 C 0.44458 0.21692 0.21043
 C1028 C 0.45375 0.20841 0.21999
 C1029 C 0.46519 0.21553 0.22795
 C1030 C 0.46792 0.23129 0.22639
 C1031 C 0.45902 0.23976 0.21662
 C1032 C 0.44742 0.23269 0.20881
 H1033 H 0.40199 0.16490 0.18447
 H1034 H 0.38040 0.15289 0.17255
 H1035 H 0.36268 0.19761 0.16193
 H1036 H 0.38463 0.20951 0.17338
 H1037 H 0.41326 0.21098 0.16992
 H1038 H 0.43439 0.22296 0.18266
 H1039 H 0.42603 0.19391 0.22010
 H1040 H 0.40538 0.18160 0.20706
 H1041 H 0.45214 0.19620 0.22129
 H1042 H 0.47197 0.20867 0.23529
 H1043 H 0.46081 0.25195 0.21527
 H1044 H 0.44046 0.23966 0.20175
 C1045 C -0.10390 0.68536 0.18355
 C1046 C -0.11449 0.67721 0.19192
 C1047 C -0.12697 0.67042 0.18527
 C1048 C -0.12904 0.67142 0.17005
 C1049 C -0.11833 0.67950 0.16167
 C1050 C -0.10595 0.68649 0.16837
 C1051 C -0.09088 0.69283 0.19071
 C1052 C -0.08731 0.70815 0.18764
 C1053 C -0.07542 0.71540 0.19488
 C1054 C -0.06670 0.70740 0.20521
 C1055 C -0.07014 0.69195 0.20802
 C1056 C -0.08217 0.68478 0.20094
 C1057 C -0.05428 0.71523 0.21321
 C1058 C -0.05131 0.71166 0.22793
 C1059 C -0.03982 0.71914 0.23553
 C1060 C -0.03115 0.73053 0.22866
 C1061 C -0.03406 0.73413 0.21397
 C1062 C -0.04541 0.72649 0.20630
 H1063 H -0.11326 0.67637 0.20367
 H1064 H -0.13514 0.66461 0.19212
 H1065 H -0.11940 0.68029 0.14991
 H1066 H -0.09785 0.69261 0.16168
 H1067 H -0.09399 0.71464 0.17991
 H1068 H -0.07331 0.72737 0.19261
 H1069 H -0.06349 0.68532 0.21565
 H1070 H -0.08460 0.67289 0.20336
 H1071 H -0.05807 0.70328 0.23372
 H1072 H -0.03791 0.71621 0.24688
 H1073 H -0.02747 0.74278 0.20835
 H1074 H -0.04716 0.72934 0.19491
 C1075 C -0.10586 0.18606 0.68161
 C1076 C -0.10863 0.17037 0.68330
 C1077 C -0.12105 0.16349 0.67661
 C1078 C -0.13127 0.17215 0.66809
 C1079 C -0.12820 0.18796 0.66636
 C1080 C -0.11567 0.19475 0.67297
 C1081 C -0.09290 0.19338 0.68907
 C1082 C -0.08362 0.20386 0.68163
 C1083 C -0.07145 0.21078 0.68873
 C1084 C -0.06838 0.20749 0.70349
 C1085 C -0.07775 0.19704 0.71092
 C1086 C -0.08981 0.19002 0.70377
 C1087 C -0.05557 0.21498 0.71117
 C1088 C -0.04712 0.20687 0.72162
 C1089 C -0.03544 0.21403 0.72922
 C1090 C -0.03180 0.22942 0.72647
 C1091 C -0.04002 0.23747 0.71585
 C1092 C -0.05182 0.23035 0.70833
 H1093 H -0.10102 0.16333 0.68966
 H1094 H -0.12215 0.15123 0.67780
 H1095 H -0.13578 0.19544 0.66050
 H1096 H -0.11392 0.20695 0.67167
 H1097 H -0.08566 0.20652 0.67024
 H1098 H -0.06434 0.21857 0.68261
 H1099 H -0.07593 0.19447 0.72236
 H1100 H -0.09692 0.18216 0.70983
 H1101 H -0.04947 0.19494 0.72388
 H1102 H -0.02922 0.20747 0.73726
 H1103 H -0.03754 0.24937 0.71354
 H1104 H -0.05821 0.23701 0.70052
 C1105 C 0.31410 0.39354 0.31827
 C1106 C 0.30539 0.38289 0.32616
 C1107 C 0.31219 0.37046 0.33313
 C1108 C 0.32791 0.36845 0.33257
 C1109 C 0.33666 0.37928 0.32495
 C1110 C 0.32984 0.39161 0.31782
 C1111 C 0.30676 0.40642 0.31034
 C1112 C 0.31380 0.42084 0.30933
 C1113 C 0.30692 0.43285 0.30175
 C1114 C 0.29277 0.43077 0.29520
 C1115 C 0.28570 0.41643 0.29621
 C1116 C 0.29266 0.40436 0.30359
 C1117 C 0.28529 0.44352 0.28741
 C1118 C 0.27005 0.44681 0.29013
 C1119 C 0.26286 0.45869 0.28269
 C1120 C 0.27071 0.46740 0.27222
 C1121 C 0.28598 0.46411 0.26949
 C1122 C 0.29324 0.45235 0.27712
 H1123 H 0.29327 0.38414 0.32697
 H1124 H 0.30505 0.36226 0.33872
 H1125 H 0.34882 0.37824 0.32447
 H1126 H 0.33691 0.39947 0.31173
 H1127 H 0.32454 0.42293 0.31458
 H1128 H 0.31252 0.44386 0.30125
 H1129 H 0.27488 0.41449 0.29107
 H1130 H 0.28705 0.39336 0.30383
 H1131 H 0.26372 0.44025 0.29811
 H1132 H 0.25108 0.46093 0.28500
 H1133 H 0.29232 0.47065 0.26151
 H1134 H 0.30498 0.44996 0.27478
 C1135 C 0.31439 -0.10956 0.81730
 C1136 C 0.32964 -0.11274 0.81451
 C1137 C 0.33683 -0.12505 0.82133
 C1138 C 0.32896 -0.13473 0.83115
 C1139 C 0.31363 -0.13131 0.83395
 C1140 C 0.30652 -0.11893 0.82717
 C1141 C 0.30667 -0.09664 0.80981
 C1142 C 0.29163 -0.09812 0.80513
 C1143 C 0.28439 -0.08605 0.79799
 C1144 C 0.29205 -0.07227 0.79525
 C1145 C 0.30707 -0.07075 0.79990
 C1146 C 0.31428 -0.08277 0.80715
 C1147 C 0.28445 -0.05960 0.78737
 C1148 C 0.29198 -0.05166 0.77616
 C1149 C 0.28469 -0.03999 0.76848
 C1150 C 0.26977 -0.03590 0.77194
 C1151 C 0.26231 -0.04373 0.78328
 C1152 C 0.26955 -0.05551 0.79087
 H1153 H 0.33605 -0.10580 0.80690
 H1154 H 0.34872 -0.12655 0.81913
 H1155 H 0.30671 -0.13847 0.84088
 H1156 H 0.29478 -0.11673 0.82969
 H1157 H 0.28552 -0.10872 0.80674
 H1158 H 0.27289 -0.08761 0.79434
 H1159 H 0.31317 -0.06017 0.79808
 H1160 H 0.32577 -0.08114 0.81082
 H1161 H 0.30341 -0.05469 0.77315
 H1162 H 0.29076 -0.03417 0.75981
 H1163 H 0.25081 -0.04086 0.78621
 H1164 H 0.26354 -0.06135 0.79956
 C1165 C 0.81714 0.39374 0.82027
 C1166 C 0.83287 0.39166 0.81998
 C1167 C 0.83946 0.37877 0.82638
 C1168 C 0.83059 0.36770 0.83366
 C1169 C 0.81485 0.37005 0.83422
 C1170 C 0.80825 0.38273 0.82747
 C1171 C 0.81002 0.40716 0.81288
 C1172 C 0.79656 0.41358 0.81828
 C1173 C 0.78955 0.42569 0.81098
 C1174 C 0.79596 0.43201 0.79825
 C1175 C 0.80964 0.42586 0.79308
 C1176 C 0.81646 0.41351 0.80017
 C1177 C 0.78831 0.44471 0.79024
 C1178 C 0.78950 0.44590 0.77493
 C1179 C 0.78228 0.45771 0.76739
 C1180 C 0.77338 0.46839 0.77491
 C1181 C 0.77203 0.46723 0.79016
 C1182 C 0.77956 0.45564 0.79776
 H1183 H 0.84019 0.40007 0.81496
 H1184 H 0.85164 0.37790 0.82610
 H1185 H 0.80740 0.36170 0.83915
 H1186 H 0.79608 0.38362 0.82760
 H1187 H 0.79137 0.40927 0.82818
 H1188 H 0.77894 0.42990 0.81524
 H1189 H 0.81515 0.43055 0.78350
 H1190 H 0.82667 0.40881 0.79549
 H1191 H 0.79577 0.43755 0.76865
 H1192 H 0.78336 0.45826 0.75560
 H1193 H 0.76531 0.47542 0.79622
 H1194 H 0.77859 0.45537 0.80955
 C1195 C 0.81803 -0.10078 0.32122
 C1196 C 0.82749 -0.11030 0.31300
 C1197 C 0.83401 -0.12327 0.31928
 C1198 C 0.83139 -0.12711 0.33412
 C1199 C 0.82204 -0.11718 0.34235
 C1200 C 0.81542 -0.10430 0.33596
 C1201 C 0.81054 -0.08751 0.31423
 C1202 C 0.79508 -0.08489 0.31640
 C1203 C 0.78779 -0.07295 0.30910
 C1204 C 0.79585 -0.06327 0.29956
 C1205 C 0.81142 -0.06571 0.29769
 C1206 C 0.81866 -0.07774 0.30488
 C1207 C 0.78796 -0.05096 0.29134
 C1208 C 0.79205 -0.04757 0.27682
 C1209 C 0.78438 -0.03630 0.26894
 C1210 C 0.77234 -0.02827 0.27534
 C1211 C 0.76830 -0.03157 0.28987
 C1212 C 0.77607 -0.04272 0.29780
 H1213 H 0.82945 -0.10801 0.30151
 H1214 H 0.84044 -0.13060 0.31209
 H1215 H 0.82007 -0.11895 0.35389
 H1216 H 0.80834 -0.09696 0.34261
 H1217 H 0.78852 -0.09238 0.32340
 H1218 H 0.77576 -0.07159 0.31061
 H1219 H 0.81803 -0.05830 0.29067
 H1220 H 0.83064 -0.07941 0.30317
 H1221 H 0.80097 -0.05386 0.27140
 H1222 H 0.78769 -0.03409 0.25773
 H1223 H 0.75915 -0.02548 0.29515
 H1224 H 0.77279 -0.04484 0.30903
 C1225 C 0.31567 0.60834 0.68066
 C1226 C 0.30727 0.61910 0.67265
 C1227 C 0.31437 0.63149 0.66584
 C1228 C 0.33010 0.63336 0.66670
 C1229 C 0.33854 0.62243 0.67447
 C1230 C 0.33141 0.61014 0.68142
 C1231 C 0.30802 0.59546 0.68837
 C1232 C 0.31491 0.58098 0.68941
 C1233 C 0.30778 0.56899 0.69683
 C1234 C 0.29352 0.57113 0.70321
 C1235 C 0.28658 0.58552 0.70213
 C1236 C 0.29378 0.59757 0.69488
 C1237 C 0.28586 0.55842 0.71097
 C1238 C 0.27059 0.55526 0.70829
 C1239 C 0.26327 0.54340 0.71571
 C1240 C 0.27102 0.53459 0.72613
 C1241 C 0.28631 0.53775 0.72882
 C1242 C 0.29369 0.54949 0.72123
 H1243 H 0.29516 0.61796 0.67160
 H1244 H 0.30747 0.63977 0.66012
 H1245 H 0.35069 0.62336 0.67519
 H1246 H 0.33825 0.60220 0.68762
 H1247 H 0.32574 0.57884 0.68432
 H1248 H 0.31329 0.55794 0.69738
 H1249 H 0.27567 0.58752 0.70713
 H1250 H 0.28826 0.60861 0.69460
 H1251 H 0.26434 0.56190 0.70034
 H1252 H 0.25147 0.54126 0.71342
 H1253 H 0.29258 0.53114 0.73676
 H1254 H 0.30545 0.55178 0.72356
 C1255 C 0.31497 1.10937 0.18203
 C1256 C 0.31290 1.11192 0.16702
 C1257 C 0.31997 1.12421 0.15999
 C1258 C 0.32930 1.13451 0.16777
 C1259 C 0.33131 1.13176 0.18288
 C1260 C 0.32435 1.11939 0.18983
 C1261 C 0.30733 1.09640 0.18958
 C1262 C 0.30194 1.09809 0.20397
 C1263 C 0.29502 1.08586 0.21120
 C1264 C 0.29315 1.07173 0.20416
 C1265 C 0.29831 1.07004 0.18973
 C1266 C 0.30541 1.08221 0.18254
 C1267 C 0.28588 1.05879 0.21192
 C1268 C 0.27456 1.05010 0.20513
 C1269 C 0.26741 1.03820 0.21268
 C1270 C 0.27161 1.03463 0.22709
 C1271 C 0.28312 1.04317 0.23378
 C1272 C 0.29011 1.05518 0.22630
 H1273 H 0.30568 1.10448 0.16067
 H1274 H 0.31837 1.12517 0.14832
 H1275 H 0.33774 1.13942 0.18973
 H1276 H 0.32635 1.11769 0.20139
 H1277 H 0.30290 1.10892 0.20962
 H1278 H 0.29093 1.08752 0.22225
 H1279 H 0.29712 1.05919 0.18412
 H1280 H 0.30962 1.08042 0.17156
 H1281 H 0.27105 1.05273 0.19408
 H1282 H 0.25860 1.03180 0.20723
 H1283 H 0.28658 1.04071 0.24488
 H1284 H 0.29891 1.06163 0.23173
 C1285 C 0.81863 0.60345 0.18172
 C1286 C 0.82611 0.61425 0.19043
 C1287 C 0.83265 0.62722 0.18412
 C1288 C 0.83209 0.62957 0.16890
 C1289 C 0.82477 0.61858 0.16018
 C1290 C 0.81799 0.60572 0.16654
 C1291 C 0.81123 0.59006 0.18859
 C1292 C 0.79616 0.58652 0.18539
 C1293 C 0.78886 0.57451 0.19264
 C1294 C 0.79656 0.56563 0.20308
 C1295 C 0.81182 0.56896 0.20591
 C1296 C 0.81902 0.58112 0.19884
 C1297 C 0.78863 0.55325 0.21128
 C1298 C 0.79214 0.55035 0.22603
 C1299 C 0.78462 0.53889 0.23382
 C1300 C 0.77323 0.53021 0.22715
 C1301 C 0.76964 0.53308 0.21245
 C1302 C 0.77733 0.54439 0.20458
 H1303 H 0.82656 0.61284 0.20218
 H1304 H 0.83783 0.63557 0.19125
 H1305 H 0.82433 0.61985 0.14842
 H1306 H 0.81237 0.59746 0.15961
 H1307 H 0.78989 0.59337 0.17764
 H1308 H 0.77706 0.57248 0.19034
 H1309 H 0.81823 0.56217 0.21360
 H1310 H 0.83071 0.58355 0.20135
 H1311 H 0.80052 0.55713 0.23168
 H1312 H 0.78754 0.53703 0.24517
 H1313 H 0.76098 0.52647 0.20700
 H1314 H 0.77449 0.54609 0.19319
 C1315 C 0.81532 1.10606 0.68141
 C1316 C 0.81331 1.10909 0.66650
 C1317 C 0.82019 1.12178 0.65996
 C1318 C 0.82922 1.13200 0.66819
 C1319 C 0.83105 1.12878 0.68325
 C1320 C 0.82429 1.11599 0.68969
 C1321 C 0.80796 1.09269 0.68842
 C1322 C 0.81609 1.08327 0.69803
 C1323 C 0.80905 1.07097 0.70504
 C1324 C 0.79365 1.06790 0.70274
 C1325 C 0.78558 1.07726 0.69298
 C1326 C 0.79268 1.08947 0.68584
 C1327 C 0.78600 1.05520 0.71071
 C1328 C 0.77463 1.04649 0.70396
 C1329 C 0.76724 1.03480 0.71161
 C1330 C 0.77116 1.03145 0.72614
 C1331 C 0.78261 1.04004 0.73285
 C1332 C 0.78988 1.05182 0.72527
 H1333 H 0.80661 1.10145 0.65982
 H1334 H 0.81878 1.12310 0.64829
 H1335 H 0.83709 1.13641 0.69045
 H1336 H 0.82575 1.11409 0.70131
 H1337 H 0.82794 1.08539 0.70004
 H1338 H 0.81571 1.06382 0.71221
 H1339 H 0.77366 1.07541 0.69112
 H1340 H 0.78612 1.09666 0.67861
 H1341 H 0.77151 1.04859 0.69270
 H1342 H 0.75852 1.02832 0.70611
 H1343 H 0.78581 1.03782 0.74408
 H1344 H 0.79836 1.05846 0.73092
 C1345 C 0.68865 0.60655 0.31728
 C1346 C 0.69719 0.61726 0.32522
 C1347 C 0.69028 0.62988 0.33178
 C1348 C 0.67460 0.63204 0.33075
 C1349 C 0.66602 0.62120 0.32302
 C1350 C 0.67296 0.60867 0.31631
 C1351 C 0.69609 0.59336 0.30989
 C1352 C 0.68883 0.57905 0.30899
 C1353 C 0.69570 0.56680 0.30175
 C1354 C 0.71004 0.56851 0.29543
 C1355 C 0.71739 0.58270 0.29645
 C1356 C 0.71046 0.59501 0.30351
 C1357 C 0.71728 0.55559 0.28763
 C1358 C 0.73245 0.55191 0.29024
 C1359 C 0.73936 0.53989 0.28270
 C1360 C 0.73128 0.53144 0.27225
 C1361 C 0.71609 0.53512 0.26966
 C1362 C 0.70913 0.54700 0.27736
 H1363 H 0.70926 0.61589 0.32641
 H1364 H 0.69729 0.63808 0.33747
 H1365 H 0.65390 0.62236 0.32217
 H1366 H 0.66602 0.60079 0.31014
 H1367 H 0.67790 0.57725 0.31400
 H1368 H 0.68988 0.55591 0.30125
 H1369 H 0.72838 0.58436 0.29149
 H1370 H 0.71626 0.60592 0.30371
 H1371 H 0.73894 0.55830 0.29819
 H1372 H 0.75109 0.53735 0.28491
 H1373 H 0.70957 0.52879 0.26169
 H1374 H 0.69744 0.54969 0.27507
 C1375 C 0.68174 1.10520 0.81347
 C1376 C 0.67269 1.11527 0.80544
 C1377 C 0.66593 1.12787 0.81218
 C1378 C 0.66787 1.13074 0.82730
 C1379 C 0.67684 1.12028 0.83529
 C1380 C 0.68372 1.10780 0.82845
 C1381 C 0.68933 1.09215 0.80618
 C1382 C 0.70463 1.08915 0.80881
 C1383 C 0.71192 1.07708 0.80170
 C1384 C 0.70401 1.06761 0.79192
 C1385 C 0.68862 1.07055 0.78943
 C1386 C 0.68139 1.08275 0.79642
 C1387 C 0.71184 1.05484 0.78424
 C1388 C 0.70820 1.05114 0.76970
 C1389 C 0.71577 1.03935 0.76241
 C1390 C 0.72728 1.03112 0.76943
 C1391 C 0.73088 1.03474 0.78397
 C1392 C 0.72319 1.04639 0.79132
 H1393 H 0.67120 1.11365 0.79379
 H1394 H 0.65980 1.13565 0.80519
 H1395 H 0.67826 1.12125 0.84698
 H1396 H 0.69043 1.10000 0.83495
 H1397 H 0.71106 1.09637 0.81614
 H1398 H 0.72383 1.07538 0.80367
 H1399 H 0.68210 1.06334 0.78219
 H1400 H 0.66953 1.08472 0.79433
 H1401 H 0.69972 1.05755 0.76382
 H1402 H 0.71282 1.03690 0.75118
 H1403 H 0.73960 1.02851 0.78971
 H1404 H 0.72609 1.04870 0.80259
 C1405 C 0.18575 0.60795 0.81747
 C1406 C 0.18823 0.61049 0.83239
 C1407 C 0.18159 0.62297 0.83948
 C1408 C 0.17236 0.63345 0.83181
 C1409 C 0.17004 0.63071 0.81672
 C1410 C 0.17655 0.61813 0.80974
 C1411 C 0.19288 0.59482 0.80990
 C1412 C 0.18443 0.58558 0.80040
 C1413 C 0.19123 0.57341 0.79300
 C1414 C 0.20669 0.57030 0.79480
 C1415 C 0.21510 0.57955 0.80439
 C1416 C 0.20825 0.59161 0.81192
 C1417 C 0.21406 0.55764 0.78656
 C1418 C 0.22566 0.54896 0.79296
 C1419 C 0.23286 0.53737 0.78507
 C1420 C 0.22852 0.53406 0.77066
 C1421 C 0.21679 0.54256 0.76431
 C1422 C 0.20971 0.55427 0.77214
 H1423 H 0.19511 0.60264 0.83866
 H1424 H 0.18337 0.62388 0.85113
 H1425 H 0.16376 0.63856 0.80993
 H1426 H 0.17471 0.61659 0.79813
 H1427 H 0.17252 0.58771 0.79880
 H1428 H 0.18433 0.56635 0.78595
 H1429 H 0.22707 0.57770 0.80585
 H1430 H 0.21505 0.59869 0.81905
 H1431 H 0.22912 0.55102 0.80413
 H1432 H 0.24179 0.53093 0.79030
 H1433 H 0.21327 0.54035 0.75318
 H1434 H 0.20102 0.56088 0.76675
 C1435 C 0.18428 1.10852 0.31546
 C1436 C 0.19269 1.11928 0.32347
 C1437 C 0.18561 1.13172 0.33018
 C1438 C 0.16990 1.13363 0.32924
 C1439 C 0.16145 1.12274 0.32143
 C1440 C 0.16856 1.11040 0.31457
 C1441 C 0.19192 1.09551 0.30795
 C1442 C 0.18493 1.08107 0.30699
 C1443 C 0.19208 1.06895 0.29981
 C1444 C 0.20645 1.07093 0.29361
 C1445 C 0.21349 1.08528 0.29461
 C1446 C 0.20627 1.09746 0.30161
 C1447 C 0.21412 1.05810 0.28607
 C1448 C 0.22932 1.05484 0.28899
 C1449 C 0.23667 1.04295 0.28169
 C1450 C 0.22903 1.03419 0.27116
 C1451 C 0.21379 1.03742 0.26828
 C1452 C 0.20637 1.04918 0.27575
 H1453 H 0.20478 1.11809 0.32461
 H1454 H 0.19253 1.13997 0.33591
 H1455 H 0.14931 1.12372 0.32064
 H1456 H 0.16172 1.10246 0.30836
 H1457 H 0.17401 1.07906 0.31195
 H1458 H 0.18649 1.05793 0.29930
 H1459 H 0.22448 1.08716 0.28974
 H1460 H 0.21186 1.10848 0.30184
 H1461 H 0.23549 1.06148 0.29699
 H1462 H 0.24842 1.04076 0.28413
 H1463 H 0.20760 1.03084 0.26025
 H1464 H 0.19467 1.05154 0.27324
 C1465 C 0.68586 0.39324 0.68718
 C1466 C 0.67005 0.39189 0.68718
 C1467 C 0.66299 0.37984 0.67984
 C1468 C 0.67155 0.36869 0.67246
 C1469 C 0.68736 0.36999 0.67254
 C1470 C 0.69441 0.38215 0.67971
 C1471 C 0.69341 0.40612 0.69494
 C1472 C 0.70737 0.40393 0.70193
 C1473 C 0.71454 0.41605 0.70904
 C1474 C 0.70783 0.43058 0.70953
 C1475 C 0.69383 0.43281 0.70274
 C1476 C 0.68675 0.42075 0.69543
 C1477 C 0.71549 0.44340 0.71706
 C1478 C 0.70761 0.45258 0.72709
 C1479 C 0.71498 0.46447 0.73442
 C1480 C 0.73028 0.46755 0.73165
 C1481 C 0.73808 0.45849 0.72145
 C1482 C 0.73078 0.44645 0.71431
 H1483 H 0.66309 0.40005 0.69298
 H1484 H 0.65079 0.37934 0.67987
 H1485 H 0.69434 0.36151 0.66718
 H1486 H 0.70659 0.38292 0.67926
 H1487 H 0.71269 0.39279 0.70208
 H1488 H 0.72526 0.41402 0.71437
 H1489 H 0.68852 0.44397 0.70285
 H1490 H 0.67616 0.42297 0.68995
 H1491 H 0.69583 0.45038 0.72944
 H1492 H 0.70868 0.47129 0.74221
 H1493 H 0.74989 0.46055 0.71912
 H1494 H 0.73705 0.43959 0.70654
 C1495 C 0.68539 -0.10582 0.18641
 C1496 C 0.66959 -0.10709 0.18598
 C1497 C 0.66265 -0.11933 0.17882
 C1498 C 0.67127 -0.13055 0.17150
 C1499 C 0.68713 -0.12913 0.17186
 C1500 C 0.69405 -0.11709 0.17933
 C1501 C 0.69281 -0.09283 0.19418
 C1502 C 0.70659 -0.08679 0.18914
 C1503 C 0.71364 -0.07476 0.19651
 C1504 C 0.70696 -0.06817 0.20898
 C1505 C 0.69308 -0.07408 0.21391
 C1506 C 0.68619 -0.08633 0.20672
 C1507 C 0.71446 -0.05527 0.21680
 C1508 C 0.71298 -0.05364 0.23206
 C1509 C 0.71999 -0.04154 0.23937
 C1510 C 0.72891 -0.03098 0.23167
 C1511 C 0.73052 -0.03259 0.21649
 C1512 C 0.72324 -0.04448 0.20911
 H1513 H 0.66249 -0.09845 0.19093
 H1514 H 0.65045 -0.11949 0.17847
 H1515 H 0.69436 -0.13769 0.16695
 H1516 H 0.70624 -0.11682 0.17976
 H1517 H 0.71194 -0.09125 0.17939
 H1518 H 0.72442 -0.07076 0.19248
 H1519 H 0.68742 -0.06920 0.22330
 H1520 H 0.67573 -0.09078 0.21112
 H1521 H 0.70663 -0.06186 0.23844
 H1522 H 0.71869 -0.04063 0.25112
 H1523 H 0.73723 -0.02450 0.21028
 H1524 H 0.72438 -0.04507 0.19735
 C1525 C 0.18450 0.39421 0.18126
 C1526 C 0.16905 0.39453 0.17777
 C1527 C 0.16225 0.38214 0.17071
 C1528 C 0.17080 0.36926 0.16680
 C1529 C 0.18624 0.36895 0.17010
 C1530 C 0.19300 0.38123 0.17735
 C1531 C 0.19172 0.40726 0.18906
 C1532 C 0.20673 0.41141 0.18603
 C1533 C 0.21365 0.42336 0.19362
 C1534 C 0.20569 0.43166 0.20430
 C1535 C 0.19060 0.42765 0.20719
 C1536 C 0.18374 0.41555 0.19975
 C1537 C 0.21315 0.44430 0.21249
 C1538 C 0.20975 0.44693 0.22731
 C1539 C 0.21696 0.45862 0.23504
 C1540 C 0.22790 0.46780 0.22819
 C1541 C 0.23129 0.46524 0.21339
 C1542 C 0.22392 0.45372 0.20560
 H1543 H 0.16220 0.40443 0.18035
 H1544 H 0.15034 0.38266 0.16816
 H1545 H 0.19301 0.35904 0.16736
 H1546 H 0.20483 0.38040 0.18013
 H1547 H 0.21317 0.40547 0.17772
 H1548 H 0.22534 0.42593 0.19122
 H1549 H 0.18402 0.43391 0.21518
 H1550 H 0.17224 0.41257 0.20254
 H1551 H 0.20174 0.43975 0.23307
 H1552 H 0.21420 0.46027 0.24647
 H1553 H 0.23957 0.47225 0.20779
 H1554 H 0.22660 0.45228 0.19413
 C1555 C 0.18498 -0.10935 0.68049
 C1556 C 0.19301 -0.11864 0.67069
 C1557 C 0.18612 -0.13121 0.66403
 C1558 C 0.17086 -0.13494 0.66688
 C1559 C 0.16282 -0.12531 0.67658
 C1560 C 0.16978 -0.11280 0.68328
 C1561 C 0.19249 -0.09628 0.68796
 C1562 C 0.18465 -0.08257 0.69064
 C1563 C 0.19163 -0.07045 0.69797
 C1564 C 0.20665 -0.07173 0.70267
 C1565 C 0.21455 -0.08534 0.69988
 C1566 C 0.20754 -0.09750 0.69267
 C1567 C 0.21400 -0.05900 0.71068
 C1568 C 0.22885 -0.05461 0.70728
 C1569 C 0.23591 -0.04286 0.71506
 C1570 C 0.22831 -0.03536 0.72650
 C1571 C 0.21342 -0.03970 0.72983
 C1572 C 0.20632 -0.05135 0.72195
 H1573 H 0.20471 -0.11623 0.66816
 H1574 H 0.19317 -0.13830 0.65716
 H1575 H 0.15095 -0.12701 0.67879
 H1576 H 0.16324 -0.10592 0.69083
 H1577 H 0.17315 -0.08113 0.68695
 H1578 H 0.18534 -0.06001 0.69983
 H1579 H 0.22606 -0.08672 0.70358
 H1580 H 0.21383 -0.10799 0.69105
 H1581 H 0.23498 -0.06022 0.69855
 H1582 H 0.24738 -0.03978 0.71223
 H1583 H 0.20726 -0.03413 0.73857
 H1584 H 0.19492 -0.05460 0.72489
 C1585 C 0.31549 0.31569 0.39732
 C1586 C 0.31901 0.33141 0.39695
 C1587 C 0.32565 0.33794 0.38454
 C1588 C 0.32909 0.32887 0.37232
 C1589 C 0.32574 0.31318 0.37271
 C1590 C 0.31893 0.30668 0.38502
 C1591 C 0.30810 0.30870 0.41036
 C1592 C 0.31161 0.29366 0.41464
 C1593 C 0.30424 0.28682 0.42646
 C1594 C 0.29329 0.29491 0.43449
 C1595 C 0.28999 0.31006 0.43041
 C1596 C 0.29725 0.31685 0.41845
 C1597 C 0.28518 0.28741 0.44685
 C1598 C 0.26982 0.29046 0.44950
 C1599 C 0.26208 0.28294 0.46074
 C1600 C 0.26945 0.27204 0.46946
 C1601 C 0.28481 0.26910 0.46696
 C1602 C 0.29261 0.27678 0.45588
 H1603 H 0.31676 0.33865 0.40630
 H1604 H 0.32824 0.35006 0.38453
 H1605 H 0.32807 0.30599 0.36333
 H1606 H 0.31609 0.29463 0.38474
 H1607 H 0.32009 0.28711 0.40884
 H1608 H 0.30694 0.27507 0.42912
 H1609 H 0.28180 0.31673 0.43645
 H1610 H 0.29412 0.32839 0.41539
 H1611 H 0.26365 0.29837 0.44265
 H1612 H 0.25021 0.28537 0.46237
 H1613 H 0.29083 0.26088 0.47362
 H1614 H 0.30449 0.27438 0.45441
 C1615 C 0.31833 0.81397 -0.10337
 C1616 C 0.32177 0.82968 -0.10410
 C1617 C 0.32800 0.83601 -0.11680
 C1618 C 0.33110 0.82673 -0.12896
 C1619 C 0.32787 0.81103 -0.12821
 C1620 C 0.32146 0.80473 -0.11561
 C1621 C 0.31130 0.80723 -0.09003
 C1622 C 0.31493 0.79228 -0.08556
 C1623 C 0.30788 0.78570 -0.07341
 C1624 C 0.29716 0.79396 -0.06526
 C1625 C 0.29376 0.80903 -0.06955
 C1626 C 0.30067 0.81555 -0.08181
 C1627 C 0.28935 0.78673 -0.05257
 C1628 C 0.27407 0.78990 -0.04964
 C1629 C 0.26660 0.78268 -0.03806
 C1630 C 0.27415 0.77198 -0.02926
 C1631 C 0.28944 0.76892 -0.03206
 C1632 C 0.29698 0.77629 -0.04350
 H1633 H 0.31978 0.83709 -0.09482
 H1634 H 0.33055 0.84814 -0.11708
 H1635 H 0.32999 0.80369 -0.13752
 H1636 H 0.31868 0.79267 -0.11559
 H1637 H 0.32323 0.78560 -0.09144
 H1638 H 0.31066 0.77400 -0.07059
 H1639 H 0.28574 0.81583 -0.06342
 H1640 H 0.29745 0.82702 -0.08501
 H1641 H 0.26775 0.79765 -0.05652
 H1642 H 0.25478 0.78519 -0.03622
 H1643 H 0.29559 0.76083 -0.02537
 H1644 H 0.30881 0.77382 -0.04521
 C1645 C 0.81625 0.31302 -0.10396
 C1646 C 0.81947 0.32880 -0.10398
 C1647 C 0.82620 0.33573 -0.11614
 C1648 C 0.83005 0.32699 -0.12846
 C1649 C 0.82701 0.31122 -0.12844
 C1650 C 0.82009 0.30433 -0.11637
 C1651 C 0.80878 0.30566 -0.09114
 C1652 C 0.81243 0.29059 -0.08705
 C1653 C 0.80507 0.28350 -0.07534
 C1654 C 0.79401 0.29135 -0.06725
 C1655 C 0.79056 0.30652 -0.07117
 C1656 C 0.79777 0.31355 -0.08301
 C1657 C 0.78591 0.28364 -0.05499
 C1658 C 0.77055 0.28663 -0.05235
 C1659 C 0.76285 0.27911 -0.04110
 C1660 C 0.77025 0.26826 -0.03235
 C1661 C 0.78560 0.26531 -0.03489
 C1662 C 0.79337 0.27300 -0.04600
 H1663 H 0.81695 0.33581 -0.09453
 H1664 H 0.82859 0.34788 -0.11586
 H1665 H 0.82973 0.30429 -0.13789
 H1666 H 0.81751 0.29224 -0.11691
 H1667 H 0.82101 0.28423 -0.09288
 H1668 H 0.80790 0.27175 -0.07280
 H1669 H 0.78228 0.31303 -0.06507
 H1670 H 0.79451 0.32509 -0.08592
 H1671 H 0.76434 0.29452 -0.05919
 H1672 H 0.75098 0.28153 -0.03947
 H1673 H 0.79164 0.25710 -0.02823
 H1674 H 0.80526 0.27062 -0.04750
 C1675 C 0.81516 0.81681 0.39523
 C1676 C 0.81899 0.83245 0.39553
 C1677 C 0.82578 0.83942 0.38344
 C1678 C 0.82908 0.83089 0.37084
 C1679 C 0.82534 0.81528 0.37049
 C1680 C 0.81837 0.80834 0.38251
 C1681 C 0.80788 0.80937 0.40809
 C1682 C 0.81131 0.79415 0.41182
 C1683 C 0.80435 0.78710 0.42378
 C1684 C 0.79389 0.79513 0.43245
 C1685 C 0.79057 0.81040 0.42881
 C1686 C 0.79741 0.81740 0.41674
 C1687 C 0.78639 0.78754 0.44511
 C1688 C 0.77124 0.79073 0.44857
 C1689 C 0.76410 0.78336 0.46026
 C1690 C 0.77188 0.77247 0.46865
 C1691 C 0.78703 0.76932 0.46530
 C1692 C 0.79423 0.77684 0.45373
 H1693 H 0.81695 0.83928 0.40521
 H1694 H 0.82870 0.85145 0.38401
 H1695 H 0.82760 0.80851 0.36082
 H1696 H 0.81531 0.79637 0.38174
 H1697 H 0.81948 0.78767 0.40556
 H1698 H 0.80703 0.77526 0.42609
 H1699 H 0.78274 0.81702 0.43533
 H1700 H 0.79432 0.82907 0.41411
 H1701 H 0.76476 0.79869 0.44204
 H1702 H 0.75238 0.78594 0.46251
 H1703 H 0.79335 0.76107 0.47165
 H1704 H 0.80598 0.77431 0.45160
 C1705 C 0.68378 0.31777 0.60610
 C1706 C 0.67603 0.30862 0.61631
 C1707 C 0.66920 0.31515 0.62857
 C1708 C 0.66970 0.33105 0.63087
 C1709 C 0.67717 0.34027 0.62051
 C1710 C 0.68419 0.33370 0.60832
 C1711 C 0.69154 0.31063 0.59336
 C1712 C 0.69202 0.31803 0.57969
 C1713 C 0.69919 0.31115 0.56774
 C1714 C 0.70584 0.29665 0.56917
 C1715 C 0.70546 0.28928 0.58280
 C1716 C 0.69850 0.29623 0.59478
 C1717 C 0.71310 0.28909 0.55651
 C1718 C 0.70984 0.27373 0.55331
 C1719 C 0.71694 0.26638 0.54162
 C1720 C 0.72762 0.27419 0.53302
 C1721 C 0.73082 0.28960 0.53617
 C1722 C 0.72352 0.29702 0.54774
 H1723 H 0.67521 0.29635 0.61485
 H1724 H 0.66377 0.30764 0.63639
 H1725 H 0.67761 0.35258 0.62180
 H1726 H 0.69016 0.34110 0.60078
 H1727 H 0.68661 0.32901 0.57813
 H1728 H 0.69926 0.31699 0.55730
 H1729 H 0.71073 0.27820 0.58423
 H1730 H 0.69872 0.29035 0.60519
 H1731 H 0.70175 0.26741 0.55984
 H1732 H 0.71427 0.25449 0.53948
 H1733 H 0.73897 0.29591 0.52970
 H1734 H 0.72626 0.30886 0.55006
 C1735 C 0.68489 0.81931 1.10566
 C1736 C 0.69316 0.82139 1.11862
 C1737 C 0.68638 0.82782 1.13098
 C1738 C 0.67115 0.83215 1.13072
 C1739 C 0.66284 0.83011 1.11782
 C1740 C 0.66966 0.82384 1.10539
 C1741 C 0.69208 0.81225 1.09257
 C1742 C 0.68385 0.80232 1.08348
 C1743 C 0.69071 0.79534 1.07144
 C1744 C 0.70602 0.79799 1.06824
 C1745 C 0.71420 0.80804 1.07723
 C1746 C 0.70730 0.81514 1.08919
 C1747 C 0.71352 0.78998 1.05583
 C1748 C 0.72478 0.79732 1.04751
 C1749 C 0.73224 0.78954 1.03626
 C1750 C 0.72849 0.77431 1.03296
 C1751 C 0.71706 0.76706 1.04107
 C1752 C 0.70973 0.77476 1.05241
 H1753 H 0.70481 0.81777 1.11934
 H1754 H 0.69297 0.82913 1.14085
 H1755 H 0.65112 0.83354 1.11730
 H1756 H 0.66302 0.82269 1.09554
 H1757 H 0.67217 0.79967 1.08583
 H1758 H 0.68399 0.78786 1.06463
 H1759 H 0.72605 0.81022 1.07523
 H1760 H 0.71392 0.82291 1.09579
 H1761 H 0.72781 0.80911 1.04965
 H1762 H 0.74093 0.79547 1.03014
 H1763 H 0.71399 0.75528 1.03886
 H1764 H 0.70133 0.76864 1.05873
 C1765 C 0.18459 0.31672 1.10239
 C1766 C 0.18058 0.30758 1.11448
 C1767 C 0.17371 0.31406 1.12675
 C1768 C 0.17089 0.32985 1.12732
 C1769 C 0.17497 0.33905 1.11536
 C1770 C 0.18165 0.33254 1.10298
 C1771 C 0.19183 0.30975 1.08927
 C1772 C 0.20293 0.31773 1.08133
 C1773 C 0.20985 0.31107 1.06914
 C1774 C 0.20597 0.29618 1.06468
 C1775 C 0.19485 0.28822 1.07262
 C1776 C 0.18779 0.29495 1.08467
 C1777 C 0.21365 0.28883 1.05199
 C1778 C 0.20574 0.27874 1.04279
 C1779 C 0.21312 0.27119 1.03138
 C1780 C 0.22852 0.27375 1.02872
 C1781 C 0.23636 0.28415 1.03760
 C1782 C 0.22904 0.29152 1.04918
 H1783 H 0.18296 0.29543 1.11458
 H1784 H 0.17084 0.30678 1.13593
 H1785 H 0.17276 0.35124 1.11551
 H1786 H 0.18431 0.33989 1.09380
 H1787 H 0.20648 0.32907 1.08464
 H1788 H 0.21820 0.31765 1.06320
 H1789 H 0.19171 0.27665 1.06968
 H1790 H 0.17912 0.28853 1.09034
 H1791 H 0.19382 0.27665 1.04439
 H1792 H 0.20675 0.26335 1.02461
 H1793 H 0.24827 0.28626 1.03587
 H1794 H 0.23557 0.29901 1.05615
 C1795 C 0.18256 0.81292 0.60229
 C1796 C 0.17872 0.82855 0.60275
 C1797 C 0.17232 0.83493 0.61533
 C1798 C 0.16943 0.82579 0.62764
 C1799 C 0.17301 0.81016 0.62716
 C1800 C 0.17960 0.80381 0.61467
 C1801 C 0.18990 0.80618 0.58912
 C1802 C 0.18679 0.79104 0.58487
 C1803 C 0.19418 0.78448 0.57291
 C1804 C 0.20474 0.79296 0.56474
 C1805 C 0.20760 0.80822 0.56879
 C1806 C 0.20035 0.81471 0.58086
 C1807 C 0.21297 0.78581 0.55227
 C1808 C 0.22815 0.78951 0.54948
 C1809 C 0.23600 0.78254 0.53802
 C1810 C 0.22893 0.77154 0.52919
 C1811 C 0.21376 0.76785 0.53190
 C1812 C 0.20584 0.77497 0.54324
 H1813 H 0.18056 0.83585 0.59335
 H1814 H 0.16949 0.84699 0.61540
 H1815 H 0.17105 0.80293 0.63660
 H1816 H 0.18267 0.79183 0.61487
 H1817 H 0.17863 0.78419 0.59080
 H1818 H 0.19181 0.77265 0.57026
 H1819 H 0.21546 0.81519 0.56262
 H1820 H 0.20319 0.82633 0.58389
 H1821 H 0.23412 0.79756 0.55636
 H1822 H 0.24773 0.78554 0.53627
 H1823 H 0.20797 0.75950 0.52520
 H1824 H 0.19409 0.77204 0.54486
 C1825 C 0.32020 0.68575 0.60132
 C1826 C 0.32368 0.67003 0.60185
 C1827 C 0.32986 0.66354 0.61448
 C1828 C 0.33288 0.67267 0.62675
 C1829 C 0.32961 0.68837 0.62620
 C1830 C 0.32325 0.69482 0.61368
 C1831 C 0.31313 0.69264 0.58810
 C1832 C 0.31656 0.70773 0.58388
 C1833 C 0.30935 0.71449 0.57194
 C1834 C 0.29865 0.70627 0.56377
 C1835 C 0.29550 0.69104 0.56776
 C1836 C 0.30257 0.68435 0.57982
 C1837 C 0.29053 0.71369 0.55141
 C1838 C 0.27528 0.71026 0.54867
 C1839 C 0.26751 0.71753 0.53736
 C1840 C 0.27472 0.72858 0.52865
 C1841 C 0.28995 0.73200 0.53128
 C1842 C 0.29780 0.72456 0.54246
 H1843 H 0.32175 0.66274 0.59248
 H1844 H 0.33241 0.65142 0.61462
 H1845 H 0.33163 0.69559 0.63561
 H1846 H 0.32041 0.70686 0.61383
 H1847 H 0.32482 0.71439 0.58982
 H1848 H 0.31195 0.72629 0.56935
 H1849 H 0.28753 0.68425 0.56159
 H1850 H 0.29949 0.67277 0.58281
 H1851 H 0.26921 0.70220 0.55549
 H1852 H 0.25574 0.71475 0.53566
 H1853 H 0.29584 0.74038 0.52465
 H1854 H 0.30959 0.72729 0.54403
 C1855 C 0.31600 0.18607 1.10287
 C1856 C 0.32003 0.19531 1.11485
 C1857 C 0.32694 0.18894 1.12713
 C1858 C 0.32976 0.17315 1.12783
 C1859 C 0.32570 0.16387 1.11596
 C1860 C 0.31898 0.17027 1.10357
 C1861 C 0.30863 0.19291 1.08979
 C1862 C 0.29748 0.18482 1.08207
 C1863 C 0.29043 0.19136 1.06992
 C1864 C 0.29422 0.20623 1.06527
 C1865 C 0.30538 0.21429 1.07299
 C1866 C 0.31257 0.20768 1.08501
 C1867 C 0.28643 0.21342 1.05260
 C1868 C 0.29426 0.22340 1.04318
 C1869 C 0.28681 0.23074 1.03171
 C1870 C 0.27141 0.22808 1.02923
 C1871 C 0.26363 0.21782 1.03836
 C1872 C 0.27103 0.21065 1.04998
 H1873 H 0.31763 0.20746 1.11486
 H1874 H 0.32979 0.19629 1.13624
 H1875 H 0.32789 0.15167 1.11622
 H1876 H 0.31630 0.16284 1.09448
 H1877 H 0.29400 0.17350 1.08553
 H1878 H 0.28204 0.18471 1.06414
 H1879 H 0.30846 0.22585 1.06990
 H1880 H 0.32126 0.21418 1.09051
 H1881 H 0.30619 0.22554 1.04462
 H1882 H 0.29313 0.23847 1.02475
 H1883 H 0.25172 0.21564 1.03675
 H1884 H 0.26456 0.20325 1.05712
 C1885 C 0.81640 0.68619 1.10771
 C1886 C 0.82003 0.67051 1.10744
 C1887 C 0.82678 0.66351 1.11950
 C1888 C 0.83027 0.67206 1.13202
 C1889 C 0.82678 0.68773 1.13232
 C1890 C 0.81982 0.69470 1.12034
 C1891 C 0.80904 0.69362 1.09491
 C1892 C 0.81248 0.70882 1.09108
 C1893 C 0.80540 0.71585 1.07920
 C1894 C 0.79483 0.70780 1.07072
 C1895 C 0.79153 0.69254 1.07444
 C1896 C 0.79846 0.68558 1.08643
 C1897 C 0.78714 0.71534 1.05816
 C1898 C 0.77199 0.71198 1.05495
 C1899 C 0.76471 0.71911 1.04325
 C1900 C 0.77233 0.72994 1.03461
 C1901 C 0.78745 0.73336 1.03780
 C1902 C 0.79481 0.72607 1.04937
 H1903 H 0.81785 0.66365 1.09782
 H1904 H 0.82953 0.65144 1.11896
 H1905 H 0.82921 0.69452 1.14193
 H1906 H 0.81694 0.70671 1.12109
 H1907 H 0.82073 0.71531 1.09720
 H1908 H 0.80809 0.72768 1.07681
 H1909 H 0.78364 0.68589 1.06805
 H1910 H 0.79536 0.67393 1.08914
 H1911 H 0.76562 0.70403 1.06163
 H1912 H 0.75301 0.71634 1.04115
 H1913 H 0.79364 0.74159 1.03126
 H1914 H 0.80655 0.72874 1.05133
 C1915 C 0.81588 0.18577 0.60487
 C1916 C 0.81922 0.17002 0.60507
 C1917 C 0.82573 0.16326 0.61740
 C1918 C 0.82926 0.17215 0.62970
 C1919 C 0.82607 0.18787 0.62951
 C1920 C 0.81936 0.19459 0.61729
 C1921 C 0.80870 0.19297 0.59185
 C1922 C 0.81230 0.20807 0.58777
 C1923 C 0.80521 0.21501 0.57586
 C1924 C 0.79446 0.20698 0.56757
 C1925 C 0.79108 0.19178 0.57148
 C1926 C 0.79802 0.18491 0.58351
 C1927 C 0.78662 0.21453 0.55511
 C1928 C 0.77138 0.21127 0.55212
 C1929 C 0.76389 0.21864 0.54069
 C1930 C 0.77137 0.22963 0.53210
 C1931 C 0.78659 0.23286 0.53499
 C1932 C 0.79416 0.22531 0.54628
 H1933 H 0.81698 0.16291 0.59564
 H1934 H 0.82823 0.15113 0.61725
 H1935 H 0.82854 0.19491 0.63895
 H1936 H 0.81667 0.20667 0.61770
 H1937 H 0.82065 0.21457 0.59375
 H1938 H 0.80798 0.22679 0.57334
 H1939 H 0.78306 0.18513 0.56523
 H1940 H 0.79480 0.17334 0.58641
 H1941 H 0.76510 0.20328 0.55883
 H1942 H 0.75211 0.21601 0.53880
 H1943 H 0.79267 0.24118 0.52846
 H1944 H 0.80596 0.22790 0.54803
 C1945 C 0.68453 0.68428 0.39620
 C1946 C 0.68144 0.69347 0.38393
 C1947 C 0.67518 0.68712 0.37133
 C1948 C 0.67204 0.67139 0.37060
 C1949 C 0.67512 0.66214 0.38279
 C1950 C 0.68121 0.66853 0.39550
 C1951 C 0.69144 0.69109 0.40953
 C1952 C 0.70211 0.68288 0.41776
 C1953 C 0.70899 0.68952 0.42994
 C1954 C 0.70551 0.70460 0.43414
 C1955 C 0.69471 0.71273 0.42601
 C1956 C 0.68770 0.70604 0.41394
 C1957 C 0.71337 0.71199 0.44667
 C1958 C 0.70577 0.72248 0.45573
 C1959 C 0.71338 0.73000 0.46700
 C1960 C 0.72870 0.72706 0.46962
 C1961 C 0.73624 0.71632 0.46083
 C1962 C 0.72869 0.70895 0.44943
 H1963 H 0.68414 0.70556 0.38392
 H1964 H 0.67311 0.69445 0.36199
 H1965 H 0.67267 0.65000 0.38254
 H1966 H 0.68320 0.66115 0.40480
 H1967 H 0.70541 0.67142 0.41461
 H1968 H 0.71706 0.68281 0.43606
 H1969 H 0.69186 0.72443 0.42877
 H1970 H 0.67935 0.71262 0.40805
 H1971 H 0.69391 0.72488 0.45415
 H1972 H 0.70724 0.73812 0.47369
 H1973 H 0.74808 0.71389 0.46252
 H1974 H 0.73500 0.70116 0.44254
 C1975 C 0.68194 0.18230 -0.10796
 C1976 C 0.67822 0.19158 -0.12001
 C1977 C 0.67131 0.18532 -0.13234
 C1978 C 0.66816 0.16959 -0.13301
 C1979 C 0.67193 0.16025 -0.12108
 C1980 C 0.67865 0.16655 -0.10864
 C1981 C 0.68927 0.18903 -0.09481
 C1982 C 0.70015 0.18075 -0.08691
 C1983 C 0.70715 0.18718 -0.07469
 C1984 C 0.70359 0.20212 -0.07013
 C1985 C 0.69270 0.21038 -0.07803
 C1986 C 0.68556 0.20389 -0.09012
 C1987 C 0.71132 0.20919 -0.05735
 C1988 C 0.70354 0.21932 -0.04807
 C1989 C 0.71095 0.22650 -0.03649
 C1990 C 0.72625 0.22354 -0.03375
 C1991 C 0.73397 0.21314 -0.04276
 C1992 C 0.72662 0.20613 -0.05450
 H1993 H 0.68087 0.20368 -0.12004
 H1994 H 0.66869 0.19271 -0.14149
 H1995 H 0.66948 0.14810 -0.12131
 H1996 H 0.68109 0.15908 -0.09950
 H1997 H 0.70346 0.16936 -0.09029
 H1998 H 0.71532 0.18038 -0.06877
 H1999 H 0.68981 0.22200 -0.07502
 H2000 H 0.67707 0.21053 -0.09576
 H2001 H 0.69169 0.22170 -0.04970
 H2002 H 0.70468 0.23436 -0.02963
 H2003 H 0.74580 0.21071 -0.04097
 H2004 H 0.73305 0.19860 -0.06153
 C2005 C 0.18677 0.68479 -0.10312
 C2006 C 0.18366 0.66900 -0.10385
 C2007 C 0.17697 0.66268 -0.11630
 C2008 C 0.17306 0.67203 -0.12818
 C2009 C 0.17609 0.68778 -0.12748
 C2010 C 0.18297 0.69407 -0.11514
 C2011 C 0.19397 0.69158 -0.08992
 C2012 C 0.19008 0.70640 -0.08524
 C2013 C 0.19711 0.71298 -0.07313
 C2014 C 0.20807 0.70486 -0.06520
 C2015 C 0.21178 0.68994 -0.06972
 C2016 C 0.20489 0.68342 -0.08197
 C2017 C 0.21576 0.71206 -0.05246
 C2018 C 0.23108 0.70913 -0.04961
 C2019 C 0.23842 0.71635 -0.03798
 C2020 C 0.23068 0.72683 -0.02908
 C2021 C 0.21535 0.72963 -0.03178
 C2022 C 0.20794 0.72224 -0.04325
 H2023 H 0.18617 0.66154 -0.09473
 H2024 H 0.17462 0.65051 -0.11656
 H2025 H 0.17336 0.69518 -0.13660
 H2026 H 0.18550 0.70619 -0.11515
 H2027 H 0.18154 0.71295 -0.09091
 H2028 H 0.19410 0.72458 -0.07015
 H2029 H 0.22000 0.68323 -0.06378
 H2030 H 0.20832 0.67207 -0.08532
 H2031 H 0.23755 0.70157 -0.05658
 H2032 H 0.25028 0.71404 -0.03622
 H2033 H 0.20905 0.73755 -0.02501
 H2034 H 0.19606 0.72452 -0.04487
 C2035 C 0.18011 0.18537 0.39487
 C2036 C 0.17684 0.19461 0.38268
 C2037 C 0.17040 0.18831 0.37014
 C2038 C 0.16725 0.17259 0.36940
 C2039 C 0.17048 0.16330 0.38152
 C2040 C 0.17674 0.16963 0.39416
 C2041 C 0.18724 0.19210 0.40812
 C2042 C 0.19798 0.18381 0.41618
 C2043 C 0.20503 0.19035 0.42832
 C2044 C 0.20166 0.20542 0.43264
 C2045 C 0.19081 0.21365 0.42466
 C2046 C 0.18363 0.20705 0.41264
 C2047 C 0.20963 0.21265 0.44518
 C2048 C 0.20211 0.22307 0.45438
 C2049 C 0.20976 0.23036 0.46576
 C2050 C 0.22506 0.22724 0.46835
 C2051 C 0.23253 0.21661 0.45939
 C2052 C 0.22493 0.20948 0.44788
 H2053 H 0.17956 0.20669 0.38268
 H2054 H 0.16821 0.19567 0.36085
 H2055 H 0.16802 0.15115 0.38124
 H2056 H 0.17884 0.16220 0.40341
 H2057 H 0.20119 0.17235 0.41295
 H2058 H 0.21313 0.18356 0.43433
 H2059 H 0.18805 0.22534 0.42750
 H2060 H 0.17524 0.21370 0.40687
 H2061 H 0.19026 0.22557 0.45285
 H2062 H 0.20368 0.23840 0.47258
 H2063 H 0.24435 0.21405 0.46106
 H2064 H 0.23118 0.20175 0.44088
 C2065 C 0.31344 0.39549 0.67913
 C2066 C 0.30474 0.38262 0.67528
 C2067 C 0.31142 0.36997 0.66856
 C2068 C 0.32698 0.36978 0.66573
 C2069 C 0.33571 0.38257 0.66950
 C2070 C 0.32900 0.39534 0.67602
 C2071 C 0.30636 0.40883 0.68661
 C2072 C 0.31430 0.41707 0.69733
 C2073 C 0.30755 0.42937 0.70460
 C2074 C 0.29260 0.43363 0.70151
 C2075 C 0.28469 0.42544 0.69073
 C2076 C 0.29151 0.41329 0.68331
 C2077 C 0.28521 0.44634 0.70967
 C2078 C 0.27468 0.45598 0.70276
 C2079 C 0.26744 0.46761 0.71057
 C2080 C 0.27072 0.47004 0.72540
 C2081 C 0.28138 0.46061 0.73227
 C2082 C 0.28845 0.44883 0.72454
 H2083 H 0.29281 0.38215 0.67776
 H2084 H 0.30450 0.36014 0.66590
 H2085 H 0.34772 0.38273 0.66728
 H2086 H 0.33602 0.40514 0.67853
 H2087 H 0.32567 0.41388 0.70033
 H2088 H 0.31411 0.43554 0.71264
 H2089 H 0.27310 0.42823 0.68817
 H2090 H 0.28511 0.40740 0.67497
 H2091 H 0.27211 0.45463 0.69128
 H2092 H 0.25935 0.47479 0.70496
 H2093 H 0.28404 0.46212 0.74373
 H2094 H 0.29624 0.44148 0.73033
 C2095 C 0.31658 0.89543 0.18275
 C2096 C 0.30791 0.88454 0.17519
 C2097 C 0.31474 0.87190 0.16860
 C2098 C 0.33046 0.86991 0.16917
 C2099 C 0.33919 0.88100 0.17641
 C2100 C 0.33233 0.89356 0.18318
 C2101 C 0.30915 0.90850 0.19035
 C2102 C 0.31611 0.92297 0.19100
 C2103 C 0.30909 0.93516 0.19823
 C2104 C 0.29488 0.93318 0.20478
 C2105 C 0.28791 0.91878 0.20415
 C2106 C 0.29500 0.90655 0.19712
 C2107 C 0.28729 0.94607 0.21229
 C2108 C 0.27203 0.94921 0.20952
 C2109 C 0.26469 0.96110 0.21685
 C2110 C 0.27241 0.96995 0.22725
 C2111 C 0.28771 0.96684 0.22997
 C2112 C 0.29511 0.95509 0.22246
 H2113 H 0.29579 0.88573 0.17437
 H2114 H 0.30761 0.86351 0.16332
 H2115 H 0.35135 0.87999 0.17689
 H2116 H 0.33937 0.90162 0.18902
 H2117 H 0.32688 0.92498 0.18574
 H2118 H 0.31462 0.94621 0.19848
 H2119 H 0.27706 0.91691 0.20931
 H2120 H 0.28946 0.89551 0.19718
 H2121 H 0.26580 0.94248 0.20164
 H2122 H 0.25290 0.96319 0.21454
 H2123 H 0.29395 0.97350 0.23790
 H2124 H 0.30686 0.95281 0.22484
 C2125 C 0.81329 0.39158 0.17990
 C2126 C 0.80480 0.37838 0.17672
 C2127 C 0.81140 0.36596 0.16953
 C2128 C 0.82669 0.36636 0.16554
 C2129 C 0.83522 0.37949 0.16868
 C2130 C 0.82857 0.39201 0.17569
 C2131 C 0.80629 0.40474 0.18773
 C2132 C 0.81464 0.41335 0.19787
 C2133 C 0.80801 0.42556 0.20536
 C2134 C 0.79279 0.42937 0.20307
 C2135 C 0.78444 0.42077 0.19292
 C2136 C 0.79113 0.40869 0.18528
 C2137 C 0.78560 0.44212 0.21135
 C2138 C 0.77456 0.45140 0.20477
 C2139 C 0.76757 0.46313 0.21266
 C2140 C 0.77160 0.46600 0.22724
 C2141 C 0.78275 0.45689 0.23378
 C2142 C 0.78960 0.44503 0.22596
 H2143 H 0.79311 0.37749 0.18004
 H2144 H 0.80465 0.35588 0.16738
 H2145 H 0.84700 0.38012 0.16556
 H2146 H 0.83539 0.40207 0.17768
 H2147 H 0.82628 0.41054 0.20020
 H2148 H 0.81487 0.43205 0.21292
 H2149 H 0.77265 0.42321 0.19099
 H2150 H 0.78439 0.40249 0.17741
 H2151 H 0.77140 0.44972 0.19346
 H2152 H 0.75909 0.47004 0.20729
 H2153 H 0.78600 0.45876 0.24504
 H2154 H 0.79782 0.43796 0.23150
 C2155 C 0.81791 0.89228 0.68371
 C2156 C 0.82195 0.89274 0.66882
 C2157 C 0.82831 0.87994 0.66203
 C2158 C 0.83095 0.86647 0.67000
 C2159 C 0.82709 0.86603 0.68489
 C2160 C 0.82057 0.87875 0.69165
 C2161 C 0.81071 0.90572 0.69089
 C2162 C 0.81383 0.90927 0.70557
 C2163 C 0.80660 0.92150 0.71249
 C2164 C 0.79617 0.93062 0.70487
 C2165 C 0.79329 0.92726 0.69010
 C2166 C 0.80040 0.91493 0.68323
 C2167 C 0.78809 0.94333 0.71238
 C2168 C 0.77291 0.94648 0.70909
 C2169 C 0.76521 0.95821 0.71629
 C2170 C 0.77242 0.96697 0.72709
 C2171 C 0.78758 0.96387 0.73039
 C2172 C 0.79535 0.95224 0.72306
 H2173 H 0.82033 0.90304 0.66243
 H2174 H 0.83135 0.88061 0.65057
 H2175 H 0.82883 0.85571 0.69123
 H2176 H 0.81733 0.87784 0.70303
 H2177 H 0.82188 0.90260 0.71176
 H2178 H 0.80898 0.92361 0.72391
 H2179 H 0.78552 0.93417 0.68381
 H2180 H 0.79757 0.91245 0.67197
 H2181 H 0.76685 0.93968 0.70115
 H2182 H 0.75349 0.96024 0.71358
 H2183 H 0.79347 0.97050 0.73859
 H2184 H 0.80709 0.95033 0.72570
 C2185 C 0.68678 0.60717 0.68548
 C2186 C 0.67130 0.60685 0.68209
 C2187 C 0.66448 0.61923 0.67504
 C2188 C 0.67301 0.63211 0.67103
 C2189 C 0.68845 0.63247 0.67433
 C2190 C 0.69524 0.62020 0.68158
 C2191 C 0.69407 0.59400 0.69305
 C2192 C 0.70903 0.58986 0.68980
 C2193 C 0.71596 0.57768 0.69707
 C2194 C 0.70804 0.56916 0.70765
 C2195 C 0.69301 0.57317 0.71076
 C2196 C 0.68615 0.58548 0.70364
 C2197 C 0.71550 0.55630 0.71554
 C2198 C 0.71217 0.55339 0.73034
 C2199 C 0.71931 0.54149 0.73782
 C2200 C 0.73013 0.53236 0.73077
 C2201 C 0.73348 0.53520 0.71600
 C2202 C 0.72616 0.54695 0.70844
 H2203 H 0.66448 0.59692 0.68466
 H2204 H 0.65258 0.61863 0.67246
 H2205 H 0.69522 0.64236 0.67148
 H2206 H 0.70709 0.62103 0.68428
 H2207 H 0.71542 0.59597 0.68155
 H2208 H 0.72761 0.57510 0.69451
 H2209 H 0.68646 0.56675 0.71866
 H2210 H 0.67469 0.58843 0.70659
 H2211 H 0.70426 0.56051 0.73627
 H2212 H 0.71660 0.53967 0.74924
 H2213 H 0.74170 0.52827 0.71026
 H2214 H 0.72881 0.54863 0.69700
 C2215 C 0.68189 0.10599 0.18339
 C2216 C 0.67885 0.11970 0.19090
 C2217 C 0.67210 0.13202 0.18374
 C2218 C 0.66838 0.13101 0.16887
 C2219 C 0.67152 0.11743 0.16128
 C2220 C 0.67812 0.10500 0.16848
 C2221 C 0.68909 0.09287 0.19109
 C2222 C 0.69965 0.08353 0.18388
 C2223 C 0.70671 0.07150 0.19125
 C2224 C 0.70352 0.06858 0.20606
 C2225 C 0.69283 0.07782 0.21322
 C2226 C 0.68565 0.08974 0.20581
 C2227 C 0.71155 0.05622 0.21410
 C2228 C 0.70413 0.04760 0.22496
 C2229 C 0.71187 0.03635 0.23283
 C2230 C 0.72713 0.03334 0.22989
 C2231 C 0.73450 0.04178 0.21891
 C2232 C 0.72683 0.05314 0.21118
 H2233 H 0.68191 0.12102 0.20228
 H2234 H 0.67000 0.14247 0.18978
 H2235 H 0.66863 0.11634 0.14983
 H2236 H 0.68007 0.09456 0.16241
 H2237 H 0.70271 0.08568 0.17260
 H2238 H 0.71469 0.06447 0.18530
 H2239 H 0.69020 0.07605 0.22466
 H2240 H 0.67738 0.09652 0.21165
 H2241 H 0.69231 0.04946 0.22733
 H2242 H 0.70586 0.02994 0.24115
 H2243 H 0.74630 0.03981 0.21647
 H2244 H 0.73300 0.05973 0.20312
 C2245 C 0.18354 0.60618 0.18390
 C2246 C 0.17608 0.61747 0.19213
 C2247 C 0.16937 0.63000 0.18529
 C2248 C 0.16966 0.63149 0.16999
 C2249 C 0.17682 0.62003 0.16170
 C2250 C 0.18376 0.60758 0.16857
 C2251 C 0.19124 0.59320 0.19134
 C2252 C 0.19154 0.57851 0.18502
 C2253 C 0.19874 0.56636 0.19213
 C2254 C 0.20558 0.56861 0.20578
 C2255 C 0.20533 0.58323 0.21209
 C2256 C 0.19836 0.59541 0.20491
 C2257 C 0.21297 0.55578 0.21349
 C2258 C 0.20979 0.55300 0.22830
 C2259 C 0.21703 0.54113 0.23575
 C2260 C 0.22777 0.53199 0.22858
 C2261 C 0.23091 0.53474 0.21374
 C2262 C 0.22347 0.54645 0.20623
 H2263 H 0.17541 0.61665 0.20392
 H2264 H 0.16420 0.63868 0.19209
 H2265 H 0.17711 0.62068 0.14988
 H2266 H 0.18952 0.59922 0.16187
 H2267 H 0.18599 0.57631 0.17471
 H2268 H 0.19871 0.55514 0.18711
 H2269 H 0.21074 0.58527 0.22252
 H2270 H 0.19873 0.60661 0.20995
 H2271 H 0.20166 0.55999 0.23410
 H2272 H 0.21440 0.53930 0.24718
 H2273 H 0.23910 0.52783 0.20793
 H2274 H 0.22615 0.54845 0.19483
 C2275 C 0.18538 0.10548 0.68465
 C2276 C 0.16963 0.10730 0.68512
 C2277 C 0.16271 0.11963 0.67806
 C2278 C 0.17137 0.13055 0.67048
 C2279 C 0.18714 0.12883 0.67016
 C2280 C 0.19404 0.11642 0.67706
 C2281 C 0.19276 0.09223 0.69197
 C2282 C 0.20693 0.09389 0.69868
 C2283 C 0.21393 0.08142 0.70542
 C2284 C 0.20684 0.06706 0.70577
 C2285 C 0.19265 0.06536 0.69919
 C2286 C 0.18573 0.07778 0.69228
 C2287 C 0.21418 0.05392 0.71312
 C2288 C 0.20602 0.04472 0.72293
 C2289 C 0.21307 0.03264 0.73024
 C2290 C 0.22838 0.02939 0.72770
 C2291 C 0.23647 0.03843 0.71767
 C2292 C 0.22946 0.05065 0.71053
 H2293 H 0.16260 0.09925 0.69103
 H2294 H 0.15053 0.12047 0.67840
 H2295 H 0.19421 0.13714 0.66463
 H2296 H 0.20617 0.11531 0.67629
 H2297 H 0.21256 0.10489 0.69894
 H2298 H 0.22478 0.08307 0.71060
 H2299 H 0.18703 0.05435 0.69919
 H2300 H 0.17497 0.07597 0.68699
 H2301 H 0.19425 0.04709 0.72518
 H2302 H 0.20654 0.02586 0.73789
 H2303 H 0.24829 0.03622 0.71552
 H2304 H 0.23596 0.05751 0.70292
 C2305 C 0.31546 0.60647 0.31695
 C2306 C 0.30735 0.61982 0.32046
 C2307 C 0.31448 0.63215 0.32730
 C2308 C 0.32991 0.63149 0.33060
 C2309 C 0.33806 0.61822 0.32711
 C2310 C 0.33089 0.60580 0.32046
 C2311 C 0.30790 0.59337 0.30953
 C2312 C 0.31569 0.58456 0.29911
 C2313 C 0.30859 0.57236 0.29205
 C2314 C 0.29344 0.56875 0.29506
 C2315 C 0.28565 0.57755 0.30550
 C2316 C 0.29281 0.58964 0.31270
 C2317 C 0.28575 0.55602 0.28721
 C2318 C 0.27490 0.54689 0.29433
 C2319 C 0.26749 0.53515 0.28683
 C2320 C 0.27091 0.53214 0.27211
 C2321 C 0.28186 0.54111 0.26504
 C2322 C 0.28911 0.55298 0.27246
 H2323 H 0.29553 0.62089 0.31768
 H2324 H 0.30801 0.64235 0.32975
 H2325 H 0.34994 0.61738 0.32972
 H2326 H 0.33744 0.59561 0.31823
 H2327 H 0.32725 0.58720 0.29621
 H2328 H 0.31504 0.56571 0.28426
 H2329 H 0.27392 0.57527 0.30798
 H2330 H 0.28651 0.59600 0.32082
 H2331 H 0.27222 0.54869 0.30575
 H2332 H 0.25917 0.52835 0.29260
 H2333 H 0.28463 0.53916 0.25365
 H2334 H 0.29716 0.55994 0.26652
 C2335 C 0.31235 0.10488 0.81591
 C2336 C 0.31557 0.11813 0.80772
 C2337 C 0.32241 0.13078 0.81427
 C2338 C 0.32603 0.13057 0.82920
 C2339 C 0.32267 0.11745 0.83747
 C2340 C 0.31598 0.10470 0.83088
 C2341 C 0.30527 0.09133 0.80881
 C2342 C 0.29462 0.08233 0.81634
 C2343 C 0.28787 0.06973 0.80957
 C2344 C 0.29150 0.06588 0.79506
 C2345 C 0.30217 0.07487 0.78755
 C2346 C 0.30903 0.08736 0.79437
 C2347 C 0.28407 0.05272 0.78765
 C2348 C 0.29211 0.04366 0.77759
 C2349 C 0.28496 0.03180 0.77007
 C2350 C 0.26966 0.02855 0.77258
 C2351 C 0.26169 0.03729 0.78290
 C2352 C 0.26879 0.04930 0.79029
 H2353 H 0.31264 0.11884 0.79626
 H2354 H 0.32468 0.14086 0.80771
 H2355 H 0.32547 0.11696 0.84897
 H2356 H 0.31389 0.09463 0.83747
 H2357 H 0.29132 0.08514 0.82742
 H2358 H 0.27986 0.06296 0.81575
 H2359 H 0.30510 0.07242 0.77630
 H2360 H 0.31735 0.09386 0.78830
 H2361 H 0.30396 0.04572 0.77551
 H2362 H 0.29144 0.02515 0.76229
 H2363 H 0.24985 0.03511 0.78500
 H2364 H 0.26218 0.05615 0.79779
 C2365 C 0.81639 0.60823 0.81838
 C2366 C 0.80759 0.61899 0.82601
 C2367 C 0.81436 0.63121 0.83335
 C2368 C 0.83014 0.63288 0.83344
 C2369 C 0.83895 0.62207 0.82590
 C2370 C 0.83216 0.60996 0.81839
 C2371 C 0.80914 0.59526 0.81050
 C2372 C 0.81609 0.58079 0.80993
 C2373 C 0.80921 0.56861 0.80260
 C2374 C 0.79513 0.57058 0.79587
 C2375 C 0.78817 0.58499 0.79640
 C2376 C 0.79514 0.59722 0.80353
 C2377 C 0.78762 0.55762 0.78843
 C2378 C 0.77238 0.55439 0.79124
 C2379 C 0.76520 0.54225 0.78418
 C2380 C 0.77306 0.53322 0.77399
 C2381 C 0.78833 0.53645 0.77117
 C2382 C 0.79558 0.54846 0.77843
 H2383 H 0.79543 0.61792 0.82645
 H2384 H 0.80719 0.63942 0.83885
 H2385 H 0.85113 0.62286 0.82589
 H2386 H 0.83931 0.60204 0.81248
 H2387 H 0.82673 0.57875 0.81537
 H2388 H 0.81472 0.55755 0.80245
 H2389 H 0.77740 0.58683 0.79112
 H2390 H 0.78960 0.60826 0.80344
 H2391 H 0.76605 0.56122 0.79901
 H2392 H 0.75341 0.54007 0.78654
 H2393 H 0.79467 0.52967 0.76340
 H2394 H 0.80733 0.55079 0.77603
 C2395 C 0.81366 0.11141 0.31700
 C2396 C 0.82070 0.12298 0.30874
 C2397 C 0.82760 0.13541 0.31560
 C2398 C 0.82791 0.13649 0.33094
 C2399 C 0.82102 0.12484 0.33921
 C2400 C 0.81389 0.11252 0.33234
 C2401 C 0.80608 0.09830 0.30962
 C2402 C 0.80622 0.08357 0.31590
 C2403 C 0.79911 0.07130 0.30893
 C2404 C 0.79193 0.07342 0.29543
 C2405 C 0.79179 0.08805 0.28911
 C2406 C 0.79866 0.10037 0.29617
 C2407 C 0.78461 0.06041 0.28792
 C2408 C 0.78770 0.05749 0.27312
 C2409 C 0.78072 0.04528 0.26596
 C2410 C 0.77031 0.03594 0.27339
 C2411 C 0.76720 0.03890 0.28819
 C2412 C 0.77441 0.05094 0.29543
 H2413 H 0.82099 0.12243 0.29692
 H2414 H 0.83254 0.14427 0.30883
 H2415 H 0.82119 0.12517 0.35104
 H2416 H 0.80842 0.10397 0.33908
 H2417 H 0.81204 0.08144 0.32608
 H2418 H 0.79947 0.06007 0.31394
 H2419 H 0.78614 0.08998 0.27878
 H2420 H 0.79798 0.11157 0.29115
 H2421 H 0.79561 0.06460 0.26714
 H2422 H 0.78329 0.04330 0.25453
 H2423 H 0.75927 0.03185 0.29420
 H2424 H 0.77181 0.05305 0.30683
 C2425 C 0.68510 0.39360 0.31846
 C2426 C 0.66935 0.39186 0.31775
 C2427 C 0.66219 0.37965 0.32482
 C2428 C 0.67061 0.36876 0.33265
 C2429 C 0.68635 0.37055 0.33342
 C2430 C 0.69349 0.38285 0.32650
 C2431 C 0.69278 0.40643 0.31070
 C2432 C 0.70702 0.40425 0.30419
 C2433 C 0.71425 0.41625 0.29691
 C2434 C 0.70735 0.43066 0.29579
 C2435 C 0.69311 0.43287 0.30217
 C2436 C 0.68594 0.42092 0.30963
 C2437 C 0.71502 0.44330 0.28792
 C2438 C 0.70718 0.45212 0.27760
 C2439 C 0.71457 0.46372 0.26983
 C2440 C 0.72989 0.46685 0.27242
 C2441 C 0.73764 0.45818 0.28293
 C2442 C 0.73031 0.44645 0.29053
 H2443 H 0.66253 0.39979 0.31152
 H2444 H 0.65003 0.37876 0.32415
 H2445 H 0.69324 0.36229 0.33917
 H2446 H 0.70560 0.38394 0.32751
 H2447 H 0.71249 0.39319 0.30450
 H2448 H 0.72515 0.41420 0.29190
 H2449 H 0.68763 0.44394 0.30158
 H2450 H 0.67512 0.42311 0.31472
 H2451 H 0.69541 0.44984 0.27532
 H2452 H 0.70830 0.47023 0.26182
 H2453 H 0.74946 0.46030 0.28515
 H2454 H 0.73656 0.43988 0.29853
 C2455 C 0.68644 0.89214 0.81740
 C2456 C 0.69518 0.87944 0.82163
 C2457 C 0.68855 0.86698 0.82878
 C2458 C 0.67300 0.86683 0.83167
 C2459 C 0.66423 0.87945 0.82747
 C2460 C 0.67089 0.89201 0.82052
 C2461 C 0.69350 0.90534 0.80962
 C2462 C 0.68556 0.91334 0.79873
 C2463 C 0.69224 0.92559 0.79132
 C2464 C 0.70714 0.93006 0.79443
 C2465 C 0.71508 0.92206 0.80532
 C2466 C 0.70832 0.90995 0.81288
 C2467 C 0.71443 0.94287 0.78625
 C2468 C 0.72481 0.95263 0.79320
 C2469 C 0.73199 0.96434 0.78542
 C2470 C 0.72879 0.96673 0.77056
 C2471 C 0.71824 0.95719 0.76365
 C2472 C 0.71124 0.94533 0.77137
 H2473 H 0.70711 0.87894 0.81916
 H2474 H 0.69551 0.85729 0.83176
 H2475 H 0.65223 0.87963 0.82972
 H2476 H 0.66384 0.90169 0.81772
 H2477 H 0.67421 0.91001 0.79575
 H2478 H 0.68567 0.93161 0.78318
 H2479 H 0.72663 0.92499 0.80789
 H2480 H 0.71473 0.90426 0.82134
 H2481 H 0.72733 0.95133 0.80470
 H2482 H 0.73998 0.97161 0.79107
 H2483 H 0.71565 0.95869 0.75217
 H2484 H 0.70354 0.93789 0.76555
 C2485 C 0.18515 0.39432 0.81485
 C2486 C 0.19386 0.38151 0.81881
 C2487 C 0.18721 0.36895 0.82578
 C2488 C 0.17168 0.36881 0.82874
 C2489 C 0.16292 0.38150 0.82475
 C2490 C 0.16959 0.39418 0.81799
 C2491 C 0.19226 0.40768 0.80738
 C2492 C 0.18436 0.41599 0.79668
 C2493 C 0.19112 0.42839 0.78955
 C2494 C 0.20604 0.43270 0.79277
 C2495 C 0.21392 0.42441 0.80349
 C2496 C 0.20709 0.41215 0.81077
 C2497 C 0.21342 0.44563 0.78487
 C2498 C 0.22388 0.45515 0.79201
 C2499 C 0.23120 0.46693 0.78446
 C2500 C 0.22805 0.46965 0.76965
 C2501 C 0.21740 0.46038 0.76255
 C2502 C 0.21027 0.44843 0.77003
 H2503 H 0.20578 0.38102 0.81630
 H2504 H 0.19416 0.35920 0.82859
 H2505 H 0.15093 0.38169 0.82705
 H2506 H 0.16257 0.40392 0.81537
 H2507 H 0.17301 0.41279 0.79361
 H2508 H 0.18459 0.43463 0.78153
 H2509 H 0.22549 0.42720 0.80614
 H2510 H 0.21346 0.40622 0.81912
 H2511 H 0.22637 0.45358 0.80349
 H2512 H 0.23925 0.47399 0.79025
 H2513 H 0.21484 0.46214 0.75110
 H2514 H 0.20251 0.44120 0.76407
 C2515 C 0.18579 0.89550 0.31752
 C2516 C 0.19397 0.88223 0.32115
 C2517 C 0.18691 0.86997 0.32823
 C2518 C 0.17149 0.87063 0.33165
 C2519 C 0.16328 0.88381 0.32803
 C2520 C 0.17037 0.89616 0.32114
 C2521 C 0.19327 0.90852 0.30985
 C2522 C 0.18540 0.91718 0.29939
 C2523 C 0.19243 0.92932 0.29212
 C2524 C 0.20759 0.93301 0.29494
 C2525 C 0.21546 0.92435 0.30541
 C2526 C 0.20837 0.91234 0.31283
 C2527 C 0.21518 0.94569 0.28688
 C2528 C 0.22605 0.95493 0.29378
 C2529 C 0.23335 0.96664 0.28610
 C2530 C 0.22979 0.96954 0.27141
 C2531 C 0.21883 0.96045 0.26453
 C2532 C 0.21170 0.94860 0.27214
 H2533 H 0.20577 0.88116 0.31828
 H2534 H 0.19343 0.85984 0.33078
 H2535 H 0.15140 0.88462 0.33072
 H2536 H 0.16377 0.90629 0.31881
 H2537 H 0.17384 0.91447 0.29664
 H2538 H 0.18591 0.93587 0.28432
 H2539 H 0.22720 0.92670 0.30774
 H2540 H 0.21473 0.90609 0.32096
 H2541 H 0.22883 0.95323 0.30519
 H2542 H 0.24168 0.97354 0.29171
 H2543 H 0.21596 0.96232 0.25317
 H2544 H 0.20364 0.94155 0.26635
 C2545 C 0.39174 0.31550 0.68095
 C2546 C 0.37891 0.31976 0.68907
 C2547 C 0.36658 0.32663 0.68223
 C2548 C 0.36669 0.32920 0.66709
 C2549 C 0.37939 0.32486 0.65890
 C2550 C 0.39183 0.31818 0.66577
 C2551 C 0.40491 0.30825 0.68829
 C2552 C 0.41334 0.29679 0.68124
 C2553 C 0.42558 0.28988 0.68824
 C2554 C 0.42960 0.29413 0.70254
 C2555 C 0.42117 0.30561 0.70957
 C2556 C 0.40907 0.31265 0.70251
 C2557 C 0.44237 0.28651 0.71020
 C2558 C 0.45156 0.29478 0.71992
 C2559 C 0.46311 0.28750 0.72760
 C2560 C 0.46593 0.27183 0.72558
 C2561 C 0.45703 0.26360 0.71563
 C2562 C 0.44531 0.27083 0.70810
 H2563 H 0.37827 0.31758 0.70070
 H2564 H 0.35681 0.32969 0.68874
 H2565 H 0.37977 0.32686 0.64722
 H2566 H 0.40159 0.31531 0.65919
 H2567 H 0.41038 0.29296 0.67037
 H2568 H 0.43193 0.28124 0.68240
 H2569 H 0.42375 0.30904 0.72065
 H2570 H 0.40301 0.32160 0.70821
 H2571 H 0.44987 0.30693 0.72158
 H2572 H 0.46989 0.29417 0.73510
 H2573 H 0.45887 0.25148 0.71392
 H2574 H 0.43834 0.26402 0.70090
 C2575 C 0.39336 0.81307 0.18580
 C2576 C 0.39217 0.81289 0.17047
 C2577 C 0.38011 0.82010 0.16348
 C2578 C 0.36878 0.82750 0.17162
 C2579 C 0.36990 0.82756 0.18695
 C2580 C 0.38208 0.82055 0.19394
 C2581 C 0.40631 0.80553 0.19327
 C2582 C 0.40436 0.79837 0.20694
 C2583 C 0.41655 0.79151 0.21404
 C2584 C 0.43090 0.79143 0.20754
 C2585 C 0.43288 0.79837 0.19384
 C2586 C 0.42075 0.80546 0.18683
 C2587 C 0.44380 0.78422 0.21512
 C2588 C 0.45317 0.77381 0.20775
 C2589 C 0.46521 0.76683 0.21501
 C2590 C 0.46825 0.77037 0.22970
 C2591 C 0.45897 0.78094 0.23700
 C2592 C 0.44678 0.78769 0.22981
 H2593 H 0.40048 0.80706 0.16383
 H2594 H 0.37976 0.81999 0.15165
 H2595 H 0.36129 0.83291 0.19361
 H2596 H 0.38270 0.82115 0.20574
 H2597 H 0.39338 0.79788 0.21210
 H2598 H 0.41473 0.78607 0.22454
 H2599 H 0.44390 0.79858 0.18869
 H2600 H 0.42278 0.81110 0.17647
 H2601 H 0.45103 0.77090 0.19643
 H2602 H 0.47220 0.75875 0.20912
 H2603 H 0.46101 0.78384 0.24833
 H2604 H 0.43976 0.79577 0.23568
 C2605 C 0.89359 0.31444 0.17679
 C2606 C 0.89319 0.33009 0.17312
 C2607 C 0.88038 0.33649 0.16665
 C2608 C 0.86780 0.32732 0.16349
 C2609 C 0.86826 0.31166 0.16686
 C2610 C 0.88095 0.30531 0.17354
 C2611 C 0.90694 0.30771 0.18431
 C2612 C 0.91135 0.29252 0.18157
 C2613 C 0.92339 0.28596 0.18916
 C2614 C 0.93151 0.29448 0.19954
 C2615 C 0.92733 0.30980 0.20203
 C2616 C 0.91514 0.31628 0.19460
 C2617 C 0.94405 0.28734 0.20795
 C2618 C 0.94659 0.29135 0.22265
 C2619 C 0.95816 0.28445 0.23063
 C2620 C 0.96731 0.27319 0.22420
 C2621 C 0.96483 0.26915 0.20955
 C2622 C 0.95342 0.27623 0.20148
 H2623 H 0.90280 0.33743 0.17518
 H2624 H 0.88032 0.34858 0.16403
 H2625 H 0.85860 0.30441 0.16471
 H2626 H 0.88067 0.29331 0.17647
 H2627 H 0.90550 0.28563 0.17356
 H2628 H 0.92611 0.27409 0.18707
 H2629 H 0.93346 0.31682 0.20973
 H2630 H 0.91199 0.32795 0.19716
 H2631 H 0.93944 0.29960 0.22812
 H2632 H 0.95973 0.28770 0.24195
 H2633 H 0.97181 0.26060 0.20428
 H2634 H 0.95204 0.27306 0.19013
 C2635 C 0.89256 0.80894 0.68403
 C2636 C 0.87953 0.81290 0.69199
 C2637 C 0.86741 0.82010 0.68512
 C2638 C 0.86794 0.82335 0.67010
 C2639 C 0.88074 0.81907 0.66202
 C2640 C 0.89296 0.81202 0.66893
 C2641 C 0.90575 0.80193 0.69154
 C2642 C 0.91462 0.79076 0.68454
 C2643 C 0.92707 0.78433 0.69161
 C2644 C 0.93091 0.78882 0.70589
 C2645 C 0.92200 0.79994 0.71289
 C2646 C 0.90966 0.80647 0.70578
 C2647 C 0.94406 0.78190 0.71354
 C2648 C 0.95299 0.79076 0.72301
 C2649 C 0.96492 0.78414 0.73070
 C2650 C 0.96835 0.76856 0.72896
 C2651 C 0.95968 0.75976 0.71925
 C2652 C 0.94762 0.76633 0.71169
 H2653 H 0.87865 0.81038 0.70355
 H2654 H 0.85756 0.82309 0.69154
 H2655 H 0.88146 0.82158 0.65045
 H2656 H 0.90287 0.80935 0.66249
 H2657 H 0.91186 0.78686 0.67364
 H2658 H 0.93377 0.77594 0.68581
 H2659 H 0.92445 0.80352 0.72396
 H2660 H 0.90326 0.81521 0.71143
 H2661 H 0.95080 0.80285 0.72447
 H2662 H 0.97148 0.79126 0.73800
 H2663 H 0.96200 0.74769 0.71776
 H2664 H 0.94088 0.75910 0.70466
 C2665 C 0.60565 0.31379 0.31831
 C2666 C 0.60755 0.32977 0.31779
 C2667 C 0.61982 0.33675 0.32464
 C2668 C 0.63063 0.32793 0.33207
 C2669 C 0.62878 0.31194 0.33254
 C2670 C 0.61641 0.30498 0.32582
 C2671 C 0.59257 0.30636 0.31099
 C2672 C 0.59418 0.29203 0.30414
 C2673 C 0.58194 0.28512 0.29716
 C2674 C 0.56787 0.29245 0.29671
 C2675 C 0.56620 0.30674 0.30353
 C2676 C 0.57839 0.31358 0.31067
 C2677 C 0.55504 0.28530 0.28893
 C2678 C 0.54633 0.29393 0.27913
 C2679 C 0.53458 0.28708 0.27135
 C2680 C 0.53119 0.27150 0.27336
 C2681 C 0.53973 0.26294 0.28339
 C2682 C 0.55161 0.26975 0.29101
 H2683 H 0.59963 0.33692 0.31193
 H2684 H 0.62076 0.34910 0.32422
 H2685 H 0.63697 0.30475 0.33798
 H2686 H 0.61523 0.29268 0.32663
 H2687 H 0.60498 0.28627 0.30391
 H2688 H 0.58356 0.27418 0.29182
 H2689 H 0.55541 0.31254 0.30347
 H2690 H 0.57663 0.32446 0.31606
 H2691 H 0.54882 0.30591 0.27725
 H2692 H 0.52819 0.29397 0.26372
 H2693 H 0.53741 0.25090 0.28514
 H2694 H 0.55810 0.26289 0.29859
 C2695 C 0.60792 0.81208 0.81857
 C2696 C 0.60952 0.82810 0.81855
 C2697 C 0.62187 0.83506 0.82531
 C2698 C 0.63306 0.82617 0.83212
 C2699 C 0.63145 0.81016 0.83217
 C2700 C 0.61900 0.80321 0.82557
 C2701 C 0.59490 0.80464 0.81116
 C2702 C 0.59670 0.79057 0.80387
 C2703 C 0.58453 0.78364 0.79681
 C2704 C 0.57032 0.79070 0.79670
 C2705 C 0.56845 0.80474 0.80392
 C2706 C 0.58057 0.81159 0.81116
 C2707 C 0.55756 0.78352 0.78885
 C2708 C 0.54866 0.79219 0.77925
 C2709 C 0.53697 0.78529 0.77142
 C2710 C 0.53381 0.76963 0.77321
 C2711 C 0.54254 0.76103 0.78303
 C2712 C 0.55437 0.76788 0.79069
 H2713 H 0.60134 0.83531 0.81311
 H2714 H 0.62261 0.84743 0.82524
 H2715 H 0.63993 0.80291 0.83711
 H2716 H 0.61806 0.79087 0.82602
 H2717 H 0.60761 0.78503 0.80336
 H2718 H 0.58630 0.77290 0.79115
 H2719 H 0.55755 0.81033 0.80410
 H2720 H 0.57866 0.82226 0.81688
 H2721 H 0.55096 0.80424 0.77757
 H2722 H 0.53041 0.79222 0.76395
 H2723 H 0.54039 0.74894 0.78461
 H2724 H 0.56102 0.76098 0.79812
 C2725 C 0.10666 0.31377 0.81595
 C2726 C 0.10818 0.32980 0.81590
 C2727 C 0.12055 0.33684 0.82255
 C2728 C 0.13184 0.32802 0.82929
 C2729 C 0.13032 0.31199 0.82934
 C2730 C 0.11785 0.30498 0.82286
 C2731 C 0.09359 0.30624 0.80870
 C2732 C 0.09539 0.29214 0.80147
 C2733 C 0.08316 0.28507 0.79464
 C2734 C 0.06889 0.29202 0.79469
 C2735 C 0.06704 0.30611 0.80183
 C2736 C 0.07922 0.31310 0.80885
 C2737 C 0.05606 0.28467 0.78710
 C2738 C 0.04698 0.29317 0.77752
 C2739 C 0.03524 0.28610 0.76990
 C2740 C 0.03222 0.27043 0.77189
 C2741 C 0.04113 0.26201 0.78170
 C2742 C 0.05301 0.26903 0.78915
 H2743 H 0.09991 0.33696 0.81052
 H2744 H 0.12122 0.34921 0.82246
 H2745 H 0.13888 0.30480 0.83422
 H2746 H 0.11698 0.29263 0.82334
 H2747 H 0.10632 0.28666 0.80084
 H2748 H 0.08491 0.27430 0.78902
 H2749 H 0.05610 0.31162 0.80213
 H2750 H 0.07733 0.32379 0.81453
 H2751 H 0.04918 0.30522 0.77569
 H2752 H 0.02855 0.29289 0.76243
 H2753 H 0.03909 0.24992 0.78343
 H2754 H 0.05980 0.26227 0.79656
 C2755 C 0.10458 0.81860 0.31883
 C2756 C 0.11509 0.80954 0.32640
 C2757 C 0.12747 0.81622 0.33332
 C2758 C 0.12956 0.83218 0.33309
 C2759 C 0.11882 0.84129 0.32586
 C2760 C 0.10653 0.83458 0.31876
 C2761 C 0.09184 0.81132 0.31082
 C2762 C 0.07761 0.81842 0.31008
 C2763 C 0.06572 0.81148 0.30255
 C2764 C 0.06775 0.79722 0.29576
 C2765 C 0.08193 0.79014 0.29643
 C2766 C 0.09386 0.79715 0.30377
 C2767 C 0.05513 0.78960 0.28809
 C2768 C 0.05204 0.77407 0.29068
 C2769 C 0.04039 0.76670 0.28324
 C2770 C 0.03171 0.77465 0.27288
 C2771 C 0.03476 0.79022 0.27032
 C2772 C 0.04629 0.79766 0.27795
 H2773 H 0.11382 0.79723 0.32695
 H2774 H 0.13558 0.80880 0.33858
 H2775 H 0.11994 0.85363 0.32563
 H2776 H 0.09875 0.84192 0.31294
 H2777 H 0.07557 0.82921 0.31554
 H2778 H 0.05483 0.81710 0.30227
 H2779 H 0.08383 0.77925 0.29109
 H2780 H 0.10473 0.79152 0.30376
 H2781 H 0.05862 0.76765 0.29854
 H2782 H 0.03834 0.75469 0.28543
 H2783 H 0.02823 0.79664 0.26243
 H2784 H 0.04853 0.80963 0.27571
 C2785 C 0.60640 0.68554 0.68045
 C2786 C 0.61730 0.69419 0.67289
 C2787 C 0.62983 0.68711 0.66655
 C2788 C 0.63172 0.67115 0.66742
 C2789 C 0.62064 0.66245 0.67467
 C2790 C 0.60819 0.66956 0.68117
 C2791 C 0.59346 0.69320 0.68784
 C2792 C 0.57919 0.68617 0.68845
 C2793 C 0.56719 0.69324 0.69575
 C2794 C 0.56914 0.70756 0.70243
 C2795 C 0.58331 0.71469 0.70169
 C2796 C 0.59535 0.70756 0.69457
 C2797 C 0.55655 0.71495 0.71042
 C2798 C 0.55338 0.73055 0.70835
 C2799 C 0.54177 0.73762 0.71621
 C2800 C 0.53325 0.72928 0.72645
 C2801 C 0.53639 0.71364 0.72846
 C2802 C 0.54785 0.70653 0.72045
 H2803 H 0.61619 0.70648 0.67188
 H2804 H 0.63821 0.69423 0.66124
 H2805 H 0.62160 0.65012 0.67538
 H2806 H 0.60014 0.66252 0.68703
 H2807 H 0.57722 0.67526 0.68319
 H2808 H 0.55632 0.68758 0.69605
 H2809 H 0.58517 0.72564 0.70694
 H2810 H 0.60624 0.71318 0.69461
 H2811 H 0.55986 0.73726 0.70060
 H2812 H 0.53964 0.74969 0.71443
 H2813 H 0.52999 0.70690 0.73625
 H2814 H 0.55015 0.69452 0.72233
 C2815 C 0.60456 0.18741 0.18139
 C2816 C 0.60600 0.17140 0.18215
 C2817 C 0.61816 0.16399 0.17549
 C2818 C 0.62930 0.17241 0.16804
 C2819 C 0.62789 0.18842 0.16730
 C2820 C 0.61563 0.19582 0.17382
 C2821 C 0.59165 0.19528 0.18860
 C2822 C 0.59364 0.20959 0.19538
 C2823 C 0.58159 0.21684 0.20239
 C2824 C 0.56734 0.20986 0.20293
 C2825 C 0.56528 0.19563 0.19612
 C2826 C 0.57727 0.18846 0.18894
 C2827 C 0.55474 0.21725 0.21089
 C2828 C 0.54594 0.20875 0.22076
 C2829 C 0.53437 0.21579 0.22866
 C2830 C 0.53125 0.23143 0.22670
 C2831 C 0.53991 0.23987 0.21664
 C2832 C 0.55162 0.23287 0.20888
 H2833 H 0.59782 0.16456 0.18806
 H2834 H 0.61876 0.15163 0.17610
 H2835 H 0.63635 0.19530 0.16182
 H2836 H 0.61480 0.20814 0.17285
 H2837 H 0.60460 0.21506 0.19557
 H2838 H 0.58350 0.22774 0.20772
 H2839 H 0.55434 0.19011 0.19624
 H2840 H 0.57524 0.17761 0.18359
 H2841 H 0.54821 0.19672 0.22258
 H2842 H 0.52787 0.20898 0.23632
 H2843 H 0.53778 0.25195 0.21493
 H2844 H 0.55820 0.23963 0.20125
 C2845 C 0.10666 0.68847 0.18405
 C2846 C 0.10838 0.68899 0.16876
 C2847 C 0.12049 0.68161 0.16194
 C2848 C 0.13129 0.67366 0.17024
 C2849 C 0.12959 0.67323 0.18553
 C2850 C 0.11740 0.68041 0.19232
 C2851 C 0.09379 0.69628 0.19141
 C2852 C 0.09567 0.70305 0.20525
 C2853 C 0.08352 0.70991 0.21242
 C2854 C 0.06926 0.71041 0.20584
 C2855 C 0.06736 0.70397 0.19191
 C2856 C 0.07947 0.69687 0.18481
 C2857 C 0.05640 0.71755 0.21358
 C2858 C 0.04725 0.72836 0.20652
 C2859 C 0.03545 0.73549 0.21406
 C2860 C 0.03244 0.73172 0.22872
 C2861 C 0.04142 0.72067 0.23567
 C2862 C 0.05336 0.71375 0.22821
 H2863 H 0.10046 0.69524 0.16205
 H2864 H 0.12132 0.68204 0.15014
 H2865 H 0.13780 0.66746 0.19233
 H2866 H 0.11634 0.67952 0.20408
 H2867 H 0.10658 0.70317 0.21053
 H2868 H 0.08530 0.71501 0.22307
 H2869 H 0.05642 0.70412 0.18667
 H2870 H 0.07752 0.69159 0.17429
 H2871 H 0.04944 0.73152 0.19526
 H2872 H 0.02868 0.74394 0.20841
 H2873 H 0.03939 0.71757 0.24698
 H2874 H 0.06021 0.70535 0.23385
 C2875 C 0.10557 0.18530 0.68119
 C2876 C 0.11633 0.19376 0.67326
 C2877 C 0.12876 0.18652 0.66689
 C2878 C 0.13068 0.17059 0.66814
 C2879 C 0.11983 0.16210 0.67592
 C2880 C 0.10747 0.16936 0.68242
 C2881 C 0.09255 0.19308 0.68833
 C2882 C 0.07834 0.18592 0.68910
 C2883 C 0.06625 0.19307 0.69615
 C2884 C 0.06802 0.20762 0.70242
 C2885 C 0.08211 0.21490 0.70149
 C2886 C 0.09426 0.20768 0.69460
 C2887 C 0.05533 0.21505 0.71022
 C2888 C 0.05197 0.23056 0.70782
 C2889 C 0.04024 0.23765 0.71549
 C2890 C 0.03179 0.22942 0.72588
 C2891 C 0.03512 0.21388 0.72821
 C2892 C 0.04670 0.20675 0.72040
 H2893 H 0.11513 0.20601 0.67190
 H2894 H 0.13699 0.19347 0.66118
 H2895 H 0.12083 0.14979 0.67694
 H2896 H 0.09954 0.16249 0.68860
 H2897 H 0.07651 0.17482 0.68415
 H2898 H 0.05544 0.18729 0.69658
 H2899 H 0.08383 0.22603 0.70642
 H2900 H 0.10508 0.21343 0.69448
 H2901 H 0.05839 0.23718 0.69995
 H2902 H 0.03796 0.24965 0.71348
 H2903 H 0.02879 0.20723 0.73612
 H2904 H 0.04915 0.19481 0.72254
 C2905 C 0.39808 0.68247 0.31846
 C2906 C 0.38529 0.67886 0.31005
 C2907 C 0.37258 0.67228 0.31653
 C2908 C 0.37225 0.66931 0.33161
 C2909 C 0.38493 0.67295 0.34008
 C2910 C 0.39776 0.67937 0.33356
 C2911 C 0.41155 0.68961 0.31146
 C2912 C 0.42003 0.70080 0.31884
 C2913 C 0.43231 0.70790 0.31200
 C2914 C 0.43633 0.70412 0.29756
 C2915 C 0.42795 0.69280 0.29027
 C2916 C 0.41581 0.68557 0.29716
 C2917 C 0.44892 0.71220 0.28996
 C2918 C 0.45807 0.70444 0.27980
 C2919 C 0.46927 0.71223 0.27200
 C2920 C 0.47176 0.72792 0.27434
 C2921 C 0.46294 0.73561 0.28478
 C2922 C 0.45158 0.72788 0.29242
 H2923 H 0.38496 0.68141 0.29847
 H2924 H 0.36284 0.66982 0.30980
 H2925 H 0.38497 0.67067 0.35172
 H2926 H 0.40746 0.68177 0.34034
 H2927 H 0.41701 0.70432 0.32980
 H2928 H 0.43864 0.71639 0.31805
 H2929 H 0.43054 0.68972 0.27909
 H2930 H 0.40973 0.67682 0.29121
 H2931 H 0.45660 0.69232 0.27784
 H2932 H 0.47600 0.70597 0.26414
 H2933 H 0.46454 0.74773 0.28674
 H2934 H 0.44462 0.73431 0.29996
 C2935 C 0.39010 0.18609 0.81442
 C2936 C 0.39048 0.18267 0.82945
 C2937 C 0.37816 0.17567 0.83629
 C2938 C 0.36527 0.17176 0.82823
 C2939 C 0.36487 0.17508 0.81322
 C2940 C 0.37710 0.18226 0.80641
 C2941 C 0.40321 0.19358 0.80712
 C2942 C 0.40720 0.18971 0.79271
 C2943 C 0.41941 0.19682 0.78579
 C2944 C 0.42807 0.20787 0.79316
 C2945 C 0.42414 0.21167 0.80761
 C2946 C 0.41182 0.20468 0.81447
 C2947 C 0.44104 0.21545 0.78574
 C2948 C 0.44429 0.23100 0.78826
 C2949 C 0.45626 0.23818 0.78101
 C2950 C 0.46514 0.23004 0.77095
 C2951 C 0.46201 0.21450 0.76850
 C2952 C 0.45017 0.20726 0.77587
 H2953 H 0.40039 0.18517 0.83591
 H2954 H 0.37881 0.17306 0.84785
 H2955 H 0.35497 0.17236 0.80682
 H2956 H 0.37627 0.18499 0.79490
 H2957 H 0.40098 0.18106 0.78676
 H2958 H 0.42193 0.19376 0.77459
 H2959 H 0.43065 0.21998 0.81370
 H2960 H 0.40897 0.20811 0.82550
 H2961 H 0.43737 0.23774 0.79559
 H2962 H 0.45835 0.25021 0.78305
 H2963 H 0.46874 0.20788 0.76089
 H2964 H 0.44823 0.19521 0.77389
 C2965 C 0.89623 0.68715 0.82386
 C2966 C 0.88543 0.69572 0.83161
 C2967 C 0.87293 0.68857 0.83797
 C2968 C 0.87097 0.67263 0.83687
 C2969 C 0.88192 0.66403 0.82937
 C2970 C 0.89434 0.67120 0.82289
 C2971 C 0.90921 0.69483 0.81653
 C2972 C 0.92341 0.68769 0.81582
 C2973 C 0.93540 0.69463 0.80840
 C2974 C 0.93351 0.70894 0.80166
 C2975 C 0.91944 0.71624 0.80258
 C2976 C 0.90740 0.70924 0.80986
 C2977 C 0.94605 0.71607 0.79336
 C2978 C 0.94945 0.73167 0.79511
 C2979 C 0.96103 0.73846 0.78697
 C2980 C 0.96930 0.72983 0.77677
 C2981 C 0.96594 0.71421 0.77508
 C2982 C 0.95449 0.70738 0.78336
 H2983 H 0.88662 0.70799 0.83278
 H2984 H 0.86464 0.69559 0.84351
 H2985 H 0.88090 0.65172 0.82848
 H2986 H 0.90231 0.66424 0.81686
 H2987 H 0.92531 0.67675 0.82107
 H2988 H 0.94620 0.68885 0.80799
 H2989 H 0.91764 0.72720 0.79731
 H2990 H 0.89658 0.71495 0.80993
 H2991 H 0.94317 0.73859 0.80283
 H2992 H 0.96334 0.75053 0.78850
 H2993 H 0.97213 0.70725 0.76733
 H2994 H 0.95201 0.69536 0.78171
 C2995 C 0.89373 0.19053 0.31804
 C2996 C 0.89207 0.17452 0.31813
 C2997 C 0.87974 0.16764 0.32507
 C2998 C 0.86862 0.17660 0.33194
 C2999 C 0.87035 0.19261 0.33197
 C3000 C 0.88278 0.19947 0.32520
 C3001 C 0.90664 0.19789 0.31029
 C3002 C 0.90472 0.21194 0.30298
 C3003 C 0.91676 0.21878 0.29556
 C3004 C 0.93093 0.21165 0.29510
 C3005 C 0.93290 0.19762 0.30232
 C3006 C 0.92092 0.19086 0.30993
 C3007 C 0.94356 0.21880 0.28696
 C3008 C 0.95220 0.21015 0.27708
 C3009 C 0.96378 0.21705 0.26902
 C3010 C 0.96708 0.23267 0.27087
 C3011 C 0.95859 0.24123 0.28095
 C3012 C 0.94687 0.23439 0.28883
 H3013 H 0.90015 0.16725 0.31260
 H3014 H 0.87893 0.15528 0.32503
 H3015 H 0.86194 0.19990 0.33698
 H3016 H 0.88379 0.21181 0.32560
 H3017 H 0.89384 0.21753 0.30272
 H3018 H 0.91492 0.22952 0.28991
 H3019 H 0.94378 0.19198 0.30224
 H3020 H 0.92291 0.18020 0.31564
 H3021 H 0.94978 0.19813 0.27539
 H3022 H 0.97015 0.21016 0.26136
 H3023 H 0.96085 0.25330 0.28258
 H3024 H 0.94042 0.24127 0.29646
 C3025 C 0.31417 0.31468 0.60312
 C3026 C 0.31782 0.30602 0.61560
 C3027 C 0.32459 0.31292 0.62770
 C3028 C 0.32766 0.32868 0.62769
 C3029 C 0.32402 0.33739 0.61530
 C3030 C 0.31746 0.33045 0.60310
 C3031 C 0.30680 0.30733 0.59029
 C3032 C 0.29597 0.31529 0.58204
 C3033 C 0.28887 0.30830 0.57016
 C3034 C 0.29224 0.29309 0.56633
 C3035 C 0.30311 0.28516 0.57455
 C3036 C 0.31036 0.29221 0.58630
 C3037 C 0.28430 0.28547 0.55398
 C3038 C 0.29182 0.27476 0.54508
 C3039 C 0.28423 0.26730 0.53376
 C3040 C 0.26900 0.27054 0.53092
 C3041 C 0.26152 0.28139 0.53963
 C3042 C 0.26904 0.28867 0.55109
 H3043 H 0.31518 0.29393 0.61617
 H3044 H 0.32712 0.30601 0.63721
 H3045 H 0.32643 0.34954 0.61500
 H3046 H 0.31510 0.33745 0.59361
 H3047 H 0.29277 0.32687 0.58488
 H3048 H 0.28076 0.31488 0.56396
 H3049 H 0.30588 0.27337 0.57208
 H3050 H 0.31881 0.28579 0.59223
 H3051 H 0.30364 0.27221 0.54677
 H3052 H 0.29032 0.25908 0.52714
 H3053 H 0.24975 0.28402 0.53778
 H3054 H 0.26278 0.29660 0.55786
 C3055 C 0.31780 0.81552 0.10591
 C3056 C 0.32046 0.80674 0.11855
 C3057 C 0.32708 0.81333 0.13088
 C3058 C 0.33101 0.82889 0.13092
 C3059 C 0.32833 0.83772 0.11837
 C3060 C 0.32188 0.83109 0.10596
 C3061 C 0.31068 0.80846 0.09282
 C3062 C 0.30046 0.81680 0.08419
 C3063 C 0.29356 0.81005 0.07206
 C3064 C 0.29660 0.79474 0.06833
 C3065 C 0.30687 0.78644 0.07693
 C3066 C 0.31388 0.79323 0.08894
 C3067 C 0.28890 0.78735 0.05572
 C3068 C 0.29650 0.77650 0.04706
 C3069 C 0.28907 0.76902 0.03565
 C3070 C 0.27394 0.77237 0.03250
 C3071 C 0.26642 0.78346 0.04089
 C3072 C 0.27379 0.79080 0.05242
 H3073 H 0.31718 0.79481 0.11904
 H3074 H 0.32883 0.80634 0.14051
 H3075 H 0.33141 0.84972 0.11811
 H3076 H 0.32025 0.83814 0.09636
 H3077 H 0.29756 0.82849 0.08692
 H3078 H 0.28588 0.81687 0.06559
 H3079 H 0.30934 0.77456 0.07454
 H3080 H 0.32187 0.78652 0.09518
 H3081 H 0.30823 0.77378 0.04905
 H3082 H 0.29521 0.76062 0.02929
 H3083 H 0.25471 0.78620 0.03877
 H3084 H 0.26749 0.79890 0.05898
 C3085 C 0.81193 0.31182 0.10263
 C3086 C 0.82739 0.31548 0.10233
 C3087 C 0.83430 0.32225 0.11443
 C3088 C 0.82588 0.32571 0.12701
 C3089 C 0.81043 0.32222 0.12731
 C3090 C 0.80355 0.31525 0.11530
 C3091 C 0.80461 0.30438 0.08982
 C3092 C 0.78963 0.30788 0.08603
 C3093 C 0.78271 0.30071 0.07415
 C3094 C 0.79062 0.28998 0.06563
 C3095 C 0.80565 0.28662 0.06931
 C3096 C 0.81251 0.29365 0.08129
 C3097 C 0.78318 0.28219 0.05308
 C3098 C 0.78645 0.26680 0.04983
 C3099 C 0.77940 0.25942 0.03815
 C3100 C 0.76875 0.26717 0.02956
 C3101 C 0.76543 0.28252 0.03276
 C3102 C 0.77265 0.28998 0.04433
 H3103 H 0.83414 0.31331 0.09269
 H3104 H 0.84620 0.32502 0.11387
 H3105 H 0.80374 0.32464 0.13696
 H3106 H 0.79170 0.31234 0.11606
 H3107 H 0.78325 0.31625 0.09219
 H3108 H 0.77106 0.30344 0.07179
 H3109 H 0.81219 0.27861 0.06288
 H3110 H 0.82398 0.29049 0.08397
 H3111 H 0.79426 0.26032 0.05648
 H3112 H 0.78208 0.24753 0.03603
 H3113 H 0.75734 0.28882 0.02626
 H3114 H 0.77004 0.30190 0.04631
 C3115 C 0.81659 0.81523 0.60418
 C3116 C 0.80793 0.82299 0.61472
 C3117 C 0.81467 0.82916 0.62717
 C3118 C 0.83033 0.82799 0.62933
 C3119 C 0.83906 0.82052 0.61864
 C3120 C 0.83227 0.81415 0.60627
 C3121 C 0.80922 0.80809 0.59124
 C3122 C 0.81651 0.80772 0.57755
 C3123 C 0.80955 0.80090 0.56548
 C3124 C 0.79507 0.79450 0.56679
 C3125 C 0.78776 0.79489 0.58041
 C3126 C 0.79479 0.80149 0.59251
 C3127 C 0.78760 0.78729 0.55408
 C3128 C 0.77252 0.79075 0.55080
 C3129 C 0.76523 0.78351 0.53918
 C3130 C 0.77281 0.77248 0.53074
 C3131 C 0.78796 0.76915 0.53393
 C3132 C 0.79532 0.77658 0.54542
 H3133 H 0.79587 0.82431 0.61338
 H3134 H 0.80751 0.83458 0.63524
 H3135 H 0.85117 0.81958 0.61982
 H3136 H 0.83930 0.80813 0.59848
 H3137 H 0.82751 0.81289 0.57608
 H3138 H 0.81536 0.80083 0.55505
 H3139 H 0.77669 0.78981 0.58175
 H3140 H 0.78896 0.80120 0.60291
 H3141 H 0.76637 0.79906 0.55726
 H3142 H 0.75354 0.78629 0.53702
 H3143 H 0.79410 0.76073 0.52759
 H3144 H 0.80693 0.77366 0.54780
 C3145 C 0.31839 0.68595 0.39400
 C3146 C 0.30994 0.68340 0.38128
 C3147 C 0.31646 0.67614 0.36922
 C3148 C 0.33163 0.67154 0.36960
 C3149 C 0.34013 0.67420 0.38228
 C3150 C 0.33352 0.68122 0.39444
 C3151 C 0.31140 0.69358 0.40676
 C3152 C 0.31254 0.68712 0.42078
 C3153 C 0.30555 0.69413 0.43274
 C3154 C 0.29756 0.70787 0.43092
 C3155 C 0.29662 0.71445 0.41694
 C3156 C 0.30337 0.70730 0.40495
 C3157 C 0.29002 0.71527 0.44351
 C3158 C 0.29201 0.73097 0.44617
 C3159 C 0.28457 0.73806 0.45781
 C3160 C 0.27477 0.72964 0.46686
 C3161 C 0.27283 0.71391 0.46423
 C3162 C 0.28050 0.70676 0.45274
 H3163 H 0.29823 0.68688 0.38073
 H3164 H 0.30972 0.67428 0.35952
 H3165 H 0.35183 0.67068 0.38282
 H3166 H 0.34026 0.68314 0.40413
 H3167 H 0.31861 0.67650 0.42241
 H3168 H 0.30647 0.68890 0.44344
 H3169 H 0.29043 0.72499 0.41527
 H3170 H 0.30242 0.71252 0.39425
 H3171 H 0.29937 0.73773 0.43924
 H3172 H 0.28624 0.75020 0.45955
 H3173 H 0.26538 0.70713 0.47105
 H3174 H 0.27873 0.69466 0.45083
 C3175 C 0.31489 0.18290 0.89441
 C3176 C 0.31808 0.16712 0.89384
 C3177 C 0.32435 0.16061 0.88125
 C3178 C 0.32773 0.16975 0.86906
 C3179 C 0.32463 0.18549 0.86961
 C3180 C 0.31820 0.19197 0.88209
 C3181 C 0.30800 0.18990 0.90767
 C3182 C 0.31195 0.20483 0.91196
 C3183 C 0.30503 0.21171 0.92400
 C3184 C 0.29411 0.20378 0.93223
 C3185 C 0.29040 0.18873 0.92814
 C3186 C 0.29720 0.18190 0.91598
 C3187 C 0.28641 0.21137 0.94477
 C3188 C 0.27105 0.20860 0.94768
 C3189 C 0.26367 0.21622 0.95906
 C3190 C 0.27142 0.22695 0.96766
 C3191 C 0.28679 0.22961 0.96490
 C3192 C 0.29422 0.22182 0.95367
 H3193 H 0.31591 0.15983 0.90318
 H3194 H 0.32674 0.14845 0.88110
 H3195 H 0.32691 0.19274 0.86025
 H3196 H 0.31557 0.20407 0.88197
 H3197 H 0.32041 0.21125 0.90601
 H3198 H 0.30804 0.22339 0.92665
 H3199 H 0.28221 0.18218 0.93434
 H3200 H 0.29375 0.17046 0.91293
 H3201 H 0.26459 0.20084 0.94092
 H3202 H 0.25179 0.21402 0.96088
 H3203 H 0.29309 0.23770 0.97146
 H3204 H 0.30612 0.22400 0.95199
 C3205 C 0.81743 0.68201 0.90095
 C3206 C 0.83293 0.67851 0.90070
 C3207 C 0.83965 0.67240 0.88814
 C3208 C 0.83097 0.66946 0.87564
 C3209 C 0.81548 0.67271 0.87592
 C3210 C 0.80880 0.67901 0.88838
 C3211 C 0.81032 0.68909 0.91408
 C3212 C 0.79536 0.68554 0.91798
 C3213 C 0.78840 0.69281 0.92981
 C3214 C 0.79626 0.70368 0.93818
 C3215 C 0.81135 0.70692 0.93452
 C3216 C 0.81826 0.69980 0.92258
 C3217 C 0.78862 0.71192 0.95038
 C3218 C 0.79186 0.72741 0.95315
 C3219 C 0.78438 0.73531 0.96430
 C3220 C 0.77333 0.72797 0.97281
 C3221 C 0.77011 0.71248 0.97014
 C3222 C 0.77775 0.70451 0.95912
 H3223 H 0.83988 0.68041 0.91024
 H3224 H 0.85160 0.66985 0.88823
 H3225 H 0.80859 0.67075 0.86633
 H3226 H 0.79693 0.68184 0.88801
 H3227 H 0.78897 0.67716 0.91187
 H3228 H 0.77672 0.69013 0.93216
 H3229 H 0.81786 0.71503 0.94085
 H3230 H 0.82972 0.70297 0.91982
 H3231 H 0.79992 0.73360 0.94649
 H3232 H 0.78702 0.74728 0.96602
 H3233 H 0.76173 0.70649 0.97660
 H3234 H 0.77515 0.69253 0.95751
 C3235 C 0.81526 0.18850 0.39613
 C3236 C 0.81927 0.19776 0.38413
 C3237 C 0.82608 0.19140 0.37176
 C3238 C 0.82883 0.17560 0.37100
 C3239 C 0.82479 0.16629 0.38289
 C3240 C 0.81819 0.17268 0.39537
 C3241 C 0.80796 0.19531 0.40930
 C3242 C 0.79688 0.18718 0.41715
 C3243 C 0.78988 0.19368 0.42936
 C3244 C 0.79362 0.20857 0.43395
 C3245 C 0.80473 0.21668 0.42612
 C3246 C 0.81187 0.21010 0.41404
 C3247 C 0.78584 0.21573 0.44668
 C3248 C 0.79360 0.22583 0.45600
 C3249 C 0.78614 0.23308 0.46754
 C3250 C 0.77079 0.23022 0.47021
 C3251 C 0.76308 0.21988 0.46116
 C3252 C 0.77048 0.21281 0.44947
 H3253 H 0.81692 0.20991 0.38416
 H3254 H 0.82892 0.19878 0.36264
 H3255 H 0.82693 0.15409 0.38259
 H3256 H 0.81553 0.16522 0.40448
 H3257 H 0.79341 0.17586 0.41374
 H3258 H 0.78156 0.18699 0.43523
 H3259 H 0.80777 0.22824 0.42916
 H3260 H 0.82052 0.21662 0.40845
 H3261 H 0.80550 0.22811 0.45442
 H3262 H 0.79240 0.24089 0.47442
 H3263 H 0.75121 0.21755 0.46289
 H3264 H 0.76404 0.20533 0.44241
 C3265 C 0.68099 0.31722 0.39847
 C3266 C 0.67756 0.30797 0.38633
 C3267 C 0.67104 0.31429 0.37383
 C3268 C 0.66799 0.33002 0.37306
 C3269 C 0.67139 0.33932 0.38512
 C3270 C 0.67772 0.33298 0.39774
 C3271 C 0.68819 0.31046 0.41168
 C3272 C 0.69906 0.31870 0.41963
 C3273 C 0.70619 0.31211 0.43171
 C3274 C 0.70278 0.29705 0.43606
 C3275 C 0.69179 0.28888 0.42819
 C3276 C 0.68452 0.29553 0.41625
 C3277 C 0.71087 0.28972 0.44849
 C3278 C 0.70343 0.27925 0.45772
 C3279 C 0.71122 0.27177 0.46889
 C3280 C 0.72659 0.27476 0.47126
 C3281 C 0.73397 0.28549 0.46232
 C3282 C 0.72623 0.29281 0.45099
 H3283 H 0.68020 0.29588 0.38634
 H3284 H 0.66873 0.30692 0.36458
 H3285 H 0.66901 0.35148 0.38483
 H3286 H 0.67996 0.34040 0.40695
 H3287 H 0.70231 0.33014 0.41636
 H3288 H 0.71441 0.31885 0.43763
 H3289 H 0.68899 0.27720 0.43106
 H3290 H 0.67603 0.28893 0.41057
 H3291 H 0.69154 0.27683 0.45635
 H3292 H 0.70520 0.26367 0.47571
 H3293 H 0.74584 0.28795 0.46383
 H3294 H 0.73242 0.30058 0.44398
 C3295 C 0.68568 0.81429 0.89654
 C3296 C 0.68259 0.83009 0.89586
 C3297 C 0.67620 0.83654 0.88332
 C3298 C 0.67254 0.82731 0.87129
 C3299 C 0.67547 0.81154 0.87196
 C3300 C 0.68207 0.80512 0.88439
 C3301 C 0.69275 0.80742 0.90977
 C3302 C 0.68893 0.79252 0.91431
 C3303 C 0.69590 0.78588 0.92644
 C3304 C 0.70672 0.79403 0.93452
 C3305 C 0.71034 0.80904 0.93015
 C3306 C 0.70353 0.81560 0.91789
 C3307 C 0.71440 0.78681 0.94726
 C3308 C 0.72965 0.78999 0.95025
 C3309 C 0.73695 0.78300 0.96201
 C3310 C 0.72926 0.77248 0.97094
 C3311 C 0.71404 0.76930 0.96803
 C3312 C 0.70666 0.77647 0.95641
 H3313 H 0.68493 0.83747 0.90507
 H3314 H 0.67389 0.84871 0.88310
 H3315 H 0.67291 0.80423 0.86274
 H3316 H 0.68457 0.79300 0.88435
 H3317 H 0.68050 0.78594 0.90851
 H3318 H 0.69295 0.77423 0.92932
 H3319 H 0.71843 0.81578 0.93622
 H3320 H 0.70692 0.82702 0.91465
 H3321 H 0.73609 0.79764 0.94332
 H3322 H 0.74874 0.78558 0.96391
 H3323 H 0.70780 0.76132 0.97481
 H3324 H 0.69485 0.77396 0.95465
 C3325 C 0.18509 0.31589 0.89312
 C3326 C 0.18126 0.30680 0.88098
 C3327 C 0.17451 0.31331 0.86868
 C3328 C 0.17163 0.32909 0.86813
 C3329 C 0.17554 0.33824 0.88014
 C3330 C 0.18210 0.33170 0.89255
 C3331 C 0.19224 0.30889 0.90624
 C3332 C 0.20324 0.31689 0.91425
 C3333 C 0.21009 0.31019 0.92642
 C3334 C 0.20627 0.29525 0.93082
 C3335 C 0.19524 0.28728 0.92283
 C3336 C 0.18824 0.29404 0.91079
 C3337 C 0.21391 0.28788 0.94349
 C3338 C 0.20601 0.27771 0.95268
 C3339 C 0.21335 0.27026 0.96416
 C3340 C 0.22870 0.27299 0.96688
 C3341 C 0.23654 0.28340 0.95796
 C3342 C 0.22926 0.29068 0.94634
 H3343 H 0.18368 0.29466 0.88086
 H3344 H 0.17177 0.30605 0.85946
 H3345 H 0.17330 0.35043 0.88001
 H3346 H 0.18464 0.33903 0.90176
 H3347 H 0.20676 0.32826 0.91099
 H3348 H 0.21837 0.31678 0.93242
 H3349 H 0.19214 0.27568 0.92572
 H3350 H 0.17965 0.28761 0.90507
 H3351 H 0.19412 0.27551 0.95105
 H3352 H 0.20698 0.26239 0.97094
 H3353 H 0.24841 0.28564 0.95974
 H3354 H 0.23579 0.29821 0.93937
 C3355 C 0.18403 0.81680 0.39568
 C3356 C 0.17609 0.80808 0.38533
 C3357 C 0.16931 0.81508 0.37329
 C3358 C 0.17011 0.83103 0.37137
 C3359 C 0.17785 0.83980 0.38184
 C3360 C 0.18478 0.83277 0.39380
 C3361 C 0.19165 0.80923 0.40825
 C3362 C 0.19226 0.81636 0.42203
 C3363 C 0.19952 0.80924 0.43376
 C3364 C 0.20616 0.79477 0.43202
 C3365 C 0.20553 0.78761 0.41831
 C3366 C 0.19845 0.79479 0.40653
 C3367 C 0.21380 0.78714 0.44442
 C3368 C 0.21101 0.77163 0.44745
 C3369 C 0.21851 0.76428 0.45889
 C3370 C 0.22910 0.77224 0.46740
 C3371 C 0.23182 0.78779 0.46442
 C3372 C 0.22416 0.79520 0.45310
 H3373 H 0.17504 0.79579 0.38652
 H3374 H 0.16364 0.80792 0.36536
 H3375 H 0.17852 0.85213 0.38083
 H3376 H 0.19095 0.83985 0.40144
 H3377 H 0.18694 0.82735 0.42383
 H3378 H 0.19974 0.81493 0.44428
 H3379 H 0.21077 0.77655 0.41663
 H3380 H 0.19853 0.78911 0.39603
 H3381 H 0.20298 0.76521 0.44099
 H3382 H 0.21619 0.75229 0.46090
 H3383 H 0.23990 0.79422 0.47081
 H3384 H 0.22657 0.80714 0.45091
 C3385 C 0.68652 0.68227 0.60451
 C3386 C 0.69498 0.67968 0.61727
 C3387 C 0.68824 0.67330 0.62968
 C3388 C 0.67284 0.66954 0.62968
 C3389 C 0.66435 0.67209 0.61699
 C3390 C 0.67113 0.67829 0.60450
 C3391 C 0.69367 0.68936 0.59139
 C3392 C 0.68556 0.69967 0.58260
 C3393 C 0.69239 0.70667 0.57054
 C3394 C 0.70756 0.70369 0.56704
 C3395 C 0.71563 0.69327 0.57574
 C3396 C 0.70875 0.68613 0.58771
 C3397 C 0.71503 0.71170 0.55459
 C3398 C 0.72596 0.70423 0.54599
 C3399 C 0.73325 0.71195 0.53458
 C3400 C 0.72965 0.72725 0.53140
 C3401 C 0.71860 0.73466 0.53984
 C3402 C 0.71146 0.72702 0.55135
 H3403 H 0.70676 0.68288 0.61781
 H3404 H 0.69498 0.67161 0.63941
 H3405 H 0.65249 0.66912 0.61668
 H3406 H 0.66433 0.67983 0.59480
 H3407 H 0.67400 0.70260 0.58518
 H3408 H 0.68574 0.71443 0.56395
 H3409 H 0.72737 0.69082 0.57351
 H3410 H 0.71527 0.67807 0.59407
 H3411 H 0.72881 0.69237 0.54798
 H3412 H 0.74165 0.70592 0.52820
 H3413 H 0.71568 0.74649 0.53774
 H3414 H 0.70334 0.73325 0.55790
 C3415 C 0.68026 0.18073 0.10179
 C3416 C 0.67690 0.16501 0.10286
 C3417 C 0.67056 0.15896 0.11564
 C3418 C 0.66724 0.16855 0.12753
 C3419 C 0.67051 0.18422 0.12648
 C3420 C 0.67704 0.19023 0.11381
 C3421 C 0.68724 0.18724 0.08833
 C3422 C 0.68354 0.20210 0.08363
 C3423 C 0.69063 0.20856 0.07146
 C3424 C 0.70146 0.20027 0.06348
 C3425 C 0.70488 0.18525 0.06794
 C3426 C 0.69793 0.17885 0.08025
 C3427 C 0.70943 0.20746 0.05086
 C3428 C 0.72475 0.20430 0.04813
 C3429 C 0.73242 0.21161 0.03673
 C3430 C 0.72503 0.22242 0.02793
 C3431 C 0.70970 0.22545 0.03049
 C3432 C 0.70196 0.21796 0.04173
 H3433 H 0.67901 0.15738 0.09376
 H3434 H 0.66803 0.14684 0.11618
 H3435 H 0.66828 0.19180 0.13560
 H3436 H 0.67980 0.20230 0.11357
 H3437 H 0.67516 0.20881 0.08938
 H3438 H 0.68783 0.22022 0.06852
 H3439 H 0.71297 0.17841 0.06194
 H3440 H 0.70119 0.16744 0.08360
 H3441 H 0.73096 0.19650 0.05506
 H3442 H 0.74427 0.20913 0.03507
 H3443 H 0.70368 0.23362 0.02377
 H3444 H 0.69010 0.22044 0.04326
 C3445 C 0.18575 0.68554 0.10686
 C3446 C 0.18197 0.66989 0.10706
 C3447 C 0.17503 0.66338 0.11931
 C3448 C 0.17153 0.67239 0.13154
 C3449 C 0.17519 0.68802 0.13137
 C3450 C 0.18231 0.69451 0.11921
 C3451 C 0.19325 0.69249 0.09386
 C3452 C 0.18991 0.70756 0.08956
 C3453 C 0.19710 0.71417 0.07750
 C3454 C 0.20769 0.70582 0.06928
 C3455 C 0.21092 0.69069 0.07348
 C3456 C 0.20386 0.68414 0.08565
 C3457 C 0.21545 0.71296 0.05652
 C3458 C 0.23065 0.70961 0.05341
 C3459 C 0.23804 0.71667 0.04168
 C3460 C 0.23047 0.72738 0.03292
 C3461 C 0.21526 0.73063 0.03590
 C3462 C 0.20781 0.72342 0.04748
 H3463 H 0.18417 0.66270 0.09767
 H3464 H 0.17217 0.65132 0.11914
 H3465 H 0.17277 0.69516 0.14076
 H3466 H 0.18532 0.70651 0.11959
 H3467 H 0.18164 0.71428 0.09546
 H3468 H 0.19448 0.72593 0.07476
 H3469 H 0.21885 0.68382 0.06731
 H3470 H 0.20689 0.67258 0.08873
 H3471 H 0.23698 0.70182 0.06024
 H3472 H 0.24980 0.71402 0.03971
 H3473 H 0.20909 0.73875 0.02925
 H3474 H 0.19602 0.72604 0.04933
 C3475 C 0.18250 0.17978 0.60277
 C3476 C 0.19145 0.17676 0.61512
 C3477 C 0.18508 0.17047 0.62775
 C3478 C 0.16959 0.16725 0.62841
 C3479 C 0.16059 0.17022 0.61613
 C3480 C 0.16699 0.17632 0.60340
 C3481 C 0.18929 0.18685 0.58947
 C3482 C 0.18119 0.19762 0.58119
 C3483 C 0.18781 0.20474 0.56908
 C3484 C 0.20277 0.20143 0.56504
 C3485 C 0.21079 0.19049 0.57320
 C3486 C 0.20410 0.18323 0.58519
 C3487 C 0.21015 0.20965 0.55267
 C3488 C 0.22073 0.20220 0.54366
 C3489 C 0.22816 0.21016 0.53250
 C3490 C 0.22503 0.22569 0.52996
 C3491 C 0.21425 0.23307 0.53873
 C3492 C 0.20697 0.22519 0.55001
 H3493 H 0.20334 0.17957 0.61519
 H3494 H 0.19221 0.16848 0.63716
 H3495 H 0.14863 0.16769 0.61634
 H3496 H 0.15980 0.17824 0.59404
 H3497 H 0.16982 0.20083 0.58423
 H3498 H 0.18119 0.21290 0.56292
 H3499 H 0.22239 0.18776 0.57056
 H3500 H 0.21061 0.17480 0.59113
 H3501 H 0.22325 0.19019 0.54518
 H3502 H 0.23633 0.20413 0.52583
 H3503 H 0.21169 0.24507 0.53709
 H3504 H 0.19913 0.23140 0.55688
   
