data_POSCAR
  _audit_creation_date              2014-09-24
  _audit_creation_method            'ToBaCCo'
  _symmetry_space_group_name_H-M    'P1'
  _symmetry_Int_Tables_number       1
  _symmetry_cell_setting            triclinic
  loop_
  _symmetry_equiv_pos_as_xyz
 x,y,z
_cell_length_a 68.0646
_cell_length_b 68.9681
_cell_length_c 68.5405
_cell_angle_alpha 90.347800
_cell_angle_beta 89.825400
_cell_angle_gamma 88.003000
loop_
  _atom_site_label
  _atom_site_type_symbol
  _atom_site_fract_x
  _atom_site_fract_y
  _atom_site_fract_z
C1 C 0.10284 0.01580 0.21803
 H2 H 0.09898 0.02753 0.22802
 C3 C 0.09300 0.01428 0.20016
 H4 H 0.08163 0.02500 0.19661
 C5 C 0.12323 -0.01166 0.21008
 H6 H 0.13542 -0.02144 0.21359
 C7 C 0.11393 -0.01364 0.19217
 H8 H 0.11886 -0.02516 0.18231
 N9 N 0.11758 0.00282 0.22268
 C10 C 0.12828 0.00728 0.28536
 H11 H 0.14412 0.00757 0.28423
 C12 C 0.11936 0.00760 0.30364
 H13 H 0.12845 0.00820 0.31656
 C14 C 0.09734 0.00593 0.26973
 H15 H 0.08890 0.00512 0.25643
 C16 C 0.08773 0.00601 0.28789
 H17 H 0.07187 0.00565 0.28831
 Zn18 Zn 0.13265 0.00550 0.24577
 N19 N 0.11728 0.00667 0.26887
 C20 C 0.14254 0.04324 0.25626
 N21 N 0.14719 0.02841 0.24377
 C22 C 0.16098 0.03039 0.22959
 C23 C 0.17095 0.04774 0.22787
 C24 C 0.15204 0.06075 0.25508
 C25 C 0.13832 -0.03315 0.25175
 C26 C 0.14772 -0.05126 0.25324
 C27 C 0.17890 -0.03609 0.24882
 C28 C 0.16878 -0.01810 0.24742
 N29 N 0.14881 -0.01709 0.24854
 H30 H 0.13112 0.04172 0.26705
 H31 H 0.16414 0.01854 0.21952
 H32 H 0.18188 0.04898 0.21645
 H33 H 0.14773 0.07179 0.26559
 H34 H 0.12246 -0.03186 0.25274
 H35 H 0.13885 -0.06383 0.25542
 H36 H 0.19472 -0.03647 0.24745
 H37 H 0.17684 -0.00507 0.24517
 C38 C 0.09889 0.00681 0.30513
 C39 C 0.09862 -0.00064 0.18696
 C40 C 0.16825 -0.05309 0.25151
 C41 C 0.16649 0.06338 0.24062
 C42 C 0.39170 0.02490 0.77846
 H43 H 0.39534 0.03664 0.76884
 C44 C 0.39902 0.02442 0.79753
 H45 H 0.40827 0.03593 0.80238
 C46 C 0.37410 -0.00357 0.78411
 H47 H 0.36392 -0.01417 0.77914
 C48 C 0.38095 -0.00454 0.80321
 H49 H 0.37623 -0.01610 0.81257
 N50 N 0.37954 0.01096 0.77212
 C51 C 0.37833 0.01167 0.70849
 H52 H 0.36254 0.01130 0.70685
 C53 C 0.39038 0.01107 0.69204
 H54 H 0.38361 0.00989 0.67785
 C55 C 0.40604 0.01254 0.72929
 H56 H 0.41203 0.01283 0.74387
 C57 C 0.41871 0.01192 0.71314
 H58 H 0.43445 0.01188 0.71537
 Zn59 Zn 0.36760 0.01287 0.74722
 N60 N 0.38623 0.01266 0.72664
 C61 C 0.35690 0.05019 0.73356
 N62 N 0.35237 0.03643 0.74679
 C63 C 0.33872 0.04016 0.76097
 C64 C 0.32926 0.05849 0.76245
 C65 C 0.34780 0.06858 0.73441
 C66 C 0.36366 -0.02588 0.74087
 C67 C 0.35488 -0.04370 0.73926
 C68 C 0.32306 -0.02720 0.74202
 C69 C 0.33257 -0.00954 0.74356
 N70 N 0.35254 -0.00932 0.74332
 H71 H 0.36813 0.04724 0.72270
 H72 H 0.33566 0.02909 0.77157
 H73 H 0.31882 0.06093 0.77416
 H74 H 0.35201 0.07934 0.72386
 H75 H 0.37952 -0.02525 0.74071
 H76 H 0.36421 -0.05668 0.73773
 H77 H 0.30720 -0.02691 0.74272
 H78 H 0.32404 0.00387 0.74539
 C79 C 0.41088 0.01147 0.69421
 C80 C 0.39355 0.00952 0.81017
 C81 C 0.33433 -0.04471 0.74014
 C82 C 0.33403 0.07319 0.74917
 C83 C 0.89931 0.51073 0.27084
 H84 H 0.90209 0.52243 0.26088
 C85 C 0.90907 0.50980 0.28883
 H86 H 0.91934 0.52095 0.29209
 C87 C 0.88165 0.48285 0.27860
 H88 H 0.87058 0.47262 0.27499
 C89 C 0.89086 0.48143 0.29666
 H90 H 0.88682 0.46982 0.30632
 N91 N 0.88596 0.49729 0.26604
 C92 C 0.87596 0.49680 0.20303
 H93 H 0.86024 0.49509 0.20381
 C94 C 0.88518 0.49770 0.18493
 H95 H 0.87644 0.49653 0.17181
 C96 C 0.90621 0.50090 0.21930
 H97 H 0.91428 0.50230 0.23275
 C98 C 0.91610 0.50187 0.20137
 H99 H 0.93172 0.50422 0.20139
 Zn100 Zn 0.87082 0.49935 0.24278
 N101 N 0.88641 0.49879 0.21975
 C102 C 0.84477 0.52831 0.25946
 N103 N 0.85615 0.52336 0.24373
 C104 C 0.85924 0.53632 0.22926
 C105 C 0.85109 0.55507 0.23036
 C106 C 0.83636 0.54713 0.26125
 C107 C 0.86550 0.46063 0.23758
 C108 C 0.85645 0.44288 0.23763
 C109 C 0.82542 0.45973 0.24440
 C110 C 0.83521 0.47733 0.24427
 N111 N 0.85497 0.47734 0.24122
 H112 H 0.84280 0.51788 0.27097
 H113 H 0.86867 0.53248 0.21708
 H114 H 0.85419 0.56510 0.21873
 H115 H 0.82779 0.55065 0.27417
 H116 H 0.88120 0.46109 0.23522
 H117 H 0.86540 0.42979 0.23511
 H118 H 0.80982 0.46015 0.24736
 H119 H 0.82714 0.49084 0.24710
 C120 C 0.90544 0.50048 0.18386
 C121 C 0.90474 0.49500 0.30223
 C122 C 0.83621 0.44208 0.24135
 C123 C 0.83979 0.56096 0.24665
 C124 C 0.61106 0.49776 0.71867
 H125 H 0.60920 0.50898 0.72969
 C126 C 0.60143 0.49970 0.70073
 H127 H 0.59223 0.51251 0.69812
 C128 C 0.62632 0.46803 0.70836
 H129 H 0.63645 0.45596 0.71107
 C130 C 0.61715 0.46945 0.69028
 H131 H 0.62009 0.45824 0.67940
 N132 N 0.62300 0.48195 0.72224
 C133 C 0.62896 0.47740 0.78532
 H134 H 0.64465 0.47432 0.78565
 C135 C 0.61822 0.47785 0.80264
 H136 H 0.62584 0.47470 0.81612
 C137 C 0.60015 0.48423 0.76694
 H138 H 0.59315 0.48641 0.75297
 C139 C 0.58878 0.48485 0.78400
 H140 H 0.57306 0.48770 0.78304
 Zn141 Zn 0.63694 0.47985 0.74608
 N142 N 0.61994 0.48091 0.76798
 C143 C 0.65119 0.51443 0.76161
 N144 N 0.65425 0.50087 0.74735
 C145 C 0.66766 0.50350 0.73295
 C146 C 0.67815 0.52063 0.73221
 C147 C 0.66129 0.53167 0.76146
 C148 C 0.63734 0.44023 0.74726
 C149 C 0.64448 0.42113 0.74826
 C150 C 0.67749 0.43288 0.74979
 C151 C 0.66962 0.45191 0.74850
 N152 N 0.64985 0.45514 0.74718
 H153 H 0.64028 0.51235 0.77278
 H154 H 0.66966 0.49264 0.72160
 H155 H 0.68835 0.52263 0.72028
 H156 H 0.65817 0.54181 0.77319
 H157 H 0.62166 0.44326 0.74641
 H158 H 0.63409 0.40958 0.74814
 H159 H 0.69326 0.43085 0.75065
 H160 H 0.67927 0.46405 0.74863
 C161 C 0.59787 0.48199 0.80216
 C162 C 0.60443 0.48531 0.68630
 C163 C 0.66478 0.41709 0.74967
 C164 C 0.67461 0.53537 0.74623
 C165 C 0.26099 0.10048 0.98885
 H166 H 0.24823 0.09941 0.97958
 C167 C 0.27815 0.08950 0.98453
 H168 H 0.27845 0.07980 0.97204
 C169 C 0.27640 0.11491 1.01597
 H170 H 0.27588 0.12515 1.02796
 C171 C 0.29385 0.10435 1.01211
 H172 H 0.30626 0.10615 1.02170
 N173 N 0.26039 0.11284 1.00440
 C174 C 0.19829 0.12712 1.01511
 H175 H 0.19996 0.14257 1.01691
 C176 C 0.17969 0.11947 1.01623
 H177 H 0.16708 0.12913 1.01897
 C178 C 0.21280 0.09594 1.00891
 H179 H 0.22577 0.08690 1.00596
 C180 C 0.19433 0.08759 1.01003
 H181 H 0.19332 0.07215 1.00760
 Zn182 Zn 0.23774 0.12923 1.00861
 N183 N 0.21431 0.11545 1.01110
 C184 C 0.21989 0.14343 0.97445
 N185 N 0.23520 0.14589 0.98681
 C186 C 0.24924 0.15888 0.98286
 C187 C 0.24808 0.17017 0.96596
 C188 C 0.21817 0.15430 0.95747
 C189 C 0.24184 0.13204 1.04852
 C190 C 0.24191 0.14059 1.06697
 C191 C 0.23760 0.17202 1.05187
 C192 C 0.23792 0.16280 1.03359
 N193 N 0.23996 0.14315 1.03230
 H194 H 0.20922 0.13261 0.97739
 H195 H 0.26151 0.16025 0.99272
 H196 H 0.25965 0.18014 0.96325
 H197 H 0.20591 0.15183 0.94782
 H198 H 0.24304 0.11642 1.04707
 H199 H 0.24338 0.13131 1.07963
 H200 H 0.23589 0.18764 1.05229
 H201 H 0.23598 0.17132 1.02051
 C202 C 0.17746 0.09953 1.01354
 C203 C 0.29498 0.09164 0.99601
 C204 C 0.23944 0.16081 1.06897
 C205 C 0.23238 0.16783 0.95284
 C206 C 0.74399 0.39793 0.98663
 H207 H 0.75624 0.39920 0.97668
 C208 C 0.72669 0.40905 0.98374
 H209 H 0.72574 0.41905 0.97163
 C210 C 0.73002 0.38282 1.01409
 H211 H 0.73117 0.37229 1.02566
 C212 C 0.71246 0.39353 1.01167
 H213 H 0.70057 0.39151 1.02189
 N214 N 0.74533 0.38512 1.00162
 C215 C 0.80750 0.37072 1.00928
 H216 H 0.80620 0.35515 1.00990
 C217 C 0.82588 0.37874 1.01084
 H218 H 0.83874 0.36923 1.01270
 C219 C 0.79219 0.40191 1.00579
 H220 H 0.77898 0.41081 1.00379
 C221 C 0.81041 0.41061 1.00732
 H222 H 0.81094 0.42620 1.00613
 Zn223 Zn 0.76794 0.36856 1.00358
 N224 N 0.79120 0.38226 1.00645
 C225 C 0.78478 0.35630 0.96792
 N226 N 0.76965 0.35364 0.98048
 C227 C 0.75497 0.34153 0.97604
 C228 C 0.75537 0.33115 0.95847
 C229 C 0.78572 0.34636 0.95018
 C230 C 0.76621 0.36270 1.04309
 C231 C 0.76589 0.35280 1.06069
 C232 C 0.76635 0.32258 1.04263
 C233 C 0.76661 0.33316 1.02529
 N234 N 0.76631 0.35287 1.02588
 H235 H 0.79597 0.36648 0.97136
 H236 H 0.74283 0.34011 0.98610
 H237 H 0.74329 0.32186 0.95547
 H238 H 0.79789 0.34886 0.94038
 H239 H 0.76653 0.37838 1.04307
 H240 H 0.76615 0.36142 1.07386
 H241 H 0.76655 0.30688 1.04186
 H242 H 0.76730 0.32561 1.01144
 C243 C 0.82756 0.39887 1.00974
 C244 C 0.71053 0.40659 0.99610
 C245 C 0.76580 0.33234 1.06072
 C246 C 0.77095 0.33354 0.94516
 C247 C 0.22962 0.89606 0.47277
 H248 H 0.24215 0.89643 0.46304
 C249 C 0.21267 0.90738 0.46879
 H250 H 0.21226 0.91662 0.45606
 C251 C 0.21459 0.88305 0.50080
 H252 H 0.21517 0.87326 0.51302
 C253 C 0.19734 0.89394 0.49726
 H254 H 0.18511 0.89282 0.50727
 N255 N 0.23031 0.88425 0.48861
 C256 C 0.29247 0.86984 0.49842
 H257 H 0.29120 0.85436 0.50019
 C258 C 0.31082 0.87806 0.49969
 H259 H 0.32368 0.86879 0.50246
 C260 C 0.27716 0.90061 0.49247
 H261 H 0.26398 0.90932 0.48970
 C262 C 0.29531 0.90950 0.49368
 H263 H 0.29579 0.92497 0.49142
 Zn264 Zn 0.25259 0.86744 0.49237
 N265 N 0.27616 0.88106 0.49452
 C266 C 0.27000 0.85094 0.45845
 N267 N 0.25420 0.85051 0.47058
 C268 C 0.23879 0.83915 0.46655
 C269 C 0.23890 0.82762 0.44971
 C270 C 0.27075 0.83969 0.44149
 C271 C 0.24910 0.86443 0.53245
 C272 C 0.24763 0.85563 0.55061
 C273 C 0.24893 0.82438 0.53443
 C274 C 0.25016 0.83387 0.51651
 N275 N 0.25002 0.85356 0.51587
 H276 H 0.28190 0.86039 0.46160
 H277 H 0.22624 0.83932 0.47629
 H278 H 0.22633 0.81886 0.44671
 H279 H 0.28365 0.84071 0.43244
 H280 H 0.24953 0.88007 0.53150
 H281 H 0.24725 0.86497 0.56330
 H282 H 0.24908 0.80867 0.53461
 H283 H 0.25146 0.82547 0.50318
 C284 C 0.31248 0.89809 0.49724
 C285 C 0.19613 0.90607 0.48089
 C286 C 0.24740 0.83523 0.55186
 C287 C 0.25489 0.82794 0.43667
 C288 C 0.76875 0.59831 0.47954
 H289 H 0.75578 0.59845 0.47044
 C290 C 0.78520 0.58660 0.47441
 H291 H 0.78478 0.57758 0.46144
 C292 C 0.78540 0.61038 0.50713
 H293 H 0.78566 0.61999 0.51962
 C294 C 0.80216 0.59911 0.50245
 H295 H 0.81487 0.59974 0.51185
 N296 N 0.76910 0.60979 0.49575
 C297 C 0.70780 0.62640 0.50760
 H298 H 0.71006 0.64167 0.51007
 C299 C 0.68896 0.61932 0.50883
 H300 H 0.67671 0.62922 0.51225
 C301 C 0.72115 0.59504 0.50000
 H302 H 0.73377 0.58567 0.49666
 C303 C 0.70245 0.58725 0.50131
 H304 H 0.70086 0.57193 0.49850
 Zn305 Zn 0.74752 0.62702 0.50150
 N306 N 0.72336 0.61438 0.50286
 C307 C 0.73047 0.64613 0.46925
 N308 N 0.74618 0.64584 0.48145
 C309 C 0.76159 0.65749 0.47832
 C310 C 0.76166 0.66993 0.46223
 C311 C 0.72985 0.65834 0.45316
 C312 C 0.75214 0.62527 0.54128
 C313 C 0.75235 0.63164 0.56057
 C314 C 0.74880 0.66467 0.54917
 C315 C 0.74907 0.65761 0.52996
 N316 N 0.75055 0.63819 0.52646
 H317 H 0.71864 0.63637 0.47149
 H318 H 0.77406 0.65674 0.48807
 H319 H 0.77432 0.67868 0.46006
 H320 H 0.71726 0.65796 0.44354
 H321 H 0.75288 0.60989 0.53806
 H322 H 0.75347 0.62095 0.57208
 H323 H 0.74748 0.68018 0.55140
 H324 H 0.74745 0.66758 0.51791
 C325 C 0.68608 0.59956 0.50568
 C326 C 0.80229 0.58723 0.48574
 C327 C 0.75017 0.65153 0.56488
 C328 C 0.74568 0.67025 0.44916
 C329 C 0.00959 0.22678 0.09739
 H330 H 0.01951 0.23856 0.09563
 C331 C 0.01297 0.20938 0.08714
 H332 H 0.02550 0.20787 0.07740
 C333 C -0.01867 0.21432 0.11241
 H334 H -0.03085 0.21615 0.12245
 C335 C -0.01580 0.19669 0.10252
 H336 H -0.02631 0.18550 0.10472
 N337 N -0.00616 0.22900 0.10957
 C338 C -0.01608 0.29135 0.11578
 H339 H -0.01806 0.29165 0.13145
 C340 C -0.01642 0.30865 0.10542
 H341 H -0.01926 0.32182 0.11368
 C342 C -0.01053 0.27310 0.08681
 H343 H -0.00823 0.25919 0.07967
 C344 C -0.01093 0.29010 0.07575
 H345 H -0.00880 0.28895 0.06010
 Zn346 Zn -0.00996 0.25271 0.12348
 N347 N -0.01251 0.27413 0.10653
 C348 C 0.02475 0.27044 0.13446
 N349 N 0.01240 0.25620 0.13947
 C350 C 0.01675 0.24402 0.15451
 C351 C 0.03399 0.24612 0.16534
 C352 C 0.04203 0.27305 0.14479
 C353 C -0.05016 0.25113 0.12689
 C354 C -0.06871 0.25224 0.13550
 C355 C -0.05332 0.25733 0.16676
 C356 C -0.03494 0.25587 0.15748
 N357 N -0.03374 0.25279 0.13789
 H358 H 0.02158 0.27955 0.12205
 H359 H 0.00692 0.23251 0.15794
 H360 H 0.03698 0.23606 0.17707
 H361 H 0.05160 0.28444 0.14028
 H362 H -0.04878 0.24908 0.11127
 H363 H -0.08151 0.25084 0.12629
 H364 H -0.05369 0.25977 0.18233
 H365 H -0.02170 0.25760 0.16589
 C366 C -0.01317 0.30835 0.08506
 C367 C 0.00029 0.19400 0.08977
 C368 C -0.07063 0.25559 0.15566
 C369 C 0.04703 0.26082 0.16042
 C370 C 0.02797 0.77119 0.39258
 H371 H 0.04099 0.76174 0.39285
 C372 C 0.02704 0.78789 0.40414
 H373 H 0.03944 0.79128 0.41327
 C374 C -0.00406 0.77812 0.38046
 H375 H -0.01634 0.77401 0.37158
 C376 C -0.00556 0.79510 0.39169
 H377 H -0.01906 0.80383 0.39129
 N378 N 0.01266 0.76673 0.38089
 C379 C 0.02180 0.70456 0.37517
 H380 H 0.02663 0.70325 0.36015
 C381 C 0.02094 0.68807 0.38673
 H382 H 0.02489 0.67419 0.38019
 C383 C 0.00965 0.72439 0.40119
 H384 H 0.00495 0.73854 0.40664
 C385 C 0.00859 0.70825 0.41330
 H386 H 0.00318 0.71013 0.42810
 Zn387 Zn 0.01612 0.74394 0.36564
 N388 N 0.01606 0.72225 0.38246
 C389 C 0.05644 0.73486 0.36144
 N390 N 0.04107 0.74495 0.35328
 C391 C 0.04383 0.75674 0.33775
 C392 C 0.06260 0.75858 0.32971
 C393 C 0.07536 0.73617 0.35387
 C394 C -0.01432 0.72479 0.34618
 C395 C -0.03059 0.72302 0.33410
 C396 C -0.02706 0.75620 0.32407
 C397 C -0.01042 0.75713 0.33596
 N398 N -0.00466 0.74171 0.34713
 H399 H 0.05421 0.72618 0.37425
 H400 H 0.03152 0.76496 0.33172
 H401 H 0.06407 0.76812 0.31741
 H402 H 0.08730 0.72804 0.36080
 H403 H -0.00983 0.71265 0.35511
 H404 H -0.03814 0.70944 0.33395
 H405 H -0.03131 0.76886 0.31567
 H406 H -0.00261 0.77049 0.33690
 C407 C 0.01425 0.68981 0.40613
 C408 C 0.01029 0.80024 0.40354
 C409 C -0.03768 0.73901 0.32335
 C410 C 0.07881 0.74824 0.33789
 C411 C 0.52055 0.27082 0.89497
 H412 H 0.53076 0.25848 0.89588
 C413 C 0.52381 0.28754 0.90589
 H414 H 0.53656 0.28801 0.91528
 C415 C 0.49158 0.28524 0.88149
 H416 H 0.47914 0.28436 0.87182
 C417 C 0.49437 0.30231 0.89202
 H418 H 0.48365 0.31416 0.89068
 N419 N 0.50451 0.26986 0.88327
 C420 C 0.49715 0.20766 0.87733
 H421 H 0.49683 0.20640 0.86160
 C422 C 0.49521 0.19121 0.88884
 H423 H 0.49313 0.17742 0.88170
 C424 C 0.49919 0.22756 0.90550
 H425 H 0.50032 0.24179 0.91195
 C426 C 0.49724 0.21148 0.91758
 H427 H 0.49718 0.21345 0.93327
 Zn428 Zn 0.50145 0.24673 0.86878
 N429 N 0.49941 0.22533 0.88576
 C430 C 0.53737 0.22889 0.85617
 N431 N 0.52404 0.24358 0.85268
 C432 C 0.52765 0.25743 0.83924
 C433 C 0.54536 0.25695 0.82883
 C434 C 0.55533 0.22792 0.84624
 C435 C 0.46107 0.25004 0.86485
 C436 C 0.44277 0.25074 0.85575
 C437 C 0.45928 0.24684 0.82466
 C438 C 0.47733 0.24637 0.83442
 N439 N 0.47787 0.24815 0.85418
 H440 H 0.53445 0.21823 0.86719
 H441 H 0.51697 0.26919 0.83701
 H442 H 0.54800 0.26835 0.81843
 H443 H 0.56538 0.21597 0.84959
 H444 H 0.46193 0.25095 0.88059
 H445 H 0.42996 0.25199 0.86503
 H446 H 0.45919 0.24540 0.80890
 H447 H 0.49084 0.24435 0.82622
 C448 C 0.49551 0.19298 0.90929
 C449 C 0.51074 0.30361 0.90437
 C450 C 0.44159 0.24925 0.83525
 C451 C 0.55980 0.24236 0.83257
 C452 C 0.50991 0.72907 0.59756
 H453 H 0.51989 0.74094 0.59727
 C454 C 0.51436 0.71209 0.58696
 H455 H 0.52777 0.71097 0.57841
 C456 C 0.48047 0.71594 0.60935
 H457 H 0.46742 0.71732 0.61831
 C458 C 0.48439 0.69871 0.59908
 H459 H 0.47387 0.68735 0.59985
 N460 N 0.49309 0.73076 0.60831
 C461 C 0.48195 0.79283 0.61604
 H462 H 0.47935 0.79297 0.63162
 C463 C 0.48039 0.81005 0.60556
 H464 H 0.47626 0.82330 0.61328
 C465 C 0.48947 0.77495 0.58717
 H466 H 0.49266 0.76119 0.58004
 C467 C 0.48805 0.79190 0.57609
 H468 H 0.49042 0.79108 0.56047
 Zn469 Zn 0.48810 0.75373 0.62304
 N470 N 0.48675 0.77580 0.60684
 C471 C 0.52146 0.77086 0.63920
 N472 N 0.50909 0.75592 0.64101
 C473 C 0.51278 0.74144 0.65400
 C474 C 0.52969 0.74144 0.66561
 C475 C 0.53845 0.77148 0.65047
 C476 C 0.44765 0.75184 0.62329
 C477 C 0.42854 0.75256 0.63064
 C478 C 0.44175 0.75636 0.66307
 C479 C 0.46073 0.75522 0.65505
 N480 N 0.46327 0.75305 0.63547
 H481 H 0.51865 0.78199 0.62846
 H482 H 0.50288 0.72953 0.65491
 H483 H 0.53225 0.72943 0.67541
 H484 H 0.54822 0.78337 0.64838
 H485 H 0.45010 0.75047 0.60773
 H486 H 0.41639 0.75158 0.62053
 H487 H 0.44036 0.75804 0.67868
 H488 H 0.47337 0.75649 0.66442
 C489 C 0.48380 0.80977 0.58533
 C490 C 0.50165 0.69657 0.58785
 C491 C 0.42523 0.75519 0.65073
 C492 C 0.54306 0.75651 0.66367
 C493 C 0.88147 0.96270 0.70657
 H494 H 0.86649 0.95853 0.70878
 C495 C 0.88886 0.96318 0.68851
 H496 H 0.87971 0.95924 0.67630
 C497 C 0.91130 0.97312 0.72074
 H498 H 0.91966 0.97786 0.73315
 C499 C 0.92012 0.97384 0.70102
 H500 H 0.93507 0.97844 0.69994
 N501 N 0.89318 0.96808 0.72303
 C502 C 0.89394 0.99025 0.78152
 H503 H 0.88119 0.99967 0.77904
 C504 C 0.90514 0.99319 0.79717
 H505 H 0.90100 1.00519 0.80666
 C506 C 0.91414 0.96339 0.77063
 H507 H 0.91741 0.95169 0.76042
 C508 C 0.92696 0.96604 0.78777
 H509 H 0.93945 0.95606 0.78971
 Zn510 Zn 0.88034 0.97027 0.74762
 N511 N 0.89854 0.97458 0.76818
 C512 C 0.87426 0.93329 0.76410
 N513 N 0.86622 0.94736 0.75248
 C514 C 0.84849 0.94505 0.74382
 C515 C 0.83802 0.92823 0.74688
 C516 C 0.86455 0.91609 0.76720
 C517 C 0.87034 1.00797 0.73720
 C518 C 0.85939 1.02538 0.73623
 C519 C 0.83328 1.01034 0.75391
 C520 C 0.84486 0.99318 0.75463
 N521 N 0.86303 0.99233 0.74630
 H522 H 0.88834 0.93520 0.77084
 H523 H 0.84240 0.95628 0.73446
 H524 H 0.82415 0.92690 0.73946
 H525 H 0.87143 0.90504 0.77635
 H526 H 0.88489 1.00698 0.73083
 H527 H 0.86587 1.03719 0.72855
 H528 H 0.81892 1.01075 0.76081
 H529 H 0.83948 0.98073 0.76222
 C530 C 0.92259 0.98009 0.80101
 C531 C 0.90925 0.96944 0.68523
 C532 C 0.84058 1.02693 0.74493
 C533 C 0.84610 0.91333 0.75871
 C534 C 0.41101 0.48193 0.22428
 H535 H 0.41120 0.47058 0.23510
 C536 C 0.42408 0.48068 0.20845
 H537 H 0.43446 0.46846 0.20730
 C538 C 0.39678 0.51122 0.21204
 H539 H 0.38597 0.52300 0.21319
 C540 C 0.40938 0.51042 0.19596
 H541 H 0.40837 0.52192 0.18530
 N542 N 0.39765 0.49705 0.22577
 C543 C 0.37783 0.50212 0.28650
 H544 H 0.36251 0.50571 0.28386
 C545 C 0.38507 0.50323 0.30545
 H546 H 0.37506 0.50713 0.31726
 C547 C 0.40963 0.49419 0.27418
 H548 H 0.41929 0.49125 0.26194
 C549 C 0.41755 0.49517 0.29298
 H550 H 0.43320 0.49273 0.29467
 Zn551 Zn 0.37832 0.49827 0.24608
 N552 N 0.39002 0.49747 0.27130
 C553 C 0.36424 0.46439 0.22818
 N554 N 0.36100 0.47721 0.24310
 C555 C 0.34651 0.47440 0.25641
 C556 C 0.33550 0.45764 0.25575
 C557 C 0.35359 0.44749 0.22692
 C558 C 0.37591 0.53776 0.25020
 C559 C 0.36842 0.55672 0.24902
 C560 C 0.33814 0.54450 0.23626
 C561 C 0.34626 0.52559 0.23785
 N562 N 0.36491 0.52268 0.24455
 H563 H 0.37541 0.46697 0.21740
 H564 H 0.34368 0.48492 0.26786
 H565 H 0.32450 0.45590 0.26691
 H566 H 0.35691 0.43732 0.21515
 H567 H 0.39073 0.53501 0.25539
 H568 H 0.37766 0.56842 0.25350
 H569 H 0.32337 0.54632 0.23071
 H570 H 0.33784 0.51331 0.23341
 C571 C 0.40515 0.49978 0.30896
 C572 C 0.42301 0.49482 0.19385
 C573 C 0.34940 0.56046 0.24177
 C574 C 0.33932 0.44356 0.24108
 C575 C 0.59438 0.99051 0.27124
 H576 H 0.59388 0.97942 0.26004
 C577 C 0.58296 0.98935 0.28709
 H578 H 0.57312 0.97741 0.28842
 C579 C 0.60890 1.01939 0.28274
 H580 H 0.61940 1.03069 0.28139
 C581 C 0.59690 1.01848 0.30064
 H582 H 0.59841 1.02989 0.31135
 N583 N 0.60772 1.00613 0.26923
 C584 C 0.62410 1.00779 0.20745
 H585 H 0.63945 1.01089 0.20900
 C586 C 0.61579 1.00746 0.18889
 H587 H 0.62502 1.00979 0.17628
 C588 C 0.59322 1.00237 0.22200
 H589 H 0.58428 1.00106 0.23490
 C590 C 0.58427 1.00193 0.20366
 H591 H 0.56858 1.00016 0.20298
 Zn592 Zn 0.62595 1.00613 0.24806
 N593 N 0.61291 1.00486 0.22356
 C594 C 0.64227 0.97349 0.26733
 N595 N 0.64377 0.98433 0.25092
 C596 C 0.65677 0.97903 0.23657
 C597 C 0.66799 0.96168 0.23787
 C598 C 0.65317 0.95612 0.26927
 C599 C 0.62790 1.04566 0.24363
 C600 C 0.63584 1.06398 0.24361
 C601 C 0.66702 1.04943 0.25356
 C602 C 0.65842 1.03124 0.25323
 N603 N 0.63916 1.02978 0.24844
 H604 H 0.63233 0.97805 0.27890
 H605 H 0.65819 0.98796 0.22382
 H606 H 0.67770 0.95784 0.22587
 H607 H 0.65124 0.94758 0.28232
 H608 H 0.61262 1.04404 0.23987
 H609 H 0.62645 1.07637 0.23975
 H610 H 0.68234 1.05003 0.25747
 H611 H 0.66706 1.01835 0.25697
 C612 C 0.59568 1.00430 0.18675
 C613 C 0.58458 1.00378 0.30312
 C614 C 0.65561 1.06622 0.24875
 C615 C 0.66590 0.94965 0.25425
 C616 C 0.09631 0.50042 0.76533
 H617 H 0.09663 0.48993 0.75353
 C618 C 0.08427 0.49766 0.78159
 H619 H 0.07523 0.48507 0.78222
 C620 C 0.10811 0.52932 0.77921
 H621 H 0.11761 0.54151 0.77842
 C622 C 0.09658 0.52695 0.79582
 H623 H 0.09703 0.53764 0.80743
 N624 N 0.10779 0.51616 0.76436
 C625 C 0.12221 0.52281 0.70275
 H626 H 0.13775 0.52523 0.70435
 C627 C 0.11385 0.52252 0.68422
 H628 H 0.12306 0.52478 0.67158
 C629 C 0.09146 0.51678 0.71738
 H630 H 0.08274 0.51481 0.73036
 C631 C 0.08247 0.51629 0.69905
 H632 H 0.06685 0.51406 0.69830
 Zn633 Zn 0.12495 0.51904 0.74278
 N634 N 0.11110 0.51957 0.71883
 C635 C 0.14129 0.48396 0.72807
 N636 N 0.14299 0.49733 0.74257
 C637 C 0.15584 0.49427 0.75749
 C638 C 0.16761 0.47721 0.75814
 C639 C 0.15247 0.46664 0.72829
 C640 C 0.12484 0.55888 0.74284
 C641 C 0.13170 0.57761 0.74445
 C642 C 0.16434 0.56396 0.75012
 C643 C 0.15680 0.54537 0.74822
 N644 N 0.13729 0.54322 0.74493
 H645 H 0.13075 0.48635 0.71652
 H646 H 0.15662 0.50486 0.76914
 H647 H 0.17757 0.47499 0.77029
 H648 H 0.15067 0.45665 0.71630
 H649 H 0.10942 0.55676 0.74008
 H650 H 0.12133 0.58978 0.74284
 H651 H 0.17989 0.56507 0.75277
 H652 H 0.16654 0.53274 0.74946
 C653 C 0.09384 0.51884 0.68214
 C654 C 0.08462 0.51085 0.79722
 C655 C 0.15164 0.58050 0.74836
 C656 C 0.16564 0.46279 0.74373
 C657 C 0.77345 0.89569 0.02223
 H658 H 0.76475 0.89328 0.03517
 C659 C 0.79068 0.90602 0.02356
 H660 H 0.79517 0.91165 0.03758
 C661 C 0.77869 0.89048 -0.01163
 H662 H 0.77430 0.88396 -0.02521
 C663 C 0.79588 0.90093 -0.01100
 H664 H 0.80454 0.90215 -0.02418
 N665 N 0.76789 0.88804 0.00485
 C666 C 0.70515 0.87846 0.00306
 H667 H 0.70547 0.86343 -0.00159
 C668 C 0.68722 0.88878 0.00472
 H669 H 0.67399 0.88143 0.00098
 C670 C 0.72245 0.90614 0.01264
 H671 H 0.73623 0.91289 0.01557
 C672 C 0.70483 0.91701 0.01457
 H673 H 0.70522 0.93208 0.01904
 Zn674 Zn 0.74586 0.87203 0.00447
 N675 N 0.72227 0.88716 0.00720
 C676 C 0.73283 0.85142 0.03744
 N677 N 0.74845 0.85451 0.02559
 C678 C 0.76663 0.84692 0.02980
 C679 C 0.76977 0.83630 0.04688
 C680 C 0.73520 0.84059 0.05446
 C681 C 0.73884 0.86916 -0.03537
 C682 C 0.73791 0.86046 -0.05374
 C683 C 0.74952 0.83021 -0.03951
 C684 C 0.75009 0.83954 -0.02133
 N685 N 0.74496 0.85870 -0.01967
 H686 H 0.71857 0.85783 0.03408
 H687 H 0.77887 0.84979 0.02027
 H688 H 0.78451 0.83090 0.05021
 H689 H 0.72248 0.83913 0.06371
 H690 H 0.73475 0.88437 -0.03360
 H691 H 0.73304 0.86920 -0.06601
 H692 H 0.75372 0.81499 -0.04016
 H693 H 0.75477 0.83149 -0.00857
 C694 C 0.68688 0.90832 0.01078
 C695 C 0.80211 0.90874 0.00682
 C696 C 0.74342 0.84076 -0.05615
 C697 C 0.75401 0.83312 0.05965
 C698 C 0.27836 0.40790 0.50208
 H699 H 0.26534 0.41713 0.50060
 C700 C 0.29687 0.41590 0.50006
 H701 H 0.29764 0.43122 0.49707
 C702 C 0.29310 0.37712 0.50900
 H703 H 0.29158 0.36216 0.51316
 C704 C 0.31180 0.38449 0.50717
 H705 H 0.32455 0.37495 0.50953
 N706 N 0.27681 0.38872 0.50617
 C707 C 0.21891 0.39438 0.52729
 H708 H 0.22217 0.38430 0.53893
 C709 C 0.20163 0.40581 0.52818
 H710 H 0.19204 0.40469 0.54072
 C711 C 0.22701 0.40768 0.49661
 H712 H 0.23657 0.40776 0.48398
 C713 C 0.20999 0.41962 0.49707
 H714 H 0.20669 0.42914 0.48491
 Zn715 Zn 0.25233 0.37671 0.50960
 N716 N 0.23107 0.39525 0.51154
 C717 C 0.24626 0.34525 0.53589
 N718 N 0.25384 0.36304 0.53335
 C719 C 0.26173 0.37291 0.54845
 C720 C 0.26197 0.36511 0.56712
 C721 C 0.24598 0.33693 0.55449
 C722 C 0.23026 0.36188 0.47846
 C723 C 0.22749 0.35249 0.46065
 C724 C 0.26023 0.33818 0.46321
 C725 C 0.26234 0.34787 0.48102
 N726 N 0.24773 0.36001 0.48795
 H727 H 0.23993 0.33779 0.52362
 H728 H 0.26744 0.38713 0.54603
 H729 H 0.26813 0.37348 0.57891
 H730 H 0.23960 0.32290 0.55601
 H731 H 0.21855 0.37114 0.48436
 H732 H 0.21364 0.35481 0.45310
 H733 H 0.27252 0.32925 0.45803
 H734 H 0.27599 0.34621 0.48886
 C735 C 0.19683 0.41831 0.51273
 C736 C 0.31392 0.40404 0.50249
 C737 C 0.24278 0.34094 0.45236
 C738 C 0.25369 0.34708 0.57056
 C739 C 0.23150 0.59258 -0.00691
 H740 H 0.24235 0.58682 0.00318
 C741 C 0.21400 0.58293 -0.00959
 H742 H 0.21192 0.57006 -0.00106
 C743 C 0.22152 0.61660 -0.02965
 H744 H 0.22438 0.62968 -0.03751
 C745 C 0.20371 0.60767 -0.03254
 H746 H 0.19321 0.61421 -0.04263
 N747 N 0.23485 0.60924 -0.01669
 C748 C 0.29614 0.61416 -0.00091
 H749 H 0.29526 0.62889 0.00462
 C750 C 0.31360 0.60319 0.00083
 H751 H 0.32589 0.60955 0.00815
 C752 C 0.28078 0.58804 -0.01667
 H753 H 0.26802 0.58236 -0.02377
 C754 C 0.29800 0.57650 -0.01519
 H755 H 0.29835 0.56185 -0.02101
 Zn756 Zn 0.25778 0.62321 -0.01115
 N757 N 0.28019 0.60649 -0.00948
 C758 C 0.25996 0.65474 0.01540
 N759 N 0.25470 0.63601 0.01326
 C760 C 0.24815 0.62578 0.02871
 C761 C 0.24639 0.63441 0.04711
 C762 C 0.25852 0.66395 0.03356
 C763 C 0.27640 0.63748 -0.04454
 C764 C 0.27846 0.64934 -0.06077
 C765 C 0.25111 0.66948 -0.04903
 C766 C 0.24960 0.65719 -0.03303
 N767 N 0.26190 0.64135 -0.03127
 H768 H 0.26573 0.66247 0.00311
 H769 H 0.24444 0.61081 0.02687
 H770 H 0.24116 0.62587 0.05916
 H771 H 0.26291 0.67881 0.03445
 H772 H 0.28598 0.62476 -0.04295
 H773 H 0.28980 0.64561 -0.07142
 H774 H 0.24065 0.68155 -0.04999
 H775 H 0.23813 0.65992 -0.02230
 C776 C 0.31474 0.58414 -0.00657
 C777 C 0.19952 0.59067 -0.02235
 C778 C 0.26546 0.66538 -0.06351
 C779 C 0.25171 0.65372 0.04987
 C780 C 0.72088 0.09259 0.50091
 H781 H 0.73361 0.08291 0.49965
 C782 C 0.70213 0.08490 0.50067
 H783 H 0.70092 0.06938 0.49927
 C784 C 0.70713 0.12428 0.50554
 H785 H 0.70914 0.13954 0.50810
 C786 C 0.68818 0.11724 0.50543
 H787 H 0.67574 0.12728 0.50746
 N788 N 0.72304 0.11204 0.50293
 C789 C 0.78185 0.10612 0.52026
 H790 H 0.77978 0.11757 0.53094
 C791 C 0.79835 0.09369 0.52161
 H792 H 0.80841 0.09550 0.53363
 C793 C 0.77154 0.09006 0.49160
 H794 H 0.76132 0.08909 0.47961
 C795 C 0.78785 0.07717 0.49250
 H796 H 0.78999 0.06616 0.48129
 Zn797 Zn 0.74810 0.12340 0.50327
 N798 N 0.76891 0.10430 0.50532
 C799 C 0.75614 0.15768 0.52507
 N800 N 0.74889 0.13957 0.52550
 C801 C 0.74298 0.13151 0.54244
 C802 C 0.74505 0.14133 0.56007
 C803 C 0.75844 0.16811 0.54244
 C804 C 0.76688 0.13385 0.46807
 C805 C 0.76866 0.14352 0.45036
 C806 C 0.73929 0.16260 0.45835
 C807 C 0.73808 0.15251 0.47588
 N808 N 0.75149 0.13813 0.48023
 H809 H 0.76078 0.16375 0.51136
 H810 H 0.73714 0.11712 0.54228
 H811 H 0.73999 0.13425 0.57305
 H812 H 0.76473 0.18232 0.54187
 H813 H 0.77774 0.12278 0.47190
 H814 H 0.78086 0.13954 0.44078
 H815 H 0.72806 0.17363 0.45551
 H816 H 0.72628 0.15612 0.48593
 C817 C 0.80172 0.07926 0.50737
 C818 C 0.68544 0.09738 0.50269
 C819 C 0.75460 0.15791 0.44503
 C820 C 0.75349 0.15974 0.56039
 C821 C 0.97815 0.71028 0.89917
 H822 H 0.96423 0.71193 0.89175
 C823 C 0.98223 0.69406 0.90918
 H824 H 0.97127 0.68310 0.90964
 C825 C 1.00780 0.72469 0.90918
 H826 H 1.01789 0.73639 0.90891
 C827 C 1.01274 0.70726 0.92082
 H828 H 1.02648 0.70668 0.92878
 N829 N 0.99198 0.72556 0.89854
 C830 C 0.98906 0.78812 0.88511
 H831 H 0.99193 0.78759 0.86958
 C832 C 0.98800 0.80519 0.89449
 H833 H 0.98998 0.81812 0.88603
 C834 C 0.98264 0.77045 0.91412
 H835 H 0.98045 0.75695 0.92161
 C836 C 0.98125 0.78894 0.92510
 H837 H 0.97818 0.78848 0.94062
 Zn838 Zn 0.98807 0.74682 0.88114
 N839 N 0.98631 0.77038 0.89548
 C840 C 0.95054 0.75851 0.86701
 N841 N 0.96455 0.74397 0.86652
 C842 C 0.96167 0.72733 0.85633
 C843 C 0.94395 0.72461 0.84660
 C844 C 0.93279 0.75662 0.85712
 C845 C 1.02713 0.75409 0.87212
 C846 C 1.04439 0.75420 0.86112
 C847 C 1.02649 0.74187 0.83363
 C848 C 1.00954 0.74198 0.84524
 N849 N 1.01025 0.74766 0.86426
 H850 H 0.95294 0.77156 0.87533
 H851 H 0.97298 0.71591 0.85616
 H852 H 0.94188 0.71106 0.83891
 H853 H 0.92193 0.76835 0.85838
 H854 H 1.02721 0.75929 0.88702
 H855 H 1.05727 0.75958 0.86818
 H856 H 1.02561 0.73699 0.81860
 H857 H 0.99593 0.73730 0.83904
 C858 C 0.98391 0.80587 0.91591
 C859 C 1.00105 0.69193 0.92015
 C860 C 1.04441 0.74768 0.84156
 C861 C 0.92918 0.73937 0.84678
 C862 C 0.48391 0.21241 0.39186
 H863 H 0.47136 0.21354 0.38230
 C864 C 0.48839 0.19483 0.40105
 H865 H 0.47875 0.18286 0.39890
 C866 C 0.51171 0.22658 0.40611
 H867 H 0.52089 0.23897 0.40771
 C868 C 0.51665 0.20929 0.41573
 H869 H 0.52958 0.20846 0.42489
 N870 N 0.49547 0.22787 0.39461
 C871 C 0.48162 0.28959 0.38932
 H872 H 0.47935 0.28994 0.37371
 C873 C 0.47983 0.30665 0.40021
 H874 H 0.47579 0.32003 0.39286
 C875 C 0.48916 0.27142 0.41774
 H876 H 0.49265 0.25762 0.42450
 C877 C 0.48745 0.28821 0.42926
 H878 H 0.48986 0.28728 0.44484
 Zn879 Zn 0.49017 0.25118 0.38094
 N880 N 0.48677 0.27254 0.39807
 C881 C 0.45017 0.24748 0.37798
 N882 N 0.46647 0.24976 0.36690
 C883 C 0.46524 0.25232 0.34728
 C884 C 0.44689 0.25270 0.33806
 C885 C 0.43166 0.24749 0.36942
 C886 C 0.52327 0.27069 0.36759
 C887 C 0.54087 0.27251 0.35747
 C888 C 0.53503 0.24226 0.34087
 C889 C 0.51741 0.24109 0.35130
 N890 N 0.51201 0.25508 0.36450
 H891 H 0.45159 0.24581 0.39361
 H892 H 0.47842 0.25445 0.33883
 H893 H 0.44649 0.25477 0.32247
 H894 H 0.41892 0.24566 0.37867
 H895 H 0.51909 0.28142 0.37849
 H896 H 0.54974 0.28491 0.36058
 H897 H 0.53895 0.23060 0.33087
 H898 H 0.50834 0.22865 0.34938
 C899 C 0.48333 0.30615 0.42038
 C900 C 0.50507 0.19308 0.41302
 C901 C 0.54729 0.25803 0.34420
 C902 C 0.42968 0.25038 0.34924
 C903 C 1.00313 0.26987 0.57939
 H904 H 1.00550 0.25646 0.57143
 C905 C 1.00267 0.28737 0.56920
 H906 H 1.00502 0.28696 0.55355
 C907 C 0.99658 0.28649 0.60907
 H908 H 0.99367 0.28606 0.62455
 C909 C 0.99585 0.30433 0.59951
 H910 H 0.99284 0.31708 0.60835
 N911 N 1.00052 0.26973 0.59906
 C912 C 0.98858 0.21037 0.59956
 H913 H 0.97708 0.21260 0.61031
 C914 C 0.98945 0.19317 0.58874
 H915 H 0.97833 0.18256 0.59103
 C916 C 1.01709 0.22126 0.58367
 H917 H 1.02817 0.23203 0.58218
 C918 C 1.01830 0.20438 0.57227
 H919 H 1.03015 0.20234 0.56180
 Zn920 Zn 1.00130 0.24626 0.61368
 N921 N 1.00234 0.22399 0.59699
 C922 C 0.96094 0.25091 0.61926
 N923 N 0.97790 0.24575 0.62856
 C924 C 0.97783 0.23944 0.64730
 C925 C 0.96004 0.23777 0.65736
 C926 C 0.94290 0.24963 0.62876
 C927 C 1.03733 0.23074 0.62850
 C928 C 1.05452 0.23053 0.63955
 C929 C 1.04316 0.26036 0.65508
 C930 C 1.02618 0.26000 0.64365
 N931 N 1.02373 0.24556 0.63037
 H932 H 0.96144 0.25573 0.60428
 H933 H 0.99153 0.23528 0.65432
 H934 H 0.96065 0.23259 0.67218
 H935 H 0.92960 0.25368 0.62091
 H936 H 1.03504 0.21906 0.61833
 H937 H 1.06523 0.21869 0.63747
 H938 H 1.04454 0.27232 0.66515
 H939 H 1.01503 0.27138 0.64538
 C940 C 1.00459 0.18995 0.57504
 C941 C 0.99909 0.30507 0.57916
 C942 C 1.05787 0.24558 0.65291
 C943 C 0.94212 0.24271 0.64798
 C944 C 0.50063 0.77089 0.08603
 H945 H 0.49301 0.75785 0.08251
 C946 C 0.49713 0.78754 0.07488
 H947 H 0.48675 0.78722 0.06295
 C948 C 0.52360 0.78720 0.10549
 H949 H 0.53403 0.78709 0.11729
 C950 C 0.52025 0.80428 0.09496
 H951 H 0.52837 0.81699 0.09870
 N952 N 0.51359 0.77099 0.10113
 C953 C 0.51465 0.70890 0.11128
 H954 H 0.51160 0.70943 0.12677
 C955 C 0.51473 0.69119 0.10139
 H956 H 0.51129 0.67834 0.10949
 C957 C 0.52198 0.72544 0.08208
 H958 H 0.52498 0.73882 0.07469
 C959 C 0.52221 0.70797 0.07158
 H960 H 0.52521 0.70805 0.05605
 Zn961 Zn 0.51678 0.74843 0.11700
 N962 N 0.51807 0.72557 0.10156
 C963 C 0.49530 0.74545 0.15301
 N964 N 0.49433 0.74634 0.13321
 C965 C 0.47701 0.74432 0.12376
 C966 C 0.45976 0.74138 0.13411
 C967 C 0.47831 0.74262 0.16403
 C968 C 0.55506 0.73640 0.12738
 C969 C 0.57281 0.73649 0.13741
 C970 C 0.55997 0.76331 0.15698
 C971 C 0.54239 0.76268 0.14649
 N972 N 0.54025 0.74936 0.13198
 H973 H 0.50924 0.74650 0.16031
 H974 H 0.47663 0.74455 0.10803
 H975 H 0.44650 0.74004 0.12571
 H976 H 0.47945 0.74189 0.17977
 H977 H 0.55326 0.72603 0.11570
 H978 H 0.58436 0.72602 0.13330
 H979 H 0.56104 0.77417 0.16829
 H980 H 0.53044 0.77292 0.14988
 C981 C 0.51864 0.69055 0.08125
 C982 C 0.50667 0.80461 0.07959
 C983 C 0.57561 0.75006 0.15242
 C984 C 0.46016 0.74033 0.15465
 O985 O -0.01378 0.99338 0.94451
 O986 O 0.01882 1.00240 0.94789
 O987 O -0.01989 0.94706 0.98503
 O988 O -0.01586 0.94202 1.01677
 O989 O -0.06301 0.99477 0.98388
 O990 O -0.06344 1.02708 0.99647
 O991 O 0.02614 0.99217 1.04687
 O992 O 0.02867 0.96232 1.03091
 O993 O 0.03568 1.03505 1.00638
 O994 O 0.02233 1.04381 0.97455
 O995 O -0.01420 1.03938 1.04297
 O996 O -0.04638 1.02440 1.04308
 O997 O -0.00210 1.00745 1.05762
 O998 O -0.03738 0.99894 1.05449
 O999 O 0.00395 1.05280 1.01900
 O1000 O -0.00296 1.05684 0.98334
 O1001 O 0.04555 1.00629 1.01989
 O1002 O 0.04562 0.97463 1.00279
 O1003 O -0.04124 1.00996 0.95546
 O1004 O -0.04670 1.03914 0.97439
 O1005 O -0.05329 0.96622 0.99791
 O1006 O -0.03895 0.95920 1.03016
 O1007 O -0.00242 0.96051 0.96052
 O1008 O 0.03020 0.97499 0.96340
 Zr1009 Zr 0.00269 0.98890 0.97019
 O1010 O 0.01995 1.00396 0.99032
 Zr1011 Zr -0.02371 0.96972 1.00563
 O1012 O -0.00718 0.98359 1.02721
 Zr1013 Zr -0.03805 1.01183 0.98597
 O1014 O -0.02256 1.02761 1.00696
 Zr1015 Zr 0.02115 0.98876 1.01677
 O1016 O 0.00547 0.97251 0.99602
 Zr1017 Zr 0.00649 1.03093 0.99741
 O1018 O -0.00968 1.01690 0.97541
 Zr1019 Zr -0.01972 1.01135 1.03269
 O1020 O -0.03753 0.99667 1.01254
 O1021 O -0.02596 0.98451 0.97942
 O1022 O 0.00895 1.01611 1.02368
 C1023 C -0.03049 1.00227 0.94181
 C1024 C -0.01111 0.94628 0.96837
 C1025 C -0.06624 0.97758 0.98990
 C1026 C 0.01522 0.99998 1.06035
 C1027 C 0.04853 1.02378 1.01472
 C1028 C -0.00477 1.05340 1.03567
 H1029 H 0.03325 1.00530 0.98476
 H1030 H -0.02951 1.04024 1.00926
 H1031 H -0.03374 0.97746 0.96966
 H1032 H -0.00653 0.97557 1.03911
 H1033 H 0.02646 0.95183 1.02132
 H1034 H -0.00503 0.94385 1.02610
 H1035 H -0.01540 1.06147 0.98956
 H1036 H -0.03529 1.04375 0.96696
 H1037 H 0.05652 0.97358 1.01235
 H1038 H 0.02940 0.96897 0.95024
 H1039 H -0.04955 1.03574 1.03477
 H1040 H -0.06684 1.02108 1.00907
 H1041 H 0.01400 1.01610 0.94737
 H1042 H 0.03240 1.03416 0.96990
 H1043 H -0.04921 0.96916 1.03365
 H1044 H -0.03089 0.98656 1.05853
 O1045 O 0.48798 0.44857 0.48612
 O1046 O 0.49407 0.44541 0.51892
 O1047 O 0.44564 0.49657 0.48304
 O1048 O 0.44404 0.52803 0.49043
 O1049 O 0.49699 0.49379 0.44446
 O1050 O 0.53039 0.50090 0.44886
 O1051 O 0.49245 0.54207 0.54186
 O1052 O 0.46146 0.53000 0.53940
 O1053 O 0.53225 0.49550 0.54793
 O1054 O 0.53844 0.46468 0.53097
 O1055 O 0.54373 0.53706 0.50625
 O1056 O 0.53167 0.54535 0.47458
 O1057 O 0.51139 0.55479 0.51800
 O1058 O 0.50551 0.55779 0.48151
 O1059 O 0.55342 0.50859 0.52039
 O1060 O 0.55382 0.47428 0.50827
 O1061 O 0.50411 0.51156 0.55758
 O1062 O 0.47063 0.49864 0.55225
 O1063 O 0.50729 0.46073 0.46222
 O1064 O 0.53927 0.47550 0.46322
 O1065 O 0.46838 0.50937 0.45353
 O1066 O 0.46468 0.54087 0.47201
 O1067 O 0.45525 0.46788 0.49687
 O1068 O 0.46782 0.46330 0.53050
 Zr1069 Zr 0.48439 0.47181 0.50588
 O1070 O 0.50028 0.48624 0.52753
 Zr1071 Zr 0.47097 0.51315 0.48404
 O1072 O 0.48555 0.52933 0.50541
 Zr1073 Zr 0.51218 0.48958 0.47076
 O1074 O 0.52876 0.50536 0.49084
 Zr1075 Zr 0.48751 0.51402 0.53177
 O1076 O 0.47038 0.49904 0.51127
 Zr1077 Zr 0.52893 0.49105 0.51779
 O1078 O 0.51390 0.47426 0.49712
 Zr1079 Zr 0.51487 0.53251 0.49675
 O1080 O 0.49978 0.51779 0.47433
 O1081 O 0.48322 0.48563 0.47899
 O1082 O 0.51652 0.51853 0.52353
 C1083 C 0.49772 0.44702 0.47005
 C1084 C 0.44238 0.47929 0.48880
 C1085 C 0.48014 0.50174 0.44066
 C1086 C 0.50215 0.55583 0.53443
 C1087 C 0.52118 0.50382 0.56094
 C1088 C 0.55648 0.52596 0.51489
 H1089 H 0.50019 0.47870 0.53976
 H1090 H 0.54215 0.50666 0.48550
 H1091 H 0.47571 0.47828 0.46925
 H1092 H 0.47849 0.54197 0.50732
 H1093 H 0.45036 0.52253 0.53439
 H1094 H 0.44535 0.53359 0.50367
 H1095 H 0.56005 0.48136 0.49751
 H1096 H 0.54159 0.46506 0.47288
 H1097 H 0.47000 0.50630 0.56454
 H1098 H 0.46016 0.45183 0.52690
 H1099 H 0.54101 0.53523 0.46948
 H1100 H 0.52619 0.51469 0.44730
 H1101 H 0.50840 0.44405 0.51653
 H1102 H 0.52776 0.46045 0.53962
 H1103 H 0.47529 0.54340 0.46255
 H1104 H 0.49330 0.56298 0.48780
 O1105 O 0.45237 -0.03334 0.49752
 O1106 O 0.46869 -0.04242 0.46909
 O1107 O 0.49735 -0.03509 0.54134
 O1108 O 0.52582 -0.02116 0.54714
 O1109 O 0.45697 0.01475 0.53723
 O1110 O 0.45498 0.04200 0.51627
 O1111 O 0.55379 0.00483 0.48709
 O1112 O 0.55226 -0.02456 0.50279
 O1113 O 0.51164 0.00422 0.44224
 O1114 O 0.47698 -0.00294 0.44049
 O1115 O 0.51298 0.05232 0.47947
 O1116 O 0.50230 0.05971 0.51220
 O1117 O 0.54231 0.03479 0.49678
 O1118 O 0.52355 0.04554 0.52711
 O1119 O 0.49855 0.03749 0.45379
 O1120 O 0.46556 0.02235 0.45070
 O1121 O 0.53805 -0.00910 0.45812
 O1122 O 0.53514 -0.04014 0.47685
 O1123 O 0.44067 -0.00331 0.50683
 O1124 O 0.44259 0.02844 0.49228
 O1125 O 0.48263 0.00002 0.55313
 O1126 O 0.51784 0.00834 0.55280
 O1127 O 0.48277 -0.05010 0.51581
 O1128 O 0.49655 -0.05553 0.48273
 Zr1129 Zr 0.48260 -0.02948 0.49326
 O1130 O 0.50193 -0.01710 0.47315
 Zr1131 Zr 0.50311 -0.00727 0.53090
 O1132 O 0.52376 0.00540 0.51243
 Zr1133 Zr 0.46556 0.01403 0.50775
 O1134 O 0.48455 0.02826 0.48869
 Zr1135 Zr 0.52848 -0.01158 0.48721
 O1136 O 0.50988 -0.02572 0.50699
 Zr1137 Zr 0.49091 0.01026 0.46448
 O1138 O 0.47030 -0.00316 0.48264
 Zr1139 Zr 0.51196 0.03192 0.50210
 O1140 O 0.49191 0.02014 0.52220
 O1141 O 0.47633 -0.01256 0.51789
 O1142 O 0.51800 0.01532 0.47723
 C1143 C 0.43837 -0.02125 0.50244
 C1144 C 0.48953 -0.04979 0.53329
 C1145 C 0.46565 0.00879 0.55279
 C1146 C 0.55616 0.02277 0.49125
 C1147 C 0.52935 -0.00282 0.44269
 C1148 C 0.50686 0.05192 0.46177
 H1149 H 0.50412 -0.02596 0.46189
 H1150 H 0.47829 0.04079 0.48483
 H1151 H 0.46714 -0.01882 0.52693
 H1152 H 0.53616 0.00697 0.51966
 H1153 H 0.54687 -0.03544 0.51023
 H1154 H 0.53779 -0.02106 0.53895
 H1155 H 0.46254 0.03517 0.45675
 H1156 H 0.44069 0.02092 0.48013
 H1157 H 0.54848 -0.04027 0.47100
 H1158 H 0.48815 -0.06658 0.48585
 H1159 H 0.48932 0.06265 0.50629
 H1160 H 0.46527 0.04751 0.52461
 H1161 H 0.46158 -0.03185 0.46205
 H1162 H 0.48215 -0.01650 0.43949
 H1163 H 0.51116 0.02129 0.55379
 H1164 H 0.53465 0.03728 0.53192
 O1165 O -0.03209 0.46427 1.00270
 O1166 O -0.01995 0.45641 0.97196
 O1167 O 0.01803 0.45878 1.04020
 O1168 O 0.04816 0.47107 1.04183
 O1169 O -0.02071 0.50884 1.04433
 O1170 O -0.02411 0.53806 1.02548
 O1171 O 0.06827 0.50029 0.98144
 O1172 O 0.06783 0.47014 0.99517
 O1173 O 0.02055 0.50374 0.94217
 O1174 O -0.01470 0.49667 0.94498
 O1175 O 0.02699 0.54974 0.98141
 O1176 O 0.02195 0.55478 1.01575
 O1177 O 0.05867 0.53030 0.99273
 O1178 O 0.04527 0.53974 1.02596
 O1179 O 0.00922 0.53630 0.95711
 O1180 O -0.02373 0.52185 0.95721
 O1181 O 0.04831 0.48867 0.95383
 O1182 O 0.04697 0.45670 0.97092
 O1183 O -0.04154 0.49388 1.01515
 O1184 O -0.04073 0.52638 1.00296
 O1185 O 0.00703 0.49331 1.05548
 O1186 O 0.04180 0.50059 1.05092
 O1187 O -0.00026 0.44571 1.01601
 O1188 O 0.00904 0.44177 0.98128
 Zr1189 Zr -0.00256 0.46753 0.99474
 O1190 O 0.01423 0.48057 0.97291
 Zr1191 Zr 0.02373 0.48687 1.03029
 O1192 O 0.04183 0.50039 1.00993
 Zr1193 Zr -0.01613 0.51041 1.01390
 O1194 O 0.00028 0.52522 0.99297
 Zr1195 Zr 0.04259 0.48469 0.98361
 O1196 O 0.02649 0.46973 1.00483
 Zr1197 Zr 0.00285 0.50857 0.96721
 O1198 O -0.01544 0.49472 0.98744
 Zr1199 Zr 0.02941 0.52769 1.00256
 O1200 O 0.01224 0.51503 1.02472
 O1201 O -0.00481 0.48302 1.02085
 O1202 O 0.03161 0.51236 0.97638
 C1203 C -0.04495 0.47636 1.01005
 C1204 C 0.00851 0.44487 1.03257
 C1205 C -0.00983 0.50184 1.05810
 C1206 C 0.07150 0.51807 0.98551
 C1207 C 0.03797 0.49618 0.94002
 C1208 C 0.01835 0.55038 0.96476
 H1209 H 0.01465 0.47233 0.96104
 H1210 H -0.00625 0.53803 0.99070
 H1211 H -0.01293 0.47646 1.03064
 H1212 H 0.05516 0.50133 1.01547
 H1213 H 0.06311 0.45901 1.00271
 H1214 H 0.05931 0.47287 1.03283
 H1215 H -0.02609 0.53394 0.96483
 H1216 H -0.04427 0.52013 0.99048
 H1217 H 0.05945 0.45660 0.96340
 H1218 H 0.00071 0.43080 0.98487
 H1219 H 0.00816 0.55811 1.01225
 H1220 H -0.01288 0.54217 1.03347
 H1221 H -0.02753 0.46756 0.96642
 H1222 H -0.00918 0.48359 0.94174
 H1223 H 0.03625 0.51393 1.05281
 H1224 H 0.05659 0.53084 1.02884
 O1225 O -0.03994 0.54157 0.48814
 O1226 O -0.02842 0.54593 0.51932
 O1227 O 0.01294 0.53506 0.45336
 O1228 O 0.03885 0.51475 0.45073
 O1229 O -0.03506 0.49558 0.44619
 O1230 O -0.04465 0.46781 0.46404
 O1231 O 0.05046 0.48191 0.51297
 O1232 O 0.05642 0.51117 0.49961
 O1233 O 0.00098 0.49017 0.54983
 O1234 O -0.03226 0.50421 0.54549
 O1235 O 0.00293 0.44349 0.51003
 O1236 O -0.00191 0.43920 0.47657
 O1237 O 0.03708 0.45520 0.49940
 O1238 O 0.02268 0.45033 0.46505
 O1239 O -0.01354 0.46022 0.53400
 O1240 O -0.04417 0.48142 0.53237
 O1241 O 0.03120 0.49924 0.53994
 O1242 O 0.03690 0.53001 0.52233
 O1243 O -0.05424 0.51495 0.47533
 O1244 O -0.05941 0.48242 0.48671
 O1245 O -0.00495 0.50516 0.43645
 O1246 O 0.02760 0.48801 0.44220
 O1247 O -0.00464 0.55204 0.47646
 O1248 O 0.00298 0.55320 0.51174
 Zr1249 Zr -0.01218 0.53101 0.49712
 O1250 O 0.00068 0.51390 0.51927
 Zr1251 Zr 0.01171 0.50609 0.46222
 O1252 O 0.02626 0.48858 0.48301
 Zr1253 Zr -0.03224 0.49257 0.47670
 O1254 O -0.01955 0.47371 0.49769
 Zr1255 Zr 0.02834 0.50342 0.50971
 O1256 O 0.01631 0.52197 0.48807
 Zr1257 Zr -0.01550 0.48898 0.52391
 O1258 O -0.02993 0.50737 0.50346
 Zr1259 Zr 0.00907 0.46469 0.48918
 O1260 O -0.00481 0.48128 0.46679
 O1261 O -0.01595 0.51673 0.47067
 O1262 O 0.01254 0.47878 0.51584
 C1263 C -0.05453 0.53293 0.48058
 C1264 C 0.00567 0.55089 0.46072
 C1265 C -0.02273 0.50058 0.43303
 C1266 C 0.05116 0.46396 0.50785
 C1267 C 0.01887 0.49449 0.55315
 C1268 C -0.00592 0.44455 0.52660
 H1269 H 0.00177 0.52183 0.53127
 H1270 H -0.02805 0.46252 0.49948
 H1271 H -0.02218 0.52539 0.46083
 H1272 H 0.03942 0.48464 0.47792
 H1273 H 0.05437 0.52306 0.49174
 H1274 H 0.04875 0.51246 0.46105
 H1275 H -0.04764 0.46973 0.52487
 H1276 H -0.06231 0.48924 0.49919
 H1277 H 0.04870 0.52732 0.53047
 H1278 H -0.00284 0.56601 0.50791
 H1279 H -0.01640 0.44025 0.47755
 H1280 H -0.03394 0.46092 0.45671
 H1281 H -0.03815 0.53683 0.52430
 H1282 H -0.02535 0.51619 0.54873
 H1283 H 0.01889 0.47742 0.43844
 H1284 H 0.03601 0.45542 0.46354
 O1285 O 0.49586 0.99091 0.05674
 O1286 O 0.46515 1.00648 0.05470
 O1287 O 0.49356 0.94539 0.01370
 O1288 O 0.48755 0.94289 -0.01813
 O1289 O 0.54390 0.98173 0.01557
 O1290 O 0.54972 1.01384 0.00542
 O1291 O 0.45478 1.00305 -0.04431
 O1292 O 0.44710 0.97409 -0.02984
 O1293 O 0.45398 1.04564 -0.00111
 O1294 O 0.46948 1.04951 0.03063
 O1295 O 0.50262 1.03940 -0.03924
 O1296 O 0.53139 1.01733 -0.04120
 O1297 O 0.48491 1.01179 -0.05502
 O1298 O 0.51806 0.99476 -0.05323
 O1299 O 0.48757 1.05584 -0.01419
 O1300 O 0.49624 1.05661 0.02147
 O1301 O 0.43865 1.02059 -0.01562
 O1302 O 0.43344 0.98871 -0.00057
 O1303 O 0.52575 1.00031 0.04592
 O1304 O 0.53572 1.02854 0.02843
 O1305 O 0.52874 0.95646 0.00123
 O1306 O 0.51312 0.95492 -0.03136
 O1307 O 0.47974 0.96139 0.03972
 O1308 O 0.44953 0.98291 0.03782
 Zr1309 Zr 0.47868 0.99081 0.03131
 O1310 O 0.46411 1.01071 0.01263
 Zr1311 Zr 0.50046 0.96755 -0.00582
 O1312 O 0.48620 0.98601 -0.02606
 Zr1313 Zr 0.52234 1.00438 0.01562
 O1314 O 0.50958 1.02443 -0.00408
 Zr1315 Zr 0.45958 0.99739 -0.01453
 O1316 O 0.47253 0.97668 0.00475
 Zr1317 Zr 0.48196 1.03416 0.00652
 O1318 O 0.49563 1.01551 0.02725
 Zr1319 Zr 0.50334 1.01032 -0.03048
 O1320 O 0.51865 0.99088 -0.01169
 O1321 O 0.50581 0.98029 0.02106
 O1322 O 0.47630 1.02146 -0.02040
 C1323 C 0.51384 0.99531 0.05949
 C1324 C 0.48583 0.94584 0.03084
 C1325 C 0.54369 0.96421 0.00909
 C1326 C 0.46664 1.00857 -0.05768
 C1327 C 0.43907 1.03817 -0.00933
 C1328 C 0.49580 1.05501 -0.03110
 H1329 H 0.45148 1.01495 0.01874
 H1330 H 0.51855 1.03522 -0.00599
 H1331 H 0.51249 0.97124 0.03025
 H1332 H 0.48391 0.97885 -0.03833
 H1333 H 0.44783 0.96278 -0.02101
 H1334 H 0.47721 0.94771 -0.02715
 H1335 H 0.50894 1.05862 0.01485
 H1336 H 0.52548 1.03534 0.03646
 H1337 H 0.42235 0.99085 -0.00976
 H1338 H 0.44955 0.97600 0.05048
 H1339 H 0.53679 1.02716 -0.03232
 H1340 H 0.55164 1.00813 -0.00776
 H1341 H 0.47177 1.01900 0.05562
 H1342 H 0.45777 1.04255 0.03489
 H1343 H 0.52513 0.96208 -0.03425
 H1344 H 0.50932 0.98457 -0.05791
 O1345 O 0.49764 0.50091 0.05393
 O1346 O 0.52810 0.48547 0.05597
 O1347 O 0.50776 0.54912 0.01544
 O1348 O 0.51746 0.55386 -0.01492
 O1349 O 0.45750 0.51241 0.00598
 O1350 O 0.45408 0.48107 -0.00741
 O1351 O 0.55601 0.49647 -0.03935
 O1352 O 0.56051 0.52398 -0.02080
 O1353 O 0.55004 0.45028 -0.00086
 O1354 O 0.52971 0.44418 0.02754
 O1355 O 0.50876 0.45879 -0.04571
 O1356 O 0.48069 0.48055 -0.05098
 O1357 O 0.52860 0.48808 -0.05593
 O1358 O 0.49496 0.50436 -0.05817
 O1359 O 0.51905 0.44087 -0.01972
 O1360 O 0.50472 0.43786 0.01391
 O1361 O 0.56692 0.47632 -0.01087
 O1362 O 0.56923 0.50669 0.00844
 O1363 O 0.47022 0.49255 0.03728
 O1364 O 0.46441 0.46491 0.01626
 O1365 O 0.47442 0.53878 -0.00302
 O1366 O 0.49525 0.54240 -0.03261
 O1367 O 0.51712 0.53159 0.04206
 O1368 O 0.54667 0.50950 0.04408
 Zr1369 Zr 0.51911 0.50265 0.03188
 O1370 O 0.53710 0.48419 0.01427
 Zr1371 Zr 0.50364 0.52825 -0.00644
 O1372 O 0.52160 0.51135 -0.02544
 Zr1373 Zr 0.47915 0.49005 0.00787
 O1374 O 0.49552 0.47149 -0.01107
 Zr1375 Zr 0.54594 0.49940 -0.01048
 O1376 O 0.52943 0.51857 0.00798
 Zr1377 Zr 0.52101 0.46117 0.00323
 O1378 O 0.50358 0.47825 0.02288
 Zr1379 Zr 0.50605 0.48728 -0.03483
 O1380 O 0.48725 0.50527 -0.01727
 O1381 O 0.49402 0.51383 0.01810
 O1382 O 0.53106 0.47566 -0.02121
 C1383 C 0.47943 0.49656 0.05308
 C1384 C 0.51306 0.54769 0.03336
 C1385 C 0.45848 0.53037 0.00134
 C1386 C 0.54693 0.49197 -0.05505
 C1387 C 0.56583 0.45835 -0.00634
 C1388 C 0.51391 0.44268 -0.03766
 H1389 H 0.54860 0.47953 0.02194
 H1390 H 0.48718 0.46082 -0.01534
 H1391 H 0.48587 0.52239 0.02677
 H1392 H 0.52584 0.51944 -0.03643
 H1393 H 0.55805 0.53444 -0.01105
 H1394 H 0.53003 0.54975 -0.02120
 H1395 H 0.49323 0.43637 0.00530
 H1396 H 0.47297 0.45807 0.02584
 H1397 H 0.58175 0.50518 0.00106
 H1398 H 0.54441 0.51570 0.05704
 H1399 H 0.47362 0.47066 -0.04361
 H1400 H 0.45443 0.48745 -0.02031
 H1401 H 0.52192 0.47278 0.05440
 H1402 H 0.54021 0.45102 0.03439
 H1403 H 0.48384 0.53555 -0.03784
 H1404 H 0.50417 0.51490 -0.06045
 O1405 O -0.05375 0.00916 0.51211
 O1406 O -0.05894 -0.02112 0.49991
 O1407 O -0.00376 -0.00040 0.55060
 O1408 O 0.02755 -0.01050 0.54811
 O1409 O -0.00507 0.04805 0.50965
 O1410 O 0.00047 0.05032 0.47577
 O1411 O 0.03759 -0.05059 0.48898
 O1412 O 0.02623 -0.05403 0.52026
 O1413 O -0.01168 -0.04477 0.45262
 O1414 O -0.04163 -0.02420 0.45281
 O1415 O 0.03318 -0.00531 0.44742
 O1416 O 0.04355 0.02250 0.46532
 O1417 O 0.05144 -0.02429 0.47531
 O1418 O 0.05654 0.00953 0.48807
 O1419 O 0.00335 -0.01501 0.43712
 O1420 O -0.03043 -0.00013 0.44179
 O1421 O 0.00512 -0.06103 0.47642
 O1422 O -0.00639 -0.06221 0.51092
 O1423 O -0.04024 0.03563 0.49836
 O1424 O -0.02638 0.04030 0.46611
 O1425 O 0.01045 0.03180 0.53427
 O1426 O 0.04112 0.01096 0.53143
 O1427 O -0.03393 -0.00953 0.54060
 O1428 O -0.04076 -0.03910 0.52126
 Zr1429 Zr -0.03121 -0.01238 0.51002
 O1430 O -0.01835 -0.03098 0.48872
 Zr1431 Zr 0.01226 0.00271 0.52462
 O1432 O 0.02693 -0.01594 0.50451
 Zr1433 Zr -0.01178 0.02617 0.48951
 O1434 O 0.00240 0.00907 0.46774
 Zr1435 Zr 0.00985 -0.03988 0.49797
 O1436 O -0.00363 -0.02265 0.52026
 Zr1437 Zr -0.01369 -0.01590 0.46272
 O1438 O -0.02890 0.00217 0.48318
 Zr1439 Zr 0.02986 -0.00158 0.47778
 O1440 O 0.01681 0.01790 0.49856
 O1441 O -0.01558 0.01235 0.51604
 O1442 O 0.01410 -0.02614 0.47133
 C1443 C -0.05453 0.02689 0.50639
 C1444 C -0.02147 -0.00533 0.55392
 C1445 C 0.00362 0.04741 0.52625
 C1446 C 0.05186 -0.04218 0.48063
 C1447 C -0.00375 -0.06024 0.45991
 C1448 C 0.02119 -0.01042 0.43403
 H1449 H -0.02674 -0.04224 0.48671
 H1450 H 0.00369 0.01692 0.45582
 H1451 H -0.02222 0.02075 0.52599
 H1452 H 0.03978 -0.02017 0.51001
 H1453 H 0.01931 -0.05099 0.53269
 H1454 H 0.03266 -0.02324 0.54332
 H1455 H -0.02267 0.01096 0.43755
 H1456 H -0.03736 0.03204 0.46231
 H1457 H 0.00065 -0.07477 0.50820
 H1458 H -0.05184 -0.03646 0.53045
 H1459 H 0.03346 0.02987 0.45779
 H1460 H 0.01467 0.04976 0.47888
 H1461 H -0.06056 -0.01585 0.48659
 H1462 H -0.04608 -0.03468 0.46137
 H1463 H 0.04406 0.02209 0.52298
 H1464 H 0.06149 0.00094 0.49861
 O1465 O 0.68883 0.23635 0.26271
 O1466 O 0.68949 0.24539 0.23042
 O1467 O 0.74154 0.20088 0.26985
 O1468 O 0.77383 0.20387 0.26630
 O1469 O 0.72652 0.24649 0.31170
 O1470 O 0.72951 0.28034 0.31189
 O1471 O 0.78836 0.25843 0.22313
 O1472 O 0.78024 0.22664 0.22027
 O1473 O 0.73720 0.29248 0.21379
 O1474 O 0.70361 0.29264 0.22624
 O1475 O 0.77165 0.30417 0.26121
 O1476 O 0.77664 0.29080 0.29314
 O1477 O 0.79512 0.27555 0.25066
 O1478 O 0.79326 0.26708 0.28658
 O1479 O 0.74357 0.31175 0.24466
 O1480 O 0.70792 0.30644 0.25162
 O1481 O 0.75822 0.26800 0.20383
 O1482 O 0.74973 0.23308 0.20375
 O1483 O 0.69463 0.25479 0.28966
 O1484 O 0.70533 0.28771 0.29468
 O1485 O 0.74800 0.22206 0.30265
 O1486 O 0.78162 0.22352 0.28844
 O1487 O 0.71386 0.20802 0.25244
 O1488 O 0.71255 0.22309 0.21961
 Zr1489 Zr 0.71504 0.23793 0.24667
 O1490 O 0.72993 0.25771 0.22919
 Zr1491 Zr 0.75480 0.22780 0.27324
 O1492 O 0.77158 0.24642 0.25617
 Zr1493 Zr 0.72385 0.26370 0.28666
 O1494 O 0.73985 0.28411 0.27102
 Zr1495 Zr 0.75977 0.24924 0.22800
 O1496 O 0.74465 0.22831 0.24418
 Zr1497 Zr 0.72928 0.28530 0.24233
 O1498 O 0.71205 0.26619 0.25851
 Zr1499 Zr 0.76943 0.27458 0.26801
 O1500 O 0.75397 0.25553 0.28628
 O1501 O 0.72518 0.23575 0.27521
 O1502 O 0.75897 0.27727 0.23965
 C1503 C 0.68352 0.24444 0.27890
 C1504 C 0.72565 0.19608 0.26129
 C1505 C 0.73694 0.23107 0.31523
 C1506 C 0.79980 0.26839 0.23383
 C1507 C 0.74857 0.28411 0.20114
 C1508 C 0.76003 0.31618 0.25225
 H1509 H 0.72411 0.25800 0.21599
 H1510 H 0.73857 0.29684 0.27767
 H1511 H 0.71765 0.22653 0.28306
 H1512 H 0.78531 0.24125 0.25565
 H1513 H 0.77377 0.21429 0.22296
 H1514 H 0.78108 0.20742 0.25441
 H1515 H 0.71281 0.31260 0.26365
 H1516 H 0.69607 0.28994 0.28375
 H1517 H 0.75900 0.23484 0.19277
 H1518 H 0.70180 0.21379 0.22060
 H1519 H 0.76463 0.29819 0.29732
 H1520 H 0.74367 0.27825 0.31476
 H1521 H 0.68569 0.25893 0.23398
 H1522 H 0.70215 0.28265 0.21598
 H1523 H 0.78170 0.23333 0.29905
 H1524 H 0.80096 0.25631 0.28030
 O1525 O 0.73540 0.70335 0.71196
 O1526 O 0.76672 0.69916 0.72322
 O1527 O 0.70007 0.69294 0.76365
 O1528 O 0.69538 0.70599 0.79309
 O1529 O 0.68643 0.74245 0.72635
 O1530 O 0.70028 0.77325 0.72286
 O1531 O 0.75301 0.74316 0.81234
 O1532 O 0.74349 0.71150 0.81183
 O1533 O 0.78911 0.75150 0.76425
 O1534 O 0.78698 0.74373 0.72910
 O1535 O 0.74284 0.79116 0.77396
 O1536 O 0.70805 0.79175 0.76990
 O1537 O 0.73524 0.77062 0.80457
 O1538 O 0.70024 0.77489 0.79212
 O1539 O 0.76893 0.78124 0.75521
 O1540 O 0.77008 0.76694 0.72143
 O1541 O 0.78172 0.73354 0.79083
 O1542 O 0.76878 0.70023 0.78957
 O1543 O 0.71773 0.73089 0.70415
 O1544 O 0.72449 0.76481 0.70603
 O1545 O 0.67846 0.72485 0.75298
 O1546 O 0.68258 0.73376 0.78805
 O1547 O 0.72521 0.68296 0.74362
 O1548 O 0.76069 0.68416 0.75189
 Zr1549 Zr 0.74270 0.70761 0.74144
 O1550 O 0.76257 0.72385 0.75787
 Zr1551 Zr 0.70478 0.72239 0.76908
 O1552 O 0.72325 0.73849 0.78713
 Zr1553 Zr 0.71649 0.74757 0.72999
 O1554 O 0.73488 0.76536 0.74639
 Zr1555 Zr 0.75210 0.72663 0.78659
 O1556 O 0.73299 0.70886 0.77067
 Zr1557 Zr 0.76324 0.75241 0.74757
 O1558 O 0.74528 0.73554 0.72951
 Zr1559 Zr 0.72555 0.76649 0.77566
 O1560 O 0.70542 0.75094 0.75854
 O1561 O 0.71418 0.71948 0.74032
 O1562 O 0.75419 0.75498 0.77653
 C1563 C 0.72609 0.71443 0.69979
 C1564 C 0.70951 0.67996 0.75350
 C1565 C 0.67409 0.73353 0.73696
 C1566 C 0.74550 0.76004 0.81646
 C1567 C 0.79354 0.74348 0.78057
 C1568 C 0.75927 0.79404 0.76540
 H1569 H 0.77574 0.71732 0.75755
 H1570 H 0.73486 0.77838 0.74045
 H1571 H 0.70544 0.71154 0.73226
 H1572 H 0.71794 0.73872 0.80058
 H1573 H 0.73757 0.69939 0.80723
 H1574 H 0.70530 0.70747 0.80344
 H1575 H 0.76095 0.77836 0.72029
 H1576 H 0.73781 0.76018 0.70195
 H1577 H 0.77655 0.70103 0.80175
 H1578 H 0.75860 0.67254 0.74364
 H1579 H 0.71049 0.79538 0.75619
 H1580 H 0.69248 0.77697 0.73460
 H1581 H 0.77110 0.71109 0.71681
 H1582 H 0.79274 0.73139 0.73413
 H1583 H 0.67760 0.74612 0.78232
 H1584 H 0.69947 0.76610 0.80343
 O1585 O 0.27622 0.21877 0.76597
 O1586 O 0.28030 0.22948 0.73462
 O1587 O 0.28230 0.27106 0.80063
 O1588 O 0.26746 0.30037 0.80296
 O1589 O 0.23487 0.23280 0.81218
 O1590 O 0.20418 0.22769 0.79700
 O1591 O 0.22950 0.31665 0.74451
 O1592 O 0.26119 0.31749 0.75494
 O1593 O 0.22595 0.26668 0.70860
 O1594 O 0.23522 0.23243 0.71235
 O1595 O 0.18358 0.27681 0.75223
 O1596 O 0.18255 0.27299 0.78725
 O1597 O 0.20161 0.30772 0.76005
 O1598 O 0.19746 0.29648 0.79492
 O1599 O 0.19519 0.25730 0.72765
 O1600 O 0.21211 0.22445 0.72807
 O1601 O 0.24115 0.29449 0.71652
 O1602 O 0.27457 0.29524 0.73111
 O1603 O 0.24876 0.21039 0.78260
 O1604 O 0.21450 0.21050 0.77377
 O1605 O 0.25053 0.26028 0.82033
 O1606 O 0.23922 0.29445 0.81504
 O1607 O 0.29426 0.25117 0.77643
 O1608 O 0.29339 0.25862 0.74096
 Zr1609 Zr 0.26999 0.24769 0.75773
 O1610 O 0.25285 0.26282 0.73686
 Zr1611 Zr 0.25242 0.27558 0.79392
 O1612 O 0.23519 0.29230 0.77438
 Zr1613 Zr 0.22995 0.23532 0.78201
 O1614 O 0.21121 0.25033 0.76241
 Zr1615 Zr 0.24778 0.29154 0.74639
 O1616 O 0.26653 0.27695 0.76658
 Zr1617 Zr 0.22480 0.25125 0.73491
 O1618 O 0.24273 0.23452 0.75405
 Zr1619 Zr 0.20782 0.27961 0.77086
 O1620 O 0.22435 0.26386 0.79207
 O1621 O 0.25748 0.24689 0.78542
 O1622 O 0.21996 0.28020 0.74297
 C1623 C 0.26585 0.20653 0.77520
 C1624 C 0.29624 0.26115 0.79218
 C1625 C 0.24298 0.24402 0.82459
 C1626 C 0.21180 0.31993 0.75061
 C1627 C 0.23295 0.28314 0.70427
 C1628 C 0.18147 0.26746 0.73617
 H1629 H 0.25981 0.26239 0.72417
 H1630 H 0.19848 0.24388 0.76190
 H1631 H 0.26585 0.23942 0.79471
 H1632 H 0.23384 0.30578 0.77933
 H1633 H 0.27348 0.31358 0.76179
 H1634 H 0.26430 0.31069 0.79342
 H1635 H 0.20060 0.22299 0.73671
 H1636 H 0.21993 0.20618 0.76100
 H1637 H 0.27300 0.30699 0.72291
 H1638 H 0.30563 0.25095 0.74386
 H1639 H 0.17939 0.25942 0.78421
 H1640 H 0.19940 0.23948 0.80411
 H1641 H 0.26903 0.22182 0.73038
 H1642 H 0.24799 0.23717 0.70780
 H1643 H 0.22683 0.28856 0.81916
 H1644 H 0.20562 0.30803 0.79595
 O1645 O 0.22238 0.75831 0.27527
 O1646 O 0.23286 0.72627 0.27656
 O1647 O 0.27689 0.78878 0.28111
 O1648 O 0.30507 0.79096 0.26508
 O1649 O 0.23432 0.80572 0.23701
 O1650 O 0.22646 0.79285 0.20573
 O1651 O 0.31719 0.73391 0.22267
 O1652 O 0.32097 0.74246 0.25470
 O1653 O 0.26569 0.70153 0.21965
 O1654 O 0.23177 0.70690 0.23032
 O1655 O 0.27339 0.74745 0.18008
 O1656 O 0.27037 0.78227 0.18178
 O1657 O 0.30623 0.75184 0.19684
 O1658 O 0.29549 0.78739 0.19584
 O1659 O 0.25477 0.72290 0.19073
 O1660 O 0.22247 0.72431 0.20874
 O1661 O 0.29525 0.70697 0.23364
 O1662 O 0.29897 0.71932 0.26753
 O1663 O 0.21209 0.77689 0.24963
 O1664 O 0.20925 0.77043 0.21535
 O1665 O 0.26374 0.81133 0.25122
 O1666 O 0.29744 0.80446 0.23836
 O1667 O 0.25660 0.76565 0.29209
 O1668 O 0.26354 0.73012 0.28858
 Zr1669 Zr 0.25096 0.74876 0.26708
 O1670 O 0.26452 0.72824 0.24802
 Zr1671 Zr 0.27867 0.78406 0.25089
 O1672 O 0.29383 0.76481 0.23176
 Zr1673 Zr 0.23584 0.77602 0.22986
 O1674 O 0.24914 0.75691 0.20931
 Zr1675 Zr 0.29341 0.73631 0.24228
 O1676 O 0.28053 0.75599 0.26287
 Zr1677 Zr 0.25062 0.72870 0.22072
 O1678 O 0.23544 0.74754 0.24055
 Zr1679 Zr 0.27865 0.76391 0.20520
 O1680 O 0.26447 0.78477 0.22369
 O1681 O 0.24981 0.77705 0.25671
 O1682 O 0.27968 0.73541 0.21513
 C1683 C 0.20938 0.76882 0.26623
 C1684 C 0.26753 0.78028 0.29470
 C1685 C 0.24672 0.81692 0.24498
 C1686 C 0.31916 0.74098 0.20549
 C1687 C 0.28286 0.69590 0.22545
 C1688 C 0.26391 0.73195 0.17733
 H1689 H 0.26435 0.71527 0.25409
 H1690 H 0.24162 0.75760 0.19701
 H1691 H 0.24314 0.78620 0.26596
 H1692 H 0.30749 0.76897 0.23011
 H1693 H 0.31819 0.74856 0.26757
 H1694 H 0.31491 0.78068 0.26149
 H1695 H 0.22046 0.73356 0.19789
 H1696 H 0.20527 0.75747 0.21967
 H1697 H 0.31061 0.71065 0.26488
 H1698 H 0.25673 0.73267 0.30121
 H1699 H 0.25628 0.78038 0.17918
 H1700 H 0.23805 0.79987 0.20120
 H1701 H 0.22397 0.72337 0.26559
 H1702 H 0.23728 0.70147 0.24254
 H1703 H 0.29063 0.80980 0.22673
 H1704 H 0.30799 0.78698 0.20318
 O1705 O 0.28063 0.76880 0.71476
 O1706 O 0.26925 0.73782 0.71280
 O1707 O 0.22714 0.80469 0.71006
 O1708 O 0.19851 0.80798 0.72584
 O1709 O 0.26973 0.81718 0.75386
 O1710 O 0.27741 0.80346 0.78497
 O1711 O 0.18583 0.75210 0.76806
 O1712 O 0.18174 0.76165 0.73619
 O1713 O 0.23662 0.71556 0.76952
 O1714 O 0.27053 0.71809 0.75847
 O1715 O 0.23007 0.76153 0.81013
 O1716 O 0.23410 0.79629 0.80903
 O1717 O 0.19725 0.76937 0.79382
 O1718 O 0.20875 0.80359 0.79571
 O1719 O 0.24863 0.73584 0.79874
 O1720 O 0.28042 0.73434 0.78023
 O1721 O 0.20706 0.72356 0.75586
 O1722 O 0.20309 0.73668 0.72244
 O1723 O 0.29135 0.78626 0.74074
 O1724 O 0.29430 0.77980 0.77482
 O1725 O 0.24013 0.82538 0.74037
 O1726 O 0.20656 0.82137 0.75298
 O1727 O 0.24630 0.77952 0.69833
 O1728 O 0.23864 0.74463 0.70112
 Zr1729 Zr 0.25180 0.76188 0.72291
 O1730 O 0.23800 0.74240 0.74169
 Zr1731 Zr 0.22487 0.79936 0.74008
 O1732 O 0.20958 0.78130 0.75907
 Zr1733 Zr 0.26770 0.78756 0.76057
 O1734 O 0.25433 0.76934 0.78083
 Zr1735 Zr 0.20932 0.75287 0.74800
 O1736 O 0.22240 0.77156 0.72761
 Zr1737 Zr 0.25222 0.74140 0.76880
 O1738 O 0.26751 0.75915 0.74928
 Zr1739 Zr 0.22502 0.77884 0.78545
 O1740 O 0.23927 0.79866 0.76718
 O1741 O 0.25356 0.78995 0.73388
 O1742 O 0.22337 0.75053 0.77494
 C1743 C 0.29390 0.77799 0.72403
 C1744 C 0.23610 0.79541 0.69619
 C1745 C 0.25734 0.82950 0.74638
 C1746 C 0.18412 0.75943 0.78532
 C1747 C 0.21934 0.71140 0.76371
 C1748 C 0.23965 0.74538 0.81245
 H1749 H 0.23786 0.72949 0.73535
 H1750 H 0.26201 0.76926 0.79304
 H1751 H 0.26041 0.79858 0.72481
 H1752 H 0.19603 0.78662 0.76101
 H1753 H 0.18445 0.76758 0.72338
 H1754 H 0.18824 0.79931 0.73047
 H1755 H 0.28290 0.74343 0.79109
 H1756 H 0.29799 0.76646 0.77043
 H1757 H 0.19124 0.72912 0.72502
 H1758 H 0.24541 0.74669 0.68849
 H1759 H 0.24803 0.79276 0.81174
 H1760 H 0.26594 0.81142 0.78966
 H1761 H 0.27814 0.73401 0.72362
 H1762 H 0.26464 0.71309 0.74634
 H1763 H 0.21331 0.82576 0.76492
 H1764 H 0.19644 0.80473 0.78812
 O1765 O 0.23614 0.22689 0.20981
 O1766 O 0.26825 0.22243 0.21931
 O1767 O 0.20352 0.21743 0.26300
 O1768 O 0.20044 0.23059 0.29261
 O1769 O 0.18899 0.26649 0.22596
 O1770 O 0.20282 0.29740 0.22206
 O1771 O 0.26003 0.26639 0.30871
 O1772 O 0.24983 0.23506 0.30885
 O1773 O 0.29396 0.27345 0.25841
 O1774 O 0.28959 0.26710 0.22390
 O1775 O 0.24894 0.31435 0.27183
 O1776 O 0.21475 0.31658 0.26907
 O1777 O 0.24130 0.29366 0.30256
 O1778 O 0.20587 0.29886 0.29044
 O1779 O 0.27324 0.30463 0.25076
 O1780 O 0.27238 0.29011 0.21704
 O1781 O 0.28710 0.25640 0.28573
 O1782 O 0.27362 0.22334 0.28527
 O1783 O 0.21906 0.25488 0.20242
 O1784 O 0.22634 0.28897 0.20418
 O1785 O 0.18210 0.24933 0.25321
 O1786 O 0.18799 0.25852 0.28806
 O1787 O 0.22734 0.20700 0.24165
 O1788 O 0.26328 0.20746 0.24829
 Zr1789 Zr 0.24528 0.23126 0.23866
 O1790 O 0.26622 0.24716 0.25394
 Zr1791 Zr 0.20906 0.24671 0.26810
 O1792 O 0.22870 0.26234 0.28525
 Zr1793 Zr 0.21922 0.27162 0.22835
 O1794 O 0.23867 0.28905 0.24396
 Zr1795 Zr 0.25726 0.25002 0.28312
 O1796 O 0.23704 0.23261 0.26831
 Zr1797 Zr 0.26690 0.27574 0.24362
 O1798 O 0.24778 0.25912 0.22650
 Zr1799 Zr 0.23092 0.29028 0.27370
 O1800 O 0.20967 0.27522 0.25745
 O1801 O 0.21699 0.24365 0.23895
 O1802 O 0.25944 0.27836 0.27305
 C1803 C 0.22657 0.23805 0.19794
 C1804 C 0.21203 0.20436 0.25224
 C1805 C 0.17711 0.25762 0.23717
 C1806 C 0.25234 0.28294 0.31365
 C1807 C 0.29890 0.26538 0.27458
 C1808 C 0.26458 0.31731 0.26192
 H1809 H 0.27922 0.24035 0.25291
 H1810 H 0.23855 0.30212 0.23810
 H1811 H 0.20777 0.23581 0.23134
 H1812 H 0.22402 0.26256 0.29892
 H1813 H 0.24343 0.22306 0.30463
 H1814 H 0.21112 0.23147 0.30227
 H1815 H 0.26344 0.30171 0.21643
 H1816 H 0.23918 0.28389 0.19917
 H1817 H 0.28209 0.22400 0.29698
 H1818 H 0.26056 0.19592 0.24014
 H1819 H 0.21487 0.31901 0.25487
 H1820 H 0.19552 0.30105 0.23412
 H1821 H 0.27189 0.23410 0.21199
 H1822 H 0.29431 0.25390 0.22757
 H1823 H 0.18245 0.27060 0.28221
 H1824 H 0.20553 0.29043 0.30206
 O1825 O 0.79419 0.71042 0.26010
 O1826 O 0.79672 0.71887 0.22806
 O1827 O 0.80697 0.76473 0.29006
 O1828 O 0.79340 0.79401 0.29410
 O1829 O 0.75681 0.72989 0.30786
 O1830 O 0.72508 0.72619 0.29493
 O1831 O 0.75349 0.80999 0.23558
 O1832 O 0.78602 0.80906 0.24444
 O1833 O 0.74312 0.75972 0.20366
 O1834 O 0.75041 0.72504 0.20825
 O1835 O 0.70546 0.77535 0.24902
 O1836 O 0.70585 0.77316 0.28364
 O1837 O 0.72703 0.80499 0.25510
 O1838 O 0.72401 0.79449 0.29047
 O1839 O 0.71367 0.75350 0.22516
 O1840 O 0.72798 0.71946 0.22619
 O1841 O 0.76183 0.78598 0.20864
 O1842 O 0.79618 0.78463 0.22109
 O1843 O 0.76728 0.70508 0.27893
 O1844 O 0.73247 0.70751 0.27194
 O1845 O 0.77582 0.75577 0.31347
 O1846 O 0.76615 0.79066 0.30703
 O1847 O 0.81547 0.74207 0.26701
 O1848 O 0.81245 0.74709 0.23131
 Zr1849 Zr 0.78956 0.73917 0.25050
 O1850 O 0.77222 0.75458 0.22995
 Zr1851 Zr 0.77669 0.76994 0.28625
 O1852 O 0.75965 0.78707 0.26692
 Zr1853 Zr 0.75037 0.73125 0.27798
 O1854 O 0.73150 0.74687 0.25898
 Zr1855 Zr 0.77014 0.78392 0.23817
 O1856 O 0.78895 0.76891 0.25795
 Zr1857 Zr 0.74318 0.74538 0.23062
 O1858 O 0.76108 0.72816 0.24934
 Zr1859 Zr 0.73107 0.77661 0.26605
 O1860 O 0.74766 0.76047 0.28691
 O1861 O 0.77903 0.74067 0.27903
 O1862 O 0.74123 0.77486 0.23740
 C1863 C 0.78355 0.69954 0.27071
 C1864 C 0.81953 0.75345 0.28126
 C1865 C 0.76682 0.74071 0.31912
 C1866 C 0.73716 0.81551 0.24365
 C1867 C 0.75125 0.77518 0.19786
 C1868 C 0.70148 0.76537 0.23376
 H1869 H 0.77819 0.75300 0.21684
 H1870 H 0.71823 0.74152 0.25967
 H1871 H 0.78759 0.73315 0.28812
 H1872 H 0.75985 0.80077 0.27124
 H1873 H 0.79852 0.80455 0.25055
 H1874 H 0.79267 0.80303 0.28297
 H1875 H 0.71694 0.71939 0.23561
 H1876 H 0.73696 0.70203 0.25924
 H1877 H 0.79507 0.79606 0.21241
 H1878 H 0.82430 0.73869 0.23383
 H1879 H 0.70203 0.75951 0.28233
 H1880 H 0.72142 0.73864 0.30147
 H1881 H 0.78441 0.71245 0.22466
 H1882 H 0.76308 0.72865 0.20244
 H1883 H 0.75428 0.78536 0.31310
 H1884 H 0.73301 0.80545 0.29043
 O1885 O 0.76688 0.26243 0.80605
 O1886 O 0.79745 0.26455 0.79086
 O1887 O 0.72560 0.27089 0.75939
 O1888 O 0.71805 0.25644 0.73139
 O1889 O 0.71993 0.22234 0.80004
 O1890 O 0.73698 0.19175 0.80318
 O1891 O 0.77439 0.21700 0.70615
 O1892 O 0.76302 0.24866 0.70642
 O1893 O 0.81805 0.21259 0.74981
 O1894 O 0.81912 0.22078 0.78470
 O1895 O 0.77335 0.17143 0.74780
 O1896 O 0.73853 0.17203 0.75789
 O1897 O 0.76015 0.19010 0.71811
 O1898 O 0.72803 0.18619 0.73462
 O1899 O 0.80122 0.18240 0.76160
 O1900 O 0.80573 0.19731 0.79451
 O1901 O 0.80532 0.22785 0.72313
 O1902 O 0.79009 0.26111 0.72435
 O1903 O 0.75201 0.23560 0.81740
 O1904 O 0.76205 0.20193 0.81680
 O1905 O 0.70735 0.23912 0.77419
 O1906 O 0.70735 0.22908 0.73953
 O1907 O 0.75283 0.28088 0.77521
 O1908 O 0.78669 0.27907 0.76287
 Zr1909 Zr 0.77164 0.25618 0.77629
 O1910 O 0.79009 0.23917 0.75782
 Zr1911 Zr 0.73126 0.24089 0.75468
 O1912 O 0.74818 0.22341 0.73517
 Zr1913 Zr 0.74974 0.21729 0.79293
 O1914 O 0.76723 0.19858 0.77514
 Zr1915 Zr 0.77601 0.23495 0.73099
 O1916 O 0.75823 0.25377 0.74869
 Zr1917 Zr 0.79423 0.21129 0.76938
 O1918 O 0.77758 0.22896 0.78909
 Zr1919 Zr 0.75406 0.19603 0.74765
 O1920 O 0.73524 0.21282 0.76633
 O1921 O 0.74420 0.24485 0.78168
 O1922 O 0.78155 0.20721 0.74213
 C1923 C 0.75921 0.25243 0.81973
 C1924 C 0.73590 0.28401 0.76750
 C1925 C 0.70570 0.23085 0.79086
 C1926 C 0.76770 0.19988 0.70426
 C1927 C 0.81955 0.21958 0.73257
 C1928 C 0.79122 0.16912 0.75359
 H1929 H 0.80265 0.24574 0.75606
 H1930 H 0.76897 0.18587 0.78160
 H1931 H 0.73585 0.25328 0.79030
 H1932 H 0.74114 0.22244 0.72263
 H1933 H 0.75683 0.26102 0.71117
 H1934 H 0.72597 0.25331 0.71961
 H1935 H 0.79723 0.18640 0.79763
 H1936 H 0.77558 0.20650 0.81840
 H1937 H 0.79626 0.25962 0.71127
 H1938 H 0.78541 0.29083 0.77125
 H1939 H 0.74501 0.16741 0.76999
 H1940 H 0.72794 0.18749 0.79284
 H1941 H 0.80189 0.25348 0.79906
 H1942 H 0.82270 0.23340 0.77917
 H1943 H 0.70459 0.21659 0.74584
 H1944 H 0.72422 0.19536 0.72414
 C1945 C 0.08986 0.99725 1.16733
 C1946 C 0.07178 1.00553 1.16168
 C1947 C 0.06398 1.00258 1.14187
 N1948 N 0.04568 1.00948 1.13727
 N1949 N 0.03850 1.00691 1.11941
 C1950 C 0.04935 0.99737 1.10545
 N1951 N 0.06766 0.99051 1.11004
 N1952 N 0.07483 0.99304 1.12791
 C1953 C 0.04173 0.99471 1.08554
 C1954 C 0.02278 1.00099 1.08041
 H1955 H 0.06285 1.01389 1.17199
 H1956 H 0.05137 0.98798 1.07466
 H1957 H 0.09787 0.98808 1.15692
 H1958 H 0.01320 1.00758 1.09142
 C1959 C 0.59550 0.48657 0.66669
 C1960 C 0.57866 0.49777 0.66220
 C1961 C 0.57037 0.49768 0.64237
 N1962 N 0.55289 0.50698 0.63862
 N1963 N 0.54525 0.50670 0.62072
 C1964 C 0.55487 0.49713 0.60594
 N1965 N 0.57236 0.48794 0.60969
 N1966 N 0.57995 0.48819 0.62755
 C1967 C 0.54686 0.49649 0.58608
 C1968 C 0.52857 0.50469 0.58108
 H1969 H 0.57098 0.50616 0.67341
 H1970 H 0.55578 0.48911 0.57501
 H1971 H 0.60211 0.47744 0.65536
 H1972 H 0.51949 0.51192 0.59212
 C1973 C 0.42420 0.01070 0.67706
 C1974 C 0.41821 0.01727 0.65872
 C1975 C 0.43030 0.01487 0.64100
 N1976 N 0.42306 0.02141 0.62375
 N1977 N 0.43333 0.01882 0.60733
 C1978 C 0.45126 0.00956 0.60751
 N1979 N 0.45857 0.00307 0.62479
 N1980 N 0.44827 0.00565 0.64125
 C1981 C 0.46251 0.00631 0.58932
 C1982 C 0.45500 0.01210 0.57127
 H1983 H 0.40389 0.02437 0.65704
 H1984 H 0.47684 -0.00098 0.59015
 H1985 H 0.43912 0.00507 0.67899
 H1986 H 0.44063 0.01933 0.57057
 C1987 C -0.08565 0.50259 1.16425
 C1988 C -0.06550 0.50190 1.16032
 C1989 C -0.05790 0.50403 1.14029
 N1990 N -0.03844 0.50110 1.13656
 N1991 N -0.03147 0.50264 1.11846
 C1992 C -0.04370 0.50725 1.10341
 N1993 N -0.06313 0.51035 1.10718
 N1994 N -0.07010 0.50876 1.12526
 C1995 C -0.03633 0.50838 1.08322
 C1996 C -0.01702 0.50293 1.07835
 H1997 H -0.05501 0.49912 1.17186
 H1998 H -0.04659 0.51264 1.07185
 H1999 H -0.09566 0.50440 1.15208
 H2000 H -0.00700 0.49815 1.08974
 C2001 C -0.08727 0.49338 0.32024
 C2002 C -0.07290 0.50515 0.32816
 C2003 C -0.06625 0.50265 0.34850
 N2004 N -0.04987 0.51141 0.35480
 N2005 N -0.04380 0.50929 0.37316
 C2006 C -0.05395 0.49842 0.38595
 N2007 N -0.07041 0.48980 0.37970
 N2008 N -0.07642 0.49183 0.36132
 C2009 C -0.04755 0.49609 0.40635
 C2010 C -0.02923 0.50198 0.41261
 H2011 H -0.06592 0.51606 0.31959
 H2012 H -0.05738 0.48939 0.41655
 H2013 H -0.09237 0.48190 0.32954
 H2014 H -0.01916 0.50793 0.40214
 C2015 C 0.39978 1.00848 -0.16919
 C2016 C 0.41625 1.01743 -0.16178
 C2017 C 0.42218 1.01517 -0.14126
 N2018 N 0.43971 1.02176 -0.13525
 N2019 N 0.44546 1.01944 -0.11683
 C2020 C 0.43388 1.01050 -0.10370
 N2021 N 0.41627 1.00407 -0.10966
 N2022 N 0.41054 1.00633 -0.12811
 C2023 C 0.44031 1.00752 -0.08341
 C2024 C 0.45929 1.01169 -0.07758
 H2025 H 0.42561 1.02551 -0.17131
 H2026 H 0.43015 1.00148 -0.07308
 H2027 H 0.39146 0.99943 -0.15954
 H2028 H 0.46948 1.01725 -0.08818
 C2029 C 0.58585 0.48292 -0.17978
 C2030 C 0.59383 0.48691 -0.16150
 C2031 C 0.58219 0.48714 -0.14341
 N2032 N 0.59100 0.49122 -0.12622
 N2033 N 0.58083 0.49129 -0.10959
 C2034 C 0.56145 0.48724 -0.10954
 N2035 N 0.55262 0.48316 -0.12674
 N2036 N 0.56280 0.48309 -0.14338
 C2037 C 0.55003 0.48730 -0.09129
 C2038 C 0.55844 0.49140 -0.07325
 H2039 H 0.60918 0.49025 -0.16022
 H2040 H 0.53457 0.48416 -0.09214
 H2041 H 0.57017 0.48102 -0.18101
 H2042 H 0.57390 0.49455 -0.07243
 C2043 C 0.09013 0.00709 0.32494
 C2044 C 0.07159 0.00037 0.32954
 C2045 C 0.06483 -0.00060 0.34998
 N2046 N 0.04708 -0.00789 0.35430
 N2047 N 0.04107 -0.00909 0.37278
 C2048 C 0.05263 -0.00309 0.38763
 N2049 N 0.07035 0.00421 0.38330
 N2050 N 0.07634 0.00541 0.36485
 C2051 C 0.04629 -0.00410 0.40814
 C2052 C 0.02800 -0.01081 0.41362
 H2053 H 0.06217 -0.00507 0.31822
 H2054 H 0.05619 0.00106 0.41922
 H2055 H 0.09943 0.01171 0.33677
 H2056 H 0.01802 -0.01578 0.40252
 C2057 C 0.15727 1.09226 1.01353
 C2058 C 0.15260 1.07293 1.01625
 C2059 C 0.13205 1.06689 1.01567
 N2060 N 0.12759 1.04846 1.02032
 N2061 N 0.10906 1.04285 1.01964
 C2062 C 0.09430 1.05547 1.01425
 N2063 N 0.09876 1.07387 1.00957
 N2064 N 0.11727 1.07949 1.01031
 C2065 C 0.07385 1.04936 1.01276
 C2066 C 0.06832 1.03092 1.01828
 H2067 H 0.16401 1.06207 1.01927
 H2068 H 0.06302 1.05949 1.00669
 H2069 H 0.14533 1.10292 1.01180
 H2070 H 0.07912 1.02099 1.02470
 C2071 C 0.66576 0.59273 0.50637
 C2072 C 0.66094 0.57368 0.51036
 C2073 C 0.64031 0.56797 0.51110
 N2074 N 0.63582 0.54991 0.51699
 N2075 N 0.61719 0.54459 0.51752
 C2076 C 0.60237 0.55714 0.51215
 N2077 N 0.60687 0.57518 0.50625
 N2078 N 0.62548 0.58051 0.50577
 C2079 C 0.58182 0.55127 0.51178
 C2080 C 0.57628 0.53313 0.51821
 H2081 H 0.67234 0.56286 0.51357
 H2082 H 0.57094 0.56122 0.50552
 H2083 H 0.65397 0.60353 0.50455
 H2084 H 0.58712 0.52337 0.52481
 C2085 C 0.69193 0.41769 -0.00755
 C2086 C 0.67365 0.41069 -0.00237
 C2087 C 0.65510 0.42174 -0.00559
 N2088 N 0.63781 0.41373 -0.00087
 N2089 N 0.62086 0.42367 -0.00318
 C2090 C 0.62058 0.44201 -0.01030
 N2091 N 0.63788 0.45000 -0.01509
 N2092 N 0.65484 0.44004 -0.01280
 C2093 C 0.60208 0.45349 -0.01209
 C2094 C 0.58395 0.44610 -0.00701
 H2095 H 0.67273 0.39646 0.00406
 H2096 H 0.60289 0.46841 -0.01680
 H2097 H 0.69259 0.43124 -0.01540
 H2098 H 0.58312 0.43112 -0.00253
 C2099 C 0.17784 -0.08268 0.47624
 C2100 C 0.15934 -0.08953 0.48080
 C2101 C 0.14089 -0.07836 0.47739
 N2102 N 0.12355 -0.08654 0.48153
 N2103 N 0.10664 -0.07650 0.47946
 C2104 C 0.10640 -0.05785 0.47319
 N2105 N 0.12376 -0.04968 0.46891
 N2106 N 0.14071 -0.05976 0.47095
 C2107 C 0.08782 -0.04628 0.47215
 C2108 C 0.07000 -0.05405 0.47767
 H2109 H 0.15819 -0.10379 0.48715
 H2110 H 0.08838 -0.03111 0.46828
 H2111 H 0.17893 -0.06922 0.46831
 H2112 H 0.06962 -0.06923 0.48161
 C2113 C 0.33237 -0.09388 0.49777
 C2114 C 0.33616 -0.07422 0.49993
 C2115 C 0.35640 -0.06730 0.49997
 N2116 N 0.35969 -0.04826 0.50321
 N2117 N 0.37794 -0.04184 0.50316
 C2118 C 0.39357 -0.05424 0.49984
 N2119 N 0.39027 -0.07326 0.49659
 N2120 N 0.37204 -0.07967 0.49666
 C2121 C 0.41382 -0.04743 0.49950
 C2122 C 0.41819 -0.02819 0.50336
 H2123 H 0.32424 -0.06363 0.50197
 H2124 H 0.42557 -0.05789 0.49603
 H2125 H 0.34476 -0.10415 0.49682
 H2126 H 0.40644 -0.01780 0.50706
 C2127 C -0.15248 0.40663 1.01022
 C2128 C -0.14834 0.42610 1.01303
 C2129 C -0.12798 0.43256 1.01232
 N2130 N -0.12400 0.45135 1.01610
 N2131 N -0.10560 0.45730 1.01515
 C2132 C -0.09055 0.44467 1.01037
 N2133 N -0.09454 0.42592 1.00660
 N2134 N -0.11290 0.41997 1.00758
 C2135 C -0.07025 0.45098 1.00874
 C2136 C -0.06506 0.46988 1.01297
 H2137 H -0.15997 0.43681 1.01593
 H2138 H -0.05914 0.44043 1.00378
 H2139 H -0.14028 0.39624 1.00843
 H2140 H -0.07609 0.48033 1.01830
 C2141 C -0.17995 0.57556 0.48000
 C2142 C -0.16112 0.58206 0.48362
 C2143 C -0.14304 0.57042 0.47966
 N2144 N -0.12541 0.57837 0.48293
 N2145 N -0.10878 0.56791 0.48052
 C2146 C -0.10910 0.54906 0.47475
 N2147 N -0.12675 0.54111 0.47131
 N2148 N -0.14344 0.55160 0.47371
 C2149 C -0.09075 0.53712 0.47337
 C2150 C -0.07268 0.54482 0.47815
 H2151 H -0.15943 0.59640 0.48979
 H2152 H -0.09162 0.52185 0.46983
 H2153 H -0.18172 0.56204 0.47217
 H2154 H -0.07203 0.56009 0.48180
 C2155 C 0.31335 1.08050 -0.00897
 C2156 C 0.33194 1.08715 -0.00438
 C2157 C 0.35032 1.07594 -0.00848
 N2158 N 0.36780 1.08372 -0.00402
 N2159 N 0.38461 1.07362 -0.00690
 C2160 C 0.38460 1.05534 -0.01435
 N2161 N 0.36712 1.04758 -0.01893
 N2162 N 0.35028 1.05769 -0.01607
 C2163 C 0.40303 1.04361 -0.01650
 C2164 C 0.42116 1.05068 -0.01089
 H2165 H 0.33325 1.10125 0.00242
 H2166 H 0.40211 1.02872 -0.02142
 H2167 H 0.31223 1.06711 -0.01719
 H2168 H 0.42198 1.06556 -0.00591
 C2169 C 0.00391 1.17564 1.07876
 C2170 C -0.00307 1.15789 1.08497
 C2171 C -0.00051 1.13983 1.07356
 N2172 N -0.00777 1.12321 1.08063
 N2173 N -0.00618 1.10677 1.07038
 C2174 C 0.00274 1.10631 1.05262
 N2175 N 0.01010 1.12293 1.04556
 N2176 N 0.00850 1.13940 1.05583
 C2177 C 0.00401 1.08828 1.04094
 C2178 C -0.00435 1.07129 1.04744
 H2179 H -0.01072 1.15700 1.09877
 H2180 H 0.01109 1.08857 1.02678
 H2181 H 0.01280 1.17603 1.06564
 H2182 H -0.01152 1.07119 1.06157
 C2183 C 0.50650 0.67850 0.57682
 C2184 C 0.49997 0.66051 0.58275
 C2185 C 0.50356 0.64253 0.57150
 N2186 N 0.49680 0.62568 0.57852
 N2187 N 0.49920 0.60926 0.56838
 C2188 C 0.50844 0.60902 0.55080
 N2189 N 0.51533 0.62587 0.54378
 N2190 N 0.51293 0.64235 0.55395
 C2191 C 0.51041 0.59095 0.53926
 C2192 C 0.50224 0.57392 0.54584
 H2193 H 0.49185 0.65939 0.59627
 H2194 H 0.51771 0.59123 0.52520
 H2195 H 0.51598 0.67929 0.56415
 H2196 H 0.49483 0.57392 0.55985
 C2197 C 0.01193 0.67273 0.41880
 C2198 C 0.02091 0.65462 0.41494
 C2199 C 0.01653 0.63731 0.42628
 N2200 N 0.02457 0.61986 0.42078
 N2201 N 0.02029 0.60385 0.43042
 C2202 C 0.00781 0.60468 0.44592
 N2203 N -0.00015 0.62216 0.45151
 N2204 N 0.00410 0.63819 0.44183
 C2205 C 0.00291 0.58703 0.45651
 C2206 C 0.00964 0.56876 0.45013
 H2207 H 0.03121 0.65274 0.40299
 H2208 H -0.00615 0.58846 0.46950
 H2209 H 0.00261 0.67447 0.43158
 H2210 H 0.01846 0.56745 0.43698
 C2211 C 0.49358 1.17603 -0.07776
 C2212 C 0.49868 1.15713 -0.08367
 C2213 C 0.49672 1.14023 -0.07091
 N2214 N 0.50280 1.12245 -0.07749
 N2215 N 0.50108 1.10687 -0.06634
 C2216 C 0.49318 1.10845 -0.04816
 N2217 N 0.48706 1.12625 -0.04155
 N2218 N 0.48880 1.14188 -0.05272
 C2219 C 0.49115 1.09117 -0.03587
 C2220 C 0.49774 1.07288 -0.04239
 H2221 H 0.50481 1.15445 -0.09805
 H2222 H 0.48435 1.09284 -0.02162
 H2223 H 0.48882 1.17863 -0.06284
 H2224 H 0.50461 1.07146 -0.05663
 C2225 C 0.51433 0.32120 -0.08391
 C2226 C 0.50754 0.33969 -0.08937
 C2227 C 0.51090 0.35703 -0.07741
 N2228 N 0.50527 0.37479 -0.08421
 N2229 N 0.50783 0.39064 -0.07346
 C2230 C 0.51609 0.38934 -0.05548
 N2231 N 0.52172 0.37157 -0.04866
 N2232 N 0.51920 0.35571 -0.05944
 C2233 C 0.51844 0.40672 -0.04326
 C2234 C 0.51343 0.42524 -0.05005
 H2235 H 0.49985 0.34173 -0.10303
 H2236 H 0.52380 0.40483 -0.02850
 H2237 H 0.52336 0.31963 -0.07098
 H2238 H 0.50840 0.42704 -0.06494
 C2239 C 0.00982 -0.18193 0.41563
 C2240 C -0.00156 -0.16536 0.41111
 C2241 C -0.00048 -0.14737 0.42264
 N2242 N -0.01009 -0.13095 0.41654
 N2243 N -0.00894 -0.11448 0.42666
 C2244 C 0.00184 -0.11384 0.44329
 N2245 N 0.01135 -0.13028 0.44945
 N2246 N 0.01024 -0.14673 0.43931
 C2247 C 0.00335 -0.09580 0.45463
 C2248 C -0.00509 -0.07821 0.44841
 H2249 H -0.01076 -0.16512 0.39827
 H2250 H 0.01146 -0.09642 0.46820
 H2251 H 0.01993 -0.18137 0.42780
 H2252 H -0.01297 -0.07755 0.43470
 C2253 C 0.48264 -0.17231 0.57356
 C2254 C 0.48554 -0.15397 0.58155
 C2255 C 0.48447 -0.13615 0.56992
 N2256 N 0.48873 -0.11899 0.57840
 N2257 N 0.48798 -0.10266 0.56814
 C2258 C 0.48286 -0.10287 0.54901
 N2259 N 0.47850 -0.12002 0.54053
 N2260 N 0.47929 -0.13638 0.55080
 C2261 C 0.48240 -0.08499 0.53742
 C2262 C 0.48835 -0.06739 0.54514
 H2263 H 0.48936 -0.15248 0.59678
 H2264 H 0.47795 -0.08588 0.52229
 H2265 H 0.48032 -0.17369 0.55799
 H2266 H 0.49315 -0.06665 0.56018
 C2267 C -0.01180 0.32466 1.07429
 C2268 C -0.01111 0.34349 1.08205
 C2269 C -0.00839 0.36065 1.06987
 N2270 N -0.00377 0.37765 1.07847
 N2271 N -0.00115 0.39341 1.06780
 C2272 C -0.00314 0.39278 1.04811
 N2273 N -0.00792 0.37582 1.03949
 N2274 N -0.01043 0.35999 1.05017
 C2275 C -0.00064 0.41020 1.03625
 C2276 C 0.00715 0.42702 1.04400
 H2277 H -0.01111 0.34614 1.09758
 H2278 H -0.00497 0.40972 1.02106
 H2279 H -0.01010 0.32313 1.05860
 H2280 H 0.01239 0.42714 1.05891
 C2281 C 0.76539 0.32139 0.07800
 C2282 C 0.76283 0.32945 0.09664
 C2283 C 0.76234 0.31778 0.11445
 N2284 N 0.75709 0.32658 0.13149
 N2285 N 0.75635 0.31647 0.14790
 C2286 C 0.76092 0.29716 0.14795
 N2287 N 0.76638 0.28833 0.13092
 N2288 N 0.76705 0.29846 0.11443
 C2289 C 0.75971 0.28602 0.16612
 C2290 C 0.75055 0.29423 0.18255
 H2291 H 0.76015 0.34483 0.09872
 H2292 H 0.76549 0.27119 0.16642
 H2293 H 0.76662 0.30571 0.07678
 H2294 H 0.74398 0.30874 0.18169
 C2295 C 0.24612 0.82535 0.56973
 C2296 C 0.24210 0.83441 0.58770
 C2297 C 0.24191 0.82380 0.60623
 N2298 N 0.23564 0.83317 0.62266
 N2299 N 0.23575 0.82410 0.63974
 C2300 C 0.24223 0.80531 0.64107
 N2301 N 0.24856 0.79592 0.62463
 N2302 N 0.24838 0.80499 0.60750
 C2303 C 0.24281 0.79539 0.66003
 C2304 C 0.23483 0.80421 0.67675
 H2305 H 0.23834 0.84972 0.58858
 H2306 H 0.24971 0.78103 0.66084
 H2307 H 0.24794 0.80966 0.56954
 H2308 H 0.22742 0.81832 0.67566
 C2309 C 0.74904 0.65716 0.58462
 C2310 C 0.74374 0.67577 0.59146
 C2311 C 0.74153 0.67986 0.61249
 N2312 N 0.73300 0.69690 0.61863
 N2313 N 0.73070 0.70065 0.63761
 C2314 C 0.73686 0.68750 0.65116
 N2315 N 0.74548 0.67052 0.64503
 N2316 N 0.74771 0.66673 0.62605
 C2317 C 0.73505 0.69170 0.67218
 C2318 C 0.72514 0.70833 0.67923
 H2319 H 0.73994 0.68739 0.58152
 H2320 H 0.74234 0.68180 0.68226
 H2321 H 0.75142 0.64593 0.59545
 H2322 H 0.71754 0.71797 0.66912
 C2323 C 0.23871 0.16868 0.08796
 C2324 C 0.23420 0.18808 0.09279
 C2325 C 0.23333 0.19462 0.11331
 N2326 N 0.22671 0.21289 0.11788
 N2327 N 0.22589 0.21886 0.13643
 C2328 C 0.23167 0.20675 0.15106
 N2329 N 0.23832 0.18853 0.14647
 N2330 N 0.23909 0.18257 0.12797
 C2331 C 0.23159 0.21311 0.17157
 C2332 C 0.22420 0.23126 0.17770
 H2333 H 0.23056 0.19867 0.08171
 H2334 H 0.23809 0.20322 0.18215
 H2335 H 0.24123 0.15871 0.09995
 H2336 H 0.21724 0.24102 0.16727
 C2337 C 0.23047 0.17776 0.93504
 C2338 C 0.24302 0.19183 0.92812
 C2339 C 0.24062 0.19989 0.90837
 N2340 N 0.25156 0.21489 0.90251
 N2341 N 0.24973 0.22194 0.88451
 C2342 C 0.23694 0.21417 0.87169
 N2343 N 0.22606 0.19917 0.87753
 N2344 N 0.22784 0.19218 0.89552
 C2345 C 0.23502 0.22129 0.85159
 C2346 C 0.24432 0.23772 0.84503
 H2347 H 0.25482 0.19712 0.93696
 H2348 H 0.22594 0.21327 0.84166
 H2349 H 0.21829 0.17400 0.92573
 H2350 H 0.25283 0.24618 0.85510
 C2351 C 0.74500 0.68111 0.43185
 C2352 C 0.75975 0.69293 0.42485
 C2353 C 0.75851 0.70115 0.40504
 N2354 N 0.77231 0.71335 0.39852
 N2355 N 0.77157 0.72016 0.38033
 C2356 C 0.75703 0.71491 0.36802
 N2357 N 0.74329 0.70276 0.37455
 N2358 N 0.74399 0.69604 0.39269
 C2359 C 0.75611 0.72146 0.34767
 C2360 C 0.76830 0.73529 0.33985
 H2361 H 0.77265 0.69580 0.43338
 H2362 H 0.74511 0.71507 0.33848
 H2363 H 0.73214 0.67963 0.42273
 H2364 H 0.77873 0.74247 0.34908
 C2365 C 0.25407 0.81706 0.41922
 C2366 C 0.26824 0.81725 0.40439
 C2367 C 0.26578 0.80746 0.38549
 N2368 N 0.27876 0.81064 0.37093
 N2369 N 0.27657 0.80254 0.35345
 C2370 C 0.26132 0.79087 0.34986
 N2371 N 0.24842 0.78748 0.36448
 N2372 N 0.25056 0.79568 0.38199
 C2373 C 0.25866 0.78225 0.33039
 C2374 C 0.26966 0.78822 0.31447
 H2375 H 0.28128 0.82559 0.40578
 H2376 H 0.24757 0.77152 0.32846
 H2377 H 0.24121 0.80854 0.41673
 H2378 H 0.28013 0.79954 0.31643
 C2379 C 0.77223 0.32418 0.92692
 C2380 C 0.75945 0.31022 0.92021
 C2381 C 0.76143 0.30187 0.90050
 N2382 N 0.75075 0.28643 0.89537
 N2383 N 0.75238 0.27877 0.87754
 C2384 C 0.76468 0.28633 0.86416
 N2385 N 0.77525 0.30186 0.86924
 N2386 N 0.77369 0.30947 0.88710
 C2387 C 0.76654 0.27808 0.84443
 C2388 C 0.75790 0.26075 0.83944
 H2389 H 0.74800 0.30476 0.92940
 H2390 H 0.77508 0.28567 0.83373
 H2391 H 0.78418 0.32798 0.91733
 H2392 H 0.74997 0.25287 0.85040
 C2393 C 0.82809 0.42362 0.24248
 C2394 C 0.80828 0.41979 0.24555
 C2395 C 0.80197 0.39967 0.24800
 N2396 N 0.78266 0.39550 0.24693
 N2397 N 0.77697 0.37732 0.24910
 C2398 C 0.79037 0.36268 0.25257
 N2399 N 0.80963 0.36690 0.25384
 N2400 N 0.81532 0.38502 0.25156
 C2401 C 0.78448 0.34249 0.25499
 C2402 C 0.76569 0.33651 0.25043
 H2403 H 0.79712 0.43131 0.24589
 H2404 H 0.79552 0.33190 0.25983
 H2405 H 0.83816 0.41116 0.24093
 H2406 H 0.75494 0.34693 0.24471
 C2407 C 0.32632 0.93677 0.73975
 C2408 C 0.30634 0.93276 0.74072
 C2409 C 0.29998 0.91259 0.74223
 N2410 N 0.28067 0.90852 0.74080
 N2411 N 0.27488 0.89032 0.74245
 C2412 C 0.28821 0.87555 0.74570
 N2413 N 0.30747 0.87965 0.74723
 N2414 N 0.31324 0.89780 0.74550
 C2415 C 0.28223 0.85539 0.74782
 C2416 C 0.26313 0.84973 0.74420
 H2417 H 0.29510 0.94421 0.74050
 H2418 H 0.29336 0.84463 0.75204
 H2419 H 0.33661 0.92442 0.73901
 H2420 H 0.25215 0.86036 0.73931
 C2421 C 0.17683 0.92810 0.25195
 C2422 C 0.19690 0.92325 0.25046
 C2423 C 0.20363 0.90275 0.24897
 N2424 N 0.22300 0.89763 0.25050
 N2425 N 0.22903 0.87907 0.24892
 C2426 C 0.21589 0.86502 0.24565
 N2427 N 0.19659 0.87017 0.24399
 N2428 N 0.19058 0.88865 0.24566
 C2429 C 0.22204 0.84451 0.24354
 C2430 C 0.24107 0.83757 0.24743
 H2431 H 0.20785 0.93421 0.25031
 H2432 H 0.21099 0.83447 0.23906
 H2433 H 0.16692 0.91620 0.25325
 H2434 H 0.25199 0.84741 0.25263
 C2435 C 0.67121 0.39750 0.75084
 C2436 C 0.69054 0.39086 0.75416
 C2437 C 0.69570 0.36995 0.75545
 N2438 N 0.71369 0.36404 0.76201
 N2439 N 0.71851 0.34521 0.76336
 C2440 C 0.70557 0.33155 0.75814
 N2441 N 0.68762 0.33745 0.75145
 N2442 N 0.68275 0.35629 0.75019
 C2443 C 0.71098 0.31069 0.75922
 C2444 C 0.72841 0.30427 0.76804
 H2445 H 0.70214 0.40085 0.75669
 H2446 H 0.70133 0.30033 0.75268
 H2447 H 0.66016 0.38661 0.74958
 H2448 H 0.73766 0.31478 0.77492
 C2449 C 0.68387 0.55328 0.74417
 C2450 C 0.67928 0.56983 0.75550
 C2451 C 0.68770 0.58894 0.75221
 N2452 N 0.68035 0.60444 0.76246
 N2453 N 0.68741 0.62198 0.75987
 C2454 C 0.70216 0.62477 0.74692
 N2455 N 0.70962 0.60925 0.73668
 N2456 N 0.70248 0.59164 0.73923
 C2457 C 0.71013 0.64425 0.74436
 C2458 C 0.70141 0.66045 0.75368
 H2459 H 0.66819 0.56958 0.76675
 H2460 H 0.72311 0.64580 0.73540
 H2461 H 0.69443 0.55469 0.73243
 H2462 H 0.68821 0.65868 0.76227
 C2463 C 0.17638 0.08091 0.23837
 C2464 C 0.17221 0.09777 0.24933
 C2465 C 0.18237 0.11606 0.24684
 N2466 N 0.17633 0.13167 0.25766
 N2467 N 0.18510 0.14849 0.25595
 C2468 C 0.20031 0.15044 0.24334
 N2469 N 0.20644 0.13481 0.23248
 N2470 N 0.19761 0.11790 0.23417
 C2471 C 0.21001 0.16918 0.24167
 C2472 C 0.20309 0.18528 0.25240
 H2473 H 0.16070 0.09827 0.26017
 H2474 H 0.22260 0.17029 0.23210
 H2475 H 0.18768 0.08153 0.22723
 H2476 H 0.19034 0.18390 0.26173
 C2477 C 0.32633 0.09239 0.75026
 C2478 C 0.31305 0.09972 0.76435
 C2479 C 0.30709 0.12049 0.76504
 N2480 N 0.29297 0.12697 0.77775
 N2481 N 0.28751 0.14572 0.77847
 C2482 C 0.29607 0.15871 0.76658
 N2483 N 0.31027 0.15224 0.75398
 N2484 N 0.31568 0.13351 0.75322
 C2485 C 0.28988 0.17938 0.76668
 C2486 C 0.27375 0.18652 0.77743
 H2487 H 0.30682 0.09043 0.77519
 H2488 H 0.29757 0.18901 0.75710
 H2489 H 0.33145 0.10252 0.73949
 H2490 H 0.26570 0.17676 0.78656
 C2491 C 0.83326 0.58055 0.24768
 C2492 C 0.82246 0.58935 0.26295
 C2493 C 0.81798 0.61047 0.26301
 N2494 N 0.80548 0.61858 0.27648
 N2495 N 0.80136 0.63764 0.27650
 C2496 C 0.80971 0.64931 0.26313
 N2497 N 0.82232 0.64123 0.24980
 N2498 N 0.82636 0.62221 0.24974
 C2499 C 0.80499 0.67031 0.26241
 C2500 C 0.79012 0.67919 0.27369
 H2501 H 0.81716 0.58101 0.27504
 H2502 H 0.81268 0.67879 0.25175
 H2503 H 0.83734 0.58981 0.23570
 H2504 H 0.78198 0.67059 0.28390
 C2505 C 0.91026 0.25709 0.16356
 C2506 C 0.90542 0.26193 0.18290
 C2507 C 0.88475 0.26299 0.18952
 N2508 N 0.88010 0.26936 0.20780
 N2509 N 0.86145 0.27014 0.21390
 C2510 C 0.84678 0.26457 0.20190
 N2511 N 0.85144 0.25822 0.18366
 N2512 N 0.87004 0.25749 0.17757
 C2513 C 0.82619 0.26443 0.20846
 C2514 C 0.81993 0.27132 0.22670
 H2515 H 0.91658 0.26538 0.19340
 H2516 H 0.81569 0.25805 0.19869
 H2517 H 0.89817 0.25466 0.15368
 H2518 H 0.83022 0.27824 0.23630
 C2519 C 0.40563 0.75670 0.65739
 C2520 C 0.39975 0.76194 0.67633
 C2521 C 0.37882 0.76388 0.68188
 N2522 N 0.37365 0.77221 0.69921
 N2523 N 0.35482 0.77409 0.70446
 C2524 C 0.34042 0.76767 0.69261
 N2525 N 0.34559 0.75925 0.67532
 N2526 N 0.36443 0.75746 0.67002
 C2527 C 0.31960 0.76904 0.69865
 C2528 C 0.31370 0.77904 0.71553
 H2529 H 0.41038 0.76570 0.68727
 H2530 H 0.30891 0.76144 0.69010
 H2531 H 0.39411 0.75440 0.64681
 H2532 H 0.32446 0.78691 0.72373
 C2533 C 0.42357 0.24973 0.82507
 C2534 C 0.40521 0.25397 0.83367
 C2535 C 0.38659 0.25378 0.82280
 N2536 N 0.36974 0.26004 0.83179
 N2537 N 0.35262 0.25984 0.82247
 C2538 C 0.35164 0.25328 0.80380
 N2539 N 0.36849 0.24693 0.79479
 N2540 N 0.38567 0.24719 0.80410
 C2541 C 0.33266 0.25293 0.79349
 C2542 C 0.31556 0.26120 0.80175
 H2543 H 0.40400 0.25819 0.84882
 H2544 H 0.33221 0.24630 0.77914
 H2545 H 0.42395 0.24702 0.80947
 H2546 H 0.31632 0.26835 0.81584
 C2547 C 0.94464 0.73723 0.31301
 C2548 C 0.93322 0.75281 0.30580
 C2549 C 0.91323 0.75004 0.29839
 N2550 N 0.89976 0.76498 0.29912
 N2551 N 0.88129 0.76244 0.29357
 C2552 C 0.87562 0.74490 0.28694
 N2553 N 0.88918 0.73004 0.28583
 N2554 N 0.90763 0.73252 0.29158
 C2555 C 0.85514 0.74201 0.28109
 C2556 C 0.83997 0.75434 0.28795
 H2557 H 0.93764 0.76758 0.30786
 H2558 H 0.85192 0.72988 0.27166
 H2559 H 0.93843 0.72297 0.31219
 H2560 H 0.84330 0.76558 0.29843
 C2561 C 0.09827 0.74952 0.33112
 C2562 C 0.10441 0.76138 0.31594
 C2563 C 0.12521 0.76175 0.30994
 N2564 N 0.13059 0.77315 0.29492
 N2565 N 0.14929 0.77337 0.28914
 C2566 C 0.16332 0.76222 0.29820
 N2567 N 0.15795 0.75091 0.31329
 N2568 N 0.13926 0.75069 0.31906
 C2569 C 0.18387 0.76159 0.29142
 C2570 C 0.18981 0.77183 0.27509
 H2571 H 0.09412 0.77066 0.30809
 H2572 H 0.19428 0.75194 0.29880
 H2573 H 0.10949 0.74072 0.33842
 H2574 H 0.17929 0.78131 0.26764
 C2575 C 0.57812 0.24314 0.82297
 C2576 C 0.59466 0.23135 0.82740
 C2577 C 0.61393 0.23363 0.81800
 N2578 N 0.62989 0.22365 0.82501
 N2579 N 0.64753 0.22555 0.81693
 C2580 C 0.64990 0.23747 0.80147
 N2581 N 0.63392 0.24739 0.79436
 N2582 N 0.61626 0.24555 0.80251
 C2583 C 0.66935 0.23937 0.79227
 C2584 C 0.68629 0.23081 0.80038
 H2585 H 0.59422 0.22070 0.83884
 H2586 H 0.67030 0.24744 0.77881
 H2587 H 0.57987 0.25428 0.81207
 H2588 H 0.68525 0.22319 0.81411
 C2589 C 0.56117 0.75696 0.67355
 C2590 C 0.56836 0.74307 0.68680
 C2591 C 0.58857 0.74366 0.69450
 N2592 N 0.59475 0.73093 0.70842
 N2593 N 0.61315 0.73105 0.71506
 C2594 C 0.62607 0.74385 0.70795
 N2595 N 0.61990 0.75653 0.69403
 N2596 N 0.60152 0.75646 0.68745
 C2597 C 0.64656 0.74408 0.71477
 C2598 C 0.65355 0.73286 0.73030
 H2599 H 0.55947 0.73131 0.69154
 H2600 H 0.65638 0.75372 0.70744
 H2601 H 0.57062 0.76885 0.67024
 H2602 H 0.64360 0.72373 0.73812
 C2603 C 0.06504 0.26366 0.16987
 C2604 C 0.07250 0.25299 0.18566
 C2605 C 0.09229 0.25638 0.19341
 N2606 N 0.09885 0.24682 0.20950
 N2607 N 0.11688 0.24954 0.21632
 C2608 C 0.12903 0.26189 0.20726
 N2609 N 0.12248 0.27143 0.19118
 N2610 N 0.10446 0.26875 0.18441
 C2611 C 0.14920 0.26468 0.21416
 C2612 C 0.15650 0.25608 0.23111
 H2613 H 0.06407 0.24193 0.19254
 H2614 H 0.15862 0.27356 0.20543
 H2615 H 0.07408 0.27503 0.16427
 H2616 H 0.14693 0.24756 0.24006
 C2617 C -0.06588 0.98145 0.81802
 C2618 C -0.06968 0.99481 0.83316
 C2619 C -0.05877 0.99460 0.85169
 N2620 N -0.06465 1.00696 0.86620
 N2621 N -0.05560 1.00668 0.88339
 C2622 C -0.04026 0.99404 0.88676
 N2623 N -0.03423 0.98177 0.87219
 N2624 N -0.04334 0.98201 0.85497
 C2625 C -0.03068 0.99324 0.90603
 C2626 C -0.03847 1.00368 0.92193
 H2627 H -0.08156 1.00550 0.83219
 H2628 H -0.01787 0.98367 0.90794
 H2629 H -0.05365 0.97113 0.81987
 H2630 H -0.05169 1.01266 0.91999
 C2631 C 0.41230 0.50183 0.32930
 C2632 C 0.43158 0.49786 0.33534
 C2633 C 0.43765 0.50051 0.35578
 N2634 N 0.45640 0.49590 0.36112
 N2635 N 0.46209 0.49809 0.37956
 C2636 C 0.44926 0.50501 0.39337
 N2637 N 0.43052 0.50969 0.38802
 N2638 N 0.42482 0.50748 0.36958
 C2639 C 0.45528 0.50710 0.41389
 C2640 C 0.47407 0.50138 0.42009
 H2641 H 0.44264 0.49252 0.32513
 H2642 H 0.44453 0.51266 0.42438
 H2643 H 0.40164 0.50674 0.34019
 H2644 H 0.48463 0.49557 0.40953
 C2645 C 0.57343 0.00134 0.32020
 C2646 C 0.57712 0.01052 0.33802
 C2647 C 0.56543 0.00702 0.35563
 N2648 N 0.57326 0.01031 0.37347
 N2649 N 0.56283 0.00749 0.38961
 C2650 C 0.54409 0.00145 0.38850
 N2651 N 0.53617 -0.00167 0.37065
 N2652 N 0.54669 0.00094 0.35450
 C2653 C 0.53221 -0.00084 0.40624
 C2654 C 0.54088 -0.00317 0.42451
 H2655 H 0.58987 0.01928 0.33983
 H2656 H 0.51635 -0.00063 0.40490
 H2657 H 0.56216 -0.00939 0.31995
 H2658 H 0.55671 -0.00502 0.42558
 C2659 C 0.07271 0.50755 0.81488
 C2660 C 0.07969 0.51200 0.83342
 C2661 C 0.06849 0.50879 0.85140
 N2662 N 0.07797 0.50875 0.86877
 N2663 N 0.06816 0.50628 0.88533
 C2664 C 0.04843 0.50392 0.88521
 N2665 N 0.03888 0.50412 0.86784
 N2666 N 0.04875 0.50643 0.85121
 C2667 C 0.03756 0.50170 0.90364
 C2668 C 0.04743 0.49658 0.92074
 H2669 H 0.09442 0.51725 0.83497
 H2670 H 0.02175 0.50410 0.90375
 H2671 H 0.05894 0.50026 0.81341
 H2672 H 0.06303 0.49291 0.92007
 C2673 C 0.08566 0.51787 0.66217
 C2674 C 0.06808 0.50914 0.65742
 C2675 C 0.06165 0.50718 0.63701
 N2676 N 0.04435 0.49887 0.63284
 N2677 N 0.03852 0.49687 0.61441
 C2678 C 0.04983 0.50304 0.59946
 N2679 N 0.06712 0.51131 0.60364
 N2680 N 0.07292 0.51334 0.62205
 C2681 C 0.04365 0.50128 0.57901
 C2682 C 0.02544 0.49432 0.57360
 H2683 H 0.05907 0.50299 0.66865
 H2684 H 0.05356 0.50633 0.56789
 H2685 H 0.09460 0.52330 0.65043
 H2686 H 0.01535 0.48957 0.58470
 C2687 C 0.58735 1.00428 0.16678
 C2688 C 0.56858 0.99816 0.16209
 C2689 C 0.56127 0.99844 0.14188
 N2690 N 0.54286 0.99260 0.13792
 N2691 N 0.53606 0.99284 0.11970
 C2692 C 0.54744 0.99891 0.10477
 N2693 N 0.56584 1.00472 0.10872
 N2694 N 0.57263 1.00449 0.12693
 C2695 C 0.54019 0.99941 0.08457
 C2696 C 0.52118 0.99428 0.07965
 H2697 H 0.55898 0.99277 0.17324
 H2698 H 0.55007 1.00421 0.07331
 H2699 H 0.59674 1.00895 0.15504
 H2700 H 0.51125 0.98963 0.09094
 C2701 C 0.43595 0.49306 0.17648
 C2702 C 0.42960 0.49936 0.15816
 C2703 C 0.44197 0.49816 0.14054
 N2704 N 0.43364 0.50151 0.12288
 N2705 N 0.44452 0.50094 0.10670
 C2706 C 0.46420 0.49712 0.10757
 N2707 N 0.47258 0.49386 0.12526
 N2708 N 0.46166 0.49432 0.14147
 C2709 C 0.47634 0.49676 0.08972
 C2710 C 0.46784 0.49657 0.07123
 H2711 H 0.41463 0.50491 0.15642
 H2712 H 0.49219 0.49628 0.09117
 H2713 H 0.45017 0.48566 0.17788
 H2714 H 0.45201 0.49591 0.06993
 C2715 C -0.08413 -0.02910 0.66581
 C2716 C -0.06590 -0.02229 0.65993
 C2717 C -0.06073 -0.02005 0.63916
 N2718 N -0.04309 -0.01289 0.63419
 N2719 N -0.03826 -0.01059 0.61551
 C2720 C -0.05089 -0.01533 0.60108
 N2721 N -0.06853 -0.02248 0.60605
 N2722 N -0.07337 -0.02478 0.62473
 C2723 C -0.04566 -0.01311 0.58035
 C2724 C -0.02756 -0.00618 0.57452
 H2725 H -0.05510 -0.01796 0.67045
 H2726 H -0.05614 -0.01750 0.56945
 H2727 H -0.09427 -0.03310 0.65443
 H2728 H -0.01708 -0.00194 0.58548
 C2729 C -0.17893 0.91838 1.00863
 C2730 C -0.17005 0.92785 0.99317
 C2731 C -0.15015 0.93533 0.99478
 N2732 N -0.14331 0.94741 0.98096
 N2733 N -0.12510 0.95385 0.98203
 C2734 C -0.11303 0.94828 0.99688
 N2735 N -0.11984 0.93611 1.01061
 N2736 N -0.13807 0.92978 1.00962
 C2737 C -0.09284 0.95499 0.99824
 C2738 C -0.08619 0.97046 0.98735
 H2739 H -0.17784 0.92995 0.97956
 H2740 H -0.08318 0.94807 1.00885
 H2741 H -0.17178 0.91814 1.02273
 H2742 H -0.09619 0.97829 0.97769
 C2743 C 0.33407 0.41137 0.50109
 C2744 C 0.33879 0.42920 0.49311
 C2745 C 0.35923 0.43552 0.49254
 N2746 N 0.36343 0.45306 0.48501
 N2747 N 0.38186 0.45901 0.48478
 C2748 C 0.39675 0.44760 0.49204
 N2749 N 0.39256 0.43005 0.49948
 N2750 N 0.37416 0.42412 0.49972
 C2751 C 0.41709 0.45407 0.49260
 C2752 C 0.42240 0.47227 0.48605
 H2753 H 0.32750 0.43876 0.48703
 H2754 H 0.42809 0.44441 0.49909
 H2755 H 0.34594 0.40192 0.50634
 H2756 H 0.41144 0.48195 0.47951
 C2757 C 0.33298 0.57196 -0.00520
 C2758 C 0.35155 0.57984 -0.00403
 C2759 C 0.36967 0.56783 -0.00222
 N2760 N 0.38731 0.57638 -0.00250
 N2761 N 0.40393 0.56580 -0.00079
 C2762 C 0.40353 0.54625 0.00132
 N2763 N 0.38588 0.53769 0.00168
 N2764 N 0.36924 0.54829 -0.00007
 C2765 C 0.42178 0.53438 0.00297
 C2766 C 0.44022 0.54235 0.00102
 H2767 H 0.35307 0.59538 -0.00491
 H2768 H 0.42062 0.51892 0.00515
 H2769 H 0.33181 0.55634 -0.00593
 H2770 H 0.44132 0.55774 -0.00163
 C2771 C -0.18024 0.06672 0.50755
 C2772 C -0.16238 0.07361 0.51411
 C2773 C -0.14397 0.06188 0.51364
 N2774 N -0.12664 0.07064 0.51627
 N2775 N -0.10973 0.06035 0.51575
 C2776 C -0.10954 0.04088 0.51273
 N2777 N -0.12690 0.03206 0.51032
 N2778 N -0.14382 0.04238 0.51070
 C2779 C -0.09093 0.02945 0.51175
 C2780 C -0.07298 0.03825 0.50922
 H2781 H -0.16153 0.08858 0.51879
 H2782 H -0.09150 0.01377 0.51180
 H2783 H -0.18065 0.05241 0.50099
 H2784 H -0.07261 0.05387 0.50779
 C2785 C 0.66510 0.09040 0.50261
 C2786 C 0.65992 0.07230 0.49543
 C2787 C 0.63940 0.06622 0.49536
 N2788 N 0.63507 0.04841 0.48845
 N2789 N 0.61658 0.04266 0.48838
 C2790 C 0.60173 0.05453 0.49519
 N2791 N 0.60604 0.07237 0.50205
 N2792 N 0.62453 0.07811 0.50213
 C2793 C 0.58128 0.04827 0.49554
 C2794 C 0.57629 0.02968 0.48972
 H2795 H 0.67095 0.06235 0.48934
 H2796 H 0.57001 0.05837 0.50103
 H2797 H 0.65353 0.10033 0.50782
 H2798 H 0.58766 0.01955 0.48447
 C2799 C 0.18166 0.58304 0.97529
 C2800 C 0.17571 0.56561 0.98337
 C2801 C 0.15516 0.55988 0.98242
 N2802 N 0.15064 0.54121 0.98579
 N2803 N 0.13200 0.53598 0.98570
 C2804 C 0.11719 0.54927 0.98242
 N2805 N 0.12170 0.56797 0.97919
 N2806 N 0.14036 0.57318 0.97911
 C2807 C 0.09657 0.54374 0.98319
 C2808 C 0.09157 0.52438 0.98218
 H2809 H 0.18603 0.55556 0.99023
 H2810 H 0.08522 0.55505 0.98476
 H2811 H 0.17091 0.59096 0.96646
 H2812 H 0.10289 0.51330 0.97924
 C2813 C 0.17800 0.42957 0.51246
 C2814 C 0.16069 0.42187 0.51949
 C2815 C 0.14162 0.43241 0.51832
 N2816 N 0.12474 0.42274 0.52059
 N2817 N 0.10732 0.43207 0.51938
 C2818 C 0.10618 0.45146 0.51604
 N2819 N 0.12305 0.46116 0.51399
 N2820 N 0.14046 0.45181 0.51503
 C2821 C 0.08716 0.46203 0.51447
 C2822 C 0.06954 0.45274 0.51141
 H2823 H 0.16088 0.40719 0.52502
 H2824 H 0.08726 0.47774 0.51445
 H2825 H 0.17740 0.44339 0.50501
 H2826 H 0.06954 0.43708 0.51006
 C2827 C 0.66839 0.92021 0.01284
 C2828 C 0.64968 0.91251 0.01299
 C2829 C 0.63161 0.92479 0.01423
 N2830 N 0.61388 0.91660 0.01237
 N2831 N 0.59734 0.92749 0.01300
 C2832 C 0.59791 0.94699 0.01560
 N2833 N 0.61563 0.95519 0.01764
 N2834 N 0.63219 0.94430 0.01694
 C2835 C 0.57977 0.95925 0.01575
 C2836 C 0.56164 0.95187 0.01074
 H2837 H 0.64790 0.89704 0.01202
 H2838 H 0.58089 0.97457 0.01895
 H2839 H 0.66960 0.93575 0.01455
 H2840 H 0.56073 0.93667 0.00686
 C2841 C -0.01734 0.82332 0.92676
 C2842 C -0.01390 0.84167 0.91913
 C2843 C -0.01521 0.85951 0.93108
 N2844 N -0.01009 0.87658 0.92312
 N2845 N -0.01103 0.89289 0.93361
 C2846 C -0.01719 0.89280 0.95248
 N2847 N -0.02242 0.87575 0.96044
 N2848 N -0.02143 0.85939 0.94994
 C2849 C -0.01808 0.91080 0.96423
 C2850 C -0.01101 0.92810 0.95703
 H2851 H -0.00964 0.84343 0.90410
 H2852 H -0.02398 0.91030 0.97890
 H2853 H -0.02093 0.82252 0.94216
 H2854 H -0.00467 0.92832 0.94251
 C2855 C 0.48296 0.32413 0.43223
 C2856 C 0.48833 0.34178 0.42436
 C2857 C 0.48853 0.35985 0.43574
 N2858 N 0.49566 0.37597 0.42747
 N2859 N 0.49592 0.39259 0.43740
 C2860 C 0.48899 0.39372 0.45598
 N2861 N 0.48179 0.37760 0.46426
 N2862 N 0.48158 0.36094 0.45433
 C2863 C 0.48910 0.41206 0.46699
 C2864 C 0.49774 0.42847 0.45945
 H2865 H 0.49327 0.34240 0.40936
 H2866 H 0.48236 0.41260 0.48132
 H2867 H 0.47972 0.32320 0.44768
 H2868 H 0.50490 0.42771 0.44531
 C2869 C -0.00102 0.32179 0.56884
 C2870 C -0.00489 0.34046 0.57652
 C2871 C -0.00406 0.35804 0.56447
 N2872 N -0.00935 0.37556 0.57234
 N2873 N -0.00850 0.39166 0.56178
 C2874 C -0.00227 0.39086 0.54294
 N2875 N 0.00306 0.37335 0.53506
 N2876 N 0.00217 0.35723 0.54562
 C2877 C -0.00102 0.40856 0.53115
 C2878 C -0.00749 0.42673 0.53814
 H2879 H -0.00884 0.34276 0.59163
 H2880 H 0.00510 0.40719 0.51658
 H2881 H 0.00207 0.32081 0.55332
 H2882 H -0.01400 0.42799 0.55255
 C2883 C 0.50248 0.82235 0.06812
 C2884 C 0.50264 0.84087 0.07641
 C2885 C 0.49856 0.85856 0.06501
 N2886 N 0.49567 0.87586 0.07431
 N2887 N 0.49250 0.89210 0.06419
 C2888 C 0.49218 0.89166 0.04438
 N2889 N 0.49510 0.87436 0.03508
 N2890 N 0.49815 0.85810 0.04520
 C2891 C 0.48989 0.90960 0.03297
 C2892 C 0.48475 0.92747 0.04156
 H2893 H 0.50531 0.84250 0.09190
 H2894 H 0.49300 0.90879 0.01747
 H2895 H 0.49794 0.82072 0.05308
 H2896 H 0.48071 0.92813 0.05686
 C2897 C 0.51830 0.67220 0.06991
 C2898 C 0.52055 0.65391 0.07843
 C2899 C 0.51860 0.63579 0.06729
 N2900 N 0.52107 0.61848 0.07641
 N2901 N 0.51898 0.60191 0.06667
 C2902 C 0.51427 0.60206 0.04743
 N2903 N 0.51181 0.61937 0.03830
 N2904 N 0.51391 0.63595 0.04804
 C2905 C 0.51191 0.58394 0.03641
 C2906 C 0.51460 0.56567 0.04484
 H2907 H 0.52388 0.65260 0.09379
 H2908 H 0.50821 0.58508 0.02109
 H2909 H 0.51640 0.67316 0.05425
 H2910 H 0.51847 0.56450 0.06012
 C2911 C 0.00621 0.17176 0.56356
 C2912 C 0.00139 0.15396 0.57151
 C2913 C 0.00240 0.13577 0.56022
 N2914 N 0.00149 0.11856 0.56959
 N2915 N 0.00182 0.10193 0.55959
 C2916 C 0.00292 0.10192 0.53980
 N2917 N 0.00374 0.11915 0.53041
 N2918 N 0.00356 0.13577 0.54043
 C2919 C 0.00250 0.08372 0.52854
 C2920 C 0.00541 0.06563 0.53725
 H2921 H -0.00278 0.15320 0.58674
 H2922 H -0.00006 0.08461 0.51297
 H2923 H 0.01239 0.17222 0.54900
 H2924 H 0.00930 0.06478 0.55255
 C2925 C 0.51044 0.17474 0.42303
 C2926 C 0.50564 0.15669 0.41549
 C2927 C 0.50941 0.13850 0.42607
 N2928 N 0.50434 0.12148 0.41780
 N2929 N 0.50668 0.10490 0.42750
 C2930 C 0.51418 0.10471 0.44583
 N2931 N 0.51941 0.12172 0.45405
 N2932 N 0.51707 0.13832 0.44434
 C2933 C 0.51558 0.08667 0.45714
 C2934 C 0.50889 0.06925 0.44968
 H2935 H 0.49866 0.15575 0.40136
 H2936 H 0.52081 0.08740 0.47203
 H2937 H 0.51886 0.17545 0.43639
 H2938 H 0.50366 0.06862 0.43479
 C2939 C 0.00705 0.67459 0.92949
 C2940 C -0.00179 0.65686 0.92635
 C2941 C 0.00539 0.63868 0.93539
 N2942 N -0.00121 0.62159 0.92865
 N2943 N 0.00481 0.60491 0.93669
 C2944 C 0.01764 0.60466 0.95183
 N2945 N 0.02423 0.62178 0.95864
 N2946 N 0.01828 0.63850 0.95050
 C2947 C 0.02335 0.58627 0.96145
 C2948 C 0.01780 0.56856 0.95367
 H2949 H -0.01357 0.65565 0.91593
 H2950 H 0.03078 0.58676 0.97539
 H2951 H 0.02002 0.67462 0.93865
 H2952 H 0.01075 0.56830 0.93952
 C2953 C 0.26681 0.67589 0.91904
 C2954 C 0.25446 0.69166 0.91387
 C2955 C 0.25458 0.69983 0.89410
 N2956 N 0.24228 0.71506 0.88973
 N2957 N 0.24158 0.72211 0.87169
 C2958 C 0.25310 0.71413 0.85734
 N2959 N 0.26545 0.69893 0.86172
 N2960 N 0.26616 0.69189 0.87976
 C2961 C 0.25225 0.72156 0.83730
 C2962 C 0.24032 0.73757 0.83232
 H2963 H 0.24383 0.69796 0.92398
 H2964 H 0.26138 0.71434 0.82630
 H2965 H 0.27774 0.67093 0.90843
 H2966 H 0.23154 0.74501 0.84345
 C2967 C 0.75623 0.16654 0.42655
 C2968 C 0.74324 0.18082 0.41913
 C2969 C 0.74480 0.18796 0.39903
 N2970 N 0.73213 0.20219 0.39278
 N2971 N 0.73304 0.20861 0.37454
 C2972 C 0.74661 0.20099 0.36182
 N2973 N 0.75928 0.18674 0.36805
 N2974 N 0.75839 0.18033 0.38633
 C2975 C 0.74772 0.20798 0.34163
 C2976 C 0.73568 0.22333 0.33508
 H2977 H 0.73133 0.18699 0.42783
 H2978 H 0.75845 0.20113 0.33187
 H2979 H 0.76822 0.16147 0.41718
 H2980 H 0.72527 0.23038 0.34505
 C2981 C 0.24022 0.33350 0.43338
 C2982 C 0.25432 0.32248 0.42283
 C2983 C 0.25158 0.31755 0.40208
 N2984 N 0.26489 0.30558 0.39285
 N2985 N 0.26286 0.30131 0.37400
 C2986 C 0.24751 0.30896 0.36362
 N2987 N 0.23426 0.32102 0.37283
 N2988 N 0.23625 0.32524 0.39170
 C2989 C 0.24489 0.30411 0.34286
 C2990 C 0.25634 0.28964 0.33361
 H2991 H 0.26793 0.31748 0.42944
 H2992 H 0.23297 0.31134 0.33502
 H2993 H 0.22651 0.33720 0.42605
 H2994 H 0.26766 0.28183 0.34177
 C2995 C 0.74248 0.83264 0.92498
 C2996 C 0.74835 0.81364 0.91981
 C2997 C 0.74670 0.80646 0.89959
 N2998 N 0.75363 0.78836 0.89480
 N2999 N 0.75213 0.78169 0.87659
 C3000 C 0.74362 0.79289 0.86249
 N3001 N 0.73668 0.81097 0.86729
 N3002 N 0.73821 0.81764 0.88548
 C3003 C 0.74146 0.78572 0.84238
 C3004 C 0.74877 0.76753 0.83631
 H3005 H 0.75456 0.80368 0.93041
 H3006 H 0.73364 0.79503 0.83212
 H3007 H 0.73697 0.84199 0.91341
 H3008 H 0.75683 0.75832 0.84648
 C3009 C 0.75783 0.82366 0.07747
 C3010 C 0.74333 0.81783 0.09049
 C3011 C 0.74806 0.81083 0.11022
 N3012 N 0.73424 0.80175 0.12075
 N3013 N 0.73794 0.79608 0.13895
 C3014 C 0.75552 0.79948 0.14739
 N3015 N 0.76932 0.80866 0.13691
 N3016 N 0.76568 0.81419 0.11863
 C3017 C 0.75953 0.79378 0.16770
 C3018 C 0.74780 0.78080 0.17747
 H3019 H 0.72803 0.81804 0.08634
 H3020 H 0.77220 0.79957 0.17493
 H3021 H 0.77304 0.82074 0.08147
 H3022 H 0.73600 0.77398 0.16972
 C3023 C 0.25318 0.34044 0.58992
 C3024 C 0.24410 0.32373 0.59635
 C3025 C 0.24325 0.31893 0.61727
 N3026 N 0.23379 0.30301 0.62327
 N3027 N 0.23280 0.29867 0.64217
 C3028 C 0.24121 0.31013 0.65578
 N3029 N 0.25065 0.32603 0.64979
 N3030 N 0.25163 0.33036 0.63091
 C3031 C 0.24066 0.30542 0.67668
 C3032 C 0.23168 0.28899 0.68369
 H3033 H 0.23695 0.31417 0.58628
 H3034 H 0.24812 0.31484 0.68672
 H3035 H 0.25984 0.34942 0.60095
 H3036 H 0.22432 0.27952 0.67361
 C3037 C 0.75743 0.16978 0.57785
 C3038 C 0.75624 0.16152 0.59638
 C3039 C 0.76076 0.17187 0.61452
 N3040 N 0.76017 0.16211 0.63158
 N3041 N 0.76375 0.17103 0.64837
 C3042 C 0.76810 0.19008 0.64880
 N3043 N 0.76882 0.19989 0.63169
 N3044 N 0.76523 0.19093 0.61482
 C3045 C 0.77103 0.20008 0.66757
 C3046 C 0.76823 0.19036 0.68508
 H3047 H 0.75258 0.14654 0.59815
 H3048 H 0.77415 0.21537 0.66764
 H3049 H 0.76259 0.18444 0.57686
 H3050 H 0.76461 0.17518 0.68472
 C3051 C 0.25030 0.66172 0.06879
 C3052 C 0.25602 0.68031 0.07403
 C3053 C 0.25520 0.68729 0.09433
 N3054 N 0.26254 0.70477 0.09886
 N3055 N 0.26232 0.71120 0.11720
 C3056 C 0.25471 0.70042 0.13173
 N3057 N 0.24725 0.68298 0.12720
 N3058 N 0.24751 0.67651 0.10884
 C3059 C 0.25462 0.70736 0.15205
 C3060 C 0.26365 0.72444 0.15727
 H3061 H 0.26190 0.69007 0.06344
 H3062 H 0.24757 0.69879 0.16307
 H3063 H 0.24478 0.65262 0.08028
 H3064 H 0.27098 0.73272 0.14619
 C3065 C 0.15776 0.59973 0.75020
 C3066 C 0.17666 0.60536 0.75525
 C3067 C 0.18148 0.62605 0.75665
 N3068 N 0.19950 0.63119 0.76287
 N3069 N 0.20404 0.64982 0.76397
 C3070 C 0.19071 0.66402 0.75888
 N3071 N 0.17271 0.65887 0.75267
 N3072 N 0.16817 0.64027 0.75161
 C3073 C 0.19559 0.68467 0.75924
 C3074 C 0.21364 0.69108 0.76581
 H3075 H 0.18819 0.59476 0.75858
 H3076 H 0.18480 0.69506 0.75355
 H3077 H 0.14677 0.61122 0.74779
 H3078 H 0.22432 0.68074 0.77178
 C3079 C 0.66282 0.08511 0.24880
 C3080 C 0.68165 0.09030 0.25457
 C3081 C 0.68744 0.11074 0.25426
 N3082 N 0.70507 0.11581 0.26158
 N3083 N 0.71029 0.13428 0.26148
 C3084 C 0.69806 0.14834 0.25403
 N3085 N 0.68050 0.14326 0.24665
 N3086 N 0.67528 0.12483 0.24679
 C3087 C 0.70338 0.16884 0.25370
 C3088 C 0.72065 0.17546 0.26191
 H3089 H 0.69230 0.07963 0.25985
 H3090 H 0.69319 0.17908 0.24683
 H3091 H 0.65276 0.09675 0.24428
 H3092 H 0.73076 0.16531 0.26903
 C3093 C 0.82906 0.04433 0.74523
 C3094 C 0.83586 0.06236 0.73948
 C3095 C 0.82397 0.08050 0.74114
 N3096 N 0.83294 0.09765 0.73946
 N3097 N 0.82270 0.11435 0.74122
 C3098 C 0.80303 0.11457 0.74459
 N3099 N 0.79395 0.09741 0.74602
 N3100 N 0.80425 0.08065 0.74439
 C3101 C 0.79182 0.13310 0.74693
 C3102 C 0.80144 0.15021 0.75080
 H3103 H 0.85088 0.06393 0.73486
 H3104 H 0.77591 0.13316 0.74642
 H3105 H 0.81430 0.04396 0.75119
 H3106 H 0.81726 0.14966 0.75265
 C3107 C 0.34285 0.57998 0.24031
 C3108 C 0.32486 0.58672 0.23264
 C3109 C 0.31997 0.60773 0.23160
 N3110 N 0.30255 0.61420 0.22402
 N3111 N 0.29807 0.63317 0.22322
 C3112 C 0.31088 0.64634 0.22992
 N3113 N 0.32827 0.63986 0.23743
 N3114 N 0.33274 0.62094 0.23823
 C3115 C 0.30610 0.66731 0.22989
 C3116 C 0.28835 0.67518 0.22292
 H3117 H 0.31419 0.57683 0.22716
 H3118 H 0.31670 0.67679 0.23632
 H3119 H 0.35284 0.59085 0.24533
 H3120 H 0.27775 0.66577 0.21639
 C3121 C 0.33006 0.42558 0.24019
 C3122 C 0.31626 0.41908 0.25366
 C3123 C 0.30871 0.39929 0.25276
 N3124 N 0.29498 0.39381 0.26583
 N3125 N 0.28827 0.37587 0.26545
 C3126 C 0.29511 0.36270 0.25203
 N3127 N 0.30886 0.36817 0.23898
 N3128 N 0.31554 0.38611 0.23933
 C3129 C 0.28783 0.34283 0.25132
 C3130 C 0.27276 0.33677 0.26347
 H3131 H 0.31094 0.42825 0.26549
 H3132 H 0.29417 0.33287 0.24055
 H3133 H 0.33440 0.41571 0.22845
 H3134 H 0.26613 0.34689 0.27392
 C3135 C 0.83689 0.89566 0.76188
 C3136 C 0.81748 0.89188 0.75688
 C3137 C 0.80952 0.87244 0.75917
 N3138 N 0.78979 0.87016 0.75926
 N3139 N 0.78246 0.85255 0.76073
 C3140 C 0.79462 0.83656 0.76200
 N3141 N 0.81433 0.83884 0.76178
 N3142 N 0.82165 0.85645 0.76049
 C3143 C 0.78684 0.81694 0.76252
 C3144 C 0.76728 0.81353 0.76702
 H3145 H 0.80754 0.90331 0.75181
 H3146 H 0.79688 0.80481 0.75925
 H3147 H 0.84531 0.88420 0.76916
 H3148 H 0.75759 0.82543 0.77180
 C3149 C 0.67530 0.93123 0.25610
 C3150 C 0.68793 0.92229 0.24231
 C3151 C 0.69512 0.90201 0.24461
 N3152 N 0.70857 0.89411 0.23194
 N3153 N 0.71484 0.87567 0.23372
 C3154 C 0.70779 0.86443 0.24818
 N3155 N 0.69430 0.87231 0.26078
 N3156 N 0.68810 0.89073 0.25904
 C3157 C 0.71444 0.84406 0.25056
 C3158 C 0.72983 0.83546 0.23973
 H3159 H 0.69253 0.92984 0.22941
 H3160 H 0.70741 0.83579 0.26183
 H3161 H 0.67204 0.92301 0.26908
 H3162 H 0.73736 0.84386 0.22890
 C3163 C 0.17648 0.44507 0.74539
 C3164 C 0.17233 0.42827 0.73479
 C3165 C 0.18310 0.40962 0.73754
 N3166 N 0.17459 0.39296 0.73207
 N3167 N 0.18393 0.37586 0.73442
 C3168 C 0.20228 0.37478 0.74215
 N3169 N 0.21094 0.39146 0.74739
 N3170 N 0.20149 0.40859 0.74522
 C3171 C 0.21255 0.35586 0.74497
 C3172 C 0.20216 0.33887 0.74660
 H3173 H 0.15966 0.42794 0.72536
 H3174 H 0.22833 0.35542 0.74705
 H3175 H 0.18780 0.44391 0.75647
 H3176 H 0.18623 0.33972 0.74650
 C3177 C 0.06144 0.74677 0.82973
 C3178 C 0.08035 0.75064 0.83634
 C3179 C 0.09789 0.74982 0.82372
 N3180 N 0.11550 0.75403 0.83154
 N3181 N 0.13164 0.75380 0.82055
 C3182 C 0.13085 0.74933 0.80126
 N3183 N 0.11324 0.74497 0.79339
 N3184 N 0.09703 0.74522 0.80442
 C3185 C 0.14872 0.74982 0.78902
 C3186 C 0.16614 0.75664 0.79671
 H3187 H 0.08297 0.75430 0.85141
 H3188 H 0.14793 0.74570 0.77378
 H3189 H 0.05990 0.74242 0.81460
 H3190 H 0.16643 0.76129 0.81183
 C3191 C 0.56599 0.25963 0.33569
 C3192 C 0.57505 0.24615 0.32292
 C3193 C 0.59569 0.24794 0.31687
 N3194 N 0.60380 0.23550 0.30344
 N3195 N 0.62258 0.23678 0.29819
 C3196 C 0.63397 0.25046 0.30628
 N3197 N 0.62589 0.26283 0.31976
 N3198 N 0.60711 0.26160 0.32495
 C3199 C 0.65468 0.25222 0.30067
 C3200 C 0.66325 0.24148 0.28540
 H3201 H 0.56738 0.23383 0.31741
 H3202 H 0.66319 0.26283 0.30832
 H3203 H 0.57438 0.27207 0.33988
 H3204 H 0.65455 0.23134 0.27730
 C3205 C 0.59393 0.74978 0.16190
 C3206 C 0.59929 0.76214 0.17712
 C3207 C 0.61915 0.76081 0.18565
 N3208 N 0.62388 0.77243 0.20088
 N3209 N 0.64184 0.77131 0.20862
 C3210 C 0.65571 0.75854 0.20137
 N3211 N 0.65098 0.74699 0.18615
 N3212 N 0.63306 0.74809 0.17844
 C3213 C 0.67561 0.75691 0.20960
 C3214 C 0.68152 0.76771 0.22568
 H3215 H 0.58909 0.77297 0.18309
 H3216 H 0.68591 0.74661 0.20279
 H3217 H 0.60489 0.73907 0.15692
 H3218 H 0.67124 0.77793 0.23265
 C3219 C 0.07583 0.24528 0.66310
 C3220 C 0.08136 0.25903 0.67699
 C3221 C 0.10102 0.25831 0.68598
 N3222 N 0.10532 0.27102 0.70042
 N3223 N 0.12311 0.27069 0.70851
 C3224 C 0.13730 0.25768 0.70241
 N3225 N 0.13303 0.24501 0.68794
 N3226 N 0.11523 0.24531 0.67989
 C3227 C 0.15706 0.25709 0.71111
 C3228 C 0.16186 0.26854 0.72714
 H3229 H 0.07138 0.27069 0.68159
 H3230 H 0.16801 0.24704 0.70494
 H3231 H 0.08635 0.23355 0.65979
 H3232 H 0.15076 0.27820 0.73365
 C3233 C 0.92352 0.24090 0.65672
 C3234 C 0.92003 0.23293 0.67510
 C3235 C 0.89993 0.23116 0.68283
 N3236 N 0.89706 0.22252 0.70030
 N3237 N 0.87898 0.22092 0.70750
 C3238 C 0.86307 0.22790 0.69749
 N3239 N 0.86594 0.23652 0.68002
 N3240 N 0.88401 0.23810 0.67282
 C3241 C 0.84303 0.22687 0.70548
 C3242 C 0.83916 0.21835 0.72343
 H3243 H 0.93194 0.22742 0.68407
 H3244 H 0.83111 0.23366 0.69728
 H3245 H 0.91078 0.24565 0.64832
 H3246 H 0.85109 0.21147 0.73156
 C3247 C 0.44330 0.73720 0.16606
 C3248 C 0.42475 0.73349 0.15841
 C3249 C 0.40705 0.73196 0.17054
 N3250 N 0.38937 0.73060 0.16169
 N3251 N 0.37293 0.73016 0.17218
 C3252 C 0.37352 0.73096 0.19196
 N3253 N 0.39124 0.73198 0.20089
 N3254 N 0.40774 0.73252 0.19036
 C3255 C 0.35521 0.73189 0.20346
 C3256 C 0.33734 0.73669 0.19455
 H3257 H 0.42248 0.73207 0.14291
 H3258 H 0.35600 0.73056 0.21918
 H3259 H 0.44474 0.73769 0.18180
 H3260 H 0.33700 0.73937 0.17899
 C3261 C 0.41060 0.25096 0.34140
 C3262 C 0.40566 0.25558 0.32214
 C3263 C 0.38498 0.25629 0.31576
 N3264 N 0.38007 0.26317 0.29784
 N3265 N 0.36135 0.26400 0.29211
 C3266 C 0.34689 0.25795 0.30411
 N3267 N 0.35182 0.25100 0.32195
 N3268 N 0.37049 0.25022 0.32768
 C3269 C 0.32617 0.25839 0.29813
 C3270 C 0.31961 0.26631 0.28056
 H3271 H 0.41669 0.25944 0.31163
 H3272 H 0.31573 0.25207 0.30799
 H3273 H 0.39861 0.24815 0.35132
 H3274 H 0.32990 0.27302 0.27083
 C3275 C 0.91127 0.73610 0.83727
 C3276 C 0.89680 0.75050 0.83355
 C3277 C 0.87772 0.74603 0.82490
 N3278 N 0.86680 0.76028 0.81611
 N3279 N 0.84926 0.75663 0.80864
 C3280 C 0.84187 0.73864 0.80988
 N3281 N 0.85270 0.72442 0.81884
 N3282 N 0.87035 0.72802 0.82614
 C3283 C 0.82228 0.73465 0.80209
 C3284 C 0.81344 0.74649 0.78800
 H3285 H 0.89961 0.76564 0.83605
 H3286 H 0.81494 0.72192 0.80714
 H3287 H 0.90869 0.72157 0.83196
 H3288 H 0.82159 0.75820 0.78180
   
