data_POSCAR
  _audit_creation_date              2014-09-24
  _audit_creation_method            'ToBaCCo'
  _symmetry_space_group_name_H-M    'P1'
  _symmetry_Int_Tables_number       1
  _symmetry_cell_setting            triclinic
  loop_
  _symmetry_equiv_pos_as_xyz
 x,y,z
_cell_length_a 52.7895
_cell_length_b 52.7891
_cell_length_c 56.2564
_cell_angle_alpha 90.000000
_cell_angle_beta 90.000000
_cell_angle_gamma 89.999900
loop_
  _atom_site_label
  _atom_site_type_symbol
  _atom_site_fract_x
  _atom_site_fract_y
  _atom_site_fract_z
C1 C 0.39850 -0.00002 0.25000
 C2 C 0.10150 0.00002 0.75000
 C3 C 0.60150 0.50002 0.25000
 C4 C 0.89850 0.49998 0.75000
 C5 C 0.24998 0.35315 1.00001
 C6 C 0.75002 0.14685 1.00001
 C7 C 0.25002 0.64685 0.50001
 C8 C 0.74998 0.85315 0.50001
 C9 C -0.00000 0.25000 0.36800
 C10 C -0.00000 0.75000 0.13201
 C11 C 0.50000 0.25000 0.63201
 C12 C 0.50000 0.75000 0.86800
 C13 C -0.25002 0.64850 1.00001
 C14 C -0.24998 0.35150 0.50001
 C15 C 0.25002 -0.14850 0.00001
 C16 C 0.24998 1.14850 0.50001
 C17 C 0.10315 0.49998 0.25000
 C18 C -0.10315 1.00002 0.25000
 C19 C 0.39685 0.50002 -0.25000
 C20 C 0.60315 -0.00003 -0.25000
 C21 C 0.00000 0.25000 0.88200
 C22 C 0.50000 0.25000 0.11800
 C23 C 0.00000 0.75000 0.61800
 C24 C 0.50000 0.75000 0.38201
 Zr25 Zr 0.02232 -0.02017 1.03232
 O26 O 0.04751 -0.00550 1.05816
 O27 O 0.02097 -0.05839 1.04155
 O28 O 0.00641 -0.02171 1.06706
 O29 O 0.06807 -0.02574 0.98851
 O30 O -0.03358 -0.00629 1.06167
 O31 O 0.05963 -0.03442 1.02743
 O32 O -0.00658 -0.07549 1.01476
 O33 O -0.01585 -0.02928 1.02643
 O34 O 0.02031 -0.03755 0.99895
 O35 O 0.00264 0.01441 1.03401
 O36 O 0.03817 0.00602 1.00813
 Zr37 Zr -0.02340 0.01458 0.96860
 Zr38 Zr -0.03507 0.00536 1.02617
 Zr39 Zr 0.03401 -0.01118 0.97476
 Zr40 Zr -0.01765 -0.04527 0.99259
 O41 O 0.06407 0.01272 0.96399
 O42 O -0.05125 -0.06046 1.00753
 O43 O -0.00376 -0.02022 0.96670
 O44 O -0.03876 -0.01169 0.99279
 O45 O -0.02157 0.03207 1.00194
 O46 O 0.01476 0.02331 0.97466
 C47 C 0.00873 -0.07708 1.03253
 C48 C 0.07427 -0.03467 1.00899
 C49 C -0.01594 -0.01574 1.07465
 O50 O -0.06780 -0.01640 1.03363
 O51 O -0.06723 0.02446 1.01357
 O52 O -0.05973 0.03109 0.97415
 C53 C -0.07352 0.03320 0.99306
 O54 O 0.04476 0.04593 1.03466
 Zr55 Zr 0.01658 0.03946 1.00836
 O56 O -0.02233 0.05299 0.95969
 O57 O -0.04231 0.03687 1.04843
 O58 O 0.00216 0.06655 1.03270
 O59 O 0.04813 0.05745 0.99224
 O60 O 0.00198 0.07021 0.98900
 C61 C -0.01250 0.07192 0.97068
 O62 O -0.05000 0.00048 0.94374
 O63 O 0.04439 -0.04411 0.95557
 O64 O -0.00850 0.01368 0.93341
 O65 O 0.02958 -0.00620 0.93813
 O66 O -0.00216 -0.07388 0.97047
 O67 O -0.04238 -0.05327 0.96373
 C68 C 0.01211 0.00367 0.92522
 H69 H 0.03037 -0.05331 0.99781
 H70 H -0.05671 -0.01535 0.98901
 H71 H 0.02172 0.03485 0.96242
 H72 H 0.00430 0.02219 1.04994
 H73 H -0.05099 -0.07900 1.00479
 H74 H -0.07775 -0.00685 1.04559
 H75 H -0.05869 0.03359 1.05649
 H76 H 0.01070 0.08290 1.02939
 H77 H -0.01098 -0.08996 0.97428
 H78 H 0.06054 -0.04033 0.94730
 H79 H 0.07426 0.00296 0.95239
 H80 H 0.04700 0.07575 0.99603
 H81 H -0.04883 -0.07081 0.96522
 H82 H -0.05504 0.01493 0.93350
 H83 H 0.05280 -0.01991 1.06834
 H84 H 0.04878 0.06424 1.03537
 Zr85 Zr 0.52232 0.47983 0.53232
 O86 O 0.54751 0.49450 0.55816
 O87 O 0.52096 0.44161 0.54155
 O88 O 0.50640 0.47829 0.56706
 O89 O 0.56806 0.47426 0.48851
 O90 O 0.46642 0.49371 0.56167
 O91 O 0.55962 0.46557 0.52743
 O92 O 0.49341 0.42450 0.51476
 O93 O 0.48414 0.47072 0.52642
 O94 O 0.52030 0.46245 0.49895
 O95 O 0.50264 0.51440 0.53401
 O96 O 0.53817 0.50601 0.50813
 Zr97 Zr 0.47659 0.51457 0.46860
 Zr98 Zr 0.46492 0.50536 0.52617
 Zr99 Zr 0.53400 0.48882 0.47476
 Zr100 Zr 0.48234 0.45472 0.49259
 O101 O 0.56406 0.51272 0.46399
 O102 O 0.44874 0.43954 0.50753
 O103 O 0.49623 0.47977 0.46670
 O104 O 0.46123 0.48831 0.49279
 O105 O 0.47843 0.53206 0.50194
 O106 O 0.51475 0.52330 0.47466
 C107 C 0.50873 0.42292 0.53252
 C108 C 0.57426 0.46532 0.50899
 C109 C 0.48406 0.48426 0.57465
 O110 O 0.43220 0.48360 0.53363
 O111 O 0.43276 0.52446 0.51357
 O112 O 0.44027 0.53109 0.47415
 C113 C 0.42647 0.53320 0.49306
 O114 O 0.54476 0.54593 0.53466
 Zr115 Zr 0.51658 0.53946 0.50836
 O116 O 0.47766 0.55298 0.45968
 O117 O 0.45768 0.53686 0.54843
 O118 O 0.50215 0.56655 0.53270
 O119 O 0.54813 0.55744 0.49223
 O120 O 0.50198 0.57020 0.48900
 C121 C 0.48750 0.57191 0.47068
 O122 O 0.44999 0.50048 0.44374
 O123 O 0.54438 0.45588 0.45557
 O124 O 0.49149 0.51367 0.43341
 O125 O 0.52957 0.49379 0.43813
 O126 O 0.49783 0.42611 0.47047
 O127 O 0.45761 0.44672 0.46373
 C128 C 0.51210 0.50366 0.42522
 H129 H 0.53037 0.44668 0.49781
 H130 H 0.44328 0.48464 0.48901
 H131 H 0.52171 0.53485 0.46241
 H132 H 0.50429 0.52219 0.54994
 H133 H 0.44901 0.42100 0.50479
 H134 H 0.42225 0.49315 0.54559
 H135 H 0.44131 0.53359 0.55649
 H136 H 0.51069 0.58289 0.52939
 H137 H 0.48901 0.41004 0.47428
 H138 H 0.56053 0.45966 0.44729
 H139 H 0.57425 0.50295 0.45238
 H140 H 0.54700 0.57574 0.49603
 H141 H 0.45116 0.42918 0.46522
 H142 H 0.44495 0.51492 0.43350
 H143 H 0.55279 0.48009 0.56834
 H144 H 0.54877 0.56423 0.53537
 Zr145 Zr 0.47768 1.02016 0.53232
 O146 O 0.45249 1.00550 0.55816
 O147 O 0.47903 1.05838 0.54155
 O148 O 0.49359 1.02170 0.56706
 O149 O 0.43194 1.02574 0.48851
 O150 O 0.53358 1.00628 0.56167
 O151 O 0.44037 1.03442 0.52743
 O152 O 0.50658 1.07549 0.51476
 O153 O 0.51585 1.02927 0.52643
 O154 O 0.47969 1.03755 0.49895
 O155 O 0.49736 0.98559 0.53401
 O156 O 0.46183 0.99398 0.50813
 Zr157 Zr 0.52341 0.98542 0.46860
 Zr158 Zr 0.53507 0.99463 0.52617
 Zr159 Zr 0.46599 1.01117 0.47476
 Zr160 Zr 0.51766 1.04527 0.49259
 O161 O 0.43594 0.98727 0.46399
 O162 O 0.55125 1.06045 0.50754
 O163 O 0.50376 1.02022 0.46670
 O164 O 0.53876 1.01169 0.49279
 O165 O 0.52157 0.96793 0.50194
 O166 O 0.48524 0.97669 0.47466
 C167 C 0.49127 1.07708 0.53253
 C168 C 0.42573 1.03467 0.50899
 C169 C 0.51594 1.01574 0.57465
 O170 O 0.56780 1.01639 0.53363
 O171 O 0.56723 0.97554 0.51357
 O172 O 0.55973 0.96891 0.47415
 C173 C 0.57353 0.96680 0.49306
 O174 O 0.45524 0.95407 0.53466
 Zr175 Zr 0.48342 0.96054 0.50836
 O176 O 0.52234 0.94701 0.45969
 O177 O 0.54231 0.96313 0.54843
 O178 O 0.49784 0.93344 0.53270
 O179 O 0.45187 0.94255 0.49223
 O180 O 0.49802 0.92979 0.48900
 C181 C 0.51250 0.92808 0.47068
 O182 O 0.55000 0.99951 0.44374
 O183 O 0.45561 1.04411 0.45557
 O184 O 0.50850 0.98632 0.43341
 O185 O 0.47042 1.00620 0.43813
 O186 O 0.50216 1.07388 0.47047
 O187 O 0.54238 1.05327 0.46373
 C188 C 0.48790 0.99633 0.42522
 H189 H 0.46963 1.05331 0.49781
 H190 H 0.55671 1.01535 0.48901
 H191 H 0.47829 0.96515 0.46241
 H192 H 0.49570 0.97780 0.54994
 H193 H 0.55099 1.07899 0.50479
 H194 H 0.57775 1.00684 0.54559
 H195 H 0.55869 0.96640 0.55649
 H196 H 0.48930 0.91710 0.52939
 H197 H 0.51098 1.08995 0.47428
 H198 H 0.43946 1.04033 0.44730
 H199 H 0.42574 0.99704 0.45238
 H200 H 0.45300 0.92425 0.49603
 H201 H 0.54883 1.07081 0.46522
 H202 H 0.55504 0.98507 0.43350
 H203 H 0.44720 1.01990 0.56834
 H204 H 0.45122 0.93576 0.53537
 Zr205 Zr -0.02232 0.52017 1.03232
 O206 O -0.04751 0.50550 1.05816
 O207 O -0.02096 0.55839 1.04155
 O208 O -0.00640 0.52171 1.06706
 O209 O -0.06806 0.52574 0.98851
 O210 O 0.03358 0.50629 1.06167
 O211 O -0.05962 0.53442 1.02743
 O212 O 0.00658 0.57550 1.01476
 O213 O 0.01585 0.52928 1.02642
 O214 O -0.02031 0.53755 0.99895
 O215 O -0.00264 0.48559 1.03401
 O216 O -0.03817 0.49398 1.00813
 Zr217 Zr 0.02341 0.48543 0.96860
 Zr218 Zr 0.03508 0.49464 1.02617
 Zr219 Zr -0.03401 0.51118 0.97476
 Zr220 Zr 0.01766 0.54527 0.99259
 O221 O -0.06406 0.48728 0.96399
 O222 O 0.05125 0.56046 1.00753
 O223 O 0.00376 0.52023 0.96670
 O224 O 0.03877 0.51169 0.99279
 O225 O 0.02157 0.46794 1.00194
 O226 O -0.01476 0.47669 0.97466
 C227 C -0.00873 0.57708 1.03252
 C228 C -0.07427 0.53468 1.00899
 C229 C 0.01594 0.51574 1.07465
 O230 O 0.06780 0.51640 1.03363
 O231 O 0.06724 0.47554 1.01356
 O232 O 0.05973 0.46891 0.97415
 C233 C 0.07353 0.46680 0.99306
 O234 O -0.04476 0.45407 1.03466
 Zr235 Zr -0.01658 0.46054 1.00836
 O236 O 0.02234 0.44702 0.95968
 O237 O 0.04232 0.46314 1.04843
 O238 O -0.00215 0.43345 1.03270
 O239 O -0.04813 0.44255 0.99223
 O240 O -0.00198 0.42980 0.98900
 C241 C 0.01250 0.42809 0.97068
 O242 O 0.05000 0.49952 0.94374
 O243 O -0.04439 0.54412 0.95557
 O244 O 0.00850 0.48633 0.93341
 O245 O -0.02958 0.50621 0.93813
 O246 O 0.00217 0.57389 0.97047
 O247 O 0.04239 0.55327 0.96373
 C248 C -0.01210 0.49634 0.92522
 H249 H -0.03037 0.55332 0.99781
 H250 H 0.05671 0.51536 0.98900
 H251 H -0.02171 0.46515 0.96241
 H252 H -0.00430 0.47781 1.04994
 H253 H 0.05099 0.57900 1.00478
 H254 H 0.07775 0.50685 1.04559
 H255 H 0.05869 0.46641 1.05649
 H256 H -0.01070 0.41710 1.02939
 H257 H 0.01098 0.58996 0.97428
 H258 H -0.06054 0.54034 0.94729
 H259 H -0.07426 0.49704 0.95238
 H260 H -0.04700 0.42426 0.99603
 H261 H 0.04883 0.57082 0.96522
 H262 H 0.05504 0.48507 0.93350
 H263 H -0.05280 0.51991 1.06834
 H264 H -0.04877 0.43576 1.03537
 Zr265 Zr -0.02228 0.47983 0.46771
 O266 O -0.04747 0.49450 0.44187
 O267 O -0.02092 0.44161 0.45848
 O268 O -0.00637 0.47829 0.43297
 O269 O -0.06802 0.47425 0.51153
 O270 O 0.03362 0.49371 0.43836
 O271 O -0.05958 0.46557 0.47260
 O272 O 0.00663 0.42450 0.48526
 O273 O 0.01590 0.47072 0.47360
 O274 O -0.02026 0.46244 0.50108
 O275 O -0.00260 0.51440 0.46602
 O276 O -0.03813 0.50601 0.49190
 Zr277 Zr 0.02345 0.51457 0.53143
 Zr278 Zr 0.03512 0.50536 0.47386
 Zr279 Zr -0.03396 0.48881 0.52527
 Zr280 Zr 0.01770 0.45472 0.50744
 O281 O -0.06402 0.51271 0.53605
 O282 O 0.05130 0.43954 0.49249
 O283 O 0.00381 0.47977 0.53333
 O284 O 0.03881 0.48831 0.50724
 O285 O 0.02161 0.53206 0.49809
 O286 O -0.01471 0.52330 0.52537
 C287 C -0.00868 0.42292 0.46750
 C288 C -0.07422 0.46532 0.49104
 C289 C 0.01598 0.48426 0.42538
 O290 O 0.06784 0.48360 0.46639
 O291 O 0.06728 0.52446 0.48646
 O292 O 0.05977 0.53108 0.52587
 C293 C 0.07357 0.53320 0.50696
 O294 O -0.04472 0.54592 0.46538
 Zr295 Zr -0.01654 0.53945 0.49167
 O296 O 0.02238 0.55298 0.54034
 O297 O 0.04235 0.53686 0.45160
 O298 O -0.00212 0.56655 0.46733
 O299 O -0.04809 0.55744 0.50780
 O300 O -0.00193 0.57020 0.51103
 C301 C 0.01254 0.57191 0.52935
 O302 O 0.05005 0.50047 0.55628
 O303 O -0.04434 0.45588 0.54446
 O304 O 0.00855 0.51367 0.56662
 O305 O -0.02953 0.49378 0.56190
 O306 O 0.00221 0.42611 0.52956
 O307 O 0.04243 0.44672 0.53630
 C308 C -0.01205 0.50365 0.57481
 H309 H -0.03032 0.44668 0.50222
 H310 H 0.05676 0.48464 0.51102
 H311 H -0.02167 0.53484 0.53762
 H312 H -0.00426 0.52219 0.45009
 H313 H 0.05103 0.42100 0.49524
 H314 H 0.07779 0.49315 0.45443
 H315 H 0.05873 0.53359 0.44354
 H316 H -0.01066 0.58289 0.47064
 H317 H 0.01103 0.41003 0.52574
 H318 H -0.06049 0.45965 0.55274
 H319 H -0.07421 0.50295 0.54765
 H320 H -0.04696 0.57574 0.50401
 H321 H 0.04888 0.42918 0.53480
 H322 H 0.05509 0.51492 0.56653
 H323 H -0.05276 0.48009 0.43169
 H324 H -0.04874 0.56423 0.46466
 Zr325 Zr 0.47772 -0.02017 -0.03229
 O326 O 0.45253 -0.00550 -0.05813
 O327 O 0.47908 -0.05839 -0.04152
 O328 O 0.49364 -0.02171 -0.06703
 O329 O 0.43198 -0.02574 0.01153
 O330 O 0.53362 -0.00628 -0.06164
 O331 O 0.44042 -0.03442 -0.02740
 O332 O 0.50663 -0.07549 -0.01474
 O333 O 0.51590 -0.02928 -0.02639
 O334 O 0.47974 -0.03755 0.00108
 O335 O 0.49740 0.01441 -0.03397
 O336 O 0.46187 0.00602 -0.00810
 Zr337 Zr 0.52345 0.01457 0.03143
 Zr338 Zr 0.53512 0.00536 -0.02614
 Zr339 Zr 0.46604 -0.01118 0.02527
 Zr340 Zr 0.51771 -0.04527 0.00744
 O341 O 0.43598 0.01272 0.03605
 O342 O 0.55130 -0.06046 -0.00751
 O343 O 0.50381 -0.02022 0.03333
 O344 O 0.53881 -0.01169 0.00724
 O345 O 0.52162 0.03207 -0.00191
 O346 O 0.48529 0.02331 0.02538
 C347 C 0.49132 -0.07708 -0.03250
 C348 C 0.42578 -0.03468 -0.00896
 C349 C 0.51598 -0.01574 -0.07462
 O350 O 0.56784 -0.01639 -0.03361
 O351 O 0.56728 0.02446 -0.01354
 O352 O 0.55978 0.03109 0.02588
 C353 C 0.57357 0.03320 0.00697
 O354 O 0.45528 0.04593 -0.03462
 Zr355 Zr 0.48346 0.03946 -0.00833
 O356 O 0.52238 0.05299 0.04035
 O357 O 0.54236 0.03687 -0.04840
 O358 O 0.49788 0.06655 -0.03267
 O359 O 0.45191 0.05745 0.00780
 O360 O 0.49807 0.07020 0.01103
 C361 C 0.51254 0.07191 0.02935
 O362 O 0.55005 0.00048 0.05629
 O363 O 0.45566 -0.04412 0.04446
 O364 O 0.50855 0.01367 0.06662
 O365 O 0.47047 -0.00621 0.06191
 O366 O 0.50222 -0.07389 0.02956
 O367 O 0.54244 -0.05327 0.03630
 C368 C 0.48795 0.00366 0.07481
 H369 H 0.46968 -0.05332 0.00222
 H370 H 0.55676 -0.01535 0.01102
 H371 H 0.47833 0.03485 0.03762
 H372 H 0.49575 0.02219 -0.04991
 H373 H 0.55104 -0.07900 -0.00476
 H374 H 0.57779 -0.00684 -0.04556
 H375 H 0.55873 0.03360 -0.05646
 H376 H 0.48934 0.08290 -0.02936
 H377 H 0.51103 -0.08996 0.02575
 H378 H 0.43952 -0.04034 0.05274
 H379 H 0.42579 0.00295 0.04765
 H380 H 0.45304 0.07574 0.00401
 H381 H 0.54888 -0.07081 0.03481
 H382 H 0.55509 0.01493 0.06653
 H383 H 0.44725 -0.01991 -0.06831
 H384 H 0.45126 0.06424 -0.03533
 Zr385 Zr 0.52228 0.52017 -0.03229
 O386 O 0.54746 0.50550 -0.05813
 O387 O 0.52092 0.55839 -0.04152
 O388 O 0.50636 0.52171 -0.06703
 O389 O 0.56801 0.52575 0.01153
 O390 O 0.46638 0.50629 -0.06164
 O391 O 0.55958 0.53443 -0.02740
 O392 O 0.49337 0.57550 -0.01474
 O393 O 0.48410 0.52928 -0.02639
 O394 O 0.52026 0.53755 0.00108
 O395 O 0.50259 0.48559 -0.03397
 O396 O 0.53812 0.49399 -0.00810
 Zr397 Zr 0.47654 0.48543 0.03143
 Zr398 Zr 0.46488 0.49464 -0.02614
 Zr399 Zr 0.53396 0.51118 0.02528
 Zr400 Zr 0.48229 0.54527 0.00744
 O401 O 0.56401 0.48728 0.03605
 O402 O 0.44869 0.56046 -0.00751
 O403 O 0.49618 0.52023 0.03333
 O404 O 0.46118 0.51169 0.00724
 O405 O 0.47838 0.46794 -0.00191
 O406 O 0.51471 0.47670 0.02538
 C407 C 0.50868 0.57708 -0.03250
 C408 C 0.57422 0.53468 -0.00896
 C409 C 0.48402 0.51574 -0.07462
 O410 O 0.43215 0.51640 -0.03361
 O411 O 0.43272 0.47554 -0.01354
 O412 O 0.44022 0.46891 0.02588
 C413 C 0.42642 0.46680 0.00697
 O414 O 0.54472 0.45407 -0.03462
 Zr415 Zr 0.51654 0.46054 -0.00833
 O416 O 0.47761 0.44702 0.04035
 O417 O 0.45764 0.46314 -0.04840
 O418 O 0.50211 0.43345 -0.03267
 O419 O 0.54808 0.44256 0.00780
 O420 O 0.50193 0.42980 0.01103
 C421 C 0.48745 0.42809 0.02935
 O422 O 0.44994 0.49952 0.05629
 O423 O 0.54433 0.54412 0.04446
 O424 O 0.49145 0.48633 0.06662
 O425 O 0.52952 0.50621 0.06191
 O426 O 0.49778 0.57389 0.02956
 O427 O 0.45756 0.55327 0.03630
 C428 C 0.51205 0.49634 0.07481
 H429 H 0.53032 0.55332 0.00222
 H430 H 0.44324 0.51536 0.01102
 H431 H 0.52166 0.46515 0.03762
 H432 H 0.50425 0.47781 -0.04991
 H433 H 0.44896 0.57900 -0.00476
 H434 H 0.42220 0.50685 -0.04556
 H435 H 0.44127 0.46641 -0.05646
 H436 H 0.51066 0.41711 -0.02936
 H437 H 0.48896 0.58996 0.02575
 H438 H 0.56048 0.54034 0.05274
 H439 H 0.57420 0.49705 0.04765
 H440 H 0.54695 0.42426 0.00401
 H441 H 0.45111 0.57082 0.03481
 H442 H 0.44490 0.48508 0.06653
 H443 H 0.55275 0.51991 -0.06831
 H444 H 0.54873 0.43577 -0.03533
 Zr445 Zr 0.02228 1.02017 0.46771
 O446 O 0.04747 1.00550 0.44187
 O447 O 0.02092 1.05839 0.45848
 O448 O 0.00636 1.02170 0.43297
 O449 O 0.06802 1.02574 0.51153
 O450 O -0.03362 1.00628 0.43836
 O451 O 0.05958 1.03442 0.47260
 O452 O -0.00663 1.07549 0.48526
 O453 O -0.01590 1.02927 0.47360
 O454 O 0.02026 1.03755 0.50108
 O455 O 0.00260 0.98559 0.46602
 O456 O 0.03813 0.99398 0.49190
 Zr457 Zr -0.02345 0.98542 0.53143
 Zr458 Zr -0.03512 0.99463 0.47386
 Zr459 Zr 0.03396 1.01118 0.52527
 Zr460 Zr -0.01770 1.04527 0.50744
 O461 O 0.06402 0.98728 0.53605
 O462 O -0.05130 1.06045 0.49249
 O463 O -0.00381 1.02022 0.53333
 O464 O -0.03881 1.01169 0.50724
 O465 O -0.02161 0.96793 0.49809
 O466 O 0.01471 0.97669 0.52537
 C467 C 0.00868 1.07708 0.46750
 C468 C 0.07422 1.03468 0.49104
 C469 C -0.01598 1.01574 0.42538
 O470 O -0.06784 1.01639 0.46639
 O471 O -0.06728 0.97554 0.48646
 O472 O -0.05977 0.96891 0.52588
 C473 C -0.07357 0.96680 0.50696
 O474 O 0.04472 0.95407 0.46538
 Zr475 Zr 0.01654 0.96054 0.49167
 O476 O -0.02238 0.94701 0.54034
 O477 O -0.04235 0.96313 0.45160
 O478 O 0.00212 0.93345 0.46733
 O479 O 0.04809 0.94255 0.50780
 O480 O 0.00194 0.92980 0.51103
 C481 C -0.01254 0.92808 0.52935
 O482 O -0.05005 0.99952 0.55628
 O483 O 0.04434 1.04412 0.54446
 O484 O -0.00855 0.98633 0.56662
 O485 O 0.02953 1.00621 0.56190
 O486 O -0.00221 1.07388 0.52956
 O487 O -0.04243 1.05327 0.53630
 C488 C 0.01205 0.99634 0.57481
 H489 H 0.03032 1.05332 0.50222
 H490 H -0.05676 1.01535 0.51102
 H491 H 0.02167 0.96515 0.53762
 H492 H 0.00426 0.97780 0.45009
 H493 H -0.05104 1.07899 0.49524
 H494 H -0.07779 1.00684 0.45443
 H495 H -0.05873 0.96640 0.44354
 H496 H 0.01066 0.91710 0.47064
 H497 H -0.01103 1.08996 0.52574
 H498 H 0.06049 1.04034 0.55274
 H499 H 0.07421 0.99705 0.54765
 H500 H 0.04696 0.92425 0.50401
 H501 H -0.04888 1.07081 0.53480
 H502 H -0.05509 0.98507 0.56653
 H503 H 0.05276 1.01991 0.43169
 H504 H 0.04874 0.93576 0.46466
 Zr505 Zr 0.72983 0.27232 0.21769
 O506 O 0.74450 0.29751 0.19185
 O507 O 0.69161 0.27096 0.20846
 O508 O 0.72829 0.25640 0.18295
 O509 O 0.72426 0.31806 0.26150
 O510 O 0.74371 0.21642 0.18834
 O511 O 0.71558 0.30962 0.22258
 O512 O 0.67450 0.24341 0.23525
 O513 O 0.72072 0.23414 0.22359
 O514 O 0.71245 0.27030 0.25106
 O515 O 0.76441 0.25264 0.21600
 O516 O 0.75602 0.28817 0.24188
 Zr517 Zr 0.76457 0.22659 0.28141
 Zr518 Zr 0.75536 0.21492 0.22384
 Zr519 Zr 0.73882 0.28400 0.27525
 Zr520 Zr 0.70473 0.23234 0.25742
 O521 O 0.76272 0.31406 0.28602
 O522 O 0.68954 0.19874 0.24248
 O523 O 0.72978 0.24623 0.28331
 O524 O 0.73831 0.21123 0.25722
 O525 O 0.78206 0.22843 0.24807
 O526 O 0.77331 0.26475 0.27535
 C527 C 0.67292 0.25873 0.21749
 C528 C 0.71532 0.32426 0.24102
 C529 C 0.73426 0.23406 0.17536
 O530 O 0.73360 0.18220 0.21638
 O531 O 0.77446 0.18276 0.23644
 O532 O 0.78109 0.19027 0.27586
 C533 C 0.78320 0.17647 0.25695
 O534 O 0.79593 0.29476 0.21535
 Zr535 Zr 0.78946 0.26658 0.24165
 O536 O 0.80298 0.22766 0.29032
 O537 O 0.78686 0.20768 0.20158
 O538 O 0.81655 0.25215 0.21731
 O539 O 0.80745 0.29813 0.25778
 O540 O 0.82020 0.25198 0.26101
 C541 C 0.82191 0.23750 0.27933
 O542 O 0.75048 0.19999 0.30627
 O543 O 0.70589 0.29438 0.29444
 O544 O 0.76367 0.24149 0.31660
 O545 O 0.74380 0.27957 0.31188
 O546 O 0.67611 0.24783 0.27954
 O547 O 0.69673 0.20761 0.28628
 C548 C 0.75366 0.26210 0.32479
 H549 H 0.69668 0.28037 0.25220
 H550 H 0.73465 0.19328 0.26100
 H551 H 0.78485 0.27171 0.28760
 H552 H 0.77219 0.25429 0.20007
 H553 H 0.67100 0.19901 0.24522
 H554 H 0.74315 0.17224 0.20442
 H555 H 0.78359 0.19131 0.19352
 H556 H 0.83290 0.26069 0.22062
 H557 H 0.66004 0.23901 0.27573
 H558 H 0.70966 0.31053 0.30272
 H559 H 0.75296 0.32425 0.29763
 H560 H 0.82574 0.29700 0.25398
 H561 H 0.67918 0.20116 0.28479
 H562 H 0.76493 0.19495 0.31651
 H563 H 0.73009 0.30279 0.18167
 H564 H 0.81424 0.29877 0.21464
 Zr565 Zr 0.77017 0.72767 0.71769
 O566 O 0.75550 0.70249 0.69185
 O567 O 0.80839 0.72903 0.70846
 O568 O 0.77171 0.74359 0.68294
 O569 O 0.77574 0.68193 0.76150
 O570 O 0.75629 0.78357 0.68834
 O571 O 0.78442 0.69037 0.72258
 O572 O 0.82549 0.75658 0.73524
 O573 O 0.77928 0.76585 0.72358
 O574 O 0.78755 0.72969 0.75106
 O575 O 0.73559 0.74736 0.71600
 O576 O 0.74398 0.71183 0.74188
 Zr577 Zr 0.73543 0.77340 0.78141
 Zr578 Zr 0.74464 0.78507 0.72384
 Zr579 Zr 0.76118 0.71599 0.77525
 Zr580 Zr 0.79527 0.76765 0.75742
 O581 O 0.73728 0.68593 0.78602
 O582 O 0.81046 0.80125 0.74248
 O583 O 0.77022 0.75376 0.78331
 O584 O 0.76169 0.78876 0.75722
 O585 O 0.71793 0.77157 0.74806
 O586 O 0.72669 0.73524 0.77535
 C587 C 0.82708 0.74127 0.71748
 C588 C 0.78467 0.67573 0.74102
 C589 C 0.76574 0.76594 0.67536
 O590 O 0.76640 0.81780 0.71638
 O591 O 0.72554 0.81723 0.73644
 O592 O 0.71891 0.80972 0.77586
 C593 C 0.71680 0.82352 0.75695
 O594 O 0.70407 0.70524 0.71535
 Zr595 Zr 0.71054 0.73341 0.74165
 O596 O 0.69701 0.77233 0.79032
 O597 O 0.71314 0.79231 0.70158
 O598 O 0.68345 0.74784 0.71731
 O599 O 0.69255 0.70186 0.75777
 O600 O 0.67980 0.74802 0.76101
 C601 C 0.67809 0.76249 0.77933
 O602 O 0.74952 0.80000 0.80627
 O603 O 0.79411 0.70561 0.79444
 O604 O 0.73632 0.75850 0.81660
 O605 O 0.75620 0.72042 0.81188
 O606 O 0.82388 0.75216 0.77954
 O607 O 0.80327 0.79238 0.78628
 C608 C 0.74633 0.73789 0.82479
 H609 H 0.80332 0.71963 0.75220
 H610 H 0.76535 0.80671 0.76100
 H611 H 0.71515 0.72828 0.78759
 H612 H 0.72781 0.74570 0.70007
 H613 H 0.82900 0.80098 0.74522
 H614 H 0.75685 0.82775 0.70442
 H615 H 0.71641 0.80869 0.69352
 H616 H 0.66710 0.73930 0.72062
 H617 H 0.83996 0.76098 0.77573
 H618 H 0.79034 0.68946 0.80271
 H619 H 0.74704 0.67574 0.79762
 H620 H 0.67425 0.70299 0.75398
 H621 H 0.82081 0.79883 0.78479
 H622 H 0.73507 0.80504 0.81651
 H623 H 0.76991 0.69720 0.68167
 H624 H 0.68576 0.70122 0.71464
 Zr625 Zr 0.22983 0.22772 0.78230
 O626 O 0.24450 0.20253 0.80814
 O627 O 0.19161 0.22908 0.79153
 O628 O 0.22829 0.24364 0.81704
 O629 O 0.22426 0.18199 0.73848
 O630 O 0.24371 0.28362 0.81165
 O631 O 0.21558 0.19042 0.77741
 O632 O 0.17450 0.25663 0.76474
 O633 O 0.22072 0.26590 0.77640
 O634 O 0.21245 0.22974 0.74893
 O635 O 0.26441 0.24740 0.78398
 O636 O 0.25601 0.21188 0.75811
 Zr637 Zr 0.26457 0.27346 0.71858
 Zr638 Zr 0.25536 0.28512 0.77615
 Zr639 Zr 0.23882 0.21604 0.72474
 Zr640 Zr 0.20473 0.26771 0.74257
 O641 O 0.26272 0.18598 0.71396
 O642 O 0.18954 0.30131 0.75751
 O643 O 0.22978 0.25381 0.71668
 O644 O 0.23831 0.28881 0.74277
 O645 O 0.28206 0.27162 0.75192
 O646 O 0.27331 0.23529 0.72463
 C647 C 0.17292 0.24132 0.78250
 C648 C 0.21532 0.17578 0.75897
 C649 C 0.23426 0.26598 0.82463
 O650 O 0.23361 0.31785 0.78362
 O651 O 0.27446 0.31728 0.76355
 O652 O 0.28109 0.30978 0.72413
 C653 C 0.28320 0.32357 0.74304
 O654 O 0.29593 0.20528 0.78463
 Zr655 Zr 0.28946 0.23346 0.75834
 O656 O 0.30299 0.27238 0.70966
 O657 O 0.28687 0.29236 0.79841
 O658 O 0.31655 0.24788 0.78268
 O659 O 0.30744 0.20191 0.74221
 O660 O 0.32020 0.24807 0.73898
 C661 C 0.32191 0.26255 0.72066
 O662 O 0.25048 0.30005 0.69372
 O663 O 0.20588 0.20566 0.70555
 O664 O 0.26367 0.25855 0.68339
 O665 O 0.24379 0.22047 0.68810
 O666 O 0.17611 0.25222 0.72045
 O667 O 0.19673 0.29244 0.71371
 C668 C 0.25366 0.23795 0.67520
 H669 H 0.19668 0.21968 0.74779
 H670 H 0.23465 0.30676 0.73899
 H671 H 0.28485 0.22833 0.71239
 H672 H 0.27219 0.24575 0.79992
 H673 H 0.17100 0.30104 0.75477
 H674 H 0.24316 0.32780 0.79557
 H675 H 0.28359 0.30873 0.80647
 H676 H 0.33289 0.23934 0.77937
 H677 H 0.16004 0.26104 0.72426
 H678 H 0.20966 0.18952 0.69727
 H679 H 0.25295 0.17579 0.70236
 H680 H 0.32574 0.20304 0.74600
 H681 H 0.17919 0.29889 0.71520
 H682 H 0.26493 0.30509 0.68348
 H683 H 0.23009 0.19725 0.81832
 H684 H 0.31423 0.20126 0.78535
 Zr685 Zr 0.27017 0.77228 0.28230
 O686 O 0.25550 0.79747 0.30814
 O687 O 0.30839 0.77092 0.29153
 O688 O 0.27171 0.75636 0.31704
 O689 O 0.27574 0.81802 0.23849
 O690 O 0.25628 0.71638 0.31165
 O691 O 0.28442 0.80958 0.27741
 O692 O 0.32549 0.74337 0.26475
 O693 O 0.27928 0.73410 0.27641
 O694 O 0.28755 0.77026 0.24893
 O695 O 0.23559 0.75260 0.28399
 O696 O 0.24399 0.78813 0.25811
 Zr697 Zr 0.23543 0.72655 0.21858
 Zr698 Zr 0.24464 0.71488 0.27615
 Zr699 Zr 0.26118 0.78396 0.22474
 Zr700 Zr 0.29527 0.73230 0.24257
 O701 O 0.23728 0.81402 0.21397
 O702 O 0.31046 0.69870 0.25752
 O703 O 0.27022 0.74619 0.21668
 O704 O 0.26169 0.71119 0.24277
 O705 O 0.21793 0.72839 0.25192
 O706 O 0.22669 0.76471 0.22464
 C707 C 0.32708 0.75868 0.28251
 C708 C 0.28468 0.82422 0.25897
 C709 C 0.26574 0.73402 0.32463
 O710 O 0.26639 0.68216 0.28362
 O711 O 0.22554 0.68272 0.26355
 O712 O 0.21891 0.69023 0.22413
 C713 C 0.21680 0.67643 0.24305
 O714 O 0.20407 0.79472 0.28463
 Zr715 Zr 0.21054 0.76654 0.25834
 O716 O 0.19701 0.72762 0.20967
 O717 O 0.21313 0.70765 0.29841
 O718 O 0.18345 0.75212 0.28268
 O719 O 0.19256 0.79809 0.24221
 O720 O 0.17980 0.75194 0.23898
 C721 C 0.17809 0.73746 0.22066
 O722 O 0.24952 0.69995 0.19373
 O723 O 0.29412 0.79434 0.20555
 O724 O 0.23633 0.74145 0.18339
 O725 O 0.25621 0.77953 0.18811
 O726 O 0.32389 0.74779 0.22045
 O727 O 0.30327 0.70757 0.21371
 C728 C 0.24634 0.76205 0.17520
 H729 H 0.30332 0.78032 0.24779
 H730 H 0.26535 0.69324 0.23899
 H731 H 0.21515 0.77167 0.21239
 H732 H 0.22781 0.75426 0.29992
 H733 H 0.32900 0.69896 0.25477
 H734 H 0.25684 0.67221 0.29557
 H735 H 0.21641 0.69127 0.30647
 H736 H 0.16710 0.76066 0.27937
 H737 H 0.33996 0.73897 0.22426
 H738 H 0.29034 0.81049 0.19727
 H739 H 0.24705 0.82421 0.20236
 H740 H 0.17426 0.79696 0.24600
 H741 H 0.32081 0.70112 0.21521
 H742 H 0.23507 0.69491 0.18348
 H743 H 0.26991 0.80276 0.31832
 H744 H 0.18577 0.79874 0.28535
 Zr745 Zr 0.22983 0.77232 0.71769
 O746 O 0.24450 0.79751 0.69185
 O747 O 0.19161 0.77096 0.70846
 O748 O 0.22829 0.75640 0.68295
 O749 O 0.22426 0.81806 0.76150
 O750 O 0.24371 0.71642 0.68834
 O751 O 0.21558 0.80962 0.72258
 O752 O 0.17450 0.74342 0.73525
 O753 O 0.22072 0.73415 0.72359
 O754 O 0.21245 0.77031 0.75106
 O755 O 0.26441 0.75264 0.71600
 O756 O 0.25602 0.78817 0.74188
 Zr757 Zr 0.26457 0.72659 0.78141
 Zr758 Zr 0.25536 0.71492 0.72384
 Zr759 Zr 0.23882 0.78401 0.77525
 Zr760 Zr 0.20473 0.73234 0.75742
 O761 O 0.26272 0.81407 0.78602
 O762 O 0.18954 0.69874 0.74248
 O763 O 0.22978 0.74624 0.78331
 O764 O 0.23831 0.71123 0.75722
 O765 O 0.28206 0.72843 0.74806
 O766 O 0.27331 0.76476 0.77535
 C767 C 0.17292 0.75873 0.71749
 C768 C 0.21532 0.82427 0.74102
 C769 C 0.23426 0.73406 0.67536
 O770 O 0.23360 0.68220 0.71638
 O771 O 0.27446 0.68277 0.73644
 O772 O 0.28109 0.69027 0.77586
 C773 C 0.28320 0.67647 0.75695
 O774 O 0.29593 0.79476 0.71535
 Zr775 Zr 0.28946 0.76658 0.74165
 O776 O 0.30299 0.72767 0.79032
 O777 O 0.28686 0.70769 0.70158
 O778 O 0.31655 0.75216 0.71731
 O779 O 0.30745 0.79813 0.75777
 O780 O 0.32020 0.75198 0.76101
 C781 C 0.32191 0.73751 0.77932
 O782 O 0.25048 0.70000 0.80627
 O783 O 0.20589 0.79439 0.79444
 O784 O 0.26368 0.74150 0.81660
 O785 O 0.24380 0.77958 0.81188
 O786 O 0.17612 0.74784 0.77954
 O787 O 0.19673 0.70762 0.78628
 C788 C 0.25367 0.76211 0.82479
 H789 H 0.19668 0.78037 0.75220
 H790 H 0.23465 0.69329 0.76100
 H791 H 0.28485 0.77172 0.78759
 H792 H 0.27219 0.75430 0.70007
 H793 H 0.17100 0.69901 0.74523
 H794 H 0.24315 0.67225 0.70442
 H795 H 0.28359 0.69131 0.69352
 H796 H 0.33290 0.76070 0.72062
 H797 H 0.16004 0.73902 0.77573
 H798 H 0.20966 0.81054 0.80271
 H799 H 0.25296 0.82426 0.79762
 H800 H 0.32574 0.79700 0.75398
 H801 H 0.17919 0.70117 0.78479
 H802 H 0.26493 0.69496 0.81651
 H803 H 0.23009 0.80280 0.68167
 H804 H 0.31424 0.79878 0.71463
 Zr805 Zr 0.27017 0.22768 0.21769
 O806 O 0.25550 0.20249 0.19185
 O807 O 0.30839 0.22904 0.20846
 O808 O 0.27171 0.24360 0.18295
 O809 O 0.27574 0.18194 0.26150
 O810 O 0.25629 0.28358 0.18834
 O811 O 0.28442 0.19038 0.22258
 O812 O 0.32549 0.25658 0.23525
 O813 O 0.27928 0.26586 0.22359
 O814 O 0.28755 0.22970 0.25106
 O815 O 0.23559 0.24736 0.21600
 O816 O 0.24398 0.21183 0.24188
 Zr817 Zr 0.23542 0.27341 0.28141
 Zr818 Zr 0.24464 0.28508 0.22384
 Zr819 Zr 0.26118 0.21599 0.27525
 Zr820 Zr 0.29527 0.26766 0.25742
 O821 O 0.23728 0.18594 0.28602
 O822 O 0.31045 0.30126 0.24248
 O823 O 0.27022 0.25377 0.28331
 O824 O 0.26169 0.28877 0.25722
 O825 O 0.21793 0.27157 0.24807
 O826 O 0.22669 0.23525 0.27535
 C827 C 0.32708 0.24127 0.21749
 C828 C 0.28467 0.17574 0.24102
 C829 C 0.26574 0.26594 0.17536
 O830 O 0.26639 0.31780 0.21638
 O831 O 0.22554 0.31724 0.23644
 O832 O 0.21891 0.30973 0.27586
 C833 C 0.21680 0.32353 0.25695
 O834 O 0.20407 0.20524 0.21535
 Zr835 Zr 0.21054 0.23342 0.24165
 O836 O 0.19701 0.27234 0.29032
 O837 O 0.21314 0.29232 0.20158
 O838 O 0.18345 0.24785 0.21731
 O839 O 0.19255 0.20187 0.25777
 O840 O 0.17980 0.24802 0.26101
 C841 C 0.17808 0.26250 0.27933
 O842 O 0.24952 0.30000 0.30627
 O843 O 0.29411 0.20561 0.29444
 O844 O 0.23632 0.25850 0.31660
 O845 O 0.25620 0.22042 0.31188
 O846 O 0.32388 0.25217 0.27954
 O847 O 0.30327 0.29239 0.28628
 C848 C 0.24633 0.23790 0.32479
 H849 H 0.30331 0.21963 0.25220
 H850 H 0.26535 0.30672 0.26100
 H851 H 0.21515 0.22829 0.28760
 H852 H 0.22781 0.24571 0.20007
 H853 H 0.32900 0.30099 0.24523
 H854 H 0.25685 0.32775 0.20442
 H855 H 0.21641 0.30869 0.19352
 H856 H 0.16710 0.23930 0.22062
 H857 H 0.33996 0.26099 0.27573
 H858 H 0.29033 0.18947 0.30272
 H859 H 0.24704 0.17574 0.29762
 H860 H 0.17425 0.20300 0.25398
 H861 H 0.32081 0.29884 0.28479
 H862 H 0.23507 0.30504 0.31651
 H863 H 0.26991 0.19720 0.18167
 H864 H 0.18576 0.20122 0.21464
 Zr865 Zr 0.72983 0.72772 0.28230
 O866 O 0.74450 0.70253 0.30814
 O867 O 0.69161 0.72908 0.29153
 O868 O 0.72829 0.74363 0.31704
 O869 O 0.72425 0.68198 0.23848
 O870 O 0.74371 0.78362 0.31165
 O871 O 0.71557 0.69042 0.27741
 O872 O 0.67450 0.75663 0.26475
 O873 O 0.72072 0.76590 0.27641
 O874 O 0.71245 0.72974 0.24893
 O875 O 0.76441 0.74740 0.28399
 O876 O 0.75601 0.71187 0.25811
 Zr877 Zr 0.76457 0.77345 0.21858
 Zr878 Zr 0.75536 0.78512 0.27615
 Zr879 Zr 0.73882 0.71604 0.22474
 Zr880 Zr 0.70473 0.76770 0.24257
 O881 O 0.76272 0.68598 0.21397
 O882 O 0.68954 0.80130 0.25752
 O883 O 0.72977 0.75381 0.21668
 O884 O 0.73831 0.78881 0.24277
 O885 O 0.78206 0.77161 0.25192
 O886 O 0.77330 0.73529 0.22464
 C887 C 0.67292 0.74132 0.28251
 C888 C 0.71532 0.67578 0.25897
 C889 C 0.73426 0.76598 0.32463
 O890 O 0.73360 0.81784 0.28362
 O891 O 0.77446 0.81728 0.26355
 O892 O 0.78109 0.80977 0.22413
 C893 C 0.78320 0.82357 0.24305
 O894 O 0.79593 0.70528 0.28463
 Zr895 Zr 0.78946 0.73346 0.25834
 O896 O 0.80298 0.77238 0.20967
 O897 O 0.78686 0.79235 0.29841
 O898 O 0.81655 0.74788 0.28268
 O899 O 0.80744 0.70191 0.24221
 O900 O 0.82020 0.74806 0.23898
 C901 C 0.82191 0.76254 0.22066
 O902 O 0.75048 0.80005 0.19373
 O903 O 0.70588 0.70566 0.20555
 O904 O 0.76367 0.75855 0.18339
 O905 O 0.74379 0.72047 0.18811
 O906 O 0.67611 0.75221 0.22045
 O907 O 0.69673 0.79243 0.21371
 C908 C 0.75366 0.73794 0.17520
 H909 H 0.69668 0.71967 0.24779
 H910 H 0.73465 0.80676 0.23899
 H911 H 0.78485 0.72833 0.21239
 H912 H 0.77219 0.74574 0.29992
 H913 H 0.67100 0.80103 0.25477
 H914 H 0.74315 0.82779 0.29557
 H915 H 0.78359 0.80873 0.30647
 H916 H 0.83289 0.73934 0.27937
 H917 H 0.66004 0.76103 0.22426
 H918 H 0.70966 0.68951 0.19727
 H919 H 0.75295 0.67579 0.20236
 H920 H 0.82574 0.70304 0.24600
 H921 H 0.67918 0.79888 0.21521
 H922 H 0.76493 0.80509 0.18348
 H923 H 0.73009 0.69724 0.31832
 H924 H 0.81423 0.70126 0.28535
 Zr925 Zr 0.77017 0.27227 0.78230
 O926 O 0.75550 0.29746 0.80814
 O927 O 0.80839 0.27091 0.79153
 O928 O 0.77171 0.25636 0.81704
 O929 O 0.77574 0.31801 0.73848
 O930 O 0.75628 0.21638 0.81165
 O931 O 0.78442 0.30957 0.77741
 O932 O 0.82550 0.24336 0.76474
 O933 O 0.77928 0.23410 0.77640
 O934 O 0.78755 0.27025 0.74893
 O935 O 0.73559 0.25259 0.78398
 O936 O 0.74399 0.28812 0.75811
 Zr937 Zr 0.73543 0.22654 0.71858
 Zr938 Zr 0.74464 0.21488 0.77615
 Zr939 Zr 0.76118 0.28396 0.72473
 Zr940 Zr 0.79527 0.23229 0.74257
 O941 O 0.73728 0.31401 0.71396
 O942 O 0.81046 0.19869 0.75752
 O943 O 0.77022 0.24618 0.71668
 O944 O 0.76169 0.21118 0.74277
 O945 O 0.71794 0.22838 0.75192
 O946 O 0.72669 0.26470 0.72463
 C947 C 0.82708 0.25868 0.78250
 C948 C 0.78468 0.32421 0.75896
 C949 C 0.76574 0.23401 0.82463
 O950 O 0.76639 0.18215 0.78362
 O951 O 0.72554 0.18272 0.76355
 O952 O 0.71891 0.19022 0.72413
 C953 C 0.71680 0.17642 0.74304
 O954 O 0.70407 0.29472 0.78463
 Zr955 Zr 0.71054 0.26653 0.75834
 O956 O 0.69701 0.22761 0.70966
 O957 O 0.71313 0.20764 0.79841
 O958 O 0.68345 0.25211 0.78268
 O959 O 0.69256 0.29808 0.74221
 O960 O 0.67980 0.25193 0.73898
 C961 C 0.67809 0.23745 0.72066
 O962 O 0.74952 0.19994 0.69372
 O963 O 0.79412 0.29433 0.70555
 O964 O 0.73633 0.24145 0.68339
 O965 O 0.75621 0.27952 0.68810
 O966 O 0.82389 0.24778 0.72045
 O967 O 0.80327 0.20756 0.71371
 C968 C 0.74634 0.26205 0.67520
 H969 H 0.80332 0.28032 0.74779
 H970 H 0.76535 0.19323 0.73899
 H971 H 0.71515 0.27166 0.71239
 H972 H 0.72781 0.25425 0.79992
 H973 H 0.82900 0.19896 0.75477
 H974 H 0.75684 0.17220 0.79557
 H975 H 0.71641 0.19126 0.80647
 H976 H 0.66710 0.26065 0.77937
 H977 H 0.83996 0.23896 0.72426
 H978 H 0.79034 0.31048 0.69727
 H979 H 0.74705 0.32420 0.70236
 H980 H 0.67426 0.29695 0.74600
 H981 H 0.82082 0.20111 0.71520
 H982 H 0.73507 0.19490 0.68348
 H983 H 0.76991 0.30275 0.81832
 H984 H 0.68577 0.29873 0.78534
 C985 C 0.47964 0.97714 0.36049
 C986 C 0.46573 0.99794 0.35191
 C987 C 0.46162 1.01879 0.36669
 C988 C 0.47017 1.01851 0.39011
 C989 C 0.41465 1.00032 0.27136
 C990 C 0.48851 0.97692 0.38410
 C991 C 0.45368 0.99763 0.32882
 C992 C 0.44221 0.99834 0.31022
 C993 C 0.42764 0.99960 0.28907
 C994 C 0.48314 0.99737 0.39930
 H995 H 0.48289 0.96081 0.34924
 H996 H 0.45093 1.03497 0.36036
 H997 H 0.46592 1.03461 0.40137
 H998 H 0.49828 0.96036 0.39079
 C999 C -0.03839 0.51879 0.86668
 C1000 C -0.03427 0.49794 0.85190
 C1001 C -0.02035 0.47715 0.86049
 C1002 C -0.01149 0.47693 0.88410
 C1003 C -0.08535 0.50031 0.77136
 C1004 C -0.02983 0.51851 0.89011
 C1005 C -0.04632 0.49762 0.82882
 C1006 C -0.05779 0.49834 0.81022
 C1007 C -0.07236 0.49959 0.78907
 C1008 C -0.01686 0.49737 0.89930
 H1009 H -0.04907 0.53497 0.86036
 H1010 H -0.01711 0.46082 0.84924
 H1011 H -0.00172 0.46036 0.89079
 H1012 H -0.03409 0.53461 0.90137
 C1013 C 0.03839 -0.01879 0.86669
 C1014 C 0.03427 0.00206 0.85191
 C1015 C 0.02036 0.02286 0.86049
 C1016 C 0.01149 0.02307 0.88410
 C1017 C 0.08535 -0.00032 0.77136
 C1018 C 0.02983 -0.01851 0.89011
 C1019 C 0.04632 0.00237 0.82882
 C1020 C 0.05779 0.00166 0.81022
 C1021 C 0.07236 0.00040 0.78907
 C1022 C 0.01686 0.00263 0.89930
 H1023 H 0.04907 -0.03497 0.86036
 H1024 H 0.01711 0.03918 0.84924
 H1025 H 0.00172 0.03964 0.89079
 H1026 H 0.03409 -0.03461 0.90137
 C1027 C 0.52035 0.52285 0.36049
 C1028 C 0.53426 0.50206 0.35190
 C1029 C 0.53838 0.48120 0.36668
 C1030 C 0.52982 0.48149 0.39011
 C1031 C 0.58535 0.49968 0.27136
 C1032 C 0.51149 0.52307 0.38410
 C1033 C 0.54631 0.50237 0.32882
 C1034 C 0.55779 0.50165 0.31022
 C1035 C 0.57235 0.50040 0.28907
 C1036 C 0.51685 0.50262 0.39930
 H1037 H 0.51711 0.53918 0.34924
 H1038 H 0.54906 0.46502 0.36036
 H1039 H 0.53408 0.46538 0.40137
 H1040 H 0.50172 0.53964 0.39079
 C1041 C 0.52033 0.47715 0.13954
 C1042 C 0.53423 0.49796 0.14812
 C1043 C 0.53831 0.51882 0.13335
 C1044 C 0.52975 0.51853 0.10992
 C1045 C 0.58534 0.50035 0.22865
 C1046 C 0.51146 0.47693 0.11593
 C1047 C 0.54629 0.49765 0.17120
 C1048 C 0.55777 0.49837 0.18979
 C1049 C 0.57234 0.49963 0.21094
 C1050 C 0.51680 0.49738 0.10073
 H1051 H 0.51711 0.46081 0.15079
 H1052 H 0.54898 0.53501 0.13967
 H1053 H 0.53399 0.53464 0.09867
 H1054 H 0.50171 0.46035 0.10923
 C1055 C 0.03831 1.01882 0.63334
 C1056 C 0.03423 0.99796 0.64812
 C1057 C 0.02033 0.97715 0.63954
 C1058 C 0.01147 0.97693 0.61593
 C1059 C 0.08534 1.00036 0.72865
 C1060 C 0.02975 1.01853 0.60992
 C1061 C 0.04629 0.99765 0.67120
 C1062 C 0.05777 0.99837 0.68979
 C1063 C 0.07234 0.99963 0.71094
 C1064 C 0.01680 0.99738 0.60073
 H1065 H 0.04898 1.03501 0.63967
 H1066 H 0.01711 0.96081 0.65079
 H1067 H 0.00171 0.96035 0.60923
 H1068 H 0.03399 1.03464 0.59866
 C1069 C -0.02033 0.52284 0.63954
 C1070 C -0.03423 0.50204 0.64812
 C1071 C -0.03831 0.48118 0.63334
 C1072 C -0.02975 0.48146 0.60992
 C1073 C -0.08534 0.49964 0.72865
 C1074 C -0.01147 0.52307 0.61593
 C1075 C -0.04629 0.50234 0.67120
 C1076 C -0.05777 0.50162 0.68979
 C1077 C -0.07234 0.50036 0.71094
 C1078 C -0.01680 0.50261 0.60073
 H1079 H -0.01711 0.53918 0.65079
 H1080 H -0.04898 0.46498 0.63967
 H1081 H -0.03399 0.46535 0.59866
 H1082 H -0.00171 0.53964 0.60923
 C1083 C 0.46169 -0.01882 0.13335
 C1084 C 0.46577 0.00204 0.14812
 C1085 C 0.47967 0.02285 0.13954
 C1086 C 0.48853 0.02307 0.11593
 C1087 C 0.41466 -0.00035 0.22865
 C1088 C 0.47025 -0.01853 0.10992
 C1089 C 0.45371 0.00235 0.17120
 C1090 C 0.44223 0.00163 0.18979
 C1091 C 0.42766 0.00037 0.21094
 C1092 C 0.48320 0.00262 0.10073
 H1093 H 0.45102 -0.03501 0.13967
 H1094 H 0.48289 0.03919 0.15079
 H1095 H 0.49829 0.03965 0.10923
 H1096 H 0.46601 -0.03464 0.09867
 C1097 C 0.37295 0.42274 0.02675
 C1098 C 0.35629 0.42456 0.00734
 C1099 C 0.36213 0.44101 -0.01134
 C1100 C 0.38453 0.45511 -0.01098
 C1101 C 0.27293 0.36918 0.00030
 C1102 C 0.39550 0.43697 0.02719
 C1103 C 0.33347 0.40931 0.00599
 C1104 C 0.31436 0.39673 0.00411
 C1105 C 0.29195 0.38197 0.00175
 C1106 C 0.40172 0.45313 0.00813
 H1107 H 0.36871 0.41007 0.04136
 H1108 H 0.34948 0.44271 -0.02643
 H1109 H 0.38850 0.46739 -0.02594
 H1110 H 0.40832 0.43485 0.04208
 C1111 C -0.12704 0.92273 0.52674
 C1112 C -0.14371 0.92455 0.50734
 C1113 C -0.13787 0.94100 0.48866
 C1114 C -0.11547 0.95510 0.48902
 C1115 C -0.22707 0.86918 0.50030
 C1116 C -0.10450 0.93697 0.52718
 C1117 C -0.16652 0.90930 0.50599
 C1118 C -0.18564 0.89673 0.50411
 C1119 C -0.20804 0.88197 0.50175
 C1120 C -0.09828 0.95312 0.50813
 H1121 H -0.13128 0.91007 0.54136
 H1122 H -0.15052 0.94270 0.47357
 H1123 H -0.11149 0.96738 0.47406
 H1124 H -0.09168 0.93484 0.54208
 C1125 C -0.12699 0.07727 0.97328
 C1126 C -0.14366 0.07545 0.99268
 C1127 C -0.13782 0.05900 1.01136
 C1128 C -0.11542 0.04490 1.01101
 C1129 C -0.22703 0.13082 0.99972
 C1130 C -0.10445 0.06303 0.97284
 C1131 C -0.16648 0.09070 0.99404
 C1132 C -0.18559 0.10328 0.99591
 C1133 C -0.20800 0.11803 0.99827
 C1134 C -0.09823 0.04688 0.99190
 H1135 H -0.13123 0.08993 0.95867
 H1136 H -0.15047 0.05730 1.02645
 H1137 H -0.11145 0.03262 1.02597
 H1138 H -0.09163 0.06516 0.95795
 C1139 C 0.37300 0.57726 0.47328
 C1140 C 0.35634 0.57545 0.49268
 C1141 C 0.36217 0.55899 0.51136
 C1142 C 0.38457 0.54489 0.51101
 C1143 C 0.27297 0.63082 0.49972
 C1144 C 0.39555 0.56303 0.47284
 C1145 C 0.33352 0.59070 0.49404
 C1146 C 0.31441 0.60327 0.49591
 C1147 C 0.29200 0.61803 0.49827
 C1148 C 0.40176 0.54687 0.49190
 H1149 H 0.36876 0.58993 0.45867
 H1150 H 0.34952 0.55729 0.52645
 H1151 H 0.38855 0.53261 0.52597
 H1152 H 0.40837 0.56515 0.45795
 C1153 C 0.13787 0.55899 0.48866
 C1154 C 0.14371 0.57544 0.50734
 C1155 C 0.12704 0.57726 0.52674
 C1156 C 0.10449 0.56303 0.52718
 C1157 C 0.22707 0.63081 0.50030
 C1158 C 0.11547 0.54489 0.48902
 C1159 C 0.16652 0.59069 0.50598
 C1160 C 0.18563 0.60327 0.50411
 C1161 C 0.20804 0.61803 0.50175
 C1162 C 0.09828 0.54687 0.50813
 H1163 H 0.15052 0.55729 0.47357
 H1164 H 0.13128 0.58993 0.54136
 H1165 H 0.09168 0.56515 0.54208
 H1166 H 0.11149 0.53261 0.47406
 C1167 C 0.62704 0.07726 0.02675
 C1168 C 0.64371 0.07545 0.00734
 C1169 C 0.63787 0.05899 -0.01134
 C1170 C 0.61547 0.04490 -0.01098
 C1171 C 0.72707 0.13082 0.00030
 C1172 C 0.60450 0.06303 0.02719
 C1173 C 0.66653 0.09069 0.00599
 C1174 C 0.68564 0.10327 0.00411
 C1175 C 0.70804 0.11803 0.00176
 C1176 C 0.59828 0.04688 0.00813
 H1177 H 0.63128 0.08993 0.04136
 H1178 H 0.65052 0.05729 -0.02643
 H1179 H 0.61150 0.03261 -0.02594
 H1180 H 0.59168 0.06516 0.04208
 C1181 C 0.62699 0.92273 0.47328
 C1182 C 0.64366 0.92455 0.49268
 C1183 C 0.63782 0.94100 0.51137
 C1184 C 0.61542 0.95510 0.51101
 C1185 C 0.72703 0.86918 0.49972
 C1186 C 0.60445 0.93696 0.47284
 C1187 C 0.66648 0.90930 0.49404
 C1188 C 0.68559 0.89672 0.49591
 C1189 C 0.70800 0.88197 0.49827
 C1190 C 0.59823 0.95312 0.49190
 H1191 H 0.63123 0.91006 0.45867
 H1192 H 0.65047 0.94270 0.52645
 H1193 H 0.61145 0.96738 0.52597
 H1194 H 0.59163 0.93484 0.45795
 C1195 C 0.13783 0.44100 1.01136
 C1196 C 0.14366 0.42455 0.99268
 C1197 C 0.12699 0.42273 0.97328
 C1198 C 0.10445 0.43697 0.97284
 C1199 C 0.22702 0.36918 0.99972
 C1200 C 0.11542 0.45510 1.01101
 C1201 C 0.16648 0.40930 0.99404
 C1202 C 0.18559 0.39672 0.99591
 C1203 C 0.20800 0.38197 0.99827
 C1204 C 0.09823 0.45312 0.99189
 H1205 H 0.15047 0.44270 1.02645
 H1206 H 0.13123 0.41007 0.95867
 H1207 H 0.09163 0.43484 0.95795
 H1208 H 0.11145 0.46739 1.02597
 C1209 C -0.00283 0.35310 0.45456
 C1210 C -0.01963 0.35059 0.43552
 C1211 C -0.03368 0.37131 0.42757
 C1212 C -0.03043 0.39484 0.43827
 C1213 C -0.00801 0.27081 0.38300
 C1214 C 0.00048 0.37661 0.46531
 C1215 C -0.01969 0.32776 0.42211
 C1216 C -0.01782 0.30919 0.41010
 C1217 C -0.01341 0.28826 0.39557
 C1218 C -0.01292 0.39782 0.45694
 H1219 H 0.00834 0.33709 0.46054
 H1220 H -0.04647 0.36947 0.41260
 H1221 H -0.04123 0.41075 0.43157
 H1222 H 0.01396 0.37826 0.47974
 C1223 C 0.46632 -0.12869 -0.07243
 C1224 C 0.48037 -0.14941 -0.06448
 C1225 C 0.49717 -0.14690 -0.04544
 C1226 C 0.50049 -0.12339 -0.03469
 C1227 C 0.49199 -0.22919 -0.11700
 C1228 C 0.46957 -0.10516 -0.06172
 C1229 C 0.48032 -0.17224 -0.07789
 C1230 C 0.48219 -0.19081 -0.08990
 C1231 C 0.48659 -0.21173 -0.10443
 C1232 C 0.48708 -0.10218 -0.04306
 H1233 H 0.45353 -0.13053 -0.08739
 H1234 H 0.50835 -0.16290 -0.03946
 H1235 H 0.51396 -0.12173 -0.02026
 H1236 H 0.45877 -0.08924 -0.06842
 C1237 C 0.03372 -0.12869 1.07246
 C1238 C 0.01968 -0.14941 1.06450
 C1239 C 0.00289 -0.14690 1.04545
 C1240 C -0.00043 -0.12339 1.03471
 C1241 C 0.00802 -0.22919 1.11701
 C1242 C 0.03046 -0.10516 1.06176
 C1243 C 0.01972 -0.17224 1.07791
 C1244 C 0.01785 -0.19081 1.08992
 C1245 C 0.01343 -0.21174 1.10445
 C1246 C 0.01297 -0.10218 1.04308
 H1247 H 0.04650 -0.13053 1.08744
 H1248 H -0.00828 -0.16290 1.03947
 H1249 H -0.01389 -0.12174 1.02027
 H1250 H 0.04125 -0.08924 1.06847
 C1251 C 0.50289 0.35309 0.54545
 C1252 C 0.51967 0.35058 0.56450
 C1253 C 0.53371 0.37130 0.57246
 C1254 C 0.53046 0.39484 0.56176
 C1255 C 0.50802 0.27080 0.61701
 C1256 C 0.49957 0.37661 0.53471
 C1257 C 0.51972 0.32775 0.57791
 C1258 C 0.51784 0.30918 0.58991
 C1259 C 0.51343 0.28825 0.60445
 C1260 C 0.51297 0.39782 0.54308
 H1261 H 0.49172 0.33709 0.53946
 H1262 H 0.54650 0.36946 0.58743
 H1263 H 0.54125 0.41075 0.56847
 H1264 H 0.48611 0.37826 0.52027
 C1265 C 0.46628 1.12869 0.57246
 C1266 C 0.48032 1.14941 0.56450
 C1267 C 0.49711 1.14690 0.54545
 C1268 C 0.50042 1.12339 0.53471
 C1269 C 0.49198 1.22919 0.61701
 C1270 C 0.46954 1.10515 0.56176
 C1271 C 0.48027 1.17224 0.57791
 C1272 C 0.48215 1.19081 0.58992
 C1273 C 0.48656 1.21174 0.60445
 C1274 C 0.48703 1.10218 0.54308
 H1275 H 0.45350 1.13053 0.58744
 H1276 H 0.50827 1.16290 0.53946
 H1277 H 0.51389 1.12174 0.52027
 H1278 H 0.45875 1.08924 0.56847
 C1279 C -0.03371 0.62869 1.07246
 C1280 C -0.01967 0.64942 1.06450
 C1281 C -0.00289 0.64691 1.04545
 C1282 C 0.00043 0.62339 1.03471
 C1283 C -0.00802 0.72920 1.11701
 C1284 C -0.03046 0.60516 1.06176
 C1285 C -0.01972 0.67225 1.07791
 C1286 C -0.01784 0.69082 1.08991
 C1287 C -0.01343 0.71174 1.10445
 C1288 C -0.01297 0.60218 1.04308
 H1289 H -0.04650 0.63053 1.08743
 H1290 H 0.00828 0.66291 1.03947
 H1291 H 0.01389 0.62174 1.02027
 H1292 H -0.04125 0.58924 1.06847
 C1293 C 0.53368 0.62869 -0.07243
 C1294 C 0.51963 0.64941 -0.06448
 C1295 C 0.50283 0.64690 -0.04544
 C1296 C 0.49951 0.62339 -0.03469
 C1297 C 0.50801 0.72919 -0.11700
 C1298 C 0.53042 0.60516 -0.06173
 C1299 C 0.51968 0.67224 -0.07789
 C1300 C 0.51781 0.69081 -0.08990
 C1301 C 0.51341 0.71174 -0.10443
 C1302 C 0.51292 0.60218 -0.04306
 H1303 H 0.54647 0.63053 -0.08739
 H1304 H 0.49165 0.66290 -0.03946
 H1305 H 0.48604 0.62174 -0.02026
 H1306 H 0.54122 0.58924 -0.06843
 C1307 C 0.00283 1.14690 0.45456
 C1308 C 0.01963 1.14941 0.43552
 C1309 C 0.03368 1.12869 0.42757
 C1310 C 0.03043 1.10515 0.43827
 C1311 C 0.00801 1.22919 0.38300
 C1312 C -0.00048 1.12339 0.46531
 C1313 C 0.01969 1.17224 0.42211
 C1314 C 0.01781 1.19081 0.41010
 C1315 C 0.01341 1.21173 0.39557
 C1316 C 0.01292 1.10218 0.45694
 H1317 H -0.00834 1.16290 0.46054
 H1318 H 0.04647 1.13053 0.41260
 H1319 H 0.04123 1.08924 0.43157
 H1320 H -0.01396 1.12173 0.47974
 C1321 C 0.72715 0.72964 0.88952
 C1322 C 0.74794 0.71573 0.89810
 C1323 C 0.76879 0.71161 0.88332
 C1324 C 0.76851 0.72016 0.85989
 C1325 C 0.75032 0.66465 0.97865
 C1326 C 0.72693 0.73850 0.86591
 C1327 C 0.74763 0.70368 0.92119
 C1328 C 0.74834 0.69220 0.93979
 C1329 C 0.74960 0.67764 0.96094
 C1330 C 0.74737 0.73314 0.85071
 H1331 H 0.71082 0.73289 0.90077
 H1332 H 0.78497 0.70092 0.88965
 H1333 H 0.78461 0.71591 0.84864
 H1334 H 0.71036 0.74828 0.85922
 C1335 C 0.26879 0.21162 0.38332
 C1336 C 0.24794 0.21573 0.39810
 C1337 C 0.22714 0.22964 0.38952
 C1338 C 0.22693 0.23851 0.36591
 C1339 C 0.25032 0.16465 0.47865
 C1340 C 0.26851 0.22017 0.35990
 C1341 C 0.24763 0.20368 0.42119
 C1342 C 0.24834 0.19221 0.43979
 C1343 C 0.24960 0.17764 0.46094
 C1344 C 0.24737 0.23314 0.35071
 H1345 H 0.28497 0.20093 0.38965
 H1346 H 0.21081 0.23289 0.40077
 H1347 H 0.21036 0.24828 0.35922
 H1348 H 0.28461 0.21592 0.34864
 C1349 C 0.77285 0.27035 0.38952
 C1350 C 0.75206 0.28427 0.39810
 C1351 C 0.73121 0.28838 0.38332
 C1352 C 0.73149 0.27982 0.35990
 C1353 C 0.74968 0.33535 0.47865
 C1354 C 0.77307 0.26149 0.36591
 C1355 C 0.75237 0.29632 0.42119
 C1356 C 0.75166 0.30779 0.43979
 C1357 C 0.75040 0.32235 0.46094
 C1358 C 0.75263 0.26685 0.35071
 H1359 H 0.78918 0.26711 0.40077
 H1360 H 0.71502 0.29906 0.38965
 H1361 H 0.71539 0.28408 0.34864
 H1362 H 0.78964 0.25172 0.35922
 C1363 C 0.27286 0.77036 0.88952
 C1364 C 0.25206 0.78427 0.89810
 C1365 C 0.23121 0.78839 0.88332
 C1366 C 0.23149 0.77983 0.85989
 C1367 C 0.24968 0.83535 0.97865
 C1368 C 0.27307 0.76149 0.86591
 C1369 C 0.25238 0.79632 0.92119
 C1370 C 0.25166 0.80779 0.93979
 C1371 C 0.25040 0.82236 0.96094
 C1372 C 0.25263 0.76686 0.85071
 H1373 H 0.28918 0.76711 0.90077
 H1374 H 0.21503 0.79907 0.88965
 H1375 H 0.21539 0.78409 0.84864
 H1376 H 0.28964 0.75172 0.85922
 C1377 C 0.26882 0.78832 0.11667
 C1378 C 0.24796 0.78423 0.10189
 C1379 C 0.22715 0.77034 0.11047
 C1380 C 0.22693 0.76147 0.13408
 C1381 C 0.25036 0.83534 0.02136
 C1382 C 0.26853 0.77976 0.14009
 C1383 C 0.24765 0.79629 0.07881
 C1384 C 0.24837 0.80777 0.06022
 C1385 C 0.24963 0.82234 0.03907
 C1386 C 0.24738 0.76681 0.14928
 H1387 H 0.28501 0.79899 0.11034
 H1388 H 0.21082 0.76711 0.09922
 H1389 H 0.21035 0.75171 0.14078
 H1390 H 0.28464 0.78399 0.15135
 C1391 C 0.76882 0.28831 0.61666
 C1392 C 0.74796 0.28422 0.60189
 C1393 C 0.72715 0.27033 0.61047
 C1394 C 0.72693 0.26146 0.63408
 C1395 C 0.75035 0.33534 0.52136
 C1396 C 0.76853 0.27975 0.64009
 C1397 C 0.74765 0.29629 0.57881
 C1398 C 0.74837 0.30777 0.56021
 C1399 C 0.74963 0.32234 0.53907
 C1400 C 0.74738 0.26680 0.64928
 H1401 H 0.78501 0.29898 0.61034
 H1402 H 0.71081 0.26711 0.59922
 H1403 H 0.71035 0.25171 0.64077
 H1404 H 0.78464 0.28398 0.65134
 C1405 C 0.27285 0.22966 0.61047
 C1406 C 0.25204 0.21577 0.60189
 C1407 C 0.23118 0.21169 0.61666
 C1408 C 0.23147 0.22025 0.64009
 C1409 C 0.24965 0.16466 0.52136
 C1410 C 0.27307 0.23853 0.63408
 C1411 C 0.25235 0.20371 0.57881
 C1412 C 0.25163 0.19223 0.56022
 C1413 C 0.25037 0.17766 0.53907
 C1414 C 0.25262 0.23320 0.64928
 H1415 H 0.28919 0.23288 0.59922
 H1416 H 0.21499 0.20102 0.61034
 H1417 H 0.21536 0.21601 0.65134
 H1418 H 0.28965 0.24829 0.64078
 C1419 C 0.73118 0.71168 0.11667
 C1420 C 0.75204 0.71577 0.10189
 C1421 C 0.77285 0.72966 0.11047
 C1422 C 0.77307 0.73853 0.13408
 C1423 C 0.74964 0.66466 0.02136
 C1424 C 0.73147 0.72024 0.14009
 C1425 C 0.75235 0.70371 0.07881
 C1426 C 0.75163 0.69223 0.06022
 C1427 C 0.75037 0.67766 0.03907
 C1428 C 0.75262 0.73319 0.14928
 H1429 H 0.71499 0.70101 0.11034
 H1430 H 0.78918 0.73289 0.09922
 H1431 H 0.78965 0.74829 0.14078
 H1432 H 0.71536 0.71600 0.15135
 C1433 C 0.19100 0.61213 0.26135
 C1434 C 0.17455 0.60629 0.24267
 C1435 C 0.17273 0.62296 0.22327
 C1436 C 0.18697 0.64551 0.22283
 C1437 C 0.11918 0.52293 0.24971
 C1438 C 0.20510 0.63453 0.26099
 C1439 C 0.15930 0.58348 0.24402
 C1440 C 0.14672 0.56436 0.24590
 C1441 C 0.13197 0.54196 0.24825
 C1442 C 0.20312 0.65172 0.24188
 H1443 H 0.19270 0.59948 0.27644
 H1444 H 0.16007 0.61872 0.20865
 H1445 H 0.18484 0.65833 0.20793
 H1446 H 0.21739 0.63851 0.27595
 C1447 C 0.67273 0.12295 0.72326
 C1448 C 0.67455 0.10629 0.74267
 C1449 C 0.69100 0.11212 0.76135
 C1450 C 0.70510 0.13453 0.76099
 C1451 C 0.61918 0.02292 0.74971
 C1452 C 0.68697 0.14550 0.72282
 C1453 C 0.65930 0.08347 0.74402
 C1454 C 0.64673 0.06436 0.74590
 C1455 C 0.63197 0.04195 0.74825
 C1456 C 0.70312 0.15172 0.74188
 H1457 H 0.66007 0.11871 0.70865
 H1458 H 0.69271 0.09948 0.77643
 H1459 H 0.71739 0.13850 0.77595
 H1460 H 0.68484 0.15832 0.70793
 C1461 C 0.82727 0.12300 0.27673
 C1462 C 0.82545 0.10634 0.25733
 C1463 C 0.80900 0.11217 0.23865
 C1464 C 0.79490 0.13457 0.23900
 C1465 C 0.88082 0.02297 0.25029
 C1466 C 0.81303 0.14555 0.27717
 C1467 C 0.84070 0.08352 0.25597
 C1468 C 0.85328 0.06441 0.25410
 C1469 C 0.86803 0.04200 0.25174
 C1470 C 0.79688 0.15176 0.25811
 H1471 H 0.83993 0.11876 0.29134
 H1472 H 0.80730 0.09952 0.22356
 H1473 H 0.78261 0.13854 0.22404
 H1474 H 0.81516 0.15837 0.29206
 C1475 C 0.32727 0.62301 0.77673
 C1476 C 0.32545 0.60634 0.75733
 C1477 C 0.30900 0.61218 0.73865
 C1478 C 0.29490 0.63458 0.73900
 C1479 C 0.38082 0.52298 0.75029
 C1480 C 0.31303 0.64555 0.77717
 C1481 C 0.34070 0.58352 0.75597
 C1482 C 0.35328 0.56441 0.75410
 C1483 C 0.36804 0.54200 0.75174
 C1484 C 0.29688 0.65177 0.75811
 H1485 H 0.33994 0.61877 0.79134
 H1486 H 0.30730 0.59953 0.72356
 H1487 H 0.28261 0.63855 0.72404
 H1488 H 0.31516 0.65837 0.79206
 C1489 C 0.32727 0.37704 0.72326
 C1490 C 0.32545 0.39371 0.74267
 C1491 C 0.30900 0.38787 0.76135
 C1492 C 0.29490 0.36547 0.76099
 C1493 C 0.38082 0.47707 0.74971
 C1494 C 0.31303 0.35450 0.72282
 C1495 C 0.34070 0.41653 0.74402
 C1496 C 0.35327 0.43564 0.74590
 C1497 C 0.36803 0.45804 0.74825
 C1498 C 0.29688 0.34828 0.74188
 H1499 H 0.33993 0.38128 0.70865
 H1500 H 0.30729 0.40052 0.77643
 H1501 H 0.28261 0.36150 0.77595
 H1502 H 0.31516 0.34168 0.70793
 C1503 C 0.80900 0.88787 0.26135
 C1504 C 0.82545 0.89370 0.24267
 C1505 C 0.82726 0.87704 0.22327
 C1506 C 0.81303 0.85449 0.22283
 C1507 C 0.88082 0.97707 0.24971
 C1508 C 0.79490 0.86547 0.26099
 C1509 C 0.84070 0.91652 0.24402
 C1510 C 0.85327 0.93563 0.24590
 C1511 C 0.86803 0.95804 0.24826
 C1512 C 0.79688 0.84828 0.24188
 H1513 H 0.80730 0.90051 0.27644
 H1514 H 0.83993 0.88128 0.20865
 H1515 H 0.81515 0.84167 0.20793
 H1516 H 0.78261 0.86149 0.27595
 C1517 C 0.67273 0.87699 0.77673
 C1518 C 0.67455 0.89366 0.75733
 C1519 C 0.69100 0.88782 0.73865
 C1520 C 0.70510 0.86542 0.73900
 C1521 C 0.61918 0.97702 0.75029
 C1522 C 0.68697 0.85444 0.77717
 C1523 C 0.65930 0.91647 0.75597
 C1524 C 0.64672 0.93559 0.75410
 C1525 C 0.63196 0.95799 0.75174
 C1526 C 0.70312 0.84823 0.75811
 H1527 H 0.66006 0.88123 0.79134
 H1528 H 0.69270 0.90047 0.72356
 H1529 H 0.71739 0.86145 0.72404
 H1530 H 0.68484 0.84162 0.79206
 C1531 C 0.17273 0.37700 0.27673
 C1532 C 0.17455 0.39366 0.25733
 C1533 C 0.19100 0.38783 0.23865
 C1534 C 0.20510 0.36543 0.23900
 C1535 C 0.11918 0.47703 0.25029
 C1536 C 0.18696 0.35445 0.27717
 C1537 C 0.15930 0.41648 0.25597
 C1538 C 0.14672 0.43559 0.25410
 C1539 C 0.13196 0.45800 0.25174
 C1540 C 0.20312 0.34823 0.25811
 H1541 H 0.16006 0.38123 0.29134
 H1542 H 0.19270 0.40048 0.22356
 H1543 H 0.21738 0.36145 0.22404
 H1544 H 0.18484 0.34163 0.29206
 C1545 C 0.10310 0.24717 0.79545
 C1546 C 0.10059 0.23037 0.81448
 C1547 C 0.12131 0.21632 0.82243
 C1548 C 0.14484 0.21958 0.81173
 C1549 C 0.02081 0.24199 0.86700
 C1550 C 0.12661 0.25049 0.78470
 C1551 C 0.07776 0.23032 0.82789
 C1552 C 0.05919 0.23219 0.83990
 C1553 C 0.03826 0.23659 0.85444
 C1554 C 0.14782 0.23708 0.79306
 H1555 H 0.08710 0.25835 0.78947
 H1556 H 0.11947 0.20353 0.83740
 H1557 H 0.16076 0.20878 0.81843
 H1558 H 0.12827 0.26396 0.77027
 C1559 C 0.60310 0.74717 0.29545
 C1560 C 0.60059 0.73037 0.31449
 C1561 C 0.62131 0.71632 0.32244
 C1562 C 0.64484 0.71957 0.31174
 C1563 C 0.52081 0.74199 0.36701
 C1564 C 0.62661 0.75048 0.28470
 C1565 C 0.57776 0.73031 0.32790
 C1566 C 0.55919 0.73218 0.33991
 C1567 C 0.53826 0.73658 0.35444
 C1568 C 0.64782 0.73708 0.29307
 H1569 H 0.58710 0.75834 0.28947
 H1570 H 0.61947 0.70352 0.33740
 H1571 H 0.66076 0.70877 0.31844
 H1572 H 0.62826 0.76396 0.27027
 C1573 C 0.62131 0.28371 0.17755
 C1574 C 0.60059 0.26967 0.18551
 C1575 C 0.60310 0.25289 0.20456
 C1576 C 0.62661 0.24957 0.21530
 C1577 C 0.52080 0.25802 0.13300
 C1578 C 0.64484 0.28046 0.18825
 C1579 C 0.57775 0.26972 0.17211
 C1580 C 0.55918 0.26785 0.16010
 C1581 C 0.53826 0.26344 0.14557
 C1582 C 0.64782 0.26297 0.20693
 H1583 H 0.61947 0.29650 0.16258
 H1584 H 0.58709 0.24172 0.21055
 H1585 H 0.62826 0.23610 0.22974
 H1586 H 0.66076 0.29125 0.18154
 C1587 C 0.12131 0.78371 0.67755
 C1588 C 0.10059 0.76967 0.68551
 C1589 C 0.10310 0.75289 0.70456
 C1590 C 0.12661 0.74957 0.71530
 C1591 C 0.02080 0.75802 0.63300
 C1592 C 0.14484 0.78046 0.68825
 C1593 C 0.07775 0.76972 0.67211
 C1594 C 0.05918 0.76784 0.66010
 C1595 C 0.03826 0.76343 0.64556
 C1596 C 0.14782 0.76297 0.70693
 H1597 H 0.11947 0.79650 0.66258
 H1598 H 0.08709 0.74172 0.71055
 H1599 H 0.12826 0.73611 0.72974
 H1600 H 0.16076 0.79125 0.68154
 C1601 C 0.87869 0.71628 0.67755
 C1602 C 0.89941 0.73032 0.68551
 C1603 C 0.89690 0.74711 0.70456
 C1604 C 0.87339 0.75042 0.71530
 C1605 C 0.97919 0.74197 0.63300
 C1606 C 0.85516 0.71953 0.68825
 C1607 C 0.92224 0.73027 0.67210
 C1608 C 0.94082 0.73215 0.66009
 C1609 C 0.96174 0.73656 0.64556
 C1610 C 0.85218 0.73703 0.70692
 H1611 H 0.88053 0.70350 0.66257
 H1612 H 0.91291 0.75828 0.71054
 H1613 H 0.87174 0.76389 0.72974
 H1614 H 0.83924 0.70874 0.68154
 C1615 C 0.39690 0.24711 0.20456
 C1616 C 0.39941 0.23033 0.18552
 C1617 C 0.37869 0.21629 0.17755
 C1618 C 0.35516 0.21954 0.18825
 C1619 C 0.47919 0.24198 0.13300
 C1620 C 0.37339 0.25043 0.21530
 C1621 C 0.42224 0.23028 0.17211
 C1622 C 0.44082 0.23216 0.16010
 C1623 C 0.46174 0.23657 0.14557
 C1624 C 0.35218 0.23703 0.20693
 H1625 H 0.41290 0.25828 0.21055
 H1626 H 0.38053 0.20350 0.16258
 H1627 H 0.33924 0.20875 0.18154
 H1628 H 0.37174 0.26390 0.22974
 C1629 C 0.37869 0.78368 0.32244
 C1630 C 0.39941 0.76963 0.31449
 C1631 C 0.39690 0.75283 0.29545
 C1632 C 0.37339 0.74951 0.28470
 C1633 C 0.47919 0.75801 0.36701
 C1634 C 0.35516 0.78043 0.31174
 C1635 C 0.42224 0.76968 0.32790
 C1636 C 0.44081 0.76781 0.33991
 C1637 C 0.46174 0.76341 0.35444
 C1638 C 0.35218 0.76292 0.29307
 H1639 H 0.38053 0.79647 0.33740
 H1640 H 0.41290 0.74166 0.28947
 H1641 H 0.37173 0.73604 0.27027
 H1642 H 0.33924 0.79122 0.31844
 C1643 C 0.89690 0.25283 0.79545
 C1644 C 0.89941 0.26963 0.81448
 C1645 C 0.87869 0.28368 0.82243
 C1646 C 0.85516 0.28042 0.81173
 C1647 C 0.97919 0.25801 0.86701
 C1648 C 0.87339 0.24951 0.78470
 C1649 C 0.92224 0.26968 0.82789
 C1650 C 0.94081 0.26781 0.83990
 C1651 C 0.96174 0.26341 0.85444
 C1652 C 0.85218 0.26292 0.79306
 H1653 H 0.91290 0.24165 0.78947
 H1654 H 0.88053 0.29647 0.83740
 H1655 H 0.83924 0.29122 0.81843
 H1656 H 0.87173 0.23604 0.77027
 C1657 C 0.55623 1.02307 0.62936
 C1658 C 0.53979 1.01503 0.64731
 C1659 C 0.51426 1.01026 0.64186
 C1660 C 0.50562 1.01240 0.61828
 C1661 C 0.58704 1.00063 0.72864
 C1662 C 0.54774 1.02500 0.60596
 C1663 C 0.55010 1.01033 0.67071
 C1664 C 0.56055 1.00654 0.68951
 C1665 C 0.57436 1.00277 0.71083
 C1666 C 0.52256 1.01902 0.60002
 H1667 H 0.57596 1.02692 0.63329
 H1668 H 0.50132 1.00403 0.65561
 H1669 H 0.48622 1.00739 0.61413
 H1670 H 0.56121 1.03017 0.59226
 C1671 C 0.05623 0.52308 1.12936
 C1672 C 0.03979 0.51503 1.14731
 C1673 C 0.01426 0.51027 1.14186
 C1674 C 0.00562 0.51241 1.11828
 C1675 C 0.08704 0.50064 1.22864
 C1676 C 0.04775 0.52501 1.10596
 C1677 C 0.05010 0.51033 1.17071
 C1678 C 0.06055 0.50655 1.18951
 C1679 C 0.07436 0.50278 1.21083
 C1680 C 0.02256 0.51903 1.10002
 H1681 H 0.07596 0.52693 1.13328
 H1682 H 0.00132 0.50404 1.15560
 H1683 H -0.01378 0.50740 1.11413
 H1684 H 0.06121 0.53018 1.09226
 C1685 C -0.05623 -0.02308 1.12936
 C1686 C -0.03979 -0.01503 1.14731
 C1687 C -0.01426 -0.01027 1.14186
 C1688 C -0.00562 -0.01240 1.11828
 C1689 C -0.08704 -0.00064 1.22864
 C1690 C -0.04775 -0.02500 1.10596
 C1691 C -0.05010 -0.01033 1.17071
 C1692 C -0.06055 -0.00655 1.18951
 C1693 C -0.07436 -0.00278 1.21083
 C1694 C -0.02256 -0.01903 1.10002
 H1695 H -0.07596 -0.02692 1.13328
 H1696 H -0.00132 -0.00403 1.15561
 H1697 H 0.01378 -0.00739 1.11413
 H1698 H -0.06121 -0.03017 1.09226
 C1699 C 0.48574 0.48973 0.64186
 C1700 C 0.46021 0.48497 0.64731
 C1701 C 0.44377 0.47692 0.62936
 C1702 C 0.45225 0.47499 0.60596
 C1703 C 0.41296 0.49937 0.72864
 C1704 C 0.49438 0.48759 0.61828
 C1705 C 0.44990 0.48967 0.67071
 C1706 C 0.43945 0.49345 0.68951
 C1707 C 0.42564 0.49722 0.71083
 C1708 C 0.47743 0.48097 0.60002
 H1709 H 0.49868 0.49597 0.65560
 H1710 H 0.42404 0.47307 0.63329
 H1711 H 0.43879 0.46982 0.59226
 H1712 H 0.51378 0.49260 0.61413
 C1713 C 0.44373 0.52308 -0.12933
 C1714 C 0.46017 0.51505 -0.14728
 C1715 C 0.48571 0.51030 -0.14183
 C1716 C 0.49435 0.51243 -0.11825
 C1717 C 0.41296 0.50068 -0.22863
 C1718 C 0.45221 0.52500 -0.10593
 C1719 C 0.44988 0.51036 -0.17069
 C1720 C 0.43943 0.50658 -0.18949
 C1721 C 0.42563 0.50282 -0.21081
 C1722 C 0.47739 0.51903 -0.09999
 H1723 H 0.42400 0.52691 -0.13326
 H1724 H 0.49866 0.50407 -0.15558
 H1725 H 0.51374 0.50743 -0.11410
 H1726 H 0.43874 0.53015 -0.09223
 C1727 C -0.05627 1.02307 0.37067
 C1728 C -0.03982 1.01504 0.35271
 C1729 C -0.01429 1.01029 0.35817
 C1730 C -0.00565 1.01242 0.38174
 C1731 C -0.08705 1.00067 0.27137
 C1732 C -0.04779 1.02499 0.39406
 C1733 C -0.05012 1.01035 0.32931
 C1734 C -0.06057 1.00657 0.31051
 C1735 C -0.07437 1.00281 0.28918
 C1736 C -0.02260 1.01903 0.40000
 H1737 H -0.07600 1.02691 0.36674
 H1738 H -0.00134 1.00407 0.34442
 H1739 H 0.01375 1.00742 0.38590
 H1740 H -0.06126 1.03015 0.40777
 C1741 C 0.05627 0.47692 0.37066
 C1742 C 0.03982 0.48495 0.35271
 C1743 C 0.01429 0.48971 0.35817
 C1744 C 0.00565 0.48758 0.38174
 C1745 C 0.08704 0.49933 0.27137
 C1746 C 0.04779 0.47500 0.39406
 C1747 C 0.05012 0.48965 0.32931
 C1748 C 0.06057 0.49342 0.31051
 C1749 C 0.07437 0.49719 0.28918
 C1750 C 0.02260 0.48097 0.40000
 H1751 H 0.07600 0.47308 0.36674
 H1752 H 0.00134 0.49593 0.34442
 H1753 H -0.01375 0.49258 0.38590
 H1754 H 0.06126 0.46984 0.40777
 C1755 C 0.51429 -0.01030 -0.14183
 C1756 C 0.53982 -0.01505 -0.14728
 C1757 C 0.55627 -0.02307 -0.12933
 C1758 C 0.54779 -0.02499 -0.10593
 C1759 C 0.58704 -0.00068 -0.22863
 C1760 C 0.50565 -0.01242 -0.11825
 C1761 C 0.55012 -0.01036 -0.17069
 C1762 C 0.56057 -0.00658 -0.18949
 C1763 C 0.57437 -0.00282 -0.21081
 C1764 C 0.52260 -0.01903 -0.09999
 H1765 H 0.50134 -0.00407 -0.15558
 H1766 H 0.57600 -0.02691 -0.13326
 H1767 H 0.56126 -0.03015 -0.09223
 H1768 H 0.48625 -0.00742 -0.11410
 C1769 C 0.62786 0.57845 -0.02830
 C1770 C 0.64503 0.57547 -0.00944
 C1771 C 0.63978 0.55779 0.00840
 C1772 C 0.61729 0.54380 0.00789
 C1773 C 0.72713 0.63239 -0.00104
 C1774 C 0.60527 0.56436 -0.02889
 C1775 C 0.66756 0.59106 -0.00766
 C1776 C 0.68635 0.60405 -0.00554
 C1777 C 0.70836 0.61931 -0.00288
 C1778 C 0.59948 0.54717 -0.01053
 H1779 H 0.63165 0.59208 -0.04225
 H1780 H 0.65284 0.55519 0.02306
 H1781 H 0.61358 0.53073 0.02232
 H1782 H 0.59195 0.56761 -0.04322
 C1783 C 0.13978 1.05778 0.50840
 C1784 C 0.14503 1.07547 0.49056
 C1785 C 0.12787 1.07845 0.47170
 C1786 C 0.10528 1.06436 0.47110
 C1787 C 0.22713 1.13239 0.49896
 C1788 C 0.11729 1.04380 0.50789
 C1789 C 0.16756 1.09106 0.49233
 C1790 C 0.18635 1.10405 0.49446
 C1791 C 0.20836 1.11931 0.49712
 C1792 C 0.09949 1.04717 0.48947
 H1793 H 0.15284 1.05519 0.52306
 H1794 H 0.13166 1.09207 0.45774
 H1795 H 0.09195 1.06760 0.45678
 H1796 H 0.11359 1.03073 0.52232
 C1797 C 0.12791 -0.07845 1.02833
 C1798 C 0.14508 -0.07546 1.00948
 C1799 C 0.13983 -0.05777 0.99164
 C1800 C 0.11734 -0.04379 0.99215
 C1801 C 0.22717 -0.13239 1.00106
 C1802 C 0.10532 -0.06436 1.02893
 C1803 C 0.16761 -0.09106 1.00770
 C1804 C 0.18640 -0.10405 1.00557
 C1805 C 0.20840 -0.11930 1.00290
 C1806 C 0.09954 -0.04717 1.01057
 H1807 H 0.13170 -0.09208 1.04228
 H1808 H 0.15289 -0.05517 0.97698
 H1809 H 0.11364 -0.03071 0.97773
 H1810 H 0.09200 -0.06761 1.04325
 C1811 C 0.62791 0.42154 0.52833
 C1812 C 0.64508 0.42453 0.50948
 C1813 C 0.63982 0.44222 0.49164
 C1814 C 0.61733 0.45621 0.49214
 C1815 C 0.72717 0.36760 0.50106
 C1816 C 0.60532 0.43564 0.52893
 C1817 C 0.66760 0.40894 0.50769
 C1818 C 0.68639 0.39595 0.50556
 C1819 C 0.70840 0.38070 0.50290
 C1820 C 0.59953 0.45283 0.51056
 H1821 H 0.63170 0.40792 0.54228
 H1822 H 0.65289 0.44482 0.47698
 H1823 H 0.61363 0.46928 0.47772
 H1824 H 0.59199 0.43239 0.54324
 C1825 C -0.12787 0.42154 0.47170
 C1826 C -0.14503 0.42453 0.49055
 C1827 C -0.13978 0.44221 0.50840
 C1828 C -0.11729 0.45620 0.50789
 C1829 C -0.22713 0.36760 0.49896
 C1830 C -0.10528 0.43564 0.47110
 C1831 C -0.16756 0.40893 0.49233
 C1832 C -0.18635 0.39594 0.49446
 C1833 C -0.20836 0.38069 0.49712
 C1834 C -0.09949 0.45282 0.48947
 H1835 H -0.13166 0.40792 0.45774
 H1836 H -0.15284 0.44481 0.52306
 H1837 H -0.11359 0.46927 0.52232
 H1838 H -0.09196 0.43239 0.45678
 C1839 C 0.36022 -0.05778 0.00840
 C1840 C 0.35497 -0.07547 -0.00944
 C1841 C 0.37213 -0.07845 -0.02830
 C1842 C 0.39473 -0.06436 -0.02890
 C1843 C 0.27287 -0.13240 -0.00104
 C1844 C 0.38271 -0.04380 0.00789
 C1845 C 0.33244 -0.09106 -0.00766
 C1846 C 0.31365 -0.10405 -0.00554
 C1847 C 0.29164 -0.11931 -0.00288
 C1848 C 0.40051 -0.04717 -0.01053
 H1849 H 0.34716 -0.05519 0.02306
 H1850 H 0.36835 -0.09207 -0.04225
 H1851 H 0.40805 -0.06761 -0.04322
 H1852 H 0.38642 -0.03073 0.02232
 C1853 C 0.36017 1.05777 0.49164
 C1854 C 0.35492 1.07546 0.50948
 C1855 C 0.37209 1.07845 0.52833
 C1856 C 0.39468 1.06436 0.52893
 C1857 C 0.27283 1.13239 0.50106
 C1858 C 0.38266 1.04379 0.49215
 C1859 C 0.33239 1.09106 0.50770
 C1860 C 0.31361 1.10405 0.50557
 C1861 C 0.29160 1.11930 0.50290
 C1862 C 0.40046 1.04716 0.51057
 H1863 H 0.34711 1.05517 0.47698
 H1864 H 0.36830 1.09208 0.54228
 H1865 H 0.40800 1.06761 0.54325
 H1866 H 0.38636 1.03071 0.47772
 C1867 C -0.12791 0.57845 1.02833
 C1868 C -0.14508 0.57546 1.00948
 C1869 C -0.13983 0.55778 0.99164
 C1870 C -0.11734 0.54379 0.99215
 C1871 C -0.22717 0.63239 1.00106
 C1872 C -0.10532 0.56436 1.02893
 C1873 C -0.16761 0.59106 1.00770
 C1874 C -0.18639 0.60405 1.00557
 C1875 C -0.20840 0.61930 1.00290
 C1876 C -0.09953 0.54717 1.01057
 H1877 H -0.13170 0.59208 1.04228
 H1878 H -0.15289 0.55517 0.97698
 H1879 H -0.11364 0.53071 0.97772
 H1880 H -0.09200 0.56761 1.04324
 C1881 C 0.03492 0.62506 0.56894
 C1882 C 0.02527 0.64602 0.55679
 C1883 C 0.01305 0.64299 0.53498
 C1884 C 0.00950 0.61884 0.52572
 C1885 C 0.00825 0.72905 0.60327
 C1886 C 0.03147 0.60083 0.55969
 C1887 C 0.02397 0.66992 0.56841
 C1888 C 0.02064 0.68938 0.57881
 C1889 C 0.01459 0.71115 0.59166
 C1890 C 0.01807 0.59746 0.53831
 H1891 H 0.04410 0.62735 0.58604
 H1892 H 0.00524 0.65919 0.52567
 H1893 H -0.00061 0.61691 0.50907
 H1894 H 0.03848 0.58475 0.56967
 C1895 C 0.53492 0.12507 0.06894
 C1896 C 0.52527 0.14603 0.05679
 C1897 C 0.51304 0.14300 0.03498
 C1898 C 0.50950 0.11884 0.02573
 C1899 C 0.50825 0.22905 0.10327
 C1900 C 0.53147 0.10083 0.05969
 C1901 C 0.52397 0.16993 0.06841
 C1902 C 0.52063 0.18939 0.07881
 C1903 C 0.51459 0.21116 0.09166
 C1904 C 0.51807 0.09747 0.03831
 H1905 H 0.54410 0.12735 0.08604
 H1906 H 0.50524 0.15919 0.02568
 H1907 H 0.49939 0.11691 0.00907
 H1908 H 0.53848 0.08476 0.06968
 C1909 C -0.03489 0.12507 0.93109
 C1910 C -0.02522 0.14603 0.94324
 C1911 C -0.01298 0.14300 0.96503
 C1912 C -0.00943 0.11884 0.97429
 C1913 C -0.00824 0.22905 0.89674
 C1914 C -0.03143 0.10083 0.94035
 C1915 C -0.02393 0.16993 0.93161
 C1916 C -0.02060 0.18938 0.92121
 C1917 C -0.01457 0.21115 0.90835
 C1918 C -0.01802 0.09747 0.96172
 H1919 H -0.04408 0.12735 0.91400
 H1920 H -0.00517 0.15920 0.97433
 H1921 H 0.00069 0.11692 0.99094
 H1922 H -0.03845 0.08475 0.93037
 C1923 C 0.48701 0.64299 0.46503
 C1924 C 0.47477 0.64602 0.44323
 C1925 C 0.46511 0.62506 0.43109
 C1926 C 0.46856 0.60083 0.44035
 C1927 C 0.49176 0.72904 0.39674
 C1928 C 0.49056 0.61884 0.47429
 C1929 C 0.47606 0.66992 0.43161
 C1930 C 0.47939 0.68938 0.42121
 C1931 C 0.48543 0.71115 0.40835
 C1932 C 0.48197 0.59747 0.46172
 H1933 H 0.49482 0.65919 0.47433
 H1934 H 0.45592 0.62734 0.41400
 H1935 H 0.46154 0.58475 0.43037
 H1936 H 0.50068 0.61691 0.49094
 C1937 C 0.53489 0.87493 0.43109
 C1938 C 0.52522 0.85397 0.44324
 C1939 C 0.51298 0.85700 0.46503
 C1940 C 0.50943 0.88115 0.47429
 C1941 C 0.50824 0.77095 0.39674
 C1942 C 0.53143 0.89917 0.44035
 C1943 C 0.52393 0.83007 0.43161
 C1944 C 0.52060 0.81061 0.42121
 C1945 C 0.51457 0.78884 0.40835
 C1946 C 0.51802 0.90253 0.46172
 H1947 H 0.54408 0.87265 0.41400
 H1948 H 0.50517 0.84080 0.47433
 H1949 H 0.49931 0.88308 0.49094
 H1950 H 0.53845 0.91524 0.43037
 C1951 C 0.03489 0.37494 0.93109
 C1952 C 0.02522 0.35398 0.94323
 C1953 C 0.01298 0.35701 0.96503
 C1954 C 0.00943 0.38116 0.97429
 C1955 C 0.00824 0.27095 0.89674
 C1956 C 0.03144 0.39917 0.94035
 C1957 C 0.02393 0.33008 0.93161
 C1958 C 0.02060 0.31062 0.92121
 C1959 C 0.01457 0.28885 0.90835
 C1960 C 0.01802 0.40253 0.96172
 H1961 H 0.04408 0.37265 0.91400
 H1962 H 0.00517 0.34081 0.97433
 H1963 H -0.00069 0.38309 0.99094
 H1964 H 0.03845 0.41525 0.93037
 C1965 C 0.46507 0.37494 0.06894
 C1966 C 0.47473 0.35397 0.05679
 C1967 C 0.48695 0.35701 0.03498
 C1968 C 0.49050 0.38116 0.02573
 C1969 C 0.49175 0.27095 0.10327
 C1970 C 0.46853 0.39917 0.05969
 C1971 C 0.47602 0.33007 0.06841
 C1972 C 0.47936 0.31061 0.07881
 C1973 C 0.48540 0.28884 0.09166
 C1974 C 0.48192 0.40253 0.03831
 H1975 H 0.45590 0.37265 0.08604
 H1976 H 0.49475 0.34081 0.02568
 H1977 H 0.50061 0.38309 0.00907
 H1978 H 0.46152 0.41525 0.06968
 C1979 C -0.03492 0.87493 0.56894
 C1980 C -0.02527 0.85397 0.55679
 C1981 C -0.01304 0.85700 0.53498
 C1982 C -0.00949 0.88116 0.52572
 C1983 C -0.00825 0.77094 0.60327
 C1984 C -0.03147 0.89917 0.55969
 C1985 C -0.02397 0.83007 0.56841
 C1986 C -0.02064 0.81061 0.57881
 C1987 C -0.01459 0.78884 0.59166
 C1988 C -0.01807 0.90253 0.53831
 H1989 H -0.04410 0.87264 0.58604
 H1990 H -0.00524 0.84080 0.52567
 H1991 H 0.00061 0.88309 0.50907
 H1992 H -0.03848 0.91524 0.56967
 C1993 C 0.27307 0.30624 0.12065
 C1994 C 0.26503 0.28980 0.10270
 C1995 C 0.26027 0.26426 0.10815
 C1996 C 0.26240 0.25562 0.13173
 C1997 C 0.25063 0.33704 0.02137
 C1998 C 0.27500 0.29775 0.14405
 C1999 C 0.26033 0.30010 0.07930
 C2000 C 0.25655 0.31055 0.06050
 C2001 C 0.25278 0.32436 0.03918
 C2002 C 0.26903 0.27257 0.14999
 H2003 H 0.27692 0.32597 0.11672
 H2004 H 0.25403 0.25132 0.09440
 H2005 H 0.25740 0.23622 0.13588
 H2006 H 0.28017 0.31122 0.15775
 C2007 C 0.77308 0.80623 0.62065
 C2008 C 0.76503 0.78979 0.60270
 C2009 C 0.76027 0.76426 0.60815
 C2010 C 0.76240 0.75562 0.63172
 C2011 C 0.75064 0.83704 0.52137
 C2012 C 0.77500 0.79774 0.64405
 C2013 C 0.76033 0.80010 0.57930
 C2014 C 0.75655 0.81055 0.56050
 C2015 C 0.75278 0.82436 0.53918
 C2016 C 0.76903 0.77256 0.64999
 H2017 H 0.77692 0.82596 0.61672
 H2018 H 0.75403 0.75132 0.59440
 H2019 H 0.75739 0.73622 0.63588
 H2020 H 0.78017 0.81121 0.65775
 C2021 C 0.22692 0.69376 0.62065
 C2022 C 0.23497 0.71020 0.60270
 C2023 C 0.23973 0.73573 0.60815
 C2024 C 0.23759 0.74438 0.63172
 C2025 C 0.24936 0.66296 0.52137
 C2026 C 0.22499 0.70225 0.64405
 C2027 C 0.23967 0.69990 0.57930
 C2028 C 0.24345 0.68945 0.56050
 C2029 C 0.24722 0.67564 0.53918
 C2030 C 0.23097 0.72743 0.64999
 H2031 H 0.22308 0.67403 0.61673
 H2032 H 0.24596 0.74868 0.59440
 H2033 H 0.24260 0.76378 0.63588
 H2034 H 0.21983 0.68879 0.65775
 C2035 C 0.72692 0.19376 0.12065
 C2036 C 0.73497 0.21020 0.10270
 C2037 C 0.73973 0.23573 0.10815
 C2038 C 0.73760 0.24438 0.13173
 C2039 C 0.74937 0.16296 0.02137
 C2040 C 0.72500 0.20225 0.14405
 C2041 C 0.73967 0.19990 0.07930
 C2042 C 0.74345 0.18945 0.06050
 C2043 C 0.74722 0.17564 0.03918
 C2044 C 0.73097 0.22743 0.14999
 H2045 H 0.72308 0.17403 0.11672
 H2046 H 0.74597 0.24868 0.09440
 H2047 H 0.74260 0.26378 0.13588
 H2048 H 0.71983 0.18878 0.15775
 C2049 C 0.76029 0.23571 0.89184
 C2050 C 0.76505 0.21017 0.89729
 C2051 C 0.77307 0.19372 0.87934
 C2052 C 0.77499 0.20221 0.85594
 C2053 C 0.75068 0.16295 0.97864
 C2054 C 0.76242 0.24434 0.86826
 C2055 C 0.76035 0.19987 0.92070
 C2056 C 0.75658 0.18943 0.93950
 C2057 C 0.75281 0.17563 0.96082
 C2058 C 0.76903 0.22739 0.85000
 H2059 H 0.75407 0.24865 0.90559
 H2060 H 0.77691 0.17399 0.88327
 H2061 H 0.78015 0.18873 0.84224
 H2062 H 0.75742 0.26374 0.86411
 C2063 C 0.27307 0.69373 0.37934
 C2064 C 0.26505 0.71017 0.39730
 C2065 C 0.26029 0.73571 0.39184
 C2066 C 0.26242 0.74435 0.36827
 C2067 C 0.25067 0.66295 0.47864
 C2068 C 0.27500 0.70221 0.35594
 C2069 C 0.26035 0.69987 0.42070
 C2070 C 0.25658 0.68943 0.43950
 C2071 C 0.25281 0.67563 0.46083
 C2072 C 0.26903 0.72740 0.35001
 H2073 H 0.27691 0.67400 0.38327
 H2074 H 0.25407 0.74865 0.40559
 H2075 H 0.25742 0.76375 0.36411
 H2076 H 0.28015 0.68874 0.34224
 C2077 C 0.73971 0.76429 0.39184
 C2078 C 0.73495 0.78982 0.39730
 C2079 C 0.72692 0.80627 0.37934
 C2080 C 0.72500 0.79779 0.35594
 C2081 C 0.74932 0.83704 0.47864
 C2082 C 0.73758 0.75565 0.36827
 C2083 C 0.73965 0.80012 0.42070
 C2084 C 0.74342 0.81057 0.43950
 C2085 C 0.74719 0.82437 0.46082
 C2086 C 0.73097 0.77260 0.35001
 H2087 H 0.74593 0.75134 0.40559
 H2088 H 0.72308 0.82600 0.38327
 H2089 H 0.71985 0.81126 0.34224
 H2090 H 0.74258 0.73625 0.36411
 C2091 C 0.23970 0.26429 0.89184
 C2092 C 0.23495 0.28983 0.89729
 C2093 C 0.22693 0.30627 0.87934
 C2094 C 0.22501 0.29779 0.85594
 C2095 C 0.24932 0.33705 0.97864
 C2096 C 0.23757 0.25565 0.86826
 C2097 C 0.23965 0.30013 0.92070
 C2098 C 0.24342 0.31057 0.93950
 C2099 C 0.24718 0.32437 0.96082
 C2100 C 0.23097 0.27261 0.85000
 H2101 H 0.24592 0.25135 0.90559
 H2102 H 0.22309 0.32600 0.88327
 H2103 H 0.21985 0.31126 0.84224
 H2104 H 0.24257 0.23626 0.86411
 C2105 C 0.80779 0.38977 0.74161
 C2106 C 0.82547 0.39503 0.75945
 C2107 C 0.82845 0.37786 0.77831
 C2108 C 0.81436 0.35527 0.77890
 C2109 C 0.88240 0.47712 0.75105
 C2110 C 0.79380 0.36728 0.74212
 C2111 C 0.84106 0.41756 0.75767
 C2112 C 0.85406 0.43634 0.75555
 C2113 C 0.86931 0.45835 0.75289
 C2114 C 0.79717 0.34948 0.76054
 H2115 H 0.80519 0.40283 0.72695
 H2116 H 0.84208 0.38165 0.79226
 H2117 H 0.81761 0.34195 0.79322
 H2118 H 0.78073 0.36358 0.72769
 C2119 C 0.32845 0.87787 0.27831
 C2120 C 0.32547 0.89503 0.25946
 C2121 C 0.30778 0.88978 0.24161
 C2122 C 0.29380 0.86729 0.24212
 C2123 C 0.38240 0.97713 0.25105
 C2124 C 0.31436 0.85527 0.27891
 C2125 C 0.34106 0.91756 0.25768
 C2126 C 0.35406 0.93635 0.25555
 C2127 C 0.36931 0.95836 0.25289
 C2128 C 0.29717 0.84949 0.26054
 H2129 H 0.34208 0.88166 0.29227
 H2130 H 0.30519 0.90284 0.22696
 H2131 H 0.28073 0.86359 0.22770
 H2132 H 0.31761 0.84195 0.29323
 C2133 C 0.19222 0.88983 0.75837
 C2134 C 0.17454 0.89508 0.74053
 C2135 C 0.17155 0.87791 0.72168
 C2136 C 0.18564 0.85532 0.72108
 C2137 C 0.11761 0.97717 0.74895
 C2138 C 0.20621 0.86734 0.75786
 C2139 C 0.15894 0.91761 0.74231
 C2140 C 0.14595 0.93639 0.74444
 C2141 C 0.13070 0.95840 0.74711
 C2142 C 0.20283 0.84954 0.73944
 H2143 H 0.19483 0.90289 0.77303
 H2144 H 0.15792 0.88170 0.70773
 H2145 H 0.18239 0.84200 0.70676
 H2146 H 0.21929 0.86364 0.77228
 C2147 C 0.67155 0.37791 0.22168
 C2148 C 0.67453 0.39508 0.24053
 C2149 C 0.69222 0.38982 0.25837
 C2150 C 0.70621 0.36733 0.25786
 C2151 C 0.61760 0.47717 0.24895
 C2152 C 0.68564 0.35532 0.22108
 C2153 C 0.65894 0.41760 0.24231
 C2154 C 0.64595 0.43639 0.24444
 C2155 C 0.63069 0.45840 0.24711
 C2156 C 0.70283 0.34953 0.23944
 H2157 H 0.65792 0.38170 0.20773
 H2158 H 0.69482 0.40289 0.27303
 H2159 H 0.71928 0.36363 0.27229
 H2160 H 0.68239 0.34199 0.20676
 C2161 C 0.67154 0.62213 0.27831
 C2162 C 0.67453 0.60496 0.25946
 C2163 C 0.69221 0.61022 0.24161
 C2164 C 0.70620 0.63271 0.24212
 C2165 C 0.61760 0.52287 0.25105
 C2166 C 0.68564 0.64472 0.27891
 C2167 C 0.65893 0.58244 0.25768
 C2168 C 0.64594 0.56365 0.25555
 C2169 C 0.63069 0.54164 0.25289
 C2170 C 0.70283 0.65051 0.26054
 H2171 H 0.65792 0.61834 0.29227
 H2172 H 0.69481 0.59716 0.22695
 H2173 H 0.71927 0.63641 0.22770
 H2174 H 0.68239 0.65804 0.29323
 C2175 C 0.17155 0.12214 0.77831
 C2176 C 0.17453 0.10497 0.75945
 C2177 C 0.19221 0.11022 0.74161
 C2178 C 0.20620 0.13271 0.74212
 C2179 C 0.11760 0.02287 0.75105
 C2180 C 0.18564 0.14473 0.77890
 C2181 C 0.15894 0.08244 0.75767
 C2182 C 0.14594 0.06365 0.75555
 C2183 C 0.13069 0.04164 0.75289
 C2184 C 0.20283 0.15051 0.76054
 H2185 H 0.15792 0.11835 0.79226
 H2186 H 0.19481 0.09716 0.72695
 H2187 H 0.21927 0.13642 0.72769
 H2188 H 0.18239 0.15805 0.79322
 C2189 C 0.30777 0.11017 0.25837
 C2190 C 0.32546 0.10492 0.24053
 C2191 C 0.32845 0.12209 0.22168
 C2192 C 0.31436 0.14468 0.22108
 C2193 C 0.38239 0.02283 0.24895
 C2194 C 0.29379 0.13266 0.25786
 C2195 C 0.34106 0.08240 0.24231
 C2196 C 0.35405 0.06361 0.24444
 C2197 C 0.36930 0.04160 0.24711
 C2198 C 0.29717 0.15047 0.23944
 H2199 H 0.30517 0.09711 0.27303
 H2200 H 0.34208 0.11830 0.20773
 H2201 H 0.31761 0.15801 0.20677
 H2202 H 0.28071 0.13637 0.27229
 C2203 C 0.82845 0.62209 0.72168
 C2204 C 0.82546 0.60492 0.74053
 C2205 C 0.80777 0.61017 0.75837
 C2206 C 0.79379 0.63266 0.75786
 C2207 C 0.88239 0.52282 0.74895
 C2208 C 0.81436 0.64468 0.72108
 C2209 C 0.84106 0.58239 0.74231
 C2210 C 0.85405 0.56360 0.74444
 C2211 C 0.86930 0.54159 0.74711
 C2212 C 0.79717 0.65046 0.73944
 H2213 H 0.84208 0.61830 0.70773
 H2214 H 0.80517 0.59711 0.77303
 H2215 H 0.78071 0.63636 0.77228
 H2216 H 0.81761 0.65800 0.70676
 C2217 C 0.89299 0.76304 0.21503
 C2218 C 0.89603 0.77526 0.19323
 C2219 C 0.87506 0.78492 0.18107
 C2220 C 0.85083 0.78147 0.19033
 C2221 C 0.97905 0.75825 0.14674
 C2222 C 0.86884 0.75949 0.22429
 C2223 C 0.91993 0.77397 0.18161
 C2224 C 0.93939 0.77064 0.17121
 C2225 C 0.96116 0.76459 0.15836
 C2226 C 0.84747 0.76807 0.21170
 H2227 H 0.90919 0.75524 0.22434
 H2228 H 0.87735 0.79410 0.16397
 H2229 H 0.83475 0.78848 0.18034
 H2230 H 0.86691 0.74938 0.24094
 C2231 C 0.37507 0.28492 0.68107
 C2232 C 0.39603 0.27527 0.69323
 C2233 C 0.39300 0.26305 0.71503
 C2234 C 0.36884 0.25950 0.72429
 C2235 C 0.47905 0.25825 0.64674
 C2236 C 0.35083 0.28147 0.69032
 C2237 C 0.41993 0.27397 0.68160
 C2238 C 0.43939 0.27063 0.67121
 C2239 C 0.46116 0.26459 0.65836
 C2240 C 0.34747 0.26807 0.71170
 H2241 H 0.37735 0.29410 0.66397
 H2242 H 0.40919 0.25524 0.72434
 H2243 H 0.36691 0.24939 0.74094
 H2244 H 0.33476 0.28848 0.68034
 C2245 C 0.37506 0.71511 0.81892
 C2246 C 0.39603 0.72478 0.80677
 C2247 C 0.39300 0.73702 0.78497
 C2248 C 0.36884 0.74057 0.77571
 C2249 C 0.47905 0.74177 0.85327
 C2250 C 0.35083 0.71857 0.80966
 C2251 C 0.41992 0.72607 0.81840
 C2252 C 0.43938 0.72940 0.82880
 C2253 C 0.46115 0.73543 0.84165
 C2254 C 0.34747 0.73198 0.78829
 H2255 H 0.37735 0.70592 0.83601
 H2256 H 0.40919 0.74483 0.77567
 H2257 H 0.36691 0.75069 0.75907
 H2258 H 0.33475 0.71155 0.81964
 C2259 C 0.89300 0.23701 0.28497
 C2260 C 0.89603 0.22477 0.30677
 C2261 C 0.87506 0.21510 0.31892
 C2262 C 0.85083 0.21856 0.30966
 C2263 C 0.97905 0.24176 0.35327
 C2264 C 0.86884 0.24056 0.27571
 C2265 C 0.91992 0.22606 0.31840
 C2266 C 0.93938 0.22939 0.32880
 C2267 C 0.96115 0.23542 0.34165
 C2268 C 0.84747 0.23197 0.28829
 H2269 H 0.90919 0.24482 0.27567
 H2270 H 0.87735 0.20592 0.33601
 H2271 H 0.83475 0.21154 0.31964
 H2272 H 0.86691 0.25068 0.25907
 C2273 C 0.12493 0.28489 0.31892
 C2274 C 0.10397 0.27522 0.30677
 C2275 C 0.10700 0.26299 0.28497
 C2276 C 0.13116 0.25943 0.27571
 C2277 C 0.02095 0.25823 0.35327
 C2278 C 0.14917 0.28144 0.30966
 C2279 C 0.08007 0.27393 0.31840
 C2280 C 0.06062 0.27060 0.32880
 C2281 C 0.03885 0.26457 0.34165
 C2282 C 0.15253 0.26802 0.28829
 H2283 H 0.12265 0.29408 0.33601
 H2284 H 0.09081 0.25517 0.27567
 H2285 H 0.13309 0.24931 0.25907
 H2286 H 0.16524 0.28845 0.31964
 C2287 C 0.60700 0.76298 0.78498
 C2288 C 0.60397 0.77522 0.80677
 C2289 C 0.62494 0.78489 0.81892
 C2290 C 0.64917 0.78143 0.80966
 C2291 C 0.52095 0.75824 0.85327
 C2292 C 0.63116 0.75943 0.77572
 C2293 C 0.58008 0.77393 0.81840
 C2294 C 0.56062 0.77060 0.82880
 C2295 C 0.53885 0.76457 0.84165
 C2296 C 0.65253 0.76802 0.78829
 H2297 H 0.59081 0.75517 0.77568
 H2298 H 0.62265 0.79408 0.83601
 H2299 H 0.66525 0.78845 0.81964
 H2300 H 0.63309 0.74931 0.75907
 C2301 C 0.62493 0.21507 0.68107
 C2302 C 0.60397 0.22473 0.69322
 C2303 C 0.60700 0.23695 0.71503
 C2304 C 0.63116 0.24050 0.72428
 C2305 C 0.52095 0.24175 0.64674
 C2306 C 0.64917 0.21852 0.69032
 C2307 C 0.58007 0.22602 0.68160
 C2308 C 0.56061 0.22936 0.67120
 C2309 C 0.53884 0.23540 0.65835
 C2310 C 0.65253 0.23192 0.71170
 H2311 H 0.62265 0.20590 0.66397
 H2312 H 0.59081 0.24475 0.72434
 H2313 H 0.63309 0.25061 0.74094
 H2314 H 0.66525 0.21152 0.68033
 C2315 C 0.10700 0.73696 0.21503
 C2316 C 0.10397 0.72473 0.19323
 C2317 C 0.12493 0.71508 0.18107
 C2318 C 0.14917 0.71853 0.19033
 C2319 C 0.02095 0.74175 0.14675
 C2320 C 0.13116 0.74051 0.22429
 C2321 C 0.08007 0.72603 0.18161
 C2322 C 0.06061 0.72936 0.17121
 C2323 C 0.03884 0.73541 0.15836
 C2324 C 0.15253 0.73193 0.21170
 H2325 H 0.09081 0.74476 0.22434
 H2326 H 0.12265 0.70590 0.16397
 H2327 H 0.16524 0.71152 0.18034
 H2328 H 0.13309 0.75062 0.24094
   
