data_POSCAR
  _audit_creation_date              2014-09-24
  _audit_creation_method            'ToBaCCo'
  _symmetry_space_group_name_H-M    'P1'
  _symmetry_Int_Tables_number       1
  _symmetry_cell_setting            triclinic
  loop_
  _symmetry_equiv_pos_as_xyz
 x,y,z
_cell_length_a 44.0501
_cell_length_b 44.3723
_cell_length_c 44.3332
_cell_angle_alpha 91.336900
_cell_angle_beta 91.617300
_cell_angle_gamma 91.774400
loop_
  _atom_site_label
  _atom_site_type_symbol
  _atom_site_fract_x
  _atom_site_fract_y
  _atom_site_fract_z
N1 N 0.15620 0.22279 0.23090
 N2 N 0.16299 0.19692 0.24276
 C3 C 0.14454 0.19154 0.26583
 C4 C 0.12529 0.21542 0.26871
 C5 C 0.13347 0.23494 0.24623
 H6 H 0.14585 0.17228 0.28025
 H7 H 0.12386 0.25645 0.24141
 Cu8 Cu 0.19664 0.17361 0.22879
 Cu9 Cu 0.17725 0.23871 0.19660
 Cu10 Cu 0.23833 0.19905 0.17128
 N11 N 0.23336 0.15423 0.21652
 N12 N 0.24876 0.16331 0.19330
 C13 C 0.27308 0.14601 0.19021
 C14 C 0.27316 0.12522 0.21299
 C15 C 0.24766 0.13120 0.22935
 H16 H 0.29032 0.14934 0.17363
 H17 H 0.24024 0.12007 0.24936
 N18 N 0.22435 0.23592 0.15225
 N19 N 0.20119 0.25114 0.16206
 C20 C 0.19811 0.27588 0.14540
 C21 C 0.22053 0.27639 0.12422
 C22 C 0.23674 0.25068 0.12920
 H23 H 0.18135 0.29280 0.14892
 H24 H 0.25637 0.24348 0.11721
 H25 H 0.19248 0.19805 0.18012
 H26 H 0.21831 0.21947 0.20779
 N27 N 0.65986 0.73219 0.73621
 N28 N 0.66633 0.70624 0.74815
 C29 C 0.64634 0.70005 0.76972
 C30 C 0.62643 0.72347 0.77158
 C31 C 0.63579 0.74357 0.75004
 H32 H 0.64695 0.68057 0.78388
 H33 H 0.62606 0.76496 0.74490
 Cu34 Cu 0.70161 0.68439 0.73600
 Cu35 Cu 0.68285 0.74905 0.70336
 Cu36 Cu 0.74492 0.70917 0.68022
 N37 N 0.73670 0.66246 0.72334
 N38 N 0.75355 0.67248 0.70151
 C39 C 0.77613 0.65340 0.69690
 C40 C 0.77340 0.63012 0.71694
 C41 C 0.74813 0.63664 0.73347
 H42 H 0.79336 0.65642 0.68027
 H43 H 0.73860 0.62342 0.75126
 N44 N 0.73248 0.74676 0.66155
 N45 N 0.70894 0.76204 0.67037
 C46 C 0.70486 0.78510 0.65163
 C47 C 0.72680 0.78423 0.62992
 C48 C 0.74397 0.75968 0.63702
 H49 H 0.68624 0.80036 0.65258
 H50 H 0.76264 0.75103 0.62451
 H51 H 0.69868 0.70859 0.68738
 H52 H 0.72360 0.73033 0.71545
 N53 N 0.33045 0.74931 0.75351
 N54 N 0.32415 0.77482 0.76728
 C55 C 0.34362 0.77954 0.79103
 C56 C 0.36315 0.75565 0.79236
 C57 C 0.35384 0.73679 0.76824
 H58 H 0.34352 0.79888 0.80628
 H59 H 0.36352 0.71576 0.76142
 Cu60 Cu 0.29081 0.79906 0.75291
 Cu61 Cu 0.30909 0.73488 0.71647
 Cu62 Cu 0.25066 0.77864 0.69007
 N63 N 0.25782 0.82342 0.73782
 N64 N 0.24226 0.81499 0.71320
 C65 C 0.22067 0.83499 0.70758
 C66 C 0.22255 0.85740 0.72993
 C67 C 0.24653 0.84925 0.74878
 H68 H 0.20476 0.83307 0.68860
 H69 H 0.25507 0.86107 0.76898
 N70 N 0.26237 0.74121 0.66961
 N71 N 0.28466 0.72443 0.67936
 C72 C 0.28724 0.70083 0.65993
 C73 C 0.26543 0.70289 0.63698
 C74 C 0.25017 0.72877 0.64395
 H75 H 0.30373 0.68343 0.66223
 H76 H 0.23182 0.73819 0.63094
 H77 H 0.29629 0.77670 0.70269
 H78 H 0.26882 0.75484 0.72566
 N79 N 0.83046 0.24666 0.25587
 N80 N 0.82534 0.27261 0.26937
 C81 C 0.84552 0.27708 0.29262
 C82 C 0.86426 0.25243 0.29394
 C83 C 0.85357 0.23349 0.27034
 H84 H 0.84643 0.29681 0.30740
 H85 H 0.86210 0.21193 0.26358
 Cu86 Cu 0.79214 0.29738 0.25534
 Cu87 Cu 0.80890 0.23270 0.21884
 Cu88 Cu 0.75104 0.27720 0.19289
 N89 N 0.75944 0.32225 0.24029
 N90 N 0.74342 0.31365 0.21600
 C91 C 0.72227 0.33401 0.21016
 C92 C 0.72490 0.35678 0.23196
 C93 C 0.74881 0.34857 0.25083
 H94 H 0.70613 0.33218 0.19137
 H95 H 0.75776 0.36078 0.27066
 N96 N 0.76206 0.23966 0.17233
 N97 N 0.78440 0.22278 0.18168
 C98 C 0.78796 0.20040 0.16105
 C99 C 0.76677 0.20343 0.13764
 C100 C 0.75072 0.22845 0.14581
 H101 H 0.80541 0.18385 0.16241
 H102 H 0.73291 0.23863 0.13280
 H103 H 0.79677 0.27478 0.20512
 H104 H 0.76918 0.25341 0.22845
 N105 N 0.82278 0.74313 0.25424
 N106 N 0.81377 0.71914 0.23809
 C107 C 0.83370 0.71432 0.21618
 C108 C 0.85637 0.73656 0.21852
 C109 C 0.84871 0.75450 0.24301
 H110 H 0.83141 0.69650 0.19915
 H111 H 0.86074 0.77460 0.25171
 Cu112 Cu 0.77610 0.69721 0.24566
 Cu113 Cu 0.79923 0.75851 0.28747
 Cu114 Cu 0.73432 0.71705 0.30505
 N115 N 0.74203 0.67242 0.25846
 N116 N 0.72576 0.67985 0.28169
 C117 C 0.70517 0.65742 0.28636
 C118 C 0.70874 0.63474 0.26477
 C119 C 0.73235 0.64523 0.24748
 H120 H 0.68961 0.65714 0.30478
 H121 H 0.74272 0.63349 0.22903
 N122 N 0.74703 0.75522 0.32607
 N123 N 0.77229 0.77041 0.32015
 C124 C 0.77549 0.79432 0.33940
 C125 C 0.75099 0.79434 0.35834
 C126 C 0.73333 0.76928 0.34896
 H127 H 0.79433 0.81050 0.33959
 H128 H 0.71223 0.76148 0.35825
 H129 H 0.78052 0.71669 0.29738
 H130 H 0.75721 0.74111 0.27254
 N131 N 0.32264 0.24333 -0.24536
 N132 N 0.31182 0.22114 -0.26303
 C133 C 0.33190 0.21505 -0.28440
 C134 C 0.35689 0.23460 -0.28018
 C135 C 0.35008 0.25235 -0.25512
 H136 H 0.32842 0.19750 -0.30155
 H137 H 0.36408 0.27016 -0.24442
 Cu138 Cu 0.27300 0.20133 -0.25638
 Cu139 Cu 0.30018 0.25823 -0.21085
 Cu140 Cu 0.23566 0.21642 -0.19309
 N141 N 0.24131 0.17437 -0.24255
 N142 N 0.22681 0.17998 -0.21767
 C143 C 0.20774 0.15647 -0.21246
 C144 C 0.21058 0.13495 -0.23533
 C145 C 0.23206 0.14725 -0.25406
 H146 H 0.19385 0.15463 -0.19284
 H147 H 0.24119 0.13695 -0.27403
 N148 N 0.24885 0.25392 -0.17107
 N149 N 0.27391 0.26940 -0.17714
 C150 C 0.27714 0.29308 -0.15758
 C151 C 0.25286 0.29262 -0.13829
 C152 C 0.23534 0.26749 -0.14779
 H153 H 0.29576 0.30951 -0.15749
 H154 H 0.21429 0.25950 -0.13850
 H155 H 0.28130 0.21585 -0.20372
 H156 H 0.25722 0.24302 -0.22461
 N157 N 0.67115 0.25846 -0.25676
 N158 N 0.67984 0.28195 -0.27218
 C159 C 0.65895 0.28644 -0.29434
 C160 C 0.63582 0.26456 -0.29260
 C161 C 0.64472 0.24707 -0.26859
 H162 H 0.65997 0.30492 -0.30978
 H163 H 0.63242 0.22823 -0.25936
 Cu164 Cu 0.71648 0.30533 -0.25995
 Cu165 Cu 0.69232 0.24640 -0.22015
 Cu166 Cu 0.75606 0.28934 -0.19641
 N167 N 0.75316 0.32834 -0.24729
 N168 N 0.76790 0.32285 -0.22192
 C169 C 0.79127 0.34303 -0.21804
 C170 C 0.79134 0.36215 -0.24238
 C171 C 0.76687 0.35188 -0.26054
 H172 H 0.80716 0.34354 -0.19899
 H173 H 0.75927 0.36097 -0.28169
 N174 N 0.74041 0.25428 -0.17409
 N175 N 0.71647 0.23774 -0.18360
 C176 C 0.71139 0.21560 -0.16398
 C177 C 0.73313 0.21814 -0.14088
 C178 C 0.75121 0.24295 -0.14808
 H179 H 0.69300 0.19897 -0.16628
 H180 H 0.77071 0.25216 -0.13530
 H181 H 0.71044 0.28883 -0.20831
 H182 H 0.73503 0.26357 -0.23058
 N183 N 0.16929 0.76084 0.24651
 N184 N 0.17809 0.78365 0.23023
 C185 C 0.15655 0.78829 0.20875
 C186 C 0.13301 0.76722 0.21191
 C187 C 0.14209 0.75010 0.23601
 H188 H 0.15715 0.80657 0.19306
 H189 H 0.12929 0.73202 0.24616
 Cu190 Cu 0.21549 0.80665 0.24053
 Cu191 Cu 0.19117 0.74932 0.28268
 Cu192 Cu 0.25551 0.79185 0.30466
 N193 N 0.25144 0.83053 0.25361
 N194 N 0.26699 0.82492 0.27848
 C195 C 0.28994 0.84560 0.28218
 C196 C 0.28861 0.86547 0.25842
 C197 C 0.26384 0.85496 0.24076
 H198 H 0.30590 0.84642 0.30117
 H199 H 0.25509 0.86454 0.22027
 N200 N 0.24001 0.75726 0.32780
 N201 N 0.21584 0.74087 0.31872
 C202 C 0.21041 0.71934 0.33882
 C203 C 0.23210 0.72207 0.36190
 C204 C 0.25059 0.74644 0.35418
 H205 H 0.19153 0.70324 0.33705
 H206 H 0.27009 0.75575 0.36692
 H207 H 0.21006 0.79227 0.29289
 H208 H 0.23413 0.76584 0.27133
 N209 N 0.49031 0.42069 0.49906
 N210 N 0.46736 0.43032 0.51450
 C211 C 0.46189 0.41111 0.53691
 C212 C 0.48249 0.38817 0.53546
 C213 C 0.50022 0.39507 0.51111
 H214 H 0.44343 0.41293 0.55234
 H215 H 0.51835 0.38197 0.50219
 Cu216 Cu 0.44508 0.46573 0.50288
 Cu217 Cu 0.50391 0.44062 0.46306
 Cu218 Cu 0.46152 0.49961 0.43755
 N219 N 0.42107 0.49840 0.48734
 N220 N 0.42720 0.51092 0.46154
 C221 C 0.40710 0.53244 0.45605
 C222 C 0.38724 0.53362 0.47965
 C223 C 0.39681 0.51169 0.49918
 H224 H 0.40726 0.54665 0.43657
 H225 H 0.38676 0.50574 0.52028
 N226 N 0.49727 0.48515 0.41650
 N227 N 0.51405 0.46341 0.42698
 C228 C 0.53704 0.45895 0.40823
 C229 C 0.53467 0.47872 0.38464
 C230 C 0.50902 0.49490 0.39057
 H231 H 0.55372 0.44181 0.41101
 H232 H 0.49954 0.51238 0.37700
 H233 H 0.48734 0.48304 0.47251
 H234 H 0.46099 0.45551 0.45152
 N235 N -0.01250 -0.08578 0.98915
 N236 N -0.03596 -0.07717 1.00450
 C237 C -0.03871 -0.09460 1.02878
 C238 C -0.01585 -0.11533 1.02853
 C239 C 0.00025 -0.10919 1.00293
 H240 H -0.05581 -0.09219 1.04560
 H241 H 0.02043 -0.12017 0.99559
 Cu242 Cu -0.05933 -0.04295 0.99178
 Cu243 Cu 0.00146 -0.06414 0.95406
 Cu244 Cu -0.03945 -0.00198 0.93260
 N245 N -0.08234 -0.00811 0.98022
 N246 N -0.07411 0.00796 0.95710
 C247 C -0.09223 0.03168 0.95474
 C248 C -0.11301 0.03047 0.97757
 C249 C -0.10614 0.00483 0.99326
 H250 H -0.09017 0.04875 0.93784
 H251 H -0.11704 -0.00314 1.01324
 N252 N -0.00366 -0.01582 0.91090
 N253 N 0.01196 -0.03928 0.91933
 C254 C 0.03594 -0.04197 0.90143
 C255 C 0.03544 -0.01921 0.88068
 C256 C 0.00992 -0.00314 0.88721
 H257 H 0.05275 -0.05907 0.90352
 H258 H 0.00245 0.01688 0.87611
 H259 H -0.01517 -0.02262 0.96638
 H260 H -0.04001 -0.04741 0.94098
 N261 N 1.02461 0.60345 0.98140
 N262 N 1.04999 0.59885 0.99664
 C263 C 1.05336 0.62004 1.01899
 C264 C 1.02871 0.63890 1.01746
 C265 C 1.01118 0.62760 0.99318
 H266 H 1.07235 0.62173 1.03498
 H267 H 0.99029 0.63645 0.98434
 Cu268 Cu 1.07604 0.56602 0.98423
 Cu269 Cu 1.01031 0.57833 0.94719
 Cu270 Cu 1.05610 0.52082 0.92407
 N271 N 1.10078 0.53216 0.97199
 N272 N 1.09348 0.51586 0.94755
 C273 C 1.11362 0.49398 0.94421
 C274 C 1.13461 0.49623 0.96797
 C275 C 1.12569 0.52071 0.98530
 H276 H 1.11181 0.47636 0.92694
 H277 H 1.13594 0.52892 1.00647
 N278 N 1.01716 0.52931 0.90357
 N279 N 0.99945 0.55080 0.91301
 C280 C 0.97456 0.55111 0.89481
 C281 C 0.97658 0.52882 0.87275
 C282 C 1.00395 0.51541 0.87896
 H283 H 0.95667 0.56710 0.89675
 H284 H 1.01368 0.49715 0.86631
 H285 H 1.03283 0.53962 0.95901
 H286 H 1.05290 0.56615 0.93356
 N287 N 0.52426 0.10393 0.48121
 N288 N 0.54941 0.09899 0.49670
 C289 C 0.55314 0.12038 0.51876
 C290 C 0.52895 0.13969 0.51689
 C291 C 0.51129 0.12852 0.49263
 H292 H 0.57182 0.12161 0.53513
 H293 H 0.49041 0.13752 0.48390
 Cu294 Cu 0.57435 0.06477 0.48628
 Cu295 Cu 0.50899 0.07768 0.44819
 Cu296 Cu 0.55437 0.01944 0.42636
 N297 N 0.59974 0.03185 0.47319
 N298 N 0.59228 0.01530 0.44897
 C299 C 0.61242 -0.00658 0.44572
 C300 C 0.63352 -0.00403 0.46933
 C301 C 0.62486 0.02072 0.48635
 H302 H 0.61054 -0.02448 0.42874
 H303 H 0.63528 0.02914 0.50738
 N304 N 0.51503 0.02699 0.40644
 N305 N 0.49739 0.04879 0.41529
 C306 C 0.47133 0.04709 0.39869
 C307 C 0.47264 0.02309 0.37837
 C308 C 0.50070 0.01091 0.38384
 H309 H 0.45278 0.06225 0.40112
 H310 H 0.50965 -0.00865 0.37262
 H311 H 0.53069 0.03904 0.46094
 H312 H 0.55159 0.06510 0.43558
 N313 N -0.03131 0.10293 0.53233
 N314 N -0.05674 0.09632 0.51704
 C315 C -0.05866 0.11409 0.49293
 C316 C -0.03291 0.13273 0.49287
 C317 C -0.01609 0.12510 0.51832
 H318 H -0.07647 0.11219 0.47563
 H319 H 0.00615 0.13401 0.52542
 Cu320 Cu -0.08291 0.06235 0.52717
 Cu321 Cu -0.01817 0.08005 0.56726
 Cu322 Cu -0.05816 0.01313 0.57794
 N323 N -0.10128 0.02222 0.52940
 N324 N -0.09111 0.00293 0.54901
 C325 C -0.10657 -0.02350 0.54492
 C326 C -0.12763 -0.02066 0.52149
 C327 C -0.12374 0.00876 0.51223
 H328 H -0.10279 -0.04330 0.55810
 H329 H -0.13587 0.01936 0.49399
 N330 N -0.02415 0.02743 0.60476
 N331 N -0.00877 0.05296 0.60085
 C332 C 0.01463 0.05503 0.62116
 C333 C 0.01401 0.02945 0.63853
 C334 C -0.01103 0.01261 0.62755
 H335 H 0.03190 0.07291 0.62211
 H336 H -0.01845 -0.00943 0.63478
 H337 H -0.03685 0.04123 0.54767
 H338 H -0.05940 0.06009 0.57750
 N339 N 0.46942 0.60666 0.03342
 N340 N 0.44465 0.59920 0.01739
 C341 C 0.44303 0.61660 -0.00698
 C342 C 0.46819 0.63601 -0.00640
 C343 C 0.48444 0.62919 0.01971
 H344 H 0.42569 0.61413 -0.02470
 H345 H 0.50601 0.63912 0.02767
 Cu346 Cu 0.41829 0.56531 0.02733
 Cu347 Cu 0.48082 0.58522 0.06988
 Cu348 Cu 0.44719 0.51391 0.07298
 N349 N 0.40068 0.52484 0.02817
 N350 N 0.41321 0.50445 0.04507
 C351 C 0.39736 0.47826 0.04133
 C352 C 0.37346 0.48235 0.02104
 C353 C 0.37612 0.51238 0.01328
 H354 H 0.40201 0.45811 0.05366
 H355 H 0.36124 0.52435 -0.00174
 N356 N 0.48151 0.52765 0.09968
 N357 N 0.49417 0.55497 0.09913
 C358 C 0.51697 0.55710 0.12016
 C359 C 0.51868 0.52971 0.13453
 C360 C 0.49577 0.51175 0.12091
 H361 H 0.53175 0.57679 0.12414
 H362 H 0.49000 0.48860 0.12589
 H363 H 0.46642 0.54740 0.04684
 H364 H 0.44166 0.55994 0.07785
 N365 N 0.52092 -0.09252 0.01803
 N366 N 0.54581 -0.08649 0.00336
 C367 C 0.54855 -0.10739 -0.01875
 C368 C 0.52399 -0.12745 -0.01807
 C369 C 0.50671 -0.11726 0.00540
 H370 H 0.56751 -0.10863 -0.03366
 H371 H 0.48654 -0.12825 0.01392
 Cu372 Cu 0.57337 -0.05316 0.01557
 Cu373 Cu 0.51172 -0.07067 0.05507
 Cu374 Cu 0.56187 -0.01205 0.07858
 N375 N 0.60104 -0.02016 0.02848
 N376 N 0.59639 -0.00369 0.05283
 C377 C 0.61858 0.01792 0.05585
 C378 C 0.63819 0.01476 0.03207
 C379 C 0.62632 -0.00979 0.01535
 H380 H 0.62013 0.03478 0.07388
 H381 H 0.63543 -0.01942 -0.00493
 N382 N 0.52559 -0.02419 0.10131
 N383 N 0.50645 -0.04619 0.09203
 C384 C 0.48449 -0.04938 0.11230
 C385 C 0.48992 -0.02845 0.13555
 C386 C 0.51617 -0.01280 0.12779
 H387 H 0.46585 -0.06578 0.11027
 H388 H 0.52772 0.00529 0.14070
 H389 H 0.53356 -0.03035 0.04478
 H390 H 0.55614 -0.05738 0.06708
 N391 N 1.02561 0.39977 0.52025
 N392 N 1.05023 0.40631 0.50533
 C393 C 1.05267 0.38597 0.48262
 C394 C 1.02812 0.36585 0.48319
 C395 C 1.01126 0.37535 0.50722
 H396 H 1.07130 0.38524 0.46722
 H397 H 0.99111 0.36428 0.51564
 Cu398 Cu 1.07731 0.44000 0.51772
 Cu399 Cu 1.01619 0.42132 0.55731
 Cu400 Cu 1.06532 0.48064 0.58082
 N401 N 1.10421 0.47375 0.53034
 N402 N 1.10005 0.48915 0.55548
 C403 C 1.12105 0.51192 0.55797
 C404 C 1.13914 0.51086 0.53288
 C405 C 1.12767 0.48633 0.51586
 H406 H 1.12183 0.52905 0.57574
 H407 H 1.13512 0.47886 0.49399
 N408 N 1.02883 0.46839 0.60313
 N409 N 1.01044 0.44565 0.59422
 C410 C 0.98699 0.44385 0.61296
 C411 C 0.99043 0.46677 0.63448
 C412 C 1.01724 0.48190 0.62763
 H413 H 0.96785 0.42810 0.61022
 H414 H 1.02701 0.50186 0.63900
 H415 H 1.03721 0.46208 0.54694
 H416 H 1.06027 0.43544 0.56922
 C417 C 0.35976 0.03161 0.23870
 C418 C 0.34071 0.00217 0.23665
 C419 C 0.35643 -0.02287 0.24327
 C420 C 0.39024 -0.01623 0.25100
 C421 C 0.37454 0.03218 0.27050
 C422 C 0.39036 0.00720 0.27703
 C423 C 0.38643 0.02639 0.21781
 C424 C 0.40228 0.00140 0.22418
 H425 H 0.31641 0.00169 0.23244
 H426 H 0.40329 -0.03663 0.25604
 H427 H 0.37429 0.05166 0.28566
 H428 H 0.39184 0.04064 0.19922
 C429 C 0.14686 -0.03795 0.74378
 C430 C 0.16605 -0.00853 0.74482
 C431 C 0.15025 0.01672 0.75100
 C432 C 0.11617 0.01017 0.75524
 C433 C 0.13093 -0.03835 0.77400
 C434 C 0.11497 -0.01328 0.78018
 C435 C 0.12130 -0.03232 0.72047
 C436 C 0.10529 -0.00722 0.72635
 H437 H 0.19039 -0.00806 0.74195
 H438 H 0.10289 0.03023 0.76019
 H439 H 0.13145 -0.05753 0.78866
 H440 H 0.11685 -0.04567 0.70010
 C441 C 0.64707 0.46181 0.24487
 C442 C 0.66537 0.49157 0.24805
 C443 C 0.64859 0.51612 0.25421
 C444 C 0.61441 0.50856 0.25684
 C445 C 0.62968 0.45957 0.27405
 C446 C 0.61264 0.48382 0.28071
 C447 C 0.62250 0.46784 0.22065
 C448 C 0.60539 0.49220 0.22674
 H449 H 0.68974 0.49295 0.24543
 H450 H 0.60068 0.52829 0.26174
 H451 H 0.62959 0.43939 0.28732
 H452 H 0.61991 0.45564 0.19937
 C453 C 0.85506 0.52920 0.73383
 C454 C 0.83830 0.49867 0.73616
 C455 C 0.85654 0.47552 0.74309
 C456 C 0.89022 0.48497 0.74770
 C457 C 0.87233 0.53378 0.76406
 C458 C 0.89093 0.51093 0.77143
 C459 C 0.88017 0.52356 0.71111
 C460 C 0.89840 0.50051 0.71837
 H461 H 0.81390 0.49603 0.73341
 H462 H 0.90488 0.46600 0.75359
 H463 H 0.87198 0.55477 0.77701
 H464 H 0.88360 0.53601 0.69082
 C465 C 0.23866 0.36224 0.02836
 C466 C 0.23684 0.34394 -0.00130
 C467 C 0.24081 0.36055 -0.02639
 C468 C 0.24670 0.39442 -0.01943
 C469 C 0.26936 0.37910 0.02816
 C470 C 0.27379 0.39594 0.00332
 C471 C 0.21559 0.38723 0.02437
 C472 C 0.21957 0.40383 -0.00073
 H473 H 0.23487 0.31967 -0.00174
 H474 H 0.25018 0.40808 -0.03976
 H475 H 0.28508 0.37985 0.04743
 H476 H 0.19788 0.39182 0.04004
 C477 C 0.74822 0.14096 -0.03528
 C478 C 0.75025 0.15941 -0.00563
 C479 C 0.75724 0.14315 0.01913
 C480 C 0.76168 0.10955 0.01202
 C481 C 0.77864 0.12534 -0.03691
 C482 C 0.78588 0.10901 -0.01228
 C483 C 0.72489 0.11540 -0.02917
 C484 C 0.73207 0.09895 -0.00456
 H485 H 0.74661 0.18339 -0.00458
 H486 H 0.76722 0.09614 0.03217
 H487 H 0.79261 0.12631 -0.05660
 H488 H 0.70319 0.11243 -0.04083
 C489 C 0.24497 0.64429 0.46710
 C490 C 0.24738 0.66051 0.49798
 C491 C 0.25448 0.64222 0.52123
 C492 C 0.25847 0.60911 0.51161
 C493 C 0.27513 0.62868 0.46401
 C494 C 0.28240 0.60992 0.48683
 C495 C 0.22149 0.61850 0.47152
 C496 C 0.22839 0.60028 0.49485
 H497 H 0.24235 0.68408 0.50132
 H498 H 0.26358 0.59424 0.53073
 H499 H 0.28962 0.63274 0.44513
 H500 H 0.19944 0.61681 0.46021
 C501 C 0.73767 0.86103 0.52513
 C502 C 0.73439 0.84406 0.49464
 C503 C 0.73918 0.86150 0.47033
 C504 C 0.74686 0.89473 0.47868
 C505 C 0.76928 0.87622 0.52513
 C506 C 0.77417 0.89396 0.50099
 C507 C 0.71563 0.88704 0.52223
 C508 C 0.72046 0.90474 0.49808
 H509 H 0.73092 0.81991 0.49289
 H510 H 0.75112 0.90890 0.45892
 H511 H 0.78550 0.87465 0.54381
 H512 H 0.69633 0.88992 0.53640
 C513 C 0.03153 0.23385 0.35751
 C514 C 0.00128 0.23701 0.34049
 C515 C -0.02260 0.24215 0.35845
 C516 C -0.01391 0.24440 0.39233
 C517 C 0.03559 0.26279 0.37680
 C518 C 0.01235 0.26815 0.39561
 C519 C 0.02554 0.20929 0.38077
 C520 C 0.00162 0.21464 0.39873
 H521 H -0.00075 0.23549 0.31617
 H522 H -0.03322 0.24913 0.40698
 H523 H 0.05642 0.27640 0.37720
 H524 H 0.03953 0.18995 0.38383
 C525 C -0.03882 0.75143 0.14152
 C526 C -0.01013 0.75257 0.16177
 C527 C 0.01629 0.75727 0.14698
 C528 C 0.01131 0.76068 0.11273
 C529 C -0.03759 0.78098 0.12444
 C530 C -0.01141 0.78613 0.10966
 C531 C -0.03292 0.72714 0.11727
 C532 C -0.00668 0.73193 0.10229
 H533 H -0.01112 0.75092 0.18605
 H534 H 0.03219 0.76455 0.09994
 H535 H -0.05642 0.79609 0.12345
 H536 H -0.04757 0.70759 0.11295
 C537 C 0.46345 0.24647 0.64595
 C538 C 0.49342 0.24987 0.66411
 C539 C 0.51795 0.25687 0.64740
 C540 C 0.51029 0.26021 0.61363
 C541 C 0.46076 0.27600 0.62917
 C542 C 0.48498 0.28340 0.61210
 C543 C 0.46989 0.22278 0.62120
 C544 C 0.49422 0.23011 0.60422
 H545 H 0.49500 0.24645 0.68817
 H546 H 0.53045 0.26573 0.60011
 H547 H 0.44018 0.28874 0.62920
 H548 H 0.45834 0.20105 0.61885
 C549 C 0.53005 0.73890 0.85828
 C550 C 0.49949 0.74166 0.84165
 C551 C 0.47585 0.74628 0.86004
 C552 C 0.48486 0.74832 0.89379
 C553 C 0.53382 0.76772 0.87785
 C554 C 0.51065 0.77254 0.89687
 C555 C 0.52480 0.71403 0.88141
 C556 C 0.50102 0.71880 0.89972
 H557 H 0.49696 0.74013 0.81732
 H558 H 0.46565 0.75257 0.90872
 H559 H 0.55431 0.78183 0.87808
 H560 H 0.53910 0.69484 0.88407
 C561 C 0.09413 0.24874 0.30128
 C562 C 0.10280 0.21990 0.29235
 C563 C 0.09048 0.19524 0.30793
 C564 C 0.06792 0.19942 0.32939
 C565 C 0.05775 0.22856 0.33664
 C566 C 0.07230 0.25287 0.32274
 C567 C 0.05944 0.27917 0.30704
 C568 C 0.08317 0.27454 0.28329
 H569 H 0.09692 0.17249 0.30237
 H570 H 0.05757 0.17954 0.33887
 H571 H 0.06315 0.30053 0.32042
 H572 H 0.03581 0.27478 0.29825
 H573 H 0.10036 0.29339 0.28284
 H574 H 0.07313 0.26724 0.26090
 C575 C 0.59307 0.75570 0.80291
 C576 C 0.60253 0.72715 0.79395
 C577 C 0.59004 0.70203 0.80868
 C578 C 0.56686 0.70548 0.82959
 C579 C 0.55616 0.73432 0.83712
 C580 C 0.57053 0.75909 0.82379
 C581 C 0.55731 0.78505 0.80780
 C582 C 0.58185 0.78125 0.78474
 H583 H 0.59703 0.67948 0.80301
 H584 H 0.55663 0.68530 0.83860
 H585 H 0.56000 0.80643 0.82131
 H586 H 0.53401 0.77995 0.79838
 H587 H 0.59852 0.80059 0.78485
 H588 H 0.57269 0.77383 0.76204
 C589 C 0.40324 0.72419 0.81713
 C590 C 0.38880 0.75175 0.81430
 C591 C 0.40027 0.77599 0.83308
 C592 C 0.42776 0.77360 0.84998
 C593 C 0.44424 0.74699 0.84845
 C594 C 0.43007 0.72188 0.83377
 C595 C 0.44140 0.69772 0.81343
 C596 C 0.41211 0.70052 0.79481
 H597 H 0.38951 0.79757 0.83303
 H598 H 0.43730 0.79329 0.86204
 H599 H 0.44290 0.67580 0.82492
 H600 H 0.46179 0.70459 0.80086
 H601 H 0.39703 0.67999 0.79522
 H602 H 0.41610 0.70962 0.77205
 C603 C -0.09446 0.22134 0.31320
 C604 C -0.11090 0.24795 0.31401
 C605 C -0.10062 0.27024 0.33577
 C606 C -0.07259 0.26757 0.35183
 C607 C -0.05419 0.24272 0.34645
 C608 C -0.06709 0.21889 0.32875
 C609 C -0.05523 0.19725 0.30600
 C610 C -0.08524 0.20017 0.28862
 H611 H -0.11287 0.29074 0.33910
 H612 H -0.06430 0.28600 0.36651
 H613 H -0.05227 0.17446 0.31532
 H614 H -0.03582 0.20621 0.29319
 H615 H -0.09928 0.17889 0.28770
 H616 H -0.08257 0.21145 0.26667
 C617 C -0.11127 0.71870 0.17653
 C618 C -0.11839 0.74120 0.19763
 C619 C -0.10118 0.76846 0.19764
 C620 C -0.07606 0.77169 0.17900
 C621 C -0.06756 0.74795 0.15947
 C622 C -0.08647 0.72189 0.15792
 C623 C -0.07849 0.68963 0.16155
 C624 C -0.10557 0.68623 0.18167
 H625 H -0.10638 0.78700 0.21270
 H626 H -0.06253 0.79250 0.18062
 H627 H -0.05630 0.68716 0.17369
 H628 H -0.08144 0.67621 0.14012
 H629 H -0.09917 0.68175 0.20556
 H630 H -0.12398 0.67116 0.17164
 C631 C 0.40655 0.25730 0.70795
 C632 C 0.38326 0.23567 0.70265
 C633 C 0.38786 0.21500 0.67831
 C634 C 0.41385 0.21748 0.66015
 C635 C 0.43638 0.24065 0.66574
 C636 C 0.43136 0.25968 0.69045
 C637 C 0.44246 0.28866 0.70499
 C638 C 0.41447 0.28606 0.72487
 H639 H 0.37133 0.19713 0.67260
 H640 H 0.41528 0.20171 0.64140
 H641 H 0.44159 0.30774 0.68922
 H642 H 0.46437 0.28642 0.71765
 H643 H 0.39769 0.30375 0.72050
 H644 H 0.42027 0.28233 0.74903
 C645 C 0.58624 0.23962 0.69616
 C646 C 0.60825 0.26200 0.69057
 C647 C 0.60015 0.28252 0.66767
 C648 C 0.57103 0.28059 0.65279
 C649 C 0.54911 0.25835 0.66057
 C650 C 0.55837 0.23812 0.68219
 C651 C 0.54775 0.21141 0.69912
 C652 C 0.57912 0.21309 0.71517
 H653 H 0.61580 0.30043 0.66150
 H654 H 0.56541 0.29703 0.63601
 H655 H 0.54394 0.19108 0.68420
 H656 H 0.52900 0.21647 0.71450
 H657 H 0.59335 0.19354 0.70977
 H658 H 0.57804 0.21933 0.73954
 C659 C 0.09713 0.78268 0.17033
 C660 C 0.10297 0.76577 0.19601
 C661 C 0.07883 0.74780 0.20673
 C662 C 0.05099 0.74489 0.19061
 C663 C 0.04622 0.75992 0.16325
 C664 C 0.06959 0.77962 0.15413
 C665 C 0.08525 0.78172 0.12469
 C666 C 0.11508 0.78555 0.14252
 H667 H 0.08145 0.73521 0.22716
 H668 H 0.03364 0.72985 0.19917
 H669 H 0.07907 0.80221 0.11224
 H670 H 0.08369 0.76027 0.11116
 H671 H 0.12582 0.80842 0.14074
 H672 H 0.13059 0.76654 0.13913
 C673 C 0.30320 0.09422 0.24912
 C674 C 0.29705 0.10350 0.21970
 C675 C 0.31553 0.09241 0.19676
 C676 C 0.33674 0.07003 0.20277
 C677 C 0.34095 0.05898 0.23223
 C678 C 0.32454 0.07273 0.25515
 C679 C 0.30637 0.05928 0.27964
 C680 C 0.28273 0.08260 0.27284
 H681 H 0.31224 0.09948 0.17372
 H682 H 0.34832 0.06033 0.18389
 H683 H 0.31772 0.06278 0.30222
 H684 H 0.29820 0.03577 0.27428
 H685 H 0.28027 0.09927 0.29164
 H686 H 0.26107 0.07237 0.26329
 C687 C 0.79212 0.58491 0.74413
 C688 C 0.79320 0.60404 0.71973
 C689 C 0.81488 0.59718 0.69780
 C690 C 0.83468 0.57285 0.70144
 C691 C 0.83367 0.55460 0.72736
 C692 C 0.81125 0.56173 0.74771
 C693 C 0.79984 0.55416 0.77797
 C694 C 0.77817 0.58043 0.77400
 H695 H 0.81680 0.61054 0.67782
 H696 H 0.85057 0.56909 0.68382
 H697 H 0.81734 0.55841 0.79626
 H698 H 0.78810 0.53162 0.77794
 H699 H 0.78332 0.59973 0.78995
 H700 H 0.75386 0.57305 0.77179
 C701 C 0.81344 0.40232 0.72450
 C702 C 0.81250 0.38815 0.75241
 C703 C 0.83247 0.40025 0.77554
 C704 C 0.84866 0.42792 0.77184
 C705 C 0.84495 0.44412 0.74509
 C706 C 0.82912 0.42938 0.72097
 C707 C 0.80751 0.43930 0.69692
 C708 C 0.78992 0.40969 0.70109
 H709 H 0.83403 0.38966 0.79724
 H710 H 0.86204 0.43773 0.79067
 H711 H 0.81828 0.44066 0.67460
 H712 H 0.79417 0.45908 0.70344
 H713 H 0.79024 0.39427 0.68098
 H714 H 0.76718 0.41304 0.71068
 C715 C 0.30173 -0.08931 0.22999
 C716 C 0.30717 -0.10872 0.25382
 C717 C 0.33213 -0.09993 0.27351
 C718 C 0.34907 -0.07255 0.26948
 C719 C 0.34142 -0.05292 0.24591
 C720 C 0.31765 -0.06289 0.22652
 C721 C 0.29858 -0.05375 0.20026
 C722 C 0.28042 -0.08346 0.20415
 H723 H 0.33842 -0.11365 0.29239
 H724 H 0.36725 -0.06626 0.28557
 H725 H 0.31150 -0.05306 0.17911
 H726 H 0.28512 -0.03355 0.20522
 H727 H 0.28266 -0.09988 0.18508
 H728 H 0.25683 -0.08001 0.21153
 C729 C 0.20743 -0.09624 0.75630
 C730 C 0.20398 -0.11749 0.73264
 C731 C 0.18013 -0.11205 0.71137
 C732 C 0.16147 -0.08672 0.71440
 C733 C 0.16586 -0.06563 0.73886
 C734 C 0.18945 -0.07197 0.75915
 C735 C 0.20499 -0.06067 0.78760
 C736 C 0.22545 -0.08799 0.78445
 H737 H 0.17549 -0.12715 0.69221
 H738 H 0.14384 -0.08435 0.69738
 H739 H 0.18987 -0.06183 0.80722
 H740 H 0.21717 -0.03866 0.78479
 H741 H 0.22223 -0.10476 0.80242
 H742 H 0.24945 -0.08166 0.77982
 C743 C 0.70842 0.40442 0.25814
 C744 C 0.70582 0.38361 0.23415
 C745 C 0.68310 0.38944 0.21192
 C746 C 0.66409 0.41451 0.21468
 C747 C 0.66713 0.43493 0.23981
 C748 C 0.69016 0.42850 0.26078
 C749 C 0.70388 0.43850 0.29055
 C750 C 0.72457 0.41130 0.28759
 H751 H 0.67956 0.37465 0.19234
 H752 H 0.64709 0.41705 0.19707
 H753 H 0.68753 0.43645 0.30909
 H754 H 0.71625 0.46065 0.28948
 H755 H 0.72011 0.39368 0.30447
 H756 H 0.74889 0.41778 0.28483
 C757 C 0.67196 0.59500 0.28327
 C758 C 0.69352 0.60443 0.26252
 C759 C 0.70144 0.58323 0.24009
 C760 C 0.68640 0.55492 0.23726
 C761 C 0.66287 0.54676 0.25667
 C762 C 0.65692 0.56695 0.28040
 C763 C 0.62779 0.57956 0.29061
 C764 C 0.64429 0.61008 0.29388
 H765 H 0.71869 0.58853 0.22403
 H766 H 0.69266 0.53970 0.21918
 H767 H 0.62088 0.57034 0.31257
 H768 H 0.60969 0.57910 0.27264
 H769 H 0.64694 0.61828 0.31772
 H770 H 0.63581 0.62692 0.27773
 C771 C 0.17378 0.09489 0.78197
 C772 C 0.19635 0.10427 0.76231
 C773 C 0.20557 0.08300 0.74054
 C774 C 0.19048 0.05473 0.73689
 C775 C 0.16552 0.04688 0.75469
 C776 C 0.15851 0.06710 0.77808
 C777 C 0.12907 0.08013 0.78700
 C778 C 0.14597 0.11031 0.79161
 H779 H 0.22386 0.08830 0.72561
 H780 H 0.19767 0.03949 0.71925
 H781 H 0.12066 0.07064 0.80831
 H782 H 0.11202 0.08051 0.76812
 H783 H 0.14764 0.11799 0.81566
 H784 H 0.13858 0.12764 0.77548
 C785 C 0.20494 0.32167 0.09578
 C786 C 0.22666 0.30023 0.10231
 C787 C 0.25434 0.30223 0.08723
 C788 C 0.25842 0.32296 0.06408
 C789 C 0.23516 0.34261 0.05569
 C790 C 0.20898 0.34226 0.07297
 C791 C 0.17630 0.33919 0.06297
 C792 C 0.17194 0.31690 0.08801
 H793 H 0.27241 0.28703 0.09233
 H794 H 0.27933 0.32271 0.05181
 H795 H 0.17322 0.32884 0.03995
 H796 H 0.16387 0.36030 0.06679
 H797 H 0.16615 0.29356 0.07959
 H798 H 0.15736 0.32543 0.10619
 C799 C 0.71106 0.82843 0.59980
 C800 C 0.72868 0.80291 0.60281
 C801 C 0.74726 0.79511 0.57866
 C802 C 0.74978 0.81380 0.55366
 C803 C 0.73342 0.84058 0.55174
 C804 C 0.71338 0.84687 0.57496
 C805 C 0.71134 0.87482 0.59425
 C806 C 0.70864 0.85462 0.62121
 H807 H 0.76057 0.77506 0.57925
 H808 H 0.76524 0.80773 0.53611
 H809 H 0.69024 0.88718 0.58948
 H810 H 0.73265 0.88896 0.59468
 H811 H 0.68597 0.85523 0.63156
 H812 H 0.72834 0.85707 0.63744
 C813 C 0.71860 0.81470 0.39979
 C814 C 0.74552 0.81582 0.38371
 C815 C 0.76769 0.83801 0.39348
 C816 C 0.76457 0.85456 0.42082
 C817 C 0.73946 0.84904 0.43915
 C818 C 0.71577 0.83052 0.42672
 C819 C 0.69443 0.80725 0.43883
 C820 C 0.69776 0.78969 0.40926
 H821 H 0.78843 0.84124 0.38133
 H822 H 0.78299 0.86971 0.42876
 H823 H 0.67125 0.81589 0.44166
 H824 H 0.70370 0.79484 0.45825
 H825 H 0.67641 0.78808 0.39527
 H826 H 0.70954 0.76811 0.41226
 C827 C 0.22110 0.31088 -0.09546
 C828 C 0.24710 0.31391 -0.11278
 C829 C 0.26805 0.33758 -0.10408
 C830 C 0.26494 0.35410 -0.07673
 C831 C 0.24116 0.34702 -0.05722
 C832 C 0.21839 0.32661 -0.06836
 C833 C 0.20103 0.30115 -0.05468
 C834 C 0.20407 0.28392 -0.08439
 H835 H 0.28791 0.34216 -0.11721
 H836 H 0.28246 0.37068 -0.06977
 H837 H 0.17720 0.30686 -0.05000
 H838 H 0.21339 0.29009 -0.03610
 H839 H 0.18197 0.27975 -0.09673
 H840 H 0.21858 0.26396 -0.08235
 C841 C 0.75910 0.20276 -0.09249
 C842 C 0.73591 0.19860 -0.11432
 C843 C 0.71515 0.17417 -0.10954
 C844 C 0.71842 0.15535 -0.08421
 C845 C 0.74252 0.16042 -0.06254
 C846 C 0.76215 0.18478 -0.06822
 C847 C 0.79046 0.20079 -0.05666
 C848 C 0.78704 0.22120 -0.08408
 H849 H 0.69642 0.16919 -0.12533
 H850 H 0.70216 0.13686 -0.08237
 H851 H 0.81053 0.18626 -0.05758
 H852 H 0.78731 0.21271 -0.03470
 H853 H 0.80523 0.21846 -0.10071
 H854 H 0.78189 0.24488 -0.07788
 C855 C 0.25503 0.70879 0.41259
 C856 C 0.23392 0.70317 0.38899
 C857 C 0.21421 0.67764 0.39231
 C858 C 0.21684 0.65884 0.41761
 C859 C 0.23900 0.66512 0.44098
 C860 C 0.25729 0.69091 0.43708
 C861 C 0.28497 0.70734 0.44962
 C862 C 0.28238 0.72765 0.42202
 H863 H 0.19722 0.67134 0.37507
 H864 H 0.20206 0.63902 0.41773
 H865 H 0.30530 0.69311 0.44950
 H866 H 0.28081 0.71922 0.47139
 H867 H 0.30131 0.72508 0.40620
 H868 H 0.27665 0.75127 0.42782
 C869 C 0.28075 0.66129 0.60134
 C870 C 0.25971 0.68259 0.61030
 C871 C 0.23324 0.68505 0.59191
 C872 C 0.23067 0.67037 0.56348
 C873 C 0.25430 0.65265 0.55299
 C874 C 0.27798 0.64644 0.57335
 C875 C 0.31145 0.64783 0.56907
 C876 C 0.31453 0.66412 0.59960
 H877 H 0.21530 0.69975 0.59845
 H878 H 0.21103 0.67430 0.54902
 H879 H 0.31806 0.66213 0.54991
 H880 H 0.32136 0.62511 0.56910
 H881 H 0.32288 0.68795 0.59819
 H882 H 0.32623 0.65074 0.61706
 C883 C 0.74210 0.19309 0.08654
 C884 C 0.76380 0.18618 0.10862
 C885 C 0.78344 0.16262 0.10079
 C886 C 0.78108 0.14793 0.07187
 C887 C 0.75932 0.15668 0.04989
 C888 C 0.74017 0.17936 0.05883
 C889 C 0.71420 0.19747 0.04831
 C890 C 0.71643 0.21322 0.07956
 H891 H 0.80089 0.15577 0.11662
 H892 H 0.79682 0.13046 0.06652
 H893 H 0.69306 0.18343 0.04441
 H894 H 0.72018 0.21278 0.02977
 H895 H 0.69643 0.20848 0.09364
 H896 H 0.72391 0.23733 0.07865
 C897 C 0.46446 0.35828 0.57895
 C898 C 0.48297 0.36080 0.55397
 C899 C 0.50044 0.33568 0.54637
 C900 C 0.50115 0.31030 0.56501
 C901 C 0.48455 0.30952 0.59176
 C902 C 0.46530 0.33344 0.59729
 C903 C 0.46210 0.35222 0.62531
 C904 C 0.46116 0.37948 0.60524
 H905 H 0.51398 0.33570 0.52640
 H906 H 0.51489 0.29158 0.55848
 H907 H 0.48264 0.35210 0.64049
 H908 H 0.44023 0.34741 0.63642
 H909 H 0.48112 0.39527 0.60875
 H910 H 0.43873 0.39028 0.60486
 C911 C 0.00773 0.83657 0.04506
 C912 C -0.00911 0.86212 0.05159
 C913 C -0.02020 0.86517 0.08097
 C914 C -0.01861 0.84122 0.10109
 C915 C -0.00609 0.81363 0.09216
 C916 C 0.00919 0.81283 0.06494
 C917 C 0.00758 0.78969 0.03995
 C918 C 0.00598 0.81561 0.01817
 H919 H -0.03170 0.88528 0.08789
 H920 H -0.02905 0.84361 0.12280
 H921 H -0.01360 0.77538 0.03998
 H922 H 0.02892 0.77706 0.03848
 H923 H -0.01614 0.81635 0.00551
 H924 H 0.02640 0.81787 0.00413
 C925 C -0.00498 0.68105 0.03272
 C926 C 0.02206 0.66556 0.03682
 C927 C 0.04231 0.67659 0.06013
 C928 C 0.03351 0.69939 0.08069
 C929 C 0.00411 0.71107 0.07876
 C930 C -0.01384 0.70278 0.05325
 C931 C -0.04674 0.69438 0.04868
 C932 C -0.03707 0.67050 0.02606
 H933 H 0.06426 0.66673 0.06349
 H934 H 0.04889 0.70634 0.09923
 H935 H -0.05969 0.71268 0.03811
 H936 H -0.05725 0.68419 0.06864
 H937 H -0.04458 0.67517 0.00253
 H938 H -0.04171 0.64704 0.03340
 C939 C 0.49481 0.18073 0.53376
 C940 C 0.52244 0.16605 0.53662
 C941 C 0.54331 0.17733 0.55928
 C942 C 0.53470 0.19952 0.58054
 C943 C 0.50495 0.21035 0.57984
 C944 C 0.48621 0.20198 0.55491
 C945 C 0.45347 0.19241 0.55193
 C946 C 0.46286 0.16896 0.52873
 H947 H 0.56566 0.16806 0.56162
 H948 H 0.55052 0.20658 0.59868
 H949 H 0.43934 0.21024 0.54206
 H950 H 0.44440 0.18200 0.57247
 H951 H 0.45392 0.17333 0.50560
 H952 H 0.45956 0.14537 0.53623
 C953 C -0.04461 0.16146 0.44615
 C954 C -0.02362 0.15288 0.46843
 C955 C 0.00691 0.16268 0.46551
 C956 C 0.01510 0.18272 0.44273
 C957 C -0.00709 0.19393 0.42276
 C958 C -0.03667 0.18176 0.42415
 C959 C -0.06671 0.19643 0.42514
 C960 C -0.07547 0.17395 0.44902
 H961 H 0.02444 0.15537 0.48101
 H962 H 0.03863 0.19030 0.44141
 H963 H -0.08007 0.19312 0.40361
 H964 H -0.06519 0.21997 0.43426
 H965 H -0.09370 0.15752 0.44111
 H966 H -0.07884 0.18457 0.47160
 C967 C 0.45619 0.66419 0.94672
 C968 C 0.47720 0.65644 0.96932
 C969 C 0.50747 0.66718 0.96672
 C970 C 0.51527 0.68732 0.94386
 C971 C 0.49288 0.69773 0.92362
 C972 C 0.46369 0.68459 0.92471
 C973 C 0.43305 0.69811 0.92508
 C974 C 0.42479 0.67554 0.94904
 H975 H 0.52503 0.66050 0.98253
 H976 H 0.53859 0.69561 0.94272
 H977 H 0.42012 0.69410 0.90339
 H978 H 0.43350 0.72173 0.93397
 H979 H 0.40724 0.65843 0.94104
 H980 H 0.42073 0.68618 0.97146
 C981 C 0.49123 0.83207 0.95552
 C982 C 0.51998 0.84406 0.96438
 C983 C 0.54550 0.82823 0.95538
 C984 C 0.54229 0.80385 0.93474
 C985 C 0.51350 0.79511 0.92204
 C986 C 0.48807 0.80816 0.93463
 C987 C 0.46116 0.82147 0.91944
 C988 C 0.46449 0.84748 0.94236
 H989 H 0.56812 0.83548 0.96323
 H990 H 0.56262 0.79284 0.92784
 H991 H 0.44009 0.80743 0.92199
 H992 H 0.46577 0.82834 0.89601
 H993 H 0.44542 0.84831 0.95822
 H994 H 0.47081 0.86938 0.93216
 C995 C -0.00551 0.32660 0.45599
 C996 C 0.02349 0.33799 0.46478
 C997 C 0.04864 0.32210 0.45505
 C998 C 0.04485 0.29832 0.43378
 C999 C 0.01581 0.29025 0.42119
 C1000 C -0.00926 0.30324 0.43454
 C1001 C -0.03628 0.31721 0.42020
 C1002 C -0.03224 0.34266 0.44368
 H1003 H 0.07141 0.32884 0.46290
 H1004 H 0.06497 0.28723 0.42644
 H1005 H -0.05743 0.30333 0.42286
 H1006 H -0.03206 0.32452 0.39683
 H1007 H -0.05104 0.34334 0.45987
 H1008 H -0.02582 0.36474 0.43391
 C1009 C 0.35162 0.57058 0.45820
 C1010 C 0.36201 0.55459 0.48300
 C1011 C 0.34802 0.55988 0.51081
 C1012 C 0.32261 0.57848 0.51260
 C1013 C 0.31053 0.59210 0.48657
 C1014 C 0.32658 0.58862 0.45988
 C1015 C 0.31526 0.57887 0.42894
 C1016 C 0.34273 0.55920 0.42714
 H1017 H 0.35609 0.54907 0.53101
 H1018 H 0.31218 0.58135 0.53418
 H1019 H 0.31593 0.59761 0.41274
 H1020 H 0.29333 0.56578 0.42918
 H1021 H 0.35913 0.56680 0.41008
 H1022 H 0.33681 0.53464 0.42629
 C1023 C 0.83902 0.04542 0.00266
 C1024 C 0.86368 0.05268 -0.01540
 C1025 C 0.86523 0.08198 -0.02705
 C1026 C 0.84070 0.10132 -0.02428
 C1027 C 0.81403 0.09177 -0.00989
 C1028 C 0.81477 0.06454 0.00537
 C1029 C 0.79206 0.03886 0.00508
 C1030 C 0.81855 0.01793 0.00209
 H1031 H 0.88464 0.08949 -0.03961
 H1032 H 0.84204 0.12305 -0.03486
 H1033 H 0.77654 0.03847 -0.01517
 H1034 H 0.78056 0.03696 0.02698
 H1035 H 0.81845 0.00537 -0.01992
 H1036 H 0.82225 0.00395 0.02227
 C1037 C 0.68100 0.02916 -0.00168
 C1038 C 0.66558 0.03350 0.02526
 C1039 C 0.67710 0.05673 0.04518
 C1040 C 0.70020 0.07717 0.03614
 C1041 C 0.71178 0.07505 0.00687
 C1042 C 0.70318 0.04951 -0.01072
 C1043 C 0.69438 0.04522 -0.04332
 C1044 C 0.66991 0.02291 -0.03345
 H1045 H 0.66729 0.06024 0.06703
 H1046 H 0.70731 0.09585 0.05112
 H1047 H 0.71247 0.03442 -0.05636
 H1048 H 0.68468 0.06547 -0.05363
 H1049 H 0.67396 -0.00064 -0.04104
 H1050 H 0.64644 0.03065 -0.03772
 C1051 C 0.16790 0.53811 0.49331
 C1052 C 0.16216 0.53373 0.52383
 C1053 C 0.17709 0.55366 0.54514
 C1054 C 0.19915 0.57509 0.53597
 C1055 C 0.20618 0.57746 0.50527
 C1056 C 0.18899 0.55968 0.48429
 C1057 C 0.19953 0.54010 0.45916
 C1058 C 0.17666 0.51630 0.46911
 H1059 H 0.17250 0.55210 0.56892
 H1060 H 0.21069 0.58970 0.55284
 H1061 H 0.22355 0.53357 0.46244
 H1062 H 0.19379 0.54931 0.43669
 H1063 H 0.18747 0.49599 0.47829
 H1064 H 0.15789 0.51163 0.45220
 C1065 C 0.16680 0.46918 0.00545
 C1066 C 0.15768 0.47379 -0.02455
 C1067 C 0.16806 0.45358 -0.04682
 C1068 C 0.18858 0.43105 -0.03926
 C1069 C 0.19880 0.42788 -0.00919
 C1070 C 0.18665 0.44659 0.01292
 C1071 C 0.20312 0.46596 0.03635
 C1072 C 0.18163 0.49076 0.02811
 H1073 H 0.16083 0.45549 -0.07022
 H1074 H 0.19636 0.41610 -0.05688
 H1075 H 0.22712 0.47110 0.03058
 H1076 H 0.19991 0.45745 0.05946
 H1077 H 0.19314 0.51033 0.01749
 H1078 H 0.16618 0.49667 0.04658
 C1079 C 0.66467 0.95193 0.45538
 C1080 C 0.65651 0.97357 0.47693
 C1081 C 0.66865 0.97118 0.50650
 C1082 C 0.68992 0.94910 0.51328
 C1083 C 0.70002 0.92934 0.49053
 C1084 C 0.68613 0.93059 0.46189
 C1085 C 0.69966 0.93312 0.43149
 C1086 C 0.67587 0.95615 0.42428
 H1087 H 0.66184 0.98628 0.52441
 H1088 H 0.69894 0.94783 0.53618
 H1089 H 0.69663 0.91186 0.41783
 H1090 H 0.72309 0.94318 0.43241
 H1091 H 0.65891 0.94801 0.40667
 H1092 H 0.68562 0.97922 0.42099
 C1093 C 0.82435 0.96331 0.49273
 C1094 C 0.85049 0.95590 0.50934
 C1095 C 0.85418 0.92522 0.51579
 C1096 C 0.83012 0.90404 0.51044
 C1097 C 0.80194 0.91314 0.49854
 C1098 C 0.80058 0.94236 0.48745
 C1099 C 0.77713 0.96557 0.49163
 C1100 C 0.80311 0.98849 0.49736
 H1101 H 0.87474 0.91789 0.52695
 H1102 H 0.83283 0.88115 0.51778
 H1103 H 0.76324 0.96165 0.51182
 H1104 H 0.76389 0.96940 0.47043
 H1105 H 0.80427 0.99791 0.52085
 H1106 H 0.80483 1.00549 0.47941
 C1107 C 0.32003 0.46885 0.00300
 C1108 C 0.34885 0.45999 0.01289
 C1109 C 0.35272 0.42918 0.01833
 C1110 C 0.32878 0.40805 0.01305
 C1111 C 0.30021 0.41702 0.00217
 C1112 C 0.29612 0.44779 -0.00214
 C1113 C 0.28562 0.46311 -0.03001
 C1114 C 0.31152 0.48604 -0.02433
 H1115 H 0.37429 0.42118 0.02658
 H1116 H 0.33246 0.38461 0.01791
 H1117 H 0.26282 0.47278 -0.02748
 H1118 H 0.28821 0.44908 -0.05084
 H1119 H 0.30365 0.50893 -0.01840
 H1120 H 0.32909 0.48533 -0.04183
 C1121 C 0.54481 0.49337 0.33105
 C1122 C 0.55433 0.48028 0.35807
 C1123 C 0.58298 0.46701 0.35860
 C1124 C 0.60206 0.46899 0.33384
 C1125 C 0.59312 0.48412 0.30750
 C1126 C 0.56368 0.49523 0.30638
 C1127 C 0.55275 0.52575 0.29880
 C1128 C 0.53210 0.52357 0.32554
 H1129 H 0.59132 0.45595 0.37853
 H1130 H 0.62425 0.45928 0.33573
 H1131 H 0.54013 0.52561 0.27673
 H1132 H 0.57064 0.54381 0.30200
 H1133 H 0.50758 0.52198 0.31884
 H1134 H 0.53820 0.54029 0.34396
 C1135 C 0.05144 0.00486 0.83258
 C1136 C 0.05817 -0.01276 0.85758
 C1137 C 0.08736 -0.02488 0.85953
 C1138 C 0.10695 -0.02320 0.83510
 C1139 C 0.09772 -0.00950 0.80810
 C1140 C 0.07080 0.00646 0.80839
 C1141 C 0.04494 0.00631 0.78587
 C1142 C 0.02377 0.00452 0.81232
 H1143 H 0.09452 -0.03711 0.87919
 H1144 H 0.12852 -0.03416 0.83677
 H1145 H 0.04387 -0.01427 0.77102
 H1146 H 0.04370 0.02795 0.77385
 H1147 H 0.01040 -0.01713 0.81288
 H1148 H 0.01039 0.02513 0.81546
 C1149 C 0.05993 0.04037 0.67249
 C1150 C 0.03743 0.02001 0.66072
 C1151 C 0.03894 -0.01026 0.66959
 C1152 C 0.06060 -0.01887 0.69137
 C1153 C 0.08115 0.00255 0.70521
 C1154 C 0.08106 0.03194 0.69440
 C1155 C 0.07955 0.06157 0.71089
 C1156 C 0.05685 0.07086 0.68669
 H1157 H 0.02325 -0.02739 0.66007
 H1158 H 0.06082 -0.04223 0.69790
 H1159 H 0.10148 0.07464 0.71068
 H1160 H 0.06921 0.05966 0.73337
 H1161 H 0.06587 0.08905 0.67229
 H1162 H 0.03373 0.07441 0.69528
 C1163 C 0.56150 0.54111 0.17251
 C1164 C 0.54137 0.52034 0.15755
 C1165 C 0.54410 0.48967 0.16459
 C1166 C 0.56426 0.48086 0.18762
 C1167 C 0.58231 0.50235 0.20450
 C1168 C 0.58133 0.53242 0.19554
 C1169 C 0.57668 0.56079 0.21341
 C1170 C 0.55541 0.57035 0.18804
 H1171 H 0.53039 0.47229 0.15279
 H1172 H 0.56522 0.45713 0.19263
 H1173 H 0.59779 0.57512 0.21572
 H1174 H 0.56472 0.55683 0.23477
 H1175 H 0.56451 0.58992 0.17552
 H1176 H 0.53139 0.57201 0.19478
 C1177 C 0.47521 0.00206 0.18109
 C1178 C 0.47137 -0.02381 0.16253
 C1179 C 0.44803 -0.04473 0.16998
 C1180 C 0.42665 -0.03728 0.19184
 C1181 C 0.42784 -0.00861 0.20616
 C1182 C 0.45378 0.00970 0.20195
 C1183 C 0.45879 0.04270 0.19736
 C1184 C 0.48228 0.03427 0.17432
 H1185 H 0.44505 -0.06605 0.15778
 H1186 H 0.40781 -0.05288 0.19562
 H1187 H 0.46891 0.05448 0.21782
 H1188 H 0.43908 0.05378 0.18679
 H1189 H 0.50584 0.04136 0.18157
 H1190 H 0.47562 0.03999 0.15081
 C1191 C 0.94394 0.45544 0.66379
 C1192 C 0.96767 0.47554 0.65664
 C1193 C 0.96721 0.50509 0.66902
 C1194 C 0.94492 0.51309 0.68962
 C1195 C 0.92311 0.49156 0.69882
 C1196 C 0.92230 0.46319 0.68452
 C1197 C 0.92157 0.43247 0.69754
 C1198 C 0.94514 0.42394 0.67472
 H1199 H 0.98396 0.52204 0.66289
 H1200 H 0.94501 0.53594 0.69879
 H1201 H 0.89922 0.42054 0.69342
 H1202 H 0.93049 0.43230 0.72123
 H1203 H 0.93634 0.40715 0.65738
 H1204 H 0.96760 0.41890 0.68521
 C1205 C 0.92743 0.53765 0.84578
 C1206 C 0.95519 0.52320 0.84679
 C1207 C 0.96271 0.50562 0.82127
 C1208 C 0.94181 0.50112 0.79673
 C1209 C 0.91294 0.51402 0.79727
 C1210 C 0.90694 0.53316 0.82173
 C1211 C 0.88025 0.53282 0.84168
 C1212 C 0.90265 0.53771 0.86813
 H1213 H 0.98455 0.49520 0.82024
 H1214 H 0.94838 0.48768 0.77745
 H1215 H 0.86807 0.51047 0.84154
 H1216 H 0.86556 0.55238 0.83790
 H1217 H 0.90349 0.51824 0.88345
 H1218 H 0.90073 0.56008 0.87961
 C1219 C 0.45637 -0.00515 0.33064
 C1220 C 0.44916 0.01284 0.35566
 C1221 C 0.41898 0.02228 0.35744
 C1222 C 0.39859 0.01809 0.33261
 C1223 C 0.40805 0.00444 0.30555
 C1224 C 0.43623 -0.00925 0.30610
 C1225 C 0.46117 -0.00769 0.28402
 C1226 C 0.48321 -0.00327 0.31084
 H1227 H 0.41166 0.03471 0.37708
 H1228 H 0.37625 0.02749 0.33385
 H1229 H 0.45996 0.01242 0.26958
 H1230 H 0.46370 -0.02949 0.27162
 H1231 H 0.49482 0.01936 0.31190
 H1232 H 0.49841 -0.02256 0.31391
   
