data_POSCAR
  _audit_creation_date              2014-09-24
  _audit_creation_method            'ToBaCCo'
  _symmetry_space_group_name_H-M    'P1'
  _symmetry_Int_Tables_number       1
  _symmetry_cell_setting            triclinic
  loop_
  _symmetry_equiv_pos_as_xyz
 x,y,z
_cell_length_a 61.6802
_cell_length_b 61.6636
_cell_length_c 61.6963
_cell_angle_alpha 90.147500
_cell_angle_beta 89.992200
_cell_angle_gamma 90.094000
loop_
  _atom_site_label
  _atom_site_type_symbol
  _atom_site_fract_x
  _atom_site_fract_y
  _atom_site_fract_z
C1 C 0.31260 0.31223 -0.01213
 C2 C 0.31289 0.31203 0.00997
 C3 C 0.29806 0.32587 0.02300
 C4 C 0.32860 0.29856 0.02224
 C5 C 0.32631 0.29725 -0.02513
 C6 C 0.29917 0.32799 -0.02438
 C7 C 0.30666 0.33999 0.03870
 C8 C 0.29303 0.35366 0.05054
 C9 C 0.27063 0.35327 0.04695
 C10 C 0.26186 0.33889 0.03167
 C11 C 0.27549 0.32516 0.01983
 C12 C 0.35101 0.30053 0.01861
 C13 C 0.36563 0.28777 0.03024
 C14 C 0.35803 0.27308 0.04576
 C15 C 0.33574 0.27128 0.04969
 C16 C 0.32110 0.28402 0.03805
 C17 C 0.32549 0.27470 -0.02184
 C18 C 0.33929 0.26092 -0.03344
 C19 C 0.35387 0.26951 -0.04861
 C20 C 0.35430 0.29192 -0.05236
 C21 C 0.34054 0.30568 -0.04075
 C22 C 0.28444 0.32054 -0.04008
 C23 C 0.27154 0.33523 -0.05149
 C24 C 0.27339 0.35751 -0.04745
 C25 C 0.28833 0.36507 -0.03210
 C26 C 0.30125 0.35040 -0.02070
 H27 H 0.32399 0.34072 0.04146
 H28 H 0.29998 0.36470 0.06234
 H29 H 0.24453 0.33840 0.02882
 H30 H 0.26849 0.31412 0.00807
 H31 H 0.35715 0.31198 0.00681
 H32 H 0.38286 0.28939 0.02717
 H33 H 0.30389 0.28241 0.04120
 H34 H 0.31436 0.26785 -0.01013
 H35 H 0.33867 0.24362 -0.03038
 H36 H 0.36544 0.29886 -0.06405
 H37 H 0.34136 0.32299 -0.04358
 H38 H 0.28274 0.30334 -0.04326
 H39 H 0.26009 0.32921 -0.06340
 H40 H 0.28999 0.38228 -0.02895
 H41 H 0.31284 0.35650 -0.00899
 H42 H 0.32969 0.26003 0.06173
 C43 C 0.68903 0.68939 -0.01073
 C44 C 0.68924 0.68888 0.01136
 C45 C 0.70258 0.67293 0.02344
 C46 C 0.67544 0.70362 0.02451
 C47 C 0.67335 0.70297 -0.02289
 C48 C 0.70380 0.67564 -0.02389
 C49 C 0.70038 0.65057 0.01952
 C50 C 0.71309 0.63571 0.03089
 C51 C 0.72796 0.64302 0.04643
 C52 C 0.72996 0.66525 0.05067
 C53 C 0.71726 0.68014 0.03930
 C54 C 0.66120 0.69489 0.03998
 C55 C 0.64736 0.70843 0.05173
 C56 C 0.64770 0.73085 0.04828
 C57 C 0.66224 0.73975 0.03329
 C58 C 0.67614 0.72621 0.02154
 C59 C 0.68087 0.71761 -0.03858
 C60 C 0.66623 0.73026 -0.05032
 C61 C 0.64393 0.72825 -0.04660
 C62 C 0.63630 0.71351 -0.03114
 C63 C 0.65092 0.70084 -0.01942
 C64 C 0.72637 0.67620 -0.02069
 C65 C 0.73993 0.66252 -0.03267
 C66 C 0.73108 0.64835 -0.04809
 C67 C 0.70868 0.64811 -0.05170
 C68 C 0.69513 0.66172 -0.03973
 H69 H 0.68882 0.64466 0.00768
 H70 H 0.71131 0.61853 0.02759
 H71 H 0.74134 0.67107 0.06274
 H72 H 0.71905 0.69730 0.04266
 H73 H 0.66046 0.67754 0.04257
 H74 H 0.63619 0.70138 0.06330
 H75 H 0.68726 0.73330 0.00995
 H76 H 0.69808 0.71933 -0.04162
 H77 H 0.67228 0.74155 -0.06232
 H78 H 0.61906 0.71173 -0.02825
 H79 H 0.64477 0.68929 -0.00772
 H80 H 0.73341 0.68708 -0.00881
 H81 H 0.75726 0.66287 -0.02980
 H82 H 0.70168 0.63721 -0.06360
 H83 H 0.67779 0.66110 -0.04250
 H84 H 0.66269 0.75709 0.03055
 C85 C 0.68898 0.31133 1.01004
 C86 C 0.68895 0.31164 0.98794
 C87 C 0.70216 0.32751 0.97557
 C88 C 0.67500 0.29674 0.97506
 C89 C 0.67350 0.29770 1.02246
 C90 C 0.70384 0.32528 1.02295
 C91 C 0.70002 0.34990 0.97930
 C92 C 0.71261 0.36469 0.96764
 C93 C 0.72727 0.35727 0.95198
 C94 C 0.72920 0.33501 0.94792
 C95 C 0.71664 0.32020 0.95959
 C96 C 0.66056 0.30530 0.95971
 C97 C 0.64662 0.29162 0.94820
 C98 C 0.64704 0.26922 0.95177
 C99 C 0.66177 0.26049 0.96664
 C100 C 0.67578 0.27417 0.97816
 C101 C 0.68128 0.28313 1.03808
 C102 C 0.66684 0.27036 1.04997
 C103 C 0.64449 0.27216 1.04649
 C104 C 0.63661 0.28686 1.03115
 C105 C 0.65103 0.29966 1.01926
 C106 C 0.72638 0.32485 1.01955
 C107 C 0.74002 0.33860 1.03141
 C108 C 0.73128 0.35274 1.04693
 C109 C 0.70889 0.35287 1.05070
 C110 C 0.69527 0.33917 1.03884
 H111 H 0.68861 0.35589 0.99123
 H112 H 0.71088 0.38189 0.97080
 H113 H 0.74044 0.32910 0.93577
 H114 H 0.71837 0.30301 0.95636
 H115 H 0.65976 0.32263 0.95702
 H116 H 0.63530 0.29854 0.93671
 H117 H 0.68704 0.26721 0.98965
 H118 H 0.69853 0.28155 1.04090
 H119 H 0.67309 0.25910 1.06188
 H120 H 0.61933 0.28848 1.02844
 H121 H 0.64469 0.31114 1.00763
 H122 H 0.73334 0.31398 1.00763
 H123 H 0.75733 0.33827 1.02837
 H124 H 0.70190 0.36370 1.06267
 H125 H 0.67796 0.33970 1.04177
 H126 H 0.66228 0.24317 0.96948
 C127 C 0.31219 0.68768 1.01407
 C128 C 0.31229 0.68797 0.99196
 C129 C 0.29732 0.67416 0.97903
 C130 C 0.32790 0.70150 0.97957
 C131 C 0.32607 0.70259 1.02701
 C132 C 0.29879 0.67189 1.02639
 C133 C 0.30578 0.66010 0.96322
 C134 C 0.29202 0.64651 0.95139
 C135 C 0.26964 0.64692 0.95512
 C136 C 0.26102 0.66122 0.97052
 C137 C 0.27478 0.67488 0.98236
 C138 C 0.35035 0.69955 0.98295
 C139 C 0.36489 0.71219 0.97100
 C140 C 0.35715 0.72671 0.95541
 C141 C 0.33483 0.72852 0.95178
 C142 C 0.32028 0.71592 0.96373
 C143 C 0.32535 0.72515 1.02383
 C144 C 0.33922 0.73886 1.03546
 C145 C 0.35378 0.73017 1.05055
 C146 C 0.35415 0.70776 1.05418
 C147 C 0.34032 0.69406 1.04254
 C148 C 0.28428 0.67931 1.04229
 C149 C 0.27150 0.66461 1.05387
 C150 C 0.27325 0.64231 1.04981
 C151 C 0.28797 0.63479 1.03423
 C152 C 0.30076 0.64949 1.02266
 H153 H 0.32308 0.65936 0.96035
 H154 H 0.29885 0.63551 0.93950
 H155 H 0.24371 0.66172 0.97348
 H156 H 0.26790 0.68587 0.99421
 H157 H 0.35659 0.68819 0.99475
 H158 H 0.38214 0.71055 0.97384
 H159 H 0.30304 0.71750 0.96076
 H160 H 0.31421 0.73208 1.01219
 H161 H 0.33870 0.75617 1.03253
 H162 H 0.36530 0.70080 1.06582
 H163 H 0.34107 0.67674 1.04530
 H164 H 0.28267 0.69651 1.04551
 H165 H 0.26025 0.67067 1.06594
 H166 H 0.28960 0.61758 1.03101
 H167 H 0.31219 0.64341 1.01079
 H168 H 0.32868 0.73964 0.93969
 C169 C -0.01274 0.31197 0.31249
 C170 C 0.00937 0.31183 0.31248
 C171 C 0.02191 0.29847 0.32805
 C172 C 0.02217 0.32571 0.29751
 C173 C -0.02520 0.32764 0.29918
 C174 C -0.02552 0.29707 0.32646
 C175 C 0.01861 0.30057 0.35050
 C176 C 0.03061 0.28801 0.36500
 C177 C 0.04616 0.27342 0.35722
 C178 C 0.04973 0.27147 0.33489
 C179 C 0.03772 0.28400 0.32037
 C180 C 0.03789 0.33989 0.30596
 C181 C 0.04957 0.35356 0.29221
 C182 C 0.04578 0.35311 0.26985
 C183 C 0.03046 0.33869 0.26123
 C184 C 0.01877 0.32496 0.27498
 C185 C -0.04097 0.32009 0.28458
 C186 C -0.05257 0.33469 0.27176
 C187 C -0.04863 0.35701 0.27355
 C188 C -0.03321 0.36467 0.28839
 C189 C -0.02163 0.35007 0.30122
 C190 C -0.02218 0.27452 0.32579
 C191 C -0.03364 0.26084 0.33977
 C192 C -0.04871 0.26953 0.35439
 C193 C -0.05251 0.29192 0.35471
 C194 C -0.04105 0.30559 0.34077
 H195 H 0.00682 0.31197 0.35676
 H196 H 0.02782 0.28974 0.38225
 H197 H 0.06179 0.26029 0.32872
 H198 H 0.04062 0.28231 0.30313
 H199 H 0.04081 0.34066 0.32326
 H200 H 0.06140 0.36463 0.29905
 H201 H 0.00698 0.31388 0.26810
 H202 H -0.04405 0.30287 0.28291
 H203 H -0.06452 0.32855 0.26041
 H204 H -0.03009 0.38190 0.29006
 H205 H -0.00985 0.35624 0.31272
 H206 H -0.01055 0.26759 0.31460
 H207 H -0.03059 0.24354 0.33928
 H208 H -0.06414 0.29888 0.36590
 H209 H -0.04393 0.32290 0.34149
 H210 H 0.02746 0.33816 0.24394
 C211 C -0.01045 0.68869 0.68820
 C212 C 0.01166 0.68894 0.68800
 C213 C 0.02399 0.70223 0.67217
 C214 C 0.02458 0.67525 0.70299
 C215 C -0.02279 0.67303 0.70167
 C216 C -0.02340 0.70345 0.67428
 C217 C 0.02038 0.69995 0.64979
 C218 C 0.03188 0.71271 0.63504
 C219 C 0.04726 0.72770 0.64249
 C220 C 0.05123 0.72975 0.66475
 C221 C 0.03971 0.71701 0.67952
 C222 C 0.04019 0.66098 0.69457
 C223 C 0.05172 0.64724 0.70834
 C224 C 0.04790 0.64772 0.73070
 C225 C 0.03277 0.66230 0.73930
 C226 C 0.02123 0.67609 0.72553
 C227 C -0.03858 0.68057 0.71623
 C228 C -0.05028 0.66596 0.72898
 C229 C -0.04643 0.64364 0.72716
 C230 C -0.03092 0.63600 0.71242
 C231 C -0.01924 0.65061 0.69966
 C232 C -0.02015 0.72602 0.67484
 C233 C -0.03191 0.73958 0.66102
 C234 C -0.04718 0.73072 0.64668
 C235 C -0.05083 0.70829 0.64644
 C236 C -0.03907 0.69475 0.66021
 H237 H 0.00865 0.68831 0.64378
 H238 H 0.02879 0.71090 0.61784
 H239 H 0.06315 0.74124 0.67067
 H240 H 0.04284 0.71886 0.69671
 H241 H 0.04307 0.66012 0.67727
 H242 H 0.06341 0.63604 0.70152
 H243 H 0.00953 0.68724 0.73239
 H244 H -0.04166 0.69779 0.71786
 H245 H -0.06230 0.67209 0.74025
 H246 H -0.02787 0.61877 0.71074
 H247 H -0.00745 0.64445 0.68818
 H248 H -0.00840 0.73308 0.68584
 H249 H -0.02896 0.75691 0.66144
 H250 H -0.06261 0.70121 0.63546
 H251 H -0.04188 0.67742 0.65958
 H252 H 0.02974 0.66286 0.75659
 C253 C 1.01099 0.68722 0.31121
 C254 C 0.98888 0.68750 0.31174
 C255 C 0.97680 0.70109 0.32757
 C256 C 0.97567 0.67366 0.29704
 C257 C 1.02312 0.67141 0.29764
 C258 C 1.02416 0.70217 0.32482
 C259 C 0.98064 0.69921 0.34994
 C260 C 0.96917 0.71208 0.36468
 C261 C 0.95360 0.72679 0.35722
 C262 C 0.94947 0.72849 0.33498
 C263 C 0.96094 0.71564 0.32023
 C264 C 0.95999 0.65965 0.30580
 C265 C 0.94798 0.64597 0.29229
 C266 C 0.95137 0.64625 0.26986
 C267 C 0.96661 0.66052 0.26094
 C268 C 0.97864 0.67426 0.27445
 C269 C 1.03889 0.67880 0.28299
 C270 C 1.05049 0.66408 0.27022
 C271 C 1.04656 0.64177 0.27210
 C272 C 1.03105 0.63427 0.28691
 C273 C 1.01947 0.64900 0.29969
 C274 C 1.02098 0.72473 0.32405
 C275 C 1.03281 0.73849 0.33771
 C276 C 1.04810 0.72983 0.35208
 C277 C 1.05173 0.70742 0.35248
 C278 C 1.03989 0.69368 0.33887
 H279 H 0.99247 0.68776 0.35597
 H280 H 0.97240 0.71053 0.38186
 H281 H 0.93739 0.73975 0.32905
 H282 H 0.95763 0.71719 0.30306
 H283 H 0.95739 0.65900 0.32315
 H284 H 0.93621 0.63500 0.29936
 H285 H 0.99038 0.68522 0.26734
 H286 H 1.04206 0.69600 0.28132
 H287 H 1.06250 0.67012 0.25891
 H288 H 1.02794 0.61706 0.28865
 H289 H 1.00772 0.64294 0.31123
 H290 H 1.00918 0.73162 0.31306
 H291 H 1.02987 0.75580 0.33718
 H292 H 1.06352 0.70050 0.36349
 H293 H 1.04264 0.67636 0.33964
 H294 H 0.96931 0.66091 0.24360
 C295 C 1.01186 0.31191 0.68830
 C296 C 0.98975 0.31191 0.68838
 C297 C 0.97698 0.29692 0.67441
 C298 C 0.97720 0.32753 0.70175
 C299 C 1.02462 0.32596 0.70322
 C300 C 1.02440 0.29859 0.67264
 C301 C 0.96128 0.30537 0.66029
 C302 C 0.94963 0.29161 0.64654
 C303 C 0.95341 0.26924 0.64685
 C304 C 0.96870 0.26063 0.66121
 C305 C 0.98037 0.27438 0.67502
 C306 C 0.98054 0.34998 0.69969
 C307 C 0.96860 0.36453 0.71231
 C308 C 0.95306 0.35681 0.72692
 C309 C 0.94942 0.33448 0.72881
 C310 C 0.96137 0.31990 0.71621
 C311 C 1.02126 0.32535 0.72576
 C312 C 1.03285 0.33929 0.73945
 C313 C 1.04803 0.35377 0.73077
 C314 C 1.05180 0.35407 0.70841
 C315 C 1.04023 0.34019 0.69471
 C316 C 1.04029 0.28419 0.68020
 C317 C 1.05225 0.27163 0.66559
 C318 C 1.04855 0.27349 0.64327
 C319 C 1.03293 0.28806 0.63561
 C320 C 1.02099 0.30063 0.65021
 H321 H 0.95837 0.32267 0.65962
 H322 H 0.93782 0.29845 0.63551
 H323 H 0.97170 0.24333 0.66163
 H324 H 0.99214 0.26751 0.68606
 H325 H 0.99235 0.35620 0.68828
 H326 H 0.97145 0.38179 0.71063
 H327 H 0.95844 0.30266 0.71787
 H328 H 1.00957 0.31423 0.73268
 H329 H 1.02986 0.33888 0.75675
 H330 H 1.06353 0.36520 0.70153
 H331 H 1.04311 0.34086 0.67741
 H332 H 1.04326 0.28255 0.69742
 H333 H 1.06434 0.26050 0.67173
 H334 H 1.03000 0.28977 0.61838
 H335 H 1.00914 0.31198 0.64405
 H336 H 0.93736 0.32834 0.74001
 C337 C 0.31110 -0.01083 0.30976
 C338 C 0.31083 0.01127 0.31011
 C339 C 0.32476 0.02434 0.29544
 C340 C 0.29733 0.02353 0.32585
 C341 C 0.29617 -0.02387 0.32344
 C342 C 0.32699 -0.02306 0.29641
 C343 C 0.33878 0.04003 0.30423
 C344 C 0.35255 0.05190 0.29077
 C345 C 0.35237 0.04834 0.26836
 C346 C 0.33810 0.03308 0.25940
 C347 C 0.32426 0.02119 0.27287
 C348 C 0.29935 0.01994 0.34825
 C349 C 0.28673 0.03173 0.36292
 C350 C 0.27214 0.04736 0.35538
 C351 C 0.27026 0.05120 0.33311
 C352 C 0.28286 0.03941 0.31841
 C353 C 0.27362 -0.02063 0.32268
 C354 C 0.25990 -0.03228 0.33647
 C355 C 0.26858 -0.04742 0.35094
 C356 C 0.29095 -0.05113 0.35133
 C357 C 0.30467 -0.03948 0.33760
 C358 C 0.31970 -0.03884 0.28166
 C359 C 0.33453 -0.05041 0.26900
 C360 C 0.35680 -0.04643 0.27109
 C361 C 0.36419 -0.03094 0.28602
 C362 C 0.34937 -0.01940 0.29870
 H363 H 0.33936 0.04275 0.32158
 H364 H 0.36352 0.06369 0.29786
 H365 H 0.33780 0.03025 0.24206
 H366 H 0.31331 0.00943 0.26574
 H367 H 0.31077 0.00811 0.35433
 H368 H 0.28841 0.02874 0.38014
 H369 H 0.28123 0.04253 0.30122
 H370 H 0.26671 -0.00892 0.31162
 H371 H 0.24260 -0.02935 0.33599
 H372 H 0.29782 -0.06282 0.36245
 H373 H 0.32198 -0.04227 0.33838
 H374 H 0.30252 -0.04202 0.27982
 H375 H 0.32858 -0.06241 0.25757
 H376 H 0.38138 -0.02780 0.28792
 H377 H 0.35533 -0.00762 0.31032
 H378 H 0.25909 0.06333 0.32711
 C379 C 0.68656 -0.01120 0.68812
 C380 C 0.68671 0.01092 0.68798
 C381 C 0.67286 0.02377 0.70296
 C382 C 0.70017 0.02333 0.67233
 C383 C 0.70155 -0.02406 0.67430
 C384 C 0.67087 -0.02368 0.70148
 C385 C 0.65866 0.03941 0.69455
 C386 C 0.64487 0.05096 0.70832
 C387 C 0.64522 0.04713 0.73067
 C388 C 0.65972 0.03195 0.73926
 C389 C 0.67357 0.02040 0.72549
 C390 C 0.69824 0.01972 0.64990
 C391 C 0.71118 0.03128 0.63534
 C392 C 0.72600 0.04672 0.64301
 C393 C 0.72769 0.05069 0.66530
 C394 C 0.71477 0.03912 0.67989
 C395 C 0.72410 -0.02072 0.67513
 C396 C 0.73788 -0.03240 0.66142
 C397 C 0.72929 -0.04768 0.64693
 C398 C 0.70691 -0.05144 0.64641
 C399 C 0.69313 -0.03976 0.66007
 C400 C 0.67841 -0.03958 0.71587
 C401 C 0.66379 -0.05151 0.72843
 C402 C 0.64147 -0.04777 0.72661
 C403 C 0.63383 -0.03212 0.71207
 C404 C 0.64844 -0.02021 0.69949
 H405 H 0.65793 0.04232 0.67726
 H406 H 0.63374 0.06268 0.70151
 H407 H 0.66018 0.02891 0.75654
 H408 H 0.68467 0.00868 0.73234
 H409 H 0.68676 0.00793 0.64371
 H410 H 0.70964 0.02817 0.61811
 H411 H 0.71635 0.04225 0.69710
 H412 H 0.73095 -0.00896 0.68626
 H413 H 0.75519 -0.02943 0.66200
 H414 H 0.70010 -0.06323 0.63528
 H415 H 0.67582 -0.04264 0.65923
 H416 H 0.69562 -0.04261 0.71749
 H417 H 0.66993 -0.06362 0.73954
 H418 H 0.61659 -0.02915 0.71038
 H419 H 0.64228 -0.00835 0.68815
 H420 H 0.73904 0.06266 0.67140
 C421 C 0.31119 1.01013 0.68785
 C422 C 0.31115 0.98802 0.68767
 C423 C 0.32665 0.97533 0.70096
 C424 C 0.29623 0.97541 0.67350
 C425 C 0.29801 1.02284 0.67227
 C426 C 0.32512 1.02274 0.70300
 C427 C 0.34911 0.97868 0.69906
 C428 C 0.36355 0.96667 0.71167
 C429 C 0.35571 0.95105 0.72613
 C430 C 0.33337 0.94738 0.72783
 C431 C 0.31890 0.95940 0.71524
 C432 C 0.30472 0.95983 0.65919
 C433 C 0.29103 0.94838 0.64522
 C434 C 0.26868 0.95225 0.64547
 C435 C 0.26001 0.96740 0.66002
 C436 C 0.27370 0.97886 0.67406
 C437 C 0.28359 1.03870 0.67994
 C438 C 0.27116 1.05080 0.66540
 C439 C 0.27317 1.04728 0.64307
 C440 C 0.28775 1.03171 0.63530
 C441 C 0.30020 1.01962 0.64981
 C442 C 0.32431 1.01918 0.72549
 C443 C 0.33811 1.03065 0.73941
 C444 C 0.35267 1.04592 0.73100
 C445 C 0.35317 1.04988 0.70868
 C446 C 0.33943 1.03842 0.69476
 H447 H 0.35543 0.99057 0.68781
 H448 H 0.38082 0.96954 0.71013
 H449 H 0.32714 0.93526 0.73890
 H450 H 0.30165 0.95646 0.71678
 H451 H 0.32201 0.95687 0.65856
 H452 H 0.29790 0.93668 0.63405
 H453 H 0.26679 0.99053 0.68522
 H454 H 0.28183 1.04154 0.69718
 H455 H 0.25999 1.06287 0.67157
 H456 H 0.28953 1.02896 0.61804
 H457 H 0.31157 1.00780 0.64356
 H458 H 0.31312 1.00743 0.73221
 H459 H 0.33753 1.02752 0.75667
 H460 H 0.36436 1.06168 0.70201
 H461 H 0.34026 1.04146 0.67750
 H462 H 0.24272 0.97046 0.66041
 C463 C 0.68874 1.01112 0.31253
 C464 C 0.68917 0.98900 0.31274
 C465 C 0.67547 0.97590 0.29782
 C466 C 0.70271 0.97680 0.32845
 C467 C 0.70352 1.02425 0.32636
 C468 C 0.67295 1.02328 0.29906
 C469 C 0.66137 0.96017 0.30633
 C470 C 0.64768 0.94840 0.29262
 C471 C 0.64806 0.95208 0.27025
 C472 C 0.66246 0.96734 0.26157
 C473 C 0.67620 0.97912 0.27528
 C474 C 0.70070 0.98040 0.35087
 C475 C 0.71349 0.96879 0.36549
 C476 C 0.72825 0.95331 0.35788
 C477 C 0.73010 0.94942 0.33558
 C478 C 0.71733 0.96104 0.32095
 C479 C 0.72610 1.02122 0.32564
 C480 C 0.73969 1.03310 0.33942
 C481 C 0.73085 1.04828 0.35386
 C482 C 0.70842 1.05175 0.35422
 C483 C 0.69484 1.03986 0.34049
 C484 C 0.68034 1.03915 0.28453
 C485 C 0.66562 1.05069 0.27178
 C486 C 0.64336 1.04661 0.27356
 C487 C 0.63585 1.03103 0.28825
 C488 C 0.65055 1.01950 0.30102
 H489 H 0.66062 0.95739 0.32364
 H490 H 0.63661 0.93661 0.29950
 H491 H 0.66292 0.97027 0.24427
 H492 H 0.68723 0.99091 0.26837
 H493 H 0.68919 0.99216 0.35702
 H494 H 0.71183 0.97184 0.38271
 H495 H 0.71897 0.95790 0.30374
 H496 H 0.73314 1.00952 0.31458
 H497 H 0.75702 1.03030 0.33891
 H498 H 0.70136 1.06345 0.36529
 H499 H 0.67750 1.04250 0.34123
 H500 H 0.69753 1.04242 0.28292
 H501 H 0.67160 1.06277 0.26054
 H502 H 0.61865 1.02785 0.28986
 H503 H 0.64449 1.00766 0.31246
 H504 H 0.74140 0.93741 0.32953
 O505 O 0.84291 0.87194 0.52232
 O506 O 0.87243 0.84154 0.48012
 O507 O 0.84247 0.87148 0.48013
 O508 O 0.87281 0.84214 0.52232
 O509 O 0.84745 0.81675 0.52278
 O510 O 0.81714 0.84606 0.48064
 O511 O 0.84706 0.81616 0.48063
 O512 O 0.81759 0.84651 0.52277
 Cu513 Cu 0.86022 0.85934 0.50114
 Cu514 Cu 0.82976 0.82881 0.50172
 C515 C 0.82525 0.86435 0.52964
 C516 C 0.86478 0.82365 0.47335
 C517 C 0.82461 0.86379 0.47337
 C518 C 0.86524 0.82448 0.52966
 O519 O 0.13099 0.16148 0.47909
 O520 O 0.16109 0.13164 0.52101
 O521 O 0.13127 0.16159 0.52121
 O522 O 0.16082 0.13153 0.47888
 O523 O 0.18624 0.15686 0.47873
 O524 O 0.15671 0.18691 0.52104
 O525 O 0.18652 0.15697 0.52084
 O526 O 0.15643 0.18681 0.47893
 Cu527 Cu 0.14348 0.14400 0.50007
 Cu528 Cu 0.17404 0.17444 0.49986
 C529 C 0.13858 0.17924 0.47202
 C530 C 0.17894 0.13922 0.52792
 C531 C 0.13896 0.17939 0.52818
 C532 C 0.17857 0.13907 0.47174
 O533 O 0.12632 0.84262 0.51883
 O534 O 0.15578 0.87340 0.47697
 O535 O 0.12627 0.84311 0.47665
 O536 O 0.15577 0.87305 0.51924
 O537 O 0.18144 0.84806 0.51889
 O538 O 0.15198 0.81815 0.47637
 O539 O 0.18144 0.84839 0.47670
 O540 O 0.15204 0.81767 0.51848
 Cu541 Cu 0.13845 0.86058 0.49797
 Cu542 Cu 0.16933 0.83057 0.49759
 C543 C 0.13418 0.82490 0.52565
 C544 C 0.17359 0.86605 0.46976
 C545 C 0.13414 0.82555 0.46936
 C546 C 0.17360 0.86561 0.52623
 O547 O 0.84303 0.12699 0.47880
 O548 O 0.87280 0.15631 0.52160
 O549 O 0.84236 0.12682 0.52098
 O550 O 0.87321 0.15662 0.47934
 O551 O 0.84815 0.18223 0.47929
 O552 O 0.81738 0.15251 0.52084
 O553 O 0.84778 0.18195 0.52149
 O554 O 0.81802 0.15265 0.47873
 Cu555 Cu 0.86039 0.13910 0.50022
 Cu556 Cu 0.83033 0.16993 0.50010
 C557 C 0.82548 0.13486 0.47158
 C558 C 0.86534 0.17411 0.52872
 C559 C 0.82459 0.13460 0.52785
 C560 C 0.86584 0.17446 0.47228
 O561 O 0.47817 0.86848 0.83914
 O562 O 0.52068 0.83934 0.86914
 O563 O 0.52031 0.86888 0.83892
 O564 O 0.47854 0.83895 0.86938
 O565 O 0.47861 0.81327 0.84430
 O566 O 0.52036 0.84319 0.81385
 O567 O 0.52073 0.81366 0.84405
 O568 O 0.47824 0.84278 0.81406
 Cu569 Cu 0.49942 0.85651 0.85668
 Cu570 Cu 0.49949 0.82563 0.82653
 C571 C 0.47112 0.86060 0.82147
 C572 C 0.52779 0.82152 0.86171
 C573 C 0.52731 0.86113 0.82119
 C574 C 0.47161 0.82100 0.86204
 O575 O 0.52218 0.15889 0.12937
 O576 O 0.47915 0.12909 0.15809
 O577 O 0.48006 0.15921 0.12855
 O578 O 0.52136 0.12886 0.15915
 O579 O 0.52098 0.15412 0.18465
 O580 O 0.47974 0.18443 0.15411
 O581 O 0.47882 0.15433 0.18362
 O582 O 0.52182 0.18413 0.15491
 Cu583 Cu 0.50075 0.14145 0.14122
 Cu584 Cu 0.50032 0.17178 0.17192
 C585 C 0.52914 0.17662 0.13721
 C586 C 0.47174 0.13668 0.17571
 C587 C 0.47300 0.17699 0.13614
 C588 C 0.52808 0.13634 0.17712
 O589 O 0.51984 0.12557 0.84499
 O590 O 0.47771 0.15575 0.87483
 O591 O 0.47759 0.12554 0.84515
 O592 O 0.51998 0.15570 0.87473
 O593 O 0.51992 0.18082 0.84921
 O594 O 0.47760 0.15071 0.81967
 O595 O 0.47772 0.18086 0.84931
 O596 O 0.51977 0.15075 0.81953
 Cu597 Cu 0.49877 0.13811 0.86251
 Cu598 Cu 0.49874 0.16832 0.83187
 C599 C 0.52689 0.13308 0.82720
 C600 C 0.47063 0.17343 0.86710
 C601 C 0.47048 0.13303 0.82739
 C602 C 0.52710 0.17335 0.86694
 O603 O 0.47908 0.84330 0.12796
 O604 O 0.52181 0.87311 0.15738
 O605 O 0.52135 0.84325 0.12744
 O606 O 0.47962 0.87317 0.15801
 O607 O 0.47991 0.84777 0.18324
 O608 O 0.52157 0.81789 0.15272
 O609 O 0.52203 0.84770 0.18261
 O610 O 0.47937 0.81794 0.15324
 Cu611 Cu 0.50042 0.86076 0.14013
 Cu612 Cu 0.50073 0.83025 0.17049
 C613 C 0.47204 0.82557 0.13564
 C614 C 0.52911 0.86543 0.17498
 C615 C 0.52852 0.82552 0.13495
 C616 C 0.47279 0.86555 0.17583
 O617 O 0.84088 0.48036 0.87003
 O618 O 0.87141 0.52191 0.83988
 O619 O 0.84186 0.52257 0.87008
 O620 O 0.87063 0.47978 0.83993
 O621 O 0.84507 0.48019 0.81479
 O622 O 0.81632 0.52297 0.84493
 O623 O 0.84583 0.52229 0.81476
 O624 O 0.81536 0.48079 0.84487
 Cu625 Cu 0.85877 0.50110 0.85754
 Cu626 Cu 0.82805 0.50159 0.82732
 C627 C 0.82293 0.47362 0.86256
 C628 C 0.86379 0.52904 0.82218
 C629 C 0.82422 0.52997 0.86259
 C630 C 0.86278 0.47287 0.82221
 O631 O 0.12826 0.52010 0.15855
 O632 O 0.15784 0.47799 0.12810
 O633 O 0.12766 0.47790 0.15767
 O634 O 0.15854 0.52020 0.12890
 O635 O 0.18361 0.51942 0.15451
 O636 O 0.15278 0.47716 0.18324
 O637 O 0.18291 0.47726 0.15370
 O638 O 0.15336 0.51932 0.18412
 Cu639 Cu 0.14054 0.49916 0.14072
 Cu640 Cu 0.17069 0.49824 0.17147
 C641 C 0.13576 0.52672 0.17654
 C642 C 0.17539 0.47054 0.13577
 C643 C 0.13501 0.47042 0.17534
 C644 C 0.17635 0.52686 0.13679
 O645 O 0.87180 0.47823 0.15846
 O646 O 0.84159 0.51941 0.12756
 O647 O 0.87128 0.52043 0.15764
 O648 O 0.84239 0.47721 0.12807
 O649 O 0.81675 0.47723 0.15313
 O650 O 0.84564 0.52044 0.18270
 O651 O 0.81599 0.51938 0.15266
 O652 O 0.84612 0.47829 0.18348
 Cu653 Cu 0.85936 0.49881 0.14040
 Cu654 Cu 0.82854 0.49883 0.17052
 C655 C 0.86407 0.47138 0.17623
 C656 C 0.82365 0.52631 0.13490
 C657 C 0.86337 0.52768 0.17519
 C658 C 0.82466 0.46998 0.13557
 O659 O 0.15643 0.52239 0.87397
 O660 O 0.12700 0.47973 0.84408
 O661 O 0.15723 0.48021 0.87369
 O662 O 0.12646 0.52202 0.84418
 O663 O 0.15169 0.52244 0.81871
 O664 O 0.18238 0.48072 0.84814
 O665 O 0.15220 0.48022 0.81859
 O666 O 0.18162 0.52285 0.84845
 Cu667 Cu 0.13922 0.50102 0.86154
 Cu668 Cu 0.16949 0.50159 0.83089
 C669 C 0.17403 0.52977 0.86628
 C670 C 0.13462 0.47280 0.82627
 C671 C 0.17506 0.47349 0.86592
 C672 C 0.13392 0.52929 0.82645
 C673 C 0.23264 0.39654 0.08053
 C674 C 0.22010 0.41225 0.06592
 C675 C 0.20816 0.42711 0.07711
 C676 C 0.20992 0.42481 0.10181
 C677 C 0.23430 0.42596 0.10667
 C678 C 0.24623 0.41111 0.09549
 C679 C 0.21541 0.38636 0.09532
 C680 C 0.20346 0.40122 0.10652
 C681 C 0.24568 0.38069 0.06851
 C682 C 0.25683 0.36799 0.05867
 C683 C 0.19722 0.44091 0.11388
 C684 C 0.18710 0.45435 0.12385
 H685 H 0.22054 0.41174 0.04833
 H686 H 0.19837 0.43933 0.06910
 H687 H 0.24156 0.43744 0.11792
 H688 H 0.26371 0.40987 0.09717
 H689 H 0.21281 0.36901 0.09686
 H690 H 0.19062 0.39661 0.11764
 C691 C 0.76514 0.59904 0.07977
 C692 C 0.77952 0.58492 0.06514
 C693 C 0.79169 0.57024 0.07624
 C694 C 0.78828 0.57112 0.10087
 C695 C 0.76377 0.56824 0.10411
 C696 C 0.75161 0.58291 0.09301
 C697 C 0.78077 0.60944 0.09616
 C698 C 0.79294 0.59475 0.10725
 C699 C 0.75198 0.61481 0.06785
 C700 C 0.74106 0.62770 0.05809
 C701 C 0.80126 0.55526 0.11287
 C702 C 0.81165 0.54211 0.12286
 H703 H 0.78009 0.58634 0.04761
 H704 H 0.80269 0.55907 0.06822
 H705 H 0.75659 0.55576 0.11422
 H706 H 0.73402 0.58301 0.09363
 H707 H 0.78216 0.62680 0.09880
 H708 H 0.80476 0.59953 0.11941
 C709 C 0.76425 0.40101 0.91795
 C710 C 0.78754 0.40332 0.92644
 C711 C 0.79969 0.41794 0.91518
 C712 C 0.78735 0.42881 0.89654
 C713 C 0.76711 0.43869 0.90711
 C714 C 0.75497 0.42408 0.91837
 C715 C 0.76669 0.39539 0.89382
 C716 C 0.77884 0.41001 0.88256
 C717 C 0.75113 0.38532 0.93007
 C718 C 0.74028 0.37250 0.94004
 C719 C 0.80034 0.44461 0.88442
 C720 C 0.81079 0.45776 0.87444
 H721 H 0.79393 0.39427 0.94009
 H722 H 0.81649 0.42142 0.91918
 H723 H 0.76270 0.45568 0.90587
 H724 H 0.74016 0.42855 0.92677
 H725 H 0.75952 0.38118 0.88625
 H726 H 0.78207 0.40832 0.86534
 C727 C 0.23140 0.60385 0.92144
 C728 C 0.20864 0.60025 0.93087
 C729 C 0.19665 0.58541 0.91964
 C730 C 0.20861 0.57563 0.90010
 C731 C 0.22972 0.56639 0.90942
 C732 C 0.24169 0.58122 0.92064
 C733 C 0.22764 0.61002 0.89765
 C734 C 0.21566 0.59518 0.88642
 C735 C 0.24450 0.61966 0.93351
 C736 C 0.25572 0.63229 0.94338
 C737 C 0.19588 0.55954 0.88801
 C738 C 0.18574 0.54606 0.87808
 H739 H 0.20249 0.60864 0.94508
 H740 H 0.18022 0.58107 0.92423
 H741 H 0.23482 0.54966 0.90741
 H742 H 0.25704 0.57718 0.92822
 H743 H 0.23383 0.62475 0.89028
 H744 H 0.21157 0.59720 0.86943
 C745 C 0.08153 0.23695 0.40016
 C746 C 0.09365 0.21787 0.38971
 C747 C 0.10536 0.20592 0.40411
 C748 C 0.10379 0.21424 0.42753
 C749 C 0.07943 0.21483 0.43256
 C750 C 0.06772 0.22677 0.41817
 C751 C 0.09906 0.25006 0.41206
 C752 C 0.11077 0.23812 0.42645
 C753 C 0.06893 0.24986 0.38474
 C754 C 0.05855 0.26056 0.37216
 C755 C 0.11635 0.20148 0.44311
 C756 C 0.12657 0.19120 0.45617
 H757 H 0.09307 0.21408 0.37253
 H758 H 0.11482 0.19189 0.39926
 H759 H 0.07201 0.20658 0.44621
 H760 H 0.05029 0.22875 0.41950
 H761 H 0.10203 0.26721 0.40942
 H762 H 0.12376 0.24505 0.43612
 C763 C 0.08039 0.76536 0.59869
 C764 C 0.07733 0.78985 0.60204
 C765 C 0.08824 0.80221 0.58734
 C766 C 0.10113 0.78886 0.57073
 C767 C 0.08447 0.77344 0.56044
 C768 C 0.07357 0.76109 0.57514
 C769 C 0.10502 0.76186 0.59901
 C770 C 0.11592 0.77421 0.58432
 C771 C 0.06864 0.75201 0.61445
 C772 C 0.05893 0.74095 0.62729
 C773 C 0.11288 0.80205 0.55484
 C774 C 0.12258 0.81264 0.54161
 H775 H 0.06747 0.79686 0.61483
 H776 H 0.08773 0.81980 0.58753
 H777 H 0.08149 0.77233 0.54313
 H778 H 0.06125 0.74941 0.57041
 H779 H 0.11317 0.75067 0.60984
 H780 H 0.13343 0.77361 0.58255
 C781 C 0.91983 0.76436 0.40079
 C782 C 0.91082 0.78545 0.39117
 C783 C 0.89961 0.79775 0.40573
 C784 C 0.89851 0.78776 0.42847
 C785 C 0.92221 0.78385 0.43493
 C786 C 0.93342 0.77155 0.42038
 C787 C 0.90008 0.75274 0.41050
 C788 C 0.88887 0.76504 0.42505
 C789 C 0.93189 0.75105 0.38517
 C790 C 0.94179 0.74002 0.37240
 C791 C 0.88644 0.80091 0.44423
 C792 C 0.87653 0.81145 0.45740
 H793 H 0.91306 0.79028 0.37441
 H794 H 0.89224 0.81313 0.40144
 H795 H 0.92956 0.79019 0.44963
 H796 H 0.95036 0.76735 0.42262
 H797 H 0.89530 0.73630 0.40632
 H798 H 0.87450 0.75913 0.43332
 C799 C 0.92012 0.23113 0.60336
 C800 C 0.92955 0.23265 0.58039
 C801 C 0.91843 0.22075 0.56543
 C802 C 0.89895 0.20848 0.57490
 C803 C 0.88516 0.22594 0.58606
 C804 C 0.89628 0.23784 0.60102
 C805 C 0.91947 0.20678 0.60844
 C806 C 0.90833 0.19486 0.59346
 C807 C 0.93207 0.24416 0.61931
 C808 C 0.94184 0.25534 0.63207
 C809 C 0.88695 0.19583 0.55867
 C810 C 0.87708 0.18576 0.54511
 H811 H 0.94374 0.24221 0.57623
 H812 H 0.92309 0.22012 0.54847
 H813 H 0.86814 0.22869 0.58255
 H814 H 0.88879 0.25079 0.61031
 H815 H 0.92708 0.19954 0.62253
 H816 H 0.90640 0.17740 0.59473
 C817 C 0.39626 0.08189 0.23120
 C818 C 0.41895 0.08148 0.24138
 C819 C 0.43408 0.09263 0.22981
 C820 C 0.42505 0.10311 0.20917
 C821 C 0.40604 0.11720 0.21690
 C822 C 0.39090 0.10603 0.22849
 C823 C 0.39938 0.07325 0.20806
 C824 C 0.41454 0.08442 0.19646
 C825 C 0.38013 0.06989 0.24388
 C826 C 0.36725 0.06005 0.25478
 C827 C 0.44147 0.11512 0.19688
 C828 C 0.45519 0.12498 0.18707
 H829 H 0.42281 0.07315 0.25638
 H830 H 0.45090 0.09385 0.23489
 H831 H 0.40460 0.13441 0.21355
 H832 H 0.37647 0.11368 0.23506
 H833 H 0.39048 0.05959 0.20136
 H834 H 0.41861 0.08032 0.17983
 C835 C 0.60145 0.07949 0.76915
 C836 C 0.59862 0.10333 0.76266
 C837 C 0.58362 0.11410 0.77479
 C838 C 0.57291 0.09998 0.79224
 C839 C 0.59180 0.09086 0.80560
 C840 C 0.60682 0.08008 0.79345
 C841 C 0.57862 0.06964 0.76780
 C842 C 0.56362 0.08040 0.77993
 C843 C 0.61747 0.06793 0.75590
 C844 C 0.63032 0.05845 0.74461
 C845 C 0.55665 0.11163 0.80514
 C846 C 0.54313 0.12135 0.81539
 H847 H 0.60761 0.11108 0.74968
 H848 H 0.57977 0.13107 0.77220
 H849 H 0.59326 0.09270 0.82304
 H850 H 0.62114 0.07269 0.80049
 H851 H 0.57459 0.05543 0.75817
 H852 H 0.54675 0.07541 0.78069
 C853 C 0.39868 0.91621 0.76307
 C854 C 0.39571 0.91923 0.78760
 C855 C 0.41018 0.90779 0.79971
 C856 C 0.42621 0.89446 0.78609
 C857 C 0.43687 0.91089 0.77076
 C858 C 0.42240 0.92232 0.75866
 C859 C 0.39751 0.89161 0.75934
 C860 C 0.41198 0.88017 0.77144
 C861 C 0.38319 0.92855 0.74999
 C862 C 0.37060 0.93877 0.73914
 C863 C 0.44190 0.88221 0.79902
 C864 C 0.45508 0.87226 0.80942
 H865 H 0.38331 0.92943 0.79482
 H866 H 0.41020 0.90819 0.81730
 H867 H 0.45426 0.91334 0.76951
 H868 H 0.42740 0.93455 0.74705
 H869 H 0.38629 0.88386 0.74818
 H870 H 0.41316 0.86262 0.77066
 C871 C 0.60426 0.91924 0.23216
 C872 C 0.58747 0.90710 0.24593
 C873 C 0.57238 0.89622 0.23398
 C874 C 0.57555 0.89854 0.20942
 C875 C 0.59890 0.89105 0.20516
 C876 C 0.61400 0.90194 0.21712
 C877 C 0.59090 0.93397 0.21725
 C878 C 0.57580 0.92308 0.20529
 C879 C 0.62035 0.93095 0.24523
 C880 C 0.63320 0.94057 0.25640
 C881 C 0.55919 0.88680 0.19673
 C882 C 0.54554 0.87708 0.18663
 H883 H 0.58743 0.90704 0.26352
 H884 H 0.55943 0.88685 0.24135
 H885 H 0.60319 0.87833 0.19374
 H886 H 0.63123 0.89856 0.21596
 H887 H 0.59313 0.95140 0.21615
 H888 H 0.56509 0.93119 0.19395
 C889 C 0.39618 0.23207 0.92019
 C890 C 0.39897 0.20926 0.92969
 C891 C 0.41396 0.19699 0.91900
 C892 C 0.42467 0.20876 0.89988
 C893 C 0.43400 0.22972 0.90960
 C894 C 0.41903 0.24197 0.92027
 C895 C 0.39080 0.22840 0.89617
 C896 C 0.40577 0.21614 0.88549
 C897 C 0.38020 0.24545 0.93168
 C898 C 0.36740 0.25683 0.94112
 C899 C 0.44089 0.19573 0.88833
 C900 C 0.45440 0.18537 0.87871
 H901 H 0.38997 0.20326 0.94356
 H902 H 0.41779 0.18049 0.92373
 H903 H 0.45088 0.23453 0.90824
 H904 H 0.42311 0.25726 0.92804
 H905 H 0.37648 0.23483 0.88825
 H906 H 0.40427 0.21208 0.86843
 C907 C 0.60054 0.76459 0.91843
 C908 C 0.60673 0.78862 0.91629
 C909 C 0.59216 0.80045 0.90467
 C910 C 0.57286 0.78708 0.89633
 C911 C 0.56311 0.77646 0.91660
 C912 C 0.57767 0.76464 0.92822
 C913 C 0.59755 0.75652 0.89506
 C914 C 0.58299 0.76834 0.88345
 C915 C 0.61614 0.75179 0.93093
 C916 C 0.62885 0.74112 0.94119
 C917 C 0.55708 0.79970 0.88386
 C918 C 0.54386 0.80981 0.87368
 H919 H 0.62126 0.79571 0.92329
 H920 H 0.59421 0.81768 0.90170
 H921 H 0.54626 0.77809 0.92142
 H922 H 0.57328 0.75615 0.94298
 H923 H 0.60612 0.74274 0.88824
 H924 H 0.57910 0.76469 0.86667
 C925 C 0.39690 0.76774 0.08242
 C926 C 0.38725 0.78707 0.09482
 C927 C 0.40236 0.79915 0.10559
 C928 C 0.42561 0.79070 0.10290
 C929 C 0.42933 0.78969 0.07832
 C930 C 0.41424 0.77762 0.06755
 C931 C 0.40963 0.75489 0.09946
 C932 C 0.42471 0.76695 0.11022
 C933 C 0.38081 0.75455 0.07084
 C934 C 0.36793 0.74330 0.06132
 C935 C 0.44197 0.80354 0.11451
 C936 C 0.45561 0.81376 0.12412
 H937 H 0.37009 0.79093 0.09510
 H938 H 0.39813 0.81336 0.11511
 H939 H 0.44264 0.79776 0.07009
 H940 H 0.41462 0.77535 0.05010
 H941 H 0.40701 0.73780 0.10280
 H942 H 0.43501 0.76020 0.12277
 C943 C 0.60160 0.23505 0.08142
 C944 C 0.59272 0.21547 0.06882
 C945 C 0.57828 0.20334 0.08033
 C946 C 0.57414 0.21200 0.10331
 C947 C 0.56704 0.23563 0.10017
 C948 C 0.58147 0.24775 0.08867
 C949 C 0.61109 0.22554 0.10234
 C950 C 0.59664 0.21341 0.11386
 C951 C 0.61705 0.24816 0.06901
 C952 C 0.62961 0.25906 0.05876
 C953 C 0.55846 0.19906 0.11563
 C954 C 0.54526 0.18866 0.12559
 H955 H 0.59737 0.21146 0.05232
 H956 H 0.57056 0.18895 0.07369
 H957 H 0.55200 0.24227 0.10645
 H958 H 0.57879 0.26476 0.08509
 H959 H 0.62768 0.22810 0.10764
 H960 H 0.60085 0.20558 0.12902
 C961 C 0.23677 0.08259 0.60001
 C962 C 0.24463 0.08033 0.57651
 C963 C 0.23269 0.09196 0.56207
 C964 C 0.21405 0.10471 0.57254
 C965 C 0.22483 0.11871 0.59012
 C966 C 0.23678 0.10707 0.60456
 C967 C 0.21274 0.07609 0.59943
 C968 C 0.20079 0.08772 0.58498
 C969 C 0.24967 0.07004 0.61549
 C970 C 0.26036 0.05969 0.62811
 C971 C 0.20128 0.11718 0.55690
 C972 C 0.19096 0.12732 0.54381
 H973 H 0.25836 0.07047 0.57164
 H974 H 0.23620 0.09206 0.54483
 H975 H 0.22321 0.13621 0.59113
 H976 H 0.24540 0.11461 0.61796
 H977 H 0.20573 0.06347 0.60949
 H978 H 0.18354 0.08507 0.58266
 C979 C 0.76807 0.08089 0.39670
 C980 C 0.77804 0.10199 0.38805
 C981 C 0.79000 0.11299 0.40308
 C982 C 0.79081 0.10179 0.42527
 C983 C 0.79926 0.07885 0.42058
 C984 C 0.78729 0.06785 0.40556
 C985 C 0.75506 0.08770 0.41680
 C986 C 0.76701 0.09868 0.43181
 C987 C 0.75501 0.06906 0.38070
 C988 C 0.74387 0.05931 0.36790
 C989 C 0.80353 0.11362 0.44155
 C990 C 0.81369 0.12333 0.45516
 H991 H 0.77591 0.10777 0.37159
 H992 H 0.79813 0.12819 0.39948
 H993 H 0.81339 0.07186 0.42836
 H994 H 0.79118 0.05145 0.40046
 H995 H 0.73795 0.08420 0.41905
 H996 H 0.76013 0.10458 0.44691
 C997 C 0.76767 0.91916 0.60369
 C998 C 0.77290 0.93235 0.58326
 C999 C 0.78494 0.92128 0.56841
 C1000 C 0.79059 0.89810 0.57542
 C1001 C 0.76871 0.88736 0.58048
 C1002 C 0.75667 0.89842 0.59533
 C1003 C 0.78977 0.91174 0.61236
 C1004 C 0.80183 0.90065 0.59749
 C1005 C 0.75451 0.93105 0.61954
 C1006 C 0.74325 0.94077 0.63222
 C1007 C 0.80338 0.88614 0.55930
 C1008 C 0.81354 0.87623 0.54585
 H1009 H 0.76762 0.94894 0.58071
 H1010 H 0.78997 0.92838 0.55312
 H1011 H 0.76316 0.87236 0.57306
 H1012 H 0.74081 0.89290 0.60064
 H1013 H 0.79545 0.91491 0.62872
 H1014 H 0.81783 0.89433 0.60110
 C1015 C 0.23053 0.92007 0.39485
 C1016 C 0.20964 0.91001 0.38574
 C1017 C 0.19771 0.89917 0.40086
 C1018 C 0.20787 0.89946 0.42359
 C1019 C 0.21121 0.92356 0.42895
 C1020 C 0.22313 0.93439 0.41384
 C1021 C 0.24270 0.90114 0.40540
 C1022 C 0.23079 0.89032 0.42050
 C1023 C 0.24356 0.93169 0.37874
 C1024 C 0.25472 0.94121 0.36585
 C1025 C 0.19522 0.88773 0.43993
 C1026 C 0.18517 0.87793 0.45351
 H1027 H 0.20464 0.91131 0.36892
 H1028 H 0.18250 0.89117 0.39700
 H1029 H 0.20476 0.93142 0.44333
 H1030 H 0.22689 0.95154 0.41527
 H1031 H 0.25922 0.89663 0.40135
 H1032 H 0.23712 0.87653 0.42938
 C1033 C 0.08082 0.39770 0.76884
 C1034 C 0.10557 0.39555 0.76741
 C1035 C 0.11649 0.41063 0.77937
 C1036 C 0.10160 0.42640 0.79158
 C1037 C 0.08657 0.41189 0.80513
 C1038 C 0.07564 0.39680 0.79317
 C1039 C 0.07603 0.42117 0.76215
 C1040 C 0.08694 0.43624 0.77409
 C1041 C 0.06908 0.38161 0.75578
 C1042 C 0.05947 0.36872 0.74462
 C1043 C 0.11337 0.44275 0.80430
 C1044 C 0.12306 0.45638 0.81447
 H1045 H 0.11380 0.38324 0.75787
 H1046 H 0.13407 0.41124 0.78006
 H1047 H 0.08468 0.41335 0.82257
 H1048 H 0.06440 0.38532 0.80035
 H1049 H 0.06502 0.42556 0.74916
 H1050 H 0.08527 0.45354 0.77133
 C1051 C 0.08015 0.59910 0.23554
 C1052 C 0.10456 0.59893 0.24044
 C1053 C 0.11591 0.58442 0.22822
 C1054 C 0.10175 0.57149 0.21231
 C1055 C 0.08988 0.58868 0.19884
 C1056 C 0.07852 0.60320 0.21106
 C1057 C 0.07275 0.57553 0.23859
 C1058 C 0.08410 0.56102 0.22638
 C1059 C 0.06793 0.61468 0.24875
 C1060 C 0.05789 0.62742 0.25969
 C1061 C 0.11397 0.55577 0.19924
 C1062 C 0.12395 0.54264 0.18874
 H1063 H 0.11224 0.60931 0.25243
 H1064 H 0.13332 0.58237 0.22976
 H1065 H 0.09035 0.58939 0.18127
 H1066 H 0.06927 0.61634 0.20395
 H1067 H 0.05973 0.57066 0.24939
 H1068 H 0.08080 0.54372 0.22672
 C1069 C 0.91861 0.39944 0.23626
 C1070 C 0.92615 0.39989 0.21255
 C1071 C 0.91513 0.41437 0.20007
 C1072 C 0.89765 0.42698 0.21253
 C1073 C 0.90963 0.43745 0.23170
 C1074 C 0.92065 0.42298 0.24417
 C1075 C 0.89413 0.39504 0.23517
 C1076 C 0.88311 0.40952 0.22270
 C1077 C 0.93047 0.38392 0.24975
 C1078 C 0.94025 0.37124 0.26091
 C1079 C 0.88576 0.44263 0.19921
 C1080 C 0.87591 0.45566 0.18854
 H1081 H 0.93900 0.38973 0.20613
 H1082 H 0.91854 0.41662 0.18295
 H1083 H 0.90948 0.45472 0.23517
 H1084 H 0.92993 0.42785 0.25833
 H1085 H 0.88616 0.38172 0.24346
 H1086 H 0.86570 0.40860 0.22030
 C1087 C 0.91988 0.60117 0.76366
 C1088 C 0.93096 0.59539 0.78515
 C1089 C 0.91957 0.58089 0.79731
 C1090 C 0.89821 0.57361 0.78677
 C1091 C 0.90468 0.56488 0.76437
 C1092 C 0.91607 0.57937 0.75222
 C1093 C 0.89720 0.60916 0.77005
 C1094 C 0.88580 0.59466 0.78220
 C1095 C 0.93213 0.61671 0.75051
 C1096 C 0.94220 0.62940 0.73958
 C1097 C 0.88594 0.55793 0.79974
 C1098 C 0.87583 0.54485 0.81015
 H1099 H 0.94640 0.60210 0.79036
 H1100 H 0.92523 0.57517 0.81294
 H1101 H 0.90067 0.54873 0.75856
 H1102 H 0.92182 0.57563 0.73600
 H1103 H 0.89067 0.62483 0.76544
 H1104 H 0.86951 0.59791 0.78802
 C1105 C 0.76848 0.60488 0.91802
 C1106 C 0.77574 0.61271 0.89556
 C1107 C 0.78739 0.59769 0.88427
 C1108 C 0.79063 0.57632 0.89656
 C1109 C 0.76769 0.56871 0.90248
 C1110 C 0.75605 0.58371 0.91376
 C1111 C 0.78942 0.59791 0.92949
 C1112 C 0.80107 0.58289 0.91820
 C1113 C 0.75573 0.62087 0.93015
 C1114 C 0.74476 0.63362 0.94009
 C1115 C 0.80299 0.56004 0.88441
 C1116 C 0.81283 0.54642 0.87444
 H1117 H 0.77208 0.62866 0.88911
 H1118 H 0.79371 0.60076 0.86814
 H1119 H 0.76115 0.55291 0.89820
 H1120 H 0.73955 0.58076 0.91913
 H1121 H 0.79465 0.60423 0.94508
 H1122 H 0.81628 0.57634 0.92412
 C1123 C 0.23522 0.40099 0.91963
 C1124 C 0.24017 0.40213 0.89528
 C1125 C 0.22766 0.41670 0.88442
 C1126 C 0.21141 0.42870 0.89897
 C1127 C 0.22519 0.43893 0.91703
 C1128 C 0.23771 0.42436 0.92789
 C1129 C 0.21082 0.39617 0.92103
 C1130 C 0.19830 0.41075 0.91017
 C1131 C 0.24875 0.38536 0.93133
 C1132 C 0.25996 0.37262 0.94097
 C1133 C 0.19805 0.44446 0.88725
 C1134 C 0.18737 0.45761 0.87755
 H1135 H 0.25243 0.39236 0.88727
 H1136 H 0.22920 0.41939 0.86710
 H1137 H 0.22512 0.45610 0.92095
 H1138 H 0.24835 0.42906 0.94110
 H1139 H 0.20399 0.38252 0.92979
 H1140 H 0.18075 0.40958 0.90961
 C1141 C 0.23622 0.59959 0.08274
 C1142 C 0.23203 0.60604 0.10642
 C1143 C 0.21964 0.59146 0.11747
 C1144 C 0.21264 0.57186 0.10375
 C1145 C 0.23383 0.56228 0.09491
 C1146 C 0.24622 0.57685 0.08387
 C1147 C 0.21362 0.59616 0.07288
 C1148 C 0.20122 0.58158 0.08392
 C1149 C 0.24962 0.61523 0.07083
 C1150 C 0.26070 0.62798 0.06099
 C1151 C 0.19938 0.55607 0.11562
 C1152 C 0.18872 0.54286 0.12532
 H1153 H 0.23825 0.62077 0.11386
 H1154 H 0.21523 0.59370 0.13437
 H1155 H 0.23869 0.54551 0.09712
 H1156 H 0.26169 0.57257 0.07663
 H1157 H 0.20786 0.60446 0.05849
 H1158 H 0.18484 0.57739 0.07900
 C1159 C 0.76831 0.39527 0.08019
 C1160 C 0.79291 0.39202 0.07833
 C1161 C 0.80470 0.40697 0.08966
 C1162 C 0.79070 0.42367 0.10172
 C1163 C 0.77537 0.41019 0.11594
 C1164 C 0.76360 0.39526 0.10462
 C1165 C 0.76436 0.41872 0.07292
 C1166 C 0.77612 0.43364 0.08423
 C1167 C 0.75542 0.37937 0.06803
 C1168 C 0.74433 0.36667 0.05808
 C1169 C 0.80320 0.43989 0.11388
 C1170 C 0.81315 0.45349 0.12383
 H1171 H 0.80041 0.37913 0.06897
 H1172 H 0.82229 0.40688 0.09000
 H1173 H 0.77391 0.41218 0.13337
 H1174 H 0.75205 0.38446 0.11236
 H1175 H 0.75330 0.42321 0.06001
 H1176 H 0.77513 0.45091 0.08100
 C1177 C 0.92013 0.76773 0.60398
 C1178 C 0.92965 0.79043 0.60024
 C1179 C 0.91854 0.80229 0.58530
 C1180 C 0.89899 0.79027 0.57558
 C1181 C 0.88520 0.78347 0.59514
 C1182 C 0.89631 0.77162 0.61007
 C1183 C 0.91938 0.75719 0.58143
 C1184 C 0.90828 0.76903 0.56651
 C1185 C 0.93206 0.75478 0.61991
 C1186 C 0.94183 0.74369 0.63266
 C1187 C 0.88700 0.80286 0.55940
 C1188 C 0.87709 0.81289 0.54590
 H1189 H 0.94386 0.79665 0.60860
 H1190 H 0.92322 0.81867 0.58086
 H1191 H 0.86821 0.78761 0.59710
 H1192 H 0.88884 0.76561 0.62482
 H1193 H 0.92692 0.74177 0.57751
 H1194 H 0.90632 0.76375 0.54982
 C1195 C 0.91967 0.23204 0.39763
 C1196 C 0.91423 0.20897 0.38991
 C1197 C 0.90345 0.19693 0.40499
 C1198 C 0.89919 0.20914 0.42628
 C1199 C 0.88712 0.22981 0.41959
 C1200 C 0.89788 0.24184 0.40454
 C1201 C 0.93235 0.22899 0.41881
 C1202 C 0.92158 0.21696 0.43387
 C1203 C 0.93122 0.24519 0.38153
 C1204 C 0.94065 0.25642 0.36862
 C1205 C 0.88752 0.19635 0.44259
 C1206 C 0.87773 0.18618 0.45610
 H1207 H 0.91846 0.20266 0.37402
 H1208 H 0.89846 0.18029 0.40201
 H1209 H 0.87148 0.23458 0.42610
 H1210 H 0.89145 0.25691 0.39815
 H1211 H 0.94838 0.23568 0.42172
 H1212 H 0.92840 0.21334 0.44968
 C1213 C 0.08285 0.23749 0.60077
 C1214 C 0.10666 0.23425 0.60722
 C1215 C 0.11819 0.22222 0.59268
 C1216 C 0.10476 0.21462 0.57313
 C1217 C 0.09516 0.23542 0.56348
 C1218 C 0.08365 0.24744 0.57801
 C1219 C 0.07382 0.21451 0.59743
 C1220 C 0.08535 0.20248 0.58290
 C1221 C 0.07043 0.25048 0.61634
 C1222 C 0.06017 0.26126 0.62903
 C1223 C 0.11712 0.20177 0.55739
 C1224 C 0.12716 0.19142 0.54420
 H1225 H 0.11383 0.24081 0.62191
 H1226 H 0.13523 0.21848 0.59492
 H1227 H 0.09723 0.24029 0.54671
 H1228 H 0.07585 0.26260 0.57368
 H1229 H 0.05964 0.20823 0.60576
 H1230 H 0.08104 0.18590 0.57877
 C1231 C 0.08043 0.76752 0.39476
 C1232 C 0.06597 0.78370 0.40696
 C1233 C 0.07687 0.79581 0.42193
 C1234 C 0.10115 0.79055 0.42323
 C1235 C 0.10965 0.79340 0.40002
 C1236 C 0.09875 0.78128 0.38504
 C1237 C 0.09130 0.75396 0.41252
 C1238 C 0.10219 0.76606 0.42748
 C1239 C 0.06870 0.75429 0.37881
 C1240 C 0.05904 0.74301 0.36606
 C1241 C 0.11289 0.80342 0.43946
 C1242 C 0.12257 0.81369 0.45302
 H1243 H 0.04870 0.78551 0.40407
 H1244 H 0.06893 0.80800 0.43188
 H1245 H 0.12304 0.80401 0.39572
 H1246 H 0.10279 0.78151 0.36791
 H1247 H 0.09052 0.73639 0.41328
 H1248 H 0.11073 0.75885 0.44104
 C1249 C 0.59913 0.91779 0.76267
 C1250 C 0.60700 0.91323 0.78582
 C1251 C 0.59259 0.90161 0.79790
 C1252 C 0.57174 0.89569 0.78564
 C1253 C 0.57942 0.88380 0.76515
 C1254 C 0.59381 0.89541 0.75307
 C1255 C 0.57711 0.92901 0.76545
 C1256 C 0.56271 0.91739 0.77753
 C1257 C 0.61459 0.93031 0.74962
 C1258 C 0.62722 0.94060 0.73883
 C1259 C 0.55615 0.88322 0.79857
 C1260 C 0.54312 0.87307 0.80901
 H1261 H 0.62251 0.91865 0.79216
 H1262 H 0.59577 0.89708 0.81459
 H1263 H 0.57402 0.86767 0.76053
 H1264 H 0.60075 0.88923 0.73811
 H1265 H 0.57317 0.94469 0.75856
 H1266 H 0.54644 0.92314 0.78097
 C1267 C 0.39987 0.92048 0.23464
 C1268 C 0.39586 0.92216 0.21014
 C1269 C 0.41055 0.91100 0.19796
 C1270 C 0.42780 0.89926 0.21148
 C1271 C 0.41495 0.88491 0.22722
 C1272 C 0.40026 0.89606 0.23939
 C1273 C 0.42333 0.92813 0.23790
 C1274 C 0.43802 0.91698 0.22573
 C1275 C 0.38411 0.93248 0.24780
 C1276 C 0.37125 0.94237 0.25871
 C1277 C 0.44367 0.88725 0.19847
 C1278 C 0.45688 0.87735 0.18800
 H1279 H 0.38266 0.93130 0.20299
 H1280 H 0.40993 0.91058 0.18038
 H1281 H 0.41718 0.86751 0.22867
 H1282 H 0.38992 0.88822 0.25127
 H1283 H 0.42801 0.94117 0.24881
 H1284 H 0.45527 0.92047 0.22621
 C1285 C 0.59997 0.08061 0.23622
 C1286 C 0.59340 0.06891 0.21522
 C1287 C 0.57893 0.08023 0.20297
 C1288 C 0.57246 0.10212 0.21292
 C1289 C 0.59394 0.11417 0.21667
 C1290 C 0.60840 0.10286 0.22892
 C1291 C 0.57854 0.08535 0.24794
 C1292 C 0.56408 0.09666 0.23570
 C1293 C 0.61550 0.06845 0.24946
 C1294 C 0.62821 0.05848 0.26042
 C1295 C 0.55682 0.11432 0.19983
 C1296 C 0.54380 0.12436 0.18931
 H1297 H 0.59956 0.05314 0.21039
 H1298 H 0.57271 0.07415 0.18765
 H1299 H 0.59749 0.13017 0.21026
 H1300 H 0.62433 0.10917 0.23300
 H1301 H 0.57502 0.08027 0.26441
 H1302 H 0.54818 0.10126 0.24169
 C1303 C 0.39612 0.07865 0.76963
 C1304 C 0.41952 0.07112 0.76579
 C1305 C 0.43444 0.08208 0.77787
 C1306 C 0.42452 0.09952 0.79262
 C1307 C 0.40751 0.08751 0.80626
 C1308 C 0.39257 0.07653 0.79416
 C1309 C 0.39647 0.10315 0.76530
 C1310 C 0.41139 0.11412 0.77738
 C1311 C 0.38019 0.06688 0.75640
 C1312 C 0.36744 0.05729 0.74507
 C1313 C 0.44071 0.11138 0.80545
 C1314 C 0.45421 0.12122 0.81564
 H1315 H 0.42398 0.05828 0.75458
 H1316 H 0.45167 0.07863 0.77700
 H1317 H 0.40722 0.08762 0.82385
 H1318 H 0.37948 0.06723 0.80139
 H1319 H 0.38590 0.11119 0.75377
 H1320 H 0.41361 0.13155 0.77620
 C1321 C 0.60355 0.76853 0.08099
 C1322 C 0.59498 0.75740 0.10150
 C1323 C 0.57984 0.76926 0.11235
 C1324 C 0.57473 0.79109 0.10164
 C1325 C 0.56814 0.78540 0.07832
 C1326 C 0.58329 0.77354 0.06746
 C1327 C 0.61190 0.79072 0.08868
 C1328 C 0.59674 0.80259 0.09955
 C1329 C 0.61973 0.75558 0.06932
 C1330 C 0.63269 0.74453 0.05974
 C1331 C 0.55835 0.80371 0.11337
 C1332 C 0.54476 0.81381 0.12315
 H1333 H 0.60035 0.74159 0.10703
 H1334 H 0.57223 0.76360 0.12717
 H1335 H 0.55292 0.79027 0.07097
 H1336 H 0.58105 0.76825 0.05081
 H1337 H 0.62826 0.79659 0.08584
 H1338 H 0.60010 0.81864 0.10602
 C1339 C 0.40124 0.23582 0.08002
 C1340 C 0.41618 0.22205 0.06564
 C1341 C 0.43061 0.20985 0.07703
 C1342 C 0.42868 0.21260 0.10169
 C1343 C 0.40490 0.20740 0.10692
 C1344 C 0.39047 0.21961 0.09552
 C1345 C 0.41658 0.24928 0.09432
 C1346 C 0.43100 0.23708 0.10571
 C1347 C 0.38575 0.24902 0.06778
 C1348 C 0.37309 0.25996 0.05773
 C1349 C 0.44428 0.19957 0.11396
 C1350 C 0.45729 0.18911 0.12408
 H1351 H 0.41549 0.22190 0.04805
 H1352 H 0.44228 0.19924 0.06920
 H1353 H 0.39985 0.19520 0.11853
 H1354 H 0.37305 0.21787 0.09738
 H1355 H 0.41615 0.26685 0.09541
 H1356 H 0.44292 0.24420 0.11655
 C1357 C 0.60265 0.23108 0.91971
 C1358 C 0.60643 0.22966 0.89515
 C1359 C 0.59120 0.21764 0.88452
 C1360 C 0.57368 0.20822 0.89947
 C1361 C 0.56429 0.22785 0.91157
 C1362 C 0.57951 0.23986 0.92220
 C1363 C 0.60142 0.20744 0.92738
 C1364 C 0.58618 0.19542 0.91674
 C1365 C 0.61891 0.24420 0.93114
 C1366 C 0.63194 0.25538 0.94053
 C1367 C 0.55720 0.19544 0.88798
 C1368 C 0.54351 0.18521 0.87844
 H1369 H 0.61989 0.23739 0.88685
 H1370 H 0.59162 0.21508 0.86710
 H1371 H 0.54718 0.23196 0.91178
 H1372 H 0.57543 0.25425 0.93151
 H1373 H 0.61161 0.20074 0.94004
 H1374 H 0.58331 0.17842 0.92028
 C1375 C 0.40007 0.76322 0.91980
 C1376 C 0.40023 0.75740 0.89559
 C1377 C 0.41456 0.76934 0.88375
 C1378 C 0.42733 0.78594 0.89728
 C1379 C 0.43801 0.77265 0.91536
 C1380 C 0.42369 0.76071 0.92720
 C1381 C 0.39568 0.78771 0.92059
 C1382 C 0.41001 0.79965 0.90875
 C1383 C 0.38470 0.75030 0.93255
 C1384 C 0.37213 0.73959 0.94299
 C1385 C 0.44285 0.79871 0.88456
 C1386 C 0.45584 0.80901 0.87421
 H1387 H 0.38999 0.74500 0.88838
 H1388 H 0.41658 0.76718 0.86640
 H1389 H 0.45532 0.77263 0.91859
 H1390 H 0.42873 0.75047 0.94056
 H1391 H 0.38247 0.79502 0.92965
 H1392 H 0.40908 0.81720 0.90766
 C1393 C 0.76558 0.91914 0.40114
 C1394 C 0.78429 0.90651 0.39063
 C1395 C 0.79653 0.89519 0.40511
 C1396 C 0.78885 0.89762 0.42866
 C1397 C 0.76490 0.89082 0.42836
 C1398 C 0.75267 0.90213 0.41390
 C1399 C 0.77635 0.93347 0.41845
 C1400 C 0.78858 0.92216 0.43292
 C1401 C 0.75236 0.93133 0.38562
 C1402 C 0.74140 0.94135 0.37294
 C1403 C 0.80192 0.88545 0.44433
 C1404 C 0.81243 0.87552 0.45745
 H1405 H 0.78763 0.90647 0.37336
 H1406 H 0.81035 0.88546 0.40023
 H1407 H 0.75813 0.87822 0.43861
 H1408 H 0.73544 0.89922 0.41176
 H1409 H 0.77453 0.95096 0.41928
 H1410 H 0.79724 0.92996 0.44613
 C1411 C 0.23066 0.91964 0.60139
 C1412 C 0.20713 0.91546 0.60837
 C1413 C 0.19521 0.90453 0.59324
 C1414 C 0.20800 0.89888 0.57264
 C1415 C 0.22788 0.88628 0.58063
 C1416 C 0.23979 0.89719 0.59573
 C1417 C 0.22893 0.93152 0.57962
 C1418 C 0.21702 0.92061 0.56451
 C1419 C 0.24368 0.93135 0.61753
 C1420 C 0.25483 0.94091 0.63046
 C1421 C 0.19535 0.88709 0.55626
 C1422 C 0.18526 0.87732 0.54263
 H1423 H 0.20042 0.92062 0.62381
 H1424 H 0.17829 0.90034 0.59573
 H1425 H 0.23223 0.87019 0.57493
 H1426 H 0.25432 0.89044 0.60298
 H1427 H 0.23638 0.94714 0.57637
 H1428 H 0.21428 0.92688 0.54832
 C1429 C 0.23578 0.08236 0.39891
 C1430 C 0.23495 0.10673 0.39395
 C1431 C 0.22310 0.11835 0.40855
 C1432 C 0.21324 0.10445 0.42667
 C1433 C 0.23253 0.09248 0.43679
 C1434 C 0.24438 0.08087 0.42220
 C1435 C 0.21198 0.07520 0.40032
 C1436 C 0.20012 0.08682 0.41492
 C1437 C 0.24861 0.06986 0.38327
 C1438 C 0.25928 0.05959 0.37051
 C1439 C 0.20058 0.11693 0.44247
 C1440 C 0.19040 0.12710 0.45570
 H1441 H 0.24296 0.11420 0.38018
 H1442 H 0.22094 0.13577 0.40729
 H1443 H 0.23653 0.09307 0.45392
 H1444 H 0.25853 0.07151 0.42683
 H1445 H 0.20505 0.06216 0.39069
 H1446 H 0.18303 0.08373 0.41780
 C1447 C 0.76424 0.08013 0.59984
 C1448 C 0.75236 0.09884 0.58861
 C1449 C 0.76490 0.10987 0.57416
 C1450 C 0.78812 0.10111 0.57234
 C1451 C 0.78546 0.07696 0.56685
 C1452 C 0.77292 0.06593 0.58130
 C1453 C 0.78445 0.09055 0.61004
 C1454 C 0.79701 0.10158 0.59558
 C1455 C 0.75067 0.06826 0.61534
 C1456 C 0.73944 0.05847 0.62799
 C1457 C 0.80151 0.11301 0.55669
 C1458 C 0.81223 0.12283 0.54364
 H1459 H 0.73556 0.10307 0.59174
 H1460 H 0.75884 0.12353 0.56492
 H1461 H 0.79280 0.06919 0.55285
 H1462 H 0.76951 0.04872 0.57968
 H1463 H 0.78854 0.08936 0.62711
 H1464 H 0.81185 0.10984 0.60027
 C1465 C 0.91766 0.60269 0.23221
 C1466 C 0.90197 0.58890 0.24573
 C1467 C 0.89086 0.57390 0.23389
 C1468 C 0.89650 0.57413 0.20966
 C1469 C 0.92120 0.57125 0.20875
 C1470 C 0.93232 0.58626 0.22061
 C1471 C 0.90364 0.61261 0.21424
 C1472 C 0.89250 0.59758 0.20237
 C1473 C 0.92965 0.61868 0.24515
 C1474 C 0.93954 0.63146 0.25619
 C1475 C 0.88456 0.55784 0.19705
 C1476 C 0.87483 0.54419 0.18694
 H1477 H 0.89978 0.59077 0.26310
 H1478 H 0.87914 0.56292 0.24111
 H1479 H 0.92925 0.55854 0.19959
 H1480 H 0.94990 0.58641 0.22159
 H1481 H 0.90256 0.62989 0.21110
 H1482 H 0.88188 0.60199 0.18907
 C1483 C 0.91824 0.40006 0.76378
 C1484 C 0.91165 0.39144 0.78616
 C1485 C 0.90021 0.40600 0.79826
 C1486 C 0.89650 0.42773 0.78677
 C1487 C 0.88552 0.42180 0.76522
 C1488 C 0.89696 0.40725 0.75314
 C1489 C 0.93066 0.42116 0.76840
 C1490 C 0.91923 0.43570 0.78048
 C1491 C 0.93059 0.38448 0.75073
 C1492 C 0.94080 0.37181 0.73991
 C1493 C 0.88426 0.44351 0.79969
 C1494 C 0.87436 0.45675 0.81010
 H1495 H 0.91561 0.37533 0.79199
 H1496 H 0.89437 0.40236 0.81445
 H1497 H 0.87012 0.42843 0.75993
 H1498 H 0.89135 0.40142 0.73749
 H1499 H 0.94700 0.42439 0.76269
 H1500 H 0.92578 0.45140 0.78512
 C1501 C 0.08015 0.60391 0.76902
 C1502 C 0.09553 0.58960 0.75567
 C1503 C 0.10627 0.57457 0.76770
 C1504 C 0.10061 0.57530 0.79191
 C1505 C 0.07585 0.57292 0.79282
 C1506 C 0.06509 0.58796 0.78079
 C1507 C 0.09439 0.61383 0.78690
 C1508 C 0.10515 0.59878 0.79894
 C1509 C 0.06861 0.61997 0.75587
 C1510 C 0.05916 0.63283 0.74462
 C1511 C 0.11227 0.55901 0.80468
 C1512 C 0.12204 0.54549 0.81482
 H1513 H 0.09778 0.59114 0.73829
 H1514 H 0.11773 0.56324 0.76061
 H1515 H 0.06750 0.56052 0.80212
 H1516 H 0.04753 0.58846 0.77978
 H1517 H 0.09586 0.63113 0.78986
 H1518 H 0.11585 0.60319 0.81222
 C1519 C 0.07929 0.39632 0.23182
 C1520 C 0.07254 0.39706 0.20788
 C1521 C 0.08380 0.41194 0.19602
 C1522 C 0.10069 0.42460 0.20929
 C1523 C 0.11510 0.40718 0.21964
 C1524 C 0.10385 0.39232 0.23148
 C1525 C 0.07671 0.41969 0.24005
 C1526 C 0.08795 0.43454 0.22821
 C1527 C 0.06722 0.38047 0.24480
 C1528 C 0.05740 0.36779 0.25595
 C1529 C 0.11285 0.44071 0.19672
 C1530 C 0.12293 0.45418 0.18677
 H1531 H 0.06004 0.38681 0.20087
 H1532 H 0.08095 0.41443 0.17885
 H1533 H 0.13259 0.40656 0.21780
 H1534 H 0.11170 0.37897 0.23979
 H1535 H 0.06688 0.42418 0.25396
 H1536 H 0.08776 0.45175 0.23198
   
