data_POSCAR
  _audit_creation_date              2014-09-24
  _audit_creation_method            'ToBaCCo'
  _symmetry_space_group_name_H-M    'P1'
  _symmetry_Int_Tables_number       1
  _symmetry_cell_setting            triclinic
  loop_
  _symmetry_equiv_pos_as_xyz
 x,y,z
_cell_length_a 69.5046
_cell_length_b 69.4734
_cell_length_c 69.4633
_cell_angle_alpha 90.000300
_cell_angle_beta 90.000900
_cell_angle_gamma 90.016100
loop_
  _atom_site_label
  _atom_site_type_symbol
  _atom_site_fract_x
  _atom_site_fract_y
  _atom_site_fract_z
C1 C 0.19308 0.21172 0.22121
 C2 C 0.19626 0.22415 0.20558
 C3 C 0.21178 0.22120 0.19297
 C4 C 0.22420 0.20558 0.19615
 C5 C 0.22127 0.19298 0.21170
 C6 C 0.20567 0.19618 0.22415
 H7 H 0.18661 0.23616 0.20322
 H8 H 0.23620 0.20321 0.18648
 H9 H 0.20331 0.18653 0.23617
 C10 C 0.69295 0.71174 0.72111
 C11 C 0.69620 0.72423 0.70554
 C12 C 0.71173 0.72127 0.69293
 C13 C 0.72409 0.70559 0.69606
 C14 C 0.72108 0.69294 0.71155
 C15 C 0.70547 0.69614 0.72399
 H16 H 0.68632 0.73599 0.70291
 H17 H 0.73609 0.70321 0.68641
 H18 H 0.70336 0.68674 0.73626
 C19 C 0.30680 0.78848 0.72115
 C20 C 0.30354 0.77599 0.70564
 C21 C 0.28796 0.77886 0.69317
 C22 C 0.27549 0.79445 0.69635
 C23 C 0.27836 0.80734 0.71184
 C24 C 0.29423 0.80402 0.72413
 H25 H 0.31347 0.76427 0.70296
 H26 H 0.26387 0.79667 0.68626
 H27 H 0.29640 0.81283 0.73678
 C28 C 0.80745 0.28826 0.22173
 C29 C 0.79457 0.30375 0.22460
 C30 C 0.77895 0.30690 0.21216
 C31 C 0.77605 0.29441 0.19659
 C32 C 0.78853 0.27891 0.19332
 C33 C 0.80410 0.27595 0.20587
 H34 H 0.79682 0.31386 0.23621
 H35 H 0.76431 0.29706 0.18668
 H36 H 0.81290 0.26331 0.20369
 C37 C 0.80707 0.71178 0.27882
 C38 C 0.79451 0.69620 0.27591
 C39 C 0.77889 0.69301 0.28835
 C40 C 0.77591 0.70565 0.30385
 C41 C 0.78831 0.72131 0.30700
 C42 C 0.80385 0.72425 0.29441
 H43 H 0.79660 0.68682 0.26363
 H44 H 0.76390 0.70328 0.31350
 H45 H 0.81376 0.73599 0.29705
 C46 C 0.30733 0.21162 -0.22145
 C47 C 0.30399 0.22394 -0.20560
 C48 C 0.28844 0.22098 -0.19303
 C49 C 0.27594 0.20548 -0.19629
 C50 C 0.27882 0.19299 -0.21187
 C51 C 0.29445 0.19613 -0.22430
 H52 H 0.31280 0.23659 -0.20343
 H53 H 0.26392 0.20313 -0.18665
 H54 H 0.29700 0.18570 -0.23557
 C55 C 0.69254 0.28789 -0.22143
 C56 C 0.70527 0.30353 -0.22414
 C57 C 0.72090 0.30668 -0.21171
 C58 C 0.72393 0.29405 -0.19628
 C59 C 0.71159 0.27841 -0.19316
 C60 C 0.69603 0.27542 -0.20572
 H61 H 0.70384 0.31282 -0.23655
 H62 H 0.73566 0.29669 -0.18635
 H63 H 0.68641 0.26357 -0.20274
 C64 C 0.19289 0.78850 0.27900
 C65 C 0.19615 0.77599 0.29450
 C66 C 0.21175 0.77885 0.30696
 C67 C 0.22420 0.79447 0.30380
 C68 C 0.22135 0.80736 0.28831
 C69 C 0.20548 0.80404 0.27602
 H70 H 0.18650 0.76398 0.29687
 H71 H 0.23549 0.79700 0.31421
 H72 H 0.20330 0.81285 0.26338
 C73 C 0.46165 0.44285 0.47113
 C74 C 0.44613 0.45545 0.47408
 C75 C 0.44298 0.47111 0.46167
 C76 C 0.45561 0.47408 0.44617
 C77 C 0.47122 0.46165 0.44298
 C78 C 0.47412 0.44607 0.45554
 H79 H 0.43675 0.45335 0.48636
 H80 H 0.45298 0.48582 0.43625
 H81 H 0.48612 0.43641 0.45318
 C82 C -0.03846 -0.05670 0.97116
 C83 C -0.05401 -0.04415 0.97415
 C84 C -0.05737 -0.02829 0.96185
 C85 C -0.04450 -0.02541 0.94634
 C86 C -0.02890 -0.03786 0.94316
 C87 C -0.02600 -0.05344 0.95564
 H88 H -0.06280 -0.04632 0.98681
 H89 H -0.04675 -0.01380 0.93624
 H90 H -0.01427 -0.06335 0.95296
 C91 C 1.03814 0.55701 0.97109
 C92 C 1.02572 0.55383 0.95545
 C93 C 1.02865 0.53829 0.94286
 C94 C 1.04424 0.52583 0.94607
 C95 C 1.05682 0.52876 0.96162
 C96 C 1.05365 0.54439 0.97405
 H97 H 1.01344 0.56320 0.95337
 H98 H 1.04659 0.51381 0.93642
 H99 H 1.06359 0.54704 0.98577
 C100 C 0.53841 0.05699 0.47107
 C101 C 0.55396 0.04443 0.47403
 C102 C 0.55730 0.02858 0.46172
 C103 C 0.54441 0.02571 0.44623
 C104 C 0.52879 0.03814 0.44308
 C105 C 0.52591 0.05373 0.45557
 H106 H 0.56277 0.04661 0.48668
 H107 H 0.54696 0.01444 0.43581
 H108 H 0.51389 0.06336 0.45321
 C109 C -0.03851 0.05713 0.52897
 C110 C -0.05407 0.04457 0.52598
 C111 C -0.05742 0.02869 0.53827
 C112 C -0.04454 0.02581 0.55376
 C113 C -0.02891 0.03824 0.55693
 C114 C -0.02602 0.05384 0.54447
 H115 H -0.06287 0.04676 0.51333
 H116 H -0.04710 0.01452 0.56416
 H117 H -0.01400 0.06347 0.54685
 C118 C 0.46168 0.55715 0.02870
 C119 C 0.47410 0.55397 0.04433
 C120 C 0.47118 0.53841 0.05691
 C121 C 0.45559 0.52594 0.05369
 C122 C 0.44300 0.52888 0.03814
 C123 C 0.44617 0.54453 0.02573
 H124 H 0.48638 0.56334 0.04643
 H125 H 0.45324 0.51391 0.06333
 H126 H 0.43623 0.54718 0.01402
 C127 C 0.53824 -0.05727 0.02859
 C128 C 0.55373 -0.04438 0.02577
 C129 C 0.55689 -0.02879 0.03825
 C130 C 0.54442 -0.02595 0.05385
 C131 C 0.52892 -0.03845 0.05708
 C132 C 0.52594 -0.05397 0.04446
 H133 H 0.56414 -0.04690 0.01449
 H134 H 0.54679 -0.01396 0.06353
 H135 H 0.51329 -0.06278 0.04661
 C136 C 1.03844 0.44321 0.52897
 C137 C 1.02611 0.44631 0.54463
 C138 C 1.02911 0.46176 0.55725
 C139 C 1.04471 0.47422 0.55410
 C140 C 1.05744 0.47153 0.53844
 C141 C 1.05397 0.45581 0.52599
 H142 H 1.01382 0.43694 0.54672
 H143 H 1.04645 0.48632 0.56372
 H144 H 1.06390 0.45252 0.51447
 C145 C 0.40436 0.00881 0.22408
 H146 H 0.40516 0.02186 0.23255
 C147 C 0.41692 0.00608 0.20864
 H148 H 0.42746 0.01708 0.20538
 C149 C 0.39002 -0.02164 0.21856
 H150 H 0.37969 -0.03252 0.22261
 C151 C 0.40232 -0.02497 0.20302
 H152 H 0.40103 -0.03829 0.19502
 N153 N 0.39110 -0.00486 0.22860
 C154 C 0.34554 0.02582 0.25898
 H155 H 0.34473 0.01735 0.27203
 C156 C 0.33301 0.04128 0.25626
 H157 H 0.32247 0.04456 0.26727
 C158 C 0.35988 0.03133 0.22853
 H159 H 0.37020 0.02727 0.21764
 C160 C 0.34761 0.04689 0.22520
 H161 H 0.34891 0.05489 0.21189
 Zn162 Zn 0.37493 -0.00015 0.25002
 N163 N 0.35879 0.02129 0.24531
 C164 C 0.39003 0.02133 0.28149
 N165 N 0.39109 0.00454 0.27146
 C166 C 0.40431 -0.00915 0.27599
 C167 C 0.41686 -0.00644 0.29144
 C168 C 0.40233 0.02465 0.29704
 C169 C 0.34550 -0.02607 0.24103
 C170 C 0.33292 -0.04150 0.24375
 C171 C 0.34752 -0.04717 0.27480
 C172 C 0.35982 -0.03162 0.27149
 N173 N 0.35875 -0.02157 0.25471
 H174 H 0.37974 0.03223 0.27743
 H175 H 0.40508 -0.02220 0.26753
 H176 H 0.42737 -0.01746 0.29472
 H177 H 0.40106 0.03797 0.30503
 H178 H 0.34478 -0.01767 0.22794
 H179 H 0.32271 -0.04506 0.23253
 H180 H 0.34847 -0.05488 0.28831
 H181 H 0.37006 -0.02751 0.28243
 C182 C 0.33397 0.05208 0.23919
 C183 C 0.41597 -0.01099 0.19785
 C184 C 0.33387 -0.05232 0.26081
 C185 C 0.41594 0.01064 0.30223
 C186 C 0.09553 -0.00912 0.72403
 H187 H 0.09474 -0.02216 0.73251
 C188 C 0.08298 -0.00642 0.70858
 H189 H 0.07245 -0.01743 0.70532
 C190 C 0.10986 0.02133 0.71848
 H191 H 0.12017 0.03223 0.72252
 C192 C 0.09756 0.02464 0.70293
 H193 H 0.09885 0.03795 0.69492
 N194 N 0.10878 0.00456 0.72854
 C195 C 0.15433 -0.02601 0.75903
 H196 H 0.15506 -0.01757 0.77210
 C197 C 0.16690 -0.04145 0.75635
 H198 H 0.17710 -0.04499 0.76758
 C199 C 0.14000 -0.03163 0.72859
 H200 H 0.12976 -0.02755 0.71765
 C201 C 0.15228 -0.04720 0.72532
 H202 H 0.15132 -0.05494 0.71183
 Zn203 Zn 0.12493 -0.00010 0.74998
 N204 N 0.14109 -0.02154 0.74534
 C205 C 0.10984 -0.02150 0.78150
 N206 N 0.10877 -0.00475 0.77142
 C207 C 0.09553 0.00894 0.77591
 C208 C 0.08296 0.00626 0.79135
 C209 C 0.09756 -0.02478 0.79707
 C210 C 0.15437 0.02581 0.74096
 C211 C 0.16694 0.04125 0.74365
 C212 C 0.15231 0.04698 0.77467
 C213 C 0.14002 0.03142 0.77139
 N214 N 0.14111 0.02134 0.75464
 H215 H 0.12008 -0.03244 0.77741
 H216 H 0.09480 0.02202 0.76747
 H217 H 0.07276 0.01748 0.79490
 H218 H 0.09851 -0.03827 0.80481
 H219 H 0.15509 0.01737 0.72789
 H220 H 0.17715 0.04478 0.73243
 H221 H 0.15135 0.05472 0.78817
 H222 H 0.12977 0.02734 0.78233
 C223 C 0.16594 -0.05232 0.73932
 C224 C 0.08392 0.01064 0.69777
 C225 C 0.16598 0.05211 0.76068
 C226 C 0.08391 -0.01078 0.80221
 C227 C 0.59568 0.49097 0.22391
 H228 H 0.59487 0.47792 0.23238
 C229 C 0.58314 0.49369 0.20845
 H230 H 0.57261 0.48269 0.20517
 C231 C 0.61002 0.52142 0.21842
 H232 H 0.62033 0.53231 0.22248
 C233 C 0.59774 0.52476 0.20286
 H234 H 0.59904 0.53807 0.19486
 N235 N 0.60892 0.50465 0.22845
 C236 C 0.65446 0.47403 0.25893
 H237 H 0.65519 0.48246 0.27200
 C238 C 0.66703 0.45860 0.25623
 H239 H 0.67723 0.45506 0.26746
 C240 C 0.64013 0.46844 0.22849
 H241 H 0.62989 0.47253 0.21754
 C242 C 0.65241 0.45287 0.22520
 H243 H 0.65145 0.44514 0.21170
 Zn244 Zn 0.62506 0.49995 0.24991
 N245 N 0.64121 0.47852 0.24524
 C246 C 0.60993 0.47850 0.28137
 N247 N 0.60887 0.49527 0.27132
 C248 C 0.59564 0.50896 0.27583
 C249 C 0.58307 0.50625 0.29128
 C250 C 0.59762 0.47518 0.29691
 C251 C 0.65451 0.52586 0.24095
 C252 C 0.66708 0.54129 0.24367
 C253 C 0.65241 0.54702 0.27467
 C254 C 0.64012 0.53146 0.27136
 N255 N 0.64123 0.52138 0.25461
 H256 H 0.62023 0.46760 0.27733
 H257 H 0.59486 0.52201 0.26737
 H258 H 0.57255 0.51726 0.29454
 H259 H 0.59889 0.46187 0.30491
 H260 H 0.65526 0.51743 0.22787
 H261 H 0.67731 0.54483 0.23246
 H262 H 0.65142 0.55475 0.28817
 H263 H 0.62985 0.52737 0.28228
 C264 C 0.66607 0.44775 0.23920
 C265 C 0.58410 0.51076 0.19766
 C266 C 0.66609 0.55215 0.26070
 C267 C 0.58399 0.48919 0.30208
 C268 C 0.90414 0.50878 0.72398
 H269 H 0.90492 0.52183 0.73245
 C270 C 0.91670 0.50608 0.70854
 H271 H 0.92723 0.51709 0.70528
 C272 C 0.88984 0.47832 0.71845
 H273 H 0.87952 0.46742 0.72249
 C274 C 0.90215 0.47500 0.70291
 H275 H 0.90087 0.46169 0.69490
 N276 N 0.89090 0.49509 0.72849
 C277 C 0.84528 0.52570 0.75886
 H278 H 0.84448 0.51724 0.77191
 C279 C 0.83273 0.54115 0.75613
 H280 H 0.82219 0.54441 0.76713
 C281 C 0.85963 0.53123 0.72841
 H282 H 0.86995 0.52719 0.71753
 C283 C 0.84733 0.54678 0.72508
 H284 H 0.84863 0.55478 0.71177
 Zn285 Zn 0.87471 0.49978 0.74991
 N286 N 0.85854 0.52119 0.74519
 C287 C 0.88976 0.52129 0.78138
 N288 N 0.89085 0.50450 0.77135
 C289 C 0.90410 0.49084 0.77589
 C290 C 0.91664 0.49357 0.79135
 C291 C 0.90204 0.52463 0.79694
 C292 C 0.84532 0.47382 0.74092
 C293 C 0.83276 0.45837 0.74364
 C294 C 0.84738 0.45271 0.77468
 C295 C 0.85965 0.46829 0.77137
 N296 N 0.85856 0.47834 0.75460
 H297 H 0.87944 0.53217 0.77731
 H298 H 0.90491 0.47778 0.76743
 H299 H 0.92717 0.48258 0.79464
 H300 H 0.90074 0.53794 0.80493
 H301 H 0.84458 0.48222 0.72783
 H302 H 0.82255 0.45480 0.73242
 H303 H 0.84834 0.44501 0.78819
 H304 H 0.86989 0.47241 0.78231
 C305 C 0.83368 0.55195 0.73907
 C306 C 0.91578 0.48901 0.69774
 C307 C 0.83373 0.44754 0.76069
 C308 C 0.91568 0.51065 0.80214
 C309 C 0.22399 0.40448 0.00882
 H310 H 0.23246 0.40529 0.02187
 C311 C 0.20854 0.41703 0.00611
 H312 H 0.20528 0.42756 0.01712
 C313 C 0.21846 0.39014 -0.02163
 H314 H 0.22250 0.37982 -0.03252
 C315 C 0.20291 0.40242 -0.02494
 H316 H 0.19490 0.40112 -0.03825
 N317 N 0.22850 0.39123 -0.00486
 C318 C 0.25893 0.34569 0.02582
 H319 H 0.27197 0.34490 0.01735
 C320 C 0.25623 0.33314 0.04128
 H321 H 0.26724 0.32262 0.04456
 C322 C 0.22847 0.35998 0.03133
 H323 H 0.21758 0.37028 0.02727
 C324 C 0.22516 0.34769 0.04689
 H325 H 0.21186 0.34897 0.05489
 Zn326 Zn 0.24993 0.37507 -0.00016
 N327 N 0.24524 0.35891 0.02129
 C328 C 0.28139 0.39019 0.02130
 N329 N 0.27135 0.39125 0.00452
 C330 C 0.27586 0.40448 -0.00918
 C331 C 0.29130 0.41706 -0.00647
 C332 C 0.29695 0.40248 0.02459
 C333 C 0.24095 0.34562 -0.02608
 C334 C 0.24367 0.33304 -0.04151
 C335 C 0.27469 0.34767 -0.04718
 C336 C 0.27138 0.35996 -0.03163
 N337 N 0.25462 0.35889 -0.02158
 H338 H 0.27727 0.37996 0.03225
 H339 H 0.26746 0.40519 -0.02227
 H340 H 0.29487 0.42725 -0.01771
 H341 H 0.30465 0.40154 0.03811
 H342 H 0.22786 0.34490 -0.01767
 H343 H 0.23245 0.32283 -0.04507
 H344 H 0.28820 0.34862 -0.05489
 H345 H 0.28231 0.37021 -0.02752
 C346 C 0.23917 0.33407 0.05208
 C347 C 0.19773 0.41607 -0.01094
 C348 C 0.26071 0.33400 -0.05233
 C349 C 0.30211 0.41612 0.01058
 C350 C 0.72412 0.09558 -0.00872
 H351 H 0.73259 0.09478 -0.02176
 C352 C 0.70866 0.08303 -0.00602
 H353 H 0.70540 0.07249 -0.01703
 C354 C 0.71857 0.10992 0.02173
 H355 H 0.72260 0.12025 0.03262
 C356 C 0.70301 0.09763 0.02504
 H357 H 0.69499 0.09893 0.03833
 N358 N 0.72862 0.10884 0.00496
 C359 C 0.75904 0.15441 -0.02571
 H360 H 0.77209 0.15521 -0.01725
 C361 C 0.75633 0.16695 -0.04117
 H362 H 0.76734 0.17748 -0.04446
 C363 C 0.72859 0.14009 -0.03121
 H364 H 0.71769 0.12978 -0.02715
 C365 C 0.72527 0.15237 -0.04677
 H366 H 0.71196 0.15108 -0.05477
 Zn367 Zn 0.75005 0.12501 0.00027
 N368 N 0.74536 0.14117 -0.02117
 C369 C 0.78152 0.10993 -0.02119
 N370 N 0.77147 0.10884 -0.00442
 C371 C 0.77597 0.09558 0.00926
 C372 C 0.79140 0.08302 0.00654
 C373 C 0.79707 0.09765 -0.02449
 C374 C 0.74108 0.15443 0.02621
 C375 C 0.74380 0.16700 0.04166
 C376 C 0.77484 0.15242 0.04728
 C377 C 0.77151 0.14011 0.03173
 N378 N 0.75474 0.14118 0.02170
 H379 H 0.77741 0.12017 -0.03213
 H380 H 0.76756 0.09485 0.02234
 H381 H 0.79496 0.07281 0.01777
 H382 H 0.80479 0.09862 -0.03800
 H383 H 0.72803 0.15523 0.01775
 H384 H 0.73280 0.17753 0.04493
 H385 H 0.78815 0.15113 0.05528
 H386 H 0.78240 0.12980 0.02768
 C387 C 0.73927 0.16600 -0.05197
 C388 C 0.69784 0.08399 0.01103
 C389 C 0.76086 0.16606 0.05246
 C390 C 0.80223 0.08399 -0.01050
 C391 C 0.22409 0.59551 0.49104
 H392 H 0.23250 0.59478 0.47796
 C393 C 0.20865 0.58295 0.49376
 H394 H 0.20509 0.57274 0.48254
 C395 C 0.21855 0.60986 0.52149
 H396 H 0.22266 0.62011 0.53243
 C397 C 0.20299 0.59757 0.52480
 H398 H 0.19529 0.59854 0.53831
 N399 N 0.22860 0.60877 0.50472
 C400 C 0.25901 0.65437 0.47408
 H401 H 0.27206 0.65516 0.48255
 C402 C 0.25630 0.66693 0.45863
 H403 H 0.26731 0.67746 0.45536
 C404 C 0.22857 0.64004 0.46856
 H405 H 0.21768 0.62973 0.47261
 C406 C 0.22525 0.65234 0.45301
 H407 H 0.21194 0.65106 0.44501
 Zn408 Zn 0.25002 0.62494 0.50003
 N409 N 0.24534 0.64112 0.47860
 C410 C 0.28150 0.60988 0.47857
 N411 N 0.27145 0.60878 0.49534
 C412 C 0.27595 0.59552 0.50901
 C413 C 0.29138 0.58296 0.50629
 C414 C 0.29706 0.59760 0.47526
 C415 C 0.24104 0.65436 0.52597
 C416 C 0.24376 0.66693 0.54142
 C417 C 0.27477 0.65230 0.54710
 C418 C 0.27147 0.64002 0.53153
 N419 N 0.25471 0.64111 0.52147
 H420 H 0.27740 0.62013 0.46764
 H421 H 0.26754 0.59478 0.52210
 H422 H 0.29494 0.57274 0.51751
 H423 H 0.30477 0.59858 0.46176
 H424 H 0.22797 0.65510 0.51756
 H425 H 0.23254 0.67714 0.54498
 H426 H 0.28827 0.65133 0.55483
 H427 H 0.28239 0.62977 0.52743
 C428 C 0.23924 0.66599 0.44783
 C429 C 0.19783 0.58391 0.51081
 C430 C 0.26079 0.66596 0.55226
 C431 C 0.30221 0.58394 0.48925
 C432 C 0.72399 0.90473 0.50891
 H433 H 0.73244 0.90554 0.52196
 C434 C 0.70854 0.91727 0.50618
 H435 H 0.70525 0.92780 0.51718
 C436 C 0.71850 0.89038 0.47846
 H437 H 0.72256 0.88006 0.46757
 C438 C 0.70295 0.90266 0.47512
 H439 H 0.69496 0.90135 0.46180
 N440 N 0.72853 0.89148 0.49524
 C441 C 0.75892 0.84592 0.52592
 H442 H 0.77197 0.84513 0.51746
 C443 C 0.75621 0.83336 0.54138
 H444 H 0.76721 0.82284 0.54466
 C445 C 0.72848 0.86023 0.53143
 H446 H 0.71759 0.87054 0.52738
 C447 C 0.72515 0.84793 0.54699
 H448 H 0.71185 0.84922 0.55499
 Zn449 Zn 0.74995 0.87532 0.49996
 N450 N 0.74525 0.85916 0.52140
 C451 C 0.78138 0.89044 0.52146
 N452 N 0.77136 0.89150 0.50467
 C453 C 0.77590 0.90474 0.49098
 C454 C 0.79135 0.91730 0.49370
 C455 C 0.79693 0.90274 0.52479
 C456 C 0.74101 0.84587 0.47404
 C457 C 0.74374 0.83329 0.45860
 C458 C 0.77475 0.84795 0.45293
 C459 C 0.77142 0.86024 0.46849
 N460 N 0.75466 0.85915 0.47854
 H461 H 0.77732 0.88013 0.53235
 H462 H 0.76745 0.90553 0.47792
 H463 H 0.79463 0.92782 0.48268
 H464 H 0.80491 0.90146 0.53811
 H465 H 0.72792 0.84513 0.48244
 H466 H 0.73253 0.82306 0.45505
 H467 H 0.78825 0.84892 0.44522
 H468 H 0.78234 0.87051 0.47259
 C469 C 0.73915 0.83430 0.55218
 C470 C 0.69775 0.91630 0.48911
 C471 C 0.76078 0.83427 0.44778
 C472 C 0.80212 0.91637 0.51078
 C473 C 0.00906 0.22422 0.40453
 H474 H 0.02214 0.23263 0.40526
 C475 C 0.00633 0.20878 0.41710
 H476 H 0.01754 0.20523 0.42733
 C477 C -0.02136 0.21866 0.39016
 H478 H -0.03228 0.22276 0.37989
 C479 C -0.02468 0.20310 0.40245
 H480 H -0.03818 0.19539 0.40147
 N481 N -0.00460 0.22872 0.39125
 C482 C 0.02608 0.25911 0.34567
 H483 H 0.01763 0.27216 0.34487
 C484 C 0.04153 0.25639 0.33312
 H485 H 0.04482 0.26739 0.32259
 C486 C 0.03156 0.22865 0.36000
 H487 H 0.02750 0.21776 0.37032
 C488 C 0.04711 0.22532 0.34772
 H489 H 0.05509 0.21200 0.34901
 Zn490 Zn 0.00011 0.25014 0.37507
 N491 N 0.02154 0.24544 0.35892
 C492 C 0.02155 0.28164 0.39016
 N493 N 0.00480 0.27158 0.39124
 C494 C -0.00888 0.27607 0.40450
 C495 C -0.00616 0.29151 0.41707
 C496 C 0.02486 0.29720 0.40244
 C497 C -0.02582 0.24113 0.34565
 C498 C -0.04126 0.24383 0.33309
 C499 C -0.04687 0.27491 0.34765
 C500 C -0.03133 0.27160 0.35995
 N501 N -0.02130 0.25482 0.35889
 H502 H 0.03249 0.27753 0.37991
 H503 H -0.02195 0.26766 0.40523
 H504 H -0.01738 0.29507 0.42728
 H505 H 0.03836 0.30492 0.40148
 H506 H -0.01736 0.22808 0.34487
 H507 H -0.04453 0.23281 0.32257
 H508 H -0.05487 0.28821 0.34892
 H509 H -0.02728 0.28250 0.37026
 C510 C 0.05231 0.23931 0.33408
 C511 C -0.01071 0.19795 0.41612
 C512 C -0.05206 0.26089 0.33402
 C513 C 0.01087 0.30235 0.41611
 C514 C -0.00894 0.72420 0.09552
 H515 H -0.02198 0.73266 0.09472
 C516 C -0.00624 0.70874 0.08297
 H517 H -0.01725 0.70546 0.07244
 C518 C 0.02150 0.71868 0.10984
 H519 H 0.03239 0.72274 0.12015
 C520 C 0.02481 0.70312 0.09755
 H521 H 0.03811 0.69512 0.09884
 N522 N 0.00474 0.72872 0.10876
 C523 C -0.02590 0.75916 0.15433
 H524 H -0.01750 0.77225 0.15505
 C525 C -0.04134 0.75644 0.16690
 H526 H -0.04490 0.76767 0.17710
 C527 C -0.03142 0.72870 0.14001
 H528 H -0.02730 0.71776 0.12978
 C529 C -0.04698 0.72539 0.15230
 H530 H -0.05468 0.71187 0.15134
 Zn531 Zn 0.00005 0.75016 0.12492
 N532 N -0.02138 0.74547 0.14109
 C533 C -0.02140 0.78163 0.10982
 N534 N -0.00464 0.77159 0.10875
 C535 C 0.00904 0.77611 0.09550
 C536 C 0.00633 0.79155 0.08293
 C537 C -0.02471 0.79719 0.09754
 C538 C 0.02596 0.74118 0.15436
 C539 C 0.04140 0.74390 0.16693
 C540 C 0.04704 0.77496 0.15235
 C541 C 0.03150 0.77164 0.14003
 N542 N 0.02146 0.75486 0.14111
 H543 H -0.03234 0.77751 0.12006
 H544 H 0.02213 0.76771 0.09477
 H545 H 0.01755 0.79512 0.07273
 H546 H -0.03821 0.80489 0.09849
 H547 H 0.01750 0.72813 0.15515
 H548 H 0.04466 0.73289 0.17747
 H549 H 0.05504 0.78827 0.15106
 H550 H 0.02746 0.78253 0.12971
 C551 C -0.05215 0.73939 0.16594
 C552 C 0.01081 0.69793 0.08392
 C553 C 0.05220 0.76096 0.16599
 C554 C -0.01072 0.80236 0.08389
 C555 C 0.49096 0.22394 0.59569
 H556 H 0.47792 0.23239 0.59489
 C557 C 0.49369 0.20849 0.58312
 H558 H 0.48269 0.20522 0.57258
 C559 C 0.52140 0.21843 0.61003
 H560 H 0.53228 0.22248 0.62036
 C561 C 0.52473 0.20289 0.59773
 H562 H 0.53804 0.19489 0.59902
 N563 N 0.50463 0.22846 0.60895
 C564 C 0.47398 0.25881 0.65456
 H565 H 0.48244 0.27187 0.65537
 C566 C 0.45853 0.25608 0.66712
 H567 H 0.45526 0.26708 0.67766
 C568 C 0.46846 0.22837 0.64021
 H569 H 0.47251 0.21749 0.62988
 C570 C 0.45292 0.22503 0.65250
 H571 H 0.44492 0.21172 0.65119
 Zn572 Zn 0.49992 0.24987 0.62513
 N573 N 0.47850 0.24515 0.64130
 C574 C 0.47844 0.28134 0.61006
 N575 N 0.49521 0.27131 0.60897
 C576 C 0.50887 0.27584 0.59572
 C577 C 0.50615 0.29129 0.58316
 C578 C 0.47510 0.29689 0.59776
 C579 C 0.52585 0.24090 0.65456
 C580 C 0.54130 0.24361 0.66710
 C581 C 0.54694 0.27466 0.65251
 C582 C 0.53138 0.27135 0.64022
 N583 N 0.52134 0.25458 0.64131
 H584 H 0.46756 0.27728 0.62038
 H585 H 0.52192 0.26738 0.59491
 H586 H 0.51715 0.29457 0.57262
 H587 H 0.46180 0.30488 0.59906
 H588 H 0.51738 0.22785 0.65536
 H589 H 0.54457 0.23259 0.67763
 H590 H 0.55495 0.28797 0.65121
 H591 H 0.52734 0.28224 0.62990
 C592 C 0.44774 0.23901 0.66615
 C593 C 0.51075 0.19770 0.58407
 C594 C 0.55212 0.26066 0.66615
 C595 C 0.48909 0.30208 0.58411
 C596 C 0.50888 0.72439 0.90435
 H597 H 0.52196 0.73280 0.90508
 C598 C 0.50615 0.70895 0.91692
 H599 H 0.51736 0.70540 0.92715
 C600 C 0.47846 0.71883 0.88998
 H601 H 0.46754 0.72293 0.87972
 C602 C 0.47514 0.70327 0.90227
 H603 H 0.46164 0.69555 0.90130
 N604 N 0.49522 0.72889 0.89107
 C605 C 0.52589 0.75923 0.84546
 H606 H 0.51745 0.77228 0.84464
 C607 C 0.54134 0.75649 0.83291
 H608 H 0.54463 0.76748 0.82237
 C609 C 0.53137 0.72879 0.85982
 H610 H 0.52730 0.71791 0.87015
 C611 C 0.54692 0.72544 0.84754
 H612 H 0.55490 0.71212 0.84885
 Zn613 Zn 0.49993 0.75030 0.87488
 N614 N 0.52135 0.74557 0.85872
 C615 C 0.52142 0.78177 0.88995
 N616 N 0.50465 0.77174 0.89104
 C617 C 0.49098 0.77627 0.90429
 C618 C 0.49371 0.79173 0.91684
 C619 C 0.52476 0.79732 0.90225
 C620 C 0.47399 0.74130 0.84547
 C621 C 0.45854 0.74400 0.83292
 C622 C 0.45295 0.77508 0.84747
 C623 C 0.46849 0.77177 0.85977
 N624 N 0.47852 0.75499 0.85871
 H625 H 0.53231 0.77771 0.87964
 H626 H 0.47793 0.76782 0.90509
 H627 H 0.48271 0.79501 0.92738
 H628 H 0.53807 0.80532 0.90095
 H629 H 0.48244 0.72825 0.84469
 H630 H 0.45526 0.73298 0.82240
 H631 H 0.44496 0.78840 0.84875
 H632 H 0.47255 0.78267 0.87007
 C633 C 0.55212 0.73942 0.83388
 C634 C 0.48911 0.69812 0.91594
 C635 C 0.44776 0.76107 0.83385
 C636 C 0.51077 0.80252 0.91589
 C637 C 0.14540 0.22109 0.25952
 C638 C 0.15642 0.23669 0.25311
 C639 C 0.17192 0.23366 0.24065
 C640 C 0.17662 0.21496 0.23445
 C641 C 0.16545 0.19937 0.24099
 C642 C 0.14995 0.20244 0.25343
 C643 C 0.12943 0.22423 0.27232
 C644 C 0.11605 0.22685 0.28304
 C645 C 0.10006 0.22998 0.29583
 C646 C 0.09702 0.24817 0.30393
 C647 C 0.08149 0.25122 0.31636
 C648 C 0.06880 0.23609 0.32086
 C649 C 0.07200 0.21785 0.31264
 C650 C 0.08752 0.21484 0.30021
 H651 H 0.15305 0.25118 0.25777
 H652 H 0.18039 0.24591 0.23606
 H653 H 0.16856 0.18484 0.23628
 H654 H 0.14147 0.19027 0.25827
 H655 H 0.10667 0.25998 0.30068
 H656 H 0.07957 0.26535 0.32265
 H657 H 0.06234 0.20598 0.31561
 H658 H 0.08972 0.20071 0.29397
 C659 C 0.64524 0.72113 0.75938
 C660 C 0.65618 0.73674 0.75286
 C661 C 0.67169 0.73371 0.74041
 C662 C 0.67647 0.71499 0.73433
 C663 C 0.66539 0.69939 0.74098
 C664 C 0.64987 0.70246 0.75342
 C665 C 0.62927 0.72428 0.77218
 C666 C 0.61588 0.72691 0.78289
 C667 C 0.59989 0.73005 0.79567
 C668 C 0.59684 0.74824 0.80375
 C669 C 0.58131 0.75130 0.81617
 C670 C 0.56861 0.73618 0.82068
 C671 C 0.57181 0.71793 0.81247
 C672 C 0.58734 0.71491 0.80005
 H673 H 0.65275 0.75125 0.75743
 H674 H 0.68010 0.74597 0.73574
 H675 H 0.66856 0.68485 0.73636
 H676 H 0.64147 0.69028 0.75834
 H677 H 0.60650 0.76005 0.80050
 H678 H 0.57938 0.76544 0.82244
 H679 H 0.56215 0.70607 0.81545
 H680 H 0.58954 0.70078 0.79382
 C681 C 0.35461 0.77913 0.75932
 C682 C 0.34998 0.79779 0.75331
 C683 C 0.33444 0.80084 0.74090
 C684 C 0.32332 0.78524 0.73433
 C685 C 0.32810 0.76653 0.74046
 C686 C 0.34364 0.76352 0.75287
 C687 C 0.37060 0.77602 0.77210
 C688 C 0.38400 0.77341 0.78281
 C689 C 0.39999 0.77032 0.79560
 C690 C 0.41252 0.78547 0.79994
 C691 C 0.42806 0.78249 0.81238
 C692 C 0.43126 0.76427 0.82063
 C693 C 0.41857 0.74912 0.81616
 C694 C 0.40304 0.75215 0.80373
 H695 H 0.35841 0.80998 0.75818
 H696 H 0.33126 0.81538 0.73626
 H697 H 0.31966 0.75426 0.73584
 H698 H 0.34706 0.74902 0.75748
 H699 H 0.41032 0.79958 0.79368
 H700 H 0.43771 0.79436 0.81532
 H701 H 0.42050 0.73500 0.82247
 H702 H 0.39339 0.74033 0.80051
 C703 C -0.14524 0.27894 0.25953
 C704 C -0.16167 0.28846 0.26611
 C705 C -0.17723 0.29155 0.25374
 C706 C -0.17674 0.28513 0.23439
 C707 C -0.15993 0.27549 0.22808
 C708 C -0.14441 0.27248 0.24052
 C709 C -0.12924 0.27582 0.27230
 C710 C -0.11583 0.27322 0.28300
 C711 C -0.09983 0.27012 0.29578
 C712 C -0.08730 0.28528 0.30012
 C713 C -0.07177 0.28230 0.31255
 C714 C -0.06855 0.26408 0.32080
 C715 C -0.08123 0.24893 0.31633
 C716 C -0.09676 0.25195 0.30390
 H717 H -0.16253 0.29338 0.28088
 H718 H -0.18986 0.29829 0.25980
 H719 H -0.15821 0.27088 0.21332
 H720 H -0.13166 0.26522 0.23523
 H721 H -0.08952 0.29940 0.29387
 H722 H -0.06212 0.29418 0.31550
 H723 H -0.07929 0.23481 0.32263
 H724 H -0.10641 0.24013 0.30068
 C725 C -0.14522 0.72113 0.24053
 C726 C -0.14990 0.70246 0.24646
 C727 C -0.16541 0.69940 0.25891
 C728 C -0.17645 0.71501 0.26559
 C729 C -0.17162 0.73373 0.25955
 C730 C -0.15611 0.73675 0.24709
 C731 C -0.12925 0.72426 0.22772
 C732 C -0.11587 0.72689 0.21699
 C733 C -0.09990 0.73003 0.20419
 C734 C -0.10115 0.72439 0.18489
 C735 C -0.08564 0.72742 0.17245
 C736 C -0.06864 0.73616 0.17915
 C737 C -0.06754 0.74179 0.19859
 C738 C -0.08307 0.73873 0.21101
 H739 H -0.14154 0.69027 0.24151
 H740 H -0.16862 0.68485 0.26350
 H741 H -0.17998 0.74600 0.26425
 H742 H -0.15263 0.75126 0.24255
 H743 H -0.11414 0.71769 0.17945
 H744 H -0.08703 0.72316 0.15752
 H745 H -0.05457 0.74832 0.20425
 H746 H -0.08193 0.74310 0.22594
 C747 C 0.35461 0.22084 0.74069
 C748 C 0.33820 0.21124 0.73418
 C749 C 0.32266 0.20818 0.74657
 C750 C 0.32315 0.21471 0.76588
 C751 C 0.33994 0.22442 0.77213
 C752 C 0.35544 0.22740 0.75967
 C753 C 0.37060 0.22394 0.72789
 C754 C 0.38399 0.22655 0.71718
 C755 C 0.39998 0.22968 0.70439
 C756 C 0.41250 0.21453 0.70001
 C757 C 0.42804 0.21755 0.68758
 C758 C 0.43125 0.23579 0.67936
 C759 C 0.41856 0.25092 0.68387
 C760 C 0.40303 0.24786 0.69630
 H761 H 0.33734 0.20623 0.71943
 H762 H 0.31003 0.20135 0.74057
 H763 H 0.34166 0.22912 0.78687
 H764 H 0.36818 0.23472 0.76491
 H765 H 0.41030 0.20041 0.70625
 H766 H 0.43768 0.20568 0.68460
 H767 H 0.42050 0.26505 0.67759
 H768 H 0.39339 0.25968 0.69955
 C769 C 0.64530 0.27868 0.74065
 C770 C 0.65282 0.29716 0.74311
 C771 C 0.66835 0.30022 0.75553
 C772 C 0.67675 0.28479 0.76587
 C773 C 0.66885 0.26620 0.76313
 C774 C 0.65335 0.26323 0.75066
 C775 C 0.62932 0.27558 0.72785
 C776 C 0.61592 0.27299 0.71714
 C777 C 0.59992 0.26990 0.70435
 C778 C 0.58741 0.28506 0.70000
 C779 C 0.57187 0.28208 0.68758
 C780 C 0.56863 0.26386 0.67934
 C781 C 0.58129 0.24870 0.68383
 C782 C 0.59683 0.25172 0.69624
 H783 H 0.64658 0.30927 0.73553
 H784 H 0.67310 0.31491 0.75748
 H785 H 0.67501 0.25362 0.76991
 H786 H 0.64773 0.24881 0.74873
 H787 H 0.58964 0.29918 0.70624
 H788 H 0.56224 0.29397 0.68462
 H789 H 0.57933 0.23458 0.67753
 H790 H 0.60646 0.23989 0.69948
 C791 C 0.14521 0.77911 0.24069
 C792 C 0.14973 0.79776 0.24682
 C793 C 0.16524 0.80082 0.25927
 C794 C 0.17643 0.78524 0.26576
 C795 C 0.17176 0.76654 0.25951
 C796 C 0.15625 0.76352 0.24705
 C797 C 0.12925 0.77598 0.22787
 C798 C 0.11587 0.77336 0.21713
 C799 C 0.09991 0.77025 0.20431
 C800 C 0.08739 0.78541 0.19992
 C801 C 0.07188 0.78241 0.18746
 C802 C 0.06868 0.76418 0.17923
 C803 C 0.08134 0.74903 0.18375
 C804 C 0.09685 0.75207 0.19620
 H805 H 0.14124 0.80992 0.24202
 H806 H 0.16834 0.81534 0.26401
 H807 H 0.18025 0.75429 0.26405
 H808 H 0.15291 0.74903 0.24235
 H809 H 0.08960 0.79953 0.20617
 H810 H 0.06225 0.79428 0.18448
 H811 H 0.07941 0.73491 0.17745
 H812 H 0.10649 0.74025 0.19946
 C813 C 0.25951 0.14525 0.22103
 C814 C 0.25314 0.15627 0.23663
 C815 C 0.24070 0.17180 0.23362
 C816 C 0.23448 0.17650 0.21492
 C817 C 0.24098 0.16532 0.19932
 C818 C 0.25340 0.14980 0.20238
 C819 C 0.27230 0.12926 0.22415
 C820 C 0.28300 0.11587 0.22676
 C821 C 0.29578 0.09987 0.22988
 C822 C 0.30386 0.09680 0.24807
 C823 C 0.31627 0.08126 0.25111
 C824 C 0.32077 0.06858 0.23597
 C825 C 0.31256 0.07179 0.21773
 C826 C 0.30014 0.08733 0.21473
 H827 H 0.25782 0.15290 0.25112
 H828 H 0.23614 0.18028 0.24587
 H829 H 0.23625 0.16843 0.18480
 H830 H 0.25821 0.14132 0.19020
 H831 H 0.30062 0.10645 0.25988
 H832 H 0.32256 0.07933 0.26525
 H833 H 0.31552 0.06214 0.20586
 H834 H 0.29391 0.08954 0.20060
 C835 C 0.75923 0.64513 0.72091
 C836 C 0.76666 0.66310 0.71565
 C837 C 0.75427 0.67866 0.71261
 C838 C 0.73426 0.67643 0.71479
 C839 C 0.72694 0.65830 0.72010
 C840 C 0.73935 0.64276 0.72312
 C841 C 0.77199 0.62912 0.72402
 C842 C 0.78269 0.61571 0.72663
 C843 C 0.79546 0.59972 0.72975
 C844 C 0.80355 0.59666 0.74794
 C845 C 0.81597 0.58112 0.75099
 C846 C 0.82048 0.56844 0.73585
 C847 C 0.81226 0.57165 0.71761
 C848 C 0.79983 0.58719 0.71460
 H849 H 0.78202 0.66510 0.71396
 H850 H 0.76036 0.69249 0.70879
 H851 H 0.71160 0.65608 0.72166
 H852 H 0.73345 0.62890 0.72714
 H853 H 0.80030 0.60630 0.75976
 H854 H 0.82225 0.57919 0.76512
 H855 H 0.81523 0.56201 0.70573
 H856 H 0.79361 0.58939 0.70047
 C857 C 0.75919 0.35441 0.77894
 C858 C 0.73933 0.35682 0.77674
 C859 C 0.72687 0.34132 0.77977
 C860 C 0.73414 0.32317 0.78506
 C861 C 0.75414 0.32089 0.78724
 C862 C 0.76657 0.33642 0.78419
 C863 C 0.77200 0.37038 0.77580
 C864 C 0.78272 0.38377 0.77318
 C865 C 0.79551 0.39976 0.77004
 C866 C 0.78869 0.41661 0.76137
 C867 C 0.80110 0.43215 0.75832
 C868 C 0.82053 0.43104 0.76392
 C869 C 0.82724 0.41403 0.77263
 C870 C 0.81480 0.39850 0.77566
 H871 H 0.73346 0.37070 0.77272
 H872 H 0.71153 0.34357 0.77821
 H873 H 0.76018 0.30705 0.79107
 H874 H 0.78193 0.33438 0.78588
 H875 H 0.77376 0.41775 0.75702
 H876 H 0.79543 0.44513 0.75181
 H877 H 0.84216 0.41264 0.77688
 H878 H 0.82025 0.38550 0.78233
 C879 C 0.25926 -0.14541 0.27902
 C880 C 0.26575 -0.16184 0.28860
 C881 C 0.25334 -0.17736 0.29169
 C882 C 0.23403 -0.17684 0.28520
 C883 C 0.22780 -0.16003 0.27550
 C884 C 0.24028 -0.14454 0.27249
 C885 C 0.27207 -0.12944 0.27588
 C886 C 0.28280 -0.11606 0.27326
 C887 C 0.29560 -0.10008 0.27013
 C888 C 0.31489 -0.10135 0.27577
 C889 C 0.32734 -0.08583 0.27275
 C890 C 0.32065 -0.06881 0.26403
 C891 C 0.30122 -0.06769 0.25841
 C892 C 0.28880 -0.08323 0.26146
 H893 H 0.28050 -0.16272 0.29357
 H894 H 0.25933 -0.19001 0.29850
 H895 H 0.21306 -0.15829 0.27084
 H896 H 0.23505 -0.13179 0.26518
 H897 H 0.32032 -0.11435 0.28246
 H898 H 0.34226 -0.08723 0.27701
 H899 H 0.29557 -0.05471 0.25190
 H900 H 0.27388 -0.08207 0.25709
 C901 C 0.24048 -0.14544 0.72123
 C902 C 0.23393 -0.16189 0.71173
 C903 C 0.24632 -0.17742 0.70862
 C904 C 0.26567 -0.17688 0.71500
 C905 C 0.27195 -0.16005 0.72464
 C906 C 0.25949 -0.14455 0.72767
 C907 C 0.22769 -0.12945 0.72437
 C908 C 0.21697 -0.11607 0.72698
 C909 C 0.20418 -0.10009 0.73009
 C910 C 0.18489 -0.10137 0.72447
 C911 C 0.17244 -0.08585 0.72746
 C912 C 0.17915 -0.06881 0.73614
 C913 C 0.19858 -0.06767 0.74174
 C914 C 0.21099 -0.08321 0.73872
 H915 H 0.21916 -0.16279 0.70683
 H916 H 0.24028 -0.19008 0.70188
 H917 H 0.28671 -0.15829 0.72922
 H918 H 0.26476 -0.13178 0.73492
 H919 H 0.17945 -0.11439 0.71782
 H920 H 0.15752 -0.08727 0.72322
 H921 H 0.20424 -0.05467 0.74821
 H922 H 0.22592 -0.08204 0.74307
 C923 C 0.74066 0.35464 0.22125
 C924 C 0.73328 0.33656 0.21631
 C925 C 0.74573 0.32104 0.21334
 C926 C 0.76574 0.32341 0.21531
 C927 C 0.77302 0.34165 0.22026
 C928 C 0.76054 0.35716 0.22321
 C929 C 0.72784 0.37061 0.22431
 C930 C 0.71711 0.38400 0.22688
 C931 C 0.70431 0.39998 0.22996
 C932 C 0.68502 0.39869 0.22434
 C933 C 0.67258 0.41422 0.22732
 C934 C 0.67928 0.43125 0.23600
 C935 C 0.69871 0.43240 0.24161
 C936 C 0.71113 0.41686 0.23859
 H937 H 0.71791 0.33445 0.21480
 H938 H 0.73970 0.30712 0.20975
 H939 H 0.78836 0.34399 0.22160
 H940 H 0.76641 0.37111 0.22697
 H941 H 0.67959 0.38567 0.21769
 H942 H 0.65766 0.41280 0.22308
 H943 H 0.70437 0.44540 0.24808
 H944 H 0.72605 0.41803 0.24295
 C945 C 0.74064 0.64528 0.27892
 C946 C 0.73325 0.66325 0.28420
 C947 C 0.74567 0.67879 0.28727
 C948 C 0.76567 0.67653 0.28509
 C949 C 0.77295 0.65840 0.27976
 C950 C 0.76051 0.64288 0.27670
 C951 C 0.72784 0.62930 0.27577
 C952 C 0.71712 0.61591 0.27315
 C953 C 0.70433 0.59992 0.27003
 C954 C 0.68503 0.60120 0.27560
 C955 C 0.67259 0.58568 0.27259
 C956 C 0.67930 0.56864 0.26392
 C957 C 0.69874 0.56751 0.25836
 C958 C 0.71116 0.58305 0.26141
 H959 H 0.71789 0.66528 0.28590
 H960 H 0.73961 0.69262 0.29111
 H961 H 0.78829 0.65616 0.27819
 H962 H 0.76638 0.62901 0.27267
 H963 H 0.67958 0.61422 0.28224
 H964 H 0.65766 0.58709 0.27680
 H965 H 0.70441 0.55451 0.25190
 H966 H 0.72609 0.58188 0.25709
 C967 C 0.24057 0.14523 0.77879
 C968 C 0.24666 0.14978 0.79745
 C969 C 0.25909 0.16531 0.80051
 C970 C 0.26561 0.17648 0.78492
 C971 C 0.25941 0.17177 0.76622
 C972 C 0.24696 0.15625 0.76319
 C973 C 0.22777 0.12925 0.77566
 C974 C 0.21704 0.11586 0.77305
 C975 C 0.20424 0.09988 0.76994
 C976 C 0.18495 0.10116 0.77556
 C977 C 0.17250 0.08564 0.77256
 C978 C 0.17919 0.06861 0.76388
 C979 C 0.19862 0.06747 0.75827
 C980 C 0.21105 0.08301 0.76130
 H981 H 0.24184 0.14131 0.80962
 H982 H 0.26381 0.16841 0.81504
 H983 H 0.26400 0.18025 0.75396
 H984 H 0.24230 0.15288 0.74870
 H985 H 0.17952 0.11417 0.78221
 H986 H 0.15758 0.08705 0.77680
 H987 H 0.20428 0.05448 0.75179
 H988 H 0.22597 0.08184 0.75695
 C989 C 0.22109 0.25948 0.14522
 C990 C 0.20245 0.25339 0.14980
 C991 C 0.19940 0.24095 0.16532
 C992 C 0.21499 0.23442 0.17648
 C993 C 0.23368 0.24062 0.17175
 C994 C 0.23669 0.25308 0.15623
 C995 C 0.22420 0.27228 0.12924
 C996 C 0.22680 0.28301 0.11585
 C997 C 0.22990 0.29581 0.09986
 C998 C 0.21476 0.30016 0.08733
 C999 C 0.21775 0.31260 0.07179
 C1000 C 0.23596 0.32085 0.06858
 C1001 C 0.25110 0.31637 0.08127
 C1002 C 0.24807 0.30394 0.09680
 H1003 H 0.19028 0.25821 0.14134
 H1004 H 0.18489 0.23623 0.16845
 H1005 H 0.24594 0.23605 0.18022
 H1006 H 0.25118 0.25775 0.15284
 H1007 H 0.20065 0.29390 0.08953
 H1008 H 0.20588 0.31555 0.06214
 H1009 H 0.26522 0.32268 0.07933
 H1010 H 0.25988 0.30071 0.10646
 C1011 C 0.72106 0.75962 0.64525
 C1012 C 0.71583 0.76698 0.66326
 C1013 C 0.71279 0.75452 0.67877
 C1014 C 0.71496 0.73451 0.67646
 C1015 C 0.72024 0.72727 0.65829
 C1016 C 0.72326 0.73975 0.64280
 C1017 C 0.72417 0.77246 0.62929
 C1018 C 0.72676 0.78321 0.61591
 C1019 C 0.72987 0.79602 0.59994
 C1020 C 0.74804 0.80415 0.59689
 C1021 C 0.75107 0.81660 0.58136
 C1022 C 0.73594 0.82108 0.56867
 C1023 C 0.71772 0.81283 0.57187
 C1024 C 0.71472 0.80038 0.58740
 H1025 H 0.71414 0.78234 0.66532
 H1026 H 0.70897 0.76054 0.69263
 H1027 H 0.72177 0.71193 0.65600
 H1028 H 0.72725 0.73390 0.62890
 H1029 H 0.75985 0.80091 0.60654
 H1030 H 0.76518 0.82290 0.57944
 H1031 H 0.70585 0.81579 0.56222
 H1032 H 0.70062 0.79412 0.58959
 C1033 C 0.77901 0.75962 0.35472
 C1034 C 0.77677 0.73975 0.35714
 C1035 C 0.77979 0.72728 0.34164
 C1036 C 0.78510 0.73453 0.32349
 C1037 C 0.78733 0.75454 0.32121
 C1038 C 0.78429 0.76699 0.33673
 C1039 C 0.77589 0.77245 0.37068
 C1040 C 0.77328 0.78319 0.38406
 C1041 C 0.77015 0.79599 0.40004
 C1042 C 0.76149 0.78917 0.41690
 C1043 C 0.75844 0.80160 0.43243
 C1044 C 0.76402 0.82105 0.43129
 C1045 C 0.77272 0.82775 0.41427
 C1046 C 0.77575 0.81530 0.39876
 H1047 H 0.77274 0.73390 0.37103
 H1048 H 0.77821 0.71194 0.34392
 H1049 H 0.79118 0.76057 0.30736
 H1050 H 0.78602 0.78235 0.33468
 H1051 H 0.75716 0.77424 0.41806
 H1052 H 0.75194 0.79594 0.44542
 H1053 H 0.77695 0.84269 0.41286
 H1054 H 0.78241 0.82074 0.38575
 C1055 C 0.27899 0.25934 -0.14538
 C1056 C 0.26342 0.25295 -0.15644
 C1057 C 0.26646 0.24048 -0.17194
 C1058 C 0.28516 0.23424 -0.17658
 C1059 C 0.30072 0.24076 -0.16537
 C1060 C 0.29764 0.25322 -0.14987
 C1061 C 0.27583 0.27216 -0.12942
 C1062 C 0.27320 0.28290 -0.11604
 C1063 C 0.27006 0.29571 -0.10007
 C1064 C 0.26138 0.28890 -0.08322
 C1065 C 0.25833 0.30134 -0.06769
 C1066 C 0.26394 0.32077 -0.06882
 C1067 C 0.27266 0.32747 -0.08583
 C1068 C 0.27569 0.31501 -0.10135
 H1069 H 0.24893 0.25765 -0.15312
 H1070 H 0.25423 0.23592 -0.18045
 H1071 H 0.31524 0.23603 -0.16845
 H1072 H 0.30979 0.25804 -0.14137
 H1073 H 0.25702 0.27397 -0.08205
 H1074 H 0.25182 0.29568 -0.05471
 H1075 H 0.27691 0.34240 -0.08724
 H1076 H 0.28238 0.32044 -0.11435
 C1077 C 0.72106 0.24039 -0.14525
 C1078 C 0.70242 0.24660 -0.14966
 C1079 C 0.69932 0.25896 -0.16523
 C1080 C 0.71484 0.26528 -0.17660
 C1081 C 0.73353 0.25898 -0.17202
 C1082 C 0.73660 0.24660 -0.15645
 C1083 C 0.72423 0.22764 -0.12923
 C1084 C 0.72686 0.21696 -0.11581
 C1085 C 0.72998 0.20420 -0.09979
 C1086 C 0.71484 0.19986 -0.08724
 C1087 C 0.71784 0.18744 -0.07169
 C1088 C 0.73606 0.17921 -0.06848
 C1089 C 0.75119 0.18369 -0.08118
 C1090 C 0.74815 0.19610 -0.09673
 H1091 H 0.69030 0.24192 -0.14104
 H1092 H 0.68481 0.26379 -0.16823
 H1093 H 0.74573 0.26343 -0.18064
 H1094 H 0.75108 0.24185 -0.15318
 H1095 H 0.70073 0.20610 -0.08945
 H1096 H 0.70598 0.18449 -0.06203
 H1097 H 0.76531 0.17739 -0.07924
 H1098 H 0.75996 0.19932 -0.10639
 C1099 C 0.22110 0.74059 0.35472
 C1100 C 0.20246 0.74672 0.35020
 C1101 C 0.19939 0.75915 0.33468
 C1102 C 0.21497 0.76563 0.32346
 C1103 C 0.23365 0.75940 0.32814
 C1104 C 0.23668 0.74695 0.34366
 C1105 C 0.22423 0.72779 0.37070
 C1106 C 0.22684 0.71706 0.38409
 C1107 C 0.22996 0.70426 0.40007
 C1108 C 0.21481 0.69988 0.41261
 C1109 C 0.21781 0.68744 0.42814
 C1110 C 0.23603 0.67921 0.43134
 C1111 C 0.25117 0.68372 0.41866
 C1112 C 0.24813 0.69616 0.40313
 H1113 H 0.19030 0.74192 0.35870
 H1114 H 0.18488 0.76390 0.33159
 H1115 H 0.24589 0.76396 0.31964
 H1116 H 0.25116 0.74226 0.34701
 H1117 H 0.20070 0.70613 0.41040
 H1118 H 0.20594 0.68446 0.43778
 H1119 H 0.26529 0.67743 0.42059
 H1120 H 0.25994 0.69941 0.39348
 C1121 C 0.27886 0.74055 0.64541
 C1122 C 0.27686 0.76043 0.64291
 C1123 C 0.27982 0.77291 0.65843
 C1124 C 0.28482 0.76564 0.67666
 C1125 C 0.28682 0.74562 0.67901
 C1126 C 0.28385 0.73317 0.66348
 C1127 C 0.27578 0.72772 0.62943
 C1128 C 0.27319 0.71699 0.61604
 C1129 C 0.27009 0.70420 0.60005
 C1130 C 0.26145 0.71102 0.58318
 C1131 C 0.25841 0.69861 0.56764
 C1132 C 0.26400 0.67917 0.56876
 C1133 C 0.27270 0.67246 0.58578
 C1134 C 0.27570 0.68490 0.60132
 H1135 H 0.27306 0.76630 0.62897
 H1136 H 0.27844 0.78826 0.65610
 H1137 H 0.29046 0.73959 0.69292
 H1138 H 0.28539 0.71779 0.66557
 H1139 H 0.25710 0.72596 0.58203
 H1140 H 0.25193 0.70428 0.55465
 H1141 H 0.27693 0.65753 0.58719
 H1142 H 0.28236 0.67945 0.61433
 C1143 C 0.77908 0.24068 0.14556
 C1144 C 0.79774 0.24670 0.15014
 C1145 C 0.80083 0.25912 0.16567
 C1146 C 0.78526 0.26570 0.17682
 C1147 C 0.76655 0.25956 0.17209
 C1148 C 0.76350 0.24713 0.15656
 C1149 C 0.77593 0.22788 0.12958
 C1150 C 0.77330 0.21715 0.11619
 C1151 C 0.77018 0.20435 0.10020
 C1152 C 0.78531 0.19997 0.08767
 C1153 C 0.78230 0.18752 0.07214
 C1154 C 0.76408 0.17929 0.06894
 C1155 C 0.74895 0.18380 0.08163
 C1156 C 0.75200 0.19624 0.09716
 H1157 H 0.80990 0.24183 0.14168
 H1158 H 0.81536 0.26378 0.16881
 H1159 H 0.75431 0.26418 0.18055
 H1160 H 0.74900 0.24251 0.15316
 H1161 H 0.79943 0.20622 0.08986
 H1162 H 0.79417 0.18455 0.06249
 H1163 H 0.73483 0.17751 0.07971
 H1164 H 0.74019 0.19950 0.10681
 C1165 C 0.47094 0.39515 0.50947
 C1166 C 0.45230 0.39978 0.50344
 C1167 C 0.44926 0.41529 0.49098
 C1168 C 0.46487 0.42638 0.48438
 C1169 C 0.48356 0.42161 0.49053
 C1170 C 0.48656 0.40610 0.50300
 C1171 C 0.47404 0.37919 0.52230
 C1172 C 0.47665 0.36580 0.53303
 C1173 C 0.47977 0.34983 0.54584
 C1174 C 0.46463 0.33729 0.55022
 C1175 C 0.46764 0.32176 0.56266
 C1176 C 0.48586 0.31857 0.57090
 C1177 C 0.50099 0.33126 0.56639
 C1178 C 0.49794 0.34679 0.55395
 H1179 H 0.44011 0.39137 0.50833
 H1180 H 0.43474 0.41846 0.48632
 H1181 H 0.49584 0.43003 0.48591
 H1182 H 0.50105 0.40268 0.50763
 H1183 H 0.45051 0.33948 0.54397
 H1184 H 0.45577 0.31211 0.56564
 H1185 H 0.51511 0.32934 0.57268
 H1186 H 0.50975 0.35644 0.55069
 C1187 C -0.02900 0.89551 0.00936
 C1188 C -0.01342 0.90650 0.00288
 C1189 C -0.01647 0.92204 -0.00954
 C1190 C -0.03518 0.92679 -0.01564
 C1191 C -0.05076 0.91565 -0.00903
 C1192 C -0.04767 0.90012 0.00338
 C1193 C -0.02584 0.87952 0.02215
 C1194 C -0.02321 0.86613 0.03286
 C1195 C -0.02006 0.85015 0.04565
 C1196 C -0.01137 0.83331 0.03883
 C1197 C -0.00831 0.81777 0.05124
 C1198 C -0.01393 0.81887 0.07068
 C1199 C -0.02267 0.83587 0.07739
 C1200 C -0.02569 0.85139 0.06495
 H1201 H 0.00109 0.90309 0.00747
 H1202 H -0.00422 0.93049 -0.01418
 H1203 H -0.06530 0.91881 -0.01366
 H1204 H -0.05983 0.89167 0.00827
 H1205 H -0.00700 0.83217 0.02390
 H1206 H -0.00180 0.80480 0.04557
 H1207 H -0.02692 0.83725 0.09232
 H1208 H -0.03239 0.86438 0.07040
 C1209 C 0.02884 0.60476 0.00936
 C1210 C 0.03423 0.58682 0.01674
 C1211 C 0.03726 0.57128 0.00431
 C1212 C 0.03493 0.57350 -0.01569
 C1213 C 0.02950 0.59161 -0.02296
 C1214 C 0.02649 0.60713 -0.01051
 C1215 C 0.02573 0.62075 0.02216
 C1216 C 0.02314 0.63414 0.03289
 C1217 C 0.02005 0.65013 0.04568
 C1218 C 0.03520 0.66266 0.05004
 C1219 C 0.03222 0.67820 0.06247
 C1220 C 0.01401 0.68143 0.07071
 C1221 C -0.00114 0.66874 0.06623
 C1222 C 0.00188 0.65320 0.05380
 H1223 H 0.03604 0.58481 0.03210
 H1224 H 0.04119 0.55746 0.01036
 H1225 H 0.02783 0.59384 -0.03830
 H1226 H 0.02237 0.62098 -0.01638
 H1227 H 0.04931 0.66045 0.04378
 H1228 H 0.04410 0.68785 0.06543
 H1229 H -0.01525 0.67069 0.07253
 H1230 H -0.00994 0.64356 0.05057
 C1231 C 0.52898 0.10466 0.50941
 C1232 C 0.51340 0.09359 0.50304
 C1233 C 0.51644 0.07809 0.49058
 C1234 C 0.53513 0.07345 0.48432
 C1235 C 0.55070 0.08466 0.49082
 C1236 C 0.54762 0.10017 0.50328
 C1237 C 0.52583 0.12062 0.52223
 C1238 C 0.52320 0.13400 0.53296
 C1239 C 0.52008 0.14997 0.54578
 C1240 C 0.50190 0.15301 0.55388
 C1241 C 0.49885 0.16853 0.56632
 C1242 C 0.51398 0.18122 0.57084
 C1243 C 0.53220 0.17803 0.56262
 C1244 C 0.53522 0.16251 0.55017
 H1245 H 0.49892 0.09691 0.50775
 H1246 H 0.50421 0.06957 0.48603
 H1247 H 0.56521 0.08158 0.48608
 H1248 H 0.55977 0.10867 0.50808
 H1249 H 0.49010 0.14336 0.55061
 H1250 H 0.48473 0.17045 0.57261
 H1251 H 0.54407 0.18769 0.56560
 H1252 H 0.54933 0.16032 0.54393
 C1253 C -0.02904 0.10485 0.49070
 C1254 C -0.04769 0.10034 0.49682
 C1255 C -0.05078 0.08482 0.50925
 C1256 C -0.03522 0.07361 0.51575
 C1257 C -0.01653 0.07826 0.50951
 C1258 C -0.01347 0.09378 0.49707
 C1259 C -0.02588 0.12083 0.47790
 C1260 C -0.02324 0.13422 0.46718
 C1261 C -0.02009 0.15020 0.45438
 C1262 C -0.02569 0.14893 0.43507
 C1263 C -0.02265 0.16445 0.42263
 C1264 C -0.01394 0.18146 0.42934
 C1265 C -0.00836 0.18258 0.44878
 C1266 C -0.01142 0.16705 0.46121
 H1267 H -0.05984 0.10885 0.49201
 H1268 H -0.06530 0.08174 0.51398
 H1269 H -0.00430 0.06974 0.51406
 H1270 H 0.00102 0.09711 0.49238
 H1271 H -0.03236 0.13592 0.42963
 H1272 H -0.02688 0.16304 0.40769
 H1273 H -0.00186 0.19557 0.45445
 H1274 H -0.00709 0.16820 0.47615
 C1275 C 0.47096 0.60494 0.99047
 C1276 C 0.46557 0.58700 0.98308
 C1277 C 0.46255 0.57145 0.99550
 C1278 C 0.46489 0.57366 1.01550
 C1279 C 0.47033 0.59177 1.02278
 C1280 C 0.47333 0.60729 1.01034
 C1281 C 0.47406 0.62094 0.97768
 C1282 C 0.47666 0.63434 0.96696
 C1283 C 0.47978 0.65033 0.95418
 C1284 C 0.47418 0.64907 0.93487
 C1285 C 0.47720 0.66460 0.92243
 C1286 C 0.48589 0.68162 0.92915
 C1287 C 0.49147 0.68274 0.94860
 C1288 C 0.48842 0.66719 0.96101
 H1289 H 0.46375 0.58501 0.96772
 H1290 H 0.45861 0.55764 0.98943
 H1291 H 0.47201 0.59398 1.03812
 H1292 H 0.47745 0.62114 1.01622
 H1293 H 0.46752 0.63606 0.92941
 H1294 H 0.47297 0.66320 0.90749
 H1295 H 0.49795 0.69573 0.95427
 H1296 H 0.49276 0.66835 0.97595
 C1297 C 0.52896 0.89556 0.99059
 C1298 C 0.52242 0.89467 1.00957
 C1299 C 0.52542 0.91014 1.02208
 C1300 C 0.53513 0.92695 1.01587
 C1301 C 0.54165 0.92750 0.99656
 C1302 C 0.53856 0.91199 0.98412
 C1303 C 0.52584 0.87960 0.97775
 C1304 C 0.52322 0.86623 0.96700
 C1305 C 0.52011 0.85026 0.95418
 C1306 C 0.50193 0.84722 0.94606
 C1307 C 0.49888 0.83170 0.93362
 C1308 C 0.51400 0.81901 0.92911
 C1309 C 0.53223 0.82221 0.93734
 C1310 C 0.53524 0.83773 0.94980
 H1311 H 0.51510 0.88192 1.01478
 H1312 H 0.52074 0.90838 1.03682
 H1313 H 0.54847 0.94015 0.99060
 H1314 H 0.54356 0.91289 0.96937
 H1315 H 0.49013 0.85687 0.94932
 H1316 H 0.48476 0.82978 0.92733
 H1317 H 0.54409 0.81255 0.93437
 H1318 H 0.54936 0.83992 0.95604
 C1319 C 0.02904 0.39547 0.49070
 C1320 C 0.03431 0.41346 0.48331
 C1321 C 0.03737 0.42899 0.49574
 C1322 C 0.03519 0.42672 0.51575
 C1323 C 0.02987 0.40858 0.52304
 C1324 C 0.02683 0.39307 0.51058
 C1325 C 0.02591 0.37950 0.47789
 C1326 C 0.02329 0.36611 0.46716
 C1327 C 0.02018 0.35012 0.45436
 C1328 C 0.02580 0.35139 0.43506
 C1329 C 0.02279 0.33587 0.42261
 C1330 C 0.01409 0.31884 0.42932
 C1331 C 0.00849 0.31772 0.44876
 C1332 C 0.01153 0.33326 0.46119
 H1333 H 0.03601 0.41549 0.46794
 H1334 H 0.04122 0.44283 0.48969
 H1335 H 0.02832 0.40632 0.53838
 H1336 H 0.02280 0.37919 0.51645
 H1337 H 0.03246 0.36440 0.42962
 H1338 H 0.02703 0.33727 0.40768
 H1339 H 0.00200 0.30473 0.45443
 H1340 H 0.00718 0.33210 0.47612
 C1341 C 0.39528 0.50939 0.47103
 C1342 C 0.39290 0.48953 0.47335
 C1343 C 0.40839 0.47707 0.47033
 C1344 C 0.42651 0.48433 0.46491
 C1345 C 0.42875 0.50433 0.46260
 C1346 C 0.41323 0.51676 0.46565
 C1347 C 0.37932 0.52220 0.47415
 C1348 C 0.36594 0.53292 0.47677
 C1349 C 0.34996 0.54571 0.47990
 C1350 C 0.33311 0.53888 0.48855
 C1351 C 0.31758 0.55129 0.49161
 C1352 C 0.31870 0.57073 0.48602
 C1353 C 0.33571 0.57746 0.47733
 C1354 C 0.35123 0.56502 0.47430
 H1355 H 0.37905 0.48366 0.47746
 H1356 H 0.40615 0.46173 0.47197
 H1357 H 0.44257 0.51038 0.45868
 H1358 H 0.41525 0.53213 0.46386
 H1359 H 0.33196 0.52394 0.49289
 H1360 H 0.30460 0.54561 0.49809
 H1361 H 0.33711 0.59239 0.47310
 H1362 H 0.36423 0.57047 0.46764
 C1363 C 0.89537 0.00953 -0.02874
 C1364 C 0.89453 -0.00948 -0.02229
 C1365 C 0.91003 -0.02192 -0.02533
 C1366 C 0.92684 -0.01562 -0.03499
 C1367 C 0.92734 0.00373 -0.04139
 C1368 C 0.91179 0.01610 -0.03827
 C1369 C 0.87938 0.02230 -0.02558
 C1370 C 0.86599 0.03301 -0.02295
 C1371 C 0.85000 0.04579 -0.01982
 C1372 C 0.83316 0.03895 -0.01116
 C1373 C 0.81762 0.05136 -0.00811
 C1374 C 0.81873 0.07079 -0.01372
 C1375 C 0.83573 0.07752 -0.02243
 C1376 C 0.85126 0.06509 -0.02544
 H1377 H 0.88178 -0.01477 -0.01502
 H1378 H 0.90831 -0.03669 -0.02073
 H1379 H 0.93997 0.00979 -0.04815
 H1380 H 0.91266 0.03088 -0.04318
 H1381 H 0.83202 0.02402 -0.00680
 H1382 H 0.80465 0.04568 -0.00161
 H1383 H 0.83712 0.09245 -0.02667
 H1384 H 0.86425 0.07054 -0.03212
 C1385 C 0.60466 0.00946 0.02901
 C1386 C 0.60013 0.00330 0.04765
 C1387 C 0.58460 -0.00913 0.05068
 C1388 C 0.57340 -0.01557 0.03508
 C1389 C 0.57809 -0.00930 0.01639
 C1390 C 0.59362 0.00314 0.01340
 C1391 C 0.62065 0.02225 0.02591
 C1392 C 0.63405 0.03297 0.02332
 C1393 C 0.65004 0.04576 0.02024
 C1394 C 0.66254 0.05013 0.03542
 C1395 C 0.67808 0.06256 0.03245
 C1396 C 0.68134 0.07078 0.01422
 C1397 C 0.66868 0.06629 -0.00095
 C1398 C 0.65314 0.05386 0.00206
 H1399 H 0.60862 0.00806 0.05983
 H1400 H 0.58150 -0.01390 0.06519
 H1401 H 0.56960 -0.01384 0.00413
 H1402 H 0.59698 0.00786 -0.00108
 H1403 H 0.66030 0.04389 0.04954
 H1404 H 0.68770 0.06553 0.04435
 H1405 H 0.67065 0.07257 -0.01507
 H1406 H 0.64352 0.05062 -0.00977
 C1407 C 0.10471 0.50938 0.52910
 C1408 C 0.09722 0.50698 0.54759
 C1409 C 0.08169 0.49458 0.55072
 C1410 C 0.07326 0.48420 0.53533
 C1411 C 0.08113 0.48687 0.51671
 C1412 C 0.09664 0.49932 0.51369
 C1413 C 0.12069 0.52217 0.52594
 C1414 C 0.13408 0.53289 0.52330
 C1415 C 0.15006 0.54568 0.52016
 C1416 C 0.14881 0.56498 0.52578
 C1417 C 0.16434 0.57742 0.52276
 C1418 C 0.18133 0.57071 0.51403
 C1419 C 0.18244 0.55127 0.50842
 C1420 C 0.16690 0.53886 0.51148
 H1421 H 0.10349 0.51459 0.55968
 H1422 H 0.07699 0.49267 0.56542
 H1423 H 0.07494 0.48004 0.50417
 H1424 H 0.10224 0.50121 0.49925
 H1425 H 0.13582 0.57043 0.53247
 H1426 H 0.16295 0.59235 0.52701
 H1427 H 0.19540 0.54560 0.50191
 H1428 H 0.16803 0.52393 0.50712
 C1429 C 0.10459 0.49057 -0.02904
 C1430 C 0.09995 0.49655 -0.04770
 C1431 C 0.08442 0.50897 -0.05076
 C1432 C 0.07333 0.51557 -0.03516
 C1433 C 0.07812 0.50947 -0.01644
 C1434 C 0.09365 0.49705 -0.01342
 C1435 C 0.12058 0.47778 -0.02591
 C1436 C 0.13397 0.46707 -0.02331
 C1437 C 0.14996 0.45429 -0.02021
 C1438 C 0.16247 0.44992 -0.03537
 C1439 C 0.17800 0.43749 -0.03238
 C1440 C 0.18123 0.42927 -0.01415
 C1441 C 0.16857 0.43377 0.00101
 C1442 C 0.15304 0.44619 -0.00202
 H1443 H 0.10837 0.49167 -0.05989
 H1444 H 0.08125 0.51361 -0.06530
 H1445 H 0.06971 0.51412 -0.00417
 H1446 H 0.09709 0.49246 0.00108
 H1447 H 0.16025 0.45616 -0.04949
 H1448 H 0.18764 0.43452 -0.04427
 H1449 H 0.17052 0.42748 0.01514
 H1450 H 0.14341 0.44943 0.00981
 C1451 C 0.60458 0.99074 0.47094
 C1452 C 0.60541 1.00972 0.47749
 C1453 C 0.58991 1.02218 0.47451
 C1454 C 0.57311 1.01592 0.46481
 C1455 C 0.57262 0.99661 0.45828
 C1456 C 0.58817 0.98422 0.46135
 C1457 C 0.62057 0.97796 0.47404
 C1458 C 0.63397 0.96725 0.47665
 C1459 C 0.64996 0.95448 0.47977
 C1460 C 0.65302 0.94639 0.49796
 C1461 C 0.66856 0.93398 0.50102
 C1462 C 0.68125 0.92949 0.48588
 C1463 C 0.67804 0.93771 0.46764
 C1464 C 0.66250 0.95012 0.46463
 H1465 H 0.61815 1.01497 0.48481
 H1466 H 0.59163 1.03691 0.47920
 H1467 H 0.55999 0.99060 0.45147
 H1468 H 0.58731 0.96947 0.45635
 H1469 H 0.64337 0.94963 0.50978
 H1470 H 0.67050 0.92770 0.51515
 H1471 H 0.68769 0.93475 0.45577
 H1472 H 0.66029 0.95635 0.45050
 C1473 C 0.89529 0.99087 0.52896
 C1474 C 0.91169 0.98433 0.53855
 C1475 C 0.92724 0.99672 0.54164
 C1476 C 0.92676 1.01604 0.53515
 C1477 C 0.90997 1.02231 0.52545
 C1478 C 0.89447 1.00986 0.52243
 C1479 C 0.87930 0.97808 0.52582
 C1480 C 0.86590 0.96738 0.52320
 C1481 C 0.84990 0.95460 0.52008
 C1482 C 0.83736 0.95025 0.53523
 C1483 C 0.82182 0.93782 0.53222
 C1484 C 0.81862 0.92958 0.51399
 C1485 C 0.83131 0.93406 0.49886
 C1486 C 0.84685 0.94648 0.50190
 H1487 H 0.91254 0.96957 0.54352
 H1488 H 0.93986 0.99070 0.54845
 H1489 H 0.90826 1.03706 0.52079
 H1490 H 0.88174 1.01512 0.51512
 H1491 H 0.83956 0.95650 0.54935
 H1492 H 0.81217 0.93487 0.54410
 H1493 H 0.82938 0.92776 0.48473
 H1494 H 0.85651 0.94971 0.49009
 C1495 C 0.39524 0.49067 0.02876
 C1496 C 0.39989 0.49662 0.04744
 C1497 C 0.41541 0.50904 0.05051
 C1498 C 0.42650 0.51568 0.03491
 C1499 C 0.42170 0.50962 0.01619
 C1500 C 0.40617 0.49719 0.01315
 C1501 C 0.37925 0.47788 0.02562
 C1502 C 0.36586 0.46716 0.02300
 C1503 C 0.34988 0.45436 0.01988
 C1504 C 0.35113 0.43508 0.02554
 C1505 C 0.33560 0.42263 0.02253
 C1506 C 0.31861 0.42933 0.01379
 C1507 C 0.31751 0.44876 0.00814
 C1508 C 0.33305 0.46117 0.01118
 H1509 H 0.39148 0.49171 0.05962
 H1510 H 0.41859 0.51366 0.06506
 H1511 H 0.43011 0.51429 0.00392
 H1512 H 0.40273 0.49263 -0.00136
 H1513 H 0.36411 0.42964 0.03224
 H1514 H 0.33699 0.40771 0.02681
 H1515 H 0.30455 0.45441 0.00162
 H1516 H 0.33191 0.47610 0.00679
 C1517 C 0.50942 0.47103 0.39520
 C1518 C 0.50296 0.48663 0.40618
 C1519 C 0.49053 0.48359 0.42171
 C1520 C 0.48442 0.46488 0.42648
 C1521 C 0.49100 0.44929 0.41535
 C1522 C 0.50342 0.45236 0.39981
 C1523 C 0.52221 0.47417 0.37922
 C1524 C 0.53293 0.47679 0.36582
 C1525 C 0.54572 0.47990 0.34983
 C1526 C 0.55383 0.49808 0.34678
 C1527 C 0.56627 0.50112 0.33125
 C1528 C 0.57077 0.48598 0.31857
 C1529 C 0.56252 0.46775 0.32177
 C1530 C 0.55008 0.46475 0.33730
 H1531 H 0.50756 0.50114 0.40276
 H1532 H 0.48590 0.49585 0.43015
 H1533 H 0.48635 0.43475 0.41850
 H1534 H 0.50830 0.44019 0.39137
 H1535 H 0.55059 0.50990 0.35642
 H1536 H 0.57257 0.51525 0.32932
 H1537 H 0.56549 0.45587 0.31212
 H1538 H 0.54383 0.45063 0.33950
 C1539 C 0.00935 -0.02874 0.89537
 C1540 C -0.01053 -0.02678 0.89289
 C1541 C -0.02299 -0.02974 0.90841
 C1542 C -0.01570 -0.03471 0.92664
 C1543 C 0.00431 -0.03669 0.92898
 C1544 C 0.01674 -0.03371 0.91344
 C1545 C 0.02216 -0.02568 0.87939
 C1546 C 0.03289 -0.02310 0.86599
 C1547 C 0.04568 -0.02001 0.85000
 C1548 C 0.03886 -0.01138 0.83313
 C1549 C 0.05128 -0.00836 0.81758
 C1550 C 0.07070 -0.01396 0.81871
 C1551 C 0.07741 -0.02265 0.83575
 C1552 C 0.06497 -0.02564 0.85128
 H1553 H -0.01640 -0.02300 0.87894
 H1554 H -0.03833 -0.02839 0.90609
 H1555 H 0.01035 -0.04030 0.94289
 H1556 H 0.03212 -0.03523 0.91553
 H1557 H 0.02394 -0.00702 0.83197
 H1558 H 0.04562 -0.00188 0.80459
 H1559 H 0.09233 -0.02689 0.83715
 H1560 H 0.07040 -0.03229 0.86430
 C1561 C 0.00930 0.02882 0.60469
 C1562 C 0.00320 0.04747 0.60018
 C1563 C -0.00922 0.05056 0.58466
 C1564 C -0.01571 0.03500 0.57344
 C1565 C -0.00951 0.01629 0.57810
 C1566 C 0.00293 0.01324 0.59363
 C1567 C 0.02210 0.02566 0.62067
 C1568 C 0.03282 0.02304 0.63405
 C1569 C 0.04563 0.01992 0.65003
 C1570 C 0.05002 0.03508 0.66256
 C1571 C 0.06247 0.03208 0.67808
 C1572 C 0.07069 0.01385 0.68128
 C1573 C 0.06616 -0.00130 0.66861
 C1574 C 0.05372 0.00174 0.65309
 H1575 H 0.00801 0.05963 0.60869
 H1576 H -0.01394 0.06509 0.58158
 H1577 H -0.01408 0.00405 0.56960
 H1578 H 0.00760 -0.00126 0.59697
 H1579 H 0.04378 0.04920 0.66035
 H1580 H 0.06545 0.04396 0.68772
 H1581 H 0.07245 -0.01543 0.67054
 H1582 H 0.05046 -0.01008 0.64345
 C1583 C 0.50954 0.52900 0.10455
 C1584 C 0.50352 0.54766 0.09997
 C1585 C 0.49106 0.55074 0.08447
 C1586 C 0.48444 0.53515 0.07335
 C1587 C 0.49059 0.51644 0.07808
 C1588 C 0.50306 0.51340 0.09357
 C1589 C 0.52235 0.52585 0.12052
 C1590 C 0.53308 0.52323 0.13390
 C1591 C 0.54587 0.52010 0.14988
 C1592 C 0.55025 0.53524 0.16243
 C1593 C 0.56268 0.53223 0.17796
 C1594 C 0.57090 0.51399 0.18116
 C1595 C 0.56639 0.49886 0.16846
 C1596 C 0.55397 0.50191 0.15293
 H1597 H 0.50841 0.55983 0.10841
 H1598 H 0.48640 0.56527 0.08134
 H1599 H 0.48596 0.50418 0.06964
 H1600 H 0.50768 0.49890 0.09696
 H1601 H 0.54402 0.54936 0.16023
 H1602 H 0.56566 0.54409 0.18762
 H1603 H 0.57267 0.48473 0.17039
 H1604 H 0.55071 0.49010 0.14328
 C1605 C 0.49061 -0.02915 0.10479
 C1606 C 0.49699 -0.01353 0.09377
 C1607 C 0.50945 -0.01653 0.07826
 C1608 C 0.51568 -0.03522 0.07355
 C1609 C 0.50917 -0.05082 0.08471
 C1610 C 0.49672 -0.04779 0.10023
 C1611 C 0.47779 -0.02604 0.12076
 C1612 C 0.46706 -0.02344 0.13414
 C1613 C 0.45425 -0.02031 0.15011
 C1614 C 0.44616 -0.00213 0.15316
 C1615 C 0.43372 0.00092 0.16868
 C1616 C 0.42919 -0.01421 0.18136
 C1617 C 0.43741 -0.03245 0.17817
 C1618 C 0.44986 -0.03546 0.16265
 H1619 H 0.49230 0.00095 0.09714
 H1620 H 0.51400 -0.00427 0.06979
 H1621 H 0.51389 -0.06534 0.08158
 H1622 H 0.49190 -0.05997 0.10869
 H1623 H 0.44943 0.00969 0.14351
 H1624 H 0.42744 0.01505 0.17060
 H1625 H 0.43442 -0.04432 0.18781
 H1626 H 0.45609 -0.04958 0.16045
 C1627 C 0.99060 0.47099 0.60480
 C1628 C 0.99684 0.48660 0.59369
 C1629 C 1.00936 0.48362 0.57822
 C1630 C 1.01580 0.46497 0.57367
 C1631 C 1.00942 0.44937 0.58491
 C1632 C 0.99691 0.45239 0.60038
 C1633 C 0.97773 0.47408 0.62073
 C1634 C 0.96696 0.47666 0.63409
 C1635 C 0.95412 0.47975 0.65004
 C1636 C 0.94599 0.49793 0.65308
 C1637 C 0.93353 0.50095 0.66858
 C1638 C 0.92901 0.48581 0.68126
 C1639 C 0.93726 0.46758 0.67806
 C1640 C 0.94973 0.46460 0.66256
 H1641 H 0.99199 0.50105 0.59695
 H1642 H 1.01380 0.49587 0.56967
 H1643 H 1.01429 0.43488 0.58187
 H1644 H 0.99219 0.44021 0.60891
 H1645 H 0.94926 0.50975 0.64344
 H1646 H 0.92723 0.51507 0.67051
 H1647 H 0.93428 0.45570 0.68770
 H1648 H 0.95599 0.45048 0.66037
 C1649 C 0.99028 0.52890 0.89522
 C1650 C 0.99676 0.51329 0.90618
 C1651 C 1.00924 0.51632 0.92168
 C1652 C 1.01539 0.53503 0.92642
 C1653 C 1.00876 0.55063 0.91532
 C1654 C 0.99630 0.54756 0.89982
 C1655 C 0.97746 0.52576 0.87926
 C1656 C 0.96672 0.52313 0.86588
 C1657 C 0.95392 0.52000 0.84990
 C1658 C 0.94582 0.50181 0.84686
 C1659 C 0.93339 0.49875 0.83133
 C1660 C 0.92888 0.51388 0.81864
 C1661 C 0.93710 0.53212 0.82183
 C1662 C 0.94954 0.53514 0.83736
 H1663 H 0.99214 0.49879 0.90278
 H1664 H 1.01388 0.50406 0.93010
 H1665 H 1.01342 0.56517 0.91846
 H1666 H 0.99140 0.55974 0.89140
 H1667 H 0.94908 0.49001 0.85651
 H1668 H 0.92711 0.48462 0.82941
 H1669 H 0.93412 0.54399 0.81218
 H1670 H 0.95577 0.54927 0.83956
 C1671 C 0.49054 0.02879 0.39533
 C1672 C 0.49692 0.01319 0.40637
 C1673 C 0.50936 0.01622 0.42189
 C1674 C 0.51558 0.03492 0.42658
 C1675 C 0.50908 0.05051 0.41539
 C1676 C 0.49665 0.04744 0.39986
 C1677 C 0.47774 0.02565 0.37935
 C1678 C 0.46702 0.02304 0.36596
 C1679 C 0.45422 0.01993 0.34998
 C1680 C 0.44608 0.00175 0.34694
 C1681 C 0.43364 -0.00129 0.33142
 C1682 C 0.42916 0.01385 0.31872
 C1683 C 0.43742 0.03207 0.32191
 C1684 C 0.44987 0.03507 0.33744
 H1685 H 0.49224 -0.00130 0.40301
 H1686 H 0.51393 0.00398 0.43038
 H1687 H 0.51381 0.06503 0.41848
 H1688 H 0.49185 0.05960 0.39137
 H1689 H 0.44931 -0.01006 0.35660
 H1690 H 0.42733 -0.01541 0.32950
 H1691 H 0.43446 0.04394 0.31225
 H1692 H 0.45613 0.04918 0.33962
   
