data_POSCAR
  _audit_creation_date              2014-09-24
  _audit_creation_method            'ToBaCCo'
  _symmetry_space_group_name_H-M    'P1'
  _symmetry_Int_Tables_number       1
  _symmetry_cell_setting            triclinic
  loop_
  _symmetry_equiv_pos_as_xyz
 x,y,z
_cell_length_a 51.8882
_cell_length_b 52.5453
_cell_length_c 53.3748
_cell_angle_alpha 89.871500
_cell_angle_beta 89.824600
_cell_angle_gamma 90.076600
loop_
  _atom_site_label
  _atom_site_type_symbol
  _atom_site_fract_x
  _atom_site_fract_y
  _atom_site_fract_z
O1 O 0.35593 0.31431 -0.01813
 O2 O 0.32257 0.34917 0.03132
 O3 O 0.35595 0.31278 0.03035
 O4 O 0.32251 0.35015 -0.01725
 O5 O 0.29033 0.32275 -0.01736
 O6 O 0.32526 0.28365 0.02951
 O7 O 0.29103 0.32097 0.03142
 O8 O 0.32463 0.28585 -0.01928
 Cu9 Cu 0.34233 0.33439 0.00670
 Cu10 Cu 0.30461 0.30041 0.00608
 C11 C 0.34615 0.29425 -0.02727
 C12 C 0.30111 0.34133 0.03979
 C13 C 0.34669 0.29173 0.03785
 C14 C 0.30066 0.34318 -0.02543
 O15 O 0.68315 0.65400 0.01728
 O16 O 0.64552 0.68788 -0.02985
 O17 O 0.67916 0.65229 -0.03114
 O18 O 0.64902 0.68969 0.01843
 O19 O 0.67909 0.71923 0.01475
 O20 O 0.71107 0.67987 -0.03397
 O21 O 0.67635 0.71658 -0.03394
 O22 O 0.71423 0.68260 0.01450
 Cu23 Cu 0.66119 0.66813 -0.00591
 Cu24 Cu 0.69833 0.70253 -0.00997
 C25 C 0.70510 0.66222 0.02389
 C26 C 0.65435 0.70792 -0.04003
 C27 C 0.70035 0.65926 -0.04094
 C28 C 0.65845 0.71097 0.02483
 O29 O 0.68414 0.34559 0.97393
 O30 O 0.65097 0.31084 1.02378
 O31 O 0.68300 0.34783 1.02230
 O32 O 0.65111 0.30886 0.97519
 O33 O 0.68236 0.28044 0.97697
 O34 O 0.71587 0.32133 1.02340
 O35 O 0.68291 0.28319 1.02585
 O36 O 0.71632 0.31817 0.97490
 Cu37 Cu 0.66411 0.33094 0.99857
 Cu38 Cu 0.70260 0.29790 1.00038
 C39 C 0.70597 0.33816 0.96606
 C40 C 0.66121 0.29129 1.03352
 C41 C 0.70495 0.34169 1.03081
 C42 C 0.66092 0.28797 0.96816
 O43 O 0.31179 0.65527 0.97822
 O44 O 0.34806 0.68985 1.02561
 O45 O 0.31462 0.65403 1.02663
 O46 O 0.34528 0.69168 0.97721
 O47 O 0.31482 0.72081 0.98022
 O48 O 0.28215 0.68096 1.02847
 O49 O 0.31678 0.71806 1.02911
 O50 O 0.28027 0.68339 0.98009
 Cu51 Cu 0.33302 0.66996 1.00158
 Cu52 Cu 0.29536 0.70377 1.00469
 C53 C 0.28982 0.66302 0.97121
 C54 C 0.33877 0.70969 1.03562
 C55 C 0.29300 0.66056 1.03580
 C56 C 0.33570 0.71281 0.97050
 O57 O -0.02547 0.35053 0.29966
 O58 O 0.01451 0.31357 0.34271
 O59 O 0.02236 0.34553 0.30744
 O60 O -0.03525 0.31981 0.33757
 O61 O -0.03413 0.28604 0.31324
 O62 O 0.02098 0.31514 0.27891
 O63 O 0.01574 0.28181 0.31573
 O64 O -0.02859 0.31752 0.27426
 Cu65 Cu -0.00638 0.33537 0.32469
 Cu66 Cu -0.00672 0.29678 0.29290
 C67 C -0.03305 0.34071 0.27929
 C68 C 0.02259 0.29170 0.33638
 C69 C 0.03097 0.33546 0.28756
 C70 C -0.04397 0.29808 0.33160
 O71 O 0.03068 0.67835 0.65149
 O72 O -0.01331 0.64339 0.69277
 O73 O -0.01961 0.67453 0.65455
 O74 O 0.03517 0.64647 0.68715
 O75 O 0.03397 0.67714 0.71537
 O76 O -0.01844 0.70806 0.67918
 O77 O -0.01598 0.67651 0.71810
 O78 O 0.03187 0.71004 0.67852
 Cu79 Cu 0.00781 0.65767 0.66863
 Cu80 Cu 0.00764 0.69630 0.70040
 C81 C 0.03953 0.69979 0.65829
 C82 C -0.02150 0.65361 0.71277
 C83 C -0.02795 0.69641 0.66046
 C84 C 0.04356 0.65647 0.70712
 O85 O 0.96747 0.67888 0.34974
 O86 O 1.02317 0.64634 0.32233
 O87 O 1.01376 0.68230 0.35755
 O88 O 0.97182 0.64540 0.31717
 O89 O 0.97504 0.67481 0.28777
 O90 O 1.02285 0.70920 0.32701
 O91 O 1.02528 0.67435 0.29163
 O92 O 0.97288 0.71048 0.32285
 Cu93 Cu 0.99488 0.65969 0.33894
 Cu94 Cu 0.99940 0.69516 0.30422
 C95 C 0.96142 0.70084 0.34178
 C96 C 1.03325 0.65407 0.30199
 C97 C 1.02478 0.70245 0.34985
 C98 C 0.96543 0.65405 0.29589
 O99 O 0.97886 0.32313 0.64431
 O100 O 1.02606 0.35619 0.68348
 O101 O 1.02856 0.32455 0.64687
 O102 O 0.97618 0.35631 0.67981
 O103 O 0.97440 0.32533 0.70774
 O104 O 1.02686 0.29228 0.67326
 O105 O 1.02467 0.32493 0.71115
 O106 O 0.97705 0.29145 0.67149
 Cu107 Cu 1.00255 0.34319 0.66099
 Cu108 Cu 1.00065 0.30536 0.69379
 C109 C 0.97008 0.30156 0.65095
 C110 C 1.03343 0.34634 0.70397
 C111 C 1.03640 0.30279 0.65378
 C112 C 0.96634 0.34658 0.69937
 O113 O 0.34870 0.02430 0.31696
 O114 O 0.31286 -0.02658 0.34792
 O115 O 0.34822 -0.02471 0.31396
 O116 O 0.31316 0.02273 0.35058
 O117 O 0.28301 0.02488 0.32158
 O118 O 0.31899 -0.02273 0.28405
 O119 O 0.28264 -0.02483 0.31896
 O120 O 0.31937 0.02655 0.28716
 Cu121 Cu 0.33362 -0.00130 0.33530
 Cu122 Cu 0.29790 0.00111 0.29998
 C123 C 0.34048 0.03401 0.29673
 C124 C 0.29167 -0.03440 0.33900
 C125 C 0.33997 -0.03160 0.29267
 C126 C 0.29221 0.03201 0.34248
 O127 O 0.65191 0.02610 0.68316
 O128 O 0.68876 -0.02383 0.65179
 O129 O 0.65275 -0.02294 0.68524
 O130 O 0.68744 0.02563 0.64943
 O131 O 0.71749 0.02776 0.67853
 O132 O 0.68170 -0.02099 0.71540
 O133 O 0.71876 -0.02197 0.68096
 O134 O 0.68114 0.02830 0.71304
 Cu135 Cu 0.66739 0.00100 0.66441
 Cu136 Cu 0.70286 0.00340 0.69994
 C137 C 0.65992 0.03556 0.70356
 C138 C 0.71000 -0.03142 0.66080
 C139 C 0.66083 -0.02998 0.70656
 C140 C 0.70823 0.03512 0.65770
 O141 O 0.30889 1.03066 0.64914
 O142 O 0.34418 0.98028 0.68133
 O143 O 0.30986 0.98166 0.64658
 O144 O 0.34322 1.02945 0.68407
 O145 O 0.31299 1.02717 0.71319
 O146 O 0.27863 0.97927 0.67467
 O147 O 0.31378 0.97775 0.71024
 O148 O 0.27765 1.02854 0.67724
 Cu149 Cu 0.32959 1.00578 0.66250
 Cu150 Cu 0.29264 1.00302 0.69679
 C151 C 0.28711 1.03792 0.65723
 C152 C 0.33529 0.97047 0.70130
 C153 C 0.28849 0.97247 0.65389
 C154 C 0.33418 1.03627 0.70511
 O155 O 0.65186 0.96784 0.32135
 O156 O 0.68474 1.01795 0.35607
 O157 O 0.65230 1.01705 0.31985
 O158 O 0.68425 0.96865 0.35789
 O159 O 0.71649 0.96690 0.33091
 O160 O 0.68429 1.01643 0.29247
 O161 O 0.71776 1.01643 0.33008
 O162 O 0.68342 0.96692 0.29354
 Cu163 Cu 0.66513 0.99297 0.34146
 Cu164 Cu 0.70379 0.99161 0.30899
 C165 C 0.66167 0.95900 0.30139
 C166 C 0.70697 1.02563 0.34950
 C167 C 0.66258 1.02497 0.29970
 C168 C 0.70578 0.95949 0.35112
 C169 C 0.88223 0.77577 0.50489
 C170 C 0.87521 0.78828 0.48285
 C171 C 0.85909 0.80958 0.48409
 C172 C 0.84775 0.81721 0.50708
 C173 C 0.85499 0.80385 0.52909
 C174 C 0.87255 0.78355 0.52814
 C175 C 0.82737 0.83770 0.50778
 C176 C 0.81977 0.84928 0.53064
 C177 C 0.79880 0.86609 0.53146
 C178 C 0.78657 0.87311 0.50924
 C179 C 0.79418 0.86288 0.48629
 C180 C 0.81411 0.84492 0.48567
 H181 H 0.89552 0.75991 0.50383
 H182 H 0.85507 0.81940 0.46677
 H183 H 0.84655 0.80828 0.54706
 H184 H 0.82939 0.84505 0.54805
 H185 H 0.77096 0.88681 0.50988
 H186 H 0.81821 0.83620 0.46783
 C187 C 0.11246 0.21679 0.49669
 C188 C 0.11813 0.20467 0.47406
 C189 C 0.13453 0.18343 0.47408
 C190 C 0.14710 0.17553 0.49635
 C191 C 0.14157 0.18894 0.51875
 C192 C 0.12405 0.20917 0.51903
 C193 C 0.16719 0.15481 0.49610
 C194 C 0.17533 0.14313 0.51871
 C195 C 0.19667 0.12685 0.51911
 C196 C 0.20858 0.12011 0.49662
 C197 C 0.20018 0.13013 0.47380
 C198 C 0.17984 0.14770 0.47359
 H199 H 0.09897 0.23254 0.49683
 H200 H 0.13781 0.17386 0.45648
 H201 H 0.15145 0.18476 0.53603
 H202 H 0.16594 0.14708 0.53634
 H203 H 0.22459 0.10686 0.49692
 H204 H 0.17497 0.15632 0.45585
 C205 C 0.11910 0.78284 0.50381
 C206 C 0.13352 0.79033 0.52453
 C207 C 0.14971 0.81151 0.52259
 C208 C 0.15095 0.82589 0.50020
 C209 C 0.13481 0.81885 0.48001
 C210 C 0.11892 0.79718 0.48161
 C211 C 0.16977 0.84739 0.49771
 C212 C 0.18044 0.85371 0.47410
 C213 C 0.20003 0.87196 0.47210
 C214 C 0.20939 0.88374 0.49368
 C215 C 0.19930 0.87779 0.51730
 C216 C 0.17888 0.86039 0.51914
 H217 H 0.10743 0.76582 0.50537
 H218 H 0.16169 0.81606 0.53850
 H219 H 0.13425 0.83032 0.46318
 H220 H 0.17460 0.84376 0.45732
 H221 H 0.22482 0.89759 0.49204
 H222 H 0.17088 0.85647 0.53747
 C223 C 0.87725 0.22354 0.49203
 C224 C 0.87272 0.21253 0.51549
 C225 C 0.85691 0.19089 0.51718
 C226 C 0.84377 0.18135 0.49589
 C227 C 0.84822 0.19361 0.47255
 C228 C 0.86518 0.21432 0.47051
 C229 C 0.82468 0.15971 0.49823
 C230 C 0.81575 0.14650 0.47674
 C231 C 0.79597 0.12834 0.47860
 C232 C 0.78658 0.12160 0.50225
 C233 C 0.79530 0.13372 0.52383
 C234 C 0.81398 0.15289 0.52184
 H235 H 0.89050 0.23943 0.49049
 H236 H 0.85469 0.18214 0.53536
 H237 H 0.83812 0.18798 0.45582
 H238 H 0.82335 0.15052 0.45831
 H239 H 0.77195 0.10691 0.50391
 H240 H 0.81903 0.16283 0.53879
 C241 C 0.49572 0.88691 0.78384
 C242 C 0.47214 0.87701 0.79200
 C243 C 0.47160 0.86009 0.81232
 C244 C 0.49444 0.85350 0.82527
 C245 C 0.51789 0.86488 0.81719
 C246 C 0.51869 0.88058 0.79591
 C247 C 0.49402 0.83350 0.84562
 C248 C 0.51682 0.82031 0.85220
 C249 C 0.51634 0.80027 0.86954
 C250 C 0.49285 0.79260 0.87993
 C251 C 0.46992 0.80489 0.87365
 C252 C 0.47063 0.82592 0.85740
 H253 H 0.49625 0.89975 0.76791
 H254 H 0.45329 0.85153 0.81700
 H255 H 0.53586 0.86117 0.82665
 H256 H 0.53505 0.82449 0.84332
 H257 H 0.49233 0.77681 0.89305
 H258 H 0.45267 0.83552 0.85364
 C259 C 0.50504 0.11424 0.21828
 C260 C 0.48197 0.12464 0.20968
 C261 C 0.48237 0.14162 0.18946
 C262 C 0.50566 0.14776 0.17692
 C263 C 0.52863 0.13591 0.18542
 C264 C 0.52846 0.12014 0.20667
 C265 C 0.50614 0.16781 0.15662
 C266 C 0.52944 0.18022 0.14996
 C267 C 0.52962 0.20051 0.13293
 C268 C 0.50643 0.20917 0.12288
 C269 C 0.48308 0.19760 0.12918
 C270 C 0.48306 0.17629 0.14503
 H271 H 0.50483 0.10136 0.23419
 H272 H 0.46436 0.15055 0.18458
 H273 H 0.54695 0.13929 0.17638
 H274 H 0.54756 0.17525 0.15850
 H275 H 0.50653 0.22517 0.11000
 H276 H 0.46476 0.16723 0.14867
 C277 C 0.49691 0.11719 0.78558
 C278 C 0.52055 0.12651 0.79399
 C279 C 0.52114 0.14277 0.81475
 C280 C 0.49832 0.14915 0.82797
 C281 C 0.47478 0.13841 0.81953
 C282 C 0.47395 0.12345 0.79780
 C283 C 0.49895 0.16832 0.84900
 C284 C 0.47624 0.18122 0.85655
 C285 C 0.47712 0.20081 0.87428
 C286 C 0.50081 0.20827 0.88417
 C287 C 0.52356 0.19611 0.87709
 C288 C 0.52252 0.17552 0.86048
 H289 H 0.49629 0.10483 0.76934
 H290 H 0.53953 0.15096 0.81957
 H291 H 0.45678 0.14202 0.82904
 H292 H 0.45780 0.17724 0.84814
 H293 H 0.50162 0.22386 0.89744
 H294 H 0.54042 0.16605 0.85615
 C295 C 0.50273 0.88284 0.21316
 C296 C 0.52578 0.87234 0.20450
 C297 C 0.52549 0.85639 0.18352
 C298 C 0.50229 0.85135 0.17048
 C299 C 0.47942 0.86328 0.17912
 C300 C 0.47944 0.87802 0.20100
 C301 C 0.50164 0.83218 0.14952
 C302 C 0.47831 0.81986 0.14298
 C303 C 0.47794 0.80023 0.12528
 C304 C 0.50103 0.79213 0.11446
 C305 C 0.52440 0.80370 0.12061
 C306 C 0.52457 0.82434 0.13721
 H307 H 0.50289 0.89494 0.22960
 H308 H 0.54337 0.84728 0.17841
 H309 H 0.46127 0.86068 0.16963
 H310 H 0.46036 0.82431 0.15222
 H311 H 0.50088 0.77652 0.10119
 H312 H 0.54286 0.83337 0.14094
 C313 C 0.77942 0.49991 0.87592
 C314 C 0.79156 0.47691 0.87025
 C315 C 0.81334 0.47701 0.85471
 C316 C 0.82196 0.49977 0.84320
 C317 C 0.80888 0.52270 0.84879
 C318 C 0.78784 0.52289 0.86539
 C319 C 0.84377 0.49937 0.82475
 C320 C 0.85906 0.52128 0.82043
 C321 C 0.87891 0.52104 0.80251
 C322 C 0.88378 0.49870 0.78910
 C323 C 0.86926 0.47672 0.79329
 C324 C 0.84920 0.47711 0.81085
 H325 H 0.76335 0.49986 0.88895
 H326 H 0.82306 0.45916 0.85135
 H327 H 0.81436 0.54037 0.83981
 H328 H 0.85602 0.53848 0.83114
 H329 H 0.89901 0.49839 0.77514
 H330 H 0.83756 0.46015 0.81290
 C331 C 0.21902 0.49944 0.12481
 C332 C 0.21074 0.47645 0.13512
 C333 C 0.19107 0.47649 0.15310
 C334 C 0.17886 0.49943 0.16050
 C335 C 0.18761 0.52250 0.14941
 C336 C 0.20834 0.52263 0.13238
 C337 C 0.15834 0.49922 0.18063
 C338 C 0.15199 0.52154 0.19422
 C339 C 0.13423 0.52080 0.21414
 C340 C 0.12344 0.49747 0.22126
 C341 C 0.12936 0.47516 0.20833
 C342 C 0.14574 0.47626 0.18747
 H343 H 0.23419 0.49926 0.11079
 H344 H 0.18638 0.45848 0.16174
 H345 H 0.17904 0.54054 0.15421
 H346 H 0.16116 0.53954 0.19020
 H347 H 0.10996 0.49663 0.23680
 H348 H 0.14889 0.45882 0.17729
 C349 C 0.78584 0.50352 0.11011
 C350 C 0.79799 0.52643 0.11615
 C351 C 0.81991 0.52610 0.13142
 C352 C 0.82861 0.50310 0.14239
 C353 C 0.81537 0.48031 0.13651
 C354 C 0.79432 0.48037 0.12010
 C355 C 0.85042 0.50299 0.16082
 C356 C 0.86468 0.48052 0.16553
 C357 C 0.88378 0.47990 0.18408
 C358 C 0.88935 0.50208 0.19746
 C359 C 0.87603 0.52466 0.19279
 C360 C 0.85653 0.52508 0.17473
 H361 H 0.76960 0.50381 0.09739
 H362 H 0.82956 0.54395 0.13503
 H363 H 0.82062 0.46246 0.14520
 H364 H 0.86127 0.46340 0.15486
 H365 H 0.90390 0.50174 0.21200
 H366 H 0.84567 0.54247 0.17252
 C367 C 0.21352 0.49827 0.89129
 C368 C 0.20130 0.52086 0.88456
 C369 C 0.18094 0.52021 0.86745
 C370 C 0.17440 0.49738 0.85479
 C371 C 0.18752 0.47478 0.86175
 C372 C 0.20679 0.47516 0.88015
 C373 C 0.15589 0.49772 0.83305
 C374 C 0.14491 0.47498 0.82348
 C375 C 0.13029 0.47530 0.80136
 C376 C 0.12486 0.49855 0.78977
 C377 C 0.13456 0.52131 0.79926
 C378 C 0.15034 0.52083 0.82043
 H379 H 0.22881 0.49883 0.90509
 H380 H 0.17125 0.53793 0.86355
 H381 H 0.18399 0.45698 0.85230
 H382 H 0.14805 0.45684 0.83251
 H383 H 0.11280 0.49893 0.77321
 H384 H 0.15885 0.53866 0.82605
 C385 C 0.26241 0.39192 0.08983
 C386 C 0.28938 0.39268 0.08784
 C387 C 0.30192 0.37503 0.07249
 C388 C 0.28775 0.35685 0.05891
 C389 C 0.26079 0.35554 0.06198
 C390 C 0.24796 0.37328 0.07726
 C391 C 0.24899 0.41192 0.10417
 C392 C 0.22192 0.41212 0.10505
 C393 C 0.20924 0.43248 0.11689
 C394 C 0.22359 0.45265 0.12718
 C395 C 0.25067 0.45151 0.12712
 C396 C 0.26349 0.43131 0.11550
 C397 C 0.22094 0.37354 0.07937
 C398 C 0.20815 0.39262 0.09301
 C399 C 0.30323 0.41177 0.10033
 C400 C 0.29049 0.43078 0.11393
 H401 H 0.20955 0.35924 0.06985
 H402 H 0.18727 0.39247 0.09360
 H403 H 0.32406 0.41244 0.09901
 H404 H 0.30185 0.44559 0.12272
 H405 H 0.32269 0.37607 0.07040
 H406 H 0.24974 0.34169 0.05149
 H407 H 0.18837 0.43345 0.11676
 H408 H 0.26172 0.46699 0.13516
 C409 C 0.74712 0.61193 0.07141
 C410 C 0.76082 0.62827 0.05529
 C411 C 0.74718 0.64616 0.04085
 C412 C 0.72006 0.64711 0.04209
 C413 C 0.70682 0.63124 0.05906
 C414 C 0.72021 0.61360 0.07371
 C415 C 0.76097 0.59172 0.08505
 C416 C 0.74695 0.57470 0.10015
 C417 C 0.75974 0.55431 0.11142
 C418 C 0.78626 0.55049 0.10737
 C419 C 0.80040 0.56830 0.09313
 C420 C 0.78771 0.58894 0.08168
 C421 C 0.70703 0.59681 0.08976
 C422 C 0.72020 0.57770 0.10281
 C423 C 0.78770 0.62553 0.05311
 C424 C 0.80090 0.60619 0.06605
 H425 H 0.68629 0.59805 0.09177
 H426 H 0.70925 0.56471 0.11452
 H427 H 0.79854 0.63802 0.04080
 H428 H 0.82151 0.60437 0.06333
 H429 H 0.75743 0.65820 0.02764
 H430 H 0.68596 0.63200 0.06018
 H431 H 0.74889 0.54072 0.12257
 H432 H 0.82081 0.56533 0.08991
 C433 C 0.74416 0.39020 0.91708
 C434 C 0.71718 0.38820 0.91654
 C435 C 0.70497 0.36994 0.93154
 C436 C 0.71946 0.35384 0.94716
 C437 C 0.74658 0.35515 0.94660
 C438 C 0.75906 0.37361 0.93177
 C439 C 0.75689 0.41097 0.90312
 C440 C 0.78376 0.41397 0.90471
 C441 C 0.79549 0.43497 0.89287
 C442 C 0.78033 0.45293 0.88000
 C443 C 0.75361 0.44897 0.87778
 C444 C 0.74175 0.42819 0.88945
 C445 C 0.78598 0.37664 0.93220
 C446 C 0.79812 0.39649 0.91892
 C447 C 0.70282 0.40524 0.90189
 C448 C 0.71492 0.42490 0.88853
 H449 H 0.79772 0.36396 0.94339
 H450 H 0.81885 0.39849 0.92024
 H451 H 0.68200 0.40376 0.90124
 H452 H 0.70311 0.43804 0.87792
 H453 H 0.68409 0.36892 0.93180
 H454 H 0.75782 0.34294 0.95877
 H455 H 0.81607 0.43801 0.89466
 H456 H 0.74195 0.46259 0.86758
 C457 C 0.24940 0.60966 0.92600
 C458 C 0.27621 0.61230 0.92339
 C459 C 0.28899 0.63115 0.93700
 C460 C 0.27528 0.64718 0.95335
 C461 C 0.24822 0.64527 0.95481
 C462 C 0.23517 0.62622 0.94134
 C463 C 0.23626 0.58823 0.91358
 C464 C 0.20965 0.58462 0.91717
 C465 C 0.19765 0.56309 0.90669
 C466 C 0.21239 0.54521 0.89327
 C467 C 0.23880 0.54967 0.88916
 C468 C 0.25087 0.57102 0.89935
 C469 C 0.20842 0.62254 0.94382
 C470 C 0.19588 0.60212 0.93194
 C471 C 0.28994 0.59523 0.90820
 C472 C 0.27747 0.57492 0.89636
 H473 H 0.19718 0.63519 0.95554
 H474 H 0.17535 0.59967 0.93482
 H475 H 0.31061 0.59720 0.90598
 H476 H 0.28885 0.56180 0.88529
 H477 H 0.30980 0.63262 0.93574
 H478 H 0.23761 0.65741 0.96758
 H479 H 0.17730 0.55963 0.90986
 H480 H 0.25008 0.53603 0.87858
 C481 C 0.06957 0.25290 0.38986
 C482 C 0.07020 0.27958 0.38837
 C483 C 0.05531 0.29195 0.37028
 C484 C 0.03991 0.27792 0.35361
 C485 C 0.04015 0.25110 0.35468
 C486 C 0.05475 0.23847 0.37308
 C487 C 0.08389 0.23994 0.41002
 C488 C 0.08234 0.21333 0.41244
 C489 C 0.09466 0.20133 0.43277
 C490 C 0.10808 0.21598 0.45057
 C491 C 0.11032 0.24247 0.44709
 C492 C 0.09806 0.25457 0.42710
 C493 C 0.05426 0.21182 0.37560
 C494 C 0.06776 0.19947 0.39496
 C495 C 0.08516 0.29346 0.40544
 C496 C 0.09893 0.28114 0.42445
 H497 H 0.04295 0.20043 0.36279
 H498 H 0.06642 0.17895 0.39651
 H499 H 0.08589 0.31404 0.40435
 H500 H 0.10988 0.29257 0.43753
 H501 H 0.05539 0.31257 0.36940
 H502 H 0.02820 0.24022 0.34197
 H503 H 0.09285 0.18094 0.43539
 H504 H 0.12096 0.25377 0.46054
 C505 C 0.09139 0.73770 0.60820
 C506 C 0.07927 0.75177 0.62722
 C507 C 0.06310 0.73915 0.64438
 C508 C 0.05863 0.71280 0.64213
 C509 C 0.07163 0.69893 0.62343
 C510 C 0.08795 0.71127 0.60638
 C511 C 0.10661 0.75108 0.58886
 C512 C 0.11733 0.73712 0.56899
 C513 C 0.12900 0.75015 0.54906
 C514 C 0.12931 0.77692 0.54859
 C515 C 0.12021 0.79061 0.56945
 C516 C 0.10849 0.77775 0.58957
 C517 C 0.10006 0.69782 0.58692
 C518 C 0.11453 0.71054 0.56853
 C519 C 0.08269 0.77829 0.62803
 C520 C 0.09701 0.79107 0.60948
 H521 H 0.09769 0.67739 0.58547
 H522 H 0.12281 0.69958 0.55334
 H523 H 0.07356 0.78936 0.64267
 H524 H 0.09840 0.81163 0.61030
 H525 H 0.05317 0.74997 0.65873
 H526 H 0.06854 0.67859 0.62173
 H527 H 0.13603 0.73961 0.53299
 H528 H 0.12014 0.81124 0.56897
 C529 C 0.91485 0.74138 0.39366
 C530 C 0.93133 0.75515 0.37768
 C531 C 0.94485 0.74217 0.35874
 C532 C 0.94235 0.71557 0.35632
 C533 C 0.92460 0.70241 0.37158
 C534 C 0.91099 0.71514 0.39042
 C535 C 0.90277 0.75426 0.41524
 C536 C 0.88767 0.74000 0.43205
 C537 C 0.87799 0.75172 0.45359
 C538 C 0.88337 0.77746 0.45853
 C539 C 0.89764 0.79189 0.44107
 C540 C 0.90771 0.78022 0.41944
 C541 C 0.89483 0.70180 0.40703
 C542 C 0.88337 0.71403 0.42752
 C543 C 0.93508 0.78130 0.38195
 C544 C 0.92344 0.79362 0.40243
 H545 H 0.89165 0.68157 0.40461
 H546 H 0.87160 0.70291 0.44030
 H547 H 0.94768 0.79219 0.36975
 H548 H 0.92735 0.81365 0.40536
 H549 H 0.95875 0.75235 0.34728
 H550 H 0.92259 0.68195 0.36980
 H551 H 0.86680 0.74068 0.46695
 H552 H 0.90185 0.81170 0.44492
 C553 C 0.92259 0.26282 0.59794
 C554 C 0.93605 0.24852 0.61589
 C555 C 0.95063 0.26127 0.63416
 C556 C 0.95221 0.28807 0.63403
 C557 C 0.93809 0.30204 0.61623
 C558 C 0.92323 0.28954 0.59819
 C559 C 0.90834 0.24961 0.57792
 C560 C 0.89546 0.26404 0.55971
 C561 C 0.88303 0.25155 0.54006
 C562 C 0.88383 0.22482 0.53807
 C563 C 0.89617 0.21051 0.55690
 C564 C 0.90858 0.22289 0.57689
 C565 C 0.90959 0.30327 0.57996
 C566 C 0.89586 0.29072 0.56107
 C567 C 0.93530 0.22179 0.61466
 C568 C 0.92186 0.20921 0.59547
 H569 H 0.90985 0.32389 0.58005
 H570 H 0.88591 0.30201 0.54713
 H571 H 0.94557 0.21051 0.62838
 H572 H 0.92216 0.18860 0.59498
 H573 H 0.96162 0.25040 0.64769
 H574 H 0.93909 0.32265 0.61611
 H575 H 0.87313 0.26269 0.52594
 H576 H 0.89692 0.18995 0.55549
 C577 C 0.39356 0.08335 0.25972
 C578 C 0.37420 0.07144 0.24558
 C579 C 0.35547 0.05666 0.25792
 C580 C 0.35656 0.05336 0.28409
 C581 C 0.37535 0.06645 0.29802
 C582 C 0.39400 0.08132 0.28594
 C583 C 0.41473 0.09677 0.24679
 C584 C 0.43486 0.10727 0.26096
 C585 C 0.45613 0.11784 0.24859
 C586 C 0.45754 0.11764 0.22227
 C587 C 0.43666 0.10825 0.20826
 C588 C 0.41525 0.09749 0.22048
 C589 C 0.41384 0.09308 0.29951
 C590 C 0.43395 0.10586 0.28722
 C591 C 0.37480 0.07348 0.21932
 C592 C 0.39499 0.08629 0.20698
 H593 H 0.41424 0.09174 0.31977
 H594 H 0.44932 0.11403 0.29832
 H595 H 0.35995 0.06449 0.20818
 H596 H 0.39510 0.08681 0.18668
 H597 H 0.34114 0.04650 0.24710
 H598 H 0.37617 0.06414 0.31819
 H599 H 0.47211 0.12531 0.25939
 H600 H 0.43781 0.10794 0.18798
 C601 C 0.60704 0.08409 0.74175
 C602 C 0.62684 0.07235 0.75544
 C603 C 0.64532 0.05773 0.74268
 C604 C 0.64358 0.05439 0.71656
 C605 C 0.62421 0.06717 0.70308
 C606 C 0.60583 0.08194 0.71557
 C607 C 0.58632 0.09763 0.75517
 C608 C 0.56586 0.10818 0.74149
 C609 C 0.54513 0.11908 0.75436
 C610 C 0.54449 0.11906 0.78073
 C611 C 0.56569 0.10951 0.79421
 C612 C 0.58662 0.09852 0.78147
 C613 C 0.58560 0.09364 0.70248
 C614 C 0.56595 0.10658 0.71523
 C615 C 0.62703 0.07451 0.78169
 C616 C 0.60724 0.08735 0.79448
 H617 H 0.58459 0.09221 0.68226
 H618 H 0.55032 0.11476 0.70450
 H619 H 0.64222 0.06563 0.79247
 H620 H 0.60777 0.08799 0.81476
 H621 H 0.66009 0.04782 0.75318
 H622 H 0.62285 0.06483 0.68295
 H623 H 0.52899 0.12672 0.74392
 H624 H 0.56520 0.10931 0.81451
 C625 C 0.38659 0.92055 0.73968
 C626 C 0.36692 0.93265 0.75332
 C627 C 0.34887 0.94773 0.74050
 C628 C 0.35095 0.95116 0.71439
 C629 C 0.37014 0.93800 0.70097
 C630 C 0.38807 0.92278 0.71350
 C631 C 0.40694 0.90658 0.75315
 C632 C 0.42733 0.89574 0.73951
 C633 C 0.44781 0.88453 0.75243
 C634 C 0.44826 0.88450 0.77879
 C635 C 0.42710 0.89427 0.79224
 C636 C 0.40643 0.90561 0.77946
 C637 C 0.40818 0.91075 0.70046
 C638 C 0.42748 0.89743 0.71326
 C639 C 0.36648 0.93039 0.77957
 C640 C 0.38591 0.91712 0.79241
 H641 H 0.40940 0.91224 0.68024
 H642 H 0.44306 0.88901 0.70256
 H643 H 0.35139 0.93954 0.79032
 H644 H 0.38522 0.91643 0.81269
 H645 H 0.33424 0.95794 0.75095
 H646 H 0.37174 0.94040 0.68084
 H647 H 0.46397 0.87678 0.74203
 H648 H 0.42748 0.89442 0.81254
 C649 C 0.61165 0.91086 0.25962
 C650 C 0.61010 0.91107 0.28588
 C651 C 0.62777 0.92561 0.29947
 C652 C 0.64673 0.94011 0.28704
 C653 C 0.64899 0.93862 0.26078
 C654 C 0.63120 0.92424 0.24691
 C655 C 0.59138 0.89784 0.24517
 C656 C 0.59185 0.89904 0.21887
 C657 C 0.57111 0.88882 0.20531
 C658 C 0.54991 0.87807 0.21804
 C659 C 0.55044 0.87584 0.24430
 C660 C 0.57100 0.88588 0.25799
 C661 C 0.63166 0.92405 0.22057
 C662 C 0.61231 0.91168 0.20679
 C663 C 0.59009 0.89786 0.29802
 C664 C 0.57085 0.88545 0.28428
 H665 H 0.64667 0.93420 0.21052
 H666 H 0.61298 0.91266 0.18652
 H667 H 0.58883 0.89778 0.31828
 H668 H 0.55529 0.87615 0.29434
 H669 H 0.62605 0.92655 0.31971
 H670 H 0.66345 0.94990 0.25111
 H671 H 0.57062 0.89071 0.18508
 H672 H 0.53418 0.86740 0.25409
 C673 C 0.39426 0.25459 0.92103
 C674 C 0.39609 0.28116 0.92300
 C675 C 0.37919 0.29407 0.93895
 C676 C 0.36069 0.28064 0.95310
 C677 C 0.35818 0.25414 0.95002
 C678 C 0.37522 0.24093 0.93418
 C679 C 0.41366 0.24072 0.90616
 C680 C 0.41291 0.21399 0.90540
 C681 C 0.43286 0.20082 0.89318
 C682 C 0.45357 0.21432 0.88240
 C683 C 0.45331 0.24108 0.88226
 C684 C 0.43353 0.25439 0.89428
 C685 C 0.37444 0.21427 0.93212
 C686 C 0.39298 0.20103 0.91799
 C687 C 0.41556 0.29423 0.90991
 C688 C 0.43399 0.28105 0.89577
 H689 H 0.35982 0.20349 0.94207
 H690 H 0.39211 0.18044 0.91749
 H691 H 0.41702 0.31476 0.91120
 H692 H 0.44916 0.29177 0.88656
 H693 H 0.38107 0.31451 0.94106
 H694 H 0.34405 0.24370 0.96097
 H695 H 0.43317 0.18019 0.89345
 H696 H 0.46921 0.25146 0.87382
 C697 C 0.60203 0.74689 0.91183
 C698 C 0.60031 0.72036 0.91451
 C699 C 0.61846 0.70766 0.92923
 C700 C 0.63814 0.72125 0.94144
 C701 C 0.64041 0.74770 0.93764
 C702 C 0.62214 0.76069 0.92303
 C703 C 0.58156 0.76057 0.89827
 C704 C 0.58237 0.78726 0.89679
 C705 C 0.56165 0.80029 0.88577
 C706 C 0.54015 0.78671 0.87683
 C707 C 0.54027 0.75994 0.87740
 C708 C 0.56080 0.74677 0.88828
 C709 C 0.62282 0.78731 0.92032
 C710 C 0.60327 0.80036 0.90744
 C711 C 0.57980 0.70715 0.90336
 C712 C 0.56037 0.72015 0.89044
 H713 H 0.63824 0.79820 0.92878
 H714 H 0.60419 0.82094 0.90635
 H715 H 0.57840 0.68665 0.90521
 H716 H 0.54450 0.70933 0.88269
 H717 H 0.61674 0.68727 0.93190
 H718 H 0.65545 0.75827 0.94711
 H719 H 0.56151 0.82092 0.88548
 H720 H 0.52385 0.74945 0.87029
 C721 C 0.39080 0.74841 0.08404
 C722 C 0.37142 0.76249 0.07199
 C723 C 0.35302 0.74964 0.05739
 C724 C 0.35451 0.72305 0.05445
 C725 C 0.37335 0.70923 0.06762
 C726 C 0.39162 0.72178 0.08230
 C727 C 0.41157 0.76185 0.09742
 C728 C 0.43171 0.74771 0.10811
 C729 C 0.45263 0.76054 0.11868
 C730 C 0.45369 0.78728 0.11834
 C731 C 0.43280 0.80128 0.10874
 C732 C 0.41173 0.78858 0.09794
 C733 C 0.41145 0.70827 0.09422
 C734 C 0.43119 0.72104 0.10692
 C735 C 0.37166 0.78918 0.07378
 C736 C 0.39146 0.80201 0.08653
 H737 H 0.41215 0.68770 0.09309
 H738 H 0.44656 0.70997 0.11524
 H739 H 0.35680 0.80030 0.06467
 H740 H 0.39129 0.82262 0.08687
 H741 H 0.33864 0.76037 0.04716
 H742 H 0.37446 0.68872 0.06560
 H743 H 0.46866 0.74978 0.12624
 H744 H 0.43370 0.82189 0.10832
 C745 C 0.61379 0.25245 0.08651
 C746 C 0.63205 0.23845 0.07279
 C747 C 0.64898 0.25137 0.05655
 C748 C 0.64704 0.27793 0.05359
 C749 C 0.62939 0.29170 0.06830
 C750 C 0.61266 0.27909 0.08471
 C751 C 0.59433 0.23892 0.10169
 C752 C 0.57514 0.25298 0.11407
 C753 C 0.55508 0.24006 0.12615
 C754 C 0.55379 0.21334 0.12545
 C755 C 0.57391 0.19941 0.11431
 C756 C 0.59418 0.21218 0.10209
 C757 C 0.59396 0.29252 0.09837
 C758 C 0.57550 0.27966 0.11284
 C759 C 0.63207 0.21175 0.07463
 C760 C 0.61342 0.19884 0.08900
 H761 H 0.59307 0.31309 0.09724
 H762 H 0.56086 0.29066 0.12245
 H763 H 0.64610 0.20071 0.06424
 H764 H 0.61361 0.17822 0.08925
 H765 H 0.66248 0.24070 0.04514
 H766 H 0.62801 0.31219 0.06624
 H767 H 0.53961 0.25076 0.13487
 H768 H 0.57280 0.17881 0.11363
 C769 C 0.24624 0.08479 0.60579
 C770 C 0.27313 0.08701 0.60767
 C771 C 0.28614 0.07295 0.62594
 C772 C 0.27255 0.05652 0.64213
 C773 C 0.24543 0.05553 0.64098
 C774 C 0.23216 0.06944 0.62254
 C775 C 0.23281 0.09755 0.58493
 C776 C 0.20609 0.09425 0.58208
 C777 C 0.19378 0.10492 0.56107
 C778 C 0.20828 0.11824 0.54295
 C779 C 0.23483 0.12211 0.54666
 C780 C 0.24722 0.11171 0.56749
 C781 C 0.20532 0.06732 0.61962
 C782 C 0.19251 0.07952 0.59975
 C783 C 0.28669 0.10219 0.59042
 C784 C 0.27394 0.11436 0.57065
 H785 H 0.19420 0.05561 0.63243
 H786 H 0.17189 0.07688 0.59787
 H787 H 0.30744 0.10412 0.59180
 H788 H 0.28518 0.12538 0.55736
 H789 H 0.30700 0.07385 0.62681
 H790 H 0.23491 0.04270 0.65323
 H791 H 0.17334 0.10189 0.55819
 H792 H 0.24595 0.13262 0.53284
 C793 C 0.74460 0.07615 0.39842
 C794 C 0.71789 0.07248 0.40040
 C795 C 0.70555 0.05627 0.38355
 C796 C 0.71951 0.04383 0.36443
 C797 C 0.74617 0.04886 0.36184
 C798 C 0.75891 0.06460 0.37920
 C799 C 0.75792 0.09153 0.41753
 C800 C 0.78488 0.09402 0.41665
 C801 C 0.79758 0.10709 0.43608
 C802 C 0.78330 0.11738 0.45616
 C803 C 0.75621 0.11579 0.45585
 C804 C 0.74348 0.10257 0.43692
 C805 C 0.78576 0.06829 0.37837
 C806 C 0.79854 0.08262 0.39683
 C807 C 0.70406 0.08443 0.41970
 C808 C 0.71663 0.09935 0.43759
 H809 H 0.79709 0.05952 0.36366
 H810 H 0.81931 0.08445 0.39580
 H811 H 0.68339 0.08185 0.42126
 H812 H 0.70533 0.10788 0.45247
 H813 H 0.68499 0.05311 0.38566
 H814 H 0.75725 0.03949 0.34730
 H815 H 0.81843 0.10829 0.43616
 H816 H 0.74504 0.12418 0.47092
 C817 C 0.75054 0.91628 0.61420
 C818 C 0.72362 0.91456 0.61644
 C819 C 0.71072 0.93090 0.63287
 C820 C 0.72447 0.94891 0.64701
 C821 C 0.75158 0.94959 0.64558
 C822 C 0.76473 0.93350 0.62882
 C823 C 0.76387 0.90087 0.59507
 C824 C 0.79058 0.90376 0.59150
 C825 C 0.80270 0.89083 0.57162
 C826 C 0.78802 0.87558 0.55534
 C827 C 0.76158 0.87193 0.56004
 C828 C 0.74935 0.88470 0.57967
 C829 C 0.79158 0.93509 0.62546
 C830 C 0.80427 0.92052 0.60709
 C831 C 0.70995 0.89738 0.60138
 C832 C 0.72262 0.88264 0.58331
 H833 H 0.80280 0.94822 0.63663
 H834 H 0.82487 0.92289 0.60465
 H835 H 0.68919 0.89580 0.60309
 H836 H 0.71128 0.87012 0.57158
 H837 H 0.68986 0.93024 0.63404
 H838 H 0.76220 0.96361 0.65628
 H839 H 0.82303 0.89378 0.56788
 H840 H 0.75032 0.86012 0.54752
 C841 C 0.25100 0.91442 0.38688
 C842 C 0.27804 0.91402 0.38629
 C843 C 0.29111 0.92960 0.36921
 C844 C 0.27742 0.94581 0.35299
 C845 C 0.25029 0.94497 0.35275
 C846 C 0.23693 0.92949 0.36997
 C847 C 0.23728 0.90025 0.40673
 C848 C 0.21031 0.90203 0.40853
 C849 C 0.19766 0.89073 0.42906
 C850 C 0.21201 0.87839 0.44780
 C851 C 0.23880 0.87566 0.44504
 C852 C 0.25159 0.88669 0.42463
 C853 C 0.20989 0.92984 0.37163
 C854 C 0.19681 0.91635 0.39058
 C855 C 0.29157 0.89916 0.40374
 C856 C 0.27855 0.88572 0.42262
 H857 H 0.19878 0.94127 0.35867
 H858 H 0.17601 0.91780 0.39167
 H859 H 0.31244 0.89861 0.40332
 H860 H 0.28973 0.87518 0.43625
 H861 H 0.31201 0.93003 0.36934
 H862 H 0.23967 0.95754 0.34040
 H863 H 0.17703 0.89304 0.43139
 H864 H 0.24979 0.86619 0.45958
 C865 C 0.08291 0.39339 0.74775
 C866 C 0.06550 0.37709 0.76008
 C867 C 0.05031 0.36033 0.74580
 C868 C 0.05203 0.36055 0.71945
 C869 C 0.07014 0.37646 0.70755
 C870 C 0.08566 0.39287 0.72157
 C871 C 0.09749 0.41236 0.76234
 C872 C 0.11400 0.42930 0.74974
 C873 C 0.12610 0.44865 0.76323
 C874 C 0.12135 0.45167 0.78904
 C875 C 0.10575 0.43385 0.80175
 C876 C 0.09356 0.41417 0.78836
 C877 C 0.10310 0.40952 0.70980
 C878 C 0.11710 0.42739 0.72367
 C879 C 0.06285 0.37874 0.78626
 C880 C 0.07658 0.39700 0.80014
 H881 H 0.10548 0.40915 0.68963
 H882 H 0.12988 0.44033 0.71381
 H883 H 0.04954 0.36627 0.79603
 H884 H 0.07341 0.39806 0.82018
 H885 H 0.03621 0.34824 0.75501
 H886 H 0.07162 0.37657 0.68727
 H887 H 0.13828 0.46224 0.75346
 H888 H 0.10196 0.43621 0.82159
 C889 C 0.08640 0.60385 0.26585
 C890 C 0.07526 0.62370 0.25196
 C891 C 0.05904 0.64118 0.26416
 C892 C 0.05353 0.63846 0.28992
 C893 C 0.06568 0.61897 0.30367
 C894 C 0.08203 0.60157 0.29173
 C895 C 0.10169 0.58421 0.25283
 C896 C 0.11165 0.56367 0.26659
 C897 C 0.12411 0.54388 0.25390
 C898 C 0.12617 0.54420 0.22758
 C899 C 0.11730 0.56555 0.21414
 C900 C 0.10479 0.58555 0.22669
 C901 C 0.09321 0.58130 0.30499
 C902 C 0.10779 0.56267 0.29263
 C903 C 0.07965 0.62497 0.22598
 C904 C 0.09412 0.60621 0.21356
 H905 H 0.09009 0.57944 0.32500
 H906 H 0.11549 0.54697 0.30345
 H907 H 0.07125 0.64023 0.21504
 H908 H 0.09643 0.60755 0.19342
 H909 H 0.04969 0.65602 0.25339
 H910 H 0.06169 0.61678 0.32351
 H911 H 0.13113 0.52760 0.26435
 H912 H 0.11864 0.56580 0.19386
 C913 C 0.93330 0.39404 0.22904
 C914 C 0.91837 0.37318 0.23710
 C915 C 0.92964 0.35463 0.25267
 C916 C 0.95531 0.35754 0.26053
 C917 C 0.97011 0.37813 0.25178
 C918 C 0.95927 0.39641 0.23598
 C919 C 0.92119 0.41453 0.21428
 C920 C 0.93592 0.43587 0.20733
 C921 C 0.92385 0.45637 0.19544
 C922 C 0.89712 0.45598 0.19104
 C923 C 0.88283 0.43389 0.19685
 C924 C 0.89478 0.41312 0.20871
 C925 C 0.97363 0.41753 0.22778
 C926 C 0.96215 0.43692 0.21364
 C927 C 0.89226 0.37192 0.23023
 C928 C 0.88066 0.39158 0.21635
 H929 H 0.99375 0.41939 0.23287
 H930 H 0.97371 0.45324 0.20826
 H931 H 0.88052 0.35595 0.23621
 H932 H 0.86030 0.39019 0.21209
 H933 H 0.91827 0.33878 0.25960
 H934 H 0.98996 0.38017 0.25783
 H935 H 0.93494 0.47325 0.19081
 H936 H 0.86220 0.43358 0.19370
 C937 C 0.93769 0.60297 0.76091
 C938 C 0.92500 0.62490 0.75218
 C939 C 0.93869 0.64251 0.73731
 C940 C 0.96446 0.63760 0.73072
 C941 C 0.97698 0.61592 0.74007
 C942 C 0.96376 0.59858 0.75527
 C943 C 0.92308 0.58351 0.77498
 C944 C 0.93563 0.56116 0.78266
 C945 C 0.92125 0.54167 0.79383
 C946 C 0.89438 0.54401 0.79666
 C947 C 0.88224 0.56707 0.79019
 C948 C 0.89655 0.58689 0.77912
 C949 C 0.97585 0.57646 0.76415
 C950 C 0.96203 0.55808 0.77770
 C951 C 0.89870 0.62815 0.75768
 C952 C 0.88470 0.60943 0.77083
 H953 H 0.99602 0.57304 0.76006
 H954 H 0.97189 0.54095 0.78364
 H955 H 0.88867 0.64497 0.75116
 H956 H 0.86428 0.61235 0.77398
 H957 H 0.92909 0.65922 0.72991
 H958 H 0.99692 0.61234 0.73500
 H959 H 0.93067 0.52402 0.79900
 H960 H 0.86153 0.56886 0.79217
 C961 C 0.73594 0.60787 0.90953
 C962 C 0.70963 0.60531 0.91507
 C963 C 0.69783 0.62299 0.93089
 C964 C 0.71196 0.64350 0.94103
 C965 C 0.73804 0.64669 0.93398
 C966 C 0.75029 0.62850 0.91872
 C967 C 0.74898 0.58777 0.89501
 C968 C 0.77574 0.58912 0.89114
 C969 C 0.78843 0.56853 0.87968
 C970 C 0.77440 0.54679 0.87235
 C971 C 0.74737 0.54670 0.87477
 C972 C 0.73464 0.56682 0.88656
 C973 C 0.77682 0.62985 0.91340
 C974 C 0.78936 0.61042 0.90000
 C975 C 0.69576 0.58455 0.90549
 C976 C 0.70804 0.56569 0.89132
 H977 H 0.78816 0.64566 0.92031
 H978 H 0.80998 0.61181 0.89703
 H979 H 0.67537 0.58254 0.90947
 H980 H 0.69680 0.54964 0.88481
 H981 H 0.67765 0.62042 0.93562
 H982 H 0.74923 0.66230 0.94156
 H983 H 0.80924 0.56872 0.87794
 H984 H 0.73639 0.53027 0.86871
 C985 C 0.26218 0.39311 0.92551
 C986 C 0.28848 0.39662 0.93040
 C987 C 0.30120 0.37951 0.94615
 C988 C 0.28798 0.35868 0.95698
 C989 C 0.26182 0.35468 0.95078
 C990 C 0.24870 0.37219 0.93545
 C991 C 0.24824 0.41246 0.91079
 C992 C 0.22150 0.41005 0.90733
 C993 C 0.20796 0.42987 0.89548
 C994 C 0.22110 0.45193 0.88748
 C995 C 0.24810 0.45317 0.88965
 C996 C 0.26170 0.43375 0.90166
 C997 C 0.22216 0.36981 0.93064
 C998 C 0.20878 0.38847 0.91695
 C999 C 0.30145 0.41770 0.92015
 C1000 C 0.28829 0.43592 0.90591
 H1001 H 0.21150 0.35375 0.93812
 H1002 H 0.18820 0.38627 0.91433
 H1003 H 0.32182 0.42046 0.92364
 H1004 H 0.29886 0.45224 0.89886
 H1005 H 0.32139 0.38276 0.95026
 H1006 H 0.25131 0.33879 0.95886
 H1007 H 0.18716 0.42889 0.89392
 H1008 H 0.25833 0.46998 0.88320
 C1009 C 0.25729 0.60816 0.08459
 C1010 C 0.28396 0.60690 0.08041
 C1011 C 0.29567 0.62484 0.06473
 C1012 C 0.28115 0.64449 0.05352
 C1013 C 0.25458 0.64642 0.05919
 C1014 C 0.24243 0.62781 0.07419
 C1015 C 0.24457 0.58779 0.09918
 C1016 C 0.21762 0.58778 0.10187
 C1017 C 0.20549 0.56702 0.11389
 C1018 C 0.22035 0.54658 0.12306
 C1019 C 0.24743 0.54792 0.12156
 C1020 C 0.25958 0.56807 0.10918
 C1021 C 0.21560 0.62780 0.07820
 C1022 C 0.20340 0.60804 0.09162
 C1023 C 0.29837 0.58721 0.09132
 C1024 C 0.28639 0.56822 0.10565
 H1025 H 0.20385 0.64282 0.07031
 H1026 H 0.18262 0.60843 0.09364
 H1027 H 0.31901 0.58623 0.08839
 H1028 H 0.29813 0.55308 0.11337
 H1029 H 0.31618 0.62326 0.06107
 H1030 H 0.24307 0.66132 0.05071
 H1031 H 0.18465 0.56620 0.11502
 H1032 H 0.25907 0.53263 0.12916
 C1033 C 0.74180 0.39470 0.07767
 C1034 C 0.71530 0.39685 0.07308
 C1035 C 0.70313 0.37865 0.05817
 C1036 C 0.71710 0.35809 0.04789
 C1037 C 0.74347 0.35542 0.05390
 C1038 C 0.75603 0.37404 0.06835
 C1039 C 0.75509 0.41518 0.09140
 C1040 C 0.78194 0.41408 0.09452
 C1041 C 0.79476 0.43485 0.10548
 C1042 C 0.78080 0.45654 0.11303
 C1043 C 0.75374 0.45651 0.11117
 C1044 C 0.74085 0.43614 0.09997
 C1045 C 0.78271 0.37304 0.07281
 C1046 C 0.79546 0.39277 0.08555
 C1047 C 0.70157 0.41767 0.08272
 C1048 C 0.71412 0.43694 0.09607
 H1049 H 0.79396 0.35721 0.06580
 H1050 H 0.81615 0.39159 0.08794
 H1051 H 0.68104 0.41937 0.07946
 H1052 H 0.70295 0.45300 0.10269
 H1053 H 0.68276 0.38086 0.05422
 H1054 H 0.75454 0.33978 0.04622
 H1055 H 0.81560 0.43476 0.10679
 H1056 H 0.74282 0.47291 0.11740
 C1057 C 0.92051 0.73190 0.61062
 C1058 C 0.92545 0.70576 0.60839
 C1059 C 0.94166 0.69391 0.62576
 C1060 C 0.95310 0.70791 0.64539
 C1061 C 0.94669 0.73390 0.64816
 C1062 C 0.93078 0.74608 0.63051
 C1063 C 0.90543 0.74489 0.59098
 C1064 C 0.90183 0.77135 0.59223
 C1065 C 0.88950 0.78390 0.57229
 C1066 C 0.88113 0.77011 0.55118
 C1067 C 0.88364 0.74342 0.55100
 C1068 C 0.89609 0.73077 0.57063
 C1069 C 0.92585 0.77236 0.63168
 C1070 C 0.91171 0.78479 0.61283
 C1071 C 0.91496 0.69214 0.58823
 C1072 C 0.90045 0.70442 0.56970
 H1073 H 0.93358 0.78356 0.64694
 H1074 H 0.90899 0.80518 0.61413
 H1075 H 0.91851 0.67191 0.58643
 H1076 H 0.89324 0.69332 0.55413
 H1077 H 0.94594 0.67385 0.62343
 H1078 H 0.95519 0.74501 0.66310
 H1079 H 0.88775 0.80445 0.57252
 H1080 H 0.87686 0.73261 0.53504
 C1081 C 0.90517 0.26362 0.38287
 C1082 C 0.91559 0.24889 0.36339
 C1083 C 0.93081 0.26078 0.34488
 C1084 C 0.93661 0.28702 0.34654
 C1085 C 0.92471 0.30159 0.36554
 C1086 C 0.90911 0.29002 0.38372
 C1087 C 0.89140 0.25099 0.40371
 C1088 C 0.88226 0.26570 0.42378
 C1089 C 0.87162 0.25350 0.44472
 C1090 C 0.87080 0.22675 0.44610
 C1091 C 0.87867 0.21225 0.42526
 C1092 C 0.88922 0.22433 0.40402
 C1093 C 0.89858 0.30420 0.40352
 C1094 C 0.88530 0.29225 0.42319
 C1095 C 0.91182 0.22238 0.36369
 C1096 C 0.89896 0.21030 0.38369
 H1097 H 0.90134 0.32463 0.40424
 H1098 H 0.87818 0.30378 0.43852
 H1099 H 0.91966 0.21075 0.34876
 H1100 H 0.89729 0.18975 0.38358
 H1101 H 0.93967 0.24924 0.33042
 H1102 H 0.92846 0.32185 0.36694
 H1103 H 0.86528 0.26475 0.46058
 H1104 H 0.87820 0.19165 0.42628
 C1105 C 0.08472 0.26409 0.60341
 C1106 C 0.08137 0.29046 0.60101
 C1107 C 0.06651 0.30337 0.61875
 C1108 C 0.05472 0.29019 0.63885
 C1109 C 0.05979 0.26396 0.64195
 C1110 C 0.07436 0.25071 0.62392
 C1111 C 0.09793 0.25005 0.58322
 C1112 C 0.09974 0.22341 0.58460
 C1113 C 0.11001 0.20997 0.56413
 C1114 C 0.11795 0.22312 0.54239
 C1115 C 0.11734 0.24988 0.54199
 C1116 C 0.10707 0.26342 0.56218
 C1117 C 0.07763 0.22418 0.62523
 C1118 C 0.09003 0.21075 0.60587
 C1119 C 0.09182 0.30329 0.58022
 C1120 C 0.10453 0.28999 0.56113
 H1121 H 0.06983 0.21359 0.64096
 H1122 H 0.09142 0.19023 0.60727
 H1123 H 0.08949 0.32369 0.57832
 H1124 H 0.11165 0.30049 0.54504
 H1125 H 0.06334 0.32361 0.61624
 H1126 H 0.05100 0.25350 0.65729
 H1127 H 0.11038 0.18934 0.56446
 H1128 H 0.12377 0.26007 0.52541
 C1129 C 0.06158 0.74835 0.40342
 C1130 C 0.06961 0.75008 0.37833
 C1131 C 0.05685 0.73544 0.36006
 C1132 C 0.03770 0.71772 0.36728
 C1133 C 0.03052 0.71596 0.39275
 C1134 C 0.04166 0.73181 0.41063
 C1135 C 0.07467 0.76361 0.42272
 C1136 C 0.06578 0.76250 0.44753
 C1137 C 0.07885 0.77604 0.46600
 C1138 C 0.10219 0.78869 0.46051
 C1139 C 0.11035 0.79053 0.43528
 C1140 C 0.09633 0.77827 0.41621
 C1141 C 0.03320 0.73137 0.43563
 C1142 C 0.04476 0.74684 0.45370
 C1143 C 0.09055 0.76601 0.37224
 C1144 C 0.10396 0.77950 0.39091
 H1145 H 0.01754 0.71893 0.44128
 H1146 H 0.03781 0.74583 0.47284
 H1147 H 0.09708 0.76752 0.35299
 H1148 H 0.12050 0.79088 0.38550
 H1149 H 0.06262 0.73696 0.34057
 H1150 H 0.01534 0.70301 0.39860
 H1151 H 0.07148 0.77550 0.48501
 H1152 H 0.12811 0.80034 0.43062
 C1153 C 0.60754 0.92362 0.74717
 C1154 C 0.62436 0.93951 0.76058
 C1155 C 0.64331 0.95344 0.74745
 C1156 C 0.64487 0.95193 0.72112
 C1157 C 0.62849 0.93512 0.70821
 C1158 C 0.60977 0.92101 0.72108
 C1159 C 0.58627 0.91058 0.76044
 C1160 C 0.56883 0.89575 0.74670
 C1161 C 0.54757 0.88500 0.75892
 C1162 C 0.54336 0.88921 0.78465
 C1163 C 0.56155 0.90323 0.79850
 C1164 C 0.58302 0.91422 0.78635
 C1165 C 0.59248 0.90524 0.70817
 C1166 C 0.57235 0.89279 0.72078
 C1167 C 0.62104 0.94200 0.78663
 C1168 C 0.60074 0.92960 0.79928
 H1169 H 0.59412 0.90300 0.68805
 H1170 H 0.55904 0.88128 0.71004
 H1171 H 0.63387 0.95414 0.79724
 H1172 H 0.59856 0.93253 0.81926
 H1173 H 0.65568 0.96655 0.75747
 H1174 H 0.62966 0.93381 0.68796
 H1175 H 0.53372 0.87400 0.74827
 H1176 H 0.55830 0.90659 0.81829
 C1177 C 0.39229 0.92209 0.25124
 C1178 C 0.37552 0.93828 0.23812
 C1179 C 0.35695 0.95226 0.25155
 C1180 C 0.35576 0.95052 0.27788
 C1181 C 0.37211 0.93348 0.29053
 C1182 C 0.39041 0.91927 0.27735
 C1183 C 0.41311 0.90889 0.23762
 C1184 C 0.43047 0.89364 0.25104
 C1185 C 0.45129 0.88264 0.23846
 C1186 C 0.45522 0.88710 0.21272
 C1187 C 0.43711 0.90156 0.19919
 C1188 C 0.41604 0.91273 0.21169
 C1189 C 0.40761 0.90313 0.28995
 C1190 C 0.42729 0.89048 0.27700
 C1191 C 0.37847 0.94098 0.21205
 C1192 C 0.39839 0.92845 0.19907
 H1193 H 0.40623 0.90073 0.31008
 H1194 H 0.44054 0.87866 0.28749
 H1195 H 0.36567 0.95336 0.20166
 H1196 H 0.40032 0.93154 0.17907
 H1197 H 0.34457 0.96555 0.24176
 H1198 H 0.37118 0.93199 0.31079
 H1199 H 0.46502 0.87123 0.24885
 H1200 H 0.44012 0.90506 0.17938
 C1201 C 0.61372 0.07399 0.25755
 C1202 C 0.63010 0.05722 0.24464
 C1203 C 0.64774 0.04237 0.25832
 C1204 C 0.64832 0.04383 0.28467
 C1205 C 0.63245 0.06146 0.29711
 C1206 C 0.61511 0.07654 0.28369
 C1207 C 0.59365 0.08800 0.24368
 C1208 C 0.57654 0.10372 0.25692
 C1209 C 0.55622 0.11530 0.24414
 C1210 C 0.55256 0.11098 0.21839
 C1211 C 0.57049 0.09613 0.20502
 C1212 C 0.59105 0.08434 0.21772
 C1213 C 0.59827 0.09322 0.29609
 C1214 C 0.57932 0.10663 0.28291
 C1215 C 0.62757 0.05478 0.21852
 C1216 C 0.60838 0.06808 0.20530
 H1217 H 0.59930 0.09542 0.31624
 H1218 H 0.56627 0.11881 0.29325
 H1219 H 0.64009 0.04197 0.20829
 H1220 H 0.60670 0.06512 0.18530
 H1221 H 0.65974 0.02860 0.24871
 H1222 H 0.63292 0.06268 0.31739
 H1223 H 0.54254 0.12691 0.25440
 H1224 H 0.56763 0.09270 0.18520
 C1225 C 0.38579 0.08223 0.74747
 C1226 C 0.38391 0.08573 0.72145
 C1227 C 0.36566 0.07176 0.70800
 C1228 C 0.34941 0.05426 0.72029
 C1229 C 0.35052 0.05189 0.74657
 C1230 C 0.36902 0.06564 0.76026
 C1231 C 0.40673 0.09499 0.76128
 C1232 C 0.40974 0.09034 0.78706
 C1233 C 0.43104 0.10091 0.79963
 C1234 C 0.44929 0.11553 0.78631
 C1235 C 0.44527 0.12084 0.76076
 C1236 C 0.42420 0.11048 0.74811
 C1237 C 0.37202 0.06221 0.78623
 C1238 C 0.39203 0.07432 0.79939
 C1239 C 0.40116 0.10219 0.70916
 C1240 C 0.42096 0.11440 0.72229
 H1241 H 0.35921 0.04952 0.79637
 H1242 H 0.39402 0.07063 0.81927
 H1243 H 0.39977 0.10513 0.68911
 H1244 H 0.43428 0.12643 0.71200
 H1245 H 0.36481 0.07370 0.68779
 H1246 H 0.33823 0.03821 0.75607
 H1247 H 0.43417 0.09672 0.81928
 H1248 H 0.45920 0.13228 0.75054
 C1249 C 0.60977 0.75326 0.07384
 C1250 C 0.61178 0.72676 0.07664
 C1251 C 0.62914 0.71335 0.06157
 C1252 C 0.64433 0.72613 0.04364
 C1253 C 0.64314 0.75287 0.04190
 C1254 C 0.62554 0.76655 0.05681
 C1255 C 0.58968 0.76707 0.08792
 C1256 C 0.58648 0.79337 0.08410
 C1257 C 0.56590 0.80598 0.09604
 C1258 C 0.54853 0.79217 0.11117
 C1259 C 0.55271 0.76610 0.11555
 C1260 C 0.57310 0.75341 0.10387
 C1261 C 0.62242 0.79301 0.05418
 C1262 C 0.60323 0.80618 0.06757
 C1263 C 0.59551 0.71398 0.09355
 C1264 C 0.57649 0.72710 0.10697
 H1265 H 0.63447 0.80353 0.04117
 H1266 H 0.60109 0.82645 0.06449
 H1267 H 0.59702 0.69355 0.09593
 H1268 H 0.56387 0.71643 0.11935
 H1269 H 0.63007 0.69278 0.06303
 H1270 H 0.65462 0.76276 0.02793
 H1271 H 0.56259 0.82604 0.09258
 H1272 H 0.53938 0.75552 0.12732
 C1273 C 0.39716 0.24930 0.08495
 C1274 C 0.39595 0.27590 0.08714
 C1275 C 0.37822 0.28942 0.07264
 C1276 C 0.36179 0.27664 0.05594
 C1277 C 0.36226 0.24985 0.05482
 C1278 C 0.38026 0.23606 0.06909
 C1279 C 0.41748 0.23526 0.09842
 C1280 C 0.41983 0.20882 0.09514
 C1281 C 0.44057 0.19593 0.10645
 C1282 C 0.45890 0.20958 0.12045
 C1283 C 0.45552 0.23583 0.12439
 C1284 C 0.43504 0.24881 0.11327
 C1285 C 0.38258 0.20948 0.06700
 C1286 C 0.40204 0.19610 0.07977
 C1287 C 0.41328 0.28861 0.10293
 C1288 C 0.43249 0.27527 0.11582
 H1289 H 0.36966 0.19899 0.05489
 H1290 H 0.40352 0.17572 0.07712
 H1291 H 0.41240 0.30911 0.10485
 H1292 H 0.44590 0.28585 0.12734
 H1293 H 0.37783 0.31003 0.07365
 H1294 H 0.34979 0.23996 0.04179
 H1295 H 0.44321 0.17572 0.10333
 H1296 H 0.46951 0.24631 0.13537
 C1297 C 0.61102 0.24543 0.92080
 C1298 C 0.62652 0.23226 0.93805
 C1299 C 0.64457 0.24593 0.95239
 C1300 C 0.64643 0.27257 0.94991
 C1301 C 0.63149 0.28520 0.93180
 C1302 C 0.61373 0.27179 0.91726
 C1303 C 0.59045 0.23172 0.90736
 C1304 C 0.57416 0.24533 0.89122
 C1305 C 0.55328 0.23286 0.88022
 C1306 C 0.54831 0.20708 0.88549
 C1307 C 0.56539 0.19326 0.90078
 C1308 C 0.58648 0.20565 0.91202
 C1309 C 0.59773 0.28447 0.90016
 C1310 C 0.57827 0.27145 0.88732
 C1311 C 0.62265 0.20598 0.94148
 C1312 C 0.60298 0.19292 0.92872
 H1313 H 0.59979 0.30479 0.89720
 H1314 H 0.56586 0.28206 0.87480
 H1315 H 0.63447 0.19554 0.95467
 H1316 H 0.60024 0.17281 0.93244
 H1317 H 0.65585 0.23620 0.96653
 H1318 H 0.63295 0.30570 0.92981
 H1319 H 0.54011 0.24344 0.86839
 H1320 H 0.56144 0.17344 0.90496
 C1321 C 0.38422 0.75518 0.92098
 C1322 C 0.36904 0.76841 0.93847
 C1323 C 0.35150 0.75475 0.95359
 C1324 C 0.34985 0.72805 0.95165
 C1325 C 0.36453 0.71532 0.93337
 C1326 C 0.38174 0.72874 0.91802
 C1327 C 0.40420 0.76895 0.90658
 C1328 C 0.42016 0.75533 0.89011
 C1329 C 0.44053 0.76791 0.87816
 C1330 C 0.44539 0.79381 0.88283
 C1331 C 0.42858 0.80762 0.89846
 C1332 C 0.40797 0.79513 0.91062
 C1333 C 0.39741 0.71601 0.90062
 C1334 C 0.41628 0.72910 0.88686
 C1335 C 0.37267 0.79479 0.94129
 C1336 C 0.39181 0.80790 0.92765
 H1337 H 0.39553 0.69564 0.89810
 H1338 H 0.42844 0.71846 0.87410
 H1339 H 0.36109 0.80527 0.95466
 H1340 H 0.39439 0.82808 0.93092
 H1341 H 0.34045 0.76458 0.96785
 H1342 H 0.36325 0.69478 0.93177
 H1343 H 0.45346 0.75730 0.86606
 H1344 H 0.43242 0.82753 0.90221
 C1345 C 0.74286 0.90955 0.40307
 C1346 C 0.75752 0.92064 0.38374
 C1347 C 0.74517 0.93600 0.36583
 C1348 C 0.71847 0.94062 0.36758
 C1349 C 0.70402 0.92859 0.38662
 C1350 C 0.71609 0.91316 0.40444
 C1351 C 0.75590 0.89497 0.42298
 C1352 C 0.74128 0.88499 0.44290
 C1353 C 0.75391 0.87300 0.46281
 C1354 C 0.78098 0.87130 0.46313
 C1355 C 0.79532 0.88031 0.44248
 C1356 C 0.78285 0.89243 0.42240
 C1357 C 0.70203 0.90205 0.42417
 C1358 C 0.71442 0.88819 0.44308
 C1359 C 0.78435 0.91693 0.38332
 C1360 C 0.79680 0.90308 0.40233
 H1361 H 0.68134 0.90461 0.42532
 H1362 H 0.70296 0.88046 0.45831
 H1363 H 0.79591 0.92529 0.36849
 H1364 H 0.81757 0.90119 0.40159
 H1365 H 0.75646 0.94525 0.35131
 H1366 H 0.68344 0.93186 0.38802
 H1367 H 0.74280 0.86587 0.47857
 H1368 H 0.81618 0.87920 0.44276
 C1369 C 0.24979 0.92545 0.60078
 C1370 C 0.27682 0.92662 0.60083
 C1371 C 0.28929 0.94104 0.61915
 C1372 C 0.27500 0.95439 0.63731
 C1373 C 0.24792 0.95219 0.63771
 C1374 C 0.23517 0.93791 0.61924
 C1375 C 0.23658 0.91181 0.58039
 C1376 C 0.20951 0.91144 0.57961
 C1377 C 0.19710 0.89957 0.55935
 C1378 C 0.21172 0.88853 0.53992
 C1379 C 0.23880 0.88843 0.54152
 C1380 C 0.25132 0.90016 0.56155
 C1381 C 0.20812 0.93658 0.61822
 C1382 C 0.19551 0.92358 0.59876
 C1383 C 0.29088 0.91411 0.58203
 C1384 C 0.27833 0.90106 0.56272
 H1385 H 0.19658 0.94606 0.63234
 H1386 H 0.17464 0.92341 0.59846
 H1387 H 0.31175 0.91482 0.58197
 H1388 H 0.28987 0.89203 0.54832
 H1389 H 0.31013 0.94251 0.61882
 H1390 H 0.23680 0.96258 0.65153
 H1391 H 0.17625 0.89970 0.55820
 H1392 H 0.25014 0.87954 0.52686
 C1393 C 0.25294 0.08286 0.39194
 C1394 C 0.23872 0.07005 0.37347
 C1395 C 0.25172 0.05430 0.35631
 C1396 C 0.27860 0.05097 0.35806
 C1397 C 0.29254 0.06462 0.37621
 C1398 C 0.27985 0.08053 0.39320
 C1399 C 0.23932 0.09791 0.41115
 C1400 C 0.25357 0.10964 0.43025
 C1401 C 0.24051 0.12193 0.44971
 C1402 C 0.21340 0.12212 0.45050
 C1403 C 0.19933 0.11148 0.43056
 C1404 C 0.21226 0.09908 0.41088
 C1405 C 0.29348 0.09337 0.41203
 C1406 C 0.28055 0.10772 0.43024
 C1407 C 0.21173 0.07247 0.37323
 C1408 C 0.19873 0.08670 0.39163
 H1409 H 0.31427 0.09182 0.41306
 H1410 H 0.29172 0.11679 0.44484
 H1411 H 0.20051 0.06277 0.35907
 H1412 H 0.17788 0.08750 0.39113
 H1413 H 0.24086 0.04377 0.34245
 H1414 H 0.31326 0.06235 0.37754
 H1415 H 0.25136 0.13027 0.46497
 H1416 H 0.17845 0.11144 0.43123
 C1417 C 0.74617 0.08712 0.60814
 C1418 C 0.71916 0.08544 0.60822
 C1419 C 0.70698 0.06923 0.62538
 C1420 C 0.72150 0.05462 0.64236
 C1421 C 0.74852 0.05734 0.64288
 C1422 C 0.76101 0.07338 0.62549
 C1423 C 0.75914 0.10234 0.58853
 C1424 C 0.78621 0.10272 0.58729
 C1425 C 0.79837 0.11511 0.56704
 C1426 C 0.78349 0.12649 0.54807
 C1427 C 0.75649 0.12710 0.55038
 C1428 C 0.74419 0.11486 0.57041
 C1429 C 0.78804 0.07511 0.62432
 C1430 C 0.80041 0.08948 0.60553
 C1431 C 0.70488 0.09915 0.59044
 C1432 C 0.71720 0.11364 0.57185
 H1433 H 0.79975 0.06471 0.63762
 H1434 H 0.82128 0.08968 0.60488
 H1435 H 0.68403 0.09811 0.59046
 H1436 H 0.70550 0.12333 0.55802
 H1437 H 0.68616 0.06740 0.62502
 H1438 H 0.75981 0.04603 0.65582
 H1439 H 0.81916 0.11438 0.56509
 H1440 H 0.74505 0.13580 0.53570
 C1441 C 0.91754 0.60551 0.25179
 C1442 C 0.93077 0.62557 0.23992
 C1443 C 0.94541 0.64252 0.25449
 C1444 C 0.94712 0.63909 0.28063
 C1445 C 0.93282 0.61949 0.29220
 C1446 C 0.91821 0.60255 0.27791
 C1447 C 0.90396 0.58638 0.23652
 C1448 C 0.89215 0.56552 0.24844
 C1449 C 0.88143 0.54615 0.23384
 C1450 C 0.88259 0.54746 0.20756
 C1451 C 0.89330 0.56903 0.19580
 C1452 C 0.90436 0.58849 0.21027
 C1453 C 0.90519 0.58204 0.28919
 C1454 C 0.89241 0.56379 0.27468
 C1455 C 0.92995 0.62756 0.21365
 C1456 C 0.91695 0.60935 0.19909
 H1457 H 0.90549 0.57968 0.30936
 H1458 H 0.88324 0.54785 0.28405
 H1459 H 0.93996 0.64297 0.20423
 H1460 H 0.91736 0.61126 0.17888
 H1461 H 0.95641 0.65750 0.24542
 H1462 H 0.93380 0.61680 0.31233
 H1463 H 0.87323 0.52946 0.24283
 H1464 H 0.89443 0.56984 0.17553
 C1465 C 0.91350 0.39450 0.73840
 C1466 C 0.91686 0.39737 0.71245
 C1467 C 0.93292 0.38045 0.69964
 C1468 C 0.94599 0.36099 0.71258
 C1469 C 0.94144 0.35750 0.73839
 C1470 C 0.92536 0.37446 0.75149
 C1471 C 0.89872 0.41383 0.75234
 C1472 C 0.89666 0.41194 0.77853
 C1473 C 0.88481 0.43176 0.79192
 C1474 C 0.87581 0.45347 0.77921
 C1475 C 0.87692 0.45449 0.75291
 C1476 C 0.88847 0.43478 0.73937
 C1477 C 0.92193 0.37261 0.77757
 C1478 C 0.90782 0.39102 0.79086
 C1479 C 0.90521 0.41790 0.69999
 C1480 C 0.89127 0.43633 0.71324
 H1481 H 0.93086 0.35721 0.78790
 H1482 H 0.90630 0.38928 0.81104
 H1483 H 0.90759 0.42018 0.67994
 H1484 H 0.88331 0.45234 0.70305
 H1485 H 0.93614 0.38314 0.67973
 H1486 H 0.95152 0.34264 0.74849
 H1487 H 0.88423 0.43117 0.81222
 H1488 H 0.87005 0.47130 0.74319
 C1489 C 0.09398 0.60780 0.74750
 C1490 C 0.09468 0.60794 0.72121
 C1491 C 0.07968 0.62559 0.70816
 C1492 C 0.06366 0.64271 0.72113
 C1493 C 0.06431 0.64343 0.74749
 C1494 C 0.07925 0.62571 0.76082
 C1495 C 0.10736 0.58736 0.76122
 C1496 C 0.10530 0.58613 0.78745
 C1497 C 0.11597 0.56524 0.80018
 C1498 C 0.12794 0.54551 0.78667
 C1499 C 0.13085 0.54763 0.76055
 C1500 C 0.12048 0.56844 0.74770
 C1501 C 0.07858 0.62451 0.78713
 C1502 C 0.09141 0.60506 0.80022
 C1503 C 0.10911 0.58945 0.70843
 C1504 C 0.12180 0.57000 0.72147
 H1505 H 0.06740 0.63824 0.79765
 H1506 H 0.08975 0.60440 0.82045
 H1507 H 0.10988 0.58950 0.68814
 H1508 H 0.13202 0.55560 0.71088
 H1509 H 0.07932 0.62504 0.68785
 H1510 H 0.05181 0.65641 0.75756
 H1511 H 0.11355 0.56349 0.82029
 H1512 H 0.14019 0.53248 0.75019
 C1513 C 0.08249 0.38577 0.25057
 C1514 C 0.08517 0.38138 0.27639
 C1515 C 0.06981 0.36287 0.28797
 C1516 C 0.05163 0.34901 0.27404
 C1517 C 0.05022 0.35245 0.24791
 C1518 C 0.06544 0.37115 0.23608
 C1519 C 0.09643 0.40724 0.23889
 C1520 C 0.09264 0.41273 0.21338
 C1521 C 0.10449 0.43438 0.20286
 C1522 C 0.11941 0.45062 0.21797
 C1523 C 0.12362 0.44435 0.24326
 C1524 C 0.11214 0.42277 0.25385
 C1525 C 0.06284 0.37665 0.21041
 C1526 C 0.07623 0.39704 0.19925
 C1527 C 0.10194 0.39667 0.29046
 C1528 C 0.11522 0.41703 0.27936
 H1529 H 0.04979 0.36553 0.19900
 H1530 H 0.07318 0.40098 0.17955
 H1531 H 0.10421 0.39336 0.31038
 H1532 H 0.12743 0.42881 0.29101
 H1533 H 0.07081 0.36033 0.30812
 H1534 H 0.03587 0.34214 0.23722
 H1535 H 0.10116 0.43928 0.18340
 H1536 H 0.13529 0.45677 0.25483
   
