data_POSCAR
  _audit_creation_date              2014-09-24
  _audit_creation_method            'ToBaCCo'
  _symmetry_space_group_name_H-M    'P1'
  _symmetry_Int_Tables_number       1
  _symmetry_cell_setting            triclinic
  loop_
  _symmetry_equiv_pos_as_xyz
 x,y,z
_cell_length_a 63.4374
_cell_length_b 62.9355
_cell_length_c 60.6165
_cell_angle_alpha 90.397300
_cell_angle_beta 90.215700
_cell_angle_gamma 90.430900
loop_
  _atom_site_label
  _atom_site_type_symbol
  _atom_site_fract_x
  _atom_site_fract_y
  _atom_site_fract_z
N1 N 0.31112 0.34037 0.34607
 N2 N 0.34777 0.83611 -0.14834
 N3 N 0.83602 0.33818 -0.16073
 N4 N 0.84301 0.87602 0.34919
 N5 N 0.66496 0.66864 0.33885
 N6 N 0.65155 0.15334 -0.17846
 N7 N 0.17088 0.63923 -0.17550
 N8 N 0.14416 0.14625 0.31408
 N9 N 0.64982 0.36968 0.64686
 N10 N 0.67040 0.85263 1.15368
 N11 N 0.16384 0.34778 1.14326
 N12 N 0.18086 0.83295 0.66099
 N13 N 0.36794 0.63257 0.66409
 N14 N 0.33010 0.14662 1.15927
 N15 N 0.85342 0.65857 1.17141
 N16 N 0.83823 0.15422 0.63597
 N17 N 0.33844 0.31972 0.63672
 N18 N 0.34439 0.83714 0.14990
 N19 N 0.83047 0.34358 0.14967
 N20 N 0.86258 0.84257 0.65375
 N21 N 0.67296 0.67306 0.66732
 N22 N 0.62650 0.16272 0.15471
 N23 N 0.13859 0.66139 0.16513
 N24 N 0.13799 0.12261 0.65482
 N25 N 0.36312 0.65311 0.33419
 N26 N 0.35939 0.15660 0.83660
 N27 N 0.86434 0.65558 0.84794
 N28 N 0.84303 0.17891 0.33644
 N29 N 0.63061 0.36079 0.34366
 N30 N 0.67559 0.83639 0.84334
 N31 N 0.15250 0.32483 0.82726
 N32 N 0.16784 0.82875 0.35775
 O33 O 0.23982 0.96583 0.27588
 O34 O 0.26808 1.00487 0.24130
 O35 O 0.26808 0.96357 0.24489
 O36 O 0.23812 1.00705 0.27028
 O37 O 0.26283 1.01105 0.29575
 O38 O 0.29236 0.96654 0.27094
 O39 O 0.29281 1.00764 0.26694
 O40 O 0.26410 0.97002 0.30179
 Cu41 Cu 0.25104 0.98495 0.25553
 Cu42 Cu 0.28043 0.98913 0.28646
 C43 C 0.24730 0.96128 0.29476
 C44 C 0.28532 1.01288 0.24837
 C45 C 0.28526 0.95758 0.25356
 C46 C 0.24550 1.01672 0.28708
 O47 O 0.29279 0.45056 0.75018
 O48 O 0.26522 0.49168 0.78188
 O49 O 0.25796 0.45172 0.77304
 O50 O 0.29892 0.49091 0.75772
 O51 O 0.28044 0.49874 0.72796
 O52 O 0.23956 0.46020 0.74342
 O53 O 0.24687 0.50018 0.75223
 O54 O 0.27414 0.45843 0.72054
 Cu55 Cu 0.28056 0.47032 0.76868
 Cu56 Cu 0.25839 0.48019 0.73306
 C57 C 0.28822 0.44747 0.73002
 C58 C 0.25153 0.50308 0.77245
 C59 C 0.24175 0.44938 0.76082
 C60 C 0.29654 0.50155 0.74017
 O61 O 0.73115 0.00451 0.28740
 O62 O 0.70881 0.04225 0.24749
 O63 O 0.70629 0.00147 0.25327
 O64 O 0.73277 0.04567 0.28220
 O65 O 0.76063 0.04212 0.26078
 O66 O 0.73419 -0.00272 0.23203
 O67 O 0.73662 0.03822 0.22611
 O68 O 0.75908 0.00098 0.26610
 Cu69 Cu 0.71698 0.02387 0.26976
 Cu70 Cu 0.75046 0.01923 0.24415
 C71 C 0.74895 -0.00375 0.28343
 C72 C 0.71892 0.04665 0.23002
 C73 C 0.71569 -0.00819 0.23779
 C74 C 0.75105 0.05159 0.27634
 O75 O 0.75072 0.48647 0.73124
 O76 O 0.78232 0.52283 0.76659
 O77 O 0.77429 0.48196 0.76616
 O78 O 0.75928 0.52706 0.73129
 O79 O 0.73157 0.53274 0.75242
 O80 O 0.74640 0.48721 0.78711
 O81 O 0.75451 0.52795 0.78772
 O82 O 0.72296 0.49231 0.75225
 Cu83 Cu 0.76947 0.50401 0.74674
 Cu84 Cu 0.73611 0.51061 0.77201
 C85 C 0.73140 0.48328 0.73577
 C86 C 0.77368 0.53164 0.78315
 C87 C 0.76286 0.47677 0.78245
 C88 C 0.74288 0.53760 0.73591
 O89 O 0.23764 0.48424 0.22774
 O90 O 0.26691 0.52758 0.25649
 O91 O 0.26802 0.48628 0.25669
 O92 O 0.24142 0.52542 0.22246
 O93 O 0.21635 0.52862 0.24736
 O94 O 0.24237 0.48734 0.28121
 O95 O 0.24230 0.52794 0.28220
 O96 O 0.21262 0.48657 0.25290
 Cu97 Cu 0.25596 0.50573 0.23834
 Cu98 Cu 0.22576 0.50833 0.26777
 C99 C 0.22011 0.47797 0.23573
 C100 C 0.25955 0.53488 0.27454
 C101 C 0.25986 0.47991 0.27450
 C102 C 0.22458 0.53395 0.22906
 O103 O 0.72702 0.97785 0.73942
 O104 O 0.76092 1.01850 0.71389
 O105 O 0.75696 0.97726 0.71032
 O106 O 0.73139 1.01892 0.74360
 O107 O 0.75507 1.01444 0.76993
 O108 O 0.78072 0.97299 0.73660
 O109 O 0.78465 1.01420 0.74020
 O110 O 0.75075 0.97338 0.76570
 Cu111 Cu 0.74171 0.99860 0.72416
 Cu112 Cu 0.77019 0.99335 0.75574
 C113 C 0.73314 0.96860 0.75681
 C114 C 0.77851 1.02334 0.72273
 C115 C 0.77310 0.96793 0.71788
 C116 C 0.73891 1.02377 0.76246
 O117 O 0.75008 0.51787 0.22142
 O118 O 0.72491 0.47850 0.25747
 O119 O 0.72031 0.51897 0.25058
 O120 O 0.75532 0.47754 0.22874
 O121 O 0.77863 0.48473 0.25494
 O122 O 0.74350 0.52616 0.27690
 O123 O 0.74821 0.48555 0.28372
 O124 O 0.77334 0.52513 0.24767
 Cu125 Cu 0.73533 0.49742 0.23693
 Cu126 Cu 0.76326 0.50611 0.26845
 C127 C 0.76591 0.52833 0.22848
 C128 C 0.73221 0.47530 0.27669
 C129 C 0.72601 0.52973 0.26738
 C130 C 0.77293 0.47407 0.23807
 O131 O 0.22380 0.00774 0.76832
 O132 O 0.26442 -0.02726 0.79125
 O133 O 0.25579 0.01305 0.79484
 O134 O 0.23237 -0.03253 0.76500
 O135 O 0.25276 -0.02584 0.73638
 O136 O 0.27640 0.01950 0.76634
 O137 O 0.28486 -0.02086 0.76260
 O138 O 0.24434 0.01444 0.73983
 Cu139 Cu 0.24205 -0.01039 0.78275
 Cu140 Cu 0.26666 -0.00248 0.74843
 C141 C 0.22716 0.01705 0.75016
 C142 C 0.28145 -0.03021 0.78074
 C143 C 0.27008 0.02404 0.78566
 C144 C 0.23860 -0.03697 0.74565
 O145 O 0.26286 0.22086 1.01453
 O146 O 0.24280 0.25583 0.97124
 O147 O 0.23691 0.25260 1.01346
 O148 O 0.26808 0.22350 0.97211
 O149 O 0.24138 0.20131 0.96672
 O150 O 0.21011 0.23063 1.00768
 O151 O 0.21610 0.23375 0.96535
 O152 O 0.23604 0.19882 1.00922
 Cu153 Cu 0.25536 0.24040 0.99340
 Cu154 Cu 0.22321 0.21390 0.98665
 C155 C 0.25290 0.20396 1.01934
 C156 C 0.22606 0.25079 0.96092
 C157 C 0.21818 0.24657 1.01757
 C158 C 0.26001 0.20741 0.96241
 O159 O 0.25637 0.74364 0.48416
 O160 O 0.29112 0.72044 0.52623
 O161 O 0.28783 0.71728 0.48313
 O162 O 0.25856 0.74563 0.52694
 O163 O 0.23684 0.71817 0.52961
 O164 O 0.26615 0.68989 0.48648
 O165 O 0.26923 0.69321 0.52943
 O166 O 0.23467 0.71619 0.48691
 Cu167 Cu 0.27573 0.73444 0.50483
 Cu168 Cu 0.24963 0.70157 0.50839
 C169 C 0.23957 0.73395 0.47844
 C170 C 0.28597 0.70303 0.53521
 C171 C 0.28178 0.69877 0.47726
 C172 C 0.24258 0.73669 0.53558
 O173 O 0.23529 0.71328 0.01800
 O174 O 0.26045 0.74831 -0.02258
 O175 O 0.25977 0.74676 0.02038
 O176 O 0.23400 0.71648 -0.02513
 O177 O 0.20655 0.73775 -0.02286
 O178 O 0.23243 0.76827 0.02141
 O179 O 0.23302 0.76968 -0.02140
 O180 O 0.20815 0.73495 0.02008
 Cu181 Cu 0.25008 0.72901 -0.00250
 Cu182 Cu 0.21728 0.75475 -0.00059
 C183 C 0.21763 0.71824 0.02620
 C184 C 0.25109 0.76495 -0.02890
 C185 C 0.25037 0.76278 0.02854
 C186 C 0.21581 0.72212 -0.03171
 O187 O 0.19743 0.21185 0.47121
 O188 O 0.21937 0.24585 0.51562
 O189 O 0.21605 0.24872 0.47307
 O190 O 0.19968 0.20937 0.51425
 O191 O 0.23046 0.19346 0.51137
 O192 O 0.24666 0.23255 0.46960
 O193 O 0.25007 0.22988 0.51205
 O194 O 0.22799 0.19548 0.46837
 Cu195 Cu 0.20500 0.23046 0.49388
 Cu196 Cu 0.24183 0.21115 0.48999
 C197 C 0.20907 0.19798 0.46213
 C198 C 0.23856 0.24378 0.52121
 C199 C 0.23416 0.24742 0.46441
 C200 C 0.21233 0.19488 0.52003
 O201 O 0.78890 0.79429 0.98223
 O202 O 0.81488 0.76803 1.02898
 O203 O 0.81733 0.76484 0.98618
 O204 O 0.78678 0.79748 1.02488
 O205 O 0.76159 0.77306 1.02511
 O206 O 0.79216 0.74040 0.98616
 O207 O 0.78979 0.74350 1.02912
 O208 O 0.76374 0.76985 0.98240
 Cu209 Cu 0.80453 0.78358 1.00551
 Cu210 Cu 0.77432 0.75419 1.00570
 C211 C 0.77184 0.78663 0.97445
 C212 C 0.80668 0.75140 1.03712
 C213 C 0.80995 0.74714 0.97951
 C214 C 0.76901 0.79086 1.03160
 O215 O 0.73928 0.29426 0.47685
 O216 O 0.76192 0.25319 0.51317
 O217 O 0.76360 0.26148 0.47125
 O218 O 0.73982 0.28709 0.51945
 O219 O 0.71063 0.26827 0.51444
 O220 O 0.73532 0.24122 0.46681
 O221 O 0.73293 0.23391 0.50899
 O222 O 0.71106 0.27401 0.47203
 Cu223 Cu 0.75400 0.27603 0.49561
 Cu224 Cu 0.71961 0.25239 0.49013
 C225 C 0.72130 0.29094 0.46809
 C226 C 0.75112 0.23659 0.51732
 C227 C 0.75372 0.24690 0.46091
 C228 C 0.72126 0.28211 0.52518
 O229 O 0.75525 0.24972 -0.03109
 O230 O 0.73064 0.21445 0.01020
 O231 O 0.72571 0.22077 -0.03205
 O232 O 0.76179 0.24162 0.01041
 O233 O 0.73901 0.26682 0.01860
 O234 O 0.70264 0.24577 -0.02419
 O235 O 0.70779 0.23964 0.01810
 O236 O 0.73219 0.27465 -0.02290
 Cu237 Cu 0.74560 0.22911 -0.01146
 Cu238 Cu 0.71809 0.25919 -0.00176
 C239 C 0.74784 0.26823 -0.03396
 C240 C 0.71504 0.22117 0.02127
 C241 C 0.70815 0.22969 -0.03553
 C242 C 0.75663 0.25776 0.02171
 O243 O 0.70873 0.77671 0.47909
 O244 O 0.73687 0.80717 0.52278
 O245 O 0.73464 0.80907 0.47993
 O246 O 0.70923 0.77626 0.52206
 O247 O 0.73570 0.75367 0.52098
 O248 O 0.76106 0.78649 0.47801
 O249 O 0.76317 0.78448 0.52067
 O250 O 0.73514 0.75410 0.47795
 Cu251 Cu 0.71971 0.79456 0.50112
 Cu252 Cu 0.75138 0.76739 0.49920
 C253 C 0.71724 0.76012 0.47116
 C254 C 0.75493 0.80095 0.52905
 C255 C 0.75214 0.80350 0.47182
 C256 C 0.71808 0.75951 0.52882
 O257 O 0.97975 0.27865 0.21208
 O258 O 1.02101 0.24570 0.23831
 O259 O 0.98007 0.24415 0.23520
 O260 O 1.02133 0.27947 0.21352
 O261 O 1.02007 0.29910 0.24379
 O262 O 0.97755 0.26439 0.26498
 O263 O 1.01843 0.26542 0.26846
 O264 O 0.97892 0.29895 0.24193
 Cu265 Cu 1.00079 0.26011 0.22168
 Cu266 Cu 0.99861 0.28398 0.25776
 C267 C 0.97216 0.29428 0.22280
 C268 C 1.02651 0.24996 0.25807
 C269 C 0.97162 0.24832 0.25364
 C270 C 1.02801 0.29507 0.22503
 O271 O 0.52506 0.25055 0.75506
 O272 O 0.48092 0.27600 0.72645
 O273 O 0.52190 0.27815 0.72348
 O274 O 0.48425 0.24899 0.75831
 O275 O 0.48501 0.27523 0.78270
 O276 O 0.52289 0.30420 0.74807
 O277 O 0.48168 0.30234 0.75070
 O278 O 0.52587 0.27660 0.77965
 Cu279 Cu 0.50298 0.26082 0.73834
 Cu280 Cu 0.50395 0.29228 0.76768
 C281 C 0.53295 0.25914 0.77225
 C282 C 0.47361 0.29337 0.73380
 C283 C 0.52897 0.29605 0.72998
 C284 C 0.47817 0.25718 0.77640
 O285 O 0.01038 0.22966 0.78606
 O286 O -0.03037 0.19857 0.75688
 O287 O 0.01045 0.20213 0.75377
 O288 O -0.03058 0.22676 0.78847
 O289 O -0.03377 0.25272 0.76439
 O290 O 0.00665 0.22884 0.72901
 O291 O -0.03399 0.22449 0.73284
 O292 O 0.00722 0.25553 0.76188
 Cu293 Cu -0.00969 0.21178 0.77367
 Cu294 Cu -0.01386 0.24292 0.74475
 C295 C 0.01584 0.24777 0.77894
 C296 C -0.03919 0.20624 0.73995
 C297 C 0.01643 0.21090 0.73456
 C298 C -0.03920 0.24388 0.78228
 O299 O 0.49605 0.25512 0.28313
 O300 O 0.45634 0.23140 0.24607
 O301 O 0.49723 0.23477 0.24567
 O302 O 0.45500 0.25307 0.28267
 O303 O 0.45338 0.28320 0.26432
 O304 O 0.49524 0.26476 0.22710
 O305 O 0.45432 0.26147 0.22764
 O306 O 0.49459 0.28520 0.26467
 Cu307 Cu 0.47635 0.24059 0.26625
 Cu308 Cu 0.47421 0.27671 0.24412
 C309 C 0.50220 0.27410 0.28019
 C310 C 0.44851 0.24233 0.23059
 C311 C 0.50338 0.24665 0.23004
 C312 C 0.44692 0.27123 0.27970
 O313 O 0.99771 0.76394 0.73112
 O314 O 1.04061 0.73249 0.75639
 O315 O 0.99963 0.72860 0.75320
 O316 O 1.03889 0.76557 0.73113
 O317 O 1.03740 0.78505 0.76151
 O318 O 0.99719 0.74793 0.78362
 O319 O 1.03800 0.75192 0.78674
 O320 O 0.99620 0.78337 0.76154
 Cu321 Cu 1.01937 0.74571 0.73994
 Cu322 Cu 1.01693 0.76902 0.77634
 C323 C 0.98969 0.77908 0.74223
 C324 C 1.04663 0.73708 0.77594
 C325 C 0.99165 0.73187 0.77203
 C326 C 1.04512 0.78139 0.74253
 O327 O 0.49012 0.75003 0.20945
 O328 O 0.53215 0.73313 0.24715
 O329 O 0.49130 0.73136 0.24758
 O330 O 0.53130 0.75282 0.20964
 O331 O 0.52985 0.78375 0.22694
 O332 O 0.48983 0.76242 0.26467
 O333 O 0.53081 0.76405 0.26451
 O334 O 0.48866 0.78106 0.22659
 Cu335 Cu 0.51135 0.73876 0.22665
 Cu336 Cu 0.50966 0.77598 0.24734
 C337 C 0.48206 0.76828 0.21172
 C338 C 0.53861 0.74564 0.26228
 C339 C 0.48379 0.74325 0.26261
 C340 C 0.53757 0.77191 0.21203
 O341 O 0.01918 0.77726 0.28459
 O342 O -0.02214 0.75076 0.25146
 O343 O 0.01862 0.75222 0.25049
 O344 O -0.02182 0.77502 0.28648
 O345 O -0.02373 0.80309 0.26492
 O346 O 0.01682 0.78008 0.22862
 O347 O -0.02408 0.77885 0.22992
 O348 O 0.01737 0.80526 0.26291
 Cu349 Cu -0.00140 0.76103 0.27048
 Cu350 Cu -0.00360 0.79470 0.24448
 C351 C 0.02546 0.79572 0.27922
 C352 C -0.03003 0.76023 0.23495
 C353 C 0.02459 0.76215 0.23343
 C354 C -0.02972 0.79288 0.28183
 O355 O 0.48998 0.76789 0.77674
 O356 O 0.53136 0.73994 0.74500
 O357 O 0.49038 0.74332 0.74190
 O358 O 0.53120 0.76636 0.77806
 O359 O 0.52907 0.73854 0.79994
 O360 O 0.48681 0.71608 0.76439
 O361 O 0.52749 0.71219 0.76679
 O362 O 0.48800 0.74053 0.79930
 Cu363 Cu 0.51097 0.75715 0.75821
 Cu364 Cu 0.50751 0.72412 0.78484
 C365 C 0.48204 0.75884 0.79353
 C366 C 0.53639 0.72120 0.75064
 C367 C 0.48156 0.72589 0.74695
 C368 C 0.53739 0.75629 0.79491
 C369 C 0.32974 0.33659 0.33308
 C370 C 0.34618 0.32396 0.34090
 C371 C 0.36511 0.31797 0.32800
 C372 C 0.37863 0.30258 0.33677
 C373 C 0.39636 0.29585 0.32511
 C374 C 0.40097 0.30437 0.30428
 C375 C 0.38781 0.32018 0.29577
 C376 C 0.37006 0.32692 0.30742
 C377 C 0.41932 0.29741 0.29105
 C378 C 0.42971 0.27817 0.29420
 H379 H 0.34481 0.31755 0.35737
 H380 H 0.37538 0.29559 0.35270
 H381 H 0.40643 0.28416 0.33266
 H382 H 0.39116 0.32722 0.27988
 H383 H 0.36047 0.33912 0.30012
 H384 H 0.42411 0.30737 0.27741
 H385 H 0.33078 0.34387 0.31703
 H386 H 0.42464 0.26732 0.30690
 C387 C 0.36619 0.83064 0.83902
 C388 C 0.38194 0.81752 0.84739
 C389 C 0.40091 0.81095 0.83485
 C390 C 0.41744 0.80123 0.84635
 C391 C 0.43523 0.79388 0.83521
 C392 C 0.43681 0.79595 0.81219
 C393 C 0.42060 0.80616 0.80072
 C394 C 0.40272 0.81342 0.81184
 C395 C 0.45489 0.78724 0.79974
 C396 C 0.46559 0.76920 0.80669
 H397 H 0.38057 0.81216 0.86427
 H398 H 0.41656 0.79920 0.86406
 H399 H 0.44771 0.78666 0.84471
 H400 H 0.42147 0.80796 0.78298
 H401 H 0.39029 0.82042 0.80216
 H402 H 0.45857 0.79393 0.78378
 H403 H 0.36811 0.83770 0.82295
 H404 H 0.46075 0.76128 0.82166
 C405 C -0.14592 0.32946 0.82821
 C406 C -0.13644 0.31052 0.83478
 C407 C -0.11836 0.30093 0.82307
 C408 C -0.10554 0.28644 0.83427
 C409 C -0.08852 0.27682 0.82364
 C410 C -0.08416 0.28135 0.80141
 C411 C -0.09701 0.29582 0.79024
 C412 C -0.11400 0.30541 0.80084
 C413 C -0.06641 0.27163 0.78927
 C414 C -0.05583 0.25337 0.79594
 H415 H -0.14193 0.30277 0.84960
 H416 H -0.10860 0.28268 0.85138
 H417 H -0.07878 0.26612 0.83303
 H418 H -0.09406 0.29954 0.77309
 H419 H -0.12386 0.31594 0.79138
 H420 H -0.06211 0.27871 0.77365
 H421 H -0.13896 0.33847 0.81491
 H422 H -0.06022 0.24526 0.81091
 C423 C -0.13873 0.86950 0.33693
 C424 C -0.12675 0.85182 0.34262
 C425 C -0.10860 0.84437 0.32943
 C426 C -0.09366 0.83118 0.33942
 C427 C -0.07660 0.82339 0.32738
 C428 C -0.07429 0.82846 0.30495
 C429 C -0.08912 0.84179 0.29501
 C430 C -0.10620 0.84952 0.30702
 C431 C -0.05674 0.82023 0.29143
 C432 C -0.04613 0.80151 0.29630
 H433 H -0.13029 0.84347 0.35773
 H434 H -0.09515 0.82697 0.35665
 H435 H -0.06520 0.81364 0.33581
 H436 H -0.08771 0.84588 0.27774
 H437 H -0.11767 0.85909 0.29847
 H438 H -0.05298 0.82847 0.27629
 H439 H -0.13375 0.87925 0.32324
 H440 H -0.05053 0.79224 0.31055
 C441 C 0.64807 0.67475 0.32430
 C442 C 0.63150 0.68752 0.33153
 C443 C 0.61434 0.69516 0.31703
 C444 C 0.60247 0.71268 0.32399
 C445 C 0.58624 0.72060 0.31082
 C446 C 0.58153 0.71108 0.29030
 C447 C 0.59306 0.69323 0.28359
 C448 C 0.60929 0.68533 0.29676
 C449 C 0.56447 0.71878 0.27571
 C450 C 0.55534 0.73885 0.27748
 H451 H 0.63145 0.69284 0.34856
 H452 H 0.60583 0.72035 0.33969
 H453 H 0.57735 0.73393 0.31699
 H454 H 0.58952 0.68538 0.26804
 H455 H 0.61751 0.67136 0.29107
 H456 H 0.55932 0.70834 0.26243
 H457 H 0.64849 0.66930 0.30736
 H458 H 0.56070 0.75012 0.28985
 C459 C 0.63244 0.16306 0.81385
 C460 C 0.62954 0.18505 0.81463
 C461 C 0.61097 0.19596 0.80519
 C462 C 0.60701 0.21702 0.81162
 C463 C 0.59006 0.22817 0.80265
 C464 C 0.57667 0.21843 0.78695
 C465 C 0.58076 0.19744 0.78039
 C466 C 0.59770 0.18631 0.78933
 C467 C 0.55881 0.22960 0.77641
 C468 C 0.55056 0.24888 0.78380
 H469 H 0.64154 0.19485 0.82247
 H470 H 0.61715 0.22494 0.82357
 H471 H 0.58789 0.24447 0.80782
 H472 H 0.57089 0.18963 0.76812
 H473 H 0.60049 0.17040 0.78329
 H474 H 0.55151 0.22197 0.76220
 H475 H 0.62076 0.15295 0.80597
 H476 H 0.55674 0.25665 0.79842
 C477 C 1.15158 0.64823 0.81639
 C478 C 1.14829 0.67013 0.81581
 C479 C 1.12949 0.67988 0.80554
 C480 C 1.12383 0.70048 0.81200
 C481 C 1.10637 0.71039 0.80256
 C482 C 1.09419 0.69986 0.78633
 C483 C 1.10020 0.67949 0.77939
 C484 C 1.11762 0.66954 0.78890
 C485 C 1.07567 0.70998 0.77589
 C486 C 1.06401 0.72565 0.78653
 H487 H 1.15992 0.68062 0.82331
 H488 H 1.13294 0.70896 0.82444
 H489 H 1.10279 0.72643 0.80774
 H490 H 1.09133 0.67122 0.76662
 H491 H 1.12193 0.65400 0.78280
 H492 H 1.07077 0.70456 0.75964
 H493 H 1.14004 0.63759 0.80902
 H494 H 1.06786 0.73013 0.80334
 C495 C 1.12823 0.15605 0.30053
 C496 C 1.11619 0.17313 0.30819
 C497 C 1.10078 0.18503 0.29475
 C498 C 1.09565 0.20567 0.30158
 C499 C 1.08074 0.21749 0.29011
 C500 C 1.07015 0.20875 0.27169
 C501 C 1.07558 0.18822 0.26453
 C502 C 1.09071 0.17640 0.27596
 C503 C 1.05362 0.22072 0.25971
 C504 C 1.04244 0.23727 0.26958
 H505 H 1.11870 0.17886 0.32487
 H506 H 1.10333 0.21279 0.31585
 H507 H 1.07781 0.23354 0.29570
 H508 H 1.06779 0.18117 0.25030
 H509 H 1.09403 0.16043 0.27036
 H510 H 1.04968 0.21595 0.24298
 H511 H 1.12577 0.15010 0.28392
 H512 H 1.04522 0.24126 0.28673
 C513 C 0.63117 0.36052 0.65657
 C514 C 0.62558 0.36423 0.67855
 C515 C 0.60708 0.35435 0.68945
 C516 C 0.59076 0.34406 0.67760
 C517 C 0.57393 0.33452 0.68872
 C518 C 0.57298 0.33521 0.71187
 C519 C 0.58880 0.34614 0.72361
 C520 C 0.60571 0.35552 0.71253
 C521 C 0.55568 0.32494 0.72425
 C522 C 0.54464 0.30716 0.71639
 H523 H 0.63593 0.37394 0.68875
 H524 H 0.59064 0.34345 0.65979
 H525 H 0.56157 0.32694 0.67909
 H526 H 0.58829 0.34710 0.74145
 H527 H 0.61788 0.36357 0.72208
 H528 H 0.55269 0.33053 0.74089
 H529 H 0.62210 0.34931 0.64675
 H530 H 0.54851 0.30028 0.70052
 C531 C 0.65196 0.84550 0.16539
 C532 C 0.63641 0.83291 0.15526
 C533 C 0.61733 0.82509 0.16677
 C534 C 0.60643 0.80746 0.15801
 C535 C 0.58855 0.79934 0.16854
 C536 C 0.58117 0.80880 0.18812
 C537 C 0.59167 0.82687 0.19644
 C538 C 0.60953 0.83497 0.18593
 C539 C 0.56270 0.80051 0.20036
 C540 C 0.55430 0.78008 0.19757
 H541 H 0.63860 0.82801 0.13827
 H542 H 0.61189 0.79979 0.14305
 H543 H 0.58059 0.78583 0.16112
 H544 H 0.58612 0.83468 0.21129
 H545 H 0.61691 0.84908 0.19278
 H546 H 0.55625 0.81055 0.21323
 H547 H 0.65023 0.85022 0.18247
 H548 H 0.56080 0.76925 0.18553
 C549 C 1.14700 0.33661 0.15425
 C550 C 1.12954 0.34710 0.16297
 C551 C 1.11099 0.33569 0.17203
 C552 C 1.09804 0.34599 0.18743
 C553 C 1.08020 0.33575 0.19598
 C554 C 1.07489 0.31497 0.18912
 C555 C 1.08759 0.30490 0.17335
 C556 C 1.10542 0.31508 0.16490
 C557 C 1.05613 0.30334 0.19743
 C558 C 1.04540 0.30849 0.21682
 H559 H 1.12945 0.36430 0.16320
 H560 H 1.10178 0.36201 0.19289
 H561 H 1.07054 0.34432 0.20762
 H562 H 1.08370 0.28903 0.16751
 H563 H 1.11447 0.30688 0.15243
 H564 H 1.05123 0.28922 0.18839
 H565 H 1.14752 0.31944 0.15471
 H566 H 1.05046 0.32181 0.22693
 C567 C 1.16177 0.82226 0.66773
 C568 C 1.14552 0.83293 0.67864
 C569 C 1.12634 0.82222 0.68711
 C570 C 1.11505 0.83188 0.70430
 C571 C 1.09712 0.82206 0.71310
 C572 C 1.09004 0.80236 0.70471
 C573 C 1.10097 0.79306 0.68705
 C574 C 1.11891 0.80283 0.67832
 C575 C 1.07145 0.79091 0.71361
 C576 C 1.06187 0.79533 0.73386
 H577 H 1.14730 0.84977 0.68200
 H578 H 1.12027 0.84698 0.71114
 H579 H 1.08889 0.83008 0.72628
 H580 H 1.09570 0.77805 0.68004
 H581 H 1.12665 0.79522 0.66455
 H582 H 1.06575 0.77732 0.70418
 H583 H 1.16026 0.80541 0.66446
 H584 H 1.06737 0.80831 0.74419
 C585 C 0.38576 0.64069 0.67636
 C586 C 0.38872 0.66239 0.68041
 C587 C 0.40579 0.67118 0.69466
 C588 C 0.41097 0.69282 0.69300
 C589 C 0.42669 0.70188 0.70637
 C590 C 0.43764 0.68943 0.72178
 C591 C 0.43214 0.66790 0.72378
 C592 C 0.41641 0.65883 0.71042
 C593 C 0.45435 0.69834 0.73642
 C594 C 0.46507 0.71732 0.73219
 H595 H 0.37799 0.67352 0.67286
 H596 H 0.40279 0.70279 0.68131
 H597 H 0.42984 0.71870 0.70477
 H598 H 0.44004 0.65802 0.73577
 H599 H 0.41243 0.64231 0.71293
 H600 H 0.45889 0.68921 0.75074
 H601 H 0.39649 0.62937 0.68352
 H602 H 0.46170 0.72620 0.71740
 C603 C 0.34611 0.15586 0.17338
 C604 C 0.36136 0.16994 0.16531
 C605 C 0.37764 0.18047 0.17926
 C606 C 0.38768 0.19882 0.17131
 C607 C 0.40311 0.20933 0.18388
 C608 C 0.40887 0.20162 0.20477
 C609 C 0.39917 0.18300 0.21250
 C610 C 0.38373 0.17251 0.19994
 C611 C 0.42523 0.21203 0.21873
 C612 C 0.43247 0.23286 0.21586
 H613 H 0.36098 0.17400 0.14799
 H614 H 0.38351 0.20510 0.15529
 H615 H 0.41061 0.22322 0.17696
 H616 H 0.40355 0.17652 0.22837
 H617 H 0.37697 0.15803 0.20640
 H618 H 0.43137 0.20303 0.23247
 H619 H 0.34611 0.15174 0.19066
 H620 H 0.42603 0.24273 0.20301
 C621 C -0.13133 0.67048 0.18414
 C622 C -0.11543 0.68259 0.17438
 C623 C -0.09923 0.69418 0.18743
 C624 C -0.08945 0.71213 0.17832
 C625 C -0.07426 0.72359 0.19032
 C626 C -0.06850 0.71720 0.21171
 C627 C -0.07782 0.69887 0.22051
 C628 C -0.09301 0.68745 0.20854
 C629 C -0.05251 0.72872 0.22514
 C630 C -0.04616 0.74962 0.22125
 H631 H -0.11520 0.68417 0.15660
 H632 H -0.09370 0.71739 0.16193
 H633 H -0.06694 0.73717 0.18259
 H634 H -0.07338 0.69336 0.23676
 H635 H -0.09950 0.67319 0.21578
 H636 H -0.04589 0.72052 0.23920
 H637 H -0.13177 0.66903 0.20191
 H638 H -0.05308 0.75862 0.20798
 C639 C -0.14146 0.15974 0.64504
 C640 C -0.13779 0.16025 0.66776
 C641 C -0.11872 0.16996 0.67792
 C642 C -0.11337 0.16457 0.69963
 C643 C -0.09619 0.17428 0.71025
 C644 C -0.08400 0.18971 0.69930
 C645 C -0.08947 0.19523 0.67766
 C646 C -0.10661 0.18550 0.66705
 C647 C -0.06629 0.20117 0.71017
 C648 C -0.05582 0.19375 0.72883
 H649 H -0.14970 0.15386 0.67867
 H650 H -0.12267 0.15294 0.70851
 H651 H -0.09297 0.17004 0.72717
 H652 H -0.08057 0.20730 0.66899
 H653 H -0.11063 0.19077 0.65064
 H654 H -0.06107 0.21600 0.70294
 H655 H -0.12961 0.16588 0.63394
 H656 H -0.05978 0.17841 0.73565
 C657 C 0.29825 0.35868 0.34178
 C658 C 0.30701 0.37781 0.33450
 C659 C 0.29472 0.39691 0.32843
 C660 C 0.30587 0.41559 0.32334
 C661 C 0.29531 0.43359 0.31595
 C662 C 0.27328 0.43330 0.31334
 C663 C 0.26198 0.41502 0.31935
 C664 C 0.27255 0.39691 0.32664
 C665 C 0.26198 0.45145 0.30350
 C666 C 0.27121 0.46365 0.28699
 H667 H 0.32401 0.37887 0.33315
 H668 H 0.32289 0.41617 0.32475
 H669 H 0.30446 0.44766 0.31213
 H670 H 0.24498 0.41448 0.31758
 H671 H 0.26323 0.38293 0.33020
 H672 H 0.24550 0.45372 0.30742
 H673 H 0.28155 0.35756 0.34500
 H674 H 0.28699 0.45995 0.28150
 C675 C 0.33533 -0.14594 0.84513
 C676 C 0.34443 -0.12722 0.83724
 C677 C 0.33180 -0.10860 0.83073
 C678 C 0.34013 -0.09425 0.81539
 C679 C 0.32829 -0.07692 0.80827
 C680 C 0.30784 -0.07359 0.81649
 C681 C 0.29994 -0.08742 0.83256
 C682 C 0.31175 -0.10472 0.83965
 C683 C 0.29410 -0.05620 0.80875
 C684 C 0.29730 -0.04501 0.78923
 H685 H 0.36136 -0.12643 0.83506
 H686 H 0.35572 -0.09666 0.80861
 H687 H 0.33531 -0.06627 0.79643
 H688 H 0.28441 -0.08502 0.83948
 H689 H 0.30513 -0.11485 0.85223
 H690 H 0.27987 -0.05317 0.81806
 H691 H 0.31839 -0.14705 0.84681
 H692 H 0.31096 -0.04795 0.77910
 C693 C 0.83106 0.36000 0.83476
 C694 C 0.81033 0.36710 0.83267
 C695 C 0.80482 0.38808 0.82327
 C696 C 0.78464 0.39635 0.82698
 C697 C 0.77846 0.41545 0.81723
 C698 C 0.79240 0.42665 0.80342
 C699 C 0.81255 0.41834 0.79974
 C700 C 0.81871 0.39931 0.80946
 C701 C 0.78641 0.44627 0.79157
 C702 C 0.76847 0.45829 0.79601
 H703 H 0.79753 0.35657 0.83729
 H704 H 0.77351 0.38787 0.83726
 H705 H 0.76261 0.42095 0.82014
 H706 H 0.82352 0.42645 0.78896
 H707 H 0.83410 0.39322 0.80540
 H708 H 0.79680 0.45156 0.77852
 H709 H 0.84395 0.37059 0.83071
 H710 H 0.75815 0.45419 0.80950
 C711 C 0.83486 -0.10326 0.34435
 C712 C 0.81330 -0.09970 0.34163
 C713 C 0.80469 -0.08031 0.33127
 C714 C 0.78329 -0.07553 0.33406
 C715 C 0.77422 -0.05834 0.32309
 C716 C 0.78646 -0.04562 0.30897
 C717 C 0.80787 -0.05034 0.30632
 C718 C 0.81691 -0.06746 0.31727
 C719 C 0.77743 -0.02832 0.29552
 C720 C 0.75766 -0.01930 0.29897
 H721 H 0.80226 -0.11209 0.34624
 H722 H 0.77345 -0.08537 0.34448
 H723 H 0.75755 -0.05562 0.32520
 H724 H 0.81760 -0.04099 0.29533
 H725 H 0.83325 -0.07093 0.31393
 H726 H 0.78689 -0.02249 0.28197
 H727 H 0.84603 -0.09088 0.34020
 H728 H 0.74821 -0.02374 0.31302
 C729 C 0.36060 0.61126 0.66816
 C730 C 0.35935 0.60315 0.68952
 C731 C 0.34797 0.58325 0.69510
 C732 C 0.35115 0.57423 0.71596
 C733 C 0.33954 0.55639 0.72252
 C734 C 0.32440 0.54720 0.70827
 C735 C 0.32141 0.55610 0.68734
 C736 C 0.33295 0.57392 0.68082
 C737 C 0.31050 0.52927 0.71473
 C738 C 0.31248 0.51758 0.73413
 H739 H 0.36618 0.61232 0.70297
 H740 H 0.36243 0.58125 0.72738
 H741 H 0.34218 0.55033 0.73892
 H742 H 0.30971 0.54951 0.67611
 H743 H 0.32938 0.58063 0.66490
 H744 H 0.29759 0.52532 0.70364
 H745 H 0.35439 0.60215 0.65440
 H746 H 0.32555 0.52023 0.74531
 C747 C 0.31907 1.12766 0.16601
 C748 C 0.32883 1.11208 0.17870
 C749 C 0.31804 1.09277 0.18706
 C750 C 0.33035 1.07687 0.19671
 C751 C 0.32092 1.05891 0.20597
 C752 C 0.29887 1.05654 0.20592
 C753 C 0.28655 1.07205 0.19567
 C754 C 0.29596 1.09009 0.18650
 C755 C 0.28828 1.03849 0.21692
 C756 C 0.29690 1.02871 0.23540
 H757 H 0.34543 1.11402 0.18250
 H758 H 0.34737 1.07843 0.19728
 H759 H 0.33097 1.04695 0.21313
 H760 H 0.26952 1.07053 0.19538
 H761 H 0.28574 1.10198 0.17959
 H762 H 0.27240 1.03425 0.21179
 H763 H 0.30306 1.12527 0.16034
 H764 H 0.31200 1.03402 0.24181
 C765 C 0.84618 0.63893 0.18083
 C766 C 0.82741 0.62884 0.17448
 C767 C 0.81890 0.61020 0.18634
 C768 C 0.80560 0.59582 0.17516
 C769 C 0.79702 0.57828 0.18611
 C770 C 0.80135 0.57503 0.20864
 C771 C 0.81463 0.58947 0.21976
 C772 C 0.82321 0.60693 0.20884
 C773 C 0.79239 0.55707 0.22130
 C774 C 0.77539 0.54457 0.21421
 H775 H 0.81859 0.63467 0.16048
 H776 H 0.80199 0.59806 0.15786
 H777 H 0.78722 0.56737 0.17673
 H778 H 0.81813 0.58745 0.23713
 H779 H 0.83276 0.61805 0.21827
 H780 H 0.79881 0.55429 0.23762
 H781 H 0.85530 0.63229 0.19421
 H782 H 0.76804 0.54722 0.19837
 C783 C 0.82517 1.13779 0.64539
 C784 C 0.83384 1.11924 0.65399
 C785 C 0.82123 1.10198 0.66417
 C786 C 0.83141 1.08756 0.67811
 C787 C 0.82016 1.07102 0.68806
 C788 C 0.79839 1.06853 0.68422
 C789 C 0.78832 1.08266 0.66987
 C790 C 0.79955 1.09921 0.65994
 C791 C 0.78573 1.05126 0.69432
 C792 C 0.79204 1.03982 0.71286
 H793 H 0.85082 1.11759 0.65388
 H794 H 0.84815 1.08913 0.68138
 H795 H 0.82872 1.06013 0.69842
 H796 H 0.77164 1.08092 0.66633
 H797 H 0.79120 1.10946 0.64873
 H798 H 0.77027 1.04800 0.68736
 H799 H 0.80831 1.14003 0.64564
 H800 H 0.80686 1.04339 0.72097
 C801 C 0.67789 0.65066 0.33331
 C802 C 0.66966 0.63275 0.32243
 C803 C 0.68222 0.61397 0.31568
 C804 C 0.67247 0.59833 0.30244
 C805 C 0.68363 0.58053 0.29521
 C806 C 0.70496 0.57801 0.30101
 C807 C 0.71457 0.59335 0.31470
 C808 C 0.70341 0.61113 0.32196
 C809 C 0.71770 0.55973 0.29334
 C810 C 0.71212 0.54666 0.27551
 H811 H 0.65301 0.63258 0.31837
 H812 H 0.65611 0.59991 0.29756
 H813 H 0.67534 0.56882 0.28529
 H814 H 0.73090 0.59169 0.31965
 H815 H 0.71159 0.62238 0.33249
 H816 H 0.73275 0.55716 0.30137
 H817 H 0.69428 0.65119 0.33815
 H818 H 0.69769 0.54932 0.26645
 C819 C 0.65928 1.13546 0.80908
 C820 C 0.67486 1.12193 0.81717
 C821 C 0.68376 1.10396 0.80437
 C822 C 0.69478 1.08812 0.81569
 C823 C 0.70394 1.07120 0.80426
 C824 C 0.70246 1.06990 0.78112
 C825 C 0.69129 1.08562 0.76981
 C826 C 0.68218 1.10258 0.78124
 C827 C 0.71213 1.05240 0.76829
 C828 C 0.72905 1.04043 0.77597
 H829 H 0.68041 1.12414 0.83395
 H830 H 0.69624 1.08879 0.83350
 H831 H 0.71189 1.05911 0.81367
 H832 H 0.68993 1.08500 0.75200
 H833 H 0.67435 1.11470 0.77176
 H834 H 0.70645 1.04962 0.75162
 H835 H 0.65208 1.13201 0.79324
 H836 H 0.73593 1.04378 0.79198
 C837 C 0.17876 0.62106 0.81269
 C838 C 0.19305 0.60690 0.82201
 C839 C 0.20131 0.58822 0.80995
 C840 C 0.20886 0.57092 0.82202
 C841 C 0.21709 0.55315 0.81123
 C842 C 0.21824 0.55248 0.78804
 C843 C 0.21056 0.56974 0.77598
 C844 C 0.20231 0.58750 0.78677
 C845 C 0.22731 0.53424 0.77587
 C846 C 0.24135 0.51996 0.78534
 H847 H 0.19753 0.60891 0.83916
 H848 H 0.20824 0.57109 0.83988
 H849 H 0.22226 0.53996 0.82115
 H850 H 0.21129 0.56965 0.75813
 H851 H 0.19720 0.60075 0.77688
 H852 H 0.22389 0.53282 0.75839
 H853 H 0.17235 0.61765 0.79646
 H854 H 0.24604 0.52171 0.80242
 C855 C 0.15304 1.12639 0.30673
 C856 C 0.17346 1.12028 0.31271
 C857 C 0.18363 1.10003 0.30611
 C858 C 0.20505 1.09730 0.31128
 C859 C 0.21548 1.07859 0.30556
 C860 C 0.20466 1.06202 0.29460
 C861 C 0.18326 1.06470 0.28942
 C862 C 0.17277 1.08340 0.29523
 C863 C 0.21535 1.04230 0.28736
 C864 C 0.23426 1.03506 0.29642
 H865 H 0.18286 1.13126 0.32251
 H866 H 0.21384 1.10982 0.31963
 H867 H 0.23211 1.07746 0.30931
 H868 H 0.17457 1.05221 0.28090
 H869 H 0.15623 1.08454 0.29120
 H870 H 0.20792 1.03304 0.27431
 H871 H 0.14397 1.11674 0.29529
 H872 H 0.24133 1.04318 0.31042
 C873 C 0.65904 0.38894 0.65567
 C874 C 0.68055 0.39351 0.65368
 C875 C 0.69127 0.41065 0.66643
 C876 C 0.71057 0.41880 0.65889
 C877 C 0.72164 0.43412 0.67123
 C878 C 0.71373 0.44154 0.69146
 C879 C 0.69450 0.43313 0.69914
 C880 C 0.68341 0.41791 0.68676
 C881 C 0.72637 0.45721 0.70445
 C882 C 0.71832 0.46890 0.72214
 H883 H 0.69010 0.38368 0.64299
 H884 H 0.71714 0.41322 0.64345
 H885 H 0.73652 0.44011 0.66502
 H886 H 0.68816 0.43763 0.71499
 H887 H 0.66909 0.41135 0.69365
 H888 H 0.74267 0.45973 0.69980
 H889 H 0.64926 0.39943 0.66537
 H890 H 0.70186 0.46759 0.72648
 C891 C 0.68212 -0.12913 0.16163
 C892 C 0.67235 -0.11233 0.17267
 C893 C 0.68368 -0.09347 0.18173
 C894 C 0.67180 -0.07589 0.18850
 C895 C 0.68161 -0.05801 0.19784
 C896 C 0.70360 -0.05740 0.20078
 C897 C 0.71557 -0.07477 0.19365
 C898 C 0.70575 -0.09272 0.18441
 C899 C 0.71446 -0.03897 0.21117
 C900 C 0.70468 -0.02589 0.22666
 H901 H 0.65535 -0.11273 0.17426
 H902 H 0.65481 -0.07597 0.18656
 H903 H 0.67192 -0.04466 0.20252
 H904 H 0.73254 -0.07465 0.19572
 H905 H 0.71556 -0.10600 0.17990
 H906 H 0.73104 -0.03650 0.20768
 H907 H 0.69878 -0.12821 0.15808
 H908 H 0.68863 -0.02920 0.23165
 C909 C 0.17131 0.36833 0.15045
 C910 C 0.17302 0.37367 0.17277
 C911 C 0.18360 0.39327 0.18108
 C912 C 0.17975 0.39985 0.20283
 C913 C 0.18990 0.41779 0.21164
 C914 C 0.20420 0.42961 0.19883
 C915 C 0.20837 0.42281 0.17722
 C916 C 0.19820 0.40486 0.16838
 C917 C 0.21559 0.44847 0.20778
 C918 C 0.20817 0.46032 0.22560
 H919 H 0.16658 0.36280 0.18481
 H920 H 0.16892 0.39099 0.21311
 H921 H 0.18682 0.42194 0.22866
 H922 H 0.21959 0.43139 0.16714
 H923 H 0.20229 0.39995 0.15184
 H924 H 0.23010 0.45338 0.19984
 H925 H 0.17765 0.37892 0.13814
 H926 H 0.19307 0.45647 0.23283
 C927 C 0.18888 -0.14947 0.67395
 C928 C 0.20249 -0.13423 0.66510
 C929 C 0.21074 -0.11580 0.67786
 C930 C 0.21147 -0.11562 0.70107
 C931 C 0.21922 -0.09786 0.71252
 C932 C 0.22648 -0.07992 0.70103
 C933 C 0.22636 -0.08037 0.67789
 C934 C 0.21854 -0.09811 0.66642
 C935 C 0.23494 -0.06091 0.71262
 C936 C 0.22935 -0.05545 0.73416
 H937 H 0.20635 -0.13524 0.64773
 H938 H 0.20652 -0.12925 0.71053
 H939 H 0.21992 -0.09848 0.73033
 H940 H 0.23216 -0.06687 0.66865
 H941 H 0.21843 -0.09795 0.64855
 H942 H 0.24543 -0.05047 0.70360
 H943 H 0.18329 -0.14754 0.69066
 H944 H 0.21774 -0.06478 0.74293
 C945 C 0.30329 0.32373 0.36008
 C946 C 0.29091 0.32799 0.37857
 C947 C 0.28326 0.31130 0.39375
 C948 C 0.26590 0.31567 0.40725
 C949 C 0.25826 0.30044 0.42193
 C950 C 0.26791 0.28043 0.42342
 C951 C 0.28558 0.27625 0.41029
 C952 C 0.29321 0.29147 0.39561
 C953 C 0.26059 0.26388 0.43894
 C954 C 0.24056 0.26361 0.44836
 H955 H 0.28635 0.34423 0.38192
 H956 H 0.25819 0.33095 0.40643
 H957 H 0.24508 0.30465 0.43228
 H958 H 0.29355 0.26112 0.41141
 H959 H 0.30713 0.28771 0.38618
 H960 H 0.27132 0.25108 0.44273
 H961 H 0.30764 0.30754 0.35630
 H962 H 0.22910 0.27552 0.44404
 C963 C 0.33922 0.82146 -0.13243
 C964 C 0.32578 0.82834 -0.11561
 C965 C 0.31471 0.81418 -0.09990
 C966 C 0.29828 0.82272 -0.08725
 C967 C 0.28713 0.81012 -0.07234
 C968 C 0.29218 0.78856 -0.06974
 C969 C 0.30889 0.78011 -0.08205
 C970 C 0.32004 0.79272 -0.09700
 C971 C 0.28100 0.77463 -0.05392
 C972 C 0.26121 0.77910 -0.04502
 H973 H 0.32252 0.84518 -0.11437
 H974 H 0.29399 0.83926 -0.08893
 H975 H 0.27486 0.81750 -0.06271
 H976 H 0.31332 0.76363 -0.08013
 H977 H 0.33288 0.78554 -0.10594
 H978 H 0.28854 0.75986 -0.04947
 H979 H 0.34318 0.80485 -0.13392
 H980 H 0.25268 0.79309 -0.05000
 C981 C 0.82273 0.32476 -0.14749
 C982 C 0.81467 0.33171 -0.12734
 C983 C 0.80397 0.31744 -0.11148
 C984 C 0.79140 0.32639 -0.09490
 C985 C 0.78160 0.31353 -0.07918
 C986 C 0.78419 0.29132 -0.07972
 C987 C 0.79707 0.28242 -0.09606
 C988 C 0.80686 0.29527 -0.11176
 C989 C 0.77439 0.27702 -0.06325
 C990 C 0.75725 0.28273 -0.05019
 H991 H 0.81664 0.34830 -0.12284
 H992 H 0.78924 0.34343 -0.09403
 H993 H 0.77243 0.32117 -0.06646
 H994 H 0.79963 0.26543 -0.09665
 H995 H 0.81707 0.28773 -0.12366
 H996 H 0.78051 0.26105 -0.06187
 H997 H 0.82056 0.30840 -0.15260
 H998 H 0.75005 0.29812 -0.05204
 C999 C 0.83221 0.86140 0.36352
 C1000 C 0.82237 0.86828 0.38281
 C1001 C 0.81199 0.85376 0.39862
 C1002 C 0.79724 0.86216 0.41341
 C1003 C 0.78717 0.84911 0.42874
 C1004 C 0.79169 0.82727 0.42961
 C1005 C 0.80685 0.81896 0.41523
 C1006 C 0.81690 0.83201 0.39986
 C1007 C 0.78142 0.81293 0.44570
 C1008 C 0.76195 0.81732 0.45527
 H1009 H 0.82195 0.88518 0.38628
 H1010 H 0.79346 0.87892 0.41310
 H1011 H 0.77621 0.85634 0.44009
 H1012 H 0.81091 0.80228 0.41584
 H1013 H 0.82874 0.82502 0.38936
 H1014 H 0.78913 0.79811 0.44961
 H1015 H 0.83251 0.84466 0.35945
 H1016 H 0.75335 0.83134 0.45050
 C1017 C 0.65795 0.36023 0.62702
 C1018 C 0.66034 0.33830 0.62528
 C1019 C 0.66828 0.32788 0.60516
 C1020 C 0.68202 0.31065 0.60713
 C1021 C 0.68959 0.30037 0.58830
 C1022 C 0.68300 0.30674 0.56724
 C1023 C 0.66872 0.32353 0.56526
 C1024 C 0.66164 0.33427 0.58409
 C1025 C 0.69102 0.29602 0.54732
 C1026 C 0.71247 0.29234 0.54486
 H1027 H 0.65752 0.32860 0.63969
 H1028 H 0.68710 0.30535 0.62325
 H1029 H 0.70038 0.28724 0.59019
 H1030 H 0.66338 0.32856 0.54914
 H1031 H 0.65069 0.34725 0.58223
 H1032 H 0.68031 0.29267 0.53375
 H1033 H 0.66344 0.37039 0.61385
 H1034 H 0.72338 0.29834 0.55726
 C1035 C 0.67949 0.83919 1.13697
 C1036 C 0.69158 0.84758 1.11985
 C1037 C 0.70259 0.83462 1.10300
 C1038 C 0.71783 0.84460 1.08985
 C1039 C 0.72913 0.83306 1.07416
 C1040 C 0.72548 0.81114 1.07131
 C1041 C 0.70975 0.80127 1.08392
 C1042 C 0.69841 0.81283 1.09962
 C1043 C 0.73746 0.79818 1.05525
 C1044 C 0.75716 0.80419 1.04711
 H1045 H 0.69368 0.86466 1.11920
 H1046 H 0.72113 0.86143 1.09182
 H1047 H 0.74051 0.84150 1.06421
 H1048 H 0.70637 0.78448 1.08178
 H1049 H 0.68640 0.80454 1.10883
 H1050 H 0.73098 0.78284 1.05046
 H1051 H 0.67668 0.82227 1.13793
 H1052 H 0.76456 0.81884 1.05256
 C1053 C 0.17539 0.33773 1.12570
 C1054 C 0.16731 0.32055 1.11352
 C1055 C 0.17935 0.30944 1.09608
 C1056 C 0.16831 0.29735 1.08023
 C1057 C 0.17911 0.28628 1.06375
 C1058 C 0.20127 0.28685 1.06299
 C1059 C 0.21230 0.29900 1.07879
 C1060 C 0.20151 0.31005 1.09527
 C1061 C 0.21343 0.27530 1.04594
 C1062 C 0.20545 0.25798 1.03398
 H1063 H 0.15118 0.31548 1.11626
 H1064 H 0.15125 0.29659 1.08049
 H1065 H 0.16996 0.27759 1.05156
 H1066 H 0.22936 0.29969 1.07859
 H1067 H 0.21067 0.31864 1.10753
 H1068 H 0.22969 0.28006 1.04340
 H1069 H 0.19056 0.34439 1.12126
 H1070 H 0.18969 0.25207 1.03702
 C1071 C 0.19407 0.82350 0.64435
 C1072 C 0.18570 0.81151 0.62686
 C1073 C 0.19864 0.80087 0.60975
 C1074 C 0.18927 0.78469 0.59694
 C1075 C 0.20081 0.77398 0.58079
 C1076 C 0.22210 0.77921 0.57707
 C1077 C 0.23131 0.79583 0.58938
 C1078 C 0.21976 0.80655 0.60558
 C1079 C 0.23491 0.76807 0.56020
 C1080 C 0.23017 0.74758 0.55264
 H1081 H 0.16877 0.80924 0.62600
 H1082 H 0.17294 0.78023 0.59951
 H1083 H 0.19283 0.76186 0.57110
 H1084 H 0.24756 0.80045 0.58656
 H1085 H 0.22744 0.81939 0.61447
 H1086 H 0.24897 0.77596 0.55415
 H1087 H 0.21091 0.82598 0.64556
 H1088 H 0.21701 0.73890 0.55953
 C1089 C 0.35882 0.64445 0.64619
 C1090 C 0.33795 0.64086 0.63946
 C1091 C 0.32738 0.65108 0.62044
 C1092 C 0.33803 0.66409 0.60523
 C1093 C 0.32723 0.67269 0.58720
 C1094 C 0.30560 0.66843 0.58401
 C1095 C 0.29513 0.65533 0.59910
 C1096 C 0.30585 0.64683 0.61709
 C1097 C 0.29345 0.67679 0.56506
 C1098 C 0.29953 0.69445 0.55274
 H1099 H 0.32855 0.62977 0.64891
 H1100 H 0.35469 0.66744 0.60684
 H1101 H 0.33602 0.68222 0.57561
 H1102 H 0.27852 0.65167 0.59699
 H1103 H 0.29725 0.63675 0.62841
 H1104 H 0.27834 0.66939 0.56145
 H1105 H 0.36823 0.65662 0.63838
 H1106 H 0.31391 0.70301 0.55671
 C1107 C 0.32222 0.15860 1.14089
 C1108 C 0.31296 0.14876 1.12250
 C1109 C 0.30469 0.16069 1.10343
 C1110 C 0.28936 0.15108 1.08983
 C1111 C 0.28095 0.16196 1.07183
 C1112 C 0.28784 0.18272 1.06704
 C1113 C 0.30363 0.19205 1.08026
 C1114 C 0.31200 0.18119 1.09823
 C1115 C 0.27940 0.19515 1.04837
 C1116 C 0.26083 0.19017 1.03695
 H1117 H 0.31114 0.13164 1.12232
 H1118 H 0.28372 0.13515 1.09327
 H1119 H 0.26930 0.15389 1.06171
 H1120 H 0.30948 0.20787 1.07673
 H1121 H 0.32440 0.18886 1.10772
 H1122 H 0.28785 0.20953 1.04400
 H1123 H 0.32374 0.17571 1.14146
 H1124 H 0.25149 0.17638 1.04121
 C1125 C 0.84551 0.66589 1.15050
 C1126 C 0.84187 0.68743 1.14676
 C1127 C 0.83370 0.69603 1.12576
 C1128 C 0.83710 0.71762 1.12125
 C1129 C 0.82937 0.72660 1.10186
 C1130 C 0.81797 0.71413 1.08653
 C1131 C 0.81422 0.69263 1.09122
 C1132 C 0.82205 0.68360 1.11059
 C1133 C 0.80894 0.72327 1.06616
 C1134 C 0.81689 0.74161 1.05629
 H1135 H 0.84574 0.69869 1.15978
 H1136 H 0.84574 0.72761 1.13282
 H1137 H 0.83195 0.74340 1.09927
 H1138 H 0.80517 0.68278 1.07986
 H1139 H 0.81849 0.66709 1.11377
 H1140 H 0.79576 0.71502 1.05844
 H1141 H 0.84180 0.65427 1.13783
 H1142 H 0.83096 0.74924 1.06278
 C1143 C 0.83057 0.16772 0.61866
 C1144 C 0.81283 0.16284 0.60579
 C1145 C 0.80455 0.17754 0.58893
 C1146 C 0.78296 0.17702 0.58389
 C1147 C 0.77443 0.19121 0.56869
 C1148 C 0.78746 0.20605 0.55789
 C1149 C 0.80912 0.20628 0.56265
 C1150 C 0.81763 0.19212 0.57788
 C1151 C 0.77908 0.22191 0.54222
 C1152 C 0.75938 0.22014 0.53204
 H1153 H 0.80400 0.14841 0.60890
 H1154 H 0.77257 0.16593 0.59216
 H1155 H 0.75759 0.19076 0.56598
 H1156 H 0.81953 0.21745 0.55452
 H1157 H 0.83447 0.19255 0.58075
 H1158 H 0.78904 0.23541 0.53824
 H1159 H 0.83892 0.18250 0.61574
 H1160 H 0.74956 0.20629 0.53468
 C1161 C 0.67160 0.68293 0.35623
 C1162 C 0.68172 0.67564 0.37519
 C1163 C 0.68928 0.68976 0.39325
 C1164 C 0.68126 0.71031 0.39673
 C1165 C 0.68919 0.72320 0.41379
 C1166 C 0.70515 0.71571 0.42784
 C1167 C 0.71288 0.69511 0.42450
 C1168 C 0.70495 0.68224 0.40751
 C1169 C 0.71475 0.72891 0.44560
 C1170 C 0.70624 0.74778 0.45385
 H1171 H 0.68492 0.65882 0.37653
 H1172 H 0.66878 0.71653 0.38652
 H1173 H 0.68295 0.73904 0.41558
 H1174 H 0.72519 0.68893 0.43505
 H1175 H 0.71131 0.66644 0.40530
 H1176 H 0.72927 0.72320 0.45284
 H1177 H 0.66844 0.69968 0.35443
 H1178 H 0.69125 0.75355 0.44795
 C1179 C 0.66364 0.16211 -0.16034
 C1180 C 0.65394 0.17041 -0.14153
 C1181 C 0.66582 0.17894 -0.12230
 C1182 C 0.65591 0.19332 -0.10797
 C1183 C 0.66665 0.20173 -0.08965
 C1184 C 0.68759 0.19579 -0.08524
 C1185 C 0.69728 0.18102 -0.09931
 C1186 C 0.68657 0.17265 -0.11759
 C1187 C 0.69993 0.20421 -0.06624
 C1188 C 0.69411 0.22152 -0.05309
 H1189 H 0.63690 0.17116 -0.14114
 H1190 H 0.63982 0.19817 -0.11106
 H1191 H 0.65836 0.21266 -0.07902
 H1192 H 0.71328 0.17591 -0.09616
 H1193 H 0.69454 0.16100 -0.12768
 H1194 H 0.71498 0.19680 -0.06296
 H1195 H 0.68064 0.16158 -0.16127
 H1196 H 0.67953 0.22982 -0.05602
 C1197 C 0.18289 0.64867 -0.15765
 C1198 C 0.17307 0.65800 -0.13944
 C1199 C 0.18437 0.66722 -0.12003
 C1200 C 0.17243 0.67366 -0.10174
 C1201 C 0.18215 0.68276 -0.08318
 C1202 C 0.20413 0.68575 -0.08251
 C1203 C 0.21616 0.67898 -0.10057
 C1204 C 0.20643 0.66998 -0.11922
 C1205 C 0.21488 0.69587 -0.06332
 C1206 C 0.20497 0.71078 -0.04983
 H1207 H 0.15599 0.65798 -0.13913
 H1208 H 0.15545 0.67163 -0.10178
 H1209 H 0.17238 0.68717 -0.06932
 H1210 H 0.23313 0.68106 -0.10044
 H1211 H 0.21636 0.66555 -0.13289
 H1212 H 0.23148 0.69273 -0.06075
 H1213 H 0.19981 0.64694 -0.15785
 H1214 H 0.18894 0.71543 -0.05343
 C1215 C 0.15173 0.15696 0.33370
 C1216 C 0.15478 0.14618 0.35348
 C1217 C 0.16131 0.15718 0.37406
 C1218 C 0.17340 0.14625 0.38966
 C1219 C 0.18014 0.15641 0.40906
 C1220 C 0.17465 0.17766 0.41330
 C1221 C 0.16184 0.18828 0.39811
 C1222 C 0.15530 0.17821 0.37862
 C1223 C 0.18190 0.18918 0.43332
 C1224 C 0.20090 0.18473 0.44390
 H1225 H 0.15302 0.12905 0.35368
 H1226 H 0.17788 0.12991 0.38666
 H1227 H 0.18943 0.14752 0.42076
 H1228 H 0.15712 0.20455 0.40118
 H1229 H 0.14532 0.18685 0.36734
 H1230 H 0.17294 0.20286 0.43870
 H1231 H 0.15411 0.17399 0.33321
 H1232 H 0.21092 0.17222 0.43767
 C1233 C 0.32687 0.33731 0.64585
 C1234 C 0.33681 0.35645 0.65152
 C1235 C 0.32567 0.37421 0.66230
 C1236 C 0.33697 0.38769 0.67663
 C1237 C 0.32682 0.40417 0.68777
 C1238 C 0.30515 0.40761 0.68457
 C1239 C 0.29404 0.39472 0.66949
 C1240 C 0.30415 0.37806 0.65852
 C1241 C 0.29388 0.42458 0.69655
 C1242 C 0.29966 0.43101 0.71779
 H1243 H 0.35371 0.35787 0.64939
 H1244 H 0.35364 0.38522 0.67952
 H1245 H 0.33602 0.41429 0.69871
 H1246 H 0.27742 0.39732 0.66647
 H1247 H 0.29513 0.36842 0.64699
 H1248 H 0.27983 0.43114 0.68908
 H1249 H 0.31006 0.33553 0.64821
 H1250 H 0.31254 0.42321 0.72616
 C1251 C 0.33180 0.85397 0.15917
 C1252 C 0.33445 0.86085 0.18104
 C1253 C 0.32280 0.87863 0.19151
 C1254 C 0.32554 0.88221 0.21425
 C1255 C 0.31534 0.89898 0.22492
 C1256 C 0.30218 0.91267 0.21301
 C1257 C 0.29925 0.90900 0.19033
 C1258 C 0.30953 0.89230 0.17962
 C1259 C 0.29084 0.93048 0.22367
 C1260 C 0.29715 0.94001 0.24354
 H1261 H 0.34556 0.85243 0.19132
 H1262 H 0.33560 0.87194 0.22387
 H1263 H 0.31756 0.90087 0.24252
 H1264 H 0.28912 0.91928 0.18079
 H1265 H 0.30711 0.89045 0.16207
 H1266 H 0.27734 0.93688 0.21503
 H1267 H 0.31960 0.86078 0.14903
 H1268 H 0.31136 0.93492 0.25181
 C1269 C 0.81989 0.35797 0.16434
 C1270 C 0.82934 0.37668 0.17212
 C1271 C 0.81697 0.39388 0.18259
 C1272 C 0.82689 0.40817 0.19723
 C1273 C 0.81555 0.42484 0.20687
 C1274 C 0.79404 0.42758 0.20184
 C1275 C 0.78432 0.41352 0.18685
 C1276 C 0.79559 0.39692 0.17730
 C1277 C 0.78120 0.44504 0.21116
 C1278 C 0.78695 0.45746 0.22941
 H1279 H 0.84613 0.37905 0.16992
 H1280 H 0.84344 0.40642 0.20123
 H1281 H 0.82383 0.43563 0.21787
 H1282 H 0.76789 0.41544 0.18239
 H1283 H 0.78756 0.38687 0.16536
 H1284 H 0.76595 0.44778 0.20361
 H1285 H 0.80322 0.35538 0.16710
 H1286 H 0.80165 0.45479 0.23798
 C1287 C 0.85582 0.86170 0.66480
 C1288 C 0.83456 0.86524 0.66937
 C1289 C 0.82644 0.88476 0.68000
 C1290 C 0.80521 0.89003 0.67675
 C1291 C 0.79669 0.90809 0.68673
 C1292 C 0.80927 0.92126 0.70032
 C1293 C 0.83043 0.91581 0.70386
 C1294 C 0.83900 0.89780 0.69376
 C1295 C 0.80055 0.93999 0.71195
 C1296 C 0.78262 0.95074 0.70481
 H1297 H 0.82312 0.85340 0.66404
 H1298 H 0.79514 0.88009 0.66647
 H1299 H 0.78014 0.91130 0.68418
 H1300 H 0.84034 0.92550 0.71456
 H1301 H 0.85525 0.89394 0.69722
 H1302 H 0.80872 0.94566 0.72660
 H1303 H 0.86765 0.87310 0.67010
 H1304 H 0.77510 0.94639 0.68937
 C1305 C 0.68134 0.65684 0.68146
 C1306 C 0.69190 0.63916 0.67309
 C1307 C 0.69902 0.62122 0.68694
 C1308 C 0.71429 0.60735 0.67855
 C1309 C 0.72113 0.58998 0.69087
 C1310 C 0.71278 0.58610 0.71197
 C1311 C 0.69725 0.59976 0.72018
 C1312 C 0.69039 0.61709 0.70786
 C1313 C 0.71924 0.56779 0.72568
 C1314 C 0.73717 0.55560 0.72178
 H1315 H 0.69505 0.63837 0.65555
 H1316 H 0.72093 0.60994 0.66234
 H1317 H 0.73265 0.57957 0.68354
 H1318 H 0.69029 0.59698 0.73621
 H1319 H 0.67803 0.62682 0.71468
 H1320 H 0.70964 0.56405 0.73991
 H1321 H 0.67845 0.65813 0.69898
 H1322 H 0.74763 0.55934 0.70831
 C1323 C 0.63447 0.14225 0.16077
 C1324 C 0.65591 0.13910 0.16467
 C1325 C 0.66428 0.12062 0.17683
 C1326 C 0.68585 0.11605 0.17539
 C1327 C 0.69467 0.09982 0.18798
 C1328 C 0.68202 0.08781 0.20238
 C1329 C 0.66047 0.09237 0.20379
 C1330 C 0.65166 0.10856 0.19120
 C1331 C 0.69077 0.07137 0.21712
 C1332 C 0.71035 0.06186 0.21408
 H1333 H 0.66699 0.15133 0.15969
 H1334 H 0.69599 0.12534 0.16474
 H1335 H 0.71146 0.09728 0.18684
 H1336 H 0.65043 0.08358 0.21497
 H1337 H 0.63514 0.11198 0.19352
 H1338 H 0.68121 0.06638 0.23096
 H1339 H 0.62319 0.13010 0.16535
 H1340 H 0.71975 0.06547 0.19974
 C1341 C 0.14471 0.64041 0.17176
 C1342 C 0.16586 0.63465 0.17347
 C1343 C 0.17320 0.61531 0.18499
 C1344 C 0.19398 0.60861 0.18164
 C1345 C 0.20203 0.59127 0.19314
 C1346 C 0.18939 0.58015 0.20831
 C1347 C 0.16867 0.58695 0.21181
 C1348 C 0.16061 0.60431 0.20031
 C1349 C 0.19761 0.56220 0.22147
 C1350 C 0.21511 0.55040 0.21514
 H1351 H 0.17772 0.64530 0.16686
 H1352 H 0.20415 0.61701 0.17028
 H1353 H 0.21833 0.58712 0.19050
 H1354 H 0.15871 0.57892 0.22366
 H1355 H 0.14476 0.60931 0.20407
 H1356 H 0.18951 0.55804 0.23656
 H1357 H 0.13259 0.62994 0.17805
 H1358 H 0.22262 0.55342 0.19947
 C1359 C 0.15088 0.10533 0.66229
 C1360 C 0.15460 0.10196 0.68473
 C1361 C 0.16928 0.08585 0.69346
 C1362 C 0.16812 0.08066 0.71590
 C1363 C 0.18216 0.06620 0.72515
 C1364 C 0.19773 0.05656 0.71207
 C1365 C 0.19902 0.06190 0.68969
 C1366 C 0.18499 0.07637 0.68043
 C1367 C 0.21339 0.04167 0.72128
 C1368 C 0.21085 0.03110 0.74127
 H1369 H 0.14653 0.11189 0.69661
 H1370 H 0.15640 0.08798 0.72639
 H1371 H 0.18099 0.06311 0.74262
 H1372 H 0.21106 0.05495 0.67932
 H1373 H 0.18695 0.08038 0.66325
 H1374 H 0.22741 0.03858 0.71163
 H1375 H 0.15855 0.09551 0.65008
 H1376 H 0.19653 0.03283 0.75070
 C1377 C 0.35392 0.63352 0.32627
 C1378 C 0.33211 0.63047 0.32517
 C1379 C 0.32177 0.61213 0.31391
 C1380 C 0.30031 0.60828 0.31785
 C1381 C 0.28964 0.59171 0.30701
 C1382 C 0.30027 0.57850 0.29195
 C1383 C 0.32164 0.58253 0.28774
 C1384 C 0.33232 0.59913 0.29856
 C1385 C 0.28946 0.56097 0.27981
 C1386 C 0.27072 0.55165 0.28701
 H1387 H 0.32205 0.64240 0.33251
 H1388 H 0.29168 0.61827 0.32925
 H1389 H 0.27299 0.58973 0.31018
 H1390 H 0.33012 0.57284 0.27595
 H1391 H 0.34863 0.60188 0.29435
 H1392 H 0.29679 0.55485 0.26497
 H1393 H 0.36432 0.62189 0.31904
 H1394 H 0.26380 0.55660 0.30247
 C1395 C 0.35197 0.13611 0.82909
 C1396 C 0.33054 0.13084 0.82856
 C1397 C 0.32215 0.11086 0.81881
 C1398 C 0.30211 0.10369 0.82521
 C1399 C 0.29329 0.08530 0.81584
 C1400 C 0.30437 0.07374 0.79973
 C1401 C 0.32427 0.08110 0.79311
 C1402 C 0.33312 0.09943 0.80253
 C1403 C 0.29536 0.05465 0.78873
 C1404 C 0.27914 0.04235 0.79763
 H1405 H 0.31931 0.14186 0.83554
 H1406 H 0.29319 0.11242 0.83745
 H1407 H 0.27762 0.08060 0.82088
 H1408 H 0.33298 0.07269 0.78047
 H1409 H 0.34825 0.10482 0.79652
 H1410 H 0.30216 0.04980 0.77313
 H1411 H 0.36334 0.12524 0.82218
 H1412 H 0.27296 0.04595 0.81381
 C1413 C 0.85797 0.63770 0.83442
 C1414 C 0.84709 0.62033 0.84323
 C1415 C 0.83770 0.60271 0.82997
 C1416 C 0.82297 0.58926 0.84016
 C1417 C 0.81281 0.57309 0.82824
 C1418 C 0.81714 0.56998 0.80572
 C1419 C 0.83254 0.58278 0.79572
 C1420 C 0.84270 0.59903 0.80765
 C1421 C 0.80590 0.55365 0.79229
 C1422 C 0.78560 0.54651 0.79735
 H1423 H 0.84431 0.62018 0.86085
 H1424 H 0.81905 0.59147 0.85741
 H1425 H 0.80166 0.56303 0.83679
 H1426 H 0.83643 0.58046 0.77849
 H1427 H 0.85437 0.60852 0.79923
 H1428 H 0.81313 0.54831 0.77709
 H1429 H 0.86156 0.63812 0.81702
 H1430 H 0.77750 0.55292 0.81156
 C1431 C 0.83641 0.16005 0.32458
 C1432 C 0.81522 0.15380 0.32373
 C1433 C 0.80703 0.13440 0.31247
 C1434 C 0.78510 0.13180 0.31068
 C1435 C 0.77639 0.11362 0.30087
 C1436 C 0.78945 0.09745 0.29272
 C1437 C 0.81139 0.10015 0.29409
 C1438 C 0.82015 0.11835 0.30402
 C1439 C 0.78059 0.07795 0.28232
 C1440 C 0.76070 0.06996 0.28768
 H1441 H 0.80373 0.16404 0.33149
 H1442 H 0.77460 0.14393 0.31690
 H1443 H 0.75941 0.11249 0.29944
 H1444 H 0.82178 0.08797 0.28778
 H1445 H 0.83711 0.11948 0.30522
 H1446 H 0.79022 0.06936 0.27059
 H1447 H 0.84809 0.15120 0.31551
 H1448 H 0.75161 0.07747 0.30059
 C1449 C 0.64038 0.37993 0.33565
 C1450 C 0.66219 0.38183 0.33309
 C1451 C 0.67234 0.39975 0.32144
 C1452 C 0.69360 0.40451 0.32579
 C1453 C 0.70397 0.42068 0.31430
 C1454 C 0.69323 0.43231 0.29808
 C1455 C 0.67205 0.42739 0.29359
 C1456 C 0.66167 0.41132 0.30512
 C1457 C 0.70373 0.44885 0.28470
 C1458 C 0.72220 0.45945 0.29103
 H1459 H 0.67228 0.36948 0.33945
 H1460 H 0.70225 0.39557 0.33801
 H1461 H 0.72048 0.42353 0.31778
 H1462 H 0.66352 0.43588 0.28093
 H1463 H 0.64553 0.40764 0.30065
 H1464 H 0.69620 0.45327 0.26934
 H1465 H 0.63024 0.39233 0.32952
 H1466 H 0.72937 0.45646 0.30692
 C1467 C 0.68798 0.85305 0.83341
 C1468 C 0.67872 0.87046 0.82310
 C1469 C 0.69095 0.88837 0.81358
 C1470 C 0.68101 0.90177 0.79840
 C1471 C 0.69192 0.91886 0.78904
 C1472 C 0.71312 0.92293 0.79471
 C1473 C 0.72288 0.90984 0.81030
 C1474 C 0.71197 0.89278 0.81967
 C1475 C 0.72557 0.94067 0.78513
 C1476 C 0.71960 0.95199 0.76641
 H1477 H 0.66170 0.87091 0.82172
 H1478 H 0.66473 0.89897 0.79370
 H1479 H 0.68350 0.92885 0.77763
 H1480 H 0.73907 0.91278 0.81525
 H1481 H 0.72006 0.88344 0.83191
 H1482 H 0.74068 0.94441 0.79269
 H1483 H 0.70495 0.85213 0.83463
 H1484 H 0.70505 0.94824 0.75786
 C1485 C 0.16845 0.33913 0.81920
 C1486 C 0.16348 0.35870 0.80992
 C1487 C 0.17967 0.37466 0.80377
 C1488 C 0.17439 0.39049 0.78858
 C1489 C 0.18920 0.40592 0.78250
 C1490 C 0.20969 0.40582 0.79155
 C1491 C 0.21475 0.39035 0.80719
 C1492 C 0.19995 0.37495 0.81329
 C1493 C 0.22601 0.42173 0.78557
 C1494 C 0.22513 0.43401 0.76653
 H1495 H 0.14707 0.36249 0.80708
 H1496 H 0.15876 0.39089 0.78136
 H1497 H 0.18433 0.41798 0.77100
 H1498 H 0.23026 0.39014 0.81473
 H1499 H 0.20443 0.36364 0.82576
 H1500 H 0.23973 0.42323 0.79619
 H1501 H 0.18479 0.33487 0.82150
 H1502 H 0.21217 0.43217 0.75503
 C1503 C 0.17479 0.84626 0.34436
 C1504 C 0.18928 0.86140 0.35208
 C1505 C 0.19648 0.87973 0.33880
 C1506 C 0.20523 0.89745 0.34971
 C1507 C 0.21270 0.91486 0.33779
 C1508 C 0.21184 0.91476 0.31459
 C1509 C 0.20281 0.89719 0.30368
 C1510 C 0.19536 0.87976 0.31560
 C1511 C 0.22048 0.93246 0.30132
 C1512 C 0.23689 0.94551 0.30885
 H1513 H 0.19477 0.86034 0.36897
 H1514 H 0.20621 0.89787 0.36756
 H1515 H 0.21897 0.92837 0.34684
 H1516 H 0.20199 0.89672 0.28582
 H1517 H 0.18925 0.86622 0.30648
 H1518 H 0.21511 0.93403 0.28442
 H1519 H 0.16748 0.84838 0.32838
 H1520 H 0.24357 0.94308 0.32507
 C1521 C 0.35923 0.31437 0.64446
 C1522 C 0.36553 0.31796 0.66632
 C1523 C 0.38641 0.31211 0.67542
 C1524 C 0.39276 0.32100 0.69570
 C1525 C 0.41196 0.31542 0.70538
 C1526 C 0.42529 0.30072 0.69492
 C1527 C 0.41891 0.29180 0.67466
 C1528 C 0.39972 0.29739 0.66498
 C1529 C 0.44521 0.29328 0.70503
 C1530 C 0.45525 0.30307 0.72301
 H1531 H 0.35458 0.32560 0.67745
 H1532 H 0.38272 0.33221 0.70422
 H1533 H 0.41591 0.32229 0.72126
 H1534 H 0.42872 0.28023 0.66638
 H1535 H 0.39530 0.28965 0.64967
 H1536 H 0.45221 0.27910 0.69805
 H1537 H 0.36967 0.30638 0.63312
 H1538 H 0.44942 0.31781 0.72981
 C1539 C 0.36565 0.83405 0.15768
 C1540 C 0.37560 0.81437 0.15599
 C1541 C 0.39636 0.80960 0.16607
 C1542 C 0.40192 0.78825 0.16884
 C1543 C 0.42086 0.78286 0.17914
 C1544 C 0.43481 0.79880 0.18673
 C1545 C 0.42945 0.82015 0.18365
 C1546 C 0.41053 0.82556 0.17326
 C1547 C 0.45436 0.79371 0.19896
 C1548 C 0.46448 0.77417 0.19720
 H1549 H 0.36697 0.80127 0.14846
 H1550 H 0.39133 0.77563 0.16348
 H1551 H 0.42410 0.76622 0.18171
 H1552 H 0.43994 0.83272 0.18934
 H1553 H 0.40724 0.84221 0.17094
 H1554 H 0.46096 0.80579 0.20985
 H1555 H 0.37333 0.84692 0.16653
 H1556 H 0.45910 0.76248 0.18524
 C1557 C 0.85205 0.33717 0.15285
 C1558 C 0.86091 0.33555 0.17390
 C1559 C 0.88236 0.32735 0.17851
 C1560 C 0.89098 0.33081 0.19959
 C1561 C 0.91061 0.32252 0.20526
 C1562 C 0.92223 0.31054 0.18990
 C1563 C 0.91360 0.30699 0.16882
 C1564 C 0.89391 0.31532 0.16312
 C1565 C 0.94250 0.30034 0.19586
 C1566 C 0.95482 0.30699 0.21378
 H1567 H 0.85150 0.34036 0.18791
 H1568 H 0.88232 0.33973 0.21188
 H1569 H 0.91619 0.32502 0.22195
 H1570 H 0.92202 0.29752 0.15679
 H1571 H 0.88768 0.31172 0.14690
 H1572 H 0.94750 0.28669 0.18628
 H1573 H 0.86111 0.33266 0.13853
 H1574 H 0.95072 0.32123 0.22281
 C1575 C 0.88179 0.83213 0.66010
 C1576 C 0.89133 0.83538 0.68068
 C1577 C 0.90996 0.82335 0.68835
 C1578 C 0.91367 0.82189 0.71111
 C1579 C 0.93084 0.81051 0.71918
 C1580 C 0.94497 0.80058 0.70459
 C1581 C 0.94128 0.80202 0.68181
 C1582 C 0.92406 0.81341 0.67372
 C1583 C 0.96327 0.78827 0.71265
 C1584 C 0.97245 0.79194 0.73328
 H1585 H 0.88391 0.84598 0.69240
 H1586 H 0.90303 0.82930 0.72274
 H1587 H 0.93266 0.80923 0.73686
 H1588 H 0.95190 0.79451 0.67023
 H1589 H 0.92210 0.81460 0.65605
 H1590 H 0.97002 0.77637 0.70183
 H1591 H 0.88800 0.82008 0.64914
 H1592 H 0.96682 0.80477 0.74360
 C1593 C 0.61151 0.35403 0.33268
 C1594 C 0.59813 0.33835 0.34116
 C1595 C 0.57945 0.32996 0.32908
 C1596 C 0.57203 0.30952 0.33405
 C1597 C 0.55498 0.30062 0.32251
 C1598 C 0.54476 0.31212 0.30576
 C1599 C 0.55185 0.33283 0.30126
 C1600 C 0.56893 0.34171 0.31279
 C1601 C 0.52711 0.30320 0.29231
 C1602 C 0.51856 0.28287 0.29498
 H1603 H 0.60208 0.33099 0.35671
 H1604 H 0.57974 0.30020 0.34665
 H1605 H 0.55023 0.28468 0.32678
 H1606 H 0.54420 0.34219 0.28865
 H1607 H 0.57365 0.35781 0.30897
 H1608 H 0.52083 0.31300 0.27924
 H1609 H 0.60765 0.36128 0.31706
 H1610 H 0.52412 0.27256 0.30787
 C1611 C 0.65629 0.82942 0.83284
 C1612 C 0.64067 0.81815 0.84418
 C1613 C 0.62106 0.80990 0.83369
 C1614 C 0.60999 0.79332 0.84396
 C1615 C 0.59165 0.78476 0.83442
 C1616 C 0.58394 0.79273 0.81432
 C1617 C 0.59470 0.80973 0.80443
 C1618 C 0.61301 0.81827 0.81395
 C1619 C 0.56495 0.78397 0.80301
 C1620 C 0.55474 0.76497 0.80856
 H1621 H 0.64323 0.81451 0.86141
 H1622 H 0.61568 0.78679 0.85935
 H1623 H 0.58368 0.77204 0.84295
 H1624 H 0.58898 0.81641 0.78912
 H1625 H 0.62054 0.83154 0.80587
 H1626 H 0.55929 0.79251 0.78872
 H1627 H 0.65404 0.83307 0.81559
 H1628 H 0.56002 0.75562 0.82236
 C1629 C 0.13295 0.32210 0.81538
 C1630 C 0.11489 0.31441 0.82589
 C1631 C 0.09539 0.30711 0.81450
 C1632 C 0.08001 0.29664 0.82708
 C1633 C 0.06218 0.28769 0.81705
 C1634 C 0.05932 0.28900 0.79411
 C1635 C 0.07406 0.30043 0.78162
 C1636 C 0.09200 0.30933 0.79165
 C1637 C 0.04141 0.27828 0.78283
 C1638 C 0.03247 0.25955 0.79082
 H1639 H 0.11563 0.31228 0.84360
 H1640 H 0.08201 0.29493 0.84474
 H1641 H 0.05073 0.27970 0.82733
 H1642 H 0.07201 0.30192 0.76395
 H1643 H 0.10315 0.31758 0.78130
 H1644 H 0.03637 0.28423 0.76695
 H1645 H 0.13264 0.32583 0.79802
 H1646 H 0.03859 0.25249 0.80574
 C1647 C 0.14797 0.81862 0.35264
 C1648 C 0.13063 0.83042 0.34570
 C1649 C 0.11039 0.82120 0.33770
 C1650 C 0.09535 0.83502 0.32882
 C1651 C 0.07658 0.82715 0.31972
 C1652 C 0.07247 0.80517 0.31923
 C1653 C 0.08703 0.79141 0.32896
 C1654 C 0.10584 0.79927 0.33805
 C1655 C 0.05344 0.79603 0.30850
 C1656 C 0.04257 0.80625 0.29160
 H1657 H 0.13231 0.84756 0.34531
 H1658 H 0.09827 0.85200 0.32859
 H1659 H 0.06540 0.83836 0.31315
 H1660 H 0.08409 0.77443 0.32905
 H1661 H 0.11665 0.78797 0.34502
 H1662 H 0.04893 0.77992 0.31270
 H1663 H 0.14678 0.80159 0.35432
 H1664 H 0.04752 0.82182 0.28615
 C1665 C 0.65477 0.68488 0.67444
 C1666 C 0.63915 0.67560 0.68750
 C1667 C 0.62078 0.68713 0.69645
 C1668 C 0.61073 0.67882 0.71508
 C1669 C 0.59336 0.68899 0.72429
 C1670 C 0.58526 0.70759 0.71475
 C1671 C 0.59533 0.71593 0.69608
 C1672 C 0.61287 0.70580 0.68693
 C1673 C 0.56694 0.71895 0.72427
 C1674 C 0.55288 0.70943 0.73893
 H1675 H 0.64093 0.65914 0.69224
 H1676 H 0.61657 0.66454 0.72281
 H1677 H 0.58672 0.68234 0.73912
 H1678 H 0.58951 0.73027 0.68846
 H1679 H 0.61990 0.71246 0.67228
 H1680 H 0.56453 0.73537 0.71971
 H1681 H 0.65335 0.70130 0.66954
 H1682 H 0.55434 0.69280 0.74290
 C1683 C 0.60931 0.17055 0.16784
 C1684 C 0.59828 0.18914 0.16312
 C1685 C 0.58129 0.19735 0.17754
 C1686 C 0.56629 0.21124 0.16872
 C1687 C 0.54996 0.21912 0.18185
 C1688 C 0.54845 0.21335 0.20418
 C1689 C 0.56353 0.19963 0.21303
 C1690 C 0.57990 0.19189 0.19999
 C1691 C 0.53121 0.22083 0.21861
 C1692 C 0.52012 0.23955 0.21502
 H1693 H 0.60147 0.19750 0.14794
 H1694 H 0.56704 0.21578 0.15154
 H1695 H 0.53837 0.22931 0.17430
 H1696 H 0.56279 0.19505 0.23021
 H1697 H 0.59153 0.18191 0.20773
 H1698 H 0.52783 0.21173 0.23331
 H1699 H 0.60437 0.16111 0.18178
 H1700 H 0.52418 0.24973 0.20134
 C1701 C 0.12230 0.67139 0.17790
 C1702 C 0.11255 0.69024 0.17149
 C1703 C 0.09677 0.70134 0.18526
 C1704 C 0.08323 0.71600 0.17529
 C1705 C 0.06819 0.72684 0.18778
 C1706 C 0.06658 0.72332 0.21060
 C1707 C 0.08023 0.70880 0.22058
 C1708 C 0.09530 0.69807 0.20814
 C1709 C 0.05054 0.73380 0.22445
 C1710 C 0.04061 0.75277 0.21895
 H1711 H 0.11602 0.69683 0.15545
 H1712 H 0.08411 0.71889 0.15771
 H1713 H 0.05765 0.73755 0.17940
 H1714 H 0.07935 0.70588 0.23815
 H1715 H 0.10589 0.68752 0.21667
 H1716 H 0.04691 0.72655 0.24017
 H1717 H 0.11707 0.66355 0.19277
 H1718 H 0.04484 0.76118 0.20408
 C1719 C 0.11990 0.12881 0.66756
 C1720 C 0.11247 0.14964 0.66761
 C1721 C 0.09496 0.15715 0.68168
 C1722 C 0.08477 0.17605 0.67600
 C1723 C 0.06860 0.18412 0.68912
 C1724 C 0.06238 0.17348 0.70841
 C1725 C 0.07260 0.15462 0.71416
 C1726 C 0.08876 0.14652 0.70100
 C1727 C 0.04564 0.18189 0.72290
 C1728 C 0.03515 0.20054 0.71800
 H1729 H 0.11986 0.16113 0.65684
 H1730 H 0.08934 0.18463 0.66132
 H1731 H 0.06113 0.19875 0.68420
 H1732 H 0.06822 0.14623 0.72903
 H1733 H 0.09661 0.13228 0.70639
 H1734 H 0.04165 0.17341 0.73785
 H1735 H 0.11261 0.11708 0.67808
 H1736 H 0.02606 0.20508 0.72660
 C1737 C 0.38056 0.66143 0.32173
 C1738 C 0.39403 0.67740 0.32975
 C1739 C 0.41161 0.68630 0.31662
 C1740 C 0.41909 0.70682 0.32157
 C1741 C 0.43525 0.71601 0.30915
 C1742 C 0.44437 0.70475 0.29148
 C1743 C 0.43733 0.68396 0.28704
 C1744 C 0.42121 0.67478 0.29947
 C1745 C 0.46113 0.71382 0.27727
 C1746 C 0.46776 0.73502 0.27786
 H1747 H 0.39115 0.68431 0.34585
 H1748 H 0.41218 0.71590 0.33493
 H1749 H 0.44041 0.73185 0.31363
 H1750 H 0.44427 0.67476 0.27380
 H1751 H 0.41656 0.65861 0.29567
 H1752 H 0.46824 0.70332 0.26520
 H1753 H 0.38322 0.65487 0.30545
 H1754 H 0.46102 0.74618 0.28940
 C1755 C 0.37668 0.16592 0.82467
 C1756 C 0.38779 0.18378 0.83233
 C1757 C 0.40482 0.19425 0.81964
 C1758 C 0.41902 0.20778 0.83080
 C1759 C 0.43498 0.21839 0.81934
 C1760 C 0.43690 0.21581 0.79637
 C1761 C 0.42282 0.20218 0.78524
 C1762 C 0.40683 0.19164 0.79666
 C1763 C 0.45336 0.22690 0.78349
 C1764 C 0.46288 0.24590 0.79030
 H1765 H 0.38437 0.19004 0.84859
 H1766 H 0.41782 0.21008 0.84848
 H1767 H 0.44586 0.22833 0.82860
 H1768 H 0.42395 0.19997 0.76754
 H1769 H 0.39587 0.18191 0.78727
 H1770 H 0.45715 0.22054 0.76733
 H1771 H 0.38160 0.15825 0.80954
 H1772 H 0.45838 0.25335 0.80570
 C1773 C 0.88028 0.67006 0.84011
 C1774 C 0.89832 0.66303 0.82926
 C1775 C 0.91566 0.67744 0.82232
 C1776 C 0.92987 0.67032 0.80627
 C1777 C 0.94632 0.68345 0.79910
 C1778 C 0.94889 0.70410 0.80786
 C1779 C 0.93513 0.71093 0.82447
 C1780 C 0.91872 0.69779 0.83167
 C1781 C 0.96573 0.71882 0.80031
 C1782 C 0.97573 0.71669 0.77997
 H1783 H 0.89970 0.64625 0.82548
 H1784 H 0.92818 0.65457 0.79914
 H1785 H 0.95704 0.67716 0.78692
 H1786 H 0.93699 0.72658 0.83180
 H1787 H 0.90874 0.70364 0.84475
 H1788 H 0.96956 0.73248 0.81058
 H1789 H 0.87841 0.68679 0.84366
 H1790 H 0.97136 0.70387 0.76887
 C1791 C 0.86274 0.18919 0.33123
 C1792 C 0.87009 0.19051 0.30957
 C1793 C 0.88924 0.20252 0.30285
 C1794 C 0.89635 0.20025 0.28107
 C1795 C 0.91388 0.21168 0.27362
 C1796 C 0.92484 0.22566 0.28789
 C1797 C 0.91766 0.22808 0.30961
 C1798 C 0.90009 0.21668 0.31707
 C1799 C 0.94313 0.23862 0.28055
 C1800 C 0.95458 0.23433 0.26143
 H1801 H 0.86103 0.18264 0.29668
 H1802 H 0.88817 0.18972 0.26965
 H1803 H 0.91834 0.20978 0.25654
 H1804 H 0.92561 0.23895 0.32087
 H1805 H 0.89503 0.21945 0.33381
 H1806 H 0.94787 0.25206 0.29074
 H1807 H 0.87127 0.19701 0.34447
 H1808 H 0.95095 0.22046 0.25148
 C1809 C 0.32883 0.30570 0.62065
 C1810 C 0.31116 0.31147 0.60821
 C1811 C 0.30056 0.29724 0.59195
 C1812 C 0.28000 0.30211 0.58511
 C1813 C 0.26936 0.28923 0.56977
 C1814 C 0.27913 0.27111 0.56085
 C1815 C 0.29981 0.26645 0.56743
 C1816 C 0.31046 0.27934 0.58275
 C1817 C 0.26879 0.25701 0.54427
 C1818 C 0.24748 0.25784 0.53841
 H1819 H 0.30435 0.32699 0.61082
 H1820 H 0.27209 0.31595 0.59172
 H1821 H 0.25367 0.29381 0.56485
 H1822 H 0.30786 0.25279 0.56061
 H1823 H 0.32651 0.27532 0.58690
 H1824 H 0.27854 0.24516 0.53634
 H1825 H 0.33574 0.29021 0.61824
 H1826 H 0.23697 0.26895 0.54629
 C1827 C 0.33689 0.82541 0.13088
 C1828 C 0.31556 0.82032 0.12806
 C1829 C 0.30688 0.80755 0.10937
 C1830 C 0.28495 0.80704 0.10629
 C1831 C 0.27588 0.79520 0.08908
 C1832 C 0.28859 0.78359 0.07441
 C1833 C 0.31048 0.78365 0.07778
 C1834 C 0.31959 0.79550 0.09503
 C1835 C 0.27948 0.77095 0.05588
 C1836 C 0.25986 0.77539 0.04658
 H1837 H 0.30451 0.82604 0.14028
 H1838 H 0.27474 0.81584 0.11728
 H1839 H 0.25889 0.79496 0.08766
 H1840 H 0.32061 0.77456 0.06695
 H1841 H 0.33648 0.79484 0.09708
 H1842 H 0.28883 0.75829 0.04881
 H1843 H 0.34835 0.81982 0.11910
 H1844 H 0.25098 0.78889 0.05242
 C1845 C 0.81822 0.33611 0.13113
 C1846 C 0.82231 0.31711 0.11996
 C1847 C 0.80812 0.30865 0.10248
 C1848 C 0.81632 0.29521 0.08614
 C1849 C 0.80329 0.28695 0.06944
 C1850 C 0.78163 0.29172 0.06901
 C1851 C 0.77344 0.30506 0.08544
 C1852 C 0.78645 0.31331 0.10209
 C1853 C 0.76713 0.28345 0.05168
 C1854 C 0.77149 0.26578 0.03852
 H1855 H 0.83631 0.30818 0.12395
 H1856 H 0.83293 0.29133 0.08612
 H1857 H 0.81039 0.27717 0.05682
 H1858 H 0.75683 0.30892 0.08557
 H1859 H 0.77933 0.32298 0.11481
 H1860 H 0.75199 0.29112 0.04982
 H1861 H 0.80455 0.34525 0.12641
 H1862 H 0.78597 0.25710 0.04075
 C1863 C 0.85058 0.83298 0.63604
 C1864 C 0.83802 0.84487 0.62176
 C1865 C 0.82509 0.83512 0.60395
 C1866 C 0.80703 0.84571 0.59654
 C1867 C 0.79425 0.83677 0.57999
 C1868 C 0.79944 0.81705 0.57044
 C1869 C 0.81782 0.80680 0.57750
 C1870 C 0.83053 0.81570 0.59402
 C1871 C 0.78662 0.80664 0.55292
 C1872 C 0.76649 0.81292 0.54627
 H1873 H 0.83685 0.86186 0.62431
 H1874 H 0.80267 0.86084 0.60375
 H1875 H 0.78052 0.84547 0.57475
 H1876 H 0.82239 0.79176 0.57021
 H1877 H 0.84473 0.80742 0.59865
 H1878 H 0.79333 0.79270 0.54512
 H1879 H 0.85183 0.81600 0.63358
 H1880 H 0.75886 0.82644 0.55376
 C1881 C 0.35415 0.66501 0.35224
 C1882 C 0.34594 0.65484 0.37078
 C1883 C 0.33681 0.66592 0.39021
 C1884 C 0.32670 0.65365 0.40634
 C1885 C 0.31768 0.66321 0.42489
 C1886 C 0.31845 0.68541 0.42772
 C1887 C 0.32901 0.69766 0.41191
 C1888 C 0.33807 0.68810 0.39335
 C1889 C 0.30863 0.69630 0.44687
 C1890 C 0.29254 0.68722 0.45942
 H1891 H 0.34613 0.63762 0.37096
 H1892 H 0.32574 0.63652 0.40458
 H1893 H 0.31038 0.65304 0.43701
 H1894 H 0.33009 0.71477 0.41382
 H1895 H 0.34607 0.69827 0.38176
 H1896 H 0.31334 0.71257 0.45038
 H1897 H 0.35459 0.68213 0.35144
 H1898 H 0.28663 0.67151 0.45541
 C1899 C 0.34868 0.16840 0.85361
 C1900 C 0.34013 0.15836 0.87202
 C1901 C 0.32828 0.16975 0.88938
 C1902 C 0.31342 0.15844 0.90181
 C1903 C 0.30160 0.16868 0.91807
 C1904 C 0.30454 0.19052 0.92229
 C1905 C 0.31992 0.20167 0.91038
 C1906 C 0.33166 0.19145 0.89403
 C1907 C 0.29221 0.20201 0.93921
 C1908 C 0.27219 0.19548 0.94594
 H1909 H 0.34120 0.14123 0.87314
 H1910 H 0.31079 0.14164 0.89879
 H1911 H 0.29044 0.15937 0.92745
 H1912 H 0.32274 0.21840 0.91361
 H1913 H 0.34351 0.20053 0.88536
 H1914 H 0.29866 0.21677 0.94573
 H1915 H 0.34751 0.18545 0.85199
 H1916 H 0.26479 0.18162 0.93851
 C1917 C 0.85177 0.66185 0.86662
 C1918 C 0.86031 0.67422 0.88374
 C1919 C 0.84809 0.68348 0.90222
 C1920 C 0.85918 0.69434 0.91897
 C1921 C 0.84847 0.70467 0.93597
 C1922 C 0.82633 0.70448 0.93653
 C1923 C 0.81520 0.69302 0.92027
 C1924 C 0.82591 0.68274 0.90316
 C1925 C 0.81446 0.71620 0.95362
 C1926 C 0.82235 0.73460 0.96377
 H1927 H 0.87707 0.67767 0.88334
 H1928 H 0.87625 0.69505 0.91878
 H1929 H 0.85761 0.71273 0.94864
 H1930 H 0.79813 0.69252 0.92044
 H1931 H 0.81662 0.67477 0.89060
 H1932 H 0.79843 0.71120 0.95705
 H1933 H 0.83554 0.65659 0.86730
 H1934 H 0.83769 0.74076 0.95924
 C1935 C 0.83136 0.18589 0.35548
 C1936 C 0.83077 0.20728 0.36174
 C1937 C 0.81828 0.21551 0.38050
 C1938 C 0.80095 0.20438 0.38932
 C1939 C 0.78947 0.21299 0.40687
 C1940 C 0.79498 0.23296 0.41582
 C1941 C 0.81223 0.24401 0.40693
 C1942 C 0.82364 0.23546 0.38939
 C1943 C 0.78370 0.24265 0.43468
 C1944 C 0.76371 0.23640 0.44190
 H1945 H 0.84013 0.21861 0.35255
 H1946 H 0.79595 0.18920 0.38262
 H1947 H 0.77652 0.20378 0.41344
 H1948 H 0.81686 0.25940 0.41353
 H1949 H 0.83682 0.24443 0.38283
 H1950 H 0.79142 0.25590 0.44300
 H1951 H 0.82235 0.17425 0.36457
 H1952 H 0.75499 0.22395 0.43344
 C1953 C 0.64069 0.34742 0.35971
 C1954 C 0.65230 0.35581 0.37741
 C1955 C 0.66252 0.34237 0.39426
 C1956 C 0.68007 0.35032 0.40593
 C1957 C 0.69016 0.33791 0.42184
 C1958 C 0.68271 0.31730 0.42647
 C1959 C 0.66483 0.30964 0.41516
 C1960 C 0.65482 0.32198 0.39928
 C1961 C 0.69266 0.30325 0.44299
 C1962 C 0.71229 0.30676 0.45299
 H1963 H 0.65456 0.37286 0.37855
 H1964 H 0.68611 0.36611 0.40258
 H1965 H 0.70358 0.34466 0.43047
 H1966 H 0.65855 0.29396 0.41860
 H1967 H 0.64086 0.31557 0.39130
 H1968 H 0.68423 0.28871 0.44690
 H1969 H 0.63883 0.33039 0.35803
 H1970 H 0.72158 0.32075 0.44934
 C1971 C 0.68463 0.82417 0.86101
 C1972 C 0.69900 0.83323 0.87598
 C1973 C 0.70975 0.82163 0.89400
 C1974 C 0.72276 0.83328 0.90853
 C1975 C 0.73364 0.82321 0.92554
 C1976 C 0.73183 0.80112 0.92835
 C1977 C 0.71861 0.78946 0.91407
 C1978 C 0.70778 0.79952 0.89697
 C1979 C 0.74299 0.78990 0.94627
 C1980 C 0.76144 0.79767 0.95615
 H1981 H 0.70249 0.85003 0.87451
 H1982 H 0.72451 0.85032 0.90676
 H1983 H 0.74313 0.83288 0.93662
 H1984 H 0.71684 0.77244 0.91599
 H1985 H 0.69813 0.78976 0.88619
 H1986 H 0.73682 0.77460 0.95137
 H1987 H 0.67972 0.80782 0.86280
 H1988 H 0.76872 0.81215 0.95026
 C1989 C 0.15783 0.31020 0.84456
 C1990 C 0.17239 0.31558 0.86105
 C1991 C 0.17885 0.30111 0.87897
 C1992 C 0.18959 0.30976 0.89723
 C1993 C 0.19660 0.29673 0.91425
 C1994 C 0.19318 0.27464 0.91322
 C1995 C 0.18215 0.26599 0.89516
 C1996 C 0.17520 0.27902 0.87807
 C1997 C 0.20080 0.26032 0.93071
 C1998 C 0.21836 0.26513 0.94375
 H1999 H 0.17895 0.33153 0.86123
 H2000 H 0.19255 0.32671 0.89838
 H2001 H 0.20446 0.30407 0.92825
 H2002 H 0.17930 0.24902 0.89404
 H2003 H 0.16743 0.27157 0.86411
 H2004 H 0.19306 0.24502 0.93254
 H2005 H 0.14958 0.29513 0.84521
 H2006 H 0.22724 0.27961 0.94100
 C2007 C 0.18238 0.81887 0.37279
 C2008 C 0.17546 0.80601 0.39009
 C2009 C 0.18972 0.79511 0.40574
 C2010 C 0.18155 0.77839 0.41840
 C2011 C 0.19428 0.76770 0.43350
 C2012 C 0.21559 0.77354 0.43628
 C2013 C 0.22366 0.79050 0.42390
 C2014 C 0.21093 0.80119 0.40880
 C2015 C 0.22966 0.76301 0.45238
 C2016 C 0.22540 0.74330 0.46193
 H2017 H 0.15869 0.80336 0.39201
 H2018 H 0.16520 0.77358 0.41662
 H2019 H 0.18718 0.75521 0.44315
 H2020 H 0.23992 0.79555 0.42596
 H2021 H 0.21776 0.81439 0.39997
 H2022 H 0.24431 0.77104 0.45663
 H2023 H 0.19905 0.82166 0.37049
 H2024 H 0.21146 0.73432 0.45731
 C2025 C 0.68480 0.67988 0.64836
 C2026 C 0.67520 0.69047 0.63084
 C2027 C 0.68651 0.69926 0.61151
 C2028 C 0.67448 0.70726 0.59400
 C2029 C 0.68420 0.71692 0.57599
 C2030 C 0.70626 0.71894 0.57515
 C2031 C 0.71839 0.71033 0.59224
 C2032 C 0.70866 0.70074 0.61036
 C2033 C 0.71690 0.73022 0.55690
 C2034 C 0.70741 0.74708 0.54595
 H2035 H 0.65825 0.69238 0.63125
 H2036 H 0.65743 0.70623 0.59432
 H2037 H 0.67436 0.72275 0.56276
 H2038 H 0.73543 0.71160 0.59189
 H2039 H 0.71863 0.69505 0.62350
 H2040 H 0.73314 0.72636 0.55323
 H2041 H 0.70135 0.67604 0.64758
 H2042 H 0.69188 0.75226 0.55088
 C2043 C 0.63685 0.17573 0.13844
 C2044 C 0.64691 0.16675 0.12016
 C2045 C 0.65765 0.17925 0.10276
 C2046 C 0.67186 0.16888 0.08870
 C2047 C 0.68215 0.17994 0.07187
 C2048 C 0.67837 0.20173 0.06872
 C2049 C 0.66393 0.21199 0.08260
 C2050 C 0.65365 0.20094 0.09940
 C2051 C 0.68863 0.21432 0.05107
 C2052 C 0.70541 0.20735 0.03805
 H2053 H 0.64726 0.14959 0.11872
 H2054 H 0.67503 0.15212 0.09074
 H2055 H 0.69276 0.17121 0.06136
 H2056 H 0.66050 0.22868 0.08041
 H2057 H 0.64235 0.20945 0.10932
 H2058 H 0.68291 0.23031 0.04855
 H2059 H 0.63663 0.19278 0.14053
 H2060 H 0.71211 0.19179 0.04034
 C2061 C 0.14969 0.67302 0.14834
 C2062 C 0.15640 0.66332 0.12884
 C2063 C 0.16516 0.67545 0.11006
 C2064 C 0.17810 0.66506 0.09474
 C2065 C 0.18641 0.67602 0.07669
 C2066 C 0.18181 0.69765 0.07355
 C2067 C 0.16837 0.70783 0.08853
 C2068 C 0.16014 0.69691 0.10658
 C2069 C 0.19035 0.71006 0.05485
 C2070 C 0.20846 0.70446 0.04324
 H2071 H 0.15508 0.64621 0.12725
 H2072 H 0.18185 0.64843 0.09680
 H2073 H 0.19611 0.66737 0.06515
 H2074 H 0.16428 0.72436 0.08631
 H2075 H 0.14952 0.70529 0.11745
 H2076 H 0.18285 0.72501 0.05102
 H2077 H 0.15173 0.68998 0.15047
 H2078 H 0.21704 0.69029 0.04755
 C2079 C 0.14208 0.13233 0.63377
 C2080 C 0.16233 0.13296 0.62473
 C2081 C 0.16799 0.14432 0.60420
 C2082 C 0.18942 0.14783 0.59970
 C2083 C 0.19565 0.15908 0.58101
 C2084 C 0.18050 0.16697 0.56626
 C2085 C 0.15908 0.16325 0.57056
 C2086 C 0.15284 0.15190 0.58921
 C2087 C 0.18639 0.18012 0.54705
 C2088 C 0.20630 0.17978 0.53733
 H2089 H 0.17510 0.12592 0.63398
 H2090 H 0.20143 0.14219 0.61093
 H2091 H 0.21229 0.16207 0.57862
 H2092 H 0.14711 0.16918 0.55944
 H2093 H 0.13619 0.14917 0.59163
 H2094 H 0.17449 0.19051 0.54028
 H2095 H 0.12935 0.14055 0.62569
 H2096 H 0.21795 0.16843 0.54265
   
