data_POSCAR
  _audit_creation_date              2014-09-24
  _audit_creation_method            'ToBaCCo'
  _symmetry_space_group_name_H-M    'P1'
  _symmetry_Int_Tables_number       1
  _symmetry_cell_setting            triclinic
  loop_
  _symmetry_equiv_pos_as_xyz
 x,y,z
_cell_length_a 61.1750
_cell_length_b 61.2165
_cell_length_c 61.0375
_cell_angle_alpha 90.147000
_cell_angle_beta 90.032400
_cell_angle_gamma 90.023600
loop_
  _atom_site_label
  _atom_site_type_symbol
  _atom_site_fract_x
  _atom_site_fract_y
  _atom_site_fract_z
C1 C 0.13470 -0.03222 0.25477
 C2 C 0.12587 -0.01164 0.25977
 C3 C 0.11644 -0.00799 0.28037
 C4 C 0.11540 -0.02482 0.29585
 C5 C 0.12440 -0.04529 0.29071
 C6 C 0.13431 -0.04939 0.27020
 C7 C 0.12597 0.00597 0.24322
 C8 C 0.11671 0.00243 0.22245
 C9 C 0.11557 0.01942 0.20685
 C10 C 0.12487 0.03979 0.21249
 C11 C 0.13446 0.04344 0.23307
 C12 C 0.13474 0.02648 0.24845
 H13 H 0.14132 -0.03476 0.23853
 H14 H 0.10923 0.00777 0.28402
 H15 H 0.10920 -0.01326 0.21922
 H16 H 0.14185 0.02919 0.26450
 H17 H 0.12461 -0.05759 0.30339
 H18 H 0.12583 0.05271 0.20047
 C19 C 0.36572 -0.02747 0.74656
 C20 C 0.37504 -0.00719 0.74140
 C21 C 0.38441 -0.00399 0.72066
 C22 C 0.38482 -0.02101 0.70519
 C23 C 0.37518 -0.04114 0.71052
 C24 C 0.36550 -0.04451 0.73110
 C25 C 0.37506 0.01067 0.75773
 C26 C 0.38407 0.00736 0.77862
 C27 C 0.38489 0.02447 0.79420
 C28 C 0.37558 0.04476 0.78836
 C29 C 0.36622 0.04815 0.76764
 C30 C 0.36628 0.03107 0.75231
 H31 H 0.35852 -0.02990 0.76259
 H32 H 0.39200 0.01155 0.71689
 H33 H 0.39155 -0.00829 0.78198
 H34 H 0.35932 0.03356 0.73618
 H35 H 0.37473 -0.05407 0.69837
 H36 H 0.37438 0.05778 0.80032
 C37 C 0.86629 0.47164 0.24761
 C38 C 0.87519 0.49216 0.24260
 C39 C 0.88461 0.49564 0.22193
 C40 C 0.88549 0.47870 0.20640
 C41 C 0.87627 0.45835 0.21157
 C42 C 0.86655 0.45466 0.23208
 C43 C 0.87479 0.50997 0.25902
 C44 C 0.88350 0.50664 0.28003
 C45 C 0.88412 0.52373 0.29564
 C46 C 0.87492 0.54405 0.28969
 C47 C 0.86582 0.54745 0.26884
 C48 C 0.86607 0.53037 0.25351
 H49 H 0.85904 0.46897 0.26358
 H50 H 0.89190 0.51135 0.21826
 H51 H 0.89098 0.49101 0.28346
 H52 H 0.85936 0.53289 0.23727
 H53 H 0.87616 0.44549 0.19935
 H54 H 0.87362 0.55708 0.30162
 C55 C 0.63455 0.46910 0.75412
 C56 C 0.62540 0.48946 0.75936
 C57 C 0.61612 0.49278 0.78013
 C58 C 0.61561 0.47578 0.79554
 C59 C 0.62511 0.45559 0.79015
 C60 C 0.63468 0.45210 0.76952
 C61 C 0.62524 0.50717 0.74299
 C62 C 0.61568 0.50375 0.72236
 C63 C 0.61498 0.52066 0.70687
 C64 C 0.62455 0.54089 0.71205
 C65 C 0.63443 0.54447 0.73253
 C66 C 0.63449 0.52755 0.74803
 H67 H 0.64163 0.46656 0.73804
 H68 H 0.60863 0.50837 0.78394
 H69 H 0.60815 0.48814 0.71870
 H70 H 0.64183 0.53015 0.76398
 H71 H 0.62549 0.44269 0.80226
 H72 H 0.62478 0.55372 0.69986
 C73 C 0.24606 0.13262 1.02815
 C74 C 0.24183 0.12361 1.00747
 C75 C 0.22116 0.11477 1.00291
 C76 C 0.20445 0.11476 1.01888
 C77 C 0.20912 0.12420 1.03952
 C78 C 0.22975 0.13310 1.04424
 C79 C 0.25902 0.12381 0.99046
 C80 C 0.27954 0.11451 0.99475
 C81 C 0.29648 0.11519 0.97904
 C82 C 0.29220 0.12586 0.95900
 C83 C 0.27177 0.13532 0.95457
 C84 C 0.25514 0.13395 0.97029
 H85 H 0.26206 0.13942 1.03163
 H86 H 0.21817 0.10849 0.98659
 H87 H 0.28226 0.10738 1.01072
 H88 H 0.23943 0.14151 0.96721
 H89 H 0.19698 0.12420 1.05239
 H90 H 0.30432 0.12596 0.94610
 C91 C 0.75403 0.36604 1.03064
 C92 C 0.75729 0.37500 1.00973
 C93 C 0.77754 0.38424 1.00439
 C94 C 0.79454 0.38473 1.01976
 C95 C 0.79122 0.37543 1.04049
 C96 C 0.77111 0.36565 1.04626
 C97 C 0.73976 0.37397 0.99306
 C98 C 0.71908 0.38288 0.99739
 C99 C 0.70222 0.38220 0.98153
 C100 C 0.70673 0.37179 0.96131
 C101 C 0.72737 0.36275 0.95684
 C102 C 0.74382 0.36406 0.97277
 H103 H 0.73855 0.35816 1.03394
 H104 H 0.78002 0.39106 0.98821
 H105 H 0.71625 0.38990 1.01343
 H106 H 0.75985 0.35731 0.96943
 H107 H 0.80418 0.37692 1.05246
 H108 H 0.69451 0.37120 0.94852
 C109 C 0.25504 0.86605 0.52896
 C110 C 0.25873 0.87531 0.50833
 C111 C 0.27916 0.88457 0.50355
 C112 C 0.29620 0.88470 0.51918
 C113 C 0.29213 0.87485 0.53969
 C114 C 0.27177 0.86548 0.54465
 C115 C 0.24138 0.87481 0.49148
 C116 C 0.22078 0.88386 0.49588
 C117 C 0.20429 0.88368 0.47984
 C118 C 0.20853 0.87390 0.45943
 C119 C 0.22901 0.86456 0.45486
 C120 C 0.24542 0.86527 0.47096
 H121 H 0.23938 0.85855 0.53246
 H122 H 0.28173 0.89106 0.48728
 H123 H 0.21768 0.89117 0.51177
 H124 H 0.26136 0.85832 0.46758
 H125 H 0.30435 0.87537 0.55250
 H126 H 0.19586 0.87358 0.44704
 C127 C 0.74634 0.63356 0.52661
 C128 C 0.74203 0.62457 0.50590
 C129 C 0.72142 0.61555 0.50151
 C130 C 0.70517 0.61520 0.51777
 C131 C 0.70967 0.62447 0.53839
 C132 C 0.73017 0.63380 0.54292
 C133 C 0.75918 0.62463 0.48890
 C134 C 0.77964 0.61526 0.49325
 C135 C 0.79661 0.61582 0.47760
 C136 C 0.79245 0.62647 0.45753
 C137 C 0.77207 0.63600 0.45303
 C138 C 0.75537 0.63472 0.46869
 H139 H 0.76232 0.64046 0.52994
 H140 H 0.71812 0.60867 0.48547
 H141 H 0.78229 0.60817 0.50926
 H142 H 0.73969 0.64233 0.46555
 H143 H 0.69717 0.62442 0.55095
 H144 H 0.80462 0.62652 0.44468
 C145 C -0.02924 0.25608 0.13489
 C146 C -0.00888 0.25998 0.12514
 C147 C -0.00467 0.28025 0.11527
 C148 C -0.02092 0.29661 0.11440
 C149 C -0.04112 0.29236 0.12473
 C150 C -0.04529 0.27239 0.13516
 C151 C 0.00801 0.24272 0.12509
 C152 C 0.00335 0.22209 0.11618
 C153 C 0.01915 0.20526 0.11614
 C154 C 0.03971 0.20975 0.12572
 C155 C 0.04456 0.23036 0.13468
 C156 C 0.02864 0.24682 0.13414
 H157 H -0.03227 0.24061 0.14293
 H158 H 0.01089 0.28249 0.10714
 H159 H -0.01293 0.21923 0.10985
 H160 H 0.03221 0.26281 0.14091
 H161 H -0.05363 0.30482 0.12539
 H162 H 0.05243 0.19749 0.12577
 C163 C -0.02764 0.74532 0.36496
 C164 C -0.00750 0.74100 0.37511
 C165 C -0.00374 0.72044 0.38454
 C166 C -0.02014 0.70436 0.38427
 C167 C -0.04002 0.70881 0.37366
 C168 C -0.04387 0.72916 0.36384
 C169 C 0.00947 0.75814 0.37599
 C170 C 0.00470 0.77855 0.38537
 C171 C 0.02049 0.79519 0.38583
 C172 C 0.04106 0.79129 0.37641
 C173 C 0.04600 0.77108 0.36666
 C174 C 0.03020 0.75441 0.36686
 H175 H -0.03036 0.76107 0.35736
 H176 H 0.01164 0.71731 0.39278
 H177 H -0.01137 0.78144 0.39225
 H178 H 0.03365 0.73883 0.35914
 H179 H -0.05263 0.69638 0.37313
 H180 H 0.05345 0.80393 0.37701
 C181 C 0.47130 0.24540 0.86598
 C182 C 0.49165 0.24137 0.87568
 C183 C 0.49610 0.22074 0.88458
 C184 C 0.48036 0.20384 0.88400
 C185 C 0.46012 0.20827 0.87376
 C186 C 0.45552 0.22883 0.86469
 C187 C 0.50862 0.25857 0.87582
 C188 C 0.50419 0.27914 0.88499
 C189 C 0.51999 0.29600 0.88473
 C190 C 0.54026 0.29160 0.87454
 C191 C 0.54484 0.27110 0.86524
 C192 C 0.52902 0.25458 0.86620
 H193 H 0.46809 0.26121 0.85871
 H194 H 0.51220 0.21791 0.89135
 H195 H 0.48808 0.28195 0.89174
 H196 H 0.53224 0.23882 0.85875
 H197 H 0.44722 0.19618 0.87374
 H198 H 0.55319 0.30365 0.87475
 C199 C 0.47029 0.75514 0.63558
 C200 C 0.49069 0.75917 0.62590
 C201 C 0.49479 0.77948 0.61611
 C202 C 0.47852 0.79562 0.61561
 C203 C 0.45832 0.79150 0.62569
 C204 C 0.45412 0.77140 0.63588
 C205 C 0.50772 0.74212 0.62588
 C206 C 0.50332 0.72150 0.61687
 C207 C 0.51954 0.70528 0.61637
 C208 C 0.54014 0.70978 0.62556
 C209 C 0.54469 0.73030 0.63490
 C210 C 0.52841 0.74648 0.63474
 H211 H 0.46731 0.73959 0.64350
 H212 H 0.51039 0.78238 0.60823
 H213 H 0.48729 0.71820 0.61007
 H214 H 0.53176 0.76248 0.64161
 H215 H 0.44580 0.80401 0.62560
 H216 H 0.55266 0.69728 0.62543
 C217 C 0.86701 1.02724 0.75583
 C218 C 0.87631 1.00684 0.76006
 C219 C 0.88516 1.00250 0.78074
 C220 C 0.88527 1.01850 0.79747
 C221 C 0.87512 1.03881 0.79294
 C222 C 0.86589 1.04326 0.77226
 C223 C 0.87664 0.98986 0.74282
 C224 C 0.88597 0.99430 0.72239
 C225 C 0.88660 0.97834 0.70564
 C226 C 0.87654 0.95792 0.70990
 C227 C 0.86687 0.95334 0.73033
 C228 C 0.86743 0.96936 0.74680
 H229 H 0.86044 1.03049 0.73967
 H230 H 0.89150 0.98627 0.78361
 H231 H 0.89225 1.01059 0.71968
 H232 H 0.86050 0.96603 0.76277
 H233 H 0.87476 1.05157 0.80517
 H234 H 0.87659 0.94518 0.69765
 C235 C 0.36709 0.52704 0.25408
 C236 C 0.37603 0.50643 0.25833
 C237 C 0.38499 0.50205 0.27897
 C238 C 0.38554 0.51823 0.29534
 C239 C 0.37602 0.53872 0.29098
 C240 C 0.36650 0.54322 0.27045
 C241 C 0.37582 0.48934 0.24121
 C242 C 0.38469 0.49355 0.22048
 C243 C 0.38505 0.47719 0.20437
 C244 C 0.37569 0.45673 0.20887
 C245 C 0.36622 0.45240 0.22942
 C246 C 0.36681 0.46876 0.24564
 H247 H 0.36037 0.53031 0.23800
 H248 H 0.39166 0.48598 0.28215
 H249 H 0.39200 0.50933 0.21717
 H250 H 0.36012 0.46561 0.26175
 H251 H 0.37599 0.55116 0.30359
 H252 H 0.37532 0.44443 0.19608
 C253 C 0.63366 1.02995 0.24517
 C254 C 0.62447 1.00942 0.24097
 C255 C 0.61533 1.00502 0.22040
 C256 C 0.61482 1.02115 0.20406
 C257 C 0.62456 1.04158 0.20837
 C258 C 0.63426 1.04607 0.22883
 C259 C 0.62455 0.99246 0.25812
 C260 C 0.61551 0.99683 0.27873
 C261 C 0.61534 0.98090 0.29544
 C262 C 0.62563 0.96062 0.29096
 C263 C 0.63506 0.95616 0.27036
 C264 C 0.63396 0.97209 0.25393
 H265 H 0.64053 1.03323 0.26121
 H266 H 0.60846 0.98900 0.21726
 H267 H 0.60911 1.01305 0.28158
 H268 H 0.64067 0.96883 0.23783
 H269 H 0.62460 1.05398 0.19578
 H270 H 0.62597 0.94789 0.30316
 C271 C 0.13328 0.53084 0.74590
 C272 C 0.12437 0.51023 0.74152
 C273 C 0.11524 0.50591 0.72096
 C274 C 0.11441 0.52219 0.70480
 C275 C 0.12394 0.54269 0.70923
 C276 C 0.13366 0.54711 0.72970
 C277 C 0.12441 0.49322 0.75859
 C278 C 0.11508 0.49748 0.77906
 C279 C 0.11442 0.48129 0.79530
 C280 C 0.12430 0.46092 0.79105
 C281 C 0.13420 0.45656 0.77065
 C282 C 0.13366 0.47274 0.75436
 H283 H 0.14006 0.53407 0.76199
 H284 H 0.10854 0.48984 0.71771
 H285 H 0.10812 0.51346 0.78220
 H286 H 0.14060 0.46956 0.73834
 H287 H 0.12377 0.55521 0.69675
 H288 H 0.12427 0.44848 0.80360
 C289 C 0.74649 0.86666 -0.03095
 C290 C 0.74189 0.87601 -0.01053
 C291 C 0.72123 0.88500 -0.00660
 C292 C 0.70519 0.88520 -0.02309
 C293 C 0.70989 0.87529 -0.04341
 C294 C 0.73046 0.86573 -0.04741
 C295 C 0.75872 0.87625 0.00680
 C296 C 0.77938 0.88515 0.00266
 C297 C 0.79581 0.88553 0.01894
 C298 C 0.79099 0.87562 0.03934
 C299 C 0.77033 0.86636 0.04357
 C300 C 0.75419 0.86723 0.02729
 H301 H 0.76259 0.85991 -0.03387
 H302 H 0.71777 0.89198 0.00935
 H303 H 0.78250 0.89126 -0.01365
 H304 H 0.73806 0.86060 0.03037
 H305 H 0.69754 0.87501 -0.05610
 H306 H 0.80297 0.87546 0.05232
 C307 C 0.24564 0.36601 0.47068
 C308 C 0.24129 0.37537 0.49116
 C309 C 0.22071 0.38447 0.49531
 C310 C 0.20451 0.38476 0.47899
 C311 C 0.20896 0.37486 0.45862
 C312 C 0.22943 0.36521 0.45439
 C313 C 0.25826 0.37554 0.50834
 C314 C 0.27892 0.38435 0.50404
 C315 C 0.29506 0.38507 0.52042
 C316 C 0.29048 0.37576 0.54102
 C317 C 0.26992 0.36635 0.54539
 C318 C 0.25377 0.36684 0.52903
 H319 H 0.26167 0.35915 0.46759
 H320 H 0.21745 0.39148 0.51129
 H321 H 0.28227 0.39084 0.48789
 H322 H 0.23765 0.36026 0.53222
 H323 H 0.19649 0.37466 0.44605
 H324 H 0.30291 0.37585 0.55363
 C325 C 0.25357 0.63393 -0.02968
 C326 C 0.25792 0.62424 -0.00941
 C327 C 0.27857 0.61528 -0.00537
 C328 C 0.29483 0.61534 -0.02164
 C329 C 0.29034 0.62556 -0.04182
 C330 C 0.26981 0.63518 -0.04589
 C331 C 0.24085 0.62369 0.00767
 C332 C 0.22027 0.61475 0.00308
 C333 C 0.20360 0.61418 0.01909
 C334 C 0.20813 0.62386 0.03973
 C335 C 0.22868 0.63316 0.04441
 C336 C 0.24505 0.63253 0.02836
 H337 H 0.23749 0.64070 -0.03268
 H338 H 0.28182 0.60810 0.01050
 H339 H 0.21740 0.60878 -0.01336
 H340 H 0.26109 0.63923 0.03179
 H341 H 0.30282 0.62604 -0.05437
 H342 H 0.19598 0.62385 0.05254
 C343 C 0.75473 0.13394 0.47099
 C344 C 0.75888 0.12441 0.49134
 C345 C 0.77938 0.11519 0.49558
 C346 C 0.79603 0.11500 0.47954
 C347 C 0.79157 0.12534 0.45928
 C348 C 0.77109 0.13491 0.45494
 C349 C 0.74181 0.12439 0.50843
 C350 C 0.72116 0.11558 0.50402
 C351 C 0.70495 0.11496 0.52032
 C352 C 0.70946 0.12435 0.54094
 C353 C 0.73001 0.13377 0.54544
 C354 C 0.74622 0.13320 0.52914
 H355 H 0.73874 0.14084 0.46782
 H356 H 0.78221 0.10868 0.51179
 H357 H 0.71787 0.10901 0.48786
 H358 H 0.76233 0.13978 0.53243
 H359 H 0.80371 0.12561 0.44646
 H360 H 0.69698 0.12432 0.55350
 C361 C 1.02828 0.75527 0.86731
 C362 C 1.00796 0.75939 0.87687
 C363 C 1.00364 0.77991 0.88605
 C364 C 1.01962 0.79660 0.88625
 C365 C 1.03988 0.79216 0.87586
 C366 C 1.04426 0.77166 0.86627
 C367 C 0.99095 0.74227 0.87687
 C368 C 0.99521 0.72185 0.88621
 C369 C 0.97923 0.70516 0.88638
 C370 C 0.95901 0.70951 0.87588
 C371 C 0.95468 0.72992 0.86616
 C372 C 0.97067 0.74630 0.86719
 H373 H 1.03148 0.73926 0.86043
 H374 H 0.98744 0.78271 0.89253
 H375 H 1.01139 0.71910 0.89281
 H376 H 0.96750 0.76224 0.86020
 H377 H 1.05265 0.80433 0.87556
 H378 H 0.94624 0.69735 0.87558
 C379 C 0.52848 0.25471 0.36606
 C380 C 0.50801 0.25852 0.37553
 C381 C 0.50342 0.27894 0.38482
 C382 C 0.51933 0.29551 0.38524
 C383 C 0.53971 0.29158 0.37523
 C384 C 0.54435 0.27128 0.36534
 C385 C 0.49131 0.24114 0.37560
 C386 C 0.49598 0.22077 0.38483
 C387 C 0.48008 0.20420 0.38535
 C388 C 0.45961 0.20808 0.37549
 C389 C 0.45488 0.22834 0.36568
 C390 C 0.47074 0.24493 0.36632
 H391 H 0.53191 0.23879 0.35907
 H392 H 0.48742 0.28178 0.39187
 H393 H 0.51204 0.21796 0.39175
 H394 H 0.46726 0.26083 0.35940
 H395 H 0.55197 0.30432 0.37513
 H396 H 0.44737 0.19532 0.37544
 C397 C 1.02882 0.24681 0.63462
 C398 C 1.00855 0.24224 0.62511
 C399 C 1.00467 0.22166 0.61583
 C400 C 1.02103 0.20536 0.61553
 C401 C 1.04121 0.21023 0.62588
 C402 C 1.04519 0.23080 0.63552
 C403 C 0.99117 0.25897 0.62514
 C404 C 0.99485 0.27935 0.61547
 C405 C 0.97846 0.29562 0.61517
 C406 C 0.95846 0.29095 0.62595
 C407 C 0.95470 0.27057 0.63599
 C408 C 0.97108 0.25457 0.63505
 H409 H 1.03170 0.26288 0.64152
 H410 H 0.98852 0.21850 0.60935
 H411 H 1.01088 0.28239 0.60869
 H412 H 0.96836 0.23863 0.64223
 H413 H 1.05424 0.19835 0.62609
 H414 H 0.94542 0.30281 0.62619
 C415 C 0.52947 0.74706 0.13388
 C416 C 0.50901 0.74239 0.12473
 C417 C 0.50510 0.72177 0.11557
 C418 C 0.52164 0.70586 0.11498
 C419 C 0.54199 0.71062 0.12471
 C420 C 0.54600 0.73114 0.13444
 C421 C 0.49170 0.75916 0.12464
 C422 C 0.49559 0.77956 0.11510
 C423 C 0.47912 0.79554 0.11442
 C424 C 0.45886 0.79107 0.12444
 C425 C 0.45488 0.77078 0.13455
 C426 C 0.47133 0.75477 0.13408
 H427 H 0.53239 0.76315 0.14071
 H428 H 0.48913 0.71829 0.10871
 H429 H 0.51150 0.78285 0.10804
 H430 H 0.46844 0.73885 0.14122
 H431 H 0.55472 0.69836 0.12469
 H432 H 0.44619 0.80339 0.12436
 O433 O 0.04333 1.04771 0.99846
 O434 O 0.02280 1.04987 0.96457
 O435 O -0.00470 1.04454 1.04852
 O436 O -0.03459 1.02441 1.05613
 O437 O 0.04670 0.99664 1.04632
 O438 O 0.05250 0.96452 1.02436
 O439 O -0.06162 0.98396 0.99271
 O440 O -0.06473 1.01780 1.00871
 O441 O -0.01658 0.99164 0.94060
 O442 O 0.02291 1.00753 0.94014
 O443 O -0.00858 0.93921 0.98514
 O444 O 0.00514 0.93623 1.02275
 O445 O -0.04361 0.95374 1.00466
 O446 O -0.02152 0.94717 1.03783
 O447 O 0.00338 0.95694 0.95479
 O448 O 0.03436 0.97728 0.94714
 O449 O -0.04732 1.00233 0.95849
 O450 O -0.04944 1.03749 0.97857
 O451 O 0.06113 1.01728 1.01030
 O452 O 0.06430 0.98069 0.99666
 O453 O 0.01636 1.00945 1.06354
 O454 O -0.02024 0.99328 1.06541
 O455 O 0.00850 1.06194 1.01837
 O456 O -0.00938 1.06287 0.98284
 Zr457 Zr 0.01077 1.03715 0.99459
 O458 O -0.00907 1.01810 0.97381
 Zr459 Zr -0.00750 1.01153 1.03891
 O460 O -0.02812 0.99155 1.01988
 Zr461 Zr 0.03674 0.99321 1.01339
 O462 O 0.01809 0.97244 0.99319
 Zr463 Zr -0.03686 1.00761 0.99086
 O464 O -0.01828 1.02869 1.01115
 Zr465 Zr 0.00747 0.98938 0.96524
 O466 O 0.02840 1.00941 0.98424
 Zr467 Zr -0.01095 0.96372 1.00932
 O468 O 0.00904 0.98247 1.03069
 O469 O 0.02074 1.02144 1.02309
 O470 O -0.02111 0.97911 0.98066
 C471 C 0.06073 1.03741 1.00426
 C472 C 0.00182 1.06176 1.03835
 C473 C 0.03640 1.00317 1.06350
 C474 C -0.06105 0.96382 0.99861
 C475 C -0.03693 0.99687 0.94104
 C476 C -0.00257 0.93959 0.96495
 H477 H -0.01313 1.02689 0.96084
 H478 H 0.02700 0.95955 0.98928
 H479 H 0.03000 1.03087 1.03246
 H480 H -0.04121 0.98771 1.02854
 H481 H -0.06053 1.03136 1.01653
 H482 H -0.04791 1.01857 1.04905
 H483 H 0.04352 0.96877 0.95738
 H484 H 0.06469 0.98804 0.98224
 H485 H -0.06432 1.03469 0.97274
 H486 H -0.00139 1.07690 0.98422
 H487 H 0.01908 0.93432 1.01477
 H488 H 0.04254 0.95762 1.03508
 H489 H 0.02869 1.06476 0.96714
 H490 H 0.01248 1.01881 0.93511
 H491 H -0.01140 0.97978 1.06646
 H492 H -0.03365 0.95567 1.04431
 O493 O 0.49588 0.54423 0.54784
 O494 O 0.46191 0.52385 0.55004
 O495 O 0.54562 0.49608 0.54589
 O496 O 0.55353 0.46595 0.52620
 O497 O 0.54388 0.54662 0.49687
 O498 O 0.52222 0.55189 0.46444
 O499 O 0.49075 0.43815 0.48555
 O500 O 0.50614 0.43570 0.51972
 O501 O 0.43848 0.48348 0.49232
 O502 O 0.43796 0.52327 0.50730
 O503 O 0.48359 0.49063 0.43969
 O504 O 0.52127 0.50406 0.43698
 O505 O 0.50252 0.45573 0.45494
 O506 O 0.53588 0.47740 0.44834
 O507 O 0.45298 0.50250 0.45709
 O508 O 0.44520 0.53390 0.47668
 O509 O 0.45623 0.45281 0.50330
 O510 O 0.47582 0.45136 0.53885
 O511 O 0.50829 0.56138 0.51723
 O512 O 0.49443 0.56397 0.48050
 O513 O 0.56110 0.51651 0.51004
 O514 O 0.56300 0.47949 0.49485
 O515 O 0.51545 0.50994 0.56270
 O516 O 0.48001 0.49187 0.56372
 Zr517 Zr 0.49195 0.51153 0.53769
 O518 O 0.47139 0.49135 0.51875
 Zr519 Zr 0.53643 0.49274 0.51268
 O520 O 0.51761 0.47179 0.49282
 Zr521 Zr 0.51110 0.53663 0.49340
 O522 O 0.49118 0.51764 0.47269
 Zr523 Zr 0.48848 0.46336 0.50881
 O524 O 0.50852 0.48231 0.52983
 Zr525 Zr 0.46313 0.50736 0.48962
 O526 O 0.48185 0.52866 0.50953
 Zr527 Zr 0.50737 0.48846 0.46457
 O528 O 0.52849 0.50875 0.48322
 O529 O 0.52056 0.52113 0.52200
 O530 O 0.47861 0.47860 0.47991
 C531 C 0.50216 0.56137 0.53740
 C532 C 0.53534 0.50318 0.56290
 C533 C 0.56105 0.53642 0.50341
 C534 C 0.49659 0.43845 0.46531
 C535 C 0.43886 0.46321 0.49775
 C536 C 0.46340 0.49647 0.43985
 H537 H 0.45838 0.48748 0.52754
 H538 H 0.48743 0.52632 0.45959
 H539 H 0.52991 0.53051 0.53133
 H540 H 0.52627 0.45863 0.48925
 H541 H 0.51375 0.44015 0.53334
 H542 H 0.54635 0.45253 0.52074
 H543 H 0.45563 0.54311 0.46847
 H544 H 0.48011 0.56461 0.48802
 H545 H 0.47000 0.43645 0.53622
 H546 H 0.48132 0.50009 0.57768
 H547 H 0.51328 0.51791 0.43467
 H548 H 0.53306 0.54188 0.45778
 H549 H 0.46437 0.52997 0.56490
 H550 H 0.43295 0.51321 0.51892
 H551 H 0.56408 0.48790 0.48106
 H552 H 0.54215 0.46532 0.45705
 O553 O 0.50403 -0.04489 0.54598
 O554 O 0.53783 -0.02434 0.54882
 O555 O 0.45409 0.00326 0.54411
 O556 O 0.44642 0.03357 0.52463
 O557 O 0.45632 -0.04707 0.49479
 O558 O 0.47812 -0.05199 0.46229
 O559 O 0.50941 0.06154 0.48481
 O560 O 0.49377 0.06381 0.51887
 O561 O 0.56170 0.01621 0.49164
 O562 O 0.56202 -0.02366 0.50651
 O563 O 0.51721 0.00927 0.43858
 O564 O 0.47941 -0.00436 0.43542
 O565 O 0.49796 0.04405 0.45392
 O566 O 0.46488 0.02251 0.44660
 O567 O 0.54753 -0.00294 0.45619
 O568 O 0.55524 -0.03416 0.47565
 O569 O 0.54382 0.04683 0.50272
 O570 O 0.52395 0.04812 0.53812
 O571 O 0.49170 -0.06181 0.51510
 O572 O 0.50580 -0.06426 0.47848
 O573 O 0.43890 -0.01695 0.50783
 O574 O 0.43711 0.02010 0.49307
 O575 O 0.48414 -0.01069 0.56104
 O576 O 0.51949 0.00749 0.56261
 Zr577 Zr 0.50786 -0.01208 0.53626
 O578 O 0.52857 0.00821 0.51774
 Zr579 Zr 0.46357 0.00680 0.51100
 O580 O 0.48256 0.02782 0.49150
 Zr581 Zr 0.48908 -0.03696 0.49153
 O582 O 0.50922 -0.01792 0.47124
 Zr583 Zr 0.51154 0.03622 0.50786
 O584 O 0.49134 0.01716 0.52850
 Zr585 Zr 0.53710 -0.00770 0.48857
 O586 O 0.51819 -0.02910 0.50805
 Zr587 Zr 0.49311 0.01128 0.46319
 O588 O 0.47178 -0.00905 0.48145
 O589 O 0.47939 -0.02161 0.52020
 O590 O 0.52171 0.02109 0.47894
 C591 C 0.49775 -0.06194 0.53530
 C592 C 0.46424 -0.00393 0.56114
 C593 C 0.43908 -0.03689 0.50119
 C594 C 0.50374 0.06131 0.46451
 C595 C 0.56124 0.03648 0.49721
 C596 C 0.53735 0.00326 0.43889
 H597 H 0.54150 0.01206 0.52669
 H598 H 0.51312 -0.02657 0.45811
 H599 H 0.46998 -0.03105 0.52936
 H600 H 0.47392 0.04098 0.48795
 H601 H 0.48604 0.05929 0.53238
 H602 H 0.45357 0.04700 0.51924
 H603 H 0.54489 -0.04345 0.46738
 H604 H 0.52005 -0.06498 0.48613
 H605 H 0.52979 0.06303 0.53567
 H606 H 0.51807 -0.00080 0.57648
 H607 H 0.48762 -0.01806 0.43293
 H608 H 0.46723 -0.04198 0.45575
 H609 H 0.53525 -0.03056 0.56359
 H610 H 0.56715 -0.01348 0.51803
 H611 H 0.43621 0.01183 0.47915
 H612 H 0.45827 0.03425 0.45557
 O613 O -0.04501 0.45391 0.99562
 O614 O -0.02486 0.45207 0.96149
 O615 O 0.00431 0.45544 1.04495
 O616 O 0.03412 0.47545 1.05298
 O617 O -0.04707 0.50393 1.04486
 O618 O -0.05278 0.53666 1.02373
 O619 O 0.06057 0.51674 0.99017
 O620 O 0.06352 0.48251 1.00530
 O621 O 0.01462 0.51002 0.93833
 O622 O -0.02524 0.49469 0.93835
 O623 O 0.00775 0.56206 0.98416
 O624 O -0.00556 0.56430 1.02221
 O625 O 0.04293 0.54691 1.00292
 O626 O 0.02154 0.55324 1.03636
 O627 O -0.00462 0.54486 0.95356
 O628 O -0.03576 0.52534 0.94579
 O629 O 0.04565 0.49930 0.95572
 O630 O 0.04773 0.46366 0.97474
 O631 O -0.06224 0.48414 1.00884
 O632 O -0.06533 0.52094 0.99591
 O633 O -0.01659 0.49056 1.06134
 O634 O 0.02017 0.50635 1.06310
 O635 O -0.01037 0.43903 1.01483
 O636 O 0.00740 0.43845 0.97918
 Zr637 Zr -0.01236 0.46419 0.99165
 O638 O 0.00743 0.48337 0.97108
 Zr639 Zr 0.00689 0.48873 1.03632
 O640 O 0.02737 0.50895 1.01750
 Zr641 Zr -0.03758 0.50796 1.01189
 O642 O -0.01907 0.52889 0.99186
 Zr643 Zr 0.03555 0.49335 0.98802
 O644 O 0.01705 0.47202 1.00799
 Zr645 Zr -0.00899 0.51235 0.96340
 O646 O -0.02989 0.49225 0.98221
 Zr647 Zr 0.01027 0.53710 1.00779
 O648 O -0.00950 0.51810 1.02903
 O649 O -0.02169 0.47941 1.02068
 O650 O 0.01989 0.52213 0.97867
 C651 C -0.06217 0.46416 1.00221
 C652 C -0.00305 0.43860 1.03457
 C653 C -0.03657 0.49701 1.06175
 C654 C 0.06022 0.53680 0.99648
 C655 C 0.03500 0.50483 0.93848
 C656 C 0.00157 0.56200 0.96401
 H657 H 0.01121 0.47476 0.95788
 H658 H -0.02792 0.54192 0.98833
 H659 H -0.03088 0.46990 1.02997
 H660 H 0.04061 0.51253 1.02608
 H661 H 0.05931 0.46878 1.01273
 H662 H 0.04738 0.48113 1.04571
 H663 H -0.04512 0.53307 0.95648
 H664 H -0.06608 0.51379 0.98136
 H665 H 0.06257 0.46647 0.96885
 H666 H -0.00070 0.42447 0.98040
 H667 H -0.01940 0.56671 1.01418
 H668 H -0.04265 0.54314 1.03461
 H669 H -0.03083 0.43719 0.96381
 H670 H -0.01497 0.48353 0.93271
 H671 H 0.01150 0.51993 1.06456
 H672 H 0.03339 0.54429 1.04274
 O673 O 0.01547 0.49105 0.56154
 O674 O -0.02012 0.50777 0.56272
 O675 O 0.00612 0.43795 0.51574
 O676 O -0.00424 0.43364 0.48083
 O677 O 0.06112 0.48310 0.50740
 O678 O 0.06360 0.51981 0.49435
 O679 O -0.04786 0.49673 0.45602
 O680 O -0.05175 0.46383 0.47463
 O681 O -0.04404 0.54631 0.50224
 O682 O -0.02109 0.54763 0.53902
 O683 O 0.00261 0.54379 0.45373
 O684 O 0.03589 0.52103 0.44707
 O685 O -0.01756 0.51019 0.43917
 O686 O 0.01967 0.49520 0.43505
 O687 O -0.01002 0.56097 0.48425
 O688 O 0.00328 0.56520 0.51921
 O689 O -0.06149 0.51624 0.48913
 O690 O -0.06324 0.48075 0.50841
 O691 O 0.04600 0.50298 0.54391
 O692 O 0.05235 0.53505 0.52261
 O693 O 0.04328 0.45264 0.49580
 O694 O 0.02141 0.44861 0.46237
 O695 O -0.00440 0.45580 0.54673
 O696 O -0.03836 0.47632 0.54864
 Zr697 Zr -0.00810 0.48832 0.53647
 O698 O -0.02878 0.50833 0.51753
 Zr699 Zr 0.01063 0.46274 0.49216
 O700 O -0.00927 0.48178 0.47146
 Zr701 Zr 0.03635 0.50665 0.51103
 O702 O 0.01753 0.52767 0.49141
 Zr703 Zr -0.03721 0.49208 0.48844
 O704 O -0.01851 0.47098 0.50840
 Zr705 Zr -0.01155 0.53611 0.50766
 O706 O 0.00867 0.51727 0.52838
 Zr707 Zr 0.00703 0.51091 0.46327
 O708 O 0.02809 0.49052 0.48174
 O709 O 0.02043 0.47834 0.52071
 O710 O -0.02149 0.52070 0.47892
 C711 C 0.03552 0.49743 0.56129
 C712 C 0.00032 0.43831 0.53604
 C713 C 0.06073 0.46305 0.50112
 C714 C -0.03774 0.50429 0.43918
 C715 C -0.06113 0.53637 0.49507
 C716 C -0.00419 0.56086 0.46405
 H717 H -0.04187 0.51230 0.52620
 H718 H 0.02631 0.54071 0.48772
 H719 H 0.02969 0.46889 0.53002
 H720 H -0.01335 0.47321 0.45834
 H721 H -0.04891 0.45172 0.48498
 H722 H -0.01706 0.43798 0.47199
 H723 H 0.01884 0.56467 0.51489
 H724 H 0.04243 0.54189 0.53345
 H725 H -0.07695 0.48172 0.49979
 H726 H -0.03606 0.46985 0.56334
 H727 H 0.04181 0.53378 0.45510
 H728 H 0.06384 0.51286 0.47969
 H729 H -0.01897 0.49942 0.57658
 H730 H -0.03255 0.55890 0.53708
 H731 H 0.03292 0.45832 0.45648
 H732 H 0.01122 0.48161 0.43274
 O733 O 0.50796 0.93803 0.01439
 O734 O 0.49131 0.93698 -0.02134
 O735 O 0.56151 0.98318 0.00505
 O736 O 0.56639 1.01796 -0.00446
 O737 O 0.51616 0.99204 0.06031
 O738 O 0.47954 1.00544 0.06251
 O739 O 0.50397 1.04319 -0.04896
 O740 O 0.53659 1.02378 -0.05279
 O741 O 0.45353 0.99785 -0.04564
 O742 O 0.45172 0.96119 -0.02247
 O743 O 0.45668 1.04639 0.00087
 O744 O 0.47872 1.05282 0.03451
 O745 O 0.49126 1.06050 -0.01850
 O746 O 0.50538 1.06394 0.01923
 O747 O 0.43886 1.01601 -0.01109
 O748 O 0.43414 0.98131 0.00156
 O749 O 0.48370 1.01121 -0.06262
 O750 O 0.51869 0.99067 -0.06456
 O751 O 0.49609 0.95582 0.04495
 O752 O 0.46405 0.97748 0.05102
 O753 O 0.54689 1.00300 0.04257
 O754 O 0.55131 1.03644 0.02065
 O755 O 0.54346 0.95230 -0.00532
 O756 O 0.52300 0.95062 -0.03949
 Zr757 Zr 0.51101 0.96294 -0.00920
 O758 O 0.49129 0.98206 -0.03007
 Zr759 Zr 0.53696 1.00685 0.00982
 O760 O 0.51837 1.02767 -0.01028
 Zr761 Zr 0.49272 0.98862 0.03527
 O762 O 0.47211 1.00849 0.01626
 Zr763 Zr 0.50793 1.01082 -0.03835
 O764 O 0.52871 0.99070 -0.01947
 Zr765 Zr 0.46353 0.99237 -0.01296
 O766 O 0.48202 0.97147 0.00741
 Zr767 Zr 0.48930 1.03632 0.00589
 O768 O 0.50924 1.01762 0.02719
 O769 O 0.52102 0.97858 0.01948
 O770 O 0.47937 1.02082 -0.02275
 C771 C 0.50156 0.93839 0.03448
 C772 C 0.56101 0.96292 -0.00068
 C773 C 0.53632 0.99794 0.06002
 C774 C 0.49722 1.06028 -0.03871
 C775 C 0.46353 1.00545 -0.06251
 C776 C 0.43936 1.03625 -0.00552
 H777 H 0.48724 0.97350 -0.04324
 H778 H 0.45905 1.01236 0.02498
 H779 H 0.53036 0.96921 0.02879
 H780 H 0.52723 1.04057 -0.01427
 H781 H 0.54841 1.01310 -0.05000
 H782 H 0.56235 1.02581 -0.01798
 H783 H 0.43488 0.98511 0.01729
 H784 H 0.45731 0.96654 0.04113
 H785 H 0.51785 0.99933 -0.07825
 H786 H 0.52933 0.93589 -0.03717
 H787 H 0.46602 1.04478 0.04045
 H788 H 0.48648 1.02005 0.06270
 H789 H 0.49953 0.92307 -0.02020
 H790 H 0.44084 0.96316 -0.03433
 H791 H 0.54195 1.04215 0.03259
 H792 H 0.51910 1.06608 0.01094
 O793 O 0.43824 0.51725 0.00830
 O794 O 0.43645 0.48151 -0.00790
 O795 O 0.48372 0.50732 0.06191
 O796 O 0.51845 0.49753 0.06657
 O797 O 0.49302 0.56212 0.01615
 O798 O 0.50633 0.56389 -0.02056
 O799 O 0.54219 0.45193 0.00370
 O800 O 0.52333 0.44877 0.03666
 O801 O 0.49653 0.45608 -0.04626
 O802 O 0.46035 0.47977 -0.04793
 O803 O 0.54604 0.50131 -0.04371
 O804 O 0.55337 0.53475 -0.02191
 O805 O 0.56004 0.48196 -0.00898
 O806 O 0.56414 0.51973 0.00504
 O807 O 0.51536 0.48945 -0.06110
 O808 O 0.48079 0.50349 -0.06567
 O809 O 0.50905 0.43872 -0.01591
 O810 O 0.48949 0.43780 0.01958
 O811 O 0.45636 0.54734 -0.00390
 O812 O 0.47812 0.55282 -0.03603
 O813 O 0.50400 0.54440 0.04690
 O814 O 0.53722 0.52186 0.05104
 O815 O 0.45242 0.49788 0.04404
 O816 O 0.45009 0.46353 0.02392
 Zr817 Zr 0.46279 0.49337 0.01151
 O818 O 0.48134 0.47209 -0.00835
 Zr819 Zr 0.50724 0.51161 0.03705
 O820 O 0.52752 0.49098 0.01833
 Zr821 Zr 0.48909 0.53710 -0.00725
 O822 O 0.50851 0.51761 -0.02798
 Zr823 Zr 0.51007 0.46326 0.00813
 O824 O 0.49051 0.48266 0.02907
 Zr825 Zr 0.49177 0.48877 -0.03630
 O826 O 0.47136 0.50958 -0.01768
 Zr827 Zr 0.53627 0.50676 -0.01094
 O828 O 0.51810 0.52851 0.00909
 O829 O 0.47900 0.52173 0.02127
 O830 O 0.52015 0.47845 -0.02062
 C831 C 0.43880 0.53717 0.00165
 C832 C 0.46330 0.50219 0.06155
 C833 C 0.49910 0.56184 0.03631
 C834 C 0.55947 0.46180 -0.00306
 C835 C 0.50328 0.43897 -0.03613
 C836 C 0.53571 0.49459 -0.06084
 H837 H 0.47244 0.45914 -0.01227
 H838 H 0.51249 0.52610 -0.04114
 H839 H 0.46982 0.53126 0.03062
 H840 H 0.54042 0.48678 0.02712
 H841 H 0.51296 0.45190 0.04871
 H842 H 0.52579 0.48370 0.06258
 H843 H 0.48554 0.51892 -0.06532
 H844 H 0.46713 0.54303 -0.04280
 H845 H 0.49781 0.42392 0.01879
 H846 H 0.43547 0.46619 0.03040
 H847 H 0.54517 0.54094 -0.03442
 H848 H 0.52103 0.56372 -0.01378
 H849 H 0.42264 0.48292 0.00048
 H850 H 0.46212 0.46815 -0.05913
 H851 H 0.54295 0.53373 0.04167
 H852 H 0.56639 0.51132 0.01868
 O853 O -0.01559 0.00927 0.56276
 O854 O 0.01994 -0.00773 0.56382
 O855 O -0.00635 0.06207 0.51709
 O856 O 0.00409 0.06631 0.48227
 O857 O -0.06136 0.01712 0.50888
 O858 O -0.06393 -0.01962 0.49550
 O859 O 0.04740 0.00308 0.45701
 O860 O 0.05149 0.03600 0.47584
 O861 O 0.04375 -0.04642 0.50322
 O862 O 0.02067 -0.04760 0.54002
 O863 O -0.00295 -0.04375 0.45469
 O864 O -0.03634 -0.02121 0.44825
 O865 O 0.01687 -0.00994 0.44017
 O866 O -0.02042 0.00475 0.43639
 O867 O 0.00939 -0.06108 0.48517
 O868 O -0.00350 -0.06526 0.52008
 O869 O 0.06110 -0.01649 0.48987
 O870 O 0.06310 0.01896 0.50945
 O871 O -0.04608 -0.00290 0.54518
 O872 O -0.05272 -0.03485 0.52372
 O873 O -0.04347 0.04738 0.49702
 O874 O -0.02158 0.05140 0.46371
 O875 O 0.00442 0.04432 0.54798
 O876 O 0.03829 0.02364 0.54981
 Zr877 Zr 0.00796 0.01173 0.53765
 O878 O 0.02855 -0.00837 0.51858
 Zr879 Zr -0.01084 0.03725 0.49344
 O880 O 0.00894 0.01815 0.47265
 Zr881 Zr -0.03662 -0.00654 0.51225
 O882 O -0.01789 -0.02763 0.49253
 Zr883 Zr 0.03692 0.00778 0.48951
 O884 O 0.01833 0.02897 0.50959
 Zr885 Zr 0.01124 -0.03614 0.50865
 O886 O -0.00889 -0.01721 0.52947
 Zr887 Zr -0.00748 -0.01092 0.46442
 O888 O -0.02844 0.00953 0.48300
 O889 O -0.02059 0.02174 0.52197
 O890 O 0.02109 -0.02081 0.47992
 C891 C -0.03562 0.00282 0.56256
 C892 C -0.00044 0.06176 0.53735
 C893 C -0.06095 0.03711 0.50249
 C894 C 0.03709 -0.00417 0.44010
 C895 C 0.06080 -0.03656 0.49588
 C896 C 0.00362 -0.06089 0.46494
 H897 H 0.04166 -0.01237 0.52720
 H898 H -0.02671 -0.04066 0.48883
 H899 H -0.02982 0.03124 0.53131
 H900 H 0.01297 0.02672 0.45955
 H901 H 0.04877 0.04810 0.48629
 H902 H 0.01691 0.06194 0.47345
 H903 H -0.01914 -0.06457 0.51610
 H904 H -0.04278 -0.04176 0.53447
 H905 H 0.07676 0.01793 0.50076
 H906 H 0.03604 0.03013 0.56454
 H907 H -0.04225 -0.03390 0.45632
 H908 H -0.06421 -0.01261 0.48091
 H909 H 0.01883 0.00065 0.57771
 H910 H 0.03233 -0.05867 0.53811
 H911 H -0.03322 0.04179 0.45782
 H912 H -0.01202 0.01836 0.43409
 O913 O 0.73327 0.18911 0.25842
 O914 O 0.76911 0.18782 0.24225
 O915 O 0.74221 0.23448 0.31210
 O916 O 0.75203 0.26926 0.31693
 O917 O 0.68772 0.24330 0.26591
 O918 O 0.68611 0.25662 0.22906
 O919 O 0.79724 0.29397 0.25494
 O920 O 0.80047 0.27490 0.28772
 O921 O 0.79440 0.24790 0.20467
 O922 O 0.77056 0.21165 0.20249
 O923 O 0.74784 0.29699 0.20665
 O924 O 0.71427 0.30372 0.22854
 O925 O 0.76722 0.31123 0.24142
 O926 O 0.72951 0.31508 0.25519
 O927 O 0.76086 0.26670 0.18942
 O928 O 0.74738 0.23228 0.18432
 O929 O 0.81103 0.26138 0.23509
 O930 O 0.81218 0.24150 0.27039
 O931 O 0.70303 0.20692 0.24603
 O932 O 0.69745 0.22842 0.21384
 O933 O 0.70518 0.25437 0.29687
 O934 O 0.72711 0.28775 0.30144
 O935 O 0.75248 0.20348 0.29418
 O936 O 0.78687 0.20154 0.27426
 Zr937 Zr 0.75692 0.21394 0.26172
 O938 O 0.77814 0.23283 0.24222
 Zr939 Zr 0.73796 0.25805 0.28732
 O940 O 0.75835 0.27868 0.26884
 Zr941 Zr 0.71296 0.23969 0.24270
 O942 O 0.73236 0.25931 0.22217
 Zr943 Zr 0.78639 0.26166 0.25891
 O944 O 0.76715 0.24173 0.27953
 Zr945 Zr 0.76153 0.24304 0.21411
 O946 O 0.74077 0.22236 0.23242
 Zr947 Zr 0.74266 0.28720 0.23941
 O948 O 0.72106 0.26874 0.25925
 O949 O 0.72830 0.22975 0.27130
 O950 O 0.77130 0.27154 0.23000
 C951 C 0.71332 0.18950 0.25173
 C952 C 0.74773 0.21417 0.31169
 C953 C 0.68785 0.24928 0.28612
 C954 C 0.78726 0.31103 0.24781
 C955 C 0.81122 0.25528 0.21496
 C956 C 0.75506 0.28686 0.18962
 H957 H 0.79125 0.22413 0.23843
 H958 H 0.72390 0.26314 0.20893
 H959 H 0.71883 0.22046 0.28056
 H960 H 0.76230 0.29165 0.27769
 H961 H 0.79739 0.26440 0.29965
 H962 H 0.76538 0.27744 0.31298
 H963 H 0.73166 0.23589 0.18498
 H964 H 0.70740 0.21753 0.20715
 H965 H 0.82593 0.25007 0.26974
 H966 H 0.78435 0.18686 0.28061
 H967 H 0.70836 0.29558 0.21583
 H968 H 0.68579 0.27116 0.23618
 H969 H 0.76777 0.17396 0.25052
 H970 H 0.78260 0.21337 0.19177
 H971 H 0.71546 0.29351 0.29178
 H972 H 0.73758 0.31721 0.26907
 O973 O 0.75395 0.70164 0.70485
 O974 O 0.78808 0.69937 0.72507
 O975 O 0.70470 0.70488 0.75375
 O976 O 0.69696 0.72515 0.78346
 O977 O 0.70660 0.75286 0.70209
 O978 O 0.72852 0.78504 0.69639
 O979 O 0.76037 0.76499 0.81048
 O980 O 0.74476 0.73106 0.81339
 O981 O 0.81247 0.75714 0.76487
 O982 O 0.81261 0.74168 0.72517
 O983 O 0.76788 0.81000 0.75727
 O984 O 0.73032 0.81312 0.74399
 O985 O 0.74885 0.79544 0.79254
 O986 O 0.71548 0.80212 0.77074
 O987 O 0.79823 0.79220 0.74537
 O988 O 0.80558 0.77208 0.71405
 O989 O 0.79467 0.74692 0.79585
 O990 O 0.77486 0.71161 0.79780
 O991 O 0.74194 0.73218 0.68740
 O992 O 0.75608 0.76859 0.68426
 O993 O 0.68947 0.74030 0.73258
 O994 O 0.68795 0.75623 0.76948
 O995 O 0.73451 0.68744 0.73990
 O996 O 0.77017 0.68629 0.75744
 Zr997 Zr 0.75827 0.71213 0.73753
 O998 O 0.77917 0.73103 0.75743
 Zr999 Zr 0.71422 0.73790 0.75634
 O1000 O 0.73338 0.75770 0.77699
 Zr1001 Zr 0.73946 0.75622 0.71194
 O1002 O 0.75976 0.77685 0.73060
 Zr1003 Zr 0.76236 0.74151 0.78546
 O1004 O 0.74198 0.72058 0.76683
 Zr1005 Zr 0.78770 0.75980 0.74099
 O1006 O 0.76859 0.73990 0.71998
 Zr1007 Zr 0.74384 0.78553 0.75984
 O1008 O 0.72236 0.76695 0.73984
 O1009 O 0.72979 0.72799 0.72790
 O1010 O 0.77248 0.77002 0.76978
 C1011 C 0.74779 0.71199 0.68758
 C1012 C 0.71472 0.68763 0.74698
 C1013 C 0.68945 0.74657 0.71250
 C1014 C 0.75467 0.78521 0.80998
 C1015 C 0.81207 0.75211 0.78531
 C1016 C 0.78802 0.80957 0.75130
 H1017 H 0.79211 0.72218 0.76136
 H1018 H 0.76362 0.78976 0.72171
 H1019 H 0.72029 0.71861 0.71870
 H1020 H 0.72481 0.76151 0.79018
 H1021 H 0.73699 0.71750 0.80910
 H1022 H 0.70447 0.73042 0.79681
 H1023 H 0.79523 0.78040 0.70485
 H1024 H 0.77036 0.76101 0.68367
 H1025 H 0.78078 0.71437 0.81268
 H1026 H 0.76866 0.67229 0.74937
 H1027 H 0.73805 0.81494 0.72988
 H1028 H 0.71772 0.79183 0.70637
 H1029 H 0.78542 0.68452 0.71909
 H1030 H 0.81750 0.73015 0.73538
 H1031 H 0.68684 0.76975 0.76069
 H1032 H 0.70920 0.79370 0.78304
 O1033 O 0.29675 0.20847 0.74558
 O1034 O 0.29866 0.22903 0.71181
 O1035 O 0.29525 0.25662 0.79584
 O1036 O 0.27559 0.28680 0.80383
 O1037 O 0.24663 0.20580 0.79469
 O1038 O 0.21400 0.20023 0.77338
 O1039 O 0.23404 0.31403 0.74165
 O1040 O 0.26827 0.31680 0.75667
 O1041 O 0.24062 0.26862 0.68907
 O1042 O 0.25572 0.22885 0.68850
 O1043 O 0.18849 0.26110 0.73481
 O1044 O 0.18639 0.24764 0.77271
 O1045 O 0.20373 0.29622 0.75380
 O1046 O 0.19752 0.27459 0.78710
 O1047 O 0.20568 0.24944 0.70394
 O1048 O 0.22517 0.21821 0.69588
 O1049 O 0.25148 0.29946 0.70679
 O1050 O 0.28710 0.30132 0.72602
 O1051 O 0.26652 0.19108 0.75851
 O1052 O 0.22968 0.18816 0.74536
 O1053 O 0.25991 0.23608 0.81169
 O1054 O 0.24450 0.27284 0.81390
 O1055 O 0.31171 0.24279 0.76540
 O1056 O 0.31222 0.26109 0.73000
 Zr1057 Zr 0.28650 0.24113 0.74210
 O1058 O 0.26727 0.26110 0.72176
 Zr1059 Zr 0.26200 0.25979 0.78698
 O1060 O 0.24179 0.28049 0.76839
 Zr1061 Zr 0.24268 0.21567 0.76185
 O1062 O 0.22170 0.23442 0.74209
 Zr1063 Zr 0.25736 0.28902 0.73904
 O1064 O 0.27871 0.27031 0.75883
 Zr1065 Zr 0.23822 0.24481 0.71381
 O1066 O 0.25839 0.22373 0.73234
 Zr1067 Zr 0.21357 0.26356 0.75841
 O1068 O 0.23258 0.24352 0.77938
 O1069 O 0.27126 0.23142 0.77094
 O1070 O 0.22851 0.27351 0.72944
 C1071 C 0.28650 0.19124 0.75190
 C1072 C 0.31212 0.24955 0.78536
 C1073 C 0.25342 0.21612 0.81178
 C1074 C 0.21393 0.31359 0.74780
 C1075 C 0.24593 0.28895 0.68942
 C1076 C 0.18852 0.25529 0.71454
 H1077 H 0.27588 0.26502 0.70863
 H1078 H 0.20864 0.22561 0.73844
 H1079 H 0.28073 0.22207 0.78014
 H1080 H 0.23825 0.29362 0.77714
 H1081 H 0.28197 0.31249 0.76414
 H1082 H 0.26967 0.30014 0.79693
 H1083 H 0.21721 0.20889 0.70641
 H1084 H 0.23685 0.18762 0.73083
 H1085 H 0.28431 0.31621 0.72028
 H1086 H 0.32623 0.25303 0.73117
 H1087 H 0.18398 0.23384 0.76458
 H1088 H 0.20746 0.21022 0.78434
 H1089 H 0.31356 0.22309 0.71409
 H1090 H 0.26712 0.23904 0.68323
 H1091 H 0.23077 0.26436 0.81509
 H1092 H 0.20641 0.28650 0.79352
 O1093 O 0.26708 0.68600 0.24217
 O1094 O 0.23144 0.68458 0.25878
 O1095 O 0.25739 0.73105 0.18866
 O1096 O 0.24754 0.76575 0.18384
 O1097 O 0.31230 0.74048 0.23439
 O1098 O 0.31417 0.75387 0.27117
 O1099 O 0.20255 0.79045 0.24621
 O1100 O 0.19909 0.77108 0.21349
 O1101 O 0.20622 0.74510 0.29665
 O1102 O 0.22983 0.70877 0.29853
 O1103 O 0.25196 0.79422 0.29391
 O1104 O 0.28554 0.80102 0.27212
 O1105 O 0.23270 0.80811 0.25906
 O1106 O 0.27044 0.81186 0.24522
 O1107 O 0.24014 0.76377 0.31155
 O1108 O 0.25351 0.72924 0.31631
 O1109 O 0.18918 0.75809 0.26632
 O1110 O 0.18776 0.73777 0.23111
 O1111 O 0.29733 0.70403 0.25433
 O1112 O 0.30299 0.72576 0.28655
 O1113 O 0.29453 0.75120 0.20355
 O1114 O 0.27230 0.78446 0.19915
 O1115 O 0.24735 0.70008 0.20659
 O1116 O 0.21324 0.69799 0.22696
 Zr1117 Zr 0.24326 0.71065 0.23914
 O1118 O 0.22213 0.72955 0.25886
 Zr1119 Zr 0.26179 0.75475 0.21337
 O1120 O 0.24140 0.77534 0.23196
 Zr1121 Zr 0.28726 0.73677 0.25777
 O1122 O 0.26794 0.75645 0.27841
 Zr1123 Zr 0.21356 0.75820 0.24221
 O1124 O 0.23274 0.73830 0.22142
 Zr1125 Zr 0.23895 0.74005 0.28680
 O1126 O 0.25961 0.71935 0.26830
 Zr1127 Zr 0.25730 0.78417 0.26122
 O1128 O 0.27887 0.76569 0.24128
 O1129 O 0.27172 0.72658 0.22930
 O1130 O 0.22886 0.76838 0.27095
 C1131 C 0.28709 0.68652 0.24870
 C1132 C 0.25190 0.71074 0.18906
 C1133 C 0.31198 0.74635 0.21418
 C1134 C 0.21256 0.80768 0.25297
 C1135 C 0.18927 0.75234 0.28652
 C1136 C 0.24544 0.78407 0.31117
 H1137 H 0.20909 0.72082 0.26281
 H1138 H 0.27651 0.76043 0.29156
 H1139 H 0.28115 0.71730 0.21994
 H1140 H 0.23731 0.78820 0.22309
 H1141 H 0.20210 0.76048 0.20158
 H1142 H 0.23394 0.77347 0.18784
 H1143 H 0.26915 0.73326 0.31565
 H1144 H 0.29320 0.71476 0.29324
 H1145 H 0.17397 0.74625 0.23190
 H1146 H 0.21577 0.68329 0.22060
 H1147 H 0.29156 0.79298 0.28480
 H1148 H 0.31416 0.76850 0.26430
 H1149 H 0.23277 0.67068 0.25050
 H1150 H 0.21804 0.71064 0.30950
 H1151 H 0.28415 0.79024 0.20858
 H1152 H 0.26218 0.81395 0.23145
 O1153 O 0.24591 0.79812 0.70612
 O1154 O 0.21166 0.80064 0.72613
 O1155 O 0.29486 0.79579 0.75554
 O1156 O 0.30208 0.77612 0.78577
 O1157 O 0.29367 0.74691 0.70457
 O1158 O 0.27171 0.71468 0.69883
 O1159 O 0.23898 0.73617 0.81239
 O1160 O 0.25437 0.77029 0.81511
 O1161 O 0.18712 0.74338 0.76615
 O1162 O 0.18742 0.75846 0.72626
 O1163 O 0.23186 0.69055 0.75933
 O1164 O 0.26985 0.68760 0.74627
 O1165 O 0.25062 0.70554 0.79470
 O1166 O 0.28389 0.69843 0.77357
 O1167 O 0.20160 0.70815 0.74698
 O1168 O 0.19441 0.72777 0.71560
 O1169 O 0.20465 0.75392 0.79725
 O1170 O 0.22425 0.78933 0.79916
 O1171 O 0.25852 0.76744 0.68920
 O1172 O 0.24440 0.73103 0.68615
 O1173 O 0.31034 0.76020 0.73508
 O1174 O 0.31165 0.74483 0.77201
 O1175 O 0.26512 0.81293 0.74120
 O1176 O 0.22934 0.81426 0.75847
 Zr1177 Zr 0.24143 0.78815 0.73893
 O1178 O 0.22043 0.76947 0.75884
 Zr1179 Zr 0.28535 0.76281 0.75850
 O1180 O 0.26610 0.74315 0.77906
 Zr1181 Zr 0.26065 0.74374 0.71398
 O1182 O 0.24017 0.72335 0.73255
 Zr1183 Zr 0.23701 0.75935 0.78713
 O1184 O 0.25744 0.78016 0.76851
 Zr1185 Zr 0.21212 0.74050 0.74253
 O1186 O 0.23139 0.76010 0.72152
 Zr1187 Zr 0.25586 0.71509 0.76201
 O1188 O 0.27750 0.73348 0.74216
 O1189 O 0.27005 0.77223 0.72978
 O1190 O 0.22709 0.73064 0.77155
 C1191 C 0.25249 0.78757 0.68906
 C1192 C 0.28488 0.81289 0.74842
 C1193 C 0.31064 0.75355 0.71511
 C1194 C 0.24472 0.71595 0.81205
 C1195 C 0.18735 0.74861 0.78657
 C1196 C 0.21179 0.69088 0.75310
 H1197 H 0.20743 0.77833 0.76258
 H1198 H 0.23641 0.71033 0.72371
 H1199 H 0.27961 0.78148 0.72058
 H1200 H 0.27458 0.73951 0.79235
 H1201 H 0.26210 0.78382 0.81076
 H1202 H 0.29476 0.77055 0.79907
 H1203 H 0.20494 0.71967 0.70635
 H1204 H 0.23012 0.73859 0.68532
 H1205 H 0.21825 0.78672 0.81402
 H1206 H 0.23087 0.82814 0.75026
 H1207 H 0.26179 0.68515 0.73243
 H1208 H 0.28247 0.70806 0.70895
 H1209 H 0.21432 0.81538 0.71999
 H1210 H 0.18219 0.76991 0.73645
 H1211 H 0.31278 0.73111 0.76347
 H1212 H 0.29045 0.70737 0.78538
 O1213 O 0.31173 0.25611 0.26605
 O1214 O 0.31275 0.23934 0.23036
 O1215 O 0.26667 0.30962 0.25660
 O1216 O 0.23193 0.31437 0.24647
 O1217 O 0.25781 0.26474 0.31178
 O1218 O 0.24424 0.22816 0.31419
 O1219 O 0.20646 0.25162 0.20247
 O1220 O 0.22566 0.28418 0.19855
 O1221 O 0.25198 0.20140 0.20616
 O1222 O 0.28857 0.19971 0.22968
 O1223 O 0.20338 0.20467 0.25294
 O1224 O 0.19690 0.22726 0.28615
 O1225 O 0.18925 0.23893 0.23291
 O1226 O 0.18565 0.25351 0.27042
 O1227 O 0.23364 0.18692 0.24067
 O1228 O 0.26823 0.18220 0.25343
 O1229 O 0.23907 0.23153 0.18883
 O1230 O 0.25901 0.26667 0.18706
 O1231 O 0.29397 0.24447 0.29664
 O1232 O 0.27224 0.21258 0.30290
 O1233 O 0.24673 0.29527 0.29384
 O1234 O 0.21332 0.29954 0.27188
 O1235 O 0.29750 0.29148 0.24632
 O1236 O 0.29908 0.27092 0.21211
 Zr1237 Zr 0.28679 0.25906 0.24241
 O1238 O 0.26764 0.23919 0.22162
 Zr1239 Zr 0.24289 0.28511 0.26115
 O1240 O 0.22204 0.26634 0.24113
 Zr1241 Zr 0.26111 0.24109 0.28692
 O1242 O 0.24123 0.22032 0.26797
 Zr1243 Zr 0.23887 0.25575 0.21315
 O1244 O 0.25903 0.27667 0.23196
 Zr1245 Zr 0.25731 0.21157 0.23883
 O1246 O 0.27825 0.23020 0.25915
 Zr1247 Zr 0.21339 0.23739 0.25743
 O1248 O 0.23211 0.25753 0.27864
 O1249 O 0.27116 0.26924 0.27099
 O1250 O 0.22885 0.22728 0.22883
 C1251 C 0.31139 0.24985 0.28616
 C1252 C 0.28696 0.30905 0.25101
 C1253 C 0.25189 0.28488 0.31135
 C1254 C 0.18938 0.24483 0.21269
 C1255 C 0.24488 0.21139 0.18906
 C1256 C 0.21348 0.18736 0.24651
 H1257 H 0.27625 0.23509 0.20852
 H1258 H 0.23739 0.20734 0.27676
 H1259 H 0.28056 0.27861 0.28030
 H1260 H 0.20911 0.27512 0.23706
 H1261 H 0.23620 0.29613 0.20141
 H1262 H 0.22348 0.31016 0.23331
 H1263 H 0.26469 0.18315 0.26920
 H1264 H 0.28312 0.20572 0.29306
 H1265 H 0.25039 0.26578 0.17331
 H1266 H 0.31380 0.27730 0.21446
 H1267 H 0.20502 0.21473 0.29233
 H1268 H 0.22972 0.23529 0.31443
 H1269 H 0.32667 0.24759 0.23150
 H1270 H 0.28669 0.18892 0.21770
 H1271 H 0.20751 0.29016 0.28372
 H1272 H 0.18356 0.26717 0.26206
 O1273 O 0.74807 0.70579 0.29284
 O1274 O 0.71391 0.70330 0.27288
 O1275 O 0.79703 0.70787 0.24337
 O1276 O 0.80422 0.72761 0.21311
 O1277 O 0.79630 0.75653 0.29445
 O1278 O 0.77471 0.78900 0.30020
 O1279 O 0.74106 0.76777 0.18681
 O1280 O 0.75637 0.73370 0.18394
 O1281 O 0.68951 0.76079 0.23320
 O1282 O 0.68995 0.74568 0.27310
 O1283 O 0.73452 0.81348 0.23993
 O1284 O 0.77261 0.81623 0.25277
 O1285 O 0.75298 0.79837 0.20438
 O1286 O 0.78643 0.80534 0.22538
 O1287 O 0.70424 0.79592 0.25230
 O1288 O 0.69712 0.77633 0.28373
 O1289 O 0.70682 0.75014 0.20203
 O1290 O 0.72630 0.71467 0.20002
 O1291 O 0.76088 0.73636 0.30984
 O1292 O 0.74727 0.77294 0.31294
 O1293 O 0.81279 0.74331 0.26384
 O1294 O 0.81402 0.75883 0.22694
 O1295 O 0.76724 0.69090 0.25779
 O1296 O 0.73145 0.68977 0.24046
 Zr1297 Zr 0.74369 0.71577 0.26009
 O1298 O 0.72268 0.73456 0.24033
 Zr1299 Zr 0.78769 0.74092 0.24048
 O1300 O 0.76842 0.76069 0.22000
 Zr1301 Zr 0.76329 0.76005 0.28508
 O1302 O 0.74283 0.78057 0.26660
 Zr1303 Zr 0.73921 0.74460 0.21202
 O1304 O 0.75965 0.72371 0.23051
 Zr1305 Zr 0.71463 0.76355 0.25672
 O1306 O 0.73391 0.74384 0.27759
 Zr1307 Zr 0.75839 0.78881 0.23708
 O1308 O 0.78005 0.77028 0.25684
 O1309 O 0.77244 0.73152 0.26922
 O1310 O 0.72951 0.77336 0.22765
 C1311 C 0.75463 0.71628 0.30993
 C1312 C 0.78697 0.69083 0.25052
 C1313 C 0.81320 0.74981 0.28387
 C1314 C 0.74688 0.78796 0.18709
 C1315 C 0.68960 0.75553 0.21279
 C1316 C 0.71445 0.81319 0.24619
 H1317 H 0.70962 0.72576 0.23664
 H1318 H 0.73918 0.79359 0.27547
 H1319 H 0.78193 0.72220 0.27840
 H1320 H 0.77683 0.76430 0.20667
 H1321 H 0.76409 0.72015 0.18822
 H1322 H 0.79687 0.73324 0.19985
 H1323 H 0.70768 0.78453 0.29285
 H1324 H 0.73289 0.76556 0.31377
 H1325 H 0.72021 0.71731 0.18519
 H1326 H 0.73296 0.67585 0.24859
 H1327 H 0.76473 0.81860 0.26672
 H1328 H 0.78548 0.79552 0.29003
 H1329 H 0.71652 0.68850 0.27891
 H1330 H 0.68458 0.73428 0.26292
 H1331 H 0.81526 0.77252 0.23551
 H1332 H 0.79291 0.79635 0.21357
 O1333 O 0.70555 0.24391 0.79739
 O1334 O 0.72598 0.20994 0.79995
 O1335 O 0.75376 0.29365 0.79587
 O1336 O 0.78431 0.30123 0.77668
 O1337 O 0.70386 0.29160 0.74618
 O1338 O 0.69889 0.26968 0.71376
 O1339 O 0.81251 0.23871 0.73644
 O1340 O 0.81454 0.25405 0.77069
 O1341 O 0.76701 0.18622 0.74288
 O1342 O 0.72707 0.18582 0.75750
 O1343 O 0.76018 0.23099 0.69001
 O1344 O 0.74673 0.26884 0.68718
 O1345 O 0.79509 0.25013 0.70558
 O1346 O 0.77368 0.28310 0.69837
 O1347 O 0.74808 0.20052 0.70736
 O1348 O 0.71671 0.19277 0.72668
 O1349 O 0.79763 0.20407 0.75407
 O1350 O 0.79876 0.22378 0.78960
 O1351 O 0.68886 0.25630 0.76650
 O1352 O 0.68655 0.24209 0.72988
 O1353 O 0.73385 0.30887 0.75973
 O1354 O 0.77096 0.31075 0.74509
 O1355 O 0.73993 0.26353 0.81271
 O1356 O 0.75781 0.22809 0.81407
 Zr1357 Zr 0.73845 0.23992 0.78772
 O1358 O 0.75889 0.21931 0.76911
 Zr1359 Zr 0.75756 0.28422 0.76278
 O1360 O 0.77868 0.26533 0.74322
 Zr1361 Zr 0.71385 0.25881 0.74300
 O1362 O 0.73300 0.23876 0.72265
 Zr1363 Zr 0.78700 0.23632 0.75940
 O1364 O 0.76780 0.25642 0.78013
 Zr1365 Zr 0.74314 0.21083 0.73982
 O1366 O 0.72161 0.22967 0.75936
 Zr1367 Zr 0.76226 0.25490 0.71481
 O1368 O 0.74184 0.27615 0.73313
 O1369 O 0.72906 0.26842 0.77179
 O1370 O 0.77201 0.22625 0.73036
 C1371 C 0.68857 0.25028 0.78668
 C1372 C 0.74662 0.28345 0.81287
 C1373 C 0.71400 0.30879 0.75283
 C1374 C 0.81235 0.24446 0.71618
 C1375 C 0.78727 0.18666 0.74851
 C1376 C 0.75418 0.21086 0.69014
 H1377 H 0.76268 0.20635 0.77799
 H1378 H 0.72440 0.23492 0.70948
 H1379 H 0.71959 0.27782 0.78096
 H1380 H 0.79186 0.27401 0.73977
 H1381 H 0.80991 0.26173 0.78421
 H1382 H 0.79777 0.29422 0.77113
 H1383 H 0.70742 0.20317 0.71853
 H1384 H 0.68578 0.22786 0.73751
 H1385 H 0.81370 0.21797 0.78715
 H1386 H 0.74941 0.22942 0.82789
 H1387 H 0.73309 0.26058 0.68448
 H1388 H 0.70891 0.28057 0.70724
 H1389 H 0.71962 0.21247 0.81468
 H1390 H 0.73711 0.18078 0.76914
 H1391 H 0.76276 0.31169 0.73113
 H1392 H 0.78524 0.28980 0.70751
 C1393 C 0.08330 1.01068 1.14553
 C1394 C 0.08468 1.03137 1.15529
 C1395 C 0.09541 1.03423 1.17524
 C1396 C 0.10507 1.01639 1.18626
 C1397 C 0.10365 0.99558 1.17623
 C1398 C 0.09307 0.99284 1.15605
 C1399 C 0.07117 1.00787 1.12470
 C1400 C 0.08009 0.99588 1.10719
 C1401 C 0.06885 0.99423 1.08725
 C1402 C 0.04836 1.00431 1.08460
 C1403 C 0.03934 1.01593 1.10232
 C1404 C 0.05065 1.01774 1.12208
 H1405 H 0.09510 1.05043 1.18235
 H1406 H 0.11129 0.98139 1.18345
 H1407 H 0.07620 0.98512 1.07394
 H1408 H 0.02363 1.02394 1.10088
 H1409 H 0.09222 0.97668 1.14883
 H1410 H 0.09596 0.98822 1.10879
 H1411 H 0.07732 1.04544 1.14747
 H1412 H 0.04329 1.02687 1.13539
 C1413 C 0.58196 0.51160 0.64513
 C1414 C 0.59565 0.49514 0.65344
 C1415 C 0.60641 0.49802 0.67348
 C1416 C 0.60383 0.51748 0.68549
 C1417 C 0.59031 0.53398 0.67704
 C1418 C 0.57950 0.53107 0.65711
 C1419 C 0.56996 0.50851 0.62422
 C1420 C 0.54809 0.51521 0.62247
 C1421 C 0.53686 0.51316 0.60268
 C1422 C 0.54721 0.50435 0.58408
 C1423 C 0.56902 0.49730 0.58590
 C1424 C 0.58026 0.49930 0.60580
 H1425 H 0.61688 0.48511 0.67952
 H1426 H 0.58783 0.54906 0.68602
 H1427 H 0.52006 0.51870 0.60197
 H1428 H 0.57750 0.49045 0.57191
 H1429 H 0.56928 0.54414 0.65100
 H1430 H 0.53961 0.52204 0.63647
 H1431 H 0.59773 0.47992 0.64462
 H1432 H 0.59717 0.49413 0.60665
 C1433 C 0.41734 -0.01244 0.64316
 C1434 C 0.40384 0.00414 0.65160
 C1435 C 0.39321 0.00140 0.67171
 C1436 C 0.39573 -0.01804 0.68368
 C1437 C 0.40901 -0.03469 0.67506
 C1438 C 0.41969 -0.03192 0.65507
 C1439 C 0.42935 -0.00944 0.62226
 C1440 C 0.45118 -0.01629 0.62050
 C1441 C 0.46247 -0.01420 0.60078
 C1442 C 0.45223 -0.00522 0.58223
 C1443 C 0.43046 0.00195 0.58404
 C1444 C 0.41915 -0.00008 0.60389
 H1445 H 0.38291 0.01443 0.67786
 H1446 H 0.41145 -0.04976 0.68399
 H1447 H 0.47923 -0.01984 0.60009
 H1448 H 0.42207 0.00893 0.57009
 H1449 H 0.42977 -0.04509 0.64886
 H1450 H 0.45959 -0.02322 0.63447
 H1451 H 0.40184 0.01937 0.64284
 H1452 H 0.40229 0.00521 0.60474
 C1453 C -0.08224 0.48809 1.14438
 C1454 C -0.07932 0.46872 1.15633
 C1455 C -0.08987 0.46571 1.17635
 C1456 C -0.10359 0.48200 1.18495
 C1457 C -0.10663 0.50137 1.17298
 C1458 C -0.09612 0.50434 1.15284
 C1459 C -0.07051 0.49129 1.12336
 C1460 C -0.08116 0.50022 1.10503
 C1461 C -0.07016 0.50234 1.08504
 C1462 C -0.04824 0.49567 1.08301
 C1463 C -0.03755 0.48714 1.10153
 C1464 C -0.04854 0.48497 1.12141
 H1465 H -0.08704 0.45071 1.18529
 H1466 H -0.11726 0.51412 1.17912
 H1467 H -0.07889 0.50897 1.07113
 H1468 H -0.02066 0.48192 1.10067
 H1469 H -0.09856 0.51949 1.14405
 H1470 H -0.09815 0.50510 1.10604
 H1471 H -0.06893 0.45580 1.15011
 H1472 H -0.03980 0.47837 1.13533
 C1473 C -0.08502 0.51493 0.35767
 C1474 C -0.09451 0.49712 0.34675
 C1475 C -0.10473 0.49993 0.32644
 C1476 C -0.10602 0.52077 0.31655
 C1477 C -0.09678 0.53862 0.32802
 C1478 C -0.08640 0.53570 0.34816
 C1479 C -0.07305 0.51190 0.37858
 C1480 C -0.05265 0.52194 0.38167
 C1481 C -0.04123 0.51931 0.40127
 C1482 C -0.04999 0.50668 0.41836
 C1483 C -0.07046 0.49664 0.41531
 C1484 C -0.08182 0.49911 0.39553
 H1485 H -0.11215 0.48572 0.31895
 H1486 H -0.09646 0.55487 0.32111
 H1487 H -0.02555 0.52735 0.40306
 H1488 H -0.07766 0.48680 0.42814
 H1489 H -0.07928 0.54976 0.35629
 H1490 H -0.04539 0.53168 0.36879
 H1491 H -0.09367 0.48090 0.35375
 H1492 H -0.09759 0.49131 0.39360
 C1493 C 0.41614 1.01594 -0.14393
 C1494 C 0.40668 0.99806 -0.15476
 C1495 C 0.39638 1.00076 -0.17505
 C1496 C 0.39498 1.02156 -0.18499
 C1497 C 0.40427 1.03948 -0.17365
 C1498 C 0.41471 1.03666 -0.15353
 C1499 C 0.42810 1.01304 -0.12301
 C1500 C 0.44844 1.02321 -0.11992
 C1501 C 0.45987 1.02066 -0.10032
 C1502 C 0.45117 1.00799 -0.08323
 C1503 C 0.43074 0.99786 -0.08626
 C1504 C 0.41938 1.00026 -0.10603
 H1505 H 0.38895 0.98651 -0.18246
 H1506 H 0.40456 1.05569 -0.18063
 H1507 H 0.47551 1.02877 -0.09853
 H1508 H 0.42361 0.98797 -0.07342
 H1509 H 0.42182 1.05077 -0.14549
 H1510 H 0.45566 1.03296 -0.13281
 H1511 H 0.40757 0.98187 -0.14770
 H1512 H 0.40364 0.99237 -0.10796
 C1513 C 0.58302 0.48443 -0.14246
 C1514 C 0.59655 0.50100 -0.15081
 C1515 C 0.60721 0.49824 -0.17091
 C1516 C 0.60466 0.47880 -0.18296
 C1517 C 0.59131 0.46218 -0.17445
 C1518 C 0.58063 0.46496 -0.15445
 C1519 C 0.57100 0.48749 -0.12156
 C1520 C 0.54915 0.48068 -0.11983
 C1521 C 0.53776 0.48312 -0.10019
 C1522 C 0.54794 0.49243 -0.08171
 C1523 C 0.56980 0.49937 -0.08346
 C1524 C 0.58118 0.49699 -0.10321
 H1525 H 0.61754 0.51125 -0.17698
 H1526 H 0.58884 0.44711 -0.18346
 H1527 H 0.52096 0.47758 -0.09950
 H1528 H 0.57813 0.50659 -0.06956
 H1529 H 0.57051 0.45181 -0.14832
 H1530 H 0.54076 0.47360 -0.13377
 H1531 H 0.59857 0.51623 -0.14199
 H1532 H 0.59807 0.50222 -0.10403
 C1533 C 0.08338 -0.01491 0.35798
 C1534 C 0.09739 0.00119 0.34951
 C1535 C 0.10780 -0.00194 0.32933
 C1536 C 0.10454 -0.02131 0.31733
 C1537 C 0.09070 -0.03746 0.32594
 C1538 C 0.08025 -0.03430 0.34601
 C1539 C 0.07162 -0.01149 0.37896
 C1540 C 0.04959 -0.01763 0.38082
 C1541 C 0.03846 -0.01506 0.40058
 C1542 C 0.04907 -0.00628 0.41907
 C1543 C 0.07108 0.00010 0.41719
 C1544 C 0.08223 -0.00242 0.39730
 H1545 H 0.11854 0.01071 0.32317
 H1546 H 0.08769 -0.05246 0.31699
 H1547 H 0.02151 -0.02011 0.40134
 H1548 H 0.07975 0.00690 0.43109
 H1549 H 0.06976 -0.04712 0.35223
 H1550 H 0.04087 -0.02433 0.36689
 H1551 H 0.09997 0.01636 0.35831
 H1552 H 0.09926 0.00230 0.39637
 C1553 C 0.14271 1.08437 1.00811
 C1554 C 0.14456 1.10224 1.02237
 C1555 C 0.16470 1.11248 1.02563
 C1556 C 0.18368 1.10522 1.01458
 C1557 C 0.18141 1.08773 0.99959
 C1558 C 0.16126 1.07738 0.99656
 C1559 C 0.12172 1.07245 1.00609
 C1560 C 0.12139 1.04953 1.00689
 C1561 C 0.10160 1.03820 1.00618
 C1562 C 0.08168 1.04953 1.00446
 C1563 C 0.08204 1.07246 1.00325
 C1564 C 0.10187 1.08381 1.00418
 H1565 H 0.16507 1.12644 1.03651
 H1566 H 0.19534 1.08100 0.99101
 H1567 H 0.10193 1.02054 1.00706
 H1568 H 0.06699 1.08167 1.00193
 H1569 H 0.16023 1.06367 0.98535
 H1570 H 0.13644 1.04038 1.00861
 H1571 H 0.13049 1.10801 1.03145
 H1572 H 0.10169 1.10148 1.00339
 C1573 C 0.64327 0.58320 0.50768
 C1574 C 0.64422 0.60369 0.51805
 C1575 C 0.66426 0.61429 0.52098
 C1576 C 0.68374 0.60466 0.51351
 C1577 C 0.68270 0.58443 0.50263
 C1578 C 0.66269 0.57381 0.49977
 C1579 C 0.62223 0.57124 0.50589
 C1580 C 0.62138 0.54875 0.51025
 C1581 C 0.60157 0.53748 0.50929
 C1582 C 0.58210 0.54842 0.50388
 C1583 C 0.58297 0.57092 0.49931
 C1584 C 0.60283 0.58222 0.50037
 H1585 H 0.66454 0.62999 0.52920
 H1586 H 0.69745 0.57653 0.49685
 H1587 H 0.60154 0.52017 0.51293
 H1588 H 0.56830 0.57986 0.49509
 H1589 H 0.66242 0.55815 0.49148
 H1590 H 0.63600 0.53991 0.51487
 H1591 H 0.62955 0.61126 0.52446
 H1592 H 0.60304 0.59952 0.49674
 C1593 C 0.64080 0.41365 -0.00855
 C1594 C 0.64237 0.39528 -0.02220
 C1595 C 0.66241 0.38472 -0.02522
 C1596 C 0.68155 0.39213 -0.01450
 C1597 C 0.67953 0.41020 -0.00017
 C1598 C 0.65952 0.42083 0.00262
 C1599 C 0.61991 0.42582 -0.00663
 C1600 C 0.61983 0.44872 -0.00782
 C1601 C 0.60022 0.46032 -0.00667
 C1602 C 0.58021 0.44931 -0.00411
 C1603 C 0.58029 0.42638 -0.00273
 C1604 C 0.59994 0.41475 -0.00410
 H1605 H 0.66255 0.37039 -0.03561
 H1606 H 0.69357 0.41712 0.00809
 H1607 H 0.60078 0.47797 -0.00775
 H1608 H 0.56516 0.41740 -0.00082
 H1609 H 0.65872 0.43490 0.01338
 H1610 H 0.63494 0.45767 -0.01005
 H1611 H 0.62817 0.38934 -0.03099
 H1612 H 0.59956 0.39710 -0.00303
 C1613 C 0.14243 -0.08417 0.48967
 C1614 C 0.14329 -0.10496 0.47990
 C1615 C 0.16331 -0.11561 0.47709
 C1616 C 0.18287 -0.10573 0.48407
 C1617 C 0.18193 -0.08521 0.49437
 C1618 C 0.16194 -0.07454 0.49711
 C1619 C 0.12142 -0.07217 0.49137
 C1620 C 0.12057 -0.04980 0.48644
 C1621 C 0.10090 -0.03835 0.48782
 C1622 C 0.08155 -0.04898 0.49423
 C1623 C 0.08237 -0.07142 0.49911
 C1624 C 0.10210 -0.08290 0.49763
 H1625 H 0.16352 -0.13154 0.46932
 H1626 H 0.19674 -0.07711 0.49976
 H1627 H 0.10092 -0.02112 0.48387
 H1628 H 0.06778 -0.08012 0.50408
 H1629 H 0.16176 -0.05865 0.50494
 H1630 H 0.13511 -0.04116 0.48120
 H1631 H 0.12854 -0.11273 0.47389
 H1632 H 0.10230 -0.10012 0.50165
 C1633 C 0.35731 -0.08404 0.50718
 C1634 C 0.33836 -0.07721 0.49622
 C1635 C 0.31841 -0.08776 0.49972
 C1636 C 0.31671 -0.10534 0.51461
 C1637 C 0.33605 -0.11234 0.52519
 C1638 C 0.35600 -0.10190 0.52145
 C1639 C 0.37819 -0.07205 0.50448
 C1640 C 0.39801 -0.08336 0.50194
 C1641 C 0.41777 -0.07196 0.50039
 C1642 C 0.41812 -0.04902 0.50161
 C1643 C 0.39823 -0.03774 0.50390
 C1644 C 0.37849 -0.04912 0.50522
 H1645 H 0.30419 -0.08118 0.49154
 H1646 H 0.33611 -0.12629 0.53602
 H1647 H 0.43281 -0.08114 0.49868
 H1648 H 0.39790 -0.02007 0.50483
 H1649 H 0.37038 -0.10753 0.53013
 H1650 H 0.39822 -0.10103 0.50116
 H1651 H 0.33895 -0.06351 0.48504
 H1652 H 0.36348 -0.04000 0.50740
 C1653 C -0.14416 0.41705 1.00734
 C1654 C -0.16393 0.42636 1.00024
 C1655 C -0.18378 0.41562 1.00376
 C1656 C -0.18429 0.39537 1.01452
 C1657 C -0.16447 0.38578 1.02108
 C1658 C -0.14462 0.39649 1.01752
 C1659 C -0.12326 0.42916 1.00508
 C1660 C -0.10391 0.41830 0.99910
 C1661 C -0.08410 0.42966 0.99790
 C1662 C -0.08321 0.45212 1.00274
 C1663 C -0.10264 0.46298 1.00851
 C1664 C -0.12240 0.45164 1.00964
 H1665 H -0.19879 0.42347 0.99864
 H1666 H -0.16434 0.37006 1.02918
 H1667 H -0.06947 0.42078 0.99338
 H1668 H -0.10259 0.48026 1.01236
 H1669 H -0.12969 0.38898 1.02333
 H1670 H -0.10410 0.40102 0.99530
 H1671 H -0.16406 0.44207 0.99211
 H1672 H -0.13696 0.46040 1.01461
 C1673 C -0.14229 0.58424 0.48814
 C1674 C -0.16117 0.57697 0.49890
 C1675 C -0.18113 0.58760 0.49586
 C1676 C -0.18287 0.60575 0.48170
 C1677 C -0.16358 0.61321 0.47137
 C1678 C -0.14362 0.60265 0.47462
 C1679 C -0.12146 0.57214 0.49036
 C1680 C -0.10161 0.58327 0.49351
 C1681 C -0.08198 0.57170 0.49521
 C1682 C -0.08182 0.54878 0.49355
 C1683 C -0.10172 0.53771 0.49034
 C1684 C -0.12131 0.54926 0.48885
 H1685 H -0.19531 0.58066 0.50380
 H1686 H -0.16357 0.62760 0.46112
 H1687 H -0.06693 0.58070 0.49762
 H1688 H -0.10220 0.52007 0.48902
 H1689 H -0.12926 0.60863 0.46616
 H1690 H -0.10132 0.60091 0.49484
 H1691 H -0.16055 0.56285 0.50954
 H1692 H -0.13634 0.54030 0.48613
 C1693 C 0.35781 1.08383 -0.01085
 C1694 C 0.33903 1.07649 0.00005
 C1695 C 0.31900 1.08706 -0.00282
 C1696 C 0.31708 1.10521 -0.01696
 C1697 C 0.33628 1.11276 -0.02741
 C1698 C 0.35630 1.10226 -0.02433
 C1699 C 0.37873 1.07178 -0.00887
 C1700 C 0.39860 1.08298 -0.00612
 C1701 C 0.41832 1.07149 -0.00483
 C1702 C 0.41855 1.04857 -0.00649
 C1703 C 0.39862 1.03742 -0.00921
 C1704 C 0.37895 1.04889 -0.01031
 H1705 H 0.30491 1.08007 0.00523
 H1706 H 0.33617 1.12716 -0.03763
 H1707 H 0.43337 1.08057 -0.00276
 H1708 H 0.39819 1.01978 -0.01050
 H1709 H 0.37056 1.10830 -0.03291
 H1710 H 0.39886 1.10062 -0.00483
 H1711 H 0.33979 1.06236 0.01067
 H1712 H 0.36391 1.03986 -0.01272
 C1713 C 0.00752 1.14371 1.08545
 C1714 C 0.02186 1.14535 1.10329
 C1715 C 0.02548 1.16544 1.11358
 C1716 C 0.01468 1.18457 1.10644
 C1717 C -0.00031 1.18252 1.08891
 C1718 C -0.00368 1.16243 1.07851
 C1719 C 0.00501 1.12274 1.07351
 C1720 C 0.00567 1.12235 1.05052
 C1721 C 0.00442 1.10257 1.03915
 C1722 C 0.00226 1.08273 1.05050
 C1723 C 0.00118 1.08315 1.07351
 C1724 C 0.00267 1.10296 1.08491
 H1725 H 0.03639 1.16565 1.12752
 H1726 H -0.00866 1.19656 1.08221
 H1727 H 0.00526 1.10284 1.02143
 H1728 H -0.00039 1.06815 1.08275
 H1729 H -0.01493 1.16158 1.06483
 H1730 H 0.00771 1.13732 1.04134
 H1731 H 0.03071 1.13113 1.10900
 H1732 H 0.00199 1.10284 1.10264
 C1733 C 0.50861 0.64349 0.58427
 C1734 C 0.51937 0.64437 0.60460
 C1735 C 0.52266 0.66437 0.61521
 C1736 C 0.51519 0.68390 0.60573
 C1737 C 0.50401 0.68295 0.58564
 C1738 C 0.50077 0.66298 0.57502
 C1739 C 0.50627 0.62248 0.57233
 C1740 C 0.51003 0.62156 0.54965
 C1741 C 0.50846 0.60178 0.53834
 C1742 C 0.50306 0.58241 0.54943
 C1743 C 0.49909 0.58336 0.57212
 C1744 C 0.50073 0.60318 0.58345
 H1745 H 0.53112 0.66458 0.63080
 H1746 H 0.49823 0.69773 0.57784
 H1747 H 0.51168 0.60170 0.52090
 H1748 H 0.49491 0.56875 0.58117
 H1749 H 0.49220 0.66278 0.55950
 H1750 H 0.51464 0.63609 0.54068
 H1751 H 0.52574 0.62965 0.61204
 H1752 H 0.49756 0.60345 0.60090
 C1753 C -0.01177 0.64289 0.41747
 C1754 C -0.03140 0.65465 0.41927
 C1755 C -0.03400 0.67454 0.40850
 C1756 C -0.01704 0.68320 0.39567
 C1757 C 0.00264 0.67150 0.39385
 C1758 C 0.00521 0.65145 0.40456
 C1759 C -0.00910 0.62195 0.42939
 C1760 C 0.00045 0.60368 0.41922
 C1761 C 0.00213 0.58379 0.43040
 C1762 C -0.00558 0.58186 0.45203
 C1763 C -0.01486 0.60029 0.46221
 C1764 C -0.01661 0.62004 0.45103
 H1765 H -0.04926 0.68330 0.41042
 H1766 H 0.01593 0.67773 0.38395
 H1767 H 0.00937 0.56993 0.42208
 H1768 H -0.02096 0.59947 0.47884
 H1769 H 0.02058 0.64280 0.40303
 H1770 H 0.00622 0.60465 0.40248
 H1771 H -0.04485 0.64836 0.42890
 H1772 H -0.02378 0.63392 0.45939
 C1773 C 0.49106 1.14221 -0.08546
 C1774 C 0.50215 1.16090 -0.07813
 C1775 C 0.49908 1.18102 -0.08845
 C1776 C 0.48453 1.18314 -0.10631
 C1777 C 0.47385 1.16404 -0.11385
 C1778 C 0.47715 1.14392 -0.10363
 C1779 C 0.49329 1.12120 -0.07364
 C1780 C 0.49575 1.10142 -0.08513
 C1781 C 0.49729 1.08162 -0.07383
 C1782 C 0.49616 1.08119 -0.05083
 C1783 C 0.49372 1.10101 -0.03939
 C1784 C 0.49240 1.12078 -0.05066
 H1785 H 0.50732 1.19502 -0.08145
 H1786 H 0.46328 1.16430 -0.12806
 H1787 H 0.49909 1.06664 -0.08313
 H1788 H 0.49283 1.10129 -0.02167
 H1789 H 0.46840 1.12974 -0.10965
 H1790 H 0.49660 1.10131 -0.10285
 H1791 H 0.51310 1.16000 -0.06421
 H1792 H 0.49022 1.13573 -0.04140
 C1793 C 0.50955 0.35736 -0.08384
 C1794 C 0.49839 0.33865 -0.07677
 C1795 C 0.50135 0.31862 -0.08740
 C1796 C 0.51587 0.31662 -0.10530
 C1797 C 0.52660 0.33574 -0.11257
 C1798 C 0.52341 0.35578 -0.10204
 C1799 C 0.50739 0.37829 -0.07175
 C1800 C 0.50483 0.39812 -0.08301
 C1801 C 0.50329 0.41784 -0.07148
 C1802 C 0.50453 0.41814 -0.04847
 C1803 C 0.50713 0.39826 -0.03727
 C1804 C 0.50844 0.37856 -0.04877
 H1805 H 0.49305 0.30457 -0.08063
 H1806 H 0.53715 0.33558 -0.12678
 H1807 H 0.50137 0.43287 -0.08061
 H1808 H 0.50811 0.39788 -0.01956
 H1809 H 0.53219 0.36998 -0.10787
 H1810 H 0.50386 0.39833 -0.10072
 H1811 H 0.48748 0.33946 -0.06282
 H1812 H 0.51069 0.36355 -0.03970
 C1813 C 0.00928 -0.14302 0.41784
 C1814 C 0.00168 -0.16254 0.42723
 C1815 C 0.00486 -0.18253 0.41661
 C1816 C 0.01577 -0.18345 0.39638
 C1817 C 0.02287 -0.16387 0.38672
 C1818 C 0.01964 -0.14387 0.39731
 C1819 C 0.00725 -0.12198 0.42983
 C1820 C 0.00161 -0.10265 0.41881
 C1821 C 0.00028 -0.08280 0.43016
 C1822 C 0.00466 -0.08187 0.45277
 C1823 C 0.01026 -0.10126 0.46374
 C1824 C 0.01151 -0.12105 0.45242
 H1825 H -0.00067 -0.19735 0.42452
 H1826 H 0.03108 -0.16405 0.37100
 H1827 H -0.00407 -0.06819 0.42120
 H1828 H 0.01379 -0.10120 0.48113
 H1829 H 0.02581 -0.12913 0.38973
 H1830 H -0.00191 -0.10290 0.40142
 H1831 H -0.00660 -0.16236 0.44291
 H1832 H 0.01624 -0.13560 0.46130
 C1833 C 0.48895 -0.14373 0.58172
 C1834 C 0.46924 -0.15527 0.57930
 C1835 C 0.46592 -0.17489 0.59035
 C1836 C 0.48224 -0.18346 0.60404
 C1837 C 0.50198 -0.17196 0.60650
 C1838 C 0.50526 -0.15219 0.59551
 C1839 C 0.49233 -0.12301 0.56970
 C1840 C 0.50141 -0.10466 0.58017
 C1841 C 0.50347 -0.08484 0.56898
 C1842 C 0.49662 -0.08306 0.54705
 C1843 C 0.48801 -0.10162 0.53651
 C1844 C 0.48587 -0.12133 0.54770
 H1845 H 0.45064 -0.18353 0.58798
 H1846 H 0.51476 -0.17814 0.61708
 H1847 H 0.51018 -0.07088 0.57760
 H1848 H 0.48261 -0.10092 0.51962
 H1849 H 0.52065 -0.14368 0.59755
 H1850 H 0.50639 -0.10549 0.59718
 H1851 H 0.45629 -0.14901 0.56897
 H1852 H 0.47912 -0.13530 0.53913
 C1853 C -0.01068 0.35665 1.08080
 C1854 C 0.00704 0.34556 1.09019
 C1855 C 0.00382 0.32572 1.10109
 C1856 C -0.01735 0.31666 1.10327
 C1857 C -0.03501 0.32819 1.09384
 C1858 C -0.03168 0.34777 1.08276
 C1859 C -0.00749 0.37728 1.06862
 C1860 C -0.01771 0.38017 1.04825
 C1861 C -0.01589 0.39993 1.03712
 C1862 C -0.00391 0.41739 1.04616
 C1863 C 0.00663 0.41439 1.06642
 C1864 C 0.00496 0.39445 1.07749
 H1865 H 0.01792 0.31804 1.10848
 H1866 H -0.05147 0.32175 1.09405
 H1867 H -0.02423 0.40162 1.02156
 H1868 H 0.01602 0.42749 1.07379
 H1869 H -0.04564 0.35604 1.07567
 H1870 H -0.02721 0.36711 1.04096
 H1871 H 0.02343 0.35212 1.08887
 H1872 H 0.01289 0.39262 1.09325
 C1873 C 0.76340 0.33394 0.10790
 C1874 C 0.78406 0.33586 0.09821
 C1875 C 0.78658 0.34644 0.07816
 C1876 C 0.76844 0.35538 0.06697
 C1877 C 0.74767 0.35342 0.07696
 C1878 C 0.74525 0.34300 0.09721
 C1879 C 0.76089 0.32196 0.12883
 C1880 C 0.74824 0.33054 0.14602
 C1881 C 0.74641 0.31928 0.16588
 C1882 C 0.75696 0.29908 0.16878
 C1883 C 0.76944 0.29047 0.15145
 C1884 C 0.77143 0.30181 0.13176
 H1885 H 0.80280 0.34655 0.07111
 H1886 H 0.73323 0.36051 0.06964
 H1887 H 0.73664 0.32632 0.17890
 H1888 H 0.77784 0.27499 0.15312
 H1889 H 0.72911 0.34172 0.10437
 H1890 H 0.74007 0.34612 0.14421
 H1891 H 0.79835 0.32905 0.10614
 H1892 H 0.78110 0.29471 0.11870
 C1893 C 0.26194 0.83343 0.60667
 C1894 C 0.28143 0.83053 0.59485
 C1895 C 0.28457 0.84102 0.57484
 C1896 C 0.26830 0.85464 0.56611
 C1897 C 0.24882 0.85767 0.57795
 C1898 C 0.24571 0.84724 0.59811
 C1899 C 0.25858 0.82169 0.62765
 C1900 C 0.24959 0.83231 0.64600
 C1901 C 0.24736 0.82126 0.66595
 C1902 C 0.25396 0.79933 0.66788
 C1903 C 0.26254 0.78868 0.64933
 C1904 C 0.26483 0.79972 0.62951
 H1905 H 0.29966 0.83821 0.56600
 H1906 H 0.23607 0.86822 0.57170
 H1907 H 0.24069 0.82996 0.67989
 H1908 H 0.26773 0.77179 0.65011
 H1909 H 0.23047 0.84966 0.60680
 H1910 H 0.24475 0.84930 0.64505
 H1911 H 0.29433 0.82020 0.60116
 H1912 H 0.27148 0.79100 0.61556
 C1913 C 0.74115 0.66532 0.60515
 C1914 C 0.73044 0.64503 0.60413
 C1915 C 0.72712 0.63462 0.58398
 C1916 C 0.73452 0.64425 0.56446
 C1917 C 0.74565 0.66430 0.56556
 C1918 C 0.74893 0.67471 0.58567
 C1919 C 0.74342 0.67714 0.62629
 C1920 C 0.73962 0.69974 0.62727
 C1921 C 0.74124 0.71098 0.64711
 C1922 C 0.74671 0.69992 0.66652
 C1923 C 0.75067 0.67730 0.66554
 C1924 C 0.74898 0.66602 0.64563
 H1925 H 0.71872 0.61905 0.58367
 H1926 H 0.75137 0.67222 0.55080
 H1927 H 0.73802 0.72837 0.64720
 H1928 H 0.75491 0.66827 0.68017
 H1929 H 0.75747 0.69021 0.58597
 H1930 H 0.73497 0.70870 0.61273
 H1931 H 0.72412 0.63748 0.61885
 H1932 H 0.75217 0.64862 0.64533
 C1933 C 0.23943 0.16442 0.10673
 C1934 C 0.22944 0.14379 0.10550
 C1935 C 0.22670 0.13338 0.08527
 C1936 C 0.23398 0.14336 0.06588
 C1937 C 0.24456 0.16368 0.06719
 C1938 C 0.24722 0.17412 0.08739
 C1939 C 0.24093 0.17624 0.12792
 C1940 C 0.23612 0.19864 0.12893
 C1941 C 0.23728 0.20992 0.14878
 C1942 C 0.24335 0.19910 0.16815
 C1943 C 0.24810 0.17663 0.16718
 C1944 C 0.24683 0.16531 0.14727
 H1945 H 0.21873 0.11759 0.08476
 H1946 H 0.25022 0.17181 0.05251
 H1947 H 0.23344 0.22719 0.14887
 H1948 H 0.25281 0.16779 0.18178
 H1949 H 0.25524 0.18989 0.08788
 H1950 H 0.23116 0.20742 0.11437
 H1951 H 0.22316 0.13599 0.12011
 H1952 H 0.25074 0.14806 0.14694
 C1953 C 0.26175 0.16943 0.89375
 C1954 C 0.24556 0.15529 0.90184
 C1955 C 0.24869 0.14426 0.92166
 C1956 C 0.26814 0.14703 0.93363
 C1957 C 0.28431 0.16111 0.92545
 C1958 C 0.28115 0.17218 0.90577
 C1959 C 0.25854 0.18148 0.87294
 C1960 C 0.26484 0.20348 0.87141
 C1961 C 0.26285 0.21471 0.85167
 C1962 C 0.25454 0.20423 0.83289
 C1963 C 0.24785 0.18230 0.83451
 C1964 C 0.24978 0.17105 0.85437
 H1965 H 0.23602 0.13338 0.92752
 H1966 H 0.29937 0.16373 0.93443
 H1967 H 0.26808 0.23161 0.85112
 H1968 H 0.24137 0.17373 0.82039
 H1969 H 0.29402 0.18277 0.89982
 H1970 H 0.27131 0.21204 0.88555
 H1971 H 0.23039 0.15299 0.89299
 H1972 H 0.24494 0.15405 0.85505
 C1973 C 0.76247 0.66999 0.39212
 C1974 C 0.74620 0.65589 0.40014
 C1975 C 0.74918 0.64492 0.42000
 C1976 C 0.76856 0.64769 0.43208
 C1977 C 0.78480 0.66174 0.42399
 C1978 C 0.78179 0.67276 0.40426
 C1979 C 0.75943 0.68194 0.37125
 C1980 C 0.76572 0.70393 0.36967
 C1981 C 0.76387 0.71507 0.34987
 C1982 C 0.75571 0.70448 0.33108
 C1983 C 0.74906 0.68255 0.33274
 C1984 C 0.75085 0.67140 0.35265
 H1985 H 0.73647 0.63406 0.42580
 H1986 H 0.79981 0.66436 0.43305
 H1987 H 0.76907 0.73197 0.34928
 H1988 H 0.74269 0.67390 0.31861
 H1989 H 0.79471 0.68332 0.39837
 H1990 H 0.77208 0.71256 0.38382
 H1991 H 0.73109 0.65359 0.39119
 H1992 H 0.74603 0.65440 0.35338
 C1993 C 0.23879 0.83183 0.39304
 C1994 C 0.22830 0.85224 0.39386
 C1995 C 0.22541 0.86303 0.41387
 C1996 C 0.23304 0.85370 0.43346
 C1997 C 0.24397 0.83354 0.43255
 C1998 C 0.24678 0.82272 0.41258
 C1999 C 0.24076 0.81973 0.37201
 C2000 C 0.23680 0.79715 0.37129
 C2001 C 0.23832 0.78566 0.35158
 C2002 C 0.24392 0.79645 0.33204
 C2003 C 0.24791 0.81908 0.33275
 C2004 C 0.24629 0.83060 0.35252
 H2005 H 0.21715 0.87867 0.41403
 H2006 H 0.24987 0.82586 0.44738
 H2007 H 0.23507 0.76827 0.35168
 H2008 H 0.25224 0.82792 0.31804
 H2009 H 0.25517 0.80714 0.41242
 H2010 H 0.23216 0.78838 0.38596
 H2011 H 0.22183 0.85960 0.37911
 H2012 H 0.24960 0.84798 0.35262
 C2013 C 0.73878 0.33024 0.89517
 C2014 C 0.74633 0.32110 0.91488
 C2015 C 0.74287 0.33180 0.93482
 C2016 C 0.73171 0.35184 0.93553
 C2017 C 0.72445 0.36116 0.91580
 C2018 C 0.72799 0.35049 0.89582
 C2019 C 0.74150 0.31831 0.87413
 C2020 C 0.74740 0.32939 0.85487
 C2021 C 0.74941 0.31808 0.83501
 C2022 C 0.74541 0.29547 0.83398
 C2023 C 0.73964 0.28443 0.85332
 C2024 C 0.73775 0.29570 0.87313
 H2025 H 0.74853 0.32416 0.94977
 H2026 H 0.71604 0.37672 0.91581
 H2027 H 0.75385 0.32710 0.82044
 H2028 H 0.73641 0.26703 0.85317
 H2029 H 0.72183 0.35785 0.88094
 H2030 H 0.75059 0.34679 0.85520
 H2031 H 0.75491 0.30563 0.91487
 H2032 H 0.73288 0.28676 0.88762
 C2033 C 0.83459 0.39292 0.24296
 C2034 C 0.82499 0.41249 0.25025
 C2035 C 0.83562 0.43246 0.24725
 C2036 C 0.85608 0.43331 0.23684
 C2037 C 0.86597 0.41368 0.23011
 C2038 C 0.85535 0.39370 0.23316
 C2039 C 0.82256 0.37193 0.24469
 C2040 C 0.83337 0.35257 0.25067
 C2041 C 0.82196 0.33279 0.25179
 C2042 C 0.79951 0.33193 0.24686
 C2043 C 0.78876 0.35133 0.24088
 C2044 C 0.80013 0.37106 0.23983
 H2045 H 0.82752 0.44731 0.25247
 H2046 H 0.88185 0.41381 0.22228
 H2047 H 0.83076 0.31817 0.25644
 H2048 H 0.77150 0.35131 0.23692
 H2049 H 0.86310 0.37892 0.22724
 H2050 H 0.85062 0.35278 0.25466
 H2051 H 0.80913 0.41237 0.25812
 H2052 H 0.79142 0.38561 0.23481
 C2053 C 0.33257 0.89448 0.74310
 C2054 C 0.32330 0.91431 0.75007
 C2055 C 0.33422 0.93406 0.74664
 C2056 C 0.35463 0.93441 0.73610
 C2057 C 0.36415 0.91453 0.72960
 C2058 C 0.35325 0.89477 0.73310
 C2059 C 0.32031 0.87368 0.74538
 C2060 C 0.33097 0.85436 0.75169
 C2061 C 0.31945 0.83466 0.75300
 C2062 C 0.29703 0.83385 0.74791
 C2063 C 0.28637 0.85326 0.74181
 C2064 C 0.29786 0.87292 0.74059
 H2065 H 0.32640 0.94912 0.75168
 H2066 H 0.37997 0.91427 0.72166
 H2067 H 0.32818 0.82004 0.75776
 H2068 H 0.26914 0.85327 0.73775
 H2069 H 0.36074 0.87977 0.72739
 H2070 H 0.34822 0.85450 0.75567
 H2071 H 0.30749 0.91457 0.75805
 H2072 H 0.28926 0.88746 0.73537
 C2073 C 0.16500 0.88920 0.25854
 C2074 C 0.17213 0.90800 0.24756
 C2075 C 0.16170 0.92805 0.25086
 C2076 C 0.14395 0.92997 0.26555
 C2077 C 0.13653 0.91074 0.27599
 C2078 C 0.14686 0.89070 0.27247
 C2079 C 0.17704 0.86831 0.25628
 C2080 C 0.16581 0.84842 0.25380
 C2081 C 0.17730 0.82871 0.25246
 C2082 C 0.20025 0.82849 0.25382
 C2083 C 0.21143 0.84843 0.25622
 C2084 C 0.19997 0.86810 0.25734
 H2085 H 0.16855 0.94216 0.24274
 H2086 H 0.12238 0.91085 0.28660
 H2087 H 0.16820 0.81363 0.25067
 H2088 H 0.22910 0.84887 0.25726
 H2089 H 0.14097 0.87644 0.28111
 H2090 H 0.14814 0.84814 0.25282
 H2091 H 0.18602 0.90725 0.23659
 H2092 H 0.20903 0.88315 0.25954
 C2093 C 0.66691 0.39072 0.75743
 C2094 C 0.67633 0.41042 0.75034
 C2095 C 0.66562 0.43029 0.75377
 C2096 C 0.64528 0.43089 0.76442
 C2097 C 0.63558 0.41114 0.77098
 C2098 C 0.64626 0.39127 0.76749
 C2099 C 0.67901 0.36982 0.75529
 C2100 C 0.66819 0.35047 0.74922
 C2101 C 0.67956 0.33068 0.74812
 C2102 C 0.70198 0.32981 0.75315
 C2103 C 0.71280 0.34925 0.75900
 C2104 C 0.70146 0.36900 0.76003
 H2105 H 0.67357 0.44524 0.74868
 H2106 H 0.61979 0.41109 0.77899
 H2107 H 0.67071 0.31603 0.74354
 H2108 H 0.73005 0.34922 0.76300
 H2109 H 0.63867 0.37639 0.77329
 H2110 H 0.65093 0.35066 0.74529
 H2111 H 0.69211 0.41048 0.74230
 H2112 H 0.71019 0.38356 0.76507
 C2113 C 0.66719 0.60581 0.74354
 C2114 C 0.64632 0.60527 0.73391
 C2115 C 0.63546 0.58542 0.73081
 C2116 C 0.64520 0.56568 0.73732
 C2117 C 0.66578 0.56628 0.74755
 C2118 C 0.67667 0.58613 0.75059
 C2119 C 0.67942 0.62669 0.74529
 C2120 C 0.70176 0.62743 0.74008
 C2121 C 0.71320 0.64716 0.74080
 C2122 C 0.70259 0.66664 0.74682
 C2123 C 0.68027 0.66586 0.75231
 C2124 C 0.66880 0.64610 0.75150
 H2125 H 0.61951 0.58547 0.72311
 H2126 H 0.67376 0.55133 0.75259
 H2127 H 0.73036 0.64711 0.73645
 H2128 H 0.67158 0.68054 0.75703
 H2129 H 0.69262 0.58606 0.75829
 H2130 H 0.71032 0.61282 0.73492
 H2131 H 0.63867 0.62014 0.72816
 H2132 H 0.65163 0.64598 0.75579
 C2133 C 0.16624 0.10533 0.24363
 C2134 C 0.17603 0.08585 0.25085
 C2135 C 0.16541 0.06582 0.24809
 C2136 C 0.14480 0.06483 0.23798
 C2137 C 0.13469 0.08438 0.23144
 C2138 C 0.14529 0.10441 0.23425
 C2139 C 0.17828 0.12635 0.24488
 C2140 C 0.16756 0.14578 0.25085
 C2141 C 0.17892 0.16562 0.25140
 C2142 C 0.20123 0.16645 0.24591
 C2143 C 0.21189 0.14697 0.23993
 C2144 C 0.20056 0.12719 0.23944
 H2145 H 0.17365 0.05102 0.25317
 H2146 H 0.11869 0.08413 0.22383
 H2147 H 0.17020 0.18028 0.25612
 H2148 H 0.22905 0.14695 0.23555
 H2149 H 0.13738 0.11911 0.22840
 H2150 H 0.15042 0.14561 0.25527
 H2151 H 0.19205 0.08609 0.25841
 H2152 H 0.20918 0.11257 0.23440
 C2153 C 0.33384 0.10943 0.75581
 C2154 C 0.35456 0.10895 0.76573
 C2155 C 0.36533 0.08911 0.76906
 C2156 C 0.35563 0.06933 0.76249
 C2157 C 0.33521 0.06987 0.75195
 C2158 C 0.32443 0.08970 0.74866
 C2159 C 0.32165 0.13029 0.75388
 C2160 C 0.29923 0.13105 0.75874
 C2161 C 0.28783 0.15077 0.75790
 C2162 C 0.29857 0.17024 0.75214
 C2163 C 0.32097 0.16944 0.74700
 C2164 C 0.33239 0.14968 0.74791
 H2165 H 0.38116 0.08920 0.77701
 H2166 H 0.32726 0.05488 0.74685
 H2167 H 0.27060 0.15075 0.76198
 H2168 H 0.32976 0.18411 0.74247
 H2169 H 0.30859 0.08959 0.74073
 H2170 H 0.29057 0.11645 0.76372
 H2171 H 0.36216 0.12385 0.77156
 H2172 H 0.34963 0.14954 0.74388
 C2173 C 0.83392 0.60884 0.25601
 C2174 C 0.85444 0.60833 0.26636
 C2175 C 0.86502 0.58845 0.27009
 C2176 C 0.85535 0.56866 0.26349
 C2177 C 0.83515 0.56923 0.25255
 C2178 C 0.82453 0.58910 0.24888
 C2179 C 0.82187 0.62975 0.25362
 C2180 C 0.79938 0.63066 0.25812
 C2181 C 0.78807 0.65041 0.25686
 C2182 C 0.79896 0.66978 0.25101
 C2183 C 0.82143 0.66883 0.24620
 C2184 C 0.83277 0.64903 0.24756
 H2185 H 0.88070 0.58853 0.27834
 H2186 H 0.82722 0.55425 0.24742
 H2187 H 0.77079 0.65050 0.26069
 H2188 H 0.83034 0.68342 0.24166
 H2189 H 0.80886 0.58900 0.24063
 H2190 H 0.79059 0.61616 0.26314
 H2191 H 0.86200 0.62325 0.27219
 H2192 H 0.85007 0.64878 0.24383
 C2193 C 0.89351 0.26350 0.16882
 C2194 C 0.90183 0.24685 0.15529
 C2195 C 0.92184 0.24956 0.14450
 C2196 C 0.93375 0.26906 0.14688
 C2197 C 0.92539 0.28566 0.16042
 C2198 C 0.90552 0.28292 0.17124
 C2199 C 0.87249 0.26075 0.18061
 C2200 C 0.87054 0.26778 0.20243
 C2201 C 0.85069 0.26592 0.21349
 C2202 C 0.83225 0.25698 0.20302
 C2203 C 0.83422 0.24977 0.18120
 C2204 C 0.85418 0.25159 0.17013
 H2205 H 0.92786 0.23656 0.13406
 H2206 H 0.93434 0.30075 0.16277
 H2207 H 0.84985 0.27159 0.23029
 H2208 H 0.82035 0.24281 0.17264
 H2209 H 0.89943 0.29613 0.18137
 H2210 H 0.88444 0.27463 0.21103
 H2211 H 0.89300 0.23164 0.15329
 H2212 H 0.85518 0.24623 0.15324
 C2213 C 0.39300 0.76137 0.66924
 C2214 C 0.40159 0.74494 0.65563
 C2215 C 0.42152 0.74807 0.64484
 C2216 C 0.43307 0.76779 0.64730
 C2217 C 0.42437 0.78422 0.66080
 C2218 C 0.40458 0.78105 0.67166
 C2219 C 0.37213 0.75815 0.68111
 C2220 C 0.37028 0.76479 0.70306
 C2221 C 0.35044 0.76291 0.71410
 C2222 C 0.33189 0.75438 0.70347
 C2223 C 0.33384 0.74730 0.68161
 C2224 C 0.35381 0.74911 0.67056
 H2225 H 0.42781 0.73520 0.63440
 H2226 H 0.43302 0.79949 0.66318
 H2227 H 0.34962 0.76845 0.73095
 H2228 H 0.31989 0.74063 0.67294
 H2229 H 0.39823 0.79409 0.68185
 H2230 H 0.38422 0.77151 0.71170
 H2231 H 0.39304 0.72957 0.65359
 H2232 H 0.35477 0.74399 0.65359
 C2233 C 0.39429 0.23982 0.83153
 C2234 C 0.40597 0.22030 0.82843
 C2235 C 0.42574 0.21678 0.83925
 C2236 C 0.43436 0.23271 0.85343
 C2237 C 0.42268 0.25224 0.85663
 C2238 C 0.40278 0.25572 0.84585
 C2239 C 0.37346 0.24348 0.81961
 C2240 C 0.35516 0.25243 0.83027
 C2241 C 0.33527 0.25476 0.81913
 C2242 C 0.33334 0.24830 0.79708
 C2243 C 0.35187 0.23985 0.78635
 C2244 C 0.37163 0.23746 0.79748
 H2245 H 0.43447 0.20167 0.83630
 H2246 H 0.42885 0.26473 0.86760
 H2247 H 0.32135 0.26132 0.82790
 H2248 H 0.35109 0.23478 0.76936
 H2249 H 0.39419 0.27097 0.84845
 H2250 H 0.35607 0.25708 0.84737
 H2251 H 0.39971 0.20763 0.81770
 H2252 H 0.38555 0.23086 0.78873
 C2253 C 0.89545 0.74047 0.32989
 C2254 C 0.90692 0.72078 0.32713
 C2255 C 0.92657 0.71719 0.33814
 C2256 C 0.93527 0.73323 0.35215
 C2257 C 0.92386 0.75298 0.35491
 C2258 C 0.90407 0.75652 0.34396
 C2259 C 0.87463 0.74410 0.31797
 C2260 C 0.85638 0.75318 0.32859
 C2261 C 0.83645 0.75538 0.31750
 C2262 C 0.83446 0.74866 0.29552
 C2263 C 0.85294 0.74009 0.28483
 C2264 C 0.87274 0.73782 0.29591
 H2265 H 0.93510 0.70191 0.33553
 H2266 H 0.93013 0.76555 0.36573
 H2267 H 0.82257 0.76205 0.32623
 H2268 H 0.85209 0.73482 0.26790
 H2269 H 0.89563 0.77191 0.34627
 H2270 H 0.85735 0.75802 0.34563
 H2271 H 0.90055 0.70801 0.31659
 H2272 H 0.88662 0.73109 0.28721
 C2273 C 0.10772 0.76208 0.33382
 C2274 C 0.09602 0.78170 0.33173
 C2275 C 0.07609 0.78455 0.34246
 C2276 C 0.06736 0.76786 0.35556
 C2277 C 0.07908 0.74824 0.35778
 C2278 C 0.09913 0.74541 0.34708
 C2279 C 0.12858 0.75904 0.32178
 C2280 C 0.14678 0.74931 0.33188
 C2281 C 0.16654 0.74708 0.32051
 C2282 C 0.16843 0.75441 0.29876
 C2283 C 0.15009 0.76392 0.28867
 C2284 C 0.13045 0.76621 0.30003
 H2285 H 0.06734 0.79976 0.34021
 H2286 H 0.07281 0.73516 0.36790
 H2287 H 0.18034 0.73968 0.32878
 H2288 H 0.15087 0.76974 0.27195
 H2289 H 0.10772 0.73006 0.34885
 H2290 H 0.14585 0.74380 0.34870
 H2291 H 0.10233 0.79494 0.32184
 H2292 H 0.11662 0.77347 0.29170
 C2293 C 0.60628 0.26017 0.83252
 C2294 C 0.59772 0.24426 0.84668
 C2295 C 0.57773 0.24771 0.85730
 C2296 C 0.56607 0.26724 0.85413
 C2297 C 0.57478 0.28320 0.84012
 C2298 C 0.59462 0.27970 0.82943
 C2299 C 0.62716 0.25651 0.82071
 C2300 C 0.62903 0.26239 0.79858
 C2301 C 0.64883 0.25996 0.78754
 C2302 C 0.66734 0.25163 0.79835
 C2303 C 0.66538 0.24534 0.82042
 C2304 C 0.64546 0.24769 0.83147
 H2305 H 0.57148 0.23521 0.86815
 H2306 H 0.56607 0.29831 0.83720
 H2307 H 0.64964 0.26491 0.77054
 H2308 H 0.67930 0.23886 0.82924
 H2309 H 0.60094 0.29236 0.81882
 H2310 H 0.61512 0.26890 0.78977
 H2311 H 0.60630 0.22901 0.84925
 H2312 H 0.64450 0.24315 0.84857
 C2313 C 0.60690 0.74101 0.66627
 C2314 C 0.58751 0.74885 0.67581
 C2315 C 0.56741 0.74570 0.66543
 C2316 C 0.56622 0.73463 0.64527
 C2317 C 0.58565 0.72720 0.63549
 C2318 C 0.60579 0.73039 0.64586
 C2319 C 0.62804 0.74312 0.67803
 C2320 C 0.64732 0.74859 0.66679
 C2321 C 0.66726 0.75000 0.67796
 C2322 C 0.66833 0.74586 0.70060
 C2323 C 0.64897 0.74051 0.71180
 C2324 C 0.62910 0.73918 0.70066
 H2325 H 0.55271 0.75146 0.67346
 H2326 H 0.58526 0.71884 0.61983
 H2327 H 0.68184 0.75415 0.66882
 H2328 H 0.64914 0.73718 0.72921
 H2329 H 0.62042 0.72402 0.63819
 H2330 H 0.64696 0.75189 0.64937
 H2331 H 0.58789 0.75732 0.69140
 H2332 H 0.61459 0.73461 0.70972
 C2333 C 0.10694 0.23988 0.16610
 C2334 C 0.08767 0.24792 0.17573
 C2335 C 0.06751 0.24527 0.16529
 C2336 C 0.06616 0.23445 0.14501
 C2337 C 0.08548 0.22688 0.13511
 C2338 C 0.10566 0.22960 0.14553
 C2339 C 0.12811 0.24146 0.17789
 C2340 C 0.14747 0.24687 0.16674
 C2341 C 0.16739 0.24805 0.17798
 C2342 C 0.16838 0.24371 0.20058
 C2343 C 0.14898 0.23824 0.21165
 C2344 C 0.12912 0.23716 0.20045
 H2345 H 0.05290 0.25116 0.17337
 H2346 H 0.08496 0.21872 0.11936
 H2347 H 0.18201 0.25229 0.16894
 H2348 H 0.14908 0.23475 0.22903
 H2349 H 0.12020 0.22311 0.13777
 H2350 H 0.14717 0.25042 0.14937
 H2351 H 0.08818 0.25617 0.19144
 H2352 H 0.11455 0.23259 0.20942
 C2353 C -0.08330 1.00612 0.85879
 C2354 C -0.07730 0.99455 0.83989
 C2355 C -0.08761 0.99856 0.81989
 C2356 C -0.10451 1.01424 0.81804
 C2357 C -0.11058 1.02564 0.83729
 C2358 C -0.10012 1.02164 0.85727
 C2359 C -0.07165 1.00242 0.87987
 C2360 C -0.08301 1.00288 0.89988
 C2361 C -0.07183 1.00048 0.91971
 C2362 C -0.04905 0.99743 0.92001
 C2363 C -0.03778 0.99634 0.89997
 C2364 C -0.04893 0.99888 0.88016
 H2365 H -0.08139 0.98985 0.80580
 H2366 H -0.12387 1.03725 0.83739
 H2367 H -0.08105 1.00127 0.93484
 H2368 H -0.02022 0.99417 0.89958
 H2369 H -0.10507 1.03099 0.87151
 H2370 H -0.10055 1.00516 0.90023
 H2371 H -0.06450 0.98236 0.84048
 H2372 H -0.03961 0.99874 0.86509
 C2373 C 0.41756 0.50556 0.35723
 C2374 C 0.42568 0.49662 0.33762
 C2375 C 0.41533 0.50079 0.31766
 C2376 C 0.39635 0.51372 0.31675
 C2377 C 0.38800 0.52237 0.33640
 C2378 C 0.39853 0.51845 0.35636
 C2379 C 0.42921 0.50192 0.37837
 C2380 C 0.41756 0.50001 0.39815
 C2381 C 0.42862 0.49776 0.41808
 C2382 C 0.45158 0.49705 0.41868
 C2383 C 0.46321 0.49828 0.39889
 C2384 C 0.45218 0.50084 0.37901
 H2385 H 0.42247 0.49410 0.30287
 H2386 H 0.37325 0.53213 0.33642
 H2387 H 0.41919 0.49670 0.43305
 H2388 H 0.48091 0.49802 0.39881
 H2389 H 0.39194 0.52587 0.37104
 H2390 H 0.39987 0.50030 0.39828
 H2391 H 0.44007 0.48634 0.33763
 H2392 H 0.46176 0.50264 0.36422
 C2393 C 0.58365 -0.00649 0.35664
 C2394 C 0.57773 0.00501 0.33772
 C2395 C 0.58810 0.00090 0.31776
 C2396 C 0.60500 -0.01480 0.31596
 C2397 C 0.61095 -0.02615 0.33522
 C2398 C 0.60043 -0.02207 0.35516
 C2399 C 0.57201 -0.00262 0.37771
 C2400 C 0.58335 -0.00316 0.39774
 C2401 C 0.57220 -0.00065 0.41757
 C2402 C 0.54944 0.00263 0.41786
 C2403 C 0.53820 0.00384 0.39781
 C2404 C 0.54933 0.00116 0.37799
 H2405 H 0.58195 0.00958 0.30365
 H2406 H 0.62423 -0.03778 0.33539
 H2407 H 0.58140 -0.00152 0.43271
 H2408 H 0.52065 0.00617 0.39743
 H2409 H 0.60531 -0.03138 0.36940
 H2410 H 0.60087 -0.00560 0.39812
 H2411 H 0.56497 0.01724 0.33827
 H2412 H 0.54001 0.00138 0.36292
 C2413 C 0.08124 0.49442 0.85642
 C2414 C 0.10045 0.48176 0.85604
 C2415 C 0.11129 0.47754 0.83630
 C2416 C 0.10309 0.48571 0.81643
 C2417 C 0.08384 0.49827 0.81683
 C2418 C 0.07317 0.50271 0.83655
 C2419 C 0.06943 0.49858 0.87734
 C2420 C 0.04643 0.49922 0.87782
 C2421 C 0.03528 0.50219 0.89757
 C2422 C 0.04682 0.50427 0.91736
 C2423 C 0.06979 0.50412 0.91687
 C2424 C 0.08096 0.50145 0.89707
 H2425 H 0.12620 0.46803 0.83667
 H2426 H 0.07681 0.50453 0.80183
 H2427 H 0.01757 0.50200 0.89744
 H2428 H 0.07916 0.50585 0.93184
 H2429 H 0.05861 0.51275 0.83619
 H2430 H 0.03697 0.49673 0.86304
 H2431 H 0.10697 0.47481 0.87096
 H2432 H 0.09866 0.50154 0.89727
 C2433 C 0.08149 0.50920 0.64347
 C2434 C 0.07355 0.50052 0.66322
 C2435 C 0.08415 0.50488 0.68300
 C2436 C 0.10320 0.51775 0.68359
 C2437 C 0.11128 0.52629 0.66383
 C2438 C 0.10049 0.52217 0.64403
 C2439 C 0.06976 0.50506 0.62247
 C2440 C 0.08137 0.50261 0.60273
 C2441 C 0.07028 0.49968 0.58292
 C2442 C 0.04733 0.49883 0.58241
 C2443 C 0.03572 0.50064 0.60217
 C2444 C 0.04679 0.50388 0.62194
 H2445 H 0.07722 0.49832 0.69791
 H2446 H 0.12604 0.53605 0.66360
 H2447 H 0.07969 0.49817 0.56797
 H2448 H 0.01802 0.50028 0.60229
 H2449 H 0.10691 0.52941 0.62921
 H2450 H 0.09906 0.50296 0.60256
 H2451 H 0.05917 0.49023 0.66343
 H2452 H 0.03726 0.50606 0.63672
 C2453 C 0.58225 1.00856 0.14244
 C2454 C 0.57407 0.99991 0.16211
 C2455 C 0.58460 1.00405 0.18199
 C2456 C 0.60381 1.01668 0.18274
 C2457 C 0.61218 1.02509 0.16304
 C2458 C 0.60148 1.02117 0.14316
 C2459 C 0.57053 1.00480 0.12136
 C2460 C 0.58215 1.00231 0.10163
 C2461 C 0.57107 0.99972 0.08175
 C2462 C 0.54811 0.99927 0.08116
 C2463 C 0.53648 1.00120 0.10091
 C2464 C 0.54755 1.00408 0.12073
 H2465 H 0.57746 0.99758 0.19684
 H2466 H 0.62709 1.03462 0.16293
 H2467 H 0.58051 0.99811 0.06682
 H2468 H 0.51878 1.00115 0.10098
 H2469 H 0.60811 1.02836 0.12841
 H2470 H 0.59985 1.00232 0.10151
 H2471 H 0.55952 0.98986 0.16219
 H2472 H 0.53801 1.00634 0.13550
 C2473 C 0.41759 0.48990 0.14334
 C2474 C 0.42244 0.47102 0.15541
 C2475 C 0.41148 0.46667 0.17500
 C2476 C 0.39577 0.48133 0.18305
 C2477 C 0.39090 0.50023 0.17099
 C2478 C 0.40157 0.50437 0.15117
 C2479 C 0.42930 0.49441 0.12264
 C2480 C 0.41766 0.49921 0.10342
 C2481 C 0.42871 0.50213 0.08359
 C2482 C 0.45164 0.50073 0.08273
 C2483 C 0.46329 0.49665 0.10215
 C2484 C 0.45220 0.49332 0.12186
 H2485 H 0.41560 0.45208 0.18411
 H2486 H 0.37879 0.51172 0.17688
 H2487 H 0.41931 0.50531 0.06890
 H2488 H 0.48094 0.49536 0.10198
 H2489 H 0.39762 0.51906 0.14213
 H2490 H 0.39997 0.50006 0.10364
 H2491 H 0.43461 0.45955 0.14959
 H2492 H 0.46151 0.48980 0.13654
 C2493 C -0.08132 -0.00863 0.64485
 C2494 C -0.07557 0.00283 0.66392
 C2495 C -0.08607 -0.00142 0.68376
 C2496 C -0.10287 -0.01726 0.68528
 C2497 C -0.10859 -0.02861 0.66590
 C2498 C -0.09796 -0.02437 0.64608
 C2499 C -0.06976 -0.00444 0.62383
 C2500 C -0.08122 -0.00476 0.60387
 C2501 C -0.07021 -0.00187 0.58405
 C2502 C -0.04748 0.00157 0.58368
 C2503 C -0.03610 0.00253 0.60367
 C2504 C -0.04710 -0.00052 0.62351
 H2505 H -0.08012 0.00727 0.69800
 H2506 H -0.12179 -0.04033 0.66554
 H2507 H -0.07953 -0.00253 0.56896
 H2508 H -0.01858 0.00500 0.60399
 H2509 H -0.10270 -0.03365 0.63172
 H2510 H -0.09874 -0.00728 0.60355
 H2511 H -0.06289 0.01516 0.66354
 H2512 H -0.03772 -0.00043 0.63855
 C2513 C -0.14292 0.91701 1.00721
 C2514 C -0.16157 0.92273 0.99517
 C2515 C -0.18155 0.91240 0.99896
 C2516 C -0.18362 0.89574 1.01487
 C2517 C -0.16462 0.88991 1.02670
 C2518 C -0.14466 0.90041 1.02294
 C2519 C -0.12190 0.92875 1.00379
 C2520 C -0.10186 0.91757 1.00484
 C2521 C -0.08211 0.92885 1.00264
 C2522 C -0.08194 0.95156 0.99920
 C2523 C -0.10199 0.96263 0.99755
 C2524 C -0.12171 0.95139 0.99992
 H2525 H -0.19546 0.91843 0.98990
 H2526 H -0.16467 0.87678 1.03849
 H2527 H -0.06696 0.91978 1.00384
 H2528 H -0.10248 0.98014 0.99507
 H2529 H -0.13062 0.89567 1.03263
 H2530 H -0.10142 0.90008 1.00739
 H2531 H -0.16079 0.93534 0.98280
 H2532 H -0.13682 0.96058 0.99934
 C2533 C 0.35672 0.41713 0.50766
 C2534 C 0.33716 0.42512 0.49865
 C2535 C 0.31728 0.41478 0.50290
 C2536 C 0.31640 0.39592 0.51599
 C2537 C 0.33599 0.38771 0.52478
 C2538 C 0.35589 0.39825 0.52075
 C2539 C 0.37776 0.42880 0.50387
 C2540 C 0.39752 0.41722 0.50186
 C2541 C 0.41734 0.42833 0.49935
 C2542 C 0.41783 0.45127 0.49852
 C2543 C 0.39804 0.46282 0.49990
 C2544 C 0.37829 0.45174 0.50270
 H2545 H 0.30252 0.42182 0.49614
 H2546 H 0.33600 0.37307 0.53468
 H2547 H 0.43231 0.41896 0.49821
 H2548 H 0.39786 0.48051 0.49958
 H2549 H 0.37056 0.39178 0.52823
 H2550 H 0.39771 0.39954 0.50224
 H2551 H 0.33715 0.43940 0.48822
 H2552 H 0.36350 0.46127 0.50459
 C2553 C 0.35663 0.58308 -0.00971
 C2554 C 0.33706 0.57477 -0.00100
 C2555 C 0.31714 0.58513 -0.00503
 C2556 C 0.31622 0.60439 -0.01753
 C2557 C 0.33581 0.61290 -0.02602
 C2558 C 0.35574 0.60231 -0.02227
 C2559 C 0.37773 0.57145 -0.00603
 C2560 C 0.39747 0.58307 -0.00378
 C2561 C 0.41729 0.57200 -0.00098
 C2562 C 0.41780 0.54907 -0.00004
 C2563 C 0.39807 0.53747 -0.00184
 C2564 C 0.37834 0.54849 -0.00498
 H2565 H 0.30241 0.57783 0.00148
 H2566 H 0.33582 0.62784 -0.03547
 H2567 H 0.43222 0.58141 0.00047
 H2568 H 0.39793 0.51978 -0.00148
 H2569 H 0.37039 0.60907 -0.02951
 H2570 H 0.39764 0.60074 -0.00407
 H2571 H 0.33705 0.56023 0.00905
 H2572 H 0.36361 0.53891 -0.00711
 C2573 C -0.14300 0.08313 0.49170
 C2574 C -0.16188 0.07717 0.50325
 C2575 C -0.18177 0.08760 0.49929
 C2576 C -0.18354 0.10458 0.48370
 C2577 C -0.16433 0.11058 0.47232
 C2578 C -0.14446 0.10000 0.47624
 C2579 C -0.12199 0.07151 0.49548
 C2580 C -0.10203 0.08289 0.49513
 C2581 C -0.08225 0.07181 0.49783
 C2582 C -0.08195 0.04908 0.50110
 C2583 C -0.10192 0.03776 0.50195
 C2584 C -0.12169 0.04882 0.49909
 H2585 H -0.19585 0.08143 0.50800
 H2586 H -0.16415 0.12395 0.46079
 H2587 H -0.06717 0.08106 0.49723
 H2588 H -0.10229 0.02023 0.50427
 H2589 H -0.13025 0.10493 0.46691
 H2590 H -0.10168 0.10042 0.49280
 H2591 H -0.16133 0.06433 0.51541
 H2592 H -0.13671 0.03948 0.49913
 C2593 C 0.64331 0.08277 0.50742
 C2594 C 0.64412 0.10172 0.52051
 C2595 C 0.66400 0.11231 0.52455
 C2596 C 0.68361 0.10409 0.51580
 C2597 C 0.68275 0.08516 0.50270
 C2598 C 0.66289 0.07477 0.49843
 C2599 C 0.62229 0.07104 0.50362
 C2600 C 0.62180 0.04809 0.50241
 C2601 C 0.60207 0.03696 0.49955
 C2602 C 0.58226 0.04846 0.49816
 C2603 C 0.58269 0.07140 0.49905
 C2604 C 0.60249 0.08257 0.50162
 H2605 H 0.66396 0.12700 0.53446
 H2606 H 0.69752 0.07811 0.49596
 H2607 H 0.60228 0.01927 0.49918
 H2608 H 0.56771 0.08074 0.49790
 H2609 H 0.66292 0.06044 0.48800
 H2610 H 0.63660 0.03860 0.50430
 H2611 H 0.62944 0.10821 0.52797
 H2612 H 0.60226 0.10024 0.50203
 C2613 C 0.14235 0.58305 1.00600
 C2614 C 0.14398 0.59947 1.02202
 C2615 C 0.16392 0.60985 1.02620
 C2616 C 0.18306 0.60408 1.01455
 C2617 C 0.18111 0.58762 0.99833
 C2618 C 0.16113 0.57739 0.99412
 C2619 C 0.12130 0.57147 1.00214
 C2620 C 0.12099 0.54887 0.99791
 C2621 C 0.10119 0.53775 0.99534
 C2622 C 0.08120 0.54892 0.99712
 C2623 C 0.08150 0.57160 1.00084
 C2624 C 0.10131 0.58275 1.00324
 H2625 H 0.16386 0.62286 1.03819
 H2626 H 0.19511 0.58167 0.98934
 H2627 H 0.10157 0.52026 0.99264
 H2628 H 0.06641 0.58075 1.00213
 H2629 H 0.16045 0.56491 0.98153
 H2630 H 0.13604 0.53960 0.99726
 H2631 H 0.12985 0.60416 1.03161
 H2632 H 0.10096 0.60021 1.00603
 C2633 C 0.14289 0.41715 0.49088
 C2634 C 0.16244 0.42545 0.49970
 C2635 C 0.18233 0.41498 0.49577
 C2636 C 0.18319 0.39571 0.48320
 C2637 C 0.16361 0.38721 0.47463
 C2638 C 0.14373 0.39786 0.47832
 C2639 C 0.12184 0.42884 0.49439
 C2640 C 0.10214 0.41722 0.49676
 C2641 C 0.08231 0.42829 0.49924
 C2642 C 0.08176 0.45124 0.49972
 C2643 C 0.10146 0.46286 0.49784
 C2644 C 0.12123 0.45181 0.49505
 H2645 H 0.19708 0.42222 0.50236
 H2646 H 0.16359 0.37224 0.46514
 H2647 H 0.06740 0.41888 0.50080
 H2648 H 0.10155 0.48055 0.49790
 H2649 H 0.12907 0.39113 0.47100
 H2650 H 0.10201 0.39954 0.49677
 H2651 H 0.16243 0.44005 0.50973
 H2652 H 0.13597 0.46134 0.49285
 C2653 C 0.64336 0.91736 -0.01157
 C2654 C 0.64433 0.89808 -0.02413
 C2655 C 0.66429 0.88752 -0.02775
 C2656 C 0.68380 0.89610 -0.01908
 C2657 C 0.68279 0.91538 -0.00655
 C2658 C 0.66284 0.92575 -0.00269
 C2659 C 0.62224 0.92894 -0.00805
 C2660 C 0.62152 0.95190 -0.00737
 C2661 C 0.60173 0.96286 -0.00440
 C2662 C 0.58208 0.95116 -0.00236
 C2663 C 0.58273 0.92822 -0.00292
 C2664 C 0.60260 0.91723 -0.00559
 H2665 H 0.66439 0.87255 -0.03724
 H2666 H 0.69748 0.92269 0.00011
 H2667 H 0.60177 0.98055 -0.00430
 H2668 H 0.56788 0.91874 -0.00127
 H2669 H 0.66273 0.94036 0.00734
 H2670 H 0.63620 0.96150 -0.00963
 H2671 H 0.62972 0.89128 -0.03147
 H2672 H 0.60255 0.89955 -0.00562
 C2673 C 0.00729 0.85760 0.91827
 C2674 C -0.00427 0.83873 0.92416
 C2675 C -0.00026 0.81884 0.91368
 C2676 C 0.01540 0.81705 0.89670
 C2677 C 0.02678 0.83626 0.89076
 C2678 C 0.02281 0.85613 0.90140
 C2679 C 0.00352 0.87861 0.93003
 C2680 C 0.00406 0.89859 0.91873
 C2681 C 0.00154 0.91835 0.92997
 C2682 C -0.00172 0.91862 0.95278
 C2683 C -0.00287 0.89863 0.96399
 C2684 C -0.00019 0.87888 0.95277
 H2685 H -0.00898 0.80477 0.91981
 H2686 H 0.03837 0.83644 0.87741
 H2687 H 0.00237 0.93345 0.92079
 H2688 H -0.00520 0.89823 0.98157
 H2689 H 0.03215 0.87034 0.89652
 H2690 H 0.00645 0.89897 0.90116
 H2691 H -0.01647 0.83928 0.93700
 H2692 H -0.00040 0.86384 0.96206
 C2693 C 0.50623 0.35664 0.41838
 C2694 C 0.49779 0.33687 0.42644
 C2695 C 0.50210 0.31715 0.41573
 C2696 C 0.51467 0.31666 0.39644
 C2697 C 0.52284 0.33646 0.38817
 C2698 C 0.51878 0.35617 0.39906
 C2699 C 0.50241 0.37753 0.43035
 C2700 C 0.49994 0.39732 0.41893
 C2701 C 0.49756 0.41705 0.43026
 C2702 C 0.49728 0.41744 0.45328
 C2703 C 0.49904 0.39765 0.46471
 C2704 C 0.50174 0.37796 0.45340
 H2705 H 0.49581 0.30223 0.42282
 H2706 H 0.53231 0.33679 0.37320
 H2707 H 0.49606 0.43203 0.42098
 H2708 H 0.49911 0.39743 0.48245
 H2709 H 0.52583 0.37100 0.39251
 H2710 H 0.49988 0.39760 0.40120
 H2711 H 0.48779 0.33657 0.44106
 H2712 H 0.50397 0.36316 0.46281
 C2713 C -0.01073 0.35622 0.58209
 C2714 C -0.02604 0.35477 0.59916
 C2715 C -0.02960 0.33502 0.61007
 C2716 C -0.01795 0.31591 0.60426
 C2717 C -0.00261 0.31763 0.58698
 C2718 C 0.00095 0.33741 0.57619
 C2719 C -0.00707 0.37722 0.57037
 C2720 C -0.00347 0.37751 0.54760
 C2721 C -0.00054 0.39727 0.53652
 C2722 C -0.00128 0.41724 0.54792
 C2723 C -0.00456 0.41693 0.57073
 C2724 C -0.00736 0.39717 0.58181
 H2725 H -0.04101 0.33523 0.62357
 H2726 H 0.00624 0.30359 0.58092
 H2727 H 0.00180 0.39690 0.51894
 H2728 H -0.00509 0.43198 0.58007
 H2729 H 0.01297 0.33794 0.56319
 H2730 H -0.00344 0.36248 0.53822
 H2731 H -0.03548 0.36893 0.60403
 H2732 H -0.00967 0.39754 0.59939
 C2733 C 0.49076 0.85659 0.08088
 C2734 C 0.49958 0.83692 0.07290
 C2735 C 0.49567 0.81722 0.08369
 C2736 C 0.48311 0.81664 0.10299
 C2737 C 0.47443 0.83632 0.11110
 C2738 C 0.47811 0.85602 0.10013
 C2739 C 0.49449 0.87750 0.06902
 C2740 C 0.49682 0.89729 0.08057
 C2741 C 0.49948 0.91700 0.06938
 C2742 C 0.50018 0.91739 0.04637
 C2743 C 0.49842 0.89760 0.03481
 C2744 C 0.49545 0.87793 0.04598
 H2745 H 0.50233 0.80237 0.07672
 H2746 H 0.46492 0.83658 0.12605
 H2747 H 0.50096 0.93197 0.07876
 H2748 H 0.49867 0.89738 0.01706
 H2749 H 0.47076 0.87076 0.10661
 H2750 H 0.49665 0.89757 0.09830
 H2751 H 0.50966 0.83671 0.05833
 H2752 H 0.49334 0.86312 0.03649
 C2753 C 0.51017 0.64422 0.08215
 C2754 C 0.52290 0.64515 0.10135
 C2755 C 0.52651 0.66503 0.11211
 C2756 C 0.51766 0.68454 0.10383
 C2757 C 0.50499 0.68359 0.08461
 C2758 C 0.50116 0.66370 0.07402
 C2759 C 0.50655 0.62312 0.07046
 C2760 C 0.50556 0.62241 0.04743
 C2761 C 0.50256 0.60261 0.03640
 C2762 C 0.50077 0.58296 0.04809
 C2763 C 0.50158 0.58362 0.07110
 C2764 C 0.50429 0.60347 0.08215
 H2765 H 0.53612 0.66507 0.12700
 H2766 H 0.49819 0.69828 0.07753
 H2767 H 0.50224 0.60263 0.01865
 H2768 H 0.50010 0.56877 0.08059
 H2769 H 0.49101 0.66363 0.05949
 H2770 H 0.50763 0.63711 0.03783
 H2771 H 0.53036 0.63054 0.10794
 H2772 H 0.50453 0.60341 0.09988
 C2773 C 0.01001 0.14420 0.58328
 C2774 C 0.02548 0.14596 0.60019
 C2775 C 0.02905 0.16589 0.61089
 C2776 C 0.01726 0.18486 0.60498
 C2777 C 0.00168 0.18280 0.58794
 C2778 C -0.00189 0.16285 0.57738
 C2779 C 0.00651 0.12309 0.57163
 C2780 C 0.00279 0.12263 0.54889
 C2781 C 0.00004 0.10278 0.53784
 C2782 C 0.00109 0.08288 0.54924
 C2783 C 0.00453 0.08335 0.57203
 C2784 C 0.00714 0.10321 0.58309
 H2785 H 0.04061 0.16592 0.62427
 H2786 H -0.00732 0.19671 0.58185
 H2787 H -0.00242 0.10303 0.52027
 H2788 H 0.00529 0.06835 0.58136
 H2789 H -0.01406 0.16207 0.56451
 H2790 H 0.00252 0.13760 0.53949
 H2791 H 0.03507 0.13193 0.60508
 H2792 H 0.00957 0.10298 0.60066
 C2793 C 0.49362 0.14317 0.41819
 C2794 C 0.50199 0.16299 0.42631
 C2795 C 0.49753 0.18267 0.41571
 C2796 C 0.48485 0.18309 0.39647
 C2797 C 0.47671 0.16325 0.38816
 C2798 C 0.48094 0.14356 0.39895
 C2799 C 0.49764 0.12229 0.43002
 C2800 C 0.50021 0.10255 0.41846
 C2801 C 0.50273 0.08281 0.42964
 C2802 C 0.50303 0.08236 0.45265
 C2803 C 0.50121 0.10213 0.46424
 C2804 C 0.49838 0.12182 0.45307
 H2805 H 0.50380 0.19763 0.42281
 H2806 H 0.46715 0.16287 0.37324
 H2807 H 0.50428 0.06786 0.42024
 H2808 H 0.50116 0.10230 0.48198
 H2809 H 0.47393 0.12870 0.39236
 H2810 H 0.50023 0.10231 0.40072
 H2811 H 0.51207 0.16334 0.44089
 H2812 H 0.49610 0.13660 0.46258
 C2813 C -0.00840 0.64430 0.91835
 C2814 C 0.00303 0.66323 0.92441
 C2815 C -0.00100 0.68310 0.91396
 C2816 C -0.01658 0.68478 0.89688
 C2817 C -0.02788 0.66553 0.89083
 C2818 C -0.02387 0.64570 0.90142
 C2819 C -0.00449 0.62326 0.92990
 C2820 C -0.00484 0.60338 0.91834
 C2821 C -0.00230 0.58355 0.92934
 C2822 C 0.00081 0.58311 0.95216
 C2823 C 0.00184 0.60301 0.96365
 C2824 C -0.00087 0.62284 0.95266
 H2825 H 0.00764 0.69722 0.92016
 H2826 H -0.03941 0.66528 0.87741
 H2827 H -0.00299 0.56853 0.91994
 H2828 H 0.00405 0.60325 0.98126
 H2829 H -0.03313 0.63145 0.89643
 H2830 H -0.00712 0.60311 0.90075
 H2831 H 0.01517 0.66274 0.93732
 H2832 H -0.00078 0.63782 0.96214
 C2833 C 0.25616 0.66908 0.89356
 C2834 C 0.24772 0.67670 0.91358
 C2835 C 0.25233 0.66582 0.93312
 C2836 C 0.26524 0.64680 0.93318
 C2837 C 0.27360 0.63907 0.91317
 C2838 C 0.26920 0.65013 0.89362
 C2839 C 0.25172 0.68105 0.87281
 C2840 C 0.25054 0.70402 0.87261
 C2841 C 0.24733 0.71532 0.85300
 C2842 C 0.24552 0.70395 0.83306
 C2843 C 0.24618 0.68100 0.83328
 C2844 C 0.24910 0.66969 0.85292
 H2845 H 0.24591 0.67249 0.94824
 H2846 H 0.28339 0.62436 0.91253
 H2847 H 0.24711 0.73301 0.85335
 H2848 H 0.24466 0.67176 0.81820
 H2849 H 0.27629 0.64396 0.87859
 H2850 H 0.25281 0.71337 0.88751
 H2851 H 0.23740 0.69105 0.91419
 H2852 H 0.24940 0.65201 0.85249
 C2853 C 0.75857 0.16803 0.39376
 C2854 C 0.77109 0.14876 0.39422
 C2855 C 0.77503 0.13790 0.41396
 C2856 C 0.76674 0.14618 0.43379
 C2857 C 0.75425 0.16545 0.43332
 C2858 C 0.75009 0.17615 0.41358
 C2859 C 0.75471 0.17983 0.37281
 C2860 C 0.75415 0.20281 0.37232
 C2861 C 0.75120 0.21393 0.35257
 C2862 C 0.74904 0.20237 0.33278
 C2863 C 0.74929 0.17941 0.33326
 C2864 C 0.75195 0.16828 0.35304
 H2865 H 0.78444 0.12294 0.41364
 H2866 H 0.74785 0.17248 0.44830
 H2867 H 0.75129 0.23162 0.35273
 H2868 H 0.74749 0.17002 0.31830
 H2869 H 0.74012 0.19075 0.41386
 H2870 H 0.75658 0.21229 0.38711
 H2871 H 0.77816 0.14218 0.37935
 H2872 H 0.75182 0.15060 0.35283
 C2873 C 0.24176 0.33181 0.39322
 C2874 C 0.22917 0.35103 0.39370
 C2875 C 0.22535 0.36202 0.41344
 C2876 C 0.23382 0.35392 0.43322
 C2877 C 0.24642 0.33471 0.43272
 C2878 C 0.25047 0.32389 0.41297
 C2879 C 0.24542 0.31981 0.37230
 C2880 C 0.24599 0.29683 0.37193
 C2881 C 0.24875 0.28552 0.35222
 C2882 C 0.25070 0.29689 0.33237
 C2883 C 0.25042 0.31985 0.33271
 C2884 C 0.24796 0.33117 0.35246
 H2885 H 0.21583 0.37691 0.41315
 H2886 H 0.25294 0.32778 0.44766
 H2887 H 0.24867 0.26783 0.35246
 H2888 H 0.25207 0.32908 0.31769
 H2889 H 0.26050 0.30933 0.41322
 H2890 H 0.24371 0.28750 0.38679
 H2891 H 0.22194 0.35746 0.37886
 H2892 H 0.24808 0.34885 0.35216
 C2893 C 0.74415 0.83245 0.89160
 C2894 C 0.73122 0.85145 0.89188
 C2895 C 0.72690 0.86238 0.91156
 C2896 C 0.73521 0.85444 0.93149
 C2897 C 0.74813 0.83543 0.93117
 C2898 C 0.75268 0.82470 0.91150
 C2899 C 0.74827 0.82043 0.87076
 C2900 C 0.74926 0.79746 0.87052
 C2901 C 0.75221 0.78608 0.85088
 C2902 C 0.75391 0.79736 0.83095
 C2903 C 0.75335 0.82031 0.83117
 C2904 C 0.75071 0.83172 0.85086
 H2905 H 0.71714 0.87711 0.91112
 H2906 H 0.75453 0.82860 0.94620
 H2907 H 0.75235 0.76839 0.85123
 H2908 H 0.75478 0.82948 0.81608
 H2909 H 0.76296 0.81032 0.91192
 H2910 H 0.74708 0.78817 0.88541
 H2911 H 0.72409 0.85774 0.87694
 H2912 H 0.75051 0.84939 0.85046
 C2913 C 0.75675 0.83407 0.10498
 C2914 C 0.74818 0.82599 0.08518
 C2915 C 0.75269 0.83641 0.06538
 C2916 C 0.76559 0.85543 0.06482
 C2917 C 0.77389 0.86374 0.08464
 C2918 C 0.76963 0.85312 0.10445
 C2919 C 0.75276 0.82235 0.12596
 C2920 C 0.75047 0.83391 0.14577
 C2921 C 0.74800 0.82278 0.16559
 C2922 C 0.74745 0.79983 0.16602
 C2923 C 0.74899 0.78828 0.14618
 C2924 C 0.75178 0.79938 0.12642
 H2925 H 0.74627 0.82933 0.05043
 H2926 H 0.78360 0.87852 0.08491
 H2927 H 0.74669 0.83214 0.18061
 H2928 H 0.74886 0.77059 0.14598
 H2929 H 0.77678 0.85967 0.11930
 H2930 H 0.75065 0.85159 0.14602
 H2931 H 0.73793 0.81158 0.08493
 H2932 H 0.75386 0.78988 0.11159
 C2933 C 0.25639 0.33462 0.60711
 C2934 C 0.24771 0.32645 0.58740
 C2935 C 0.25224 0.33667 0.56751
 C2936 C 0.26526 0.35560 0.56675
 C2937 C 0.27373 0.36398 0.58648
 C2938 C 0.26944 0.35355 0.60640
 C2939 C 0.25234 0.32306 0.62817
 C2940 C 0.25006 0.33474 0.64792
 C2941 C 0.24739 0.32372 0.66778
 C2942 C 0.24665 0.30078 0.66832
 C2943 C 0.24823 0.28913 0.64853
 C2944 C 0.25120 0.30011 0.62874
 H2945 H 0.24573 0.32949 0.55265
 H2946 H 0.28358 0.37867 0.58658
 H2947 H 0.24610 0.33316 0.68275
 H2948 H 0.24799 0.27143 0.64840
 H2949 H 0.27667 0.36016 0.62118
 H2950 H 0.25041 0.35242 0.64807
 H2951 H 0.23733 0.31213 0.58730
 H2952 H 0.25329 0.29051 0.61397
 C2953 C 0.74343 0.16545 0.60743
 C2954 C 0.73025 0.14661 0.60652
 C2955 C 0.72600 0.13621 0.58652
 C2956 C 0.73462 0.14453 0.56689
 C2957 C 0.74774 0.16338 0.56783
 C2958 C 0.75225 0.17357 0.58781
 C2959 C 0.74751 0.17694 0.62860
 C2960 C 0.74897 0.19988 0.62934
 C2961 C 0.75201 0.21079 0.64923
 C2962 C 0.75333 0.19909 0.66895
 C2963 C 0.75224 0.17616 0.66825
 C2964 C 0.74952 0.16521 0.64829
 H2965 H 0.71606 0.12158 0.58650
 H2966 H 0.75438 0.17052 0.55305
 H2967 H 0.75251 0.22848 0.64923
 H2968 H 0.75334 0.16668 0.68317
 H2969 H 0.76273 0.18782 0.58783
 H2970 H 0.74709 0.20953 0.61463
 H2971 H 0.72290 0.14005 0.62123
 H2972 H 0.74894 0.14754 0.64833
 C2973 C 0.24104 0.66514 0.10641
 C2974 C 0.22843 0.64592 0.10548
 C2975 C 0.22457 0.63540 0.08547
 C2976 C 0.23303 0.64396 0.06587
 C2977 C 0.24566 0.66314 0.06685
 C2978 C 0.24975 0.67348 0.08684
 C2979 C 0.24470 0.67673 0.12759
 C2980 C 0.24538 0.69969 0.12835
 C2981 C 0.24833 0.71067 0.14822
 C2982 C 0.25037 0.69898 0.16789
 C2983 C 0.24988 0.67603 0.16718
 C2984 C 0.24722 0.66503 0.14724
 H2985 H 0.21504 0.62050 0.08540
 H2986 H 0.25220 0.67039 0.05208
 H2987 H 0.24839 0.72836 0.14822
 H2988 H 0.25154 0.66656 0.18204
 H2989 H 0.25982 0.68802 0.08692
 H2990 H 0.24309 0.70929 0.11366
 H2991 H 0.22121 0.63916 0.12016
 H2992 H 0.24720 0.64735 0.14725
 C2993 C 0.16577 0.60876 0.74265
 C2994 C 0.14674 0.60793 0.72971
 C2995 C 0.13618 0.58804 0.72564
 C2996 C 0.14453 0.56844 0.73421
 C2997 C 0.16356 0.56931 0.74713
 C2998 C 0.17390 0.58918 0.75146
 C2999 C 0.17743 0.62980 0.74651
 C3000 C 0.20040 0.63036 0.74771
 C3001 C 0.21146 0.65011 0.75064
 C3002 C 0.19988 0.66986 0.75210
 C3003 C 0.17693 0.66935 0.75120
 C3004 C 0.16583 0.64954 0.74860
 H3005 H 0.12141 0.58808 0.71588
 H3006 H 0.17072 0.55456 0.75373
 H3007 H 0.22916 0.64997 0.75100
 H3008 H 0.16754 0.68431 0.75242
 H3009 H 0.18829 0.58916 0.76178
 H3010 H 0.20996 0.61561 0.74575
 H3011 H 0.14014 0.62260 0.72238
 H3012 H 0.14814 0.64971 0.74822
 C3013 C 0.66706 0.10750 0.24099
 C3014 C 0.67505 0.08794 0.24996
 C3015 C 0.66447 0.06813 0.24593
 C3016 C 0.64536 0.06732 0.23311
 C3017 C 0.63717 0.08691 0.22437
 C3018 C 0.64795 0.10672 0.22816
 C3019 C 0.67884 0.12850 0.24467
 C3020 C 0.66730 0.14828 0.24675
 C3021 C 0.67846 0.16805 0.24936
 C3022 C 0.70141 0.16850 0.25027
 C3023 C 0.71295 0.14872 0.24873
 C3024 C 0.70182 0.12900 0.24580
 H3025 H 0.67149 0.05337 0.25265
 H3026 H 0.62235 0.08700 0.21469
 H3027 H 0.66910 0.18302 0.25067
 H3028 H 0.73064 0.14854 0.24913
 H3029 H 0.64145 0.12138 0.22071
 H3030 H 0.64961 0.14851 0.24643
 H3031 H 0.68951 0.08789 0.26019
 H3032 H 0.71131 0.11421 0.24385
 C3033 C 0.83345 0.10465 0.75913
 C3034 C 0.85238 0.10399 0.77224
 C3035 C 0.86301 0.08419 0.77639
 C3036 C 0.85486 0.06449 0.76774
 C3037 C 0.83594 0.06517 0.75465
 C3038 C 0.82549 0.08497 0.75026
 C3039 C 0.82174 0.12563 0.75515
 C3040 C 0.79878 0.12613 0.75381
 C3041 C 0.78768 0.14584 0.75085
 C3042 C 0.79922 0.16564 0.74947
 C3043 C 0.82217 0.16518 0.75045
 C3044 C 0.83331 0.14540 0.75312
 H3045 H 0.87771 0.08437 0.78627
 H3046 H 0.82897 0.05033 0.74795
 H3047 H 0.76998 0.14564 0.75041
 H3048 H 0.83155 0.18015 0.74931
 H3049 H 0.81119 0.08481 0.73983
 H3050 H 0.78925 0.11135 0.75570
 H3051 H 0.85884 0.11874 0.77962
 H3052 H 0.85099 0.14564 0.75360
 C3053 C 0.33375 0.60468 0.25861
 C3054 C 0.35283 0.60389 0.27148
 C3055 C 0.36362 0.58408 0.27512
 C3056 C 0.35548 0.56450 0.26619
 C3057 C 0.33643 0.56533 0.25329
 C3058 C 0.32583 0.58514 0.24941
 C3059 C 0.32188 0.62566 0.25517
 C3060 C 0.29890 0.62604 0.25401
 C3061 C 0.28768 0.64572 0.25129
 C3062 C 0.29911 0.66557 0.25000
 C3063 C 0.32207 0.66525 0.25096
 C3064 C 0.33332 0.64552 0.25336
 H3065 H 0.37840 0.58416 0.28488
 H3066 H 0.32944 0.55058 0.24641
 H3067 H 0.26998 0.64543 0.25085
 H3068 H 0.33136 0.68027 0.24985
 H3069 H 0.31141 0.58510 0.23912
 H3070 H 0.28947 0.61118 0.25576
 H3071 H 0.35927 0.61853 0.27909
 H3072 H 0.35101 0.64585 0.25373
 C3073 C 0.33356 0.39096 0.24139
 C3074 C 0.32558 0.41049 0.25051
 C3075 C 0.33619 0.43032 0.24666
 C3076 C 0.35526 0.43113 0.23383
 C3077 C 0.36348 0.41155 0.22500
 C3078 C 0.35270 0.39174 0.22864
 C3079 C 0.32169 0.36998 0.24474
 C3080 C 0.33315 0.35018 0.24685
 C3081 C 0.32191 0.33043 0.24916
 C3082 C 0.29894 0.33003 0.24967
 C3083 C 0.28748 0.34984 0.24804
 C3084 C 0.29870 0.36954 0.24546
 H3085 H 0.32917 0.44507 0.25346
 H3086 H 0.37828 0.41149 0.21529
 H3087 H 0.33122 0.31546 0.25054
 H3088 H 0.26978 0.35008 0.24817
 H3089 H 0.35919 0.37709 0.22111
 H3090 H 0.35084 0.34992 0.24681
 H3091 H 0.31109 0.41051 0.26069
 H3092 H 0.28929 0.38438 0.24348
 C3093 C 0.83442 0.89168 0.74217
 C3094 C 0.82623 0.91123 0.75108
 C3095 C 0.83670 0.93111 0.74715
 C3096 C 0.85589 0.93200 0.73450
 C3097 C 0.86431 0.91242 0.72587
 C3098 C 0.85365 0.89254 0.72955
 C3099 C 0.82264 0.87062 0.74560
 C3100 C 0.83416 0.85082 0.74758
 C3101 C 0.82298 0.83102 0.74982
 C3102 C 0.80002 0.83057 0.75046
 C3103 C 0.78851 0.85036 0.74906
 C3104 C 0.79966 0.87011 0.74649
 H3105 H 0.82952 0.94585 0.75382
 H3106 H 0.87923 0.91238 0.71635
 H3107 H 0.83231 0.81604 0.75100
 H3108 H 0.77081 0.85056 0.74923
 H3109 H 0.86031 0.87790 0.72216
 H3110 H 0.85185 0.85059 0.74742
 H3111 H 0.81169 0.91123 0.76119
 H3112 H 0.79017 0.88490 0.74459
 C3113 C 0.66811 0.89504 0.25730
 C3114 C 0.67599 0.91477 0.24861
 C3115 C 0.66537 0.93448 0.25300
 C3116 C 0.64634 0.93502 0.26592
 C3117 C 0.63829 0.91528 0.27444
 C3118 C 0.64911 0.89556 0.27029
 C3119 C 0.67991 0.87412 0.25319
 C3120 C 0.66839 0.85433 0.25095
 C3121 C 0.67957 0.83460 0.24817
 C3122 C 0.70252 0.83420 0.24725
 C3123 C 0.71403 0.85400 0.24880
 C3124 C 0.70288 0.87368 0.25190
 H3125 H 0.67226 0.94937 0.24642
 H3126 H 0.62352 0.91499 0.28419
 H3127 H 0.67023 0.81961 0.24687
 H3128 H 0.73173 0.85421 0.24840
 H3129 H 0.64271 0.88077 0.27755
 H3130 H 0.65071 0.85405 0.25137
 H3131 H 0.69036 0.91503 0.23828
 H3132 H 0.71236 0.88848 0.25392
 C3133 C 0.16723 0.39533 0.75815
 C3134 C 0.17518 0.41499 0.74937
 C3135 C 0.16455 0.43474 0.75356
 C3136 C 0.14542 0.43537 0.76633
 C3137 C 0.13729 0.41569 0.77490
 C3138 C 0.14812 0.39594 0.77097
 C3139 C 0.17911 0.37440 0.75433
 C3140 C 0.16767 0.35457 0.75215
 C3141 C 0.17894 0.33485 0.74957
 C3142 C 0.20190 0.33454 0.74880
 C3143 C 0.21332 0.35438 0.75034
 C3144 C 0.20209 0.37404 0.75324
 H3145 H 0.17155 0.44957 0.74697
 H3146 H 0.12246 0.41547 0.78456
 H3147 H 0.16966 0.31983 0.74827
 H3148 H 0.23102 0.35467 0.75006
 H3149 H 0.14166 0.38120 0.77828
 H3150 H 0.14999 0.35423 0.75243
 H3151 H 0.18964 0.41518 0.73915
 H3152 H 0.21151 0.38888 0.75526
 C3153 C 0.10533 0.75888 0.83296
 C3154 C 0.08554 0.75036 0.82491
 C3155 C 0.06584 0.75464 0.83564
 C3156 C 0.06537 0.76729 0.85491
 C3157 C 0.08517 0.77565 0.86310
 C3158 C 0.10488 0.77159 0.85221
 C3159 C 0.12625 0.75489 0.82111
 C3160 C 0.12676 0.75409 0.79806
 C3161 C 0.14649 0.75122 0.78688
 C3162 C 0.16625 0.74936 0.79845
 C3163 C 0.16576 0.74972 0.82147
 C3164 C 0.14599 0.75231 0.83266
 H3165 H 0.05090 0.74819 0.82865
 H3166 H 0.08550 0.78520 0.87805
 H3167 H 0.14633 0.75123 0.76914
 H3168 H 0.18070 0.74817 0.83087
 H3169 H 0.11972 0.77870 0.85874
 H3170 H 0.11198 0.75636 0.78857
 H3171 H 0.08524 0.74026 0.81033
 H3172 H 0.14620 0.75234 0.85039
 C3173 C 0.60560 0.25990 0.33197
 C3174 C 0.60491 0.27252 0.35127
 C3175 C 0.58514 0.27613 0.36218
 C3176 C 0.56552 0.26738 0.35396
 C3177 C 0.56622 0.25486 0.33462
 C3178 C 0.58599 0.25105 0.32386
 C3179 C 0.62661 0.25622 0.32021
 C3180 C 0.62724 0.25546 0.29717
 C3181 C 0.64704 0.25256 0.28611
 C3182 C 0.66671 0.25064 0.29782
 C3183 C 0.66609 0.25111 0.32083
 C3184 C 0.64627 0.25372 0.33189
 H3185 H 0.58528 0.28562 0.37716
 H3186 H 0.55141 0.24815 0.32759
 H3187 H 0.64700 0.25247 0.26837
 H3188 H 0.68096 0.24949 0.33033
 H3189 H 0.58590 0.24101 0.30923
 H3190 H 0.61251 0.25767 0.28760
 H3191 H 0.61962 0.27989 0.35783
 H3192 H 0.64638 0.25374 0.34963
 C3193 C 0.60731 0.74497 0.16694
 C3194 C 0.58753 0.75331 0.17514
 C3195 C 0.56775 0.74874 0.16465
 C3196 C 0.56720 0.73596 0.14547
 C3197 C 0.58700 0.72782 0.13709
 C3198 C 0.60678 0.73218 0.14775
 C3199 C 0.62830 0.74914 0.17864
 C3200 C 0.64793 0.75179 0.16695
 C3201 C 0.66777 0.75445 0.17802
 C3202 C 0.66843 0.75480 0.20103
 C3203 C 0.64876 0.75290 0.21273
 C3204 C 0.62896 0.74996 0.20168
 H3205 H 0.55283 0.75502 0.17181
 H3206 H 0.58727 0.71817 0.12221
 H3207 H 0.68265 0.75603 0.16853
 H3208 H 0.64874 0.75288 0.23047
 H3209 H 0.62163 0.72519 0.14111
 H3210 H 0.64801 0.75174 0.14922
 H3211 H 0.58728 0.76347 0.18968
 H3212 H 0.61427 0.74763 0.21127
 C3213 C 0.10631 0.24461 0.66849
 C3214 C 0.08645 0.25286 0.67662
 C3215 C 0.06673 0.24830 0.66598
 C3216 C 0.06632 0.23561 0.64673
 C3217 C 0.08619 0.22757 0.63844
 C3218 C 0.10590 0.23190 0.64924
 C3219 C 0.12726 0.24882 0.68027
 C3220 C 0.14693 0.25145 0.66864
 C3221 C 0.16675 0.25410 0.67976
 C3222 C 0.16736 0.25450 0.70277
 C3223 C 0.14766 0.25265 0.71442
 C3224 C 0.12787 0.24969 0.70332
 H3225 H 0.05174 0.25453 0.67305
 H3226 H 0.08658 0.21803 0.62349
 H3227 H 0.18165 0.25566 0.67030
 H3228 H 0.14761 0.25268 0.73216
 H3229 H 0.12079 0.22498 0.64264
 H3230 H 0.14707 0.25138 0.65091
 H3231 H 0.08610 0.26296 0.69120
 H3232 H 0.11316 0.24739 0.71288
 C3233 C 0.89414 0.25657 0.66980
 C3234 C 0.91420 0.24874 0.67783
 C3235 C 0.93374 0.25346 0.66698
 C3236 C 0.93378 0.26588 0.64760
 C3237 C 0.91371 0.27360 0.63948
 C3238 C 0.89417 0.26911 0.65050
 C3239 C 0.87333 0.25199 0.68169
 C3240 C 0.85366 0.24887 0.67014
 C3241 C 0.83396 0.24583 0.68133
 C3242 C 0.83347 0.24550 0.70435
 C3243 C 0.85319 0.24781 0.71592
 C3244 C 0.87285 0.25117 0.70474
 H3245 H 0.94888 0.24751 0.67393
 H3246 H 0.91303 0.28294 0.62447
 H3247 H 0.81906 0.24391 0.67193
 H3248 H 0.85332 0.24787 0.73367
 H3249 H 0.87912 0.27573 0.64398
 H3250 H 0.85343 0.24886 0.65241
 H3251 H 0.91485 0.23881 0.69245
 H3252 H 0.88756 0.25382 0.71425
 C3253 C 0.39389 0.75799 0.16793
 C3254 C 0.41373 0.74975 0.17608
 C3255 C 0.43341 0.75399 0.16531
 C3256 C 0.43379 0.76633 0.14590
 C3257 C 0.41394 0.77440 0.13761
 C3258 C 0.39426 0.77038 0.14854
 C3259 C 0.37298 0.75396 0.17978
 C3260 C 0.35331 0.75101 0.16819
 C3261 C 0.33357 0.74815 0.17935
 C3262 C 0.33305 0.74789 0.20236
 C3263 C 0.35274 0.75025 0.21397
 C3264 C 0.37244 0.75340 0.20283
 H3265 H 0.44838 0.74779 0.17241
 H3266 H 0.41354 0.78372 0.12256
 H3267 H 0.31869 0.74620 0.16992
 H3268 H 0.35285 0.75034 0.23172
 H3269 H 0.37937 0.77728 0.14192
 H3270 H 0.35313 0.75086 0.15046
 H3271 H 0.41409 0.73989 0.19077
 H3272 H 0.38715 0.75598 0.21234
 C3273 C 0.39348 0.23953 0.33246
 C3274 C 0.39426 0.22687 0.35166
 C3275 C 0.41407 0.22334 0.36255
 C3276 C 0.43364 0.23219 0.35438
 C3277 C 0.43284 0.24477 0.33514
 C3278 C 0.41303 0.24853 0.32444
 C3279 C 0.37246 0.24306 0.32064
 C3280 C 0.37194 0.24398 0.29761
 C3281 C 0.35220 0.24683 0.28646
 C3282 C 0.33244 0.24851 0.29804
 C3283 C 0.33292 0.24781 0.32105
 C3284 C 0.35271 0.24527 0.33222
 H3285 H 0.41400 0.21380 0.37745
 H3286 H 0.44759 0.25156 0.32813
 H3287 H 0.35235 0.24707 0.26872
 H3288 H 0.31797 0.24922 0.33046
 H3289 H 0.41306 0.25862 0.30990
 H3290 H 0.38673 0.24195 0.28809
 H3291 H 0.37961 0.21940 0.35817
 H3292 H 0.35250 0.24510 0.34995
 C3293 C 0.89377 0.74233 0.83242
 C3294 C 0.89413 0.72982 0.85173
 C3295 C 0.91378 0.72589 0.86277
 C3296 C 0.93362 0.73417 0.85466
 C3297 C 0.93324 0.74664 0.83533
 C3298 C 0.91359 0.75079 0.82446
 C3299 C 0.87291 0.74617 0.82038
 C3300 C 0.87257 0.74674 0.79733
 C3301 C 0.85292 0.74949 0.78598
 C3302 C 0.83307 0.75144 0.79738
 C3303 C 0.83340 0.75128 0.82040
 C3304 C 0.85310 0.74882 0.83176
 H3305 H 0.91338 0.71648 0.87776
 H3306 H 0.94822 0.75303 0.82840
 H3307 H 0.85320 0.74931 0.76824
 H3308 H 0.81839 0.75291 0.82967
 H3309 H 0.91397 0.76075 0.80983
 H3310 H 0.88741 0.74439 0.78796
 H3311 H 0.87925 0.72276 0.85820
 H3312 H 0.85276 0.74895 0.84949
   
