data_POSCAR
  _audit_creation_date              2014-09-24
  _audit_creation_method            'ToBaCCo'
  _symmetry_space_group_name_H-M    'P1'
  _symmetry_Int_Tables_number       1
  _symmetry_cell_setting            triclinic
  loop_
  _symmetry_equiv_pos_as_xyz
 x,y,z
_cell_length_a 64.4672
_cell_length_b 64.7538
_cell_length_c 64.8455
_cell_angle_alpha 90.297600
_cell_angle_beta 89.833400
_cell_angle_gamma 90.155200
loop_
  _atom_site_label
  _atom_site_type_symbol
  _atom_site_fract_x
  _atom_site_fract_y
  _atom_site_fract_z
N1 N 0.17333 0.22594 0.22629
 N2 N 0.17782 0.21004 0.23796
 C3 C 0.16335 0.20836 0.25288
 C4 C 0.14912 0.22414 0.25053
 C5 C 0.15600 0.23503 0.23351
 H6 H 0.16314 0.19653 0.26458
 H7 H 0.14861 0.24822 0.22653
 Cu8 Cu 0.20188 0.19278 0.23242
 Cu9 Cu 0.18962 0.23299 0.20203
 Cu10 Cu 0.23150 0.20159 0.19043
 N11 N 0.22511 0.17502 0.22520
 N12 N 0.23640 0.17832 0.20863
 C13 C 0.25076 0.16336 0.20690
 C14 C 0.24844 0.14998 0.22334
 C15 C 0.23202 0.15791 0.23466
 H16 H 0.26209 0.16232 0.19462
 H17 H 0.22529 0.15138 0.24846
 N18 N 0.22407 0.22588 0.17388
 N19 N 0.20792 0.23765 0.17814
 C20 C 0.20643 0.25241 0.16367
 C21 C 0.22249 0.24992 0.14969
 C22 C 0.23339 0.23298 0.15669
 H23 H 0.19459 0.26418 0.16335
 H24 H 0.24683 0.22605 0.14948
 H25 H 0.20000 0.20323 0.19640
 H26 H 0.21729 0.22045 0.21198
 N27 N 0.67643 0.72954 0.72950
 N28 N 0.68054 0.71318 0.74065
 C29 C 0.66512 0.71032 0.75439
 C30 C 0.65066 0.72589 0.75186
 C31 C 0.65841 0.73784 0.73593
 H32 H 0.66468 0.69805 0.76564
 H33 H 0.65140 0.75142 0.72931
 Cu34 Cu 0.70606 0.69772 0.73672
 Cu35 Cu 0.69488 0.73894 0.70769
 Cu36 Cu 0.73213 0.70352 0.69211
 N37 N 0.72691 0.67797 0.72785
 N38 N 0.73668 0.68005 0.71017
 C39 C 0.74977 0.66411 0.70755
 C40 C 0.74818 0.65131 0.72454
 C41 C 0.73351 0.66065 0.73714
 H42 H 0.75990 0.66214 0.69438
 H43 H 0.72777 0.65509 0.75178
 N44 N 0.72531 0.72840 0.67615
 N45 N 0.71103 0.74178 0.68203
 C46 C 0.70957 0.75671 0.66773
 C47 C 0.72380 0.75266 0.65223
 C48 C 0.73354 0.73464 0.65811
 H49 H 0.69899 0.76961 0.66856
 H50 H 0.74546 0.72649 0.64964
 H51 H 0.70166 0.70871 0.70125
 H52 H 0.72253 0.72371 0.71443
 N53 N 0.32326 0.77249 0.72874
 N54 N 0.31704 0.78679 0.74180
 C55 C 0.33110 0.78867 0.75703
 C56 C 0.34685 0.77459 0.75341
 C57 C 0.34131 0.76457 0.73535
 H58 H 0.32992 0.79942 0.76979
 H59 H 0.35002 0.75272 0.72735
 Cu60 Cu 0.29135 0.80178 0.73759
 Cu61 Cu 0.30788 0.76558 0.70386
 Cu62 Cu 0.26294 0.79337 0.69510
 N63 N 0.27060 0.82146 0.72854
 N64 N 0.26005 0.81843 0.71150
 C65 C 0.24706 0.83436 0.70864
 C66 C 0.24940 0.84823 0.72492
 C67 C 0.26455 0.83938 0.73727
 H68 H 0.23637 0.83535 0.69589
 H69 H 0.27100 0.84554 0.75139
 N70 N 0.27261 0.77117 0.67664
 N71 N 0.28997 0.76090 0.67968
 C72 C 0.29261 0.74729 0.66413
 C73 C 0.27608 0.74902 0.65068
 C74 C 0.26369 0.76432 0.65914
 H75 H 0.30549 0.73671 0.66281
 H76 H 0.24946 0.77033 0.65281
 H77 H 0.29413 0.79435 0.70091
 H78 H 0.27930 0.77384 0.71469
 N79 N 0.82523 0.27335 0.22383
 N80 N 0.82153 0.29027 0.23446
 C81 C 0.83593 0.29224 0.24935
 C82 C 0.84935 0.27551 0.24818
 C83 C 0.84188 0.26379 0.23178
 H84 H 0.83645 0.30488 0.26027
 H85 H 0.84845 0.24977 0.22550
 Cu86 Cu 0.79831 0.30810 0.22772
 Cu87 Cu 0.80918 0.26582 0.19949
 Cu88 Cu 0.76831 0.29796 0.18657
 N89 N 0.77500 0.32570 0.22066
 N90 N 0.76365 0.32191 0.20426
 C91 C 0.74923 0.33678 0.20242
 C92 C 0.75154 0.35054 0.21864
 C93 C 0.76801 0.34300 0.22995
 H94 H 0.73781 0.33745 0.19026
 H95 H 0.77468 0.34990 0.24363
 N96 N 0.77549 0.27297 0.17064
 N97 N 0.79120 0.26088 0.17541
 C98 C 0.79268 0.24575 0.16115
 C99 C 0.77707 0.24834 0.14681
 C100 C 0.76644 0.26570 0.15336
 H101 H 0.80428 0.23373 0.16115
 H102 H 0.75343 0.27284 0.14573
 H103 H 0.79975 0.29540 0.19228
 H104 H 0.78194 0.27982 0.20882
 N105 N 0.82596 0.72639 0.27434
 N106 N 0.82156 0.71005 0.26304
 C107 C 0.83584 0.70821 0.24795
 C108 C 0.84988 0.72433 0.24981
 C109 C 0.84306 0.73560 0.26671
 H110 H 0.83606 0.69605 0.23647
 H111 H 0.85035 0.74913 0.27335
 Cu112 Cu 0.79785 0.69262 0.26960
 Cu113 Cu 0.80988 0.73387 0.29875
 Cu114 Cu 0.76765 0.70269 0.31063
 N115 N 0.77404 0.67532 0.27613
 N116 N 0.76249 0.67918 0.29243
 C117 C 0.74775 0.66452 0.29403
 C118 C 0.75009 0.65076 0.27778
 C119 C 0.76691 0.65814 0.26670
 H120 H 0.73618 0.66392 0.30612
 H121 H 0.77377 0.65116 0.25314
 N122 N 0.77544 0.72717 0.32711
 N123 N 0.79169 0.73883 0.32278
 C124 C 0.79343 0.75368 0.33730
 C125 C 0.77743 0.75134 0.35138
 C126 C 0.76631 0.73442 0.34438
 H127 H 0.80543 0.76536 0.33763
 H128 H 0.75288 0.72757 0.35169
 H129 H 0.79923 0.70448 0.30531
 H130 H 0.78227 0.72096 0.28898
 N131 N 0.32684 0.22588 -0.22611
 N132 N 0.32446 0.20795 -0.23537
 C133 C 0.33877 0.20610 -0.25041
 C134 C 0.35084 0.22392 -0.25073
 C135 C 0.34261 0.23616 -0.23507
 H136 H 0.34015 0.19273 -0.26035
 H137 H 0.34807 0.25111 -0.22995
 Cu138 Cu 0.30319 0.18843 -0.22685
 Cu139 Cu 0.31046 0.23376 -0.20209
 Cu140 Cu 0.26937 0.20182 -0.18933
 N141 N 0.27800 0.17269 -0.22171
 N142 N 0.26510 0.17769 -0.20679
 C143 C 0.24970 0.16364 -0.20603
 C144 C 0.25304 0.14912 -0.22141
 C145 C 0.27112 0.15541 -0.23112
 H146 H 0.23700 0.16398 -0.19512
 H147 H 0.27896 0.14768 -0.24373
 N148 N 0.27632 0.22696 -0.17357
 N149 N 0.29216 0.23900 -0.17828
 C150 C 0.29360 0.25417 -0.16407
 C151 C 0.27781 0.25164 -0.14979
 C152 C 0.26712 0.23427 -0.15636
 H153 H 0.30536 0.26610 -0.16399
 H154 H 0.25406 0.22709 -0.14873
 H155 H 0.30118 0.20463 -0.19282
 H156 H 0.28462 0.21778 -0.21244
 N157 N 0.67074 0.27458 -0.22631
 N158 N 0.67300 0.29286 -0.23470
 C159 C 0.65852 0.29532 -0.24937
 C160 C 0.64645 0.27753 -0.25040
 C161 C 0.65487 0.26466 -0.23552
 H162 H 0.65707 0.30907 -0.25861
 H163 H 0.64944 0.24951 -0.23109
 Cu164 Cu 0.69438 0.31203 -0.22565
 Cu165 Cu 0.68746 0.26582 -0.20296
 Cu166 Cu 0.72891 0.29723 -0.18977
 N167 N 0.71979 0.32743 -0.22065
 N168 N 0.73298 0.32190 -0.20630
 C169 C 0.74850 0.33582 -0.20541
 C170 C 0.74494 0.35079 -0.22014
 C171 C 0.72661 0.34491 -0.22958
 H172 H 0.76145 0.33508 -0.19488
 H173 H 0.71856 0.35304 -0.24167
 N174 N 0.72213 0.27162 -0.17495
 N175 N 0.70616 0.25978 -0.17976
 C176 C 0.70489 0.24423 -0.16608
 C177 C 0.72094 0.24632 -0.15208
 C178 C 0.73158 0.26382 -0.15823
 H179 H 0.69306 0.23238 -0.16616
 H180 H 0.74476 0.27077 -0.15060
 H181 H 0.69700 0.29453 -0.19253
 H182 H 0.71310 0.28211 -0.21319
 N183 N 0.17333 0.77482 0.27472
 N184 N 0.18035 0.78774 0.26077
 C185 C 0.16712 0.78805 0.24475
 C186 C 0.15104 0.77445 0.24883
 C187 C 0.15553 0.76628 0.26798
 H188 H 0.16891 0.79764 0.23125
 H189 H 0.14615 0.75553 0.27671
 Cu190 Cu 0.20545 0.80381 0.26523
 Cu191 Cu 0.18674 0.77149 0.30131
 Cu192 Cu 0.23598 0.79257 0.30540
 N193 N 0.22762 0.82228 0.27397
 N194 N 0.23917 0.81817 0.29008
 C195 C 0.25297 0.83355 0.29285
 C196 C 0.25007 0.84816 0.27749
 C197 C 0.23381 0.84032 0.26576
 H198 H 0.26450 0.83370 0.30492
 H199 H 0.22661 0.84733 0.25251
 N200 N 0.22517 0.77184 0.32469
 N201 N 0.20612 0.76443 0.32361
 C202 C 0.20304 0.75127 0.33933
 C203 C 0.22105 0.75033 0.35087
 C204 C 0.23476 0.76357 0.34109
 H205 H 0.18886 0.74274 0.34196
 H206 H 0.25041 0.76730 0.34580
 H207 H 0.20537 0.79795 0.30238
 H208 H 0.21490 0.77500 0.28765
 N209 N 0.47879 0.42910 0.47854
 N210 N 0.46224 0.43331 0.48964
 C211 C 0.45919 0.41805 0.50337
 C212 C 0.47484 0.40361 0.50085
 C213 C 0.48702 0.41120 0.48496
 H214 H 0.44675 0.41770 0.51458
 H215 H 0.50070 0.40414 0.47835
 Cu216 Cu 0.44686 0.45877 0.48568
 Cu217 Cu 0.48852 0.44722 0.45673
 Cu218 Cu 0.45329 0.48432 0.44105
 N219 N 0.42738 0.47977 0.47687
 N220 N 0.42973 0.48935 0.45921
 C221 C 0.41396 0.50263 0.45666
 C222 C 0.40098 0.50138 0.47367
 C223 C 0.41004 0.48669 0.48622
 H224 H 0.41224 0.51266 0.44350
 H225 H 0.40427 0.48116 0.50086
 N226 N 0.47825 0.47704 0.42500
 N227 N 0.49157 0.46285 0.43095
 C228 C 0.50655 0.46096 0.41655
 C229 C 0.50261 0.47482 0.40090
 C230 C 0.48459 0.48480 0.40681
 H231 H 0.51940 0.45030 0.41741
 H232 H 0.47648 0.49654 0.39823
 H233 H 0.47324 0.47488 0.46342
 H234 H 0.45822 0.45403 0.45023
 N235 N -0.02535 -0.07844 0.97394
 N236 N -0.03909 -0.07209 0.98755
 C237 C -0.03977 -0.08555 1.00329
 C238 C -0.02555 -0.10108 0.99939
 C239 C -0.01665 -0.09604 0.98062
 H240 H -0.04997 -0.08427 1.01650
 H241 H -0.00526 -0.10489 0.97210
 Cu242 Cu -0.05555 -0.04745 0.98294
 Cu243 Cu -0.02128 -0.06453 0.94772
 Cu244 Cu -0.04208 -0.01532 0.94476
 N245 N -0.07323 -0.02458 0.97497
 N246 N -0.06806 -0.01217 0.95981
 C247 C -0.08284 0.00229 0.95766
 C248 C -0.09810 -0.00123 0.97231
 C249 C -0.09145 -0.01840 0.98304
 H250 H -0.08233 0.01461 0.94646
 H251 H -0.09939 -0.02597 0.99564
 N252 N -0.02098 -0.02571 0.92538
 N253 N -0.01355 -0.04465 0.92613
 C254 C -0.00010 -0.04736 0.91045
 C255 C 0.00098 -0.02926 0.89919
 C256 C -0.01250 -0.01586 0.90918
 H257 H 0.00844 -0.06144 0.90761
 H258 H -0.01628 -0.00025 0.90474
 H259 H -0.02549 -0.03706 0.96223
 H260 H -0.04778 -0.04595 0.94613
 N261 N 1.02575 0.57569 0.97413
 N262 N 1.04346 0.57276 0.98364
 C263 C 1.04570 0.58722 0.99845
 C264 C 1.02842 0.59985 0.99828
 C265 C 1.01604 0.59202 0.98267
 H266 H 1.05894 0.58850 1.00858
 H267 H 1.00142 0.59819 0.97744
 Cu268 Cu 1.06229 0.55074 0.97563
 Cu269 Cu 1.01746 0.55917 0.95041
 Cu270 Cu 1.04837 0.51729 0.93799
 N271 N 1.07758 0.52542 0.97034
 N272 N 1.07244 0.51267 0.95537
 C273 C 1.08626 0.49713 0.95458
 C274 C 1.10073 0.50022 0.97003
 C275 C 1.09468 0.51830 0.97977
 H276 H 1.08579 0.48449 0.94363
 H277 H 1.10248 0.52597 0.99242
 N278 N 1.02336 0.52458 0.92229
 N279 N 1.01171 0.54069 0.92691
 C280 C 0.99644 0.54219 0.91287
 C281 C 0.99849 0.52620 0.89880
 C282 C 1.01569 0.51530 0.90530
 H283 H 0.98474 0.55411 0.91282
 H284 H 1.02248 0.50198 0.89781
 H285 H 1.03244 0.53300 0.96094
 H286 H 1.04655 0.54901 0.94144
 N287 N 0.52592 0.07633 0.47569
 N288 N 0.54419 0.07457 0.48442
 C289 C 0.54693 0.09032 0.49777
 C290 C 0.52933 0.10253 0.49752
 C291 C 0.51626 0.09310 0.48338
 H292 H 0.56057 0.09258 0.50718
 H293 H 0.50103 0.09821 0.47872
 Cu294 Cu 0.56228 0.05146 0.47794
 Cu295 Cu 0.51611 0.05671 0.45500
 Cu296 Cu 0.55387 0.02396 0.43502
 N297 N 0.57824 0.02673 0.47187
 N298 N 0.57514 0.01622 0.45476
 C299 C 0.58919 0.00096 0.45339
 C300 C 0.60171 0.00179 0.47071
 C301 C 0.59424 0.01833 0.48213
 H302 H 0.59026 -0.00981 0.44063
 H303 H 0.60048 0.02430 0.49643
 N304 N 0.52688 0.02835 0.42168
 N305 N 0.51254 0.04081 0.42923
 C306 C 0.49628 0.04106 0.41623
 C307 C 0.50049 0.02786 0.39990
 C308 C 0.51998 0.02001 0.40392
 H309 H 0.48245 0.05023 0.41843
 H310 H 0.52870 0.00940 0.39435
 H311 H 0.53601 0.03152 0.45951
 H312 H 0.54558 0.05402 0.44430
 N313 N -0.02298 0.07561 0.52362
 N314 N -0.03756 0.06947 0.51085
 C315 C -0.03982 0.08367 0.49593
 C316 C -0.02571 0.09945 0.49944
 C317 C -0.01526 0.09378 0.51712
 H318 H -0.05081 0.08253 0.48340
 H319 H -0.00318 0.10241 0.52489
 Cu320 Cu -0.05224 0.04359 0.51490
 Cu321 Cu -0.01532 0.05979 0.54789
 Cu322 Cu -0.04197 0.01388 0.55579
 N323 N -0.07141 0.02224 0.52389
 N324 N -0.06749 0.01088 0.54013
 C325 C -0.08309 -0.00269 0.54287
 C326 C -0.09759 0.00030 0.52746
 C327 C -0.08963 0.01627 0.51567
 H328 H -0.08360 -0.01412 0.55496
 H329 H -0.09662 0.02315 0.50222
 N330 N -0.01966 0.02370 0.57407
 N331 N -0.00986 0.04141 0.57139
 C332 C 0.00387 0.04406 0.58679
 C333 C 0.00270 0.02719 0.59979
 C334 C -0.01239 0.01460 0.59119
 H335 H 0.01411 0.05721 0.58835
 H336 H -0.01803 0.00009 0.59722
 H337 H -0.02326 0.03152 0.53628
 H338 H -0.04381 0.04511 0.55136
 N339 N 0.47786 0.57430 0.02323
 N340 N 0.46323 0.56843 0.01038
 C341 C 0.46121 0.58274 -0.00446
 C342 C 0.47552 0.59832 -0.00083
 C343 C 0.48584 0.59240 0.01686
 H344 H 0.45025 0.58182 -0.01703
 H345 H 0.49801 0.60082 0.02472
 Cu346 Cu 0.44819 0.54272 0.01424
 Cu347 Cu 0.48524 0.55824 0.04742
 Cu348 Cu 0.45812 0.51253 0.05487
 N349 N 0.42876 0.52151 0.02306
 N350 N 0.43257 0.50997 0.03921
 C351 C 0.41683 0.49655 0.04186
 C352 C 0.40235 0.49982 0.02649
 C353 C 0.41047 0.51579 0.01481
 H354 H 0.41621 0.48502 0.05385
 H355 H 0.40355 0.52284 0.00141
 N356 N 0.48044 0.52199 0.07330
 N357 N 0.49041 0.53963 0.07081
 C358 C 0.50407 0.54205 0.08631
 C359 C 0.50267 0.52510 0.09917
 C360 C 0.48753 0.51269 0.09041
 H361 H 0.51442 0.55510 0.08802
 H362 H 0.48172 0.49820 0.09630
 H363 H 0.47703 0.53018 0.03554
 H364 H 0.45660 0.54383 0.05072
 N365 N 0.52297 -0.07589 0.02482
 N366 N 0.53968 -0.07190 0.01385
 C367 C 0.54172 -0.08644 -0.00093
 C368 C 0.52532 -0.10017 0.00075
 C369 C 0.51368 -0.09294 0.01722
 H370 H 0.55422 -0.08708 -0.01206
 H371 H 0.49990 -0.09998 0.02366
 Cu372 Cu 0.55728 -0.04835 0.02043
 Cu373 Cu 0.51532 -0.05957 0.04901
 Cu374 Cu 0.54709 -0.01789 0.06120
 N375 N 0.57476 -0.02471 0.02698
 N376 N 0.57096 -0.01316 0.04329
 C377 C 0.58580 0.00140 0.04495
 C378 C 0.59956 -0.00102 0.02870
 C379 C 0.59204 -0.01771 0.01757
 H380 H 0.58650 0.01295 0.05703
 H381 H 0.59899 -0.02455 0.00398
 N382 N 0.52219 -0.02522 0.07735
 N383 N 0.51027 -0.04123 0.07287
 C384 C 0.49516 -0.04267 0.08718
 C385 C 0.49758 -0.02673 0.10127
 C386 C 0.51483 -0.01595 0.09451
 H387 H 0.48325 -0.05445 0.08738
 H388 H 0.52184 -0.00267 0.10191
 H389 H 0.52881 -0.03230 0.03933
 H390 H 0.54489 -0.04934 0.05596
 N391 N 1.02384 0.42401 0.52450
 N392 N 1.04048 0.42807 0.51347
 C393 C 1.04232 0.41372 0.49846
 C394 C 1.02586 0.40002 0.50011
 C395 C 1.01444 0.40709 0.51679
 H396 H 1.05466 0.41326 0.48715
 H397 H 1.00062 0.40012 0.52322
 Cu398 Cu 1.05818 0.45158 0.52009
 Cu399 Cu 1.01608 0.44033 0.54860
 Cu400 Cu 1.04729 0.48240 0.56055
 N401 N 1.07529 0.47553 0.52662
 N402 N 1.07110 0.48731 0.54266
 C403 C 1.08562 0.50220 0.54417
 C404 C 1.09964 0.49973 0.52814
 C405 C 1.09255 0.48266 0.51728
 H406 H 1.08591 0.51400 0.55602
 H407 H 1.09974 0.47570 0.50387
 N408 N 1.02250 0.47486 0.57675
 N409 N 1.01081 0.45867 0.57236
 C410 C 0.99570 0.45712 0.58665
 C411 C 0.99788 0.47316 0.60065
 C412 C 1.01500 0.48414 0.59385
 H413 H 0.98394 0.44520 0.58688
 H414 H 1.02181 0.49756 0.60116
 H415 H 1.02941 0.46758 0.53860
 H416 H 1.04555 0.45090 0.55558
 C417 C 0.35023 -0.01854 0.25511
 C418 C 0.36111 -0.00004 0.25237
 C419 C 0.35031 0.01849 0.25001
 C420 C 0.32853 0.01875 0.25035
 C421 C 0.31774 0.00010 0.25355
 C422 C 0.32841 -0.01871 0.25591
 C423 C 0.38391 -0.00001 0.25201
 C424 C 0.39452 -0.00198 0.23326
 C425 C 0.41631 -0.00183 0.23270
 C426 C 0.42728 0.00076 0.25128
 C427 C 0.41679 0.00285 0.27027
 C428 C 0.39498 0.00223 0.27041
 H429 H 0.35890 -0.03278 0.25636
 H430 H 0.35898 0.03271 0.24807
 H431 H 0.38571 -0.00344 0.21912
 H432 H 0.38649 0.00335 0.28480
 H433 H 0.30097 0.00027 0.25410
 H434 H 0.44405 0.00113 0.25094
 C435 C 0.14907 -0.01905 0.74786
 C436 C 0.13823 -0.00044 0.74971
 C437 C 0.14908 0.01821 0.75148
 C438 C 0.17088 0.01846 0.75164
 C439 C 0.18162 -0.00033 0.74939
 C440 C 0.17088 -0.01921 0.74739
 C441 C 0.11542 -0.00046 0.74980
 C442 C 0.10457 -0.00368 0.76823
 C443 C 0.08278 -0.00350 0.76852
 C444 C 0.07203 -0.00010 0.75000
 C445 C 0.08277 0.00305 0.73136
 C446 C 0.10457 0.00288 0.73146
 H447 H 0.14038 -0.03336 0.74691
 H448 H 0.14044 0.03249 0.75266
 H449 H 0.11316 -0.00598 0.78237
 H450 H 0.11317 0.00502 0.71725
 H451 H 0.19839 -0.00023 0.74923
 H452 H 0.05523 0.00006 0.75011
 C453 C 0.64928 0.48070 0.24626
 C454 C 0.63812 0.49897 0.24930
 C455 C 0.64866 0.51773 0.25193
 C456 C 0.67047 0.51841 0.25164
 C457 C 0.68151 0.49996 0.24836
 C458 C 0.67103 0.48110 0.24562
 C459 C 0.61533 0.49852 0.24934
 C460 C 0.60447 0.49601 0.26787
 C461 C 0.58266 0.49540 0.26807
 C462 C 0.57194 0.49761 0.24932
 C463 C 0.58271 0.50046 0.23064
 C464 C 0.60450 0.50072 0.23083
 H465 H 0.64102 0.46627 0.24401
 H466 H 0.63977 0.53178 0.25394
 H467 H 0.61310 0.49479 0.28212
 H468 H 0.61313 0.50250 0.21658
 H469 H 0.69831 0.50008 0.24844
 H470 H 0.55516 0.49723 0.24924
 C471 C 0.84889 0.48159 0.75323
 C472 C 0.85983 0.50005 0.75042
 C473 C 0.84908 0.51862 0.74801
 C474 C 0.82730 0.51893 0.74840
 C475 C 0.81645 0.50030 0.75148
 C476 C 0.82708 0.48150 0.75388
 C477 C 0.88263 0.49998 0.75022
 C478 C 0.89340 0.49787 0.73157
 C479 C 0.91521 0.49767 0.73124
 C480 C 0.92602 0.49991 0.74996
 C481 C 0.91535 0.50218 0.76880
 C482 C 0.89356 0.50204 0.76874
 H483 H 0.85746 0.46731 0.75468
 H484 H 0.85778 0.53283 0.74609
 H485 H 0.88472 0.49657 0.71734
 H486 H 0.88498 0.50337 0.78308
 H487 H 0.79967 0.50047 0.75196
 H488 H 0.94280 0.49988 0.74985
 C489 C 0.25331 0.35374 -0.01739
 C490 C 0.25087 0.36447 0.00123
 C491 C 0.24854 0.35359 0.01969
 C492 C 0.24849 0.33188 0.01970
 C493 C 0.25113 0.32127 0.00087
 C494 C 0.25362 0.33204 -0.01777
 C495 C 0.25064 0.38716 0.00136
 C496 C 0.23195 0.39772 -0.00137
 C497 C 0.23157 0.41942 -0.00173
 C498 C 0.25028 0.43035 0.00097
 C499 C 0.26916 0.41991 0.00390
 C500 C 0.26914 0.39820 0.00394
 H501 H 0.25474 0.36240 -0.03158
 H502 H 0.24694 0.36213 0.03401
 H503 H 0.21773 0.38892 -0.00304
 H504 H 0.28353 0.38979 0.00569
 H505 H 0.25121 0.30456 0.00073
 H506 H 0.25017 0.44706 0.00077
 C507 C 0.74701 0.14403 -0.02113
 C508 C 0.74966 0.13348 -0.00256
 C509 C 0.75220 0.14452 0.01587
 C510 C 0.75228 0.16622 0.01592
 C511 C 0.74947 0.17667 -0.00285
 C512 C 0.74674 0.16573 -0.02147
 C513 C 0.74980 0.11079 -0.00239
 C514 C 0.76851 0.10010 -0.00484
 C515 C 0.76890 0.07838 -0.00454
 C516 C 0.75017 0.06759 -0.00140
 C517 C 0.73138 0.07822 0.00125
 C518 C 0.73128 0.09986 0.00055
 H519 H 0.74537 0.13524 -0.03530
 H520 H 0.75390 0.13609 0.03015
 H521 H 0.78275 0.10882 -0.00671
 H522 H 0.71689 0.10823 0.00268
 H523 H 0.74940 0.19338 -0.00297
 H524 H 0.75002 0.05087 -0.00148
 C525 C 0.24644 0.64771 0.48091
 C526 C 0.24967 0.63689 0.49925
 C527 C 0.25260 0.64770 0.51778
 C528 C 0.25239 0.66941 0.51816
 C529 C 0.24906 0.68010 0.49964
 C530 C 0.24601 0.66939 0.48098
 C531 C 0.24969 0.61419 0.49917
 C532 C 0.26837 0.60343 0.49697
 C533 C 0.26860 0.58173 0.49714
 C534 C 0.24979 0.57099 0.49981
 C535 C 0.23090 0.58163 0.50211
 C536 C 0.23105 0.60334 0.50164
 H537 H 0.24394 0.63923 0.46667
 H538 H 0.25473 0.63911 0.53190
 H539 H 0.28271 0.61204 0.49535
 H540 H 0.21669 0.61189 0.50306
 H541 H 0.24933 0.69682 0.49958
 H542 H 0.24986 0.55428 0.50011
 C543 C 0.75305 0.85412 0.48329
 C544 C 0.75078 0.86493 0.50188
 C545 C 0.74836 0.85415 0.52037
 C546 C 0.74791 0.83244 0.52046
 C547 C 0.75034 0.82174 0.50165
 C548 C 0.75305 0.83242 0.48297
 C549 C 0.75069 0.88762 0.50197
 C550 C 0.73206 0.89825 0.49915
 C551 C 0.73173 0.91994 0.49908
 C552 C 0.75041 0.93082 0.50207
 C553 C 0.76926 0.92031 0.50495
 C554 C 0.76920 0.89860 0.50479
 H555 H 0.75461 0.86271 0.46907
 H556 H 0.74696 0.86278 0.53466
 H557 H 0.71781 0.88954 0.49723
 H558 H 0.78355 0.89013 0.50659
 H559 H 0.75012 0.80503 0.50152
 H560 H 0.75028 0.94753 0.50211
 C561 C -0.02108 0.25148 0.35266
 C562 C -0.00250 0.24969 0.36359
 C563 C 0.01632 0.24791 0.35297
 C564 C 0.01678 0.24781 0.33130
 C565 C -0.00197 0.25000 0.32047
 C566 C -0.02104 0.25188 0.33097
 C567 C -0.00272 0.24988 0.38625
 C568 C -0.00527 0.23143 0.39712
 C569 C -0.00549 0.23143 0.41880
 C570 C -0.00292 0.25031 0.42939
 C571 C -0.00012 0.26893 0.41862
 C572 C -0.00016 0.26852 0.39696
 H573 H -0.03553 0.25244 0.36117
 H574 H 0.03059 0.24678 0.36167
 H575 H -0.00677 0.21708 0.38857
 H576 H 0.00159 0.28270 0.38832
 H577 H -0.00168 0.25021 0.30380
 H578 H -0.00301 0.25051 0.44607
 C579 C -0.01837 0.74714 0.14584
 C580 C 0.00036 0.74884 0.13505
 C581 C 0.01905 0.75074 0.14581
 C582 C 0.01921 0.75130 0.16749
 C583 C 0.00024 0.74950 0.17818
 C584 C -0.01863 0.74725 0.16751
 C585 C 0.00040 0.74886 0.11239
 C586 C -0.00192 0.76746 0.10174
 C587 C -0.00190 0.76777 0.08005
 C588 C 0.00079 0.74904 0.06925
 C589 C 0.00340 0.73035 0.07983
 C590 C 0.00301 0.73036 0.10146
 H591 H -0.03273 0.74593 0.13727
 H592 H 0.03343 0.75165 0.13718
 H593 H -0.00346 0.78168 0.11048
 H594 H 0.00511 0.71606 0.10981
 H595 H 0.00013 0.74983 0.19486
 H596 H 0.00039 0.74881 0.05256
 C597 C 0.48070 0.24972 0.64443
 C598 C 0.49959 0.25145 0.63384
 C599 C 0.51815 0.25339 0.64486
 C600 C 0.51787 0.25393 0.66647
 C601 C 0.49892 0.25194 0.67698
 C602 C 0.48016 0.24969 0.66613
 C603 C 0.49986 0.25164 0.61118
 C604 C 0.49691 0.27021 0.60062
 C605 C 0.49712 0.27063 0.57894
 C606 C 0.50046 0.25208 0.56804
 C607 C 0.50352 0.23340 0.57851
 C608 C 0.50310 0.23329 0.60015
 H609 H 0.46646 0.24859 0.63567
 H610 H 0.53270 0.25500 0.63660
 H611 H 0.49475 0.28433 0.60939
 H612 H 0.50557 0.21902 0.60843
 H613 H 0.49896 0.25166 0.69368
 H614 H 0.50019 0.25201 0.55134
 C615 C 0.48033 0.75284 0.85429
 C616 C 0.49899 0.75029 0.86492
 C617 C 0.51759 0.74794 0.85399
 C618 C 0.51773 0.74808 0.83231
 C619 C 0.49888 0.75087 0.82179
 C620 C 0.48006 0.75328 0.83262
 C621 C 0.49905 0.75004 0.88758
 C622 C 0.49703 0.73131 0.89810
 C623 C 0.49704 0.73086 0.91980
 C624 C 0.49949 0.74956 0.93072
 C625 C 0.50174 0.76838 0.92026
 C626 C 0.50129 0.76852 0.89864
 H627 H 0.46604 0.75422 0.86300
 H628 H 0.53194 0.74623 0.86246
 H629 H 0.49568 0.71712 0.88929
 H630 H 0.50309 0.78294 0.89039
 H631 H 0.49886 0.75113 0.80511
 H632 H 0.49916 0.74965 0.94742
 C633 C 0.09370 0.23533 0.28611
 C634 C 0.10335 0.25145 0.27520
 C635 C 0.12133 0.24782 0.26366
 C636 C 0.13023 0.22806 0.26296
 C637 C 0.12078 0.21199 0.27404
 C638 C 0.10266 0.21555 0.28537
 C639 C 0.07425 0.23901 0.29799
 C640 C 0.07051 0.22865 0.31665
 C641 C 0.05197 0.23159 0.32746
 C642 C 0.03675 0.24515 0.32002
 C643 C 0.04063 0.25579 0.30156
 C644 C 0.05908 0.25268 0.29063
 H645 H 0.12841 0.26058 0.25549
 H646 H 0.12710 0.19653 0.27360
 H647 H 0.04943 0.22294 0.34148
 H648 H 0.02942 0.26660 0.29553
 H649 H 0.09546 0.20266 0.29322
 H650 H 0.08195 0.21827 0.32297
 H651 H 0.09714 0.26695 0.27572
 H652 H 0.06129 0.26075 0.27620
 C653 C 0.59427 0.73562 0.78640
 C654 C 0.60402 0.75209 0.77612
 C655 C 0.62224 0.74890 0.76483
 C656 C 0.63128 0.72922 0.76373
 C657 C 0.62167 0.71276 0.77409
 C658 C 0.60332 0.71590 0.78519
 C659 C 0.57474 0.73898 0.79828
 C660 C 0.57096 0.72822 0.81670
 C661 C 0.55253 0.73118 0.82770
 C662 C 0.53746 0.74513 0.82069
 C663 C 0.54133 0.75604 0.80238
 C664 C 0.55967 0.75293 0.79127
 H665 H 0.62941 0.76196 0.75725
 H666 H 0.62812 0.69736 0.77334
 H667 H 0.54998 0.72231 0.84159
 H668 H 0.53023 0.76713 0.79666
 H669 H 0.59605 0.70276 0.79257
 H670 H 0.58232 0.71758 0.82274
 H671 H 0.59775 0.76756 0.77703
 H672 H 0.56190 0.76130 0.77702
 C673 C 0.40276 0.76514 0.78826
 C674 C 0.39392 0.74894 0.77669
 C675 C 0.37576 0.75203 0.76542
 C676 C 0.36581 0.77128 0.76573
 C677 C 0.37432 0.78738 0.77758
 C678 C 0.39268 0.78440 0.78858
 C679 C 0.42250 0.76201 0.79973
 C680 C 0.42606 0.77207 0.81867
 C681 C 0.44471 0.76933 0.82925
 C682 C 0.46019 0.75621 0.82133
 C683 C 0.45655 0.74599 0.80250
 C684 C 0.43804 0.74897 0.79177
 H685 H 0.36938 0.73925 0.75665
 H686 H 0.36709 0.80245 0.77792
 H687 H 0.44705 0.77770 0.84355
 H688 H 0.46793 0.73550 0.79605
 H689 H 0.39919 0.79736 0.79699
 H690 H 0.41438 0.78199 0.82547
 H691 H 0.40090 0.73376 0.77644
 H692 H 0.43606 0.74120 0.77709
 C693 C -0.09707 0.26417 0.28447
 C694 C -0.10749 0.28318 0.28572
 C695 C -0.12533 0.28677 0.27411
 C696 C -0.13306 0.27162 0.26045
 C697 C -0.12259 0.25258 0.25922
 C698 C -0.10502 0.24884 0.27121
 C699 C -0.07785 0.26050 0.29667
 C700 C -0.07517 0.26971 0.31619
 C701 C -0.05682 0.26693 0.32725
 C702 C -0.04078 0.25449 0.31933
 C703 C -0.04366 0.24488 0.30004
 C704 C -0.06182 0.24801 0.28878
 H705 H -0.13256 0.30176 0.27550
 H706 H -0.12805 0.24025 0.24930
 H707 H -0.05514 0.27485 0.34189
 H708 H -0.03189 0.23486 0.29356
 H709 H -0.09779 0.23381 0.27016
 H710 H -0.08725 0.27911 0.32302
 H711 H -0.10166 0.29557 0.29537
 H712 H -0.06309 0.24087 0.27372
 C713 C -0.09516 0.73529 0.21346
 C714 C -0.10408 0.71547 0.21445
 C715 C -0.12205 0.71199 0.22603
 C716 C -0.13141 0.72818 0.23709
 C717 C -0.12256 0.74800 0.23612
 C718 C -0.10471 0.75154 0.22435
 C719 C -0.07583 0.73888 0.20136
 C720 C -0.06054 0.75267 0.20853
 C721 C -0.04217 0.75563 0.19743
 C722 C -0.03851 0.74473 0.17897
 C723 C -0.05386 0.73107 0.17172
 C724 C -0.07232 0.72826 0.18271
 H725 H -0.12831 0.69648 0.22666
 H726 H -0.12956 0.76085 0.24427
 H727 H -0.03084 0.76652 0.20332
 H728 H -0.05149 0.72223 0.15769
 H729 H -0.09852 0.76708 0.22365
 H730 H -0.06259 0.76094 0.22294
 H731 H -0.09694 0.70250 0.20661
 H732 H -0.08386 0.71777 0.17653
 C733 C 0.40368 0.23656 0.71199
 C734 C 0.39424 0.21697 0.71164
 C735 C 0.37660 0.21294 0.72355
 C736 C 0.36807 0.22827 0.73651
 C737 C 0.37747 0.24795 0.73666
 C738 C 0.39489 0.25206 0.72446
 C739 C 0.42289 0.24062 0.69979
 C740 C 0.43843 0.25382 0.70750
 C741 C 0.45674 0.25712 0.69640
 C742 C 0.46018 0.24703 0.67744
 C743 C 0.44456 0.23399 0.66962
 C744 C 0.42611 0.23095 0.68057
 H745 H 0.37017 0.19751 0.72291
 H746 H 0.37136 0.26042 0.74599
 H747 H 0.46821 0.26757 0.70275
 H748 H 0.44671 0.22576 0.65521
 H749 H 0.40139 0.26748 0.72477
 H750 H 0.43670 0.26134 0.72234
 H751 H 0.40075 0.20450 0.70255
 H752 H 0.41437 0.22097 0.67393
 C753 C 0.59332 0.26667 0.71259
 C754 C 0.60219 0.25052 0.72381
 C755 C 0.61973 0.25404 0.73600
 C756 C 0.62908 0.27376 0.73691
 C757 C 0.62035 0.28974 0.72505
 C758 C 0.60257 0.28627 0.71326
 C759 C 0.57409 0.26331 0.70067
 C760 C 0.55691 0.27620 0.70390
 C761 C 0.53859 0.27298 0.69290
 C762 C 0.53728 0.25708 0.67816
 C763 C 0.55453 0.24431 0.67473
 C764 C 0.57274 0.24725 0.68609
 H765 H 0.62591 0.24117 0.74454
 H766 H 0.62677 0.30517 0.72519
 H767 H 0.52549 0.28306 0.69570
 H768 H 0.55379 0.23191 0.66348
 H769 H 0.59601 0.29893 0.70462
 H770 H 0.55760 0.28860 0.71516
 H771 H 0.59524 0.23527 0.72352
 H772 H 0.58586 0.23718 0.68333
 C773 C 0.09600 0.76340 0.21294
 C774 C 0.10423 0.74783 0.22556
 C775 C 0.12210 0.75142 0.23721
 C776 C 0.13240 0.77051 0.23620
 C777 C 0.12450 0.78595 0.22334
 C778 C 0.10640 0.78253 0.21201
 C779 C 0.07652 0.75987 0.20105
 C780 C 0.07355 0.76926 0.18178
 C781 C 0.05502 0.76651 0.17097
 C782 C 0.03907 0.75397 0.17893
 C783 C 0.04221 0.74426 0.19801
 C784 C 0.06058 0.74731 0.20901
 H785 H 0.12801 0.73916 0.24683
 H786 H 0.13198 0.80092 0.22248
 H787 H 0.05312 0.77450 0.15648
 H788 H 0.03049 0.73419 0.20450
 H789 H 0.10036 0.79507 0.20287
 H790 H 0.08555 0.77873 0.17493
 H791 H 0.09698 0.73276 0.22636
 H792 H 0.06210 0.74005 0.22391
 C793 C 0.28313 0.09461 0.23560
 C794 C 0.28208 0.10267 0.21553
 C795 C 0.27099 0.12073 0.21160
 C796 C 0.26047 0.13104 0.22759
 C797 C 0.26143 0.12299 0.24764
 C798 C 0.27272 0.10505 0.25162
 C799 C 0.29496 0.07535 0.23974
 C800 C 0.28772 0.06091 0.25422
 C801 C 0.29869 0.04270 0.25787
 C802 C 0.31709 0.03838 0.24699
 C803 C 0.32436 0.05287 0.23258
 C804 C 0.31351 0.07115 0.22908
 H805 H 0.27032 0.12637 0.19593
 H806 H 0.25370 0.13071 0.26035
 H807 H 0.29278 0.03205 0.26929
 H808 H 0.33832 0.04995 0.22372
 H809 H 0.27349 0.09952 0.26733
 H810 H 0.27337 0.06349 0.26255
 H811 H 0.28953 0.09484 0.20273
 H812 H 0.31974 0.08204 0.21806
 C813 C 0.78196 0.59506 0.73538
 C814 C 0.77254 0.60575 0.75184
 C815 C 0.76147 0.62393 0.74833
 C816 C 0.75968 0.63191 0.72830
 C817 C 0.76906 0.62121 0.71185
 C818 C 0.78000 0.60298 0.71534
 C819 C 0.79376 0.57572 0.73904
 C820 C 0.81196 0.57148 0.72781
 C821 C 0.82284 0.55313 0.73091
 C822 C 0.81588 0.53861 0.74542
 C823 C 0.79781 0.54294 0.75683
 C824 C 0.78686 0.56124 0.75364
 H825 H 0.75462 0.63190 0.76137
 H826 H 0.76774 0.62674 0.69620
 H827 H 0.83657 0.55019 0.72170
 H828 H 0.79217 0.53223 0.76833
 H829 H 0.78669 0.59493 0.70225
 H830 H 0.81789 0.58240 0.71666
 H831 H 0.77401 0.60026 0.76751
 H832 H 0.77279 0.56391 0.76241
 C833 C 0.78095 0.40558 0.76793
 C834 C 0.78123 0.39624 0.78748
 C835 C 0.76979 0.37828 0.79124
 C836 C 0.75753 0.36943 0.77567
 C837 C 0.75717 0.37869 0.75615
 C838 C 0.76888 0.39645 0.75227
 C839 C 0.79298 0.42485 0.76400
 C840 C 0.78523 0.44012 0.75075
 C841 C 0.79638 0.45830 0.74727
 C842 C 0.81544 0.46188 0.75717
 C843 C 0.82321 0.44661 0.77040
 C844 C 0.81220 0.42829 0.77365
 H845 H 0.77015 0.37164 0.80652
 H846 H 0.74806 0.37204 0.74378
 H847 H 0.79006 0.46952 0.73670
 H848 H 0.83769 0.44891 0.77852
 H849 H 0.76861 0.40291 0.73691
 H850 H 0.77036 0.43819 0.74326
 H851 H 0.78996 0.40301 0.80005
 H852 H 0.81886 0.41678 0.78369
 C853 C 0.28327 -0.09575 0.26837
 C854 C 0.26995 -0.10359 0.25306
 C855 C 0.25884 -0.12188 0.25615
 C856 C 0.26112 -0.13326 0.27446
 C857 C 0.27472 -0.12557 0.28965
 C858 C 0.28539 -0.10698 0.28676
 C859 C 0.29484 -0.07600 0.26518
 C860 C 0.31448 -0.07284 0.27411
 C861 C 0.32519 -0.05427 0.27131
 C862 C 0.31683 -0.03846 0.25908
 C863 C 0.29732 -0.04171 0.24995
 C864 C 0.28638 -0.06008 0.25316
 H865 H 0.24891 -0.12725 0.24382
 H866 H 0.27680 -0.13350 0.30413
 H867 H 0.33998 -0.05230 0.27892
 H868 H 0.29046 -0.03016 0.24011
 H869 H 0.29505 -0.10129 0.29918
 H870 H 0.32177 -0.08477 0.28315
 H871 H 0.26825 -0.09579 0.23845
 H872 H 0.27118 -0.06165 0.24631
 C873 C 0.21641 -0.09581 0.73498
 C874 C 0.22911 -0.10407 0.75047
 C875 C 0.24022 -0.12230 0.74708
 C876 C 0.23860 -0.13311 0.72823
 C877 C 0.22580 -0.12482 0.71278
 C878 C 0.21508 -0.10637 0.71603
 C879 C 0.20461 -0.07630 0.73850
 C880 C 0.18516 -0.07329 0.72922
 C881 C 0.17432 -0.05484 0.73206
 C882 C 0.18240 -0.03899 0.74462
 C883 C 0.20167 -0.04214 0.75422
 C884 C 0.21271 -0.06044 0.75105
 H885 H 0.24961 -0.12807 0.75956
 H886 H 0.22427 -0.13223 0.69788
 H887 H 0.15971 -0.05294 0.72413
 H888 H 0.20827 -0.03050 0.76430
 H889 H 0.20594 -0.10028 0.70349
 H890 H 0.17816 -0.08524 0.71978
 H891 H 0.23025 -0.09666 0.76542
 H892 H 0.22774 -0.06199 0.75825
 C893 C 0.71674 0.40591 0.23046
 C894 C 0.71884 0.39824 0.21027
 C895 C 0.72992 0.38009 0.20647
 C896 C 0.73941 0.36948 0.22274
 C897 C 0.73736 0.37721 0.24293
 C898 C 0.72596 0.39516 0.24677
 C899 C 0.70507 0.42517 0.23445
 C900 C 0.68972 0.42588 0.24984
 C901 C 0.67854 0.44403 0.25340
 C902 C 0.68281 0.46186 0.24189
 C903 C 0.69832 0.46121 0.22666
 C904 C 0.70924 0.44296 0.22284
 H905 H 0.73135 0.37457 0.19074
 H906 H 0.74439 0.36927 0.25578
 H907 H 0.66670 0.44423 0.26528
 H908 H 0.70179 0.47475 0.21752
 H909 H 0.72461 0.40085 0.26246
 H910 H 0.68619 0.41231 0.25890
 H911 H 0.71176 0.40623 0.19747
 H912 H 0.72110 0.44279 0.21098
 C913 C 0.71509 0.59521 0.26585
 C914 C 0.71593 0.60376 0.28582
 C915 C 0.72707 0.62192 0.28962
 C916 C 0.73784 0.63183 0.27362
 C917 C 0.73702 0.62335 0.25366
 C918 C 0.72568 0.60532 0.24979
 C919 C 0.70342 0.57573 0.26187
 C920 C 0.71093 0.56103 0.24767
 C921 C 0.70015 0.54259 0.24418
 C922 C 0.68168 0.53828 0.25494
 C923 C 0.67414 0.55300 0.26908
 C924 C 0.68481 0.57153 0.27242
 H925 H 0.72761 0.62792 0.30523
 H926 H 0.74494 0.63078 0.24095
 H927 H 0.70626 0.53176 0.23295
 H928 H 0.66012 0.55011 0.27784
 H929 H 0.72506 0.59942 0.23415
 H930 H 0.72534 0.56359 0.23946
 H931 H 0.70832 0.59621 0.29864
 H932 H 0.67839 0.58260 0.28323
 C933 C 0.21700 0.09445 0.76574
 C934 C 0.21692 0.10347 0.78553
 C935 C 0.22839 0.12135 0.78959
 C936 C 0.24049 0.13048 0.77407
 C937 C 0.24070 0.12150 0.75432
 C938 C 0.22897 0.10378 0.75015
 C939 C 0.20486 0.07528 0.76152
 C940 C 0.21249 0.06007 0.74794
 C941 C 0.20133 0.04185 0.74442
 C942 C 0.18238 0.03824 0.75460
 C943 C 0.17468 0.05353 0.76805
 C944 C 0.18569 0.07185 0.77134
 H945 H 0.22815 0.12774 0.80505
 H946 H 0.24970 0.12834 0.74199
 H947 H 0.20759 0.03060 0.73369
 H948 H 0.16029 0.05122 0.77637
 H949 H 0.22912 0.09753 0.73464
 H950 H 0.22729 0.06202 0.74027
 H951 H 0.20829 0.09651 0.79805
 H952 H 0.17912 0.08334 0.78161
 C953 C 0.23455 0.28566 0.09505
 C954 C 0.21453 0.28483 0.10370
 C955 C 0.21068 0.27340 0.12153
 C956 C 0.22669 0.26230 0.13100
 C957 C 0.24669 0.26302 0.12238
 C958 C 0.25060 0.27466 0.10468
 C959 C 0.23857 0.29777 0.07599
 C960 C 0.25260 0.29058 0.06095
 C961 C 0.25605 0.30176 0.04287
 C962 C 0.24539 0.32031 0.03926
 C963 C 0.23146 0.32756 0.05435
 C964 C 0.22818 0.31650 0.07251
 H965 H 0.19504 0.27293 0.12762
 H966 H 0.25940 0.25484 0.12946
 H967 H 0.26713 0.29586 0.03175
 H968 H 0.22280 0.34164 0.05200
 H969 H 0.26628 0.27523 0.09869
 H970 H 0.26070 0.27611 0.06296
 H971 H 0.20169 0.29272 0.09650
 H972 H 0.21752 0.32269 0.08387
 C973 C 0.73459 0.78730 0.59667
 C974 C 0.71507 0.78765 0.60647
 C975 C 0.71166 0.77664 0.62465
 C976 C 0.72755 0.76472 0.63327
 C977 C 0.74701 0.76425 0.62352
 C978 C 0.75055 0.77554 0.60554
 C979 C 0.73822 0.79899 0.57725
 C980 C 0.75148 0.79117 0.56182
 C981 C 0.75482 0.80209 0.54358
 C982 C 0.74476 0.82099 0.54011
 C983 C 0.73147 0.82880 0.55551
 C984 C 0.72837 0.81803 0.57388
 H985 H 0.69642 0.77708 0.63169
 H986 H 0.75963 0.75541 0.62997
 H987 H 0.76543 0.79574 0.53226
 H988 H 0.72320 0.84314 0.55329
 H989 H 0.76590 0.77522 0.59874
 H990 H 0.75911 0.77643 0.56368
 H991 H 0.70227 0.79615 0.59992
 H992 H 0.71832 0.82474 0.58550
 C993 C 0.76620 0.78686 0.40665
 C994 C 0.74995 0.77604 0.39695
 C995 C 0.75359 0.76452 0.37902
 C996 C 0.77351 0.76374 0.37023
 C997 C 0.78971 0.77472 0.37974
 C998 C 0.78614 0.78603 0.39780
 C999 C 0.76247 0.79876 0.42602
 C1000 C 0.77304 0.81741 0.42981
 C1001 C 0.76995 0.82831 0.44821
 C1002 C 0.75603 0.82095 0.46323
 C1003 C 0.74523 0.80246 0.45932
 C1004 C 0.74849 0.79145 0.44101
 H1005 H 0.74073 0.75644 0.37190
 H1006 H 0.80530 0.77421 0.37351
 H1007 H 0.77873 0.84236 0.45078
 H1008 H 0.73416 0.79649 0.47039
 H1009 H 0.79912 0.79381 0.40504
 H1010 H 0.78367 0.82370 0.41850
 H1011 H 0.73433 0.77664 0.40308
 H1012 H 0.74026 0.77702 0.43876
 C1013 C 0.26665 0.28700 -0.09442
 C1014 C 0.25046 0.27594 -0.10395
 C1015 C 0.25407 0.26450 -0.12194
 C1016 C 0.27389 0.26407 -0.13097
 C1017 C 0.29001 0.27533 -0.12167
 C1018 C 0.28648 0.28655 -0.10354
 C1019 C 0.26298 0.29875 -0.07495
 C1020 C 0.27333 0.31753 -0.07118
 C1021 C 0.27029 0.32829 -0.05269
 C1022 C 0.25663 0.32068 -0.03757
 C1023 C 0.24606 0.30204 -0.04145
 C1024 C 0.24928 0.29116 -0.05985
 H1025 H 0.24127 0.25619 -0.12889
 H1026 H 0.30552 0.27509 -0.12810
 H1027 H 0.27889 0.34245 -0.05014
 H1028 H 0.23519 0.29587 -0.03031
 H1029 H 0.29942 0.29453 -0.09645
 H1030 H 0.28374 0.32403 -0.08257
 H1031 H 0.23491 0.27625 -0.09762
 H1032 H 0.24124 0.27663 -0.06207
 C1033 C 0.73283 0.21030 -0.09772
 C1034 C 0.71288 0.21082 -0.10646
 C1035 C 0.70911 0.22218 -0.12432
 C1036 C 0.72512 0.23350 -0.13372
 C1037 C 0.74508 0.23289 -0.12514
 C1038 C 0.74892 0.22132 -0.10743
 C1039 C 0.73673 0.19863 -0.07839
 C1040 C 0.75064 0.20628 -0.06350
 C1041 C 0.75407 0.19552 -0.04521
 C1042 C 0.74352 0.17693 -0.04120
 C1043 C 0.72966 0.16924 -0.05610
 C1044 C 0.72639 0.17989 -0.07450
 H1045 H 0.69350 0.22253 -0.13043
 H1046 H 0.75780 0.24122 -0.13220
 H1047 H 0.76510 0.20175 -0.03425
 H1048 H 0.72107 0.15511 -0.05345
 H1049 H 0.76456 0.22094 -0.10142
 H1050 H 0.75867 0.22079 -0.06580
 H1051 H 0.70002 0.20284 -0.09923
 H1052 H 0.71581 0.17336 -0.08572
 C1053 C 0.23166 0.71497 0.40587
 C1054 C 0.21139 0.71989 0.39976
 C1055 C 0.20795 0.73121 0.38180
 C1056 C 0.22472 0.73804 0.36971
 C1057 C 0.24500 0.73312 0.37585
 C1058 C 0.24842 0.72159 0.39369
 C1059 C 0.23528 0.70316 0.42504
 C1060 C 0.24943 0.68669 0.42529
 C1061 C 0.25279 0.67558 0.44340
 C1062 C 0.24227 0.68090 0.46166
 C1063 C 0.22818 0.69741 0.46142
 C1064 C 0.22464 0.70836 0.44326
 H1065 H 0.19215 0.73485 0.37760
 H1066 H 0.25824 0.73802 0.36680
 H1067 H 0.26383 0.66300 0.44323
 H1068 H 0.21975 0.70172 0.47525
 H1069 H 0.26421 0.71813 0.39814
 H1070 H 0.25772 0.68229 0.41141
 H1071 H 0.19819 0.71484 0.40880
 H1072 H 0.21377 0.72108 0.44353
 C1073 C 0.26571 0.71472 0.59449
 C1074 C 0.24913 0.72439 0.60482
 C1075 C 0.25250 0.73557 0.62300
 C1076 C 0.27251 0.73719 0.63140
 C1077 C 0.28907 0.72745 0.62117
 C1078 C 0.28574 0.71643 0.60290
 C1079 C 0.26217 0.70300 0.57502
 C1080 C 0.27323 0.68477 0.57081
 C1081 C 0.27007 0.67389 0.55241
 C1082 C 0.25566 0.68090 0.53781
 C1083 C 0.24449 0.69905 0.54208
 C1084 C 0.24776 0.71000 0.56041
 H1085 H 0.23936 0.74267 0.63063
 H1086 H 0.30472 0.72862 0.62708
 H1087 H 0.27912 0.66012 0.54951
 H1088 H 0.23307 0.70474 0.53132
 H1089 H 0.29893 0.70951 0.59517
 H1090 H 0.28425 0.67877 0.58181
 H1091 H 0.23345 0.72309 0.59900
 H1092 H 0.23915 0.72411 0.56302
 C1093 C 0.76581 0.21251 0.09176
 C1094 C 0.74965 0.22361 0.10130
 C1095 C 0.75330 0.23523 0.11916
 C1096 C 0.77313 0.23581 0.12806
 C1097 C 0.78923 0.22455 0.11873
 C1098 C 0.78565 0.21316 0.10072
 C1099 C 0.76205 0.20048 0.07248
 C1100 C 0.77245 0.18174 0.06882
 C1101 C 0.76929 0.17069 0.05053
 C1102 C 0.75546 0.17793 0.03550
 C1103 C 0.74486 0.19653 0.03926
 C1104 C 0.74820 0.20772 0.05745
 H1105 H 0.74052 0.24355 0.12614
 H1106 H 0.80475 0.22491 0.12506
 H1107 H 0.77794 0.15658 0.04807
 H1108 H 0.73385 0.20244 0.02820
 H1109 H 0.79858 0.20517 0.09362
 H1110 H 0.78298 0.17550 0.08015
 H1111 H 0.73408 0.22316 0.09511
 H1112 H 0.74012 0.22221 0.05957
 C1113 C 0.48428 0.34734 0.53473
 C1114 C 0.50093 0.35717 0.52468
 C1115 C 0.49784 0.37538 0.51368
 C1116 C 0.47807 0.38436 0.51264
 C1117 C 0.46144 0.37474 0.52286
 C1118 C 0.46449 0.35638 0.53368
 C1119 C 0.48756 0.32771 0.54611
 C1120 C 0.47666 0.32362 0.56447
 C1121 C 0.47971 0.30514 0.57507
 C1122 C 0.49387 0.29034 0.56769
 C1123 C 0.50484 0.29448 0.54940
 C1124 C 0.50165 0.31286 0.53870
 H1125 H 0.51103 0.38258 0.50624
 H1126 H 0.44598 0.38117 0.52216
 H1127 H 0.47078 0.30236 0.58895
 H1128 H 0.51608 0.28358 0.54340
 H1129 H 0.45123 0.34908 0.54092
 H1130 H 0.46589 0.33480 0.57079
 H1131 H 0.51647 0.35093 0.52551
 H1132 H 0.51010 0.31532 0.52447
 C1133 C -0.01448 0.84408 0.03492
 C1134 C 0.00139 0.85279 0.02277
 C1135 C -0.00222 0.87058 0.01122
 C1136 C -0.02163 0.88031 0.01186
 C1137 C -0.03740 0.87191 0.02422
 C1138 C -0.03394 0.85390 0.03546
 C1139 C -0.01089 0.82472 0.04672
 C1140 C -0.02079 0.82141 0.06578
 C1141 C -0.01792 0.80299 0.07653
 C1142 C -0.00478 0.78750 0.06870
 C1143 C 0.00541 0.79096 0.04982
 C1144 C 0.00226 0.80923 0.03890
 H1145 H 0.01029 0.87689 0.00199
 H1146 H -0.05261 0.87893 0.02478
 H1147 H -0.02628 0.80082 0.09086
 H1148 H 0.01593 0.77959 0.04344
 H1149 H -0.04669 0.84746 0.04423
 H1150 H -0.03075 0.83308 0.07252
 H1151 H 0.01670 0.84599 0.02229
 H1152 H 0.00993 0.81102 0.02414
 C1153 C 0.01742 0.65460 0.03445
 C1154 C 0.00071 0.64329 0.02630
 C1155 C 0.00426 0.62546 0.01459
 C1156 C 0.02458 0.61843 0.01110
 C1157 C 0.04126 0.62954 0.01961
 C1158 C 0.03772 0.64754 0.03104
 C1159 C 0.01376 0.67395 0.04614
 C1160 C 0.02516 0.69183 0.04145
 C1161 C 0.02164 0.71018 0.05230
 C1162 C 0.00686 0.71092 0.06824
 C1163 C -0.00445 0.69300 0.07304
 C1164 C -0.00116 0.67471 0.06196
 H1165 H -0.00890 0.61713 0.00835
 H1166 H 0.05710 0.62461 0.01707
 H1167 H 0.03065 0.72377 0.04842
 H1168 H -0.01600 0.69323 0.08520
 H1169 H 0.05085 0.65594 0.03729
 H1170 H 0.03663 0.69166 0.02922
 H1171 H -0.01508 0.64851 0.02864
 H1172 H -0.01006 0.66107 0.06591
 C1173 C 0.51814 0.15806 0.53252
 C1174 C 0.53849 0.15154 0.52837
 C1175 C 0.54211 0.13342 0.51716
 C1176 C 0.52544 0.12159 0.50962
 C1177 C 0.50508 0.12816 0.51370
 C1178 C 0.50146 0.14615 0.52517
 C1179 C 0.51435 0.17732 0.54433
 C1180 C 0.49984 0.17772 0.56053
 C1181 C 0.49642 0.19589 0.57177
 C1182 C 0.50724 0.21406 0.56680
 C1183 C 0.52165 0.21369 0.55051
 C1184 C 0.52527 0.19547 0.53947
 H1185 H 0.55797 0.12885 0.51416
 H1186 H 0.49192 0.11930 0.50823
 H1187 H 0.48514 0.19583 0.58418
 H1188 H 0.53028 0.22747 0.54648
 H1189 H 0.48562 0.15093 0.52805
 H1190 H 0.49133 0.16389 0.56465
 H1191 H 0.55161 0.16039 0.53399
 H1192 H 0.53643 0.19559 0.52696
 C1193 C -0.01681 0.15507 0.46432
 C1194 C -0.03615 0.14492 0.46449
 C1195 C -0.03897 0.12671 0.47565
 C1196 C -0.02262 0.11841 0.48718
 C1197 C -0.00332 0.12848 0.48707
 C1198 C -0.00039 0.14649 0.47564
 C1199 C -0.01381 0.17456 0.45255
 C1200 C -0.00063 0.19022 0.46005
 C1201 C 0.00223 0.20849 0.44904
 C1202 C -0.00828 0.21179 0.43037
 C1203 C -0.02153 0.19618 0.42290
 C1204 C -0.02415 0.17777 0.43376
 H1205 H -0.05409 0.11940 0.47564
 H1206 H 0.00965 0.12227 0.49559
 H1207 H 0.01283 0.21997 0.45513
 H1208 H -0.03009 0.19825 0.40873
 H1209 H 0.01485 0.15354 0.47553
 H1210 H 0.00735 0.18850 0.47460
 H1211 H -0.04928 0.15123 0.45631
 H1212 H -0.03418 0.16598 0.42731
 C1213 C 0.48528 0.65402 0.96440
 C1214 C 0.50152 0.64524 0.97583
 C1215 C 0.49831 0.62720 0.98714
 C1216 C 0.47891 0.61731 0.98703
 C1217 C 0.46276 0.62582 0.97540
 C1218 C 0.46585 0.64406 0.96435
 C1219 C 0.48855 0.67357 0.95278
 C1220 C 0.47839 0.67697 0.93393
 C1221 C 0.48113 0.69550 0.92328
 C1222 C 0.49433 0.71102 0.93102
 C1223 C 0.50471 0.70750 0.94972
 C1224 C 0.50174 0.68911 0.96052
 H1225 H 0.51114 0.62083 0.99574
 H1226 H 0.44756 0.61867 0.97522
 H1227 H 0.47264 0.69773 0.90909
 H1228 H 0.51525 0.71892 0.95602
 H1229 H 0.45285 0.65054 0.95609
 H1230 H 0.46838 0.66528 0.92730
 H1231 H 0.51682 0.65217 0.97589
 H1232 H 0.50960 0.68722 0.97511
 C1233 C 0.51478 0.84433 0.96560
 C1234 C 0.53492 0.85228 0.96790
 C1235 C 0.53830 0.87050 0.97904
 C1236 C 0.52163 0.88093 0.98839
 C1237 C 0.50148 0.87295 0.98610
 C1238 C 0.49806 0.85491 0.97464
 C1239 C 0.51129 0.82488 0.95403
 C1240 C 0.49600 0.82370 0.93868
 C1241 C 0.49294 0.80537 0.92759
 C1242 C 0.50487 0.78781 0.93195
 C1243 C 0.52000 0.78894 0.94745
 C1244 C 0.52329 0.80736 0.95828
 H1245 H 0.55402 0.87619 0.98067
 H1246 H 0.48833 0.88073 0.99302
 H1247 H 0.48113 0.80482 0.91575
 H1248 H 0.52946 0.77563 0.95098
 H1249 H 0.48240 0.84900 0.97314
 H1250 H 0.48663 0.83706 0.93509
 H1251 H 0.54804 0.84443 0.96096
 H1252 H 0.53508 0.80788 0.97014
 C1253 C 0.01401 0.34523 0.46398
 C1254 C 0.03410 0.35371 0.46507
 C1255 C 0.03789 0.37166 0.47654
 C1256 C 0.02174 0.38142 0.48737
 C1257 C 0.00165 0.37305 0.48623
 C1258 C -0.00219 0.35524 0.47458
 C1259 C 0.01005 0.32589 0.45210
 C1260 C -0.00420 0.31112 0.45938
 C1261 C -0.00769 0.29281 0.44841
 C1262 C 0.00312 0.28870 0.42999
 C1263 C 0.01730 0.30350 0.42267
 C1264 C 0.02066 0.32189 0.43353
 H1265 H 0.05359 0.37758 0.47730
 H1266 H -0.01119 0.38037 0.49416
 H1267 H -0.01895 0.28191 0.45436
 H1268 H 0.02609 0.30074 0.40868
 H1269 H -0.01792 0.34940 0.47376
 H1270 H -0.01246 0.31354 0.47374
 H1271 H 0.04702 0.34624 0.45742
 H1272 H 0.03152 0.33303 0.42731
 C1273 C 0.34493 0.53598 0.48458
 C1274 C 0.35532 0.52643 0.50100
 C1275 C 0.37343 0.51510 0.49747
 C1276 C 0.38165 0.51317 0.47746
 C1277 C 0.37127 0.52270 0.46105
 C1278 C 0.35311 0.53391 0.46456
 C1279 C 0.32561 0.54798 0.48823
 C1280 C 0.32174 0.56617 0.47714
 C1281 C 0.30334 0.57715 0.48013
 C1282 C 0.28839 0.57029 0.49437
 C1283 C 0.29238 0.55227 0.50569
 C1284 C 0.31074 0.54123 0.50262
 H1285 H 0.38115 0.50814 0.51049
 H1286 H 0.37697 0.52129 0.44540
 H1287 H 0.30068 0.59085 0.47101
 H1288 H 0.28133 0.54673 0.51699
 H1289 H 0.34529 0.54070 0.45150
 H1290 H 0.33298 0.57198 0.46616
 H1291 H 0.34962 0.52796 0.51666
 H1292 H 0.31312 0.52719 0.51128
 C1293 C 0.84578 0.03334 -0.01745
 C1294 C 0.85529 0.03293 -0.03702
 C1295 C 0.87363 0.02190 -0.04028
 C1296 C 0.88271 0.01076 -0.02416
 C1297 C 0.87325 0.01108 -0.00464
 C1298 C 0.85510 0.02237 -0.00127
 C1299 C 0.82618 0.04502 -0.01397
 C1300 C 0.81095 0.03758 -0.00030
 C1301 C 0.79255 0.04849 0.00294
 C1302 C 0.78872 0.06700 -0.00763
 C1303 C 0.80394 0.07443 -0.02132
 C1304 C 0.82247 0.06367 -0.02434
 H1305 H 0.88045 0.02174 -0.05556
 H1306 H 0.88006 0.00288 0.00817
 H1307 H 0.78137 0.04243 0.01384
 H1308 H 0.80145 0.08847 -0.02995
 H1309 H 0.84852 0.02267 0.01410
 H1310 H 0.81309 0.02314 0.00775
 H1311 H 0.84839 0.04083 -0.04996
 H1312 H 0.83394 0.07008 -0.03473
 C1313 C 0.65530 0.03351 0.01667
 C1314 C 0.64442 0.02409 0.00041
 C1315 C 0.62632 0.01281 0.00432
 C1316 C 0.61858 0.01109 0.02452
 C1317 C 0.62930 0.02080 0.04073
 C1318 C 0.64760 0.03175 0.03686
 C1319 C 0.67477 0.04494 0.01262
 C1320 C 0.69261 0.04083 0.02425
 C1321 C 0.71107 0.05149 0.02037
 C1322 C 0.71191 0.06670 0.00503
 C1323 C 0.69403 0.07093 -0.00651
 C1324 C 0.67566 0.06000 -0.00288
 H1325 H 0.61830 0.00561 -0.00848
 H1326 H 0.62378 0.01961 0.05646
 H1327 H 0.72464 0.04808 0.02953
 H1328 H 0.69436 0.08254 -0.01847
 H1329 H 0.65569 0.03899 0.04961
 H1330 H 0.69231 0.02920 0.03619
 H1331 H 0.65013 0.02517 -0.01527
 H1332 H 0.66205 0.06347 -0.01196
 C1333 C 0.15471 0.53563 0.51608
 C1334 C 0.14506 0.52434 0.50017
 C1335 C 0.12720 0.51268 0.50408
 C1336 C 0.11845 0.51222 0.52393
 C1337 C 0.12793 0.52365 0.53979
 C1338 C 0.14590 0.53512 0.53595
 C1339 C 0.17400 0.54768 0.51208
 C1340 C 0.17755 0.56663 0.52218
 C1341 C 0.19592 0.57764 0.51889
 C1342 C 0.21115 0.57011 0.50525
 C1343 C 0.20746 0.55132 0.49490
 C1344 C 0.18917 0.54021 0.49834
 H1345 H 0.12012 0.50425 0.49147
 H1346 H 0.12173 0.52340 0.55532
 H1347 H 0.19832 0.59192 0.52732
 H1348 H 0.21869 0.54520 0.48405
 H1349 H 0.15311 0.54326 0.54867
 H1350 H 0.16608 0.57303 0.53262
 H1351 H 0.15116 0.52467 0.48461
 H1352 H 0.18711 0.52557 0.49047
 C1353 C 0.15518 0.46424 -0.01687
 C1354 C 0.14639 0.46411 -0.03672
 C1355 C 0.12850 0.47548 -0.04087
 C1356 C 0.11917 0.48752 -0.02537
 C1357 C 0.12783 0.48764 -0.00553
 C1358 C 0.14553 0.47601 -0.00129
 C1359 C 0.17449 0.45247 -0.01257
 C1360 C 0.18945 0.46032 0.00117
 C1361 C 0.20775 0.44948 0.00493
 C1362 C 0.21175 0.43063 -0.00517
 C1363 C 0.19676 0.42273 -0.01884
 C1364 C 0.17833 0.43343 -0.02238
 H1365 H 0.12232 0.47528 -0.05637
 H1366 H 0.12080 0.49655 0.00679
 H1367 H 0.21874 0.45589 0.01582
 H1368 H 0.19939 0.40840 -0.02711
 H1369 H 0.15155 0.47616 0.01428
 H1370 H 0.18721 0.47504 0.00882
 H1371 H 0.15357 0.45558 -0.04922
 H1372 H 0.16706 0.42672 -0.03280
 C1373 C 0.65571 0.96514 0.48392
 C1374 C 0.64514 0.97559 0.49983
 C1375 C 0.62753 0.98736 0.49557
 C1376 C 0.61998 0.98881 0.47533
 C1377 C 0.63031 0.97811 0.45947
 C1378 C 0.64802 0.96649 0.46370
 C1379 C 0.67488 0.95322 0.48828
 C1380 C 0.67906 0.93469 0.47768
 C1381 C 0.69741 0.92386 0.48127
 C1382 C 0.71198 0.93122 0.49565
 C1383 C 0.70765 0.94957 0.50649
 C1384 C 0.68937 0.96048 0.50279
 H1385 H 0.61977 0.99519 0.50818
 H1386 H 0.62507 0.97909 0.44368
 H1387 H 0.70034 0.90990 0.47249
 H1388 H 0.71837 0.95552 0.51790
 H1389 H 0.65596 0.95897 0.45100
 H1390 H 0.66813 0.92849 0.46661
 H1391 H 0.65039 0.97458 0.51563
 H1392 H 0.68678 0.97481 0.51106
 C1393 C 0.84573 0.96625 0.51772
 C1394 C 0.85545 0.97665 0.50131
 C1395 C 0.87374 0.98784 0.50451
 C1396 C 0.88288 0.98870 0.52413
 C1397 C 0.87326 0.97827 0.54052
 C1398 C 0.85484 0.96728 0.53739
 C1399 C 0.82619 0.95440 0.51435
 C1400 C 0.82244 0.93587 0.52495
 C1401 C 0.80401 0.92486 0.52194
 C1402 C 0.78893 0.93199 0.50808
 C1403 C 0.79276 0.95042 0.49733
 C1404 C 0.81109 0.96154 0.50051
 H1405 H 0.88092 0.99549 0.49151
 H1406 H 0.87977 0.97885 0.55588
 H1407 H 0.80149 0.91087 0.53066
 H1408 H 0.78166 0.95622 0.48631
 H1409 H 0.84759 0.95982 0.55047
 H1410 H 0.83382 0.92973 0.53550
 H1411 H 0.84912 0.97589 0.48588
 H1412 H 0.81331 0.97587 0.49226
 C1413 C 0.34552 0.46607 0.01661
 C1414 C 0.35455 0.46712 0.03631
 C1415 C 0.37300 0.47805 0.03949
 C1416 C 0.38272 0.48841 0.02311
 C1417 C 0.37362 0.48760 0.00347
 C1418 C 0.35530 0.47645 0.00023
 C1419 C 0.32602 0.45416 0.01319
 C1420 C 0.31095 0.46119 -0.00073
 C1421 C 0.29264 0.45002 -0.00389
 C1422 C 0.28882 0.43164 0.00695
 C1423 C 0.30388 0.42461 0.02086
 C1424 C 0.32228 0.43566 0.02386
 H1425 H 0.37947 0.47861 0.05486
 H1426 H 0.38087 0.49522 -0.00951
 H1427 H 0.28154 0.45575 -0.01496
 H1428 H 0.30137 0.41066 0.02967
 H1429 H 0.34901 0.47570 -0.01522
 H1430 H 0.31315 0.47549 -0.00904
 H1431 H 0.34725 0.45970 0.04938
 H1432 H 0.33365 0.42959 0.03446
 C1433 C 0.53734 0.48392 0.34483
 C1434 C 0.52569 0.50012 0.35356
 C1435 C 0.51437 0.49713 0.37172
 C1436 C 0.51470 0.47799 0.38177
 C1437 C 0.52653 0.46187 0.37328
 C1438 C 0.53758 0.46474 0.35494
 C1439 C 0.54904 0.48697 0.32522
 C1440 C 0.56810 0.47699 0.32180
 C1441 C 0.57892 0.47964 0.30329
 C1442 C 0.57111 0.49257 0.28779
 C1443 C 0.55216 0.50272 0.29129
 C1444 C 0.54120 0.49983 0.30968
 H1445 H 0.50561 0.50993 0.37806
 H1446 H 0.52687 0.44687 0.38056
 H1447 H 0.59331 0.47134 0.30106
 H1448 H 0.54580 0.51306 0.27990
 H1449 H 0.54599 0.45177 0.34850
 H1450 H 0.57482 0.46722 0.33350
 H1451 H 0.52547 0.51524 0.34652
 H1452 H 0.52643 0.50754 0.31157
 C1453 C 0.03686 -0.01771 0.84419
 C1454 C 0.02824 -0.00125 0.85551
 C1455 C 0.01666 -0.00498 0.87337
 C1456 C 0.01347 -0.02526 0.88037
 C1457 C 0.02221 -0.04170 0.86912
 C1458 C 0.03374 -0.03797 0.85123
 C1459 C 0.04886 -0.01380 0.82499
 C1460 C 0.06675 -0.02534 0.82041
 C1461 C 0.07780 -0.02193 0.80216
 C1462 C 0.07124 -0.00688 0.78808
 C1463 C 0.05346 0.00478 0.79275
 C1464 C 0.04239 0.00135 0.81098
 H1465 H 0.01040 0.00808 0.88175
 H1466 H 0.01989 -0.05753 0.87387
 H1467 H 0.09133 -0.03129 0.79893
 H1468 H 0.04815 0.01666 0.78235
 H1469 H 0.03988 -0.05101 0.84269
 H1470 H 0.07229 -0.03696 0.83099
 H1471 H 0.03063 0.01456 0.85067
 H1472 H 0.02856 0.01035 0.81394
 C1473 C 0.03735 0.01669 0.65550
 C1474 C 0.02776 0.00017 0.64504
 C1475 C 0.01651 0.00358 0.62699
 C1476 C 0.01471 0.02357 0.61887
 C1477 C 0.02441 0.04007 0.62922
 C1478 C 0.03554 0.03668 0.64735
 C1479 C 0.04909 0.01310 0.67486
 C1480 C 0.06743 0.02413 0.67903
 C1481 C 0.07834 0.02089 0.69732
 C1482 C 0.07122 0.00646 0.71185
 C1483 C 0.05295 -0.00467 0.70763
 C1484 C 0.04199 -0.00134 0.68940
 H1485 H 0.00947 -0.00952 0.61927
 H1486 H 0.02313 0.05570 0.62355
 H1487 H 0.09223 0.02988 0.70018
 H1488 H 0.04718 -0.01610 0.71835
 H1489 H 0.04241 0.04981 0.65519
 H1490 H 0.07349 0.03518 0.66806
 H1491 H 0.02915 -0.01548 0.65067
 H1492 H 0.02779 -0.00993 0.68682
 C1493 C 0.53715 0.51395 0.15485
 C1494 C 0.52749 0.49755 0.14426
 C1495 C 0.51626 0.50117 0.12623
 C1496 C 0.51455 0.52124 0.11829
 C1497 C 0.52424 0.53762 0.12882
 C1498 C 0.53534 0.53403 0.14692
 C1499 C 0.54900 0.51017 0.17410
 C1500 C 0.56734 0.52122 0.17823
 C1501 C 0.57828 0.51799 0.19649
 C1502 C 0.57124 0.50353 0.21103
 C1503 C 0.55303 0.49231 0.20681
 C1504 C 0.54201 0.49562 0.18860
 H1505 H 0.50919 0.48817 0.11837
 H1506 H 0.52300 0.55331 0.12331
 H1507 H 0.59210 0.52708 0.19936
 H1508 H 0.54732 0.48086 0.21756
 H1509 H 0.54223 0.54707 0.15489
 H1510 H 0.57333 0.53233 0.16729
 H1511 H 0.52885 0.48185 0.14974
 H1512 H 0.52784 0.48700 0.18602
 C1513 C 0.46165 -0.01497 0.15620
 C1514 C 0.46237 -0.03486 0.14741
 C1515 C 0.47379 -0.03861 0.12944
 C1516 C 0.48500 -0.02261 0.11997
 C1517 C 0.48431 -0.00273 0.12869
 C1518 C 0.47267 0.00108 0.14652
 C1519 C 0.44970 -0.01109 0.17553
 C1520 C 0.45711 0.00287 0.19050
 C1521 C 0.44614 0.00613 0.20885
 C1522 C 0.42760 -0.00465 0.21282
 C1523 C 0.42011 -0.01848 0.19779
 C1524 C 0.43095 -0.02157 0.17934
 H1525 H 0.47423 -0.05416 0.12326
 H1526 H 0.49258 0.00997 0.12160
 H1527 H 0.45221 0.01715 0.21991
 H1528 H 0.40603 -0.02723 0.20040
 H1529 H 0.47217 0.01667 0.15260
 H1530 H 0.47160 0.01103 0.18824
 H1531 H 0.45444 -0.04770 0.15464
 H1532 H 0.42458 -0.03218 0.16805
 C1533 C 0.96137 0.48479 0.65524
 C1534 C 0.96220 0.46491 0.64642
 C1535 C 0.97385 0.46121 0.62859
 C1536 C 0.98515 0.47723 0.61927
 C1537 C 0.98435 0.49710 0.62802
 C1538 C 0.97251 0.50086 0.64573
 C1539 C 0.94919 0.48861 0.67442
 C1540 C 0.95652 0.50238 0.68959
 C1541 C 0.94536 0.50557 0.70783
 C1542 C 0.92669 0.49491 0.71148
 C1543 C 0.91926 0.48128 0.69624
 C1544 C 0.93032 0.47824 0.67791
 H1545 H 0.97436 0.44567 0.62239
 H1546 H 0.99268 0.50982 0.62105
 H1547 H 0.95139 0.51644 0.71907
 H1548 H 0.90506 0.47264 0.69861
 H1549 H 0.97193 0.51643 0.65186
 H1550 H 0.97111 0.51046 0.68756
 H1551 H 0.95418 0.45207 0.65352
 H1552 H 0.92402 0.46777 0.66645
 C1553 C 0.96185 0.51481 0.84443
 C1554 C 0.96278 0.53464 0.85334
 C1555 C 0.97445 0.53826 0.87112
 C1556 C 0.98569 0.52220 0.88028
 C1557 C 0.98480 0.50238 0.87142
 C1558 C 0.97292 0.49869 0.85377
 C1559 C 0.94962 0.51108 0.82532
 C1560 C 0.95682 0.49735 0.81004
 C1561 C 0.94559 0.49423 0.79188
 C1562 C 0.92697 0.50491 0.78843
 C1563 C 0.91969 0.51852 0.80378
 C1564 C 0.93081 0.52148 0.82202
 H1565 H 0.97504 0.55377 0.87739
 H1566 H 0.99309 0.48963 0.87827
 H1567 H 0.95150 0.48339 0.78056
 H1568 H 0.90554 0.52719 0.80156
 H1569 H 0.97227 0.48315 0.84757
 H1570 H 0.97136 0.48925 0.81191
 H1571 H 0.95481 0.54752 0.84636
 H1572 H 0.92461 0.53192 0.83357
 C1573 C 0.46354 0.01614 0.34586
 C1574 C 0.47660 0.00076 0.35386
 C1575 C 0.48859 0.00459 0.37140
 C1576 C 0.48748 0.02370 0.38162
 C1577 C 0.47416 0.03894 0.37399
 C1578 C 0.46249 0.03530 0.35620
 C1579 C 0.45133 0.01236 0.32668
 C1580 C 0.43180 0.02157 0.32393
 C1581 C 0.42068 0.01853 0.30569
 C1582 C 0.42856 0.00586 0.28983
 C1583 C 0.44791 -0.00367 0.29275
 C1584 C 0.45922 -0.00031 0.31081
 H1585 H 0.49855 -0.00752 0.37712
 H1586 H 0.47319 0.05391 0.38144
 H1587 H 0.40600 0.02639 0.30395
 H1588 H 0.45436 -0.01384 0.28111
 H1589 H 0.45300 0.04770 0.35034
 H1590 H 0.42499 0.03112 0.33588
 H1591 H 0.47749 -0.01434 0.34670
 H1592 H 0.47431 -0.00744 0.31214
   
