data_POSCAR
  _audit_creation_date              2014-09-24
  _audit_creation_method            'ToBaCCo'
  _symmetry_space_group_name_H-M    'P1'
  _symmetry_Int_Tables_number       1
  _symmetry_cell_setting            triclinic
  loop_
  _symmetry_equiv_pos_as_xyz
 x,y,z
_cell_length_a 67.3329
_cell_length_b 67.2345
_cell_length_c 67.3536
_cell_angle_alpha 90.014500
_cell_angle_beta 89.998300
_cell_angle_gamma 89.972600
loop_
  _atom_site_label
  _atom_site_type_symbol
  _atom_site_fract_x
  _atom_site_fract_y
  _atom_site_fract_z
C1 C 0.34160 1.36781 0.34132
 C2 C 0.35019 1.37620 0.32430
 C3 C 0.36718 1.36769 0.31531
 C4 C 0.37552 1.35056 0.32423
 C5 C 0.36710 1.34208 0.34131
 C6 C 0.35007 1.35073 0.34987
 C7 C 0.32460 1.37634 0.34987
 C8 C 0.31557 1.36798 0.36690
 C9 C 0.32442 1.35084 0.37531
 C10 C 0.34144 1.34222 0.36692
 C11 C 0.34977 1.32497 0.37517
 C12 C 0.36664 1.31610 0.36663
 C13 C 0.37527 1.32483 0.34973
 H14 H 0.34381 1.38980 0.31854
 H15 H 0.38804 1.34305 0.31749
 H16 H 0.31890 1.38993 0.34342
 H17 H 0.31764 1.34343 0.38785
 H18 H 0.34318 1.31849 0.38835
 H19 H 0.38812 1.31794 0.34289
 C20 C 0.34144 0.86741 0.84127
 C21 C 0.35010 0.87561 0.82418
 C22 C 0.36696 0.86683 0.81550
 C23 C 0.37526 0.84976 0.82427
 C24 C 0.36681 0.84144 0.84139
 C25 C 0.34983 0.85030 0.84993
 C26 C 0.32443 0.87602 0.84969
 C27 C 0.31538 0.86781 0.86679
 C28 C 0.32417 0.85070 0.87533
 C29 C 0.34115 0.84194 0.86702
 C30 C 0.34942 0.82471 0.87540
 C31 C 0.36627 0.81571 0.86693
 C32 C 0.37493 0.82426 0.84996
 H33 H 0.34343 0.88859 0.81734
 H34 H 0.38838 0.84301 0.81782
 H35 H 0.31878 0.88957 0.84313
 H36 H 0.31736 0.84340 0.88792
 H37 H 0.34279 0.81835 0.88862
 H38 H 0.38775 0.81727 0.84316
 C39 C 0.84063 1.36678 0.84017
 C40 C 0.84922 1.37520 0.82317
 C41 C 0.86626 1.36674 0.81422
 C42 C 0.87462 1.34960 0.82314
 C43 C 0.86617 1.34106 0.84018
 C44 C 0.84910 1.34965 0.84871
 C45 C 0.82360 1.37524 0.84870
 C46 C 0.81476 1.36669 0.86558
 C47 C 0.82334 1.34961 0.87405
 C48 C 0.84040 1.34102 0.86571
 C49 C 0.84876 1.32380 0.87397
 C50 C 0.86570 1.31501 0.86546
 C51 C 0.87435 1.32381 0.84860
 H52 H 0.84282 1.38879 0.81744
 H53 H 0.88718 1.34214 0.81643
 H54 H 0.81722 1.38854 0.84222
 H55 H 0.81647 1.34274 0.88689
 H56 H 0.84213 1.31728 0.88711
 H57 H 0.88725 1.31698 0.84179
 C58 C 0.84093 0.86701 0.34082
 C59 C 0.84942 0.87554 0.32382
 C60 C 0.86648 0.86720 0.31479
 C61 C 0.87492 0.85004 0.32359
 C62 C 0.86656 0.84138 0.34060
 C63 C 0.84948 0.84985 0.34922
 C64 C 0.82387 0.87534 0.34945
 C65 C 0.81512 0.86664 0.36630
 C66 C 0.82379 0.84953 0.37461
 C67 C 0.84085 0.84107 0.36617
 C68 C 0.84931 0.82385 0.37433
 C69 C 0.86625 0.81517 0.36571
 C70 C 0.87483 0.82410 0.34889
 H71 H 0.84294 0.88913 0.31816
 H72 H 0.88748 0.84266 0.31681
 H73 H 0.81711 0.88836 0.34277
 H74 H 0.81728 0.84284 0.38773
 H75 H 0.84274 0.81723 0.38745
 H76 H 0.88773 0.81735 0.34200
 C77 C 0.65863 0.63326 0.34060
 C78 C 0.64999 0.62502 0.32352
 C79 C 0.63300 0.63367 0.31465
 C80 C 0.62479 0.65081 0.32369
 C81 C 0.63328 0.65916 0.34079
 C82 C 0.65027 0.65039 0.34927
 C83 C 0.67574 0.62476 0.34896
 C84 C 0.68462 0.63316 0.36591
 C85 C 0.67607 0.65016 0.37456
 C86 C 0.65901 0.65885 0.36633
 C87 C 0.65070 0.67600 0.37478
 C88 C 0.63375 0.68488 0.36639
 C89 C 0.62508 0.67629 0.34944
 H90 H 0.65728 0.61239 0.31673
 H91 H 0.61132 0.65746 0.31797
 H92 H 0.68211 0.61152 0.34234
 H93 H 0.68297 0.65691 0.38745
 H94 H 0.65735 0.68239 0.38797
 H95 H 0.61219 0.68321 0.34271
 C96 C 0.65911 0.13256 0.84187
 C97 C 0.65072 0.12419 0.82472
 C98 C 0.63387 0.13275 0.81582
 C99 C 0.62533 0.14981 0.82439
 C100 C 0.63356 0.15836 0.84151
 C101 C 0.65056 0.14974 0.85025
 C102 C 0.67611 0.12415 0.85053
 C103 C 0.68501 0.13269 0.86756
 C104 C 0.67607 0.14986 0.87579
 C105 C 0.65909 0.15839 0.86726
 C106 C 0.65056 0.17557 0.87548
 C107 C 0.63370 0.18435 0.86681
 C108 C 0.62524 0.17558 0.84985
 H109 H 0.65725 0.11090 0.81835
 H110 H 0.61251 0.15668 0.81748
 H111 H 0.68282 0.11149 0.84323
 H112 H 0.68180 0.15642 0.88930
 H113 H 0.65702 0.18210 0.88870
 H114 H 0.61242 0.18239 0.84289
 C115 C 1.15858 0.63252 0.84113
 C116 C 1.15002 0.62441 0.82394
 C117 C 1.13318 0.63321 0.81525
 C118 C 1.12480 0.65020 0.82409
 C119 C 1.13315 0.65844 0.84130
 C120 C 1.15011 0.64956 0.84986
 C121 C 1.17558 0.62391 0.84958
 C122 C 1.18451 0.63204 0.86678
 C123 C 1.17564 0.64908 0.87539
 C124 C 1.15867 0.65784 0.86705
 C125 C 1.15034 0.67500 0.87550
 C126 C 1.13351 0.68402 0.86701
 C127 C 1.12494 0.67555 0.84995
 H128 H 1.15675 0.61148 0.81705
 H129 H 1.11169 0.65696 0.81763
 H130 H 1.18130 0.61042 0.84295
 H131 H 1.18237 0.65632 0.88806
 H132 H 1.15688 0.68130 0.88879
 H133 H 1.11214 0.68255 0.84313
 C134 C 1.15909 0.13266 0.34106
 C135 C 1.15061 0.12422 0.32399
 C136 C 1.13354 0.13257 0.31500
 C137 C 1.12509 0.14967 0.32389
 C138 C 1.13345 0.15826 0.34093
 C139 C 1.15055 0.14977 0.34950
 C140 C 1.17617 0.12430 0.34964
 C141 C 1.18518 0.13288 0.36658
 C142 C 1.17625 0.15003 0.37486
 C143 C 1.15918 0.15849 0.36644
 C144 C 1.15067 0.17564 0.37471
 C145 C 1.13371 0.18434 0.36616
 C146 C 1.12515 0.17549 0.34930
 H147 H 1.15709 0.11065 0.31826
 H148 H 1.11251 0.15708 0.31714
 H149 H 1.18288 0.11165 0.34231
 H150 H 1.18206 0.15663 0.38831
 H151 H 1.15722 0.18221 0.38787
 H152 H 1.11224 0.18225 0.34245
 C153 C 0.65918 1.36730 0.65904
 C154 C 0.65064 1.37557 0.67618
 C155 C 0.63375 1.36691 0.68491
 C156 C 0.62528 1.34994 0.67613
 C157 C 0.63363 1.34155 0.65900
 C158 C 0.65063 1.35027 0.65039
 C159 C 0.67623 1.37575 0.65057
 C160 C 0.68516 1.36745 0.63344
 C161 C 0.67621 1.35043 0.62491
 C162 C 0.65915 1.34184 0.63325
 C163 C 0.65073 1.32467 0.62490
 C164 C 0.63387 1.31581 0.63346
 C165 C 0.62534 1.32444 0.65046
 H166 H 0.65743 1.38848 0.68302
 H167 H 0.61213 1.34330 0.68261
 H168 H 0.68202 1.38925 0.65713
 H169 H 0.68291 1.34307 0.61229
 H170 H 0.65755 1.31795 0.61195
 H171 H 0.61219 1.31787 0.65702
 C172 C 0.65910 0.86681 1.15965
 C173 C 0.65050 0.87512 1.17671
 C174 C 0.63345 0.86660 1.18559
 C175 C 0.62515 0.84951 1.17656
 C176 C 0.63360 0.84109 1.15947
 C177 C 0.65065 0.84973 1.15099
 C178 C 0.67626 0.87518 1.15128
 C179 C 0.68509 0.86672 1.13434
 C180 C 0.67645 0.84976 1.12570
 C181 C 0.65934 0.84120 1.13393
 C182 C 0.65092 0.82410 1.12549
 C183 C 0.63391 0.81534 1.13388
 C184 C 0.62529 0.82401 1.15082
 H185 H 0.65786 0.88771 1.18350
 H186 H 0.61163 0.84296 1.18228
 H187 H 0.68270 0.88839 1.15789
 H188 H 0.68330 0.84296 1.11281
 H189 H 0.65754 0.81766 1.11230
 H190 H 0.61236 0.81718 1.15756
 C191 C 1.15855 1.36735 1.15842
 C192 C 1.14996 1.37551 1.17557
 C193 C 1.13302 1.36682 1.18417
 C194 C 1.12457 1.34991 1.17526
 C195 C 1.13295 1.34163 1.15808
 C196 C 1.15001 1.35038 1.14962
 C197 C 1.17565 1.37583 1.15007
 C198 C 1.18464 1.36764 1.13292
 C199 C 1.17570 1.35069 1.12424
 C200 C 1.15862 1.34205 1.13247
 C201 C 1.15021 1.32496 1.12396
 C202 C 1.13328 1.31607 1.13237
 C203 C 1.12468 1.32459 1.14938
 H204 H 1.15675 1.38836 1.18252
 H205 H 1.11138 1.34324 1.18165
 H206 H 1.18143 1.38928 1.15675
 H207 H 1.18245 1.34341 1.11160
 H208 H 1.15679 1.31862 1.11071
 H209 H 1.11180 1.31768 1.15614
 C210 C 1.15953 0.86651 0.65888
 C211 C 1.15115 0.87468 0.67614
 C212 C 1.13426 0.86604 0.68491
 C213 C 1.12569 0.84915 0.67609
 C214 C 1.13390 0.84080 0.65888
 C215 C 1.15093 0.84947 0.65027
 C216 C 1.17660 0.87492 0.65037
 C217 C 1.18549 0.86656 0.63324
 C218 C 1.17647 0.84956 0.62475
 C219 C 1.15944 0.84100 0.63315
 C220 C 1.15085 0.82399 0.62468
 C221 C 1.13394 0.81519 0.63320
 C222 C 1.12550 0.82376 0.65028
 H223 H 1.15801 0.88755 0.68299
 H224 H 1.11252 0.84254 0.68260
 H225 H 1.18336 0.88745 0.65785
 H226 H 1.18218 0.84315 0.61116
 H227 H 1.15731 0.81760 0.61138
 H228 H 1.11264 0.81692 0.65713
 C229 C 0.34076 0.63339 0.65908
 C230 C 0.34918 0.62505 0.67621
 C231 C 0.36612 0.63358 0.68499
 C232 C 0.37470 0.65055 0.67629
 C233 C 0.36644 0.65906 0.65917
 C234 C 0.34938 0.65049 0.65054
 C235 C 0.32364 0.62510 0.65056
 C236 C 0.31497 0.63370 0.63360
 C237 C 0.32375 0.65065 0.62510
 C238 C 0.34083 0.65913 0.63348
 C239 C 0.34938 0.67622 0.62517
 C240 C 0.36633 0.68493 0.63374
 C241 C 0.37483 0.67617 0.65069
 H242 H 0.34230 0.61215 0.68297
 H243 H 0.38789 0.65708 0.68282
 H244 H 0.31682 0.61220 0.65737
 H245 H 0.31731 0.65723 0.61189
 H246 H 0.34287 0.68273 0.61196
 H247 H 0.38771 0.68294 0.65757
 C248 C 0.34090 0.13286 1.15941
 C249 C 0.34942 0.12432 1.17639
 C250 C 0.36653 0.13261 1.18535
 C251 C 0.37501 0.14970 1.17647
 C252 C 0.36661 0.15836 1.15947
 C253 C 0.34950 0.14993 1.15090
 C254 C 0.32380 0.12457 1.15085
 C255 C 0.31504 0.13324 1.13399
 C256 C 0.32375 0.15026 1.12556
 C257 C 0.34090 0.15866 1.13390
 C258 C 0.34939 0.17584 1.12569
 C259 C 0.36638 0.18446 1.13426
 C260 C 0.37493 0.17556 1.15111
 H261 H 0.34290 0.11078 1.18211
 H262 H 0.38762 0.15705 1.18320
 H263 H 0.31731 0.11131 1.15730
 H264 H 0.31695 0.15721 1.11273
 H265 H 0.34254 0.18275 1.11287
 H266 H 0.38817 0.18197 1.15765
 C267 C 0.84104 0.63260 1.15830
 C268 C 0.84941 0.62405 1.17534
 C269 C 0.86635 0.63243 1.18424
 C270 C 0.87500 0.64947 1.17576
 C271 C 0.86680 0.65820 1.15871
 C272 C 0.84973 0.64977 1.14996
 C273 C 0.82396 0.62441 1.14962
 C274 C 0.81534 0.63321 1.13274
 C275 C 0.82415 0.65025 1.12446
 C276 C 0.84123 0.65861 1.13298
 C277 C 0.84981 0.67579 1.12489
 C278 C 0.86674 0.68439 1.13360
 C279 C 0.87519 0.67542 1.15047
 H280 H 0.84279 0.61078 1.18164
 H281 H 0.88788 0.65621 1.18269
 H282 H 0.81710 0.61145 1.15628
 H283 H 0.81774 0.65700 1.11132
 H284 H 0.84333 0.68246 1.11174
 H285 H 0.88808 0.68210 1.15745
 C286 C 0.84103 0.13310 0.65915
 C287 C 0.84953 0.12470 0.67624
 C288 C 0.86652 0.13317 0.68528
 C289 C 0.87489 0.15030 0.67640
 C290 C 0.86652 0.15883 0.65934
 C291 C 0.84950 0.15024 0.65072
 C292 C 0.82389 0.12478 0.65066
 C293 C 0.81485 0.13332 0.63371
 C294 C 0.82378 0.15044 0.62538
 C295 C 0.84086 0.15891 0.63376
 C296 C 0.84937 0.17602 0.62543
 C297 C 0.86634 0.18472 0.63393
 C298 C 0.87488 0.17595 0.65085
 H299 H 0.84214 0.11208 0.68291
 H300 H 0.88838 0.15680 0.68222
 H301 H 0.81720 0.11215 0.65802
 H302 H 0.81796 0.15699 0.61191
 H303 H 0.84282 0.18255 0.61225
 H304 H 0.88779 0.18273 0.65768
 C305 C 1.36718 0.34197 0.65898
 C306 C 1.37543 0.35065 0.67605
 C307 C 1.36678 0.36763 0.68498
 C308 C 1.34962 0.37580 0.67601
 C309 C 1.34129 0.36731 0.65891
 C310 C 1.35009 0.35032 0.65037
 C311 C 1.37572 0.32488 0.65058
 C312 C 1.36749 0.31579 0.63351
 C313 C 1.35041 0.32459 0.62498
 C314 C 1.34171 0.34163 0.63329
 C315 C 1.32452 0.34992 0.62490
 C316 C 1.31559 0.36683 0.63335
 C317 C 1.32416 0.37549 0.65030
 H318 H 1.38807 0.34337 0.68281
 H319 H 1.34295 0.38926 0.68178
 H320 H 1.38927 0.31921 0.65712
 H321 H 1.34310 0.31776 0.61241
 H322 H 1.31814 0.34328 0.61169
 H323 H 1.31721 0.38836 0.65709
 C324 C 1.36699 0.84123 1.15891
 C325 C 1.37537 0.84962 1.17605
 C326 C 1.36687 0.86653 1.18494
 C327 C 1.34987 0.87514 1.17637
 C328 C 1.34131 0.86690 1.15926
 C329 C 1.34986 0.84984 1.15054
 C330 C 1.37532 0.82416 1.15026
 C331 C 1.36675 0.81525 1.13326
 C332 C 1.34964 0.82426 1.12502
 C333 C 1.34118 0.84131 1.13354
 C334 C 1.32406 0.84989 1.12532
 C335 C 1.31534 0.86681 1.13398
 C336 C 1.32414 0.87528 1.15093
 H337 H 1.38862 0.84305 1.18242
 H338 H 1.34305 0.88800 1.18328
 H339 H 1.38794 0.81741 1.15757
 H340 H 1.34306 0.81852 1.11153
 H341 H 1.31751 0.84342 1.11211
 H342 H 1.31737 0.88815 1.15788
 C343 C 0.86694 0.34122 1.15824
 C344 C 0.87530 0.34956 1.17541
 C345 C 0.86676 0.36642 1.18437
 C346 C 0.84975 0.37502 1.17582
 C347 C 0.84121 0.36683 1.15867
 C348 C 0.84980 0.34982 1.14989
 C349 C 0.87532 0.32420 1.14955
 C350 C 0.86679 0.31532 1.13251
 C351 C 0.84965 0.32431 1.12429
 C352 C 0.84115 0.34132 1.13286
 C353 C 0.82402 0.34990 1.12466
 C354 C 0.81527 0.36677 1.13337
 C355 C 0.82403 0.37520 1.15035
 H356 H 0.88856 0.34299 1.18177
 H357 H 0.84290 0.38785 1.18276
 H358 H 0.88795 0.31745 1.15684
 H359 H 0.84309 0.31860 1.11078
 H360 H 0.81748 0.34345 1.11143
 H361 H 0.81723 0.38803 1.15734
 C362 C 0.86701 0.84120 0.65857
 C363 C 0.87539 0.84954 0.67571
 C364 C 0.86689 0.86644 0.68463
 C365 C 0.84991 0.87509 0.67605
 C366 C 0.84135 0.86692 0.65890
 C367 C 0.84990 0.84988 0.65014
 C368 C 0.87531 0.82415 0.64988
 C369 C 0.86669 0.81555 0.63291
 C370 C 0.84970 0.82437 0.62453
 C371 C 0.84123 0.84141 0.63306
 C372 C 0.82410 0.84998 0.62488
 C373 C 0.81539 0.86688 0.63360
 C374 C 0.82419 0.87531 0.65057
 H375 H 0.88862 0.84292 0.68208
 H376 H 0.84309 0.88794 0.68299
 H377 H 0.88824 0.81729 0.65661
 H378 H 0.84309 0.81798 0.61132
 H379 H 0.81756 0.84353 0.61166
 H380 H 0.81741 0.88816 0.65755
 C381 C 0.63353 0.65908 0.65925
 C382 C 0.62516 0.65064 0.67637
 C383 C 0.63364 0.63365 0.68512
 C384 C 0.65057 0.62501 0.67642
 C385 C 0.65912 0.63330 0.65934
 C386 C 0.65059 0.65040 0.65071
 C387 C 0.62529 0.67624 0.65074
 C388 C 0.63390 0.68492 0.63380
 C389 C 0.65083 0.67608 0.62529
 C390 C 0.65923 0.65893 0.63364
 C391 C 0.67629 0.65031 0.62532
 C392 C 0.68494 0.63331 0.63389
 C393 C 0.67617 0.62485 0.65086
 H394 H 0.61229 0.65757 0.68313
 H395 H 0.65705 0.61178 0.68293
 H396 H 0.61242 0.68311 0.65756
 H397 H 0.65741 0.68253 0.61209
 H398 H 0.68311 0.65712 0.61242
 H399 H 0.68261 0.61162 0.65743
 C400 C 0.63357 1.15887 1.15928
 C401 C 0.62527 1.15019 1.17631
 C402 C 0.63394 1.13325 1.18498
 C403 C 0.65099 1.12490 1.17626
 C404 C 0.65943 1.13340 1.15923
 C405 C 0.65067 1.15044 1.15067
 C406 C 0.62508 1.17596 1.15086
 C407 C 0.63339 1.18503 1.13382
 C408 C 0.65048 1.17619 1.12533
 C409 C 0.65912 1.15911 1.13362
 C410 C 0.67634 1.15079 1.12530
 C411 C 0.68523 1.13388 1.13380
 C412 C 0.67658 1.12522 1.15071
 H413 H 0.61230 1.15690 1.18311
 H414 H 0.65765 1.11172 1.18270
 H415 H 0.61152 1.18164 1.15738
 H416 H 0.65785 1.18301 1.11278
 H417 H 0.68307 1.15771 1.11242
 H418 H 0.68318 1.11203 1.15722
 C419 C 0.13253 0.65847 1.15872
 C420 C 0.12399 0.64989 1.17568
 C421 C 0.13231 0.63280 1.18468
 C422 C 0.14942 0.62436 1.17584
 C423 C 0.15806 0.63278 1.15885
 C424 C 0.14958 0.64989 1.15025
 C425 C 0.12419 0.67557 1.15017
 C426 C 0.13271 0.68460 1.13322
 C427 C 0.14981 0.67564 1.12488
 C428 C 0.15824 0.65850 1.13326
 C429 C 0.17547 0.65004 1.12509
 C430 C 0.18415 0.63308 1.13368
 C431 C 0.17528 0.62450 1.15052
 H432 H 0.11042 0.65636 1.18137
 H433 H 0.15679 0.61176 1.18259
 H434 H 0.11060 0.68134 1.15654
 H435 H 0.15732 0.68240 1.11239
 H436 H 0.18236 0.65692 1.11227
 H437 H 0.18173 0.61127 1.15708
 C438 C 0.13245 1.15818 0.65877
 C439 C 0.12395 1.14964 0.67575
 C440 C 0.13230 1.13256 0.68474
 C441 C 0.14940 1.12411 0.67588
 C442 C 0.15804 1.13253 0.65888
 C443 C 0.14955 1.14963 0.65029
 C444 C 0.12411 1.17528 0.65021
 C445 C 0.13276 1.18409 0.63337
 C446 C 0.14980 1.17542 0.62495
 C447 C 0.15825 1.15828 0.63330
 C448 C 0.17546 1.14984 0.62511
 C449 C 0.18414 1.13287 0.63370
 C450 C 0.17527 1.12427 0.65054
 H451 H 0.11038 1.15611 0.68144
 H452 H 0.15679 1.11152 0.68263
 H453 H 0.11083 1.18173 0.65665
 H454 H 0.15674 1.18227 0.61214
 H455 H 0.18234 1.15674 0.61230
 H456 H 0.18173 1.11104 0.65710
 C457 C 1.36639 0.65971 0.34054
 C458 C 1.37479 0.65118 0.32348
 C459 C 1.36640 0.63411 0.31448
 C460 C 1.34934 0.62568 0.32341
 C461 C 1.34085 0.63405 0.34051
 C462 C 1.34940 0.65113 0.34910
 C463 C 1.37482 0.67676 0.34912
 C464 C 1.36645 0.68571 0.36621
 C465 C 1.34939 0.67676 0.37460
 C466 C 1.34086 0.65969 0.36617
 C467 C 1.32369 0.65124 0.37443
 C468 C 1.31493 0.63432 0.36586
 C469 C 1.32368 0.62576 0.34893
 H470 H 1.38833 0.65764 0.31771
 H471 H 1.34191 0.61312 0.31667
 H472 H 1.38835 0.68254 0.34267
 H473 H 1.34197 0.68347 0.38718
 H474 H 1.31720 0.65778 0.38764
 H475 H 1.31688 0.61287 0.34207
 C476 C 1.36701 1.15832 0.84176
 C477 C 1.37524 1.14981 0.82460
 C478 C 1.36661 1.13289 0.81586
 C479 C 1.34965 1.12440 0.82461
 C480 C 1.34125 1.13276 0.84173
 C481 C 1.34991 1.14982 0.85031
 C482 C 1.37541 1.17544 0.85023
 C483 C 1.36699 1.18447 0.86725
 C484 C 1.34993 1.17555 0.87567
 C485 C 1.34138 1.15847 0.86732
 C486 C 1.32430 1.14998 0.87572
 C487 C 1.31550 1.13303 0.86722
 C488 C 1.32415 1.12446 0.85026
 H489 H 1.38815 1.15660 0.81779
 H490 H 1.34305 1.11121 0.81813
 H491 H 1.38800 1.18212 0.84279
 H492 H 1.34347 1.18138 0.88919
 H493 H 1.31785 1.15655 0.88894
 H494 H 1.31731 1.11157 0.84342
 C495 C 0.86637 0.65897 0.84080
 C496 C 0.87472 0.65056 0.82367
 C497 C 0.86615 0.63369 0.81477
 C498 C 0.84913 0.62514 0.82335
 C499 C 0.84060 0.63338 0.84049
 C500 C 0.84922 0.65038 0.84924
 C501 C 0.87475 0.67598 0.84948
 C502 C 0.86616 0.68463 0.86645
 C503 C 0.84913 0.67591 0.87483
 C504 C 0.84058 0.65891 0.86631
 C505 C 0.82342 0.65043 0.87451
 C506 C 0.81465 0.63357 0.86581
 C507 C 0.82340 0.62508 0.84884
 H508 H 0.88798 0.65710 0.81730
 H509 H 0.84226 0.61231 0.81644
 H510 H 0.88770 0.68276 0.84275
 H511 H 0.84255 0.68234 0.88804
 H512 H 0.81692 0.65692 0.88773
 H513 H 0.81659 0.61225 0.84188
 C514 C 0.86745 1.15776 0.34121
 C515 C 0.87572 1.14902 0.32419
 C516 C 0.86706 1.13203 0.31531
 C517 C 0.84987 1.12392 0.32428
 C518 C 0.84149 1.13250 0.34133
 C519 C 0.85028 1.14950 0.34981
 C520 C 0.87597 1.17487 0.34956
 C521 C 0.86755 1.18385 0.36645
 C522 C 0.85050 1.17540 0.37505
 C523 C 0.84179 1.15833 0.36682
 C524 C 0.82459 1.15011 0.37521
 C525 C 0.81570 1.13316 0.36681
 C526 C 0.82432 1.12439 0.34992
 H527 H 0.88838 1.15626 0.31744
 H528 H 0.84320 1.11045 0.31855
 H529 H 0.88925 1.18116 0.34299
 H530 H 0.84374 1.18237 0.38789
 H531 H 0.81818 1.15684 0.38836
 H532 H 0.81738 1.11151 0.34318
 C533 C 0.63257 0.34211 0.34109
 C534 C 0.62425 0.35079 0.32407
 C535 C 0.63290 0.36775 0.31512
 C536 C 0.65010 0.37590 0.32404
 C537 C 0.65854 0.36735 0.34105
 C538 C 0.64977 0.35040 0.34962
 C539 C 0.62408 0.32502 0.34951
 C540 C 0.63256 0.31609 0.36638
 C541 C 0.64964 0.32457 0.37492
 C542 C 0.65830 0.34164 0.36665
 C543 C 0.67553 0.34989 0.37495
 C544 C 0.68442 0.36679 0.36645
 C545 C 0.67573 0.37549 0.34957
 H546 H 0.61157 0.34354 0.31737
 H547 H 0.65675 0.38936 0.31826
 H548 H 0.61078 0.31872 0.34299
 H549 H 0.65644 0.31764 0.38775
 H550 H 0.68228 0.34290 0.38780
 H551 H 0.68236 0.38866 0.34307
 C552 C 0.63355 0.84112 0.84088
 C553 C 0.62535 0.84969 0.82377
 C554 C 0.63405 0.86659 0.81507
 C555 C 0.65102 0.87503 0.82386
 C556 C 0.65937 0.86664 0.84102
 C557 C 0.65063 0.84960 0.84955
 C558 C 0.62504 0.82409 0.84934
 C559 C 0.63342 0.81528 0.86632
 C560 C 0.65039 0.82387 0.87495
 C561 C 0.65907 0.84092 0.86666
 C562 C 0.67621 0.84928 0.87504
 C563 C 0.68510 0.86618 0.86655
 C564 C 0.67652 0.87482 0.84958
 H565 H 0.61213 0.84324 0.81723
 H566 H 0.65799 0.88788 0.81710
 H567 H 0.61182 0.81770 0.84273
 H568 H 0.65713 0.81702 0.88787
 H569 H 0.68259 0.84267 0.88826
 H570 H 0.68343 0.88768 0.84277
 C571 C 0.13330 0.34076 0.84058
 C572 C 0.12506 0.34936 0.82348
 C573 C 0.13375 0.36624 0.81475
 C574 C 0.15075 0.37464 0.82349
 C575 C 0.15913 0.36624 0.84061
 C576 C 0.15036 0.34924 0.84921
 C577 C 0.12475 0.32376 0.84906
 C578 C 0.13300 0.31474 0.86616
 C579 C 0.15007 0.32360 0.87467
 C580 C 0.15873 0.34064 0.86634
 C581 C 0.17593 0.34898 0.87467
 C582 C 0.18487 0.36583 0.86612
 C583 C 0.17628 0.37442 0.84913
 H584 H 0.11181 0.34293 0.81697
 H585 H 0.15773 0.38748 0.81670
 H586 H 0.11121 0.31807 0.84253
 H587 H 0.15738 0.31683 0.88728
 H588 H 0.18261 0.34210 0.88761
 H589 H 0.18292 0.38755 0.84257
 C590 C 0.13381 0.84076 0.34085
 C591 C 0.12547 0.84921 0.32370
 C592 C 0.13396 0.86618 0.31463
 C593 C 0.15105 0.87457 0.32352
 C594 C 0.15954 0.86623 0.34061
 C595 C 0.15092 0.84924 0.34928
 C596 C 0.12546 0.82364 0.34939
 C597 C 0.13394 0.81466 0.36641
 C598 C 0.15103 0.82360 0.37474
 C599 C 0.15952 0.84067 0.36633
 C600 C 0.17660 0.84923 0.37466
 C601 C 0.18532 0.86617 0.36609
 C602 C 0.17661 0.87463 0.34911
 H603 H 0.11286 0.84181 0.31703
 H604 H 0.15756 0.88807 0.31768
 H605 H 0.11286 0.81692 0.34203
 H606 H 0.15754 0.81782 0.38824
 H607 H 0.18339 0.84243 0.38758
 H608 H 0.18310 0.88783 0.34253
 O609 O 1.07168 1.01976 1.09911
 O610 O 1.09479 1.01993 1.12231
 C611 C 1.07862 1.02663 1.11525
 C612 C 1.06797 1.04291 1.12559
 C613 C 1.07441 1.04970 1.14423
 H614 H 1.08708 1.04272 1.15129
 O615 O 0.92863 0.98067 1.09915
 O616 O 0.90554 0.98071 1.12237
 C617 C 0.92169 0.97392 1.11534
 C618 C 0.93232 0.95770 1.12579
 C619 C 0.92577 0.95092 1.14440
 H620 H 0.91303 0.95787 1.15137
 O621 O 1.01928 1.09930 1.07147
 O622 O 1.01925 1.12269 1.09444
 C623 C 1.02602 1.11555 1.07833
 C624 C 1.04222 1.12593 1.06766
 C625 C 1.04903 1.14459 1.07413
 H626 H 1.04212 1.15165 1.08683
 O627 O 0.98109 0.90103 1.07213
 O628 O 0.98111 0.87779 1.09523
 C629 C 0.97433 0.88483 1.07909
 C630 C 0.95810 0.87439 1.06851
 C631 C 0.95131 0.85578 1.07512
 H632 H 0.95826 0.84881 1.08785
 O633 O 1.09870 1.07178 1.01917
 O634 O 1.12190 1.09493 1.01908
 C635 C 1.11487 1.07878 1.02592
 C636 C 1.12530 1.06829 1.04221
 C637 C 1.14391 1.07492 1.04888
 H638 H 1.15110 1.08727 1.04147
 O639 O 0.90136 0.92808 1.01974
 O640 O 0.87818 0.90492 1.01982
 C641 C 0.88520 0.92112 1.02655
 C642 C 0.87479 0.93175 1.04277
 C643 C 0.85623 0.92514 1.04966
 H644 H 0.84926 0.91236 1.04277
 O645 O 0.98063 1.07211 1.09877
 O646 O 0.98054 1.09535 1.12188
 C647 C 0.97384 1.07911 1.11492
 C648 C 0.95770 1.06846 1.12541
 C649 C 0.95106 1.07495 1.14408
 H650 H 0.95836 1.08738 1.15126
 O651 O 1.01979 0.92833 1.09930
 O652 O 1.01987 0.90522 1.12253
 C653 C 1.02659 0.92140 1.11548
 C654 C 1.04279 0.93207 1.12589
 C655 C 1.04965 0.92549 1.14445
 H656 H 1.04279 0.91270 1.15141
 O657 O 1.09896 0.98094 1.07202
 O658 O 1.12223 0.98108 1.09506
 C659 C 1.11518 0.97423 1.07894
 C660 C 1.12565 0.95800 1.06836
 C661 C 1.14425 0.95122 1.07496
 H662 H 1.15119 0.95818 1.08770
 O663 O 0.90143 1.01937 1.07180
 O664 O 0.87822 1.01947 1.09490
 C665 C 0.88525 1.02619 1.07872
 C666 C 0.87481 1.04240 1.06808
 C667 C 0.85624 1.04923 1.07469
 H668 H 0.84909 1.04200 1.08716
 O669 O 0.92830 1.09887 1.01897
 O670 O 0.90512 1.12205 1.01894
 C671 C 0.92130 1.11507 1.02571
 C672 C 0.93186 1.12559 1.04190
 C673 C 0.92528 1.14427 1.04853
 H674 H 0.91289 1.15143 1.04116
 O675 O 1.07208 0.90122 1.01967
 O676 O 1.09525 0.87802 1.01975
 C677 C 1.07907 0.88505 1.02647
 C678 C 1.06850 0.87461 1.04269
 C679 C 1.07505 0.85594 1.04935
 H680 H 1.08742 0.84873 1.04199
 O681 O 0.92856 1.01948 1.09905
 O682 O 0.90548 1.01955 1.12228
 C683 C 0.92161 1.02631 1.11521
 C684 C 0.93220 1.04260 1.12558
 C685 C 0.92575 1.04931 1.14425
 H686 H 0.91314 1.04226 1.15132
 O687 O 1.07183 0.98094 1.09926
 O688 O 1.09496 0.98106 1.12244
 C689 C 1.07884 0.97420 1.11543
 C690 C 1.06835 0.95789 1.12585
 C691 C 1.07500 0.95110 1.14442
 H692 H 1.08738 0.95845 1.15160
 O693 O 1.01982 0.90111 1.07209
 O694 O 1.01990 0.87786 1.09518
 C695 C 1.02664 0.88491 1.07902
 C696 C 1.04285 0.87450 1.06838
 C697 C 1.04963 0.85583 1.07485
 H698 H 1.04269 0.84879 1.08754
 O699 O 0.98054 1.09920 1.07144
 O700 O 0.98046 1.12258 1.09441
 C701 C 0.97372 1.11543 1.07829
 C702 C 0.95750 1.12578 1.06761
 C703 C 0.95069 1.14446 1.07404
 H704 H 0.95760 1.15153 1.08673
 O705 O 0.90118 1.07157 1.01914
 O706 O 0.87788 1.09462 1.01911
 C707 C 0.88500 1.07851 1.02593
 C708 C 0.87466 1.06795 1.04225
 C709 C 0.85609 1.07457 1.04909
 H710 H 0.84907 1.08728 1.04211
 O711 O 1.09918 0.92855 1.01963
 O712 O 1.12246 0.90546 1.01973
 C713 C 1.11536 0.92164 1.02645
 C714 C 1.12572 0.93228 1.04269
 C715 C 1.14432 0.92573 1.04950
 H716 H 1.15155 0.91332 1.04222
 O717 O 0.98106 0.92835 1.09924
 O718 O 0.98107 0.90524 1.12247
 C719 C 0.97429 0.92140 1.11541
 C720 C 0.95803 0.93200 1.12580
 C721 C 0.95128 0.92545 1.14441
 H722 H 0.95861 0.91306 1.15162
 O723 O 1.01935 1.07219 1.09877
 O724 O 1.01931 1.09543 1.12188
 C725 C 1.02610 1.07923 1.11491
 C726 C 1.04232 1.06866 1.12540
 C727 C 1.04896 1.07523 1.14405
 H728 H 1.04162 1.08764 1.15121
 O729 O 0.90143 0.98058 1.07196
 O730 O 0.87821 0.98063 1.09506
 C731 C 0.88526 0.97380 1.07893
 C732 C 0.87485 0.95750 1.06841
 C733 C 0.85630 0.95070 1.07506
 H734 H 0.84913 0.95802 1.08747
 O735 O 1.09885 1.01972 1.07190
 O736 O 1.12211 1.01991 1.09495
 C737 C 1.11502 1.02658 1.07878
 C738 C 1.12539 1.04277 1.06806
 C739 C 1.14401 1.04962 1.07453
 H740 H 1.15102 1.04277 1.08729
 O741 O 0.92869 0.90095 1.01981
 O742 O 0.90563 0.87767 1.01989
 C743 C 0.92178 0.88476 1.02663
 C744 C 0.93238 0.87438 1.04288
 C745 C 0.92582 0.85577 1.04969
 H746 H 0.91341 0.84855 1.04242
 O747 O 1.07148 1.09902 1.01906
 O748 O 1.09457 1.12227 1.01897
 C749 C 1.07843 1.11524 1.02576
 C750 C 1.06786 1.12575 1.04196
 C751 C 1.07444 1.14441 1.04862
 H752 H 1.08683 1.15157 1.04126
 Cu753 Cu 1.08301 1.00033 1.08327
 Cu754 Cu 1.11085 1.00051 1.11102
 Cu755 Cu 0.91733 1.00002 1.08318
 Cu756 Cu 0.88953 1.00010 1.11097
 Cu757 Cu 0.99996 1.08338 1.08281
 Cu758 Cu 0.99988 1.11136 1.11047
 Cu759 Cu 1.00044 0.91702 1.08337
 Cu760 Cu 1.00049 0.88920 1.11118
 C761 C 1.05180 1.05237 1.11640
 H762 H 1.04692 1.04739 1.10190
 C763 C 1.06499 1.06584 1.15359
 C764 C 0.94857 0.94825 1.11671
 H765 H 0.95353 0.95321 1.10224
 C766 C 0.93516 0.93481 1.15383
 C767 C 1.05162 1.11674 1.05145
 H768 H 1.04664 1.10222 1.04656
 C769 C 1.06514 1.15395 1.06469
 C770 C 0.94865 0.88347 1.05227
 H771 H 0.95362 0.89795 1.04727
 C772 C 0.93518 0.84635 1.06580
 C773 C 1.11626 1.05209 1.05177
 H774 H 1.10178 1.04707 1.04687
 C775 C 1.15339 1.06569 1.06503
 C776 C 0.88388 0.94805 1.05214
 H777 H 0.89831 0.95305 1.04710
 C778 C 0.84687 0.93452 1.06580
 C779 C 0.94830 1.05216 1.11638
 H780 H 0.95317 1.04724 1.10186
 C781 C 0.93511 1.06546 1.15363
 C782 C 1.05212 0.94839 1.11681
 H783 H 1.04708 0.95337 1.10237
 C784 C 1.06575 0.93491 1.15385
 C785 C 1.11660 0.94854 1.05210
 H786 H 1.10213 0.95350 1.04711
 C787 C 1.15370 0.93509 1.06562
 C788 C 0.88381 1.05174 1.05173
 H789 H 0.89826 1.04674 1.04672
 C790 C 0.84676 1.06530 1.06530
 C791 C 0.94810 1.11657 1.05141
 H792 H 0.95309 1.10205 1.04654
 C793 C 0.93459 1.15382 1.06459
 C794 C 1.05228 0.88367 1.05218
 H795 H 1.04731 0.89819 1.04728
 C796 C 1.06572 0.84643 1.06542
 O797 O 1.07183 0.98018 0.90100
 O798 O 1.09493 0.98015 0.87779
 C799 C 1.07880 0.97334 0.88485
 C800 C 1.06827 0.95701 0.87451
 C801 C 1.07486 0.95013 0.85595
 H802 H 1.08756 0.95709 0.84894
 O803 O 0.92841 1.01885 0.90086
 O804 O 0.90529 1.01874 0.87768
 C805 C 0.92142 1.02559 0.88469
 C806 C 0.93194 1.04187 0.87424
 C807 C 0.92530 1.04868 0.85567
 H808 H 0.91258 1.04169 0.84872
 O809 O 0.98046 1.09879 0.92786
 O810 O 0.98042 1.12199 0.90472
 C811 C 0.97365 1.11496 0.92087
 C812 C 0.95736 1.12536 0.93143
 C813 C 0.95043 1.14391 0.92476
 H814 H 0.95732 1.15087 0.91199
 O815 O 1.01972 0.90064 0.92863
 O816 O 1.01978 0.87724 0.90569
 C817 C 1.02654 0.88441 0.92178
 C818 C 1.04280 0.87409 0.93244
 C819 C 1.04964 0.85543 0.92598
 H820 H 1.04271 0.84834 0.91331
 O821 O 1.09925 0.92838 0.98088
 O822 O 1.12254 0.90531 0.98095
 C823 C 1.11545 0.92144 0.97413
 C824 C 1.12583 0.93199 0.95785
 C825 C 1.14450 0.92550 0.95119
 H826 H 1.15178 0.91320 0.95860
 O827 O 0.90112 1.07140 0.98039
 O828 O 0.87779 1.09444 0.98033
 C829 C 0.88490 1.07826 0.97362
 C830 C 0.87450 1.06754 0.95745
 C831 C 0.85582 1.07395 0.95073
 H832 H 0.84876 1.08665 0.95767
 O833 O 1.01926 1.07149 0.90079
 O834 O 1.01927 1.09454 0.87750
 C835 C 1.02604 1.07838 0.88459
 C836 C 1.04225 1.06769 0.87420
 C837 C 1.04899 1.07413 0.85553
 H838 H 1.04203 1.08683 0.84849
 O839 O 0.98095 0.92768 0.90130
 O840 O 0.98096 0.90442 0.87821
 C841 C 0.97419 0.92063 0.88516
 C842 C 0.95796 0.93119 0.87469
 C843 C 0.95127 0.92458 0.85607
 H844 H 0.95861 0.91216 0.84892
 O845 O 1.09885 1.01914 0.92809
 O846 O 1.12209 1.01917 0.90502
 C847 C 1.11501 1.02595 0.92115
 C848 C 1.12539 1.04221 0.93176
 C849 C 1.14402 1.04899 0.92526
 H850 H 1.15104 1.04202 0.91256
 O851 O 0.90140 0.98007 0.92823
 O852 O 0.87814 0.97990 0.90517
 C853 C 0.88522 0.97322 0.92134
 C854 C 0.87483 0.95703 0.93205
 C855 C 0.85624 0.95017 0.92553
 H856 H 0.84925 0.95702 0.91276
 O857 O 1.07148 1.09885 0.98032
 O858 O 1.09456 1.12210 0.98023
 C859 C 1.07842 1.11503 0.97349
 C860 C 1.06784 1.12542 0.95723
 C861 C 1.07441 1.14404 0.95048
 H862 H 1.08678 1.15126 0.95780
 O863 O 0.92866 0.90081 0.98107
 O864 O 0.90560 0.87753 0.98112
 C865 C 0.92174 0.88458 0.97434
 C866 C 0.93232 0.87411 0.95812
 C867 C 0.92570 0.85549 0.95138
 H868 H 0.91328 0.84833 0.95869
 O869 O 0.92858 0.98005 0.90102
 O870 O 0.90546 0.97989 0.87783
 C871 C 0.92164 0.97318 0.88488
 C872 C 0.93229 0.95692 0.87452
 C873 C 0.92580 0.95009 0.85591
 H874 H 0.91310 0.95703 0.84887
 O875 O 1.07161 1.01898 0.90095
 O876 O 1.09472 1.01900 0.87774
 C877 C 1.07854 1.02575 0.88477
 C878 C 1.06792 1.04196 0.87432
 C879 C 1.07442 1.04859 0.85565
 H880 H 1.08678 1.04120 0.84846
 O881 O 0.98097 0.90059 0.92863
 O882 O 0.98098 0.87719 0.90567
 C883 C 0.97421 0.88434 0.92178
 C884 C 0.95798 0.87397 0.93243
 C885 C 0.95113 0.85535 0.92589
 H886 H 0.95803 0.84833 0.91316
 O887 O 1.01921 1.09880 0.92791
 O888 O 1.01924 1.12200 0.90477
 C889 C 1.02599 1.11499 0.92094
 C890 C 1.04220 1.12544 0.93154
 C891 C 1.04900 1.14406 0.92497
 H892 H 1.04207 1.15105 0.91224
 O893 O 0.90144 0.92803 0.98098
 O894 O 0.87826 0.90486 0.98104
 C895 C 0.88528 0.92102 0.97421
 C896 C 0.87488 0.93151 0.95790
 C897 C 0.85628 0.92487 0.95118
 H898 H 0.84908 0.91251 0.95857
 O899 O 1.09870 1.07162 0.98042
 O900 O 1.12189 1.09476 0.98033
 C901 C 1.11486 1.07856 0.97362
 C902 C 1.12530 1.06793 0.95742
 C903 C 1.14393 1.07448 0.95072
 H904 H 1.15112 1.08688 0.95805
 O905 O 1.01968 0.92768 0.90127
 O906 O 1.01974 0.90441 0.87819
 C907 C 1.02648 0.92064 0.88514
 C908 C 1.04270 0.93121 0.87467
 C909 C 1.04949 0.92454 0.85611
 H910 H 1.04223 0.91207 0.84898
 O911 O 0.98053 1.07143 0.90080
 O912 O 0.98048 1.09449 0.87752
 C913 C 0.97374 1.07833 0.88461
 C914 C 0.95751 1.06768 0.87424
 C915 C 0.95067 1.07425 0.85567
 H916 H 0.95791 1.08670 0.84847
 O917 O 0.90133 1.01885 0.92816
 O918 O 0.87807 1.01873 0.90511
 C919 C 0.88512 1.02556 0.92123
 C920 C 0.87464 1.04179 0.93181
 C921 C 0.85596 1.04840 0.92532
 H922 H 0.84876 1.04100 0.91297
 O923 O 1.09899 0.98037 0.92821
 O924 O 1.12223 0.98036 0.90514
 C925 C 1.11521 0.97363 0.92131
 C926 C 1.12572 0.95752 0.93202
 C927 C 1.14440 0.95082 0.92556
 H928 H 1.15136 0.95774 0.91281
 O929 O 1.07209 0.90111 0.98095
 O930 O 1.09527 0.87792 0.98100
 C931 C 1.07909 0.88491 0.97423
 C932 C 1.06853 0.87437 0.95805
 C933 C 1.07515 0.85571 0.95139
 H934 H 1.08758 0.84858 0.95872
 O935 O 0.92820 1.09876 0.98023
 O936 O 0.90500 1.12192 0.98016
 C937 C 0.92117 1.11490 0.97339
 C938 C 0.93167 1.12530 0.95709
 C939 C 0.92497 1.14385 0.95022
 H940 H 0.91252 1.15101 0.95748
 Cu941 Cu 1.08300 0.99966 0.91687
 Cu942 Cu 1.11081 0.99967 0.88909
 Cu943 Cu 0.91726 0.99947 0.91687
 Cu944 Cu 0.88941 0.99930 0.88912
 Cu945 Cu 1.08277 1.08299 0.99975
 Cu946 Cu 1.11056 1.11084 0.99964
 Cu947 Cu 1.08333 0.91714 1.00027
 Cu948 Cu 1.11122 0.88936 1.00036
 Cu949 Cu 0.91702 1.08284 0.99968
 Cu950 Cu 0.88911 1.11058 0.99963
 Cu951 Cu 0.91734 0.91680 1.00040
 Cu952 Cu 0.88960 0.88891 1.00048
 Cu953 Cu 0.99987 1.08282 0.91666
 Cu954 Cu 0.99986 1.11058 0.88879
 Cu955 Cu 1.00033 0.91648 0.91726
 Cu956 Cu 1.00036 0.88847 0.88963
 C957 C 1.05206 0.94756 0.88365
 H958 H 1.04707 0.95261 0.89808
 C959 C 1.06556 0.93391 0.84662
 C960 C 0.94817 1.05136 0.88330
 H961 H 0.95320 1.04639 0.89775
 C962 C 0.93457 1.06486 0.84627
 C963 C 0.94799 1.11628 0.94771
 H964 H 0.95307 1.10186 0.95276
 C965 C 0.93424 1.15327 0.93406
 C966 C 1.05223 0.88333 0.94860
 H967 H 1.04721 0.89784 0.95348
 C968 C 1.06581 0.84612 0.93537
 C969 C 1.11666 0.94812 0.94829
 H970 H 1.10213 0.95303 0.95318
 C971 C 1.15392 0.93483 0.93506
 C972 C 0.88370 1.05133 0.94801
 H973 H 0.89823 1.04647 0.95293
 C974 C 0.84643 1.06447 0.93467
 C975 C 1.05170 1.05148 0.88337
 H976 H 1.04678 1.04661 0.89789
 C977 C 1.06506 1.06466 0.84614
 C978 C 0.94849 0.94749 0.88369
 H979 H 0.95340 0.95249 0.89816
 C980 C 0.93520 0.93394 0.84656
 C981 C 1.11625 1.05167 0.94797
 H982 H 1.10176 1.04670 0.95289
 C983 C 1.15341 1.06511 0.93465
 C984 C 0.88393 0.94771 0.94836
 H985 H 0.89840 0.95274 0.95329
 C986 C 0.84684 0.93410 0.93501
 C987 C 1.05161 1.11634 0.94779
 H988 H 1.04664 1.10185 0.95276
 C989 C 1.06510 1.15348 0.93435
 C990 C 0.94859 0.88313 0.94867
 H991 H 0.95360 0.89762 0.95361
 C992 C 0.93499 0.84600 0.93527
 O993 O 1.07186 0.51958 0.59862
 O994 O 1.09495 0.51968 0.62184
 C995 C 1.07879 0.52642 0.61478
 C996 C 1.06816 0.54269 0.62515
 C997 C 1.07467 0.54954 0.64375
 H998 H 1.08739 0.54261 0.65077
 O999 O 0.92851 0.48059 0.59887
 O1000 O 0.90545 0.48061 0.62212
 C1001 C 0.92159 0.47382 0.61506
 C1002 C 0.93223 0.45757 0.62546
 C1003 C 0.92569 0.45074 0.64406
 H1004 H 0.91296 0.45767 0.65106
 O1005 O 1.01935 0.59906 0.57115
 O1006 O 1.01935 0.62242 0.59414
 C1007 C 1.02611 0.61530 0.57802
 C1008 C 1.04232 0.62570 0.56738
 C1009 C 1.04914 0.64433 0.57391
 H1010 H 1.04222 0.65135 0.58664
 O1011 O 0.98082 0.40096 0.57156
 O1012 O 0.98086 0.37772 0.59466
 C1013 C 0.97405 0.38477 0.57854
 C1014 C 0.95778 0.37435 0.56800
 C1015 C 0.95096 0.35575 0.57463
 H1016 H 0.95792 0.34878 0.58735
 O1017 O 1.09892 0.57174 0.51878
 O1018 O 1.12210 0.59490 0.51876
 C1019 C 1.11508 0.57874 0.52556
 C1020 C 1.12549 0.56820 0.54184
 C1021 C 1.14409 0.57482 0.54859
 H1022 H 1.15127 0.58722 0.54125
 O1023 O 0.90105 0.42816 0.51934
 O1024 O 0.87784 0.40502 0.51944
 C1025 C 0.88489 0.42121 0.52616
 C1026 C 0.87452 0.43185 0.54240
 C1027 C 0.85591 0.42532 0.54923
 H1028 H 0.84888 0.41261 0.54230
 O1029 O 0.98069 0.57189 0.59850
 O1030 O 0.98064 0.59513 0.62161
 C1031 C 0.97391 0.57891 0.61465
 C1032 C 0.95772 0.56832 0.62513
 C1033 C 0.95097 0.57496 0.64371
 H1034 H 0.95825 0.58743 0.65084
 O1035 O 1.01962 0.42825 0.59862
 O1036 O 1.01971 0.40513 0.62184
 C1037 C 1.02644 0.42131 0.61478
 C1038 C 1.04267 0.43194 0.62517
 C1039 C 1.04948 0.42536 0.64375
 H1040 H 1.04222 0.41292 0.65093
 O1041 O 1.09910 0.48076 0.57150
 O1042 O 1.12234 0.48080 0.59458
 C1043 C 1.11529 0.47399 0.57845
 C1044 C 1.12571 0.45771 0.56787
 C1045 C 1.14430 0.45089 0.57445
 H1046 H 1.15128 0.45784 0.58717
 O1047 O 0.90130 0.51933 0.57160
 O1048 O 0.87811 0.51941 0.59473
 C1049 C 0.88513 0.52614 0.57855
 C1050 C 0.87466 0.54235 0.56794
 C1051 C 0.85609 0.54916 0.57457
 H1052 H 0.84897 0.54191 0.58704
 O1053 O 0.92816 0.59870 0.51884
 O1054 O 0.90504 0.62195 0.51885
 C1055 C 0.92122 0.61491 0.52559
 C1056 C 0.93183 0.62540 0.54177
 C1057 C 0.92527 0.64407 0.54845
 H1058 H 0.91286 0.65124 0.54114
 O1059 O 1.07191 0.40106 0.51919
 O1060 O 1.09503 0.37780 0.51922
 C1061 C 1.07886 0.38485 0.52596
 C1062 C 1.06827 0.37440 0.54215
 C1063 C 1.07481 0.35573 0.54883
 H1064 H 1.08719 0.34853 0.54149
 O1065 O 0.92848 0.51940 0.59880
 O1066 O 0.90542 0.51946 0.62206
 C1067 C 0.92155 0.52623 0.61497
 C1068 C 0.93214 0.54253 0.62531
 C1069 C 0.92559 0.54939 0.64390
 H1070 H 0.91289 0.54244 0.65092
 O1071 O 1.07187 0.48078 0.59863
 O1072 O 1.09496 0.48082 0.62185
 C1073 C 1.07883 0.47401 0.61481
 C1074 C 1.06826 0.45774 0.62521
 C1075 C 1.07487 0.45093 0.64380
 H1076 H 1.08758 0.45790 0.65077
 O1077 O 1.01957 0.40093 0.57150
 O1078 O 1.01965 0.37768 0.59460
 C1079 C 1.02637 0.38473 0.57843
 C1080 C 1.04258 0.37430 0.56780
 C1081 C 1.04935 0.35563 0.57428
 H1082 H 1.04240 0.34860 0.58697
 O1083 O 0.98061 0.59897 0.57116
 O1084 O 0.98057 0.62234 0.59414
 C1085 C 0.97380 0.61520 0.57803
 C1086 C 0.95756 0.62556 0.56739
 C1087 C 0.95077 0.64423 0.57387
 H1088 H 0.95772 0.65128 0.58655
 O1089 O 0.90095 0.57149 0.51898
 O1090 O 0.87771 0.59461 0.51900
 C1091 C 0.88479 0.57846 0.52579
 C1092 C 0.87446 0.56791 0.54212
 C1093 C 0.85589 0.57452 0.54898
 H1094 H 0.84885 0.58722 0.54202
 O1095 O 1.09908 0.42830 0.51921
 O1096 O 1.12232 0.40517 0.51926
 C1097 C 1.11526 0.42135 0.52600
 C1098 C 1.12566 0.43196 0.54224
 C1099 C 1.14425 0.42536 0.54902
 H1100 H 1.15144 0.41292 0.54173
 O1101 O 0.98088 0.42822 0.59873
 O1102 O 0.98093 0.40510 0.62195
 C1103 C 0.97414 0.42127 0.61492
 C1104 C 0.95792 0.43187 0.62535
 C1105 C 0.95119 0.42527 0.64395
 H1106 H 0.95852 0.41285 0.65112
 O1107 O 1.01943 0.57191 0.59843
 O1108 O 1.01942 0.59515 0.62155
 C1109 C 1.02621 0.57895 0.61456
 C1110 C 1.04246 0.56840 0.62501
 C1111 C 1.04918 0.57502 0.64361
 H1112 H 1.04184 0.58744 0.65077
 O1113 O 0.90129 0.48055 0.57169
 O1114 O 0.87811 0.48058 0.59482
 C1115 C 0.88512 0.47378 0.57866
 C1116 C 0.87467 0.45754 0.56810
 C1117 C 0.85606 0.45082 0.57470
 H1118 H 0.84891 0.45816 0.58711
 O1119 O 1.09898 0.51955 0.57136
 O1120 O 1.12222 0.51965 0.59443
 C1121 C 1.11515 0.52637 0.57827
 C1122 C 1.12555 0.54259 0.56760
 C1123 C 1.14414 0.54943 0.57415
 H1124 H 1.15112 0.54254 0.58690
 O1125 O 0.92831 0.40097 0.51937
 O1126 O 0.90523 0.37770 0.51947
 C1127 C 0.92138 0.38478 0.52619
 C1128 C 0.93200 0.37439 0.54243
 C1129 C 0.92541 0.35579 0.54926
 H1130 H 0.91297 0.34860 0.54203
 O1131 O 1.07166 0.59893 0.51873
 O1132 O 1.09472 0.62221 0.51871
 C1133 C 1.07858 0.61514 0.52548
 C1134 C 1.06799 0.62560 0.54170
 C1135 C 1.07458 0.64423 0.54844
 H1136 H 1.08698 0.65141 0.54113
 Cu1137 Cu 1.08314 0.50016 0.58272
 Cu1138 Cu 1.11095 0.50025 0.61050
 Cu1139 Cu 0.91721 0.49996 0.58293
 Cu1140 Cu 0.88945 0.50002 0.61076
 Cu1141 Cu 1.00002 0.58313 0.58250
 Cu1142 Cu 0.99999 0.61110 0.61017
 Cu1143 Cu 1.00022 0.41690 0.58278
 Cu1144 Cu 1.00030 0.38908 0.61059
 C1145 C 1.05193 0.55211 0.61600
 H1146 H 1.04699 0.54709 0.60154
 C1147 C 1.06527 0.56569 0.65310
 C1148 C 0.94846 0.44815 0.61633
 H1149 H 0.95341 0.45314 0.60186
 C1150 C 0.93508 0.43459 0.65342
 C1151 C 1.05173 0.61655 0.55115
 H1152 H 1.04675 0.60206 0.54620
 C1153 C 1.06526 0.65371 0.56454
 C1154 C 0.94831 0.38344 0.55178
 H1155 H 0.95331 0.39790 0.54676
 C1156 C 0.93478 0.34636 0.56536
 C1157 C 1.11645 0.55196 0.55133
 H1158 H 1.10198 0.54694 0.54638
 C1159 C 1.15353 0.56554 0.56473
 C1160 C 0.88367 0.44808 0.55183
 H1161 H 0.89815 0.45302 0.54683
 C1162 C 0.84657 0.43472 0.56537
 C1163 C 0.94833 0.55198 0.61615
 H1164 H 0.95328 0.54694 0.60170
 C1165 C 0.93491 0.56560 0.65322
 C1166 C 1.05204 0.44826 0.61612
 H1167 H 1.04705 0.45324 0.60167
 C1168 C 1.06557 0.43475 0.65318
 C1169 C 1.11661 0.44826 0.55164
 H1170 H 1.10215 0.45326 0.54666
 C1171 C 1.15369 0.43471 0.56512
 C1172 C 0.88363 0.55171 0.55158
 H1173 H 0.89807 0.54671 0.54655
 C1174 C 0.84659 0.56524 0.56521
 C1175 C 0.94810 0.61637 0.55121
 H1176 H 0.95308 0.60185 0.54631
 C1177 C 0.93463 0.65360 0.56449
 C1178 C 1.05202 0.38346 0.55161
 H1179 H 1.04707 0.39799 0.54671
 C1180 C 1.06546 0.34623 0.56488
 O1181 O 1.07182 0.48027 0.40088
 O1182 O 1.09485 0.48017 0.37761
 C1183 C 1.07872 0.47342 0.38471
 C1184 C 1.06809 0.45715 0.37437
 C1185 C 1.07457 0.45033 0.35574
 H1186 H 1.08726 0.45728 0.34871
 O1187 O 0.92823 0.51896 0.40075
 O1188 O 0.90515 0.51891 0.37751
 C1189 C 0.92129 0.52570 0.38455
 C1190 C 0.93190 0.54192 0.37411
 C1191 C 0.92538 0.54866 0.35547
 H1192 H 0.91268 0.54168 0.34848
 O1193 O 0.98050 0.59868 0.42783
 O1194 O 0.98043 0.62189 0.40470
 C1195 C 0.97368 0.61485 0.42086
 C1196 C 0.95740 0.62526 0.43143
 C1197 C 0.95055 0.64385 0.42482
 H1198 H 0.95749 0.65083 0.41209
 O1199 O 1.01942 0.40068 0.42831
 O1200 O 1.01947 0.37735 0.40529
 C1201 C 1.02623 0.38447 0.42141
 C1202 C 1.04251 0.37412 0.43200
 C1203 C 1.04934 0.35549 0.42546
 H1204 H 1.04238 0.34844 0.41278
 O1205 O 1.09912 0.42825 0.48047
 O1206 O 1.12237 0.40513 0.48050
 C1207 C 1.11531 0.42129 0.47372
 C1208 C 1.12574 0.43188 0.45750
 C1209 C 1.14443 0.42540 0.45089
 H1210 H 1.15167 0.41307 0.45829
 O1211 O 0.90085 0.57141 0.48022
 O1212 O 0.87760 0.59453 0.48019
 C1213 C 0.88466 0.57835 0.47344
 C1214 C 0.87427 0.56772 0.45721
 C1215 C 0.85568 0.57430 0.45036
 H1216 H 0.84868 0.58705 0.45727
 O1217 O 1.01929 0.57145 0.40067
 O1218 O 1.01926 0.59451 0.37739
 C1219 C 1.02604 0.57836 0.38447
 C1220 C 1.04226 0.56770 0.37406
 C1221 C 1.04898 0.57416 0.35540
 H1222 H 1.04200 0.58686 0.34837
 O1223 O 0.98065 0.42781 0.40104
 O1224 O 0.98066 0.40459 0.37791
 C1225 C 0.97388 0.42079 0.38489
 C1226 C 0.95766 0.43136 0.37443
 C1227 C 0.95095 0.42474 0.35582
 H1228 H 0.95829 0.41232 0.34866
 O1229 O 1.09903 0.51921 0.42782
 O1230 O 1.12220 0.51918 0.40469
 C1231 C 1.11518 0.52600 0.42082
 C1232 C 1.12556 0.54232 0.43135
 C1233 C 1.14409 0.54922 0.42469
 H1234 H 1.15106 0.54230 0.41194
 O1235 O 0.90109 0.48022 0.42804
 O1236 O 0.87788 0.48011 0.40493
 C1237 C 0.88492 0.47340 0.42111
 C1238 C 0.87451 0.45718 0.43175
 C1239 C 0.85592 0.45037 0.42518
 H1240 H 0.84874 0.45762 0.41274
 O1241 O 1.07171 0.59891 0.48000
 O1242 O 1.09475 0.62221 0.47995
 C1243 C 1.07861 0.61512 0.47320
 C1244 C 1.06797 0.62551 0.45698
 C1245 C 1.07450 0.64413 0.45013
 H1246 H 1.08724 0.65114 0.45703
 O1247 O 0.92828 0.40087 0.48065
 O1248 O 0.90521 0.37760 0.48070
 C1249 C 0.92135 0.38465 0.47392
 C1250 C 0.93197 0.37418 0.45773
 C1251 C 0.92545 0.35550 0.45105
 H1252 H 0.91306 0.34830 0.45837
 O1253 O 0.92826 0.48016 0.40082
 O1254 O 0.90518 0.48007 0.37759
 C1255 C 0.92134 0.47333 0.38466
 C1256 C 0.93197 0.45707 0.37429
 C1257 C 0.92547 0.45023 0.35568
 H1258 H 0.91276 0.45717 0.34866
 O1259 O 1.07170 0.51906 0.40079
 O1260 O 1.09474 0.51902 0.37751
 C1261 C 1.07859 0.52579 0.38458
 C1262 C 1.06795 0.54200 0.37414
 C1263 C 1.07444 0.54865 0.35548
 H1264 H 1.08681 0.54128 0.34827
 O1265 O 0.98067 0.40069 0.42835
 O1266 O 0.98068 0.37735 0.40534
 C1267 C 0.97390 0.38446 0.42146
 C1268 C 0.95768 0.37406 0.43210
 C1269 C 0.95094 0.35538 0.42562
 H1270 H 0.95792 0.34833 0.41295
 O1271 O 1.01926 0.59874 0.42781
 O1272 O 1.01923 0.62194 0.40466
 C1273 C 1.02602 0.61493 0.42082
 C1274 C 1.04226 0.62539 0.43135
 C1275 C 1.04898 0.64401 0.42473
 H1276 H 1.04165 0.65119 0.41234
 O1277 O 0.90102 0.42806 0.48060
 O1278 O 0.87782 0.40491 0.48064
 C1279 C 0.88485 0.42107 0.47383
 C1280 C 0.87444 0.43161 0.45756
 C1281 C 0.85585 0.42500 0.45076
 H1282 H 0.84886 0.41230 0.45775
 O1283 O 1.09892 0.57168 0.48003
 O1284 O 1.12209 0.59485 0.47997
 C1285 C 1.11507 0.57866 0.47323
 C1286 C 1.12549 0.56808 0.45698
 C1287 C 1.14402 0.57475 0.45012
 H1288 H 1.15117 0.58722 0.45738
 O1289 O 1.01939 0.42788 0.40110
 O1290 O 1.01943 0.40467 0.37796
 C1291 C 1.02618 0.42087 0.38495
 C1292 C 1.04241 0.43145 0.37450
 C1293 C 1.04909 0.42486 0.35588
 H1294 H 1.04175 0.41246 0.34870
 O1295 O 0.98055 0.57138 0.40070
 O1296 O 0.98049 0.59446 0.37744
 C1297 C 0.97376 0.57829 0.38452
 C1298 C 0.95755 0.56765 0.37412
 C1299 C 0.95083 0.57416 0.35549
 H1300 H 0.95814 0.58655 0.34826
 O1301 O 0.90103 0.51900 0.42793
 O1302 O 0.87782 0.51895 0.40483
 C1303 C 0.88485 0.52576 0.42097
 C1304 C 0.87440 0.54202 0.43153
 C1305 C 0.85582 0.54880 0.42490
 H1306 H 0.84867 0.54148 0.41248
 O1307 O 1.09908 0.48043 0.42800
 O1308 O 1.12226 0.48034 0.40488
 C1309 C 1.11526 0.47364 0.42107
 C1310 C 1.12574 0.45749 0.43175
 C1311 C 1.14443 0.45079 0.42532
 H1312 H 1.15143 0.45775 0.41262
 O1313 O 1.07193 0.40101 0.48048
 O1314 O 1.09506 0.37777 0.48048
 C1315 C 1.07889 0.38480 0.47373
 C1316 C 1.06830 0.37431 0.45754
 C1317 C 1.07491 0.35568 0.45080
 H1318 H 1.08736 0.34853 0.45807
 O1319 O 0.92807 0.59861 0.48011
 O1320 O 0.90496 0.62186 0.48008
 C1321 C 0.92111 0.61480 0.47331
 C1322 C 0.93167 0.62520 0.45705
 C1323 C 0.92505 0.64380 0.45023
 H1324 H 0.91262 0.65099 0.45750
 Cu1325 Cu 1.08310 0.49974 0.41670
 Cu1326 Cu 1.11083 0.49967 0.38883
 Cu1327 Cu 0.91697 0.49959 0.41669
 Cu1328 Cu 0.88918 0.49950 0.38889
 Cu1329 Cu 1.08299 0.58299 0.49939
 Cu1330 Cu 1.11074 0.61087 0.49935
 Cu1331 Cu 1.08320 0.41698 0.49983
 Cu1332 Cu 1.11103 0.38914 0.49987
 Cu1333 Cu 0.91681 0.58273 0.49954
 Cu1334 Cu 0.88900 0.61057 0.49953
 Cu1335 Cu 0.91697 0.41684 0.49998
 Cu1336 Cu 0.88920 0.38898 0.50007
 Cu1337 Cu 0.99991 0.58275 0.41657
 Cu1338 Cu 0.99985 0.61053 0.38872
 Cu1339 Cu 1.00003 0.41659 0.41701
 Cu1340 Cu 1.00006 0.38865 0.38930
 C1341 C 1.05188 0.44772 0.38353
 H1342 H 1.04697 0.45271 0.39801
 C1343 C 1.06516 0.43420 0.34638
 C1344 C 0.94811 0.55140 0.38321
 H1345 H 0.95305 0.54648 0.39771
 C1346 C 0.93475 0.56477 0.34604
 C1347 C 0.94798 0.61615 0.44766
 H1348 H 0.95300 0.60169 0.45267
 C1349 C 0.93439 0.65324 0.43413
 C1350 C 1.05197 0.38331 0.44816
 H1351 H 1.04696 0.39780 0.45311
 C1352 C 1.06553 0.34615 0.43477
 C1353 C 1.11661 0.44805 0.44797
 H1354 H 1.10208 0.45296 0.45283
 C1355 C 1.15389 0.43476 0.43481
 C1356 C 0.88340 0.55146 0.44781
 H1357 H 0.89786 0.54649 0.45283
 C1358 C 0.84634 0.56493 0.43420
 C1359 C 1.05173 0.55149 0.38321
 H1360 H 1.04682 0.54661 0.39772
 C1361 C 1.06506 0.56472 0.34599
 C1362 C 0.94819 0.44764 0.38344
 H1363 H 0.95311 0.45265 0.39792
 C1364 C 0.93487 0.43409 0.34633
 C1365 C 1.11648 0.55174 0.44761
 H1366 H 1.10207 0.54668 0.45265
 C1367 C 1.15344 0.56544 0.43398
 C1368 C 0.88355 0.44782 0.44806
 H1369 H 0.89801 0.45282 0.45303
 C1370 C 0.84648 0.43429 0.43458
 C1371 C 1.05173 0.61636 0.44760
 H1372 H 1.04679 0.60188 0.45262
 C1373 C 1.06510 0.65350 0.43402
 C1374 C 0.94821 0.38323 0.44827
 H1375 H 0.95315 0.39776 0.45317
 C1376 C 0.93484 0.34597 0.43501
 O1377 O 0.48076 0.92848 0.40136
 O1378 O 0.48075 0.90530 0.37819
 C1379 C 0.47398 0.92149 0.38520
 C1380 C 0.45774 0.93207 0.37477
 C1381 C 0.45099 0.92544 0.35619
 H1382 H 0.45830 0.91300 0.34903
 O1383 O 0.51932 1.07226 0.40142
 O1384 O 0.51930 1.09542 0.37824
 C1385 C 0.52608 1.07924 0.38525
 C1386 C 0.54228 1.06863 0.37478
 C1387 C 0.54895 1.07519 0.35614
 H1388 H 0.54162 1.08761 0.34898
 O1389 O 0.40122 0.98086 0.42843
 O1390 O 0.37802 0.98083 0.40533
 C1391 C 0.38505 0.97407 0.42148
 C1392 C 0.37463 0.95782 0.43207
 C1393 C 0.35607 0.95100 0.42544
 H1394 H 0.34891 0.95827 0.41299
 O1395 O 0.59894 1.01981 0.42824
 O1396 O 0.62213 1.01985 0.40513
 C1397 C 0.61510 1.02661 0.42129
 C1398 C 0.62554 1.04283 0.43193
 C1399 C 0.64414 1.04963 0.42537
 H1400 H 0.65110 1.04272 0.41262
 O1401 O 0.42828 0.90133 0.48086
 O1402 O 0.40520 0.87806 0.48085
 C1403 C 0.42135 0.88512 0.47409
 C1404 C 0.43196 0.87469 0.45786
 C1405 C 0.42536 0.85610 0.45100
 H1406 H 0.41259 0.84914 0.45788
 O1407 O 0.57179 1.09928 0.48082
 O1408 O 0.59487 1.12254 0.48079
 C1409 C 0.57871 1.11549 0.47406
 C1410 C 0.56808 1.12596 0.45788
 C1411 C 0.57460 1.14462 0.45119
 H1412 H 0.58701 1.15181 0.45848
 O1413 O 0.42838 1.01968 0.40126
 O1414 O 0.40531 1.01970 0.37803
 C1415 C 0.42144 1.02648 0.38509
 C1416 C 0.43205 1.04274 0.37471
 C1417 C 0.42557 1.04947 0.35605
 H1418 H 0.41292 1.04247 0.34901
 O1419 O 0.57175 0.98098 0.40110
 O1420 O 0.59481 0.98096 0.37784
 C1421 C 0.57868 0.97417 0.38492
 C1422 C 0.56810 0.95787 0.37457
 C1423 C 0.57466 0.95099 0.35599
 H1424 H 0.58737 0.95793 0.34898
 O1425 O 0.51952 0.90128 0.42857
 O1426 O 0.51955 0.87797 0.40553
 C1427 C 0.52632 0.88507 0.42165
 C1428 C 0.54259 0.87469 0.43224
 C1429 C 0.54945 0.85608 0.42568
 H1430 H 0.54252 0.84906 0.41297
 O1431 O 0.48053 1.09946 0.42864
 O1432 O 0.48048 1.12274 0.40558
 C1433 C 0.47372 1.11565 0.42171
 C1434 C 0.45744 1.12603 0.43229
 C1435 C 0.45059 1.14464 0.42572
 H1436 H 0.45753 1.15166 0.41302
 O1437 O 0.40099 1.07195 0.48092
 O1438 O 0.37772 1.09504 0.48090
 C1439 C 0.38481 1.07888 0.47413
 C1440 C 0.37444 1.06827 0.45788
 C1441 C 0.35580 1.07479 0.45114
 H1442 H 0.34855 1.08716 0.45847
 O1443 O 0.59906 0.92881 0.48079
 O1444 O 0.62233 0.90571 0.48077
 C1445 C 0.61524 0.92187 0.47400
 C1446 C 0.62561 0.93243 0.45772
 C1447 C 0.64420 0.92583 0.45094
 H1448 H 0.65143 0.91345 0.45827
 O1449 O 0.48059 1.07221 0.40145
 O1450 O 0.48054 1.09536 0.37826
 C1451 C 0.47381 1.07916 0.38528
 C1452 C 0.45764 1.06852 0.37483
 C1453 C 0.45097 1.07504 0.35618
 H1454 H 0.45828 1.08744 0.34899
 O1455 O 0.51950 0.92850 0.40136
 O1456 O 0.51953 0.90531 0.37819
 C1457 C 0.52628 0.92151 0.38520
 C1458 C 0.54249 0.93209 0.37474
 C1459 C 0.54926 0.92545 0.35616
 H1460 H 0.54197 0.91299 0.34903
 O1461 O 0.59894 0.98104 0.42828
 O1462 O 0.62214 0.98101 0.40517
 C1463 C 0.61512 0.97426 0.42133
 C1464 C 0.62557 0.95805 0.43196
 C1465 C 0.64417 0.95122 0.42538
 H1466 H 0.65111 0.95812 0.41262
 O1467 O 0.40116 1.01964 0.42843
 O1468 O 0.37795 1.01966 0.40533
 C1469 C 0.38497 1.02642 0.42150
 C1470 C 0.37450 1.04261 0.43214
 C1471 C 0.35587 1.04936 0.42561
 H1472 H 0.34892 1.04242 0.41287
 O1473 O 0.42809 1.09927 0.48090
 O1474 O 0.40495 1.12249 0.48087
 C1475 C 0.42112 1.11546 0.47411
 C1476 C 0.43169 1.12591 0.45789
 C1477 C 0.42507 1.14452 0.45112
 H1478 H 0.41262 1.15169 0.45839
 O1479 O 0.57192 0.90153 0.48082
 O1480 O 0.59507 0.87831 0.48080
 C1481 C 0.57890 0.88533 0.47405
 C1482 C 0.56833 0.87486 0.45784
 C1483 C 0.57497 0.85625 0.45108
 H1484 H 0.58741 0.84910 0.45836
 O1485 O 0.57166 1.01980 0.40114
 O1486 O 0.59471 1.01984 0.37788
 C1487 C 0.57857 1.02660 0.38497
 C1488 C 0.56792 1.04287 0.37461
 C1489 C 0.57439 1.04966 0.35597
 H1490 H 0.58707 1.04268 0.34893
 O1491 O 0.42839 0.98087 0.40122
 O1492 O 0.40531 0.98084 0.37798
 C1493 C 0.42146 0.97407 0.38504
 C1494 C 0.43208 0.95780 0.37465
 C1495 C 0.42552 0.95094 0.35607
 H1496 H 0.41279 0.95787 0.34907
 O1497 O 0.51930 1.09947 0.42865
 O1498 O 0.51928 1.12276 0.40560
 C1499 C 0.52606 1.11568 0.42172
 C1500 C 0.54230 1.12609 0.43232
 C1501 C 0.54906 1.14475 0.42582
 H1502 H 0.54206 1.15179 0.41315
 O1503 O 0.48075 0.90130 0.42861
 O1504 O 0.48075 0.87801 0.40555
 C1505 C 0.47397 0.88510 0.42168
 C1506 C 0.45769 0.87470 0.43223
 C1507 C 0.45088 0.85611 0.42560
 H1508 H 0.45819 0.84891 0.41320
 O1509 O 0.59900 1.07204 0.48077
 O1510 O 0.62221 1.09518 0.48075
 C1511 C 0.61516 1.07901 0.47397
 C1512 C 0.62554 1.06845 0.45769
 C1513 C 0.64414 1.07503 0.45094
 H1514 H 0.65136 1.08741 0.45828
 O1515 O 0.40108 0.92857 0.48087
 O1516 O 0.37787 0.90544 0.48086
 C1517 C 0.38491 0.92160 0.47408
 C1518 C 0.37453 0.93219 0.45781
 C1519 C 0.35596 0.92557 0.45096
 H1520 H 0.34898 0.91283 0.45789
 Cu1521 Cu 0.50013 0.91721 0.41729
 Cu1522 Cu 0.50015 0.88931 0.38955
 Cu1523 Cu 0.49994 1.08354 0.41736
 Cu1524 Cu 0.49990 1.11141 0.38960
 Cu1525 Cu 0.41710 1.00026 0.41714
 Cu1526 Cu 0.38932 1.00026 0.38934
 Cu1527 Cu 0.58301 1.00041 0.41700
 Cu1528 Cu 0.61077 1.00042 0.38917
 C1529 C 0.44831 0.94838 0.38378
 H1530 H 0.45327 0.95340 0.39823
 C1531 C 0.43488 0.93477 0.34672
 C1532 C 0.55174 1.05234 0.38379
 H1533 H 0.54685 1.04737 0.39828
 C1534 C 0.56500 1.06580 0.34662
 C1535 C 0.38364 0.94843 0.44838
 H1536 H 0.39808 0.95344 0.45340
 C1537 C 0.34662 0.93488 0.43477
 C1538 C 0.61646 1.05222 0.44821
 H1539 H 0.60199 1.04724 0.45317
 C1540 C 0.65356 1.06573 0.43479
 C1541 C 0.44825 0.88377 0.44849
 H1542 H 0.45325 0.89823 0.45351
 C1543 C 0.43472 0.84669 0.43487
 C1544 C 0.55180 1.11691 0.44848
 H1545 H 0.54686 1.10240 0.45340
 C1546 C 0.56519 1.15414 0.43516
 C1547 C 0.44820 1.05225 0.38387
 H1548 H 0.45310 1.04731 0.39838
 C1549 C 0.43495 1.06561 0.34666
 C1550 C 0.55189 0.94843 0.38372
 H1551 H 0.54693 0.95347 0.39817
 C1552 C 0.56533 0.93479 0.34667
 C1553 C 0.55201 0.88386 0.44845
 H1554 H 0.54698 0.89834 0.45341
 C1555 C 0.56564 0.84674 0.43500
 C1556 C 0.44800 1.11689 0.44850
 H1557 H 0.45302 1.10241 0.45347
 C1558 C 0.43441 1.15401 0.43504
 C1559 C 0.38357 1.05205 0.44840
 H1560 H 0.39806 1.04711 0.45334
 C1561 C 0.34640 1.06544 0.43502
 C1562 C 0.61652 0.94867 0.44825
 H1563 H 0.60205 0.95367 0.45323
 C1564 C 0.65360 0.93512 0.43478
 O1565 O 0.51954 0.92854 0.59901
 O1566 O 0.51960 0.90539 0.62220
 C1567 C 0.52634 0.92158 0.61517
 C1568 C 0.54255 0.93220 0.62561
 C1569 C 0.54932 0.92560 0.64419
 H1570 H 0.54206 0.91315 0.65136
 O1571 O 0.48067 1.07223 0.59902
 O1572 O 0.48063 1.09541 0.62218
 C1573 C 0.47390 1.07921 0.61518
 C1574 C 0.45772 1.06859 0.62564
 C1575 C 0.45104 1.07514 0.64428
 H1576 H 0.45836 1.08756 0.65146
 O1577 O 0.40121 1.01973 0.57207
 O1578 O 0.37803 1.01975 0.59520
 C1579 C 0.38504 1.02651 0.57904
 C1580 C 0.37457 1.04275 0.56847
 C1581 C 0.35598 1.04951 0.57508
 H1582 H 0.34883 1.04220 0.58751
 O1583 O 0.59898 0.98112 0.57202
 O1584 O 0.62219 0.98109 0.59512
 C1585 C 0.61516 0.97433 0.57896
 C1586 C 0.62561 0.95812 0.56833
 C1587 C 0.64422 0.95132 0.57489
 H1588 H 0.65117 0.95825 0.58764
 O1589 O 0.57195 0.90153 0.51954
 O1590 O 0.59510 0.87832 0.51955
 C1591 C 0.57893 0.88534 0.52631
 C1592 C 0.56836 0.87487 0.54252
 C1593 C 0.57500 0.85626 0.54928
 H1594 H 0.58744 0.84911 0.54199
 O1595 O 0.42816 1.09926 0.51961
 O1596 O 0.40502 1.12249 0.51964
 C1597 C 0.42120 1.11546 0.52638
 C1598 C 0.43181 1.12594 0.54256
 C1599 C 0.42527 1.14462 0.54925
 H1600 H 0.41286 1.15181 0.54194
 O1601 O 0.42846 0.98094 0.59923
 O1602 O 0.40541 0.98091 0.62249
 C1603 C 0.42155 0.97414 0.61541
 C1604 C 0.43217 0.95788 0.62578
 C1605 C 0.42564 0.95104 0.64438
 H1606 H 0.41293 0.95799 0.65139
 O1607 O 0.57175 1.01990 0.59921
 O1608 O 0.59482 1.01993 0.62245
 C1609 C 0.57867 1.02670 0.61539
 C1610 C 0.56804 1.04295 0.62578
 C1611 C 0.57453 1.04973 0.64441
 H1612 H 0.58722 1.04275 0.65143
 O1613 O 0.48081 0.90128 0.57183
 O1614 O 0.48083 0.87800 0.59489
 C1615 C 0.47404 0.88507 0.57876
 C1616 C 0.45778 0.87466 0.56818
 C1617 C 0.45097 0.85605 0.57477
 H1618 H 0.45792 0.84905 0.58748
 O1619 O 0.51937 1.09942 0.57176
 O1620 O 0.51938 1.12272 0.59481
 C1621 C 0.52615 1.11563 0.57868
 C1622 C 0.54241 1.12601 0.56810
 C1623 C 0.54917 1.14465 0.57465
 H1624 H 0.54186 1.15189 0.58702
 O1625 O 0.40108 0.92856 0.51962
 O1626 O 0.37786 0.90545 0.51966
 C1627 C 0.38492 0.92162 0.52642
 C1628 C 0.37454 0.93224 0.54268
 C1629 C 0.35594 0.92569 0.54951
 H1630 H 0.34892 0.91297 0.54257
 O1631 O 0.59905 1.07206 0.51953
 O1632 O 0.62225 1.09520 0.51954
 C1633 C 0.61522 1.07904 0.52631
 C1634 C 0.62561 1.06848 0.54258
 C1635 C 0.64423 1.07504 0.54932
 H1636 H 0.65145 1.08741 0.54198
 O1637 O 0.51940 1.07230 0.59905
 O1638 O 0.51939 1.09548 0.62223
 C1639 C 0.52617 1.07929 0.61522
 C1640 C 0.54239 1.06869 0.62567
 C1641 C 0.54907 1.07525 0.64431
 H1642 H 0.54174 1.08766 0.65149
 O1643 O 0.48081 0.92851 0.59902
 O1644 O 0.48083 0.90536 0.62221
 C1645 C 0.47405 0.92154 0.61519
 C1646 C 0.45783 0.93214 0.62564
 C1647 C 0.45110 0.92553 0.64424
 H1648 H 0.45842 0.91310 0.65139
 O1649 O 0.59897 1.01988 0.57204
 O1650 O 0.62218 1.01992 0.59514
 C1651 C 0.61514 1.02667 0.57898
 C1652 C 0.62559 1.04286 0.56834
 C1653 C 0.64420 1.04964 0.57488
 H1654 H 0.65116 1.04273 0.58763
 O1655 O 0.40128 0.98094 0.57203
 O1656 O 0.37809 0.98091 0.59516
 C1657 C 0.38511 0.97415 0.57899
 C1658 C 0.37468 0.95791 0.56841
 C1659 C 0.35608 0.95117 0.57500
 H1660 H 0.34891 0.95849 0.58741
 O1661 O 0.57183 1.09928 0.51953
 O1662 O 0.59490 1.12255 0.51954
 C1663 C 0.57875 1.11550 0.52629
 C1664 C 0.56812 1.12596 0.54248
 C1665 C 0.57469 1.14460 0.54925
 H1666 H 0.58744 1.15155 0.54233
 O1667 O 0.42834 0.90138 0.51959
 O1668 O 0.40526 0.87812 0.51963
 C1669 C 0.42142 0.88518 0.52637
 C1670 C 0.43203 0.87475 0.54259
 C1671 C 0.42545 0.85613 0.54937
 H1672 H 0.41302 0.84895 0.54211
 O1673 O 0.57176 0.98109 0.59918
 O1674 O 0.59484 0.98107 0.62242
 C1675 C 0.57870 0.97428 0.61535
 C1676 C 0.56812 0.95800 0.62572
 C1677 C 0.57470 0.95118 0.64431
 H1678 H 0.58740 0.95815 0.65130
 O1679 O 0.42844 1.01975 0.59922
 O1680 O 0.40539 1.01976 0.62249
 C1681 C 0.42152 1.02654 0.61541
 C1682 C 0.43213 1.04281 0.62579
 C1683 C 0.42564 1.04958 0.64443
 H1684 H 0.41297 1.04260 0.65147
 O1685 O 0.48061 1.09946 0.57184
 O1686 O 0.48059 1.12278 0.59487
 C1687 C 0.47382 1.11568 0.57875
 C1688 C 0.45756 1.12607 0.56815
 C1689 C 0.45080 1.14475 0.57463
 H1690 H 0.45779 1.15180 0.58730
 O1691 O 0.51956 0.90130 0.57181
 O1692 O 0.51963 0.87802 0.59487
 C1693 C 0.52638 0.88511 0.57874
 C1694 C 0.54264 0.87472 0.56814
 C1695 C 0.54950 0.85611 0.57470
 H1696 H 0.54257 0.84909 0.58740
 O1697 O 0.59908 0.92882 0.51955
 O1698 O 0.62235 0.90573 0.51955
 C1699 C 0.61527 0.92189 0.52633
 C1700 C 0.62565 0.93247 0.54259
 C1701 C 0.64426 0.92590 0.54935
 H1702 H 0.65148 0.91351 0.54203
 O1703 O 0.40094 1.07205 0.51967
 O1704 O 0.37767 1.09515 0.51969
 C1705 C 0.38476 1.07900 0.52647
 C1706 C 0.37440 1.06839 0.54274
 C1707 C 0.35580 1.07496 0.54958
 H1708 H 0.34877 1.08767 0.54264
 Cu1709 Cu 0.50018 0.91722 0.58310
 Cu1710 Cu 0.50023 0.88936 0.61087
 Cu1711 Cu 0.50001 1.08353 0.58310
 Cu1712 Cu 0.49999 1.11144 0.61084
 Cu1713 Cu 0.41700 0.91728 0.50023
 Cu1714 Cu 0.38922 0.88944 0.50025
 Cu1715 Cu 0.58319 0.91750 0.50018
 Cu1716 Cu 0.61105 0.88970 0.50017
 Cu1717 Cu 0.41686 1.08331 0.50028
 Cu1718 Cu 0.38900 1.11111 0.50027
 Cu1719 Cu 0.58311 1.08334 0.50017
 Cu1720 Cu 0.61089 1.11119 0.50015
 Cu1721 Cu 0.41716 1.00034 0.58332
 Cu1722 Cu 0.38941 1.00033 0.61116
 Cu1723 Cu 0.58305 1.00050 0.58330
 Cu1724 Cu 0.61083 1.00050 0.61112
 C1725 C 0.55192 0.94853 0.61659
 H1726 H 0.54695 0.95353 0.60213
 C1727 C 0.56539 0.93499 0.65366
 C1728 C 0.44829 1.05230 0.61662
 H1729 H 0.45319 1.04733 0.60212
 C1730 C 0.43501 1.06574 0.65380
 C1731 C 0.38356 1.05217 0.55217
 H1732 H 0.39803 1.04721 0.54716
 C1733 C 0.34647 1.06560 0.56575
 C1734 C 0.61655 0.94871 0.55205
 H1735 H 0.60207 0.95369 0.54709
 C1736 C 0.65366 0.93522 0.56549
 C1737 C 0.55206 0.88388 0.55193
 H1738 H 0.54703 0.89836 0.54697
 C1739 C 0.56568 0.84677 0.56536
 C1740 C 0.44808 1.11689 0.55199
 H1741 H 0.45303 1.10237 0.54708
 C1742 C 0.43467 1.15414 0.56527
 C1743 C 0.44839 0.94844 0.61663
 H1744 H 0.45333 0.95344 0.60217
 C1745 C 0.43501 0.93487 0.65372
 C1746 C 0.55185 1.05242 0.61663
 H1747 H 0.54694 1.04745 0.60214
 C1748 C 0.56513 1.06586 0.65380
 C1749 C 0.44833 0.88379 0.55197
 H1750 H 0.45331 0.89827 0.54699
 C1751 C 0.43481 0.84667 0.56546
 C1752 C 0.55186 1.11689 0.55189
 H1753 H 0.54689 1.10240 0.54692
 C1754 C 0.56531 1.15405 0.56533
 C1755 C 0.38369 0.94846 0.55212
 H1756 H 0.39816 0.95342 0.54713
 C1757 C 0.34659 0.93507 0.56566
 C1758 C 0.61652 1.05226 0.55207
 H1759 H 0.60204 1.04729 0.54712
 C1760 C 0.65365 1.06572 0.56546
 O1761 O 0.48043 0.42778 0.90143
 O1762 O 0.48046 0.40458 0.87827
 C1763 C 0.47367 0.42077 0.88528
 C1764 C 0.45743 0.43134 0.87484
 C1765 C 0.45080 0.42483 0.85616
 H1766 H 0.45818 0.41246 0.84895
 O1767 O 0.51872 0.57161 0.90101
 O1768 O 0.51861 0.59469 0.87775
 C1769 C 0.52546 0.57856 0.88482
 C1770 C 0.54174 0.56799 0.87441
 C1771 C 0.54858 0.57463 0.85586
 H1772 H 0.54164 0.58738 0.84890
 O1773 O 0.40084 0.48001 0.92858
 O1774 O 0.37760 0.47985 0.90551
 C1775 C 0.38468 0.47313 0.92166
 C1776 C 0.37434 0.45685 0.93228
 C1777 C 0.35581 0.44995 0.92567
 H1778 H 0.34862 0.45717 0.91322
 O1779 O 0.59850 0.51942 0.92813
 O1780 O 0.62168 0.51942 0.90500
 C1781 C 0.61465 0.52622 0.92114
 C1782 C 0.62504 0.54252 0.93168
 C1783 C 0.64362 0.54935 0.92507
 H1784 H 0.65059 0.54237 0.91236
 O1785 O 0.42828 0.40066 0.98115
 O1786 O 0.40525 0.37735 0.98123
 C1787 C 0.42137 0.38443 0.97442
 C1788 C 0.43195 0.37399 0.95818
 C1789 C 0.42542 0.35533 0.95146
 H1790 H 0.41305 0.34811 0.95879
 O1791 O 0.57113 0.59915 0.98034
 O1792 O 0.59416 0.62246 0.98021
 C1793 C 0.57800 0.61535 0.97352
 C1794 C 0.56731 0.62573 0.95732
 C1795 C 0.57379 0.64437 0.95049
 H1796 H 0.58652 0.65140 0.95737
 O1797 O 0.42779 0.51887 0.90125
 O1798 O 0.40466 0.51877 0.87807
 C1799 C 0.42079 0.52561 0.88508
 C1800 C 0.43131 0.54189 0.87463
 C1801 C 0.42465 0.54870 0.85606
 H1802 H 0.41191 0.54173 0.84912
 O1803 O 0.57133 0.48049 0.90112
 O1804 O 0.59436 0.48047 0.87784
 C1805 C 0.57825 0.47368 0.88495
 C1806 C 0.56766 0.45738 0.87460
 C1807 C 0.57418 0.45058 0.85598
 H1808 H 0.58684 0.45758 0.84895
 O1809 O 0.51928 0.40072 0.92865
 O1810 O 0.51934 0.37739 0.90563
 C1811 C 0.52610 0.38452 0.92174
 C1812 C 0.54239 0.37418 0.93234
 C1813 C 0.54924 0.35556 0.92581
 H1814 H 0.54230 0.34850 0.91313
 O1815 O 0.47989 0.59874 0.92822
 O1816 O 0.47974 0.62196 0.90511
 C1817 C 0.47303 0.61490 0.92127
 C1818 C 0.45676 0.62528 0.93188
 C1819 C 0.44991 0.64390 0.92534
 H1820 H 0.45683 0.65092 0.91263
 O1821 O 0.40041 0.57131 0.98079
 O1822 O 0.37710 0.59436 0.98075
 C1823 C 0.38420 0.57819 0.97402
 C1824 C 0.37382 0.56749 0.95782
 C1825 C 0.35518 0.57398 0.95101
 H1826 H 0.34814 0.58671 0.95792
 O1827 O 0.59883 0.42841 0.98076
 O1828 O 0.62215 0.40536 0.98075
 C1829 C 0.61503 0.42149 0.97396
 C1830 C 0.62536 0.43206 0.95767
 C1831 C 0.64396 0.42548 0.95089
 H1832 H 0.65121 0.41311 0.95823
 O1833 O 0.47998 0.57142 0.90111
 O1834 O 0.47982 0.59451 0.87787
 C1835 C 0.47313 0.57833 0.88495
 C1836 C 0.45690 0.56767 0.87459
 C1837 C 0.45005 0.57425 0.85603
 H1838 H 0.45729 0.58669 0.84883
 O1839 O 0.51916 0.42789 0.90141
 O1840 O 0.51923 0.40469 0.87825
 C1841 C 0.52594 0.42091 0.88524
 C1842 C 0.54212 0.43155 0.87477
 C1843 C 0.54883 0.42497 0.85615
 H1844 H 0.54156 0.41252 0.84899
 O1845 O 0.59861 0.48063 0.92823
 O1846 O 0.62178 0.48058 0.90509
 C1847 C 0.61479 0.47385 0.92127
 C1848 C 0.62528 0.45766 0.93191
 C1849 C 0.64388 0.45085 0.92532
 H1850 H 0.65081 0.45776 0.91255
 O1851 O 0.40069 0.51880 0.92854
 O1852 O 0.37743 0.51869 0.90548
 C1853 C 0.38447 0.52551 0.92161
 C1854 C 0.37399 0.54174 0.93218
 C1855 C 0.35536 0.54842 0.92560
 H1856 H 0.34820 0.54105 0.91322
 O1857 O 0.42756 0.59858 0.98063
 O1858 O 0.40439 0.62177 0.98059
 C1859 C 0.42055 0.61474 0.97382
 C1860 C 0.43108 0.62516 0.95755
 C1861 C 0.42446 0.64378 0.95081
 H1862 H 0.41206 0.65097 0.95813
 O1863 O 0.57173 0.40109 0.98086
 O1864 O 0.59493 0.37793 0.98084
 C1865 C 0.57873 0.38491 0.97410
 C1866 C 0.56815 0.37440 0.95792
 C1867 C 0.57478 0.35577 0.95119
 H1868 H 0.58723 0.34863 0.95847
 O1869 O 0.57122 0.51930 0.90105
 O1870 O 0.59427 0.51932 0.87779
 C1871 C 0.57812 0.52608 0.88486
 C1872 C 0.56749 0.54234 0.87446
 C1873 C 0.57411 0.54918 0.85590
 H1874 H 0.58655 0.54191 0.84873
 O1875 O 0.42798 0.48007 0.90133
 O1876 O 0.40487 0.47993 0.87814
 C1877 C 0.42105 0.47323 0.88517
 C1878 C 0.43173 0.45703 0.87476
 C1879 C 0.42529 0.45030 0.85609
 H1880 H 0.41260 0.45728 0.84907
 O1881 O 0.51864 0.59887 0.92818
 O1882 O 0.51853 0.62208 0.90505
 C1883 C 0.52535 0.61508 0.92120
 C1884 C 0.54157 0.62558 0.93172
 C1885 C 0.54825 0.64422 0.92511
 H1886 H 0.54090 0.65138 0.91272
 O1887 O 0.48053 0.40063 0.92871
 O1888 O 0.48055 0.37731 0.90569
 C1889 C 0.47378 0.38440 0.92182
 C1890 C 0.45760 0.37396 0.93248
 C1891 C 0.45084 0.35530 0.92596
 H1892 H 0.45778 0.34830 0.91324
 O1893 O 0.59842 0.57198 0.98032
 O1894 O 0.62157 0.59517 0.98018
 C1895 C 0.61456 0.57896 0.97348
 C1896 C 0.62497 0.56834 0.95725
 C1897 C 0.64355 0.57494 0.95044
 H1898 H 0.65072 0.58739 0.95769
 O1899 O 0.40095 0.42776 0.98110
 O1900 O 0.37778 0.40459 0.98119
 C1901 C 0.38479 0.42075 0.97435
 C1902 C 0.37435 0.43126 0.95807
 C1903 C 0.35581 0.42455 0.95122
 H1904 H 0.34888 0.41180 0.95818
 Cu1905 Cu 0.49984 0.41658 0.91736
 Cu1906 Cu 0.49990 0.38865 0.88964
 Cu1907 Cu 0.49933 0.58285 0.91695
 Cu1908 Cu 0.49916 0.61064 0.88911
 Cu1909 Cu 0.41664 0.49945 0.91723
 Cu1910 Cu 0.38880 0.49929 0.88948
 Cu1911 Cu 0.58261 0.49996 0.91695
 Cu1912 Cu 0.61034 0.49994 0.88909
 C1913 C 0.44792 0.44757 0.88391
 H1914 H 0.45279 0.45250 0.89843
 C1915 C 0.43475 0.43422 0.84667
 C1916 C 0.55118 0.55172 0.88349
 H1917 H 0.54617 0.54669 0.89793
 C1918 C 0.56477 0.56532 0.84649
 C1919 C 0.38339 0.44753 0.94861
 H1920 H 0.39781 0.45261 0.95362
 C1921 C 0.34643 0.43380 0.93502
 C1922 C 0.61594 0.55200 0.94789
 H1923 H 0.60149 0.54700 0.95290
 C1924 C 0.65299 0.56554 0.93436
 C1925 C 0.44817 0.38308 0.94871
 H1926 H 0.45312 0.39759 0.95364
 C1927 C 0.43477 0.34587 0.93536
 C1928 C 0.55108 0.61656 0.94796
 H1929 H 0.54618 0.60206 0.95297
 C1930 C 0.56435 0.65373 0.93439
 C1931 C 0.44756 0.55136 0.88367
 H1932 H 0.45259 0.54638 0.89811
 C1933 C 0.43392 0.56488 0.84665
 C1934 C 0.55151 0.44788 0.88378
 H1935 H 0.54658 0.45286 0.89826
 C1936 C 0.56485 0.43440 0.84663
 C1937 C 0.55183 0.38338 0.94852
 H1938 H 0.54680 0.39787 0.95345
 C1939 C 0.56542 0.34623 0.93514
 C1940 C 0.44736 0.61613 0.94811
 H1941 H 0.45238 0.60165 0.95306
 C1942 C 0.43377 0.65327 0.93472
 C1943 C 0.38300 0.55125 0.94842
 H1944 H 0.39749 0.54635 0.95340
 C1945 C 0.34584 0.56454 0.93490
 C1946 C 0.61624 0.44828 0.94821
 H1947 H 0.60177 0.45326 0.95319
 C1948 C 0.65334 0.43477 0.93472
 O1949 O 0.51961 0.42833 1.09901
 O1950 O 0.51976 0.40528 1.12229
 C1951 C 0.52644 0.42146 1.11519
 C1952 C 0.54259 0.43221 1.12558
 C1953 C 0.54938 0.42577 1.14423
 H1954 H 0.54250 0.41302 1.15125
 O1955 O 0.48038 0.57212 1.09880
 O1956 O 0.48030 0.59535 1.12192
 C1957 C 0.47360 0.57912 1.11496
 C1958 C 0.45743 0.56850 1.12545
 C1959 C 0.45066 0.57515 1.14402
 H1960 H 0.45790 0.58764 1.15114
 O1961 O 0.40102 0.51930 1.07209
 O1962 O 0.37787 0.51929 1.09525
 C1963 C 0.38484 0.52605 1.07907
 C1964 C 0.37432 0.54224 1.06848
 C1965 C 0.35572 0.54899 1.07511
 H1966 H 0.34862 0.54172 1.08758
 O1967 O 0.59882 0.48108 1.07173
 O1968 O 0.62208 0.48117 1.09478
 C1969 C 0.61503 0.47434 1.07866
 C1970 C 0.62546 0.45807 1.06809
 C1971 C 0.64406 0.45128 1.07468
 H1972 H 0.65103 0.45826 1.08740
 O1973 O 0.57184 0.40112 1.01958
 O1974 O 0.59504 0.37795 1.01959
 C1975 C 0.57887 0.38495 1.02636
 C1976 C 0.56835 0.37449 1.04261
 C1977 C 0.57498 0.35587 1.04934
 H1978 H 0.58738 0.34869 1.04201
 O1979 O 0.42765 0.59875 1.01935
 O1980 O 0.40448 0.62194 1.01936
 C1981 C 0.42068 0.61496 1.02609
 C1982 C 0.43131 0.62550 1.04222
 C1983 C 0.42474 0.64418 1.04888
 H1984 H 0.41230 0.65132 1.04159
 O1985 O 0.42844 0.48065 1.09928
 O1986 O 0.40542 0.48060 1.12257
 C1987 C 0.42157 0.47386 1.11549
 C1988 C 0.43227 0.45766 1.12588
 C1989 C 0.42583 0.45090 1.14454
 H1990 H 0.41314 0.45785 1.15159
 O1991 O 0.57158 0.51991 1.09886
 O1992 O 0.59471 0.52006 1.12204
 C1993 C 0.57853 0.52678 1.11500
 C1994 C 0.56790 0.54304 1.12538
 C1995 C 0.57443 0.54990 1.14397
 H1996 H 0.58716 0.54299 1.15097
 O1997 O 0.48086 0.40093 1.07199
 O1998 O 0.48096 0.37776 1.09515
 C1999 C 0.47412 0.38475 1.07901
 C2000 C 0.45784 0.37429 1.06853
 C2001 C 0.45109 0.35570 1.07521
 H2002 H 0.45843 0.34854 1.08761
 O2003 O 0.51899 0.59940 1.07148
 O2004 O 0.51897 0.62274 1.09449
 C2005 C 0.52575 0.61564 1.07837
 C2006 C 0.54197 0.62604 1.06774
 C2007 C 0.54886 0.64463 1.07434
 H2008 H 0.54198 0.65162 1.08709
 O2009 O 0.40108 0.42795 1.01984
 O2010 O 0.37790 0.40480 1.01999
 C2011 C 0.38494 0.42101 1.02668
 C2012 C 0.37455 0.43168 1.04290
 C2013 C 0.35591 0.42519 1.04968
 H2014 H 0.34888 0.41248 1.04274
 O2015 O 0.59847 0.57205 1.01905
 O2016 O 0.62165 0.59522 1.01895
 C2017 C 0.61465 0.57905 1.02577
 C2018 C 0.62512 0.56851 1.04200
 C2019 C 0.64377 0.57508 1.04863
 H2020 H 0.65095 0.58744 1.04124
 O2021 O 0.51912 0.57221 1.09870
 O2022 O 0.51908 0.59542 1.12184
 C2023 C 0.52589 0.57924 1.11484
 C2024 C 0.54217 0.56871 1.12527
 C2025 C 0.54890 0.57535 1.14386
 H2026 H 0.54155 0.58776 1.15103
 O2027 O 0.48089 0.42826 1.09909
 O2028 O 0.48100 0.40521 1.12237
 C2029 C 0.47418 0.42135 1.11530
 C2030 C 0.45798 0.43196 1.12575
 C2031 C 0.45135 0.42544 1.14441
 H2032 H 0.45873 0.41306 1.15160
 O2033 O 0.59870 0.51987 1.07158
 O2034 O 0.62196 0.52001 1.09462
 C2035 C 0.61488 0.52670 1.07846
 C2036 C 0.62525 0.54290 1.06776
 C2037 C 0.64390 0.54969 1.07420
 H2038 H 0.65094 0.54278 1.08691
 O2039 O 0.40122 0.48051 1.07211
 O2040 O 0.37806 0.48046 1.09527
 C2041 C 0.38508 0.47369 1.07911
 C2042 C 0.37466 0.45742 1.06855
 C2043 C 0.35602 0.45074 1.07510
 H2044 H 0.34883 0.45811 1.08747
 O2045 O 0.57124 0.59926 1.01907
 O2046 O 0.59429 0.62254 1.01898
 C2047 C 0.57817 0.61548 1.02580
 C2048 C 0.56763 0.62593 1.04205
 C2049 C 0.57429 0.64451 1.04885
 H2050 H 0.58672 0.65167 1.04156
 O2051 O 0.42829 0.40071 1.01988
 O2052 O 0.40525 0.37741 1.02002
 C2053 C 0.42140 0.38452 1.02672
 C2054 C 0.43207 0.37416 1.04295
 C2055 C 0.42552 0.35556 1.04986
 H2056 H 0.41276 0.34856 1.04301
 O2057 O 0.57162 0.48110 1.09889
 O2058 O 0.59474 0.48120 1.12207
 C2059 C 0.57861 0.47436 1.11506
 C2060 C 0.56810 0.45808 1.12550
 C2061 C 0.57466 0.45144 1.14415
 H2062 H 0.58698 0.45888 1.15135
 O2063 O 0.42830 0.51947 1.09918
 O2064 O 0.40528 0.51945 1.12248
 C2065 C 0.42138 0.52628 1.11536
 C2066 C 0.43192 0.54263 1.12568
 C2067 C 0.42535 0.54951 1.14425
 H2068 H 0.41268 0.54253 1.15129
 O2069 O 0.48024 0.59922 1.07148
 O2070 O 0.48017 0.62258 1.09447
 C2071 C 0.47341 0.61543 1.07837
 C2072 C 0.45712 0.62576 1.06776
 C2073 C 0.45032 0.64443 1.07422
 H2074 H 0.45731 0.65152 1.08685
 O2075 O 0.51962 0.40096 1.07193
 O2076 O 0.51976 0.37778 1.09508
 C2077 C 0.52646 0.38480 1.07890
 C2078 C 0.54270 0.37439 1.06829
 C2079 C 0.54954 0.35577 1.07483
 H2080 H 0.54263 0.34876 1.08755
 O2081 O 0.59886 0.42852 1.01950
 O2082 O 0.62218 0.40547 1.01952
 C2083 C 0.61507 0.42163 1.02627
 C2084 C 0.62546 0.43229 1.04249
 C2085 C 0.64406 0.42573 1.04928
 H2086 H 0.65127 0.41329 1.04201
 O2087 O 0.40053 0.57145 1.01954
 O2088 O 0.37722 0.59450 1.01954
 C2089 C 0.38435 0.57838 1.02635
 C2090 C 0.37405 0.56781 1.04267
 C2091 C 0.35546 0.57437 1.04954
 H2092 H 0.34840 0.58705 1.04258
 Cu2093 Cu 0.50024 0.41692 1.08317
 Cu2094 Cu 0.50038 0.38918 1.11106
 Cu2095 Cu 0.49969 0.58342 1.08280
 Cu2096 Cu 0.49962 0.61137 1.11050
 Cu2097 Cu 0.41696 0.41659 1.00048
 Cu2098 Cu 0.38922 0.38870 1.00062
 Cu2099 Cu 0.58299 0.41710 1.00018
 Cu2100 Cu 0.61092 0.38936 1.00018
 Cu2101 Cu 0.41635 0.58270 1.00008
 Cu2102 Cu 0.38846 0.61046 1.00006
 Cu2103 Cu 0.58251 0.58329 0.99970
 Cu2104 Cu 0.61024 0.61118 0.99957
 Cu2105 Cu 0.41706 0.49998 1.08335
 Cu2106 Cu 0.38934 0.49994 1.11123
 Cu2107 Cu 0.58286 0.50049 1.08296
 Cu2108 Cu 0.61070 0.50063 1.11071
 C2109 C 0.55194 0.44849 1.11644
 H2110 H 0.54697 0.45336 1.10193
 C2111 C 0.56540 0.43530 1.15363
 C2112 C 0.44808 0.55211 1.11650
 H2113 H 0.45305 0.54708 1.10205
 C2114 C 0.43463 0.56575 1.15354
 C2115 C 0.38325 0.55163 1.05213
 H2116 H 0.39771 0.54667 1.04710
 C2117 C 0.34618 0.56505 1.06575
 C2118 C 0.61638 0.44859 1.05187
 H2119 H 0.60191 0.45356 1.04689
 C2120 C 0.65348 0.43512 1.06537
 C2121 C 0.55208 0.38353 1.05206
 H2122 H 0.54707 0.39801 1.04711
 C2123 C 0.56567 0.34638 1.06544
 C2124 C 0.44762 0.61651 1.05163
 H2125 H 0.45260 0.60199 1.04675
 C2126 C 0.43415 0.65376 1.06487
 C2127 C 0.44847 0.44820 1.11671
 H2128 H 0.45333 0.45314 1.10220
 C2129 C 0.43529 0.43479 1.15392
 C2130 C 0.55164 0.55243 1.11625
 H2131 H 0.54670 0.54741 1.10179
 C2132 C 0.56502 0.56604 1.15333
 C2133 C 0.44835 0.38330 1.05227
 H2134 H 0.45330 0.39776 1.04721
 C2135 C 0.43494 0.34622 1.06598
 C2136 C 0.55135 0.61691 1.05147
 H2137 H 0.54630 0.60245 1.04648
 C2138 C 0.56502 0.65397 1.06499
 C2139 C 0.38370 0.44791 1.05233
 H2140 H 0.39820 0.45282 1.04736
 C2141 C 0.34653 0.43464 1.06577
 C2142 C 0.61609 0.55229 1.05154
 H2143 H 0.60158 0.54731 1.04667
 C2144 C 0.65328 0.56577 1.06472
 C2145 C 1.10911 1.10832 1.26196
 C2146 C 1.09703 1.11892 1.27509
 C2147 C 1.10497 1.12678 1.29259
 C2148 C 1.12529 1.12421 1.29740
 C2149 C 1.13717 1.11324 1.28394
 C2150 C 1.12914 1.10545 1.26646
 C2151 C 1.10105 1.10071 1.24369
 C2152 C 1.09443 1.09449 1.22826
 C2153 C 1.08669 1.08726 1.20970
 C2154 C 1.08104 1.10072 1.19490
 C2155 C 1.07386 1.09376 1.17670
 C2156 C 1.07225 1.07322 1.17307
 C2157 C 1.07789 1.05980 1.18808
 C2158 C 1.08506 1.06679 1.20628
 H2159 H 1.08143 1.12109 1.27182
 H2160 H 1.09482 1.13425 1.30256
 H2161 H 1.15295 1.11134 1.28622
 H2162 H 1.13868 1.09740 1.25628
 H2163 H 1.08232 1.11659 1.19736
 H2164 H 1.06991 1.10446 1.16535
 H2165 H 1.07662 1.04391 1.18580
 H2166 H 1.08937 1.05624 1.21765
 C2167 C 1.10884 0.60920 0.76130
 C2168 C 1.11048 0.62980 0.76379
 C2169 C 1.11829 0.63760 0.78136
 C2170 C 1.12458 0.62489 0.79671
 C2171 C 1.12281 0.60419 0.79410
 C2172 C 1.11498 0.59642 0.77650
 C2173 C 1.10106 0.60126 0.74305
 C2174 C 1.09462 0.59484 0.72763
 C2175 C 1.08702 0.58746 0.70906
 C2176 C 1.08133 0.60082 0.69419
 C2177 C 1.07417 0.59375 0.67604
 C2178 C 1.07262 0.57318 0.67251
 C2179 C 1.07834 0.55985 0.68757
 C2180 C 1.08549 0.56696 0.70574
 H2181 H 1.10584 0.63983 0.75208
 H2182 H 1.11972 0.65358 0.78281
 H2183 H 1.12732 0.59404 0.80574
 H2184 H 1.11375 0.58045 0.77474
 H2185 H 1.08253 0.61671 0.69658
 H2186 H 1.07017 0.60437 0.66464
 H2187 H 1.07712 0.54394 0.68537
 H2188 H 1.08983 0.55649 0.71716
 C2189 C 0.60947 1.10842 0.76205
 C2190 C 0.59682 1.11484 0.77725
 C2191 C 0.60473 1.12264 0.79480
 C2192 C 0.62542 1.12411 0.79737
 C2193 C 0.63800 1.11751 0.78204
 C2194 C 0.63007 1.10973 0.76451
 C2195 C 0.60137 1.10080 0.74380
 C2196 C 0.59472 1.09456 0.72839
 C2197 C 0.58695 1.08731 0.70985
 C2198 C 0.58126 1.10076 0.69505
 C2199 C 0.57405 1.09380 0.67688
 C2200 C 0.57244 1.07325 0.67326
 C2201 C 0.57813 1.05984 0.68826
 C2202 C 0.58533 1.06684 0.70644
 H2203 H 0.58086 1.11388 0.77551
 H2204 H 0.59467 1.12739 0.80642
 H2205 H 0.65398 1.11870 0.78345
 H2206 H 0.63999 1.10488 0.75280
 H2207 H 0.58254 1.11664 0.69750
 H2208 H 0.57008 1.10448 0.66553
 H2209 H 0.57686 1.04394 0.68599
 H2210 H 0.58967 1.05630 0.71780
 C2211 C 0.60855 0.60960 1.26153
 C2212 C 0.60588 0.62968 1.26609
 C2213 C 0.61376 0.63759 1.28359
 C2214 C 0.62460 0.62554 1.29701
 C2215 C 0.62698 0.60519 1.29211
 C2216 C 0.61903 0.59737 1.27459
 C2217 C 0.60077 0.60167 1.24327
 C2218 C 0.59434 0.59525 1.22784
 C2219 C 0.58675 0.58785 1.20928
 C2220 C 0.58103 0.60120 1.19441
 C2221 C 0.57389 0.59412 1.17626
 C2222 C 0.57238 0.57354 1.17273
 C2223 C 0.57813 0.56023 1.18779
 C2224 C 0.58527 0.56736 1.20595
 H2225 H 0.59793 0.63935 1.25597
 H2226 H 0.61201 0.65340 1.28593
 H2227 H 0.63435 0.59493 1.30203
 H2228 H 0.62104 0.58173 1.27127
 H2229 H 0.58220 0.61709 1.19680
 H2230 H 0.56986 0.60473 1.16486
 H2231 H 0.57694 0.54432 1.18559
 H2232 H 0.58964 0.55689 1.21738
 C2233 C 0.89090 0.89179 1.26191
 C2234 C 0.87087 0.89462 1.26643
 C2235 C 0.86284 0.88670 1.28385
 C2236 C 0.87473 0.87564 1.29723
 C2237 C 0.89504 0.87309 1.29239
 C2238 C 0.90298 0.88108 1.27495
 C2239 C 0.89895 0.89955 1.24370
 C2240 C 0.90555 0.90587 1.22831
 C2241 C 0.91327 0.91320 1.20978
 C2242 C 0.91480 0.93368 1.20641
 C2243 C 0.92200 0.94074 1.18825
 C2244 C 0.92777 0.92738 1.17323
 C2245 C 0.92623 0.90682 1.17681
 C2246 C 0.91902 0.89979 1.19496
 H2247 H 0.86132 0.90274 1.25632
 H2248 H 0.84707 0.88858 1.28614
 H2249 H 0.90518 0.86554 1.30229
 H2250 H 0.91858 0.87893 1.27166
 H2251 H 0.91040 0.94418 1.21779
 H2252 H 0.92321 0.95664 1.18601
 H2253 H 0.93026 0.89616 1.16545
 H2254 H 0.91781 0.88391 1.19738
 C2255 C 0.89088 0.39115 0.76135
 C2256 C 0.87084 0.39401 0.76580
 C2257 C 0.86275 0.38612 0.78320
 C2258 C 0.87458 0.37507 0.79664
 C2259 C 0.89489 0.37245 0.79185
 C2260 C 0.90289 0.38041 0.77442
 C2261 C 0.89899 0.39893 0.74318
 C2262 C 0.90560 0.40531 0.72781
 C2263 C 0.91330 0.41272 0.70931
 C2264 C 0.91481 0.43322 0.70602
 C2265 C 0.92196 0.44037 0.68788
 C2266 C 0.92771 0.42708 0.67280
 C2267 C 0.92618 0.40650 0.67628
 C2268 C 0.91902 0.39939 0.69442
 H2269 H 0.86134 0.40214 0.75566
 H2270 H 0.84697 0.38804 0.78544
 H2271 H 0.90498 0.36488 0.80179
 H2272 H 0.91850 0.37822 0.77118
 H2273 H 0.91042 0.44367 0.71746
 H2274 H 0.92316 0.45628 0.68571
 H2275 H 0.93020 0.39589 0.66487
 H2276 H 0.91782 0.38349 0.69677
 C2277 C 0.39145 0.89109 0.76176
 C2278 C 0.38532 0.90380 0.77704
 C2279 C 0.37746 0.89594 0.79458
 C2280 C 0.37564 0.87523 0.79706
 C2281 C 0.38194 0.86259 0.78164
 C2282 C 0.38978 0.87048 0.76412
 C2283 C 0.39922 0.89912 0.74355
 C2284 C 0.40565 0.90560 0.72816
 C2285 C 0.41324 0.91302 0.70962
 C2286 C 0.41479 0.93352 0.70634
 C2287 C 0.42193 0.94067 0.68820
 C2288 C 0.42763 0.92737 0.67310
 C2289 C 0.42605 0.90679 0.67657
 C2290 C 0.41890 0.89969 0.69470
 H2291 H 0.38658 0.91978 0.77538
 H2292 H 0.37295 0.90604 0.80627
 H2293 H 0.38047 0.84661 0.78298
 H2294 H 0.39441 0.86051 0.75236
 H2295 H 0.41046 0.94397 0.71780
 H2296 H 0.42317 0.95658 0.68603
 H2297 H 0.43004 0.89619 0.66514
 H2298 H 0.41768 0.88379 0.69705
 C2299 C 0.39163 0.39188 1.26227
 C2300 C 0.40368 0.38116 1.27533
 C2301 C 0.39573 0.37328 1.29282
 C2302 C 0.37544 0.37596 1.29768
 C2303 C 0.36358 0.38699 1.28425
 C2304 C 0.37162 0.39480 1.26679
 C2305 C 0.39968 0.39957 1.24403
 C2306 C 0.40622 0.40587 1.22861
 C2307 C 0.41383 0.41319 1.21003
 C2308 C 0.41947 0.39979 1.19517
 C2309 C 0.42652 0.40681 1.17697
 C2310 C 0.42803 0.42737 1.17338
 C2311 C 0.42237 0.44074 1.18843
 C2312 C 0.41532 0.43367 1.20665
 H2313 H 0.41927 0.37893 1.27202
 H2314 H 0.40585 0.36572 1.30274
 H2315 H 0.34781 0.38894 1.28654
 H2316 H 0.36209 0.40292 1.25665
 H2317 H 0.41827 0.38390 1.19760
 H2318 H 0.43047 0.39615 1.16557
 H2319 H 0.42357 0.45664 1.18618
 H2320 H 0.41101 0.44418 1.21806
 C2321 C 0.89065 1.10862 0.73832
 C2322 C 0.88013 1.09653 0.72515
 C2323 C 0.87227 1.10451 0.70766
 C2324 C 0.87478 1.12488 0.70290
 C2325 C 0.88563 1.13678 0.71644
 C2326 C 0.89342 1.12871 0.73391
 C2327 C 0.89839 1.10054 0.75653
 C2328 C 0.90483 1.09404 0.77192
 C2329 C 0.91247 1.08663 0.79045
 C2330 C 0.91407 1.06614 0.79374
 C2331 C 0.92132 1.05902 0.81186
 C2332 C 0.92707 1.07234 0.82692
 C2333 C 0.92541 1.09291 0.82344
 C2334 C 0.91816 1.09999 0.80533
 H2335 H 0.87803 1.08088 0.72835
 H2336 H 0.86487 1.09436 0.69764
 H2337 H 0.88746 1.15259 0.71423
 H2338 H 0.90140 1.13826 0.74412
 H2339 H 0.90973 1.05567 0.78230
 H2340 H 0.92261 1.04311 0.81403
 H2341 H 0.92943 1.10353 0.83484
 H2342 H 0.91690 1.11588 0.80298
 C2343 C 0.89059 0.60762 0.23786
 C2344 C 0.87001 0.60914 0.23543
 C2345 C 0.86213 0.61708 0.21795
 C2346 C 0.87475 0.62364 0.20264
 C2347 C 0.89543 0.62196 0.20518
 C2348 C 0.90328 0.61400 0.22269
 C2349 C 0.89863 0.59987 0.25607
 C2350 C 0.90522 0.59356 0.27148
 C2351 C 0.91293 0.58627 0.29002
 C2352 C 0.91452 0.56579 0.29342
 C2353 C 0.92169 0.55877 0.31160
 C2354 C 0.92739 0.57216 0.32661
 C2355 C 0.92579 0.59272 0.32301
 C2356 C 0.91861 0.59970 0.30484
 H2357 H 0.86005 0.60433 0.24712
 H2358 H 0.84616 0.61843 0.21655
 H2359 H 0.90552 0.62667 0.19358
 H2360 H 0.91924 0.61288 0.22441
 H2361 H 0.91017 0.55527 0.28204
 H2362 H 0.92295 0.54287 0.31386
 H2363 H 0.92978 0.60339 0.33437
 H2364 H 0.91736 0.61558 0.30240
 C2365 C 0.39097 1.10817 0.23829
 C2366 C 0.40306 1.11875 0.22518
 C2367 C 0.39512 1.12668 0.20770
 C2368 C 0.37479 1.12420 0.20292
 C2369 C 0.36289 1.11325 0.21637
 C2370 C 0.37092 1.10540 0.23382
 C2371 C 0.39901 1.10051 0.25655
 C2372 C 0.40560 1.09425 0.27197
 C2373 C 0.41329 1.08701 0.29055
 C2374 C 0.41888 1.10047 0.30537
 C2375 C 0.42603 1.09352 0.32357
 C2376 C 0.42766 1.07297 0.32720
 C2377 C 0.42205 1.05955 0.31218
 C2378 C 0.41491 1.06654 0.29397
 H2379 H 0.41868 1.12086 0.22843
 H2380 H 0.40527 1.13413 0.19774
 H2381 H 0.34710 1.11143 0.21412
 H2382 H 0.36136 1.09738 0.24400
 H2383 H 0.41759 1.11634 0.30291
 H2384 H 0.42994 1.10421 0.33494
 H2385 H 0.42334 1.04366 0.31446
 H2386 H 0.41063 1.05599 0.28258
 C2387 C 0.39014 0.60889 0.73876
 C2388 C 0.38872 0.62952 0.73644
 C2389 C 0.38101 0.63754 0.71892
 C2390 C 0.37460 0.62501 0.70346
 C2391 C 0.37614 0.60428 0.70591
 C2392 C 0.38387 0.59628 0.72345
 C2393 C 0.39784 0.60074 0.75695
 C2394 C 0.40425 0.59419 0.77234
 C2395 C 0.41185 0.58674 0.79087
 C2396 C 0.41754 0.60007 0.80577
 C2397 C 0.42477 0.59296 0.82387
 C2398 C 0.42640 0.57238 0.82732
 C2399 C 0.42064 0.55909 0.81225
 C2400 C 0.41342 0.56624 0.79413
 H2401 H 0.39346 0.63941 0.74822
 H2402 H 0.37976 0.65354 0.71760
 H2403 H 0.37154 0.59427 0.69419
 H2404 H 0.38494 0.58029 0.72509
 H2405 H 0.41631 0.61597 0.80343
 H2406 H 0.42879 0.60356 0.83529
 H2407 H 0.42192 0.54318 0.81440
 H2408 H 0.40907 0.55580 0.78268
 C2409 C 1.10999 0.89025 0.73881
 C2410 C 1.11629 0.90299 0.72364
 C2411 C 1.12414 0.89516 0.70607
 C2412 C 1.12578 0.87445 0.70346
 C2413 C 1.11938 0.86178 0.71881
 C2414 C 1.11154 0.86964 0.73635
 C2415 C 1.10208 0.89824 0.75699
 C2416 C 1.09550 0.90468 0.77235
 C2417 C 1.08773 0.91208 0.79084
 C2418 C 1.08605 0.93257 0.79409
 C2419 C 1.07874 0.93970 0.81219
 C2420 C 1.07301 0.92640 0.82726
 C2421 C 1.07470 0.90582 0.82380
 C2422 C 1.08201 0.89874 0.80572
 H2423 H 1.11512 0.91897 0.72538
 H2424 H 1.12874 0.90527 0.69444
 H2425 H 1.12071 0.84580 0.71737
 H2426 H 1.10679 0.85965 0.74804
 H2427 H 1.09040 0.94303 0.78266
 H2428 H 1.07741 0.95561 0.81433
 H2429 H 1.07070 0.89522 0.83521
 H2430 H 1.08333 0.88284 0.80339
 C2431 C 1.10865 0.39085 0.23809
 C2432 C 1.11492 0.40363 0.22295
 C2433 C 1.12276 0.39585 0.20535
 C2434 C 1.12441 0.37515 0.20269
 C2435 C 1.11799 0.36244 0.21799
 C2436 C 1.11017 0.37025 0.23556
 C2437 C 1.10086 0.39878 0.25635
 C2438 C 1.09442 0.40519 0.27177
 C2439 C 1.08683 0.41254 0.29035
 C2440 C 1.08527 0.43303 0.29371
 C2441 C 1.07815 0.44011 0.31189
 C2442 C 1.07248 0.42676 0.32695
 C2443 C 1.07406 0.40619 0.32339
 C2444 C 1.08119 0.39915 0.30521
 H2445 H 1.11378 0.41961 0.22475
 H2446 H 1.12737 0.40601 0.19376
 H2447 H 1.11933 0.34646 0.21651
 H2448 H 1.10543 0.36022 0.24722
 H2449 H 1.08958 0.44352 0.28229
 H2450 H 1.07690 0.45601 0.31412
 H2451 H 1.07009 0.39555 0.33478
 H2452 H 1.08242 0.38327 0.30280
 C2453 C 0.60906 0.89091 0.23864
 C2454 C 0.61965 0.90305 0.22558
 C2455 C 0.62758 0.89515 0.20808
 C2456 C 0.62508 0.87481 0.20321
 C2457 C 0.61415 0.86286 0.21663
 C2458 C 0.60629 0.87084 0.23410
 C2459 C 0.60127 0.89892 0.25687
 C2460 C 0.59483 0.90540 0.27228
 C2461 C 0.58722 0.91285 0.29081
 C2462 C 0.58564 0.93335 0.29407
 C2463 C 0.57846 0.94052 0.31220
 C2464 C 0.57275 0.92725 0.32730
 C2465 C 0.57435 0.90666 0.32385
 C2466 C 0.58154 0.89954 0.30573
 H2467 H 0.62175 0.91868 0.22889
 H2468 H 0.63503 0.90535 0.19817
 H2469 H 0.61231 0.84706 0.21431
 H2470 H 0.59825 0.86125 0.24422
 H2471 H 0.58998 0.94379 0.28261
 H2472 H 0.57720 0.95644 0.31434
 H2473 H 0.57036 0.89607 0.33528
 H2474 H 0.58277 0.88364 0.30340
 C2475 C 0.60926 0.39112 0.73870
 C2476 C 0.61552 0.40386 0.72351
 C2477 C 0.62345 0.39603 0.70597
 C2478 C 0.62518 0.37532 0.70341
 C2479 C 0.61881 0.36266 0.71877
 C2480 C 0.61091 0.37052 0.73628
 C2481 C 0.60130 0.39909 0.75686
 C2482 C 0.59470 0.40549 0.77222
 C2483 C 0.58691 0.41281 0.79073
 C2484 C 0.58517 0.43329 0.79404
 C2485 C 0.57789 0.44034 0.81218
 C2486 C 0.57224 0.42697 0.82722
 C2487 C 0.57396 0.40641 0.82369
 C2488 C 0.58125 0.39940 0.80557
 H2489 H 0.61429 0.41984 0.72522
 H2490 H 0.62803 0.40614 0.69433
 H2491 H 0.62022 0.34668 0.71737
 H2492 H 0.60618 0.36052 0.74798
 H2493 H 0.58948 0.44380 0.78264
 H2494 H 0.57653 0.45624 0.81438
 H2495 H 0.57001 0.39576 0.83508
 H2496 H 0.58261 0.38352 0.80318
 C2497 C 1.26136 1.10899 1.10932
 C2498 C 1.26370 1.11035 1.12992
 C2499 C 1.28118 1.11815 1.13793
 C2500 C 1.29658 1.12471 1.12543
 C2501 C 1.29411 1.12324 1.10473
 C2502 C 1.27660 1.11542 1.09675
 C2503 C 1.24318 1.10126 1.10116
 C2504 C 1.22782 1.09491 1.09450
 C2505 C 1.20932 1.08753 1.08676
 C2506 C 1.20600 1.06703 1.08531
 C2507 C 1.18785 1.05989 1.07815
 C2508 C 1.17280 1.07320 1.07234
 C2509 C 1.17633 1.09378 1.07378
 C2510 C 1.19447 1.10087 1.08095
 H2511 H 1.25195 1.10550 1.13979
 H2512 H 1.28252 1.11935 1.15391
 H2513 H 1.30579 1.12797 1.09474
 H2514 H 1.27495 1.11442 1.08078
 H2515 H 1.21740 1.05657 1.08976
 H2516 H 1.18564 1.04398 1.07701
 H2517 H 1.16494 1.10439 1.06970
 H2518 H 1.19686 1.11677 1.08210
 C2519 C 1.26130 0.60929 0.60908
 C2520 C 1.26366 0.62990 0.61062
 C2521 C 1.28114 0.63783 0.61852
 C2522 C 1.29651 0.62522 0.62500
 C2523 C 1.29402 0.60450 0.62335
 C2524 C 1.27651 0.59660 0.61543
 C2525 C 1.24316 0.60124 0.60115
 C2526 C 1.22781 0.59476 0.59457
 C2527 C 1.20933 0.58736 0.58681
 C2528 C 1.19449 0.60070 0.58098
 C2529 C 1.17639 0.59362 0.57370
 C2530 C 1.17290 0.57304 0.57214
 C2531 C 1.18794 0.55973 0.57798
 C2532 C 1.20605 0.56686 0.58526
 H2533 H 1.25195 0.63985 0.60583
 H2534 H 1.28249 0.65382 0.61986
 H2535 H 1.30567 0.59443 0.62801
 H2536 H 1.27484 0.58062 0.61427
 H2537 H 1.19685 0.61660 0.58220
 H2538 H 1.16501 0.60423 0.56961
 H2539 H 1.18576 0.54382 0.57676
 H2540 H 1.21745 0.55640 0.58970
 C2541 C 0.76173 1.10904 0.60949
 C2542 C 0.77485 1.09687 0.61999
 C2543 C 0.79236 1.10477 0.62789
 C2544 C 0.79718 1.12512 0.62545
 C2545 C 0.78368 1.13711 0.61465
 C2546 C 0.76620 1.12914 0.60682
 C2547 C 0.74351 1.10105 0.60167
 C2548 C 0.72811 1.09464 0.59516
 C2549 C 0.70958 1.08731 0.58746
 C2550 C 0.70619 1.06683 0.58594
 C2551 C 0.68805 1.05977 0.57869
 C2552 C 0.67305 1.07314 0.57286
 C2553 C 0.67664 1.09370 0.57439
 C2554 C 0.69478 1.10071 0.58165
 H2555 H 0.77159 1.08123 0.62201
 H2556 H 0.80234 1.09456 0.63526
 H2557 H 0.78594 1.15293 0.61289
 H2558 H 0.75602 1.13875 0.59886
 H2559 H 0.71756 1.05632 0.59037
 H2560 H 0.68580 1.04387 0.57748
 H2561 H 0.66530 1.10436 0.57031
 H2562 H 0.69722 1.11660 0.58284
 C2563 C 0.76156 0.60912 1.10816
 C2564 C 0.76397 0.62972 1.10986
 C2565 C 0.78150 0.63755 1.11773
 C2566 C 0.79688 0.62485 1.12404
 C2567 C 0.79434 0.60416 1.12221
 C2568 C 0.77678 0.59635 1.11431
 C2569 C 0.74333 0.60116 1.10035
 C2570 C 0.72791 0.59475 1.09390
 C2571 C 0.70934 0.58740 1.08630
 C2572 C 0.69449 0.60080 1.08061
 C2573 C 0.67630 0.59377 1.07350
 C2574 C 0.67273 0.57321 1.07199
 C2575 C 0.68777 0.55985 1.07770
 C2576 C 0.70597 0.56692 1.08480
 H2577 H 0.75224 0.63973 1.10522
 H2578 H 0.78289 0.65352 1.11922
 H2579 H 0.80600 0.59402 1.12673
 H2580 H 0.77507 0.58038 1.11303
 H2581 H 0.69691 0.61669 1.08180
 H2582 H 0.66492 0.60442 1.06951
 H2583 H 0.68553 0.54394 1.07650
 H2584 H 0.71738 0.55642 1.08915
 C2585 C 1.26241 0.89243 0.89105
 C2586 C 1.27549 0.88185 0.90318
 C2587 C 1.29298 0.87388 0.89531
 C2588 C 1.29782 0.87631 0.87499
 C2589 C 1.28442 0.88730 0.86305
 C2590 C 1.26695 0.89519 0.87102
 C2591 C 1.24412 0.90010 0.89905
 C2592 C 1.22868 0.90633 0.90562
 C2593 C 1.21009 0.91354 0.91333
 C2594 C 1.19537 0.90005 0.91914
 C2595 C 1.17716 0.90696 0.92631
 C2596 C 1.17341 0.92750 0.92777
 C2597 C 1.18833 0.94095 0.92196
 C2598 C 1.20655 0.93400 0.91480
 H2599 H 1.27219 0.87975 0.91879
 H2600 H 1.30290 0.86642 0.90550
 H2601 H 1.28673 0.88911 0.84727
 H2602 H 1.25681 0.90323 0.86143
 H2603 H 1.19793 0.88418 0.91798
 H2604 H 1.16588 0.89624 0.93038
 H2605 H 1.18595 0.95684 0.92312
 H2606 H 1.21784 0.94457 0.91036
 C2607 C 1.26253 0.39234 0.39123
 C2608 C 1.27560 0.38170 0.40332
 C2609 C 1.29310 0.37379 0.39542
 C2610 C 1.29797 0.37636 0.37513
 C2611 C 1.28456 0.38737 0.36323
 C2612 C 1.26707 0.39521 0.37122
 C2613 C 1.24424 0.39999 0.39923
 C2614 C 1.22877 0.40622 0.40575
 C2615 C 1.21015 0.41344 0.41337
 C2616 C 1.19538 0.39996 0.41903
 C2617 C 1.17713 0.40689 0.42610
 C2618 C 1.17340 0.42743 0.42758
 C2619 C 1.18837 0.44088 0.42190
 C2620 C 1.20663 0.43391 0.41484
 H2621 H 1.27228 0.37952 0.41891
 H2622 H 1.30302 0.36627 0.40557
 H2623 H 1.28687 0.38926 0.34746
 H2624 H 1.25694 0.40328 0.36166
 H2625 H 1.19792 0.38409 0.41786
 H2626 H 1.16581 0.39617 0.43007
 H2627 H 1.18601 0.45677 0.42307
 H2628 H 1.21798 0.44447 0.41050
 C2629 C 0.76147 0.89119 0.39078
 C2630 C 0.77680 0.90382 0.38464
 C2631 C 0.79431 0.89587 0.37677
 C2632 C 0.79669 0.87515 0.37494
 C2633 C 0.78121 0.86259 0.38123
 C2634 C 0.76373 0.87057 0.38909
 C2635 C 0.74331 0.89929 0.39861
 C2636 C 0.72794 0.90581 0.40511
 C2637 C 0.70943 0.91325 0.41278
 C2638 C 0.70613 0.93375 0.41428
 C2639 C 0.68800 0.94090 0.42150
 C2640 C 0.67296 0.92761 0.42734
 C2641 C 0.67646 0.90703 0.42580
 C2642 C 0.69457 0.89992 0.41857
 H2643 H 0.77521 0.91981 0.38592
 H2644 H 0.80605 0.90590 0.37226
 H2645 H 0.78249 0.84660 0.37976
 H2646 H 0.75193 0.86066 0.39372
 H2647 H 0.71755 0.94420 0.40985
 H2648 H 0.68581 0.95681 0.42270
 H2649 H 0.66507 0.89643 0.42989
 H2650 H 0.69695 0.88402 0.41739
 C2651 C 0.76122 0.39139 0.89016
 C2652 C 0.77641 0.38487 0.90276
 C2653 C 0.79389 0.37692 0.89480
 C2654 C 0.79637 0.37539 0.87411
 C2655 C 0.78102 0.38206 0.86158
 C2656 C 0.76357 0.39000 0.86957
 C2657 C 0.74306 0.39920 0.89830
 C2658 C 0.72770 0.40558 0.90496
 C2659 C 0.70921 0.41297 0.91273
 C2660 C 0.69438 0.39962 0.91856
 C2661 C 0.67626 0.40670 0.92579
 C2662 C 0.67271 0.42728 0.92729
 C2663 C 0.68773 0.44059 0.92143
 C2664 C 0.70587 0.43347 0.91421
 H2665 H 0.77474 0.38589 0.91873
 H2666 H 0.80552 0.37211 0.90481
 H2667 H 0.78236 0.38083 0.84561
 H2668 H 0.75186 0.39491 0.85968
 H2669 H 0.69678 0.38373 0.91738
 H2670 H 0.66489 0.39608 0.92989
 H2671 H 0.68551 0.45650 0.92261
 H2672 H 0.71725 0.44393 0.90975
 C2673 C 0.73889 0.89101 1.10995
 C2674 C 0.72364 0.88474 1.09730
 C2675 C 0.70607 0.87695 1.10521
 C2676 C 0.70356 0.87535 1.12589
 C2677 C 0.71895 0.88179 1.13847
 C2678 C 0.73649 0.88956 1.13053
 C2679 C 0.75712 0.89872 1.10187
 C2680 C 0.77252 0.90511 1.09534
 C2681 C 0.79106 0.91265 1.08784
 C2682 C 0.79429 0.91411 1.06737
 C2683 C 0.81242 0.92126 1.06016
 C2684 C 0.82753 0.92707 1.07337
 C2685 C 0.82411 0.92556 1.09393
 C2686 C 0.80600 0.91840 1.10109
 H2687 H 0.72533 0.88584 1.08134
 H2688 H 0.69440 0.87233 1.09515
 H2689 H 0.71758 0.88049 1.15443
 H2690 H 0.74823 0.89430 1.14046
 H2691 H 0.78282 0.90972 1.05698
 H2692 H 0.81454 0.92245 1.04427
 H2693 H 0.83555 0.92962 1.10447
 H2694 H 0.80368 0.91725 1.11697
 C2695 C 0.73826 0.39164 0.60908
 C2696 C 0.73380 0.39440 0.62913
 C2697 C 0.71630 0.38663 0.63713
 C2698 C 0.70278 0.37578 0.62521
 C2699 C 0.70757 0.37331 0.60487
 C2700 C 0.72509 0.38116 0.59696
 C2701 C 0.75653 0.39930 0.60106
 C2702 C 0.77198 0.40563 0.59459
 C2703 C 0.79057 0.41311 0.58718
 C2704 C 0.80550 0.41874 0.60049
 C2705 C 0.82367 0.42582 0.59340
 C2706 C 0.82717 0.42737 0.57286
 C2707 C 0.81206 0.42169 0.55958
 C2708 C 0.79387 0.41462 0.56672
 H2709 H 0.74401 0.40235 0.63870
 H2710 H 0.71405 0.38844 0.65292
 H2711 H 0.69756 0.36594 0.59470
 H2712 H 0.72833 0.37908 0.58134
 H2713 H 0.80313 0.41755 0.61636
 H2714 H 0.83510 0.42978 0.60399
 H2715 H 0.81424 0.42291 0.54370
 H2716 H 0.78240 0.41032 0.55628
 C2717 C 0.23848 0.89105 0.60893
 C2718 C 0.22545 0.90310 0.61969
 C2719 C 0.20798 0.89514 0.62761
 C2720 C 0.20311 0.87483 0.62494
 C2721 C 0.21651 0.86296 0.61387
 C2722 C 0.23395 0.87100 0.60601
 C2723 C 0.25670 0.89911 0.60119
 C2724 C 0.27209 0.90568 0.59483
 C2725 C 0.29063 0.91334 0.58745
 C2726 C 0.30554 0.91900 0.60077
 C2727 C 0.32369 0.92614 0.59369
 C2728 C 0.32719 0.92770 0.57315
 C2729 C 0.31210 0.92201 0.55987
 C2730 C 0.29393 0.91488 0.56699
 H2731 H 0.22876 0.91871 0.62192
 H2732 H 0.19808 0.90528 0.63519
 H2733 H 0.21420 0.84717 0.61191
 H2734 H 0.24406 0.86147 0.59787
 H2735 H 0.30318 0.91777 0.61664
 H2736 H 0.33512 0.93011 0.60428
 H2737 H 0.31428 0.92325 0.54399
 H2738 H 0.28248 0.91055 0.55655
 C2739 C 0.23789 0.39187 1.10894
 C2740 C 0.23335 0.39452 1.12899
 C2741 C 0.21579 0.38674 1.13687
 C2742 C 0.20230 0.37600 1.12481
 C2743 C 0.20716 0.37367 1.10448
 C2744 C 0.22473 0.38152 1.09670
 C2745 C 0.25622 0.39951 1.10105
 C2746 C 0.27172 0.40581 1.09467
 C2747 C 0.29037 0.41324 1.08734
 C2748 C 0.30524 0.41884 1.10072
 C2749 C 0.32347 0.42585 1.09371
 C2750 C 0.32707 0.42736 1.07318
 C2751 C 0.31201 0.42171 1.05984
 C2752 C 0.29377 0.41470 1.06689
 H2753 H 0.24354 0.40238 1.13866
 H2754 H 0.21348 0.38845 1.15266
 H2755 H 0.19718 0.36639 1.09422
 H2756 H 0.22804 0.37952 1.08108
 H2757 H 0.30279 0.41768 1.11657
 H2758 H 0.33487 0.42980 1.10435
 H2759 H 0.31427 0.42290 1.04397
 H2760 H 0.28234 0.41042 1.05641
 C2761 C 0.73796 1.10825 0.89202
 C2762 C 0.72484 1.09612 0.88150
 C2763 C 0.70736 1.10405 0.87355
 C2764 C 0.70258 1.12443 0.87597
 C2765 C 0.71606 1.13637 0.88686
 C2766 C 0.73351 1.12835 0.89473
 C2767 C 0.75622 1.10021 0.89971
 C2768 C 0.77166 1.09365 0.90598
 C2769 C 0.79024 1.08599 0.91324
 C2770 C 0.80507 1.08034 0.89982
 C2771 C 0.82330 1.07324 0.90678
 C2772 C 0.82694 1.07172 0.92730
 C2773 C 0.81191 1.07738 0.94068
 C2774 C 0.79368 1.08447 0.93367
 H2775 H 0.72809 1.08047 0.87944
 H2776 H 0.69739 1.09387 0.86614
 H2777 H 0.71382 1.15219 0.88863
 H2778 H 0.74369 1.13793 0.90271
 H2779 H 0.80260 1.08155 0.88397
 H2780 H 0.83466 1.06929 0.89612
 H2781 H 0.81420 1.07617 0.95655
 H2782 H 0.78229 1.08879 0.94419
 C2783 C 0.73833 0.60857 0.39023
 C2784 C 0.72311 0.61490 0.40289
 C2785 C 0.70557 0.62278 0.39501
 C2786 C 0.70304 0.62441 0.37433
 C2787 C 0.71840 0.61790 0.36174
 C2788 C 0.73592 0.61005 0.36965
 C2789 C 0.75654 0.60079 0.39828
 C2790 C 0.77194 0.59437 0.40479
 C2791 C 0.79048 0.58679 0.41225
 C2792 C 0.79372 0.58527 0.43273
 C2793 C 0.81186 0.57811 0.43990
 C2794 C 0.82698 0.57236 0.42666
 C2795 C 0.82355 0.57392 0.40612
 C2796 C 0.80542 0.58109 0.39898
 H2797 H 0.72481 0.61378 0.41885
 H2798 H 0.69392 0.62745 0.40508
 H2799 H 0.71702 0.61923 0.34577
 H2800 H 0.74764 0.60526 0.35971
 H2801 H 0.78224 0.58962 0.44313
 H2802 H 0.81400 0.57688 0.45579
 H2803 H 0.83499 0.56991 0.39556
 H2804 H 0.80310 0.58229 0.38311
 C2805 C 0.23827 1.10861 0.39093
 C2806 C 0.23380 1.12871 0.39355
 C2807 C 0.21633 1.13668 0.38568
 C2808 C 0.20283 1.12468 0.37489
 C2809 C 0.20765 1.10431 0.37251
 C2810 C 0.22515 1.09642 0.38045
 C2811 C 0.25648 1.10063 0.39877
 C2812 C 0.27188 1.09423 0.40530
 C2813 C 0.29042 1.08693 0.41301
 C2814 C 0.30520 1.10036 0.41880
 C2815 C 0.32335 1.09338 0.42605
 C2816 C 0.32697 1.07283 0.42762
 C2817 C 0.31200 1.05943 0.42183
 C2818 C 0.29384 1.06645 0.41458
 H2819 H 0.24397 1.13834 0.40149
 H2820 H 0.21407 1.15251 0.38740
 H2821 H 0.19768 1.09409 0.36515
 H2822 H 0.22841 1.08076 0.37846
 H2823 H 0.30274 1.11624 0.41757
 H2824 H 0.33468 1.10406 0.43011
 H2825 H 0.31428 1.04353 0.42306
 H2826 H 0.28249 1.05593 0.41017
 C2827 C 0.23748 0.60751 0.89112
 C2828 C 0.22431 0.61796 0.90327
 C2829 C 0.20682 0.62590 0.89537
 C2830 C 0.20207 0.62356 0.87501
 C2831 C 0.21557 0.61271 0.86306
 C2832 C 0.23304 0.60485 0.87105
 C2833 C 0.25576 0.59982 0.89913
 C2834 C 0.27120 0.59349 0.90561
 C2835 C 0.28980 0.58603 0.91304
 C2836 C 0.29311 0.58459 0.93351
 C2837 C 0.31131 0.57756 0.94066
 C2838 C 0.32643 0.57186 0.92739
 C2839 C 0.32293 0.57335 0.90685
 C2840 C 0.30474 0.58039 0.89975
 H2841 H 0.22753 0.61997 0.91890
 H2842 H 0.19681 0.63325 0.90556
 H2843 H 0.21334 0.61098 0.84726
 H2844 H 0.24326 0.59691 0.86146
 H2845 H 0.28163 0.58891 0.94393
 H2846 H 0.31349 0.57638 0.95654
 H2847 H 0.33437 0.56938 0.89627
 H2848 H 0.30237 0.58154 0.88387
 C2849 C 1.10893 1.26231 1.10785
 C2850 C 1.09627 1.27754 1.11419
 C2851 C 1.10415 1.29510 1.12204
 C2852 C 1.12484 1.29763 1.12364
 C2853 C 1.13744 1.28226 1.11711
 C2854 C 1.12952 1.26473 1.10928
 C2855 C 1.10088 1.24406 1.10013
 C2856 C 1.09439 1.22862 1.09375
 C2857 C 1.08697 1.21002 1.08625
 C2858 C 1.06650 1.20673 1.08476
 C2859 C 1.05936 1.18852 1.07769
 C2860 C 1.07264 1.17338 1.07200
 C2861 C 1.09318 1.17687 1.07353
 C2862 C 1.10028 1.19507 1.08060
 H2863 H 1.08030 1.27583 1.11312
 H2864 H 1.09409 1.30676 1.12673
 H2865 H 1.15341 1.28365 1.11840
 H2866 H 1.13946 1.25299 1.10448
 H2867 H 1.05606 1.21821 1.08907
 H2868 H 1.04347 1.18634 1.07649
 H2869 H 1.10377 1.16542 1.06956
 H2870 H 1.11615 1.19743 1.08178
 C2871 C 1.10924 0.76161 0.60863
 C2872 C 1.12984 0.76392 0.61001
 C2873 C 1.13787 0.78138 0.61790
 C2874 C 1.12537 0.79678 0.62453
 C2875 C 1.10466 0.79435 0.62304
 C2876 C 1.09666 0.77686 0.61512
 C2877 C 1.10110 0.74346 0.60077
 C2878 C 1.09456 0.72810 0.59424
 C2879 C 1.08712 0.70959 0.58654
 C2880 C 1.10042 0.69467 0.58080
 C2881 C 1.09332 0.67654 0.57356
 C2882 C 1.07277 0.67310 0.57196
 C2883 C 1.05950 0.68821 0.57773
 C2884 C 1.06665 0.70635 0.58497
 H2885 H 1.13971 0.75217 0.60510
 H2886 H 1.15385 0.78269 0.61912
 H2887 H 1.09467 0.80603 0.62782
 H2888 H 1.08069 0.77523 0.61410
 H2889 H 1.11630 0.69699 0.58205
 H2890 H 1.10390 0.66510 0.56953
 H2891 H 1.04361 0.68606 0.57648
 H2892 H 1.05623 0.71782 0.58935
 C2893 C 0.60963 1.26202 0.60889
 C2894 C 0.61126 1.26429 0.62947
 C2895 C 0.61907 1.28180 0.63745
 C2896 C 0.62539 1.29730 0.62493
 C2897 C 0.62368 1.29489 0.60424
 C2898 C 0.61583 1.27735 0.59629
 C2899 C 0.60175 1.24386 0.60080
 C2900 C 0.59520 1.22849 0.59433
 C2901 C 0.58744 1.20997 0.58697
 C2902 C 0.58165 1.19513 0.60033
 C2903 C 0.57436 1.17700 0.59330
 C2904 C 0.57275 1.17346 0.57277
 C2905 C 0.57856 1.18849 0.55945
 C2906 C 0.58585 1.20664 0.56652
 H2907 H 0.60658 1.25248 0.63936
 H2908 H 0.62047 1.28308 0.65342
 H2909 H 0.62821 1.30665 0.59423
 H2910 H 0.61461 1.27575 0.58033
 H2911 H 0.58290 1.19752 0.61619
 H2912 H 0.57029 1.16561 0.60392
 H2913 H 0.57730 1.18628 0.54357
 H2914 H 0.59027 1.21804 0.55605
 C2915 C 0.60933 0.76172 1.10925
 C2916 C 0.59673 0.77702 1.11557
 C2917 C 0.60469 0.79452 1.12350
 C2918 C 0.62539 0.79692 1.12518
 C2919 C 0.63792 0.78147 1.11870
 C2920 C 0.62992 0.76400 1.11080
 C2921 C 0.60120 0.74357 1.10136
 C2922 C 0.59464 0.72822 1.09483
 C2923 C 0.58712 0.70973 1.08712
 C2924 C 0.56664 0.70655 1.08558
 C2925 C 0.55941 0.68846 1.07831
 C2926 C 0.57261 0.67331 1.07247
 C2927 C 0.59318 0.67669 1.07404
 C2928 C 0.60036 0.69477 1.08132
 H2929 H 0.58076 0.77542 1.11440
 H2930 H 0.59468 0.80624 1.12814
 H2931 H 0.65389 0.78275 1.12006
 H2932 H 0.63981 0.75221 1.10602
 H2933 H 0.55626 0.71805 1.09001
 H2934 H 0.54351 0.68637 1.07709
 H2935 H 0.60371 0.66522 1.06996
 H2936 H 0.61625 0.69704 1.08253
 C2937 C 0.89008 1.26110 0.88973
 C2938 C 0.86950 1.26349 0.88818
 C2939 C 0.86157 1.28104 0.88037
 C2940 C 0.87416 1.29647 0.87398
 C2941 C 0.89485 1.29395 0.87564
 C2942 C 0.90274 1.27637 0.88347
 C2943 C 0.89814 1.24290 0.89758
 C2944 C 0.90466 1.22752 0.90410
 C2945 C 0.91216 1.20902 0.91182
 C2946 C 0.89891 1.19409 0.91765
 C2947 C 0.90608 1.17601 0.92496
 C2948 C 0.92665 1.17261 0.92654
 C2949 C 0.93986 1.18772 0.92068
 C2950 C 0.93264 1.20582 0.91338
 H2951 H 0.85956 1.25174 0.89291
 H2952 H 0.84561 1.28242 0.87903
 H2953 H 0.90490 1.30564 0.87106
 H2954 H 0.91870 1.27469 0.88463
 H2955 H 0.88303 1.19639 0.91643
 H2956 H 0.89554 1.16457 0.92906
 H2957 H 0.95575 1.18562 0.92192
 H2958 H 0.94303 1.21728 0.90894
 C2959 C 0.89068 0.76119 0.38974
 C2960 C 0.87010 0.76355 0.38816
 C2961 C 0.86216 0.78111 0.38040
 C2962 C 0.87473 0.79659 0.37409
 C2963 C 0.89542 0.79408 0.37574
 C2964 C 0.90333 0.77649 0.38353
 C2965 C 0.89874 0.74300 0.39760
 C2966 C 0.90521 0.72762 0.40415
 C2967 C 0.91260 0.70910 0.41191
 C2968 C 0.89928 0.69422 0.41767
 C2969 C 0.90635 0.67611 0.42499
 C2970 C 0.92690 0.67263 0.42665
 C2971 C 0.94019 0.68770 0.42086
 C2972 C 0.93307 0.70582 0.41355
 H2973 H 0.86017 0.75177 0.39285
 H2974 H 0.84619 0.78247 0.37906
 H2975 H 0.90547 0.80581 0.37122
 H2976 H 0.91929 0.77483 0.38471
 H2977 H 0.88341 0.69657 0.41639
 H2978 H 0.89576 0.66470 0.42904
 H2979 H 0.95607 0.68554 0.42216
 H2980 H 0.94351 0.71726 0.40916
 C2981 C 0.39081 1.26211 0.39090
 C2982 C 0.37023 1.26459 0.38939
 C2983 C 0.36238 1.28217 0.38157
 C2984 C 0.37503 1.29753 0.37514
 C2985 C 0.39571 1.29491 0.37676
 C2986 C 0.40353 1.27730 0.38460
 C2987 C 0.39879 1.24388 0.39876
 C2988 C 0.40523 1.22847 0.40528
 C2989 C 0.41262 1.20993 0.41299
 C2990 C 0.39930 1.19503 0.41870
 C2991 C 0.40637 1.17689 0.42596
 C2992 C 0.42692 1.17341 0.42761
 C2993 C 0.44021 1.18851 0.42188
 C2994 C 0.43309 1.20665 0.41463
 H2995 H 0.36025 1.25289 0.39415
 H2996 H 0.34642 1.28362 0.38026
 H2997 H 0.40581 1.30655 0.37214
 H2998 H 0.41949 1.27555 0.38573
 H2999 H 0.38343 1.19738 0.41742
 H3000 H 0.39578 1.16546 0.42997
 H3001 H 0.45609 1.18634 0.42318
 H3002 H 0.44353 1.21810 0.41028
 C3003 C 0.39025 0.76169 0.89130
 C3004 C 0.36968 0.76427 0.88986
 C3005 C 0.36188 0.78187 0.88206
 C3006 C 0.37458 0.79716 0.87557
 C3007 C 0.39525 0.79446 0.87715
 C3008 C 0.40302 0.77683 0.88497
 C3009 C 0.39819 0.74339 0.89904
 C3010 C 0.40461 0.72793 0.90545
 C3011 C 0.41200 0.70933 0.91301
 C3012 C 0.39867 0.69441 0.91867
 C3013 C 0.40574 0.67623 0.92580
 C3014 C 0.42629 0.67270 0.92736
 C3015 C 0.43958 0.68780 0.92166
 C3016 C 0.43246 0.70600 0.91453
 H3017 H 0.35966 0.75260 0.89464
 H3018 H 0.34592 0.78339 0.88077
 H3019 H 0.40539 0.80605 0.87249
 H3020 H 0.41897 0.77500 0.88605
 H3021 H 0.38280 0.69680 0.91746
 H3022 H 0.39514 0.66480 0.92978
 H3023 H 0.45547 0.68560 0.92289
 H3024 H 0.44291 0.71746 0.91021
 C3025 C 1.10939 0.73786 0.89165
 C3026 C 1.09666 0.72274 0.88517
 C3027 C 1.10447 0.70517 0.87724
 C3028 C 1.12515 0.70251 0.87572
 C3029 C 1.13781 0.71776 0.88235
 C3030 C 1.12997 0.73531 0.89026
 C3031 C 1.10142 0.75609 0.89951
 C3032 C 1.09499 0.77151 0.90601
 C3033 C 1.08760 0.79008 0.91365
 C3034 C 1.06713 0.79336 0.91527
 C3035 C 1.06001 0.81154 0.92242
 C3036 C 1.07330 0.82668 0.92806
 C3037 C 1.09384 0.82319 0.92643
 C3038 C 1.10092 0.80501 0.91927
 H3039 H 1.08070 0.72456 0.88621
 H3040 H 1.09435 0.69361 0.87247
 H3041 H 1.15378 0.71628 0.88111
 H3042 H 1.13996 0.74695 0.89516
 H3043 H 1.05669 0.78188 0.91098
 H3044 H 1.04413 0.81372 0.92371
 H3045 H 1.10444 0.83464 0.93037
 H3046 H 1.11679 0.80266 0.91800
 C3047 C 1.10923 0.23819 0.39042
 C3048 C 1.09659 0.22289 0.38417
 C3049 C 1.10452 0.20534 0.37632
 C3050 C 1.12521 0.20287 0.37464
 C3051 C 1.13777 0.21833 0.38100
 C3052 C 1.12982 0.23586 0.38883
 C3053 C 1.10116 0.25636 0.39832
 C3054 C 1.09469 0.27173 0.40489
 C3055 C 1.08730 0.29025 0.41266
 C3056 C 1.06684 0.29349 0.41438
 C3057 C 1.05972 0.31163 0.42166
 C3058 C 1.07302 0.32674 0.42735
 C3059 C 1.09356 0.32329 0.42563
 C3060 C 1.10063 0.30516 0.41833
 H3061 H 1.08063 0.22454 0.38537
 H3062 H 1.09449 0.19362 0.37175
 H3063 H 1.15374 0.21700 0.37964
 H3064 H 1.13973 0.24764 0.39355
 H3065 H 1.05639 0.28203 0.41005
 H3066 H 1.04384 0.31378 0.42301
 H3067 H 1.10415 0.33473 0.42960
 H3068 H 1.11650 0.30283 0.41699
 C3069 C 0.60950 0.73868 0.39101
 C3070 C 0.63008 0.73626 0.38946
 C3071 C 0.63797 0.71872 0.38156
 C3072 C 0.62534 0.70336 0.37509
 C3073 C 0.60466 0.70591 0.37678
 C3074 C 0.59681 0.72347 0.38469
 C3075 C 0.60148 0.75690 0.39886
 C3076 C 0.59500 0.77230 0.40537
 C3077 C 0.58756 0.79084 0.41304
 C3078 C 0.60085 0.80578 0.41872
 C3079 C 0.59372 0.82392 0.42594
 C3080 C 0.57317 0.82735 0.42758
 C3081 C 0.55992 0.81222 0.42186
 C3082 C 0.56708 0.79407 0.41465
 H3083 H 0.64004 0.74798 0.39423
 H3084 H 0.65393 0.71733 0.38020
 H3085 H 0.59458 0.69426 0.37214
 H3086 H 0.58085 0.72518 0.38586
 H3087 H 0.61672 0.80346 0.41746
 H3088 H 0.60429 0.83537 0.42994
 H3089 H 0.54403 0.81436 0.42315
 H3090 H 0.55667 0.78259 0.41031
 C3091 C 0.60920 0.23823 0.89097
 C3092 C 0.62980 0.23583 0.88955
 C3093 C 0.63775 0.21830 0.88176
 C3094 C 0.62519 0.20289 0.87526
 C3095 C 0.60450 0.20543 0.87676
 C3096 C 0.59657 0.22299 0.88459
 C3097 C 0.60113 0.25642 0.89884
 C3098 C 0.59465 0.27180 0.90538
 C3099 C 0.58724 0.29032 0.91311
 C3100 C 0.60056 0.30524 0.91878
 C3101 C 0.59347 0.32337 0.92605
 C3102 C 0.57293 0.32682 0.92774
 C3103 C 0.55965 0.31170 0.92206
 C3104 C 0.56678 0.29356 0.91480
 H3105 H 0.63971 0.24757 0.89438
 H3106 H 0.65373 0.21691 0.88052
 H3107 H 0.59447 0.19375 0.87209
 H3108 H 0.58060 0.22469 0.88565
 H3109 H 0.61643 0.30292 0.91746
 H3110 H 0.60406 0.33482 0.93002
 H3111 H 0.54376 0.31385 0.92339
 H3112 H 0.55634 0.28209 0.91047
 C3113 C 0.89144 0.73833 1.10985
 C3114 C 0.90402 0.72297 1.11608
 C3115 C 0.89602 0.70538 1.12377
 C3116 C 0.87532 0.70295 1.12530
 C3117 C 0.86282 0.71848 1.11897
 C3118 C 0.87084 0.73604 1.11131
 C3119 C 0.89957 0.75653 1.10209
 C3120 C 0.90607 0.77192 1.09562
 C3121 C 0.91347 0.79046 1.08794
 C3122 C 0.93393 0.79375 1.08633
 C3123 C 0.94103 0.81189 1.07906
 C3124 C 0.92772 0.82697 1.07328
 C3125 C 0.90718 0.82347 1.07492
 C3126 C 0.90012 0.80535 1.08220
 H3127 H 0.91999 0.72458 1.11499
 H3128 H 0.90601 0.69361 1.12832
 H3129 H 0.84684 0.71718 1.12023
 H3130 H 0.86097 0.74787 1.10660
 H3131 H 0.94438 0.78231 1.09071
 H3132 H 0.95691 0.81407 1.07778
 H3133 H 0.89657 0.83488 1.07088
 H3134 H 0.88426 0.80298 1.08345
 C3135 C 0.89093 0.23848 0.60964
 C3136 C 0.90354 0.22317 0.61593
 C3137 C 0.89557 0.20563 0.62377
 C3138 C 0.87488 0.20320 0.62539
 C3139 C 0.86235 0.21868 0.61897
 C3140 C 0.87034 0.23618 0.61116
 C3141 C 0.89905 0.25665 0.60179
 C3142 C 0.90555 0.27202 0.59527
 C3143 C 0.91297 0.29053 0.58756
 C3144 C 0.93344 0.29377 0.58591
 C3145 C 0.94057 0.31189 0.57862
 C3146 C 0.92729 0.32700 0.57287
 C3147 C 0.90674 0.32356 0.57454
 C3148 C 0.89966 0.30545 0.58184
 H3149 H 0.91951 0.22478 0.61479
 H3150 H 0.90558 0.19390 0.62838
 H3151 H 0.84638 0.21738 0.62029
 H3152 H 0.86045 0.24797 0.60641
 H3153 H 0.94388 0.28231 0.59027
 H3154 H 0.95646 0.31403 0.57731
 H3155 H 0.89615 0.33500 0.57052
 H3156 H 0.88379 0.30313 0.58313
 C3157 C 0.39097 0.73870 0.60952
 C3158 C 0.40356 0.72339 0.61585
 C3159 C 0.39558 0.70585 0.62366
 C3160 C 0.37488 0.70341 0.62522
 C3161 C 0.36237 0.71887 0.61876
 C3162 C 0.37037 0.73638 0.61097
 C3163 C 0.39909 0.75687 0.60170
 C3164 C 0.40560 0.77225 0.59521
 C3165 C 0.41301 0.79079 0.58753
 C3166 C 0.43348 0.79404 0.58590
 C3167 C 0.44061 0.81218 0.57865
 C3168 C 0.42732 0.82729 0.57291
 C3169 C 0.40678 0.82383 0.57456
 C3170 C 0.39969 0.80570 0.58182
 H3171 H 0.41953 0.72502 0.61476
 H3172 H 0.40558 0.69413 0.62831
 H3173 H 0.34639 0.71756 0.62003
 H3174 H 0.36049 0.74817 0.60619
 H3175 H 0.44392 0.78257 0.59026
 H3176 H 0.45649 0.81433 0.57736
 H3177 H 0.39618 0.83527 0.57056
 H3178 H 0.38382 0.80337 0.58309
 C3179 C 0.39084 0.23830 1.10997
 C3180 C 0.38442 0.22311 1.09729
 C3181 C 0.37653 0.20555 1.10516
 C3182 C 0.37498 0.20297 1.12584
 C3183 C 0.38154 0.21831 1.13845
 C3184 C 0.38941 0.23584 1.13055
 C3185 C 0.39871 0.25649 1.10195
 C3186 C 0.40524 0.27187 1.09546
 C3187 C 0.41294 0.29038 1.08799
 C3188 C 0.41445 0.29361 1.06752
 C3189 C 0.42169 0.31172 1.06033
 C3190 C 0.42753 0.32684 1.07355
 C3191 C 0.42601 0.32341 1.09410
 C3192 C 0.41876 0.30530 1.10125
 H3193 H 0.38549 0.22485 1.08134
 H3194 H 0.37181 0.19393 1.09508
 H3195 H 0.38029 0.21689 1.15441
 H3196 H 0.39426 0.24753 1.14050
 H3197 H 0.41001 0.28214 1.05712
 H3198 H 0.42289 0.31385 1.04444
 H3199 H 0.43010 0.33485 1.10465
 H3200 H 0.41758 0.30298 1.11713
 C3201 C 1.10788 1.10819 0.73771
 C3202 C 1.11853 1.09606 0.72466
 C3203 C 1.12647 1.10398 0.70718
 C3204 C 1.12393 1.12432 0.70233
 C3205 C 1.11294 1.13625 0.71574
 C3206 C 1.10507 1.12825 0.73319
 C3207 C 1.10017 1.10018 0.75596
 C3208 C 1.09387 1.09366 0.77139
 C3209 C 1.08658 1.08608 0.78999
 C3210 C 1.09998 1.08047 0.80484
 C3211 C 1.09298 1.07343 0.82306
 C3212 C 1.07245 1.07191 0.82668
 C3213 C 1.05909 1.07755 0.81163
 C3214 C 1.06613 1.08458 0.79340
 H3215 H 1.12068 1.08044 0.72796
 H3216 H 1.13398 1.09381 0.69727
 H3217 H 1.11108 1.15205 0.71345
 H3218 H 1.09700 1.13783 0.74331
 H3219 H 1.11583 1.08166 0.80239
 H3220 H 1.10364 1.06949 0.83445
 H3221 H 1.04322 1.07635 0.81390
 H3222 H 1.05563 1.08889 0.78199
 C3223 C 1.10782 0.60840 0.23760
 C3224 C 1.11847 0.59628 0.22454
 C3225 C 1.12643 0.60421 0.20708
 C3226 C 1.12391 0.62455 0.20225
 C3227 C 1.11291 0.63648 0.21566
 C3228 C 1.10502 0.62847 0.23309
 C3229 C 1.10011 0.60038 0.25584
 C3230 C 1.09381 0.59385 0.27127
 C3231 C 1.08653 0.58624 0.28985
 C3232 C 1.09994 0.58063 0.30470
 C3233 C 1.09296 0.57355 0.32291
 C3234 C 1.07244 0.57201 0.32653
 C3235 C 1.05906 0.57765 0.31149
 C3236 C 1.06609 0.58471 0.29327
 H3237 H 1.12061 0.58066 0.22784
 H3238 H 1.13394 0.59404 0.19717
 H3239 H 1.11106 0.65229 0.21338
 H3240 H 1.09695 0.63804 0.24322
 H3241 H 1.11580 0.58184 0.30224
 H3242 H 1.10363 0.56962 0.33429
 H3243 H 1.04319 0.57642 0.31377
 H3244 H 1.05558 0.58901 0.28187
 C3245 C 0.60939 1.10866 0.23854
 C3246 C 0.59679 1.11489 0.22323
 C3247 C 0.60474 1.12277 0.20574
 C3248 C 0.62543 1.12453 0.20336
 C3249 C 0.63797 1.11812 0.21881
 C3250 C 0.62998 1.11025 0.23627
 C3251 C 0.60124 1.10096 0.25673
 C3252 C 0.59457 1.09467 0.27211
 C3253 C 0.58679 1.08738 0.29062
 C3254 C 0.58112 1.10079 0.30546
 C3255 C 0.57392 1.09378 0.32362
 C3256 C 0.57231 1.07323 0.32718
 C3257 C 0.57797 1.05985 0.31214
 C3258 C 0.58516 1.06690 0.29397
 H3259 H 0.58082 1.11370 0.22483
 H3260 H 0.59473 1.12736 0.19403
 H3261 H 0.65393 1.11954 0.21754
 H3262 H 0.63987 1.10556 0.24807
 H3263 H 0.58241 1.11667 0.30306
 H3264 H 0.56996 1.10445 0.33501
 H3265 H 0.57669 1.04395 0.31437
 H3266 H 0.58949 1.05638 0.28257
 C3267 C 0.60890 0.60948 0.73880
 C3268 C 0.62951 0.61086 0.73650
 C3269 C 0.63754 0.61863 0.71902
 C3270 C 0.62505 0.62514 0.70357
 C3271 C 0.60435 0.62364 0.70601
 C3272 C 0.59634 0.61585 0.72352
 C3273 C 0.60074 0.60168 0.75695
 C3274 C 0.59419 0.59519 0.77230
 C3275 C 0.58672 0.58751 0.79078
 C3276 C 0.59999 0.58176 0.80570
 C3277 C 0.59286 0.57448 0.82377
 C3278 C 0.57231 0.57284 0.82718
 C3279 C 0.55906 0.57864 0.81208
 C3280 C 0.56624 0.58591 0.79399
 H3281 H 0.63937 0.60605 0.74827
 H3282 H 0.65352 0.61986 0.71771
 H3283 H 0.59436 0.62832 0.69431
 H3284 H 0.58036 0.61481 0.72514
 H3285 H 0.61587 0.58301 0.80340
 H3286 H 0.60342 0.57043 0.83520
 H3287 H 0.54317 0.57736 0.81419
 H3288 H 0.55583 0.59030 0.78253
 C3289 C 0.89137 0.89053 0.73846
 C3290 C 0.88501 0.90330 0.72333
 C3291 C 0.87712 0.89550 0.70577
 C3292 C 0.87551 0.87480 0.70313
 C3293 C 0.88201 0.86210 0.71841
 C3294 C 0.88988 0.86992 0.73594
 C3295 C 0.89923 0.89848 0.75667
 C3296 C 0.90573 0.90489 0.77207
 C3297 C 0.91340 0.91225 0.79060
 C3298 C 0.91500 0.93274 0.79393
 C3299 C 0.92218 0.93982 0.81209
 C3300 C 0.92787 0.92648 0.82714
 C3301 C 0.92627 0.90591 0.82361
 C3302 C 0.91908 0.89887 0.80546
 H3303 H 0.88613 0.91927 0.72512
 H3304 H 0.87245 0.90564 0.69419
 H3305 H 0.88070 0.84611 0.71694
 H3306 H 0.89468 0.85991 0.74759
 H3307 H 0.91066 0.94322 0.78251
 H3308 H 0.92344 0.95572 0.81430
 H3309 H 0.93026 0.89527 0.83500
 H3310 H 0.91783 0.88298 0.80307
 C3311 C 0.89117 0.39056 0.23821
 C3312 C 0.88477 0.40332 0.22309
 C3313 C 0.87691 0.39550 0.20553
 C3314 C 0.87537 0.37479 0.20286
 C3315 C 0.88193 0.36211 0.21813
 C3316 C 0.88976 0.36995 0.23568
 C3317 C 0.89899 0.39853 0.25643
 C3318 C 0.90546 0.40496 0.27184
 C3319 C 0.91309 0.41234 0.29038
 C3320 C 0.91465 0.43283 0.29370
 C3321 C 0.92181 0.43994 0.31186
 C3322 C 0.92752 0.42661 0.32692
 C3323 C 0.92595 0.40604 0.32340
 C3324 C 0.91877 0.39898 0.30525
 H3325 H 0.88582 0.41929 0.22490
 H3326 H 0.87219 0.40563 0.19395
 H3327 H 0.88068 0.34612 0.21665
 H3328 H 0.89460 0.35994 0.24732
 H3329 H 0.91030 0.44331 0.28228
 H3330 H 0.92305 0.45584 0.31406
 H3331 H 0.92994 0.39541 0.33480
 H3332 H 0.91755 0.38309 0.30287
 C3333 C 0.39126 0.89087 0.23871
 C3334 C 0.38489 0.90357 0.22353
 C3335 C 0.37706 0.89568 0.20598
 C3336 C 0.37551 0.87497 0.20340
 C3337 C 0.38204 0.86234 0.21873
 C3338 C 0.38985 0.87025 0.23625
 C3339 C 0.39903 0.89891 0.25693
 C3340 C 0.40545 0.90541 0.27232
 C3341 C 0.41304 0.91285 0.29086
 C3342 C 0.41458 0.93336 0.29412
 C3343 C 0.42174 0.94052 0.31226
 C3344 C 0.42748 0.92724 0.32736
 C3345 C 0.42590 0.90666 0.32389
 C3346 C 0.41873 0.89954 0.30577
 H3347 H 0.38595 0.91955 0.22527
 H3348 H 0.37236 0.90578 0.19437
 H3349 H 0.38078 0.84635 0.21731
 H3350 H 0.39467 0.86028 0.24794
 H3351 H 0.41023 0.94380 0.28267
 H3352 H 0.42298 0.95643 0.31442
 H3353 H 0.42991 0.89606 0.33532
 H3354 H 0.41752 0.88364 0.30343
 C3355 C 0.39092 0.39198 0.73810
 C3356 C 0.40312 0.38158 0.72493
 C3357 C 0.39528 0.37369 0.70740
 C3358 C 0.37493 0.37603 0.70260
 C3359 C 0.36292 0.38683 0.71609
 C3360 C 0.37085 0.39464 0.73361
 C3361 C 0.39889 0.39959 0.75641
 C3362 C 0.40544 0.40579 0.77187
 C3363 C 0.41312 0.41297 0.79047
 C3364 C 0.41879 0.39947 0.80523
 C3365 C 0.42594 0.40637 0.82345
 C3366 C 0.42750 0.42691 0.82716
 C3367 C 0.42183 0.44037 0.81220
 C3368 C 0.41470 0.43343 0.79397
 H3369 H 0.41875 0.37957 0.72820
 H3370 H 0.40551 0.36638 0.69741
 H3371 H 0.34712 0.38855 0.71381
 H3372 H 0.36122 0.40254 0.74381
 H3373 H 0.41756 0.38360 0.80270
 H3374 H 0.42991 0.39564 0.83477
 H3375 H 0.42307 0.45625 0.81455
 H3376 H 0.41037 0.44401 0.78264
 C3377 C 1.10954 0.89046 1.26158
 C3378 C 1.12961 0.89315 1.26601
 C3379 C 1.13764 0.88529 1.28345
 C3380 C 1.12572 0.87443 1.29697
 C3381 C 1.10539 0.87196 1.29218
 C3382 C 1.09745 0.87990 1.27470
 C3383 C 1.10149 0.89834 1.24341
 C3384 C 1.09502 0.90491 1.22807
 C3385 C 1.08760 0.91270 1.20959
 C3386 C 1.10091 0.91859 1.19477
 C3387 C 1.09381 0.92592 1.17669
 C3388 C 1.07326 0.92745 1.17320
 C3389 C 1.05999 0.92155 1.18822
 C3390 C 1.06713 0.91423 1.20631
 H3391 H 1.13918 0.90115 1.25583
 H3392 H 1.15343 0.88707 1.28568
 H3393 H 1.09523 0.86455 1.30216
 H3394 H 1.08181 0.87785 1.27148
 H3395 H 1.11679 0.91740 1.19713
 H3396 H 1.10440 0.93006 1.16532
 H3397 H 1.04410 0.92275 1.18605
 H3398 H 1.05670 0.90974 1.21770
 C3399 C 1.10968 0.39093 0.76100
 C3400 C 1.11609 0.40354 0.77624
 C3401 C 1.12387 0.39555 0.79377
 C3402 C 1.12530 0.37482 0.79626
 C3403 C 1.11877 0.36228 0.78086
 C3404 C 1.11102 0.37030 0.76336
 C3405 C 1.10187 0.39906 0.74285
 C3406 C 1.09538 0.40557 0.72749
 C3407 C 1.08769 0.41298 0.70898
 C3408 C 1.08604 0.43347 0.70571
 C3409 C 1.07878 0.44059 0.68760
 C3410 C 1.07304 0.42727 0.67253
 C3411 C 1.07471 0.40670 0.67600
 C3412 C 1.08199 0.39962 0.69410
 H3413 H 1.11509 0.41954 0.77458
 H3414 H 1.12857 0.40557 0.80545
 H3415 H 1.11995 0.34628 0.78221
 H3416 H 1.10617 0.36041 0.75162
 H3417 H 1.09039 0.44394 0.71714
 H3418 H 1.07747 0.45649 0.68543
 H3419 H 1.07071 0.39608 0.66460
 H3420 H 1.08328 0.38373 0.69645
 C3421 C 0.60989 0.89124 0.76134
 C3422 C 0.61629 0.90386 0.77658
 C3423 C 0.62412 0.89588 0.79409
 C3424 C 0.62563 0.87515 0.79657
 C3425 C 0.61913 0.86261 0.78116
 C3426 C 0.61132 0.87061 0.76368
 C3427 C 0.60199 0.89935 0.74322
 C3428 C 0.59540 0.90584 0.72789
 C3429 C 0.58761 0.91323 0.70942
 C3430 C 0.58591 0.93372 0.70617
 C3431 C 0.57858 0.94083 0.68808
 C3432 C 0.57285 0.92751 0.67302
 C3433 C 0.57456 0.90694 0.67648
 C3434 C 0.58189 0.89987 0.69456
 H3435 H 0.61522 0.91986 0.77493
 H3436 H 0.62880 0.90591 0.80577
 H3437 H 0.62037 0.84661 0.78250
 H3438 H 0.60649 0.86071 0.75195
 H3439 H 0.59027 0.94419 0.71760
 H3440 H 0.57724 0.95674 0.68593
 H3441 H 0.57056 0.89632 0.66507
 H3442 H 0.58322 0.88398 0.69689
 C3443 C 0.60872 0.39218 1.26205
 C3444 C 0.62880 0.39476 1.26651
 C3445 C 0.63674 0.38691 1.28400
 C3446 C 0.62472 0.37616 1.29751
 C3447 C 0.60437 0.37386 1.29273
 C3448 C 0.59652 0.38179 1.27521
 C3449 C 0.60077 0.39990 1.24378
 C3450 C 0.59436 0.40629 1.22833
 C3451 C 0.58702 0.41381 1.20973
 C3452 C 0.60039 0.41953 1.19490
 C3453 C 0.59337 0.42660 1.17670
 C3454 C 0.57283 0.42804 1.17308
 C3455 C 0.55949 0.42229 1.18811
 C3456 C 0.56656 0.41523 1.20632
 H3457 H 0.63844 0.40264 1.25630
 H3458 H 0.65254 0.38858 1.28625
 H3459 H 0.59414 0.36657 1.30272
 H3460 H 0.58088 0.37984 1.27197
 H3461 H 0.61625 0.41842 1.19735
 H3462 H 0.60400 0.43063 1.16533
 H3463 H 0.54361 0.42342 1.18584
 H3464 H 0.55608 0.41086 1.21772
 C3465 C 0.89122 1.10755 1.26225
 C3466 C 0.90342 1.11794 1.27542
 C3467 C 0.89557 1.12586 1.29294
 C3468 C 0.87522 1.12356 1.29772
 C3469 C 0.86321 1.11277 1.28424
 C3470 C 0.87115 1.10492 1.26673
 C3471 C 0.89919 1.09995 1.24393
 C3472 C 0.90575 1.09377 1.22846
 C3473 C 0.91345 1.08662 1.20985
 C3474 C 0.91897 1.10015 1.19507
 C3475 C 0.92613 1.09328 1.17684
 C3476 C 0.92785 1.07275 1.17315
 C3477 C 0.92232 1.05926 1.18814
 C3478 C 0.91517 1.06617 1.20637
 H3479 H 0.91905 1.11993 1.27216
 H3480 H 0.90580 1.13316 1.30292
 H3481 H 0.84741 1.11107 1.28651
 H3482 H 0.86151 1.09704 1.25653
 H3483 H 0.91762 1.11601 1.19758
 H3484 H 0.92999 1.10402 1.16550
 H3485 H 0.92368 1.04338 1.18581
 H3486 H 0.91096 1.05557 1.21773
 C3487 C 0.89066 0.60937 0.76104
 C3488 C 0.88420 0.59666 0.77617
 C3489 C 0.87629 0.60454 0.79370
 C3490 C 0.87476 0.62525 0.79630
 C3491 C 0.88135 0.63789 0.78100
 C3492 C 0.88924 0.62999 0.76351
 C3493 C 0.89857 0.60135 0.74287
 C3494 C 0.90512 0.59488 0.72752
 C3495 C 0.91286 0.58746 0.70903
 C3496 C 0.91453 0.56696 0.70578
 C3497 C 0.92179 0.55982 0.68768
 C3498 C 0.92750 0.57312 0.67258
 C3499 C 0.92582 0.59369 0.67604
 C3500 C 0.91855 0.60079 0.69413
 H3501 H 0.88527 0.58068 0.77442
 H3502 H 0.87155 0.59444 0.80529
 H3503 H 0.88010 0.65388 0.78244
 H3504 H 0.89412 0.63996 0.75185
 H3505 H 0.91019 0.55651 0.71723
 H3506 H 0.92310 0.54391 0.68553
 H3507 H 0.92981 0.60429 0.66461
 H3508 H 0.91725 0.61669 0.69646
 C3509 C 0.39097 1.10856 0.76207
 C3510 C 0.37039 1.11011 0.76444
 C3511 C 0.36247 1.11792 0.78197
 C3512 C 0.37506 1.12430 0.79738
 C3513 C 0.39574 1.12262 0.79488
 C3514 C 0.40363 1.11479 0.77733
 C3515 C 0.39905 1.10087 0.74383
 C3516 C 0.40564 1.09459 0.72842
 C3517 C 0.41334 1.08729 0.70986
 C3518 C 0.41496 1.06681 0.70649
 C3519 C 0.42209 1.05977 0.68829
 C3520 C 0.42771 1.07315 0.67324
 C3521 C 0.42608 1.09371 0.67683
 C3522 C 0.41894 1.10071 0.69501
 H3523 H 0.36046 1.10542 0.75268
 H3524 H 0.34650 1.11929 0.78333
 H3525 H 0.40580 1.12719 0.80656
 H3526 H 0.41960 1.11363 0.77565
 H3527 H 0.41067 1.05630 0.71789
 H3528 H 0.42337 1.04387 0.68605
 H3529 H 0.43000 1.10437 0.66544
 H3530 H 0.41766 1.11659 0.69744
 C3531 C 0.39068 0.60965 1.26145
 C3532 C 0.38004 0.59757 1.27453
 C3533 C 0.37213 0.60552 1.29201
 C3534 C 0.37470 0.62585 1.29686
 C3535 C 0.38566 0.63776 1.28341
 C3536 C 0.39350 0.62972 1.26596
 C3537 C 0.39848 0.60160 1.24325
 C3538 C 0.40496 0.59510 1.22787
 C3539 C 0.41263 0.58766 1.20936
 C3540 C 0.41430 0.56717 1.20614
 C3541 C 0.42154 0.56001 1.18802
 C3542 C 0.42720 0.57329 1.17290
 C3543 C 0.42550 0.59387 1.17632
 C3544 C 0.41826 0.60098 1.19443
 H3545 H 0.37790 0.58193 1.27125
 H3546 H 0.36464 0.59536 1.30195
 H3547 H 0.38754 0.65356 1.28570
 H3548 H 0.40156 0.63928 1.25582
 H3549 H 0.41001 0.55672 1.21761
 H3550 H 0.42287 0.54410 1.18590
 H3551 H 0.42944 0.60446 1.16488
 H3552 H 0.41694 0.61688 1.19674
 C3553 C 1.10836 1.26175 0.89043
 C3554 C 1.11897 1.27482 0.90256
 C3555 C 1.12699 1.29229 0.89468
 C3556 C 1.12456 1.29714 0.87436
 C3557 C 1.11360 1.28372 0.86241
 C3558 C 1.10566 1.26627 0.87039
 C3559 C 1.10056 1.24351 0.89843
 C3560 C 1.09419 1.22809 0.90496
 C3561 C 1.08682 1.20952 0.91260
 C3562 C 1.10017 1.19462 0.91831
 C3563 C 1.09310 1.17644 0.92545
 C3564 C 1.07256 1.17290 0.92697
 C3565 C 1.05926 1.18799 0.92122
 C3566 C 1.06636 1.20618 0.91409
 H3567 H 1.12103 1.27152 0.91818
 H3568 H 1.13446 1.30222 0.90486
 H3569 H 1.11183 1.28600 0.84663
 H3570 H 1.09762 1.25613 0.86080
 H3571 H 1.11603 1.19701 0.91712
 H3572 H 1.10371 1.16502 0.92947
 H3573 H 1.04337 1.18578 0.92242
 H3574 H 1.05590 1.21762 0.90971
 C3575 C 1.10944 0.76162 0.39076
 C3576 C 1.09737 0.77478 0.38018
 C3577 C 1.10533 0.79226 0.37225
 C3578 C 1.12567 0.79703 0.37474
 C3579 C 1.13755 0.78352 0.38566
 C3580 C 1.12950 0.76606 0.39352
 C3581 C 1.10135 0.74339 0.39850
 C3582 C 1.09473 0.72800 0.40484
 C3583 C 1.08698 0.70947 0.41221
 C3584 C 1.08121 0.69458 0.39889
 C3585 C 1.07400 0.67643 0.40597
 C3586 C 1.07247 0.67292 0.42652
 C3587 C 1.07825 0.68801 0.43980
 C3588 C 1.08545 0.70616 0.43267
 H3589 H 1.08175 0.77155 0.37808
 H3590 H 1.09519 0.80225 0.36481
 H3591 H 1.15334 0.78575 0.38749
 H3592 H 1.13904 0.75586 0.40154
 H3593 H 1.08242 0.69695 0.38303
 H3594 H 1.06996 0.66501 0.39538
 H3595 H 1.07704 0.68582 0.45568
 H3596 H 1.08986 0.71760 0.44312
 C3597 C 0.60793 1.26242 0.39080
 C3598 C 0.61440 1.27762 0.40344
 C3599 C 0.62230 1.29514 0.39553
 C3600 C 0.62382 1.29768 0.37485
 C3601 C 0.61717 1.28234 0.36228
 C3602 C 0.60929 1.26484 0.37022
 C3603 C 0.60023 1.24419 0.39891
 C3604 C 0.59395 1.22878 0.40555
 C3605 C 0.58668 1.21022 0.41331
 C3606 C 0.60009 1.19535 0.41894
 C3607 C 0.59311 1.17716 0.42615
 C3608 C 0.57258 1.17360 0.42782
 C3609 C 0.55921 1.18867 0.42218
 C3610 C 0.56624 1.20686 0.41498
 H3611 H 0.61339 1.27590 0.41941
 H3612 H 0.62708 1.30677 0.40558
 H3613 H 0.61840 1.28373 0.34631
 H3614 H 0.60441 1.25313 0.36030
 H3615 H 0.61594 1.19776 0.41762
 H3616 H 0.60376 1.16576 0.43008
 H3617 H 0.54334 1.18644 0.42350
 H3618 H 0.55573 1.21828 0.41068
 C3619 C 0.60862 0.76166 0.89069
 C3620 C 0.61023 0.76400 0.87011
 C3621 C 0.61820 0.78147 0.86220
 C3622 C 0.62469 0.79685 0.87478
 C3623 C 0.62297 0.79438 0.89546
 C3624 C 0.61497 0.77689 0.90335
 C3625 C 0.60066 0.74351 0.89873
 C3626 C 0.59407 0.72816 0.90519
 C3627 C 0.58630 0.70965 0.91259
 C3628 C 0.58053 0.69477 0.89927
 C3629 C 0.57328 0.67664 0.90636
 C3630 C 0.57171 0.67315 0.92689
 C3631 C 0.57749 0.68824 0.94018
 C3632 C 0.58473 0.70638 0.93305
 H3633 H 0.60543 0.75227 0.86018
 H3634 H 0.61959 0.78280 0.84624
 H3635 H 0.62764 0.80605 0.90551
 H3636 H 0.61377 0.77523 0.91931
 H3637 H 0.58176 0.69712 0.88341
 H3638 H 0.56923 0.66521 0.89577
 H3639 H 0.57626 0.68606 0.95606
 H3640 H 0.58914 0.71782 0.94349
 C3641 C 0.89110 1.26226 1.10799
 C3642 C 0.87104 1.26677 1.10529
 C3643 C 0.86306 1.28425 1.11319
 C3644 C 0.87501 1.29771 1.12408
 C3645 C 0.89535 1.29289 1.12649
 C3646 C 0.90324 1.27538 1.11853
 C3647 C 0.89909 1.24400 1.10021
 C3648 C 0.90552 1.22856 1.09377
 C3649 C 0.91289 1.20995 1.08619
 C3650 C 0.89954 1.19506 1.08052
 C3651 C 0.90659 1.17685 1.07341
 C3652 C 0.92713 1.17329 1.07187
 C3653 C 0.94045 1.18838 1.07756
 C3654 C 0.93335 1.20660 1.08466
 H3655 H 0.86145 1.25660 1.09730
 H3656 H 0.84727 1.28652 1.11142
 H3657 H 0.90553 1.30285 1.13391
 H3658 H 0.91887 1.27210 1.12057
 H3659 H 0.88368 1.19747 1.08172
 H3660 H 0.89598 1.16543 1.06944
 H3661 H 0.95633 1.18616 1.07634
 H3662 H 0.94382 1.21805 1.08899
 C3663 C 0.89106 0.76183 0.60828
 C3664 C 0.87048 0.76421 0.60983
 C3665 C 0.86256 0.78172 0.61773
 C3666 C 0.87515 0.79711 0.62420
 C3667 C 0.89583 0.79461 0.62250
 C3668 C 0.90373 0.77708 0.61458
 C3669 C 0.89911 0.74363 0.60043
 C3670 C 0.90557 0.72822 0.59393
 C3671 C 0.91294 0.70965 0.58628
 C3672 C 0.89959 0.69474 0.58064
 C3673 C 0.90664 0.67656 0.57346
 C3674 C 0.92718 0.67304 0.57183
 C3675 C 0.94049 0.68814 0.57750
 C3676 C 0.93340 0.70634 0.58467
 H3677 H 0.86055 0.75246 0.60507
 H3678 H 0.84659 0.78307 0.61911
 H3679 H 0.90589 0.80629 0.62715
 H3680 H 0.91969 0.77539 0.61341
 H3681 H 0.88373 0.69713 0.58191
 H3682 H 0.89603 0.66513 0.56951
 H3683 H 0.95637 0.68594 0.57621
 H3684 H 0.94386 0.71779 0.58897
 C3685 C 0.39205 1.26269 0.60930
 C3686 C 0.38145 1.27576 0.59717
 C3687 C 0.37350 1.29329 0.60503
 C3688 C 0.37596 1.29818 0.62533
 C3689 C 0.38694 1.28477 0.63728
 C3690 C 0.39483 1.26727 0.62933
 C3691 C 0.39974 1.24439 0.60132
 C3692 C 0.40599 1.22892 0.59475
 C3693 C 0.41324 1.21032 0.58705
 C3694 C 0.39982 1.19548 0.58141
 C3695 C 0.40678 1.17726 0.57423
 C3696 C 0.42730 1.17363 0.57259
 C3697 C 0.44068 1.18868 0.57823
 C3698 C 0.43368 1.20691 0.58540
 H3699 H 0.37935 1.27243 0.58156
 H3700 H 0.36603 1.30320 0.59483
 H3701 H 0.38877 1.28711 0.65305
 H3702 H 0.40287 1.25713 0.63892
 H3703 H 0.38397 1.19793 0.58271
 H3704 H 0.39611 1.16588 0.57029
 H3705 H 0.45655 1.18641 0.57693
 H3706 H 0.44421 1.21831 0.58970
 C3707 C 0.39093 0.76213 1.10872
 C3708 C 0.37087 0.76666 1.10608
 C3709 C 0.36293 0.78415 1.11399
 C3710 C 0.37492 0.79760 1.12486
 C3711 C 0.39525 0.79273 1.12726
 C3712 C 0.40311 0.77521 1.11927
 C3713 C 0.39888 0.74388 1.10087
 C3714 C 0.40527 0.72845 1.09435
 C3715 C 0.41258 0.70987 1.08667
 C3716 C 0.39920 0.69497 1.08108
 C3717 C 0.40620 0.67678 1.07388
 C3718 C 0.42673 0.67323 1.07218
 C3719 C 0.44008 0.68833 1.07778
 C3720 C 0.43303 0.70653 1.08497
 H3721 H 0.36125 0.75652 1.09809
 H3722 H 0.34714 0.78645 1.11225
 H3723 H 0.40546 0.80266 1.13467
 H3724 H 0.41873 0.77190 1.12127
 H3725 H 0.38334 0.69737 1.08241
 H3726 H 0.39556 0.66536 1.06997
 H3727 H 0.45595 0.68612 1.07644
 H3728 H 0.44352 0.71798 1.08924
 C3729 C 0.89085 0.73817 0.89113
 C3730 C 0.87025 0.73593 0.88957
 C3731 C 0.86223 0.71848 0.88165
 C3732 C 0.87473 0.70301 0.87517
 C3733 C 0.89543 0.70537 0.87686
 C3734 C 0.90342 0.72285 0.88480
 C3735 C 0.89899 0.75631 0.89902
 C3736 C 0.90554 0.77166 0.90555
 C3737 C 0.91302 0.79016 0.91326
 C3738 C 0.89974 0.80510 0.91901
 C3739 C 0.90689 0.82321 0.92625
 C3740 C 0.92744 0.82663 0.92784
 C3741 C 0.94068 0.81149 0.92206
 C3742 C 0.93349 0.79337 0.91482
 H3743 H 0.86038 0.74773 0.89435
 H3744 H 0.84625 0.71723 0.88028
 H3745 H 0.90542 0.69364 0.87220
 H3746 H 0.91939 0.72442 0.88597
 H3747 H 0.88386 0.80281 0.91778
 H3748 H 0.89633 0.83467 0.93030
 H3749 H 0.95657 0.81361 0.92331
 H3750 H 0.94390 0.78188 0.91043
 C3751 C 0.89223 0.23757 0.39075
 C3752 C 0.88580 0.22239 0.40342
 C3753 C 0.87790 0.20484 0.39555
 C3754 C 0.87633 0.20227 0.37487
 C3755 C 0.88296 0.21759 0.36226
 C3756 C 0.89084 0.23511 0.37017
 C3757 C 0.89991 0.25583 0.39882
 C3758 C 0.90617 0.27126 0.40545
 C3759 C 0.91342 0.28984 0.41320
 C3760 C 0.89999 0.30468 0.41887
 C3761 C 0.90695 0.32288 0.42607
 C3762 C 0.92747 0.32649 0.42769
 C3763 C 0.94086 0.31145 0.42202
 C3764 C 0.93386 0.29323 0.41483
 H3765 H 0.88683 0.22413 0.41938
 H3766 H 0.87314 0.19323 0.40562
 H3767 H 0.88169 0.21617 0.34630
 H3768 H 0.89569 0.24681 0.36023
 H3769 H 0.88414 0.30223 0.41758
 H3770 H 0.89628 0.33426 0.43003
 H3771 H 0.95673 0.31371 0.42331
 H3772 H 0.94438 0.28184 0.41050
 C3773 C 0.39075 0.73872 0.39081
 C3774 C 0.39357 0.73428 0.37076
 C3775 C 0.38573 0.71683 0.36268
 C3776 C 0.37477 0.70332 0.37452
 C3777 C 0.37221 0.70810 0.39484
 C3778 C 0.38012 0.72558 0.40284
 C3779 C 0.39853 0.75693 0.39892
 C3780 C 0.40500 0.77232 0.40544
 C3781 C 0.41265 0.79085 0.41291
 C3782 C 0.41846 0.80576 0.39964
 C3783 C 0.42571 0.82388 0.40677
 C3784 C 0.42725 0.82733 0.42732
 C3785 C 0.42140 0.81224 0.44056
 C3786 C 0.41416 0.79411 0.43338
 H3787 H 0.40163 0.74447 0.36126
 H3788 H 0.38761 0.71460 0.34690
 H3789 H 0.36472 0.69811 0.40494
 H3790 H 0.37797 0.72881 0.41845
 H3791 H 0.41728 0.80343 0.38376
 H3792 H 0.42980 0.83530 0.39622
 H3793 H 0.42260 0.81438 0.45645
 H3794 H 0.40973 0.78265 0.44378
 C3795 C 0.39142 0.23763 0.89140
 C3796 C 0.40350 0.22448 0.88081
 C3797 C 0.39556 0.20696 0.87292
 C3798 C 0.37525 0.20215 0.87548
 C3799 C 0.36335 0.21568 0.88638
 C3800 C 0.37138 0.23316 0.89418
 C3801 C 0.39946 0.25586 0.89919
 C3802 C 0.40589 0.27127 0.90568
 C3803 C 0.41321 0.28984 0.91338
 C3804 C 0.43367 0.29321 0.91494
 C3805 C 0.44071 0.31139 0.92218
 C3806 C 0.42736 0.32642 0.92797
 C3807 C 0.40683 0.32285 0.92639
 C3808 C 0.39983 0.30468 0.91914
 H3809 H 0.41912 0.22774 0.87869
 H3810 H 0.40570 0.19697 0.86547
 H3811 H 0.34756 0.21343 0.88823
 H3812 H 0.36183 0.24336 0.90221
 H3813 H 0.44416 0.28181 0.91055
 H3814 H 0.45659 0.31363 0.92342
 H3815 H 0.39618 0.33423 0.93043
 H3816 H 0.38397 0.30226 0.91792
 C3817 C 1.10862 0.73782 1.10889
 C3818 C 1.11931 0.72475 1.09683
 C3819 C 1.12717 0.70720 1.10473
 C3820 C 1.12448 0.70229 1.12500
 C3821 C 1.11348 0.71574 1.13688
 C3822 C 1.10569 0.73326 1.12889
 C3823 C 1.10095 0.75612 1.10089
 C3824 C 1.09465 0.77159 1.09439
 C3825 C 1.08733 0.79021 1.08682
 C3826 C 1.10071 0.80510 1.08122
 C3827 C 1.09369 0.82335 1.07419
 C3828 C 1.07315 0.82695 1.07268
 C3829 C 1.05981 0.81186 1.07831
 C3830 C 1.06688 0.79361 1.08534
 H3831 H 1.12155 0.72810 1.08125
 H3832 H 1.13471 0.69728 1.09460
 H3833 H 1.11152 0.71341 1.15264
 H3834 H 1.09760 0.74340 1.13843
 H3835 H 1.11657 0.80266 1.08241
 H3836 H 1.10432 0.83476 1.07025
 H3837 H 1.04393 0.81412 1.07712
 H3838 H 1.05639 0.78217 1.08963
 C3839 C 1.10845 0.23788 0.60886
 C3840 C 1.11491 0.22265 0.59624
 C3841 C 1.12275 0.20510 0.60417
 C3842 C 1.12421 0.20258 0.62486
 C3843 C 1.11761 0.21796 0.63741
 C3844 C 1.10979 0.23548 0.62945
 C3845 C 1.10073 0.25610 0.60076
 C3846 C 1.09441 0.27152 0.59416
 C3847 C 1.08708 0.29010 0.58649
 C3848 C 1.10045 0.30499 0.58087
 C3849 C 1.09342 0.32320 0.57376
 C3850 C 1.07289 0.32677 0.57219
 C3851 C 1.05955 0.31168 0.57783
 C3852 C 1.06662 0.29346 0.58493
 H3853 H 1.11392 0.22436 0.58027
 H3854 H 1.12750 0.19344 0.59415
 H3855 H 1.11881 0.21658 0.65338
 H3856 H 1.10493 0.24721 0.63935
 H3857 H 1.11631 0.30257 0.58211
 H3858 H 1.10405 0.33462 0.56982
 H3859 H 1.04368 0.31392 0.57659
 H3860 H 1.05615 0.28202 0.58924
 C3861 C 0.60954 0.73875 0.60939
 C3862 C 0.59687 0.72351 0.61571
 C3863 C 0.60476 0.70595 0.62358
 C3864 C 0.62545 0.70342 0.62520
 C3865 C 0.63804 0.71881 0.61874
 C3866 C 0.63012 0.73634 0.61090
 C3867 C 0.60149 0.75695 0.60154
 C3868 C 0.59500 0.77234 0.59503
 C3869 C 0.58757 0.79087 0.58735
 C3870 C 0.56710 0.79411 0.58573
 C3871 C 0.55994 0.81225 0.57850
 C3872 C 0.57320 0.82738 0.57278
 C3873 C 0.59375 0.82393 0.57441
 C3874 C 0.60087 0.80580 0.58165
 H3875 H 0.58091 0.72521 0.61458
 H3876 H 0.59470 0.69429 0.62822
 H3877 H 0.65401 0.71742 0.62006
 H3878 H 0.64006 0.74807 0.60612
 H3879 H 0.55668 0.78264 0.59008
 H3880 H 0.54405 0.81440 0.57722
 H3881 H 0.60433 0.83538 0.57041
 H3882 H 0.61674 0.80347 0.58292
 C3883 C 0.60885 0.23810 1.10956
 C3884 C 0.61951 0.22505 1.09745
 C3885 C 0.62748 0.20754 1.10533
 C3886 C 0.62497 0.20265 1.12563
 C3887 C 0.61395 0.21606 1.13755
 C3888 C 0.60605 0.23354 1.12958
 C3889 C 0.60110 0.25637 1.10155
 C3890 C 0.59477 0.27180 1.09498
 C3891 C 0.58741 0.29036 1.08728
 C3892 C 0.60075 0.30523 1.08154
 C3893 C 0.59369 0.32341 1.07435
 C3894 C 0.57315 0.32695 1.07281
 C3895 C 0.55985 0.31187 1.07855
 C3896 C 0.56695 0.29370 1.08574
 H3897 H 0.62164 0.22837 1.08185
 H3898 H 0.63499 0.19763 1.09516
 H3899 H 0.61209 0.21373 1.15332
 H3900 H 0.59797 0.24367 1.13915
 H3901 H 0.61662 0.30284 1.08276
 H3902 H 0.60430 0.33481 1.07033
 H3903 H 0.54396 0.31409 1.07733
 H3904 H 0.55649 0.28227 1.09012
 C3905 C 1.26168 1.10864 0.89141
 C3906 C 1.27692 1.09595 0.88513
 C3907 C 1.29449 1.10385 0.87736
 C3908 C 1.29703 1.12457 0.87579
 C3909 C 1.28164 1.13719 0.88223
 C3910 C 1.26410 1.12926 0.88998
 C3911 C 1.24345 1.10059 0.89910
 C3912 C 1.22802 1.09413 0.90548
 C3913 C 1.20943 1.08676 0.91300
 C3914 C 1.20609 1.06628 0.91455
 C3915 C 1.18790 1.05920 0.92164
 C3916 C 1.17282 1.07255 0.92731
 C3917 C 1.17636 1.09311 0.92573
 C3918 C 1.19454 1.10015 0.91862
 H3919 H 1.27521 1.07997 0.88621
 H3920 H 1.30616 1.09378 0.87273
 H3921 H 1.28303 1.15318 0.88095
 H3922 H 1.25236 1.13921 0.89472
 H3923 H 1.21753 1.05579 0.91025
 H3924 H 1.18568 1.04330 0.92289
 H3925 H 1.16495 1.10376 0.92968
 H3926 H 1.19694 1.11604 0.91741
 C3927 C 1.26117 0.60972 0.39001
 C3928 C 1.27644 0.59709 0.38369
 C3929 C 1.29398 0.60506 0.37592
 C3930 C 1.29646 0.62579 0.37438
 C3931 C 1.28103 0.63834 0.38084
 C3932 C 1.26351 0.63034 0.38859
 C3933 C 1.24299 0.60159 0.39777
 C3934 C 1.22763 0.59503 0.40422
 C3935 C 1.20913 0.58752 0.41186
 C3936 C 1.20595 0.56701 0.41341
 C3937 C 1.18786 0.55979 0.42066
 C3938 C 1.17274 0.57302 0.42646
 C3939 C 1.17612 0.59361 0.42486
 C3940 C 1.19419 0.60079 0.41761
 H3941 H 1.27479 0.58110 0.38476
 H3942 H 1.30568 0.59502 0.37128
 H3943 H 1.28237 0.65434 0.37959
 H3944 H 1.25175 0.64025 0.39337
 H3945 H 1.21743 0.55660 0.40902
 H3946 H 1.18577 0.54387 0.42191
 H3947 H 1.16467 0.60417 0.42892
 H3948 H 1.19646 0.61670 0.41639
 C3949 C 0.76177 1.10917 0.39120
 C3950 C 0.77695 1.09638 0.38499
 C3951 C 0.79455 1.10415 0.37715
 C3952 C 0.79718 1.12484 0.37545
 C3953 C 0.78185 1.13757 0.38182
 C3954 C 0.76428 1.12977 0.38963
 C3955 C 0.74351 1.10123 0.39897
 C3956 C 0.72809 1.09481 0.40540
 C3957 C 0.70952 1.08744 0.41299
 C3958 C 0.70616 1.06695 0.41446
 C3959 C 0.68800 1.05985 0.42161
 C3960 C 0.67296 1.07319 0.42740
 C3961 C 0.67651 1.09376 0.42590
 C3962 C 0.69467 1.10081 0.41874
 H3963 H 0.77518 1.08040 0.38617
 H3964 H 0.80617 1.09399 0.37259
 H3965 H 0.78331 1.15354 0.38044
 H3966 H 0.75259 1.13980 0.39433
 H3967 H 0.71757 1.05646 0.41006
 H3968 H 0.68577 1.04394 0.42279
 H3969 H 0.66513 1.10439 0.42996
 H3970 H 0.69708 1.11670 0.41758
 C3971 C 0.76080 0.60913 0.88994
 C3972 C 0.77600 0.59645 0.88354
 C3973 C 0.79355 0.60435 0.87572
 C3974 C 0.79611 0.62508 0.87424
 C3975 C 0.78074 0.63768 0.88075
 C3976 C 0.76322 0.62975 0.88854
 C3977 C 0.74264 0.60108 0.89781
 C3978 C 0.72728 0.59463 0.90437
 C3979 C 0.70878 0.58725 0.91214
 C3980 C 0.70551 0.56676 0.91381
 C3981 C 0.68741 0.55967 0.92113
 C3982 C 0.67235 0.57301 0.92688
 C3983 C 0.67583 0.59357 0.92519
 C3984 C 0.69392 0.60062 0.91787
 H3985 H 0.77429 0.58046 0.88458
 H3986 H 0.80520 0.59428 0.87103
 H3987 H 0.78215 0.65368 0.87953
 H3988 H 0.75152 0.63970 0.89337
 H3989 H 0.71693 0.55628 0.90944
 H3990 H 0.68524 0.54377 0.92245
 H3991 H 0.66443 0.60421 0.92921
 H3992 H 0.69627 0.61651 0.91656
 C3993 C 1.26155 0.89144 1.10991
 C3994 C 1.27681 0.90407 1.11625
 C3995 C 1.29435 0.89609 1.12404
 C3996 C 1.29684 0.87536 1.12556
 C3997 C 1.28141 0.86282 1.11910
 C3998 C 1.26391 0.87081 1.11134
 C3999 C 1.24340 0.89955 1.10207
 C4000 C 1.22803 0.90603 1.09554
 C4001 C 1.20953 0.91341 1.08781
 C4002 C 1.20620 0.93390 1.08620
 C4003 C 1.18809 0.94099 1.07891
 C4004 C 1.17307 0.92764 1.07310
 C4005 C 1.17660 0.90708 1.07473
 C4006 C 1.19470 0.90003 1.08204
 H4007 H 1.27515 0.92006 1.11518
 H4008 H 1.30604 0.90612 1.12869
 H4009 H 1.28276 0.84681 1.12035
 H4010 H 1.25216 0.86091 1.10654
 H4011 H 1.21760 0.94438 1.09061
 H4012 H 1.18588 0.95689 1.07763
 H4013 H 1.16523 0.89644 1.07067
 H4014 H 1.19709 0.88414 1.08329
 C4015 C 1.26175 0.39101 0.60890
 C4016 C 1.26425 0.37040 0.61037
 C4017 C 1.28179 0.36254 0.61820
 C4018 C 1.29710 0.37521 0.62469
 C4019 C 1.29449 0.39592 0.62308
 C4020 C 1.27692 0.40375 0.61522
 C4021 C 1.24353 0.39901 0.60110
 C4022 C 1.22812 0.40547 0.59465
 C4023 C 1.20957 0.41289 0.58704
 C4024 C 1.19468 0.39955 0.58134
 C4025 C 1.17655 0.40664 0.57415
 C4026 C 1.17306 0.42721 0.57255
 C4027 C 1.18813 0.44052 0.57829
 C4028 C 1.20628 0.43339 0.58547
 H4029 H 1.25257 0.36041 0.60559
 H4030 H 1.28324 0.34655 0.61951
 H4031 H 1.30609 0.40604 0.62774
 H4032 H 1.27515 0.41973 0.61412
 H4033 H 1.19705 0.38365 0.58257
 H4034 H 1.16514 0.39603 0.57014
 H4035 H 1.18596 0.45643 0.57703
 H4036 H 1.21772 0.44384 0.58982
 C4037 C 0.76157 0.89152 0.60960
 C4038 C 0.77681 0.90415 0.61598
 C4039 C 0.79436 0.89617 0.62374
 C4040 C 0.79687 0.87544 0.62521
 C4041 C 0.78146 0.86289 0.61872
 C4042 C 0.76394 0.87089 0.61098
 C4043 C 0.74340 0.89963 0.60178
 C4044 C 0.72803 0.90612 0.59527
 C4045 C 0.70952 0.91351 0.58756
 C4046 C 0.70619 0.93400 0.58601
 C4047 C 0.68806 0.94109 0.57875
 C4048 C 0.67304 0.92776 0.57293
 C4049 C 0.67658 0.90719 0.57449
 C4050 C 0.69470 0.90014 0.58177
 H4051 H 0.77513 0.92014 0.61495
 H4052 H 0.80604 0.90620 0.62841
 H4053 H 0.78282 0.84689 0.61993
 H4054 H 0.75220 0.86099 0.60616
 H4055 H 0.71758 0.94448 0.59044
 H4056 H 0.68584 0.95700 0.57752
 H4057 H 0.66522 0.89656 0.57042
 H4058 H 0.69710 0.88424 0.58298
 C4059 C 0.76142 0.39140 1.10940
 C4060 C 0.77666 0.40403 1.11579
 C4061 C 0.79422 0.39606 1.12354
 C4062 C 0.79675 0.37532 1.12497
 C4063 C 0.78135 0.36277 1.11846
 C4064 C 0.76382 0.37077 1.11073
 C4065 C 0.74324 0.39951 1.10162
 C4066 C 0.72786 0.40600 1.09514
 C4067 C 0.70933 0.41340 1.08746
 C4068 C 0.70603 0.43389 1.08584
 C4069 C 0.68790 0.44099 1.07858
 C4070 C 0.67285 0.42765 1.07284
 C4071 C 0.67636 0.40709 1.07449
 C4072 C 0.69447 0.40003 1.08175
 H4073 H 0.77496 0.42002 1.11479
 H4074 H 0.80589 0.40608 1.12822
 H4075 H 0.78273 0.34677 1.11963
 H4076 H 0.75209 0.36086 1.10590
 H4077 H 0.71745 0.44436 1.09019
 H4078 H 0.68571 0.45689 1.07729
 H4079 H 0.66496 0.39646 1.07048
 H4080 H 0.69685 0.38414 1.08302
 C4081 C 0.73904 1.10978 1.10918
 C4082 C 0.73673 1.11129 1.12977
 C4083 C 0.71922 1.11907 1.13776
 C4084 C 0.70375 1.12546 1.12525
 C4085 C 0.70620 1.12388 1.10455
 C4086 C 0.72374 1.11607 1.09658
 C4087 C 0.75719 1.10191 1.10107
 C4088 C 0.77253 1.09536 1.09456
 C4089 C 0.79101 1.08759 1.08714
 C4090 C 0.80593 1.08190 1.10044
 C4091 C 0.82401 1.07456 1.09335
 C4092 C 0.82742 1.07281 1.07281
 C4093 C 0.81231 1.07853 1.05954
 C4094 C 0.79422 1.08586 1.06668
 H4095 H 0.74851 1.10654 1.13965
 H4096 H 0.71791 1.12036 1.15373
 H4097 H 0.69448 1.12847 1.09455
 H4098 H 0.72536 1.11494 1.08062
 H4099 H 0.80363 1.08325 1.11631
 H4100 H 0.83544 1.07057 1.10392
 H4101 H 0.81442 1.07716 1.04366
 H4102 H 0.78276 1.09020 1.05625
 C4103 C 0.73864 0.60893 0.60932
 C4104 C 0.72336 0.61524 0.59672
 C4105 C 0.70583 0.62307 0.60468
 C4106 C 0.70337 0.62466 0.62537
 C4107 C 0.71879 0.61818 0.63790
 C4108 C 0.73629 0.61037 0.62991
 C4109 C 0.75683 0.60118 0.60120
 C4110 C 0.77222 0.59476 0.59466
 C4111 C 0.79076 0.58717 0.58718
 C4112 C 0.79395 0.58554 0.56671
 C4113 C 0.81208 0.57836 0.55952
 C4114 C 0.82724 0.57270 0.57276
 C4115 C 0.82385 0.57437 0.59330
 C4116 C 0.80573 0.58156 0.60045
 H4117 H 0.72501 0.61416 0.58076
 H4118 H 0.69414 0.62773 0.59467
 H4119 H 0.71746 0.61947 0.65387
 H4120 H 0.74806 0.60560 0.63980
 H4121 H 0.78245 0.58983 0.55631
 H4122 H 0.81418 0.57705 0.54364
 H4123 H 0.83533 0.57042 0.60386
 H4124 H 0.80345 0.58284 0.61632
 C4125 C 0.23817 1.10884 0.60948
 C4126 C 0.23565 1.11020 0.63006
 C4127 C 0.21804 1.11790 0.63793
 C4128 C 0.20270 1.12436 0.62530
 C4129 C 0.20534 1.12286 0.60462
 C4130 C 0.22297 1.11514 0.59678
 C4131 C 0.25645 1.10118 0.60147
 C4132 C 0.27190 1.09484 0.59500
 C4133 C 0.29050 1.08733 0.58758
 C4134 C 0.30544 1.08170 0.60088
 C4135 C 0.32360 1.07459 0.59379
 C4136 C 0.32708 1.07300 0.57325
 C4137 C 0.31196 1.07868 0.55998
 C4138 C 0.29378 1.08579 0.56712
 H4139 H 0.24735 1.10544 0.64002
 H4140 H 0.21658 1.11912 0.65389
 H4141 H 0.19371 1.12750 0.59453
 H4142 H 0.22475 1.11413 0.58082
 H4143 H 0.30308 1.08292 0.61675
 H4144 H 0.33504 1.07062 0.60437
 H4145 H 0.31413 1.07743 0.54410
 H4146 H 0.28231 1.09008 0.55669
 C4147 C 0.23809 0.60884 1.10949
 C4148 C 0.22292 0.61518 1.09678
 C4149 C 0.20532 0.62299 1.10461
 C4150 C 0.20269 0.62454 1.12529
 C4151 C 0.21803 0.61805 1.13792
 C4152 C 0.23559 0.61026 1.13006
 C4153 C 0.25633 0.60105 1.10149
 C4154 C 0.27174 0.59459 1.09503
 C4155 C 0.29028 0.58695 1.08761
 C4156 C 0.29352 0.58530 1.06715
 C4157 C 0.31166 0.57811 1.06000
 C4158 C 0.32679 0.57245 1.07327
 C4159 C 0.32336 0.57413 1.09381
 C4160 C 0.30523 0.58133 1.10091
 H4161 H 0.22468 0.61412 1.08083
 H4162 H 0.19370 0.62765 1.09452
 H4163 H 0.21657 0.61931 1.15389
 H4164 H 0.24728 0.60547 1.14003
 H4165 H 0.28204 0.58959 1.05672
 H4166 H 0.31379 0.57679 1.04412
 H4167 H 0.33481 0.57018 1.10438
 H4168 H 0.30291 0.58262 1.11678
 C4169 C 0.73888 0.89038 0.89107
 C4170 C 0.72372 0.90312 0.88470
 C4171 C 0.70618 0.89529 0.87680
 C4172 C 0.70358 0.87458 0.87519
 C4173 C 0.71889 0.86191 0.88170
 C4174 C 0.73641 0.86977 0.88958
 C4175 C 0.75708 0.89838 0.89893
 C4176 C 0.77245 0.90483 0.90545
 C4177 C 0.79097 0.91225 0.91313
 C4178 C 0.79428 0.93275 0.91458
 C4179 C 0.81241 0.93989 0.92178
 C4180 C 0.82745 0.92659 0.92764
 C4181 C 0.82393 0.90601 0.92618
 C4182 C 0.80581 0.89891 0.91897
 H4183 H 0.72547 0.91910 0.88581
 H4184 H 0.69457 0.90541 0.87212
 H4185 H 0.71746 0.84592 0.88040
 H4186 H 0.74809 0.85978 0.89439
 H4187 H 0.78288 0.94320 0.91012
 H4188 H 0.81461 0.95580 0.92293
 H4189 H 0.83532 0.89540 0.93029
 H4190 H 0.80343 0.88302 0.91783
 C4191 C 0.73840 0.39054 0.39096
 C4192 C 0.72311 0.38432 0.40358
 C4193 C 0.70551 0.37664 0.39565
 C4194 C 0.70298 0.37512 0.37496
 C4195 C 0.71844 0.38147 0.36241
 C4196 C 0.73601 0.38912 0.37037
 C4197 C 0.75662 0.39825 0.39903
 C4198 C 0.77203 0.40466 0.40551
 C4199 C 0.79059 0.41228 0.41289
 C4200 C 0.79388 0.41393 0.43335
 C4201 C 0.81202 0.42115 0.44044
 C4202 C 0.82710 0.42682 0.42713
 C4203 C 0.82362 0.42513 0.40660
 C4204 C 0.80549 0.41791 0.39955
 H4205 H 0.72479 0.38538 0.41955
 H4206 H 0.69379 0.37208 0.40568
 H4207 H 0.71707 0.38022 0.34644
 H4208 H 0.74779 0.39382 0.36046
 H4209 H 0.78243 0.40964 0.44380
 H4210 H 0.81419 0.42248 0.45631
 H4211 H 0.83503 0.42909 0.39599
 H4212 H 0.80313 0.41661 0.38369
 C4213 C 0.23893 0.89063 0.39070
 C4214 C 0.22364 0.88434 0.40329
 C4215 C 0.20615 0.87646 0.39532
 C4216 C 0.20374 0.87479 0.37463
 C4217 C 0.21919 0.88122 0.36212
 C4218 C 0.23666 0.88908 0.37011
 C4219 C 0.25707 0.89850 0.39883
 C4220 C 0.27241 0.90502 0.40536
 C4221 C 0.29089 0.91273 0.41283
 C4222 C 0.29409 0.91436 0.43330
 C4223 C 0.31218 0.92164 0.44047
 C4224 C 0.32729 0.92739 0.42723
 C4225 C 0.32389 0.92573 0.40669
 C4226 C 0.30581 0.91845 0.39955
 H4227 H 0.22524 0.88551 0.41926
 H4228 H 0.19443 0.87184 0.40532
 H4229 H 0.21791 0.87986 0.34615
 H4230 H 0.24844 0.89383 0.36024
 H4231 H 0.28262 0.91000 0.44370
 H4232 H 0.31429 0.92294 0.45636
 H4233 H 0.33533 0.92975 0.39613
 H4234 H 0.30352 0.91717 0.38368
 C4235 C 0.23868 0.38973 0.89087
 C4236 C 0.23643 0.38820 0.87027
 C4237 C 0.21891 0.38052 0.86223
 C4238 C 0.20337 0.37423 0.87471
 C4239 C 0.20575 0.37586 0.89541
 C4240 C 0.22330 0.38357 0.90342
 C4241 C 0.25686 0.39746 0.89904
 C4242 C 0.27222 0.40390 0.90560
 C4243 C 0.29073 0.41155 0.91308
 C4244 C 0.30566 0.41727 0.89981
 C4245 C 0.32373 0.42456 0.90694
 C4246 C 0.32713 0.42622 0.92749
 C4247 C 0.31202 0.42044 0.94073
 C4248 C 0.29394 0.41316 0.93355
 H4249 H 0.24827 0.39286 0.86043
 H4250 H 0.21765 0.37919 0.84626
 H4251 H 0.19397 0.37135 0.90538
 H4252 H 0.22487 0.38471 0.91939
 H4253 H 0.30336 0.41601 0.88393
 H4254 H 0.33516 0.42859 0.89638
 H4255 H 0.31413 0.42174 0.95661
 H4256 H 0.28247 0.40879 0.94395
   
