data_POSCAR
  _audit_creation_date              2014-09-24
  _audit_creation_method            'ToBaCCo'
  _symmetry_space_group_name_H-M    'P1'
  _symmetry_Int_Tables_number       1
  _symmetry_cell_setting            triclinic
  loop_
  _symmetry_equiv_pos_as_xyz
 x,y,z
_cell_length_a 66.0753
_cell_length_b 65.5121
_cell_length_c 65.8471
_cell_angle_alpha 89.708200
_cell_angle_beta 90.226700
_cell_angle_gamma 90.334600
loop_
  _atom_site_label
  _atom_site_type_symbol
  _atom_site_fract_x
  _atom_site_fract_y
  _atom_site_fract_z
N1 N 0.35433 1.35680 0.30878
 N2 N 0.33924 1.36936 0.31184
 C3 C 0.33870 1.38319 0.29663
 C4 C 0.35404 1.37874 0.28302
 C5 C 0.36354 1.36178 0.29129
 H6 H 0.32773 1.39532 0.29539
 H7 H 0.37685 1.35419 0.28564
 Cu8 Cu 0.32153 1.36579 0.33511
 Cu9 Cu 0.36235 1.33615 0.32846
 Cu10 Cu 0.33313 1.33203 0.37186
 N11 N 0.30486 1.36254 0.35919
 N12 N 0.31023 1.35028 0.37407
 C13 C 0.29641 1.35117 0.38898
 C14 C 0.28117 1.36434 0.38293
 C15 C 0.28713 1.37128 0.36389
 H16 H 0.29688 1.34196 0.40264
 H17 H 0.27930 1.38205 0.35422
 N18 N 0.35676 1.31480 0.36674
 N19 N 0.36802 1.31638 0.35029
 C20 C 0.38262 1.30211 0.35107
 C21 C 0.38014 1.29086 0.36868
 C22 C 0.36364 1.29929 0.37823
 H23 H 0.39374 1.29954 0.33937
 H24 H 0.35702 1.29427 0.39240
 H25 H 0.33391 1.33119 0.34045
 H26 H 0.35015 1.35087 0.35308
 N27 N 0.36940 0.85946 0.81100
 N28 N 0.35394 0.87195 0.81113
 C29 C 0.35651 0.88635 0.79673
 C30 C 0.37446 0.88247 0.78686
 C31 C 0.38225 0.86526 0.79624
 H32 H 0.34585 0.89838 0.79333
 H33 H 0.39618 0.85754 0.79257
 Cu34 Cu 0.33175 0.86766 0.82952
 Cu35 Cu 0.37137 0.83654 0.82982
 Cu36 Cu 0.33025 0.82819 0.86203
 N37 N 0.31446 0.86797 0.85299
 N38 N 0.31270 0.85214 0.86523
 C39 C 0.29802 0.85607 0.87888
 C40 C 0.29082 0.87563 0.87513
 C41 C 0.30164 0.88264 0.85867
 H42 H 0.29311 0.84564 0.89068
 H43 H 0.29976 0.89710 0.85090
 N44 N 0.35445 0.81018 0.86136
 N45 N 0.37030 0.81414 0.84978
 C46 C 0.38473 0.80023 0.85348
 C47 C 0.37773 0.78666 0.86793
 C48 C 0.35839 0.79330 0.87256
 H49 H 0.39924 0.79974 0.84599
 H50 H 0.34822 0.78667 0.88364
 H51 H 0.34087 0.83134 0.83256
 H52 H 0.35241 0.84769 0.85255
 N53 N 0.87836 1.35942 0.82334
 N54 N 0.86152 1.36686 0.81581
 C55 C 0.86527 1.37482 0.79729
 C56 C 0.88577 1.37241 0.79302
 C57 C 0.89351 1.36266 0.81014
 H58 H 0.85391 1.38205 0.78790
 H59 H 0.90887 1.35772 0.81282
 Cu60 Cu 0.83669 1.36591 0.83162
 Cu61 Cu 0.87919 1.34560 0.84951
 Cu62 Cu 0.83255 1.33140 0.86925
 N63 N 0.81564 1.36807 0.85210
 N64 N 0.81333 1.35422 0.86647
 C65 C 0.79743 1.35948 0.87813
 C66 C 0.78968 1.37782 0.87086
 C67 C 0.80166 1.38272 0.85433
 H68 H 0.79240 1.35105 0.89137
 H69 H 0.80035 1.39601 0.84461
 N70 N 0.85805 1.31698 0.87619
 N71 N 0.87580 1.32369 0.86975
 C72 C 0.89041 1.31132 0.87673
 C73 C 0.88163 1.29582 0.88798
 C74 C 0.86098 1.29983 0.88731
 H75 H 0.90623 1.31275 0.87278
 H76 H 0.84902 1.29085 0.89418
 H77 H 0.85112 1.33372 0.84332
 H78 H 0.85211 1.35378 0.86328
 N79 N 0.86258 0.85191 0.31344
 N80 N 0.85087 0.86746 0.31764
 C81 C 0.85391 0.88238 0.30388
 C82 C 0.86813 0.87582 0.28992
 C83 C 0.87327 0.85629 0.29656
 H84 H 0.84561 0.89655 0.30362
 H85 H 0.88423 0.84612 0.28995
 Cu86 Cu 0.83123 0.86638 0.33949
 Cu87 Cu 0.86353 0.82785 0.33117
 Cu88 Cu 0.81946 0.82000 0.35828
 N89 N 0.80596 0.86129 0.35358
 N90 N 0.80106 0.84289 0.35994
 C91 C 0.78275 0.84345 0.36871
 C92 C 0.77570 0.86329 0.36782
 C93 C 0.79089 0.87424 0.35809
 H94 H 0.77543 0.83047 0.37579
 H95 H 0.79096 0.89033 0.35437
 N96 N 0.84034 0.79900 0.35541
 N97 N 0.85776 0.80222 0.34614
 C98 C 0.86998 0.78616 0.34975
 C99 C 0.85958 0.77213 0.36171
 C100 C 0.84088 0.78079 0.36487
 H101 H 0.88544 0.78500 0.34457
 H102 H 0.82908 0.77487 0.37463
 H103 H 0.83295 0.83027 0.33166
 H104 H 0.84613 0.83641 0.35607
 N105 N 0.63943 0.65497 0.30700
 N106 N 0.65338 0.64075 0.30643
 C107 C 0.65157 0.63028 0.28902
 C108 C 0.63546 0.63805 0.27816
 C109 C 0.62794 0.65366 0.29003
 H110 H 0.66099 0.61761 0.28464
 H111 H 0.61535 0.66352 0.28641
 Cu112 Cu 0.67219 0.63668 0.32872
 Cu113 Cu 0.63818 0.67463 0.32937
 Cu114 Cu 0.67296 0.66789 0.36864
 N115 N 0.69123 0.63264 0.35086
 N116 N 0.69187 0.64539 0.36618
 C117 C 0.70690 0.63993 0.37889
 C118 C 0.71600 0.62267 0.37123
 C119 C 0.70564 0.61840 0.35347
 H120 H 0.71084 0.64781 0.39276
 H121 H 0.70876 0.60614 0.34302
 N122 N 0.65267 0.68973 0.36847
 N123 N 0.63971 0.69274 0.35344
 C124 C 0.62848 0.70932 0.35773
 C125 C 0.63451 0.71680 0.37647
 C126 C 0.64982 0.70399 0.38278
 H127 H 0.61663 0.71538 0.34811
 H128 H 0.65851 0.70527 0.39666
 H129 H 0.66819 0.67249 0.33767
 H130 H 0.64987 0.65547 0.35114
 N131 N 0.63209 0.15546 0.81536
 N132 N 0.64688 0.14342 0.80982
 C133 C 0.64145 0.13356 0.79275
 C134 C 0.62196 0.13943 0.78735
 C135 C 0.61652 0.15332 0.80223
 H136 H 0.65079 0.12241 0.78528
 H137 H 0.60253 0.16173 0.80319
 Cu138 Cu 0.67159 0.14086 0.82581
 Cu139 Cu 0.63477 0.17383 0.83851
 Cu140 Cu 0.67596 0.16602 0.87011
 N141 N 0.69246 0.13401 0.84564
 N142 N 0.69447 0.14438 0.86257
 C143 C 0.71057 0.13735 0.87295
 C144 C 0.71900 0.12153 0.86211
 C145 C 0.70705 0.11971 0.84488
 H146 H 0.71566 0.14312 0.88747
 H147 H 0.70909 0.10909 0.83254
 N148 N 0.65563 0.18723 0.87516
 N149 N 0.64034 0.19077 0.86268
 C150 C 0.63004 0.20708 0.86944
 C151 C 0.63908 0.21383 0.88718
 C152 C 0.65518 0.20086 0.89041
 H153 H 0.61686 0.21354 0.86210
 H154 H 0.66611 0.20175 0.90264
 H155 H 0.66591 0.17412 0.84128
 H156 H 0.65195 0.15292 0.85441
 N157 N 1.14013 0.65137 0.80150
 N158 N 1.15141 0.63527 0.80510
 C159 C 1.14517 0.61992 0.79297
 C160 C 1.12892 0.62685 0.78153
 C161 C 1.12622 0.64685 0.78729
 H162 H 1.15176 0.60486 0.79260
 H163 H 1.11522 0.65748 0.78129
 Cu164 Cu 1.17292 0.63636 0.82550
 Cu165 Cu 1.14492 0.67739 0.81458
 Cu166 Cu 1.16986 0.67331 0.86057
 N167 N 1.19356 0.63955 0.84655
 N168 N 1.19243 0.65431 0.85996
 C169 C 1.20846 0.65330 0.87256
 C170 C 1.22030 0.63698 0.86682
 C171 C 1.21033 0.62852 0.85029
 H172 H 1.21116 0.66356 0.88511
 H173 H 1.21512 0.61554 0.84148
 N174 N 1.15225 0.69645 0.85350
 N175 N 1.14390 0.69854 0.83540
 C176 C 1.13317 0.71590 0.83483
 C177 C 1.13466 0.72515 0.85359
 C178 C 1.14690 0.71240 0.86509
 H179 H 1.12408 0.72085 0.82206
 H180 H 1.15156 0.71456 0.88070
 H181 H 1.17246 0.67336 0.83020
 H182 H 1.14913 0.66056 0.84005
 N183 N 1.13746 0.15482 0.30486
 N184 N 1.14664 0.13713 0.30637
 C185 C 1.14203 0.12582 0.28998
 C186 C 1.12933 0.13708 0.27753
 C187 C 1.12682 0.15545 0.28742
 H188 H 1.14744 0.11052 0.28738
 H189 H 1.11730 0.16798 0.28269
 Cu190 Cu 1.16334 0.13003 0.32968
 Cu191 Cu 1.13823 0.17477 0.32650
 Cu192 Cu 1.17428 0.16717 0.36344
 N193 N 1.18519 0.12740 0.34936
 N194 N 1.18971 0.14205 0.36220
 C195 C 1.20600 0.13655 0.37318
 C196 C 1.21199 0.11737 0.36695
 C197 C 1.19837 0.11199 0.35186
 H198 H 1.21296 0.14583 0.38484
 H199 H 1.19845 0.09820 0.34289
 N200 N 1.15486 0.18976 0.36444
 N201 N 1.14144 0.19291 0.34990
 C202 C 1.12975 0.20878 0.35497
 C203 C 1.13595 0.21590 0.37372
 C204 C 1.15192 0.20345 0.37932
 H205 H 1.11694 0.21407 0.34617
 H206 H 1.16046 0.20404 0.39334
 H207 H 1.16757 0.16648 0.33217
 H208 H 1.14775 0.15606 0.35010
 N209 N 0.62796 1.35149 0.69030
 N210 N 0.64133 1.36617 0.69297
 C211 C 0.63606 1.37727 0.70920
 C212 C 0.61840 1.36921 0.71712
 C213 C 0.61357 1.35291 0.70467
 H214 H 0.64448 1.39021 0.71496
 H215 H 0.60102 1.34240 0.70645
 Cu216 Cu 0.66468 1.36909 0.67547
 Cu217 Cu 0.63143 1.33071 0.66953
 Cu218 Cu 0.67455 1.33444 0.63953
 N219 N 0.68782 1.37202 0.65770
 N220 N 0.69218 1.35801 0.64422
 C221 C 0.70908 1.36367 0.63426
 C222 C 0.71548 1.38236 0.64177
 C223 C 0.70162 1.38718 0.65660
 H224 H 0.71583 1.35520 0.62199
 H225 H 0.70165 1.40074 0.66589
 N226 N 0.65460 1.31200 0.63706
 N227 N 0.63784 1.31110 0.64790
 C228 C 0.62697 1.29467 0.64214
 C229 C 0.63737 1.28466 0.62701
 C230 C 0.65486 1.29604 0.62421
 H231 H 0.61269 1.29008 0.64873
 H232 H 0.66670 1.29309 0.61336
 H233 H 0.66267 1.33263 0.66849
 H234 H 0.64847 1.34822 0.64950
 N235 N 0.63836 0.84685 1.19716
 N236 N 0.65401 0.85930 1.19832
 C237 C 0.65373 0.86902 1.21622
 C238 C 0.63687 0.86270 1.22673
 C239 C 0.62724 0.84871 1.21421
 H240 H 0.66440 0.88064 1.22095
 H241 H 0.61324 0.84065 1.21723
 Cu242 Cu 0.67200 0.86390 1.17570
 Cu243 Cu 0.63435 0.82905 1.17363
 Cu244 Cu 0.66760 0.83607 1.13332
 N245 N 0.68922 0.86877 1.15250
 N246 N 0.68812 0.85730 1.13623
 C247 C 0.70242 0.86341 1.12297
 C248 C 0.71271 0.87981 1.13134
 C249 C 0.70392 0.88284 1.15002
 H250 H 0.70498 0.85667 1.10825
 H251 H 0.70831 0.89413 1.16113
 N252 N 0.64581 0.81546 1.13317
 N253 N 0.63322 0.81254 1.14847
 C254 C 0.62049 0.79707 1.14373
 C255 C 0.62517 0.79016 1.12445
 C256 C 0.64126 0.80219 1.11828
 H257 H 0.60858 0.79136 1.15347
 H258 H 0.64929 0.80109 1.10407
 H259 H 0.66393 0.82953 1.16396
 H260 H 0.64674 0.84911 1.15279
 N261 N 1.11878 1.35993 1.17516
 N262 N 1.13541 1.36630 1.18418
 C263 C 1.13056 1.37427 1.20234
 C264 C 1.10971 1.37299 1.20466
 C265 C 1.10276 1.36398 1.18698
 H266 H 1.14138 1.38049 1.21304
 H267 H 1.08732 1.35986 1.18327
 Cu268 Cu 1.16167 1.36344 1.17101
 Cu269 Cu 1.11938 1.34539 1.14952
 Cu270 Cu 1.16635 1.32643 1.13651
 N271 N 1.18544 1.36208 1.15354
 N272 N 1.18708 1.34791 1.13957
 C273 C 1.20448 1.35095 1.12927
 C274 C 1.21435 1.36783 1.13739
 C275 C 1.20181 1.37441 1.15283
 H276 H 1.20961 1.34151 1.11691
 H277 H 1.20425 1.38745 1.16256
 N278 N 1.14065 1.31359 1.12764
 N279 N 1.12289 1.32178 1.13153
 C280 C 1.10816 1.30932 1.12469
 C281 C 1.11695 1.29224 1.11626
 C282 C 1.13766 1.29554 1.11831
 H283 H 1.09220 1.31176 1.12725
 H284 H 1.14966 1.28532 1.11396
 H285 H 1.14516 1.33215 1.15982
 H286 H 1.14848 1.35069 1.13850
 N287 N 1.12502 0.85924 0.67649
 N288 N 1.14156 0.86768 0.68384
 C289 C 1.13726 0.87662 0.70164
 C290 C 1.11683 0.87368 0.70562
 C291 C 1.10956 0.86269 0.68920
 H292 H 1.14815 0.88481 0.71085
 H293 H 1.09429 0.85713 0.68683
 Cu294 Cu 1.16687 0.86644 0.66905
 Cu295 Cu 1.12507 0.84419 0.65116
 Cu296 Cu 1.17251 0.83010 0.63389
 N297 N 1.18906 0.86741 0.64982
 N298 N 1.19181 0.85286 0.63643
 C299 C 1.20853 0.85723 0.62552
 C300 C 1.21641 0.87571 0.63226
 C301 C 1.20363 0.88165 0.64771
 H302 H 1.21412 0.84802 0.61320
 H303 H 1.20486 0.89529 0.65682
 N304 N 1.14741 0.81528 0.62647
 N305 N 1.12938 0.82155 0.63222
 C306 C 1.11523 0.80848 0.62537
 C307 C 1.12468 0.79305 0.61481
 C308 C 1.14516 0.79788 0.61578
 H309 H 1.09932 0.80945 0.62898
 H310 H 1.15753 0.78925 0.60950
 H311 H 1.15299 0.83342 0.65893
 H312 H 1.15255 0.85244 0.63776
 N313 N 0.36154 0.64647 0.68959
 N314 N 0.34608 0.63373 0.68891
 C315 C 0.34644 0.62156 0.70541
 C316 C 0.36317 0.62661 0.71702
 C317 C 0.37253 0.64244 0.70648
 H318 H 0.33546 0.60969 0.70864
 H319 H 0.38603 0.65068 0.71101
 Cu320 Cu 0.32699 0.63329 0.66644
 Cu321 Cu 0.36538 0.66779 0.66876
 Cu322 Cu 0.32684 0.67192 0.63317
 N323 N 0.30423 0.63775 0.64822
 N324 N 0.30387 0.65360 0.63593
 C325 C 0.28670 0.65317 0.62493
 C326 C 0.27582 0.63596 0.63038
 C327 C 0.28740 0.62644 0.64519
 H328 H 0.28289 0.66396 0.61305
 H329 H 0.28393 0.61228 0.65297
 N330 N 0.35115 0.68911 0.63248
 N331 N 0.36578 0.68818 0.64618
 C332 C 0.38016 0.70210 0.64119
 C333 C 0.37433 0.71172 0.62329
 C334 C 0.35597 0.70307 0.61828
 H335 H 0.39409 0.70461 0.64951
 H336 H 0.34683 0.70677 0.60513
 H337 H 0.33489 0.66942 0.66394
 H338 H 0.34989 0.65385 0.64569
 N339 N 0.34698 0.16642 1.20377
 N340 N 0.32885 0.15975 1.20875
 C341 C 0.32976 0.15006 1.22672
 C342 C 0.34955 0.15039 1.23345
 C343 C 0.36017 0.16091 1.21849
 H344 H 0.31712 0.14224 1.23375
 H345 H 0.37625 0.16410 1.21824
 Cu346 Cu 0.30604 0.16109 1.19040
 Cu347 Cu 0.35149 0.18186 1.17856
 Cu348 Cu 0.31369 0.17676 1.14258
 N349 N 0.28794 0.15323 1.16865
 N350 N 0.29145 0.15854 1.14973
 C351 C 0.27761 0.14953 1.13764
 C352 C 0.26475 0.13795 1.14971
 C353 C 0.27173 0.14076 1.16933
 H354 H 0.27703 0.15122 1.12130
 H355 H 0.26605 0.13358 1.18301
 N356 N 0.33735 0.19456 1.13859
 N357 N 0.35205 0.19644 1.15210
 C358 C 0.36489 0.21125 1.14580
 C359 C 0.35768 0.21917 1.12761
 C360 C 0.34028 0.20813 1.12351
 H361 H 0.37763 0.21690 1.15451
 H362 H 0.32997 0.21050 1.11094
 H363 H 0.32196 0.18841 1.17147
 H364 H 0.33174 0.16236 1.16469
 N365 N 0.87415 0.64959 1.18426
 N366 N 0.86015 0.63623 1.18943
 C367 C 0.86663 0.62554 1.20566
 C368 C 0.88575 0.63248 1.21085
 C369 C 0.89014 0.64765 1.19687
 H370 H 0.85791 0.61393 1.21349
 H371 H 0.90341 0.65740 1.19671
 Cu372 Cu 0.83430 0.63492 1.17535
 Cu373 Cu 0.86939 0.67042 1.16361
 Cu374 Cu 0.82236 0.66989 1.13997
 N375 N 0.80887 0.63352 1.16048
 N376 N 0.80404 0.64783 1.14731
 C377 C 0.78597 0.64338 1.13901
 C378 C 0.77910 0.62519 1.14726
 C379 C 0.79405 0.61930 1.16084
 H380 H 0.77884 0.65218 1.12707
 H381 H 0.79422 0.60559 1.17004
 N382 N 0.84310 0.69071 1.13438
 N383 N 0.86135 0.69034 1.14259
 C384 C 0.87228 0.70601 1.13503
 C385 C 0.86027 0.71679 1.12153
 C386 C 0.84188 0.70670 1.12153
 H387 H 0.88767 0.70964 1.13938
 H388 H 0.82869 0.71055 1.11257
 H389 H 0.83842 0.67099 1.16709
 H390 H 0.84845 0.65396 1.14685
 N391 N 0.85474 0.14982 0.70283
 N392 N 0.83981 0.13658 0.70150
 C393 C 0.84099 0.12325 0.71703
 C394 C 0.85770 0.12834 0.72863
 C395 C 0.86612 0.14526 0.71919
 H396 H 0.83077 0.11051 0.71940
 H397 H 0.87938 0.15373 0.72399
 Cu398 Cu 0.82081 0.13732 0.67924
 Cu399 Cu 0.85779 0.17219 0.68357
 Cu400 Cu 0.82726 0.17058 0.64061
 N401 N 0.80764 0.13345 0.65338
 N402 N 0.80910 0.14699 0.63865
 C403 C 0.79673 0.14133 0.62333
 C404 C 0.78750 0.12306 0.62874
 C405 C 0.79481 0.11851 0.64784
 H406 H 0.79449 0.14986 0.60941
 H407 H 0.79033 0.10579 0.65739
 N408 N 0.84695 0.19280 0.64590
 N409 N 0.85840 0.19338 0.66237
 C410 C 0.86989 0.21037 0.66192
 C411 C 0.86565 0.22099 0.64426
 C412 C 0.85108 0.20938 0.63440
 H413 H 0.88075 0.21462 0.67349
 H414 H 0.84382 0.21293 0.62008
 H415 H 0.82854 0.17299 0.67179
 H416 H 0.84656 0.15492 0.65958
 N417 N 1.35751 0.37539 0.68449
 N418 N 1.36794 0.35914 0.68958
 C419 C 1.38004 0.36355 0.70541
 C420 C 1.37704 0.38374 0.71067
 C421 C 1.36265 0.39080 0.69698
 H422 H 1.39023 0.35280 0.71251
 H423 H 1.35587 0.40578 0.69660
 Cu424 Cu 1.36463 0.33379 0.67522
 Cu425 Cu 1.33686 0.37450 0.66328
 Cu426 Cu 1.32918 0.32766 0.63929
 N427 N 1.36673 0.31255 0.65513
 N428 N 1.35233 0.30909 0.64176
 C429 C 1.35715 0.29233 0.63100
 C430 C 1.37595 0.28533 0.63767
 C431 C 1.38147 0.29873 0.65296
 H432 H 1.34796 0.28621 0.61882
 H433 H 1.39485 0.29816 0.66244
 N434 N 1.31267 0.35225 0.63340
 N435 N 1.31645 0.37016 0.64181
 C436 C 1.30326 0.38393 0.63451
 C437 C 1.29041 0.37439 0.62091
 C438 C 1.29676 0.35424 0.62060
 H439 H 1.30253 0.39966 0.63931
 H440 H 1.29037 0.34199 0.61163
 H441 H 1.32993 0.34411 0.66630
 H442 H 1.34886 0.35057 0.64640
 N443 N 1.36348 0.85927 1.18693
 N444 N 1.37200 0.84126 1.18831
 C445 C 1.38405 0.84079 1.20484
 C446 C 1.38332 0.85974 1.21426
 C447 C 1.37015 0.87109 1.20221
 H448 H 1.39276 0.82763 1.20946
 H449 H 1.36490 0.88645 1.20479
 Cu450 Cu 1.36658 0.82034 1.16808
 Cu451 Cu 1.34291 0.86530 1.16643
 Cu452 Cu 1.32002 0.82120 1.14825
 N453 N 1.35788 0.80017 1.14822
 N454 N 1.33913 0.79976 1.14153
 C455 C 1.33665 0.78373 1.12905
 C456 C 1.35507 0.77381 1.12726
 C457 C 1.36821 0.78480 1.13972
 H458 H 1.32268 0.78030 1.12112
 H459 H 1.38395 0.78161 1.14284
 N460 N 1.30707 0.84818 1.14735
 N461 N 1.31613 0.86513 1.15326
 C462 C 1.30395 0.88107 1.14924
 C463 C 1.28632 0.87380 1.14021
 C464 C 1.28893 0.85282 1.13934
 H465 H 1.30779 0.89676 1.15256
 H466 H 1.27873 0.84165 1.13288
 H467 H 1.33376 0.83662 1.17250
 H468 H 1.34411 0.84039 1.14641
 N469 N 0.84893 0.35537 1.19364
 N470 N 0.86510 0.34473 1.18881
 C471 C 0.88012 0.34929 1.20193
 C472 C 0.87312 0.36347 1.21588
 C473 C 0.85316 0.36686 1.21003
 H474 H 0.89488 0.34229 1.20157
 H475 H 0.84252 0.37724 1.21681
 Cu476 Cu 0.86539 0.32443 1.16658
 Cu477 Cu 0.82361 0.35456 1.17768
 Cu478 Cu 0.82159 0.31900 1.14164
 N479 N 0.85962 0.30041 1.14987
 N480 N 0.84208 0.29813 1.14067
 C481 C 0.84192 0.28049 1.13037
 C482 C 0.86047 0.27118 1.13301
 C483 C 0.87143 0.28433 1.14542
 H484 H 0.82945 0.27516 1.12109
 H485 H 0.88674 0.28231 1.15090
 N486 N 0.80554 0.34355 1.13966
 N487 N 0.80544 0.35716 1.15425
 C488 C 0.79188 0.37178 1.14956
 C489 C 0.78344 0.36718 1.13079
 C490 C 0.79249 0.34918 1.12501
 H491 H 0.78871 0.38491 1.15889
 H492 H 0.78943 0.34052 1.11138
 H493 H 0.83589 0.32492 1.17544
 H494 H 0.84340 0.34499 1.15674
 N495 N 0.84987 0.86960 0.68136
 N496 N 0.86242 0.85455 0.68519
 C497 C 0.87368 0.85940 0.70165
 C498 C 0.86799 0.87863 0.70822
 C499 C 0.85288 0.88458 0.69495
 H500 H 0.88534 0.84988 0.70820
 H501 H 0.84447 0.89868 0.69535
 Cu502 Cu 0.86289 0.83034 0.66783
 Cu503 Cu 0.83015 0.86886 0.65938
 Cu504 Cu 0.83019 0.82630 0.62868
 N505 N 0.86273 0.80645 0.65003
 N506 N 0.84921 0.80488 0.63539
 C507 C 0.85135 0.78690 0.62601
 C508 C 0.86721 0.77661 0.63493
 C509 C 0.87429 0.78948 0.65008
 H510 H 0.84227 0.78177 0.61330
 H511 H 0.88662 0.78651 0.66051
 N512 N 0.81199 0.84944 0.62414
 N513 N 0.81139 0.86534 0.63633
 C514 C 0.79663 0.87796 0.62995
 C515 C 0.78780 0.86972 0.61276
 C516 C 0.79793 0.85170 0.60945
 H517 H 0.79265 0.89219 0.63712
 H518 H 0.79484 0.84082 0.59753
 H519 H 0.82802 0.83753 0.65795
 H520 H 0.84687 0.85021 0.64086
 N521 N 0.65410 0.63857 0.69367
 N522 N 0.63954 0.65217 0.69284
 C523 C 0.62482 0.64697 0.70590
 C524 C 0.63049 0.62937 0.71591
 C525 C 0.64930 0.62446 0.70795
 H526 H 0.61124 0.65572 0.70844
 H527 H 0.65858 0.61150 0.71200
 Cu528 Cu 0.64172 0.67661 0.67641
 Cu529 Cu 0.67750 0.64077 0.67522
 Cu530 Cu 0.66625 0.67088 0.63283
 N531 N 0.64095 0.69753 0.65568
 N532 N 0.65015 0.69513 0.63823
 C533 C 0.64615 0.71131 0.62618
 C534 C 0.63400 0.72468 0.63688
 C535 C 0.63103 0.71537 0.65554
 H536 H 0.65183 0.71324 0.61091
 H537 H 0.62187 0.72087 0.66791
 N538 N 0.68850 0.65091 0.63350
 N539 N 0.69359 0.64019 0.64976
 C540 C 0.71049 0.62950 0.64557
 C541 C 0.71617 0.63365 0.62566
 C542 C 0.70183 0.64727 0.61859
 H543 H 0.71802 0.61938 0.65615
 H544 H 0.70156 0.65464 0.60386
 H545 H 0.67540 0.67035 0.66260
 H546 H 0.65672 0.65028 0.65526
 N547 N 0.66467 1.14581 1.19322
 N548 N 0.64660 1.15346 1.19000
 C549 C 0.63434 1.14791 1.20538
 C550 C 0.64542 1.13636 1.21926
 C551 C 0.66471 1.13554 1.21094
 H552 H 0.61868 1.15240 1.20650
 H553 H 0.67779 1.12766 1.21691
 Cu554 Cu 0.64136 1.17093 1.16655
 Cu555 Cu 0.68673 1.14942 1.17394
 Cu556 Cu 0.67073 1.16428 1.12592
 N557 N 0.63814 1.18765 1.14219
 N558 N 0.64921 1.18425 1.12604
 C559 C 0.64403 1.19739 1.11122
 C560 C 0.62914 1.21007 1.11854
 C561 C 0.62573 1.20347 1.13830
 H562 H 0.65134 1.19829 1.09657
 H563 H 0.61521 1.20981 1.14907
 N564 N 0.69719 1.15200 1.13116
 N565 N 0.70348 1.14647 1.14943
 C566 C 0.72226 1.13874 1.14791
 C567 C 0.72803 1.13995 1.12780
 C568 C 0.71189 1.14842 1.11761
 H569 H 0.73107 1.13276 1.16045
 H570 H 0.71091 1.15170 1.10152
 H571 H 0.67634 1.17296 1.15500
 H572 H 0.66539 1.14675 1.15235
 N573 N 0.14340 0.63576 1.19237
 N574 N 0.13040 0.65035 1.18841
 C575 C 0.11620 0.65054 1.20303
 C576 C 0.12074 0.63545 1.21718
 C577 C 0.13825 0.62650 1.20987
 H578 H 0.10368 0.66107 1.20344
 H579 H 0.14616 0.61353 1.21619
 Cu580 Cu 0.13351 0.66776 1.16463
 Cu581 Cu 0.16493 0.62849 1.17368
 Cu582 Cu 0.16984 0.65856 1.13047
 N583 N 0.13765 0.68543 1.14119
 N584 N 0.15100 0.68095 1.12721
 C585 C 0.15006 0.69487 1.11215
 C586 C 0.13561 0.70924 1.11716
 C587 C 0.12811 0.70271 1.13579
 H588 H 0.15978 0.69495 1.09900
 H589 H 0.11621 0.70966 1.14453
 N590 N 0.18753 0.63533 1.13652
 N591 N 0.18561 0.62364 1.15280
 C592 C 0.19992 0.60905 1.15235
 C593 C 0.21151 0.61201 1.13516
 C594 C 0.20325 0.62875 1.12552
 H595 H 0.20205 0.59740 1.16385
 H596 H 0.20830 0.63553 1.11140
 H597 H 0.16875 0.65750 1.16192
 H598 H 0.15121 0.63998 1.14797
 N599 N 0.15309 1.13236 0.69217
 N600 N 0.13789 1.14519 0.69189
 C601 C 0.12783 1.14340 0.70966
 C602 C 0.13796 1.12924 0.72188
 C603 C 0.15399 1.12280 0.71016
 H604 H 0.11454 1.15210 0.71357
 H605 H 0.16472 1.11092 0.71378
 Cu606 Cu 0.13419 1.16351 0.66824
 Cu607 Cu 0.16849 1.12649 0.66819
 Cu608 Cu 0.17948 1.16770 0.64103
 N609 N 0.14009 1.18629 0.64902
 N610 N 0.15776 1.18838 0.63989
 C611 C 0.15750 1.20537 0.62835
 C612 C 0.13864 1.21448 0.62990
 C613 C 0.12799 1.20181 0.64322
 H614 H 0.16987 1.21006 0.61869
 H615 H 0.11267 1.20377 0.64852
 N616 N 0.19391 1.14198 0.63716
 N617 N 0.18865 1.12552 0.64735
 C618 C 0.20060 1.10994 0.64217
 C619 C 0.21444 1.11700 0.62814
 C620 C 0.20991 1.13750 0.62536
 H621 H 0.19994 1.09486 0.64890
 H622 H 0.21767 1.14832 0.61562
 H623 H 0.16438 1.16345 0.66843
 H624 H 0.15312 1.15152 0.64538
 N625 N 1.34859 0.64092 0.30838
 N626 N 1.36227 0.65551 0.30994
 C627 C 1.37640 0.65297 0.29551
 C628 C 1.37122 0.63603 0.28411
 C629 C 1.35342 0.62880 0.29267
 H630 H 1.38942 0.66282 0.29339
 H631 H 1.34490 0.61544 0.28811
 Cu632 Cu 1.36065 0.67670 0.33045
 Cu633 Cu 1.32602 0.63835 0.32734
 Cu634 Cu 1.32796 0.67032 0.36879
 N635 N 1.36295 0.69228 0.35546
 N636 N 1.35108 0.68846 0.37097
 C637 C 1.35613 0.70079 0.38645
 C638 C 1.37174 0.71354 0.38020
 C639 C 1.37567 0.70764 0.36034
 H640 H 1.34807 0.70134 0.40068
 H641 H 1.38700 0.71385 0.35021
 N642 N 1.30559 0.65123 0.36404
 N643 N 1.30485 0.63856 0.34853
 C644 C 1.28753 0.62757 0.34967
 C645 C 1.27682 0.63410 0.36644
 C646 C 1.28870 0.64906 0.37512
 H647 H 1.28274 0.61618 0.33881
 H648 H 1.28518 0.65773 0.38857
 H649 H 1.32543 0.66802 0.33707
 H650 H 1.34371 0.65027 0.34992
 N651 N 1.35338 1.13591 0.81245
 N652 N 1.36771 1.14971 0.81490
 C653 C 1.38257 1.14643 0.80144
 C654 C 1.37735 1.12970 0.78977
 C655 C 1.35864 1.12341 0.79714
 H656 H 1.39605 1.15575 0.80002
 H657 H 1.34968 1.11056 0.79198
 Cu658 Cu 1.36591 1.17099 0.83525
 Cu659 Cu 1.32969 1.13512 0.83034
 Cu660 Cu 1.31886 1.18296 0.84943
 N661 N 1.36043 1.19555 0.85064
 N662 N 1.34190 1.20029 0.85586
 C663 C 1.34215 1.21819 0.86573
 C664 C 1.36198 1.22510 0.86688
 C665 C 1.37319 1.21028 0.85709
 H666 H 1.32884 1.22540 0.87187
 H667 H 1.38933 1.21035 0.85449
 N668 N 1.29928 1.16017 0.84954
 N669 N 1.30360 1.14156 0.84339
 C670 C 1.28807 1.12899 0.84826
 C671 C 1.27325 1.14037 0.85782
 C672 C 1.28093 1.16003 0.85826
 H673 H 1.28776 1.11274 0.84544
 H674 H 1.27422 1.17305 0.86561
 H675 H 1.33046 1.16544 0.82593
 H676 H 1.33619 1.15738 0.85260
 N677 N 0.84403 0.63279 0.80073
 N678 N 0.85933 0.64566 0.80055
 C679 C 0.87030 0.64275 0.78367
 C680 C 0.86124 0.62730 0.77260
 C681 C 0.84455 0.62137 0.78382
 H682 H 0.88387 0.65117 0.77976
 H683 H 0.83408 0.60912 0.78033
 Cu684 Cu 0.86374 0.66471 0.82247
 Cu685 Cu 0.82585 0.63069 0.82378
 Cu686 Cu 0.82971 0.66847 0.86034
 N687 N 0.86310 0.68816 0.84012
 N688 N 0.85051 0.68937 0.85548
 C689 C 0.85440 0.70676 0.86570
 C690 C 0.86998 0.71704 0.85589
 C691 C 0.87505 0.70481 0.83972
 H692 H 0.84634 0.71172 0.87904
 H693 H 0.88689 0.70762 0.82875
 N694 N 0.80983 0.64571 0.86194
 N695 N 0.80892 0.63112 0.84819
 C696 C 0.79496 0.61723 0.85381
 C697 C 0.78641 0.62342 0.87179
 C698 C 0.79604 0.64163 0.87651
 H699 H 0.79112 0.60362 0.84538
 H700 H 0.79352 0.65089 0.88981
 H701 H 0.82792 0.66182 0.82995
 H702 H 0.84361 0.64447 0.84618
 N703 N 0.85469 1.13390 0.30519
 N704 N 0.87068 1.14463 0.31053
 C705 C 0.88649 1.13939 0.29896
 C706 C 0.88004 1.12471 0.28538
 C707 C 0.85972 1.12160 0.28971
 H708 H 0.90127 1.14652 0.29965
 H709 H 0.84931 1.11138 0.28206
 Cu710 Cu 0.86894 1.16610 0.33030
 Cu711 Cu 0.82849 1.13783 0.31822
 Cu712 Cu 0.82979 1.16736 0.36205
 N713 N 0.86272 1.19041 0.34543
 N714 N 0.84815 1.19064 0.35894
 C715 C 0.84846 1.20877 0.36852
 C716 C 0.86376 1.22056 0.36007
 C717 C 0.87246 1.20844 0.34548
 H718 H 0.83819 1.21312 0.38048
 H719 H 0.88538 1.21220 0.33610
 N720 N 0.80741 1.14854 0.35550
 N721 N 0.80645 1.13804 0.33845
 C722 C 0.78897 1.12739 0.33807
 C723 C 0.77843 1.13134 0.35576
 C724 C 0.79063 1.14481 0.36645
 H725 H 0.78445 1.11717 0.32602
 H726 H 0.78736 1.15177 0.38091
 H727 H 0.83208 1.16633 0.33161
 H728 H 0.84300 1.14370 0.34486
 N729 N 0.63848 0.38339 0.32291
 N730 N 0.62098 0.37925 0.33164
 C731 C 0.60594 0.38677 0.32013
 C732 C 0.61418 0.39555 0.30282
 C733 C 0.63501 0.39329 0.30527
 H734 H 0.59012 0.38380 0.32307
 H735 H 0.64677 0.39775 0.29476
 Cu736 Cu 0.61773 0.35893 0.35351
 Cu737 Cu 0.66440 0.37384 0.33443
 Cu738 Cu 0.65992 0.33552 0.36791
 N739 N 0.61705 0.33198 0.36592
 N740 N 0.63379 0.32244 0.37082
 C741 C 0.62921 0.30369 0.37774
 C742 C 0.60828 0.30128 0.37728
 C743 C 0.60110 0.31979 0.36990
 H744 H 0.64043 0.29284 0.38278
 H745 H 0.58559 0.32397 0.36680
 N746 N 0.68276 0.35411 0.36884
 N747 N 0.68509 0.36887 0.35541
 C748 C 0.70192 0.37960 0.36016
 C749 C 0.71024 0.37125 0.37770
 C750 C 0.69769 0.35506 0.38268
 H751 H 0.70705 0.39311 0.35213
 H752 H 0.69905 0.34496 0.39565
 H753 H 0.64303 0.34987 0.33838
 H754 H 0.64693 0.36928 0.35867
 N755 N 0.64149 0.87520 0.81631
 N756 N 0.62444 0.86600 0.82111
 C757 C 0.61028 0.87034 0.80711
 C758 C 0.61879 0.88296 0.79258
 C759 C 0.63872 0.88576 0.79887
 H760 H 0.59510 0.86408 0.80714
 H761 H 0.65028 0.89478 0.79139
 Cu762 Cu 0.62226 0.84776 0.84412
 Cu763 Cu 0.66536 0.87268 0.83390
 Cu764 Cu 0.66511 0.82883 0.86384
 N765 N 0.62230 0.82258 0.85934
 N766 N 0.63914 0.81457 0.86628
 C767 C 0.63481 0.79649 0.87513
 C768 C 0.61410 0.79303 0.87357
 C769 C 0.60671 0.80999 0.86344
 H770 H 0.64591 0.78672 0.88228
 H771 H 0.59126 0.81278 0.85880
 N772 N 0.68950 0.84598 0.85980
 N773 N 0.68941 0.86313 0.84915
 C774 C 0.70734 0.87272 0.85166
 C775 C 0.71935 0.86099 0.86442
 C776 C 0.70757 0.84411 0.86915
 H777 H 0.71118 0.88743 0.84517
 H778 H 0.71144 0.83207 0.87974
 H779 H 0.65774 0.84268 0.83644
 H780 H 0.65431 0.85805 0.85993
 N781 N 0.13780 0.36881 0.81528
 N782 N 0.12100 0.36176 0.82336
 C783 C 0.10546 0.36538 0.81059
 C784 C 0.11301 0.37486 0.79335
 C785 C 0.13363 0.37686 0.79691
 H786 H 0.08999 0.36070 0.81336
 H787 H 0.14477 0.38365 0.78692
 Cu788 Cu 0.12105 0.34747 0.84932
 Cu789 Cu 0.16336 0.36682 0.82979
 Cu790 Cu 0.16817 0.33081 0.86576
 N791 N 0.12470 0.32478 0.86867
 N792 N 0.14250 0.31720 0.87370
 C793 C 0.13957 0.29956 0.88398
 C794 C 0.11882 0.29591 0.88557
 C795 C 0.11003 0.31247 0.87581
 H796 H 0.15170 0.29004 0.88958
 H797 H 0.09415 0.31469 0.87255
 N798 N 0.18839 0.35279 0.86253
 N799 N 0.18590 0.36724 0.84881
 C800 C 0.20095 0.38102 0.85044
 C801 C 0.21381 0.37490 0.86591
 C802 C 0.20547 0.35678 0.87317
 H803 H 0.20243 0.39451 0.84102
 H804 H 0.21098 0.34759 0.88570
 H805 H 0.14805 0.33483 0.84110
 H806 H 0.14937 0.35410 0.86181
 N807 N 0.15929 0.85969 0.31047
 N808 N 0.14596 0.84486 0.30825
 C809 C 0.13420 0.84903 0.29196
 C810 C 0.14078 0.86732 0.28345
 C811 C 0.15663 0.87364 0.29570
 H812 H 0.12259 0.83896 0.28603
 H813 H 0.16606 0.88703 0.29358
 Cu814 Cu 0.14698 0.82053 0.32568
 Cu815 Cu 0.18053 0.85877 0.33107
 Cu816 Cu 0.19429 0.80900 0.34029
 N817 N 0.15287 0.79568 0.34124
 N818 N 0.17169 0.79063 0.34525
 C819 C 0.17203 0.77262 0.35502
 C820 C 0.15228 0.76608 0.35805
 C821 C 0.14046 0.78121 0.34899
 H822 H 0.18574 0.76567 0.36070
 H823 H 0.12414 0.78165 0.34792
 N824 N 0.21243 0.83236 0.34531
 N825 N 0.20665 0.85147 0.34311
 C826 C 0.22112 0.86390 0.35054
 C827 C 0.23682 0.85197 0.35791
 C828 C 0.23078 0.83205 0.35420
 H829 H 0.22007 0.88035 0.35081
 H830 H 0.23850 0.81827 0.35882
 H831 H 0.18240 0.83037 0.32020
 H832 H 0.17479 0.83155 0.34745
 O833 O 1.07440 1.01047 1.10266
 O834 O 1.09761 1.00992 1.12682
 C835 C 1.08133 1.01708 1.11940
 C836 C 1.07053 1.03350 1.13010
 C837 C 1.07698 1.03977 1.14940
 H838 H 1.08973 1.03228 1.15659
 O839 O 0.92706 0.97120 1.10165
 O840 O 0.90333 0.97098 1.12510
 C841 C 0.91963 0.96392 1.11798
 C842 C 0.92985 0.94656 1.12810
 C843 C 0.92180 0.93707 1.14560
 H844 H 0.90803 0.94289 1.15222
 O845 O 1.02380 1.09422 1.07545
 O846 O 1.02412 1.11718 1.09981
 C847 C 1.03126 1.11028 1.08333
 C848 C 1.04890 1.12050 1.07358
 C849 C 1.05743 1.13840 1.08189
 H850 H 1.05065 1.14541 1.09506
 O851 O 0.98009 0.89492 1.06895
 O852 O 0.97959 0.86925 1.09075
 C853 C 0.97308 0.87774 1.07460
 C854 C 0.95702 0.86752 1.06254
 C855 C 0.95111 0.84756 1.06752
 H856 H 0.95852 0.83965 1.07997
 O857 O 1.10505 1.06491 1.02151
 O858 O 1.12961 1.08781 1.02278
 C859 C 1.12177 1.07112 1.02884
 C860 C 1.13191 1.05931 1.04513
 C861 C 1.15114 1.06528 1.05200
 H862 H 1.15889 1.07796 1.04474
 O863 O 0.89901 0.92380 1.01406
 O864 O 0.87548 0.89980 1.01335
 C865 C 0.88275 0.91605 1.02093
 C866 C 0.87275 0.92528 1.03865
 C867 C 0.85498 0.91650 1.04637
 H868 H 0.84770 0.90419 1.03815
 O869 O 0.98276 1.06613 1.10136
 O870 O 0.98260 1.08931 1.12552
 C871 C 0.97540 1.07309 1.11771
 C872 C 0.95782 1.06262 1.12727
 C873 C 0.94808 1.07134 1.14409
 H874 H 0.95377 1.08543 1.15056
 O875 O 1.01946 0.91979 1.09996
 O876 O 1.01867 0.89432 1.12200
 C877 C 1.02597 0.91132 1.11609
 C878 C 1.04252 0.92118 1.12775
 C879 C 1.04854 0.91353 1.14677
 H880 H 1.04083 0.90029 1.15298
 O881 O 1.10221 0.97113 1.07523
 O882 O 1.12548 0.97022 1.09931
 C883 C 1.11851 0.96388 1.08247
 C884 C 1.12907 0.94763 1.07124
 C885 C 1.14631 0.93809 1.07942
 H886 H 1.15221 0.94293 1.09400
 O887 O 0.90086 1.01151 1.07316
 O888 O 0.87688 1.01105 1.09638
 C889 C 0.88430 1.01828 1.08009
 C890 C 0.87378 1.03509 1.06944
 C891 C 0.85485 1.04164 1.07630
 H892 H 0.84788 1.03405 1.08916
 O893 O 0.92894 1.09583 1.02244
 O894 O 0.90529 1.11939 1.02348
 C895 C 0.92194 1.11215 1.02994
 C896 C 0.93327 1.12259 1.04642
 C897 C 0.92716 1.14176 1.05369
 H898 H 0.91420 1.14929 1.04693
 O899 O 1.07458 0.89559 1.01832
 O900 O 1.09773 0.87147 1.01794
 C901 C 1.08162 0.87891 1.02520
 C902 C 1.07125 0.86842 1.04220
 C903 C 1.08015 0.85142 1.05183
 H904 H 1.09463 0.84586 1.04665
 O905 O 0.92937 1.01109 1.10011
 O906 O 0.90543 1.01106 1.12334
 C907 C 0.92194 1.01822 1.11629
 C908 C 0.93194 1.03568 1.12653
 C909 C 0.92260 1.04462 1.14329
 H910 H 0.90889 1.03791 1.14943
 O911 O 1.07436 0.97078 1.10282
 O912 O 1.09743 0.97004 1.12710
 C913 C 1.08097 0.96346 1.11947
 C914 C 1.06946 0.94678 1.12955
 C915 C 1.07512 0.93918 1.14877
 H916 H 1.08755 0.94633 1.15687
 O917 O 1.01965 0.89402 1.07038
 O918 O 1.01886 0.86861 1.09247
 C919 C 1.02633 0.87700 1.07677
 C920 C 1.04374 0.86729 1.06677
 C921 C 1.05236 0.84989 1.07557
 H922 H 1.04491 0.84261 1.08834
 O923 O 0.98408 1.09486 1.07434
 O924 O 0.98442 1.11810 1.09845
 C925 C 0.97743 1.11135 1.08177
 C926 C 0.96083 1.12235 1.07133
 C927 C 0.95462 1.14152 1.07825
 H928 H 0.96251 1.14859 1.09086
 O929 O 0.90097 1.06767 1.02101
 O930 O 0.87718 1.09110 1.02201
 C931 C 0.88440 1.07424 1.02814
 C932 C 0.87374 1.06244 1.04412
 C933 C 0.85470 1.06872 1.05115
 H934 H 0.84731 1.08171 1.04415
 O935 O 1.10298 0.92279 1.01823
 O936 O 1.12603 0.89860 1.01733
 C937 C 1.11926 0.91495 1.02493
 C938 C 1.12970 0.92415 1.04259
 C939 C 1.14707 0.91501 1.05079
 H940 H 1.15389 0.90230 1.04295
 O941 O 0.98002 0.91956 1.09984
 O942 O 0.97940 0.89385 1.12159
 C943 C 0.97288 0.91105 1.11568
 C944 C 0.95627 0.92083 1.12689
 C945 C 0.94852 0.91188 1.14462
 H946 H 0.95603 0.89867 1.15100
 O947 O 1.02225 1.06532 1.10245
 O948 O 1.02217 1.08819 1.12691
 C949 C 1.02885 1.07173 1.11942
 C950 C 1.04487 1.06021 1.13019
 C951 C 1.05156 1.06628 1.14953
 H952 H 1.04437 1.07898 1.15704
 O953 O 0.90104 0.97184 1.07217
 O954 O 0.87718 0.97135 1.09550
 C955 C 0.88443 0.96479 1.07892
 C956 C 0.87377 0.94855 1.06749
 C957 C 0.85619 0.93919 1.07528
 H958 H 0.85024 0.94402 1.08977
 O959 O 1.10272 1.01064 1.07565
 O960 O 1.12617 1.01000 1.09957
 C961 C 1.11933 1.01718 1.08294
 C962 C 1.13058 1.03346 1.07203
 C963 C 1.14971 1.03998 1.07893
 H964 H 1.15653 1.03287 1.09215
 O965 O 0.92678 0.89633 1.01335
 O966 O 0.90335 0.87220 1.01283
 C967 C 0.91985 0.87942 1.01988
 C968 C 0.93095 0.86825 1.03604
 C969 C 0.92518 0.84827 1.04144
 H970 H 0.91289 0.84076 1.03344
 O971 O 1.07864 1.09391 1.02320
 O972 O 1.10314 1.11686 1.02471
 C973 C 1.08638 1.10977 1.03115
 C974 C 1.07601 1.11988 1.04830
 C975 C 1.08439 1.13751 1.05702
 H976 H 1.09815 1.14407 1.05084
 Cu977 Cu 1.08608 0.99077 1.08671
 Cu978 Cu 1.11401 0.99003 1.11566
 Cu979 Cu 0.91702 0.99132 1.08450
 Cu980 Cu 0.88837 0.99113 1.11248
 Cu981 Cu 1.00326 1.07787 1.08595
 Cu982 Cu 1.00336 1.10552 1.11508
 Cu983 Cu 0.99981 0.90968 1.08259
 Cu984 Cu 0.99899 0.87889 1.10883
 C985 C 1.05432 1.04366 1.12069
 H986 H 1.04947 1.03907 1.10565
 C987 C 1.06759 1.05610 1.15922
 C988 C 0.94712 0.93834 1.11903
 H989 H 0.95308 0.94517 1.10526
 C990 C 0.93103 0.91955 1.15396
 C991 C 1.05821 1.11154 1.05663
 H992 H 1.05190 1.09768 1.05023
 C993 C 1.07527 1.14682 1.07376
 C994 C 0.94702 0.87772 1.04659
 H995 H 0.95139 0.89323 1.04277
 C996 C 0.93531 0.83781 1.05707
 C997 C 1.12186 1.04315 1.05501
 H998 H 1.10691 1.03860 1.04988
 C999 C 1.16007 1.05581 1.06889
 C1000 C 0.88188 0.94149 1.04913
 H1001 H 0.89573 0.94818 1.04330
 C1002 C 0.84680 0.92300 1.06485
 C1003 C 0.94965 1.04470 1.11865
 H1004 H 0.95672 1.03812 1.10541
 C1005 C 0.93028 1.06257 1.15191
 C1006 C 1.05297 0.93785 1.11939
 H1007 H 1.04858 0.94354 1.10455
 C1008 C 1.06468 0.92253 1.15760
 C1009 C 1.12102 0.94064 1.05275
 H1010 H 1.10743 0.94755 1.04664
 C1011 C 1.15530 0.92159 1.06937
 C1012 C 0.88304 1.04544 1.05320
 H1013 H 0.89783 1.04067 1.04808
 C1014 C 0.84515 1.05837 1.06725
 C1015 C 0.95022 1.11313 1.05527
 H1016 H 0.95482 1.09821 1.05004
 C1017 C 0.93787 1.15139 1.06953
 C1018 C 1.05310 0.87634 1.04989
 H1019 H 1.04656 0.88989 1.04312
 C1020 C 1.07091 0.84227 1.06880
 O1021 O 1.07390 0.97917 0.89758
 O1022 O 1.09702 0.98032 0.87354
 C1023 C 1.08080 0.97283 0.88079
 C1024 C 1.07066 0.95578 0.87007
 C1025 C 1.07954 0.94754 0.85267
 H1026 H 1.09293 0.95467 0.84628
 O1027 O 0.93235 1.01873 0.89875
 O1028 O 0.90995 1.02066 0.87391
 C1029 C 0.92628 1.02677 0.88228
 C1030 C 0.93781 1.04396 0.87320
 C1031 C 0.93244 1.05143 0.85394
 H1032 H 0.92082 1.04367 0.84522
 O1033 O 0.98358 1.10371 0.93270
 O1034 O 0.98386 1.12817 0.90960
 C1035 C 0.97643 1.12027 0.92558
 C1036 C 0.95865 1.12967 0.93552
 C1037 C 0.94930 1.14723 0.92735
 H1038 H 0.95572 1.15485 0.91422
 O1039 O 1.02039 0.89679 0.92399
 O1040 O 1.02074 0.87312 0.90028
 C1041 C 1.02728 0.88019 0.91703
 C1042 C 1.04331 0.86927 0.92840
 C1043 C 1.04987 0.84992 0.92213
 H1044 H 1.04281 0.84260 0.90917
 O1045 O 1.10175 0.92385 0.97834
 O1046 O 1.12454 0.89941 0.97759
 C1047 C 1.11763 0.91619 0.97081
 C1048 C 1.12774 0.92633 0.95342
 C1049 C 1.14457 0.91721 0.94446
 H1050 H 1.15080 0.90337 0.95098
 O1051 O 0.90190 1.06930 0.98120
 O1052 O 0.87811 1.09273 0.98221
 C1053 C 0.88561 1.07683 0.97424
 C1054 C 0.87583 1.06774 0.95603
 C1055 C 0.85881 1.07712 0.94739
 H1056 H 0.85192 1.08983 0.95515
 O1057 O 1.02356 1.07595 0.90561
 O1058 O 1.02374 1.10040 0.88246
 C1059 C 1.03037 1.08346 0.88917
 C1060 C 1.04611 1.07254 0.87755
 C1061 C 1.05188 1.07995 0.85844
 H1062 H 1.04493 1.09369 0.85252
 O1063 O 0.98159 0.92523 0.89577
 O1064 O 0.98174 0.90166 0.87199
 C1065 C 0.97471 0.91812 0.87923
 C1066 C 0.95772 0.92854 0.86881
 C1067 C 0.94865 0.91962 0.85175
 H1068 H 0.95510 0.90590 0.84540
 O1069 O 1.10315 1.01713 0.92667
 O1070 O 1.12630 1.01790 0.90264
 C1071 C 1.11971 1.02404 0.91962
 C1072 C 1.13112 1.03982 0.93093
 C1073 C 1.15005 1.04657 0.92399
 H1074 H 1.15675 1.03962 0.91073
 O1075 O 0.90144 0.97907 0.92326
 O1076 O 0.87851 0.98125 0.89894
 C1077 C 0.88488 0.97318 0.91535
 C1078 C 0.87335 0.95637 0.92511
 C1079 C 0.85445 0.95019 0.91753
 H1080 H 0.84800 0.95814 0.90459
 O1081 O 1.07852 1.09662 0.98372
 O1082 O 1.10303 1.11956 0.98521
 C1083 C 1.08625 1.11345 0.97791
 C1084 C 1.07598 1.12572 0.96205
 C1085 C 1.08503 1.14361 0.95454
 H1086 H 1.09905 1.14905 0.96123
 O1087 O 0.92660 0.89702 0.97391
 O1088 O 0.90302 0.87305 0.97347
 C1089 C 0.91958 0.88038 0.96691
 C1090 C 0.93064 0.86949 0.95086
 C1091 C 0.92431 0.85002 0.94478
 H1092 H 0.91132 0.84296 0.95203
 O1093 O 0.92906 0.97888 0.89557
 O1094 O 0.90625 0.98069 0.87112
 C1095 C 0.92196 0.97254 0.87872
 C1096 C 0.93171 0.95500 0.86845
 C1097 C 0.92266 0.94561 0.85138
 H1098 H 0.90874 0.95165 0.84510
 O1099 O 1.07460 1.01924 0.89964
 O1100 O 1.09758 1.02043 0.87547
 C1101 C 1.08149 1.02727 0.88347
 C1102 C 1.07089 1.04509 0.87435
 C1103 C 1.07637 1.05279 0.85509
 H1104 H 1.08795 1.04519 0.84638
 O1105 O 0.98101 0.89595 0.92218
 O1106 O 0.98131 0.87225 0.89851
 C1107 C 0.97414 0.87937 0.91485
 C1108 C 0.95728 0.86874 0.92532
 C1109 C 0.95064 0.84921 0.91927
 H1110 H 0.95828 0.84137 0.90708
 O1111 O 1.02355 1.10363 0.93352
 O1112 O 1.02404 1.12810 0.91043
 C1113 C 1.03104 1.12015 0.92661
 C1114 C 1.04880 1.12938 0.93702
 C1115 C 1.05815 1.14731 0.92961
 H1116 H 1.05170 1.15526 0.91668
 O1117 O 0.89847 0.92450 0.97428
 O1118 O 0.87480 0.90067 0.97350
 C1119 C 0.88205 0.91746 0.96696
 C1120 C 0.87186 0.92886 0.95031
 C1121 C 0.85288 0.92280 0.94251
 H1122 H 0.84498 0.90991 0.94921
 O1123 O 1.10576 1.06828 0.98186
 O1124 O 1.13027 1.09122 0.98321
 C1125 C 1.12246 1.07540 0.97526
 C1126 C 1.13248 1.06533 0.95787
 C1127 C 1.15129 1.07227 0.95038
 H1128 H 1.15904 1.08492 0.95762
 O1129 O 1.02104 0.92452 0.89578
 O1130 O 1.02148 0.90105 0.87191
 C1131 C 1.02830 0.91756 0.87940
 C1132 C 1.04528 0.92849 0.86942
 C1133 C 1.05450 0.92041 0.85201
 H1134 H 1.04879 0.90640 0.84538
 O1135 O 0.98442 1.07558 0.90511
 O1136 O 0.98472 1.09998 0.88190
 C1137 C 0.97802 1.08293 0.88842
 C1138 C 0.96258 1.07168 0.87647
 C1139 C 0.95672 1.07903 0.85730
 H1140 H 0.96347 1.09294 0.85140
 O1141 O 0.90247 1.01889 0.92411
 O1142 O 0.87999 1.02123 0.89940
 C1143 C 0.88675 1.02711 0.91651
 C1144 C 0.87661 1.04398 0.92746
 C1145 C 0.85984 1.05405 0.91878
 H1146 H 0.85417 1.04932 0.90407
 O1147 O 1.10217 0.97749 0.92472
 O1148 O 1.12532 0.97812 0.90070
 C1149 C 1.11827 0.97044 0.91701
 C1150 C 1.12828 0.95271 0.92693
 C1151 C 1.14531 0.94332 0.91822
 H1152 H 1.15187 0.94942 0.90439
 O1153 O 1.07348 0.89627 0.97875
 O1154 O 1.09630 0.87183 0.97849
 C1155 C 1.07993 0.87946 0.97183
 C1156 C 1.06872 0.86890 0.95546
 C1157 C 1.07485 0.84950 0.94915
 H1158 H 1.08738 0.84205 0.95676
 O1159 O 0.92859 1.09822 0.98297
 O1160 O 0.90472 1.12159 0.98404
 C1161 C 0.92120 1.11503 0.97678
 C1162 C 0.93147 1.12671 0.96048
 C1163 C 0.92229 1.14404 0.95203
 H1164 H 0.90807 1.14943 0.95810
 Cu1165 Cu 1.08610 0.99821 0.91451
 Cu1166 Cu 1.11380 0.99936 0.88561
 Cu1167 Cu 0.91860 0.99867 0.91282
 Cu1168 Cu 0.89146 1.00122 0.88335
 Cu1169 Cu 1.08958 1.07858 1.00236
 Cu1170 Cu 1.11897 1.10615 1.00416
 Cu1171 Cu 1.08593 0.91213 0.99847
 Cu1172 Cu 1.11352 0.88295 0.99767
 Cu1173 Cu 0.91745 1.08037 1.00192
 Cu1174 Cu 0.88886 1.10846 1.00314
 Cu1175 Cu 0.91499 0.91291 0.99385
 Cu1176 Cu 0.88673 0.88407 0.99321
 Cu1177 Cu 1.00372 1.08749 0.92178
 Cu1178 Cu 1.00409 1.11673 0.89389
 Cu1179 Cu 1.00101 0.91296 0.91181
 Cu1180 Cu 1.00141 0.88472 0.88321
 C1181 C 1.05339 0.94629 0.87824
 H1182 H 1.04671 0.95235 0.89192
 C1183 C 1.07181 0.92975 0.84375
 C1184 C 0.95314 1.05402 0.88429
 H1185 H 0.95723 1.04850 0.89928
 C1186 C 0.94166 1.06906 0.84597
 C1187 C 0.94970 1.11976 0.95225
 H1188 H 0.95658 1.10611 0.95846
 C1189 C 0.93096 1.15430 0.93546
 C1190 C 1.05274 0.87856 0.94520
 H1191 H 1.04809 0.89365 0.94989
 C1192 C 1.06557 0.83992 0.93254
 C1193 C 1.11977 0.94415 0.94465
 H1194 H 1.10650 0.95100 0.95132
 C1195 C 1.15330 0.92539 0.92685
 C1196 C 0.88448 1.05100 0.94609
 H1197 H 0.89774 1.04379 0.95258
 C1198 C 0.85098 1.07082 0.92854
 C1199 C 1.05557 1.05501 0.88536
 H1200 H 1.05131 1.04936 0.90024
 C1201 C 1.06672 1.07014 0.84694
 C1202 C 0.94928 0.94634 0.87692
 H1203 H 0.95606 0.95310 0.89032
 C1204 C 0.93091 0.92769 0.84316
 C1205 C 1.12263 1.04903 0.94805
 H1206 H 1.10798 1.04387 0.95338
 C1207 C 1.16022 1.06275 0.93356
 C1208 C 0.88177 0.94576 0.94159
 H1209 H 0.89649 0.95036 0.94732
 C1210 C 0.84396 0.93356 0.92620
 C1211 C 1.05777 1.11889 0.95338
 H1212 H 1.05096 1.10486 0.95892
 C1213 C 1.07641 1.15441 0.93822
 C1214 C 0.94725 0.87864 0.94123
 H1215 H 0.95206 0.89377 0.94581
 C1216 C 0.93426 0.83966 0.92917
 O1217 O 0.96931 0.42735 0.39750
 O1218 O 0.96578 0.40408 0.37366
 C1219 C 0.96074 0.42104 0.38139
 C1220 C 0.94436 0.43331 0.37195
 C1221 C 0.93430 0.42640 0.35441
 H1222 H 0.93878 0.41208 0.34769
 O1223 O 1.02161 0.57333 0.40123
 O1224 O 1.02305 0.59755 0.37789
 C1225 C 1.02884 0.58037 0.38477
 C1226 C 1.04453 0.56866 0.37389
 C1227 C 1.05462 0.57718 0.35704
 H1228 H 1.05073 0.59238 0.35187
 O1229 O 0.89594 0.48766 0.43022
 O1230 O 0.87153 0.49072 0.40748
 C1231 C 0.87872 0.48233 0.42333
 C1232 C 0.86747 0.46534 0.43300
 C1233 C 0.85034 0.45718 0.42332
 H1234 H 0.84437 0.46467 0.40990
 O1235 O 1.09714 0.51025 0.42347
 O1236 O 1.11979 0.50855 0.39903
 C1237 C 1.11391 0.51592 0.41574
 C1238 C 1.12648 0.53174 0.42576
 C1239 C 1.14516 0.53754 0.41733
 H1240 H 1.15056 0.52998 0.40382
 O1241 O 0.91834 0.40323 0.48107
 O1242 O 0.89298 0.38117 0.48186
 C1243 C 0.90971 0.38720 0.47445
 C1244 C 0.91892 0.37564 0.45771
 C1245 C 0.91078 0.35674 0.45190
 H1246 H 0.89784 0.35055 0.45995
 O1247 O 1.08119 0.59557 0.47837
 O1248 O 1.10700 0.61702 0.47724
 C1249 C 1.08941 0.61169 0.47135
 C1250 C 1.07831 0.62395 0.45597
 C1251 C 1.08553 0.64312 0.44927
 H1252 H 1.09930 0.64946 0.45568
 O1253 O 0.92624 0.52573 0.40227
 O1254 O 0.90165 0.52861 0.37971
 C1255 C 0.91897 0.53388 0.38632
 C1256 C 0.93021 0.55033 0.37578
 C1257 C 0.92191 0.55950 0.35842
 H1258 H 0.90804 0.55343 0.35195
 O1259 O 1.06522 0.47303 0.39579
 O1260 O 1.08813 0.47198 0.37156
 C1261 C 1.07153 0.46585 0.37905
 C1262 C 1.06006 0.44947 0.36861
 C1263 C 1.06848 0.43971 0.35176
 H1264 H 1.08280 0.44500 0.34566
 O1265 O 1.00757 0.39565 0.42317
 O1266 O 1.00420 0.37238 0.39929
 C1267 C 1.01259 0.37866 0.41552
 C1268 C 1.02895 0.36651 0.42508
 C1269 C 1.03637 0.34909 0.41529
 H1270 H 1.02903 0.34377 0.40156
 O1271 O 0.98512 0.60330 0.43052
 O1272 O 0.98614 0.62741 0.40705
 C1273 C 0.97921 0.62042 0.42371
 C1274 C 0.96364 0.63204 0.43486
 C1275 C 0.95708 0.65097 0.42739
 H1276 H 0.96394 0.65742 0.41386
 O1277 O 0.90553 0.57973 0.48705
 O1278 O 0.88375 0.60507 0.48805
 C1279 C 0.88947 0.58813 0.48065
 C1280 C 0.87782 0.57863 0.46385
 C1281 C 0.85991 0.58774 0.45690
 H1282 H 0.85391 0.60072 0.46496
 O1283 O 1.09093 0.41344 0.47607
 O1284 O 1.11262 0.38809 0.47388
 C1285 C 1.10630 0.40542 0.46788
 C1286 C 1.11650 0.41620 0.45087
 C1287 C 1.13357 0.40770 0.44146
 H1288 H 1.13955 0.39328 0.44684
 O1289 O 0.98229 0.57671 0.40163
 O1290 O 0.98353 0.60075 0.37811
 C1291 C 0.97551 0.58466 0.38534
 C1292 C 0.95766 0.57542 0.37523
 C1293 C 0.94895 0.58460 0.35791
 H1294 H 0.95570 0.59823 0.35139
 O1295 O 1.00863 0.42355 0.39529
 O1296 O 1.00540 0.40033 0.37135
 C1297 C 1.01428 0.41598 0.37853
 C1298 C 1.03201 0.42501 0.36804
 C1299 C 1.04063 0.41547 0.35102
 H1300 H 1.03365 0.40192 0.34464
 O1301 O 1.09222 0.47045 0.42445
 O1302 O 1.11494 0.46922 0.40005
 C1303 C 1.10774 0.46237 0.41664
 C1304 C 1.11721 0.44431 0.42629
 C1305 C 1.13448 0.43586 0.41754
 H1306 H 1.14161 0.44359 0.40484
 O1307 O 0.89980 0.52750 0.43124
 O1308 O 0.87527 0.53043 0.40863
 C1309 C 0.88381 0.53624 0.42495
 C1310 C 0.87529 0.55366 0.43641
 C1311 C 0.85769 0.56344 0.42939
 H1312 H 0.85042 0.55811 0.41563
 O1313 O 0.93390 0.60698 0.48596
 O1314 O 0.91233 0.63249 0.48704
 C1315 C 0.92771 0.62408 0.47923
 C1316 C 0.93822 0.63385 0.46175
 C1317 C 0.93156 0.65263 0.45370
 H1318 H 0.91898 0.66049 0.46061
 O1319 O 1.06117 0.38792 0.47654
 O1320 O 1.08274 0.36246 0.47457
 C1321 C 1.06682 0.37139 0.46840
 C1322 C 1.05543 0.36301 0.45087
 C1323 C 1.06293 0.34600 0.44050
 H1324 H 1.07672 0.33889 0.44582
 O1325 O 1.06731 0.51311 0.39786
 O1326 O 1.09020 0.51173 0.37364
 C1327 C 1.07476 0.52005 0.38147
 C1328 C 1.06633 0.53873 0.37202
 C1329 C 1.07563 0.54713 0.35480
 H1330 H 1.08750 0.53868 0.34736
 O1331 O 0.92194 0.48599 0.40093
 O1332 O 0.89743 0.48907 0.37831
 C1333 C 0.91333 0.48019 0.38462
 C1334 C 0.92138 0.46241 0.37337
 C1335 C 0.91180 0.45547 0.35555
 H1336 H 0.89933 0.46411 0.34925
 O1337 O 1.02450 0.60096 0.42902
 O1338 O 1.02543 0.62528 0.40575
 C1339 C 1.03231 0.61724 0.42192
 C1340 C 1.04996 0.62662 0.43218
 C1341 C 1.05716 0.64576 0.42591
 H1342 H 1.04930 0.65393 0.41393
 O1343 O 0.96851 0.39892 0.42492
 O1344 O 0.96499 0.37543 0.40127
 C1345 C 0.95985 0.38297 0.41821
 C1346 C 0.94335 0.37348 0.43014
 C1347 C 0.93511 0.35448 0.42459
 H1348 H 0.94146 0.34626 0.41191
 O1349 O 1.10532 0.56458 0.47622
 O1350 O 1.13137 0.58574 0.47509
 C1351 C 1.12205 0.57009 0.46846
 C1352 C 1.13044 0.55839 0.45130
 C1353 C 1.14912 0.56393 0.44267
 H1354 H 1.15785 0.57634 0.44917
 O1355 O 0.89257 0.43272 0.48195
 O1356 O 0.86723 0.41066 0.48232
 C1357 C 0.87558 0.42661 0.47511
 C1358 C 0.86598 0.43773 0.45799
 C1359 C 0.84911 0.42944 0.44772
 H1360 H 0.84264 0.41508 0.45281
 Cu1361 Cu 0.98882 0.41377 0.41253
 Cu1362 Cu 0.98469 0.38577 0.38394
 Cu1363 Cu 1.00325 0.58612 0.41792
 Cu1364 Cu 1.00465 0.61517 0.38984
 Cu1365 Cu 0.91345 0.50643 0.41844
 Cu1366 Cu 0.88401 0.51007 0.39130
 Cu1367 Cu 1.07815 0.49186 0.41280
 Cu1368 Cu 1.10548 0.49021 0.38363
 C1369 C 0.93783 0.45137 0.38123
 H1370 H 0.94518 0.45651 0.39503
 C1371 C 0.91797 0.43734 0.34600
 C1372 C 1.05057 0.54944 0.38130
 H1373 H 1.04344 0.54309 0.39472
 C1374 C 1.07041 0.56660 0.34753
 C1375 C 0.87501 0.45571 0.45049
 H1376 H 0.88841 0.46183 0.45784
 C1377 C 0.84138 0.43894 0.43014
 C1378 C 1.11932 0.54213 0.44284
 H1379 H 1.10477 0.53794 0.44920
 C1380 C 1.15657 0.55362 0.42561
 C1381 C 0.93531 0.38381 0.44687
 H1382 H 0.94143 0.39857 0.45113
 C1383 C 0.91882 0.34596 0.43547
 C1384 C 1.06042 0.61598 0.44742
 H1385 H 1.05494 0.60109 0.45214
 C1386 C 1.07482 0.65421 0.43437
 C1387 C 0.94823 0.55821 0.38395
 H1388 H 0.95451 0.55138 0.39758
 C1389 C 0.93089 0.57683 0.34961
 C1390 C 1.04175 0.44214 0.37652
 H1391 H 1.03549 0.44933 0.38986
 C1392 C 1.05907 0.42259 0.34307
 C1393 C 1.03840 0.37318 0.44305
 H1394 H 1.03294 0.38674 0.45055
 C1395 C 1.05364 0.33897 0.42261
 C1396 C 0.95434 0.62375 0.45222
 H1397 H 0.95926 0.60907 0.45797
 C1398 C 0.94104 0.66129 0.43659
 C1399 C 0.88526 0.56138 0.45369
 H1400 H 0.89915 0.55434 0.45887
 C1401 C 0.84987 0.58051 0.43950
 C1402 C 1.10842 0.43455 0.44314
 H1403 H 1.09495 0.44093 0.44986
 C1404 C 1.14252 0.41739 0.42463
 O1405 O 1.01761 0.41935 0.59886
 O1406 O 1.01633 0.39558 0.62265
 C1407 C 1.02457 0.41147 0.61506
 C1408 C 1.04293 0.42052 0.62450
 C1409 C 1.05150 0.41200 0.64221
 H1410 H 1.04421 0.39916 0.64968
 O1411 O 0.99277 0.57094 0.60059
 O1412 O 0.99606 0.59327 0.62534
 C1413 C 0.98727 0.57777 0.61770
 C1414 C 0.97007 0.56807 0.62856
 C1415 C 0.96365 0.57596 0.64724
 H1416 H 0.97155 0.58890 0.65377
 O1417 O 0.90413 0.52435 0.57710
 O1418 O 0.88218 0.52535 0.60220
 C1419 C 0.88885 0.53240 0.58553
 C1420 C 0.87918 0.55062 0.57636
 C1421 C 0.86231 0.55946 0.58564
 H1422 H 0.85569 0.55222 0.59889
 O1423 O 1.10269 0.46602 0.56658
 O1424 O 1.12721 0.46385 0.58928
 C1425 C 1.11869 0.45751 0.57318
 C1426 C 1.12691 0.43955 0.56245
 C1427 C 1.14475 0.42997 0.56918
 H1428 H 1.15309 0.43623 0.58193
 O1429 O 1.06379 0.38583 0.51636
 O1430 O 1.08529 0.36031 0.51461
 C1431 C 1.07003 0.36864 0.52276
 C1432 C 1.05976 0.35891 0.54040
 C1433 C 1.06624 0.34005 0.54844
 H1434 H 1.07826 0.33181 0.54101
 O1435 O 0.93659 0.60548 0.52563
 O1436 O 0.91503 0.63098 0.52694
 C1437 C 0.93118 0.62240 0.53311
 C1438 C 0.94353 0.63171 0.54956
 C1439 C 0.93775 0.65014 0.55865
 H1440 H 0.92464 0.65822 0.55293
 O1441 O 0.93005 0.48120 0.60228
 O1442 O 0.90821 0.48300 0.62744
 C1443 C 0.92327 0.47455 0.61913
 C1444 C 0.93222 0.45626 0.62885
 C1445 C 0.92341 0.44819 0.64652
 H1446 H 0.91106 0.45620 0.65367
 O1447 O 1.07929 0.50789 0.59516
 O1448 O 1.10378 0.50549 0.61788
 C1449 C 1.08776 0.51399 0.61141
 C1450 C 1.07947 0.53164 0.62256
 C1451 C 1.08870 0.53797 0.64070
 H1452 H 1.10084 0.52898 0.64716
 O1453 O 0.97507 0.39545 0.57202
 O1454 O 0.97337 0.37136 0.59547
 C1455 C 0.96679 0.37945 0.57914
 C1456 C 0.94901 0.37061 0.56850
 C1457 C 0.94095 0.35161 0.57442
 H1458 H 0.94828 0.34293 0.58638
 O1459 O 1.03309 0.59776 0.57258
 O1460 O 1.03636 0.62025 0.59719
 C1461 C 1.04181 0.61337 0.58008
 C1462 C 1.05894 0.62296 0.56903
 C1463 C 1.06841 0.64084 0.57619
 H1464 H 1.06266 0.64840 0.58956
 O1465 O 0.89455 0.43275 0.52179
 O1466 O 0.86916 0.41076 0.52224
 C1467 C 0.87798 0.42648 0.52934
 C1468 C 0.86946 0.43670 0.54734
 C1469 C 0.85311 0.42773 0.55755
 H1470 H 0.84574 0.41438 0.55120
 O1471 O 1.10767 0.56346 0.51563
 O1472 O 1.13373 0.58462 0.51479
 C1473 C 1.12516 0.56866 0.52182
 C1474 C 1.13527 0.55633 0.53782
 C1475 C 1.15410 0.56244 0.54579
 H1476 H 1.16176 0.57570 0.53953
 O1477 O 1.03217 0.56791 0.59858
 O1478 O 1.03552 0.59029 0.62328
 C1479 C 1.04062 0.57362 0.61498
 C1480 C 1.05683 0.56097 0.62420
 C1481 C 1.06666 0.56731 0.64211
 H1482 H 1.06224 0.58146 0.64921
 O1483 O 0.97819 0.42217 0.60064
 O1484 O 0.97662 0.39828 0.62429
 C1485 C 0.97095 0.41540 0.61724
 C1486 C 0.95525 0.42721 0.62802
 C1487 C 0.94600 0.41928 0.64566
 H1488 H 0.95078 0.40470 0.65180
 O1489 O 1.10555 0.50608 0.56613
 O1490 O 1.12997 0.50372 0.58892
 C1491 C 1.12272 0.51172 0.57287
 C1492 C 1.13407 0.52836 0.56256
 C1493 C 1.15288 0.53475 0.57028
 H1494 H 1.15933 0.52697 0.58332
 O1495 O 0.90086 0.48440 0.57613
 O1496 O 0.87910 0.48542 0.60140
 C1497 C 0.88460 0.47821 0.58442
 C1498 C 0.87263 0.46176 0.57459
 C1499 C 0.85629 0.45232 0.58475
 H1500 H 0.85171 0.45768 0.59957
 O1501 O 1.08346 0.59416 0.51776
 O1502 O 1.10937 0.61552 0.51684
 C1503 C 1.09270 0.60975 0.52459
 C1504 C 1.08409 0.62090 0.54200
 C1505 C 1.09353 0.63856 0.54950
 H1506 H 1.10693 0.64457 0.54208
 O1507 O 0.91956 0.40242 0.52057
 O1508 O 0.89413 0.38046 0.52111
 C1509 C 0.91142 0.38620 0.52747
 C1510 C 0.92198 0.37402 0.54324
 C1511 C 0.91416 0.35503 0.54939
 H1512 H 0.90045 0.34921 0.54238
 O1513 O 1.07558 0.46814 0.59488
 O1514 O 1.10016 0.46596 0.61753
 C1515 C 1.08284 0.46043 0.61106
 C1516 C 1.07145 0.44442 0.62222
 C1517 C 1.07974 0.43568 0.63982
 H1518 H 1.09400 0.44136 0.64575
 O1519 O 0.93436 0.52093 0.60220
 O1520 O 0.91244 0.52251 0.62730
 C1521 C 0.92902 0.52815 0.61919
 C1522 C 0.94179 0.54379 0.62933
 C1523 C 0.93592 0.55167 0.64817
 H1524 H 0.92282 0.54530 0.65579
 O1525 O 0.99365 0.60038 0.57435
 O1526 O 0.99685 0.62280 0.59904
 C1527 C 0.98836 0.61695 0.58270
 C1528 C 0.97165 0.62906 0.57372
 C1529 C 0.96564 0.64749 0.58259
 H1530 H 0.97374 0.65325 0.59572
 O1531 O 1.01427 0.39098 0.57186
 O1532 O 1.01270 0.36713 0.59556
 C1533 C 1.01983 0.37378 0.57890
 C1534 C 1.03517 0.36167 0.56791
 C1535 C 1.04184 0.34291 0.57574
 H1536 H 1.03540 0.33715 0.58975
 O1537 O 1.09351 0.41180 0.51538
 O1538 O 1.11513 0.38639 0.51336
 C1539 C 1.10981 0.40325 0.52105
 C1540 C 1.12236 0.41282 0.53709
 C1541 C 1.14017 0.40343 0.54402
 H1542 H 1.14525 0.38947 0.53697
 O1543 O 0.90570 0.58078 0.52666
 O1544 O 0.88398 0.60614 0.52793
 C1545 C 0.89012 0.58896 0.53441
 C1546 C 0.87962 0.57848 0.55149
 C1547 C 0.86260 0.58713 0.56101
 H1548 H 0.85649 0.60143 0.55549
 Cu1549 Cu 0.99645 0.40939 0.58353
 Cu1550 Cu 0.99457 0.38073 0.61190
 Cu1551 Cu 1.01266 0.58205 0.58402
 Cu1552 Cu 1.01653 0.60887 0.61371
 Cu1553 Cu 0.90874 0.42008 0.50129
 Cu1554 Cu 0.87823 0.39366 0.50199
 Cu1555 Cu 1.07511 0.40220 0.49640
 Cu1556 Cu 1.10102 0.37166 0.49392
 Cu1557 Cu 0.92260 0.59077 0.50631
 Cu1558 Cu 0.89661 0.62120 0.50760
 Cu1559 Cu 1.09180 0.57735 0.49704
 Cu1560 Cu 1.12302 0.60283 0.49585
 Cu1561 Cu 0.91948 0.50260 0.58685
 Cu1562 Cu 0.89330 0.50429 0.61708
 Cu1563 Cu 1.08837 0.48721 0.57833
 Cu1564 Cu 1.11774 0.48454 0.60565
 C1565 C 1.05296 0.43687 0.61476
 H1566 H 1.04670 0.44333 0.60095
 C1567 C 1.07003 0.41941 0.64978
 C1568 C 0.95906 0.55191 0.61972
 H1569 H 0.96356 0.54610 0.60506
 C1570 C 0.94653 0.56796 0.65710
 C1571 C 0.88759 0.56013 0.55922
 H1572 H 0.90084 0.55353 0.55226
 C1573 C 0.85400 0.57775 0.57828
 C1574 C 1.11600 0.43095 0.54626
 H1575 H 1.10211 0.43808 0.54118
 C1576 C 1.15145 0.41185 0.56008
 C1577 C 1.04407 0.36940 0.55016
 H1578 H 1.03916 0.38403 0.54426
 C1579 C 1.05728 0.33186 0.56614
 C1580 C 0.96062 0.62143 0.55710
 H1581 H 0.96500 0.60705 0.55042
 C1582 C 0.94870 0.65813 0.57522
 C1583 C 0.94826 0.44577 0.61978
 H1584 H 0.95489 0.45175 0.60594
 C1585 C 0.92985 0.42957 0.65481
 C1586 C 1.06336 0.54308 0.61454
 H1587 H 1.05629 0.53836 0.60044
 C1588 C 1.08270 0.55594 0.65044
 C1589 C 0.93952 0.38160 0.55275
 H1590 H 0.94548 0.39637 0.54824
 C1591 C 0.92355 0.34367 0.56487
 C1592 C 1.06675 0.61333 0.55177
 H1593 H 1.05964 0.59947 0.54626
 C1594 C 1.08577 0.64866 0.56651
 C1595 C 0.87898 0.45387 0.55582
 H1596 H 0.89190 0.46059 0.54818
 C1597 C 0.84675 0.43503 0.57644
 C1598 C 1.12546 0.53912 0.54619
 H1599 H 1.11076 0.53451 0.54043
 C1600 C 1.16295 0.55181 0.56212
 O1601 O 0.48221 0.93228 0.39409
 O1602 O 0.48284 0.90927 0.36977
 C1603 C 0.47524 0.92515 0.37752
 C1604 C 0.45781 0.93518 0.36751
 C1605 C 0.45095 0.92892 0.34824
 H1606 H 0.45910 0.91721 0.34017
 O1607 O 0.51665 1.08020 0.39502
 O1608 O 0.51479 1.10486 0.37217
 C1609 C 0.52288 1.08857 0.37874
 C1610 C 0.54002 1.07942 0.36771
 C1611 C 0.54675 1.08765 0.34919
 H1612 H 0.53911 1.10080 0.34281
 O1613 O 0.40108 0.98150 0.42594
 O1614 O 0.37626 0.98090 0.40345
 C1615 C 0.38448 0.97403 0.41959
 C1616 C 0.37489 0.95679 0.43066
 C1617 C 0.35574 0.94971 0.42468
 H1618 H 0.34769 0.95732 0.41245
 O1619 O 0.59844 1.03158 0.42284
 O1620 O 0.62232 1.03373 0.39962
 C1621 C 0.61456 1.03976 0.41621
 C1622 C 0.62406 1.05667 0.42779
 C1623 C 0.64301 1.06458 0.42208
 H1624 H 0.65109 1.05765 0.40963
 O1625 O 0.43308 0.89827 0.47719
 O1626 O 0.41057 0.87332 0.47639
 C1627 C 0.42647 0.88179 0.46946
 C1628 C 0.43703 0.87287 0.45179
 C1629 C 0.42957 0.85508 0.44236
 H1630 H 0.41615 0.84765 0.44831
 O1631 O 0.56570 1.10901 0.47990
 O1632 O 0.58803 1.13415 0.48039
 C1633 C 0.57209 1.12605 0.47317
 C1634 C 0.56175 1.13606 0.45594
 C1635 C 0.57021 1.15371 0.44733
 H1636 H 0.58332 1.16083 0.45433
 O1637 O 0.42553 1.02240 0.39641
 O1638 O 0.40107 1.02168 0.37354
 C1639 C 0.41762 1.02915 0.38010
 C1640 C 0.42772 1.04614 0.36909
 C1641 C 0.42041 1.05334 0.35026
 H1642 H 0.40733 1.04621 0.34323
 O1643 O 0.57356 0.99098 0.39383
 O1644 O 0.59708 0.99264 0.37022
 C1645 C 0.58091 0.98471 0.37724
 C1646 C 0.57045 0.96786 0.36640
 C1647 C 0.57699 0.96107 0.34726
 H1648 H 0.58989 0.96822 0.33995
 O1649 O 0.52438 0.90660 0.42031
 O1650 O 0.52480 0.88362 0.39596
 C1651 C 0.53201 0.89079 0.41236
 C1652 C 0.54989 0.88099 0.42179
 C1653 C 0.55865 0.86393 0.41264
 H1654 H 0.55157 0.85729 0.39934
 O1655 O 0.47597 1.10360 0.42441
 O1656 O 0.47396 1.12837 0.40170
 C1657 C 0.46792 1.11999 0.41805
 C1658 C 0.45119 1.12917 0.42966
 C1659 C 0.44142 1.14674 0.42234
 H1660 H 0.44619 1.15353 0.40810
 O1661 O 0.39949 1.07183 0.48176
 O1662 O 0.37506 1.09459 0.48292
 C1663 C 0.38269 1.07871 0.47523
 C1664 C 0.37233 1.06898 0.45781
 C1665 C 0.35483 1.07789 0.44964
 H1666 H 0.34813 1.09087 0.45713
 O1667 O 0.60479 0.93672 0.47404
 O1668 O 0.62989 0.91470 0.47338
 C1669 C 0.62171 0.93105 0.46702
 C1670 C 0.63161 0.94319 0.45080
 C1671 C 0.65060 0.93745 0.44333
 H1672 H 0.65852 0.92468 0.45015
 O1673 O 0.47738 1.07695 0.39561
 O1674 O 0.47546 1.10159 0.37273
 C1675 C 0.46981 1.08426 0.37941
 C1676 C 0.45375 1.07279 0.36869
 C1677 C 0.44665 1.07943 0.34973
 H1678 H 0.45359 1.09256 0.34243
 O1679 O 0.52160 0.93596 0.39403
 O1680 O 0.52202 0.91293 0.36970
 C1681 C 0.52828 0.92969 0.37714
 C1682 C 0.54404 0.94152 0.36632
 C1683 C 0.55033 0.93544 0.34703
 H1684 H 0.54292 0.92267 0.33961
 O1685 O 0.60153 0.99204 0.42148
 O1686 O 0.62527 0.99400 0.39810
 C1687 C 0.61844 0.98631 0.41445
 C1688 C 0.63001 0.97018 0.42510
 C1689 C 0.64907 0.96427 0.41792
 H1690 H 0.65561 0.97194 0.40486
 O1691 O 0.39929 1.02126 0.42545
 O1692 O 0.37470 1.02085 0.40271
 C1693 C 0.38245 1.02791 0.41892
 C1694 C 0.37221 1.04447 0.43001
 C1695 C 0.35484 1.05383 0.42187
 H1696 H 0.34855 1.04856 0.40760
 O1697 O 0.42680 1.10041 0.48210
 O1698 O 0.40215 1.12294 0.48295
 C1699 C 0.41865 1.11666 0.47547
 C1700 C 0.42771 1.12786 0.45817
 C1701 C 0.41858 1.14577 0.45096
 H1702 H 0.40609 1.15225 0.45929
 O1703 O 0.57903 0.90684 0.47241
 O1704 O 0.60401 0.88472 0.47123
 C1705 C 0.58715 0.89124 0.46456
 C1706 C 0.57703 0.88108 0.44713
 C1707 C 0.58567 0.86397 0.43765
 H1708 H 0.59971 0.85769 0.44339
 O1709 O 0.57220 1.03064 0.39362
 O1710 O 0.59585 1.03257 0.37014
 C1711 C 0.57903 1.03837 0.37725
 C1712 C 0.56747 1.05469 0.36687
 C1713 C 0.57385 1.06287 0.34817
 H1714 H 0.58680 1.05631 0.34062
 O1715 O 0.42683 0.98276 0.39651
 O1716 O 0.40221 0.98191 0.37381
 C1717 C 0.41922 0.97564 0.38027
 C1718 C 0.43025 0.95975 0.36901
 C1719 C 0.42343 0.95316 0.34992
 H1720 H 0.40986 0.95977 0.34346
 O1721 O 0.51508 1.10653 0.42400
 O1722 O 0.51333 1.13130 0.40125
 C1723 C 0.52084 1.12386 0.41744
 C1724 C 0.53695 1.13501 0.42840
 C1725 C 0.54570 1.15271 0.41994
 H1726 H 0.54011 1.15879 0.40567
 O1727 O 0.48489 0.90464 0.42242
 O1728 O 0.48548 0.88168 0.39806
 C1729 C 0.47874 0.88787 0.41499
 C1730 C 0.46293 0.87581 0.42554
 C1731 C 0.45580 0.85764 0.41689
 H1732 H 0.46328 0.85168 0.40361
 O1733 O 0.59510 1.08313 0.47870
 O1734 O 0.61736 1.10834 0.47928
 C1735 C 0.61108 1.09157 0.47187
 C1736 C 0.62230 1.08198 0.45494
 C1737 C 0.64117 1.08982 0.44880
 H1738 H 0.64754 1.10290 0.45658
 O1739 O 0.40456 0.92516 0.47851
 O1740 O 0.38187 0.90036 0.47769
 C1741 C 0.38825 0.91763 0.47144
 C1742 C 0.37682 0.92895 0.45558
 C1743 C 0.35777 0.92189 0.44899
 H1744 H 0.35113 0.90831 0.45573
 Cu1745 Cu 0.50316 0.92220 0.41016
 Cu1746 Cu 0.50384 0.89453 0.38098
 Cu1747 Cu 0.49647 1.08930 0.41202
 Cu1748 Cu 0.49413 1.11904 0.38466
 Cu1749 Cu 0.41565 1.00210 0.41334
 Cu1750 Cu 0.38600 1.00119 0.38616
 Cu1751 Cu 0.58405 1.01110 0.41023
 Cu1752 Cu 0.61255 1.01342 0.38219
 C1753 C 0.44749 0.95075 0.37760
 H1754 H 0.45264 0.95558 0.39247
 C1755 C 0.43379 0.93791 0.33925
 C1756 C 0.55039 1.06288 0.37631
 H1757 H 0.54549 1.05673 0.39079
 C1758 C 0.56359 1.07942 0.33916
 C1759 C 0.38523 0.94651 0.44637
 H1760 H 0.40010 0.95180 0.45098
 C1761 C 0.34715 0.93231 0.43367
 C1762 C 0.61394 1.06533 0.44439
 H1763 H 0.59927 1.05940 0.44884
 C1764 C 0.65172 1.08115 0.43249
 C1765 C 0.45371 0.88313 0.44320
 H1766 H 0.45910 0.89725 0.44985
 C1767 C 0.43878 0.84743 0.42474
 C1768 C 0.54497 1.12689 0.44652
 H1769 H 0.53867 1.11297 0.45286
 C1770 C 0.56257 1.16185 0.42921
 C1771 C 0.44447 1.05592 0.37805
 H1772 H 0.44987 1.05085 0.39277
 C1773 C 0.43004 1.06985 0.34045
 C1774 C 0.55391 0.95797 0.37573
 H1775 H 0.54909 0.96264 0.39070
 C1776 C 0.56674 0.94500 0.33747
 C1777 C 0.55907 0.88935 0.43911
 H1778 H 0.55248 0.90269 0.44605
 C1779 C 0.57661 0.85544 0.42024
 C1780 C 0.44422 1.11982 0.44760
 H1781 H 0.45124 1.10591 0.45301
 C1782 C 0.42500 1.15510 0.43285
 C1783 C 0.38080 1.05212 0.44803
 H1784 H 0.39449 1.04539 0.45411
 C1785 C 0.34623 1.07077 0.43148
 C1786 C 0.62151 0.95971 0.44171
 H1787 H 0.60666 0.96397 0.44711
 C1788 C 0.65938 0.94785 0.42686
 O1789 O 0.52819 0.92686 0.59670
 O1790 O 0.53014 0.90221 0.61953
 C1791 C 0.53605 0.91940 0.61275
 C1792 C 0.55257 0.93063 0.62322
 C1793 C 0.56193 0.92260 0.64076
 H1794 H 0.55665 0.90832 0.64726
 O1795 O 0.47896 1.07168 0.60547
 O1796 O 0.47808 1.09487 0.62958
 C1797 C 0.47174 1.07814 0.62207
 C1798 C 0.45522 1.06635 0.63207
 C1799 C 0.44550 1.07376 0.64957
 H1800 H 0.45057 1.08793 0.65634
 O1801 O 0.40186 1.01486 0.57401
 O1802 O 0.37854 1.01299 0.59781
 C1803 C 0.38545 1.02113 0.58165
 C1804 C 0.37502 1.03873 0.57208
 C1805 C 0.35842 1.04802 0.58162
 H1806 H 0.35239 1.04172 0.59560
 O1807 O 0.60226 0.98785 0.56879
 O1808 O 0.62687 0.98852 0.59149
 C1809 C 0.61927 0.98149 0.57518
 C1810 C 0.62992 0.96490 0.56443
 C1811 C 0.64748 0.95664 0.57310
 H1812 H 0.65405 0.96374 0.58642
 O1813 O 0.57873 0.90488 0.51199
 O1814 O 0.60348 0.88247 0.51089
 C1815 C 0.58671 0.88835 0.51811
 C1816 C 0.57674 0.87628 0.53431
 C1817 C 0.58435 0.85717 0.54019
 H1818 H 0.59727 0.85091 0.53234
 O1819 O 0.42675 1.09997 0.52209
 O1820 O 0.40219 1.12261 0.52240
 C1821 C 0.41880 1.11597 0.52940
 C1822 C 0.42812 1.12643 0.54701
 C1823 C 0.41879 1.14371 0.55512
 H1824 H 0.40612 1.15042 0.54709
 O1825 O 0.43170 0.97545 0.59976
 O1826 O 0.40839 0.97274 0.62351
 C1827 C 0.42514 0.96715 0.61589
 C1828 C 0.43695 0.95053 0.62553
 C1829 C 0.42996 0.94088 0.64328
 H1830 H 0.41589 0.94577 0.65002
 O1831 O 0.57402 1.02482 0.59983
 O1832 O 0.59878 1.02512 0.62237
 C1833 C 0.58164 1.03144 0.61630
 C1834 C 0.57105 1.04738 0.62807
 C1835 C 0.58008 1.05556 0.64555
 H1836 H 0.59377 1.04866 0.65139
 O1837 O 0.48846 0.89861 0.56897
 O1838 O 0.49033 0.87413 0.59201
 C1839 C 0.48229 0.88163 0.57610
 C1840 C 0.46494 0.87088 0.56650
 C1841 C 0.45649 0.85374 0.57611
 H1842 H 0.46353 0.84769 0.58974
 O1843 O 0.51614 1.10201 0.57680
 O1844 O 0.51544 1.12558 0.60058
 C1845 C 0.52224 1.11899 0.58377
 C1846 C 0.53764 1.13100 0.57242
 C1847 C 0.54383 1.15023 0.57945
 H1848 H 0.53716 1.15632 0.59313
 O1849 O 0.40476 0.92330 0.51802
 O1850 O 0.38215 0.89842 0.51720
 C1851 C 0.38867 0.91503 0.52474
 C1852 C 0.37789 0.92433 0.54204
 C1853 C 0.36049 0.91491 0.54996
 H1854 H 0.35420 0.90166 0.54241
 O1855 O 0.59583 1.08169 0.51829
 O1856 O 0.61785 1.10713 0.51862
 C1857 C 0.61195 1.08984 0.52510
 C1858 C 0.62364 1.07960 0.54128
 C1859 C 0.64160 1.08848 0.54847
 H1860 H 0.64755 1.10202 0.54106
 O1861 O 0.51856 1.07483 0.60515
 O1862 O 0.51817 1.09808 0.62921
 C1863 C 0.52592 1.08226 0.62139
 C1864 C 0.54414 1.07268 0.63057
 C1865 C 0.55390 1.08124 0.64764
 H1866 H 0.54778 1.09484 0.65451
 O1867 O 0.48867 0.92588 0.59712
 O1868 O 0.49058 0.90138 0.62014
 C1869 C 0.48258 0.91775 0.61355
 C1870 C 0.46538 0.92682 0.62459
 C1871 C 0.45844 0.91777 0.64262
 H1872 H 0.46681 0.90523 0.64927
 O1873 O 0.60092 1.02768 0.57118
 O1874 O 0.62561 1.02826 0.59380
 C1875 C 0.61729 1.03540 0.57791
 C1876 C 0.62630 1.05324 0.56739
 C1877 C 0.64413 1.06257 0.57469
 H1878 H 0.65167 1.05643 0.58799
 O1879 O 0.40255 0.97485 0.57336
 O1880 O 0.37908 0.97274 0.59698
 C1881 C 0.38647 0.96667 0.58034
 C1882 C 0.37678 0.94942 0.56936
 C1883 C 0.35951 0.93951 0.57729
 H1884 H 0.35289 0.94488 0.59128
 O1885 O 0.56651 1.10781 0.51985
 O1886 O 0.58859 1.13318 0.52011
 C1887 C 0.57284 1.12458 0.52725
 C1888 C 0.56219 1.13384 0.54475
 C1889 C 0.56807 1.15314 0.55205
 H1890 H 0.57975 1.16174 0.54422
 O1891 O 0.43349 0.89666 0.51711
 O1892 O 0.41092 0.87175 0.51659
 C1893 C 0.42696 0.87967 0.52391
 C1894 C 0.43776 0.86968 0.54113
 C1895 C 0.42943 0.85250 0.55116
 H1896 H 0.41536 0.84583 0.54581
 O1897 O 0.57662 0.98499 0.59809
 O1898 O 0.60131 0.98546 0.62073
 C1899 C 0.58510 0.97761 0.61380
 C1900 C 0.57649 0.95921 0.62363
 C1901 C 0.58577 0.95087 0.64092
 H1902 H 0.59869 0.95853 0.64773
 O1903 O 0.42889 1.01508 0.60258
 O1904 O 0.40559 1.01241 0.62634
 C1905 C 0.42151 1.02081 0.61943
 C1906 C 0.43086 1.03809 0.63065
 C1907 C 0.42166 1.04550 0.64827
 H1908 H 0.40868 1.03748 0.65447
 O1909 O 0.47695 1.10070 0.57870
 O1910 O 0.47596 1.12404 0.60267
 C1911 C 0.46924 1.11674 0.58611
 C1912 C 0.45208 1.12659 0.57534
 C1913 C 0.44202 1.14354 0.58365
 H1914 H 0.44693 1.14962 0.59812
 O1915 O 0.52794 0.90044 0.56731
 O1916 O 0.52974 0.87571 0.59009
 C1917 C 0.53561 0.88380 0.57353
 C1918 C 0.55185 0.87412 0.56158
 C1919 C 0.55964 0.85501 0.56725
 H1920 H 0.55307 0.84681 0.57996
 O1921 O 0.60452 0.93465 0.51370
 O1922 O 0.62935 0.91232 0.51316
 C1923 C 0.62115 0.92802 0.52078
 C1924 C 0.63068 0.93835 0.53844
 C1925 C 0.64791 0.92992 0.54788
 H1926 H 0.65433 0.91596 0.54207
 O1927 O 0.40096 1.06999 0.52159
 O1928 O 0.37663 1.09288 0.52234
 C1929 C 0.38453 1.07652 0.52901
 C1930 C 0.37489 1.06574 0.54627
 C1931 C 0.35845 1.07472 0.55604
 H1932 H 0.35214 1.08882 0.55017
 Cu1933 Cu 0.50827 0.91543 0.58023
 Cu1934 Cu 0.51043 0.88590 0.60774
 Cu1935 Cu 0.49767 1.08490 0.58927
 Cu1936 Cu 0.49689 1.11291 0.61799
 Cu1937 Cu 0.42131 0.91323 0.49777
 Cu1938 Cu 0.39418 0.88340 0.49683
 Cu1939 Cu 0.58927 0.92298 0.49309
 Cu1940 Cu 0.61923 0.89636 0.49208
 Cu1941 Cu 0.41601 1.08326 0.50179
 Cu1942 Cu 0.38657 1.11051 0.50274
 Cu1943 Cu 0.57849 1.09291 0.49918
 Cu1944 Cu 0.60510 1.12330 0.49966
 Cu1945 Cu 0.41851 0.99527 0.58503
 Cu1946 Cu 0.39054 0.99243 0.61349
 Cu1947 Cu 0.58595 1.00641 0.58220
 Cu1948 Cu 0.61562 1.00693 0.60936
 C1949 C 0.55984 0.94907 0.61496
 H1950 H 0.55288 0.95526 0.60136
 C1951 C 0.57866 0.93261 0.64954
 C1952 C 0.44778 1.04845 0.62284
 H1953 H 0.45472 1.04296 0.60905
 C1954 C 0.42847 1.06354 0.65760
 C1955 C 0.38303 1.04765 0.55428
 H1956 H 0.39606 1.04092 0.54704
 C1957 C 0.35036 1.06622 0.57378
 C1958 C 0.62172 0.95581 0.54693
 H1959 H 0.60802 0.96197 0.54028
 C1960 C 0.65621 0.93882 0.56544
 C1961 C 0.56034 0.88450 0.54494
 H1962 H 0.55463 0.89940 0.54069
 C1963 C 0.57590 0.84642 0.55663
 C1964 C 0.44494 1.11817 0.55703
 H1965 H 0.45209 1.10474 0.55084
 C1966 C 0.42513 1.15208 0.57369
 C1967 C 0.45472 0.94341 0.61632
 H1968 H 0.45991 0.95035 0.60230
 C1969 C 0.44060 0.92445 0.65192
 C1970 C 0.55291 1.05578 0.62094
 H1971 H 0.54596 1.04955 0.60737
 C1972 C 0.57210 1.07289 0.65516
 C1973 C 0.45559 0.87865 0.54893
 H1974 H 0.46187 0.89215 0.54170
 C1975 C 0.43858 0.84470 0.56891
 C1976 C 0.54681 1.12298 0.55494
 H1977 H 0.54235 1.10801 0.54958
 C1978 C 0.55895 1.16148 0.56936
 C1979 C 0.38576 0.94174 0.55167
 H1980 H 0.39932 0.94893 0.54575
 C1981 C 0.35134 0.92211 0.56776
 C1982 C 0.61624 1.06185 0.55062
 H1983 H 0.60223 1.05510 0.54521
 C1984 C 0.65178 1.08035 0.56535
 O1985 O 0.49010 0.42540 0.90314
 O1986 O 0.49276 0.40127 0.88009
 C1987 C 0.48449 0.41746 0.88644
 C1988 C 0.46768 0.42657 0.87458
 C1989 C 0.46148 0.41767 0.85619
 H1990 H 0.46984 0.40493 0.85011
 O1991 O 0.52222 0.57202 0.89925
 O1992 O 0.52277 0.59541 0.87508
 C1993 C 0.53030 0.57959 0.88339
 C1994 C 0.54913 0.57036 0.87520
 C1995 C 0.55896 0.57883 0.85807
 H1996 H 0.55244 0.59181 0.85023
 O1997 O 0.40245 0.47315 0.92242
 O1998 O 0.38046 0.47083 0.89727
 C1999 C 0.38703 0.46466 0.91439
 C2000 C 0.37716 0.44706 0.92491
 C2001 C 0.36004 0.43724 0.91650
 H2002 H 0.35359 0.44282 0.90240
 O2003 O 0.60598 0.52427 0.93680
 O2004 O 0.63074 0.52573 0.91450
 C2005 C 0.62214 0.53254 0.93032
 C2006 C 0.63032 0.55084 0.94081
 C2007 C 0.64773 0.56093 0.93358
 H2008 H 0.65563 0.55487 0.92058
 O2009 O 0.43228 0.39513 0.98105
 O2010 O 0.41081 0.36925 0.97988
 C2011 C 0.42703 0.37788 0.97395
 C2012 C 0.43955 0.36803 0.95820
 C2013 C 0.43370 0.34911 0.95005
 H2014 H 0.42050 0.34124 0.95597
 O2015 O 0.56695 0.60454 0.98493
 O2016 O 0.58858 0.63027 0.98603
 C2017 C 0.57343 0.62144 0.97793
 C2018 C 0.56410 0.63048 0.95953
 C2019 C 0.57308 0.64768 0.95051
 H2020 H 0.58595 0.65502 0.95773
 O2021 O 0.42939 0.51439 0.89519
 O2022 O 0.40760 0.51230 0.86985
 C2023 C 0.42314 0.52050 0.87791
 C2024 C 0.43398 0.53754 0.86744
 C2025 C 0.42783 0.54462 0.84810
 H2026 H 0.41530 0.53728 0.84034
 O2027 O 0.58146 0.48308 0.90813
 O2028 O 0.60602 0.48425 0.88557
 C2029 C 0.58952 0.47652 0.89199
 C2030 C 0.57997 0.45927 0.88105
 C2031 C 0.58860 0.45176 0.86317
 H2032 H 0.60154 0.45957 0.85667
 O2033 O 0.52966 0.40020 0.93401
 O2034 O 0.53190 0.37625 0.91074
 C2035 C 0.53777 0.38400 0.92740
 C2036 C 0.55489 0.37450 0.93848
 C2037 C 0.56469 0.35768 0.93003
 H2038 H 0.55869 0.35085 0.91630
 O2039 O 0.47884 0.59753 0.92316
 O2040 O 0.47900 0.62096 0.89901
 C2041 C 0.47128 0.61343 0.91508
 C2042 C 0.45291 0.62269 0.92417
 C2043 C 0.44352 0.63979 0.91513
 H2044 H 0.45001 0.64681 0.90171
 O2045 O 0.39474 0.56643 0.97386
 O2046 O 0.37027 0.58913 0.97217
 C2047 C 0.37831 0.57274 0.96599
 C2048 C 0.36901 0.56123 0.94898
 C2049 C 0.35032 0.56707 0.94058
 H2050 H 0.34196 0.57937 0.94748
 O2051 O 0.60775 0.43185 0.99036
 O2052 O 0.63199 0.40898 0.99290
 C2053 C 0.62473 0.42496 0.98469
 C2054 C 0.63552 0.43486 0.96752
 C2055 C 0.65236 0.42537 0.95885
 H2056 H 0.65849 0.41182 0.96601
 O2057 O 0.48248 0.56886 0.89656
 O2058 O 0.48298 0.59219 0.87232
 C2059 C 0.47623 0.57544 0.87949
 C2060 C 0.46034 0.56399 0.86823
 C2061 C 0.45409 0.57067 0.84895
 H2062 H 0.46145 0.58379 0.84209
 O2063 O 0.52969 0.42767 0.90554
 O2064 O 0.53208 0.40360 0.88239
 C2065 C 0.53790 0.42057 0.88967
 C2066 C 0.55482 0.43182 0.87998
 C2067 C 0.56392 0.42428 0.86231
 H2068 H 0.55822 0.41033 0.85557
 O2069 O 0.60899 0.48408 0.93617
 O2070 O 0.63362 0.48533 0.91373
 C2071 C 0.62590 0.47762 0.92965
 C2072 C 0.63608 0.46036 0.94025
 C2073 C 0.65278 0.45030 0.93150
 H2074 H 0.65881 0.45566 0.91715
 O2075 O 0.40048 0.51301 0.92175
 O2076 O 0.37847 0.51093 0.89659
 C2077 C 0.38414 0.51871 0.91334
 C2078 C 0.37201 0.53491 0.92301
 C2079 C 0.35347 0.54113 0.91462
 H2080 H 0.34789 0.53381 0.90098
 O2081 O 0.42264 0.59443 0.97413
 O2082 O 0.39819 0.61713 0.97229
 C2083 C 0.41512 0.61040 0.96620
 C2084 C 0.42564 0.62096 0.94925
 C2085 C 0.41662 0.63795 0.94001
 H2086 H 0.40259 0.64386 0.94601
 O2087 O 0.58132 0.40265 0.98923
 O2088 O 0.60554 0.37974 0.99150
 C2089 C 0.58949 0.38630 0.98307
 C2090 C 0.58049 0.37546 0.96541
 C2091 C 0.59033 0.35870 0.95643
 H2092 H 0.60438 0.35307 0.96279
 O2093 O 0.58002 0.52272 0.90720
 O2094 O 0.60484 0.52388 0.88493
 C2095 C 0.58768 0.52998 0.89099
 C2096 C 0.57702 0.54612 0.87926
 C2097 C 0.58635 0.55469 0.86212
 H2098 H 0.60071 0.54872 0.85703
 O2099 O 0.43264 0.47484 0.89762
 O2100 O 0.41085 0.47246 0.87227
 C2101 C 0.42717 0.46689 0.88094
 C2102 C 0.43960 0.45057 0.87191
 C2103 C 0.43357 0.44133 0.85365
 H2104 H 0.41999 0.44651 0.84599
 O2105 O 0.51821 0.59994 0.92656
 O2106 O 0.51857 0.62340 0.90243
 C2107 C 0.52477 0.61681 0.91953
 C2108 C 0.54045 0.62836 0.93092
 C2109 C 0.54968 0.64572 0.92220
 H2110 H 0.54471 0.65131 0.90750
 O2111 O 0.49010 0.39808 0.93182
 O2112 O 0.49262 0.37404 0.90866
 C2113 C 0.48442 0.38105 0.92456
 C2114 C 0.46765 0.36956 0.93420
 C2115 C 0.46156 0.35060 0.92632
 H2116 H 0.46959 0.34414 0.91358
 O2117 O 0.59701 0.57935 0.98754
 O2118 O 0.61858 0.60515 0.98848
 C2119 C 0.61329 0.58784 0.98156
 C2120 C 0.62584 0.57786 0.96588
 C2121 C 0.64349 0.58746 0.95872
 H2122 H 0.64859 0.60150 0.96572
 O2123 O 0.40293 0.42109 0.97837
 O2124 O 0.38144 0.39524 0.97719
 C2125 C 0.38772 0.41233 0.97033
 C2126 C 0.37760 0.42168 0.95239
 C2127 C 0.36045 0.41232 0.94387
 H2128 H 0.35395 0.39902 0.95126
 Cu2129 Cu 0.50963 0.41529 0.92094
 Cu2130 Cu 0.51256 0.38637 0.89318
 Cu2131 Cu 0.50041 0.58223 0.91373
 Cu2132 Cu 0.50085 0.61028 0.88476
 Cu2133 Cu 0.41836 0.49413 0.91176
 Cu2134 Cu 0.39214 0.49142 0.88147
 Cu2135 Cu 0.59179 0.50340 0.92445
 Cu2136 Cu 0.62134 0.50494 0.89753
 C2137 C 0.45676 0.44316 0.88221
 H2138 H 0.46124 0.44988 0.89656
 C2139 C 0.44434 0.42479 0.84573
 C2140 C 0.55834 0.55394 0.88562
 H2141 H 0.55124 0.54760 0.89906
 C2142 C 0.57777 0.57122 0.85165
 C2143 C 0.38572 0.43917 0.94294
 H2144 H 0.39911 0.44630 0.94932
 C2145 C 0.35166 0.41973 0.92584
 C2146 C 0.61956 0.55941 0.95704
 H2147 H 0.60583 0.55207 0.96236
 C2148 C 0.65442 0.57933 0.94240
 C2149 C 0.45669 0.37806 0.95030
 H2150 H 0.46111 0.39282 0.95624
 C2151 C 0.44458 0.34033 0.93407
 C2152 C 0.54769 0.62095 0.94970
 H2153 H 0.54103 0.60732 0.95631
 C2154 C 0.56622 0.65517 0.93179
 C2155 C 0.45035 0.54729 0.87724
 H2156 H 0.45499 0.54223 0.89223
 C2157 C 0.43797 0.56111 0.83868
 C2158 C 0.56288 0.44939 0.88916
 H2159 H 0.55624 0.45499 0.90306
 C2160 C 0.58085 0.43412 0.85377
 C2161 C 0.56274 0.38315 0.95630
 H2162 H 0.55536 0.39635 0.96269
 C2163 C 0.58263 0.34999 0.93847
 C2164 C 0.44385 0.61349 0.94131
 H2165 H 0.45068 0.60013 0.94819
 C2166 C 0.42519 0.64730 0.92286
 C2167 C 0.37954 0.54495 0.94025
 H2168 H 0.39403 0.54049 0.94656
 C2169 C 0.34239 0.55714 0.92333
 C2170 C 0.62769 0.45248 0.95827
 H2171 H 0.61450 0.45967 0.96475
 C2172 C 0.66082 0.43252 0.94056
 O2173 O 0.51786 0.43022 1.10670
 O2174 O 0.51792 0.40655 1.13063
 C2175 C 0.52454 0.42333 1.12352
 C2176 C 0.54090 0.43452 1.13427
 C2177 C 0.54995 0.42637 1.15194
 H2178 H 0.54429 0.41229 1.15857
 O2179 O 0.46833 0.57133 1.10125
 O2180 O 0.46532 0.59566 1.12403
 C2181 C 0.45973 0.57857 1.11688
 C2182 C 0.44270 0.56727 1.12646
 C2183 C 0.43293 0.57509 1.14371
 H2184 H 0.43811 0.58935 1.15019
 O2185 O 0.39220 0.51378 1.06860
 O2186 O 0.36741 0.51326 1.09092
 C2187 C 0.37545 0.52059 1.07491
 C2188 C 0.36574 0.53778 1.06398
 C2189 C 0.34883 0.54751 1.07233
 H2190 H 0.34270 0.54207 1.08661
 O2191 O 0.59825 0.48792 1.08161
 O2192 O 0.62035 0.48998 1.10671
 C2193 C 0.61459 0.48213 1.09003
 C2194 C 0.62653 0.46543 1.08088
 C2195 C 0.64410 0.45836 1.09060
 H2196 H 0.64973 0.46622 1.10392
 O2197 O 0.57816 0.40376 1.02875
 O2198 O 0.60229 0.38077 1.03123
 C2199 C 0.58522 0.38759 1.03674
 C2200 C 0.57375 0.37708 1.05308
 C2201 C 0.58131 0.35916 1.06217
 H2202 H 0.59529 0.35256 1.05680
 O2203 O 0.41986 0.59642 1.01380
 O2204 O 0.39582 0.61956 1.01188
 C2205 C 0.41206 0.61300 1.01988
 C2206 C 0.42180 0.62428 1.03681
 C2207 C 0.41550 0.64408 1.04215
 H2208 H 0.40375 0.65164 1.03346
 O2209 O 0.41935 0.47526 1.09841
 O2210 O 0.39445 0.47387 1.12058
 C2211 C 0.41164 0.46785 1.11447
 C2212 C 0.42273 0.45181 1.12579
 C2213 C 0.41392 0.44192 1.14261
 H2214 H 0.39884 0.44609 1.14734
 O2215 O 0.56639 0.52585 1.10718
 O2216 O 0.58840 0.52784 1.13237
 C2217 C 0.57193 0.53341 1.12407
 C2218 C 0.55932 0.54926 1.13378
 C2219 C 0.56524 0.55819 1.15228
 H2220 H 0.57866 0.55276 1.16004
 O2221 O 0.48123 0.40026 1.07671
 O2222 O 0.48121 0.37663 1.10069
 C2223 C 0.47481 0.38331 1.08371
 C2224 C 0.45944 0.37143 1.07225
 C2225 C 0.45347 0.35201 1.07911
 H2226 H 0.46031 0.34575 1.09273
 O2227 O 0.50861 0.60088 1.07550
 O2228 O 0.50563 0.62494 1.09859
 C2229 C 0.51419 0.61793 1.08288
 C2230 C 0.53132 0.62939 1.07371
 C2231 C 0.53867 0.64716 1.08311
 H2232 H 0.53093 0.65308 1.09628
 O2233 O 0.39930 0.42057 1.01795
 O2234 O 0.37782 0.39472 1.01677
 C2235 C 0.38302 0.41198 1.02382
 C2236 C 0.37035 0.42202 1.03936
 C2237 C 0.35160 0.41368 1.04525
 H2238 H 0.34623 0.39983 1.03806
 O2239 O 0.59468 0.58003 1.02692
 O2240 O 0.61632 0.60579 1.02775
 C2241 C 0.61011 0.58874 1.03461
 C2242 C 0.62042 0.57939 1.05226
 C2243 C 0.63721 0.58901 1.06122
 H2244 H 0.64353 0.60260 1.05423
 O2245 O 0.50803 0.57320 1.10369
 O2246 O 0.50491 0.59735 1.12664
 C2247 C 0.51346 0.58127 1.12035
 C2248 C 0.53051 0.57244 1.13205
 C2249 C 0.53668 0.58119 1.15050
 H2250 H 0.52837 0.59399 1.15655
 O2251 O 0.47820 0.42858 1.10382
 O2252 O 0.47835 0.40493 1.12777
 C2253 C 0.47070 0.42085 1.11986
 C2254 C 0.45215 0.42958 1.12878
 C2255 C 0.44350 0.42048 1.14600
 H2256 H 0.45170 0.40857 1.15389
 O2257 O 0.59569 0.52776 1.08114
 O2258 O 0.61772 0.52981 1.10631
 C2259 C 0.61107 0.53610 1.08930
 C2260 C 0.62083 0.55373 1.07919
 C2261 C 0.63743 0.56373 1.08819
 H2262 H 0.64346 0.55812 1.10246
 O2263 O 0.39231 0.47386 1.06984
 O2264 O 0.36721 0.47304 1.09179
 C2265 C 0.37564 0.46622 1.07594
 C2266 C 0.36659 0.44874 1.06481
 C2267 C 0.34774 0.44032 1.07040
 H2268 H 0.33906 0.44751 1.08227
 O2269 O 0.56492 0.60544 1.02491
 O2270 O 0.58658 0.63114 1.02593
 C2271 C 0.57055 0.62246 1.03228
 C2272 C 0.55885 0.63175 1.04905
 C2273 C 0.56609 0.64940 1.05890
 H2274 H 0.57994 0.65663 1.05375
 O2275 O 0.42987 0.39589 1.02062
 O2276 O 0.40850 0.36994 1.01944
 C2277 C 0.42383 0.37869 1.02734
 C2278 C 0.43453 0.36907 1.04477
 C2279 C 0.42892 0.34952 1.05178
 H2280 H 0.41724 0.34104 1.04383
 O2281 O 0.56884 0.48621 1.10730
 O2282 O 0.59097 0.48817 1.13240
 C2283 C 0.57555 0.47986 1.12425
 C2284 C 0.56592 0.46213 1.13428
 C2285 C 0.57480 0.45371 1.15170
 H2286 H 0.58810 0.46083 1.15835
 O2287 O 0.41734 0.51491 1.09865
 O2288 O 0.39264 0.51372 1.12105
 C2289 C 0.40909 0.52155 1.11471
 C2290 C 0.41822 0.53915 1.12556
 C2291 C 0.40899 0.54694 1.14304
 H2292 H 0.39607 0.53899 1.14943
 O2293 O 0.46937 0.59787 1.07174
 O2294 O 0.46664 0.62225 1.09453
 C2295 C 0.46146 0.61440 1.07766
 C2296 C 0.44600 0.62464 1.06499
 C2297 C 0.43967 0.64432 1.06994
 H2298 H 0.44630 0.65194 1.08295
 O2299 O 0.52069 0.40290 1.07861
 O2300 O 0.52043 0.37927 1.10258
 C2301 C 0.52796 0.38676 1.08644
 C2302 C 0.54576 0.37684 1.07725
 C2303 C 0.55355 0.35900 1.08605
 H2304 H 0.54587 0.35197 1.09883
 O2305 O 0.60486 0.43282 1.02999
 O2306 O 0.62912 0.41000 1.03274
 C2307 C 0.62087 0.42644 1.03860
 C2308 C 0.62950 0.43796 1.05601
 C2309 C 0.64685 0.43091 1.06623
 H2310 H 0.65419 0.41715 1.06108
 O2311 O 0.39404 0.56647 1.01354
 O2312 O 0.36993 0.58956 1.01187
 C2313 C 0.37724 0.57341 1.01968
 C2314 C 0.36654 0.56331 1.03677
 C2315 C 0.34924 0.57234 1.04498
 H2316 H 0.34282 0.58562 1.03758
 Cu2317 Cu 0.49950 0.41794 1.08912
 Cu2318 Cu 0.49944 0.38952 1.11785
 Cu2319 Cu 0.48883 0.58331 1.08583
 Cu2320 Cu 0.48523 0.61242 1.11327
 Cu2321 Cu 0.41821 0.41076 0.99969
 Cu2322 Cu 0.39248 0.37972 0.99821
 Cu2323 Cu 0.59061 0.42004 1.00935
 Cu2324 Cu 0.61970 0.39262 1.01242
 Cu2325 Cu 0.41025 0.57866 0.99402
 Cu2326 Cu 0.38114 0.60613 0.99187
 Cu2327 Cu 0.57863 0.58982 1.00599
 Cu2328 Cu 0.60457 0.62077 1.00708
 Cu2329 Cu 0.40773 0.49446 1.08163
 Cu2330 Cu 0.37789 0.49333 1.10827
 Cu2331 Cu 0.58011 0.50683 1.09174
 Cu2332 Cu 0.60660 0.50916 1.12196
 C2333 C 0.54890 0.45254 1.12571
 H2334 H 0.54229 0.45876 1.11195
 C2335 C 0.56710 0.43582 1.16047
 C2336 C 0.43525 0.54925 1.11758
 H2337 H 0.44233 0.54344 1.10399
 C2338 C 0.41597 0.56508 1.15210
 C2339 C 0.37453 0.54582 1.04619
 H2340 H 0.38800 0.53886 1.04004
 C2341 C 0.34058 0.56496 1.06306
 C2342 C 0.61951 0.45530 1.06343
 H2343 H 0.60581 0.46052 1.05600
 C2344 C 0.65423 0.44095 1.08363
 C2345 C 0.55585 0.38571 1.06065
 H2346 H 0.55011 0.39971 1.05405
 C2347 C 0.57135 0.35018 1.07879
 C2348 C 0.43719 0.61481 1.04825
 H2349 H 0.44195 0.59950 1.04448
 C2350 C 0.42468 0.65429 1.05856
 C2351 C 0.44183 0.44548 1.11897
 H2352 H 0.44842 0.45250 1.10559
 C2353 C 0.42415 0.42604 1.15273
 C2354 C 0.54180 0.55635 1.12394
 H2355 H 0.53733 0.54980 1.10952
 C2356 C 0.55404 0.57424 1.16074
 C2357 C 0.44997 0.37979 1.05500
 H2358 H 0.45427 0.39493 1.04985
 C2359 C 0.43830 0.34084 1.06899
 C2360 C 0.54140 0.62191 1.05656
 H2361 H 0.53601 0.60803 1.04944
 C2362 C 0.55623 0.65708 1.07613
 C2363 C 0.37756 0.43960 1.04912
 H2364 H 0.39217 0.44585 1.04490
 C2365 C 0.34004 0.42272 1.06072
 C2366 C 0.61255 0.56159 1.06115
 H2367 H 0.59945 0.55423 1.05440
 C2368 C 0.64570 0.58144 1.07933
 C2369 C 1.11596 1.10962 1.25497
 C2370 C 1.10623 1.10320 1.23716
 C2371 C 1.10011 1.11780 1.22251
 C2372 C 1.10358 1.13860 1.22611
 C2373 C 1.11307 1.14488 1.24403
 C2374 C 1.11943 1.13045 1.25853
 C2375 C 1.09068 1.11137 1.20453
 C2376 C 1.08726 1.09053 1.20105
 C2377 C 1.09310 1.07597 1.21586
 C2378 C 1.10254 1.08240 1.23381
 C2379 C 1.08962 1.05517 1.21236
 C2380 C 1.08085 1.04878 1.19416
 C2381 C 1.07537 1.06307 1.17915
 C2382 C 1.07838 1.08397 1.18283
 H2383 H 1.12050 1.09838 1.26620
 H2384 H 1.09896 1.15000 1.21507
 H2385 H 1.11565 1.16102 1.24641
 H2386 H 1.08613 1.12254 1.19321
 H2387 H 1.10715 1.07122 1.24510
 H2388 H 1.09391 1.04383 1.22360
 H2389 H 1.07844 1.03261 1.19173
 H2390 H 1.07445 1.09509 1.17124
 C2391 C 1.12708 0.60377 0.75152
 C2392 C 1.11620 0.59543 0.73516
 C2393 C 1.09508 0.59862 0.73362
 C2394 C 1.08524 0.61021 0.74838
 C2395 C 1.09629 0.61907 0.76417
 C2396 C 1.11724 0.61599 0.76581
 C2397 C 1.08423 0.59067 0.71709
 C2398 C 1.09432 0.58019 0.70166
 C2399 C 1.11547 0.57727 0.70305
 C2400 C 1.12622 0.58460 0.71993
 C2401 C 1.12561 0.56739 0.68731
 C2402 C 1.11496 0.56063 0.67026
 C2403 C 1.09386 0.56320 0.66875
 C2404 C 1.08364 0.57294 0.68466
 H2405 H 1.14331 0.60164 0.75259
 H2406 H 1.06909 0.61287 0.74742
 H2407 H 1.08849 0.62845 0.77511
 H2408 H 1.06803 0.59311 0.71595
 H2409 H 1.14245 0.58234 0.72096
 H2410 H 1.14184 0.56520 0.68801
 H2411 H 1.12339 0.55366 0.65808
 H2412 H 1.06738 0.57488 0.68387
 C2413 C 0.61964 1.12218 0.75445
 C2414 C 0.60826 1.11529 0.73777
 C2415 C 0.58708 1.11805 0.73735
 C2416 C 0.57780 1.12856 0.75327
 C2417 C 0.58935 1.13606 0.76952
 C2418 C 0.61038 1.13263 0.77058
 C2419 C 0.57560 1.11032 0.72102
 C2420 C 0.58517 1.10042 0.70480
 C2421 C 0.60649 1.09865 0.70487
 C2422 C 0.61784 1.10581 0.72142
 C2423 C 0.61623 1.08975 0.68836
 C2424 C 0.60501 1.08214 0.67210
 C2425 C 0.58368 1.08264 0.67216
 C2426 C 0.57386 1.09221 0.68853
 H2427 H 0.63584 1.11981 0.75444
 H2428 H 0.56160 1.13103 0.75315
 H2429 H 0.58154 1.14394 0.78154
 H2430 H 0.55929 1.11209 0.72089
 H2431 H 0.63416 1.10405 0.72154
 H2432 H 0.63259 1.08869 0.68797
 H2433 H 0.61319 1.07584 0.65941
 H2434 H 0.55749 1.09290 0.68887
 C2435 C 0.60736 0.62828 1.25434
 C2436 C 0.60072 0.61885 1.23633
 C2437 C 0.61508 0.61234 1.22187
 C2438 C 0.63576 0.61532 1.22565
 C2439 C 0.64222 0.62411 1.24382
 C2440 C 0.62815 0.63054 1.25833
 C2441 C 0.60861 0.60258 1.20407
 C2442 C 0.58798 0.59875 1.20070
 C2443 C 0.57360 0.60506 1.21519
 C2444 C 0.58004 0.61525 1.23281
 C2445 C 0.55302 0.60093 1.21185
 C2446 C 0.54673 0.59069 1.19433
 C2447 C 0.56088 0.58446 1.17973
 C2448 C 0.58153 0.58859 1.18308
 H2449 H 0.59645 0.63299 1.26562
 H2450 H 0.64696 0.61043 1.21475
 H2451 H 0.65831 0.62581 1.24660
 H2452 H 0.61966 0.59764 1.19302
 H2453 H 0.56899 0.62006 1.24393
 H2454 H 0.54178 0.60556 1.22282
 H2455 H 0.53076 0.58752 1.19227
 H2456 H 0.59259 0.58420 1.17183
 C2457 C 0.88577 0.87638 1.25716
 C2458 C 0.89228 0.88697 1.23972
 C2459 C 0.88915 0.90823 1.23806
 C2460 C 0.87894 0.91842 1.25356
 C2461 C 0.87183 0.90768 1.27051
 C2462 C 0.87528 0.88654 1.27270
 C2463 C 0.89614 0.91894 1.22089
 C2464 C 0.90570 0.90852 1.20503
 C2465 C 0.90805 0.88711 1.20639
 C2466 C 0.90160 0.87653 1.22379
 C2467 C 0.91679 0.87656 1.19026
 C2468 C 0.92356 0.88710 1.17312
 C2469 C 0.92225 0.90853 1.17184
 C2470 C 0.91297 0.91912 1.18785
 H2471 H 0.88830 0.86009 1.25816
 H2472 H 0.87631 0.93470 1.25253
 H2473 H 0.86408 0.91622 1.28210
 H2474 H 0.89401 0.93531 1.21980
 H2475 H 0.90370 0.86015 1.22486
 H2476 H 0.91836 0.86011 1.19088
 H2477 H 0.92985 0.87832 1.16081
 H2478 H 0.91177 0.93560 1.18719
 C2479 C 0.88616 0.38627 0.75824
 C2480 C 0.89680 0.39220 0.74071
 C2481 C 0.91809 0.39044 0.74018
 C2482 C 0.92834 0.38249 0.75705
 C2483 C 0.91768 0.37646 0.77436
 C2484 C 0.89643 0.37835 0.77535
 C2485 C 0.92882 0.39679 0.72287
 C2486 C 0.91849 0.40491 0.70604
 C2487 C 0.89714 0.40632 0.70646
 C2488 C 0.88644 0.39993 0.72374
 C2489 C 0.88680 0.41435 0.68967
 C2490 C 0.89750 0.42141 0.67280
 C2491 C 0.91877 0.42063 0.67235
 C2492 C 0.92918 0.41198 0.68892
 H2493 H 0.86985 0.38774 0.75829
 H2494 H 0.94467 0.38101 0.75692
 H2495 H 0.92636 0.37061 0.78703
 H2496 H 0.94518 0.39559 0.72257
 H2497 H 0.87008 0.40118 0.72405
 H2498 H 0.87044 0.41540 0.68966
 H2499 H 0.88908 0.42759 0.66005
 H2500 H 0.94557 0.41135 0.68876
 C2501 C 0.39359 0.88305 0.75439
 C2502 C 0.40101 0.89336 0.73727
 C2503 C 0.39821 0.91468 0.73534
 C2504 C 0.38764 0.92521 0.75039
 C2505 C 0.37982 0.91470 0.76715
 C2506 C 0.38287 0.89361 0.76932
 C2507 C 0.40584 0.92504 0.71831
 C2508 C 0.41576 0.91427 0.70297
 C2509 C 0.41807 0.89288 0.70470
 C2510 C 0.41089 0.88260 0.72194
 C2511 C 0.42739 0.88206 0.68907
 C2512 C 0.43447 0.89232 0.67190
 C2513 C 0.43272 0.91366 0.67015
 C2514 C 0.42328 0.92452 0.68582
 H2515 H 0.39567 0.86670 0.75582
 H2516 H 0.38525 0.94152 0.74912
 H2517 H 0.37159 0.92310 0.77855
 H2518 H 0.40386 0.94142 0.71690
 H2519 H 0.41281 0.86622 0.72332
 H2520 H 0.42904 0.86563 0.69004
 H2521 H 0.44114 0.88344 0.65984
 H2522 H 0.42194 0.94098 0.68479
 C2523 C 0.37241 0.38020 1.25100
 C2524 C 0.37884 0.39087 1.23372
 C2525 C 0.37287 0.41132 1.23066
 C2526 C 0.35955 0.42033 1.24446
 C2527 C 0.35267 0.40936 1.26139
 C2528 C 0.35951 0.38935 1.26522
 C2529 C 0.38040 0.42237 1.21395
 C2530 C 0.39342 0.41297 1.20004
 C2531 C 0.39840 0.39215 1.20264
 C2532 C 0.39127 0.38132 1.21952
 C2533 C 0.41058 0.38246 1.18836
 C2534 C 0.41828 0.39338 1.17191
 C2535 C 0.41448 0.41441 1.16964
 C2536 C 0.40168 0.42404 1.18368
 H2537 H 0.37730 0.36457 1.25306
 H2538 H 0.35458 0.43592 1.24224
 H2539 H 0.34270 0.41696 1.27188
 H2540 H 0.37622 0.43822 1.21182
 H2541 H 0.39551 0.36547 1.22169
 H2542 H 0.41417 0.36641 1.18991
 H2543 H 0.42730 0.38524 1.16095
 H2544 H 0.39851 0.44018 1.18220
 C2545 C 0.88585 1.11755 0.75144
 C2546 C 0.89298 1.10739 0.76879
 C2547 C 0.87908 1.09768 0.78203
 C2548 C 0.85836 1.09788 0.77744
 C2549 C 0.85144 1.10773 0.75993
 C2550 C 0.86509 1.11776 0.74694
 C2551 C 0.88611 1.08796 0.79964
 C2552 C 0.90686 1.08761 0.80405
 C2553 C 0.92081 1.09687 0.79058
 C2554 C 0.91377 1.10679 0.77306
 C2555 C 0.94156 1.09619 0.79497
 C2556 C 0.94841 1.08674 0.81274
 C2557 C 0.93461 1.07790 0.82646
 C2558 C 0.91383 1.07831 0.82190
 H2559 H 0.89648 1.12500 0.74129
 H2560 H 0.84753 1.09045 0.78738
 H2561 H 0.83535 1.10779 0.75673
 H2562 H 0.87543 1.08071 0.80992
 H2563 H 0.92444 1.11408 0.76281
 H2564 H 0.95248 1.10307 0.78474
 H2565 H 0.96452 1.08637 0.81578
 H2566 H 0.90300 1.07189 0.83251
 C2567 C 0.88759 0.62102 0.24685
 C2568 C 0.89852 0.61510 0.26411
 C2569 C 0.91989 0.61431 0.26345
 C2570 C 0.92994 0.62020 0.24559
 C2571 C 0.91888 0.62647 0.22850
 C2572 C 0.89764 0.62658 0.22893
 C2573 C 0.93075 0.60748 0.28055
 C2574 C 0.92044 0.60156 0.29828
 C2575 C 0.89909 0.60309 0.29901
 C2576 C 0.88831 0.60982 0.28196
 C2577 C 0.88875 0.59752 0.31669
 C2578 C 0.89931 0.58971 0.33329
 C2579 C 0.92042 0.58721 0.33254
 C2580 C 0.93101 0.59367 0.31515
 H2581 H 0.87120 0.62150 0.24743
 H2582 H 0.94631 0.61985 0.24480
 H2583 H 0.92690 0.63080 0.21481
 H2584 H 0.94712 0.60652 0.27998
 H2585 H 0.87192 0.61066 0.28249
 H2586 H 0.87244 0.59886 0.31757
 H2587 H 0.89089 0.58533 0.34672
 H2588 H 0.94729 0.59184 0.31446
 C2589 C 0.37694 1.13179 0.25239
 C2590 C 0.38338 1.12017 0.26921
 C2591 C 0.37012 1.11698 0.28577
 C2592 C 0.35075 1.12550 0.28531
 C2593 C 0.34438 1.13676 0.26846
 C2594 C 0.35730 1.13989 0.25181
 C2595 C 0.37637 1.10530 0.30252
 C2596 C 0.39578 1.09684 0.30306
 C2597 C 0.40909 1.09999 0.28653
 C2598 C 0.40277 1.11154 0.26967
 C2599 C 0.42865 1.09185 0.28734
 C2600 C 0.43520 1.08131 0.30463
 C2601 C 0.42217 1.07837 0.32120
 C2602 C 0.40233 1.08579 0.32016
 H2603 H 0.38694 1.13396 0.23954
 H2604 H 0.34043 1.12328 0.29789
 H2605 H 0.32925 1.14301 0.26845
 H2606 H 0.36618 1.10295 0.31522
 H2607 H 0.41298 1.11396 0.25701
 H2608 H 0.43906 1.09410 0.27484
 H2609 H 0.45060 1.07577 0.30528
 H2610 H 0.39236 1.08384 0.33309
 C2611 C 0.38970 0.61368 0.74130
 C2612 C 0.39514 0.60319 0.75922
 C2613 C 0.37992 0.59642 0.77278
 C2614 C 0.35954 0.59997 0.76804
 C2615 C 0.35425 0.60990 0.74998
 C2616 C 0.36921 0.61689 0.73648
 C2617 C 0.38527 0.58616 0.79080
 C2618 C 0.40567 0.58229 0.79537
 C2619 C 0.42084 0.58866 0.78158
 C2620 C 0.41551 0.59913 0.76368
 C2621 C 0.44118 0.58461 0.78601
 C2622 C 0.44653 0.57494 0.80418
 C2623 C 0.43170 0.56912 0.81839
 C2624 C 0.41119 0.57249 0.81366
 H2625 H 0.40132 0.61879 0.73084
 H2626 H 0.34766 0.59487 0.77821
 H2627 H 0.33838 0.61227 0.74662
 H2628 H 0.37357 0.58119 0.80126
 H2629 H 0.42721 0.60412 0.75324
 H2630 H 0.45300 0.58919 0.77555
 H2631 H 0.46240 0.57225 0.80728
 H2632 H 0.39961 0.56821 0.82452
 C2633 C 1.11554 0.88597 0.74154
 C2634 C 1.10474 0.89251 0.75857
 C2635 C 1.08339 0.89365 0.75773
 C2636 C 1.07322 0.88802 0.73989
 C2637 C 1.08409 0.88148 0.72299
 C2638 C 1.10534 0.88048 0.72360
 C2639 C 1.07259 0.90052 0.77465
 C2640 C 1.08290 0.90641 0.79236
 C2641 C 1.10426 0.90508 0.79321
 C2642 C 1.11502 0.89807 0.77637
 C2643 C 1.11457 0.91107 0.81083
 C2644 C 1.10390 0.91871 0.82732
 C2645 C 1.08272 0.92046 0.82654
 C2646 C 1.07224 0.91395 0.80912
 H2647 H 1.13188 0.88502 0.74237
 H2648 H 1.05686 0.88878 0.73896
 H2649 H 1.07580 0.87748 0.70937
 H2650 H 1.05622 0.90151 0.77395
 H2651 H 1.13140 0.89716 0.77704
 H2652 H 1.13092 0.91007 0.81178
 H2653 H 1.11224 0.92333 0.84074
 H2654 H 1.05591 0.91534 0.80839
 C2655 C 1.10622 0.38084 0.24173
 C2656 C 1.09456 0.38681 0.25844
 C2657 C 1.07377 0.39117 0.25579
 C2658 C 1.06497 0.38921 0.23650
 C2659 C 1.07667 0.38323 0.21996
 C2660 C 1.09741 0.37915 0.22234
 C2661 C 1.06221 0.39767 0.27237
 C2662 C 1.07123 0.40015 0.29153
 C2663 C 1.09198 0.39551 0.29419
 C2664 C 1.10345 0.38873 0.27770
 C2665 C 1.10111 0.39827 0.31321
 C2666 C 1.09006 0.40635 0.32923
 C2667 C 1.06962 0.41162 0.32664
 C2668 C 1.06007 0.40790 0.30791
 H2669 H 1.12211 0.37737 0.24387
 H2670 H 1.04908 0.39249 0.23414
 H2671 H 1.06949 0.38215 0.20520
 H2672 H 1.04632 0.40120 0.27026
 H2673 H 1.11939 0.38538 0.27976
 H2674 H 1.11696 0.39475 0.31553
 H2675 H 1.09760 0.40892 0.34364
 H2676 H 1.04432 0.41197 0.30584
 C2677 C 0.61113 0.88055 0.24763
 C2678 C 0.60627 0.89208 0.26486
 C2679 C 0.62037 0.89371 0.28103
 C2680 C 0.63906 0.88383 0.27969
 C2681 C 0.64402 0.87300 0.26223
 C2682 C 0.63017 0.87136 0.24611
 C2683 C 0.61576 0.90551 0.29809
 C2684 C 0.59732 0.91590 0.29915
 C2685 C 0.58327 0.91441 0.28292
 C2686 C 0.58782 0.90248 0.26592
 C2687 C 0.56474 0.92462 0.28413
 C2688 C 0.55986 0.93559 0.30154
 C2689 C 0.57354 0.93681 0.31785
 C2690 C 0.59244 0.92732 0.31643
 H2691 H 0.60062 0.87968 0.23497
 H2692 H 0.65006 0.88497 0.29188
 H2693 H 0.65887 0.86618 0.26111
 H2694 H 0.62654 0.90664 0.31051
 H2695 H 0.57702 0.90132 0.25351
 H2696 H 0.55380 0.92367 0.27186
 H2697 H 0.54512 0.94265 0.30257
 H2698 H 0.60283 0.92792 0.32920
 C2699 C 0.61891 0.38559 0.75115
 C2700 C 0.60916 0.39282 0.76850
 C2701 C 0.58793 0.39081 0.77027
 C2702 C 0.57692 0.38104 0.75481
 C2703 C 0.58683 0.37360 0.73764
 C2704 C 0.60785 0.37610 0.73556
 C2705 C 0.57812 0.39864 0.78740
 C2706 C 0.58936 0.40818 0.80287
 C2707 C 0.61065 0.40964 0.80126
 C2708 C 0.62039 0.40207 0.78405
 C2709 C 0.62191 0.41867 0.81689
 C2710 C 0.61221 0.42638 0.83394
 C2711 C 0.59100 0.42554 0.83560
 C2712 C 0.57966 0.41630 0.81994
 H2713 H 0.63519 0.38722 0.74989
 H2714 H 0.56065 0.37924 0.75595
 H2715 H 0.57802 0.36632 0.72579
 H2716 H 0.56181 0.39731 0.78869
 H2717 H 0.63671 0.40341 0.78275
 H2718 H 0.63826 0.41967 0.81599
 H2719 H 0.62142 0.43282 0.84597
 H2720 H 0.56330 0.41564 0.82088
 C2721 C 1.24725 1.11691 1.12328
 C2722 C 1.23122 1.10429 1.11699
 C2723 C 1.21549 1.09941 1.13071
 C2724 C 1.21625 1.10694 1.15058
 C2725 C 1.23231 1.11941 1.15674
 C2726 C 1.24786 1.12463 1.14313
 C2727 C 1.19909 1.08738 1.12427
 C2728 C 1.19809 1.08041 1.10420
 C2729 C 1.21403 1.08496 1.09058
 C2730 C 1.23057 1.09672 1.09712
 C2731 C 1.21283 1.07823 1.07044
 C2732 C 1.19559 1.06792 1.06360
 C2733 C 1.17943 1.06389 1.07685
 C2734 C 1.18101 1.06967 1.09729
 H2735 H 1.25930 1.12058 1.11273
 H2736 H 1.20433 1.10335 1.16130
 H2737 H 1.23237 1.12524 1.17209
 H2738 H 1.18689 1.08387 1.13473
 H2739 H 1.24268 1.10039 1.08661
 H2740 H 1.22493 1.08148 1.05984
 H2741 H 1.19463 1.06347 1.04780
 H2742 H 1.16846 1.06682 1.10751
 C2743 C 1.25370 0.60757 0.61791
 C2744 C 1.23654 0.60063 0.60732
 C2745 C 1.22215 0.61485 0.60006
 C2746 C 1.22530 0.63575 0.60331
 C2747 C 1.24268 0.64255 0.61339
 C2748 C 1.25698 0.62855 0.62076
 C2749 C 1.20498 0.60798 0.58948
 C2750 C 1.20216 0.58710 0.58577
 C2751 C 1.21670 0.57291 0.59274
 C2752 C 1.23373 0.57975 0.60358
 C2753 C 1.21392 0.55208 0.58880
 C2754 C 1.19673 0.54531 0.57837
 C2755 C 1.18196 0.55922 0.57172
 C2756 C 1.18491 0.58017 0.57534
 H2757 H 1.26485 0.59671 0.62329
 H2758 H 1.21446 0.64686 0.59783
 H2759 H 1.24493 0.65879 0.61549
 H2760 H 1.19389 0.61889 0.58404
 H2761 H 1.24483 0.56884 0.60900
 H2762 H 1.22497 0.54101 0.59391
 H2763 H 1.19492 0.52913 0.57558
 H2764 H 1.17350 0.59102 0.57056
 C2765 C 0.75522 1.12270 0.60921
 C2766 C 0.73837 1.11215 0.60151
 C2767 C 0.73801 1.09055 0.60185
 C2768 C 0.75449 1.07989 0.61004
 C2769 C 0.77086 1.09054 0.61838
 C2770 C 0.77129 1.11196 0.61806
 C2771 C 0.72099 1.07999 0.59448
 C2772 C 0.70409 1.09077 0.58737
 C2773 C 0.70437 1.11237 0.58739
 C2774 C 0.72159 1.12291 0.59419
 C2775 C 0.68732 1.12313 0.58082
 C2776 C 0.67018 1.11264 0.57411
 C2777 C 0.66982 1.09117 0.57352
 C2778 C 0.68684 1.08030 0.58035
 H2779 H 0.75537 1.13925 0.60932
 H2780 H 0.75446 1.06335 0.61050
 H2781 H 0.78316 1.08206 0.62526
 H2782 H 0.72075 1.06343 0.59466
 H2783 H 0.72177 1.13947 0.59415
 H2784 H 0.68719 1.13967 0.58096
 H2785 H 0.65711 1.12140 0.56943
 H2786 H 0.68678 1.06377 0.57991
 C2787 C 0.74431 0.62448 1.13253
 C2788 C 0.72745 0.61390 1.12498
 C2789 C 0.72681 0.59235 1.12613
 C2790 C 0.74282 0.58183 1.13542
 C2791 C 0.75960 0.59254 1.14295
 C2792 C 0.76065 0.61390 1.14119
 C2793 C 0.71035 0.58171 1.11768
 C2794 C 0.69456 0.59238 1.10813
 C2795 C 0.69503 0.61396 1.10751
 C2796 C 0.71144 0.62457 1.11595
 C2797 C 0.67915 0.62462 1.09824
 C2798 C 0.66308 0.61402 1.08935
 C2799 C 0.66264 0.59255 1.08936
 C2800 C 0.67842 0.58183 1.09898
 H2801 H 0.74480 0.64099 1.13144
 H2802 H 0.74255 0.56533 1.13653
 H2803 H 0.77202 0.58403 1.14951
 H2804 H 0.70995 0.56516 1.11831
 H2805 H 0.71190 0.64112 1.11522
 H2806 H 0.67918 0.64115 1.09782
 H2807 H 0.65089 0.62270 1.08256
 H2808 H 0.67838 0.56528 1.09899
 C2809 C 1.25570 0.87713 0.88910
 C2810 C 1.23902 0.88865 0.89550
 C2811 C 1.24121 0.90994 0.89855
 C2812 C 1.26000 0.91932 0.89514
 C2813 C 1.27628 0.90788 0.88818
 C2814 C 1.27426 0.88678 0.88500
 C2815 C 1.22453 0.92157 0.90461
 C2816 C 1.20558 0.91227 0.90745
 C2817 C 1.20335 0.89102 0.90418
 C2818 C 1.22007 0.87936 0.89833
 C2819 C 1.18443 0.88172 0.90701
 C2820 C 1.16803 0.89320 0.91359
 C2821 C 1.17016 0.91421 0.91734
 C2822 C 1.18889 0.92378 0.91384
 H2823 H 1.25399 0.86091 0.88631
 H2824 H 1.26196 0.93559 0.89735
 H2825 H 1.29049 0.91557 0.88500
 H2826 H 1.22628 0.93785 0.90703
 H2827 H 1.21831 0.86308 0.89588
 H2828 H 1.18240 0.86551 0.90448
 H2829 H 1.15365 0.88559 0.91615
 H2830 H 1.19063 0.93994 0.91690
 C2831 C 1.24688 0.37801 0.38310
 C2832 C 1.22893 0.38249 0.39332
 C2833 C 1.22741 0.37876 0.41441
 C2834 C 1.24363 0.36968 0.42472
 C2835 C 1.26126 0.36454 0.41428
 C2836 C 1.26328 0.36899 0.39340
 C2837 C 1.20975 0.38422 0.42480
 C2838 C 1.19345 0.39295 0.41421
 C2839 C 1.19468 0.39565 0.39291
 C2840 C 1.21244 0.39059 0.38266
 C2841 C 1.17822 0.40365 0.38219
 C2842 C 1.16097 0.40975 0.39251
 C2843 C 1.15995 0.40834 0.41382
 C2844 C 1.17608 0.39938 0.42456
 H2845 H 1.24770 0.38104 0.36694
 H2846 H 1.24270 0.36652 0.44086
 H2847 H 1.27349 0.35770 0.42283
 H2848 H 1.20875 0.38180 0.44107
 H2849 H 1.21347 0.39309 0.36639
 H2850 H 1.17878 0.40545 0.36583
 H2851 H 1.14848 0.41594 0.38379
 H2852 H 1.17546 0.39814 0.44096
 C2853 C 0.75366 0.89196 0.37960
 C2854 C 0.73562 0.89908 0.38819
 C2855 C 0.72010 0.88505 0.39331
 C2856 C 0.72278 0.86422 0.38965
 C2857 C 0.74076 0.85726 0.38118
 C2858 C 0.75642 0.87099 0.37618
 C2859 C 0.70216 0.89201 0.40208
 C2860 C 0.69950 0.91285 0.40580
 C2861 C 0.71493 0.92696 0.40059
 C2862 C 0.73292 0.91998 0.39184
 C2863 C 0.71205 0.94783 0.40420
 C2864 C 0.69403 0.95464 0.41282
 C2865 C 0.67868 0.94070 0.41813
 C2866 C 0.68156 0.91980 0.41457
 H2867 H 0.76561 0.90273 0.37596
 H2868 H 0.71099 0.85327 0.39340
 H2869 H 0.74228 0.84107 0.37849
 H2870 H 0.69029 0.88121 0.40603
 H2871 H 0.74479 0.93078 0.38789
 H2872 H 0.72369 0.95887 0.40030
 H2873 H 0.69212 0.97081 0.41551
 H2874 H 0.66964 0.90898 0.41829
 C2875 C 0.75649 0.38112 0.88927
 C2876 C 0.74058 0.39313 0.89680
 C2877 C 0.74148 0.41464 0.89486
 C2878 C 0.75804 0.42371 0.88501
 C2879 C 0.77354 0.41167 0.87720
 C2880 C 0.77303 0.39030 0.87932
 C2881 C 0.72585 0.42672 0.90275
 C2882 C 0.70912 0.41758 0.91236
 C2883 C 0.70800 0.39604 0.91377
 C2884 C 0.72373 0.38399 0.90612
 C2885 C 0.69114 0.38684 0.92288
 C2886 C 0.67577 0.39878 0.93099
 C2887 C 0.67692 0.42026 0.93047
 C2888 C 0.69357 0.42957 0.92072
 H2889 H 0.75582 0.36465 0.89079
 H2890 H 0.75898 0.44015 0.88330
 H2891 H 0.78614 0.41915 0.86972
 H2892 H 0.72671 0.44321 0.90143
 H2893 H 0.72286 0.36750 0.90743
 H2894 H 0.68986 0.37036 0.92382
 H2895 H 0.66288 0.39108 0.93774
 H2896 H 0.69468 0.44607 0.92010
 C2897 C 0.74491 0.88076 1.11191
 C2898 C 0.76208 0.89121 1.10485
 C2899 C 0.76404 0.91246 1.10811
 C2900 C 0.74895 0.92281 1.11879
 C2901 C 0.73218 0.91215 1.12630
 C2902 C 0.73002 0.89112 1.12282
 C2903 C 0.78112 0.92296 1.10085
 C2904 C 0.79647 0.91237 1.09079
 C2905 C 0.79471 0.89102 1.08808
 C2906 C 0.77746 0.88063 1.09493
 C2907 C 0.81028 0.88036 1.07857
 C2908 C 0.82732 0.89075 1.07150
 C2909 C 0.82902 0.91209 1.07347
 C2910 C 0.81356 0.92278 1.08337
 H2911 H 0.74343 0.86446 1.10950
 H2912 H 0.75023 0.93906 1.12153
 H2913 H 0.72080 0.92037 1.13471
 H2914 H 0.78254 0.93929 1.10317
 H2915 H 0.77609 0.86428 1.09270
 H2916 H 0.80930 0.86397 1.07663
 H2917 H 0.83923 0.88201 1.06447
 H2918 H 0.81463 0.93921 1.08495
 C2919 C 0.75017 0.38550 0.62713
 C2920 C 0.76663 0.39732 0.62042
 C2921 C 0.76565 0.41887 0.62118
 C2922 C 0.74844 0.42818 0.62926
 C2923 C 0.73225 0.41627 0.63622
 C2924 C 0.73287 0.39487 0.63497
 C2925 C 0.78176 0.43072 0.61363
 C2926 C 0.79885 0.42127 0.60538
 C2927 C 0.80003 0.39970 0.60530
 C2928 C 0.78395 0.38789 0.61281
 C2929 C 0.81712 0.39020 0.59732
 C2930 C 0.83256 0.40187 0.58870
 C2931 C 0.83122 0.42327 0.58782
 C2932 C 0.81457 0.43296 0.59672
 H2933 H 0.75090 0.36899 0.62640
 H2934 H 0.74743 0.44466 0.63007
 H2935 H 0.71903 0.42385 0.64219
 H2936 H 0.78085 0.44725 0.61389
 H2937 H 0.78479 0.37136 0.61242
 H2938 H 0.81839 0.37371 0.59739
 H2939 H 0.84550 0.39410 0.58237
 H2940 H 0.81346 0.44946 0.59614
 C2941 C 0.25029 0.87691 0.61515
 C2942 C 0.26720 0.88785 0.60796
 C2943 C 0.26778 0.90937 0.60958
 C2944 C 0.25160 0.91953 0.61869
 C2945 C 0.23502 0.90852 0.62612
 C2946 C 0.23413 0.88716 0.62435
 C2947 C 0.28450 0.92037 0.60212
 C2948 C 0.30082 0.91012 0.59328
 C2949 C 0.30040 0.88857 0.59206
 C2950 C 0.28358 0.87759 0.59929
 C2951 C 0.31684 0.87831 0.58361
 C2952 C 0.33342 0.88924 0.57614
 C2953 C 0.33387 0.91072 0.57669
 C2954 C 0.31752 0.92106 0.58555
 H2955 H 0.24987 0.86042 0.61391
 H2956 H 0.25178 0.93601 0.62011
 H2957 H 0.22272 0.91682 0.63300
 H2958 H 0.28482 0.93689 0.60323
 H2959 H 0.28326 0.86108 0.59818
 H2960 H 0.31689 0.86179 0.58278
 H2961 H 0.34599 0.88078 0.56997
 H2962 H 0.31758 0.93759 0.58606
 C2963 C 0.24036 0.37637 1.11073
 C2964 C 0.25872 0.38564 1.10480
 C2965 C 0.27113 0.39522 1.11953
 C2966 C 0.26480 0.39571 1.13982
 C2967 C 0.24632 0.38691 1.14548
 C2968 C 0.23397 0.37704 1.13109
 C2969 C 0.28961 0.40424 1.11375
 C2970 C 0.29570 0.40419 1.09334
 C2971 C 0.28311 0.39499 1.07855
 C2972 C 0.26479 0.38566 1.08437
 C2973 C 0.28905 0.39530 1.05814
 C2974 C 0.30732 0.40451 1.05241
 C2975 C 0.32024 0.41346 1.06696
 C2976 C 0.31419 0.41322 1.08749
 H2977 H 0.23084 0.36904 1.09945
 H2978 H 0.27410 0.40300 1.15131
 H2979 H 0.24181 0.38759 1.16126
 H2980 H 0.29917 0.41142 1.12511
 H2981 H 0.25522 0.37850 1.07300
 H2982 H 0.27952 0.38848 1.04655
 H2983 H 0.31125 0.40475 1.03646
 H2984 H 0.32400 0.41975 1.09900
 C2985 C 0.75289 1.11892 0.87863
 C2986 C 0.76968 1.10760 0.88511
 C2987 C 0.77051 1.08642 0.88119
 C2988 C 0.75480 1.07715 0.87007
 C2989 C 0.73828 1.08867 0.86331
 C2990 C 0.73702 1.10953 0.86789
 C2991 C 0.78690 1.07492 0.88859
 C2992 C 0.80258 1.08443 0.89959
 C2993 C 0.80202 1.10577 0.90271
 C2994 C 0.78557 1.11717 0.89557
 C2995 C 0.81785 1.11543 0.91311
 C2996 C 0.83388 1.10406 0.92088
 C2997 C 0.83432 1.08269 0.91880
 C2998 C 0.81871 1.07299 0.90774
 H2999 H 0.75219 1.13511 0.88191
 H3000 H 0.75522 1.06097 0.86675
 H3001 H 0.72619 1.08115 0.85502
 H3002 H 0.78737 1.05861 0.88591
 H3003 H 0.78505 1.13347 0.89831
 H3004 H 0.81781 1.13181 0.91531
 H3005 H 0.84600 1.11211 0.92861
 H3006 H 0.81880 1.05656 0.90593
 C3007 C 0.74849 0.62218 0.39060
 C3008 C 0.76531 0.61183 0.39848
 C3009 C 0.76680 0.59044 0.39608
 C3010 C 0.75164 0.57988 0.38542
 C3011 C 0.73518 0.59040 0.37718
 C3012 C 0.73341 0.61156 0.37985
 C3013 C 0.78348 0.58003 0.40421
 C3014 C 0.79896 0.59080 0.41420
 C3015 C 0.79769 0.61224 0.41611
 C3016 C 0.78077 0.62259 0.40846
 C3017 C 0.81348 0.62304 0.42546
 C3018 C 0.83041 0.61275 0.43285
 C3019 C 0.83175 0.59135 0.43147
 C3020 C 0.81582 0.58049 0.42213
 H3021 H 0.74737 0.63857 0.39242
 H3022 H 0.75258 0.56351 0.38335
 H3023 H 0.72368 0.58194 0.36895
 H3024 H 0.78453 0.56360 0.40252
 H3025 H 0.77975 0.63902 0.41009
 H3026 H 0.81287 0.63951 0.42682
 H3027 H 0.84262 0.62166 0.43939
 H3028 H 0.81644 0.56400 0.42110
 C3029 C 0.24628 1.11576 0.38293
 C3030 C 0.26301 1.10477 0.39009
 C3031 C 0.26303 1.08322 0.38889
 C3032 C 0.24641 1.07310 0.38016
 C3033 C 0.22988 1.08420 0.37284
 C3034 C 0.22959 1.10559 0.37433
 C3035 C 0.27961 1.07221 0.39649
 C3036 C 0.29620 1.08251 0.40514
 C3037 C 0.29626 1.10409 0.40592
 C3038 C 0.27968 1.11506 0.39844
 C3039 C 0.31287 1.11442 0.41431
 C3040 C 0.32914 1.10351 0.42223
 C3041 C 0.32911 1.08203 0.42209
 C3042 C 0.31266 1.07161 0.41323
 H3043 H 0.24640 1.13227 0.38385
 H3044 H 0.24617 1.05660 0.37904
 H3045 H 0.21717 1.07601 0.36632
 H3046 H 0.27956 1.05567 0.39575
 H3047 H 0.27971 1.13160 0.39921
 H3048 H 0.31324 1.13095 0.41483
 H3049 H 0.34185 1.11194 0.42846
 H3050 H 0.31246 1.05506 0.41305
 C3051 C 0.24506 0.60961 0.87609
 C3052 C 0.26310 0.60324 0.88548
 C3053 C 0.27600 0.61782 0.89472
 C3054 C 0.27044 0.63843 0.89477
 C3055 C 0.25227 0.64457 0.88579
 C3056 C 0.23949 0.63028 0.87629
 C3057 C 0.29417 0.61158 0.90386
 C3058 C 0.29946 0.59087 0.90423
 C3059 C 0.28637 0.57624 0.89540
 C3060 C 0.26836 0.58252 0.88594
 C3061 C 0.29150 0.55553 0.89620
 C3062 C 0.30950 0.54936 0.90552
 C3063 C 0.32289 0.56378 0.91404
 C3064 C 0.31766 0.58458 0.91333
 H3065 H 0.23517 0.59844 0.86902
 H3066 H 0.28010 0.64980 0.90183
 H3067 H 0.24835 0.66059 0.88603
 H3068 H 0.30411 0.62281 0.91079
 H3069 H 0.25840 0.57128 0.87903
 H3070 H 0.28156 0.54407 0.88967
 H3071 H 0.31285 0.53321 0.90617
 H3072 H 0.32789 0.59596 0.91952
 C3073 C 1.11634 1.25473 1.10840
 C3074 C 1.10590 1.23685 1.10279
 C3075 C 1.08508 1.23777 1.09786
 C3076 C 1.07510 1.25656 1.09849
 C3077 C 1.08557 1.27426 1.10412
 C3078 C 1.10625 1.27355 1.10923
 C3079 C 1.07458 1.21992 1.09231
 C3080 C 1.08472 1.20118 1.09135
 C3081 C 1.10558 1.20032 1.09624
 C3082 C 1.11598 1.21810 1.10206
 C3083 C 1.11583 1.18172 1.09486
 C3084 C 1.10572 1.16427 1.08811
 C3085 C 1.08510 1.16497 1.08291
 C3086 C 1.07452 1.18337 1.08502
 H3087 H 1.13219 1.25384 1.11253
 H3088 H 1.05917 1.25758 1.09468
 H3089 H 1.07738 1.28851 1.10444
 H3090 H 1.05862 1.22069 1.08849
 H3091 H 1.13198 1.21737 1.10574
 H3092 H 1.13179 1.18078 1.09856
 H3093 H 1.11407 1.15017 1.08669
 H3094 H 1.05862 1.18399 1.08090
 C3095 C 1.12569 0.75654 0.60311
 C3096 C 1.11575 0.73870 0.59653
 C3097 C 1.09462 0.73896 0.59295
 C3098 C 1.08387 0.75708 0.59567
 C3099 C 1.09382 0.77469 0.60227
 C3100 C 1.11474 0.77459 0.60632
 C3101 C 1.08454 0.72112 0.58680
 C3102 C 1.09530 0.70299 0.58401
 C3103 C 1.11647 0.70274 0.58732
 C3104 C 1.12654 0.72056 0.59366
 C3105 C 1.12724 0.68468 0.58412
 C3106 C 1.11719 0.66709 0.57751
 C3107 C 1.09616 0.66716 0.57425
 C3108 C 1.08526 0.68513 0.57773
 H3109 H 1.14179 0.75619 0.60625
 H3110 H 1.06772 0.75761 0.59284
 H3111 H 1.08502 0.78841 0.60425
 H3112 H 1.06832 0.72137 0.58416
 H3113 H 1.14275 0.72030 0.59632
 H3114 H 1.14346 0.68419 0.58656
 H3115 H 1.12584 0.65335 0.57499
 H3116 H 1.06906 0.68532 0.57503
 C3117 C 0.61044 1.26051 0.61504
 C3118 C 0.60430 1.24248 0.60535
 C3119 C 0.61896 1.22940 0.59693
 C3120 C 0.63950 1.23486 0.59798
 C3121 C 0.64547 1.25297 0.60750
 C3122 C 0.63104 1.26584 0.61630
 C3123 C 0.61287 1.21106 0.58773
 C3124 C 0.59228 1.20571 0.58676
 C3125 C 0.57762 1.21904 0.59483
 C3126 C 0.58372 1.23730 0.60408
 C3127 C 0.55707 1.21378 0.59370
 C3128 C 0.55106 1.19531 0.58503
 C3129 C 0.56547 1.18166 0.57738
 C3130 C 0.58610 1.18712 0.57810
 H3131 H 0.59912 1.27046 0.62147
 H3132 H 0.65095 1.22507 0.59155
 H3133 H 0.66144 1.25668 0.60832
 H3134 H 0.62413 1.20092 0.58146
 H3135 H 0.57246 1.24740 0.61043
 H3136 H 0.54564 1.22389 0.59966
 H3137 H 0.53507 1.19168 0.58434
 H3138 H 0.59739 1.17666 0.57245
 C3139 C 0.60604 0.75695 1.12277
 C3140 C 0.59772 0.74067 1.11159
 C3141 C 0.59846 0.74109 1.09012
 C3142 C 0.60760 0.75771 1.08022
 C3143 C 0.61613 0.77364 1.09144
 C3144 C 0.61547 0.77343 1.11278
 C3145 C 0.59025 0.72484 1.07889
 C3146 C 0.58153 0.70798 1.08885
 C3147 C 0.58096 0.70750 1.11033
 C3148 C 0.58893 0.72386 1.12154
 C3149 C 0.57252 0.69055 1.12027
 C3150 C 0.56466 0.67426 1.10911
 C3151 C 0.56486 0.67458 1.08773
 C3152 C 0.57345 0.69156 1.07770
 H3153 H 0.60564 0.75651 1.13922
 H3154 H 0.60830 0.75831 1.06379
 H3155 H 0.62313 0.78623 1.08335
 H3156 H 0.59080 0.72523 1.06243
 H3157 H 0.58844 0.72344 1.13800
 H3158 H 0.57211 0.68983 1.13671
 H3159 H 0.55864 0.66122 1.11730
 H3160 H 0.57364 0.69209 1.06125
 C3161 C 0.88332 1.25878 0.89842
 C3162 C 0.89464 1.24178 0.90497
 C3163 C 0.91524 1.24430 0.91042
 C3164 C 0.92412 1.26373 0.90943
 C3165 C 0.91291 1.28043 0.90267
 C3166 C 0.89251 1.27815 0.89690
 C3167 C 0.92669 1.22740 0.91669
 C3168 C 0.91784 1.20792 0.91768
 C3169 C 0.89723 1.20535 0.91225
 C3170 C 0.88579 1.22226 0.90588
 C3171 C 0.88833 1.18593 0.91353
 C3172 C 0.89954 1.16932 0.92059
 C3173 C 0.91996 1.17171 0.92622
 C3174 C 0.92916 1.19101 0.92439
 H3175 H 0.86766 1.25681 0.89387
 H3176 H 0.93984 1.26598 0.91365
 H3177 H 0.92029 1.29520 0.90187
 H3178 H 0.94247 1.22943 0.92086
 H3179 H 0.87002 1.22023 0.90170
 H3180 H 0.87259 1.18364 0.90940
 H3181 H 0.89221 1.15453 0.92186
 H3182 H 0.94484 1.19296 0.92890
 C3183 C 0.88757 0.75122 0.37699
 C3184 C 0.89412 0.73408 0.38813
 C3185 C 0.88007 0.71858 0.39343
 C3186 C 0.85980 0.72040 0.38744
 C3187 C 0.85337 0.73761 0.37669
 C3188 C 0.86710 0.75323 0.37149
 C3189 C 0.88645 0.70157 0.40474
 C3190 C 0.90670 0.69983 0.41089
 C3191 C 0.92076 0.71534 0.40564
 C3192 C 0.91438 0.73236 0.39432
 C3193 C 0.94106 0.71343 0.41160
 C3194 C 0.94747 0.69612 0.42222
 C3195 C 0.93369 0.68052 0.42732
 C3196 C 0.91322 0.68262 0.42189
 H3197 H 0.89824 0.76328 0.37326
 H3198 H 0.84884 0.70865 0.39132
 H3199 H 0.83755 0.73874 0.37251
 H3200 H 0.87565 0.68968 0.40873
 H3201 H 0.92518 0.74423 0.39031
 H3202 H 0.95204 0.72516 0.40774
 H3203 H 0.96331 0.69475 0.42629
 H3204 H 0.90258 0.67050 0.42553
 C3205 C 0.38151 1.25705 0.38584
 C3206 C 0.39209 1.23985 0.39256
 C3207 C 0.41314 1.23846 0.38911
 C3208 C 0.42310 1.25410 0.37838
 C3209 C 0.41231 1.27105 0.37136
 C3210 C 0.39154 1.27275 0.37532
 C3211 C 0.42383 1.22150 0.39645
 C3212 C 0.41362 1.20578 0.40683
 C3213 C 0.39245 1.20696 0.40964
 C3214 C 0.38186 1.22404 0.40264
 C3215 C 0.38216 1.19102 0.41942
 C3216 C 0.39273 1.17412 0.42662
 C3217 C 0.41389 1.17297 0.42455
 C3218 C 0.42422 1.18889 0.41448
 H3219 H 0.36538 1.25809 0.38857
 H3220 H 0.43920 1.25324 0.37547
 H3221 H 0.42027 1.28304 0.36324
 H3222 H 0.44003 1.22051 0.39405
 H3223 H 0.36565 1.22503 0.40503
 H3224 H 0.36590 1.19157 0.42144
 H3225 H 0.38424 1.16185 0.43370
 H3226 H 0.44052 1.18832 0.41284
 C3227 C 0.37913 0.75070 0.88125
 C3228 C 0.39032 0.73363 0.88772
 C3229 C 0.41160 0.73516 0.88983
 C3230 C 0.42135 0.75364 0.88520
 C3231 C 0.41020 0.77035 0.87833
 C3232 C 0.38905 0.76907 0.87628
 C3233 C 0.42282 0.71823 0.89644
 C3234 C 0.41308 0.69965 0.90082
 C3235 C 0.39185 0.69801 0.89833
 C3236 C 0.38061 0.71499 0.89187
 C3237 C 0.38212 0.67944 0.90257
 C3238 C 0.39319 0.66284 0.90981
 C3239 C 0.41421 0.66441 0.91296
 C3240 C 0.42417 0.68277 0.90800
 H3241 H 0.36285 0.74953 0.87946
 H3242 H 0.43763 0.75511 0.88669
 H3243 H 0.41816 0.78439 0.87468
 H3244 H 0.43911 0.71952 0.89822
 H3245 H 0.36432 0.71370 0.89011
 H3246 H 0.36590 0.67784 0.90060
 H3247 H 0.38523 0.64874 0.91325
 H3248 H 0.44035 0.68415 0.91046
 C3249 C 1.11893 0.74649 0.88059
 C3250 C 1.10826 0.76386 0.88667
 C3251 C 1.10304 0.77894 0.87215
 C3252 C 1.10836 0.77626 0.85176
 C3253 C 1.11873 0.75880 0.84580
 C3254 C 1.12415 0.74382 0.86013
 C3255 C 1.09267 0.79648 0.87823
 C3256 C 1.08745 0.79913 0.89866
 C3257 C 1.09237 0.78388 0.91312
 C3258 C 1.10271 0.76633 0.90703
 C3259 C 1.08719 0.78660 0.93353
 C3260 C 1.07781 0.80455 0.93970
 C3261 C 1.07333 0.82002 0.92555
 C3262 C 1.07783 0.81703 0.90496
 H3263 H 1.12279 0.73489 0.89171
 H3264 H 1.10448 0.78765 0.84043
 H3265 H 1.12268 0.75711 0.82995
 H3266 H 1.08885 0.80813 0.86712
 H3267 H 1.10661 0.75472 0.91816
 H3268 H 1.09074 0.77503 0.94479
 H3269 H 1.07430 0.80650 0.95562
 H3270 H 1.07463 0.82900 0.89399
 C3271 C 1.11493 0.24732 0.37579
 C3272 C 1.10465 0.26211 0.38697
 C3273 C 1.10546 0.26162 0.40842
 C3274 C 1.11697 0.24660 0.41828
 C3275 C 1.12733 0.23200 0.40700
 C3276 C 1.12618 0.23208 0.38569
 C3277 C 1.09479 0.27615 0.41963
 C3278 C 1.08367 0.29140 0.40962
 C3279 C 1.08324 0.29211 0.38817
 C3280 C 1.09356 0.27735 0.37698
 C3281 C 1.07267 0.30772 0.37823
 C3282 C 1.06287 0.32272 0.38941
 C3283 C 1.06303 0.32219 0.41079
 C3284 C 1.07327 0.30619 0.42075
 H3285 H 1.11420 0.24773 0.35935
 H3286 H 1.11785 0.24605 0.43471
 H3287 H 1.13581 0.22035 0.41499
 H3288 H 1.09531 0.27572 0.43609
 H3289 H 1.09310 0.27782 0.36051
 H3290 H 1.07235 0.30859 0.36179
 H3291 H 1.05564 0.33507 0.38122
 H3292 H 1.07334 0.30530 0.43719
 C3293 C 0.61954 0.75190 0.37702
 C3294 C 0.61316 0.76925 0.38767
 C3295 C 0.61350 0.76920 0.40916
 C3296 C 0.62048 0.75192 0.41961
 C3297 C 0.62720 0.73492 0.40890
 C3298 C 0.62676 0.73471 0.38756
 C3299 C 0.60692 0.78640 0.41986
 C3300 C 0.60017 0.80378 0.40936
 C3301 C 0.60022 0.80395 0.38786
 C3302 C 0.60664 0.78669 0.37717
 C3303 C 0.59367 0.82134 0.37736
 C3304 C 0.58662 0.83822 0.38800
 C3305 C 0.58591 0.83806 0.40935
 C3306 C 0.59308 0.82088 0.41997
 H3307 H 0.61937 0.75197 0.36055
 H3308 H 0.62088 0.75160 0.43606
 H3309 H 0.63257 0.72180 0.41737
 H3310 H 0.60703 0.78626 0.43634
 H3311 H 0.60653 0.78684 0.36070
 H3312 H 0.59378 0.82183 0.36091
 H3313 H 0.58154 0.85142 0.37946
 H3314 H 0.59252 0.82056 0.43642
 C3315 C 0.62671 0.24959 0.89026
 C3316 C 0.62117 0.26649 0.90198
 C3317 C 0.62154 0.26513 0.92343
 C3318 C 0.62829 0.24708 0.93274
 C3319 C 0.63434 0.23051 0.92093
 C3320 C 0.63326 0.23153 0.89964
 C3321 C 0.61503 0.28174 0.93514
 C3322 C 0.60842 0.29979 0.92564
 C3323 C 0.60897 0.30133 0.90419
 C3324 C 0.61522 0.28470 0.89254
 C3325 C 0.60288 0.31939 0.89462
 C3326 C 0.59537 0.33546 0.90604
 C3327 C 0.59357 0.33381 0.92728
 C3328 C 0.60075 0.31613 0.93710
 H3329 H 0.62619 0.25058 0.87382
 H3330 H 0.62887 0.24577 0.94914
 H3331 H 0.63944 0.21670 0.92843
 H3332 H 0.61491 0.28054 0.95157
 H3333 H 0.61523 0.28584 0.87609
 H3334 H 0.60351 0.32094 0.87824
 H3335 H 0.59043 0.34912 0.89816
 H3336 H 0.59953 0.31474 0.95346
 C3337 C 0.88613 0.73918 1.10503
 C3338 C 0.89162 0.75702 1.09455
 C3339 C 0.87660 0.77132 1.08899
 C3340 C 0.85627 0.76722 1.09355
 C3341 C 0.85091 0.74931 1.10385
 C3342 C 0.86582 0.73530 1.10990
 C3343 C 0.88217 0.78958 1.07928
 C3344 C 0.90260 0.79376 1.07516
 C3345 C 0.91753 0.77919 1.08025
 C3346 C 0.91194 0.76089 1.08983
 C3347 C 0.93792 0.78338 1.07616
 C3348 C 0.94358 0.80218 1.06785
 C3349 C 0.92895 0.81705 1.06341
 C3350 C 0.90840 0.81255 1.06664
 H3351 H 0.89770 0.72831 1.10935
 H3352 H 0.84454 0.77796 1.08936
 H3353 H 0.83515 0.74668 1.10751
 H3354 H 0.87069 0.80070 1.07530
 H3355 H 0.92344 0.74986 1.09398
 H3356 H 0.94953 0.77233 1.07982
 H3357 H 0.95948 0.80527 1.06523
 H3358 H 0.89705 0.82402 1.06343
 C3359 C 0.87606 0.24551 0.61686
 C3360 C 0.88540 0.26377 0.61056
 C3361 C 0.89336 0.27736 0.62523
 C3362 C 0.89200 0.27239 0.64589
 C3363 C 0.88294 0.25409 0.65200
 C3364 C 0.87488 0.24050 0.63759
 C3365 C 0.90262 0.29565 0.61904
 C3366 C 0.90417 0.30048 0.59834
 C3367 C 0.89640 0.28682 0.58365
 C3368 C 0.88702 0.26857 0.58985
 C3369 C 0.89809 0.29168 0.56298
 C3370 C 0.90718 0.30999 0.55691
 C3371 C 0.91474 0.32382 0.57138
 C3372 C 0.91327 0.31886 0.59212
 H3373 H 0.87009 0.23504 0.60561
 H3374 H 0.89800 0.28263 0.65734
 H3375 H 0.88206 0.25069 0.66808
 H3376 H 0.90863 0.30609 0.63032
 H3377 H 0.88101 0.25813 0.57857
 H3378 H 0.89232 0.28135 0.55150
 H3379 H 0.90836 0.31334 0.54083
 H3380 H 0.91880 0.32951 0.60343
 C3381 C 0.39287 0.74510 0.62042
 C3382 C 0.40044 0.76124 0.60840
 C3383 C 0.40082 0.75934 0.58699
 C3384 C 0.39352 0.74142 0.57798
 C3385 C 0.38543 0.72577 0.58997
 C3386 C 0.38497 0.72748 0.61122
 C3387 C 0.40812 0.77549 0.57491
 C3388 C 0.41475 0.79372 0.58391
 C3389 C 0.41411 0.79570 0.60529
 C3390 C 0.40712 0.77944 0.61739
 C3391 C 0.42050 0.81396 0.61428
 C3392 C 0.42786 0.82995 0.60230
 C3393 C 0.42907 0.82805 0.58105
 C3394 C 0.42215 0.80996 0.57189
 H3395 H 0.39221 0.74662 0.63680
 H3396 H 0.39362 0.73969 0.56162
 H3397 H 0.37934 0.71231 0.58261
 H3398 H 0.40846 0.77394 0.55853
 H3399 H 0.40669 0.78103 0.63377
 H3400 H 0.41995 0.81584 0.63061
 H3401 H 0.43276 0.84387 0.60969
 H3402 H 0.42306 0.80834 0.55555
 C3403 C 0.38558 0.24280 1.11635
 C3404 C 0.39221 0.26046 1.10603
 C3405 C 0.37792 0.27319 1.09623
 C3406 C 0.35740 0.26776 1.09636
 C3407 C 0.35100 0.25004 1.10629
 C3408 C 0.36494 0.23750 1.11654
 C3409 C 0.38431 0.29121 1.08656
 C3410 C 0.40486 0.29661 1.08632
 C3411 C 0.41925 0.28358 1.09552
 C3412 C 0.41284 0.26564 1.10540
 C3413 C 0.43982 0.28885 1.09485
 C3414 C 0.44602 0.30710 1.08567
 C3415 C 0.43178 0.32058 1.07710
 C3416 C 0.41119 0.31501 1.07727
 H3417 H 0.39645 0.23311 1.12405
 H3418 H 0.34626 0.27729 1.08885
 H3419 H 0.33499 0.24642 1.10635
 H3420 H 0.37327 0.30108 1.07933
 H3421 H 0.42387 0.25580 1.11270
 H3422 H 0.45111 0.27895 1.10158
 H3423 H 0.46202 0.31074 1.08539
 H3424 H 0.39998 0.32527 1.07096
 C3425 C 1.11288 1.12198 0.74840
 C3426 C 1.10768 1.11175 0.76653
 C3427 C 1.12293 1.10230 0.77837
 C3428 C 1.14298 1.10281 0.77174
 C3429 C 1.14784 1.11193 0.75322
 C3430 C 1.13291 1.12153 0.74120
 C3431 C 1.11788 1.09211 0.79646
 C3432 C 1.09764 1.09052 0.80253
 C3433 C 1.08229 1.09933 0.79034
 C3434 C 1.08741 1.11017 0.77262
 C3435 C 1.06201 1.09711 0.79607
 C3436 C 1.05702 1.08680 0.81396
 C3437 C 1.07219 1.07874 0.82672
 C3438 C 1.09251 1.08035 0.82067
 H3439 H 1.10109 1.12900 0.73931
 H3440 H 1.15487 1.09569 0.78062
 H3441 H 1.16352 1.11171 0.74854
 H3442 H 1.12967 1.08513 0.80562
 H3443 H 1.07561 1.11706 0.76342
 H3444 H 1.05001 1.10346 0.78677
 H3445 H 1.04120 1.08536 0.81798
 H3446 H 1.10437 1.07430 0.83036
 C3447 C 1.11846 0.61705 0.24947
 C3448 C 1.10741 0.61074 0.26652
 C3449 C 1.08702 0.61669 0.26865
 C3450 C 1.07837 0.62974 0.25415
 C3451 C 1.08968 0.63648 0.23747
 C3452 C 1.10972 0.62982 0.23462
 C3453 C 1.07565 0.60941 0.28518
 C3454 C 1.08462 0.59665 0.29982
 C3455 C 1.10533 0.59163 0.29813
 C3456 C 1.11652 0.59853 0.28142
 C3457 C 1.11456 0.57967 0.31312
 C3458 C 1.10329 0.57220 0.32938
 C3459 C 1.08239 0.57605 0.33078
 C3460 C 1.07322 0.58866 0.31605
 H3461 H 1.13403 0.61220 0.24811
 H3462 H 1.06282 0.63465 0.25563
 H3463 H 1.08231 0.64628 0.22647
 H3464 H 1.05986 0.61361 0.28661
 H3465 H 1.13230 0.59429 0.27998
 H3466 H 1.13052 0.57605 0.31226
 H3467 H 1.11105 0.56331 0.34088
 H3468 H 1.05718 0.59188 0.31688
 C3469 C 0.61791 1.12672 0.24249
 C3470 C 0.61122 1.11750 0.26059
 C3471 C 0.62546 1.10928 0.27440
 C3472 C 0.64609 1.11008 0.26971
 C3473 C 0.65262 1.11886 0.25149
 C3474 C 0.63869 1.12743 0.23761
 C3475 C 0.61887 1.10030 0.29262
 C3476 C 0.59815 1.09905 0.29704
 C3477 C 0.58386 1.10687 0.28303
 C3478 C 0.59048 1.11619 0.26499
 C3479 C 0.56316 1.10520 0.28729
 C3480 C 0.55664 1.09601 0.30532
 C3481 C 0.57067 1.08851 0.31962
 C3482 C 0.59148 1.09008 0.31527
 H3483 H 0.60675 1.13285 0.23209
 H3484 H 0.65722 1.10384 0.28011
 H3485 H 0.66871 1.11919 0.24863
 H3486 H 0.62985 1.09415 0.30327
 H3487 H 0.57950 1.12231 0.25433
 H3488 H 0.55199 1.11095 0.27665
 H3489 H 0.54053 1.09467 0.30798
 H3490 H 0.60255 1.08468 0.32620
 C3491 C 0.62798 0.61354 0.75055
 C3492 C 0.61614 0.60638 0.76687
 C3493 C 0.59496 0.60405 0.76442
 C3494 C 0.58596 0.60909 0.74576
 C3495 C 0.59773 0.61683 0.72988
 C3496 C 0.61876 0.61914 0.73212
 C3497 C 0.58306 0.59705 0.78072
 C3498 C 0.59200 0.59270 0.79961
 C3499 C 0.61314 0.59541 0.80213
 C3500 C 0.62506 0.60206 0.78575
 C3501 C 0.62206 0.59137 0.82102
 C3502 C 0.61033 0.58424 0.83714
 C3503 C 0.58940 0.58084 0.83477
 C3504 C 0.58023 0.58550 0.81600
 H3505 H 0.64416 0.61567 0.75247
 H3506 H 0.56977 0.60748 0.74359
 H3507 H 0.59036 0.62118 0.71579
 H3508 H 0.56686 0.59516 0.77874
 H3509 H 0.64126 0.60403 0.78775
 H3510 H 0.63818 0.59355 0.82329
 H3511 H 0.61771 0.58113 0.85154
 H3512 H 0.56413 0.58292 0.81398
 C3513 C 0.88347 0.88061 0.74302
 C3514 C 0.89051 0.89200 0.75970
 C3515 C 0.89064 0.91358 0.75871
 C3516 C 0.88335 0.92338 0.74121
 C3517 C 0.87600 0.91196 0.72487
 C3518 C 0.87608 0.89051 0.72556
 C3519 C 0.89804 0.92499 0.77519
 C3520 C 0.90515 0.91511 0.79277
 C3521 C 0.90453 0.89353 0.79389
 C3522 C 0.89730 0.88214 0.77737
 C3523 C 0.91133 0.88363 0.81149
 C3524 C 0.91924 0.89489 0.82761
 C3525 C 0.92067 0.91631 0.82649
 C3526 C 0.91316 0.92639 0.80913
 H3527 H 0.88334 0.86407 0.74381
 H3528 H 0.88327 0.93989 0.74017
 H3529 H 0.87047 0.91995 0.71155
 H3530 H 0.89834 0.94153 0.77430
 H3531 H 0.89703 0.86560 0.77824
 H3532 H 0.91074 0.86713 0.81271
 H3533 H 0.92444 0.88676 0.84099
 H3534 H 0.91417 0.94288 0.80809
 C3535 C 0.87394 0.38455 0.24675
 C3536 C 0.88464 0.39316 0.26316
 C3537 C 0.90570 0.39002 0.26500
 C3538 C 0.91563 0.37807 0.25062
 C3539 C 0.90487 0.36922 0.23458
 C3540 C 0.88388 0.37236 0.23226
 C3541 C 0.91647 0.39871 0.28126
 C3542 C 0.90636 0.41013 0.29604
 C3543 C 0.88523 0.41297 0.29442
 C3544 C 0.87454 0.40466 0.27790
 C3545 C 0.87509 0.42389 0.30949
 C3546 C 0.88571 0.43179 0.32611
 C3547 C 0.90681 0.42929 0.32789
 C3548 C 0.91702 0.41852 0.31256
 H3549 H 0.85781 0.38711 0.24568
 H3550 H 0.93178 0.37545 0.25182
 H3551 H 0.91329 0.36019 0.22387
 H3552 H 0.93266 0.39634 0.28257
 H3553 H 0.85833 0.40695 0.27665
 H3554 H 0.85887 0.42606 0.30859
 H3555 H 0.87724 0.43950 0.33779
 H3556 H 0.93328 0.41664 0.31343
 C3557 C 0.39283 0.88654 0.23843
 C3558 C 0.40187 0.89268 0.25675
 C3559 C 0.41100 0.87804 0.26959
 C3560 C 0.41152 0.85758 0.26353
 C3561 C 0.40282 0.85161 0.24508
 C3562 C 0.39301 0.86591 0.23239
 C3563 C 0.41937 0.88407 0.28828
 C3564 C 0.41898 0.90465 0.29413
 C3565 C 0.41041 0.91937 0.28093
 C3566 C 0.40183 0.91329 0.26240
 C3567 C 0.41042 0.93996 0.28653
 C3568 C 0.41844 0.94592 0.30522
 C3569 C 0.42644 0.93142 0.31885
 C3570 C 0.42686 0.91076 0.31303
 H3571 H 0.38591 0.89805 0.22887
 H3572 H 0.41857 0.84614 0.27312
 H3573 H 0.40335 0.83561 0.24118
 H3574 H 0.42611 0.87276 0.29827
 H3575 H 0.39501 0.92459 0.25244
 H3576 H 0.40415 0.95146 0.27648
 H3577 H 0.41838 0.96198 0.30901
 H3578 H 0.43282 0.89935 0.32338
 C3579 C 0.39553 0.38397 0.74388
 C3580 C 0.40412 0.39426 0.76044
 C3581 C 0.40373 0.41582 0.76104
 C3582 C 0.39474 0.42668 0.74501
 C3583 C 0.38609 0.41629 0.72860
 C3584 C 0.38640 0.39485 0.72788
 C3585 C 0.41216 0.42610 0.77771
 C3586 C 0.42075 0.41506 0.79388
 C3587 C 0.42110 0.39349 0.79322
 C3588 C 0.41287 0.38324 0.77648
 C3589 C 0.42947 0.38248 0.80945
 C3590 C 0.43720 0.39269 0.82635
 C3591 C 0.43690 0.41413 0.82727
 C3592 C 0.42877 0.42523 0.81084
 H3593 H 0.39566 0.36745 0.74375
 H3594 H 0.39431 0.44321 0.74520
 H3595 H 0.37930 0.42508 0.71643
 H3596 H 0.41184 0.44265 0.77822
 H3597 H 0.41311 0.36669 0.77603
 H3598 H 0.42977 0.36595 0.80922
 H3599 H 0.44300 0.38373 0.83893
 H3600 H 0.42864 0.44176 0.81126
 C3601 C 1.11399 0.87670 1.25795
 C3602 C 1.10813 0.88613 1.23960
 C3603 C 1.12299 0.89518 1.22694
 C3604 C 1.14331 0.89513 1.23307
 C3605 C 1.14891 0.88623 1.25153
 C3606 C 1.13439 0.87682 1.26405
 C3607 C 1.11733 0.90417 1.20840
 C3608 C 1.09692 0.90466 1.20247
 C3609 C 1.08199 0.89620 1.21538
 C3610 C 1.08769 0.88683 1.23377
 C3611 C 1.06159 0.89722 1.20967
 C3612 C 1.05602 0.90622 1.19121
 C3613 C 1.07074 0.91412 1.17785
 C3614 C 1.09124 0.91340 1.18377
 H3615 H 1.10269 0.86966 1.26765
 H3616 H 1.15488 0.90206 1.22362
 H3617 H 1.16474 0.88638 1.25586
 H3618 H 1.12879 0.91086 1.19863
 H3619 H 1.07622 0.88015 1.24354
 H3620 H 1.04990 0.89107 1.21948
 H3621 H 1.04008 0.90699 1.18743
 H3622 H 1.10285 0.91920 1.17366
 C3623 C 1.11168 0.38248 0.75611
 C3624 C 1.10102 0.38789 0.73845
 C3625 C 1.08001 0.39173 0.73944
 C3626 C 1.06999 0.38976 0.75808
 C3627 C 1.08070 0.38420 0.77559
 C3628 C 1.10165 0.38066 0.77480
 C3629 C 1.06943 0.39767 0.72185
 C3630 C 1.07965 0.39990 0.70332
 C3631 C 1.10061 0.39568 0.70233
 C3632 C 1.11112 0.38963 0.71985
 C3633 C 1.11087 0.39799 0.68390
 C3634 C 1.10066 0.40509 0.66673
 C3635 C 1.07999 0.40989 0.66761
 C3636 C 1.06941 0.40680 0.68585
 H3637 H 1.12776 0.37948 0.75521
 H3638 H 1.05389 0.39261 0.75915
 H3639 H 1.07262 0.38297 0.78981
 H3640 H 1.05336 0.40082 0.72266
 H3641 H 1.12722 0.38659 0.71907
 H3642 H 1.12689 0.39470 0.68285
 H3643 H 1.10901 0.40711 0.65273
 H3644 H 1.05348 0.41057 0.68663
 C3645 C 0.61948 0.89530 0.75636
 C3646 C 0.60931 0.90120 0.73848
 C3647 C 0.58796 0.90282 0.73845
 C3648 C 0.57716 0.89861 0.75624
 C3649 C 0.58733 0.89255 0.77383
 C3650 C 0.60852 0.89068 0.77407
 C3651 C 0.57769 0.90856 0.72066
 C3652 C 0.58847 0.91280 0.70284
 C3653 C 0.60983 0.91118 0.70281
 C3654 C 0.62010 0.90533 0.72060
 C3655 C 0.62057 0.91568 0.68502
 C3656 C 0.61033 0.92218 0.66759
 C3657 C 0.58915 0.92407 0.66755
 C3658 C 0.57826 0.91902 0.68513
 H3659 H 0.63580 0.89376 0.75633
 H3660 H 0.56082 0.89986 0.75652
 H3661 H 0.57853 0.88935 0.78732
 H3662 H 0.56133 0.90983 0.72072
 H3663 H 0.63646 0.90410 0.72055
 H3664 H 0.63691 0.91446 0.68467
 H3665 H 0.61896 0.92590 0.65411
 H3666 H 0.56194 0.92064 0.68522
 C3667 C 0.61310 0.40500 1.26673
 C3668 C 0.60188 0.40966 1.24917
 C3669 C 0.58073 0.41250 1.25048
 C3670 C 0.57116 0.41059 1.26929
 C3671 C 0.58229 0.40545 1.28659
 C3672 C 0.60338 0.40232 1.28558
 C3673 C 0.56946 0.41712 1.23298
 C3674 C 0.57907 0.41888 1.21411
 C3675 C 0.60021 0.41579 1.21275
 C3676 C 0.61146 0.41121 1.23026
 C3677 C 0.60983 0.41770 1.19392
 C3678 C 0.59876 0.42336 1.17675
 C3679 C 0.57787 0.42696 1.17805
 C3680 C 0.56797 0.42422 1.19666
 H3681 H 0.62923 0.40260 1.26537
 H3682 H 0.55498 0.41284 1.27061
 H3683 H 0.57420 0.40409 1.30077
 H3684 H 0.55326 0.41945 1.23406
 H3685 H 0.62767 0.40895 1.22919
 H3686 H 0.62598 0.41531 1.19257
 H3687 H 0.60659 0.42540 1.16245
 H3688 H 0.55189 0.42721 1.19771
 C3689 C 0.88249 1.10943 1.25080
 C3690 C 0.89396 1.10203 1.23458
 C3691 C 0.91524 1.10067 1.23646
 C3692 C 0.92469 1.10691 1.25449
 C3693 C 0.91318 1.11456 1.27045
 C3694 C 0.89202 1.11586 1.26876
 C3695 C 0.92672 1.09315 1.22029
 C3696 C 0.91718 1.08707 1.20222
 C3697 C 0.89590 1.08870 1.20031
 C3698 C 0.88445 1.09615 1.21648
 C3699 C 0.88636 1.08268 1.18228
 C3700 C 0.89771 1.07466 1.16645
 C3701 C 0.91879 1.07253 1.16832
 C3702 C 0.92852 1.07909 1.18613
 H3703 H 0.86620 1.11067 1.24923
 H3704 H 0.94098 1.10600 1.25620
 H3705 H 0.92086 1.11935 1.28419
 H3706 H 0.94303 1.09197 1.22178
 H3707 H 0.86813 1.09730 1.21499
 H3708 H 0.87011 1.08397 1.18050
 H3709 H 0.88996 1.06999 1.15269
 H3710 H 0.94477 1.07741 1.18768
 C3711 C 0.88952 0.61705 0.74998
 C3712 C 0.89674 0.60771 0.73236
 C3713 C 0.88286 0.59981 0.71796
 C3714 C 0.86202 0.60104 0.72164
 C3715 C 0.85497 0.60993 0.73948
 C3716 C 0.86865 0.61809 0.75369
 C3717 C 0.89004 0.59065 0.70023
 C3718 C 0.91092 0.58888 0.69696
 C3719 C 0.92478 0.59638 0.71156
 C3720 C 0.91761 0.60593 0.72909
 C3721 C 0.94561 0.59414 0.70841
 C3722 C 0.95267 0.58464 0.69090
 C3723 C 0.93905 0.57740 0.67610
 C3724 C 0.91814 0.57965 0.67928
 H3725 H 0.90016 0.62303 0.76105
 H3726 H 0.85118 0.59500 0.71080
 H3727 H 0.83882 0.61065 0.74208
 H3728 H 0.87941 0.58473 0.68910
 H3729 H 0.92824 0.61182 0.74023
 H3730 H 0.95644 0.59967 0.71952
 H3731 H 0.96883 0.58285 0.68900
 H3732 H 0.90742 0.57453 0.66786
 C3733 C 0.37991 1.11097 0.75668
 C3734 C 0.39144 1.10353 0.74042
 C3735 C 0.41278 1.10546 0.74083
 C3736 C 0.42219 1.11501 0.75738
 C3737 C 0.41061 1.12276 0.77325
 C3738 C 0.38941 1.12083 0.77309
 C3739 C 0.42434 1.09796 0.72466
 C3740 C 0.41484 1.08884 0.70787
 C3741 C 0.39347 1.08726 0.70734
 C3742 C 0.38194 1.09445 0.72364
 C3743 C 0.38393 1.07859 0.69043
 C3744 C 0.39537 1.07131 0.67429
 C3745 C 0.41667 1.07224 0.67475
 C3746 C 0.42631 1.08128 0.69158
 H3747 H 0.36356 1.10959 0.75631
 H3748 H 0.43851 1.11665 0.75797
 H3749 H 0.41832 1.13014 0.78578
 H3750 H 0.44071 1.09935 0.72508
 H3751 H 0.36558 1.09310 0.72320
 H3752 H 0.36757 1.07749 0.68964
 H3753 H 0.38745 1.06502 0.66130
 H3754 H 0.44269 1.08213 0.69217
 C3755 C 0.37228 0.61654 1.25146
 C3756 C 0.38294 0.60856 1.23489
 C3757 C 0.40419 0.61103 1.23385
 C3758 C 0.41434 0.62180 1.24920
 C3759 C 0.40357 0.63004 1.26542
 C3760 C 0.38250 0.62739 1.26678
 C3761 C 0.41492 0.60278 1.21746
 C3762 C 0.40462 0.59241 1.20189
 C3763 C 0.38332 0.59038 1.20273
 C3764 C 0.37265 0.59830 1.21928
 C3765 C 0.37300 0.58051 1.18696
 C3766 C 0.38362 0.57256 1.17054
 C3767 C 0.40487 0.57399 1.16963
 C3768 C 0.41526 0.58409 1.18543
 H3769 H 0.35600 0.61464 1.25222
 H3770 H 0.43061 0.62391 1.24864
 H3771 H 0.41181 0.63823 1.27709
 H3772 H 0.43124 0.60455 1.21678
 H3773 H 0.35633 0.59657 1.21994
 H3774 H 0.35666 0.57904 1.18723
 H3775 H 0.37507 0.56547 1.15840
 H3776 H 0.43162 0.58527 1.18509
 C3777 C 1.11917 1.26068 0.89884
 C3778 C 1.10866 1.24311 0.90541
 C3779 C 1.08737 1.24356 0.90735
 C3780 C 1.07694 1.26149 0.90266
 C3781 C 1.08738 1.27873 0.89578
 C3782 C 1.10863 1.27863 0.89356
 C3783 C 1.07678 1.22609 0.91385
 C3784 C 1.08719 1.20803 0.91831
 C3785 C 1.10848 1.20747 0.91620
 C3786 C 1.11908 1.22500 0.90982
 C3787 C 1.11885 1.18939 0.92058
 C3788 C 1.10832 1.17213 0.92732
 C3789 C 1.08718 1.17256 0.92985
 C3790 C 1.07667 1.19055 0.92504
 H3791 H 1.13545 1.26000 0.89723
 H3792 H 1.06063 1.26216 0.90417
 H3793 H 1.07857 1.29219 0.89243
 H3794 H 1.06045 1.22655 0.91538
 H3795 H 1.13541 1.22452 0.90825
 H3796 H 1.13514 1.18861 0.91891
 H3797 H 1.11674 1.15836 0.93060
 H3798 H 1.06040 1.19109 0.92703
 C3799 C 1.12583 0.74611 0.37542
 C3800 C 1.12003 0.72907 0.38716
 C3801 C 1.13436 0.71381 0.39191
 C3802 C 1.15432 0.71605 0.38527
 C3803 C 1.16013 0.73325 0.37412
 C3804 C 1.14603 0.74855 0.36895
 C3805 C 1.12855 0.69652 0.40317
 C3806 C 1.10857 0.69436 0.40997
 C3807 C 1.09436 0.70991 0.40577
 C3808 C 1.10015 0.72712 0.39435
 C3809 C 1.07446 0.70781 0.41274
 C3810 C 1.06845 0.69010 0.42298
 C3811 C 1.08221 0.67415 0.42650
 C3812 C 1.10244 0.67662 0.42042
 H3813 H 1.11470 0.75769 0.37197
 H3814 H 1.16551 0.70451 0.38876
 H3815 H 1.17572 0.73419 0.36927
 H3816 H 1.13951 0.68470 0.40649
 H3817 H 1.08915 0.73889 0.39094
 H3818 H 1.06341 0.71964 0.40985
 H3819 H 1.05284 0.68862 0.42775
 H3820 H 1.11311 0.66435 0.42291
 C3821 C 0.60683 1.26541 0.38749
 C3822 C 0.59580 1.24800 0.39305
 C3823 C 0.57446 1.24875 0.39395
 C3824 C 0.56452 1.26687 0.38881
 C3825 C 0.57563 1.28419 0.38313
 C3826 C 0.59697 1.28379 0.38261
 C3827 C 0.56349 1.23145 0.40021
 C3828 C 0.57367 1.21352 0.40572
 C3829 C 0.59503 1.21274 0.40437
 C3830 C 0.60592 1.22992 0.39794
 C3831 C 0.60525 1.19492 0.40993
 C3832 C 0.59451 1.17822 0.41746
 C3833 C 0.57336 1.17901 0.41945
 C3834 C 0.56293 1.19651 0.41309
 H3835 H 0.62315 1.26434 0.38691
 H3836 H 0.54816 1.26773 0.38933
 H3837 H 0.56732 1.29791 0.37952
 H3838 H 0.54711 1.23208 0.40116
 H3839 H 0.62231 1.22934 0.39713
 H3840 H 0.62159 1.19404 0.40885
 H3841 H 0.60275 1.16468 0.42200
 H3842 H 0.54661 1.19715 0.41466
 C3843 C 0.61214 0.75689 0.88628
 C3844 C 0.60097 0.73989 0.89299
 C3845 C 0.57964 0.74099 0.89417
 C3846 C 0.56986 0.75906 0.88854
 C3847 C 0.58107 0.77593 0.88191
 C3848 C 0.60231 0.77506 0.88072
 C3849 C 0.56846 0.72410 0.90113
 C3850 C 0.57836 0.70619 0.90718
 C3851 C 0.59971 0.70509 0.90590
 C3852 C 0.61085 0.72187 0.89869
 C3853 C 0.60964 0.68731 0.91221
 C3854 C 0.59859 0.67098 0.92021
 C3855 C 0.57743 0.67204 0.92187
 C3856 C 0.56732 0.68953 0.91495
 H3857 H 0.62846 0.75586 0.88529
 H3858 H 0.55353 0.76021 0.88939
 H3859 H 0.57302 0.78971 0.87793
 H3860 H 0.55210 0.72501 0.90213
 H3861 H 0.62721 0.72100 0.89781
 H3862 H 0.62596 0.68617 0.91128
 H3863 H 0.60661 0.65749 0.92528
 H3864 H 0.55100 0.69042 0.91630
 C3865 C 0.88752 1.24803 1.11979
 C3866 C 0.89344 1.22992 1.11016
 C3867 C 0.87867 1.21512 1.10489
 C3868 C 0.85827 1.21873 1.10921
 C3869 C 0.85249 1.23688 1.11849
 C3870 C 0.86699 1.25171 1.12384
 C3871 C 0.88449 1.19699 1.09534
 C3872 C 0.90490 1.19346 1.09088
 C3873 C 0.91965 1.20834 1.09596
 C3874 C 0.91384 1.22645 1.10558
 C3875 C 0.94003 1.20477 1.09146
 C3876 C 0.94582 1.18649 1.08242
 C3877 C 0.93135 1.17141 1.07764
 C3878 C 0.91083 1.17515 1.08167
 H3879 H 0.89881 1.25945 1.12366
 H3880 H 0.84675 1.20756 1.10532
 H3881 H 0.83660 1.23923 1.12162
 H3882 H 0.87314 1.18563 1.09142
 H3883 H 0.92519 1.23779 1.10953
 H3884 H 0.95154 1.21604 1.09513
 H3885 H 0.96169 1.18406 1.07924
 H3886 H 0.89957 1.16356 1.07825
 C3887 C 0.89544 0.75248 0.62704
 C3888 C 0.90214 0.73414 0.61833
 C3889 C 0.88780 0.71932 0.61200
 C3890 C 0.86712 0.72296 0.61457
 C3891 C 0.86060 0.74141 0.62264
 C3892 C 0.87463 0.75638 0.62873
 C3893 C 0.89428 0.70131 0.60270
 C3894 C 0.91491 0.69806 0.59919
 C3895 C 0.92930 0.71279 0.60551
 C3896 C 0.92285 0.73066 0.61521
 C3897 C 0.94990 0.70948 0.60181
 C3898 C 0.95617 0.69181 0.59186
 C3899 C 0.94198 0.67709 0.58546
 C3900 C 0.92133 0.68034 0.58927
 H3901 H 0.90630 0.76410 0.63149
 H3902 H 0.85594 0.71176 0.60983
 H3903 H 0.84450 0.74411 0.62391
 H3904 H 0.88323 0.69003 0.59781
 H3905 H 0.93389 0.74201 0.61995
 H3906 H 0.96116 0.72061 0.60649
 H3907 H 0.97215 0.68975 0.58898
 H3908 H 0.91026 0.66895 0.58473
 C3909 C 0.37790 1.25295 0.61915
 C3910 C 0.38900 1.23579 0.61304
 C3911 C 0.40985 1.23448 0.61772
 C3912 C 0.41908 1.24994 0.62909
 C3913 C 0.40781 1.26652 0.63582
 C3914 C 0.38711 1.26843 0.63081
 C3915 C 0.42113 1.21769 0.61107
 C3916 C 0.41168 1.20183 0.60033
 C3917 C 0.39061 1.20271 0.59650
 C3918 C 0.37948 1.21977 0.60261
 C3919 C 0.38099 1.18648 0.58661
 C3920 C 0.39215 1.16980 0.58003
 C3921 C 0.41333 1.16915 0.58267
 C3922 C 0.42293 1.18514 0.59325
 H3923 H 0.36194 1.25377 0.61541
 H3924 H 0.43502 1.24915 0.63292
 H3925 H 0.41566 1.27811 0.64448
 H3926 H 0.43721 1.21693 0.61437
 H3927 H 0.36339 1.22052 0.59934
 H3928 H 0.36480 1.18668 0.58393
 H3929 H 0.38411 1.15740 0.57270
 H3930 H 0.43918 1.18491 0.59552
 C3931 C 0.37972 0.75148 1.11105
 C3932 C 0.38427 0.73438 1.09921
 C3933 C 0.36851 0.72162 1.09204
 C3934 C 0.34838 0.72680 1.09603
 C3935 C 0.34391 0.74428 1.10724
 C3936 C 0.35951 0.75664 1.11529
 C3937 C 0.37318 0.70382 1.08120
 C3938 C 0.39343 0.69886 1.07720
 C3939 C 0.40906 0.71230 1.08351
 C3940 C 0.40440 0.72987 1.09453
 C3941 C 0.42922 0.70769 1.07920
 C3942 C 0.43403 0.68937 1.06980
 C3943 C 0.41881 0.67521 1.06462
 C3944 C 0.39842 0.68037 1.06767
 H3945 H 0.39204 0.76097 1.11650
 H3946 H 0.33606 0.71730 1.09054
 H3947 H 0.32817 0.74759 1.11015
 H3948 H 0.36111 0.69374 1.07617
 H3949 H 0.41647 0.73986 1.09974
 H3950 H 0.44135 0.71796 1.08367
 H3951 H 0.44982 0.68586 1.06725
 H3952 H 0.38658 0.66955 1.06373
 C3953 C 0.88304 0.74147 0.88194
 C3954 C 0.89353 0.75942 0.88715
 C3955 C 0.90024 0.77292 0.87171
 C3956 C 0.89673 0.76800 0.85130
 C3957 C 0.88679 0.74985 0.84624
 C3958 C 0.87979 0.73652 0.86148
 C3959 C 0.91039 0.79105 0.87689
 C3960 C 0.91415 0.79575 0.89732
 C3961 C 0.90793 0.78195 0.91271
 C3962 C 0.89759 0.76394 0.90755
 C3963 C 0.91190 0.78651 0.93309
 C3964 C 0.92128 0.80489 0.93827
 C3965 C 0.92683 0.81912 0.92320
 C3966 C 0.92365 0.81423 0.90267
 H3967 H 0.87794 0.73107 0.89375
 H3968 H 0.90182 0.77810 0.83926
 H3969 H 0.88441 0.74629 0.83037
 H3970 H 0.91528 0.80151 0.86504
 H3971 H 0.89265 0.75351 0.91940
 H3972 H 0.90744 0.77602 0.94506
 H3973 H 0.92388 0.80818 0.95417
 H3974 H 0.92777 0.82515 0.89094
 C3975 C 0.87133 0.24670 0.38644
 C3976 C 0.87981 0.26551 0.39212
 C3977 C 0.88681 0.27923 0.37700
 C3978 C 0.88536 0.27384 0.35648
 C3979 C 0.87752 0.25482 0.35101
 C3980 C 0.87052 0.24114 0.36592
 C3981 C 0.89555 0.29791 0.38262
 C3982 C 0.89791 0.30281 0.40319
 C3983 C 0.89118 0.28897 0.41831
 C3984 C 0.88195 0.27052 0.41269
 C3985 C 0.89397 0.29375 0.43884
 C3986 C 0.90326 0.31209 0.44436
 C3987 C 0.90975 0.32612 0.42947
 C3988 C 0.90701 0.32131 0.40886
 H3989 H 0.86621 0.23602 0.39799
 H3990 H 0.89068 0.28414 0.34470
 H3991 H 0.87696 0.25075 0.33510
 H3992 H 0.90085 0.30845 0.37101
 H3993 H 0.87677 0.25994 0.42430
 H3994 H 0.88906 0.28326 0.45064
 H3995 H 0.90547 0.31526 0.46034
 H3996 H 0.91168 0.33210 0.39723
 C3997 C 0.39151 0.74521 0.38119
 C3998 C 0.39900 0.76210 0.39193
 C3999 C 0.39654 0.76310 0.41321
 C4000 C 0.38610 0.74744 0.42331
 C4001 C 0.37789 0.73112 0.41241
 C4002 C 0.38052 0.72971 0.39121
 C4003 C 0.40426 0.77989 0.42398
 C4004 C 0.41373 0.79606 0.41361
 C4005 C 0.41548 0.79534 0.39223
 C4006 C 0.40844 0.77825 0.38158
 C4007 C 0.42405 0.81185 0.38176
 C4008 C 0.43108 0.82884 0.39234
 C4009 C 0.43025 0.82951 0.41372
 C4010 C 0.42135 0.81301 0.42424
 H4011 H 0.39343 0.74480 0.36487
 H4012 H 0.38399 0.74797 0.43961
 H4013 H 0.36983 0.71941 0.42080
 H4014 H 0.40257 0.78052 0.44035
 H4015 H 0.41001 0.77767 0.36519
 H4016 H 0.42515 0.81171 0.36534
 H4017 H 0.43708 0.84155 0.38365
 H4018 H 0.42057 0.81320 0.44067
 C4019 C 0.39009 0.24683 0.88111
 C4020 C 0.39694 0.26463 0.89082
 C4021 C 0.38294 0.27997 0.89604
 C4022 C 0.36242 0.27733 0.89138
 C4023 C 0.35572 0.25960 0.88177
 C4024 C 0.36940 0.24411 0.87662
 C4025 C 0.38964 0.29770 0.90586
 C4026 C 0.41019 0.30035 0.91051
 C4027 C 0.42425 0.28509 0.90525
 C4028 C 0.41754 0.26730 0.89547
 C4029 C 0.44483 0.28797 0.90976
 C4030 C 0.45142 0.30583 0.91930
 C4031 C 0.43754 0.32106 0.92461
 C4032 C 0.41691 0.31816 0.92019
 H4033 H 0.40085 0.23505 0.87736
 H4034 H 0.35151 0.28897 0.89520
 H4035 H 0.33977 0.25815 0.87829
 H4036 H 0.37886 0.30943 0.90987
 H4037 H 0.42832 0.25558 0.89146
 H4038 H 0.45583 0.27646 0.90583
 H4039 H 0.46738 0.30772 0.92261
 H4040 H 0.40613 0.32999 0.92387
 C4041 C 1.11896 0.74234 1.11532
 C4042 C 1.11299 0.75962 1.10429
 C4043 C 1.11719 0.76106 1.08332
 C4044 C 1.12831 0.74559 1.07398
 C4045 C 1.13488 0.72872 1.08525
 C4046 C 1.12989 0.72663 1.10596
 C4047 C 1.11015 0.77787 1.07208
 C4048 C 1.09942 0.79348 1.08174
 C4049 C 1.09629 0.79247 1.10297
 C4050 C 1.10289 0.77548 1.11405
 C4051 C 1.08643 0.80838 1.11283
 C4052 C 1.07902 0.82484 1.10172
 C4053 C 1.08081 0.82553 1.08041
 C4054 C 1.09151 0.80996 1.07055
 H4055 H 1.11548 0.74154 1.13136
 H4056 H 1.13189 0.74651 1.05796
 H4057 H 1.14323 0.71700 1.07742
 H4058 H 1.11294 0.77877 1.05588
 H4059 H 1.10006 0.77457 1.13025
 H4060 H 1.08433 0.80805 1.12915
 H4061 H 1.07165 0.83701 1.10988
 H4062 H 1.09316 0.81032 1.05419
 C4063 C 1.11118 0.23746 0.61905
 C4064 C 1.10454 0.25473 0.60813
 C4065 C 1.11877 0.26742 0.59815
 C4066 C 1.13931 0.26241 0.59888
 C4067 C 1.14576 0.24497 0.60926
 C4068 C 1.13188 0.23220 0.61960
 C4069 C 1.11227 0.28489 0.58756
 C4070 C 1.09161 0.28968 0.58647
 C4071 C 1.07731 0.27667 0.59598
 C4072 C 1.08385 0.25939 0.60685
 C4073 C 1.05667 0.28122 0.59454
 C4074 C 1.05025 0.29872 0.58426
 C4075 C 1.06430 0.31224 0.57531
 C4076 C 1.08503 0.30738 0.57624
 H4077 H 1.10007 0.22789 0.62657
 H4078 H 1.15044 0.27196 0.59131
 H4079 H 1.16181 0.24186 0.60942
 H4080 H 1.12327 0.29472 0.58014
 H4081 H 1.07285 0.24958 0.61429
 H4082 H 1.04547 0.27130 0.60152
 H4083 H 1.03418 0.30178 0.58344
 H4084 H 1.09609 0.31767 0.56957
 C4085 C 0.62298 0.74863 0.60916
 C4086 C 0.61424 0.76707 0.60273
 C4087 C 0.60822 0.78159 0.61731
 C4088 C 0.61099 0.77743 0.63801
 C4089 C 0.61949 0.75898 0.64427
 C4090 C 0.62552 0.74440 0.62996
 C4091 C 0.59944 0.80000 0.61101
 C4092 C 0.59644 0.80405 0.59030
 C4093 C 0.60234 0.78952 0.57569
 C4094 C 0.61125 0.77114 0.58199
 C4095 C 0.59925 0.79366 0.55500
 C4096 C 0.59050 0.81205 0.54883
 C4097 C 0.58467 0.82664 0.56323
 C4098 C 0.58767 0.82247 0.58398
 H4099 H 0.62740 0.73744 0.59798
 H4100 H 0.60651 0.78840 0.64938
 H4101 H 0.62147 0.75624 0.66037
 H4102 H 0.59487 0.81112 0.62222
 H4103 H 0.61580 0.76001 0.57078
 H4104 H 0.60361 0.78268 0.54359
 H4105 H 0.58816 0.81482 0.53277
 H4106 H 0.58353 0.83373 0.59521
 C4107 C 0.61355 0.24478 1.11898
 C4108 C 0.60664 0.26231 1.10885
 C4109 C 0.60614 0.26284 1.08737
 C4110 C 0.61263 0.24584 1.07641
 C4111 C 0.61981 0.22858 1.08660
 C4112 C 0.62040 0.22791 1.10793
 C4113 C 0.59934 0.28039 1.07720
 C4114 C 0.59317 0.29749 1.08824
 C4115 C 0.59381 0.29700 1.10972
 C4116 C 0.60049 0.27942 1.11988
 C4117 C 0.58770 0.31411 1.12072
 C4118 C 0.58072 0.33145 1.11058
 C4119 C 0.57976 0.33203 1.08925
 C4120 C 0.58623 0.31506 1.07814
 H4121 H 0.61418 0.24453 1.13543
 H4122 H 0.61237 0.24596 1.05995
 H4123 H 0.62489 0.21572 1.07775
 H4124 H 0.59890 0.28074 1.06073
 H4125 H 0.60096 0.27907 1.13635
 H4126 H 0.58821 0.31405 1.13718
 H4127 H 0.57607 0.34448 1.11944
 H4128 H 0.58540 0.31536 1.06169
 C4129 C 1.25208 1.11318 0.87483
 C4130 C 1.23464 1.10727 0.88566
 C4131 C 1.21904 1.12157 0.88893
 C4132 C 1.22097 1.14139 0.88109
 C4133 C 1.23838 1.14719 0.87054
 C4134 C 1.25421 1.13329 0.86752
 C4135 C 1.20178 1.11590 0.90002
 C4136 C 1.19977 1.09602 0.90779
 C4137 C 1.21530 1.08165 0.90441
 C4138 C 1.23265 1.08738 0.89346
 C4139 C 1.21305 1.06165 0.91175
 C4140 C 1.19539 1.05578 0.92186
 C4141 C 1.17980 1.06986 0.92514
 C4142 C 1.18224 1.09011 0.91842
 H4143 H 1.26420 1.10234 0.87270
 H4144 H 1.20911 1.15250 0.88330
 H4145 H 1.23946 1.16266 0.86479
 H4146 H 1.18987 1.12693 0.90250
 H4147 H 1.24453 1.07634 0.89091
 H4148 H 1.22474 1.05042 0.90927
 H4149 H 1.19370 1.04008 0.92686
 H4150 H 1.17013 1.10095 0.92066
 C4151 C 1.25180 0.60644 0.37448
 C4152 C 1.23370 0.59997 0.38373
 C4153 C 1.22024 0.61462 0.39166
 C4154 C 1.22509 0.63542 0.39030
 C4155 C 1.24337 0.64165 0.38168
 C4156 C 1.25687 0.62726 0.37383
 C4157 C 1.20235 0.60829 0.40122
 C4158 C 1.19791 0.58745 0.40340
 C4159 C 1.21140 0.57276 0.39567
 C4160 C 1.22912 0.57911 0.38570
 C4161 C 1.20699 0.55195 0.39816
 C4162 C 1.18935 0.54575 0.40814
 C4163 C 1.17573 0.56023 0.41575
 C4164 C 1.18018 0.58111 0.41330
 H4165 H 1.26233 0.59529 0.36866
 H4166 H 1.21497 0.64684 0.39630
 H4167 H 1.24702 0.65779 0.38123
 H4168 H 1.19206 0.61956 0.40726
 H4169 H 1.23948 0.56783 0.37977
 H4170 H 1.21720 0.54046 0.39243
 H4171 H 1.18641 0.52957 0.41001
 H4172 H 1.16968 0.59244 0.41880
 C4173 C 0.75300 1.12220 0.38248
 C4174 C 0.73408 1.11434 0.38833
 C4175 C 0.72029 1.10742 0.37336
 C4176 C 0.72576 1.10829 0.35283
 C4177 C 0.74470 1.11593 0.34715
 C4178 C 0.75846 1.12304 0.36187
 C4179 C 0.70131 1.09971 0.37915
 C4180 C 0.69601 1.09861 0.39975
 C4181 C 0.70990 1.10531 0.41472
 C4182 C 0.72880 1.11320 0.40892
 C4183 C 0.70465 1.10396 0.43529
 C4184 C 0.68583 1.09606 0.44100
 C4185 C 0.67179 1.08948 0.42628
 C4186 C 0.67705 1.09087 0.40561
 H4187 H 0.76355 1.12739 0.39400
 H4188 H 0.71539 1.10305 0.34115
 H4189 H 0.74845 1.11656 0.33117
 H4190 H 0.69071 1.09448 0.36765
 H4191 H 0.73941 1.11841 0.42043
 H4192 H 0.71515 1.10892 0.44697
 H4193 H 0.68238 1.09486 0.45703
 H4194 H 0.66630 1.08615 0.39405
 C4195 C 0.75465 0.62322 0.89240
 C4196 C 0.73847 0.61258 0.90146
 C4197 C 0.73853 0.59097 0.90191
 C4198 C 0.75463 0.58039 0.89316
 C4199 C 0.77030 0.59107 0.88364
 C4200 C 0.77042 0.61250 0.88313
 C4201 C 0.72231 0.58026 0.91070
 C4202 C 0.70571 0.59083 0.91853
 C4203 C 0.70550 0.61240 0.91782
 C4204 C 0.72197 0.62315 0.90954
 C4205 C 0.68864 0.62288 0.92515
 C4206 C 0.67211 0.61212 0.93300
 C4207 C 0.67218 0.59064 0.93403
 C4208 C 0.68917 0.58012 0.92678
 H4209 H 0.75455 0.63976 0.89179
 H4210 H 0.75490 0.56386 0.89332
 H4211 H 0.78238 0.58254 0.87663
 H4212 H 0.72243 0.56370 0.91106
 H4213 H 0.72178 0.63970 0.90902
 H4214 H 0.68811 0.63940 0.92455
 H4215 H 0.65910 0.62069 0.93798
 H4216 H 0.68959 0.56360 0.92762
 C4217 C 1.25281 0.87586 1.12227
 C4218 C 1.23655 0.88698 1.11429
 C4219 C 1.23615 0.90842 1.11634
 C4220 C 1.25201 0.91833 1.12659
 C4221 C 1.26820 0.90712 1.13452
 C4222 C 1.26888 0.88576 1.13235
 C4223 C 1.21998 0.91956 1.10803
 C4224 C 1.20421 0.90945 1.09774
 C4225 C 1.20459 0.88795 1.09596
 C4226 C 1.22074 0.87688 1.10419
 C4227 C 1.18880 0.87778 1.08596
 C4228 C 1.17281 0.88877 1.07758
 C4229 C 1.17234 0.91020 1.07880
 C4230 C 1.18809 0.92045 1.08910
 H4231 H 1.25289 0.85948 1.12040
 H4232 H 1.25194 0.93475 1.12842
 H4233 H 1.28017 0.91529 1.14230
 H4234 H 1.21973 0.93604 1.10952
 H4235 H 1.22103 0.86041 1.10266
 H4236 H 1.18878 0.86130 1.08463
 H4237 H 1.16066 0.88039 1.07026
 H4238 H 1.18797 0.93696 1.09012
 C4239 C 1.25605 0.37253 0.60429
 C4240 C 1.23905 0.38226 0.59574
 C4241 C 1.23938 0.40365 0.59262
 C4242 C 1.25671 0.41489 0.59780
 C4243 C 1.27337 0.40518 0.60652
 C4244 C 1.27316 0.38401 0.61010
 C4245 C 1.22231 0.41355 0.58468
 C4246 C 1.20475 0.40241 0.57996
 C4247 C 1.20442 0.38101 0.58287
 C4248 C 1.22158 0.37105 0.59067
 C4249 C 1.18683 0.36994 0.57809
 C4250 C 1.16971 0.37997 0.57062
 C4251 C 1.16981 0.40127 0.56780
 C4252 C 1.18747 0.41239 0.57249
 H4253 H 1.25566 0.35622 0.60707
 H4254 H 1.25727 0.43126 0.59541
 H4255 H 1.28644 0.41436 0.61054
 H4256 H 1.22260 0.42997 0.58242
 H4257 H 1.22125 0.35465 0.59303
 H4258 H 1.18625 0.35354 0.58025
 H4259 H 1.15623 0.37109 0.56735
 H4260 H 1.18779 0.42878 0.57018
 C4261 C 0.75488 0.88794 0.61090
 C4262 C 0.73834 0.89548 0.59986
 C4263 C 0.73785 0.89361 0.57847
 C4264 C 0.75370 0.88361 0.56858
 C4265 C 0.76987 0.87562 0.57977
 C4266 C 0.77068 0.87795 0.60095
 C4267 C 0.72154 0.90169 0.56738
 C4268 C 0.70550 0.91122 0.57748
 C4269 C 0.70574 0.91238 0.59893
 C4270 C 0.72221 0.90470 0.60995
 C4271 C 0.68948 0.92122 0.60909
 C4272 C 0.67329 0.92926 0.59814
 C4273 C 0.67316 0.92904 0.57675
 C4274 C 0.68926 0.91968 0.56651
 H4275 H 0.75528 0.88946 0.62729
 H4276 H 0.75354 0.88188 0.55222
 H4277 H 0.78195 0.86793 0.57186
 H4278 H 0.72129 0.90051 0.55096
 H4279 H 0.72245 0.90586 0.62638
 H4280 H 0.68927 0.92192 0.62553
 H4281 H 0.66079 0.93567 0.60652
 H4282 H 0.68938 0.91934 0.55006
 C4283 C 0.75242 0.38898 1.12950
 C4284 C 0.73663 0.39821 1.11849
 C4285 C 0.73657 0.39742 1.09702
 C4286 C 0.75223 0.38737 1.08694
 C4287 C 0.76756 0.37780 1.09801
 C4288 C 0.76776 0.37843 1.11933
 C4289 C 0.72070 0.40633 1.08596
 C4290 C 0.70457 0.41559 1.09609
 C4291 C 0.70451 0.41622 1.11756
 C4292 C 0.72064 0.40774 1.12861
 C4293 C 0.68815 0.42506 1.12764
 C4294 C 0.67192 0.43305 1.11660
 C4295 C 0.67180 0.43266 1.09522
 C4296 C 0.68833 0.42395 1.08509
 H4297 H 0.75235 0.38934 1.14596
 H4298 H 0.75244 0.38661 1.07051
 H4299 H 0.77933 0.36988 1.08985
 H4300 H 0.72070 0.40570 1.06950
 H4301 H 0.72055 0.40823 1.14508
 H4302 H 0.68776 0.42553 1.14408
 H4303 H 0.65925 0.43920 1.12490
 H4304 H 0.68859 0.42370 1.06864
 C4305 C 0.75096 1.11235 1.11679
 C4306 C 0.76855 1.10581 1.10697
 C4307 C 0.78267 1.12040 1.09966
 C4308 C 0.77871 1.14128 1.10191
 C4309 C 0.76087 1.14764 1.11120
 C4310 C 0.74707 1.13322 1.11880
 C4311 C 0.80040 1.11389 1.09009
 C4312 C 0.80400 1.09300 1.08738
 C4313 C 0.78961 1.07847 1.09421
 C4314 C 0.77206 1.08495 1.10410
 C4315 C 0.79306 1.05765 1.09113
 C4316 C 0.81081 1.05122 1.08178
 C4317 C 0.82553 1.06546 1.07547
 C4318 C 0.82187 1.08640 1.07810
 H4319 H 0.74004 1.10128 1.12241
 H4320 H 0.78927 1.15266 1.09627
 H4321 H 0.75784 1.16381 1.11253
 H4322 H 0.81134 1.12506 1.08469
 H4323 H 0.76113 1.07378 1.10951
 H4324 H 0.78211 1.04632 1.09608
 H4325 H 0.81310 1.03502 1.07961
 H4326 H 0.83318 1.09753 1.07352
 C4327 C 0.75166 0.61976 0.62427
 C4328 C 0.76868 0.61347 0.61312
 C4329 C 0.76779 0.61304 0.59166
 C4330 C 0.75000 0.61903 0.58171
 C4331 C 0.73330 0.62553 0.59285
 C4332 C 0.73390 0.62600 0.61420
 C4333 C 0.78467 0.60664 0.58046
 C4334 C 0.80253 0.60070 0.59043
 C4335 C 0.80348 0.60136 0.61189
 C4336 C 0.78660 0.60772 0.62308
 C4337 C 0.82127 0.59543 0.62187
 C4338 C 0.83777 0.58839 0.61080
 C4339 C 0.83692 0.58716 0.58948
 C4340 C 0.81933 0.59374 0.57934
 H4341 H 0.75241 0.62023 0.64070
 H4342 H 0.74901 0.61879 0.56528
 H4343 H 0.71980 0.63005 0.58467
 H4344 H 0.78387 0.60621 0.56401
 H4345 H 0.78738 0.60811 0.63953
 H4346 H 0.82235 0.59597 0.63829
 H4347 H 0.85124 0.58367 0.61895
 H4348 H 0.81848 0.59277 0.56292
 C4349 C 0.25000 1.11457 0.61563
 C4350 C 0.26649 1.10290 0.60915
 C4351 C 0.26408 1.08165 0.60611
 C4352 C 0.24527 1.07242 0.60977
 C4353 C 0.22908 1.08406 0.61662
 C4354 C 0.23131 1.10518 0.61963
 C4355 C 0.28050 1.06996 0.59953
 C4356 C 0.29934 1.07923 0.59602
 C4357 C 0.30181 1.10044 0.59936
 C4358 C 0.28539 1.11212 0.60589
 C4359 C 0.32060 1.10972 0.59578
 C4360 C 0.33660 1.09828 0.58826
 C4361 C 0.33415 1.07734 0.58432
 C4362 C 0.31564 1.06775 0.58871
 H4363 H 0.25190 1.13081 0.61819
 H4364 H 0.24313 1.05617 0.60753
 H4365 H 0.21474 1.07654 0.61957
 H4366 H 0.27858 1.05371 0.59704
 H4367 H 0.28729 1.12839 0.60831
 H4368 H 0.32280 1.12591 0.59836
 H4369 H 0.35086 1.10587 0.58508
 H4370 H 0.31368 1.05163 0.58555
 C4371 C 0.24469 0.61032 1.11771
 C4372 C 0.26097 0.59936 1.10990
 C4373 C 0.26169 0.57794 1.11247
 C4374 C 0.24642 0.56800 1.12358
 C4375 C 0.23033 0.57914 1.13160
 C4376 C 0.22917 0.60029 1.12833
 C4377 C 0.27755 0.56687 1.10375
 C4378 C 0.29279 0.57704 1.09277
 C4379 C 0.29235 0.59856 1.09094
 C4380 C 0.27641 0.60955 1.09939
 C4381 C 0.30785 0.60879 1.08058
 C4382 C 0.32354 0.59785 1.07184
 C4383 C 0.32388 0.57638 1.07287
 C4384 C 0.30843 0.56608 1.08354
 H4385 H 0.24407 0.62672 1.11549
 H4386 H 0.24680 0.55161 1.12587
 H4387 H 0.21849 0.57116 1.13979
 H4388 H 0.27798 0.55040 1.10542
 H4389 H 0.27595 0.62602 1.09769
 H4390 H 0.30789 0.62529 1.07932
 H4391 H 0.33555 0.60631 1.06441
 H4392 H 0.30839 0.54957 1.08445
 C4393 C 0.74479 0.88684 0.87637
 C4394 C 0.76320 0.89189 0.88590
 C4395 C 0.77664 0.87625 0.89194
 C4396 C 0.77130 0.85580 0.88851
 C4397 C 0.75275 0.85089 0.87940
 C4398 C 0.73934 0.86632 0.87323
 C4399 C 0.79509 0.88130 0.90142
 C4400 C 0.80016 0.90180 0.90516
 C4401 C 0.78652 0.91738 0.89937
 C4402 C 0.76822 0.91234 0.88971
 C4403 C 0.79144 0.93780 0.90325
 C4404 C 0.80984 0.94287 0.91242
 C4405 C 0.82380 0.92764 0.91787
 C4406 C 0.81871 0.90704 0.91443
 H4407 H 0.73444 0.89886 0.87195
 H4408 H 0.78137 0.84360 0.89305
 H4409 H 0.74892 0.83497 0.87709
 H4410 H 0.80544 0.86930 0.90593
 H4411 H 0.75785 0.92434 0.88521
 H4412 H 0.78110 0.94991 0.89905
 H4413 H 0.81322 0.95881 0.91521
 H4414 H 0.82938 0.89516 0.91842
 C4415 C 0.74387 0.38887 0.38037
 C4416 C 0.76023 0.39615 0.39201
 C4417 C 0.75997 0.39393 0.41340
 C4418 C 0.74362 0.38399 0.42272
 C4419 C 0.72762 0.37644 0.41102
 C4420 C 0.72750 0.37897 0.38980
 C4421 C 0.77599 0.40171 0.42512
 C4422 C 0.79247 0.41142 0.41573
 C4423 C 0.79301 0.41306 0.39431
 C4424 C 0.77686 0.40554 0.38260
 C4425 C 0.80970 0.42228 0.38491
 C4426 C 0.82550 0.43020 0.39660
 C4427 C 0.82486 0.42938 0.41797
 C4428 C 0.80835 0.41966 0.42742
 H4429 H 0.74400 0.39065 0.36399
 H4430 H 0.74319 0.38206 0.43907
 H4431 H 0.71511 0.36897 0.41865
 H4432 H 0.77563 0.40022 0.44154
 H4433 H 0.77723 0.40703 0.36619
 H4434 H 0.81053 0.42339 0.36851
 H4435 H 0.83831 0.43698 0.38882
 H4436 H 0.80762 0.41890 0.44385
 C4437 C 0.25623 0.87846 0.37736
 C4438 C 0.27344 0.88481 0.38819
 C4439 C 0.28992 0.87134 0.39067
 C4440 C 0.28885 0.85173 0.38234
 C4441 C 0.27165 0.84551 0.37160
 C4442 C 0.25518 0.85878 0.36898
 C4443 C 0.30725 0.87773 0.40128
 C4444 C 0.30841 0.89752 0.40921
 C4445 C 0.29188 0.91098 0.40680
 C4446 C 0.27445 0.90448 0.39644
 C4447 C 0.29326 0.93089 0.41439
 C4448 C 0.31107 0.93763 0.42371
 C4449 C 0.32763 0.92447 0.42591
 C4450 C 0.32608 0.90429 0.41899
 H4451 H 0.24361 0.88881 0.37570
 H4452 H 0.30135 0.84122 0.38407
 H4453 H 0.27136 0.83033 0.36522
 H4454 H 0.31993 0.86743 0.40307
 H4455 H 0.26182 0.91483 0.39452
 H4456 H 0.28075 0.94139 0.41269
 H4457 H 0.31205 0.95324 0.42898
 H4458 H 0.33897 0.89420 0.42041
 C4459 C 0.24855 0.37557 0.88165
 C4460 C 0.26593 0.38632 0.88807
 C4461 C 0.26648 0.40788 0.88664
 C4462 C 0.24983 0.41827 0.87848
 C4463 C 0.23282 0.40746 0.87177
 C4464 C 0.23195 0.38606 0.87334
 C4465 C 0.28364 0.41872 0.89335
 C4466 C 0.30042 0.40828 0.90130
 C4467 C 0.30003 0.38671 0.90229
 C4468 C 0.28280 0.37588 0.89577
 C4469 C 0.31687 0.37627 0.90994
 C4470 C 0.33374 0.38706 0.91699
 C4471 C 0.33415 0.40856 0.91672
 C4472 C 0.31748 0.41907 0.90849
 H4473 H 0.24812 0.35905 0.88273
 H4474 H 0.24998 0.43476 0.87723
 H4475 H 0.22018 0.41592 0.86557
 H4476 H 0.28392 0.43525 0.89241
 H4477 H 0.28251 0.35935 0.89672
 H4478 H 0.31696 0.35974 0.91061
 H4479 H 0.34653 0.37851 0.92276
 H4480 H 0.31753 0.43562 0.90823
   
