data_POSCAR
  _audit_creation_date              2014-09-24
  _audit_creation_method            'ToBaCCo'
  _symmetry_space_group_name_H-M    'P1'
  _symmetry_Int_Tables_number       1
  _symmetry_cell_setting            triclinic
  loop_
  _symmetry_equiv_pos_as_xyz
 x,y,z
_cell_length_a 43.8510
_cell_length_b 43.8626
_cell_length_c 43.8834
_cell_angle_alpha 89.971100
_cell_angle_beta 90.108400
_cell_angle_gamma 89.964400
loop_
  _atom_site_label
  _atom_site_type_symbol
  _atom_site_fract_x
  _atom_site_fract_y
  _atom_site_fract_z
C1 C 0.25292 1.08056 -0.00093
 C2 C 0.25732 1.06424 0.02601
 C3 C 0.25743 1.03235 0.02550
 C4 C 0.25116 1.01621 -0.00175
 C5 C 0.24605 1.03330 -0.02865
 C6 C 0.24777 1.06519 -0.02831
 C7 C 0.24980 0.98195 -0.00193
 C8 C 0.25347 0.96513 -0.02922
 C9 C 0.25161 0.93324 -0.02915
 C10 C 0.24779 0.91759 -0.00169
 C11 C 0.24483 0.93368 0.02558
 C12 C 0.24484 0.96553 0.02537
 H13 H 0.25347 1.10533 -0.00059
 H14 H 0.26254 1.02054 0.04651
 H15 H 0.24049 1.02223 -0.04995
 H16 H 0.25799 0.97636 -0.05066
 H17 H 0.24715 0.89286 -0.00154
 H18 H 0.24081 0.97706 0.04673
 C19 C 0.75432 0.57816 0.49784
 C20 C 0.75872 0.56190 0.52478
 C21 C 0.75843 0.53003 0.52442
 C22 C 0.75181 0.51384 0.49728
 C23 C 0.74672 0.53090 0.47035
 C24 C 0.74879 0.56275 0.47059
 C25 C 0.75005 0.47959 0.49722
 C26 C 0.75317 0.46266 0.46993
 C27 C 0.75094 0.43079 0.47010
 C28 C 0.74726 0.41525 0.49765
 C29 C 0.74484 0.43146 0.52492
 C30 C 0.74525 0.46330 0.52462
 H31 H 0.75514 0.60289 0.49807
 H32 H 0.76350 0.51834 0.54550
 H33 H 0.74090 0.51991 0.44910
 H34 H 0.75756 0.47377 0.44841
 H35 H 0.74632 0.39054 0.49788
 H36 H 0.74166 0.47493 0.54601
 C37 C 0.74964 0.99782 1.07892
 C38 C 0.74657 0.97027 1.06332
 C39 C 0.74601 0.96999 1.03137
 C40 C 0.75026 0.99725 1.01454
 C41 C 0.75446 1.02468 1.03101
 C42 C 0.75315 1.02503 1.06284
 C43 C 0.75026 0.99725 0.98023
 C44 C 0.74512 1.02450 0.96367
 C45 C 0.74644 1.02488 0.93184
 C46 C 0.75089 0.99775 0.91583
 C47 C 0.75490 0.97034 0.93156
 C48 C 0.75546 0.97017 0.96348
 H49 H 0.74929 0.99810 1.10367
 H50 H 0.74205 0.94847 1.02009
 H51 H 0.75892 1.04601 1.01953
 H52 H 0.73991 1.04570 0.97502
 H53 H 0.75121 0.99797 0.89111
 H54 H 0.76017 0.94879 0.97476
 C55 C 0.24943 0.49902 0.57869
 C56 C 0.24599 0.47152 0.56315
 C57 C 0.24517 0.47121 0.53123
 C58 C 0.24947 0.49842 0.51433
 C59 C 0.25401 0.52582 0.53076
 C60 C 0.25301 0.52616 0.56257
 C61 C 0.24922 0.49839 0.48003
 C62 C 0.24428 0.52568 0.46346
 C63 C 0.24535 0.52599 0.43162
 C64 C 0.24940 0.49879 0.41562
 C65 C 0.25323 0.47136 0.43138
 C66 C 0.25400 0.47124 0.46328
 H67 H 0.24931 0.49931 0.60342
 H68 H 0.24096 0.44967 0.52009
 H69 H 0.25847 0.54716 0.51933
 H70 H 0.23942 0.54696 0.47482
 H71 H 0.24954 0.49895 0.39090
 H72 H 0.25856 0.44982 0.47456
 C73 C 1.07775 0.24898 0.00197
 C74 C 1.06216 0.25230 0.02947
 C75 C 1.03018 0.25299 0.02968
 C76 C 1.01334 0.24865 0.00240
 C77 C 1.02983 0.24420 -0.02493
 C78 C 1.06164 0.24535 -0.02518
 C79 C 0.97903 0.24877 0.00225
 C80 C 0.96254 0.25402 -0.02504
 C81 C 0.93065 0.25271 -0.02555
 C82 C 0.91458 0.24816 0.00154
 C83 C 0.93030 0.24405 0.02896
 C84 C 0.96222 0.24349 0.02923
 H85 H 1.10251 0.24921 0.00164
 H86 H 1.01886 0.25714 0.05114
 H87 H 1.01841 0.23968 -0.04628
 H88 H 0.97407 0.25930 -0.04613
 H89 H 0.88983 0.24783 0.00134
 H90 H 0.97349 0.23870 0.05061
 C91 C 0.57945 0.74935 0.50047
 C92 C 0.56420 0.75284 0.52811
 C93 C 0.53227 0.75379 0.52872
 C94 C 0.51506 0.74958 0.50169
 C95 C 0.53117 0.74499 0.47413
 C96 C 0.56301 0.74584 0.47349
 C97 C 0.48075 0.75002 0.50205
 C98 C 0.46396 0.75531 0.47497
 C99 C 0.43210 0.75436 0.47490
 C100 C 0.41631 0.75009 0.50216
 C101 C 0.43230 0.74594 0.52942
 C102 C 0.46423 0.74505 0.52929
 H103 H 0.60419 0.74935 0.49996
 H104 H 0.52135 0.75803 0.55035
 H105 H 0.51946 0.74058 0.45292
 H106 H 0.47517 0.76032 0.45367
 H107 H 0.39157 0.74999 0.50216
 H108 H 0.47572 0.74024 0.55055
 C109 C -0.00095 0.74839 -0.07890
 C110 C 0.02588 0.74396 -0.06241
 C111 C 0.02520 0.74380 -0.03057
 C112 C -0.00215 0.75002 -0.01459
 C113 C -0.02898 0.75512 -0.03185
 C114 C -0.02843 0.75348 -0.06373
 C115 C -0.00251 0.75139 0.01965
 C116 C -0.02989 0.74774 0.03635
 C117 C -0.02991 0.74964 0.06827
 C118 C -0.00242 0.75349 0.08400
 C119 C 0.02490 0.75645 0.06798
 C120 C 0.02475 0.75640 0.03616
 H121 H -0.00039 0.74787 -0.10363
 H122 H 0.04620 0.73869 -0.01872
 H123 H -0.05036 0.76062 -0.02092
 H124 H -0.05128 0.74320 0.02495
 H125 H -0.00222 0.75418 0.10873
 H126 H 0.04616 0.76045 0.02472
 C127 C 0.49754 0.24735 0.42150
 C128 C 0.52452 0.24266 0.43768
 C129 C 0.52424 0.24260 0.46952
 C130 C 0.49716 0.24914 0.48580
 C131 C 0.47017 0.25447 0.46885
 C132 C 0.47033 0.25277 0.43698
 C133 C 0.49726 0.25051 0.52004
 C134 C 0.47005 0.24714 0.53702
 C135 C 0.47039 0.24895 0.56890
 C136 C 0.49804 0.25248 0.58438
 C137 C 0.52524 0.25518 0.56812
 C138 C 0.52477 0.25518 0.53628
 H139 H 0.49773 0.24678 0.39677
 H140 H 0.54533 0.23730 0.48113
 H141 H 0.44895 0.26019 0.47994
 H142 H 0.44845 0.24288 0.52592
 H143 H 0.49838 0.25315 0.60909
 H144 H 0.54610 0.25899 0.52462
 C145 C 1.08359 0.00257 0.24535
 C146 C 1.06771 0.02994 0.24938
 C147 C 1.03578 0.02968 0.25137
 C148 C 1.01922 0.00219 0.24768
 C149 C 1.03585 -0.02491 0.24250
 C150 C 1.06769 -0.02483 0.24232
 C151 C 0.98499 0.00156 0.24913
 C152 C 0.96918 -0.02584 0.25567
 C153 C 0.93728 -0.02674 0.25556
 C154 C 0.92066 -0.00002 0.25082
 C155 C 0.93572 0.02743 0.24538
 C156 C 0.96757 0.02818 0.24374
 H157 H 1.10833 0.00253 0.24459
 H158 H 1.02423 0.05096 0.25602
 H159 H 1.02447 -0.04637 0.23843
 H160 H 0.98129 -0.04666 0.26100
 H161 H 0.89590 -0.00054 0.25135
 H162 H 0.97833 0.04959 0.23802
 C163 C 0.58452 0.50117 0.74554
 C164 C 0.56915 0.52880 0.74950
 C165 C 0.53728 0.52920 0.75154
 C166 C 0.52018 0.50208 0.74801
 C167 C 0.53626 0.47458 0.74294
 C168 C 0.56813 0.47404 0.74267
 C169 C 0.48595 0.50229 0.74973
 C170 C 0.46966 0.47529 0.75655
 C171 C 0.43780 0.47510 0.75689
 C172 C 0.42164 0.50209 0.75229
 C173 C 0.43715 0.52924 0.74655
 C174 C 0.46903 0.52930 0.74449
 H175 H 0.60924 0.50078 0.74473
 H176 H 0.52627 0.55076 0.75612
 H177 H 0.52444 0.45333 0.73905
 H178 H 0.48130 0.45420 0.76174
 H179 H 0.39691 0.50195 0.75313
 H180 H 0.48016 0.55045 0.73857
 C181 C 1.00168 1.08476 0.75333
 C182 C 0.97457 1.06864 0.74876
 C183 C 0.97514 1.03676 0.74730
 C184 C 1.00252 1.02035 0.75237
 C185 C 1.02950 1.03720 0.75767
 C186 C 1.02916 1.06911 0.75728
 C187 C 1.00279 0.98604 0.75233
 C188 C 1.03009 0.96935 0.74766
 C189 C 1.02999 0.93736 0.74828
 C190 C 1.00256 0.92166 0.75187
 C191 C 0.97538 0.93764 0.75582
 C192 C 0.97555 0.96945 0.75702
 H193 H 1.00145 1.10950 0.75378
 H194 H 0.95404 1.02517 0.74205
 H195 H 1.05093 1.02596 0.76233
 H196 H 1.05147 0.98077 0.74332
 H197 H 1.00229 0.89690 0.75159
 H198 H 0.95420 0.98078 0.76176
 C199 C 0.50230 0.58434 0.25114
 C200 C 0.47492 0.56867 0.24687
 C201 C 0.47483 0.53684 0.24565
 C202 C 0.50187 0.51992 0.25065
 C203 C 0.52926 0.53629 0.25562
 C204 C 0.52954 0.56823 0.25502
 C205 C 0.50130 0.48562 0.25075
 C206 C 0.52819 0.46835 0.24605
 C207 C 0.52739 0.43642 0.24663
 C208 C 0.49969 0.42126 0.25025
 C209 C 0.47283 0.43777 0.25427
 C210 C 0.47368 0.46959 0.25547
 H211 H 0.50241 0.60907 0.25144
 H212 H 0.45343 0.52573 0.24063
 H213 H 0.55051 0.52467 0.26018
 H214 H 0.54985 0.47923 0.24173
 H215 H 0.49903 0.39653 0.24998
 H216 H 0.45259 0.48136 0.26026
 O217 O 0.25615 0.17129 0.20196
 O218 O 0.28947 0.16325 0.24539
 O219 O 0.17537 0.20645 0.24597
 O220 O 0.16417 0.24606 0.27626
 O221 O 0.21207 0.25058 0.16568
 O222 O 0.25437 0.28462 0.15748
 O223 O 0.25457 0.29346 0.32310
 O224 O 0.21873 0.25190 0.33101
 O225 O 0.33297 0.25189 0.28658
 O226 O 0.34164 0.21613 0.24460
 O227 O 0.29563 0.32933 0.24643
 O228 O 0.25196 0.33711 0.20938
 O229 O 0.25444 0.32922 0.28568
 O230 O 0.21998 0.33839 0.24279
 O231 O 0.33195 0.29252 0.24879
 O232 O 0.33935 0.25242 0.20865
 O233 O 0.29648 0.25360 0.32329
 O234 O 0.25963 0.21848 0.33379
 O235 O 0.25639 0.20840 0.16580
 O236 O 0.28752 0.25113 0.15645
 O237 O 0.17508 0.24946 0.20186
 O238 O 0.16714 0.28413 0.24452
 O239 O 0.21283 0.17071 0.24478
 O240 O 0.25622 0.16121 0.27739
 Zr241 Zr 0.25367 0.19553 0.24356
 O242 O 0.28131 0.22215 0.27237
 Zr243 Zr 0.19936 0.24818 0.24343
 O244 O 0.22518 0.27744 0.27178
 Zr245 Zr 0.25325 0.24923 0.19021
 O246 O 0.28161 0.27781 0.21623
 Zr247 Zr 0.25487 0.25166 0.29913
 O248 O 0.22652 0.22186 0.27337
 Zr249 Zr 0.30831 0.25120 0.24568
 O250 O 0.28292 0.22231 0.21674
 Zr251 Zr 0.25433 0.30453 0.24493
 O252 O 0.22564 0.27810 0.21651
 O253 O 0.22507 0.22035 0.21504
 O254 O 0.28292 0.27990 0.27365
 C255 C 0.25759 0.18036 0.17408
 C256 C 0.18469 0.17859 0.24636
 C257 C 0.18397 0.25088 0.17396
 C258 C 0.25484 0.32131 0.31381
 C259 C 0.32449 0.25342 0.31454
 C260 C 0.32353 0.32051 0.24872
 H261 H 0.29364 0.20858 0.28553
 H262 H 0.29459 0.29023 0.20262
 H263 H 0.21231 0.20711 0.20194
 H264 H 0.21136 0.28992 0.28446
 H265 H 0.20552 0.23428 0.32602
 H266 H 0.17129 0.25742 0.29437
 H267 H 0.35943 0.25963 0.21621
 H268 H 0.30489 0.23902 0.16428
 H269 H 0.24839 0.20031 0.32676
 H270 H 0.23951 0.16499 0.29202
 H271 H 0.27021 0.33455 0.19642
 H272 H 0.23955 0.30023 0.16426
 H273 H 0.30504 0.17001 0.23054
 H274 H 0.33740 0.20177 0.26144
 H275 H 0.17361 0.29923 0.22906
 H276 H 0.20450 0.33341 0.25837
 O277 O 0.74999 0.83382 0.21259
 O278 O 0.71671 0.84276 0.25479
 O279 O 0.82982 0.79734 0.25732
 O280 O 0.84010 0.75755 0.28773
 O281 O 0.79394 0.75427 0.17613
 O282 O 0.75093 0.72089 0.16746
 O283 O 0.74911 0.71285 0.33320
 O284 O 0.78523 0.75332 0.34145
 O285 O 0.67112 0.75366 0.29638
 O286 O 0.66349 0.79048 0.25409
 O287 O 0.70763 0.67641 0.25572
 O288 O 0.75145 0.66748 0.22034
 O289 O 0.74829 0.67609 0.29678
 O290 O 0.78357 0.66652 0.25367
 O291 O 0.67177 0.71372 0.25734
 O292 O 0.66542 0.75429 0.21786
 O293 O 0.70820 0.75173 0.33263
 O294 O 0.74459 0.78744 0.34330
 O295 O 0.75030 0.79757 0.17562
 O296 O 0.71790 0.75512 0.16622
 O297 O 0.82978 0.75441 0.21358
 O298 O 0.83687 0.71969 0.25589
 O299 O 0.79291 0.83368 0.25597
 O300 O 0.74865 0.84374 0.28778
 Zr301 Zr 0.75169 0.80958 0.25386
 O302 O 0.72329 0.78353 0.28219
 Zr303 Zr 0.80516 0.75610 0.25445
 O304 O 0.77878 0.72728 0.28242
 Zr305 Zr 0.75215 0.75626 0.20015
 O306 O 0.72306 0.72800 0.22611
 Zr307 Zr 0.74949 0.75396 0.30898
 O308 O 0.77846 0.78315 0.28386
 Zr309 Zr 0.69611 0.75474 0.25531
 O310 O 0.72239 0.78324 0.22659
 Zr311 Zr 0.74938 0.70056 0.25539
 O312 O 0.77867 0.72669 0.22713
 O313 O 0.78033 0.78451 0.22570
 O314 O 0.72106 0.72586 0.28359
 C315 C 0.74919 0.82549 0.18452
 C316 C 0.82090 0.82530 0.25786
 C317 C 0.82182 0.75332 0.18544
 C318 C 0.74811 0.68486 0.32474
 C319 C 0.68012 0.75172 0.32427
 C320 C 0.67978 0.68559 0.25713
 H321 H 0.71106 0.79721 0.29525
 H322 H 0.71007 0.71580 0.21230
 H323 H 0.79350 0.79758 0.21288
 H324 H 0.79229 0.71468 0.29536
 H325 H 0.79882 0.77067 0.33657
 H326 H 0.83272 0.74618 0.30572
 H327 H 0.64505 0.74772 0.22517
 H328 H 0.70087 0.76778 0.17389
 H329 H 0.75713 0.80501 0.33698
 H330 H 0.76558 0.84038 0.30233
 H331 H 0.73440 0.67143 0.20609
 H332 H 0.76524 0.70497 0.17467
 H333 H 0.70061 0.83562 0.24066
 H334 H 0.66714 0.80403 0.27173
 H335 H 0.83002 0.70447 0.24071
 H336 H 0.79825 0.67062 0.27030
 O337 O 0.74827 0.17024 0.79026
 O338 O 0.72230 0.15772 0.74902
 O339 O 0.83029 0.20948 0.74980
 O340 O 0.84052 0.25112 0.71966
 O341 O 0.79024 0.25080 0.82996
 O342 O 0.75296 0.28031 0.84007
 O343 O 0.74848 0.29013 0.67045
 O344 O 0.78053 0.24890 0.65919
 O345 O 0.67050 0.25192 0.70943
 O346 O 0.66253 0.21636 0.74726
 O347 O 0.70941 0.32890 0.74648
 O348 O 0.74794 0.33853 0.78163
 O349 O 0.74867 0.32786 0.70586
 O350 O 0.78625 0.33603 0.74961
 O351 O 0.67196 0.29313 0.74687
 O352 O 0.66646 0.25296 0.78768
 O353 O 0.70634 0.25114 0.67205
 O354 O 0.75153 0.21280 0.66453
 O355 O 0.74903 0.20575 0.82791
 O356 O 0.71067 0.24872 0.83197
 O357 O 0.82806 0.25154 0.79454
 O358 O 0.83583 0.28660 0.75052
 O359 O 0.79486 0.17174 0.74918
 O360 O 0.75050 0.16542 0.71215
 Zr361 Zr 0.75246 0.19521 0.75003
 O362 O 0.72241 0.22118 0.72287
 Zr363 Zr 0.80488 0.24966 0.75195
 O364 O 0.77880 0.27662 0.72182
 Zr365 Zr 0.75032 0.24802 0.80429
 O366 O 0.72326 0.27786 0.77790
 Zr367 Zr 0.74887 0.24973 0.69546
 O368 O 0.77929 0.22249 0.72143
 Zr369 Zr 0.69592 0.25114 0.74943
 O370 O 0.72184 0.22098 0.77692
 Zr371 Zr 0.74995 0.30414 0.74797
 O372 O 0.77731 0.27836 0.77829
 O373 O 0.77973 0.22043 0.77937
 O374 O 0.72106 0.27877 0.72033
 C375 C 0.74738 0.17799 0.81840
 C376 C 0.82266 0.18131 0.74848
 C377 C 0.81842 0.25238 0.82232
 C378 C 0.74781 0.31830 0.67810
 C379 C 0.67845 0.25241 0.68136
 C380 C 0.68130 0.32096 0.74559
 H381 H 0.70925 0.20746 0.71074
 H382 H 0.71070 0.29100 0.79124
 H383 H 0.79268 0.20743 0.79258
 H384 H 0.79255 0.28877 0.70877
 H385 H 0.79896 0.25979 0.66628
 H386 H 0.83292 0.24020 0.70143
 H387 H 0.64574 0.25812 0.78021
 H388 H 0.71617 0.24117 0.85256
 H389 H 0.73162 0.20220 0.66460
 H390 H 0.76898 0.16922 0.69980
 H391 H 0.75971 0.33081 0.79930
 H392 H 0.73995 0.29778 0.83420
 H393 H 0.70152 0.16644 0.74849
 H394 H 0.66712 0.20203 0.76410
 H395 H 0.83001 0.30068 0.76715
 H396 H 0.79829 0.33403 0.73067
 O397 O 0.24624 0.82412 0.79352
 O398 O 0.27920 0.83315 0.75057
 O399 O 0.16629 0.78762 0.74837
 O400 O 0.15506 0.74841 0.71845
 O401 O 0.20299 0.74397 0.82904
 O402 O 0.24629 0.71020 0.83671
 O403 O 0.24636 0.70319 0.67116
 O404 O 0.20951 0.74434 0.66374
 O405 O 0.32429 0.74466 0.70727
 O406 O 0.33292 0.78007 0.74966
 O407 O 0.28710 0.66692 0.74816
 O408 O 0.24404 0.65796 0.78406
 O409 O 0.24707 0.66709 0.70825
 O410 O 0.21171 0.65739 0.75105
 O411 O 0.32392 0.70322 0.74620
 O412 O 0.33081 0.74417 0.78591
 O413 O 0.28684 0.74326 0.67139
 O414 O 0.25010 0.77820 0.66126
 O415 O 0.24672 0.78671 0.82934
 O416 O 0.27875 0.74467 0.83834
 O417 O 0.16669 0.74437 0.79202
 O418 O 0.15911 0.71017 0.74907
 O419 O 0.20246 0.82459 0.75064
 O420 O 0.24626 0.83455 0.71779
 Zr421 Zr 0.24401 0.80024 0.75163
 O422 O 0.27208 0.77406 0.72265
 Zr423 Zr 0.19077 0.74657 0.75087
 O424 O 0.21661 0.71801 0.72231
 Zr425 Zr 0.24441 0.74605 0.80452
 O426 O 0.27314 0.71806 0.77814
 Zr427 Zr 0.24579 0.74464 0.69560
 O428 O 0.21722 0.77384 0.72146
 Zr429 Zr 0.29982 0.74482 0.74872
 O430 O 0.27383 0.77326 0.77796
 Zr431 Zr 0.24599 0.69132 0.74923
 O432 O 0.21719 0.71699 0.77793
 O433 O 0.21582 0.77465 0.77972
 O434 O 0.27431 0.71630 0.72067
 C435 C 0.24757 0.81485 0.82136
 C436 C 0.17457 0.81571 0.74861
 C437 C 0.17504 0.74299 0.82004
 C438 C 0.24748 0.67530 0.68021
 C439 C 0.31502 0.74344 0.67942
 C440 C 0.31509 0.67527 0.74640
 H441 H 0.28415 0.78788 0.70958
 H442 H 0.28620 0.70562 0.79171
 H443 H 0.20280 0.78755 0.79287
 H444 H 0.20296 0.70551 0.70944
 H445 H 0.19629 0.76197 0.66868
 H446 H 0.16244 0.73807 0.69985
 H447 H 0.35091 0.73687 0.77854
 H448 H 0.29603 0.75677 0.83039
 H449 H 0.23889 0.79628 0.66856
 H450 H 0.22903 0.83117 0.70360
 H451 H 0.26141 0.66148 0.79804
 H452 H 0.23120 0.69477 0.83009
 H453 H 0.29531 0.82583 0.76462
 H454 H 0.32799 0.79480 0.73332
 H455 H 0.16567 0.69500 0.76447
 H456 H 0.19715 0.66134 0.73426
 O457 O 0.24921 0.33450 0.71418
 O458 O 0.21580 0.34355 0.75638
 O459 O 0.32898 0.29828 0.75924
 O460 O 0.33938 0.25859 0.78967
 O461 O 0.29320 0.25480 0.67813
 O462 O 0.25021 0.22137 0.66958
 O463 O 0.24838 0.21405 0.83535
 O464 O 0.28451 0.25462 0.84342
 O465 O 0.17040 0.25460 0.79832
 O466 O 0.16279 0.29137 0.75589
 O467 O 0.20696 0.17732 0.75807
 O468 O 0.25076 0.16822 0.72269
 O469 O 0.24761 0.17715 0.79906
 O470 O 0.28291 0.16743 0.75600
 O471 O 0.17109 0.21462 0.75953
 O472 O 0.16468 0.25494 0.71984
 O473 O 0.20746 0.25290 0.83459
 O474 O 0.24382 0.28867 0.84516
 O475 O 0.24955 0.29808 0.67739
 O476 O 0.21717 0.25558 0.66817
 O477 O 0.32904 0.25523 0.71559
 O478 O 0.33614 0.22063 0.75801
 O479 O 0.29204 0.33459 0.75764
 O480 O 0.24781 0.34484 0.78926
 Zr481 Zr 0.25088 0.31045 0.75558
 O482 O 0.22252 0.28451 0.78405
 Zr483 Zr 0.30440 0.25701 0.75643
 O484 O 0.27806 0.22830 0.78452
 Zr485 Zr 0.25141 0.25689 0.70211
 O486 O 0.22235 0.22874 0.72820
 Zr487 Zr 0.24875 0.25507 0.81096
 O488 O 0.27767 0.28418 0.78570
 Zr489 Zr 0.19539 0.25562 0.75727
 O490 O 0.22163 0.28398 0.72840
 Zr491 Zr 0.24869 0.20146 0.75759
 O492 O 0.27796 0.22747 0.72922
 O493 O 0.27956 0.28528 0.72755
 O494 O 0.22036 0.22687 0.78567
 C495 C 0.24843 0.32604 0.68616
 C496 C 0.32002 0.32623 0.75966
 C497 C 0.32107 0.25397 0.68745
 C498 C 0.24740 0.18602 0.82699
 C499 C 0.17939 0.25277 0.82621
 C500 C 0.17911 0.18651 0.75949
 H501 H 0.21028 0.29825 0.79705
 H502 H 0.20935 0.21647 0.71444
 H503 H 0.29273 0.29831 0.71468
 H504 H 0.29158 0.21576 0.79751
 H505 H 0.29807 0.27197 0.83846
 H506 H 0.33198 0.24735 0.80773
 H507 H 0.14430 0.24845 0.72721
 H508 H 0.20013 0.26824 0.67579
 H509 H 0.25631 0.30625 0.83876
 H510 H 0.26462 0.34147 0.80395
 H511 H 0.23367 0.17207 0.70845
 H512 H 0.26452 0.20549 0.67687
 H513 H 0.19979 0.33640 0.74216
 H514 H 0.16633 0.30489 0.77356
 H515 H 0.32933 0.20537 0.74286
 H516 H 0.29759 0.17161 0.77261
 O517 O 0.75930 0.67062 0.70170
 O518 O 0.79269 0.66257 0.74513
 O519 O 0.67864 0.70592 0.74562
 O520 O 0.66733 0.74554 0.77575
 O521 O 0.71555 0.75004 0.66535
 O522 O 0.75790 0.78390 0.65719
 O523 O 0.75763 0.79271 0.82291
 O524 O 0.72182 0.75111 0.83070
 O525 O 0.83614 0.75112 0.78646
 O526 O 0.84488 0.71536 0.74451
 O527 O 0.79894 0.82858 0.74643
 O528 O 0.75548 0.83654 0.70927
 O529 O 0.75769 0.82852 0.78552
 O530 O 0.72326 0.83767 0.74245
 O531 O 0.83523 0.79172 0.74873
 O532 O 0.84266 0.75168 0.70855
 O533 O 0.79958 0.75296 0.82311
 O534 O 0.76277 0.71776 0.83355
 O535 O 0.75964 0.70770 0.66552
 O536 O 0.79109 0.75041 0.65635
 O537 O 0.67850 0.74895 0.70147
 O538 O 0.67050 0.78361 0.74417
 O539 O 0.71605 0.67012 0.74448
 O540 O 0.75939 0.66050 0.77708
 Zr541 Zr 0.75690 0.69486 0.74329
 O542 O 0.78450 0.72143 0.77218
 Zr543 Zr 0.70267 0.74760 0.74308
 O544 O 0.72842 0.77680 0.77153
 Zr545 Zr 0.75665 0.74856 0.68995
 O546 O 0.78496 0.77712 0.71606
 Zr547 Zr 0.75803 0.75095 0.79890
 O548 O 0.72971 0.72121 0.77305
 Zr549 Zr 0.81157 0.75045 0.74553
 O550 O 0.78623 0.72159 0.71652
 Zr551 Zr 0.75764 0.80385 0.74474
 O552 O 0.72902 0.77747 0.71621
 O553 O 0.72839 0.71973 0.71474
 O554 O 0.78615 0.77916 0.77347
 C555 C 0.76073 0.67966 0.67381
 C556 C 0.68793 0.67806 0.74603
 C557 C 0.68744 0.75039 0.67359
 C558 C 0.75796 0.82058 0.81365
 C559 C 0.82761 0.75276 0.81440
 C560 C 0.82682 0.81972 0.74875
 H561 H 0.79680 0.70784 0.78535
 H562 H 0.79798 0.78954 0.70250
 H563 H 0.71561 0.70653 0.70162
 H564 H 0.71458 0.78927 0.78418
 H565 H 0.70865 0.73348 0.82567
 H566 H 0.67449 0.75668 0.79399
 H567 H 0.86274 0.75886 0.71615
 H568 H 0.80830 0.73803 0.66413
 H569 H 0.75158 0.69956 0.82648
 H570 H 0.74268 0.66429 0.79172
 H571 H 0.77373 0.83390 0.69631
 H572 H 0.74325 0.79964 0.66403
 H573 H 0.80824 0.66928 0.73024
 H574 H 0.84057 0.70098 0.76131
 H575 H 0.67699 0.79868 0.72869
 H576 H 0.70786 0.83284 0.75816
 O577 O 0.24788 0.67143 0.28987
 O578 O 0.22167 0.65913 0.24870
 O579 O 0.32971 0.71083 0.24940
 O580 O 0.33998 0.75253 0.21945
 O581 O 0.28981 0.75182 0.32978
 O582 O 0.25254 0.78131 0.34008
 O583 O 0.24788 0.79179 0.17049
 O584 O 0.28001 0.75051 0.15907
 O585 O 0.16998 0.75344 0.20940
 O586 O 0.16202 0.71778 0.24716
 O587 O 0.20902 0.83027 0.24660
 O588 O 0.24750 0.83976 0.28184
 O589 O 0.24824 0.82937 0.20605
 O590 O 0.28585 0.83733 0.24984
 O591 O 0.17154 0.79453 0.24683
 O592 O 0.16599 0.75434 0.28763
 O593 O 0.20579 0.75280 0.17199
 O594 O 0.25091 0.71450 0.16422
 O595 O 0.24858 0.70682 0.32764
 O596 O 0.21022 0.74981 0.33187
 O597 O 0.32757 0.75274 0.29431
 O598 O 0.33534 0.78790 0.25040
 O599 O 0.29427 0.67311 0.24860
 O600 O 0.24980 0.66687 0.21176
 Zr601 Zr 0.25189 0.69657 0.24971
 O602 O 0.22186 0.72265 0.22267
 Zr603 Zr 0.30435 0.75099 0.25176
 O604 O 0.27830 0.77807 0.22175
 Zr605 Zr 0.24986 0.74917 0.30416
 O606 O 0.22281 0.77913 0.27791
 Zr607 Zr 0.24833 0.75129 0.19533
 O608 O 0.27872 0.72393 0.22119
 Zr609 Zr 0.19543 0.75252 0.24936
 O610 O 0.22133 0.72225 0.27674
 Zr611 Zr 0.24951 0.80549 0.24807
 O612 O 0.27686 0.77959 0.27826
 O613 O 0.27922 0.72166 0.27911
 O614 O 0.22058 0.78024 0.22035
 C615 C 0.24699 0.67908 0.31804
 C616 C 0.32206 0.68269 0.24789
 C617 C 0.31797 0.75346 0.32210
 C618 C 0.24728 0.81993 0.17826
 C619 C 0.17792 0.75404 0.18133
 C620 C 0.18092 0.82235 0.24560
 H621 H 0.20867 0.70898 0.21050
 H622 H 0.21027 0.79224 0.29130
 H623 H 0.29219 0.70861 0.29223
 H624 H 0.29204 0.79027 0.20874
 H625 H 0.29833 0.76161 0.16608
 H626 H 0.33230 0.74179 0.20114
 H627 H 0.14527 0.75953 0.28016
 H628 H 0.21572 0.74214 0.35243
 H629 H 0.23103 0.70385 0.16435
 H630 H 0.26819 0.67077 0.19931
 H631 H 0.25926 0.83198 0.29948
 H632 H 0.23956 0.79882 0.33428
 H633 H 0.20090 0.66789 0.24816
 H634 H 0.16656 0.70344 0.26400
 H635 H 0.32959 0.80192 0.26710
 H636 H 0.29785 0.83543 0.23087
 O637 O 0.74380 0.32146 0.29284
 O638 O 0.77637 0.33094 0.24819
 O639 O 0.66407 0.28469 0.24796
 O640 O 0.65255 0.24555 0.21838
 O641 O 0.70119 0.24128 0.32861
 O642 O 0.74434 0.20778 0.33630
 O643 O 0.74467 0.20078 0.17032
 O644 O 0.70746 0.24086 0.16274
 O645 O 0.82209 0.24168 0.20659
 O646 O 0.82956 0.27803 0.24457
 O647 O 0.78498 0.16435 0.24730
 O648 O 0.74199 0.15491 0.28287
 O649 O 0.74495 0.16457 0.20732
 O650 O 0.70937 0.15485 0.25023
 O651 O 0.82188 0.20062 0.24547
 O652 O 0.82877 0.23983 0.28494
 O653 O 0.78458 0.24144 0.17071
 O654 O 0.74323 0.27652 0.16083
 O655 O 0.74474 0.28408 0.32866
 O656 O 0.77720 0.24187 0.33729
 O657 O 0.66471 0.24154 0.29175
 O658 O 0.65721 0.20695 0.24910
 O659 O 0.70029 0.32170 0.24946
 O660 O 0.74223 0.33115 0.21654
 Zr661 Zr 0.74179 0.29745 0.25098
 O662 O 0.76997 0.27133 0.22213
 Zr663 Zr 0.68856 0.24366 0.25049
 O664 O 0.71434 0.21537 0.22159
 Zr665 Zr 0.74246 0.24340 0.30387
 O666 O 0.77089 0.21532 0.27733
 Zr667 Zr 0.74344 0.24217 0.19488
 O668 O 0.71490 0.27092 0.22110
 Zr669 Zr 0.79760 0.24201 0.24795
 O670 O 0.77192 0.27070 0.27734
 Zr671 Zr 0.74378 0.18864 0.24839
 O672 O 0.71522 0.21422 0.27740
 O673 O 0.71368 0.27187 0.27915
 O674 O 0.77199 0.21371 0.21980
 C675 C 0.74536 0.31222 0.32069
 C676 C 0.67239 0.31279 0.24775
 C677 C 0.67320 0.24023 0.31973
 C678 C 0.74570 0.17285 0.17931
 C679 C 0.81277 0.24110 0.17873
 C680 C 0.81299 0.17270 0.24559
 H681 H 0.78276 0.28520 0.20982
 H682 H 0.78391 0.20280 0.29087
 H683 H 0.70067 0.28480 0.29229
 H684 H 0.70071 0.20287 0.20870
 H685 H 0.69258 0.25670 0.16890
 H686 H 0.65917 0.23407 0.20016
 H687 H 0.84949 0.23688 0.27640
 H688 H 0.79423 0.25434 0.32938
 H689 H 0.75813 0.29236 0.16675
 H690 H 0.72897 0.32352 0.19993
 H691 H 0.75902 0.15871 0.29718
 H692 H 0.72969 0.19204 0.32944
 H693 H 0.79100 0.32679 0.26486
 H694 H 0.82711 0.29071 0.26303
 H695 H 0.66385 0.19201 0.26467
 H696 H 0.69506 0.15856 0.23318
 C697 C 0.26316 0.11533 0.10116
 C698 C 0.26915 0.14615 0.09589
 C699 C 0.26780 0.16701 0.11975
 C700 C 0.26037 0.07974 0.05273
 C701 C 0.25512 0.12622 0.15482
 C702 C 0.25636 0.10528 0.13070
 C703 C 0.26209 0.09496 0.07552
 C704 C 0.26041 0.15742 0.14946
 H705 H 0.27430 0.15419 0.07311
 H706 H 0.27226 0.19078 0.11479
 H707 H 0.24936 0.11814 0.17740
 H708 H 0.25148 0.08146 0.13497
 C709 C 0.76552 0.61435 0.60105
 C710 C 0.77132 0.64517 0.59556
 C711 C 0.77023 0.66614 0.61936
 C712 C 0.76229 0.57839 0.55290
 C713 C 0.75819 0.62545 0.65476
 C714 C 0.75917 0.60442 0.63072
 C715 C 0.76422 0.59382 0.57554
 C716 C 0.76329 0.65666 0.64922
 H717 H 0.77613 0.65314 0.57268
 H718 H 0.77452 0.68991 0.61424
 H719 H 0.75276 0.61744 0.67746
 H720 H 0.75444 0.58059 0.63517
 C721 C 0.74433 0.89705 0.11760
 C722 C 0.74743 0.86671 0.10815
 C723 C 0.74882 0.84323 0.12981
 C724 C 0.74490 0.94392 0.07973
 C725 C 0.74393 0.88052 0.17027
 C726 C 0.74249 0.90381 0.14866
 C727 C 0.74426 0.92177 0.09601
 C728 C 0.74726 0.84992 0.16118
 H729 H 0.74904 0.86123 0.08414
 H730 H 0.75139 0.81995 0.12203
 H731 H 0.74255 0.88660 0.19414
 H732 H 0.74022 0.92721 0.15624
 C733 C 0.24358 0.39719 0.61882
 C734 C 0.24659 0.36679 0.60955
 C735 C 0.24798 0.34345 0.63136
 C736 C 0.24413 0.44376 0.58058
 C737 C 0.24328 0.38101 0.67159
 C738 C 0.24183 0.40416 0.64984
 C739 C 0.24350 0.42176 0.59706
 C740 C 0.24651 0.35034 0.66268
 H741 H 0.24812 0.36116 0.58557
 H742 H 0.25048 0.32012 0.62371
 H743 H 0.24197 0.38723 0.69543
 H744 H 0.23964 0.42761 0.65728
 C745 C 0.74212 0.10284 0.88114
 C746 C 0.73525 0.09881 0.85034
 C747 C 0.73645 0.12343 0.83033
 C748 C 0.74407 0.05326 0.91544
 C749 C 0.75074 0.15686 0.87193
 C750 C 0.74964 0.13196 0.89204
 C751 C 0.74289 0.07644 0.90066
 C752 C 0.74458 0.15272 0.84072
 H753 H 0.72945 0.07643 0.84163
 H754 H 0.73127 0.11935 0.80654
 H755 H 0.75709 0.17907 0.88063
 H756 H 0.75513 0.13530 0.91588
 C757 C 0.24161 0.60387 0.38074
 C758 C 0.23548 0.59971 0.34980
 C759 C 0.23677 0.62432 0.32978
 C760 C 0.24318 0.55436 0.41517
 C761 C 0.24975 0.65798 0.37163
 C762 C 0.24855 0.63308 0.39174
 C763 C 0.24217 0.57751 0.40033
 C764 C 0.24426 0.65374 0.34030
 H765 H 0.23015 0.57725 0.34100
 H766 H 0.23213 0.62014 0.30590
 H767 H 0.25559 0.68028 0.38044
 H768 H 0.25348 0.63653 0.41569
 C769 C 0.25305 0.87974 0.89476
 C770 C 0.24901 0.89010 0.86479
 C771 C 0.24749 0.86917 0.84064
 C772 C 0.25298 0.91620 0.94279
 C773 C 0.25419 0.82768 0.87653
 C774 C 0.25576 0.84852 0.90045
 C775 C 0.25332 0.90049 0.92023
 C776 C 0.24986 0.83764 0.84630
 H777 H 0.24675 0.91425 0.86014
 H778 H 0.24413 0.87762 0.81769
 H779 H 0.25625 0.80366 0.88186
 H780 H 0.25880 0.84021 0.92352
 C781 C 0.75117 0.37714 0.39408
 C782 C 0.75334 0.34589 0.39981
 C783 C 0.75159 0.32504 0.37591
 C784 C 0.75183 0.41367 0.44207
 C785 C 0.74574 0.36658 0.33993
 C786 C 0.74744 0.38752 0.36407
 C787 C 0.75182 0.39791 0.41952
 C788 C 0.74763 0.33502 0.34563
 H789 H 0.75613 0.33755 0.42290
 H790 H 0.75326 0.30100 0.38129
 H791 H 0.74268 0.37504 0.31695
 H792 H 0.74561 0.41170 0.35937
 C793 C 0.11673 0.25503 0.10255
 C794 C 0.10742 0.25181 0.13288
 C795 C 0.12919 0.25062 0.15630
 C796 C 0.07863 0.25413 0.05579
 C797 C 0.16950 0.25597 0.11896
 C798 C 0.14778 0.25720 0.09573
 C799 C 0.09502 0.25492 0.07789
 C800 C 0.16055 0.25253 0.14956
 H801 H 0.08343 0.24994 0.13841
 H802 H 0.12149 0.24796 0.17958
 H803 H 0.19336 0.25761 0.11284
 H804 H 0.15527 0.25957 0.07232
 C805 C 0.62027 0.75505 0.60220
 C806 C 0.65134 0.75679 0.59534
 C807 C 0.67305 0.75537 0.61856
 C808 C 0.58191 0.75462 0.55570
 C809 C 0.63269 0.75067 0.65595
 C810 C 0.61093 0.75204 0.63255
 C811 C 0.59851 0.75519 0.57762
 C812 C 0.66405 0.75217 0.64918
 H813 H 0.65883 0.75898 0.57192
 H814 H 0.69692 0.75668 0.61244
 H815 H 0.62497 0.74820 0.67924
 H816 H 0.58692 0.75052 0.63810
 C817 C 0.10233 0.73813 0.88537
 C818 C 0.13215 0.74389 0.89537
 C819 C 0.15616 0.74498 0.87431
 C820 C 0.05417 0.74076 0.92132
 C821 C 0.12042 0.73431 0.83347
 C822 C 0.09665 0.73311 0.85445
 C823 C 0.07687 0.73912 0.90596
 C824 C 0.15043 0.74058 0.84303
 H825 H 0.13675 0.74801 0.91928
 H826 H 0.17898 0.74987 0.88239
 H827 H 0.11513 0.73056 0.80965
 H828 H 0.07367 0.72876 0.84644
 C829 C 0.60068 0.23579 0.38519
 C830 C 0.63042 0.24213 0.39505
 C831 C 0.65441 0.24302 0.37396
 C832 C 0.55260 0.23910 0.42116
 C833 C 0.61878 0.23091 0.33341
 C834 C 0.59505 0.22991 0.35442
 C835 C 0.57522 0.23715 0.40574
 C836 C 0.64871 0.23783 0.34281
 H837 H 0.63497 0.24691 0.41884
 H838 H 0.67717 0.24842 0.38189
 H839 H 0.61355 0.22653 0.30969
 H840 H 0.57211 0.22510 0.34653
 C841 C 0.89534 0.74827 0.12066
 C842 C 0.86527 0.75159 0.11023
 C843 C 0.84109 0.75301 0.13113
 C844 C 0.94348 0.74838 0.08432
 C845 C 0.87715 0.74769 0.17272
 C846 C 0.90109 0.74622 0.15191
 C847 C 0.92083 0.74801 0.09994
 C848 C 0.84681 0.75126 0.16269
 H849 H 0.86055 0.75333 0.08606
 H850 H 0.81806 0.75577 0.12262
 H851 H 0.88255 0.74614 0.19676
 H852 H 0.92423 0.74375 0.16028
 C853 C 0.39452 0.24841 0.62268
 C854 C 0.36440 0.25121 0.61225
 C855 C 0.34026 0.25284 0.63315
 C856 C 0.44242 0.24790 0.58609
 C857 C 0.37645 0.24882 0.67477
 C858 C 0.40037 0.24714 0.65395
 C859 C 0.41992 0.24782 0.60189
 C860 C 0.34606 0.25182 0.66472
 H861 H 0.35961 0.25234 0.58805
 H862 H 0.31718 0.25515 0.62464
 H863 H 0.38192 0.24784 0.69882
 H864 H 0.42355 0.24508 0.66231
 C865 C 0.88095 0.25716 0.89784
 C866 C 0.89208 0.25067 0.86859
 C867 C 0.87204 0.24970 0.84359
 C868 C 0.91515 0.25502 0.94755
 C869 C 0.83000 0.26200 0.87721
 C870 C 0.84995 0.26308 0.90192
 C871 C 0.90044 0.25631 0.92430
 C872 C 0.84065 0.25495 0.84776
 H873 H 0.91608 0.24591 0.86520
 H874 H 0.88094 0.24419 0.82126
 H875 H 0.80608 0.26645 0.88135
 H876 H 0.84104 0.26806 0.92440
 C877 C 0.38079 0.75849 0.39731
 C878 C 0.39189 0.75263 0.36792
 C879 C 0.37172 0.75150 0.34305
 C880 C 0.41545 0.75674 0.44666
 C881 C 0.32963 0.76238 0.37709
 C882 C 0.34970 0.76360 0.40168
 C883 C 0.40050 0.75787 0.42359
 C884 C 0.34025 0.75599 0.34747
 H885 H 0.41597 0.74850 0.36432
 H886 H 0.38061 0.74653 0.32059
 H887 H 0.30563 0.76622 0.38144
 H888 H 0.34083 0.76809 0.42427
 C889 C 0.11995 0.10487 0.25112
 C890 C 0.10947 0.13495 0.24825
 C891 C 0.13035 0.15919 0.24694
 C892 C 0.08367 0.05663 0.25077
 C893 C 0.17205 0.12318 0.25148
 C894 C 0.15126 0.09918 0.25285
 C895 C 0.09924 0.07933 0.25126
 C896 C 0.16196 0.15353 0.24835
 H897 H 0.08526 0.13964 0.24676
 H898 H 0.12180 0.18223 0.24451
 H899 H 0.19612 0.11782 0.25278
 H900 H 0.15968 0.07604 0.25498
 C901 C 0.62309 0.60458 0.75095
 C902 C 0.65438 0.59875 0.75241
 C903 C 0.67522 0.62269 0.75098
 C904 C 0.58645 0.55670 0.75086
 C905 C 0.63359 0.65885 0.74687
 C906 C 0.61267 0.63469 0.74825
 C907 C 0.60229 0.57918 0.75122
 C908 C 0.66518 0.65307 0.74804
 H909 H 0.66273 0.57558 0.75441
 H910 H 0.69929 0.61725 0.75207
 H911 H 0.62509 0.68192 0.74460
 H912 H 0.58845 0.63945 0.74698
 C913 C 0.89807 0.11856 0.74451
 C914 C 0.86863 0.10747 0.75030
 C915 C 0.84371 0.12760 0.75112
 C916 C 0.94764 0.08413 0.74655
 C917 C 0.87777 0.16966 0.74008
 C918 C 0.90241 0.14963 0.73918
 C919 C 0.92443 0.09891 0.74532
 C920 C 0.84811 0.15904 0.74637
 H921 H 0.86502 0.08342 0.75460
 H922 H 0.82122 0.11871 0.75602
 H923 H 0.88212 0.19362 0.73604
 H924 H 0.92503 0.15851 0.73473
 C925 C 0.39735 0.62002 0.24310
 C926 C 0.40169 0.65111 0.23790
 C927 C 0.37707 0.67112 0.23908
 C928 C 0.44672 0.58541 0.24467
 C929 C 0.34306 0.62901 0.25011
 C930 C 0.36797 0.60889 0.24902
 C931 C 0.42365 0.60036 0.24365
 C932 C 0.34746 0.66046 0.24551
 H933 H 0.42429 0.66000 0.23335
 H934 H 0.38139 0.69511 0.23513
 H935 H 0.32060 0.62009 0.25511
 H936 H 0.36438 0.58482 0.25320
 C937 C 0.10317 0.88297 0.74464
 C938 C 0.13349 0.89223 0.74850
 C939 C 0.15690 0.87046 0.74954
 C940 C 0.05635 0.92098 0.74613
 C941 C 0.11961 0.83026 0.74275
 C942 C 0.09638 0.85198 0.74165
 C943 C 0.07848 0.90465 0.74506
 C944 C 0.15018 0.83916 0.74687
 H945 H 0.13899 0.91617 0.75101
 H946 H 0.18016 0.87812 0.75275
 H947 H 0.11351 0.80644 0.74053
 H948 H 0.07299 0.84453 0.73880
 C949 C 0.60122 0.38013 0.24320
 C950 C 0.63160 0.38936 0.24654
 C951 C 0.65493 0.36754 0.24778
 C952 C 0.55487 0.41861 0.24437
 C953 C 0.61742 0.32733 0.24224
 C954 C 0.59426 0.34911 0.24094
 C955 C 0.57670 0.40194 0.24343
 C956 C 0.64805 0.33622 0.24584
 H957 H 0.63722 0.41332 0.24848
 H958 H 0.67824 0.37518 0.25058
 H959 H 0.61122 0.30350 0.24058
 H960 H 0.57080 0.34171 0.23850
 C961 C 0.88628 0.89808 0.26243
 C962 C 0.89625 0.86830 0.25650
 C963 C 0.87519 0.84425 0.25561
 C964 C 0.92199 0.94644 0.25896
 C965 C 0.83443 0.87984 0.26688
 C966 C 0.85541 0.90365 0.26789
 C967 C 0.90679 0.92363 0.26100
 C968 C 0.84395 0.84989 0.26037
 H969 H 0.92012 0.86378 0.25203
 H970 H 0.88322 0.82147 0.25051
 H971 H 0.81063 0.88505 0.27091
 H972 H 0.84742 0.92660 0.27237
 C973 C 0.38530 0.39898 0.76425
 C974 C 0.35442 0.40459 0.76957
 C975 C 0.33345 0.38078 0.76855
 C976 C 0.42125 0.44707 0.76069
 C977 C 0.37428 0.34514 0.75758
 C978 C 0.39531 0.36919 0.75848
 C979 C 0.40582 0.42446 0.76280
 C980 C 0.34302 0.35081 0.76217
 H981 H 0.34641 0.42756 0.77392
 H982 H 0.30963 0.38599 0.77246
 H983 H 0.38233 0.32234 0.75261
 H984 H 0.41920 0.36466 0.75414
 C985 C 0.11416 0.24444 0.89853
 C986 C 0.14516 0.23970 0.90406
 C987 C 0.16612 0.24229 0.88044
 C988 C 0.07817 0.24395 0.94660
 C989 C 0.12510 0.25385 0.84512
 C990 C 0.10404 0.25136 0.86901
 C991 C 0.09357 0.24377 0.92392
 C992 C 0.15645 0.24970 0.85072
 H993 H 0.15323 0.23442 0.92682
 H994 H 0.18999 0.23856 0.88561
 H995 H 0.11694 0.25943 0.82249
 H996 H 0.08004 0.25521 0.86456
 C997 C 0.61496 0.74402 0.39677
 C998 C 0.64585 0.73837 0.40208
 C999 C 0.66677 0.74068 0.37838
 C1000 C 0.57925 0.74418 0.44510
 C1001 C 0.62591 0.75373 0.34340
 C1002 C 0.60490 0.75153 0.36737
 C1003 C 0.59449 0.74374 0.42230
 C1004 C 0.65717 0.74872 0.34880
 H1005 H 0.65389 0.73262 0.42474
 H1006 H 0.69056 0.73627 0.38337
 H1007 H 0.61781 0.75984 0.32089
 H1008 H 0.58099 0.75610 0.36309
 C1009 C 0.89882 0.75779 0.88155
 C1010 C 0.90566 0.76020 0.85055
 C1011 C 0.88246 0.75872 0.82886
 C1012 C 0.94549 0.75604 0.91957
 C1013 C 0.84511 0.75291 0.86912
 C1014 C 0.86850 0.75429 0.89087
 C1015 C 0.92347 0.75733 0.90317
 C1016 C 0.85190 0.75480 0.83782
 H1017 H 0.92906 0.76281 0.84309
 H1018 H 0.88856 0.76053 0.80503
 H1019 H 0.82183 0.74996 0.87678
 H1020 H 0.86300 0.75225 0.91484
 C1021 C 0.39588 0.25789 0.38162
 C1022 C 0.40265 0.26049 0.35062
 C1023 C 0.37939 0.25923 0.32896
 C1024 C 0.44264 0.25576 0.41958
 C1025 C 0.34211 0.25325 0.36925
 C1026 C 0.36556 0.25441 0.39097
 C1027 C 0.42059 0.25721 0.40321
 C1028 C 0.34884 0.25533 0.33794
 H1029 H 0.42604 0.26309 0.34313
 H1030 H 0.38546 0.26117 0.30513
 H1031 H 0.31885 0.25030 0.37694
 H1032 H 0.36010 0.25222 0.41494
 C1033 C 0.10299 0.76002 0.11846
 C1034 C 0.13182 0.75120 0.10778
 C1035 C 0.15671 0.74978 0.12791
 C1036 C 0.05329 0.75854 0.08437
 C1037 C 0.12382 0.76639 0.16905
 C1038 C 0.09923 0.76793 0.14901
 C1039 C 0.07653 0.75949 0.09905
 C1040 C 0.15277 0.75686 0.15892
 H1041 H 0.13492 0.74494 0.08411
 H1042 H 0.17871 0.74248 0.11945
 H1043 H 0.11999 0.77249 0.19265
 H1044 H 0.07708 0.77478 0.15753
 C1045 C 0.60353 0.25828 0.61838
 C1046 C 0.59972 0.26601 0.64897
 C1047 C 0.62428 0.26448 0.66904
 C1048 C 0.55378 0.25704 0.58430
 C1049 C 0.65729 0.24819 0.62788
 C1050 C 0.63241 0.24960 0.60771
 C1051 C 0.57708 0.25785 0.59892
 C1052 C 0.65329 0.25513 0.65892
 H1053 H 0.57753 0.27275 0.65749
 H1054 H 0.62039 0.27047 0.69266
 H1055 H 0.67933 0.24103 0.61940
 H1056 H 0.63558 0.24348 0.58401
 C1057 C 0.87732 0.23846 0.10509
 C1058 C 0.84631 0.23362 0.09966
 C1059 C 0.82560 0.23421 0.12369
 C1060 C 0.91331 0.24118 0.05689
 C1061 C 0.86686 0.24398 0.15919
 C1062 C 0.88766 0.24348 0.13492
 C1063 C 0.89778 0.23961 0.07949
 C1064 C 0.83550 0.23970 0.15376
 H1065 H 0.83803 0.22977 0.07670
 H1066 H 0.80172 0.23051 0.11857
 H1067 H 0.87523 0.24819 0.18204
 H1068 H 0.91165 0.24737 0.13936
 C1069 C 0.37969 0.74059 0.60586
 C1070 C 0.38987 0.74660 0.63556
 C1071 C 0.36905 0.74714 0.65982
 C1072 C 0.41555 0.74322 0.55752
 C1073 C 0.32808 0.73540 0.62458
 C1074 C 0.34882 0.73477 0.60057
 C1075 C 0.40011 0.74172 0.58020
 C1076 C 0.33781 0.74191 0.65450
 H1077 H 0.41374 0.75125 0.63990
 H1078 H 0.37729 0.75215 0.68255
 H1079 H 0.30430 0.73095 0.61958
 H1080 H 0.34065 0.73014 0.57771
 C1081 C 0.24317 0.11932 0.89858
 C1082 C 0.24746 0.10984 0.86842
 C1083 C 0.24859 0.13143 0.84489
 C1084 C 0.24518 0.08170 0.94553
 C1085 C 0.24098 0.17184 0.88179
 C1086 C 0.23975 0.15030 0.90512
 C1087 C 0.24382 0.09791 0.92339
 C1088 C 0.24567 0.16273 0.85140
 H1089 H 0.25028 0.08588 0.86315
 H1090 H 0.25215 0.12366 0.82175
 H1091 H 0.23835 0.19567 0.88767
 H1092 H 0.23652 0.15789 0.92839
 C1093 C 0.74396 0.61794 0.39613
 C1094 C 0.74816 0.60854 0.36593
 C1095 C 0.74927 0.63020 0.34247
 C1096 C 0.74597 0.58015 0.44294
 C1097 C 0.74179 0.67051 0.37951
 C1098 C 0.74060 0.64891 0.40277
 C1099 C 0.74462 0.59645 0.42088
 C1100 C 0.74640 0.66149 0.34907
 H1101 H 0.75094 0.58459 0.36058
 H1102 H 0.75276 0.62250 0.31929
 H1103 H 0.73921 0.69432 0.38547
 H1104 H 0.73743 0.65643 0.42607
 C1105 C 0.75357 0.10007 0.11435
 C1106 C 0.74787 0.12979 0.10403
 C1107 C 0.74548 0.15381 0.12500
 C1108 C 0.75426 0.05181 0.07847
 C1109 C 0.75461 0.11821 0.16632
 C1110 C 0.75711 0.09446 0.14546
 C1111 C 0.75434 0.07460 0.09378
 C1112 C 0.74850 0.14816 0.15645
 H1113 H 0.74496 0.13432 0.07994
 H1114 H 0.74091 0.17661 0.11668
 H1115 H 0.75745 0.11296 0.19028
 H1116 H 0.76144 0.07156 0.15369
 C1117 C 0.25438 0.60252 0.61516
 C1118 C 0.24895 0.63230 0.60491
 C1119 C 0.24685 0.65631 0.62591
 C1120 C 0.25456 0.55441 0.57909
 C1121 C 0.25577 0.62056 0.66716
 C1122 C 0.25795 0.59682 0.64626
 C1123 C 0.25487 0.57711 0.59452
 C1124 C 0.24994 0.65059 0.65734
 H1125 H 0.24602 0.63690 0.58083
 H1126 H 0.24250 0.67916 0.61763
 H1127 H 0.25862 0.61526 0.69111
 H1128 H 0.26208 0.57386 0.65443
 C1129 C 0.76006 0.89423 0.87837
 C1130 C 0.75614 0.86424 0.88870
 C1131 C 0.75570 0.83999 0.86783
 C1132 C 0.75763 0.94236 0.91458
 C1133 C 0.76325 0.87586 0.82649
 C1134 C 0.76377 0.89986 0.84727
 C1135 C 0.75907 0.91977 0.89897
 C1136 C 0.75897 0.84560 0.83640
 H1137 H 0.75313 0.85963 0.91276
 H1138 H 0.75244 0.81701 0.87623
 H1139 H 0.76611 0.88114 0.80256
 H1140 H 0.76676 0.92295 0.83899
 C1141 C 0.25745 0.39510 0.37835
 C1142 C 0.26072 0.40068 0.34720
 C1143 C 0.25999 0.37663 0.32648
 C1144 C 0.25560 0.44332 0.41445
 C1145 C 0.25310 0.34083 0.36799
 C1146 C 0.25375 0.36512 0.38880
 C1147 C 0.25676 0.42069 0.39890
 C1148 C 0.25596 0.34638 0.33651
 H1149 H 0.26353 0.42376 0.33883
 H1150 H 0.26253 0.38188 0.30250
 H1151 H 0.25004 0.31785 0.37647
 H1152 H 0.25109 0.36056 0.41291
 C1153 C 0.24173 0.88287 0.10336
 C1154 C 0.23615 0.85187 0.09900
 C1155 C 0.23768 0.83177 0.12349
 C1156 C 0.24284 0.91732 0.05396
 C1157 C 0.24980 0.87365 0.15745
 C1158 C 0.24837 0.89386 0.13265
 C1159 C 0.24203 0.90253 0.07710
 C1160 C 0.24488 0.84226 0.15299
 H1161 H 0.23103 0.84310 0.07648
 H1162 H 0.23335 0.80785 0.11916
 H1163 H 0.25526 0.88244 0.17986
 H1164 H 0.25282 0.91788 0.13624
 C1165 C 0.74215 0.38092 0.60291
 C1166 C 0.73691 0.34984 0.59864
 C1167 C 0.73850 0.32985 0.62321
 C1168 C 0.74301 0.41519 0.55337
 C1169 C 0.75002 0.37197 0.65707
 C1170 C 0.74853 0.39208 0.63220
 C1171 C 0.74231 0.40048 0.57658
 C1172 C 0.74542 0.34051 0.65272
 H1173 H 0.73199 0.34094 0.57612
 H1174 H 0.73441 0.30588 0.61894
 H1175 H 0.75526 0.38089 0.67948
 H1176 H 0.75272 0.41615 0.63572
 C1177 C 0.10549 0.12195 0.76300
 C1178 C 0.13505 0.11181 0.75630
 C1179 C 0.15937 0.13258 0.75562
 C1180 C 0.05710 0.08612 0.76018
 C1181 C 0.12447 0.17340 0.76869
 C1182 C 0.10040 0.15270 0.76946
 C1183 C 0.07975 0.10161 0.76180
 C1184 C 0.15422 0.16373 0.76141
 H1185 H 0.13921 0.08802 0.75114
 H1186 H 0.18197 0.12441 0.75000
 H1187 H 0.11964 0.19711 0.77360
 H1188 H 0.07764 0.16082 0.77463
 C1189 C 0.60617 0.62080 0.26030
 C1190 C 0.60092 0.65165 0.26618
 C1191 C 0.62495 0.67242 0.26548
 C1192 C 0.55775 0.58490 0.25772
 C1193 C 0.66015 0.63153 0.25354
 C1194 C 0.63588 0.61068 0.25415
 C1195 C 0.58048 0.60034 0.25920
 C1196 C 0.65485 0.66275 0.25883
 H1197 H 0.57807 0.65977 0.27091
 H1198 H 0.61996 0.69618 0.26997
 H1199 H 0.68286 0.62334 0.24841
 H1200 H 0.64020 0.58683 0.24944
 C1201 C 0.11822 0.89722 0.23866
 C1202 C 0.14886 0.90093 0.23100
 C1203 C 0.16885 0.87635 0.23279
 C1204 C 0.08418 0.94689 0.24012
 C1205 C 0.12748 0.84354 0.24909
 C1206 C 0.10740 0.86843 0.24742
 C1207 C 0.09888 0.92369 0.23913
 C1208 C 0.15857 0.84746 0.24233
 H1209 H 0.15748 0.92306 0.22420
 H1210 H 0.19253 0.88013 0.22693
 H1211 H 0.11890 0.82158 0.25637
 H1212 H 0.08366 0.86537 0.25349
 C1213 C 0.61831 0.39577 0.73902
 C1214 C 0.64899 0.39964 0.73159
 C1215 C 0.66907 0.37510 0.73327
 C1216 C 0.58423 0.44549 0.74051
 C1217 C 0.62773 0.34202 0.74903
 C1218 C 0.60756 0.36685 0.74747
 C1219 C 0.59885 0.42221 0.73952
 C1220 C 0.65887 0.34607 0.74247
 H1221 H 0.65758 0.42185 0.72503
 H1222 H 0.69278 0.37903 0.72759
 H1223 H 0.61919 0.31995 0.75607
 H1224 H 0.58380 0.36364 0.75337
 C1225 C 0.87984 0.10136 0.24038
 C1226 C 0.88928 0.13161 0.24411
 C1227 C 0.86762 0.15504 0.24551
 C1228 C 0.91795 0.05482 0.24238
 C1229 C 0.82719 0.11786 0.23920
 C1230 C 0.84881 0.09461 0.23772
 C1231 C 0.90142 0.07671 0.24096
 C1232 C 0.83628 0.14835 0.24339
 H1233 H 0.91328 0.13703 0.24636
 H1234 H 0.87537 0.17826 0.24867
 H1235 H 0.80331 0.11186 0.23721
 H1236 H 0.84127 0.07125 0.23493
 C1237 C 0.38193 0.60375 0.74151
 C1238 C 0.39140 0.63401 0.74522
 C1239 C 0.36976 0.65750 0.74649
 C1240 C 0.41979 0.55693 0.74358
 C1241 C 0.32929 0.62039 0.74009
 C1242 C 0.35088 0.59709 0.73874
 C1243 C 0.40346 0.57900 0.74215
 C1244 C 0.33840 0.65088 0.74427
 H1245 H 0.41540 0.63939 0.74754
 H1246 H 0.37753 0.68072 0.74965
 H1247 H 0.30542 0.61443 0.73802
 H1248 H 0.34330 0.57374 0.73595
 C1249 C 0.89904 0.88507 0.75753
 C1250 C 0.86973 0.89501 0.74947
 C1251 C 0.84583 0.87393 0.74697
 C1252 C 0.94721 0.92102 0.75752
 C1253 C 0.88069 0.83326 0.76087
 C1254 C 0.90432 0.85426 0.76349
 C1255 C 0.92452 0.90561 0.75794
 C1256 C 0.85123 0.84273 0.75222
 H1257 H 0.86549 0.91886 0.74466
 H1258 H 0.82340 0.88192 0.74039
 H1259 H 0.88565 0.80951 0.76548
 H1260 H 0.92693 0.84633 0.76965
 C1261 C 0.39593 0.38591 0.25665
 C1262 C 0.40111 0.35517 0.26307
 C1263 C 0.37742 0.33418 0.26077
 C1264 C 0.44436 0.42161 0.25613
 C1265 C 0.34266 0.37472 0.24626
 C1266 C 0.36663 0.39578 0.24845
 C1267 C 0.42151 0.40638 0.25674
 C1268 C 0.34797 0.34358 0.25197
 H1269 H 0.42369 0.34727 0.26935
 H1270 H 0.38232 0.31049 0.26572
 H1271 H 0.32025 0.38265 0.23955
 H1272 H 0.36244 0.41957 0.24327
   
