data_POSCAR
  _audit_creation_date              2014-09-24
  _audit_creation_method            'ToBaCCo'
  _symmetry_space_group_name_H-M    'P1'
  _symmetry_Int_Tables_number       1
  _symmetry_cell_setting            triclinic
  loop_
  _symmetry_equiv_pos_as_xyz
 x,y,z
_cell_length_a 49.2132
_cell_length_b 51.4311
_cell_length_c 59.5522
_cell_angle_alpha 89.913900
_cell_angle_beta 89.978500
_cell_angle_gamma 90.078600
loop_
  _atom_site_label
  _atom_site_type_symbol
  _atom_site_fract_x
  _atom_site_fract_y
  _atom_site_fract_z
Zr1 Zr 0.24921 0.24949 0.28881
 O2 O 0.27068 0.26946 0.31433
 O3 O 0.22241 0.22624 0.30754
 O4 O 0.22335 0.27430 0.30720
 O5 O 0.29912 0.20333 0.28042
 O6 O 0.20091 0.29722 0.28010
 O7 O 0.27461 0.22438 0.30739
 O8 O 0.19631 0.20693 0.28062
 O9 O 0.21362 0.25149 0.26964
 O10 O 0.24804 0.21558 0.26951
 O11 O 0.25257 0.28392 0.26986
 O12 O 0.28567 0.24947 0.27011
 Zr13 Zr 0.25144 0.25138 0.21033
 Zr14 Zr 0.21789 0.28466 0.24954
 Zr15 Zr 0.28293 0.21636 0.24968
 Zr16 Zr 0.21346 0.21829 0.24963
 O17 O 0.32592 0.21753 0.24886
 O18 O 0.17127 0.22649 0.24831
 O19 O 0.24824 0.21665 0.22914
 O20 O 0.21536 0.25147 0.22929
 O21 O 0.25275 0.28557 0.22939
 O22 O 0.28681 0.24947 0.22974
 C23 C 0.20269 0.21156 0.30119
 C24 C 0.29314 0.20833 0.30101
 C25 C 0.20578 0.29126 0.30071
 O26 O 0.17507 0.28343 0.24653
 O27 O 0.20651 0.30217 0.21902
 O28 O 0.22726 0.27785 0.19195
 C29 C 0.21159 0.29646 0.19841
 O30 O 0.30568 0.29652 0.27948
 Zr31 Zr 0.28725 0.28268 0.24951
 O32 O 0.27780 0.27510 0.19157
 O33 O 0.22314 0.32535 0.25255
 O34 O 0.28228 0.32363 0.24978
 O35 O 0.32973 0.27583 0.24873
 O36 O 0.30185 0.29680 0.21846
 C37 C 0.29591 0.29158 0.19790
 O38 O 0.22899 0.23263 0.18468
 O39 O 0.27748 0.17556 0.25059
 O40 O 0.27530 0.22468 0.19190
 O41 O 0.29598 0.20032 0.21905
 O42 O 0.21632 0.17720 0.25145
 O43 O 0.19836 0.20156 0.21950
 C44 C 0.29116 0.20621 0.19842
 H45 H 0.24752 0.19956 0.27874
 H46 H 0.19920 0.25204 0.21940
 H47 H 0.30358 0.24847 0.22060
 H48 H 0.25344 0.29935 0.27976
 H49 H 0.16145 0.21025 0.25216
 H50 H 0.16858 0.30162 0.24753
 H51 H 0.20481 0.33323 0.25157
 H52 H 0.30002 0.33149 0.24578
 H53 H 0.19795 0.17043 0.25498
 H54 H 0.29587 0.16778 0.25129
 H55 H 0.33228 0.19926 0.24845
 H56 H 0.33874 0.29253 0.24497
 H57 H 0.18246 0.19044 0.22298
 H58 H 0.23622 0.23889 0.17008
 H59 H 0.26357 0.26318 0.32897
 H60 H 0.31842 0.31082 0.27580
 Zr61 Zr 0.75221 0.75215 0.29086
 O62 O 0.73246 0.73193 0.31724
 O63 O 0.77780 0.77752 0.30855
 O64 O 0.77964 0.72934 0.30965
 O65 O 0.69889 0.79459 0.28187
 O66 O 0.80329 0.70702 0.28293
 O67 O 0.72546 0.77628 0.30904
 O68 O 0.80189 0.79772 0.28078
 O69 O 0.78760 0.75199 0.27133
 O70 O 0.75056 0.78539 0.27064
 O71 O 0.75116 0.71699 0.27287
 O72 O 0.71552 0.74909 0.27268
 Zr73 Zr 0.74876 0.74720 0.21251
 Zr74 Zr 0.78556 0.71801 0.25218
 Zr75 Zr 0.71549 0.78156 0.25130
 Zr76 Zr 0.78490 0.78435 0.25035
 O77 O 0.67269 0.77752 0.25099
 O78 O 0.82757 0.77908 0.24843
 O79 O 0.74976 0.78274 0.23030
 O80 O 0.78510 0.75045 0.23093
 O81 O 0.75046 0.71380 0.23260
 O82 O 0.71368 0.74759 0.23235
 C83 C 0.79636 0.79319 0.30156
 C84 C 0.70568 0.79082 0.30250
 C85 C 0.79808 0.71311 0.30344
 O86 O 0.82822 0.72239 0.24965
 O87 O 0.79941 0.70171 0.22194
 O88 O 0.77326 0.72044 0.19471
 C89 C 0.79207 0.70479 0.20139
 O90 O 0.69948 0.70108 0.28372
 Zr91 Zr 0.71609 0.71514 0.25306
 O92 O 0.72315 0.72176 0.19485
 O93 O 0.78334 0.67707 0.25528
 O94 O 0.72401 0.67464 0.25427
 O95 O 0.67320 0.71914 0.25287
 O96 O 0.70177 0.69906 0.22270
 C97 C 0.70651 0.70426 0.20192
 O98 O 0.77001 0.76572 0.18601
 O99 O 0.71792 0.82264 0.25107
 O100 O 0.72335 0.77215 0.19363
 O101 O 0.70111 0.79581 0.22036
 O102 O 0.77889 0.82516 0.25121
 O103 O 0.79806 0.80120 0.21959
 C104 C 0.70638 0.78984 0.19982
 H105 H 0.75009 0.80169 0.27944
 H106 H 0.80105 0.75070 0.22079
 H107 H 0.69671 0.74728 0.22344
 H108 H 0.75156 0.70183 0.28313
 H109 H 0.83621 0.79605 0.25177
 H110 H 0.83619 0.70476 0.25094
 H111 H 0.80225 0.67052 0.25460
 H112 H 0.70676 0.66550 0.25086
 H113 H 0.79673 0.83331 0.25440
 H114 H 0.69901 0.82919 0.25175
 H115 H 0.66502 0.79529 0.25009
 H116 H 0.66533 0.70176 0.24978
 H117 H 0.81306 0.81358 0.22256
 H118 H 0.76285 0.75852 0.17174
 H119 H 0.73933 0.73917 0.33161
 H120 H 0.68766 0.68591 0.28064
 Zr121 Zr 0.74996 0.24808 -0.29066
 O122 O 0.73161 0.27019 -0.31657
 O123 O 0.77350 0.22145 -0.30896
 O124 O 0.77899 0.26946 -0.30916
 O125 O 0.69356 0.20910 -0.28226
 O126 O 0.80450 0.28943 -0.28220
 O127 O 0.72153 0.22607 -0.30917
 O128 O 0.79591 0.19896 -0.28160
 O129 O 0.78537 0.24528 -0.27131
 O130 O 0.74574 0.21461 -0.27101
 O131 O 0.75184 0.28279 -0.27203
 O132 O 0.71369 0.25339 -0.27225
 Zr133 Zr 0.74720 0.25127 -0.21228
 Zr134 Zr 0.78616 0.27884 -0.25154
 Zr135 Zr 0.71109 0.22044 -0.25151
 Zr136 Zr 0.78015 0.21272 -0.25088
 O137 O 0.66879 0.22777 -0.25102
 O138 O 0.82312 0.21490 -0.24900
 O139 O 0.74527 0.21625 -0.23072
 O140 O 0.78317 0.24601 -0.23085
 O141 O 0.75160 0.28497 -0.23171
 O142 O 0.71209 0.25396 -0.23191
 C143 C 0.79077 0.20436 -0.30228
 C144 C 0.70076 0.21265 -0.30283
 C145 C 0.79863 0.28429 -0.30279
 O146 O 0.82833 0.27132 -0.24924
 O147 O 0.80116 0.29355 -0.22104
 O148 O 0.77326 0.27642 -0.19415
 C149 C 0.79327 0.29086 -0.20057
 O150 O 0.70079 0.30188 -0.28229
 Zr151 Zr 0.71715 0.28673 -0.25195
 O152 O 0.72267 0.27699 -0.19404
 O153 O 0.78728 0.31987 -0.25393
 O154 O 0.72817 0.32656 -0.25367
 O155 O 0.67410 0.28622 -0.25036
 O156 O 0.70618 0.30418 -0.22112
 C157 C 0.70920 0.29702 -0.20054
 O158 O 0.76743 0.23115 -0.18614
 O159 O 0.71000 0.17931 -0.25203
 O160 O 0.72053 0.22714 -0.19378
 O161 O 0.69581 0.20630 -0.22079
 O162 O 0.77101 0.17245 -0.25248
 O163 O 0.79190 0.19426 -0.22044
 C164 C 0.70206 0.21096 -0.20018
 H165 H 0.74400 0.19857 -0.28007
 H166 H 0.79906 0.24445 -0.22075
 H167 H 0.69526 0.25524 -0.22288
 H168 H 0.75337 0.29810 -0.28204
 H169 H 0.83037 0.19745 -0.25268
 H170 H 0.83770 0.28836 -0.25022
 H171 H 0.80667 0.32504 -0.25317
 H172 H 0.71180 0.33689 -0.24995
 H173 H 0.78820 0.16319 -0.25579
 H174 H 0.69059 0.17421 -0.25270
 H175 H 0.65962 0.21062 -0.25036
 H176 H 0.66807 0.30415 -0.24690
 H177 H 0.80596 0.18102 -0.22363
 H178 H 0.76075 0.23841 -0.17174
 H179 H 0.73787 0.26288 -0.33109
 H180 H 0.68989 0.31758 -0.27897
 Zr181 Zr 0.24771 0.75133 -0.28983
 O182 O 0.26834 0.73129 -0.31577
 O183 O 0.22218 0.77628 -0.30812
 O184 O 0.22088 0.72788 -0.30871
 O185 O 0.29966 0.79526 -0.28052
 O186 O 0.19739 0.70519 -0.28202
 O187 O 0.27424 0.77601 -0.30787
 O188 O 0.19694 0.79580 -0.28084
 O189 O 0.21200 0.75021 -0.27074
 O190 O 0.24808 0.78471 -0.26985
 O191 O 0.24948 0.71633 -0.27152
 O192 O 0.28411 0.74937 -0.27111
 Zr193 Zr 0.24963 0.74727 -0.21133
 Zr194 Zr 0.21475 0.71642 -0.25123
 Zr195 Zr 0.28285 0.78199 -0.25004
 Zr196 Zr 0.21335 0.78284 -0.25007
 O197 O 0.32573 0.77900 -0.24925
 O198 O 0.17082 0.77623 -0.24904
 O199 O 0.24811 0.78254 -0.22953
 O200 O 0.21366 0.74913 -0.23035
 O201 O 0.24944 0.71356 -0.23105
 O202 O 0.28513 0.74829 -0.23068
 C203 C 0.20317 0.79170 -0.30157
 C204 C 0.29348 0.79126 -0.30128
 C205 C 0.20263 0.71136 -0.30253
 O206 O 0.17200 0.71924 -0.24825
 O207 O 0.20251 0.69856 -0.22106
 O208 O 0.22384 0.72156 -0.19350
 C209 C 0.20738 0.70364 -0.20027
 O210 O 0.30203 0.70182 -0.28129
 Zr211 Zr 0.28410 0.71562 -0.25110
 O212 O 0.27477 0.72194 -0.19302
 O213 O 0.21813 0.67564 -0.25499
 O214 O 0.27724 0.67493 -0.25226
 O215 O 0.32685 0.72083 -0.25010
 O216 O 0.29786 0.70003 -0.22033
 C217 C 0.29210 0.70489 -0.19966
 O218 O 0.22816 0.76624 -0.18525
 O219 O 0.27937 0.82299 -0.25013
 O220 O 0.27459 0.77266 -0.19242
 O221 O 0.29650 0.79677 -0.21913
 O222 O 0.21810 0.82382 -0.25097
 O223 O 0.19885 0.79934 -0.21964
 C224 C 0.29129 0.79066 -0.19860
 H225 H 0.24834 0.80099 -0.27873
 H226 H 0.19743 0.74896 -0.22052
 H227 H 0.30189 0.74838 -0.22149
 H228 H 0.24968 0.70113 -0.28170
 H229 H 0.16176 0.79293 -0.25260
 H230 H 0.16470 0.70134 -0.24958
 H231 H 0.19946 0.66845 -0.25413
 H232 H 0.29458 0.66625 -0.24837
 H233 H 0.20007 0.83141 -0.25441
 H234 H 0.29812 0.83002 -0.25071
 H235 H 0.33297 0.79696 -0.24847
 H236 H 0.33509 0.70372 -0.24661
 H237 H 0.18342 0.81108 -0.22293
 H238 H 0.23506 0.75926 -0.17079
 H239 H 0.26157 0.73827 -0.33027
 H240 H 0.31419 0.68702 -0.27784
 Zr241 Zr 1.25355 1.25286 0.78946
 O242 O 1.23183 1.23415 0.81562
 O243 O 1.28131 1.27559 0.80763
 O244 O 1.27851 1.22734 0.80813
 O245 O 1.20713 1.30238 0.78028
 O246 O 1.29956 1.20298 0.78125
 O247 O 1.22857 1.27883 0.80756
 O248 O 1.30810 1.29330 0.78027
 O249 O 1.28892 1.24924 0.77015
 O250 O 1.25609 1.28633 0.76956
 O251 O 1.24871 1.21825 0.77109
 O252 O 1.21700 1.25405 0.77093
 Zr253 Zr 1.25049 1.24954 0.71105
 Zr254 Zr 1.28319 1.21595 0.75059
 Zr255 Zr 1.22110 1.28663 0.74988
 Zr256 Zr 1.29031 1.28199 0.74953
 O257 O 1.17810 1.28698 0.75027
 O258 O 1.33209 1.27204 0.74816
 O259 O 1.25549 1.28453 0.72914
 O260 O 1.28676 1.24859 0.72975
 O261 O 1.24809 1.21582 0.73072
 O262 O 1.21548 1.25324 0.73066
 C263 C 1.30160 1.28936 0.80094
 C264 C 1.21213 1.29674 0.80091
 C265 C 1.29520 1.20950 0.80180
 O266 O 1.32609 1.21557 0.74812
 O267 O 1.29505 1.19868 0.72016
 O268 O 1.27278 1.22153 0.69292
 C269 C 1.28915 1.20357 0.69954
 O270 O 1.19527 1.20829 0.78147
 Zr271 Zr 1.21389 1.22045 0.75100
 O272 O 1.22297 1.22650 0.69292
 O273 O 1.27613 1.17550 0.75341
 O274 O 1.21705 1.17935 0.75213
 O275 O 1.17168 1.22868 0.75024
 O276 O 1.19849 1.20607 0.72034
 C277 C 1.20441 1.21067 0.69965
 O278 O 1.27362 1.26690 0.68502
 O279 O 1.22846 1.32717 0.74906
 O280 O 1.22742 1.27650 0.69224
 O281 O 1.20796 1.30215 0.71905
 O282 O 1.28908 1.32319 0.75061
 O283 O 1.30608 1.29763 0.71914
 C284 C 1.21223 1.29556 0.69851
 H285 H 1.25745 1.30251 0.77848
 H286 H 1.30279 1.24734 0.71976
 H287 H 1.19863 1.25463 0.72168
 H288 H 1.24731 1.20302 0.78122
 H289 H 1.34265 1.28790 0.75180
 H290 H 1.33186 1.19715 0.74920
 H291 H 1.29413 1.16695 0.75265
 H292 H 1.19890 1.17213 0.74851
 H293 H 1.30770 1.32937 0.75408
 H294 H 1.21049 1.33581 0.74971
 H295 H 1.17246 1.30542 0.74916
 H296 H 1.16205 1.21215 0.74707
 H297 H 1.32243 1.30819 0.72244
 H298 H 1.26602 1.26068 0.67056
 H299 H 1.23925 1.24066 0.83005
 H300 H 1.18200 1.19429 0.77829
 Zr301 Zr 0.74870 0.74845 0.78841
 O302 O 0.76912 0.76860 0.81443
 O303 O 0.72193 0.72467 0.80661
 O304 O 0.72211 0.77240 0.80696
 O305 O 0.79939 0.70287 0.77964
 O306 O 0.69858 0.79447 0.77999
 O307 O 0.77522 0.72411 0.80676
 O308 O 0.69945 0.70186 0.77945
 O309 O 0.71316 0.74891 0.76910
 O310 O 0.74932 0.71478 0.76873
 O311 O 0.75045 0.78320 0.76983
 O312 O 0.78530 0.75015 0.76995
 Zr313 Zr 0.75163 0.75164 0.70999
 Zr314 Zr 0.71589 0.78248 0.74936
 Zr315 Zr 0.78425 0.71729 0.74908
 Zr316 Zr 0.71489 0.71604 0.74867
 O317 O 0.82710 0.72068 0.74947
 O318 O 0.67236 0.72254 0.74833
 O319 O 0.74983 0.71645 0.72831
 O320 O 0.71538 0.74957 0.72870
 O321 O 0.75091 0.78548 0.72949
 O322 O 0.78682 0.75089 0.72964
 C323 C 0.70441 0.70776 0.80004
 C324 C 0.79337 0.70771 0.80023
 C325 C 0.70387 0.78876 0.80058
 O326 O 0.67312 0.77916 0.74701
 O327 O 0.70249 0.79854 0.71885
 O328 O 0.72711 0.77785 0.69174
 C329 C 0.70905 0.79431 0.69827
 O330 O 0.80264 0.79773 0.78021
 Zr331 Zr 0.78538 0.78376 0.74981
 O332 O 0.77743 0.77647 0.69174
 O333 O 0.71916 0.82340 0.75179
 O334 O 0.77849 0.82444 0.75043
 O335 O 0.82819 0.77903 0.74933
 O336 O 0.79978 0.79896 0.71913
 C337 C 0.79462 0.79365 0.69845
 O338 O 0.73000 0.73266 0.68399
 O339 O 0.78083 0.67627 0.74857
 O340 O 0.77664 0.72617 0.69138
 O341 O 0.79862 0.70261 0.71835
 O342 O 0.72037 0.67514 0.74881
 O343 O 0.69978 0.69962 0.71840
 C344 C 0.79344 0.70843 0.69776
 H345 H 0.74942 0.69856 0.77770
 H346 H 0.69930 0.74947 0.71873
 H347 H 0.80376 0.75074 0.72067
 H348 H 0.75052 0.79858 0.77982
 H349 H 0.66338 0.70583 0.75209
 H350 H 0.66566 0.79701 0.74798
 H351 H 0.70043 0.83039 0.75101
 H352 H 0.79595 0.83311 0.74682
 H353 H 0.70257 0.66709 0.75235
 H354 H 0.79955 0.66924 0.74929
 H355 H 0.83445 0.70279 0.74849
 H356 H 0.83635 0.79626 0.74609
 H357 H 0.68429 0.68798 0.72187
 H358 H 0.73715 0.73936 0.66951
 H359 H 0.76217 0.76172 0.82892
 H360 H 0.81452 0.81282 0.77693
 Zr361 Zr 1.25163 0.74734 0.21078
 O362 O 1.23303 0.76922 0.18485
 O363 O 1.27557 0.72098 0.19254
 O364 O 1.28053 0.76900 0.19238
 O365 O 1.19513 0.70850 0.21898
 O366 O 1.30587 0.78901 0.21945
 O367 O 1.22381 0.72467 0.19222
 O368 O 1.29763 0.69828 0.21997
 O369 O 1.28694 0.74463 0.23024
 O370 O 1.24736 0.71387 0.23040
 O371 O 1.25326 0.78204 0.22947
 O372 O 1.21524 0.75263 0.22905
 Zr373 Zr 1.24845 0.75028 0.28909
 Zr374 Zr 1.28750 0.77817 0.25005
 Zr375 Zr 1.21256 0.71965 0.24974
 Zr376 Zr 1.28168 0.71199 0.25061
 O377 O 1.17025 0.72693 0.25009
 O378 O 1.32464 0.71427 0.25263
 O379 O 1.24664 0.71533 0.27062
 O380 O 1.28452 0.74525 0.27064
 O381 O 1.25286 0.78412 0.26983
 O382 O 1.21342 0.75309 0.26941
 C383 C 1.29272 0.70380 0.19927
 C384 C 1.20286 0.71147 0.19849
 C385 C 1.30005 0.78395 0.19882
 O386 O 1.32969 0.77084 0.25249
 O387 O 1.30206 0.79288 0.28072
 O388 O 1.27477 0.77466 0.30751
 C389 C 1.29450 0.78947 0.30121
 O390 O 1.20224 0.80124 0.21916
 Zr391 Zr 1.21851 0.78592 0.24947
 O392 O 1.22412 0.77613 0.30738
 O393 O 1.28853 0.81922 0.24774
 O394 O 1.22954 0.82576 0.24792
 O395 O 1.17545 0.78530 0.25087
 O396 O 1.20733 0.80321 0.28035
 C397 C 1.21050 0.79608 0.30093
 O398 O 1.26832 0.72970 0.31517
 O399 O 1.21149 0.67852 0.24913
 O400 O 1.22151 0.72639 0.30745
 O401 O 1.19700 0.70553 0.28035
 O402 O 1.27275 0.67169 0.24891
 O403 O 1.29326 0.69357 0.28111
 C404 C 1.20304 0.71029 0.30097
 H405 H 1.24575 0.69780 0.22137
 H406 H 1.30039 0.74367 0.28077
 H407 H 1.19656 0.75437 0.27840
 H408 H 1.25478 0.79738 0.21948
 H409 H 1.33194 0.69683 0.24901
 H410 H 1.33895 0.78793 0.25167
 H411 H 1.30789 0.82444 0.24868
 H412 H 1.21317 0.83607 0.25167
 H413 H 1.29002 0.66250 0.24576
 H414 H 1.19209 0.67341 0.24839
 H415 H 1.16108 0.70977 0.25068
 H416 H 1.16935 0.80318 0.25444
 H417 H 1.30743 0.68041 0.27800
 H418 H 1.26164 0.73684 0.32962
 H419 H 1.23943 0.76196 0.17036
 H420 H 1.19134 0.81692 0.22253
 Zr421 Zr 0.74860 1.25063 0.21038
 O422 O 0.76846 1.23011 0.18431
 O423 O 0.72274 1.27529 0.19220
 O424 O 0.72138 1.22737 0.19170
 O425 O 0.80068 1.29481 0.21948
 O426 O 0.69711 1.20577 0.21857
 O427 O 0.77602 1.27435 0.19220
 O428 O 0.70089 1.29853 0.21942
 O429 O 0.71297 1.25095 0.22962
 O430 O 0.75020 1.28414 0.23022
 O431 O 0.74922 1.21575 0.22886
 O432 O 0.78506 1.24788 0.22893
 Zr433 Zr 0.75114 1.24692 0.28883
 Zr434 Zr 0.71461 1.21722 0.24928
 Zr435 Zr 0.78495 1.28064 0.24994
 Zr436 Zr 0.71565 1.28365 0.25019
 O437 O 0.82768 1.27612 0.24965
 O438 O 0.67294 1.27819 0.25030
 O439 O 0.75048 1.28222 0.27063
 O440 O 0.71504 1.25003 0.27005
 O441 O 0.74946 1.21322 0.26918
 O442 O 0.78643 1.24688 0.26927
 C443 C 0.70579 1.29268 0.19879
 C444 C 0.79463 1.29025 0.19884
 C445 C 0.70268 1.21138 0.19800
 O446 O 0.67195 1.22166 0.25156
 O447 O 0.70061 1.20128 0.27971
 O448 O 0.72581 1.22118 0.30691
 C449 C 0.70730 1.20519 0.30032
 O450 O 0.80100 1.19995 0.21852
 Zr451 Zr 0.78405 1.21418 0.24895
 O452 O 0.77610 1.22130 0.30704
 O453 O 0.71662 1.17625 0.24670
 O454 O 0.77593 1.17369 0.24809
 O455 O 0.82697 1.21784 0.24956
 O456 O 0.79780 1.19838 0.27959
 C457 C 0.79274 1.20369 0.30029
 O458 O 0.72997 1.26626 0.31487
 O459 O 0.78282 1.32173 0.25059
 O460 O 0.77678 1.27170 0.30760
 O461 O 0.79959 1.29484 0.28077
 O462 O 0.72242 1.32439 0.25033
 O463 O 0.70081 1.30026 0.28046
 C464 C 0.79411 1.28908 0.30133
 H465 H 0.75086 1.30041 0.22133
 H466 H 0.69893 1.25047 0.28000
 H467 H 0.80331 1.24655 0.27828
 H468 H 0.74886 1.20043 0.21882
 H469 H 0.66449 1.29513 0.24657
 H470 H 0.66394 1.20401 0.25049
 H471 H 0.69768 1.16974 0.24742
 H472 H 0.79310 1.16455 0.25169
 H473 H 0.70490 1.33294 0.24676
 H474 H 0.80175 1.32827 0.24993
 H475 H 0.83558 1.29381 0.25074
 H476 H 0.83459 1.20040 0.25277
 H477 H 0.68567 1.31227 0.27698
 H478 H 0.73686 1.25929 0.32934
 H479 H 0.76179 1.23726 0.16984
 H480 H 0.81247 1.18459 0.22177
 N481 N 0.54839 1.02653 0.02404
 N482 N 0.56695 1.04434 0.02882
 N483 N 0.52994 0.97175 0.03977
 N484 N 0.53550 0.95470 0.05565
 N485 N 0.54902 0.97175 0.02433
 N486 N 0.56812 0.95462 0.02939
 N487 N 0.52922 1.02635 0.03940
 N488 N 0.53416 1.04393 0.05495
 C489 C 0.55753 1.05520 0.04804
 C490 C 0.55915 0.94394 0.04886
 N491 N 0.45211 0.97060 0.02485
 N492 N 0.43384 0.95258 0.02982
 N493 N 0.47067 1.02561 0.03977
 N494 N 0.46506 1.04265 0.05563
 N495 N 0.45143 1.02537 0.02449
 N496 N 0.43221 1.04234 0.02958
 N497 N 0.47145 0.97102 0.04004
 N498 N 0.46693 0.95337 0.05568
 Mn499 Mn 0.50032 0.99869 0.03988
 C500 C 0.44361 0.94185 0.04901
 C501 C 0.44124 1.05317 0.04892
 N502 N 0.54861 0.97143 -0.02438
 N503 N 0.56747 0.95405 -0.02937
 N504 N 0.52873 1.02581 -0.03990
 N505 N 0.53370 1.04300 -0.05583
 N506 N 0.54804 1.02621 -0.02467
 N507 N 0.56671 1.04375 -0.02992
 N508 N 0.52923 0.97122 -0.03955
 N509 N 0.53432 0.95377 -0.05517
 Mn510 Mn 0.54883 0.99898 -0.00017
 C511 C 0.55802 0.94301 -0.04851
 C512 C 0.55723 1.05426 -0.04928
 N513 N 0.45109 1.02513 -0.02414
 N514 N 0.43218 1.04251 -0.02904
 N515 N 0.47069 0.97056 -0.03928
 N516 N 0.46518 0.95347 -0.05513
 N517 N 0.45166 0.97036 -0.02380
 N518 N 0.43268 0.95305 -0.02877
 N519 N 0.47020 1.02516 -0.03955
 N520 N 0.46486 1.04247 -0.05527
 Mn521 Mn 0.45127 0.99786 0.00035
 Mn522 Mn 0.49972 0.99819 -0.03970
 Cl523 Cl 0.50004 0.99843 0.00009
 C524 C 0.44131 1.05335 -0.04841
 C525 C 0.44165 0.94246 -0.04823
 N526 N 1.04778 0.52701 0.52393
 N527 N 1.06619 0.54497 0.52864
 N528 N 1.02954 0.47209 0.53941
 N529 N 1.03536 0.45509 0.55528
 N530 N 1.04855 0.47228 0.52392
 N531 N 1.06782 0.45532 0.52887
 N532 N 1.02868 0.52667 0.53934
 N533 N 1.03351 0.54430 0.55487
 C534 C 1.05676 0.55575 0.54789
 C535 C 1.05906 0.44455 0.54834
 N536 N 0.95169 0.47091 0.52445
 N537 N 0.93352 0.45273 0.52923
 N538 N 0.97020 0.52580 0.53963
 N539 N 0.96496 0.54320 0.55527
 N540 N 0.95095 0.52566 0.52436
 N541 N 0.93206 0.54302 0.52925
 N542 N 0.97102 0.47122 0.53966
 N543 N 0.96659 0.45334 0.55511
 Mn544 Mn 0.99985 0.49894 0.53966
 C545 C 0.94333 0.44180 0.54831
 C546 C 0.94131 0.55398 0.54846
 N547 N 1.04820 0.47224 0.47535
 N548 N 1.06710 0.45491 0.47037
 N549 N 1.02818 0.52660 0.46007
 N550 N 1.03293 0.54414 0.44439
 N551 N 1.04743 0.52697 0.47533
 N552 N 1.06586 0.54483 0.47038
 N553 N 1.02886 0.47203 0.46015
 N554 N 1.03404 0.45466 0.44449
 Mn555 Mn 1.04830 0.49963 0.49963
 C556 C 1.05774 0.44393 0.45119
 C557 C 1.05628 0.55554 0.45115
 N558 N 0.95065 0.52572 0.47576
 N559 N 0.93217 0.54366 0.47126
 N560 N 0.97038 0.47126 0.46042
 N561 N 0.96525 0.45392 0.44471
 N562 N 0.95129 0.47096 0.47584
 N563 N 0.93261 0.45333 0.47097
 N564 N 0.96979 0.52584 0.46039
 N565 N 0.96496 0.54378 0.44510
 Mn566 Mn 0.95082 0.49831 0.50011
 Mn567 Mn 0.99930 0.49892 0.46011
 Cl568 Cl 0.99957 0.49894 0.49988
 C569 C 0.94162 0.55488 0.45216
 C570 C 0.94185 0.44267 0.45162
 N571 N 1.04831 0.47211 0.02216
 N572 N 1.06743 0.46660 0.03698
 N573 N 1.02972 0.45522 -0.02532
 N574 N 1.03636 0.43693 -0.03981
 N575 N 1.04811 0.47375 -0.02514
 N576 N 1.06760 0.46867 -0.03974
 N577 N 1.02994 0.45355 0.02161
 N578 N 1.03632 0.43474 0.03577
 C579 C 1.05952 0.44337 0.04546
 C580 C 1.05975 0.44581 -0.04893
 N581 N 0.95167 0.47182 -0.02476
 N582 N 0.93215 0.46583 -0.03909
 N583 N 0.97102 0.45250 0.02162
 N584 N 0.96541 0.43337 0.03568
 N585 N 0.95202 0.47042 0.02239
 N586 N 0.93320 0.46411 0.03724
 N587 N 0.97115 0.45439 -0.02548
 N588 N 0.96555 0.43632 -0.04053
 Mn589 Mn 1.00044 0.45374 -0.00188
 C590 C 0.94134 0.44388 -0.04905
 C591 C 0.94201 0.44110 0.04552
 N592 N 1.04702 0.52976 -0.02370
 N593 N 1.06563 0.53578 -0.03881
 N594 N 1.02805 0.54552 0.02441
 N595 N 1.03331 0.56328 0.03976
 N596 N 1.04766 0.52828 0.02349
 N597 N 1.06702 0.53409 0.03802
 N598 N 1.02827 0.54788 -0.02269
 N599 N 1.03391 0.56695 -0.03686
 Mn600 Mn 1.04801 0.50097 -0.00081
 C601 C 1.05706 0.55889 -0.04701
 C602 C 1.05750 0.55574 0.04826
 N603 N 0.95067 0.52659 0.02371
 N604 N 0.93108 0.53178 0.03821
 N605 N 0.96942 0.54671 -0.02251
 N606 N 0.96319 0.56574 -0.03645
 N607 N 0.95106 0.52814 -0.02342
 N608 N 0.93204 0.53395 -0.03823
 N609 N 0.96964 0.54455 0.02456
 N610 N 0.96365 0.56220 0.03984
 Mn611 Mn 0.95112 0.49924 -0.00054
 Mn612 Mn 0.99883 0.54635 0.00095
 Cl613 Cl 0.99960 0.50007 -0.00058
 C614 C 0.93971 0.55383 0.04837
 C615 C 0.94009 0.55732 -0.04634
 N616 N 0.54623 1.02730 0.52443
 N617 N 0.56455 1.04531 0.52922
 N618 N 0.52792 0.97235 0.53978
 N619 N 0.53340 0.95504 0.55547
 N620 N 0.54708 0.97261 0.52442
 N621 N 0.56614 0.95542 0.52928
 N622 N 0.52700 1.02693 0.53973
 N623 N 0.53164 1.04463 0.55526
 C624 C 0.55493 1.05611 0.54838
 C625 C 0.55709 0.94443 0.54856
 N626 N 0.45024 0.97100 0.52446
 N627 N 0.43147 0.95354 0.52964
 N628 N 0.46854 1.02592 0.53967
 N629 N 0.46285 1.04296 0.55548
 N630 N 0.44943 1.02571 0.52428
 N631 N 0.43019 1.04266 0.52925
 N632 N 0.46941 0.97138 0.53981
 N633 N 0.46423 0.95429 0.55576
 Mn634 Mn 0.49823 0.99914 0.53990
 C635 C 0.44074 0.94307 0.54909
 C636 C 0.43911 1.05347 0.54863
 N637 N 0.54720 0.97256 0.47588
 N638 N 0.56615 0.95521 0.47107
 N639 N 0.52725 1.02689 0.46046
 N640 N 0.53253 1.04399 0.44453
 N641 N 0.54635 1.02725 0.47585
 N642 N 0.56517 1.04466 0.47075
 N643 N 0.52801 0.97232 0.46057
 N644 N 0.53330 0.95486 0.44500
 Mn645 Mn 0.54702 0.99994 0.50015
 C646 C 0.55695 0.94416 0.45187
 C647 C 0.55600 1.05515 0.45131
 N648 N 0.44952 1.02575 0.47571
 N649 N 0.43058 1.04308 0.47078
 N650 N 0.46960 0.97141 0.46053
 N651 N 0.46482 0.95383 0.44494
 N652 N 0.45040 0.97104 0.47586
 N653 N 0.43197 0.95318 0.47104
 N654 N 0.46878 1.02598 0.46043
 N655 N 0.46354 1.04339 0.44478
 Mn656 Mn 0.44959 0.99837 0.50007
 Mn657 Mn 0.49840 0.99915 0.46035
 Cl658 Cl 0.49831 0.99915 0.50012
 C659 C 0.43986 1.05410 0.45155
 C660 C 0.44150 0.94244 0.45183
 N661 N 1.04949 1.03023 0.52451
 N662 N 1.06744 1.04854 0.52931
 N663 N 1.03226 0.97521 0.54052
 N664 N 1.03721 0.95767 0.55610
 N665 N 1.05175 0.97556 0.52545
 N666 N 1.07057 0.95813 0.53043
 N667 N 1.03011 1.02968 0.53966
 N668 N 1.03426 1.04755 0.55511
 C669 C 1.05739 1.05934 0.54831
 C670 C 1.06098 0.94702 0.54952
 N671 N 0.95497 0.97208 0.52445
 N672 N 0.93687 0.95391 0.52926
 N673 N 0.97192 1.02753 0.53907
 N674 N 0.96599 1.04497 0.55447
 N675 N 0.95296 1.02671 0.52358
 N676 N 0.93349 1.04363 0.52812
 N677 N 0.97389 0.97304 0.53997
 N678 N 0.96919 0.95564 0.55576
 Mn679 Mn 1.00205 1.00134 0.53996
 C680 C 0.94627 0.94367 0.54872
 C681 C 0.94220 1.05506 0.54732
 N682 N 1.05278 0.97477 0.47692
 N683 N 1.07291 0.95873 0.47220
 N684 N 1.03137 1.02774 0.46041
 N685 N 1.03536 1.04558 0.44486
 N686 N 1.05018 1.02917 0.47600
 N687 N 1.06761 1.04801 0.47139
 N688 N 1.03357 0.97306 0.46168
 N689 N 1.03986 0.95546 0.44645
 Mn690 Mn 1.05137 1.00247 0.50073
 C691 C 1.06427 0.94651 0.45340
 C692 C 1.05784 1.05819 0.45201
 N693 N 0.95382 1.02554 0.47502
 N694 N 0.93469 1.04252 0.46979
 N695 N 0.97517 0.97109 0.46100
 N696 N 0.97073 0.95328 0.44555
 N697 N 0.95568 0.97092 0.47608
 N698 N 0.93742 0.95291 0.47124
 N699 N 0.97308 1.02555 0.45975
 N700 N 0.96763 1.04249 0.44376
 Mn701 Mn 0.95404 0.99883 0.49977
 Mn702 Mn 1.00332 0.99932 0.46053
 Cl703 Cl 1.00269 1.00049 0.50024
 C704 C 0.94383 1.05311 0.45036
 C705 C 0.94736 0.94189 0.45230
 N706 N 0.54812 0.52803 0.02526
 N707 N 0.56603 0.54606 0.03079
 N708 N 0.53119 0.47156 0.03835
 N709 N 0.53685 0.45320 0.05312
 N710 N 0.55075 0.47365 0.02346
 N711 N 0.57050 0.45710 0.02794
 N712 N 0.52906 0.52617 0.04061
 N713 N 0.53344 0.54288 0.05698
 C714 C 0.55634 0.55533 0.05049
 C715 C 0.56127 0.44420 0.04623
 N716 N 0.45372 0.46983 0.02261
 N717 N 0.43541 0.45163 0.02688
 N718 N 0.47075 0.52403 0.04005
 N719 N 0.46521 0.54087 0.05605
 N720 N 0.45184 0.52442 0.02450
 N721 N 0.43283 0.54159 0.02956
 N722 N 0.47288 0.46961 0.03795
 N723 N 0.46823 0.45133 0.05297
 Mn724 Mn 0.50096 0.49780 0.03942
 C725 C 0.44504 0.44008 0.04572
 C726 C 0.44170 0.55183 0.04919
 N727 N 0.55133 0.47602 -0.02494
 N728 N 0.57115 0.45986 -0.03017
 N729 N 0.52988 0.53034 -0.03860
 N730 N 0.53475 0.54864 -0.05363
 N731 N 0.54886 0.53019 -0.02311
 N732 N 0.56746 0.54800 -0.02743
 N733 N 0.53220 0.47551 -0.04030
 N734 N 0.53823 0.45860 -0.05618
 Mn735 Mn 0.55001 0.50201 0.00018
 C736 C 0.56242 0.44886 -0.04948
 C737 C 0.55806 0.55966 -0.04624
 N738 N 0.45228 0.52672 -0.02412
 N739 N 0.43275 0.54348 -0.02893
 N740 N 0.47379 0.47345 -0.04091
 N741 N 0.47020 0.45568 -0.05655
 N742 N 0.45443 0.47212 -0.02576
 N743 N 0.43712 0.45333 -0.03069
 N744 N 0.47165 0.52790 -0.03927
 N745 N 0.46593 0.54545 -0.05467
 Mn746 Mn 0.45272 0.49830 -0.00070
 Mn747 Mn 0.50188 0.50178 -0.03997
 Cl748 Cl 0.50137 0.49999 -0.00027
 C749 C 0.44184 0.55523 -0.04789
 C750 C 0.44742 0.44317 -0.04985
 C751 C 0.33432 1.16329 0.15057
 N752 N 0.33989 1.16107 0.17279
 N753 N 0.32586 1.17457 0.18787
 C754 C 0.30577 1.19097 0.18136
 N755 N 0.30013 1.19328 0.15910
 N756 N 0.31410 1.17959 0.14396
 C757 C 0.35037 1.14830 0.13426
 N758 N 0.34290 1.14648 0.11234
 N759 N 0.35754 1.13234 0.09797
 C760 C 0.38026 1.11970 0.10500
 N761 N 0.38773 1.12171 0.12685
 N762 N 0.37304 1.13566 0.14119
 C763 C 0.39643 1.10354 0.08964
 N764 N 0.42050 1.09360 0.09666
 N765 N 0.43492 1.07803 0.08341
 C766 C 0.42580 1.07168 0.06265
 N767 N 0.40177 1.08169 0.05549
 N768 N 0.38736 1.09743 0.06874
 C769 C 0.83726 0.66680 0.64955
 N770 N 0.84373 0.66534 0.67165
 N771 N 0.82960 0.67855 0.68686
 C772 C 0.80853 0.69389 0.68059
 N773 N 0.80203 0.69550 0.65844
 N774 N 0.81610 0.68209 0.64318
 C775 C 0.85311 0.65184 0.63314
 N776 N 0.84475 0.64907 0.61152
 N777 N 0.85908 0.63468 0.59713
 C778 C 0.88234 0.62274 0.60383
 N779 N 0.89071 0.62573 0.62537
 N780 N 0.87635 0.63993 0.63975
 C781 C 0.89802 0.60609 0.58856
 N782 N 0.92223 0.59629 0.59538
 N783 N 0.93616 0.58015 0.58230
 C784 C 0.92639 0.57309 0.56192
 N785 N 0.90223 0.58298 0.55494
 N786 N 0.88830 0.59927 0.56803
 C787 C 0.66296 0.83154 0.15120
 N788 N 0.65629 0.83297 0.17326
 N789 N 0.67022 0.81968 0.18858
 C790 C 0.69131 0.80427 0.18247
 N791 N 0.69799 0.80268 0.16036
 N792 N 0.68412 0.81616 0.14499
 C793 C 0.64732 0.84666 0.13465
 N794 N 0.65577 0.84929 0.11303
 N795 N 0.64161 0.86375 0.09852
 C796 C 0.61844 0.87593 0.10511
 N797 N 0.61000 0.87310 0.12666
 N798 N 0.62417 0.85882 0.14114
 C799 C 0.60281 0.89254 0.08966
 N800 N 0.57863 0.90247 0.09640
 N801 N 0.56464 0.91841 0.08312
 C802 C 0.57431 0.92514 0.06259
 N803 N 0.59845 0.91513 0.05570
 N804 N 0.61244 0.89905 0.06899
 C805 C 1.16860 0.33743 0.65030
 N806 N 1.16376 0.34062 0.67254
 N807 N 1.17803 0.32752 0.68774
 C808 C 1.19764 0.31057 0.68133
 N809 N 1.20258 0.30731 0.65905
 N810 N 1.18837 0.32061 0.64378
 C811 C 1.15213 0.35181 0.63390
 N812 N 1.15903 0.35293 0.61182
 N813 N 1.14395 0.36654 0.59736
 C814 C 1.12136 0.37929 0.60447
 N815 N 1.11445 0.37797 0.62649
 N816 N 1.12958 0.36457 0.64092
 C817 C 1.10476 0.39494 0.58905
 N818 N 1.08073 0.40479 0.59623
 N819 N 1.06598 0.42008 0.58296
 C820 C 1.07475 0.42621 0.56203
 N821 N 1.09872 0.41625 0.55470
 N822 N 1.11345 0.40080 0.56797
 C823 C 0.65824 1.16916 -0.15176
 N824 N 0.68031 1.18343 -0.14567
 N825 N 0.69422 1.19701 -0.16097
 C826 C 0.68664 1.19666 -0.18292
 N827 N 0.66461 1.18239 -0.18894
 N828 N 0.65065 1.16899 -0.17366
 C829 C 0.64283 1.15372 -0.13525
 N830 N 0.61932 1.14196 -0.14148
 N831 N 0.60545 1.12733 -0.12700
 C832 C 0.61459 1.12375 -0.10573
 N833 N 0.63811 1.13555 -0.09941
 N834 N 0.65196 1.15033 -0.11391
 C835 C 0.59941 1.10672 -0.09027
 N836 N 0.60955 1.10004 -0.06982
 N837 N 0.59602 1.08363 -0.05648
 C838 C 0.57183 1.07343 -0.06310
 N839 N 0.56165 1.08031 -0.08341
 N840 N 0.57518 1.09660 -0.09674
 C841 C 1.15813 0.66979 0.34936
 N842 N 1.18038 0.68376 0.35549
 N843 N 1.19468 0.69689 0.34015
 C844 C 1.18732 0.69634 0.31816
 N845 N 1.16511 0.68236 0.31212
 N846 N 1.15076 0.66941 0.32742
 C847 C 1.14235 0.65485 0.36588
 N848 N 1.11862 0.64352 0.35966
 N849 N 1.10447 0.62920 0.37416
 C850 C 1.11354 0.62553 0.39543
 N851 N 1.13726 0.63693 0.40176
 N852 N 1.15138 0.65141 0.38724
 C853 C 1.09823 0.60861 0.41080
 N854 N 1.10843 0.60165 0.43115
 N855 N 1.09490 0.58508 0.44433
 C856 C 1.07069 0.57502 0.43763
 N857 N 1.06043 0.58222 0.41744
 N858 N 1.07395 0.59867 0.40427
 C859 C 0.33528 0.83199 -0.15014
 N860 N 0.34139 0.83396 -0.17228
 N861 N 0.32717 0.82088 -0.18754
 C862 C 0.30634 0.80515 -0.18130
 N863 N 0.30018 0.80305 -0.15911
 N864 N 0.31434 0.81633 -0.14379
 C865 C 0.35138 0.84674 -0.13367
 N866 N 0.34350 0.84891 -0.11187
 N867 N 0.35811 0.86301 -0.09742
 C868 C 0.38118 0.87527 -0.10425
 N869 N 0.38906 0.87289 -0.12597
 N870 N 0.37443 0.85898 -0.14039
 C871 C 0.39725 0.89154 -0.08885
 N872 N 0.42136 0.90153 -0.09581
 N873 N 0.43565 0.91727 -0.08259
 C874 C 0.42636 0.92372 -0.06190
 N875 N 0.40231 0.91363 -0.05479
 N876 N 0.38802 0.89775 -0.06802
 C877 C 0.83824 0.33002 0.34986
 N878 N 0.84500 0.33137 0.32781
 N879 N 0.83082 0.31834 0.31250
 C880 C 0.80939 0.30330 0.31862
 N881 N 0.80261 0.30180 0.34072
 N882 N 0.81673 0.31503 0.35607
 C883 C 0.85408 0.34488 0.36638
 N884 N 0.84555 0.34765 0.38796
 N885 N 0.85983 0.36197 0.40245
 C886 C 0.88322 0.37386 0.39589
 N887 N 0.89177 0.37087 0.37440
 N888 N 0.87746 0.35672 0.35992
 C889 C 0.89883 0.39049 0.41127
 N890 N 0.92302 0.40048 0.40452
 N891 N 0.93687 0.41663 0.41768
 C892 C 0.92704 0.42349 0.43810
 N893 N 0.90291 0.41340 0.44501
 N894 N 0.88906 0.39712 0.43183
 C895 C 1.17043 0.34106 0.15055
 N896 N 1.17956 0.31689 0.14530
 N897 N 1.19329 0.30284 0.16033
 C898 C 1.19807 0.31235 0.18123
 N899 N 1.18893 0.33649 0.18644
 N900 N 1.17554 0.35065 0.17134
 C901 C 1.15456 0.35637 0.13438
 N902 N 1.15197 0.38248 0.13698
 N903 N 1.13697 0.39637 0.12274
 C904 C 1.12366 0.38461 0.10556
 N905 N 1.12616 0.35849 0.10299
 N906 N 1.14145 0.34463 0.11707
 C907 C 1.10674 0.39992 0.09012
 N908 N 1.08725 0.38825 0.07751
 N909 N 1.07188 0.40218 0.06356
 C910 C 1.07562 0.42823 0.06155
 N911 N 1.09516 0.43990 0.07408
 N912 N 1.11030 0.42602 0.08824
 C913 C 0.66489 0.83574 0.65018
 N914 N 0.65794 0.83651 0.67220
 N915 N 0.67229 0.82350 0.68742
 C916 C 0.69411 0.80912 0.68121
 N917 N 0.70114 0.80829 0.65915
 N918 N 0.68683 0.82147 0.64389
 C919 C 0.64856 0.85013 0.63374
 N920 N 0.65687 0.85314 0.61213
 N921 N 0.64195 0.86684 0.59763
 C922 C 0.61814 0.87781 0.60424
 N923 N 0.60983 0.87459 0.62578
 N924 N 0.62477 0.86106 0.64025
 C925 C 0.60185 0.89374 0.58887
 N926 N 0.57734 0.90284 0.59566
 N927 N 0.56288 0.91849 0.58249
 C928 C 0.57242 0.92569 0.56205
 N929 N 0.59685 0.91645 0.55509
 N930 N 0.61132 0.90068 0.56827
 C931 C 1.16574 0.66111 -0.15412
 N932 N 1.16439 0.65521 -0.17627
 N933 N 1.17808 0.66920 -0.19133
 C934 C 1.19409 0.68942 -0.18484
 N935 N 1.19572 0.69509 -0.16257
 N936 N 1.18163 0.68133 -0.14752
 C937 C 1.14993 0.64590 -0.13777
 N938 N 1.14135 0.65669 -0.11821
 N939 N 1.12616 0.64301 -0.10386
 C940 C 1.11932 0.61797 -0.10843
 N941 N 1.12814 0.60714 -0.12788
 N942 N 1.14295 0.62093 -0.14237
 C943 C 1.10278 0.60270 -0.09262
 N944 N 1.10472 0.57637 -0.09218
 N945 N 1.09003 0.56244 -0.07770
 C946 C 1.07247 0.57428 -0.06344
 N947 N 1.07029 0.60059 -0.06402
 N948 N 1.08531 0.61457 -0.07826
 C949 C 0.66283 1.16383 0.34844
 N950 N 0.68498 1.17789 0.35466
 N951 N 0.69932 1.19108 0.33939
 C952 C 0.69211 1.19049 0.31737
 N953 N 0.67007 1.17633 0.31121
 N954 N 0.65569 1.16331 0.32645
 C955 C 0.64660 1.14934 0.36494
 N956 N 0.62285 1.13817 0.35856
 N957 N 0.60805 1.12458 0.37314
 C958 C 0.61646 1.12154 0.39467
 N959 N 0.64022 1.13274 0.40114
 N960 N 0.65500 1.14649 0.38654
 C961 C 0.60031 1.10560 0.41022
 N962 N 0.60981 1.09918 0.43092
 N963 N 0.59550 1.08350 0.44433
 C964 C 0.57116 1.07382 0.43752
 N965 N 0.56159 1.08049 0.41696
 N966 N 0.57590 1.09606 0.40356
 C967 C 0.83445 0.65995 0.15446
 N968 N 0.84534 0.66544 0.17482
 N969 N 0.83171 0.67970 0.18964
 C970 C 0.80679 0.68936 0.18458
 N971 N 0.79590 0.68407 0.16412
 N972 N 0.80944 0.66948 0.14936
 C973 C 0.84976 0.64396 0.13841
 N974 N 0.83707 0.63142 0.12130
 N975 N 0.85117 0.61647 0.10720
 C976 C 0.87849 0.61376 0.10958
 N977 N 0.89114 0.62645 0.12658
 N978 N 0.87702 0.64111 0.14082
 C979 C 0.89431 0.59769 0.09394
 N980 N 0.92156 0.60118 0.09203
 N981 N 0.93602 0.58702 0.07764
 C982 C 0.92384 0.56854 0.06488
 N983 N 0.89662 0.56484 0.06692
 N984 N 0.88208 0.57924 0.08112
 C985 C 0.33097 1.16012 0.65147
 N986 N 0.33708 1.15808 0.67360
 N987 N 0.32334 1.17161 0.68883
 C988 C 0.30300 1.18782 0.68252
 N989 N 0.29675 1.18985 0.66036
 N990 N 0.31044 1.17614 0.64508
 C991 C 0.34700 1.14555 0.63499
 N992 N 0.33935 1.14391 0.61312
 N993 N 0.35420 1.13035 0.59849
 C994 C 0.37731 1.11820 0.60524
 N995 N 0.38495 1.12002 0.62706
 N996 N 0.37006 1.13337 0.64165
 C997 C 0.39373 1.10272 0.58966
 N998 N 0.41809 1.09328 0.59649
 N999 N 0.43273 1.07812 0.58308
 C1000 C 0.42354 1.07174 0.56236
 N1001 N 0.39924 1.08130 0.55537
 N1002 N 0.38460 1.09662 0.56879
 C1003 C 0.83668 0.33457 -0.15341
 N1004 N 0.84795 0.32803 -0.17340
 N1005 N 0.83408 0.31397 -0.18825
 C1006 C 0.80853 0.30557 -0.18357
 N1007 N 0.79729 0.31186 -0.16346
 N1008 N 0.81108 0.32624 -0.14869
 C1009 C 0.85205 0.35072 -0.13747
 N1010 N 0.83924 0.36408 -0.12091
 N1011 N 0.85331 0.37933 -0.10701
 C1012 C 0.88072 0.38156 -0.10905
 N1013 N 0.89351 0.36803 -0.12549
 N1014 N 0.87942 0.35305 -0.13952
 C1015 C 0.89644 0.39817 -0.09370
 N1016 N 0.92370 0.39491 -0.09160
 N1017 N 0.93801 0.40964 -0.07750
 C1018 C 0.92567 0.42844 -0.06524
 N1019 N 0.89845 0.43189 -0.06747
 N1020 N 0.88407 0.41695 -0.08138
 C1021 C 0.33887 0.82975 0.34989
 N1022 N 0.34722 0.82916 0.32819
 N1023 N 0.33297 0.81635 0.31278
 C1024 C 0.30988 0.80351 0.31848
 N1025 N 0.30151 0.80397 0.34023
 N1026 N 0.31572 0.81695 0.35566
 C1027 C 0.35468 0.84439 0.36651
 N1028 N 0.34515 0.84847 0.38763
 N1029 N 0.35941 0.86265 0.40223
 C1030 C 0.38374 0.87308 0.39623
 N1031 N 0.39329 0.86877 0.37520
 N1032 N 0.37902 0.85475 0.36062
 C1033 C 0.39919 0.88973 0.41164
 N1034 N 0.42378 0.89913 0.40526
 N1035 N 0.43743 0.91544 0.41841
 C1036 C 0.42701 0.92300 0.43843
 N1037 N 0.40250 0.91346 0.44498
 N1038 N 0.38883 0.89705 0.43181
 C1039 C 1.15628 1.17416 0.35031
 N1040 N 1.17938 1.18699 0.35606
 N1041 N 1.19410 1.19920 0.34046
 C1042 C 1.18630 1.19883 0.31858
 N1043 N 1.16319 1.18605 0.31289
 N1044 N 1.14843 1.17399 0.32847
 C1045 C 1.14040 1.15982 0.36708
 N1046 N 1.11630 1.14898 0.36123
 N1047 N 1.10233 1.13475 0.37591
 C1048 C 1.11196 1.13075 0.39697
 N1049 N 1.13600 1.14175 0.40293
 N1050 N 1.14996 1.15611 0.38824
 C1051 C 1.09720 1.11349 0.41234
 N1052 N 1.10791 1.10643 0.43247
 N1053 N 1.09513 1.08921 0.44551
 C1054 C 1.07121 1.07854 0.43883
 N1055 N 1.06041 1.08585 0.41887
 N1056 N 1.07317 1.10299 0.40586
 C1057 C 0.66159 0.66779 -0.15041
 N1058 N 0.67136 0.65507 -0.16864
 N1059 N 0.68473 0.66793 -0.18461
 C1060 C 0.68922 0.69385 -0.18266
 N1061 N 0.67967 0.70655 -0.16433
 N1062 N 0.66582 0.69377 -0.14856
 C1063 C 0.64684 0.65354 -0.13303
 N1064 N 0.62457 0.66399 -0.12309
 N1065 N 0.61053 0.65042 -0.10793
 C1066 C 0.61868 0.62620 -0.10188
 N1067 N 0.64116 0.61593 -0.11161
 N1068 N 0.65486 0.62928 -0.12707
 C1069 C 0.60288 0.61070 -0.08599
 N1070 N 0.61554 0.59377 -0.07200
 N1071 N 0.60114 0.57819 -0.05866
 C1072 C 0.57360 0.57868 -0.05916
 N1073 N 0.56090 0.59561 -0.07313
 N1074 N 0.57531 0.61155 -0.08619
 C1075 C 0.83505 1.16343 0.64946
 N1076 N 0.84176 1.16210 0.67153
 N1077 N 0.82747 1.17501 0.68683
 C1078 C 0.80600 1.18989 0.68065
 N1079 N 0.79926 1.19131 0.65855
 N1080 N 0.81348 1.17821 0.64322
 C1081 C 0.85115 1.14904 0.63290
 N1082 N 0.84262 1.14622 0.61133
 N1083 N 0.85729 1.13251 0.59669
 C1084 C 0.88107 1.12135 0.60311
 N1085 N 0.88960 1.12438 0.62460
 N1086 N 0.87490 1.13790 0.63922
 C1087 C 0.89722 1.10551 0.58759
 N1088 N 0.92196 1.09677 0.59415
 N1089 N 0.93639 1.08122 0.58094
 C1090 C 0.92663 1.07372 0.56068
 N1091 N 0.90195 1.08258 0.55393
 N1092 N 0.88750 1.09829 0.56716
 C1093 C 0.33709 0.66251 0.15133
 N1094 N 0.31588 0.67767 0.14491
 N1095 N 0.30166 0.69094 0.16013
 C1096 C 0.30806 0.68933 0.18229
 N1097 N 0.32920 0.67411 0.18864
 N1098 N 0.34348 0.66101 0.17345
 C1099 C 0.35303 0.64777 0.13490
 N1100 N 0.37619 0.63572 0.14147
 N1101 N 0.39064 0.62179 0.12696
 C1102 C 0.38241 0.61924 0.10534
 N1103 N 0.35923 0.63132 0.09868
 N1104 N 0.34482 0.64543 0.11321
 C1105 C 0.39816 0.60294 0.08991
 N1106 N 0.38862 0.59670 0.06919
 N1107 N 0.40263 0.58071 0.05589
 C1108 C 0.42666 0.57056 0.06287
 N1109 N 0.43624 0.57705 0.08345
 N1110 N 0.42224 0.59290 0.09673
 C1111 C 1.16057 0.83174 0.65150
 N1112 N 1.18131 0.81594 0.64524
 N1113 N 1.19521 0.80255 0.66060
 C1114 C 1.18903 0.80465 0.68280
 N1115 N 1.16826 0.82050 0.68894
 N1116 N 1.15427 0.83368 0.67360
 C1117 C 1.14524 0.84691 0.63493
 N1118 N 1.15407 0.84955 0.61342
 N1119 N 1.14039 0.86428 0.59884
 C1120 C 1.11732 0.87671 0.60527
 N1121 N 1.10845 0.87384 0.62670
 N1122 N 1.12218 0.85930 0.64126
 C1123 C 1.10239 0.89376 0.58984
 N1124 N 1.07818 0.90383 0.59631
 N1125 N 1.06491 0.92037 0.58314
 C1126 C 1.07537 0.92759 0.56301
 N1127 N 1.09953 0.91744 0.55636
 N1128 N 1.11281 0.90074 0.56956
 C1129 C 0.66480 0.33452 0.14931
 N1130 N 0.66912 0.30863 0.14683
 N1131 N 0.68239 0.29527 0.16256
 C1132 C 0.69125 0.30726 0.18149
 N1133 N 0.68667 0.33309 0.18406
 N1134 N 0.67388 0.34654 0.16814
 C1135 C 0.65042 0.34935 0.13205
 N1136 N 0.65770 0.37427 0.12753
 N1137 N 0.64424 0.38807 0.11223
 C1138 C 0.62275 0.37759 0.10122
 N1139 N 0.61536 0.35270 0.10581
 N1140 N 0.62915 0.33872 0.12081
 C1141 C 0.60698 0.39345 0.08554
 N1142 N 0.57957 0.39092 0.08442
 N1143 N 0.56496 0.40683 0.07153
 C1144 C 0.57735 0.42545 0.05900
 N1145 N 0.60480 0.42767 0.05981
 N1146 N 0.61935 0.41209 0.07302
 C1147 C 0.84290 0.83224 0.34952
 N1148 N 0.84980 0.83303 0.32746
 N1149 N 0.83487 0.82067 0.31221
 C1150 C 0.81253 0.80696 0.31846
 N1151 N 0.80565 0.80608 0.34054
 N1152 N 0.82051 0.81859 0.35580
 C1153 C 0.85930 0.84628 0.36609
 N1154 N 0.85062 0.84918 0.38759
 N1155 N 0.86529 0.86278 0.40230
 C1156 C 0.88923 0.87377 0.39602
 N1157 N 0.89797 0.87064 0.37459
 N1158 N 0.88327 0.85719 0.35989
 C1159 C 0.90497 0.88987 0.41161
 N1160 N 0.92949 0.89942 0.40523
 N1161 N 0.94324 0.91543 0.41857
 C1162 C 0.93297 0.92255 0.43878
 N1163 N 0.90856 0.91283 0.44533
 N1164 N 0.89480 0.89670 0.43198
 C1165 C 0.34919 0.32648 -0.15070
 N1166 N 0.35688 0.32624 -0.17258
 N1167 N 0.34178 0.31423 -0.18792
 C1168 C 0.31847 0.30193 -0.18194
 N1169 N 0.31085 0.30196 -0.16002
 N1170 N 0.32591 0.31411 -0.14467
 C1171 C 0.36528 0.34090 -0.13418
 N1172 N 0.35592 0.34470 -0.11298
 N1173 N 0.36996 0.35917 -0.09849
 C1174 C 0.39389 0.37024 -0.10469
 N1175 N 0.40336 0.36616 -0.12579
 N1176 N 0.38930 0.35180 -0.14027
 C1177 C 0.40860 0.38766 -0.08949
 N1178 N 0.43252 0.39838 -0.09605
 N1179 N 0.44515 0.41563 -0.08309
 C1180 C 0.43429 0.42281 -0.06311
 N1181 N 0.41050 0.41192 -0.05638
 N1182 N 0.39786 0.39460 -0.06935
 C1183 C 1.17120 0.34179 -0.15164
 N1184 N 1.18018 0.31763 -0.14614
 N1185 N 1.19366 0.30329 -0.16109
 C1186 C 1.19825 0.31251 -0.18213
 N1187 N 1.18922 0.33662 -0.18758
 N1188 N 1.17610 0.35106 -0.17258
 C1189 C 1.15574 0.35748 -0.13559
 N1190 N 1.15370 0.38360 -0.13843
 N1191 N 1.13885 0.39786 -0.12439
 C1192 C 1.12517 0.38645 -0.10722
 N1193 N 1.12717 0.36031 -0.10439
 N1194 N 1.14232 0.34609 -0.11826
 C1195 C 1.10810 0.40202 -0.09223
 N1196 N 1.08799 0.39059 -0.08013
 N1197 N 1.07230 0.40471 -0.06663
 C1198 C 1.07633 0.43070 -0.06458
 N1199 N 1.09651 0.44215 -0.07659
 N1200 N 1.11199 0.42807 -0.09033
 C1201 C 0.66034 0.83088 0.35074
 N1202 N 0.68341 0.81816 0.35673
 N1203 N 0.69781 0.80513 0.34146
 C1204 C 0.68971 0.80450 0.31965
 N1205 N 0.66666 0.81722 0.31372
 N1206 N 0.65222 0.83009 0.32898
 C1207 C 0.64449 0.84578 0.36719
 N1208 N 0.62023 0.85614 0.36114
 N1209 N 0.60599 0.87041 0.37556
 C1210 C 0.61548 0.87498 0.39658
 N1211 N 0.63973 0.86455 0.40272
 N1212 N 0.65396 0.85014 0.38828
 C1213 C 0.59997 0.89176 0.41185
 N1214 N 0.61024 0.89935 0.43200
 N1215 N 0.59641 0.91571 0.44509
 C1216 C 0.57182 0.92495 0.43849
 N1217 N 0.56151 0.91714 0.41849
 N1218 N 0.57532 0.90089 0.40542
 C1219 C 0.83452 0.66341 -0.15185
 N1220 N 0.82373 0.68679 -0.14613
 N1221 N 0.81039 0.70100 -0.16129
 C1222 C 0.80780 0.69246 -0.18275
 N1223 N 0.81873 0.66917 -0.18843
 N1224 N 0.83170 0.65484 -0.17323
 C1225 C 0.84926 0.64757 -0.13543
 N1226 N 0.85221 0.62163 -0.13879
 N1227 N 0.86620 0.60715 -0.12430
 C1228 C 0.87808 0.61818 -0.10610
 N1229 N 0.87520 0.64415 -0.10275
 N1230 N 0.86089 0.65858 -0.11709
 C1231 C 0.89414 0.60232 -0.09056
 N1232 N 0.91319 0.61351 -0.07723
 N1233 N 0.92809 0.59905 -0.06335
 C1234 C 0.92426 0.57295 -0.06216
 N1235 N 0.90510 0.56176 -0.07538
 N1236 N 0.89045 0.57618 -0.08948
 C1237 C 0.33737 1.16753 0.34958
 N1238 N 0.34501 1.16731 0.32770
 N1239 N 0.33089 1.18038 0.31235
 C1240 C 0.30865 1.19433 0.31829
 N1241 N 0.30102 1.19470 0.34023
 N1242 N 0.31509 1.18146 0.35561
 C1243 C 0.35299 1.15251 0.36615
 N1244 N 0.34374 1.14883 0.38743
 N1245 N 0.35780 1.13435 0.40196
 C1246 C 0.38165 1.12319 0.39574
 N1247 N 0.39092 1.12708 0.37454
 N1248 N 0.37684 1.14139 0.36002
 C1249 C 0.39705 1.10641 0.41115
 N1250 N 0.42157 1.09698 0.40471
 N1251 N 0.43529 1.08076 0.41789
 C1252 C 0.42503 1.07326 0.43802
 N1253 N 0.40057 1.08279 0.44463
 N1254 N 0.38682 1.09914 0.43142
 C1255 C 1.15888 0.66864 0.15135
 N1256 N 1.14742 0.67569 0.17114
 N1257 N 1.16129 0.68984 0.18592
 C1258 C 1.18700 0.69781 0.18132
 N1259 N 1.19837 0.69110 0.16137
 N1260 N 1.18458 0.67666 0.14668
 C1261 C 1.14393 0.65184 0.13576
 N1262 N 1.15716 0.63825 0.11958
 N1263 N 1.14355 0.62223 0.10604
 C1264 C 1.11623 0.61941 0.10811
 N1265 N 1.10301 0.63315 0.12418
 N1266 N 1.11663 0.64893 0.13786
 C1267 C 1.10103 0.60214 0.09307
 N1268 N 1.07370 0.60468 0.09101
 N1269 N 1.05983 0.58957 0.07694
 C1270 C 1.07272 0.57112 0.06468
 N1271 N 1.10001 0.56833 0.06690
 N1272 N 1.11395 0.58366 0.08080
 C1273 C 0.65482 1.17351 0.64867
 N1274 N 0.64619 1.17502 0.67028
 N1275 N 0.66068 1.18780 0.68557
 C1276 C 0.68431 1.19972 0.67985
 N1277 N 0.69288 1.19844 0.65818
 N1278 N 0.67842 1.18551 0.64287
 C1279 C 0.63920 1.15826 0.63226
 N1280 N 0.64915 1.15335 0.61140
 N1281 N 0.63531 1.13842 0.59708
 C1282 C 0.61100 1.12796 0.60310
 N1283 N 0.60101 1.13309 0.62387
 N1284 N 0.61486 1.14790 0.63818
 C1285 C 0.59604 1.11045 0.58799
 N1286 N 0.57160 1.10073 0.59441
 N1287 N 0.55839 1.08384 0.58149
 C1288 C 0.56911 1.07597 0.56165
 N1289 N 0.59348 1.08580 0.55507
 N1290 N 0.60672 1.10278 0.56802
 C1291 C 0.83719 0.33406 0.15128
 N1292 N 0.83444 0.34252 0.17270
 N1293 N 0.82105 0.32832 0.18777
 C1294 C 0.80960 0.30529 0.18194
 N1295 N 0.81214 0.29685 0.16044
 N1296 N 0.82590 0.31092 0.14539
 C1297 C 0.85220 0.34990 0.13495
 N1298 N 0.86385 0.33895 0.11659
 N1299 N 0.87824 0.35344 0.10229
 C1300 C 0.88118 0.37940 0.10571
 N1301 N 0.86930 0.39035 0.12394
 N1302 N 0.85525 0.37582 0.13838
 C1303 C 0.89708 0.39542 0.09011
 N1304 N 0.89298 0.42149 0.08895
 N1305 N 0.90734 0.43610 0.07475
 C1306 C 0.92663 0.42520 0.06150
 N1307 N 0.93090 0.39917 0.06278
 N1308 N 0.91627 0.38451 0.07675
 C1309 C 0.33717 0.83101 0.65202
 N1310 N 0.31630 0.81537 0.64562
 N1311 N 0.30202 0.80210 0.66089
 C1312 C 0.30794 0.80414 0.68315
 N1313 N 0.32884 0.81983 0.68942
 N1314 N 0.34318 0.83291 0.67418
 C1315 C 0.35302 0.84599 0.63551
 N1316 N 0.37592 0.85857 0.64208
 N1317 N 0.39019 0.87275 0.62754
 C1318 C 0.38205 0.87506 0.60586
 N1319 N 0.35914 0.86246 0.59921
 N1320 N 0.34492 0.84811 0.61376
 C1321 C 0.39764 0.89161 0.59031
 N1322 N 0.38804 0.89766 0.56954
 N1323 N 0.40189 0.91374 0.55612
 C1324 C 0.42586 0.92419 0.56297
 N1325 N 0.43551 0.91791 0.58360
 N1326 N 0.42166 0.90198 0.59701
 C1327 C 0.33917 1.16799 -0.14985
 N1328 N 0.31819 1.18350 -0.14352
 N1329 N 0.30422 1.19700 -0.15881
 C1330 C 0.31064 1.19529 -0.18097
 N1331 N 0.33157 1.17976 -0.18721
 N1332 N 0.34561 1.16647 -0.17196
 C1333 C 0.35473 1.15270 -0.13340
 N1334 N 0.37775 1.14038 -0.13995
 N1335 N 0.39174 1.12584 -0.12555
 C1336 C 0.38321 1.12287 -0.10403
 N1337 N 0.36017 1.13521 -0.09738
 N1338 N 0.34621 1.14995 -0.11180
 C1339 C 0.39856 1.10590 -0.08871
 N1340 N 0.38873 1.09919 -0.06816
 N1341 N 0.40243 1.08273 -0.05500
 C1342 C 0.42646 1.07253 -0.06194
 N1343 N 0.43633 1.07946 -0.08236
 N1344 N 0.42264 1.09577 -0.09549
 C1345 C 0.84324 0.67373 0.35226
 N1346 N 0.85095 0.67354 0.33039
 N1347 N 0.83669 0.68637 0.31498
 C1348 C 0.81427 0.70009 0.32085
 N1349 N 0.80665 0.70054 0.34279
 N1350 N 0.82084 0.68751 0.35822
 C1351 C 0.85860 0.65843 0.36879
 N1352 N 0.84885 0.65414 0.38984
 N1353 N 0.86242 0.63901 0.40420
 C1354 C 0.88624 0.62777 0.39803
 N1355 N 0.89603 0.63231 0.37709
 N1356 N 0.88245 0.64727 0.36274
 C1357 C 0.90094 0.61004 0.41311
 N1358 N 0.92526 0.60022 0.40660
 N1359 N 0.93828 0.58306 0.41937
 C1360 C 0.92750 0.57498 0.43915
 N1361 N 0.90324 0.58491 0.44584
 N1362 N 0.89019 0.60219 0.43304
 C1363 C 0.65762 1.17155 0.14932
 N1364 N 0.64997 1.17130 0.17121
 N1365 N 0.66422 1.18423 0.18657
 C1366 C 0.68658 1.19810 0.18064
 N1367 N 0.69415 1.19858 0.15868
 N1368 N 0.67997 1.18547 0.14330
 C1369 C 0.64215 1.15630 0.13278
 N1370 N 0.65159 1.15252 0.11158
 N1371 N 0.63785 1.13765 0.09713
 C1372 C 0.61411 1.12616 0.10336
 N1373 N 0.60464 1.13017 0.12448
 N1374 N 0.61841 1.14488 0.13891
 C1375 C 0.59912 1.10886 0.08807
 N1376 N 0.57481 1.09891 0.09456
 N1377 N 0.56149 1.08225 0.08150
 C1378 C 0.57195 1.07482 0.06144
 N1379 N 0.59621 1.08487 0.05479
 N1380 N 0.60955 1.10165 0.06787
 C1381 C 1.15725 0.67203 0.64872
 N1382 N 1.14991 0.67139 0.67067
 N1383 N 1.16429 0.68413 0.68605
 C1384 C 1.18649 0.69820 0.68008
 N1385 N 1.19378 0.69909 0.65806
 N1386 N 1.17945 0.68615 0.64266
 C1387 C 1.14161 0.65698 0.63218
 N1388 N 1.15085 0.65334 0.61090
 N1389 N 1.13697 0.63856 0.59649
 C1390 C 1.11331 0.62702 0.60284
 N1391 N 1.10404 0.63089 0.62402
 N1392 N 1.11794 0.64552 0.63842
 C1393 C 1.09824 0.60972 0.58762
 N1394 N 1.07405 0.59964 0.59425
 N1395 N 1.06072 0.58288 0.58128
 C1396 C 1.07109 0.57549 0.56118
 N1397 N 1.09522 0.58567 0.55438
 N1398 N 1.10856 0.60254 0.56738
 C1399 C 0.65909 0.82883 -0.15077
 N1400 N 0.68113 0.81456 -0.14471
 N1401 N 0.69527 0.80145 -0.16011
 C1402 C 0.68795 0.80229 -0.18211
 N1403 N 0.66591 0.81653 -0.18809
 N1404 N 0.65171 0.82946 -0.17271
 C1405 C 0.64358 0.84390 -0.13417
 N1406 N 0.61991 0.85540 -0.14028
 N1407 N 0.60605 0.86984 -0.12574
 C1408 C 0.61535 0.87351 -0.10453
 N1409 N 0.63902 0.86196 -0.09832
 N1410 N 0.65286 0.84735 -0.11288
 C1411 C 0.60020 0.89044 -0.08908
 N1412 N 0.61059 0.89757 -0.06884
 N1413 N 0.59707 0.91402 -0.05559
 C1414 C 0.57267 0.92378 -0.06210
 N1415 N 0.56225 0.91643 -0.08220
 N1416 N 0.57575 0.90012 -0.09543
 C1417 C 1.16073 0.33139 0.34910
 N1418 N 1.18239 0.31670 0.35534
 N1419 N 1.19669 0.30366 0.34001
 C1420 C 1.18994 0.30502 0.31791
 N1421 N 1.16832 0.31972 0.31175
 N1422 N 1.15394 0.33257 0.32705
 C1423 C 1.14491 0.34621 0.36564
 N1424 N 1.12142 0.35785 0.35931
 N1425 N 1.10722 0.37202 0.37383
 C1426 C 1.11602 0.37523 0.39523
 N1427 N 1.13952 0.36354 0.40166
 N1428 N 1.15369 0.34920 0.38712
 C1429 C 1.10056 0.39188 0.41067
 N1430 N 1.11062 0.39879 0.43106
 N1431 N 1.09687 0.41506 0.44430
 C1432 C 1.07255 0.42484 0.43761
 N1433 N 1.06244 0.41769 0.41736
 N1434 N 1.07618 0.40156 0.40414
 C1435 C 0.34586 0.82331 0.15024
 N1436 N 0.35375 0.82300 0.17207
 N1437 N 0.33937 0.81010 0.18741
 C1438 C 0.31663 0.79683 0.18150
 N1439 N 0.30884 0.79688 0.15961
 N1440 N 0.32317 0.80994 0.14425
 C1441 C 0.36121 0.83877 0.13373
 N1442 N 0.35149 0.84288 0.11266
 N1443 N 0.36499 0.85804 0.09825
 C1444 C 0.38874 0.86952 0.10438
 N1445 N 0.39851 0.86518 0.12535
 N1446 N 0.38499 0.85016 0.13976
 C1447 C 0.40334 0.88721 0.08911
 N1448 N 0.42754 0.89748 0.09548
 N1449 N 0.44045 0.91448 0.08241
 C1450 C 0.42966 0.92194 0.06247
 N1451 N 0.40552 0.91159 0.05594
 N1452 N 0.39259 0.89448 0.06903
 C1453 C 0.84502 0.32290 0.64859
 N1454 N 0.82210 0.30988 0.64262
 N1455 N 0.80757 0.29705 0.65798
 C1456 C 0.81537 0.29690 0.67987
 N1457 N 0.83835 0.30980 0.68577
 N1458 N 0.85293 0.32247 0.67042
 C1459 C 0.86058 0.33818 0.63212
 N1460 N 0.88453 0.34922 0.63817
 N1461 N 0.89820 0.36419 0.62384
 C1462 C 0.88841 0.36884 0.60291
 N1463 N 0.86450 0.35770 0.59676
 N1464 N 0.85085 0.34258 0.61110
 C1465 C 0.90310 0.38661 0.58780
 N1466 N 0.89233 0.39419 0.56782
 N1467 N 0.90527 0.41146 0.55491
 C1468 C 0.92945 0.42167 0.56153
 N1469 N 0.94026 0.41388 0.58136
 N1470 N 0.92734 0.39671 0.59426
 C1471 C 1.15880 1.17148 0.65117
 N1472 N 1.15145 1.17081 0.67312
 N1473 N 1.16605 1.18328 0.68853
 C1474 C 1.18849 1.19699 0.68254
 N1475 N 1.19581 1.19778 0.66055
 N1476 N 1.18127 1.18515 0.64513
 C1477 C 1.14281 1.15718 0.63447
 N1478 N 1.15194 1.15408 0.61311
 N1479 N 1.13769 1.14014 0.59836
 C1480 C 1.11375 1.12899 0.60444
 N1481 N 1.10457 1.13234 0.62572
 N1482 N 1.11885 1.14612 0.64047
 C1483 C 1.09849 1.11247 0.58884
 N1484 N 1.07408 1.10260 0.59513
 N1485 N 1.06076 1.08621 0.58183
 C1486 C 1.07136 1.07903 0.56177
 N1487 N 1.09567 1.08908 0.55529
 N1488 N 1.10900 1.10558 0.56861
 C1489 C 0.66127 0.66321 0.15441
 N1490 N 0.65571 0.66097 0.17664
 N1491 N 0.67039 0.67384 0.19174
 C1492 C 0.69111 0.68952 0.18516
 N1493 N 0.69671 0.69180 0.16291
 N1494 N 0.68210 0.67878 0.14779
 C1495 C 0.64486 0.64898 0.13799
 N1496 N 0.65218 0.64798 0.11602
 N1497 N 0.63737 0.63448 0.10135
 C1498 C 0.61464 0.62169 0.10814
 N1499 N 0.60726 0.62288 0.13007
 N1500 N 0.62212 0.63624 0.14472
 C1501 C 0.59876 0.60590 0.09244
 N1502 N 0.57517 0.59475 0.09927
 N1503 N 0.56133 0.57916 0.08561
 C1504 C 0.57063 0.57410 0.06464
 N1505 N 0.59411 0.58540 0.05767
 N1506 N 0.60792 0.60111 0.07133
 C1507 C 1.17079 0.83927 0.35027
 N1508 N 1.18137 0.85124 0.33190
 N1509 N 1.19402 0.83749 0.31609
 C1510 C 1.19695 0.81138 0.31834
 N1511 N 1.18664 0.79948 0.33684
 N1512 N 1.17356 0.81315 0.35243
 C1513 C 1.15594 0.85420 0.36720
 N1514 N 1.13434 0.84352 0.37800
 N1515 N 1.12016 0.85737 0.39281
 C1516 C 1.12745 0.88219 0.39766
 N1517 N 1.14927 0.89275 0.38708
 N1518 N 1.16314 0.87906 0.37196
 C1519 C 1.11128 0.89777 0.41327
 N1520 N 1.12321 0.91629 0.42616
 N1521 N 1.10827 0.93125 0.43959
 C1522 C 1.08086 0.92850 0.44028
 N1523 N 1.06892 0.91004 0.42735
 N1524 N 1.08390 0.89475 0.41424
 C1525 C 0.66901 0.34059 -0.15178
 N1526 N 0.68043 0.35247 -0.16984
 N1527 N 0.69329 0.33859 -0.18543
 C1528 C 0.69562 0.31242 -0.18325
 N1529 N 0.68449 0.30059 -0.16505
 N1530 N 0.67119 0.31440 -0.14968
 C1531 C 0.65392 0.35570 -0.13516
 N1532 N 0.63149 0.34557 -0.12516
 N1533 N 0.61711 0.35966 -0.11066
 C1534 C 0.62500 0.38418 -0.10535
 N1535 N 0.64762 0.39420 -0.11513
 N1536 N 0.66171 0.38028 -0.12995
 C1537 C 0.60882 0.39999 -0.08995
 N1538 N 0.62100 0.41764 -0.07634
 N1539 N 0.60618 0.43272 -0.06293
 C1540 C 0.57867 0.43098 -0.06298
 N1541 N 0.56647 0.41341 -0.07664
 N1542 N 0.58132 0.39798 -0.08975
 C1543 C 0.83700 1.16188 0.34805
 N1544 N 0.84301 1.16015 0.32588
 N1545 N 0.82866 1.17330 0.31075
 C1546 C 0.80781 1.18881 0.31721
 N1547 N 0.80174 1.19061 0.33942
 N1548 N 0.81603 1.17728 0.35458
 C1549 C 0.85322 1.14730 0.36442
 N1550 N 0.84543 1.14520 0.38624
 N1551 N 0.86019 1.13137 0.40075
 C1552 C 0.88334 1.11936 0.39394
 N1553 N 0.89116 1.12165 0.37219
 N1554 N 0.87635 1.13530 0.35770
 C1555 C 0.89947 1.10341 0.40940
 N1556 N 0.92368 1.09365 0.40256
 N1557 N 0.93800 1.07809 0.41591
 C1558 C 0.92860 1.07162 0.43658
 N1559 N 0.90445 1.08149 0.44356
 N1560 N 0.89015 1.09719 0.43021
 C1561 C 0.33550 0.66327 -0.15120
 N1562 N 0.31377 0.67792 -0.14511
 N1563 N 0.29981 0.69120 -0.16051
 C1564 C 0.30698 0.69012 -0.18253
 N1565 N 0.32860 0.67537 -0.18856
 N1566 N 0.34263 0.66226 -0.17319
 C1567 C 0.35139 0.64878 -0.13452
 N1568 N 0.37530 0.63779 -0.14062
 N1569 N 0.38985 0.62428 -0.12587
 C1570 C 0.38101 0.62110 -0.10446
 N1571 N 0.35706 0.63208 -0.09828
 N1572 N 0.34254 0.64579 -0.11305
 C1573 C 0.39706 0.60533 -0.08877
 N1574 N 0.38704 0.59794 -0.06846
 N1575 N 0.40142 0.58236 -0.05503
 C1576 C 0.42633 0.57378 -0.06147
 N1577 N 0.43638 0.58144 -0.08162
 N1578 N 0.42201 0.59687 -0.09502
 C1579 C 0.84041 0.83367 0.65051
 N1580 N 0.81896 0.81882 0.64405
 N1581 N 0.80418 0.80606 0.65928
 C1582 C 0.81025 0.80791 0.68148
 N1583 N 0.83160 0.82286 0.68787
 N1584 N 0.84643 0.83545 0.67267
 C1585 C 0.85699 0.84779 0.63407
 N1586 N 0.88031 0.85953 0.64074
 N1587 N 0.89526 0.87302 0.62621
 C1588 C 0.88741 0.87538 0.60448
 N1589 N 0.86411 0.86357 0.59772
 N1590 N 0.84919 0.84991 0.61227
 C1591 C 0.90341 0.89153 0.58907
 N1592 N 0.89401 0.89767 0.56829
 N1593 N 0.90795 0.91386 0.55508
 C1594 C 0.93177 0.92433 0.56220
 N1595 N 0.94129 0.91790 0.58283
 N1596 N 0.92735 0.90183 0.59603
 C1597 C 0.34107 0.33007 0.14861
 N1598 N 0.34851 0.33113 0.17053
 N1599 N 0.33396 0.31898 0.18618
 C1600 C 0.31149 0.30519 0.18049
 N1601 N 0.30403 0.30403 0.15855
 N1602 N 0.31852 0.31637 0.14287
 C1603 C 0.35724 0.34385 0.13168
 N1604 N 0.34798 0.34720 0.11038
 N1605 N 0.36252 0.36069 0.09546
 C1606 C 0.38690 0.37108 0.10132
 N1607 N 0.39620 0.36746 0.12253
 N1608 N 0.38163 0.35415 0.13743
 C1609 C 0.40258 0.38720 0.08565
 N1610 N 0.42743 0.39607 0.09182
 N1611 N 0.44117 0.41230 0.07864
 C1612 C 0.43058 0.42033 0.05881
 N1613 N 0.40584 0.41126 0.05242
 N1614 N 0.39207 0.39491 0.06562
   
