data_POSCAR
  _audit_creation_date              2014-09-24
  _audit_creation_method            'ToBaCCo'
  _symmetry_space_group_name_H-M    'P1'
  _symmetry_Int_Tables_number       1
  _symmetry_cell_setting            triclinic
  loop_
  _symmetry_equiv_pos_as_xyz
 x,y,z
_cell_length_a 42.9554
_cell_length_b 42.9536
_cell_length_c 42.9409
_cell_angle_alpha 90.030700
_cell_angle_beta 90.030500
_cell_angle_gamma 89.999900
loop_
  _atom_site_label
  _atom_site_type_symbol
  _atom_site_fract_x
  _atom_site_fract_y
  _atom_site_fract_z
O1 O 0.22516 1.02988 0.02981
 O2 O 0.22516 0.96927 -0.03096
 O3 O 0.22451 0.96930 0.02964
 O4 O 0.22451 1.02988 -0.03079
 O5 O 0.27585 1.02995 -0.03085
 O6 O 0.27586 0.96921 0.02973
 O7 O 0.27646 0.96933 -0.03088
 O8 O 0.27651 1.02981 0.02976
 Cu9 Cu 0.21970 0.99958 -0.00058
 Cu10 Cu 0.28131 0.99957 -0.00057
 C11 C 0.25088 1.04022 0.04019
 C12 C 0.25085 0.95884 -0.04137
 C13 C 0.25014 0.95886 0.04006
 C14 C 0.25013 1.04033 -0.04118
 O15 O 0.77692 0.53028 0.53024
 O16 O 0.77689 0.46980 0.46960
 O17 O 0.77627 0.53043 0.46959
 O18 O 0.77630 0.46964 0.53025
 O19 O 0.72496 0.46972 0.53017
 O20 O 0.72493 0.53036 0.46966
 O21 O 0.72555 0.46973 0.46953
 O22 O 0.72558 0.53035 0.53030
 Cu23 Cu 0.78173 0.50004 0.49992
 Cu24 Cu 0.72012 0.50004 0.49992
 C25 C 0.75130 0.54069 0.54067
 C26 C 0.75126 0.45938 0.45916
 C27 C 0.75055 0.54081 0.45924
 C28 C 0.75059 0.45927 0.54059
 O29 O 0.72340 0.96981 1.03126
 O30 O 0.72347 1.03025 0.97059
 O31 O 0.72410 0.96962 0.97062
 O32 O 0.72402 1.03045 1.03124
 O33 O 0.77531 1.03038 1.03128
 O34 O 0.77544 0.96970 0.97081
 O35 O 0.77481 1.03032 0.97063
 O36 O 0.77469 0.96974 1.03144
 Cu37 Cu 0.71862 1.00003 1.00093
 Cu38 Cu 0.78019 1.00004 1.00106
 C39 C 0.74899 0.95932 1.04181
 C40 C 0.74911 1.04066 0.96020
 C41 C 0.74983 0.95925 0.96033
 C42 C 0.74970 1.04091 1.04169
 O43 O 0.22331 0.46991 0.53025
 O44 O 0.22327 0.53029 0.46965
 O45 O 0.22393 0.46968 0.46964
 O46 O 0.22391 0.53051 0.53027
 O47 O 0.27526 0.53046 0.53021
 O48 O 0.27527 0.46979 0.46973
 O49 O 0.27461 0.53038 0.46960
 O50 O 0.27466 0.46987 0.53034
 Cu51 Cu 0.21846 0.50010 0.49995
 Cu52 Cu 0.28010 0.50013 0.49997
 C53 C 0.24895 0.45953 0.54069
 C54 C 0.24889 0.54070 0.45923
 C55 C 0.24965 0.45932 0.45931
 C56 C 0.24963 0.54089 0.54063
 O57 O 1.02995 0.27613 0.02976
 O58 O 0.96921 0.27618 -0.03059
 O59 O 0.96936 0.27540 0.03003
 O60 O 1.02981 0.27553 -0.03085
 O61 O 1.02975 0.22418 -0.03088
 O62 O 0.96947 0.22405 0.02984
 O63 O 0.96915 0.22488 -0.03077
 O64 O 1.03006 0.22479 0.02973
 Cu65 Cu 0.99958 0.28095 -0.00040
 Cu66 Cu 0.99961 0.21934 -0.00053
 C67 C 1.04044 0.25050 0.04010
 C68 C 0.95869 0.25059 -0.04110
 C69 C 0.95907 0.24965 0.04036
 C70 C 1.04014 0.24983 -0.04127
 O71 O 0.53046 0.72509 0.53039
 O72 O 0.46955 0.72510 0.46990
 O73 O 0.53018 0.72446 0.46974
 O74 O 0.46984 0.72443 0.53055
 O75 O 0.46976 0.77577 0.53067
 O76 O 0.53025 0.77580 0.46971
 O77 O 0.46961 0.77645 0.47002
 O78 O 0.53038 0.77644 0.53036
 Cu79 Cu 0.50001 0.71963 0.50014
 Cu80 Cu 0.50000 0.78125 0.50019
 C81 C 0.54084 0.75081 0.54074
 C82 C 0.45915 0.75082 0.45961
 C83 C 0.54058 0.75009 0.45930
 C84 C 0.45945 0.75005 0.54105
 O85 O 0.03052 0.77512 -0.03111
 O86 O -0.03043 0.77522 0.02934
 O87 O 0.03019 0.77578 0.02953
 O88 O -0.03013 0.77585 -0.03130
 O89 O -0.03028 0.72456 -0.03141
 O90 O 0.03019 0.72444 0.02956
 O91 O -0.03043 0.72388 0.02923
 O92 O 0.03037 0.72383 -0.03108
 Cu93 Cu 0.00004 0.78062 -0.00089
 Cu94 Cu -0.00004 0.71905 -0.00094
 C95 C 0.04095 0.74942 -0.04150
 C96 C -0.04086 0.74952 0.03964
 C97 C 0.04054 0.75014 0.03999
 C98 C -0.04063 0.75027 -0.04184
 O99 O 0.53048 0.22357 0.46994
 O100 O 0.46976 0.22361 0.53019
 O101 O 0.46989 0.22425 0.46957
 O102 O 0.53036 0.22427 0.53055
 O103 O 0.53030 0.27561 0.53048
 O104 O 0.46998 0.27560 0.46965
 O105 O 0.46970 0.27496 0.53026
 O106 O 0.53057 0.27491 0.46987
 Cu107 Cu 0.50012 0.21878 0.50006
 Cu108 Cu 0.50014 0.28042 0.50007
 C109 C 0.54094 0.24918 0.45956
 C110 C 0.45931 0.24924 0.54056
 C111 C 0.45958 0.24997 0.45918
 C112 C 0.54068 0.24999 0.54095
 O113 O 1.02983 0.02985 0.22536
 O114 O 0.96924 -0.03095 0.22541
 O115 O 0.96923 0.02965 0.22473
 O116 O 1.02985 -0.03075 0.22470
 O117 O 1.02998 -0.03081 0.27606
 O118 O 0.96920 0.02975 0.27609
 O119 O 0.96936 -0.03086 0.27672
 O120 O 1.02981 0.02981 0.27672
 Cu121 Cu 0.99953 -0.00056 0.21991
 Cu122 Cu 0.99959 -0.00053 0.28154
 C123 C 1.04020 0.04024 0.25108
 C124 C 0.95886 -0.04138 0.25111
 C125 C 0.95882 0.04007 0.25037
 C126 C 1.04033 -0.04114 0.25032
 O127 O 0.53033 0.53038 0.77742
 O128 O 0.46995 0.46976 0.77737
 O129 O 0.53057 0.46977 0.77674
 O130 O 0.46970 0.53039 0.77679
 O131 O 0.46975 0.53032 0.72543
 O132 O 0.53046 0.46987 0.72538
 O133 O 0.46986 0.46971 0.72601
 O134 O 0.53037 0.53046 0.72606
 Cu135 Cu 0.50014 0.50008 0.78223
 Cu136 Cu 0.50010 0.50009 0.72058
 C137 C 0.54072 0.54081 0.75179
 C138 C 0.45955 0.45933 0.75173
 C139 C 0.54093 0.45944 0.75101
 C140 C 0.45930 0.54073 0.75107
 O141 O 0.96931 1.03092 0.72323
 O142 O 1.02975 0.97023 0.72321
 O143 O 0.96915 0.97029 0.72389
 O144 O 1.02994 1.03084 0.72375
 O145 O 1.02994 1.03085 0.77511
 O146 O 0.96931 0.97046 0.77525
 O147 O 1.02990 0.97025 0.77457
 O148 O 0.96933 1.03107 0.77454
 Cu149 Cu 0.99953 1.00057 0.71838
 Cu150 Cu 0.99963 1.00067 0.78000
 C151 C 0.95889 1.04147 0.74884
 C152 C 1.04019 0.95982 0.74885
 C153 C 0.95884 0.95999 0.74964
 C154 C 1.04035 1.04120 0.74945
 O155 O 0.46988 0.53029 0.22278
 O156 O 0.53027 0.46967 0.22277
 O157 O 0.46965 0.46967 0.22341
 O158 O 0.53049 0.53030 0.22340
 O159 O 0.53046 0.53025 0.27476
 O160 O 0.46977 0.46978 0.27477
 O161 O 0.53037 0.46963 0.27413
 O162 O 0.46986 0.53038 0.27415
 Cu163 Cu 0.50007 0.49998 0.21795
 Cu164 Cu 0.50012 0.50001 0.27960
 C165 C 0.45951 0.54073 0.24842
 C166 C 0.54067 0.45925 0.24840
 C167 C 0.45930 0.45934 0.24915
 C168 C 0.54088 0.54067 0.24913
 O169 O 0.25020 0.16910 0.20657
 O170 O 0.28556 0.16102 0.25022
 O171 O 0.16938 0.20655 0.25117
 O172 O 0.15769 0.24708 0.28174
 O173 O 0.20702 0.25032 0.16885
 O174 O 0.25020 0.28426 0.16013
 O175 O 0.25094 0.29267 0.33057
 O176 O 0.21480 0.25160 0.33886
 O177 O 0.33061 0.25095 0.29264
 O178 O 0.33991 0.21568 0.25286
 O179 O 0.29283 0.33030 0.25074
 O180 O 0.24830 0.34007 0.21592
 O181 O 0.25090 0.33014 0.29312
 O182 O 0.21516 0.33950 0.24867
 O183 O 0.33038 0.29291 0.25061
 O184 O 0.33879 0.24783 0.21435
 O185 O 0.29328 0.25116 0.33025
 O186 O 0.25088 0.21540 0.34011
 O187 O 0.25058 0.20656 0.16904
 O188 O 0.28508 0.25002 0.16063
 O189 O 0.16944 0.24999 0.20625
 O190 O 0.16224 0.28643 0.24976
 O191 O 0.20669 0.16878 0.24971
 O192 O 0.24779 0.16190 0.28646
 Zr193 Zr 0.24871 0.19393 0.24892
 O194 O 0.27798 0.22078 0.27766
 Zr195 Zr 0.19413 0.24883 0.24865
 O196 O 0.22085 0.27769 0.27811
 Zr197 Zr 0.24901 0.24866 0.19408
 O198 O 0.27787 0.27793 0.22079
 Zr199 Zr 0.25100 0.25063 0.30549
 O200 O 0.22135 0.22149 0.27893
 Zr201 Zr 0.30546 0.25073 0.25062
 O202 O 0.27900 0.22103 0.22136
 Zr203 Zr 0.25064 0.30535 0.25081
 O204 O 0.22143 0.27882 0.22113
 O205 O 0.21999 0.21990 0.21989
 O206 O 0.28000 0.27993 0.27991
 C207 C 0.25104 0.17809 0.17808
 C208 C 0.17826 0.17796 0.25109
 C209 C 0.17851 0.25079 0.17778
 C210 C 0.25093 0.32115 0.32160
 C211 C 0.32172 0.25109 0.32116
 C212 C 0.32134 0.32138 0.25062
 H213 H 0.29130 0.20671 0.29008
 H214 H 0.29061 0.29082 0.20664
 H215 H 0.20667 0.20660 0.20659
 H216 H 0.20687 0.29036 0.29129
 H217 H 0.19910 0.23611 0.33211
 H218 H 0.16459 0.25900 0.30020
 H219 H 0.33555 0.26573 0.20024
 H220 H 0.30111 0.23500 0.16760
 H221 H 0.26651 0.19953 0.33432
 H222 H 0.23223 0.16958 0.30163
 H223 H 0.26449 0.33537 0.20024
 H224 H 0.23609 0.30089 0.16758
 H225 H 0.27720 0.14018 0.24470
 H226 H 0.33072 0.19694 0.24311
 H227 H 0.16858 0.30113 0.23319
 H228 H 0.20021 0.33523 0.26565
 O229 O 0.74977 0.83114 0.20670
 O230 O 0.71449 0.83917 0.25041
 O231 O 0.83067 0.79358 0.25111
 O232 O 0.84242 0.75302 0.28155
 O233 O 0.79280 0.74991 0.16874
 O234 O 0.74956 0.71601 0.16002
 O235 O 0.74924 0.70743 0.33049
 O236 O 0.78542 0.74848 0.33880
 O237 O 0.66950 0.74923 0.29274
 O238 O 0.66013 0.78454 0.25305
 O239 O 0.70716 0.66990 0.25063
 O240 O 0.75155 0.66010 0.21577
 O241 O 0.74918 0.66999 0.29297
 O242 O 0.78485 0.66071 0.24841
 O243 O 0.66962 0.70729 0.25062
 O244 O 0.66113 0.75240 0.21448
 O245 O 0.70691 0.74897 0.33031
 O246 O 0.74938 0.78471 0.34015
 O247 O 0.74928 0.79373 0.16909
 O248 O 0.71469 0.75028 0.16066
 O249 O 0.83048 0.75018 0.20608
 O250 O 0.83773 0.71369 0.24954
 O251 O 0.79337 0.83138 0.24979
 O252 O 0.75236 0.83824 0.28660
 Zr253 Zr 0.75133 0.80625 0.24900
 O254 O 0.72212 0.77938 0.27774
 Zr255 Zr 0.80588 0.75131 0.24853
 O256 O 0.77922 0.72245 0.27800
 Zr257 Zr 0.75087 0.75158 0.19404
 O258 O 0.72207 0.72230 0.22076
 Zr259 Zr 0.74915 0.74949 0.30549
 O260 O 0.77875 0.77863 0.27892
 Zr261 Zr 0.69455 0.74948 0.25069
 O262 O 0.72096 0.77919 0.22144
 Zr263 Zr 0.74936 0.69483 0.25070
 O264 O 0.77850 0.72137 0.22100
 O265 O 0.77997 0.78029 0.21987
 O266 O 0.72007 0.72023 0.27989
 C267 C 0.74886 0.82220 0.17818
 C268 C 0.82180 0.82217 0.25110
 C269 C 0.82134 0.74941 0.17762
 C270 C 0.74922 0.67895 0.32148
 C271 C 0.67844 0.74906 0.32126
 C272 C 0.67865 0.67882 0.25057
 H273 H 0.70883 0.79345 0.29021
 H274 H 0.70929 0.70942 0.20661
 H275 H 0.79327 0.79359 0.20658
 H276 H 0.79323 0.70977 0.29113
 H277 H 0.80113 0.76395 0.33205
 H278 H 0.83556 0.74113 0.30002
 H279 H 0.66436 0.73453 0.20030
 H280 H 0.69871 0.76533 0.16768
 H281 H 0.73372 0.80057 0.33443
 H282 H 0.76794 0.83054 0.30174
 H283 H 0.73540 0.66489 0.20006
 H284 H 0.76367 0.69936 0.16742
 H285 H 0.72285 0.86001 0.24493
 H286 H 0.66930 0.80327 0.24329
 H287 H 0.83136 0.69902 0.23292
 H288 H 0.79979 0.66490 0.26544
 O289 O 0.75006 0.16930 0.79358
 O290 O 0.71467 0.16119 0.74993
 O291 O 0.83089 0.20666 0.74892
 O292 O 0.84259 0.24715 0.71838
 O293 O 0.79327 0.25055 0.83126
 O294 O 0.75011 0.28453 0.83998
 O295 O 0.74936 0.29273 0.66951
 O296 O 0.78550 0.25161 0.66126
 O297 O 0.66968 0.25108 0.70747
 O298 O 0.66037 0.21586 0.74725
 O299 O 0.70748 0.33047 0.74934
 O300 O 0.75200 0.34030 0.78413
 O301 O 0.74942 0.33025 0.70695
 O302 O 0.78519 0.33962 0.75142
 O303 O 0.66992 0.29309 0.74950
 O304 O 0.66150 0.24808 0.78575
 O305 O 0.70701 0.25123 0.66985
 O306 O 0.74937 0.21545 0.66000
 O307 O 0.74970 0.20680 0.83110
 O308 O 0.71519 0.25031 0.83948
 O309 O 0.83085 0.25015 0.79385
 O310 O 0.83805 0.28654 0.75034
 O311 O 0.79356 0.16891 0.75041
 O312 O 0.75245 0.16198 0.71370
 Zr313 Zr 0.75155 0.19407 0.75122
 O314 O 0.72230 0.22091 0.72246
 Zr315 Zr 0.80615 0.24896 0.75146
 O316 O 0.77945 0.27780 0.72199
 Zr317 Zr 0.75128 0.24888 0.80604
 O318 O 0.72244 0.27813 0.77930
 Zr319 Zr 0.74929 0.25072 0.69461
 O320 O 0.77892 0.22159 0.72119
 Zr321 Zr 0.69483 0.25090 0.74949
 O322 O 0.72127 0.22123 0.77876
 Zr323 Zr 0.74967 0.30551 0.74927
 O324 O 0.77886 0.27900 0.77897
 O325 O 0.78028 0.22008 0.78023
 O326 O 0.72029 0.28006 0.72018
 C327 C 0.74922 0.17831 0.82208
 C328 C 0.82199 0.17808 0.74901
 C329 C 0.82178 0.25099 0.82233
 C330 C 0.74939 0.32123 0.67846
 C331 C 0.67856 0.25118 0.67895
 C332 C 0.67897 0.32156 0.74947
 H333 H 0.70897 0.20683 0.71004
 H334 H 0.70970 0.29104 0.79345
 H335 H 0.79360 0.20678 0.79353
 H336 H 0.79344 0.29044 0.70880
 H337 H 0.80118 0.23610 0.66801
 H338 H 0.83570 0.25905 0.69991
 H339 H 0.66476 0.26598 0.79988
 H340 H 0.69917 0.23526 0.83252
 H341 H 0.73376 0.19958 0.66581
 H342 H 0.76798 0.16965 0.69851
 H343 H 0.73586 0.33558 0.79985
 H344 H 0.76422 0.30114 0.83251
 H345 H 0.72301 0.14036 0.75547
 H346 H 0.66954 0.19715 0.75704
 H347 H 0.83172 0.30126 0.76692
 H348 H 0.80010 0.33535 0.73441
 O349 O 0.25002 0.83082 0.79365
 O350 O 0.28540 0.83892 0.75008
 O351 O 0.16922 0.79338 0.74889
 O352 O 0.15756 0.75284 0.71832
 O353 O 0.20678 0.74960 0.83130
 O354 O 0.24999 0.71563 0.84006
 O355 O 0.25086 0.70731 0.66962
 O356 O 0.21473 0.74836 0.66127
 O357 O 0.33051 0.74902 0.70768
 O358 O 0.33975 0.78431 0.74751
 O359 O 0.29271 0.66965 0.74951
 O360 O 0.24818 0.65985 0.78424
 O361 O 0.25080 0.66982 0.70706
 O362 O 0.21503 0.66044 0.75145
 O363 O 0.33025 0.70705 0.74971
 O364 O 0.33864 0.75209 0.78598
 O365 O 0.29320 0.74882 0.67000
 O366 O 0.25078 0.78459 0.66012
 O367 O 0.25037 0.79337 0.83118
 O368 O 0.28485 0.74990 0.83966
 O369 O 0.16923 0.74994 0.79382
 O370 O 0.16211 0.71349 0.75028
 O371 O 0.20653 0.83115 0.75043
 O372 O 0.24766 0.83804 0.71377
 Zr373 Zr 0.24856 0.80600 0.75130
 O374 O 0.27785 0.77917 0.72260
 Zr375 Zr 0.19398 0.75109 0.75147
 O376 O 0.22073 0.72226 0.72204
 Zr377 Zr 0.24881 0.75126 0.80613
 O378 O 0.27770 0.72202 0.77945
 Zr379 Zr 0.25090 0.74933 0.69471
 O380 O 0.22122 0.77844 0.72123
 Zr381 Zr 0.30532 0.74923 0.74966
 O382 O 0.27882 0.77890 0.77890
 Zr383 Zr 0.25051 0.69460 0.74937
 O384 O 0.22126 0.72110 0.77902
 O385 O 0.21981 0.78002 0.78027
 O386 O 0.27989 0.72003 0.72033
 C387 C 0.25085 0.82184 0.82215
 C388 C 0.17811 0.82197 0.74899
 C389 C 0.17828 0.74913 0.82232
 C390 C 0.25084 0.67882 0.67857
 C391 C 0.32165 0.74889 0.67914
 C392 C 0.32122 0.67858 0.74967
 H393 H 0.29118 0.79325 0.71020
 H394 H 0.29044 0.70913 0.79361
 H395 H 0.20648 0.79332 0.79356
 H396 H 0.20676 0.70959 0.70883
 H397 H 0.19901 0.76383 0.66801
 H398 H 0.16447 0.74095 0.69986
 H399 H 0.33537 0.73421 0.80011
 H400 H 0.30090 0.76489 0.83270
 H401 H 0.26645 0.80043 0.66591
 H402 H 0.23211 0.83036 0.69856
 H403 H 0.26432 0.66458 0.79998
 H404 H 0.23585 0.69902 0.83258
 H405 H 0.27703 0.85976 0.75557
 H406 H 0.33055 0.80301 0.75731
 H407 H 0.16843 0.69879 0.76688
 H408 H 0.20009 0.66472 0.73444
 O409 O 0.24977 0.33077 0.70690
 O410 O 0.21444 0.33889 0.75054
 O411 O 0.33053 0.29316 0.75155
 O412 O 0.34223 0.25259 0.78196
 O413 O 0.29284 0.24953 0.66907
 O414 O 0.24961 0.21566 0.66023
 O415 O 0.24889 0.20715 0.83064
 O416 O 0.28509 0.24817 0.83907
 O417 O 0.16930 0.24903 0.79268
 O418 O 0.16005 0.28435 0.75297
 O419 O 0.20697 0.16968 0.75076
 O420 O 0.25143 0.15981 0.71594
 O421 O 0.24889 0.16972 0.79311
 O422 O 0.28462 0.16034 0.74867
 O423 O 0.16948 0.20712 0.75065
 O424 O 0.16110 0.25218 0.71443
 O425 O 0.20662 0.24870 0.83035
 O426 O 0.24906 0.28440 0.84034
 O427 O 0.24935 0.29334 0.66930
 O428 O 0.21479 0.24993 0.66075
 O429 O 0.33042 0.24979 0.70652
 O430 O 0.33756 0.21328 0.74998
 O431 O 0.29327 0.33099 0.75008
 O432 O 0.25221 0.33794 0.78677
 Zr433 Zr 0.25123 0.30592 0.74920
 O434 O 0.22195 0.27911 0.77786
 Zr435 Zr 0.30574 0.25093 0.74888
 O436 O 0.27900 0.22210 0.77826
 Zr437 Zr 0.25087 0.25123 0.69425
 O438 O 0.22198 0.22200 0.72088
 Zr439 Zr 0.24890 0.24920 0.80566
 O440 O 0.27858 0.27831 0.77918
 Zr441 Zr 0.19444 0.24925 0.75072
 O442 O 0.22092 0.27891 0.72153
 Zr443 Zr 0.24919 0.19453 0.75087
 O444 O 0.27842 0.22101 0.72126
 O445 O 0.27992 0.27993 0.72015
 O446 O 0.21986 0.21998 0.77997
 C447 C 0.24891 0.32180 0.67840
 C448 C 0.32167 0.32175 0.75150
 C449 C 0.32134 0.24902 0.67804
 C450 C 0.24887 0.17869 0.82161
 C451 C 0.17818 0.24883 0.82121
 C452 C 0.17849 0.17866 0.75065
 H453 H 0.20865 0.29320 0.79030
 H454 H 0.20921 0.20914 0.70669
 H455 H 0.29326 0.29322 0.70689
 H456 H 0.29297 0.20941 0.79143
 H457 H 0.30081 0.26364 0.83236
 H458 H 0.33529 0.24075 0.80044
 H459 H 0.16431 0.23428 0.70030
 H460 H 0.19878 0.26497 0.66773
 H461 H 0.23342 0.30028 0.83459
 H462 H 0.26773 0.33021 0.80197
 H463 H 0.23525 0.16455 0.70024
 H464 H 0.26369 0.19900 0.66767
 H465 H 0.22281 0.35971 0.74503
 H466 H 0.16924 0.30306 0.74319
 H467 H 0.33124 0.19863 0.73333
 H468 H 0.29955 0.16454 0.76571
 O469 O 0.75064 0.66947 0.70711
 O470 O 0.78610 0.66138 0.75068
 O471 O 0.66986 0.70675 0.75195
 O472 O 0.65805 0.74722 0.78244
 O473 O 0.70729 0.75067 0.66957
 O474 O 0.75040 0.78469 0.66084
 O475 O 0.75136 0.79280 0.83133
 O476 O 0.71531 0.75165 0.83961
 O477 O 0.83104 0.75130 0.79318
 O478 O 0.84033 0.71610 0.75334
 O479 O 0.79300 0.83062 0.75150
 O480 O 0.74852 0.84049 0.71685
 O481 O 0.75117 0.83034 0.79394
 O482 O 0.71527 0.83964 0.74949
 O483 O 0.83063 0.79331 0.75124
 O484 O 0.83910 0.74835 0.71490
 O485 O 0.79378 0.75140 0.83086
 O486 O 0.75144 0.71551 0.84071
 O487 O 0.75090 0.70698 0.66963
 O488 O 0.78535 0.75053 0.66125
 O489 O 0.66976 0.75022 0.70702
 O490 O 0.66261 0.78663 0.75065
 O491 O 0.70722 0.66903 0.75034
 O492 O 0.74838 0.66212 0.78697
 Zr493 Zr 0.74919 0.69423 0.74950
 O494 O 0.77844 0.72106 0.77825
 Zr495 Zr 0.69452 0.74906 0.74939
 O496 O 0.72121 0.77788 0.77889
 Zr497 Zr 0.74930 0.74904 0.69474
 O498 O 0.77813 0.77831 0.72148
 Zr499 Zr 0.75145 0.75082 0.80618
 O500 O 0.72181 0.72170 0.77959
 Zr501 Zr 0.80582 0.75109 0.75121
 O502 O 0.77938 0.72141 0.72193
 Zr503 Zr 0.75088 0.80562 0.75159
 O504 O 0.72170 0.77912 0.72187
 O505 O 0.72038 0.72020 0.72055
 O506 O 0.78035 0.78020 0.78059
 C507 C 0.75142 0.67849 0.67863
 C508 C 0.67880 0.67820 0.75180
 C509 C 0.67879 0.75108 0.67854
 C510 C 0.75127 0.82130 0.82241
 C511 C 0.82221 0.75139 0.82172
 C512 C 0.82152 0.82175 0.75132
 H513 H 0.79181 0.70699 0.79063
 H514 H 0.79082 0.79124 0.70733
 H515 H 0.70706 0.70690 0.70725
 H516 H 0.70721 0.79049 0.79212
 H517 H 0.69961 0.73617 0.83284
 H518 H 0.66500 0.75896 0.80100
 H519 H 0.83579 0.76625 0.70080
 H520 H 0.80139 0.73549 0.66816
 H521 H 0.76716 0.69973 0.83492
 H522 H 0.73287 0.66977 0.80220
 H523 H 0.76454 0.83572 0.70101
 H524 H 0.73627 0.80129 0.66833
 H525 H 0.77777 0.64054 0.74513
 H526 H 0.83118 0.69738 0.74352
 H527 H 0.66882 0.80131 0.73400
 H528 H 0.70046 0.83543 0.76661
 O529 O 0.24961 0.66931 0.29293
 O530 O 0.21432 0.66110 0.24926
 O531 O 0.33042 0.70681 0.24839
 O532 O 0.34219 0.74735 0.21798
 O533 O 0.29265 0.75059 0.33073
 O534 O 0.24940 0.78453 0.33936
 O535 O 0.24891 0.79264 0.16893
 O536 O 0.28510 0.75161 0.16067
 O537 O 0.16924 0.75093 0.20675
 O538 O 0.15995 0.71563 0.24650
 O539 O 0.20688 0.83031 0.24868
 O540 O 0.25128 0.84027 0.28351
 O541 O 0.24884 0.83016 0.20637
 O542 O 0.28455 0.83962 0.25088
 O543 O 0.16938 0.79288 0.24877
 O544 O 0.16093 0.74788 0.28499
 O545 O 0.20662 0.75114 0.16918
 O546 O 0.24909 0.71535 0.15943
 O547 O 0.24914 0.70681 0.33046
 O548 O 0.21458 0.75024 0.33884
 O549 O 0.33028 0.75026 0.29337
 O550 O 0.33745 0.78671 0.24985
 O551 O 0.29316 0.66900 0.24985
 O552 O 0.25213 0.66198 0.21308
 Zr553 Zr 0.25112 0.69407 0.25059
 O554 O 0.22187 0.72081 0.22180
 Zr555 Zr 0.30564 0.74905 0.25094
 O556 O 0.27894 0.77781 0.22142
 Zr557 Zr 0.25070 0.74887 0.30543
 O558 O 0.22184 0.77804 0.27866
 Zr559 Zr 0.24887 0.75066 0.19400
 O560 O 0.27852 0.72162 0.22063
 Zr561 Zr 0.19433 0.75075 0.24880
 O562 O 0.22078 0.72115 0.27812
 Zr563 Zr 0.24909 0.80545 0.24868
 O564 O 0.27829 0.77903 0.27843
 O565 O 0.27978 0.72012 0.27966
 O566 O 0.21980 0.77994 0.21955
 C567 C 0.24871 0.67833 0.32142
 C568 C 0.32156 0.67823 0.24847
 C569 C 0.32117 0.75108 0.32183
 C570 C 0.24887 0.82113 0.17789
 C571 C 0.17816 0.75106 0.17824
 C572 C 0.17840 0.82134 0.24877
 H573 H 0.20858 0.70671 0.20936
 H574 H 0.20906 0.79093 0.29279
 H575 H 0.29310 0.70685 0.29298
 H576 H 0.29293 0.79047 0.20826
 H577 H 0.30083 0.73618 0.16747
 H578 H 0.33527 0.75911 0.19943
 H579 H 0.16416 0.76576 0.29915
 H580 H 0.19857 0.73520 0.33185
 H581 H 0.23338 0.69954 0.16512
 H582 H 0.26767 0.66967 0.19790
 H583 H 0.23517 0.83550 0.29925
 H584 H 0.26354 0.80114 0.33195
 H585 H 0.22270 0.64028 0.25480
 H586 H 0.16912 0.69695 0.25638
 H587 H 0.33112 0.80138 0.26647
 H588 H 0.29948 0.83540 0.23387
 O589 O 0.75032 0.33035 0.29289
 O590 O 0.78563 0.33833 0.24919
 O591 O 0.66941 0.29289 0.24838
 O592 O 0.65755 0.25233 0.21798
 O593 O 0.70719 0.24919 0.33074
 O594 O 0.75037 0.21526 0.33948
 O595 O 0.75071 0.20665 0.16902
 O596 O 0.71453 0.24774 0.16074
 O597 O 0.83044 0.24838 0.20684
 O598 O 0.83988 0.28366 0.24655
 O599 O 0.79267 0.16911 0.24884
 O600 O 0.74828 0.15934 0.28368
 O601 O 0.75071 0.16922 0.20652
 O602 O 0.71498 0.15999 0.25105
 O603 O 0.83026 0.20646 0.24888
 O604 O 0.83882 0.25152 0.28508
 O605 O 0.79303 0.24814 0.16926
 O606 O 0.75065 0.28389 0.15939
 O607 O 0.75074 0.29294 0.33046
 O608 O 0.78528 0.24945 0.33887
 O609 O 0.66952 0.24952 0.29338
 O610 O 0.66220 0.21302 0.24991
 O611 O 0.70676 0.33063 0.24978
 O612 O 0.74777 0.33749 0.21303
 Zr613 Zr 0.74874 0.30547 0.25057
 O614 O 0.77789 0.27857 0.22182
 Zr615 Zr 0.69411 0.25060 0.25096
 O616 O 0.72071 0.22170 0.22149
 Zr617 Zr 0.74911 0.25081 0.30548
 O618 O 0.77785 0.22149 0.27875
 Zr619 Zr 0.75082 0.24871 0.19405
 O620 O 0.72127 0.27790 0.22063
 Zr621 Zr 0.80540 0.24865 0.24887
 O622 O 0.77906 0.27840 0.27814
 Zr623 Zr 0.75052 0.19407 0.24879
 O624 O 0.72143 0.22064 0.27850
 O625 O 0.72006 0.27955 0.27966
 O626 O 0.77985 0.21944 0.21964
 C627 C 0.75121 0.32140 0.32140
 C628 C 0.67834 0.32145 0.24842
 C629 C 0.67867 0.24873 0.32184
 C630 C 0.75070 0.17818 0.17803
 C631 C 0.82149 0.24822 0.17833
 C632 C 0.82118 0.17802 0.24891
 H633 H 0.79119 0.29262 0.20936
 H634 H 0.79062 0.20860 0.29290
 H635 H 0.70677 0.29288 0.29296
 H636 H 0.70668 0.20903 0.20834
 H637 H 0.69887 0.26326 0.16749
 H638 H 0.66440 0.24047 0.19947
 H639 H 0.83558 0.23366 0.29923
 H640 H 0.80127 0.26449 0.33188
 H641 H 0.76629 0.29977 0.16514
 H642 H 0.73221 0.32979 0.19785
 H643 H 0.76443 0.16410 0.29940
 H644 H 0.73624 0.19862 0.33207
 H645 H 0.77732 0.35918 0.25473
 H646 H 0.83075 0.30240 0.25636
 H647 H 0.66854 0.19836 0.26653
 H648 H 0.70008 0.16417 0.23399
 C649 C 0.25148 0.11091 0.11097
 C650 C 0.27956 0.09924 0.09932
 C651 C 0.27938 0.07623 0.07628
 C652 C 0.25105 0.06458 0.06460
 C653 C 0.22294 0.07647 0.07649
 C654 C 0.22318 0.09949 0.09952
 C655 C 0.25166 0.13461 0.13466
 C656 C 0.25159 0.15447 0.15449
 H657 H 0.30159 0.10793 0.10802
 H658 H 0.30142 0.06758 0.06764
 H659 H 0.20075 0.06801 0.06800
 H660 H 0.20131 0.10838 0.10840
 C661 C 0.75188 0.61138 0.61145
 C662 C 0.72358 0.59995 0.60000
 C663 C 0.72334 0.57694 0.57697
 C664 C 0.75146 0.56505 0.56508
 C665 C 0.77978 0.57671 0.57676
 C666 C 0.77996 0.59972 0.59979
 C667 C 0.75206 0.63506 0.63516
 C668 C 0.75197 0.65490 0.65501
 H669 H 0.70171 0.60883 0.60888
 H670 H 0.70116 0.56847 0.56848
 H671 H 0.80183 0.56807 0.56812
 H672 H 0.80198 0.60841 0.60850
 C673 C 0.74839 0.88958 0.11126
 C674 C 0.72034 0.90126 0.09959
 C675 C 0.72048 0.92434 0.07665
 C676 C 0.74882 0.93615 0.06495
 C677 C 0.77694 0.92415 0.07695
 C678 C 0.77667 0.90107 0.09990
 C679 C 0.74821 0.86579 0.13486
 C680 C 0.74830 0.84587 0.15464
 H681 H 0.69831 0.89253 0.10823
 H682 H 0.69833 0.93287 0.06812
 H683 H 0.79923 0.93252 0.06866
 H684 H 0.79854 0.89217 0.10879
 C685 C 0.24844 0.38895 0.61142
 C686 C 0.27672 0.40037 0.60000
 C687 C 0.27694 0.42336 0.57698
 C688 C 0.24881 0.43521 0.56509
 C689 C 0.22049 0.42356 0.57674
 C690 C 0.22034 0.40058 0.59976
 C691 C 0.24828 0.36527 0.63507
 C692 C 0.24837 0.34542 0.65487
 H693 H 0.29861 0.39150 0.60889
 H694 H 0.29912 0.43182 0.56851
 H695 H 0.19844 0.43219 0.56809
 H696 H 0.19833 0.39188 0.60846
 C697 C 0.74868 0.11123 0.88930
 C698 C 0.77694 0.09982 0.90083
 C699 C 0.77714 0.07685 0.92390
 C700 C 0.74900 0.06499 0.93575
 C701 C 0.72070 0.07662 0.92399
 C702 C 0.72058 0.09959 0.90093
 C703 C 0.74854 0.13489 0.86556
 C704 C 0.74865 0.15471 0.84570
 H705 H 0.79884 0.10867 0.89199
 H706 H 0.79931 0.06840 0.93244
 H707 H 0.69864 0.06800 0.93261
 H708 H 0.69856 0.10826 0.89217
 C709 C 0.24827 0.61127 0.38849
 C710 C 0.27657 0.59988 0.39993
 C711 C 0.27683 0.57690 0.42296
 C712 C 0.24871 0.56502 0.43483
 C713 C 0.22038 0.57664 0.42316
 C714 C 0.22020 0.59962 0.40013
 C715 C 0.24808 0.63493 0.36482
 C716 C 0.24816 0.65475 0.34499
 H717 H 0.29844 0.60877 0.39105
 H718 H 0.29902 0.56845 0.43144
 H719 H 0.19834 0.56799 0.43180
 H720 H 0.19816 0.60829 0.39143
 C721 C 0.25133 0.88911 0.88916
 C722 C 0.22308 0.90059 0.90056
 C723 C 0.22284 0.92367 0.92353
 C724 C 0.25098 0.93567 0.93549
 C725 C 0.27930 0.92387 0.92374
 C726 C 0.27941 0.90079 0.90078
 C727 C 0.25149 0.86536 0.86553
 C728 C 0.25140 0.84547 0.84572
 H729 H 0.20119 0.89168 0.89170
 H730 H 0.20056 0.93204 0.93186
 H731 H 0.30146 0.93240 0.93224
 H732 H 0.30142 0.89206 0.89209
 C733 C 0.75176 0.38865 0.38843
 C734 C 0.77986 0.40032 0.40008
 C735 C 0.77971 0.42335 0.42309
 C736 C 0.75140 0.43501 0.43476
 C737 C 0.72327 0.42313 0.42288
 C738 C 0.72348 0.40009 0.39986
 C739 C 0.75191 0.36493 0.36477
 C740 C 0.75180 0.34505 0.34495
 H741 H 0.80187 0.39162 0.39138
 H742 H 0.80176 0.43199 0.43174
 H743 H 0.70109 0.43160 0.43136
 H744 H 0.70160 0.39121 0.39099
 C745 C 0.11141 0.25110 0.11060
 C746 C 0.09998 0.22280 0.09916
 C747 C 0.07688 0.22255 0.07620
 C748 C 0.06491 0.25066 0.06439
 C749 C 0.07658 0.27899 0.07606
 C750 C 0.09967 0.27917 0.09901
 C751 C 0.13512 0.25130 0.13427
 C752 C 0.15496 0.25127 0.15413
 H753 H 0.10891 0.20093 0.10799
 H754 H 0.06841 0.20036 0.06773
 H755 H 0.06787 0.30103 0.06747
 H756 H 0.10835 0.30121 0.10771
 C757 C 0.61169 0.75141 0.61136
 C758 C 0.60000 0.77949 0.59971
 C759 C 0.57695 0.77931 0.57672
 C760 C 0.56528 0.75097 0.56506
 C761 C 0.57721 0.72286 0.57692
 C762 C 0.60026 0.72311 0.59992
 C763 C 0.63538 0.75161 0.63505
 C764 C 0.65522 0.75157 0.65491
 H765 H 0.60869 0.80152 0.60841
 H766 H 0.56828 0.80135 0.56810
 H767 H 0.56873 0.70067 0.56845
 H768 H 0.60916 0.70124 0.60879
 C769 C 0.11099 0.74880 0.88934
 C770 C 0.09921 0.72075 0.90090
 C771 C 0.07605 0.72091 0.92377
 C772 C 0.06425 0.74925 0.93548
 C773 C 0.07635 0.77736 0.92360
 C774 C 0.09952 0.77708 0.90073
 C775 C 0.13479 0.74860 0.86574
 C776 C 0.15468 0.74864 0.84594
 H777 H 0.10793 0.69872 0.89223
 H778 H 0.06745 0.69876 0.93221
 H779 H 0.06798 0.79966 0.93191
 H780 H 0.10847 0.79895 0.89192
 C781 C 0.61176 0.24849 0.38906
 C782 C 0.60008 0.22043 0.40071
 C783 C 0.57704 0.22064 0.42368
 C784 C 0.56538 0.24899 0.43528
 C785 C 0.57731 0.27709 0.42342
 C786 C 0.60035 0.27681 0.40045
 C787 C 0.63541 0.24826 0.36538
 C788 C 0.65519 0.24828 0.34550
 H789 H 0.60876 0.19839 0.39204
 H790 H 0.56836 0.19861 0.43231
 H791 H 0.56884 0.29929 0.43185
 H792 H 0.60926 0.29867 0.39156
 C793 C 0.88829 0.74901 0.11027
 C794 C 0.89993 0.72092 0.09857
 C795 C 0.92297 0.72107 0.07558
 C796 C 0.93469 0.74939 0.06396
 C797 C 0.92281 0.77751 0.07586
 C798 C 0.89977 0.77729 0.09886
 C799 C 0.86463 0.74884 0.13400
 C800 C 0.84484 0.74890 0.15391
 H801 H 0.89122 0.69890 0.10724
 H802 H 0.93160 0.69902 0.06693
 H803 H 0.93132 0.79969 0.06743
 H804 H 0.89092 0.79918 0.10776
 C805 C 0.38839 0.24866 0.61096
 C806 C 0.40009 0.22058 0.59933
 C807 C 0.42316 0.22075 0.57641
 C808 C 0.43485 0.24908 0.56482
 C809 C 0.42292 0.27720 0.57667
 C810 C 0.39984 0.27696 0.59960
 C811 C 0.36470 0.24846 0.63460
 C812 C 0.34487 0.24851 0.65443
 H813 H 0.39138 0.19855 0.60799
 H814 H 0.43184 0.19871 0.56779
 H815 H 0.43141 0.29939 0.56824
 H816 H 0.39093 0.29883 0.60847
 C817 C 0.88888 0.25126 0.88951
 C818 C 0.90035 0.22297 0.90085
 C819 C 0.92343 0.22266 0.92381
 C820 C 0.93546 0.25078 0.93583
 C821 C 0.92365 0.27913 0.92417
 C822 C 0.90056 0.27931 0.90121
 C823 C 0.86517 0.25149 0.86584
 C824 C 0.84533 0.25146 0.84598
 H825 H 0.89144 0.20111 0.89192
 H826 H 0.93181 0.20036 0.93208
 H827 H 0.93219 0.30127 0.93271
 H828 H 0.89184 0.30134 0.89258
 C829 C 0.38820 0.75144 0.38909
 C830 C 0.39989 0.77952 0.40076
 C831 C 0.42298 0.77933 0.42372
 C832 C 0.43467 0.75100 0.43532
 C833 C 0.42274 0.72289 0.42343
 C834 C 0.39965 0.72314 0.40046
 C835 C 0.36450 0.75165 0.36540
 C836 C 0.34469 0.75159 0.34552
 H837 H 0.39119 0.80155 0.39211
 H838 H 0.43165 0.80137 0.43237
 H839 H 0.43124 0.70069 0.43185
 H840 H 0.39076 0.70127 0.39157
 C841 C 0.11089 0.11103 0.25161
 C842 C 0.09925 0.09938 0.27971
 C843 C 0.07624 0.07635 0.27955
 C844 C 0.06455 0.06466 0.25123
 C845 C 0.07641 0.07655 0.22310
 C846 C 0.09942 0.09958 0.22332
 C847 C 0.13463 0.13468 0.25178
 C848 C 0.15454 0.15447 0.25168
 H849 H 0.10796 0.10807 0.30174
 H850 H 0.06762 0.06772 0.30161
 H851 H 0.06792 0.06806 0.20091
 H852 H 0.10828 0.10844 0.20143
 C853 C 0.61149 0.61138 0.75237
 C854 C 0.60002 0.59998 0.72407
 C855 C 0.57696 0.57702 0.72383
 C856 C 0.56508 0.56517 0.75196
 C857 C 0.57677 0.57681 0.78030
 C858 C 0.59983 0.59976 0.78047
 C859 C 0.63523 0.63496 0.75254
 C860 C 0.65514 0.65471 0.75243
 H861 H 0.60890 0.60883 0.70219
 H862 H 0.56846 0.56856 0.70164
 H863 H 0.56813 0.56818 0.80235
 H864 H 0.60856 0.60844 0.80250
 C865 C 0.88934 0.11113 0.74839
 C866 C 0.90085 0.09972 0.77665
 C867 C 0.92386 0.07669 0.77687
 C868 C 0.93577 0.06466 0.74872
 C869 C 0.92394 0.07641 0.72040
 C870 C 0.90094 0.09944 0.72030
 C871 C 0.86561 0.13479 0.74826
 C872 C 0.84570 0.15458 0.74839
 H873 H 0.89201 0.10862 0.79854
 H874 H 0.93225 0.06836 0.79916
 H875 H 0.93240 0.06787 0.69822
 H876 H 0.89218 0.10812 0.69828
 C877 C 0.38890 0.61145 0.24790
 C878 C 0.40052 0.59979 0.21980
 C879 C 0.42352 0.57678 0.21995
 C880 C 0.43519 0.56513 0.24828
 C881 C 0.42335 0.57702 0.27642
 C882 C 0.40035 0.60004 0.27620
 C883 C 0.36518 0.63505 0.24775
 C884 C 0.34527 0.65480 0.24786
 H885 H 0.39180 0.60847 0.19777
 H886 H 0.43214 0.56812 0.19789
 H887 H 0.43183 0.56856 0.29860
 H888 H 0.39148 0.60892 0.29809
 C889 C 0.11079 0.88894 0.74836
 C890 C 0.09940 0.90046 0.77664
 C891 C 0.07642 0.92352 0.77685
 C892 C 0.06452 0.93538 0.74871
 C893 C 0.07613 0.92362 0.72040
 C894 C 0.09911 0.90057 0.72026
 C895 C 0.13450 0.86526 0.74822
 C896 C 0.15440 0.84546 0.74836
 H897 H 0.10829 0.89163 0.79854
 H898 H 0.06799 0.93205 0.79903
 H899 H 0.06748 0.93224 0.69833
 H900 H 0.10777 0.89182 0.69823
 C901 C 0.61115 0.38840 0.24785
 C902 C 0.59952 0.40006 0.21975
 C903 C 0.57657 0.42312 0.21991
 C904 C 0.56496 0.43482 0.24824
 C905 C 0.57682 0.42293 0.27638
 C906 C 0.59977 0.39986 0.27614
 C907 C 0.63482 0.36473 0.24768
 C908 C 0.65467 0.34493 0.24780
 H909 H 0.60819 0.39133 0.19772
 H910 H 0.56794 0.43177 0.19785
 H911 H 0.56839 0.43143 0.29857
 H912 H 0.60865 0.39099 0.29803
 C913 C 0.88924 0.88904 0.25164
 C914 C 0.90093 0.90069 0.27972
 C915 C 0.92397 0.92368 0.27959
 C916 C 0.93572 0.93545 0.25126
 C917 C 0.92371 0.92346 0.22311
 C918 C 0.90067 0.90046 0.22337
 C919 C 0.86547 0.86541 0.25180
 C920 C 0.84554 0.84565 0.25170
 H921 H 0.89223 0.89201 0.30174
 H922 H 0.93250 0.93220 0.30176
 H923 H 0.93204 0.93180 0.20082
 H924 H 0.89176 0.89159 0.20148
 C925 C 0.38900 0.38855 0.75219
 C926 C 0.40064 0.40020 0.78031
 C927 C 0.42362 0.42323 0.78017
 C928 C 0.43525 0.43491 0.75185
 C929 C 0.42339 0.42303 0.72371
 C930 C 0.40040 0.40000 0.72391
 C931 C 0.36529 0.36493 0.75232
 C932 C 0.34538 0.34518 0.75217
 H933 H 0.39195 0.39149 0.80233
 H934 H 0.43225 0.43187 0.80224
 H935 H 0.43184 0.43152 0.70153
 H936 H 0.39152 0.39113 0.70201
 C937 C 0.11084 0.24928 0.88806
 C938 C 0.09943 0.27757 0.89950
 C939 C 0.07639 0.27781 0.92249
 C940 C 0.06447 0.24969 0.93433
 C941 C 0.07610 0.22137 0.92263
 C942 C 0.09913 0.22120 0.89965
 C943 C 0.13459 0.24905 0.86446
 C944 C 0.15449 0.24889 0.84470
 H945 H 0.10835 0.29945 0.89068
 H946 H 0.06794 0.29999 0.93100
 H947 H 0.06744 0.19931 0.93123
 H948 H 0.10782 0.19917 0.89095
 C949 C 0.61121 0.74950 0.38840
 C950 C 0.59979 0.77779 0.39987
 C951 C 0.57680 0.77804 0.42293
 C952 C 0.56491 0.74993 0.43483
 C953 C 0.57654 0.72161 0.42312
 C954 C 0.59953 0.72143 0.40007
 C955 C 0.63492 0.74926 0.36469
 C956 C 0.65478 0.74910 0.34485
 H957 H 0.60867 0.79966 0.39100
 H958 H 0.56836 0.80022 0.43142
 H959 H 0.56791 0.69956 0.43177
 H960 H 0.60819 0.69939 0.39137
 C961 C 0.88970 0.75093 0.88858
 C962 C 0.90144 0.77897 0.90023
 C963 C 0.92450 0.77880 0.92321
 C964 C 0.93623 0.75045 0.93496
 C965 C 0.92419 0.72234 0.92296
 C966 C 0.90112 0.72264 0.89997
 C967 C 0.86590 0.75118 0.86497
 C968 C 0.84595 0.75135 0.84521
 H969 H 0.89275 0.80101 0.89156
 H970 H 0.93306 0.80095 0.93174
 H971 H 0.93251 0.70004 0.93129
 H972 H 0.89218 0.70078 0.89109
 C973 C 0.38900 0.25061 0.38823
 C974 C 0.40039 0.22231 0.39967
 C975 C 0.42338 0.22204 0.42275
 C976 C 0.43527 0.25015 0.43469
 C977 C 0.42367 0.27848 0.42301
 C978 C 0.40069 0.27868 0.39994
 C979 C 0.36530 0.25086 0.36453
 C980 C 0.34541 0.25103 0.34471
 H981 H 0.39149 0.20044 0.39076
 H982 H 0.43180 0.19985 0.43123
 H983 H 0.43232 0.30052 0.43169
 H984 H 0.39204 0.30072 0.39125
 C985 C 0.11101 0.75066 0.11105
 C986 C 0.09940 0.77874 0.09934
 C987 C 0.07646 0.77859 0.07623
 C988 C 0.06482 0.75028 0.06450
 C989 C 0.07665 0.72215 0.07644
 C990 C 0.09959 0.72237 0.09956
 C991 C 0.13467 0.75087 0.13479
 C992 C 0.15451 0.75101 0.15466
 H993 H 0.10808 0.80077 0.10807
 H994 H 0.06787 0.80064 0.06756
 H995 H 0.06819 0.69997 0.06792
 H996 H 0.10843 0.70049 0.10846
 C997 C 0.61127 0.25066 0.61189
 C998 C 0.59987 0.22235 0.60045
 C999 C 0.57688 0.22207 0.57737
 C1000 C 0.56499 0.25017 0.56543
 C1001 C 0.57661 0.27851 0.57712
 C1002 C 0.59959 0.27872 0.60019
 C1003 C 0.63498 0.25092 0.63559
 C1004 C 0.65487 0.25110 0.65541
 H1005 H 0.60876 0.20049 0.60934
 H1006 H 0.56845 0.19988 0.56888
 H1007 H 0.56798 0.30055 0.56845
 H1008 H 0.60826 0.30076 0.60888
 C1009 C 0.88860 0.24882 0.11125
 C1010 C 0.90027 0.22078 0.09948
 C1011 C 0.92321 0.22104 0.07642
 C1012 C 0.93479 0.24941 0.06481
 C1013 C 0.92290 0.27749 0.07681
 C1014 C 0.89995 0.27715 0.09988
 C1015 C 0.86495 0.24850 0.13495
 C1016 C 0.84511 0.24829 0.15478
 H1017 H 0.89164 0.19871 0.10813
 H1018 H 0.93186 0.19902 0.06769
 H1019 H 0.93130 0.29970 0.06838
 H1020 H 0.89105 0.29899 0.10885
 C1021 C 0.38894 0.74938 0.61206
 C1022 C 0.40060 0.72132 0.60032
 C1023 C 0.42355 0.72153 0.57723
 C1024 C 0.43515 0.74986 0.56555
 C1025 C 0.42328 0.77796 0.57753
 C1026 C 0.40032 0.77769 0.60063
 C1027 C 0.36524 0.74912 0.63578
 C1028 C 0.34536 0.74895 0.65561
 H1029 H 0.39196 0.69928 0.60899
 H1030 H 0.43218 0.69949 0.56853
 H1031 H 0.43169 0.80015 0.56906
 H1032 H 0.39145 0.79955 0.60955
 C1033 C 0.24947 0.11137 0.88848
 C1034 C 0.27778 0.09990 0.89983
 C1035 C 0.27805 0.07675 0.92272
 C1036 C 0.24995 0.06479 0.93454
 C1037 C 0.22161 0.07649 0.92296
 C1038 C 0.22141 0.09962 0.90008
 C1039 C 0.24921 0.13516 0.86492
 C1040 C 0.24900 0.15506 0.84516
 H1041 H 0.29964 0.10884 0.89099
 H1042 H 0.30025 0.06826 0.93114
 H1043 H 0.19958 0.06779 0.93156
 H1044 H 0.19937 0.10834 0.89144
 C1045 C 0.74988 0.61168 0.38858
 C1046 C 0.72183 0.59997 0.40026
 C1047 C 0.72203 0.57691 0.42324
 C1048 C 0.75037 0.56524 0.43487
 C1049 C 0.77846 0.57717 0.42298
 C1050 C 0.77818 0.60023 0.39998
 C1051 C 0.74961 0.63543 0.36491
 C1052 C 0.74939 0.65530 0.34508
 H1053 H 0.69978 0.60865 0.39160
 H1054 H 0.70000 0.56825 0.43188
 H1055 H 0.80066 0.56870 0.43142
 H1056 H 0.80005 0.60913 0.39111
 C1057 C 0.75016 0.11082 0.11102
 C1058 C 0.72190 0.09934 0.09959
 C1059 C 0.72167 0.07620 0.07666
 C1060 C 0.74981 0.06415 0.06477
 C1061 C 0.77813 0.07597 0.07655
 C1062 C 0.77824 0.09909 0.09946
 C1063 C 0.75037 0.13462 0.13464
 C1064 C 0.75055 0.15453 0.15444
 H1065 H 0.70002 0.10827 0.10840
 H1066 H 0.69939 0.06782 0.06830
 H1067 H 0.80029 0.06741 0.06811
 H1068 H 0.80025 0.10783 0.10817
 C1069 C 0.25025 0.61169 0.61136
 C1070 C 0.27832 0.60001 0.59967
 C1071 C 0.27813 0.57699 0.57665
 C1072 C 0.24980 0.56531 0.56500
 C1073 C 0.22169 0.57721 0.57691
 C1074 C 0.22195 0.60025 0.59993
 C1075 C 0.25050 0.63539 0.63507
 C1076 C 0.25071 0.65523 0.65494
 H1077 H 0.30036 0.60871 0.60835
 H1078 H 0.30017 0.56834 0.56800
 H1079 H 0.19950 0.56873 0.56845
 H1080 H 0.20008 0.60913 0.60883
 C1081 C 0.75058 0.88840 0.88965
 C1082 C 0.77863 0.90010 0.90140
 C1083 C 0.77840 0.92314 0.92440
 C1084 C 0.75005 0.93482 0.93598
 C1085 C 0.72196 0.92289 0.92401
 C1086 C 0.72226 0.89984 0.90100
 C1087 C 0.75088 0.86471 0.86594
 C1088 C 0.75111 0.84487 0.84607
 H1089 H 0.80068 0.89142 0.89278
 H1090 H 0.80042 0.93181 0.93310
 H1091 H 0.69976 0.93137 0.93241
 H1092 H 0.70041 0.89094 0.89206
 C1093 C 0.25030 0.38838 0.38872
 C1094 C 0.22200 0.39981 0.40011
 C1095 C 0.22173 0.42291 0.42308
 C1096 C 0.24983 0.43486 0.43498
 C1097 C 0.27816 0.42319 0.42336
 C1098 C 0.27836 0.40011 0.40040
 C1099 C 0.25057 0.36463 0.36506
 C1100 C 0.25078 0.34476 0.34522
 H1101 H 0.20014 0.39089 0.39122
 H1102 H 0.19953 0.43138 0.43151
 H1103 H 0.30020 0.43188 0.43201
 H1104 H 0.30041 0.39142 0.39175
 C1105 C 0.24949 0.88816 0.11073
 C1106 C 0.27780 0.89956 0.09935
 C1107 C 0.27807 0.92258 0.07633
 C1108 C 0.24996 0.93448 0.06442
 C1109 C 0.22162 0.92284 0.07603
 C1110 C 0.22143 0.89983 0.09904
 C1111 C 0.24922 0.86450 0.13442
 C1112 C 0.24901 0.84468 0.15428
 H1113 H 0.29966 0.89067 0.10826
 H1114 H 0.30026 0.93103 0.06789
 H1115 H 0.19959 0.93150 0.06737
 H1116 H 0.19938 0.89116 0.10770
 C1117 C 0.74998 0.38840 0.61126
 C1118 C 0.77828 0.39984 0.59985
 C1119 C 0.77853 0.42290 0.57686
 C1120 C 0.75042 0.43483 0.56495
 C1121 C 0.72210 0.42316 0.57659
 C1122 C 0.72192 0.40011 0.59957
 C1123 C 0.74973 0.36468 0.63495
 C1124 C 0.74953 0.34482 0.65481
 H1125 H 0.80015 0.39095 0.60873
 H1126 H 0.80072 0.43137 0.56842
 H1127 H 0.70006 0.43182 0.56794
 H1128 H 0.69988 0.39143 0.60823
 C1129 C 0.11130 0.11164 0.74996
 C1130 C 0.09982 0.10023 0.72166
 C1131 C 0.07672 0.07730 0.72144
 C1132 C 0.06481 0.06549 0.74957
 C1133 C 0.07652 0.07713 0.77790
 C1134 C 0.09962 0.10005 0.77805
 C1135 C 0.13504 0.13526 0.75019
 C1136 C 0.15490 0.15506 0.75042
 H1137 H 0.10872 0.10906 0.69977
 H1138 H 0.06820 0.06884 0.69925
 H1139 H 0.06787 0.06854 0.79996
 H1140 H 0.10835 0.10873 0.80009
 C1141 C 0.61160 0.61150 0.24979
 C1142 C 0.60017 0.60005 0.22147
 C1143 C 0.57717 0.57699 0.22120
 C1144 C 0.56529 0.56506 0.24930
 C1145 C 0.57695 0.57673 0.27765
 C1146 C 0.59994 0.59978 0.27785
 C1147 C 0.63526 0.63526 0.25007
 C1148 C 0.65507 0.65515 0.25033
 H1149 H 0.60903 0.60896 0.19960
 H1150 H 0.56871 0.56853 0.19899
 H1151 H 0.56832 0.56807 0.29969
 H1152 H 0.60861 0.60846 0.29991
 C1153 C 0.11124 0.88838 0.24958
 C1154 C 0.09948 0.90002 0.22152
 C1155 C 0.07640 0.92296 0.22176
 C1156 C 0.06477 0.93456 0.25012
 C1157 C 0.07675 0.92270 0.27822
 C1158 C 0.09984 0.89975 0.27791
 C1159 C 0.13496 0.86476 0.24927
 C1160 C 0.15482 0.84494 0.24900
 H1161 H 0.10814 0.89137 0.19946
 H1162 H 0.06768 0.93158 0.19972
 H1163 H 0.06831 0.93113 0.30043
 H1164 H 0.10880 0.89088 0.29977
 C1165 C 0.61184 0.38881 0.75028
 C1166 C 0.60010 0.40050 0.72222
 C1167 C 0.57705 0.42348 0.72245
 C1168 C 0.56539 0.43510 0.75081
 C1169 C 0.57735 0.42319 0.77890
 C1170 C 0.60042 0.40020 0.77860
 C1171 C 0.63556 0.36510 0.74998
 C1172 C 0.65540 0.34523 0.74971
 H1173 H 0.60877 0.39185 0.70016
 H1174 H 0.56836 0.43213 0.70042
 H1175 H 0.56890 0.43162 0.80111
 H1176 H 0.60934 0.39131 0.80047
 C1177 C 0.88812 0.11076 0.24970
 C1178 C 0.89977 0.09904 0.22163
 C1179 C 0.92277 0.07602 0.22184
 C1180 C 0.93443 0.06442 0.25019
 C1181 C 0.92254 0.07635 0.27830
 C1182 C 0.89953 0.09938 0.27802
 C1183 C 0.86448 0.13448 0.24941
 C1184 C 0.84470 0.15436 0.24915
 H1185 H 0.89109 0.10769 0.19957
 H1186 H 0.93141 0.06734 0.19980
 H1187 H 0.93101 0.06793 0.30050
 H1188 H 0.89066 0.10831 0.29989
 C1189 C 0.38838 0.61135 0.75044
 C1190 C 0.40009 0.59967 0.72237
 C1191 C 0.42316 0.57670 0.72257
 C1192 C 0.43485 0.56507 0.75090
 C1193 C 0.42291 0.57697 0.77901
 C1194 C 0.39983 0.59995 0.77875
 C1195 C 0.36465 0.63505 0.75017
 C1196 C 0.34480 0.65491 0.74991
 H1197 H 0.39141 0.60833 0.70032
 H1198 H 0.43183 0.56806 0.70052
 H1199 H 0.43139 0.56853 0.80121
 H1200 H 0.39093 0.60883 0.80063
 C1201 C 0.88832 0.88914 0.75045
 C1202 C 0.89999 0.90092 0.77850
 C1203 C 0.92292 0.92400 0.77825
 C1204 C 0.93449 0.93561 0.74987
 C1205 C 0.92258 0.92362 0.72178
 C1206 C 0.89964 0.90053 0.72211
 C1207 C 0.86474 0.86536 0.75078
 C1208 C 0.84500 0.84544 0.75107
 H1209 H 0.89138 0.89226 0.80057
 H1210 H 0.93159 0.93272 0.80027
 H1211 H 0.93098 0.93205 0.69956
 H1212 H 0.89074 0.89156 0.70026
 C1213 C 0.38845 0.38865 0.24984
 C1214 C 0.39985 0.40004 0.22152
 C1215 C 0.42290 0.42305 0.22123
 C1216 C 0.43486 0.43498 0.24933
 C1217 C 0.42322 0.42337 0.27768
 C1218 C 0.40018 0.40036 0.27790
 C1219 C 0.36475 0.36493 0.25013
 C1220 C 0.34492 0.34505 0.25039
 H1221 H 0.39094 0.39113 0.19965
 H1222 H 0.43134 0.43148 0.19903
 H1223 H 0.43190 0.43203 0.29972
 H1224 H 0.39153 0.39172 0.29996
   
