data_POSCAR
  _audit_creation_date              2014-09-24
  _audit_creation_method            'ToBaCCo'
  _symmetry_space_group_name_H-M    'P1'
  _symmetry_Int_Tables_number       1
  _symmetry_cell_setting            triclinic
  loop_
  _symmetry_equiv_pos_as_xyz
 x,y,z
_cell_length_a 120.7174
_cell_length_b 120.6474
_cell_length_c 121.4390
_cell_angle_alpha 89.961100
_cell_angle_beta 89.953900
_cell_angle_gamma 89.914200
loop_
  _atom_site_label
  _atom_site_type_symbol
  _atom_site_fract_x
  _atom_site_fract_y
  _atom_site_fract_z
N1 N 0.35221 0.32155 0.32884
 N2 N 0.35224 0.32943 0.32135
 C3 C 0.36082 0.32778 0.31443
 C4 C 0.36639 0.31841 0.31782
 C5 C 0.36077 0.31463 0.32696
 H6 H 0.36289 0.33298 0.30747
 H7 H 0.36276 0.30741 0.33187
 Cu8 Cu 0.34108 0.34108 0.32134
 Cu9 Cu 0.34110 0.32088 0.34046
 Cu10 Cu 0.32083 0.34129 0.34039
 N11 N 0.32951 0.35231 0.32126
 N12 N 0.32161 0.35235 0.32873
 C13 C 0.31474 0.36095 0.32680
 C14 C 0.31858 0.36651 0.31765
 C15 C 0.32793 0.36088 0.31431
 H16 H 0.30752 0.36300 0.33167
 H17 H 0.33315 0.36289 0.30735
 N18 N 0.32145 0.32940 0.35150
 N19 N 0.32917 0.32162 0.35153
 C20 C 0.32737 0.31476 0.36011
 C21 C 0.31812 0.31844 0.36567
 C22 C 0.31454 0.32769 0.36005
 H23 H 0.33239 0.30763 0.36220
 H24 H 0.30745 0.33278 0.36208
 H25 H 0.32879 0.32887 0.33167
 H26 H 0.33756 0.33764 0.34083
 N27 N 0.35283 0.82179 -0.17147
 N28 N 0.35278 0.82970 -0.17893
 C29 C 0.36132 0.82811 -0.18591
 C30 C 0.36693 0.81875 -0.18258
 C31 C 0.36140 0.81490 -0.17342
 H32 H 0.36330 0.83333 -0.19289
 H33 H 0.36343 0.80766 -0.16857
 Cu34 Cu 0.34153 0.84126 -0.17887
 Cu35 Cu 0.34177 0.82100 -0.15982
 Cu36 Cu 0.32132 0.84122 -0.15976
 N37 N 0.32986 0.85238 -0.17887
 N38 N 0.32197 0.85232 -0.17138
 C39 C 0.31498 0.86083 -0.17330
 C40 C 0.31874 0.86643 -0.18245
 C41 C 0.32815 0.86093 -0.18583
 H42 H 0.30773 0.86276 -0.16842
 H43 H 0.33333 0.86298 -0.19281
 N44 N 0.32208 0.82929 -0.14869
 N45 N 0.32987 0.82159 -0.14872
 C46 C 0.32817 0.81467 -0.14017
 C47 C 0.31890 0.81823 -0.13457
 C48 C 0.31522 0.82748 -0.14012
 H49 H 0.33327 0.80758 -0.13814
 H50 H 0.30809 0.83249 -0.13805
 H51 H 0.32936 0.82893 -0.16856
 H52 H 0.33808 0.83774 -0.15938
 N53 N 0.85203 0.32140 -0.17130
 N54 N 0.85193 0.32897 -0.17910
 C55 C 0.86056 0.32720 -0.18593
 C56 C 0.86628 0.31807 -0.18217
 C57 C 0.86071 0.31455 -0.17290
 H58 H 0.86254 0.33214 -0.19310
 H59 H 0.86280 0.30755 -0.16774
 Cu60 Cu 0.84052 0.34036 -0.17960
 Cu61 Cu 0.84091 0.32096 -0.15970
 Cu62 Cu 0.82071 0.34144 -0.16011
 N63 N 0.82928 0.35192 -0.17959
 N64 N 0.82155 0.35230 -0.17195
 C65 C 0.81486 0.36103 -0.17387
 C66 C 0.81865 0.36633 -0.18319
 C67 C 0.82778 0.36042 -0.18665
 H68 H 0.80779 0.36333 -0.16890
 H69 H 0.83290 0.36217 -0.19375
 N70 N 0.82127 0.32972 -0.14882
 N71 N 0.82896 0.32191 -0.14867
 C72 C 0.82710 0.31516 -0.14001
 C73 C 0.81785 0.31893 -0.13454
 C74 C 0.81432 0.32813 -0.14027
 H75 H 0.83209 0.30804 -0.13783
 H76 H 0.80723 0.33327 -0.13834
 H77 H 0.82839 0.32866 -0.16848
 H78 H 0.83743 0.33776 -0.15991
 N79 N 0.85000 0.81976 0.32675
 N80 N 0.84978 0.82745 0.31907
 C81 C 0.85877 0.82636 0.31259
 C82 C 0.86486 0.81750 0.31644
 C83 C 0.85911 0.81345 0.32539
 H84 H 0.86065 0.83151 0.30554
 H85 H 0.86129 0.80640 0.33045
 Cu86 Cu 0.83757 0.83787 0.31799
 Cu87 Cu 0.83820 0.81830 0.33758
 Cu88 Cu 0.82107 0.84131 0.34007
 N89 N 0.82796 0.85068 0.31940
 N90 N 0.82164 0.85210 0.32813
 C91 C 0.81584 0.86157 0.32696
 C92 C 0.81874 0.86625 0.31701
 C93 C 0.82642 0.85919 0.31238
 H94 H 0.80986 0.86472 0.33282
 H95 H 0.83053 0.86014 0.30452
 N96 N 0.82166 0.82935 0.35114
 N97 N 0.82803 0.82050 0.35007
 C98 C 0.82629 0.81366 0.35867
 C99 C 0.81844 0.81845 0.36540
 C100 C 0.81565 0.82834 0.36045
 H101 H 0.83033 0.80575 0.35988
 H102 H 0.80954 0.83424 0.36332
 H103 H 0.82542 0.82783 0.33085
 H104 H 0.83702 0.83521 0.33781
 N105 N 0.64842 0.67836 0.32975
 N106 N 0.64851 0.67041 0.32235
 C107 C 0.63999 0.67195 0.31534
 C108 C 0.63434 0.68133 0.31859
 C109 C 0.63985 0.68522 0.32773
 H110 H 0.63804 0.66670 0.30840
 H111 H 0.63780 0.69251 0.33250
 Cu112 Cu 0.65979 0.65888 0.32252
 Cu113 Cu 0.65943 0.67929 0.34142
 Cu114 Cu 0.67991 0.65912 0.34167
 N115 N 0.67153 0.64781 0.32262
 N116 N 0.67937 0.64795 0.33014
 C117 C 0.68638 0.63945 0.32834
 C118 C 0.68271 0.63375 0.31923
 C119 C 0.67330 0.63921 0.31576
 H120 H 0.69359 0.63756 0.33328
 H121 H 0.66817 0.63706 0.30879
 N122 N 0.67908 0.67110 0.35265
 N123 N 0.67129 0.67880 0.35255
 C124 C 0.67299 0.68582 0.36101
 C125 C 0.68227 0.68232 0.36663
 C126 C 0.68595 0.67301 0.36118
 H127 H 0.66791 0.69294 0.36295
 H128 H 0.69311 0.66805 0.36328
 H129 H 0.67185 0.67136 0.33277
 H130 H 0.66310 0.66259 0.34200
 N131 N 0.64840 0.17916 -0.17024
 N132 N 0.64853 0.17157 -0.17801
 C133 C 0.63992 0.17332 -0.18486
 C134 C 0.63419 0.18247 -0.18114
 C135 C 0.63973 0.18600 -0.17188
 H136 H 0.63795 0.16836 -0.19200
 H137 H 0.63762 0.19301 -0.16674
 Cu138 Cu 0.65992 0.16015 -0.17844
 Cu139 Cu 0.65948 0.17965 -0.15861
 Cu140 Cu 0.67954 0.15907 -0.15879
 N141 N 0.67111 0.14851 -0.17826
 N142 N 0.67873 0.14814 -0.17053
 C143 C 0.68541 0.13937 -0.17231
 C144 C 0.68173 0.13403 -0.18164
 C145 C 0.67267 0.13997 -0.18525
 H146 H 0.69240 0.13706 -0.16723
 H147 H 0.66764 0.13820 -0.19240
 N148 N 0.67901 0.17087 -0.14761
 N149 N 0.67138 0.17873 -0.14755
 C150 C 0.67327 0.18555 -0.13897
 C151 C 0.68248 0.18176 -0.13345
 C152 C 0.68595 0.17248 -0.13907
 H153 H 0.66834 0.19274 -0.13688
 H154 H 0.69300 0.16732 -0.13709
 H155 H 0.67197 0.17185 -0.16729
 H156 H 0.66280 0.16283 -0.15875
 N157 N 0.14823 0.67911 -0.16998
 N158 N 0.14823 0.67122 -0.17745
 C159 C 0.13967 0.67286 -0.18439
 C160 C 0.13408 0.68224 -0.18102
 C161 C 0.13968 0.68602 -0.17188
 H162 H 0.13763 0.66766 -0.19134
 H163 H 0.13767 0.69325 -0.16701
 Cu164 Cu 0.15944 0.65959 -0.17738
 Cu165 Cu 0.15928 0.67985 -0.15835
 Cu166 Cu 0.17964 0.65957 -0.15830
 N167 N 0.17108 0.64841 -0.17738
 N168 N 0.17896 0.64846 -0.16989
 C169 C 0.18590 0.63992 -0.17176
 C170 C 0.18215 0.63427 -0.18087
 C171 C 0.17276 0.63981 -0.18427
 H172 H 0.19312 0.63795 -0.16686
 H173 H 0.16758 0.63772 -0.19122
 N174 N 0.17893 0.67150 -0.14724
 N175 N 0.17116 0.67922 -0.14726
 C176 C 0.17289 0.68614 -0.13872
 C177 C 0.18216 0.68256 -0.13315
 C178 C 0.18581 0.67330 -0.13870
 H179 H 0.16782 0.69324 -0.13670
 H180 H 0.19294 0.66828 -0.13664
 H181 H 0.17164 0.67190 -0.16710
 H182 H 0.16289 0.66311 -0.15790
 N183 N 0.14840 0.17869 0.32941
 N184 N 0.14875 0.17100 0.32174
 C185 C 0.14028 0.17259 0.31468
 C186 C 0.13439 0.18173 0.31816
 C187 C 0.13971 0.18544 0.32749
 H188 H 0.13849 0.16750 0.30758
 H189 H 0.13743 0.19249 0.33250
 Cu190 Cu 0.16024 0.15968 0.32173
 Cu191 Cu 0.15923 0.17939 0.34127
 Cu192 Cu 0.17958 0.15906 0.34161
 N193 N 0.17158 0.14822 0.32211
 N194 N 0.17912 0.14803 0.32993
 C195 C 0.18594 0.13934 0.32828
 C196 C 0.18243 0.13385 0.31897
 C197 C 0.17334 0.13964 0.31522
 H198 H 0.19291 0.13718 0.33344
 H199 H 0.16840 0.13773 0.30804
 N200 N 0.17867 0.17093 0.35270
 N201 N 0.17093 0.17869 0.35258
 C202 C 0.17259 0.18561 0.36113
 C203 C 0.18177 0.18199 0.36682
 C204 C 0.18545 0.17272 0.36132
 H205 H 0.16755 0.19277 0.36306
 H206 H 0.19257 0.16770 0.36343
 H207 H 0.17197 0.17168 0.33289
 H208 H 0.16280 0.16263 0.34141
 N209 N 0.64741 0.32083 0.67111
 N210 N 0.64730 0.32869 0.67862
 C211 C 0.63870 0.32697 0.68550
 C212 C 0.63322 0.31758 0.68206
 C213 C 0.63890 0.31386 0.67294
 H214 H 0.63657 0.33213 0.69247
 H215 H 0.63698 0.30665 0.66802
 Cu216 Cu 0.65840 0.34038 0.67864
 Cu217 Cu 0.65852 0.32023 0.65952
 Cu218 Cu 0.67869 0.34065 0.65960
 N219 N 0.66993 0.35163 0.67874
 N220 N 0.67784 0.35169 0.67127
 C221 C 0.68467 0.36029 0.67321
 C222 C 0.68081 0.36584 0.68235
 C223 C 0.67148 0.36019 0.68569
 H224 H 0.69189 0.36235 0.66835
 H225 H 0.66623 0.36220 0.69263
 N226 N 0.67813 0.32877 0.64848
 N227 N 0.67044 0.32099 0.64846
 C228 C 0.67223 0.31413 0.63989
 C229 C 0.68146 0.31780 0.63431
 C230 C 0.68503 0.32706 0.63991
 H231 H 0.66722 0.30702 0.63781
 H232 H 0.69210 0.33215 0.63786
 H233 H 0.67080 0.32825 0.66833
 H234 H 0.66199 0.33701 0.65915
 N235 N 0.64845 0.82116 1.17033
 N236 N 0.64828 0.82892 1.17793
 C237 C 0.63970 0.82707 1.18479
 C238 C 0.63428 0.81770 1.18124
 C239 C 0.63998 0.81412 1.17208
 H240 H 0.63757 0.83211 1.19185
 H241 H 0.63813 0.80693 1.16710
 Cu242 Cu 0.65934 0.84062 1.17820
 Cu243 Cu 0.65967 0.82071 1.15882
 Cu244 Cu 0.67977 0.84121 1.15935
 N245 N 0.67082 0.85190 1.17854
 N246 N 0.67879 0.85209 1.17114
 C247 C 0.68557 0.86068 1.17326
 C248 C 0.68161 0.86608 1.18245
 C249 C 0.67228 0.86036 1.18563
 H250 H 0.69282 0.86285 1.16848
 H251 H 0.66697 0.86224 1.19256
 N252 N 0.67935 0.82948 1.14809
 N253 N 0.67169 0.82167 1.14789
 C254 C 0.67362 0.81493 1.13924
 C255 C 0.68290 0.81872 1.13383
 C256 C 0.68635 0.82791 1.13958
 H257 H 0.66866 0.80782 1.13702
 H258 H 0.69342 0.83307 1.13767
 H259 H 0.67183 0.82864 1.16783
 H260 H 0.66306 0.83749 1.15870
 N261 N 0.14786 0.32165 1.17179
 N262 N 0.14821 0.32926 1.17955
 C263 C 0.13977 0.32759 1.18662
 C264 C 0.13390 0.31848 1.18306
 C265 C 0.13920 0.31489 1.17366
 H266 H 0.13799 0.33259 1.19380
 H267 H 0.13693 0.30789 1.16859
 Cu268 Cu 0.15967 0.34056 1.17964
 Cu269 Cu 0.15870 0.32103 1.15992
 Cu270 Cu 0.17900 0.34133 1.15970
 N271 N 0.17096 0.35204 1.17928
 N272 N 0.17850 0.35231 1.17145
 C273 C 0.18525 0.36101 1.17314
 C274 C 0.18173 0.36642 1.18250
 C275 C 0.17267 0.36058 1.18622
 H276 H 0.19220 0.36325 1.16796
 H277 H 0.16772 0.36244 1.19341
 N278 N 0.17815 0.32952 1.14852
 N279 N 0.17041 0.32179 1.14861
 C280 C 0.17207 0.31490 1.14003
 C281 C 0.18126 0.31849 1.13434
 C282 C 0.18495 0.32774 1.13988
 H283 H 0.16702 0.30778 1.13807
 H284 H 0.19206 0.33276 1.13777
 H285 H 0.17140 0.32864 1.16836
 H286 H 0.16222 0.33776 1.15992
 N287 N 0.14798 0.82066 0.67011
 N288 N 0.14767 0.82834 0.67780
 C289 C 0.13896 0.82639 0.68448
 C290 C 0.13361 0.81705 0.68072
 C291 C 0.13950 0.81359 0.67163
 H292 H 0.13665 0.83138 0.69152
 H293 H 0.13773 0.80648 0.66650
 Cu294 Cu 0.15866 0.84011 0.67831
 Cu295 Cu 0.15935 0.82041 0.65873
 Cu296 Cu 0.17928 0.84106 0.65970
 N297 N 0.17002 0.85152 0.67888
 N298 N 0.17806 0.85183 0.67157
 C299 C 0.18472 0.86049 0.67379
 C300 C 0.18061 0.86582 0.68295
 C301 C 0.17130 0.85998 0.68601
 H302 H 0.19198 0.86277 0.66908
 H303 H 0.16589 0.86179 0.69288
 N304 N 0.17910 0.82942 0.64832
 N305 N 0.17151 0.82156 0.64795
 C306 C 0.17358 0.81494 0.63925
 C307 C 0.18288 0.81886 0.63397
 C308 C 0.18620 0.82802 0.63987
 H309 H 0.16868 0.80783 0.63689
 H310 H 0.19324 0.83326 0.63809
 H311 H 0.17135 0.82833 0.66794
 H312 H 0.16262 0.83722 0.65882
 N313 N 0.35142 0.67837 0.67127
 N314 N 0.35105 0.67067 0.67895
 C315 C 0.35955 0.67219 0.68598
 C316 C 0.36547 0.68129 0.68248
 C317 C 0.36015 0.68504 0.67316
 H318 H 0.36132 0.66709 0.69309
 H319 H 0.36246 0.69208 0.66814
 Cu320 Cu 0.33951 0.65944 0.67901
 Cu321 Cu 0.34059 0.67914 0.65941
 Cu322 Cu 0.32019 0.65893 0.65909
 N323 N 0.32814 0.64803 0.67860
 N324 N 0.32061 0.64789 0.67078
 C325 C 0.31377 0.63924 0.67241
 C326 C 0.31723 0.63373 0.68173
 C327 C 0.32635 0.63945 0.68548
 H328 H 0.30680 0.63713 0.66723
 H329 H 0.33126 0.63750 0.69267
 N330 N 0.32114 0.67079 0.64798
 N331 N 0.32890 0.67850 0.64810
 C332 C 0.32729 0.68540 0.63950
 C333 C 0.31813 0.68180 0.63379
 C334 C 0.31441 0.67256 0.63932
 H335 H 0.33237 0.69250 0.63753
 H336 H 0.30731 0.66755 0.63718
 H337 H 0.32782 0.67150 0.66781
 H338 H 0.33697 0.66240 0.65931
 N339 N 0.35198 0.17812 1.17128
 N340 N 0.35186 0.17020 1.17872
 C341 C 0.36040 0.17170 1.18572
 C342 C 0.36609 0.18102 1.18242
 C343 C 0.36059 0.18492 1.17326
 H344 H 0.36235 0.16644 1.19267
 H345 H 0.36270 0.19214 1.16842
 Cu346 Cu 0.34057 0.15872 1.17856
 Cu347 Cu 0.34101 0.17903 1.15955
 Cu348 Cu 0.32055 0.15889 1.15933
 N349 N 0.32892 0.14759 1.17843
 N350 N 0.32109 0.14772 1.17090
 C351 C 0.31414 0.13918 1.17268
 C352 C 0.31784 0.13347 1.18180
 C353 C 0.32720 0.13896 1.18527
 H354 H 0.30695 0.13727 1.16773
 H355 H 0.33234 0.13681 1.19225
 N356 N 0.32138 0.17085 1.14831
 N357 N 0.32918 0.17852 1.14838
 C358 C 0.32754 0.18546 1.13983
 C359 C 0.31829 0.18195 1.13419
 C360 C 0.31457 0.17272 1.13971
 H361 H 0.33266 0.19253 1.13784
 H362 H 0.30744 0.16774 1.13760
 H363 H 0.32856 0.17116 1.16817
 H364 H 0.33736 0.16233 1.15905
 N365 N 0.85135 0.67857 1.17118
 N366 N 0.85099 0.67091 1.17889
 C367 C 0.85949 0.67248 1.18591
 C368 C 0.86539 0.68158 1.18237
 C369 C 0.86006 0.68527 1.17303
 H370 H 0.86128 0.66741 1.19304
 H371 H 0.86236 0.69228 1.16798
 Cu372 Cu 0.83948 0.65963 1.17898
 Cu373 Cu 0.84052 0.67928 1.15932
 Cu374 Cu 0.82019 0.65901 1.15902
 N375 N 0.82815 0.64818 1.17855
 N376 N 0.82063 0.64799 1.17071
 C377 C 0.81384 0.63930 1.17233
 C378 C 0.81731 0.63380 1.18165
 C379 C 0.82638 0.63958 1.18543
 H380 H 0.80690 0.63713 1.16713
 H381 H 0.83130 0.63765 1.19263
 N382 N 0.82110 0.67087 1.14790
 N383 N 0.82884 0.67860 1.14801
 C384 C 0.82722 0.68549 1.13941
 C385 C 0.81806 0.68187 1.13370
 C386 C 0.81436 0.67263 1.13923
 H387 H 0.83228 0.69261 1.13745
 H388 H 0.80727 0.66761 1.13710
 H389 H 0.82776 0.67162 1.16773
 H390 H 0.83696 0.66253 1.15927
 N391 N 0.85203 0.17846 0.67119
 N392 N 0.85158 0.17080 0.67890
 C393 C 0.86009 0.17228 0.68593
 C394 C 0.86610 0.18130 0.68238
 C395 C 0.86082 0.18506 0.67304
 H396 H 0.86181 0.16720 0.69306
 H397 H 0.86319 0.19206 0.66800
 Cu398 Cu 0.83994 0.15967 0.67899
 Cu399 Cu 0.84118 0.17934 0.65937
 Cu400 Cu 0.82054 0.15938 0.65910
 N401 N 0.82847 0.14837 0.67857
 N402 N 0.82091 0.14829 0.67077
 C403 C 0.81405 0.13964 0.67239
 C404 C 0.81755 0.13406 0.68167
 C405 C 0.82668 0.13975 0.68541
 H406 H 0.80706 0.13758 0.66723
 H407 H 0.83163 0.13774 0.69257
 N408 N 0.82158 0.17128 0.64801
 N409 N 0.82946 0.17887 0.64811
 C410 C 0.82794 0.18582 0.63955
 C411 C 0.81870 0.18240 0.63386
 C412 C 0.81484 0.17320 0.63937
 H413 H 0.83313 0.19284 0.63758
 H414 H 0.80766 0.16830 0.63723
 H415 H 0.82833 0.17183 0.66781
 H416 H 0.83735 0.16261 0.65929
 N417 N 0.32100 0.35184 0.67071
 N418 N 0.32889 0.35186 0.67817
 C419 C 0.32723 0.36040 0.68512
 C420 C 0.31784 0.36596 0.68178
 C421 C 0.31406 0.36037 0.67264
 H422 H 0.33243 0.36245 0.69207
 H423 H 0.30682 0.36236 0.66778
 Cu424 Cu 0.34057 0.34074 0.67813
 Cu425 Cu 0.32034 0.34076 0.65907
 Cu426 Cu 0.34077 0.32052 0.65905
 N427 N 0.35178 0.32915 0.67816
 N428 N 0.35183 0.32127 0.67068
 C429 C 0.36041 0.31438 0.67262
 C430 C 0.36595 0.31820 0.68177
 C431 C 0.36032 0.32754 0.68512
 H432 H 0.36245 0.30715 0.66775
 H433 H 0.36231 0.33274 0.69209
 N434 N 0.32887 0.32115 0.64797
 N435 N 0.32108 0.32886 0.64798
 C436 C 0.31422 0.32709 0.63941
 C437 C 0.31789 0.31786 0.63383
 C438 C 0.32716 0.31428 0.63939
 H439 H 0.30710 0.33213 0.63736
 H440 H 0.33228 0.30721 0.63732
 H441 H 0.32836 0.32844 0.66783
 H442 H 0.33708 0.33726 0.65864
 N443 N 0.32182 0.85210 0.17026
 N444 N 0.32967 0.85213 0.17777
 C445 C 0.32798 0.86070 0.18468
 C446 C 0.31862 0.86626 0.18127
 C447 C 0.31488 0.86065 0.17213
 H448 H 0.33313 0.86275 0.19167
 H449 H 0.30766 0.86262 0.16723
 Cu450 Cu 0.34129 0.84095 0.17780
 Cu451 Cu 0.32114 0.84097 0.15868
 Cu452 Cu 0.34147 0.82063 0.15884
 N453 N 0.35251 0.82936 0.17791
 N454 N 0.35253 0.82143 0.17047
 C455 C 0.36110 0.81455 0.17241
 C456 C 0.36668 0.81840 0.18153
 C457 C 0.36108 0.82778 0.18484
 H458 H 0.36313 0.80730 0.16757
 H459 H 0.36311 0.83302 0.19177
 N460 N 0.32958 0.82125 0.14774
 N461 N 0.32185 0.82901 0.14767
 C462 C 0.31500 0.82722 0.13910
 C463 C 0.31864 0.81792 0.13359
 C464 C 0.32786 0.81431 0.13922
 H465 H 0.30791 0.83228 0.13698
 H466 H 0.33292 0.80719 0.13722
 H467 H 0.32908 0.82865 0.16752
 H468 H 0.33788 0.83738 0.15832
 N469 N 0.82165 0.35162 0.17115
 N470 N 0.82944 0.35110 0.17871
 C471 C 0.82803 0.35951 0.18587
 C472 C 0.81891 0.36554 0.18257
 C473 C 0.81503 0.36036 0.17324
 H474 H 0.83322 0.36116 0.19294
 H475 H 0.80794 0.36277 0.16835
 Cu476 Cu 0.84060 0.33945 0.17843
 Cu477 Cu 0.82065 0.34092 0.15919
 Cu478 Cu 0.84064 0.32027 0.15834
 N479 N 0.85190 0.32795 0.17774
 N480 N 0.85185 0.32046 0.16986
 C481 C 0.86045 0.31350 0.17132
 C482 C 0.86614 0.31684 0.18056
 C483 C 0.86056 0.32600 0.18447
 H484 H 0.86242 0.30652 0.16607
 H485 H 0.86266 0.33083 0.19167
 N486 N 0.82863 0.32148 0.14743
 N487 N 0.82102 0.32936 0.14775
 C488 C 0.81400 0.32796 0.13924
 C489 C 0.81739 0.31881 0.13337
 C490 C 0.82665 0.31487 0.13872
 H491 H 0.80694 0.33318 0.13743
 H492 H 0.83154 0.30772 0.13642
 H493 H 0.82830 0.32796 0.16734
 H494 H 0.83735 0.33707 0.15876
 N495 N 0.82087 0.85189 0.67077
 N496 N 0.82840 0.85174 0.67859
 C497 C 0.82654 0.86027 0.68552
 C498 C 0.81740 0.86600 0.68179
 C499 C 0.81397 0.86052 0.67244
 H500 H 0.83144 0.86220 0.69272
 H501 H 0.80700 0.86265 0.66726
 Cu502 Cu 0.83987 0.84041 0.67898
 Cu503 Cu 0.82054 0.84085 0.65907
 Cu504 Cu 0.84113 0.82077 0.65935
 N505 N 0.85150 0.82924 0.67891
 N506 N 0.85197 0.82159 0.67120
 C507 C 0.86074 0.81495 0.67309
 C508 C 0.86598 0.81867 0.68246
 C509 C 0.85997 0.82771 0.68597
 H510 H 0.86312 0.80794 0.66806
 H511 H 0.86166 0.83277 0.69313
 N512 N 0.82942 0.82134 0.64806
 N513 N 0.82157 0.82899 0.64795
 C514 C 0.81483 0.82714 0.63931
 C515 C 0.81864 0.81792 0.63379
 C516 C 0.82786 0.81442 0.63949
 H517 H 0.80768 0.83210 0.63716
 H518 H 0.83303 0.80736 0.63753
 H519 H 0.82832 0.82828 0.66776
 H520 H 0.83737 0.83745 0.65927
 N521 N 0.67919 0.64843 0.66978
 N522 N 0.67134 0.64843 0.67730
 C523 C 0.67302 0.63987 0.68424
 C524 C 0.68239 0.63430 0.68084
 C525 C 0.68613 0.63989 0.67167
 H526 H 0.66785 0.63783 0.69123
 H527 H 0.69333 0.63789 0.66676
 Cu528 Cu 0.65970 0.65961 0.67728
 Cu529 Cu 0.67985 0.65947 0.65810
 Cu530 Cu 0.65954 0.67980 0.65813
 N531 N 0.64853 0.67127 0.67733
 N532 N 0.64854 0.67913 0.66982
 C533 C 0.64000 0.68608 0.67172
 C534 C 0.63442 0.68233 0.68089
 C535 C 0.63999 0.67295 0.68428
 H536 H 0.63799 0.69328 0.66681
 H537 H 0.63794 0.66777 0.69126
 N538 N 0.67138 0.67908 0.64698
 N539 N 0.67912 0.67133 0.64697
 C540 C 0.68599 0.67308 0.63839
 C541 C 0.68235 0.68234 0.63282
 C542 C 0.67311 0.68596 0.63842
 H543 H 0.69310 0.66804 0.63634
 H544 H 0.66806 0.69308 0.63638
 H545 H 0.67190 0.67184 0.66688
 H546 H 0.66310 0.66304 0.65776
 N547 N 0.67941 0.14826 0.16980
 N548 N 0.67166 0.14839 0.17742
 C549 C 0.67332 0.13984 0.18438
 C550 C 0.68258 0.13414 0.18087
 C551 C 0.68626 0.13964 0.17163
 H552 H 0.66823 0.13788 0.19143
 H553 H 0.69337 0.13751 0.16663
 Cu554 Cu 0.66018 0.15975 0.17749
 Cu555 Cu 0.68007 0.15922 0.15806
 Cu556 Cu 0.65977 0.17956 0.15794
 N557 N 0.64883 0.17123 0.17730
 N558 N 0.64873 0.17895 0.16964
 C559 C 0.64010 0.18581 0.17141
 C560 C 0.63457 0.18216 0.18064
 C561 C 0.64025 0.17291 0.18421
 H562 H 0.63799 0.19290 0.16638
 H563 H 0.63826 0.16784 0.19127
 N564 N 0.67163 0.17876 0.14683
 N565 N 0.67936 0.17100 0.14688
 C566 C 0.68624 0.17266 0.13830
 C567 C 0.68263 0.18188 0.13265
 C568 C 0.67339 0.18557 0.13820
 H569 H 0.69335 0.16759 0.13631
 H570 H 0.66836 0.19270 0.13612
 H571 H 0.67226 0.17182 0.16666
 H572 H 0.66333 0.16284 0.15787
 N573 N 0.17901 0.64881 0.16938
 N574 N 0.17114 0.64876 0.17688
 C575 C 0.17285 0.64019 0.18382
 C576 C 0.18225 0.63467 0.18042
 C577 C 0.18598 0.64029 0.17127
 H578 H 0.16768 0.63812 0.19079
 H579 H 0.19321 0.63833 0.16638
 Cu580 Cu 0.15946 0.65990 0.17686
 Cu581 Cu 0.17967 0.65988 0.15774
 Cu582 Cu 0.15929 0.68014 0.15777
 N583 N 0.14826 0.67152 0.17692
 N584 N 0.14825 0.67940 0.16943
 C585 C 0.13970 0.68632 0.17133
 C586 C 0.13412 0.68254 0.18048
 C587 C 0.13970 0.67317 0.18386
 H588 H 0.13769 0.69354 0.16644
 H589 H 0.13766 0.66797 0.19083
 N590 N 0.17116 0.67950 0.14666
 N591 N 0.17893 0.67177 0.14664
 C592 C 0.18582 0.67358 0.13809
 C593 C 0.18217 0.68283 0.13253
 C594 C 0.17290 0.68641 0.13811
 H595 H 0.19296 0.66856 0.13604
 H596 H 0.16784 0.69353 0.13609
 H597 H 0.17166 0.67220 0.16653
 H598 H 0.16291 0.66341 0.15736
 N599 N 0.17932 0.14813 0.66960
 N600 N 0.17147 0.14802 0.67712
 C601 C 0.17325 0.13946 0.68404
 C602 C 0.18267 0.13400 0.68061
 C603 C 0.18634 0.13966 0.67145
 H604 H 0.16811 0.13734 0.69102
 H605 H 0.19356 0.13775 0.66653
 Cu606 Cu 0.15971 0.15908 0.67716
 Cu607 Cu 0.17987 0.15923 0.65799
 Cu608 Cu 0.15936 0.17937 0.65811
 N609 N 0.14844 0.17063 0.67727
 N610 N 0.14835 0.17854 0.66980
 C611 C 0.13976 0.18539 0.67177
 C612 C 0.13424 0.18154 0.68094
 C613 C 0.13990 0.17220 0.68426
 H614 H 0.13768 0.19261 0.66691
 H615 H 0.13794 0.16697 0.69122
 N616 N 0.17122 0.17882 0.64697
 N617 N 0.17903 0.17114 0.64692
 C618 C 0.18588 0.17298 0.63835
 C619 C 0.18217 0.18221 0.63281
 C620 C 0.17290 0.18575 0.63842
 H621 H 0.19303 0.16799 0.63627
 H622 H 0.16779 0.19283 0.63641
 H623 H 0.17180 0.17148 0.66682
 H624 H 0.16308 0.16264 0.65766
 N625 N 0.32078 0.64888 0.32977
 N626 N 0.32825 0.64892 0.32188
 C627 C 0.32637 0.64031 0.31509
 C628 C 0.31726 0.63465 0.31896
 C629 C 0.31388 0.64025 0.32826
 H630 H 0.33123 0.63827 0.30788
 H631 H 0.30695 0.63819 0.33352
 Cu632 Cu 0.33972 0.66023 0.32127
 Cu633 Cu 0.32052 0.65997 0.34139
 Cu634 Cu 0.34113 0.67994 0.34081
 N635 N 0.35138 0.67134 0.32122
 N636 N 0.35187 0.67902 0.32890
 C637 C 0.36068 0.68558 0.32699
 C638 C 0.36593 0.68178 0.31765
 C639 C 0.35989 0.67276 0.31416
 H640 H 0.36310 0.69256 0.33201
 H641 H 0.36159 0.66763 0.30706
 N642 N 0.32951 0.67949 0.35220
 N643 N 0.32166 0.67189 0.35242
 C644 C 0.31501 0.67379 0.36114
 C645 C 0.31890 0.68300 0.36658
 C646 C 0.32807 0.68644 0.36077
 H647 H 0.30787 0.66888 0.36338
 H648 H 0.33328 0.69347 0.36266
 H649 H 0.32822 0.67241 0.33254
 H650 H 0.33733 0.66323 0.34099
 N651 N 0.32018 0.14789 0.83049
 N652 N 0.32796 0.14766 0.82290
 C653 C 0.32612 0.13901 0.81612
 C654 C 0.31673 0.13362 0.81971
 C655 C 0.31314 0.13941 0.82881
 H656 H 0.33120 0.13679 0.80912
 H657 H 0.30596 0.13759 0.83383
 Cu658 Cu 0.33972 0.15866 0.82262
 Cu659 Cu 0.31976 0.15916 0.84195
 Cu660 Cu 0.34035 0.17917 0.84140
 N661 N 0.35106 0.17009 0.82227
 N662 N 0.35127 0.17808 0.82963
 C663 C 0.35991 0.18480 0.82751
 C664 C 0.36533 0.18078 0.81836
 C665 C 0.35957 0.17147 0.81520
 H666 H 0.36209 0.19206 0.83227
 H667 H 0.36145 0.16613 0.80830
 N668 N 0.32856 0.17885 0.85264
 N669 N 0.32072 0.17123 0.85284
 C670 C 0.31392 0.17324 0.86142
 C671 C 0.31768 0.18255 0.86679
 C672 C 0.32694 0.18593 0.86108
 H673 H 0.30675 0.16834 0.86360
 H674 H 0.33209 0.19301 0.86294
 H675 H 0.32780 0.17129 0.83291
 H676 H 0.33657 0.16250 0.84210
 N677 N 0.82023 0.64824 0.82994
 N678 N 0.82768 0.64813 0.82202
 C679 C 0.82568 0.63946 0.81532
 C680 C 0.81652 0.63393 0.81929
 C681 C 0.81324 0.63966 0.82854
 H682 H 0.83050 0.63730 0.80812
 H683 H 0.80631 0.63773 0.83385
 Cu684 Cu 0.83925 0.65931 0.82126
 Cu685 Cu 0.82016 0.65947 0.84145
 Cu686 Cu 0.84094 0.67926 0.84051
 N687 N 0.85098 0.67035 0.82095
 N688 N 0.85159 0.67813 0.82851
 C689 C 0.86039 0.68464 0.82639
 C690 C 0.86550 0.68070 0.81704
 C691 C 0.85939 0.67165 0.81376
 H692 H 0.86288 0.69171 0.83127
 H693 H 0.86096 0.66644 0.80668
 N694 N 0.82940 0.67902 0.85200
 N695 N 0.82148 0.67148 0.85235
 C696 C 0.81491 0.67354 0.86109
 C697 C 0.81892 0.68276 0.86642
 C698 C 0.82807 0.68607 0.86051
 H699 H 0.80774 0.66870 0.86342
 H700 H 0.83335 0.69307 0.86230
 H701 H 0.82792 0.67175 0.83242
 H702 H 0.83700 0.66261 0.84094
 N703 N 0.82087 0.14831 0.32951
 N704 N 0.82851 0.14868 0.32179
 C705 C 0.82695 0.14017 0.31478
 C706 C 0.81787 0.13425 0.31834
 C707 C 0.81418 0.13959 0.32767
 H708 H 0.83200 0.13840 0.30763
 H709 H 0.80717 0.13729 0.33272
 Cu710 Cu 0.83972 0.16026 0.32167
 Cu711 Cu 0.82010 0.15917 0.34133
 Cu712 Cu 0.84022 0.17964 0.34160
 N713 N 0.85111 0.17166 0.32209
 N714 N 0.85125 0.17921 0.32990
 C715 C 0.85990 0.18604 0.32826
 C716 C 0.86543 0.18255 0.31896
 C717 C 0.85970 0.17343 0.31522
 H718 H 0.86203 0.19301 0.33344
 H719 H 0.86167 0.16849 0.30805
 N720 N 0.82836 0.17868 0.35272
 N721 N 0.82070 0.17087 0.35261
 C722 C 0.81377 0.17246 0.36118
 C723 C 0.81728 0.18167 0.36687
 C724 C 0.82651 0.18544 0.36136
 H725 H 0.80669 0.16735 0.36313
 H726 H 0.83146 0.19258 0.36348
 H727 H 0.82770 0.17199 0.33290
 H728 H 0.83685 0.16287 0.34138
 N729 N 0.67836 0.35137 0.32883
 N730 N 0.67039 0.35106 0.32145
 C731 C 0.67170 0.35955 0.31436
 C732 C 0.68096 0.36542 0.31752
 C733 C 0.68501 0.36006 0.32669
 H734 H 0.66635 0.36137 0.30745
 H735 H 0.69222 0.36233 0.33145
 Cu736 Cu 0.65906 0.33960 0.32189
 Cu737 Cu 0.67952 0.34053 0.34066
 Cu738 Cu 0.65966 0.31982 0.34140
 N739 N 0.64812 0.32779 0.32228
 N740 N 0.64840 0.32008 0.32994
 C741 C 0.63994 0.31299 0.32836
 C742 C 0.63413 0.31646 0.31923
 C743 C 0.63947 0.32584 0.31554
 H744 H 0.63815 0.30586 0.33346
 H745 H 0.63720 0.33085 0.30850
 N746 N 0.67172 0.32095 0.35227
 N747 N 0.67929 0.32883 0.35198
 C748 C 0.68634 0.32739 0.36046
 C749 C 0.68300 0.31819 0.36629
 C750 C 0.67374 0.31428 0.36095
 H751 H 0.69336 0.33262 0.36231
 H752 H 0.66886 0.30713 0.36324
 H753 H 0.67172 0.32783 0.33231
 H754 H 0.66287 0.33664 0.34140
 N755 N 0.67837 0.85139 0.82935
 N756 N 0.67072 0.85117 0.82164
 C757 C 0.67236 0.85972 0.81468
 C758 C 0.68151 0.86552 0.81826
 C759 C 0.68514 0.86007 0.82756
 H760 H 0.66734 0.86160 0.80755
 H761 H 0.69217 0.86226 0.83262
 Cu762 Cu 0.65942 0.83967 0.82141
 Cu763 Cu 0.67901 0.84041 0.84110
 Cu764 Cu 0.65869 0.82013 0.84116
 N765 N 0.64795 0.82834 0.82168
 N766 N 0.64772 0.82073 0.82944
 C767 C 0.63905 0.81394 0.82772
 C768 C 0.63362 0.81751 0.81840
 C769 C 0.63941 0.82664 0.81474
 H770 H 0.63687 0.80693 0.83283
 H771 H 0.63754 0.83162 0.80757
 N772 N 0.67048 0.82088 0.85232
 N773 N 0.67825 0.82858 0.85229
 C774 C 0.68509 0.82683 0.86089
 C775 C 0.68141 0.81764 0.86652
 C776 C 0.67217 0.81404 0.86093
 H777 H 0.69222 0.83185 0.86293
 H778 H 0.66710 0.80696 0.86301
 H779 H 0.67135 0.82778 0.83256
 H780 H 0.66227 0.83691 0.84111
 N781 N 0.17849 0.35137 0.82930
 N782 N 0.17081 0.35098 0.82163
 C783 C 0.17230 0.35950 0.81460
 C784 C 0.18138 0.36544 0.81809
 C785 C 0.18515 0.36012 0.82741
 H786 H 0.16718 0.36129 0.80753
 H787 H 0.19216 0.36245 0.83242
 Cu788 Cu 0.15960 0.33941 0.82155
 Cu789 Cu 0.17921 0.34056 0.84117
 Cu790 Cu 0.15904 0.32013 0.84155
 N791 N 0.14821 0.32805 0.82200
 N792 N 0.14803 0.32051 0.82984
 C793 C 0.13937 0.31369 0.82820
 C794 C 0.13386 0.31721 0.81890
 C795 C 0.13963 0.32631 0.81513
 H796 H 0.13722 0.30673 0.83339
 H797 H 0.13769 0.33126 0.80797
 N798 N 0.17088 0.32110 0.85267
 N799 N 0.17859 0.32887 0.85252
 C800 C 0.18548 0.32728 0.86111
 C801 C 0.18192 0.31812 0.86686
 C802 C 0.17268 0.31437 0.86136
 H803 H 0.19259 0.33237 0.86305
 H804 H 0.16769 0.30726 0.86353
 H805 H 0.17156 0.32780 0.83290
 H806 H 0.16238 0.33702 0.84126
 N807 N 0.17823 0.85152 0.32967
 N808 N 0.17038 0.85152 0.32215
 C809 C 0.17201 0.86010 0.31523
 C810 C 0.18133 0.86570 0.31864
 C811 C 0.18511 0.86010 0.32779
 H812 H 0.16684 0.86214 0.30825
 H813 H 0.19230 0.86211 0.33270
 Cu814 Cu 0.15880 0.84031 0.32215
 Cu815 Cu 0.17896 0.84042 0.34129
 Cu816 Cu 0.15872 0.82007 0.34121
 N817 N 0.14765 0.82867 0.32208
 N818 N 0.14768 0.82079 0.32957
 C819 C 0.13916 0.81386 0.32767
 C820 C 0.13356 0.81763 0.31852
 C821 C 0.13910 0.82701 0.31514
 H822 H 0.13718 0.80663 0.33256
 H823 H 0.13705 0.83221 0.30817
 N824 N 0.17057 0.82073 0.35231
 N825 N 0.17829 0.82848 0.35236
 C826 C 0.18515 0.82669 0.36094
 C827 C 0.18153 0.81740 0.36647
 C828 C 0.17231 0.81381 0.36085
 H829 H 0.19223 0.83174 0.36303
 H830 H 0.16727 0.80669 0.36287
 H831 H 0.17110 0.82810 0.33249
 H832 H 0.16226 0.83685 0.34165
 C833 C 0.24564 0.99952 0.25416
 C834 C 0.25402 0.99950 0.24672
 C835 C 0.25860 1.00988 0.24206
 C836 C 0.25856 0.98898 0.24243
 C837 C 0.24101 0.98902 0.25840
 C838 C 0.24116 1.00993 0.25885
 C839 C 0.25177 1.01722 0.23616
 C840 C 0.25617 1.02696 0.23169
 C841 C 0.26742 1.02942 0.23305
 C842 C 0.27425 1.02210 0.23888
 C843 C 0.26988 1.01236 0.24333
 C844 C 0.25389 0.98415 0.23303
 C845 C 0.25827 0.97432 0.22877
 C846 C 0.26739 0.96928 0.23386
 C847 C 0.27200 0.97404 0.24333
 C848 C 0.26758 0.98384 0.24763
 C849 C 0.24566 0.98406 0.26777
 C850 C 0.24122 0.97423 0.27194
 C851 C 0.23208 0.96931 0.26681
 C852 C 0.22747 0.97421 0.25740
 C853 C 0.23195 0.98402 0.25318
 C854 C 0.24807 1.01718 0.26473
 C855 C 0.24378 1.02698 0.26918
 C856 C 0.23256 1.02959 0.26781
 C857 C 0.22564 1.02237 0.26200
 C858 C 0.22990 1.01257 0.25757
 H859 H 0.24308 1.01537 0.23497
 H860 H 0.25081 1.03253 0.22714
 H861 H 0.28297 1.02392 0.23998
 H862 H 0.27528 1.00683 0.24786
 H863 H 0.24688 0.98802 0.22899
 H864 H 0.25462 0.97070 0.22147
 H865 H 0.27122 0.98746 0.25493
 H866 H 0.25270 0.98783 0.27182
 H867 H 0.24487 0.97050 0.27920
 H868 H 0.22039 0.97048 0.25337
 H869 H 0.22833 0.98774 0.24590
 H870 H 0.25674 1.01521 0.26592
 H871 H 0.24920 1.03248 0.27371
 H872 H 0.21694 1.02432 0.26090
 H873 H 0.22445 1.00711 0.25305
 H874 H 0.27906 0.97021 0.24733
 C875 C 0.24524 0.49978 0.75427
 C876 C 0.25332 0.49977 0.74643
 C877 C 0.25761 0.51021 0.74156
 C878 C 0.25828 0.48931 0.74224
 C879 C 0.24020 0.48934 0.75838
 C880 C 0.24101 0.51024 0.75919
 C881 C 0.25042 0.51790 0.73657
 C882 C 0.25460 0.52764 0.73192
 C883 C 0.26601 0.52973 0.73212
 C884 C 0.27321 0.52205 0.73697
 C885 C 0.26904 0.51233 0.74163
 C886 C 0.25843 0.48722 0.73087
 C887 C 0.26313 0.47746 0.72679
 C888 C 0.26780 0.46972 0.73402
 C889 C 0.26779 0.47180 0.74537
 C890 C 0.26311 0.48157 0.74946
 C891 C 0.24004 0.48716 0.76973
 C892 C 0.23526 0.47742 0.77375
 C893 C 0.23052 0.46980 0.76646
 C894 C 0.23055 0.47197 0.75513
 C895 C 0.23532 0.48172 0.75110
 C896 C 0.24824 0.51786 0.76417
 C897 C 0.24410 0.52763 0.76883
 C898 C 0.23270 0.52981 0.76865
 C899 C 0.22546 0.52219 0.76382
 C900 C 0.22958 0.51244 0.75914
 H901 H 0.24160 0.51632 0.73624
 H902 H 0.24897 0.53350 0.72814
 H903 H 0.28206 0.52358 0.73713
 H904 H 0.27472 0.50647 0.74536
 H905 H 0.25483 0.49311 0.72517
 H906 H 0.26312 0.47596 0.71799
 H907 H 0.26328 0.48313 0.75824
 H908 H 0.24370 0.49296 0.77547
 H909 H 0.23527 0.47584 0.78253
 H910 H 0.22685 0.46614 0.74943
 H911 H 0.23517 0.48334 0.74233
 H912 H 0.25705 0.51622 0.76448
 H913 H 0.24977 0.53344 0.77261
 H914 H 0.21662 0.52377 0.76366
 H915 H 0.22387 0.50664 0.75540
 H916 H 0.27145 0.46589 0.75103
 C917 C 0.74595 0.00005 0.24626
 C918 C 0.75411 0.00008 0.25401
 C919 C 0.75912 -0.01035 0.25823
 C920 C 0.75847 0.01057 0.25872
 C921 C 0.74171 0.01050 0.24132
 C922 C 0.74085 -0.01039 0.24226
 C923 C 0.75953 -0.01227 0.26963
 C924 C 0.76435 -0.02195 0.27375
 C925 C 0.76889 -0.02977 0.26654
 C926 C 0.76861 -0.02788 0.25516
 C927 C 0.76379 -0.01818 0.25102
 C928 C 0.75137 0.01826 0.26382
 C929 C 0.75564 0.02803 0.26831
 C930 C 0.76703 0.03016 0.26783
 C931 C 0.77414 0.02247 0.26286
 C932 C 0.76989 0.01271 0.25836
 C933 C 0.74890 0.01798 0.23605
 C934 C 0.74474 0.02773 0.23136
 C935 C 0.73338 0.03004 0.23182
 C936 C 0.72618 0.02256 0.23696
 C937 C 0.73032 0.01282 0.24165
 C938 C 0.74043 -0.01254 0.23090
 C939 C 0.73558 -0.02226 0.22698
 C940 C 0.73102 -0.02993 0.23436
 C941 C 0.73130 -0.02780 0.24569
 C942 C 0.73614 -0.01805 0.24963
 H943 H 0.75604 -0.00631 0.27532
 H944 H 0.76456 -0.02332 0.28257
 H945 H 0.77215 -0.03386 0.24951
 H946 H 0.76376 -0.01676 0.24221
 H947 H 0.74257 0.01665 0.26437
 H948 H 0.75007 0.03389 0.27220
 H949 H 0.77550 0.00685 0.25453
 H950 H 0.75768 0.01623 0.23553
 H951 H 0.75038 0.03343 0.22734
 H952 H 0.71738 0.02425 0.23733
 H953 H 0.72465 0.00713 0.24562
 H954 H 0.74394 -0.00671 0.22509
 H955 H 0.73538 -0.02381 0.21819
 H956 H 0.72774 -0.03365 0.25146
 H957 H 0.73617 -0.01645 0.25840
 H958 H 0.78297 0.02401 0.26247
 C959 C 0.74552 0.49996 0.74601
 C960 C 0.75347 0.49993 0.75397
 C961 C 0.75855 0.48947 0.75803
 C962 C 0.75756 0.51036 0.75905
 C963 C 0.74125 0.51044 0.74117
 C964 C 0.74066 0.48951 0.74171
 C965 C 0.75861 0.48718 0.76937
 C966 C 0.76347 0.47745 0.77334
 C967 C 0.76838 0.46994 0.76603
 C968 C 0.76844 0.47222 0.75471
 C969 C 0.76360 0.48196 0.75073
 C970 C 0.75021 0.51790 0.76403
 C971 C 0.75422 0.52761 0.76889
 C972 C 0.76561 0.52981 0.76890
 C973 C 0.77297 0.52227 0.76406
 C974 C 0.76897 0.51259 0.75919
 C975 C 0.74846 0.51820 0.73637
 C976 C 0.74429 0.52799 0.73178
 C977 C 0.73287 0.53006 0.73186
 C978 C 0.72564 0.52229 0.73651
 C979 C 0.72980 0.51251 0.74110
 C980 C 0.74063 0.48748 0.73033
 C981 C 0.73600 0.47775 0.72615
 C982 C 0.73128 0.46996 0.73329
 C983 C 0.73118 0.47197 0.74465
 C984 C 0.73580 0.48172 0.74884
 H985 H 0.75483 0.49290 0.77514
 H986 H 0.76340 0.47579 0.78211
 H987 H 0.77228 0.46649 0.74899
 H988 H 0.76383 0.48369 0.74198
 H989 H 0.74140 0.51623 0.76420
 H990 H 0.74847 0.53335 0.77268
 H991 H 0.77477 0.50685 0.75546
 H992 H 0.75730 0.51665 0.73614
 H993 H 0.74995 0.53392 0.72815
 H994 H 0.71679 0.52378 0.73658
 H995 H 0.72410 0.50660 0.74469
 H996 H 0.74427 0.49341 0.72469
 H997 H 0.73609 0.47630 0.71734
 H998 H 0.72749 0.46603 0.75025
 H999 H 0.73554 0.48322 0.75763
 H1000 H 0.78180 0.52388 0.76405
 C1001 C 0.24592 0.50076 0.24594
 C1002 C 0.25387 0.50073 0.25391
 C1003 C 0.25883 0.49026 0.25807
 C1004 C 0.25803 0.51116 0.25890
 C1005 C 0.24168 0.51124 0.24106
 C1006 C 0.24102 0.49032 0.24169
 C1007 C 0.25881 0.48806 0.26943
 C1008 C 0.26354 0.47831 0.27350
 C1009 C 0.26840 0.47069 0.26627
 C1010 C 0.26856 0.47287 0.25494
 C1011 C 0.26384 0.48264 0.25086
 C1012 C 0.25074 0.51879 0.26384
 C1013 C 0.25483 0.52851 0.26861
 C1014 C 0.26623 0.53064 0.26857
 C1015 C 0.27353 0.52302 0.26377
 C1016 C 0.26946 0.51331 0.25900
 C1017 C 0.24891 0.51896 0.23621
 C1018 C 0.24474 0.52872 0.23155
 C1019 C 0.23333 0.53080 0.23160
 C1020 C 0.22609 0.52308 0.23632
 C1021 C 0.23023 0.51334 0.24098
 C1022 C 0.24104 0.48824 0.23031
 C1023 C 0.23637 0.47852 0.22616
 C1024 C 0.23154 0.47082 0.23332
 C1025 C 0.23138 0.47288 0.24466
 C1026 C 0.23605 0.48261 0.24883
 H1027 H 0.25506 0.49386 0.27513
 H1028 H 0.26341 0.47672 0.28228
 H1029 H 0.27236 0.46706 0.24928
 H1030 H 0.26413 0.48429 0.24210
 H1031 H 0.24192 0.51717 0.26404
 H1032 H 0.24912 0.53432 0.27236
 H1033 H 0.27522 0.50751 0.25531
 H1034 H 0.25774 0.51740 0.23600
 H1035 H 0.25041 0.53461 0.22787
 H1036 H 0.21724 0.52459 0.23637
 H1037 H 0.22452 0.50746 0.24461
 H1038 H 0.24476 0.49411 0.22466
 H1039 H 0.23650 0.47702 0.21736
 H1040 H 0.22762 0.46700 0.25027
 H1041 H 0.23576 0.48417 0.25761
 H1042 H 0.28237 0.52457 0.26374
 C1043 C 0.74528 1.00009 0.75440
 C1044 C 0.75334 1.00017 0.74653
 C1045 C 0.75749 1.01068 0.74168
 C1046 C 0.75834 0.98977 0.74220
 C1047 C 0.74028 0.98962 0.75852
 C1048 C 0.74095 1.01053 0.75928
 C1049 C 0.75026 1.01813 0.73641
 C1050 C 0.75436 1.02784 0.73160
 C1051 C 0.76572 1.03016 0.73199
 C1052 C 0.77295 1.02272 0.73717
 C1053 C 0.76887 1.01303 0.74196
 C1054 C 0.75863 0.98793 0.73078
 C1055 C 0.76335 0.97827 0.72653
 C1056 C 0.76793 0.97035 0.73362
 C1057 C 0.76784 0.97219 0.74501
 C1058 C 0.76312 0.98188 0.74929
 C1059 C 0.73988 0.98759 0.76990
 C1060 C 0.73506 0.97789 0.77396
 C1061 C 0.73051 0.97014 0.76669
 C1062 C 0.73075 0.97216 0.75533
 C1063 C 0.73557 0.98188 0.75126
 C1064 C 0.74805 1.01806 0.76456
 C1065 C 0.74381 1.02777 0.76926
 C1066 C 0.73243 1.03000 0.76877
 C1067 C 0.72531 1.02247 0.76363
 C1068 C 0.72954 1.01277 0.75894
 H1069 H 0.74148 1.01636 0.73593
 H1070 H 0.74869 1.03348 0.72754
 H1071 H 0.78176 1.02441 0.73747
 H1072 H 0.77457 1.00737 0.74594
 H1073 H 0.75510 0.99396 0.72517
 H1074 H 0.76342 0.97697 0.71770
 H1075 H 0.76323 0.98325 0.75810
 H1076 H 0.74336 0.99350 0.77564
 H1077 H 0.73489 0.97644 0.78277
 H1078 H 0.72721 0.96624 0.74964
 H1079 H 0.73555 0.98340 0.74247
 H1080 H 0.75685 1.01638 0.76511
 H1081 H 0.74939 1.03350 0.77330
 H1082 H 0.71649 1.02408 0.76325
 H1083 H 0.72392 1.00704 0.75497
 H1084 H 0.77142 0.96616 0.75058
 C1085 C 0.74566 0.49954 0.25399
 C1086 C 0.75378 0.49948 0.24620
 C1087 C 0.75805 0.50991 0.24126
 C1088 C 0.75886 0.48900 0.24219
 C1089 C 0.74051 0.48915 0.25810
 C1090 C 0.74149 0.51005 0.25885
 C1091 C 0.75086 0.51749 0.23612
 C1092 C 0.75503 0.52722 0.23143
 C1093 C 0.76641 0.52941 0.23175
 C1094 C 0.77362 0.52183 0.23675
 C1095 C 0.76947 0.51211 0.24145
 C1096 C 0.75932 0.48685 0.23084
 C1097 C 0.76418 0.47711 0.22692
 C1098 C 0.76871 0.46943 0.23431
 C1099 C 0.76838 0.47155 0.24564
 C1100 C 0.76353 0.48132 0.24957
 C1101 C 0.74004 0.48710 0.26947
 C1102 C 0.73513 0.47744 0.27348
 C1103 C 0.73055 0.46974 0.26618
 C1104 C 0.73088 0.47176 0.25482
 C1105 C 0.73578 0.48145 0.25080
 C1106 C 0.74875 0.51755 0.26395
 C1107 C 0.74468 0.52734 0.26860
 C1108 C 0.73332 0.52968 0.26827
 C1109 C 0.72604 0.52218 0.26329
 C1110 C 0.73010 0.51240 0.25864
 H1111 H 0.74206 0.51583 0.23571
 H1112 H 0.74939 0.53300 0.22752
 H1113 H 0.78244 0.52343 0.23702
 H1114 H 0.77514 0.50634 0.24531
 H1115 H 0.75583 0.49270 0.22501
 H1116 H 0.76442 0.47557 0.21814
 H1117 H 0.76346 0.48292 0.25834
 H1118 H 0.74357 0.49296 0.27524
 H1119 H 0.73489 0.47597 0.28228
 H1120 H 0.72730 0.46589 0.24910
 H1121 H 0.73585 0.48297 0.24201
 H1122 H 0.75754 0.51578 0.26439
 H1123 H 0.75037 0.53306 0.27250
 H1124 H 0.71723 0.52389 0.26302
 H1125 H 0.72436 0.50668 0.25480
 H1126 H 0.77191 0.46569 0.25142
 C1127 C 0.24561 -0.00015 0.74622
 C1128 C 0.25360 -0.00020 0.75413
 C1129 C 0.25852 -0.01069 0.75830
 C1130 C 0.25784 0.01023 0.75908
 C1131 C 0.24147 0.01033 0.74126
 C1132 C 0.24053 -0.01057 0.74210
 C1133 C 0.25857 -0.01285 0.76966
 C1134 C 0.26321 -0.02264 0.77372
 C1135 C 0.26793 -0.03034 0.76648
 C1136 C 0.26803 -0.02819 0.75515
 C1137 C 0.26339 -0.01838 0.75107
 C1138 C 0.25059 0.01792 0.76398
 C1139 C 0.25474 0.02763 0.76871
 C1140 C 0.26615 0.02969 0.76867
 C1141 C 0.27340 0.02201 0.76391
 C1142 C 0.26928 0.01231 0.75918
 C1143 C 0.24878 0.01794 0.73635
 C1144 C 0.24472 0.02772 0.73164
 C1145 C 0.23333 0.02993 0.73170
 C1146 C 0.22601 0.02232 0.73646
 C1147 C 0.23005 0.01256 0.74118
 C1148 C 0.24040 -0.01276 0.73075
 C1149 C 0.23553 -0.02244 0.72674
 C1150 C 0.23068 -0.03001 0.73403
 C1151 C 0.23068 -0.02784 0.74535
 C1152 C 0.23554 -0.01814 0.74938
 H1153 H 0.25492 -0.00700 0.77537
 H1154 H 0.26312 -0.02421 0.78251
 H1155 H 0.27172 -0.03406 0.74948
 H1156 H 0.26363 -0.01676 0.74230
 H1157 H 0.24176 0.01636 0.76419
 H1158 H 0.24906 0.03350 0.77243
 H1159 H 0.27500 0.00645 0.75551
 H1160 H 0.25759 0.01628 0.73614
 H1161 H 0.25045 0.03353 0.72792
 H1162 H 0.21718 0.02393 0.73652
 H1163 H 0.22428 0.00677 0.74485
 H1164 H 0.24413 -0.00699 0.72501
 H1165 H 0.23554 -0.02402 0.71796
 H1166 H 0.22689 -0.03361 0.75106
 H1167 H 0.23536 -0.01649 0.75814
 H1168 H 0.28225 0.02350 0.76387
 C1169 C 0.25404 0.24658 1.00083
 C1170 C 0.24606 0.25459 1.00089
 C1171 C 0.24111 0.25871 1.01132
 C1172 C 0.24179 0.25966 0.99056
 C1173 C 0.25831 0.24166 0.99042
 C1174 C 0.25898 0.24233 1.01121
 C1175 C 0.23586 0.25143 1.01871
 C1176 C 0.23099 0.25550 1.02836
 C1177 C 0.23125 0.26687 1.03067
 C1178 C 0.23637 0.27415 1.02328
 C1179 C 0.24125 0.27011 1.01366
 C1180 C 0.23033 0.25996 0.98862
 C1181 C 0.22614 0.26473 0.97899
 C1182 C 0.23337 0.26934 0.97122
 C1183 C 0.24480 0.26924 0.97317
 C1184 C 0.24900 0.26448 0.98281
 C1185 C 0.26978 0.24136 0.98848
 C1186 C 0.27397 0.23672 0.97880
 C1187 C 0.26676 0.23224 0.97097
 C1188 C 0.25531 0.23236 0.97291
 C1189 C 0.25111 0.23699 0.98261
 C1190 C 0.26419 0.24953 1.01868
 C1191 C 0.26898 0.24537 1.02833
 C1192 C 0.26865 0.23398 1.03057
 C1193 C 0.26358 0.22678 1.02309
 C1194 C 0.25881 0.23091 1.01345
 H1195 H 0.23546 0.24264 1.01696
 H1196 H 0.22697 0.24979 1.03397
 H1197 H 0.23658 0.28297 1.02496
 H1198 H 0.24519 0.27586 1.00804
 H1199 H 0.22462 0.25640 0.99453
 H1200 H 0.21728 0.26479 0.97761
 H1201 H 0.25785 0.26457 0.98426
 H1202 H 0.27549 0.24483 0.99443
 H1203 H 0.28284 0.23664 0.97742
 H1204 H 0.24965 0.22887 0.96693
 H1205 H 0.24225 0.23689 0.98405
 H1206 H 0.26462 0.25833 1.01699
 H1207 H 0.27296 0.25102 1.03402
 H1208 H 0.26332 0.21795 1.02471
 H1209 H 0.25489 0.22522 1.00776
 H1210 H 0.25047 0.27284 0.96724
 C1211 C 0.25438 0.74648 0.50027
 C1212 C 0.24636 0.75445 0.50024
 C1213 C 0.24222 0.75952 0.51061
 C1214 C 0.24133 0.75854 0.48984
 C1215 C 0.25936 0.74225 0.48990
 C1216 C 0.25862 0.74157 0.51068
 C1217 C 0.23080 0.75963 0.51281
 C1218 C 0.22676 0.76446 0.52246
 C1219 C 0.23408 0.76931 0.52998
 C1220 C 0.24547 0.76934 0.52779
 C1221 C 0.24952 0.76451 0.51812
 C1222 C 0.23643 0.75118 0.48231
 C1223 C 0.23167 0.75518 0.47259
 C1224 C 0.23167 0.76657 0.47036
 C1225 C 0.23641 0.77394 0.47789
 C1226 C 0.24118 0.76995 0.48759
 C1227 C 0.26424 0.74951 0.48225
 C1228 C 0.26899 0.74538 0.47258
 C1229 C 0.26901 0.73396 0.47052
 C1230 C 0.26428 0.72669 0.47818
 C1231 C 0.25952 0.73080 0.48783
 C1232 C 0.27006 0.74150 0.51277
 C1233 C 0.27418 0.73681 0.52246
 C1234 C 0.26693 0.73206 0.53012
 C1235 C 0.25552 0.73199 0.52804
 C1236 C 0.25138 0.73668 0.51834
 H1237 H 0.22503 0.75589 0.50709
 H1238 H 0.21793 0.76443 0.52406
 H1239 H 0.25120 0.77313 0.53352
 H1240 H 0.25834 0.76471 0.51646
 H1241 H 0.23626 0.74236 0.48399
 H1242 H 0.22797 0.74940 0.46684
 H1243 H 0.24484 0.77576 0.49332
 H1244 H 0.26440 0.75835 0.48380
 H1245 H 0.27269 0.75107 0.46674
 H1246 H 0.26429 0.71783 0.47668
 H1247 H 0.25587 0.72507 0.49366
 H1248 H 0.27577 0.74515 0.50694
 H1249 H 0.28303 0.73687 0.52397
 H1250 H 0.24985 0.72829 0.53389
 H1251 H 0.24255 0.73645 0.51678
 H1252 H 0.23642 0.78277 0.47626
 C1253 C 0.24665 0.74760 -0.00049
 C1254 C 0.25541 0.75461 -0.00052
 C1255 C 0.26002 0.75894 -0.01094
 C1256 C 0.26003 0.75905 0.00985
 C1257 C 0.24204 0.74317 0.00990
 C1258 C 0.24204 0.74325 -0.01088
 C1259 C 0.27009 0.75488 -0.01508
 C1260 C 0.27445 0.75912 -0.02488
 C1261 C 0.26876 0.76743 -0.03063
 C1262 C 0.25865 0.77143 -0.02658
 C1263 C 0.25430 0.76721 -0.01677
 C1264 C 0.27057 0.75575 0.01346
 C1265 C 0.27491 0.76000 0.02326
 C1266 C 0.26875 0.76757 0.02950
 C1267 C 0.25821 0.77086 0.02594
 C1268 C 0.25386 0.76661 0.01615
 C1269 C 0.23134 0.74617 0.01333
 C1270 C 0.22695 0.74184 0.02307
 C1271 C 0.23319 0.73445 0.02945
 C1272 C 0.24389 0.73147 0.02608
 C1273 C 0.24829 0.73581 0.01635
 C1274 C 0.23212 0.74752 -0.01516
 C1275 C 0.22771 0.74321 -0.02490
 C1276 C 0.23320 0.73462 -0.03043
 C1277 C 0.24316 0.73042 -0.02624
 C1278 C 0.24756 0.73471 -0.01650
 H1279 H 0.27453 0.74839 -0.01077
 H1280 H 0.28226 0.75595 -0.02796
 H1281 H 0.25417 0.77784 -0.03097
 H1282 H 0.24650 0.77040 -0.01368
 H1283 H 0.27538 0.74982 0.00879
 H1284 H 0.28305 0.75738 0.02596
 H1285 H 0.24572 0.76923 0.01346
 H1286 H 0.22643 0.75192 0.00853
 H1287 H 0.21867 0.74422 0.02561
 H1288 H 0.24879 0.72575 0.03094
 H1289 H 0.25655 0.73338 0.01378
 H1290 H 0.22784 0.75421 -0.01101
 H1291 H 0.22001 0.74653 -0.02808
 H1292 H 0.24748 0.72379 -0.03046
 H1293 H 0.25525 0.73137 -0.01329
 H1294 H 0.25338 0.77672 0.03071
 C1295 C 0.24648 0.24678 0.49953
 C1296 C 0.25450 0.25466 0.49954
 C1297 C 0.25875 0.25929 0.48908
 C1298 C 0.25941 0.25907 0.50984
 C1299 C 0.24159 0.24229 0.50981
 C1300 C 0.24217 0.24225 0.48906
 C1301 C 0.26936 0.25636 0.48538
 C1302 C 0.27347 0.26075 0.47554
 C1303 C 0.26704 0.26818 0.46940
 C1304 C 0.25645 0.27115 0.47309
 C1305 C 0.25230 0.26669 0.48289
 C1306 C 0.26420 0.25197 0.51769
 C1307 C 0.26870 0.25629 0.52739
 C1308 C 0.26854 0.26774 0.52929
 C1309 C 0.26393 0.27486 0.52142
 C1310 C 0.25943 0.27055 0.51173
 C1311 C 0.23683 0.24933 0.51773
 C1312 C 0.23230 0.24494 0.52739
 C1313 C 0.23239 0.23346 0.52917
 C1314 C 0.23695 0.22641 0.52123
 C1315 C 0.24150 0.23079 0.51159
 C1316 C 0.23152 0.24517 0.48548
 C1317 C 0.22731 0.24076 0.47571
 C1318 C 0.23366 0.23331 0.46951
 C1319 C 0.24431 0.23038 0.47306
 C1320 C 0.24857 0.23486 0.48279
 H1321 H 0.27441 0.25062 0.49006
 H1322 H 0.28165 0.25837 0.47275
 H1323 H 0.25142 0.27693 0.46844
 H1324 H 0.24412 0.26907 0.48570
 H1325 H 0.26446 0.24311 0.51630
 H1326 H 0.27231 0.25071 0.53340
 H1327 H 0.25582 0.27618 0.50577
 H1328 H 0.23661 0.25821 0.51642
 H1329 H 0.22873 0.25047 0.53345
 H1330 H 0.23703 0.21752 0.52250
 H1331 H 0.24507 0.22520 0.50557
 H1332 H 0.22651 0.25089 0.49022
 H1333 H 0.21907 0.24311 0.47303
 H1334 H 0.24928 0.22458 0.46836
 H1335 H 0.25677 0.23247 0.48551
 H1336 H 0.26379 0.28373 0.52278
 C1337 C 0.75437 0.74634 1.00004
 C1338 C 0.74630 0.75425 1.00003
 C1339 C 0.74205 0.75922 1.01041
 C1340 C 0.74129 0.75838 0.98964
 C1341 C 0.75940 0.74220 0.98966
 C1342 C 0.75861 0.74139 1.01043
 C1343 C 0.73061 0.75924 1.01253
 C1344 C 0.72648 0.76392 1.02222
 C1345 C 0.73372 0.76870 1.02985
 C1346 C 0.74512 0.76884 1.02773
 C1347 C 0.74927 0.76417 1.01803
 C1348 C 0.73637 0.75104 0.98210
 C1349 C 0.73158 0.75508 0.97240
 C1350 C 0.73159 0.76648 0.97020
 C1351 C 0.73637 0.77382 0.97774
 C1352 C 0.74115 0.76980 0.98742
 C1353 C 0.76434 0.74952 0.98211
 C1354 C 0.76916 0.74547 0.97243
 C1355 C 0.76915 0.73407 0.97026
 C1356 C 0.76433 0.72674 0.97780
 C1357 C 0.75951 0.73078 0.98747
 C1358 C 0.77004 0.74134 1.01254
 C1359 C 0.77418 0.73665 1.02222
 C1360 C 0.76693 0.73188 1.02987
 C1361 C 0.75552 0.73178 1.02778
 C1362 C 0.75138 0.73647 1.01808
 H1363 H 0.72491 0.75553 1.00673
 H1364 H 0.71764 0.76380 1.02376
 H1365 H 0.75079 0.77257 1.03356
 H1366 H 0.75810 0.76444 1.01645
 H1367 H 0.73619 0.74222 0.98376
 H1368 H 0.72785 0.74933 0.96665
 H1369 H 0.74484 0.77559 0.99316
 H1370 H 0.76452 0.75834 0.98375
 H1371 H 0.77292 0.75121 0.96668
 H1372 H 0.76430 0.71790 0.97622
 H1373 H 0.75580 0.72500 0.99321
 H1374 H 0.77576 0.74503 1.00671
 H1375 H 0.78302 0.73674 1.02374
 H1376 H 0.74985 0.72807 1.03363
 H1377 H 0.74255 0.73622 1.01652
 H1378 H 0.73639 0.78265 0.97613
 C1379 C 0.75389 0.24629 0.50052
 C1380 C 0.74601 0.25439 0.50053
 C1381 C 0.74107 0.25861 0.51093
 C1382 C 0.74188 0.25944 0.49015
 C1383 C 0.75803 0.24125 0.49014
 C1384 C 0.75883 0.24205 0.51090
 C1385 C 0.73601 0.25137 0.51848
 C1386 C 0.73133 0.25549 0.52820
 C1387 C 0.73158 0.26688 0.53040
 C1388 C 0.73650 0.27413 0.52285
 C1389 C 0.74118 0.27003 0.51315
 C1390 C 0.73045 0.25971 0.48802
 C1391 C 0.72643 0.26442 0.47831
 C1392 C 0.73378 0.26900 0.47064
 C1393 C 0.74519 0.26890 0.47275
 C1394 C 0.74922 0.26419 0.48249
 C1395 C 0.76947 0.24096 0.48802
 C1396 C 0.77350 0.23620 0.47833
 C1397 C 0.76615 0.23161 0.47068
 C1398 C 0.75475 0.23174 0.47279
 C1399 C 0.75070 0.23649 0.48250
 C1400 C 0.76394 0.24926 0.51842
 C1401 C 0.76869 0.24510 0.52809
 C1402 C 0.76844 0.23370 0.53027
 C1403 C 0.76346 0.22648 0.52274
 C1404 C 0.75872 0.23062 0.51309
 H1405 H 0.73564 0.24256 0.51683
 H1406 H 0.72748 0.24981 0.53396
 H1407 H 0.73671 0.28296 0.52446
 H1408 H 0.74498 0.27574 0.50740
 H1409 H 0.72465 0.25615 0.49385
 H1410 H 0.71759 0.26448 0.47676
 H1411 H 0.75805 0.26427 0.48407
 H1412 H 0.77526 0.24452 0.49384
 H1413 H 0.78234 0.23612 0.47679
 H1414 H 0.74899 0.22817 0.46695
 H1415 H 0.74187 0.23643 0.48408
 H1416 H 0.76431 0.25807 0.51677
 H1417 H 0.77258 0.25075 0.53382
 H1418 H 0.76326 0.21764 0.52433
 H1419 H 0.75488 0.22493 0.50736
 H1420 H 0.75094 0.27246 0.46690
 C1421 C 0.74655 0.24683 -0.00051
 C1422 C 0.75451 0.25481 -0.00053
 C1423 C 0.75941 0.25923 -0.01086
 C1424 C 0.75865 0.25966 0.00990
 C1425 C 0.74229 0.24211 0.00995
 C1426 C 0.74171 0.24230 -0.01080
 C1427 C 0.76412 0.25216 -0.01878
 C1428 C 0.76857 0.25652 -0.02850
 C1429 C 0.76849 0.26798 -0.03032
 C1430 C 0.76401 0.27507 -0.02236
 C1431 C 0.75953 0.27073 -0.01267
 C1432 C 0.76989 0.25867 0.01265
 C1433 C 0.77389 0.26321 0.02244
 C1434 C 0.76670 0.26889 0.02952
 C1435 C 0.75549 0.26999 0.02678
 C1436 C 0.75147 0.26541 0.01701
 C1437 C 0.73100 0.24306 0.01252
 C1438 C 0.72686 0.23855 0.02228
 C1439 C 0.73396 0.23296 0.02951
 C1440 C 0.74522 0.23191 0.02695
 C1441 C 0.74937 0.23644 0.01720
 C1442 C 0.73708 0.24930 -0.01884
 C1443 C 0.73259 0.24483 -0.02848
 C1444 C 0.73258 0.23334 -0.03010
 C1445 C 0.73697 0.22633 -0.02203
 C1446 C 0.74149 0.23077 -0.01243
 H1447 H 0.76433 0.24328 -0.01744
 H1448 H 0.77208 0.25096 -0.03458
 H1449 H 0.76395 0.28396 -0.02366
 H1450 H 0.75602 0.27634 -0.00664
 H1451 H 0.77554 0.25428 0.00726
 H1452 H 0.78258 0.26230 0.02447
 H1453 H 0.74280 0.26639 0.01494
 H1454 H 0.72541 0.24735 0.00700
 H1455 H 0.71814 0.23940 0.02415
 H1456 H 0.75078 0.22754 0.03245
 H1457 H 0.75807 0.23546 0.01527
 H1458 H 0.73693 0.25819 -0.01765
 H1459 H 0.72914 0.25032 -0.03465
 H1460 H 0.73693 0.21742 -0.02317
 H1461 H 0.74493 0.22522 -0.00630
 H1462 H 0.74986 0.27441 0.03217
 C1463 C 0.74694 0.74686 0.49963
 C1464 C 0.75493 0.75484 0.49966
 C1465 C 0.75916 0.75990 0.48931
 C1466 C 0.75990 0.75895 0.51008
 C1467 C 0.74201 0.74261 0.51002
 C1468 C 0.74261 0.74200 0.48924
 C1469 C 0.77062 0.76019 0.48734
 C1470 C 0.77477 0.76499 0.47772
 C1471 C 0.76753 0.76962 0.46998
 C1472 C 0.75609 0.76950 0.47195
 C1473 C 0.75192 0.76472 0.48160
 C1474 C 0.76496 0.75164 0.51757
 C1475 C 0.76974 0.75568 0.52726
 C1476 C 0.76958 0.76706 0.52950
 C1477 C 0.76466 0.77439 0.52202
 C1478 C 0.75987 0.77036 0.51235
 C1479 C 0.73696 0.74982 0.51760
 C1480 C 0.73221 0.74566 0.52726
 C1481 C 0.73238 0.73424 0.52937
 C1482 C 0.73728 0.72702 0.52178
 C1483 C 0.74204 0.73117 0.51214
 C1484 C 0.73113 0.74173 0.48740
 C1485 C 0.72689 0.73711 0.47774
 C1486 C 0.73406 0.73266 0.46983
 C1487 C 0.74552 0.73277 0.47166
 C1488 C 0.74978 0.73736 0.48135
 H1489 H 0.77634 0.75662 0.49323
 H1490 H 0.78363 0.76506 0.47630
 H1491 H 0.75041 0.77310 0.46604
 H1492 H 0.74307 0.76483 0.48307
 H1493 H 0.76527 0.74283 0.51587
 H1494 H 0.77359 0.74994 0.53296
 H1495 H 0.75608 0.77614 0.50665
 H1496 H 0.73666 0.75865 0.51601
 H1497 H 0.72837 0.75132 0.53305
 H1498 H 0.73742 0.71817 0.52331
 H1499 H 0.74584 0.72547 0.50637
 H1500 H 0.72546 0.74516 0.49342
 H1501 H 0.71801 0.73703 0.47645
 H1502 H 0.75115 0.72930 0.46562
 H1503 H 0.75864 0.73724 0.48271
 H1504 H 0.76453 0.78321 0.52365
 C1505 C 0.99987 0.25354 0.24640
 C1506 C 0.99988 0.24555 0.25434
 C1507 C 1.01035 0.24062 0.25854
 C1508 C 0.98944 0.24133 0.25927
 C1509 C 0.98943 0.25769 0.24140
 C1510 C 1.01031 0.25857 0.24229
 C1511 C 1.01806 0.23573 0.25133
 C1512 C 1.02787 0.23114 0.25542
 C1513 C 1.03002 0.23130 0.26675
 C1514 C 1.02231 0.23603 0.27397
 C1515 C 1.01251 0.24063 0.26990
 C1516 C 0.98734 0.22989 0.25938
 C1517 C 0.97760 0.22579 0.26407
 C1518 C 0.96990 0.23306 0.26877
 C1519 C 0.97198 0.24448 0.26879
 C1520 C 0.98174 0.24860 0.26412
 C1521 C 0.98723 0.26912 0.24125
 C1522 C 0.97753 0.27317 0.23644
 C1523 C 0.96996 0.26585 0.23165
 C1524 C 0.97214 0.25444 0.23166
 C1525 C 0.98186 0.25038 0.23647
 C1526 C 1.01788 0.26355 0.24956
 C1527 C 1.02764 0.26828 0.24554
 C1528 C 1.02988 0.26818 0.23422
 C1529 C 1.02230 0.26338 0.22694
 C1530 C 1.01255 0.25863 0.23094
 H1531 H 1.01645 0.23546 0.24256
 H1532 H 1.03376 0.22745 0.24976
 H1533 H 1.02388 0.23617 0.28275
 H1534 H 1.00665 0.24430 0.27559
 H1535 H 0.99321 0.22415 0.25575
 H1536 H 0.97608 0.21694 0.26403
 H1537 H 0.98331 0.25743 0.26431
 H1538 H 0.99300 0.27489 0.24494
 H1539 H 0.97595 0.28201 0.23644
 H1540 H 0.96637 0.24871 0.22790
 H1541 H 0.98351 0.24155 0.23629
 H1542 H 1.01619 0.26378 0.25832
 H1543 H 1.03343 0.27203 0.25124
 H1544 H 1.02394 0.26329 0.21816
 H1545 H 1.00679 0.25491 0.22521
 H1546 H 0.96610 0.25018 0.27246
 C1547 C 0.49938 0.25318 0.74659
 C1548 C 0.49939 0.24513 0.75446
 C1549 C 0.50985 0.24095 0.75942
 C1550 C 0.48896 0.24007 0.75856
 C1551 C 0.48893 0.25810 0.74235
 C1552 C 0.50984 0.25751 0.74177
 C1553 C 0.51211 0.22953 0.75935
 C1554 C 0.52187 0.22545 0.76403
 C1555 C 0.52944 0.23273 0.76889
 C1556 C 0.52718 0.24412 0.76911
 C1557 C 0.51740 0.24821 0.76445
 C1558 C 0.48137 0.23514 0.75128
 C1559 C 0.47164 0.23033 0.75531
 C1560 C 0.46946 0.23032 0.76664
 C1561 C 0.47705 0.23510 0.77392
 C1562 C 0.48676 0.23991 0.76991
 C1563 C 0.48117 0.26294 0.74953
 C1564 C 0.47143 0.26766 0.74537
 C1565 C 0.46943 0.26766 0.73401
 C1566 C 0.47719 0.26295 0.72683
 C1567 C 0.48690 0.25823 0.73097
 C1568 C 0.51189 0.26897 0.74185
 C1569 C 0.52163 0.27319 0.73728
 C1570 C 0.52938 0.26602 0.73249
 C1571 C 0.52734 0.25460 0.73227
 C1572 C 0.51759 0.25036 0.73684
 H1573 H 0.50635 0.22379 0.75559
 H1574 H 0.52352 0.21662 0.76384
 H1575 H 0.53296 0.24982 0.77291
 H1576 H 0.51571 0.25702 0.76478
 H1577 H 0.48302 0.23498 0.74252
 H1578 H 0.46585 0.22659 0.74960
 H1579 H 0.49254 0.24361 0.77566
 H1580 H 0.48268 0.26313 0.75831
 H1581 H 0.46551 0.27134 0.75099
 H1582 H 0.47573 0.26295 0.71803
 H1583 H 0.49281 0.25461 0.72530
 H1584 H 0.50598 0.27462 0.74555
 H1585 H 0.52310 0.28204 0.73746
 H1586 H 0.53326 0.24899 0.72852
 H1587 H 0.51606 0.24152 0.73650
 H1588 H 0.47546 0.23510 0.78270
 C1589 C 0.00024 0.24532 0.74601
 C1590 C 0.00018 0.25333 0.75386
 C1591 C -0.01037 0.25790 0.75807
 C1592 C 0.01049 0.25791 0.75868
 C1593 C 0.01063 0.24090 0.74116
 C1594 C -0.01025 0.24063 0.74181
 C1595 C -0.01656 0.26538 0.75169
 C1596 C -0.02637 0.26991 0.75585
 C1597 C -0.03008 0.26694 0.76638
 C1598 C -0.02397 0.25941 0.77271
 C1599 C -0.01412 0.25495 0.76860
 C1600 C 0.01224 0.26942 0.75864
 C1601 C 0.02188 0.27387 0.76318
 C1602 C 0.02985 0.26689 0.76787
 C1603 C 0.02813 0.25541 0.76803
 C1604 C 0.01847 0.25094 0.76351
 C1605 C 0.01260 0.22943 0.74120
 C1606 C 0.02235 0.22513 0.73671
 C1607 C 0.03022 0.23224 0.73206
 C1608 C 0.02826 0.24368 0.73185
 C1609 C 0.01849 0.24800 0.73633
 C1610 C -0.01644 0.23322 0.74825
 C1611 C -0.02624 0.22867 0.74413
 C1612 C -0.02995 0.23156 0.73358
 C1613 C -0.02383 0.23902 0.72718
 C1614 C -0.01398 0.24350 0.73126
 H1615 H -0.01370 0.26779 0.74358
 H1616 H -0.03099 0.27578 0.75091
 H1617 H -0.02677 0.25704 0.78085
 H1618 H -0.00943 0.24917 0.77359
 H1619 H 0.00619 0.27494 0.75500
 H1620 H 0.02312 0.28277 0.76303
 H1621 H 0.01720 0.24206 0.76380
 H1622 H 0.00664 0.22380 0.74483
 H1623 H 0.02376 0.21626 0.73688
 H1624 H 0.03427 0.24926 0.72821
 H1625 H 0.01704 0.25685 0.73602
 H1626 H -0.01360 0.23088 0.75638
 H1627 H -0.03088 0.22286 0.74913
 H1628 H -0.02663 0.24134 0.71902
 H1629 H -0.00930 0.24923 0.72622
 H1630 H 0.03422 0.24993 0.77167
 C1631 C 0.50032 0.24531 0.24591
 C1632 C 0.50031 0.25328 0.25386
 C1633 C 0.48986 0.25827 0.25804
 C1634 C 0.51076 0.25740 0.25884
 C1635 C 0.51077 0.24108 0.24097
 C1636 C 0.48987 0.24038 0.24172
 C1637 C 0.48221 0.26324 0.25084
 C1638 C 0.47247 0.26799 0.25495
 C1639 C 0.47034 0.26790 0.26629
 C1640 C 0.47798 0.26306 0.27350
 C1641 C 0.48771 0.25831 0.26941
 C1642 C 0.51296 0.26883 0.25896
 C1643 C 0.52267 0.27285 0.26375
 C1644 C 0.53025 0.26551 0.26854
 C1645 C 0.52808 0.25411 0.26854
 C1646 C 0.51835 0.25007 0.26376
 C1647 C 0.51287 0.22963 0.24085
 C1648 C 0.52261 0.22550 0.23617
 C1649 C 0.53032 0.23277 0.23148
 C1650 C 0.52823 0.24419 0.23144
 C1651 C 0.51847 0.24833 0.23612
 C1652 C 0.48219 0.23544 0.24892
 C1653 C 0.47244 0.23077 0.24481
 C1654 C 0.47032 0.23090 0.23347
 C1655 C 0.47801 0.23567 0.22626
 C1656 C 0.48774 0.24035 0.23035
 H1657 H 0.48381 0.26348 0.24207
 H1658 H 0.46663 0.27177 0.24930
 H1659 H 0.47643 0.26298 0.28229
 H1660 H 0.49353 0.25457 0.27510
 H1661 H 0.50718 0.27461 0.25527
 H1662 H 0.52426 0.28169 0.26373
 H1663 H 0.51670 0.24125 0.26395
 H1664 H 0.50701 0.22390 0.24447
 H1665 H 0.52413 0.21665 0.23620
 H1666 H 0.53411 0.24988 0.22778
 H1667 H 0.51690 0.25717 0.23592
 H1668 H 0.48378 0.23518 0.25769
 H1669 H 0.46657 0.22704 0.25046
 H1670 H 0.47648 0.23577 0.21747
 H1671 H 0.49359 0.24404 0.22467
 H1672 H 0.53386 0.24836 0.27229
 C1673 C 0.99980 0.75370 0.74631
 C1674 C 0.99978 0.74553 0.75407
 C1675 C 1.01023 0.74126 0.75897
 C1676 C 0.98933 0.74043 0.75807
 C1677 C 0.98936 0.75880 0.74225
 C1678 C 1.01025 0.75793 0.74140
 C1679 C 1.01241 0.72982 0.75886
 C1680 C 1.02215 0.72566 0.76351
 C1681 C 1.02978 0.73288 0.76838
 C1682 C 1.02760 0.74428 0.76864
 C1683 C 1.01785 0.74845 0.76400
 C1684 C 0.98172 0.73569 0.75069
 C1685 C 0.97197 0.73083 0.75461
 C1686 C 0.96978 0.73057 0.76594
 C1687 C 0.97739 0.73516 0.77333
 C1688 C 0.98712 0.74003 0.76942
 C1689 C 0.98169 0.76354 0.74959
 C1690 C 0.97195 0.76840 0.74562
 C1691 C 0.96985 0.76866 0.73428
 C1692 C 0.97753 0.76408 0.72693
 C1693 C 0.98725 0.75921 0.73089
 C1694 C 1.01243 0.76936 0.74148
 C1695 C 1.02212 0.77350 0.73672
 C1696 C 1.02970 0.76626 0.73177
 C1697 C 1.02755 0.75486 0.73158
 C1698 C 1.01784 0.75071 0.73633
 H1699 H 1.00661 0.72414 0.75509
 H1700 H 1.02374 0.71682 0.76330
 H1701 H 1.03342 0.74993 0.77245
 H1702 H 1.01621 0.75727 0.76436
 H1703 H 0.98337 0.73572 0.74193
 H1704 H 0.96617 0.72724 0.74882
 H1705 H 0.99291 0.74358 0.77525
 H1706 H 0.98327 0.76352 0.75837
 H1707 H 0.96609 0.77198 0.75137
 H1708 H 0.97600 0.76427 0.71815
 H1709 H 0.99309 0.75568 0.72510
 H1710 H 1.00664 0.77507 0.74528
 H1711 H 1.02369 0.78234 0.73689
 H1712 H 1.03333 0.74920 0.72770
 H1713 H 1.01621 0.74190 0.73598
 H1714 H 0.97579 0.73498 0.78210
 C1715 C 0.50046 0.75367 0.24610
 C1716 C 0.50045 0.74566 0.25404
 C1717 C 0.51089 0.74066 0.25828
 C1718 C 0.48999 0.74140 0.25896
 C1719 C 0.49001 0.75800 0.24123
 C1720 C 0.51092 0.75852 0.24173
 C1721 C 0.51886 0.73615 0.25110
 C1722 C 0.52867 0.73163 0.25527
 C1723 C 0.53052 0.73137 0.26665
 C1724 C 0.52250 0.73560 0.27384
 C1725 C 0.51274 0.74019 0.26969
 C1726 C 0.48804 0.72993 0.25921
 C1727 C 0.47832 0.72575 0.26386
 C1728 C 0.47046 0.73297 0.26836
 C1729 C 0.47240 0.74442 0.26830
 C1730 C 0.48216 0.74862 0.26368
 C1731 C 0.48814 0.76949 0.24092
 C1732 C 0.47846 0.77374 0.23624
 C1733 C 0.47054 0.76657 0.23180
 C1734 C 0.47239 0.75511 0.23196
 C1735 C 0.48211 0.75084 0.23658
 C1736 C 0.51908 0.76281 0.24881
 C1737 C 0.52890 0.76716 0.24451
 C1738 C 0.53058 0.76749 0.23310
 C1739 C 0.52237 0.76350 0.22601
 C1740 C 0.51260 0.75905 0.23029
 H1741 H 0.51750 0.73615 0.24229
 H1742 H 0.53479 0.72834 0.24962
 H1743 H 0.52379 0.73536 0.28266
 H1744 H 0.50665 0.74347 0.27538
 H1745 H 0.49400 0.72422 0.25571
 H1746 H 0.47693 0.71688 0.26392
 H1747 H 0.48361 0.75747 0.26380
 H1748 H 0.49416 0.77516 0.24436
 H1749 H 0.47714 0.78263 0.23610
 H1750 H 0.46634 0.74948 0.22848
 H1751 H 0.48349 0.74196 0.23652
 H1752 H 0.51787 0.76276 0.25764
 H1753 H 0.53517 0.77027 0.25008
 H1754 H 0.52352 0.76379 0.21717
 H1755 H 0.50639 0.75594 0.22467
 H1756 H 0.46640 0.75008 0.27183
 C1757 C -0.00013 0.74563 0.24571
 C1758 C -0.00014 0.75363 0.25363
 C1759 C -0.01060 0.75859 0.25781
 C1760 C 0.01029 0.75788 0.25854
 C1761 C 0.01034 0.74139 0.24082
 C1762 C -0.01057 0.74069 0.24150
 C1763 C -0.01825 0.76356 0.25061
 C1764 C -0.02800 0.76828 0.25471
 C1765 C -0.03014 0.76816 0.26605
 C1766 C -0.02248 0.76334 0.27327
 C1767 C -0.01275 0.75862 0.26918
 C1768 C 0.01239 0.76933 0.25853
 C1769 C 0.02210 0.77348 0.26321
 C1770 C 0.02978 0.76625 0.26801
 C1771 C 0.02770 0.75484 0.26816
 C1772 C 0.01797 0.75067 0.26348
 C1773 C 0.01250 0.72996 0.24084
 C1774 C 0.02225 0.72582 0.23620
 C1775 C 0.02992 0.73307 0.23142
 C1776 C 0.02778 0.74448 0.23126
 C1777 C 0.01801 0.74863 0.23590
 C1778 C -0.01826 0.73576 0.24869
 C1779 C -0.02801 0.73110 0.24457
 C1780 C -0.03012 0.73124 0.23323
 C1781 C -0.02243 0.73601 0.22603
 C1782 C -0.01268 0.74067 0.23013
 H1783 H -0.01664 0.76382 0.24184
 H1784 H -0.03385 0.77205 0.24907
 H1785 H -0.02404 0.76324 0.28205
 H1786 H -0.00692 0.75490 0.27486
 H1787 H 0.00654 0.77503 0.25483
 H1788 H 0.02361 0.78233 0.26309
 H1789 H 0.01641 0.74183 0.26377
 H1790 H 0.00666 0.72424 0.24453
 H1791 H 0.02381 0.71698 0.23633
 H1792 H 0.03363 0.75016 0.22753
 H1793 H 0.01639 0.75746 0.23561
 H1794 H -0.01668 0.73549 0.25746
 H1795 H -0.03389 0.72737 0.25021
 H1796 H -0.02396 0.73613 0.21724
 H1797 H -0.00683 0.74436 0.22446
 H1798 H 0.03356 0.74918 0.27192
 C1799 C 0.49993 0.74531 0.74569
 C1800 C 0.49990 0.75344 0.75348
 C1801 C 0.48944 0.75845 0.75760
 C1802 C 0.51035 0.75778 0.75830
 C1803 C 0.51039 0.74108 0.74079
 C1804 C 0.48949 0.74023 0.74163
 C1805 C 0.48174 0.76323 0.75032
 C1806 C 0.47199 0.76801 0.75436
 C1807 C 0.46989 0.76814 0.76570
 C1808 C 0.47759 0.76350 0.77299
 C1809 C 0.48732 0.75871 0.76896
 C1810 C 0.51244 0.76923 0.75812
 C1811 C 0.52215 0.77346 0.76272
 C1812 C 0.52985 0.76631 0.76762
 C1813 C 0.52778 0.75489 0.76792
 C1814 C 0.51805 0.75064 0.76332
 C1815 C 0.51263 0.72965 0.74094
 C1816 C 0.52240 0.72554 0.73631
 C1817 C 0.53000 0.73279 0.73142
 C1818 C 0.52777 0.74418 0.73113
 C1819 C 0.51798 0.74831 0.73574
 C1820 C 0.48186 0.73542 0.74895
 C1821 C 0.47209 0.73066 0.74498
 C1822 C 0.46991 0.73058 0.73365
 C1823 C 0.47756 0.73522 0.72631
 C1824 C 0.48731 0.73998 0.73027
 H1825 H 0.48332 0.76331 0.74154
 H1826 H 0.46612 0.77164 0.74865
 H1827 H 0.47607 0.76358 0.78178
 H1828 H 0.49319 0.75513 0.77471
 H1829 H 0.50658 0.77487 0.75434
 H1830 H 0.52365 0.78231 0.76248
 H1831 H 0.51649 0.74182 0.76373
 H1832 H 0.50685 0.72395 0.74472
 H1833 H 0.52403 0.71671 0.73655
 H1834 H 0.53356 0.74985 0.72730
 H1835 H 0.51630 0.75712 0.73535
 H1836 H 0.48348 0.73533 0.75772
 H1837 H 0.46625 0.72704 0.75072
 H1838 H 0.47597 0.73517 0.71753
 H1839 H 0.49312 0.74358 0.72449
 H1840 H 0.53365 0.74929 0.77176
 C1841 C 0.37609 0.31363 0.31287
 C1842 C 0.38424 0.30968 0.30867
 C1843 C 0.39399 0.30503 0.30364
 C1844 C 0.39375 0.29428 0.29933
 C1845 C 0.40322 0.28976 0.29443
 C1846 C 0.41307 0.29595 0.29378
 C1847 C 0.41322 0.30676 0.29812
 C1848 C 0.40374 0.31126 0.30301
 C1849 C 0.42317 0.29112 0.28868
 C1850 C 0.43365 0.29288 0.29343
 C1851 C 0.44314 0.28826 0.28869
 C1852 C 0.44231 0.28183 0.27914
 C1853 C 0.43194 0.28005 0.27432
 C1854 C 0.42242 0.28466 0.27905
 C1855 C 0.45210 0.27695 0.27440
 C1856 C 0.46037 0.27284 0.27059
 H1857 H 0.38625 0.28937 0.29979
 H1858 H 0.40288 0.28137 0.29129
 H1859 H 0.42063 0.31178 0.29762
 H1860 H 0.40401 0.31961 0.30628
 H1861 H 0.43448 0.29768 0.30091
 H1862 H 0.45113 0.28964 0.29251
 H1863 H 0.43120 0.27510 0.26692
 H1864 H 0.41449 0.28328 0.27513
 C1865 C 0.37606 0.81424 0.81263
 C1866 C 0.38416 0.81027 0.80835
 C1867 C 0.39384 0.80556 0.80324
 C1868 C 0.39283 0.79942 0.79352
 C1869 C 0.40223 0.79486 0.78853
 C1870 C 0.41278 0.79640 0.79320
 C1871 C 0.41370 0.80260 0.80297
 C1872 C 0.40429 0.80714 0.80795
 C1873 C 0.42277 0.79152 0.78795
 C1874 C 0.43273 0.79754 0.78742
 C1875 C 0.44218 0.79288 0.78263
 C1876 C 0.44180 0.78214 0.77830
 C1877 C 0.43192 0.77610 0.77872
 C1878 C 0.42246 0.78076 0.78350
 C1879 C 0.45162 0.77723 0.77366
 C1880 C 0.45992 0.77310 0.76993
 H1881 H 0.38478 0.79818 0.78978
 H1882 H 0.40126 0.79026 0.78094
 H1883 H 0.42168 0.80380 0.80685
 H1884 H 0.40516 0.81185 0.81549
 H1885 H 0.43319 0.80590 0.79065
 H1886 H 0.44978 0.79762 0.78234
 H1887 H 0.43156 0.76776 0.77544
 H1888 H 0.41496 0.77586 0.78390
 C1889 C -0.12401 0.31317 0.81301
 C1890 C -0.11588 0.30909 0.80891
 C1891 C -0.10618 0.30425 0.80397
 C1892 C -0.10716 0.29784 0.79443
 C1893 C -0.09774 0.29319 0.78956
 C1894 C -0.08720 0.29491 0.79417
 C1895 C -0.08630 0.30136 0.80378
 C1896 C -0.09573 0.30599 0.80865
 C1897 C -0.07718 0.29001 0.78899
 C1898 C -0.06729 0.29613 0.78830
 C1899 C -0.05783 0.29147 0.78352
 C1900 C -0.05812 0.28066 0.77937
 C1901 C -0.06793 0.27452 0.77999
 C1902 C -0.07740 0.27916 0.78475
 C1903 C -0.04832 0.27582 0.77465
 C1904 C -0.04004 0.27177 0.77080
 H1905 H -0.11521 0.29646 0.79073
 H1906 H -0.09870 0.28838 0.78209
 H1907 H -0.07832 0.30271 0.80761
 H1908 H -0.09487 0.31091 0.81605
 H1909 H -0.06689 0.30454 0.79135
 H1910 H -0.05028 0.29630 0.78308
 H1911 H -0.06823 0.26612 0.77685
 H1912 H -0.08485 0.27419 0.78529
 C1913 C -0.12515 0.81307 0.31175
 C1914 C -0.11682 0.80931 0.30773
 C1915 C -0.10694 0.80478 0.30285
 C1916 C -0.10762 0.79875 0.29304
 C1917 C -0.09805 0.79429 0.28829
 C1918 C -0.08766 0.79582 0.29330
 C1919 C -0.08706 0.80194 0.30315
 C1920 C -0.09665 0.80638 0.30789
 C1921 C -0.07752 0.79099 0.28830
 C1922 C -0.06757 0.79705 0.28805
 C1923 C -0.05803 0.79248 0.28333
 C1924 C -0.05831 0.78181 0.27883
 C1925 C -0.06816 0.77572 0.27905
 C1926 C -0.07771 0.78027 0.28375
 C1927 C -0.04845 0.77704 0.27414
 C1928 C -0.04013 0.77302 0.27036
 H1929 H -0.11555 0.79749 0.28905
 H1930 H -0.09877 0.78975 0.28064
 H1931 H -0.07920 0.80314 0.30727
 H1932 H -0.09604 0.81101 0.31550
 H1933 H -0.06719 0.80536 0.29138
 H1934 H -0.05044 0.79726 0.28321
 H1935 H -0.06845 0.76742 0.27565
 H1936 H -0.08520 0.77535 0.28397
 C1937 C 0.62475 0.68611 0.31346
 C1938 C 0.61670 0.69015 0.30916
 C1939 C 0.60711 0.69498 0.30402
 C1940 C 0.60286 0.69041 0.29432
 C1941 C 0.59349 0.69506 0.28937
 C1942 C 0.58825 0.70435 0.29406
 C1943 C 0.59263 0.70892 0.30379
 C1944 C 0.60199 0.70426 0.30873
 C1945 C 0.57819 0.70918 0.28889
 C1946 C 0.57675 0.72074 0.28834
 C1947 C 0.56720 0.72526 0.28361
 C1948 C 0.55897 0.71829 0.27938
 C1949 C 0.56036 0.70679 0.27985
 C1950 C 0.56990 0.70226 0.28456
 C1951 C 0.54901 0.72291 0.27476
 C1952 C 0.54061 0.72676 0.27099
 H1953 H 0.60678 0.68325 0.29059
 H1954 H 0.59041 0.69145 0.28181
 H1955 H 0.58870 0.71599 0.30767
 H1956 H 0.60520 0.70784 0.31626
 H1957 H 0.58304 0.72628 0.29148
 H1958 H 0.56621 0.73419 0.28328
 H1959 H 0.55402 0.70132 0.27665
 H1960 H 0.57070 0.69333 0.28501
 C1961 C 0.62446 0.18735 0.81407
 C1962 C 0.61629 0.19146 0.81008
 C1963 C 0.60653 0.19637 0.80534
 C1964 C 0.60117 0.20513 0.81072
 C1965 C 0.59164 0.20986 0.80616
 C1966 C 0.58733 0.20587 0.79616
 C1967 C 0.59280 0.19709 0.79080
 C1968 C 0.60234 0.19238 0.79536
 C1969 C 0.57712 0.21078 0.79137
 C1970 C 0.56904 0.20396 0.78652
 C1971 C 0.55943 0.20855 0.78202
 C1972 C 0.55774 0.22003 0.78230
 C1973 C 0.56572 0.22690 0.78711
 C1974 C 0.57534 0.22231 0.79163
 C1975 C 0.54783 0.22470 0.77763
 C1976 C 0.53947 0.22846 0.77367
 H1977 H 0.60433 0.20826 0.81846
 H1978 H 0.58753 0.21651 0.81056
 H1979 H 0.58978 0.19394 0.78301
 H1980 H 0.60644 0.18563 0.79111
 H1981 H 0.57009 0.19504 0.78634
 H1982 H 0.55329 0.20316 0.77835
 H1983 H 0.56451 0.23580 0.78734
 H1984 H 0.58146 0.22780 0.79518
 C1985 C 1.12442 0.68709 0.81404
 C1986 C 1.11629 0.69119 0.80995
 C1987 C 1.10657 0.69610 0.80512
 C1988 C 1.10057 0.69033 0.79711
 C1989 C 1.09106 0.69505 0.79249
 C1990 C 1.08743 0.70562 0.79581
 C1991 C 1.09355 0.71138 0.80384
 C1992 C 1.10305 0.70664 0.80846
 C1993 C 1.07726 0.71058 0.79098
 C1994 C 1.07687 0.72193 0.78830
 C1995 C 1.06729 0.72657 0.78375
 C1996 C 1.05797 0.71995 0.78184
 C1997 C 1.05828 0.70867 0.78449
 C1998 C 1.06785 0.70401 0.78903
 C1999 C 1.04811 0.72469 0.77713
 C2000 C 1.03978 0.72851 0.77316
 H2001 H 1.10323 0.68218 0.79445
 H2002 H 1.08662 0.69047 0.78623
 H2003 H 1.09089 0.71946 0.80667
 H2004 H 1.10761 0.71117 0.81467
 H2005 H 1.08402 0.72718 0.78957
 H2006 H 1.06715 0.73531 0.78169
 H2007 H 1.05111 0.70347 0.78307
 H2008 H 1.06783 0.69529 0.79115
 C2009 C 1.12471 0.18641 0.31310
 C2010 C 1.11659 0.19033 0.30882
 C2011 C 1.10690 0.19500 0.30371
 C2012 C 1.09808 0.18814 0.30068
 C2013 C 1.08862 0.19268 0.29579
 C2014 C 1.08786 0.20416 0.29387
 C2015 C 1.09680 0.21098 0.29691
 C2016 C 1.10625 0.20642 0.30179
 C2017 C 1.07775 0.20902 0.28882
 C2018 C 1.07339 0.21909 0.29274
 C2019 C 1.06381 0.22360 0.28807
 C2020 C 1.05847 0.21813 0.27942
 C2021 C 1.06276 0.20812 0.27543
 C2022 C 1.07234 0.20359 0.28010
 C2023 C 1.04850 0.22272 0.27477
 C2024 C 1.04011 0.22660 0.27102
 H2025 H 1.09849 0.17929 0.30215
 H2026 H 1.08183 0.18723 0.29369
 H2027 H 1.09652 0.21983 0.29542
 H2028 H 1.11305 0.21181 0.30408
 H2029 H 1.07727 0.22339 0.29954
 H2030 H 1.06052 0.23132 0.29126
 H2031 H 1.05870 0.20382 0.26874
 H2032 H 1.07557 0.19589 0.27681
 C2033 C 0.62354 0.31268 0.68691
 C2034 C 0.61540 0.30854 0.69093
 C2035 C 0.60567 0.30358 0.69568
 C2036 C 0.60648 0.29355 0.70142
 C2037 C 0.59702 0.28872 0.70601
 C2038 C 0.58661 0.29387 0.70492
 C2039 C 0.58588 0.30395 0.69912
 C2040 C 0.59535 0.30876 0.69453
 C2041 C 0.57656 0.28879 0.70984
 C2042 C 0.56856 0.29543 0.71510
 C2043 C 0.55909 0.29066 0.71970
 C2044 C 0.55747 0.27920 0.71911
 C2045 C 0.56537 0.27250 0.71392
 C2046 C 0.57487 0.27726 0.70931
 C2047 C 0.54765 0.27435 0.72380
 C2048 C 0.53936 0.27046 0.72775
 H2049 H 0.61443 0.28948 0.70238
 H2050 H 0.59786 0.28103 0.71054
 H2051 H 0.57797 0.30804 0.69801
 H2052 H 0.59462 0.31650 0.69006
 H2053 H 0.56970 0.30431 0.71576
 H2054 H 0.55303 0.29591 0.72373
 H2055 H 0.56418 0.26362 0.71339
 H2056 H 0.58080 0.27194 0.70520
 C2057 C 0.62472 0.81265 0.18617
 C2058 C 0.61670 0.80846 0.19035
 C2059 C 0.60712 0.80349 0.19538
 C2060 C 0.60534 0.80463 0.20671
 C2061 C 0.59599 0.79992 0.21161
 C2062 C 0.58828 0.79399 0.20523
 C2063 C 0.59018 0.79284 0.19385
 C2064 C 0.59954 0.79758 0.18897
 C2065 C 0.57825 0.78915 0.21040
 C2066 C 0.57447 0.77857 0.20730
 C2067 C 0.56493 0.77410 0.21208
 C2068 C 0.55904 0.78014 0.22000
 C2069 C 0.56275 0.79064 0.22316
 C2070 C 0.57229 0.79512 0.21840
 C2071 C 0.54908 0.77565 0.22474
 C2072 C 0.54068 0.77193 0.22862
 H2073 H 0.61118 0.80917 0.21176
 H2074 H 0.59483 0.80082 0.22041
 H2075 H 0.58433 0.78845 0.18870
 H2076 H 0.60082 0.79668 0.18018
 H2077 H 0.57896 0.77372 0.20127
 H2078 H 0.56214 0.76595 0.20958
 H2079 H 0.55822 0.79541 0.22924
 H2080 H 0.57490 0.80334 0.22085
 C2081 C 1.12425 0.31373 0.18811
 C2082 C 1.11614 0.30975 0.19233
 C2083 C 1.10643 0.30503 0.19735
 C2084 C 1.10722 0.29515 0.20335
 C2085 C 1.09778 0.29055 0.20820
 C2086 C 1.08741 0.29579 0.20711
 C2087 C 1.08671 0.30571 0.20105
 C2088 C 1.09616 0.31029 0.19620
 C2089 C 1.07737 0.29091 0.21224
 C2090 C 1.06945 0.29774 0.21739
 C2091 C 1.05994 0.29316 0.22211
 C2092 C 1.05820 0.28170 0.22173
 C2093 C 1.06605 0.27483 0.21668
 C2094 C 1.07557 0.27939 0.21197
 C2095 C 1.04828 0.27700 0.22632
 C2096 C 1.03991 0.27301 0.23002
 H2097 H 1.11514 0.29103 0.20431
 H2098 H 1.09861 0.28298 0.21293
 H2099 H 1.07882 0.30985 0.19993
 H2100 H 1.09545 0.31791 0.19154
 H2101 H 1.07067 0.30662 0.21786
 H2102 H 1.05392 0.29855 0.22601
 H2103 H 1.06476 0.26595 0.21631
 H2104 H 1.08144 0.27394 0.20794
 C2105 C 1.12389 0.81200 0.68532
 C2106 C 1.11571 0.80780 0.68921
 C2107 C 1.10594 0.80285 0.69388
 C2108 C 1.10670 0.79286 0.69969
 C2109 C 1.09721 0.78812 0.70434
 C2110 C 1.08684 0.79333 0.70323
 C2111 C 1.08616 0.80335 0.69732
 C2112 C 1.09565 0.80807 0.69268
 C2113 C 1.07678 0.78840 0.70827
 C2114 C 1.06888 0.79518 0.71351
 C2115 C 1.05940 0.79055 0.71826
 C2116 C 1.05768 0.77910 0.71785
 C2117 C 1.06549 0.77227 0.71267
 C2118 C 1.07498 0.77688 0.70792
 C2119 C 1.04789 0.77439 0.72272
 C2120 C 1.03963 0.77060 0.72684
 H2121 H 1.11463 0.78876 0.70070
 H2122 H 1.09803 0.78048 0.70894
 H2123 H 1.07827 0.80748 0.69619
 H2124 H 1.09496 0.81578 0.68816
 H2125 H 1.07009 0.80406 0.71405
 H2126 H 1.05343 0.79591 0.72227
 H2127 H 1.06422 0.76339 0.71228
 H2128 H 1.08084 0.77146 0.70384
 C2129 C 0.37519 0.68589 0.68753
 C2130 C 0.38335 0.68971 0.69179
 C2131 C 0.39311 0.69424 0.69687
 C2132 C 0.40362 0.69126 0.69301
 C2133 C 0.41311 0.69567 0.69792
 C2134 C 0.41221 0.70314 0.70677
 C2135 C 0.40159 0.70608 0.71060
 C2136 C 0.39212 0.70165 0.70568
 C2137 C 0.42229 0.70790 0.71193
 C2138 C 0.42262 0.71914 0.71499
 C2139 C 0.43218 0.72366 0.71966
 C2140 C 0.44154 0.71700 0.72134
 C2141 C 0.44127 0.70580 0.71839
 C2142 C 0.43172 0.70126 0.71372
 C2143 C 0.45148 0.72173 0.72586
 C2144 C 0.45986 0.72574 0.72950
 H2145 H 0.40449 0.68555 0.68618
 H2146 H 0.42115 0.69336 0.69469
 H2147 H 0.40062 0.71170 0.71748
 H2148 H 0.38402 0.70399 0.70875
 H2149 H 0.41555 0.72449 0.71359
 H2150 H 0.43232 0.73236 0.72186
 H2151 H 0.44847 0.70057 0.71966
 H2152 H 0.43168 0.69255 0.71158
 C2153 C 0.37579 0.18568 0.18744
 C2154 C 0.38395 0.18959 0.19162
 C2155 C 0.39372 0.19429 0.19654
 C2156 C 0.40193 0.19897 0.18988
 C2157 C 0.41143 0.20353 0.19463
 C2158 C 0.41284 0.20348 0.20613
 C2159 C 0.40451 0.19877 0.21277
 C2160 C 0.39503 0.19420 0.20799
 C2161 C 0.42297 0.20825 0.21117
 C2162 C 0.42230 0.21462 0.22085
 C2163 C 0.43185 0.21914 0.22554
 C2164 C 0.44219 0.21734 0.22063
 C2165 C 0.44295 0.21100 0.21102
 C2166 C 0.43341 0.20648 0.20631
 C2167 C 0.45203 0.22208 0.22536
 C2168 C 0.46033 0.22608 0.22916
 H2169 H 0.40099 0.19912 0.18101
 H2170 H 0.41762 0.20723 0.18931
 H2171 H 0.40542 0.19848 0.22163
 H2172 H 0.38873 0.19057 0.21323
 H2173 H 0.41437 0.21624 0.22470
 H2174 H 0.43117 0.22409 0.23296
 H2175 H 0.45091 0.20954 0.20716
 H2176 H 0.43422 0.20150 0.19894
 C2177 C -0.12489 0.68624 0.18736
 C2178 C -0.11673 0.69018 0.19152
 C2179 C -0.10698 0.69489 0.19646
 C2180 C -0.10192 0.68964 0.20543
 C2181 C -0.09242 0.69419 0.21019
 C2182 C -0.08783 0.70406 0.20602
 C2183 C -0.09299 0.70928 0.19701
 C2184 C -0.10250 0.70472 0.19227
 C2185 C -0.07767 0.70885 0.21100
 C2186 C -0.06932 0.71338 0.20427
 C2187 C -0.05975 0.71786 0.20894
 C2188 C -0.05837 0.71790 0.22038
 C2189 C -0.06662 0.71343 0.22715
 C2190 C -0.07621 0.70892 0.22249
 C2191 C -0.04849 0.72254 0.22512
 C2192 C -0.04015 0.72647 0.22892
 H2193 H -0.10530 0.68201 0.20871
 H2194 H -0.08855 0.68990 0.21702
 H2195 H -0.08975 0.71696 0.19371
 H2196 H -0.10637 0.70887 0.18536
 H2197 H -0.07013 0.71331 0.19539
 H2198 H -0.05340 0.72128 0.20362
 H2199 H -0.06566 0.71344 0.23602
 H2200 H -0.08254 0.70562 0.22789
 C2201 C -0.12417 0.18589 0.68740
 C2202 C -0.11601 0.18976 0.69161
 C2203 C -0.10627 0.19442 0.69660
 C2204 C -0.09622 0.19444 0.69084
 C2205 C -0.08675 0.19900 0.69564
 C2206 C -0.08720 0.20361 0.70628
 C2207 C -0.09735 0.20353 0.71200
 C2208 C -0.10681 0.19896 0.70718
 C2209 C -0.07715 0.20849 0.71136
 C2210 C -0.07783 0.21837 0.71748
 C2211 C -0.06833 0.22300 0.72217
 C2212 C -0.05804 0.21782 0.72082
 C2213 C -0.05728 0.20797 0.71479
 C2214 C -0.06676 0.20333 0.71009
 C2215 C -0.04822 0.22269 0.72546
 C2216 C -0.03993 0.22675 0.72923
 H2217 H -0.09572 0.19096 0.68263
 H2218 H -0.07911 0.19907 0.69096
 H2219 H -0.09793 0.20689 0.72024
 H2220 H -0.11454 0.19895 0.71173
 H2221 H -0.08567 0.22262 0.71848
 H2222 H -0.06900 0.23065 0.72679
 H2223 H -0.04936 0.20387 0.71372
 H2224 H -0.06600 0.19564 0.70555
 C2225 C 0.31386 0.37621 0.31264
 C2226 C 0.30995 0.38437 0.30842
 C2227 C 0.30533 0.39413 0.30337
 C2228 C 0.29458 0.39392 0.29907
 C2229 C 0.29009 0.40342 0.29419
 C2230 C 0.29630 0.41326 0.29356
 C2231 C 0.30711 0.41337 0.29789
 C2232 C 0.31159 0.40387 0.30275
 C2233 C 0.29150 0.42339 0.28849
 C2234 C 0.29327 0.43385 0.29327
 C2235 C 0.28867 0.44337 0.28857
 C2236 C 0.28225 0.44258 0.27901
 C2237 C 0.28047 0.43222 0.27416
 C2238 C 0.28505 0.42268 0.27886
 C2239 C 0.27739 0.45240 0.27431
 C2240 C 0.27330 0.46070 0.27054
 H2241 H 0.28966 0.38643 0.29953
 H2242 H 0.28170 0.40311 0.29106
 H2243 H 0.31215 0.42078 0.29740
 H2244 H 0.31994 0.40411 0.30602
 H2245 H 0.29806 0.43465 0.30076
 H2246 H 0.29006 0.45135 0.29242
 H2247 H 0.27552 0.43152 0.26675
 H2248 H 0.28365 0.41476 0.27490
 C2249 C 0.31410 -0.12449 0.81278
 C2250 C 0.31001 -0.11643 0.80854
 C2251 C 0.30515 -0.10680 0.80347
 C2252 C 0.29367 -0.10525 0.80374
 C2253 C 0.28895 -0.09586 0.79887
 C2254 C 0.29567 -0.08790 0.79366
 C2255 C 0.30720 -0.08956 0.79341
 C2256 C 0.31191 -0.09895 0.79829
 C2257 C 0.29067 -0.07786 0.78861
 C2258 C 0.29458 -0.07379 0.77847
 C2259 C 0.28994 -0.06426 0.77379
 C2260 C 0.28134 -0.05868 0.77919
 C2261 C 0.27737 -0.06268 0.78926
 C2262 C 0.28199 -0.07220 0.79395
 C2263 C 0.27666 -0.04877 0.77450
 C2264 C 0.27271 -0.04040 0.77075
 H2265 H 0.28836 -0.11129 0.80770
 H2266 H 0.28003 -0.09488 0.79908
 H2267 H 0.31261 -0.08352 0.78959
 H2268 H 0.32081 -0.10007 0.79806
 H2269 H 0.30116 -0.07803 0.77410
 H2270 H 0.29306 -0.06124 0.76598
 H2271 H 0.27075 -0.05839 0.79353
 H2272 H 0.27890 -0.07504 0.80183
 C2273 C 0.81426 0.37550 0.81198
 C2274 C 0.81039 0.38365 0.80769
 C2275 C 0.80580 0.39339 0.80260
 C2276 C 0.79506 0.39316 0.79827
 C2277 C 0.79056 0.40265 0.79339
 C2278 C 0.79675 0.41251 0.79279
 C2279 C 0.80756 0.41264 0.79713
 C2280 C 0.81204 0.40314 0.80200
 C2281 C 0.79191 0.42265 0.78778
 C2282 C 0.79364 0.43309 0.79264
 C2283 C 0.78897 0.44262 0.78802
 C2284 C 0.78253 0.44186 0.77847
 C2285 C 0.78081 0.43152 0.77353
 C2286 C 0.78546 0.42197 0.77816
 C2287 C 0.77757 0.45167 0.77387
 C2288 C 0.77340 0.45997 0.77019
 H2289 H 0.79015 0.38567 0.79872
 H2290 H 0.78217 0.40233 0.79026
 H2291 H 0.81258 0.42006 0.79667
 H2292 H 0.82038 0.40339 0.80529
 H2293 H 0.79843 0.43386 0.80013
 H2294 H 0.79031 0.45057 0.79193
 H2295 H 0.77585 0.43085 0.76613
 H2296 H 0.78410 0.41408 0.77415
 C2297 C 0.81456 -0.12433 0.31249
 C2298 C 0.81082 -0.11601 0.30842
 C2299 C 0.80629 -0.10614 0.30350
 C2300 C 0.80418 -0.09679 0.30997
 C2301 C 0.79971 -0.08723 0.30520
 C2302 C 0.79728 -0.08692 0.29387
 C2303 C 0.79947 -0.09636 0.28743
 C2304 C 0.80394 -0.10591 0.29222
 C2305 C 0.79240 -0.07683 0.28881
 C2306 C 0.78393 -0.07772 0.28091
 C2307 C 0.77925 -0.06822 0.27622
 C2308 C 0.78299 -0.05771 0.27935
 C2309 C 0.79144 -0.05673 0.28717
 C2310 C 0.79612 -0.06622 0.29188
 C2311 C 0.77806 -0.04793 0.27467
 C2312 C 0.77389 -0.03968 0.27087
 H2313 H 0.80593 -0.09690 0.31872
 H2314 H 0.79799 -0.08014 0.31040
 H2315 H 0.79782 -0.09633 0.27866
 H2316 H 0.80556 -0.11310 0.28713
 H2317 H 0.78078 -0.08576 0.27849
 H2318 H 0.77268 -0.06906 0.27022
 H2319 H 0.79440 -0.04863 0.28965
 H2320 H 0.80272 -0.06527 0.29783
 C2321 C 0.31233 0.62402 0.68652
 C2322 C 0.30820 0.61587 0.69051
 C2323 C 0.30325 0.60612 0.69524
 C2324 C 0.30980 0.59852 0.70102
 C2325 C 0.30502 0.58901 0.70557
 C2326 C 0.29360 0.58700 0.70440
 C2327 C 0.28708 0.59471 0.69860
 C2328 C 0.29189 0.60420 0.69404
 C2329 C 0.28853 0.57689 0.70920
 C2330 C 0.27813 0.57741 0.71443
 C2331 C 0.27340 0.56789 0.71900
 C2332 C 0.27899 0.55773 0.71840
 C2333 C 0.28931 0.55712 0.71318
 C2334 C 0.29406 0.56663 0.70862
 C2335 C 0.27422 0.54795 0.72322
 C2336 C 0.27038 0.53968 0.72727
 H2337 H 0.31861 0.59994 0.70202
 H2338 H 0.31023 0.58331 0.71011
 H2339 H 0.27830 0.59332 0.69744
 H2340 H 0.28674 0.61002 0.68956
 H2341 H 0.27374 0.58521 0.71513
 H2342 H 0.26542 0.56845 0.72305
 H2343 H 0.29369 0.54930 0.71265
 H2344 H 0.30200 0.56593 0.70452
 C2345 C 0.31299 1.12377 0.18665
 C2346 C 0.30897 1.11561 0.19076
 C2347 C 0.30421 1.10587 0.19570
 C2348 C 0.29276 1.10413 0.19527
 C2349 C 0.28814 1.09467 0.20007
 C2350 C 0.29492 1.08681 0.20536
 C2351 C 0.30642 1.08864 0.20576
 C2352 C 0.31103 1.09811 0.20096
 C2353 C 0.29003 1.07671 0.21038
 C2354 C 0.29535 1.06638 0.20932
 C2355 C 0.29071 1.05685 0.21397
 C2356 C 0.28070 1.05751 0.21975
 C2357 C 0.27535 1.06775 0.22088
 C2358 C 0.27997 1.07729 0.21623
 C2359 C 0.27592 1.04768 0.22447
 C2360 C 0.27199 1.03938 0.22839
 H2361 H 0.28742 1.11007 0.19119
 H2362 H 0.27927 1.09343 0.19950
 H2363 H 0.31184 1.08282 0.20990
 H2364 H 0.31990 1.09940 0.20138
 H2365 H 0.30302 1.06563 0.20475
 H2366 H 0.29491 1.04897 0.21302
 H2367 H 0.26761 1.06836 0.22538
 H2368 H 0.27575 1.08514 0.21731
 C2369 C 0.81245 0.62406 0.18643
 C2370 C 0.80834 0.61588 0.19040
 C2371 C 0.80341 0.60610 0.19511
 C2372 C 0.81010 0.59806 0.20010
 C2373 C 0.80534 0.58852 0.20461
 C2374 C 0.79380 0.58691 0.20419
 C2375 C 0.78714 0.59506 0.19918
 C2376 C 0.79193 0.60459 0.19467
 C2377 C 0.78875 0.57676 0.20894
 C2378 C 0.77878 0.57736 0.21493
 C2379 C 0.77409 0.56779 0.21947
 C2380 C 0.77929 0.55751 0.21807
 C2381 C 0.78918 0.55682 0.21208
 C2382 C 0.79388 0.56637 0.20755
 C2383 C 0.77457 0.54768 0.22286
 C2384 C 0.77076 0.53938 0.22689
 H2385 H 0.81900 0.59916 0.20051
 H2386 H 0.81067 0.58248 0.20853
 H2387 H 0.77826 0.59400 0.19861
 H2388 H 0.78668 0.61075 0.19079
 H2389 H 0.77470 0.58524 0.21625
 H2390 H 0.76646 0.56842 0.22412
 H2391 H 0.79326 0.54890 0.21093
 H2392 H 0.80147 0.56562 0.20285
 C2393 C 0.81265 1.12435 0.68650
 C2394 C 0.80852 1.11622 0.69055
 C2395 C 0.80354 1.10651 0.69535
 C2396 C 0.79207 1.10498 0.69474
 C2397 C 0.78721 1.09552 0.69933
 C2398 C 0.79378 1.08745 0.70457
 C2399 C 0.80531 1.08908 0.70517
 C2400 C 0.81015 1.09856 0.70059
 C2401 C 0.78862 1.07735 0.70934
 C2402 C 0.79375 1.06694 0.70813
 C2403 C 0.78888 1.05742 0.71255
 C2404 C 0.77882 1.05816 0.71825
 C2405 C 0.77364 1.06847 0.71950
 C2406 C 0.77850 1.07800 0.71507
 C2407 C 0.77394 1.04836 0.72299
 C2408 C 0.77006 1.04010 0.72705
 H2409 H 0.78689 1.11107 0.69068
 H2410 H 0.77834 1.09446 0.69863
 H2411 H 0.81057 1.08311 0.70930
 H2412 H 0.81904 1.09968 0.70115
 H2413 H 0.80147 1.06614 0.70365
 H2414 H 0.79296 1.04948 0.71153
 H2415 H 0.76589 1.06914 0.72395
 H2416 H 0.77442 1.08591 0.71627
 C2417 C 0.68765 0.62409 0.31439
 C2418 C 0.69180 0.61596 0.31035
 C2419 C 0.69671 0.60623 0.30555
 C2420 C 0.69034 0.59923 0.29892
 C2421 C 0.69507 0.58973 0.29431
 C2422 C 0.70626 0.58711 0.29626
 C2423 C 0.71261 0.59422 0.30291
 C2424 C 0.70786 0.60371 0.30753
 C2425 C 0.71125 0.57698 0.29141
 C2426 C 0.72206 0.57718 0.28705
 C2427 C 0.72670 0.56764 0.28240
 C2428 C 0.72061 0.55779 0.28207
 C2429 C 0.70988 0.55749 0.28643
 C2430 C 0.70523 0.56701 0.29107
 C2431 C 0.72530 0.54797 0.27721
 C2432 C 0.72905 0.53968 0.27313
 H2433 H 0.68171 0.60112 0.29732
 H2434 H 0.69001 0.58451 0.28910
 H2435 H 0.72121 0.59235 0.30468
 H2436 H 0.71286 0.60906 0.31268
 H2437 H 0.72685 0.58476 0.28708
 H2438 H 0.73500 0.56797 0.27902
 H2439 H 0.70511 0.54989 0.28624
 H2440 H 0.69696 0.56654 0.29450
 C2441 C 0.68618 1.12480 0.81371
 C2442 C 0.69019 1.11660 0.80966
 C2443 C 0.69501 1.10677 0.80493
 C2444 C 0.70083 1.10739 0.79498
 C2445 C 0.70558 1.09785 0.79043
 C2446 C 0.70454 1.08755 0.79580
 C2447 C 0.69866 1.08703 0.80579
 C2448 C 0.69394 1.09658 0.81033
 C2449 C 0.70960 1.07741 0.79102
 C2450 C 0.70387 1.06726 0.79127
 C2451 C 0.70866 1.05769 0.78685
 C2452 C 0.71923 1.05813 0.78212
 C2453 C 0.72499 1.06818 0.78182
 C2454 C 0.72021 1.07776 0.78622
 C2455 C 0.72408 1.04827 0.77749
 C2456 C 0.72799 1.03997 0.77355
 H2457 H 0.70170 1.11524 0.79072
 H2458 H 0.70993 1.09849 0.78266
 H2459 H 0.69783 1.07926 0.81018
 H2460 H 0.68950 1.09602 0.81806
 H2461 H 0.69563 1.06676 0.79476
 H2462 H 0.70410 1.04997 0.78708
 H2463 H 0.73319 1.06860 0.77820
 H2464 H 0.72488 1.08542 0.78602
 C2465 C 0.18701 0.62458 0.81424
 C2466 C 0.19111 0.61643 0.81018
 C2467 C 0.19600 0.60668 0.80537
 C2468 C 0.20670 0.60341 0.80838
 C2469 C 0.21143 0.59389 0.80378
 C2470 C 0.20549 0.58750 0.79611
 C2471 C 0.19474 0.59088 0.79312
 C2472 C 0.19003 0.60040 0.79773
 C2473 C 0.21046 0.57733 0.79128
 C2474 C 0.20401 0.56776 0.78975
 C2475 C 0.20868 0.55819 0.78521
 C2476 C 0.21985 0.55804 0.78214
 C2477 C 0.22635 0.56752 0.78362
 C2478 C 0.22170 0.57711 0.78817
 C2479 C 0.22458 0.54817 0.77742
 C2480 C 0.22838 0.53983 0.77344
 H2481 H 0.21138 0.60819 0.81432
 H2482 H 0.21966 0.59143 0.80636
 H2483 H 0.19001 0.58622 0.78714
 H2484 H 0.18175 0.60288 0.79532
 H2485 H 0.19538 0.56762 0.79219
 H2486 H 0.20357 0.55089 0.78412
 H2487 H 0.23500 0.56751 0.78123
 H2488 H 0.22684 0.58439 0.78911
 C2489 C 0.18728 1.12414 0.31412
 C2490 C 0.19134 1.11599 0.31004
 C2491 C 0.19619 1.10626 0.30516
 C2492 C 0.19844 1.09696 0.31166
 C2493 C 0.20311 1.08748 0.30693
 C2494 C 0.20558 1.08718 0.29561
 C2495 C 0.20328 1.09659 0.28914
 C2496 C 0.19862 1.10606 0.29389
 C2497 C 0.21050 1.07710 0.29057
 C2498 C 0.20695 1.07339 0.28018
 C2499 C 0.21152 1.06384 0.27550
 C2500 C 0.21971 1.05789 0.28113
 C2501 C 0.22333 1.06153 0.29145
 C2502 C 0.21877 1.07108 0.29615
 C2503 C 0.22431 1.04797 0.27639
 C2504 C 0.22811 1.03962 0.27246
 H2505 H 0.19655 1.09701 0.32039
 H2506 H 0.20463 1.08032 0.31210
 H2507 H 0.20521 1.09667 0.28043
 H2508 H 0.19693 1.11323 0.28878
 H2509 H 0.20051 1.07777 0.27575
 H2510 H 0.20863 1.06106 0.26752
 H2511 H 0.22968 1.05699 0.29587
 H2512 H 0.22178 1.07380 0.30409
 C2513 C 0.68550 0.37556 0.68733
 C2514 C 0.68943 0.38374 0.69149
 C2515 C 0.69412 0.39351 0.69641
 C2516 C 0.69296 0.40381 0.69123
 C2517 C 0.69757 0.41330 0.69596
 C2518 C 0.70342 0.41262 0.70596
 C2519 C 0.70451 0.40223 0.71113
 C2520 C 0.69990 0.39274 0.70637
 C2521 C 0.70839 0.42270 0.71094
 C2522 C 0.70788 0.42447 0.72238
 C2523 C 0.71252 0.43399 0.72704
 C2524 C 0.71776 0.44184 0.72033
 C2525 C 0.71833 0.44013 0.70895
 C2526 C 0.71368 0.43064 0.70428
 C2527 C 0.72250 0.45168 0.72508
 C2528 C 0.72649 0.45998 0.72891
 H2529 H 0.68847 0.40450 0.68353
 H2530 H 0.69645 0.42119 0.69185
 H2531 H 0.70908 0.40142 0.71875
 H2532 H 0.70089 0.38481 0.71044
 H2533 H 0.70374 0.41859 0.72771
 H2534 H 0.71200 0.43525 0.73586
 H2535 H 0.72239 0.44614 0.70368
 H2536 H 0.71435 0.42943 0.69547
 C2537 C 0.68619 -0.12425 0.18761
 C2538 C 0.68999 -0.11611 0.19193
 C2539 C 0.69449 -0.10636 0.19706
 C2540 C 0.69625 -0.09677 0.19083
 C2541 C 0.70058 -0.08727 0.19580
 C2542 C 0.70323 -0.08725 0.20708
 C2543 C 0.70143 -0.09695 0.21328
 C2544 C 0.69709 -0.10643 0.20829
 C2545 C 0.70788 -0.07717 0.21233
 C2546 C 0.71656 -0.07802 0.22002
 C2547 C 0.72110 -0.06850 0.22478
 C2548 C 0.71701 -0.05803 0.22193
 C2549 C 0.70832 -0.05710 0.21437
 C2550 C 0.70378 -0.06660 0.20960
 C2551 C 0.72189 -0.04820 0.22655
 C2552 C 0.72603 -0.03991 0.23022
 H2553 H 0.69429 -0.09663 0.18212
 H2554 H 0.70200 -0.07999 0.19077
 H2555 H 0.70326 -0.09715 0.22200
 H2556 H 0.69572 -0.11381 0.21320
 H2557 H 0.71999 -0.08603 0.22220
 H2558 H 0.72786 -0.06931 0.23058
 H2559 H 0.70509 -0.04903 0.21211
 H2560 H 0.69701 -0.06569 0.20382
 C2561 C 0.18646 0.37616 0.18738
 C2562 C 0.19037 0.38435 0.19150
 C2563 C 0.19497 0.39415 0.19643
 C2564 C 0.18936 0.40427 0.19558
 C2565 C 0.19380 0.41381 0.20036
 C2566 C 0.20392 0.41335 0.20609
 C2567 C 0.20948 0.40313 0.20693
 C2568 C 0.20504 0.39360 0.20212
 C2569 C 0.20869 0.42350 0.21109
 C2570 C 0.21372 0.42311 0.22153
 C2571 C 0.21828 0.43267 0.22618
 C2572 C 0.21788 0.44273 0.22046
 C2573 C 0.21287 0.44321 0.21008
 C2574 C 0.20830 0.43367 0.20542
 C2575 C 0.22267 0.45256 0.22516
 C2576 C 0.22671 0.46085 0.22896
 H2577 H 0.18154 0.40478 0.19123
 H2578 H 0.18924 0.42153 0.19971
 H2579 H 0.21735 0.40253 0.21117
 H2580 H 0.20946 0.38581 0.20281
 H2581 H 0.21402 0.41544 0.22615
 H2582 H 0.22211 0.43221 0.23423
 H2583 H 0.21256 0.45095 0.20556
 H2584 H 0.20461 0.43421 0.19731
 C2585 C 0.18504 -0.12444 0.68812
 C2586 C 0.18881 -0.11625 0.69238
 C2587 C 0.19336 -0.10643 0.69735
 C2588 C 0.19845 -0.09840 0.69076
 C2589 C 0.20291 -0.08887 0.69554
 C2590 C 0.20234 -0.08724 0.70700
 C2591 C 0.19720 -0.09537 0.71356
 C2592 C 0.19274 -0.10490 0.70875
 C2593 C 0.20711 -0.07712 0.71207
 C2594 C 0.21305 -0.07776 0.72202
 C2595 C 0.21770 -0.06824 0.72668
 C2596 C 0.21646 -0.05796 0.72146
 C2597 C 0.21051 -0.05723 0.71161
 C2598 C 0.20586 -0.06673 0.70694
 C2599 C 0.22143 -0.04819 0.72610
 C2600 C 0.22563 -0.03994 0.72981
 H2601 H 0.19902 -0.09952 0.68193
 H2602 H 0.20695 -0.08284 0.69029
 H2603 H 0.19652 -0.09429 0.72239
 H2604 H 0.18879 -0.11105 0.71393
 H2605 H 0.21427 -0.08565 0.72610
 H2606 H 0.22234 -0.06891 0.73429
 H2607 H 0.20948 -0.04931 0.70752
 H2608 H 0.20122 -0.06594 0.69936
 C2609 C 0.31320 0.31364 0.37532
 C2610 C 0.30904 0.30964 0.38343
 C2611 C 0.30405 0.30490 0.39311
 C2612 C 0.30941 0.29632 0.39876
 C2613 C 0.30457 0.29170 0.40816
 C2614 C 0.29429 0.29561 0.41204
 C2615 C 0.28898 0.30424 0.40630
 C2616 C 0.29383 0.30885 0.39690
 C2617 C 0.28917 0.29072 0.42205
 C2618 C 0.28388 0.29753 0.42987
 C2619 C 0.27922 0.29294 0.43937
 C2620 C 0.27976 0.28150 0.44118
 C2621 C 0.28493 0.27465 0.43343
 C2622 C 0.28961 0.27922 0.42393
 C2623 C 0.27515 0.27680 0.45107
 C2624 C 0.27139 0.27287 0.45939
 H2625 H 0.31734 0.29322 0.39592
 H2626 H 0.30894 0.28517 0.41248
 H2627 H 0.28100 0.30734 0.40900
 H2628 H 0.28960 0.31547 0.39257
 H2629 H 0.28353 0.30643 0.42873
 H2630 H 0.27527 0.29833 0.44534
 H2631 H 0.28538 0.26577 0.43474
 H2632 H 0.29349 0.27375 0.41800
 C2633 C 0.31409 0.81332 -0.12491
 C2634 C 0.31005 0.80921 -0.11680
 C2635 C 0.30525 0.80431 -0.10710
 C2636 C 0.29829 0.81059 -0.10032
 C2637 C 0.29364 0.80585 -0.09088
 C2638 C 0.29591 0.79476 -0.08809
 C2639 C 0.30292 0.78851 -0.09498
 C2640 C 0.30755 0.79326 -0.10442
 C2641 C 0.29103 0.78974 -0.07802
 C2642 C 0.29739 0.78271 -0.07127
 C2643 C 0.29283 0.77808 -0.06174
 C2644 C 0.28185 0.78040 -0.05883
 C2645 C 0.27543 0.78735 -0.06551
 C2646 C 0.27998 0.79199 -0.07504
 C2647 C 0.27721 0.77576 -0.04894
 C2648 C 0.27334 0.77193 -0.04061
 H2649 H 0.29648 0.81916 -0.10230
 H2650 H 0.28840 0.81092 -0.08567
 H2651 H 0.30471 0.77991 -0.09313
 H2652 H 0.31290 0.78831 -0.10963
 H2653 H 0.30596 0.78093 -0.07327
 H2654 H 0.29788 0.77275 -0.05660
 H2655 H 0.26692 0.78918 -0.06334
 H2656 H 0.27483 0.79725 -0.08014
 C2657 C 0.81291 0.31424 -0.12484
 C2658 C 0.80883 0.31025 -0.11669
 C2659 C 0.80405 0.30542 -0.10695
 C2660 C 0.79308 0.30778 -0.10402
 C2661 C 0.78847 0.30305 -0.09455
 C2662 C 0.79479 0.29588 -0.08789
 C2663 C 0.80581 0.29358 -0.09091
 C2664 C 0.81040 0.29832 -0.10037
 C2665 C 0.78994 0.29082 -0.07783
 C2666 C 0.79221 0.27970 -0.07512
 C2667 C 0.78781 0.27498 -0.06556
 C2668 C 0.78107 0.28130 -0.05859
 C2669 C 0.77870 0.29234 -0.06124
 C2670 C 0.78309 0.29708 -0.07080
 C2671 C 0.77666 0.27648 -0.04867
 C2672 C 0.77296 0.27253 -0.04033
 H2673 H 0.78809 0.31325 -0.10907
 H2674 H 0.77993 0.30489 -0.09251
 H2675 H 0.81093 0.28822 -0.08587
 H2676 H 0.81891 0.29646 -0.10254
 H2677 H 0.79732 0.27462 -0.08045
 H2678 H 0.78967 0.26642 -0.06360
 H2679 H 0.77351 0.29731 -0.05588
 H2680 H 0.78128 0.30568 -0.07260
 C2681 C 0.81368 0.81378 0.37521
 C2682 C 0.80959 0.80985 0.38339
 C2683 C 0.80462 0.80518 0.39312
 C2684 C 0.80993 0.79659 0.39880
 C2685 C 0.80512 0.79210 0.40828
 C2686 C 0.79491 0.79615 0.41222
 C2687 C 0.78961 0.80474 0.40639
 C2688 C 0.79443 0.80921 0.39691
 C2689 C 0.78986 0.79150 0.42238
 C2690 C 0.78473 0.79850 0.43012
 C2691 C 0.78004 0.79413 0.43972
 C2692 C 0.78039 0.78271 0.44170
 C2693 C 0.78546 0.77567 0.43404
 C2694 C 0.79017 0.78002 0.42445
 C2695 C 0.77569 0.77823 0.45165
 C2696 C 0.77188 0.77438 0.46000
 H2697 H 0.81782 0.79340 0.39594
 H2698 H 0.80946 0.78557 0.41263
 H2699 H 0.78166 0.80790 0.40910
 H2700 H 0.79021 0.81581 0.39254
 H2701 H 0.78450 0.80738 0.42885
 H2702 H 0.77620 0.79967 0.44562
 H2703 H 0.78578 0.76681 0.43550
 H2704 H 0.79394 0.77440 0.41859
 C2705 C 0.68629 0.31297 0.62462
 C2706 C 0.69026 0.30886 0.61648
 C2707 C 0.69492 0.30389 0.60674
 C2708 C 0.68801 0.29875 0.59905
 C2709 C 0.69251 0.29391 0.58959
 C2710 C 0.70401 0.29413 0.58771
 C2711 C 0.71090 0.29931 0.59551
 C2712 C 0.70637 0.30416 0.60496
 C2713 C 0.70880 0.28904 0.57763
 C2714 C 0.71876 0.28299 0.57814
 C2715 C 0.72330 0.27829 0.56863
 C2716 C 0.71795 0.27957 0.55849
 C2717 C 0.70802 0.28554 0.55790
 C2718 C 0.70346 0.29024 0.56740
 C2719 C 0.72273 0.27493 0.54865
 C2720 C 0.72675 0.27118 0.54036
 H2721 H 0.67914 0.29846 0.60037
 H2722 H 0.68701 0.28986 0.58382
 H2723 H 0.71976 0.29975 0.59422
 H2724 H 0.71180 0.30814 0.61085
 H2725 H 0.72299 0.28180 0.58591
 H2726 H 0.73098 0.27367 0.56918
 H2727 H 0.70383 0.28662 0.55008
 H2728 H 0.69587 0.29497 0.56671
 C2729 C 0.68788 0.81407 1.12412
 C2730 C 0.69203 0.81017 1.11596
 C2731 C 0.69693 0.80551 1.10620
 C2732 C 0.70698 0.79974 1.10686
 C2733 C 0.71172 0.79518 1.09737
 C2734 C 0.70645 0.79632 1.08710
 C2735 C 0.69636 0.80215 1.08653
 C2736 C 0.69164 0.80671 1.09602
 C2737 C 0.71143 0.79142 1.07702
 C2738 C 0.70471 0.78617 1.06914
 C2739 C 0.70938 0.78159 1.05965
 C2740 C 0.72082 0.78218 1.05789
 C2741 C 0.72759 0.78737 1.06568
 C2742 C 0.72293 0.79196 1.07520
 C2743 C 0.72557 0.77748 1.04808
 C2744 C 0.72938 0.77350 1.03980
 H2745 H 0.71113 0.79873 1.11470
 H2746 H 0.71941 0.79062 1.09810
 H2747 H 0.69217 0.80329 1.07873
 H2748 H 0.68388 0.81118 1.09542
 H2749 H 0.69585 0.78548 1.07038
 H2750 H 0.70407 0.77756 1.05368
 H2751 H 0.73645 0.78790 1.06439
 H2752 H 0.72831 0.79606 1.08105
 C2753 C 0.18603 0.31355 1.12467
 C2754 C 0.18998 0.30936 1.11655
 C2755 C 0.19463 0.30432 1.10683
 C2756 C 0.18773 0.29897 1.09927
 C2757 C 0.19221 0.29413 1.08980
 C2758 C 0.20368 0.29454 1.08778
 C2759 C 0.21056 0.29991 1.09545
 C2760 C 0.20606 0.30477 1.10491
 C2761 C 0.20843 0.28938 1.07772
 C2762 C 0.21843 0.28338 1.07824
 C2763 C 0.22289 0.27852 1.06877
 C2764 C 0.21745 0.27961 1.05865
 C2765 C 0.20749 0.28554 1.05805
 C2766 C 0.20300 0.29038 1.06752
 C2767 C 0.22222 0.27490 1.04885
 C2768 C 0.22629 0.27112 1.04059
 H2769 H 0.17888 0.29852 1.10069
 H2770 H 0.18671 0.28994 1.08412
 H2771 H 0.21940 0.30050 1.09405
 H2772 H 0.21148 0.30891 1.11070
 H2773 H 0.22272 0.28233 1.08600
 H2774 H 0.23059 0.27394 1.06933
 H2775 H 0.20323 0.28648 1.05026
 H2776 H 0.19537 0.29506 1.06682
 C2777 C 0.18797 0.81440 0.62424
 C2778 C 0.19220 0.81064 0.61606
 C2779 C 0.19719 0.80614 0.60626
 C2780 C 0.20866 0.80674 0.60473
 C2781 C 0.21349 0.80233 0.59521
 C2782 C 0.20689 0.79728 0.58710
 C2783 C 0.19536 0.79673 0.58873
 C2784 C 0.19055 0.80113 0.59825
 C2785 C 0.21199 0.79258 0.57699
 C2786 C 0.20681 0.79391 0.56670
 C2787 C 0.21151 0.78933 0.55721
 C2788 C 0.22143 0.78336 0.55787
 C2789 C 0.22669 0.78203 0.56806
 C2790 C 0.22201 0.78662 0.57756
 C2791 C 0.22609 0.77845 0.54811
 C2792 C 0.22983 0.77430 0.53988
 H2793 H 0.21387 0.81062 0.61087
 H2794 H 0.22237 0.80301 0.59413
 H2795 H 0.19007 0.79277 0.58271
 H2796 H 0.18166 0.80059 0.59937
 H2797 H 0.19918 0.79858 0.56596
 H2798 H 0.20738 0.79041 0.54936
 H2799 H 0.23435 0.77739 0.56867
 H2800 H 0.22612 0.78534 0.58538
 C2801 C 0.31335 0.68666 0.62409
 C2802 C 0.30926 0.69065 0.61595
 C2803 C 0.30429 0.69532 0.60623
 C2804 C 0.30460 0.70678 0.60442
 C2805 C 0.29972 0.71131 0.59499
 C2806 C 0.29447 0.70443 0.58724
 C2807 C 0.29420 0.69292 0.58914
 C2808 C 0.29908 0.68841 0.59857
 C2809 C 0.28933 0.70922 0.57720
 C2810 C 0.29042 0.70386 0.56696
 C2811 C 0.28566 0.70843 0.55750
 C2812 C 0.27975 0.71839 0.55812
 C2813 C 0.27857 0.72377 0.56826
 C2814 C 0.28333 0.71922 0.57774
 C2815 C 0.27506 0.72318 0.54832
 C2816 C 0.27126 0.72722 0.54006
 H2817 H 0.30863 0.71220 0.61028
 H2818 H 0.30019 0.72018 0.59370
 H2819 H 0.29010 0.68743 0.58341
 H2820 H 0.29876 0.67954 0.59991
 H2821 H 0.29510 0.69624 0.56625
 H2822 H 0.28667 0.70423 0.54967
 H2823 H 0.27401 0.73148 0.56884
 H2824 H 0.28222 0.72347 0.58552
 C2825 C 0.31354 0.18689 1.12451
 C2826 C 0.30956 0.19104 1.11639
 C2827 C 0.30484 0.19603 1.10669
 C2828 C 0.29955 0.18945 1.09881
 C2829 C 0.29503 0.19430 1.08936
 C2830 C 0.29574 0.20583 1.08768
 C2831 C 0.30105 0.21237 1.09568
 C2832 C 0.30556 0.20750 1.10511
 C2833 C 0.29106 0.21101 1.07760
 C2834 C 0.28541 0.22121 1.07818
 C2835 C 0.28106 0.22610 1.06868
 C2836 C 0.28229 0.22087 1.05847
 C2837 C 0.28793 0.21075 1.05779
 C2838 C 0.29228 0.20584 1.06728
 C2839 C 0.27757 0.22574 1.04870
 C2840 C 0.27355 0.22962 1.04047
 H2841 H 0.29891 0.18056 1.09996
 H2842 H 0.29088 0.18906 1.08342
 H2843 H 0.30186 0.22124 1.09456
 H2844 H 0.30967 0.21266 1.11114
 H2845 H 0.28422 0.22533 1.08602
 H2846 H 0.27668 0.23392 1.06930
 H2847 H 0.28896 0.20664 1.04992
 H2848 H 0.29672 0.19807 1.06654
 C2849 C 0.81329 0.68674 1.12400
 C2850 C 0.80922 0.69077 1.11586
 C2851 C 0.80431 0.69551 1.10614
 C2852 C 0.79541 0.70289 1.10708
 C2853 C 0.79055 0.70741 1.09764
 C2854 C 0.79453 0.70457 1.08711
 C2855 C 0.80350 0.69716 1.08626
 C2856 C 0.80835 0.69266 1.09571
 C2857 C 0.78935 0.70933 1.07707
 C2858 C 0.78765 0.70271 1.06768
 C2859 C 0.78287 0.70722 1.05820
 C2860 C 0.77973 0.71839 1.05796
 C2861 C 0.78135 0.72503 1.06726
 C2862 C 0.78612 0.72054 1.07676
 C2863 C 0.77505 0.72309 1.04811
 C2864 C 0.77126 0.72707 1.03982
 H2865 H 0.79219 0.70513 1.11511
 H2866 H 0.78358 0.71299 1.09857
 H2867 H 0.80685 0.69493 1.07828
 H2868 H 0.81525 0.68697 1.09489
 H2869 H 0.78991 0.69402 1.06771
 H2870 H 0.78164 0.70200 1.05104
 H2871 H 0.77901 0.73370 1.06714
 H2872 H 0.78745 0.72588 1.08379
 C2873 C 0.81404 0.18740 0.62418
 C2874 C 0.81013 0.19159 0.61604
 C2875 C 0.80543 0.19655 0.60633
 C2876 C 0.80030 0.18989 0.59841
 C2877 C 0.79573 0.19467 0.58896
 C2878 C 0.79623 0.20621 0.58731
 C2879 C 0.80139 0.21284 0.59533
 C2880 C 0.80596 0.20803 0.60477
 C2881 C 0.79144 0.21127 0.57724
 C2882 C 0.78551 0.22131 0.57784
 C2883 C 0.78094 0.22603 0.56835
 C2884 C 0.78225 0.22079 0.55815
 C2885 C 0.78815 0.21083 0.55746
 C2886 C 0.79272 0.20609 0.56694
 C2887 C 0.77742 0.22554 0.54839
 C2888 C 0.77335 0.22935 0.54016
 H2889 H 0.79981 0.18099 0.59955
 H2890 H 0.79169 0.18936 0.58301
 H2891 H 0.80203 0.22172 0.59423
 H2892 H 0.80994 0.21326 0.61084
 H2893 H 0.78426 0.22542 0.58566
 H2894 H 0.77633 0.23372 0.56897
 H2895 H 0.78923 0.20671 0.54961
 H2896 H 0.79736 0.19844 0.56619
 C2897 C 0.68717 0.68739 0.37615
 C2898 C 0.69133 0.69159 0.38414
 C2899 C 0.69637 0.69653 0.39368
 C2900 C 0.69027 0.70374 0.40038
 C2901 C 0.69513 0.70840 0.40974
 C2902 C 0.70617 0.70589 0.41253
 C2903 C 0.71226 0.69870 0.40569
 C2904 C 0.70738 0.69406 0.39633
 C2905 C 0.71130 0.71065 0.42259
 C2906 C 0.71815 0.70409 0.42935
 C2907 C 0.72292 0.70854 0.43885
 C2908 C 0.72094 0.71960 0.44171
 C2909 C 0.71415 0.72620 0.43504
 C2910 C 0.70935 0.72176 0.42554
 C2911 C 0.72572 0.72413 0.45158
 C2912 C 0.72961 0.72798 0.45988
 H2913 H 0.68174 0.70570 0.39841
 H2914 H 0.69020 0.71382 0.41490
 H2915 H 0.72082 0.69675 0.40751
 H2916 H 0.71220 0.68854 0.39117
 H2917 H 0.71967 0.69547 0.42738
 H2918 H 0.72811 0.70334 0.44399
 H2919 H 0.71256 0.73477 0.43718
 H2920 H 0.70423 0.72704 0.42044
 C2921 C 0.68744 0.18649 -0.12380
 C2922 C 0.69157 0.19047 -0.11569
 C2923 C 0.69642 0.19529 -0.10599
 C2924 C 0.69021 0.20257 -0.09948
 C2925 C 0.69489 0.20733 -0.09010
 C2926 C 0.70588 0.20488 -0.08709
 C2927 C 0.71206 0.19751 -0.09366
 C2928 C 0.70735 0.19276 -0.10306
 C2929 C 0.71085 0.21002 -0.07716
 C2930 C 0.71760 0.20377 -0.07003
 C2931 C 0.72207 0.20859 -0.06056
 C2932 C 0.71987 0.21972 -0.05811
 C2933 C 0.71325 0.22603 -0.06519
 C2934 C 0.70876 0.22122 -0.07465
 C2935 C 0.72434 0.22463 -0.04829
 C2936 C 0.72807 0.22868 -0.04002
 H2937 H 0.68173 0.20456 -0.10166
 H2938 H 0.68987 0.21284 -0.08512
 H2939 H 0.72057 0.19555 -0.09162
 H2940 H 0.71224 0.18714 -0.10805
 H2941 H 0.71925 0.19510 -0.07167
 H2942 H 0.72717 0.20363 -0.05512
 H2943 H 0.71153 0.23465 -0.06338
 H2944 H 0.70374 0.22629 -0.08006
 C2945 C 0.18702 0.68751 -0.12355
 C2946 C 0.19110 0.69168 -0.11551
 C2947 C 0.19595 0.69668 -0.10590
 C2948 C 0.20301 0.69049 -0.09913
 C2949 C 0.20772 0.69534 -0.08979
 C2950 C 0.20542 0.70645 -0.08710
 C2951 C 0.19831 0.71260 -0.09396
 C2952 C 0.19362 0.70774 -0.10331
 C2953 C 0.21040 0.71160 -0.07716
 C2954 C 0.20410 0.71870 -0.07043
 C2955 C 0.20878 0.72349 -0.06104
 C2956 C 0.21980 0.72124 -0.05826
 C2957 C 0.22615 0.71421 -0.06492
 C2958 C 0.22149 0.70942 -0.07430
 C2959 C 0.22456 0.72605 -0.04851
 C2960 C 0.22852 0.73000 -0.04030
 H2961 H 0.20485 0.68191 -0.10104
 H2962 H 0.21303 0.69034 -0.08459
 H2963 H 0.19650 0.72121 -0.09219
 H2964 H 0.18819 0.71261 -0.10851
 H2965 H 0.19550 0.72042 -0.07232
 H2966 H 0.20377 0.72888 -0.05591
 H2967 H 0.23470 0.71243 -0.06285
 H2968 H 0.22659 0.70410 -0.07939
 C2969 C 0.18663 0.18693 0.37642
 C2970 C 0.19078 0.19102 0.38448
 C2971 C 0.19579 0.19585 0.39409
 C2972 C 0.18969 0.20305 0.40080
 C2973 C 0.19456 0.20776 0.41012
 C2974 C 0.20563 0.20532 0.41287
 C2975 C 0.21169 0.19806 0.40608
 C2976 C 0.20680 0.19337 0.39675
 C2977 C 0.21082 0.21032 0.42277
 C2978 C 0.21781 0.20398 0.42959
 C2979 C 0.22259 0.20867 0.43897
 C2980 C 0.22048 0.21976 0.44165
 C2981 C 0.21358 0.22614 0.43490
 C2982 C 0.20878 0.22147 0.42553
 C2983 C 0.22526 0.22454 0.45140
 C2984 C 0.22916 0.22855 0.45962
 H2985 H 0.18115 0.20500 0.39884
 H2986 H 0.18964 0.21319 0.41527
 H2987 H 0.22026 0.19613 0.40789
 H2988 H 0.21161 0.18783 0.39160
 H2989 H 0.21943 0.19535 0.42777
 H2990 H 0.22789 0.20364 0.44417
 H2991 H 0.21190 0.23474 0.43689
 H2992 H 0.20356 0.22660 0.42037
 C2993 C 0.31303 0.37561 0.68680
 C2994 C 0.30906 0.38372 0.69106
 C2995 C 0.30438 0.39342 0.69616
 C2996 C 0.30102 0.39309 0.70718
 C2997 C 0.29654 0.40254 0.71216
 C2998 C 0.29540 0.41246 0.70617
 C2999 C 0.29880 0.41270 0.69508
 C3000 C 0.30326 0.40324 0.69012
 C3001 C 0.29067 0.42252 0.71144
 C3002 C 0.29522 0.43303 0.70930
 C3003 C 0.29068 0.44251 0.71415
 C3004 C 0.28155 0.44162 0.72120
 C3005 C 0.27700 0.43119 0.72343
 C3006 C 0.28153 0.42170 0.71860
 C3007 C 0.27673 0.45143 0.72593
 C3008 C 0.27267 0.45973 0.72973
 H3009 H 0.30189 0.38554 0.71195
 H3010 H 0.29412 0.40213 0.72074
 H3011 H 0.29788 0.42016 0.69020
 H3012 H 0.30582 0.40358 0.68157
 H3013 H 0.30234 0.43392 0.70395
 H3014 H 0.29427 0.45054 0.71237
 H3015 H 0.26990 0.43042 0.72884
 H3016 H 0.27776 0.41374 0.72030
 C3017 C 0.31374 0.87590 0.18625
 C3018 C 0.30966 0.88399 0.19044
 C3019 C 0.30481 0.89364 0.19546
 C3020 C 0.29848 0.89259 0.20506
 C3021 C 0.29378 0.90198 0.20995
 C3022 C 0.29537 0.91254 0.20530
 C3023 C 0.30175 0.91350 0.19565
 C3024 C 0.30644 0.90411 0.19076
 C3025 C 0.29041 0.92252 0.21051
 C3026 C 0.29644 0.93247 0.21115
 C3027 C 0.29175 0.94187 0.21603
 C3028 C 0.28100 0.94146 0.22032
 C3029 C 0.27494 0.93160 0.21973
 C3030 C 0.27961 0.92218 0.21487
 C3031 C 0.27616 0.95118 0.22521
 C3032 C 0.27214 0.95939 0.22922
 H3033 H 0.29720 0.88453 0.20878
 H3034 H 0.28903 0.90098 0.21746
 H3035 H 0.30301 0.92150 0.19179
 H3036 H 0.31131 0.90501 0.18332
 H3037 H 0.30481 0.93296 0.20800
 H3038 H 0.29652 0.94946 0.21645
 H3039 H 0.26659 0.93120 0.22298
 H3040 H 0.27471 0.91469 0.21437
 C3041 C 0.81438 0.37522 0.18778
 C3042 C 0.81056 0.38336 0.19211
 C3043 C 0.80598 0.39308 0.19726
 C3044 C 0.80770 0.40353 0.19255
 C3045 C 0.80322 0.41299 0.19750
 C3046 C 0.79695 0.41211 0.20724
 C3047 C 0.79529 0.40157 0.21191
 C3048 C 0.79978 0.39212 0.20695
 C3049 C 0.79211 0.42215 0.21244
 C3050 C 0.78132 0.42191 0.21685
 C3051 C 0.77669 0.43141 0.22157
 C3052 C 0.78277 0.44126 0.22198
 C3053 C 0.79353 0.44158 0.21768
 C3054 C 0.79817 0.43209 0.21295
 C3055 C 0.77788 0.45112 0.22654
 C3056 C 0.77372 0.45944 0.23019
 H3057 H 0.81245 0.40436 0.18502
 H3058 H 0.80452 0.42096 0.19362
 H3059 H 0.79062 0.40064 0.21947
 H3060 H 0.79842 0.38408 0.21068
 H3061 H 0.77639 0.41443 0.21645
 H3062 H 0.76833 0.43110 0.22481
 H3063 H 0.79831 0.44917 0.21795
 H3064 H 0.80654 0.43250 0.20975
 C3065 C 0.81247 0.87567 0.68666
 C3066 C 0.80839 0.88380 0.69079
 C3067 C 0.80358 0.89353 0.69573
 C3068 C 0.80239 0.89420 0.70717
 C3069 C 0.79785 0.90371 0.71198
 C3070 C 0.79447 0.91270 0.70540
 C3071 C 0.79566 0.91193 0.69390
 C3072 C 0.80018 0.90240 0.68910
 C3073 C 0.78982 0.92287 0.71053
 C3074 C 0.79283 0.93342 0.70660
 C3075 C 0.78852 0.94300 0.71148
 C3076 C 0.78113 0.94217 0.72033
 C3077 C 0.77808 0.93172 0.72430
 C3078 C 0.78240 0.92213 0.71944
 C3079 C 0.77657 0.95205 0.72521
 C3080 C 0.77268 0.96037 0.72915
 H3081 H 0.80503 0.88740 0.71239
 H3082 H 0.79716 0.90410 0.72087
 H3083 H 0.79300 0.91865 0.68860
 H3084 H 0.80105 0.90197 0.68023
 H3085 H 0.79864 0.93427 0.69986
 H3086 H 0.79096 0.95105 0.70835
 H3087 H 0.77233 0.93097 0.73111
 H3088 H 0.77982 0.91413 0.72257
 C3089 C 0.68723 0.62462 0.68578
 C3090 C 0.69132 0.61649 0.68989
 C3091 C 0.69620 0.60676 0.69477
 C3092 C 0.70482 0.60121 0.68938
 C3093 C 0.70954 0.59174 0.69408
 C3094 C 0.70568 0.58769 0.70425
 C3095 C 0.69702 0.59334 0.70962
 C3096 C 0.69231 0.60282 0.70490
 C3097 C 0.71063 0.57757 0.70922
 C3098 C 0.70386 0.56961 0.71437
 C3099 C 0.70851 0.56006 0.71897
 C3100 C 0.71996 0.55832 0.71850
 C3101 C 0.72677 0.56619 0.71342
 C3102 C 0.72214 0.57575 0.70880
 C3103 C 0.72469 0.54843 0.72319
 C3104 C 0.72851 0.54009 0.72713
 H3105 H 0.70786 0.60417 0.68151
 H3106 H 0.71609 0.58748 0.68968
 H3107 H 0.69396 0.59051 0.71752
 H3108 H 0.68566 0.60707 0.70916
 H3109 H 0.69496 0.57070 0.71469
 H3110 H 0.70315 0.55400 0.72285
 H3111 H 0.73565 0.56494 0.71304
 H3112 H 0.72758 0.58179 0.70502
 C3113 C 0.68744 0.12448 0.18581
 C3114 C 0.69159 0.11636 0.18989
 C3115 C 0.69653 0.10665 0.19472
 C3116 C 0.70703 0.10311 0.19131
 C3117 C 0.71179 0.09361 0.19594
 C3118 C 0.70608 0.08753 0.20405
 C3119 C 0.69555 0.09120 0.20744
 C3120 C 0.69082 0.10069 0.20280
 C3121 C 0.71106 0.07738 0.20890
 C3122 C 0.70448 0.06798 0.21097
 C3123 C 0.70916 0.05843 0.21556
 C3124 C 0.72045 0.05814 0.21814
 C3125 C 0.72706 0.06744 0.21612
 C3126 C 0.72241 0.07700 0.21152
 C3127 C 0.72520 0.04831 0.22292
 C3128 C 0.72903 0.04001 0.22696
 H3129 H 0.71152 0.10765 0.18503
 H3130 H 0.71985 0.09093 0.19305
 H3131 H 0.69101 0.08679 0.21376
 H3132 H 0.68270 0.10339 0.20552
 H3133 H 0.69576 0.06796 0.20890
 H3134 H 0.70397 0.05127 0.21707
 H3135 H 0.73580 0.06731 0.21813
 H3136 H 0.72765 0.08414 0.21016
 C3137 C 0.18714 0.62502 0.18536
 C3138 C 0.19128 0.61691 0.18947
 C3139 C 0.19622 0.60722 0.19433
 C3140 C 0.19054 0.60129 0.20246
 C3141 C 0.19530 0.59182 0.20713
 C3142 C 0.20583 0.58816 0.20372
 C3143 C 0.21150 0.59420 0.19556
 C3144 C 0.20671 0.60366 0.19090
 C3145 C 0.21085 0.57804 0.20861
 C3146 C 0.22222 0.57770 0.21119
 C3147 C 0.22691 0.56817 0.21581
 C3148 C 0.22033 0.55887 0.21791
 C3149 C 0.20903 0.55912 0.21535
 C3150 C 0.20432 0.56864 0.21074
 C3151 C 0.22512 0.54906 0.22271
 C3152 C 0.22896 0.54078 0.22675
 H3153 H 0.18243 0.60399 0.20520
 H3154 H 0.19080 0.58743 0.21349
 H3155 H 0.21955 0.59151 0.19266
 H3156 H 0.21117 0.60817 0.18458
 H3157 H 0.22744 0.58485 0.20977
 H3158 H 0.23566 0.56807 0.21778
 H3159 H 0.20386 0.55195 0.21690
 H3160 H 0.19558 0.56858 0.20870
 C3161 C 0.18762 0.12436 0.68551
 C3162 C 0.19177 0.11626 0.68959
 C3163 C 0.19671 0.10655 0.69445
 C3164 C 0.19107 0.10072 0.70268
 C3165 C 0.19580 0.09124 0.70734
 C3166 C 0.20626 0.08746 0.70383
 C3167 C 0.21188 0.09341 0.69558
 C3168 C 0.20713 0.10289 0.69092
 C3169 C 0.21123 0.07732 0.70871
 C3170 C 0.22261 0.07687 0.71118
 C3171 C 0.22725 0.06731 0.71579
 C3172 C 0.22059 0.05809 0.71798
 C3173 C 0.20927 0.05845 0.71554
 C3174 C 0.20461 0.06799 0.71094
 C3175 C 0.22531 0.04825 0.72278
 C3176 C 0.22908 0.03994 0.72683
 H3177 H 0.18301 0.10350 0.70549
 H3178 H 0.19133 0.08692 0.71378
 H3179 H 0.21988 0.09064 0.69261
 H3180 H 0.21155 0.10733 0.68453
 H3181 H 0.22789 0.08397 0.70968
 H3182 H 0.23602 0.06713 0.71769
 H3183 H 0.20405 0.05134 0.71717
 H3184 H 0.19586 0.06802 0.70899
 C3185 C 0.31229 0.62494 0.31428
 C3186 C 0.30813 0.61678 0.31034
 C3187 C 0.30319 0.60702 0.30564
 C3188 C 0.30944 0.60011 0.29878
 C3189 C 0.30467 0.59061 0.29424
 C3190 C 0.29356 0.58790 0.29650
 C3191 C 0.28734 0.59492 0.30339
 C3192 C 0.29213 0.60442 0.30793
 C3193 C 0.28851 0.57778 0.29171
 C3194 C 0.27760 0.57798 0.28764
 C3195 C 0.27291 0.56846 0.28304
 C3196 C 0.27904 0.55862 0.28247
 C3197 C 0.28988 0.55833 0.28654
 C3198 C 0.29459 0.56784 0.29113
 C3199 C 0.27431 0.54884 0.27761
 C3200 C 0.27051 0.54058 0.27351
 H3201 H 0.31800 0.60207 0.29692
 H3202 H 0.30963 0.58545 0.28885
 H3203 H 0.27882 0.59299 0.30539
 H3204 H 0.28723 0.60970 0.31325
 H3205 H 0.27276 0.58554 0.28785
 H3206 H 0.26452 0.56878 0.27987
 H3207 H 0.29470 0.55075 0.28616
 H3208 H 0.30295 0.56738 0.29433
 C3209 C 0.31176 0.12394 0.81496
 C3210 C 0.30762 0.11580 0.81096
 C3211 C 0.30274 0.10606 0.80617
 C3212 C 0.30875 0.09972 0.79859
 C3213 C 0.30405 0.09023 0.79395
 C3214 C 0.29325 0.08694 0.79685
 C3215 C 0.28726 0.09338 0.80447
 C3216 C 0.29199 0.10287 0.80910
 C3217 C 0.28829 0.07683 0.79195
 C3218 C 0.27710 0.07671 0.78869
 C3219 C 0.27248 0.06719 0.78401
 C3220 C 0.27897 0.05768 0.78255
 C3221 C 0.29009 0.05771 0.78579
 C3222 C 0.29472 0.06721 0.79046
 C3223 C 0.27427 0.04789 0.77767
 C3224 C 0.27048 0.03963 0.77358
 H3225 H 0.31707 0.10213 0.79624
 H3226 H 0.30882 0.08554 0.78800
 H3227 H 0.27899 0.09099 0.80696
 H3228 H 0.28727 0.10770 0.81499
 H3229 H 0.27198 0.08402 0.78961
 H3230 H 0.26387 0.06727 0.78149
 H3231 H 0.29517 0.05038 0.78472
 H3232 H 0.30331 0.06699 0.79303
 C3233 C 0.81147 0.62420 0.81472
 C3234 C 0.80728 0.61602 0.81085
 C3235 C 0.80233 0.60624 0.80619
 C3236 C 0.80860 0.59929 0.79938
 C3237 C 0.80383 0.58977 0.79486
 C3238 C 0.79271 0.58708 0.79709
 C3239 C 0.78647 0.59414 0.80393
 C3240 C 0.79126 0.60365 0.80846
 C3241 C 0.78767 0.57694 0.79231
 C3242 C 0.77677 0.57713 0.78821
 C3243 C 0.77211 0.56760 0.78358
 C3244 C 0.77826 0.55778 0.78301
 C3245 C 0.78908 0.55750 0.78712
 C3246 C 0.79377 0.56701 0.79174
 C3247 C 0.77357 0.54800 0.77809
 C3248 C 0.76983 0.53975 0.77392
 H3249 H 0.81716 0.60124 0.79755
 H3250 H 0.80881 0.58460 0.78951
 H3251 H 0.77794 0.59222 0.80591
 H3252 H 0.78634 0.60897 0.81374
 H3253 H 0.77192 0.58468 0.78841
 H3254 H 0.76373 0.56792 0.78039
 H3255 H 0.79392 0.54993 0.78674
 H3256 H 0.80211 0.56656 0.79496
 C3257 C 0.81315 0.12456 0.31335
 C3258 C 0.80912 0.11642 0.30923
 C3259 C 0.80423 0.10671 0.30438
 C3260 C 0.81024 0.10034 0.29683
 C3261 C 0.80551 0.09087 0.29218
 C3262 C 0.79467 0.08764 0.29503
 C3263 C 0.78869 0.09413 0.30261
 C3264 C 0.79344 0.10359 0.30726
 C3265 C 0.78967 0.07753 0.29018
 C3266 C 0.77848 0.07744 0.28693
 C3267 C 0.77378 0.06788 0.28240
 C3268 C 0.78018 0.05830 0.28108
 C3269 C 0.79132 0.05830 0.28429
 C3270 C 0.79603 0.06784 0.28880
 C3271 C 0.77538 0.04846 0.27642
 C3272 C 0.77149 0.04015 0.27251
 H3273 H 0.81858 0.10270 0.29452
 H3274 H 0.81027 0.08613 0.28626
 H3275 H 0.78039 0.09179 0.30508
 H3276 H 0.78873 0.10845 0.31312
 H3277 H 0.77340 0.08480 0.28776
 H3278 H 0.76516 0.06798 0.27991
 H3279 H 0.79634 0.05092 0.28333
 H3280 H 0.80462 0.06760 0.29137
 C3281 C 0.68541 0.37517 0.31239
 C3282 C 0.68917 0.38338 0.30814
 C3283 C 0.69369 0.39320 0.30314
 C3284 C 0.69918 0.40104 0.30962
 C3285 C 0.70357 0.41060 0.30479
 C3286 C 0.70253 0.41243 0.29339
 C3287 C 0.69702 0.40448 0.28694
 C3288 C 0.69262 0.39493 0.29179
 C3289 C 0.70721 0.42257 0.28828
 C3290 C 0.71275 0.42202 0.27809
 C3291 C 0.71733 0.43157 0.27339
 C3292 C 0.71640 0.44177 0.27879
 C3293 C 0.71083 0.44241 0.28888
 C3294 C 0.70627 0.43289 0.29360
 C3295 C 0.72132 0.45155 0.27412
 C3296 C 0.72550 0.45981 0.27039
 H3297 H 0.70009 0.39976 0.31841
 H3298 H 0.70790 0.41648 0.30995
 H3299 H 0.69598 0.40571 0.27817
 H3300 H 0.68837 0.38892 0.28670
 H3301 H 0.71373 0.41419 0.27386
 H3302 H 0.72166 0.43097 0.26560
 H3303 H 0.71006 0.45027 0.29313
 H3304 H 0.70193 0.43360 0.30137
 C3305 C 0.68627 0.87523 0.81331
 C3306 C 0.69025 0.88339 0.80916
 C3307 C 0.69492 0.89318 0.80421
 C3308 C 0.69156 0.90369 0.80777
 C3309 C 0.69595 0.91321 0.80287
 C3310 C 0.70379 0.91234 0.79433
 C3311 C 0.70719 0.90174 0.79086
 C3312 C 0.70277 0.89222 0.79577
 C3313 C 0.70840 0.92246 0.78906
 C3314 C 0.71972 0.92309 0.78635
 C3315 C 0.72407 0.93267 0.78154
 C3316 C 0.71718 0.94175 0.77935
 C3317 C 0.70590 0.94118 0.78193
 C3318 C 0.70153 0.93161 0.78676
 C3319 C 0.72175 0.95173 0.77469
 C3320 C 0.72568 0.96011 0.77095
 H3321 H 0.68553 0.90452 0.81433
 H3322 H 0.69331 0.92124 0.80584
 H3323 H 0.71312 0.90080 0.78424
 H3324 H 0.70544 0.88413 0.79294
 H3325 H 0.72524 0.91625 0.78814
 H3326 H 0.73283 0.93304 0.77961
 H3327 H 0.70048 0.94815 0.78026
 H3328 H 0.69276 0.93132 0.78861
 C3329 C 0.18592 0.37519 0.81305
 C3330 C 0.18970 0.38337 0.80877
 C3331 C 0.19419 0.39313 0.80366
 C3332 C 0.19975 0.39234 0.79357
 C3333 C 0.20415 0.40183 0.78862
 C3334 C 0.20301 0.41225 0.79370
 C3335 C 0.19738 0.41296 0.80383
 C3336 C 0.19300 0.40346 0.80876
 C3337 C 0.20771 0.42234 0.78848
 C3338 C 0.20180 0.43240 0.78861
 C3339 C 0.20632 0.44194 0.78387
 C3340 C 0.21679 0.44155 0.77894
 C3341 C 0.22271 0.43157 0.77870
 C3342 C 0.21820 0.42202 0.78342
 C3343 C 0.22157 0.45145 0.77436
 C3344 C 0.22563 0.45979 0.77067
 H3345 H 0.20067 0.38439 0.78952
 H3346 H 0.20832 0.40105 0.78076
 H3347 H 0.19649 0.42083 0.80801
 H3348 H 0.18871 0.40416 0.81657
 H3349 H 0.19364 0.43287 0.79230
 H3350 H 0.20167 0.44962 0.78409
 H3351 H 0.23085 0.43120 0.77494
 H3352 H 0.22301 0.41444 0.78331
 C3353 C 0.18612 0.87538 0.31369
 C3354 C 0.19013 0.88351 0.30952
 C3355 C 0.19491 0.89322 0.30453
 C3356 C 0.19095 0.90376 0.30730
 C3357 C 0.19558 0.91319 0.30244
 C3358 C 0.20424 0.91220 0.29474
 C3359 C 0.20817 0.90156 0.29202
 C3360 C 0.20353 0.89214 0.29689
 C3361 C 0.20917 0.92222 0.28959
 C3362 C 0.22069 0.92298 0.28797
 C3363 C 0.22532 0.93245 0.28319
 C3364 C 0.21852 0.94127 0.27996
 C3365 C 0.20706 0.94058 0.28151
 C3366 C 0.20240 0.93112 0.28629
 C3367 C 0.22332 0.95109 0.27521
 C3368 C 0.22732 0.95936 0.27132
 H3369 H 0.18431 0.90469 0.31324
 H3370 H 0.19247 0.92127 0.30482
 H3371 H 0.21473 0.90051 0.28602
 H3372 H 0.20664 0.88401 0.29466
 H3373 H 0.22613 0.91632 0.29055
 H3374 H 0.23422 0.93291 0.28208
 H3375 H 0.20171 0.94736 0.27902
 H3376 H 0.19350 0.93073 0.28729
 C3377 C 0.37561 0.31344 0.68681
 C3378 C 0.38372 0.30949 0.69108
 C3379 C 0.39341 0.30482 0.69619
 C3380 C 0.39304 0.29418 0.70076
 C3381 C 0.40247 0.28964 0.70570
 C3382 C 0.41241 0.29571 0.70613
 C3383 C 0.41269 0.30641 0.70153
 C3384 C 0.40325 0.31093 0.69660
 C3385 C 0.42246 0.29088 0.71131
 C3386 C 0.43294 0.29237 0.70646
 C3387 C 0.44239 0.28774 0.71127
 C3388 C 0.44151 0.28158 0.72099
 C3389 C 0.43113 0.28007 0.72591
 C3390 C 0.42166 0.28468 0.72110
 C3391 C 0.45125 0.27669 0.72580
 C3392 C 0.45949 0.27258 0.72965
 H3393 H 0.38548 0.28936 0.70046
 H3394 H 0.40204 0.28133 0.70905
 H3395 H 0.42017 0.31135 0.70186
 H3396 H 0.40361 0.31920 0.69312
 H3397 H 0.43381 0.29696 0.69884
 H3398 H 0.45038 0.28892 0.70737
 H3399 H 0.43036 0.27532 0.73345
 H3400 H 0.41373 0.28351 0.72511
 C3401 C 0.37637 0.81364 0.18651
 C3402 C 0.38452 0.80964 0.19064
 C3403 C 0.39427 0.80482 0.19551
 C3404 C 0.39342 0.79842 0.20508
 C3405 C 0.40288 0.79362 0.20971
 C3406 C 0.41334 0.79517 0.20481
 C3407 C 0.41411 0.80167 0.19521
 C3408 C 0.40463 0.80645 0.19060
 C3409 C 0.42339 0.78998 0.20964
 C3410 C 0.43345 0.79585 0.21005
 C3411 C 0.44294 0.79092 0.21448
 C3412 C 0.44252 0.78007 0.21854
 C3413 C 0.43255 0.77417 0.21820
 C3414 C 0.42304 0.77909 0.21378
 C3415 C 0.45230 0.77506 0.22316
 C3416 C 0.46057 0.77106 0.22706
 H3417 H 0.38544 0.79714 0.20897
 H3418 H 0.40204 0.78879 0.21718
 H3419 H 0.42200 0.80289 0.19117
 H3420 H 0.40538 0.81137 0.18317
 H3421 H 0.43394 0.80429 0.20707
 H3422 H 0.45059 0.79558 0.21476
 H3423 H 0.43213 0.76577 0.22133
 H3424 H 0.41546 0.77431 0.21345
 C3425 C 0.87584 0.31177 0.18521
 C3426 C 0.88398 0.30752 0.18911
 C3427 C 0.89372 0.30248 0.19378
 C3428 C 0.90403 0.30392 0.18872
 C3429 C 0.91351 0.29911 0.19330
 C3430 C 0.91279 0.29279 0.20302
 C3431 C 0.90237 0.29135 0.20801
 C3432 C 0.89290 0.29617 0.20341
 C3433 C 0.92288 0.28782 0.20798
 C3434 C 0.92262 0.27708 0.21251
 C3435 C 0.93212 0.27246 0.21724
 C3436 C 0.94200 0.27851 0.21752
 C3437 C 0.94235 0.28919 0.21302
 C3438 C 0.93287 0.29382 0.20828
 C3439 C 0.95177 0.27385 0.22248
 C3440 C 0.96002 0.27010 0.22665
 H3441 H 0.90475 0.30876 0.18123
 H3442 H 0.92139 0.30025 0.18918
 H3443 H 0.90156 0.28665 0.21557
 H3444 H 0.88495 0.29502 0.20741
 H3445 H 0.91510 0.27221 0.21228
 H3446 H 0.93176 0.26418 0.22068
 H3447 H 0.94995 0.29396 0.21323
 H3448 H 0.93330 0.30216 0.20501
 C3449 C 0.87567 0.81405 0.68756
 C3450 C 0.88380 0.81020 0.69186
 C3451 C 0.89353 0.80562 0.69699
 C3452 C 0.90370 0.80587 0.69147
 C3453 C 0.91316 0.80143 0.69643
 C3454 C 0.91257 0.79668 0.70700
 C3455 C 0.90230 0.79648 0.71249
 C3456 C 0.89285 0.80093 0.70751
 C3457 C 0.92261 0.79191 0.71224
 C3458 C 0.92201 0.78189 0.71816
 C3459 C 0.93151 0.77731 0.72291
 C3460 C 0.94172 0.78267 0.72184
 C3461 C 0.94240 0.79267 0.71604
 C3462 C 0.93291 0.79727 0.71127
 C3463 C 0.95156 0.77779 0.72644
 C3464 C 0.95987 0.77365 0.73012
 H3465 H 0.90431 0.80946 0.68331
 H3466 H 0.92091 0.80157 0.69193
 H3467 H 0.90161 0.79300 0.72068
 H3468 H 0.88502 0.80073 0.71188
 H3469 H 0.91423 0.77749 0.71893
 H3470 H 0.93091 0.76953 0.72734
 H3471 H 0.95026 0.79690 0.71516
 H3472 H 0.93361 0.80506 0.70689
 C3473 C 0.62444 0.31141 0.31458
 C3474 C 0.61628 0.30720 0.31069
 C3475 C 0.60652 0.30224 0.30603
 C3476 C 0.60499 0.29075 0.30656
 C3477 C 0.59550 0.28594 0.30204
 C3478 C 0.58739 0.29258 0.29694
 C3479 C 0.58901 0.30412 0.29644
 C3480 C 0.59852 0.30890 0.30096
 C3481 C 0.57729 0.28751 0.29212
 C3482 C 0.56691 0.29269 0.29332
 C3483 C 0.55743 0.28802 0.28864
 C3484 C 0.55819 0.27810 0.28272
 C3485 C 0.56845 0.27284 0.28153
 C3486 C 0.57795 0.27749 0.28621
 C3487 C 0.54843 0.27346 0.27774
 C3488 C 0.54019 0.26973 0.27355
 H3489 H 0.61113 0.28552 0.31050
 H3490 H 0.59442 0.27706 0.30267
 H3491 H 0.58301 0.30943 0.29243
 H3492 H 0.59963 0.31780 0.30047
 H3493 H 0.56611 0.30032 0.29795
 H3494 H 0.54952 0.29215 0.28963
 H3495 H 0.56913 0.26518 0.27693
 H3496 H 0.58584 0.27337 0.28504
 C3497 C 0.62393 0.81267 0.81351
 C3498 C 0.61581 0.80856 0.80946
 C3499 C 0.60609 0.80363 0.80466
 C3500 C 0.60457 0.79214 0.80513
 C3501 C 0.59511 0.78734 0.80053
 C3502 C 0.58703 0.79399 0.79540
 C3503 C 0.58865 0.80553 0.79495
 C3504 C 0.59812 0.81031 0.79955
 C3505 C 0.57694 0.78891 0.79056
 C3506 C 0.56654 0.79406 0.79180
 C3507 C 0.55706 0.78932 0.78719
 C3508 C 0.55782 0.77940 0.78128
 C3509 C 0.56812 0.77420 0.78002
 C3510 C 0.57762 0.77891 0.78463
 C3511 C 0.54805 0.77462 0.77646
 C3512 C 0.53979 0.77075 0.77243
 H3513 H 0.61067 0.78690 0.80910
 H3514 H 0.59403 0.77845 0.80113
 H3515 H 0.58266 0.81085 0.79093
 H3516 H 0.59924 0.81921 0.79910
 H3517 H 0.56572 0.80167 0.79644
 H3518 H 0.54913 0.79340 0.78824
 H3519 H 0.56881 0.76653 0.77543
 H3520 H 0.58552 0.77483 0.78342
 C3521 C 0.12411 0.31243 0.81411
 C3522 C 0.11593 0.30844 0.81005
 C3523 C 0.10617 0.30371 0.80518
 C3524 C 0.09844 0.31056 0.79991
 C3525 C 0.08894 0.30599 0.79517
 C3526 C 0.08705 0.29449 0.79563
 C3527 C 0.09487 0.28768 0.80095
 C3528 C 0.10436 0.29227 0.80569
 C3529 C 0.07695 0.28961 0.79062
 C3530 C 0.07754 0.27955 0.78480
 C3531 C 0.06801 0.27492 0.78016
 C3532 C 0.05779 0.28029 0.78126
 C3533 C 0.05712 0.29031 0.78701
 C3534 C 0.06663 0.29496 0.79166
 C3535 C 0.04798 0.27550 0.77653
 C3536 C 0.03974 0.27153 0.77258
 H3537 H 0.09977 0.31943 0.79946
 H3538 H 0.08315 0.31144 0.79104
 H3539 H 0.09355 0.27883 0.80158
 H3540 H 0.11026 0.28690 0.80979
 H3541 H 0.08538 0.27531 0.78373
 H3542 H 0.06863 0.26717 0.77570
 H3543 H 0.04924 0.29451 0.78796
 H3544 H 0.06589 0.30264 0.79620
 C3545 C 0.12391 0.81277 0.31359
 C3546 C 0.11581 0.80865 0.30951
 C3547 C 0.10612 0.80368 0.30471
 C3548 C 0.09812 0.81033 0.29960
 C3549 C 0.08866 0.80551 0.29503
 C3550 C 0.08707 0.79397 0.29551
 C3551 C 0.09518 0.78735 0.30063
 C3552 C 0.10463 0.79219 0.30520
 C3553 C 0.07696 0.78886 0.29073
 C3554 C 0.07763 0.77884 0.28484
 C3555 C 0.06811 0.77408 0.28031
 C3556 C 0.05781 0.77926 0.28162
 C3557 C 0.05706 0.78921 0.28750
 C3558 C 0.06657 0.79399 0.29202
 C3559 C 0.04802 0.77447 0.27686
 C3560 C 0.03974 0.77062 0.27284
 H3561 H 0.09920 0.81923 0.29915
 H3562 H 0.08264 0.81081 0.29101
 H3563 H 0.09413 0.77846 0.30125
 H3564 H 0.11075 0.78697 0.30917
 H3565 H 0.08553 0.77477 0.28360
 H3566 H 0.06878 0.76640 0.27574
 H3567 H 0.04913 0.79329 0.28858
 H3568 H 0.06576 0.80162 0.29663
 C3569 C 0.62473 0.68717 0.68580
 C3570 C 0.61658 0.69126 0.68986
 C3571 C 0.60683 0.69615 0.69466
 C3572 C 0.60328 0.70665 0.69125
 C3573 C 0.59376 0.71138 0.69585
 C3574 C 0.58766 0.70564 0.70391
 C3575 C 0.59131 0.69509 0.70729
 C3576 C 0.60084 0.69038 0.70268
 C3577 C 0.57749 0.71060 0.70874
 C3578 C 0.56809 0.70402 0.71073
 C3579 C 0.55852 0.70867 0.71529
 C3580 C 0.55821 0.71996 0.71791
 C3581 C 0.56751 0.72659 0.71596
 C3582 C 0.57709 0.72195 0.71139
 C3583 C 0.54835 0.72468 0.72265
 C3584 C 0.54002 0.72847 0.72664
 H3585 H 0.60784 0.71117 0.68501
 H3586 H 0.59108 0.71944 0.69298
 H3587 H 0.58688 0.69052 0.71358
 H3588 H 0.60353 0.68225 0.70539
 H3589 H 0.56808 0.69529 0.70864
 H3590 H 0.55136 0.70347 0.71674
 H3591 H 0.56737 0.73533 0.71799
 H3592 H 0.58424 0.72720 0.71008
 C3593 C 0.62489 0.18702 0.18556
 C3594 C 0.61676 0.19114 0.18964
 C3595 C 0.60705 0.19606 0.19449
 C3596 C 0.60245 0.20567 0.18993
 C3597 C 0.59295 0.21040 0.19458
 C3598 C 0.58793 0.20555 0.20387
 C3599 C 0.59265 0.19591 0.20842
 C3600 C 0.60215 0.19121 0.20376
 C3601 C 0.57778 0.21050 0.20877
 C3602 C 0.56910 0.20368 0.21250
 C3603 C 0.55954 0.20834 0.21706
 C3604 C 0.55851 0.21986 0.21797
 C3605 C 0.56709 0.22671 0.21430
 C3606 C 0.57667 0.22207 0.20972
 C3607 C 0.54864 0.22460 0.22269
 C3608 C 0.54032 0.22843 0.22667
 H3609 H 0.60616 0.20949 0.18274
 H3610 H 0.58943 0.21774 0.19080
 H3611 H 0.58908 0.19207 0.21566
 H3612 H 0.60568 0.18380 0.20738
 H3613 H 0.56964 0.19475 0.21174
 H3614 H 0.55293 0.20296 0.21986
 H3615 H 0.56639 0.23564 0.21500
 H3616 H 0.58326 0.22753 0.20706
 C3617 C 0.12444 0.68738 0.18542
 C3618 C 0.11631 0.69147 0.18952
 C3619 C 0.10658 0.69636 0.19436
 C3620 C 0.10306 0.70690 0.19103
 C3621 C 0.09356 0.71163 0.19567
 C3622 C 0.08744 0.70585 0.20369
 C3623 C 0.09107 0.69527 0.20700
 C3624 C 0.10057 0.69056 0.20236
 C3625 C 0.07730 0.71082 0.20856
 C3626 C 0.06788 0.70425 0.21054
 C3627 C 0.05834 0.70891 0.21513
 C3628 C 0.05806 0.72019 0.21781
 C3629 C 0.06737 0.72680 0.21587
 C3630 C 0.07693 0.72216 0.21127
 C3631 C 0.04822 0.72492 0.22259
 C3632 C 0.03992 0.72873 0.22660
 H3633 H 0.10764 0.71144 0.18482
 H3634 H 0.09091 0.71972 0.19285
 H3635 H 0.08662 0.69068 0.21326
 H3636 H 0.10324 0.68241 0.20501
 H3637 H 0.06785 0.69554 0.20841
 H3638 H 0.05116 0.70372 0.21658
 H3639 H 0.06726 0.73553 0.21794
 H3640 H 0.08409 0.72740 0.20997
 C3641 C 0.12456 0.18628 0.68596
 C3642 C 0.11642 0.19027 0.69013
 C3643 C 0.10667 0.19506 0.69504
 C3644 C 0.09679 0.19560 0.68906
 C3645 C 0.08733 0.20034 0.69376
 C3646 C 0.08764 0.20460 0.70455
 C3647 C 0.09761 0.20398 0.71051
 C3648 C 0.10706 0.19925 0.70578
 C3649 C 0.07761 0.20968 0.70952
 C3650 C 0.07485 0.20764 0.72060
 C3651 C 0.06533 0.21235 0.72523
 C3652 C 0.05847 0.21916 0.71886
 C3653 C 0.06116 0.22127 0.70785
 C3654 C 0.07066 0.21657 0.70320
 C3655 C 0.04858 0.22387 0.72355
 C3656 C 0.04024 0.22774 0.72744
 H3657 H 0.09639 0.19236 0.68075
 H3658 H 0.07974 0.20055 0.68902
 H3659 H 0.09814 0.20730 0.71878
 H3660 H 0.11468 0.19890 0.71048
 H3661 H 0.07995 0.20226 0.72563
 H3662 H 0.06330 0.21062 0.73375
 H3663 H 0.05591 0.22654 0.70285
 H3664 H 0.07264 0.21840 0.69470
 C3665 C 0.37573 0.68630 0.31268
 C3666 C 0.38397 0.69020 0.30863
 C3667 C 0.39383 0.69497 0.30395
 C3668 C 0.39455 0.69686 0.29260
 C3669 C 0.40406 0.70168 0.28811
 C3670 C 0.41297 0.70471 0.29494
 C3671 C 0.41218 0.70273 0.30633
 C3672 C 0.40267 0.69789 0.31080
 C3673 C 0.42304 0.70994 0.29021
 C3674 C 0.42826 0.71879 0.29567
 C3675 C 0.43778 0.72367 0.29125
 C3676 C 0.44220 0.71976 0.28133
 C3677 C 0.43706 0.71098 0.27582
 C3678 C 0.42753 0.70611 0.28022
 C3679 C 0.45209 0.72465 0.27685
 C3680 C 0.46043 0.72856 0.27303
 H3681 H 0.38773 0.69466 0.28724
 H3682 H 0.40437 0.70321 0.27933
 H3683 H 0.41897 0.70482 0.31177
 H3684 H 0.40221 0.69645 0.31959
 H3685 H 0.42491 0.72202 0.30330
 H3686 H 0.44169 0.73047 0.29557
 H3687 H 0.44044 0.70787 0.26816
 H3688 H 0.42378 0.69922 0.27589
 C3689 C 0.37504 0.18531 0.81321
 C3690 C 0.38319 0.18909 0.80888
 C3691 C 0.39294 0.19360 0.80374
 C3692 C 0.40264 0.18726 0.80312
 C3693 C 0.41215 0.19166 0.79821
 C3694 C 0.41207 0.20246 0.79384
 C3695 C 0.40226 0.20875 0.79446
 C3696 C 0.39277 0.20434 0.79939
 C3697 C 0.42220 0.20719 0.78875
 C3698 C 0.42152 0.21359 0.77908
 C3699 C 0.43106 0.21815 0.77437
 C3700 C 0.44140 0.21638 0.77928
 C3701 C 0.44217 0.21001 0.78888
 C3702 C 0.43265 0.20543 0.79358
 C3703 C 0.45121 0.22125 0.77460
 C3704 C 0.45949 0.22536 0.77086
 H3705 H 0.40286 0.17892 0.80643
 H3706 H 0.41953 0.18657 0.79773
 H3707 H 0.40199 0.21714 0.79130
 H3708 H 0.38531 0.20933 0.79986
 H3709 H 0.41361 0.21498 0.77509
 H3710 H 0.43037 0.22307 0.76694
 H3711 H 0.45013 0.20864 0.79277
 H3712 H 0.43343 0.20068 0.80111
 C3713 C 0.87519 0.68513 0.81178
 C3714 C 0.88333 0.68889 0.80740
 C3715 C 0.89305 0.69341 0.80222
 C3716 C 0.90213 0.68657 0.79991
 C3717 C 0.91164 0.69100 0.79502
 C3718 C 0.91218 0.70234 0.79236
 C3719 C 0.90298 0.70913 0.79466
 C3720 C 0.89349 0.70469 0.79957
 C3721 C 0.92234 0.70710 0.78734
 C3722 C 0.92159 0.71508 0.77891
 C3723 C 0.93117 0.71970 0.77434
 C3724 C 0.94162 0.71641 0.77813
 C3725 C 0.94245 0.70844 0.78646
 C3726 C 0.93289 0.70380 0.79104
 C3727 C 0.95148 0.72136 0.77364
 C3728 C 0.95979 0.72554 0.77003
 H3729 H 0.90187 0.67782 0.80191
 H3730 H 0.91853 0.68553 0.79322
 H3731 H 0.90320 0.71792 0.79286
 H3732 H 0.88652 0.71007 0.80136
 H3733 H 0.91360 0.71768 0.77579
 H3734 H 0.93043 0.72585 0.76788
 H3735 H 0.95050 0.70587 0.78950
 H3736 H 0.93375 0.69779 0.79761
 C3737 C 0.87517 0.18741 0.31419
 C3738 C 0.88334 0.19151 0.31020
 C3739 C 0.89312 0.19641 0.30548
 C3740 C 0.89934 0.19054 0.29769
 C3741 C 0.90887 0.19525 0.29313
 C3742 C 0.91231 0.20592 0.29632
 C3743 C 0.90598 0.21177 0.30413
 C3744 C 0.89646 0.20703 0.30868
 C3745 C 0.92249 0.21090 0.29154
 C3746 C 0.92277 0.22218 0.28861
 C3747 C 0.93234 0.22683 0.28406
 C3748 C 0.94176 0.22026 0.28240
 C3749 C 0.94158 0.20904 0.28531
 C3750 C 0.93201 0.20438 0.28985
 C3751 C 0.95160 0.22497 0.27763
 C3752 C 0.95991 0.22876 0.27361
 H3753 H 0.89682 0.18232 0.29512
 H3754 H 0.91348 0.19061 0.28703
 H3755 H 0.90849 0.21993 0.30685
 H3756 H 0.89172 0.21163 0.31473
 H3757 H 0.91553 0.22738 0.28969
 H3758 H 0.93239 0.23552 0.28180
 H3759 H 0.94883 0.20388 0.28408
 H3760 H 0.93211 0.19571 0.29215
 C3761 C 0.31311 0.31304 0.62412
 C3762 C 0.30912 0.30902 0.61595
 C3763 C 0.30441 0.30425 0.60615
 C3764 C 0.31105 0.30249 0.59686
 C3765 C 0.30649 0.29792 0.58732
 C3766 C 0.29521 0.29503 0.58693
 C3767 C 0.28860 0.29681 0.59632
 C3768 C 0.29318 0.30139 0.60586
 C3769 C 0.29037 0.29020 0.57676
 C3770 C 0.28272 0.28143 0.57739
 C3771 C 0.27828 0.27682 0.56780
 C3772 C 0.28142 0.28090 0.55747
 C3773 C 0.28897 0.28966 0.55676
 C3774 C 0.29342 0.29428 0.56634
 C3775 C 0.27689 0.27614 0.54759
 C3776 C 0.27310 0.27224 0.53927
 H3777 H 0.31977 0.30463 0.59701
 H3778 H 0.31183 0.29651 0.58028
 H3779 H 0.27986 0.29480 0.59624
 H3780 H 0.28796 0.30274 0.61300
 H3781 H 0.28029 0.27803 0.58528
 H3782 H 0.27244 0.27003 0.56844
 H3783 H 0.29141 0.29293 0.54881
 H3784 H 0.29916 0.30113 0.56559
 C3785 C 0.31385 0.81305 0.12393
 C3786 C 0.30984 0.80895 0.11580
 C3787 C 0.30507 0.80408 0.10610
 C3788 C 0.30809 0.79335 0.10290
 C3789 C 0.30349 0.78863 0.09345
 C3790 C 0.29579 0.79458 0.08706
 C3791 C 0.29280 0.80536 0.09036
 C3792 C 0.29742 0.81007 0.09981
 C3793 C 0.29093 0.78961 0.07699
 C3794 C 0.27965 0.79116 0.07447
 C3795 C 0.27512 0.78658 0.06492
 C3796 C 0.28178 0.78040 0.05775
 C3797 C 0.29300 0.77878 0.06019
 C3798 C 0.29755 0.78334 0.06975
 C3799 C 0.27714 0.77583 0.04784
 C3800 C 0.27329 0.77205 0.03950
 H3801 H 0.31399 0.78863 0.10773
 H3802 H 0.30585 0.78027 0.09120
 H3803 H 0.28701 0.81022 0.08553
 H3804 H 0.29505 0.81840 0.10218
 H3805 H 0.27432 0.79581 0.07996
 H3806 H 0.26642 0.78787 0.06312
 H3807 H 0.29824 0.77404 0.05468
 H3808 H 0.30628 0.78212 0.07138
 C3809 C 0.81231 0.31427 0.12369
 C3810 C 0.80807 0.31043 0.11557
 C3811 C 0.80308 0.30578 0.10586
 C3812 C 0.80941 0.29920 0.09875
 C3813 C 0.80458 0.29459 0.08937
 C3814 C 0.79334 0.29649 0.08696
 C3815 C 0.78705 0.30315 0.09414
 C3816 C 0.79189 0.30776 0.10353
 C3817 C 0.78822 0.29153 0.07700
 C3818 C 0.78076 0.29767 0.07051
 C3819 C 0.77617 0.29305 0.06100
 C3820 C 0.77896 0.28224 0.05787
 C3821 C 0.78628 0.27602 0.06433
 C3822 C 0.79088 0.28062 0.07383
 C3823 C 0.77449 0.27757 0.04793
 C3824 C 0.77087 0.27363 0.03956
 H3825 H 0.81808 0.29765 0.10046
 H3826 H 0.80968 0.28964 0.08392
 H3827 H 0.77834 0.30467 0.09257
 H3828 H 0.78691 0.31282 0.10900
 H3829 H 0.77865 0.30612 0.07267
 H3830 H 0.77053 0.29795 0.05604
 H3831 H 0.78847 0.26763 0.06199
 H3832 H 0.79646 0.27563 0.07874
 C3833 C 0.81400 0.81300 0.62407
 C3834 C 0.81015 0.80886 0.61588
 C3835 C 0.80562 0.80393 0.60608
 C3836 C 0.81240 0.80214 0.59690
 C3837 C 0.80804 0.79737 0.58736
 C3838 C 0.79680 0.79430 0.58688
 C3839 C 0.79005 0.79614 0.59615
 C3840 C 0.79443 0.80093 0.60568
 C3841 C 0.79216 0.78923 0.57674
 C3842 C 0.78461 0.78038 0.57743
 C3843 C 0.78020 0.77566 0.56789
 C3844 C 0.78327 0.77972 0.55753
 C3845 C 0.79080 0.78849 0.55675
 C3846 C 0.79523 0.79321 0.56628
 C3847 C 0.77852 0.77505 0.54771
 C3848 C 0.77448 0.77130 0.53944
 H3849 H 0.82108 0.80441 0.59712
 H3850 H 0.81348 0.79595 0.58041
 H3851 H 0.78134 0.79401 0.59598
 H3852 H 0.78909 0.80231 0.61272
 H3853 H 0.78220 0.77703 0.58536
 H3854 H 0.77438 0.76886 0.56858
 H3855 H 0.79319 0.79173 0.54877
 H3856 H 0.80091 0.80010 0.56548
 C3857 C 0.31436 0.68798 0.37633
 C3858 C 0.31053 0.69214 0.38452
 C3859 C 0.30596 0.69706 0.39431
 C3860 C 0.30052 0.69044 0.40206
 C3861 C 0.29606 0.69519 0.41158
 C3862 C 0.29697 0.70666 0.41346
 C3863 C 0.30246 0.71326 0.40560
 C3864 C 0.30692 0.70848 0.39609
 C3865 C 0.29220 0.71172 0.42355
 C3866 C 0.28665 0.72197 0.42305
 C3867 C 0.28205 0.72665 0.43254
 C3868 C 0.28295 0.72115 0.44266
 C3869 C 0.28850 0.71098 0.44325
 C3870 C 0.29310 0.70629 0.43377
 C3871 C 0.27807 0.72585 0.45241
 C3872 C 0.27395 0.72964 0.46063
 H3873 H 0.29970 0.68159 0.40074
 H3874 H 0.29175 0.68992 0.41739
 H3875 H 0.30342 0.72209 0.40688
 H3876 H 0.31114 0.71368 0.39015
 H3877 H 0.28571 0.72629 0.41529
 H3878 H 0.27773 0.73451 0.43199
 H3879 H 0.28926 0.70667 0.45105
 H3880 H 0.29745 0.69846 0.43446
 C3881 C 0.31289 0.18765 0.87637
 C3882 C 0.30879 0.19184 0.88442
 C3883 C 0.30381 0.19673 0.89404
 C3884 C 0.30990 0.20398 0.90068
 C3885 C 0.30510 0.20856 0.91013
 C3886 C 0.29414 0.20592 0.91309
 C3887 C 0.28806 0.19869 0.90631
 C3888 C 0.29287 0.19414 0.89686
 C3889 C 0.28911 0.21060 0.92325
 C3890 C 0.28248 0.20394 0.93012
 C3891 C 0.27781 0.20830 0.93973
 C3892 C 0.27967 0.21937 0.94260
 C3893 C 0.28624 0.22607 0.93581
 C3894 C 0.29093 0.22172 0.92621
 C3895 C 0.27497 0.22383 0.95256
 C3896 C 0.27114 0.22762 0.96094
 H3897 H 0.31838 0.20604 0.89859
 H3898 H 0.31003 0.21401 0.91524
 H3899 H 0.27956 0.19663 0.90827
 H3900 H 0.28806 0.18857 0.89176
 H3901 H 0.28105 0.19530 0.92815
 H3902 H 0.27280 0.20302 0.94495
 H3903 H 0.28773 0.23466 0.93795
 H3904 H 0.29588 0.22709 0.92103
 C3905 C 0.81446 0.68786 0.87615
 C3906 C 0.81069 0.69210 0.88432
 C3907 C 0.80614 0.69709 0.89410
 C3908 C 0.80004 0.69065 0.90152
 C3909 C 0.79561 0.69546 0.91102
 C3910 C 0.79722 0.70679 0.91323
 C3911 C 0.80336 0.71320 0.90571
 C3912 C 0.80779 0.70837 0.89621
 C3913 C 0.79249 0.71189 0.92333
 C3914 C 0.78764 0.72250 0.92296
 C3915 C 0.78303 0.72719 0.93245
 C3916 C 0.78323 0.72136 0.94241
 C3917 C 0.78810 0.71084 0.94287
 C3918 C 0.79271 0.70613 0.93341
 C3919 C 0.77831 0.72606 0.95215
 C3920 C 0.77415 0.72982 0.96036
 H3921 H 0.79867 0.68192 0.89995
 H3922 H 0.79079 0.69034 0.91657
 H3923 H 0.80485 0.72191 0.90724
 H3924 H 0.81253 0.71342 0.89053
 H3925 H 0.78724 0.72708 0.91531
 H3926 H 0.77925 0.73533 0.93200
 H3927 H 0.78832 0.70626 0.95055
 H3928 H 0.79652 0.69802 0.93399
 C3929 C 0.81229 0.18640 0.37652
 C3930 C 0.80808 0.19036 0.38462
 C3931 C 0.80306 0.19508 0.39429
 C3932 C 0.80905 0.20245 0.40087
 C3933 C 0.80420 0.20703 0.41028
 C3934 C 0.79327 0.20428 0.41324
 C3935 C 0.78731 0.19686 0.40657
 C3936 C 0.79218 0.19230 0.39715
 C3937 C 0.78814 0.20912 0.42327
 C3938 C 0.78154 0.20256 0.43026
 C3939 C 0.77686 0.20709 0.43979
 C3940 C 0.77869 0.21822 0.44243
 C3941 C 0.78518 0.22483 0.43550
 C3942 C 0.78987 0.22032 0.42598
 C3943 C 0.77408 0.22285 0.45235
 C3944 C 0.77037 0.22680 0.46069
 H3945 H 0.81749 0.20463 0.39875
 H3946 H 0.80905 0.21259 0.41533
 H3947 H 0.77884 0.19469 0.40856
 H3948 H 0.78745 0.18662 0.39209
 H3949 H 0.78016 0.19388 0.42846
 H3950 H 0.77188 0.20189 0.44512
 H3951 H 0.78663 0.23346 0.43747
 H3952 H 0.79478 0.22561 0.42069
 C3953 C 0.68804 0.31366 0.37601
 C3954 C 0.69223 0.30984 0.38419
 C3955 C 0.69716 0.30527 0.39397
 C3956 C 0.69043 0.30186 0.40272
 C3957 C 0.69518 0.29737 0.41222
 C3958 C 0.70675 0.29621 0.41310
 C3959 C 0.71345 0.29969 0.40426
 C3960 C 0.70868 0.30418 0.39476
 C3961 C 0.71178 0.29138 0.42317
 C3962 C 0.72155 0.29586 0.42765
 C3963 C 0.72620 0.29135 0.43719
 C3964 C 0.72118 0.28229 0.44237
 C3965 C 0.71150 0.27774 0.43795
 C3966 C 0.70683 0.28224 0.42842
 C3967 C 0.72584 0.27770 0.45227
 C3968 C 0.72957 0.27377 0.46062
 H3969 H 0.68151 0.30270 0.40221
 H3970 H 0.68981 0.29491 0.41894
 H3971 H 0.72237 0.29879 0.40463
 H3972 H 0.71397 0.30676 0.38802
 H3973 H 0.72548 0.30297 0.42386
 H3974 H 0.73368 0.29496 0.44056
 H3975 H 0.70755 0.27071 0.44188
 H3976 H 0.69940 0.27850 0.42509
 C3977 C 0.68618 0.81276 0.87621
 C3978 C 0.69013 0.80862 0.88434
 C3979 C 0.69477 0.80363 0.89407
 C3980 C 0.68778 0.79932 0.90221
 C3981 C 0.69226 0.79444 0.91165
 C3982 C 0.70381 0.79379 0.91308
 C3983 C 0.71077 0.79815 0.90484
 C3984 C 0.70627 0.80303 0.89540
 C3985 C 0.70857 0.78864 0.92313
 C3986 C 0.71800 0.78179 0.92243
 C3987 C 0.72253 0.77704 0.93192
 C3988 C 0.71772 0.77907 0.94221
 C3989 C 0.70833 0.78583 0.94298
 C3990 C 0.70377 0.79058 0.93351
 C3991 C 0.72256 0.77443 0.95201
 C3992 C 0.72665 0.77070 0.96027
 H3993 H 0.67886 0.79971 0.90124
 H3994 H 0.68669 0.79105 0.91778
 H3995 H 0.71969 0.79791 0.90577
 H3996 H 0.71175 0.80637 0.88917
 H3997 H 0.72180 0.78003 0.91454
 H3998 H 0.72981 0.77181 0.93123
 H3999 H 0.70457 0.78750 0.95092
 H4000 H 0.69661 0.79593 0.93434
 C4001 C 0.18684 0.31339 0.87657
 C4002 C 0.19097 0.30943 0.88472
 C4003 C 0.19591 0.30471 0.89445
 C4004 C 0.20743 0.30472 0.89573
 C4005 C 0.21223 0.30019 0.90519
 C4006 C 0.20556 0.29561 0.91354
 C4007 C 0.19398 0.29561 0.91217
 C4008 C 0.18920 0.30013 0.90268
 C4009 C 0.21066 0.29103 0.92371
 C4010 C 0.20582 0.29303 0.93407
 C4011 C 0.21067 0.28884 0.94366
 C4012 C 0.22041 0.28256 0.94304
 C4013 C 0.22533 0.28056 0.93279
 C4014 C 0.22049 0.28476 0.92319
 C4015 C 0.22518 0.27800 0.95292
 C4016 C 0.22900 0.27410 0.96125
 H4017 H 0.21270 0.30827 0.88943
 H4018 H 0.22115 0.30046 0.90608
 H4019 H 0.18863 0.29204 0.91838
 H4020 H 0.18027 0.30005 0.90177
 H4021 H 0.19836 0.29798 0.93477
 H4022 H 0.20683 0.29051 0.95155
 H4023 H 0.23288 0.27572 0.93221
 H4024 H 0.22436 0.28298 0.91534
 C4025 C 0.18631 0.81249 0.37613
 C4026 C 0.19026 0.80831 0.38425
 C4027 C 0.19490 0.80328 0.39396
 C4028 C 0.20639 0.80304 0.39548
 C4029 C 0.21089 0.79816 0.40492
 C4030 C 0.20394 0.79346 0.41298
 C4031 C 0.19240 0.79374 0.41136
 C4032 C 0.18792 0.79861 0.40191
 C4033 C 0.20871 0.78838 0.42307
 C4034 C 0.20366 0.79006 0.43338
 C4035 C 0.20823 0.78540 0.44290
 C4036 C 0.21788 0.77899 0.44224
 C4037 C 0.22294 0.77723 0.43201
 C4038 C 0.21839 0.78189 0.42249
 C4039 C 0.22270 0.77443 0.45208
 C4040 C 0.22677 0.77075 0.46038
 H4041 H 0.21186 0.80665 0.38939
 H4042 H 0.21979 0.79822 0.40600
 H4043 H 0.18685 0.79007 0.41734
 H4044 H 0.17902 0.79872 0.40080
 H4045 H 0.19630 0.79514 0.43413
 H4046 H 0.20428 0.78687 0.45078
 H4047 H 0.23041 0.77228 0.43141
 H4048 H 0.22239 0.78033 0.41465
 C4049 C 0.68721 0.68725 0.62319
 C4050 C 0.69124 0.69139 0.61509
 C4051 C 0.69598 0.69635 0.60540
 C4052 C 0.70235 0.70600 0.60627
 C4053 C 0.70688 0.71087 0.59684
 C4054 C 0.70510 0.70614 0.58640
 C4055 C 0.69870 0.69643 0.58562
 C4056 C 0.69418 0.69158 0.59506
 C4057 C 0.70990 0.71130 0.57636
 C4058 C 0.71448 0.70466 0.56800
 C4059 C 0.71894 0.70951 0.55853
 C4060 C 0.71888 0.72104 0.55728
 C4061 C 0.71435 0.72773 0.56555
 C4062 C 0.70989 0.72290 0.57504
 C4063 C 0.72354 0.72595 0.54752
 C4064 C 0.72752 0.72986 0.53928
 H4065 H 0.70383 0.70974 0.61424
 H4066 H 0.71188 0.71826 0.59772
 H4067 H 0.69706 0.69268 0.57769
 H4068 H 0.68923 0.68413 0.59428
 H4069 H 0.71475 0.69573 0.56884
 H4070 H 0.72248 0.70426 0.55219
 H4071 H 0.71424 0.73666 0.56466
 H4072 H 0.70629 0.72822 0.58127
 C4073 C 0.68759 0.18669 0.12302
 C4074 C 0.69179 0.19071 0.11495
 C4075 C 0.69681 0.19551 0.10532
 C4076 C 0.69069 0.20265 0.09857
 C4077 C 0.69556 0.20734 0.08923
 C4078 C 0.70664 0.20494 0.08649
 C4079 C 0.71272 0.19774 0.09331
 C4080 C 0.70784 0.19306 0.10267
 C4081 C 0.71181 0.20996 0.07658
 C4082 C 0.71880 0.20365 0.06974
 C4083 C 0.72350 0.20836 0.06031
 C4084 C 0.72129 0.21942 0.05761
 C4085 C 0.71443 0.22579 0.06441
 C4086 C 0.70971 0.22110 0.07383
 C4087 C 0.72589 0.22419 0.04777
 C4088 C 0.72963 0.22819 0.03947
 H4089 H 0.68214 0.20458 0.10053
 H4090 H 0.69061 0.21273 0.08406
 H4091 H 0.72130 0.19584 0.09150
 H4092 H 0.71267 0.18757 0.10785
 H4093 H 0.72047 0.19502 0.07156
 H4094 H 0.72879 0.20334 0.05508
 H4095 H 0.71269 0.23437 0.06241
 H4096 H 0.70450 0.22621 0.07901
 C4097 C 0.18704 0.68777 0.12293
 C4098 C 0.19113 0.69193 0.11486
 C4099 C 0.19601 0.69689 0.10524
 C4100 C 0.20301 0.69064 0.09845
 C4101 C 0.20774 0.69544 0.08909
 C4102 C 0.20551 0.70657 0.08637
 C4103 C 0.19846 0.71278 0.09325
 C4104 C 0.19375 0.70796 0.10262
 C4105 C 0.21049 0.71165 0.07640
 C4106 C 0.20421 0.71877 0.06966
 C4107 C 0.20888 0.72348 0.06022
 C4108 C 0.21988 0.72116 0.05739
 C4109 C 0.22621 0.71412 0.06406
 C4110 C 0.22156 0.70939 0.07350
 C4111 C 0.22463 0.72590 0.04760
 C4112 C 0.22857 0.72982 0.03935
 H4113 H 0.20478 0.68205 0.10039
 H4114 H 0.21301 0.69040 0.08388
 H4115 H 0.19670 0.72139 0.09146
 H4116 H 0.18837 0.71288 0.10783
 H4117 H 0.19564 0.72056 0.07159
 H4118 H 0.20390 0.72888 0.05509
 H4119 H 0.23474 0.71228 0.06195
 H4120 H 0.22665 0.70406 0.07859
 C4121 C 0.18699 0.18713 0.62317
 C4122 C 0.19105 0.19124 0.61507
 C4123 C 0.19592 0.19612 0.60540
 C4124 C 0.19133 0.20573 0.60083
 C4125 C 0.19603 0.21047 0.59142
 C4126 C 0.20539 0.20564 0.58644
 C4127 C 0.20995 0.19597 0.59110
 C4128 C 0.20524 0.19125 0.60052
 C4129 C 0.21033 0.21063 0.57639
 C4130 C 0.21404 0.20386 0.56771
 C4131 C 0.21855 0.20857 0.55819
 C4132 C 0.21941 0.22010 0.55723
 C4133 C 0.21580 0.22690 0.56584
 C4134 C 0.21128 0.22221 0.57536
 C4135 C 0.22397 0.22492 0.54739
 C4136 C 0.22779 0.22889 0.53910
 H4137 H 0.18409 0.20955 0.60452
 H4138 H 0.19224 0.21782 0.58794
 H4139 H 0.21723 0.19214 0.58754
 H4140 H 0.20887 0.18382 0.60401
 H4141 H 0.21330 0.19493 0.56820
 H4142 H 0.22131 0.20323 0.55156
 H4143 H 0.21647 0.23583 0.56519
 H4144 H 0.20864 0.22763 0.58197
   
