data_POSCAR
  _audit_creation_date              2014-09-24
  _audit_creation_method            'ToBaCCo'
  _symmetry_space_group_name_H-M    'P1'
  _symmetry_Int_Tables_number       1
  _symmetry_cell_setting            triclinic
  loop_
  _symmetry_equiv_pos_as_xyz
 x,y,z
_cell_length_a 59.6963
_cell_length_b 59.6890
_cell_length_c 59.6479
_cell_angle_alpha 90.029300
_cell_angle_beta 89.992700
_cell_angle_gamma 89.980700
loop_
  _atom_site_label
  _atom_site_type_symbol
  _atom_site_fract_x
  _atom_site_fract_y
  _atom_site_fract_z
O1 O 0.88131 0.15990 0.81934
 O2 O 0.90569 0.12859 0.81244
 O3 O 0.82346 0.12769 0.84765
 O4 O 0.81464 0.10744 0.87710
 O5 O 0.85227 0.18733 0.87827
 O6 O 0.88373 0.19310 0.90230
 O7 O 0.88224 0.07060 0.90860
 O8 O 0.85587 0.06469 0.87931
 O9 O 0.93941 0.09677 0.87752
 O10 O 0.94732 0.12784 0.85311
 O11 O 0.91282 0.12688 0.93514
 O12 O 0.88202 0.15298 0.94255
 O13 O 0.88276 0.09779 0.93525
 O14 O 0.85713 0.13021 0.94191
 O15 O 0.93975 0.12613 0.90828
 O16 O 0.94619 0.15304 0.87563
 O17 O 0.91234 0.07015 0.87856
 O18 O 0.88114 0.06372 0.85258
 O19 O 0.88286 0.18657 0.84651
 O20 O 0.90839 0.19225 0.87721
 O21 O 0.82476 0.16103 0.87813
 O22 O 0.81962 0.12963 0.90510
 O23 O 0.84968 0.12777 0.82002
 O24 O 0.88110 0.10360 0.81302
 Zr25 Zr 0.88050 0.12936 0.83735
 O26 O 0.90153 0.10820 0.85634
 Zr27 Zr 0.84186 0.13011 0.87743
 O28 O 0.86087 0.10848 0.89782
 Zr29 Zr 0.88201 0.16863 0.87672
 O30 O 0.90265 0.14915 0.89761
 Zr31 Zr 0.88211 0.08846 0.87813
 O32 O 0.86080 0.10792 0.85739
 Zr33 Zr 0.92186 0.12732 0.87780
 O34 O 0.90297 0.14865 0.85659
 Zr35 Zr 0.88266 0.12799 0.91736
 O36 O 0.86194 0.14975 0.89866
 O37 O 0.86039 0.15052 0.85624
 O38 O 0.90333 0.10667 0.89895
 C39 C 0.88235 0.18047 0.82586
 C40 C 0.82925 0.12689 0.82693
 C41 C 0.83157 0.18148 0.87864
 C42 C 0.88264 0.07717 0.92915
 C43 C 0.93303 0.07620 0.87820
 C44 C 0.93333 0.12589 0.92887
 H45 H 0.91066 0.09894 0.84609
 H46 H 0.91214 0.15908 0.90685
 H47 H 0.85072 0.16003 0.84668
 H48 H 0.85076 0.09916 0.90705
 H49 H 0.84432 0.06978 0.86853
 H50 H 0.81986 0.09345 0.88425
 H51 H 0.94491 0.16246 0.88922
 H52 H 0.91980 0.18683 0.86644
 H53 H 0.89322 0.06691 0.84171
 H54 H 0.87115 0.09160 0.81868
 H55 H 0.89390 0.16399 0.93908
 H56 H 0.87366 0.18797 0.91444
 H57 H 0.91771 0.13879 0.81761
 H58 H 0.94236 0.11814 0.84062
 H59 H 0.82385 0.14224 0.91501
 H60 H 0.84668 0.11757 0.93955
 O61 O 0.84193 0.69087 0.38052
 O62 O 0.87266 0.69671 0.40559
 O63 O 0.87437 0.66427 0.32234
 O64 O 0.89508 0.63466 0.31326
 O65 O 0.81418 0.63260 0.34891
 O66 O 0.80747 0.60843 0.37981
 O67 O 0.93027 0.60156 0.37999
 O68 O 0.93684 0.63119 0.35514
 O69 O 0.90288 0.63067 0.43795
 O70 O 0.87111 0.65680 0.44484
 O71 O 0.87348 0.57449 0.41048
 O72 O 0.84773 0.56764 0.37865
 O73 O 0.90337 0.57467 0.37967
 O74 O 0.87094 0.56827 0.35435
 O75 O 0.87279 0.60129 0.43749
 O76 O 0.84729 0.63303 0.44458
 O77 O 0.92998 0.62973 0.41126
 O78 O 0.93691 0.65748 0.38084
 O79 O 0.81462 0.66435 0.38014
 O80 O 0.80809 0.63294 0.40508
 O81 O 0.84100 0.63325 0.32190
 O82 O 0.87222 0.60682 0.31657
 O83 O 0.87404 0.69079 0.34970
 O84 O 0.89786 0.69669 0.38121
 Zr85 Zr 0.87198 0.67257 0.37965
 O86 O 0.89263 0.65315 0.40055
 Zr87 Zr 0.87155 0.63369 0.33976
 O88 O 0.89258 0.61264 0.35882
 Zr89 Zr 0.83222 0.63373 0.37914
 O90 O 0.85124 0.61231 0.39979
 Zr91 Zr 0.91237 0.63176 0.38077
 O92 O 0.89351 0.65304 0.35961
 Zr93 Zr 0.87271 0.63163 0.41987
 O94 O 0.85182 0.65317 0.40106
 Zr95 Zr 0.87288 0.59260 0.38011
 O96 O 0.85164 0.61202 0.35921
 O97 O 0.85098 0.65454 0.35848
 O98 O 0.89374 0.61067 0.40141
 C99 C 0.82126 0.68486 0.38063
 C100 C 0.87518 0.68475 0.32907
 C101 C 0.82042 0.63245 0.32828
 C102 C 0.92398 0.58100 0.37958
 C103 C 0.92346 0.62953 0.43179
 C104 C 0.87342 0.58077 0.43112
 H105 H 0.90182 0.66309 0.41007
 H106 H 0.84105 0.60299 0.40891
 H107 H 0.84169 0.66433 0.34884
 H108 H 0.90200 0.60360 0.34862
 H109 H 0.93194 0.64205 0.34359
 H110 H 0.90867 0.62676 0.31848
 H111 H 0.83620 0.62122 0.44113
 H112 H 0.81320 0.64367 0.41666
 H113 H 0.93466 0.66695 0.39426
 H114 H 0.91008 0.69108 0.37150
 H115 H 0.83677 0.57077 0.39068
 H116 H 0.81314 0.59609 0.37029
 H117 H 0.86233 0.69130 0.41738
 H118 H 0.88360 0.66737 0.44226
 H119 H 0.86009 0.59638 0.32091
 H120 H 0.88306 0.57142 0.34349
 O121 O 0.37413 0.16474 0.32532
 O122 O 0.39892 0.13424 0.31903
 O123 O 0.31644 0.13165 0.35327
 O124 O 0.30774 0.11175 0.38309
 O125 O 0.34319 0.19257 0.38314
 O126 O 0.37380 0.19974 0.40759
 O127 O 0.37680 0.07701 0.41531
 O128 O 0.35059 0.06990 0.38664
 O129 O 0.43292 0.10467 0.38475
 O130 O 0.44030 0.13594 0.36059
 O131 O 0.40479 0.13489 0.44220
 O132 O 0.37319 0.15921 0.44920
 O133 O 0.37572 0.10411 0.44195
 O134 O 0.34857 0.13619 0.44772
 O135 O 0.43203 0.13431 0.41566
 O136 O 0.43806 0.16111 0.38293
 O137 O 0.40655 0.07727 0.38509
 O138 O 0.37532 0.06991 0.35938
 O139 O 0.37456 0.19207 0.35185
 O140 O 0.39927 0.19893 0.38333
 O141 O 0.31640 0.16554 0.38312
 O142 O 0.31197 0.13446 0.41084
 O143 O 0.34313 0.13220 0.32610
 O144 O 0.37536 0.10845 0.32010
 Zr145 Zr 0.37363 0.13473 0.34383
 O146 O 0.39510 0.11467 0.36333
 Zr147 Zr 0.33440 0.13509 0.38332
 O148 O 0.35380 0.11418 0.40418
 Zr149 Zr 0.37346 0.17469 0.38253
 O150 O 0.39428 0.15606 0.40411
 Zr151 Zr 0.37587 0.09465 0.38492
 O152 O 0.35415 0.11312 0.36381
 Zr153 Zr 0.41451 0.13466 0.38489
 O154 O 0.39527 0.15500 0.36304
 Zr155 Zr 0.37480 0.13439 0.42389
 O156 O 0.35377 0.15546 0.40457
 O157 O 0.35267 0.15566 0.36205
 O158 O 0.39634 0.11357 0.40593
 C159 C 0.37468 0.18542 0.33133
 C160 C 0.32263 0.13078 0.33265
 C161 C 0.32264 0.18618 0.38323
 C162 C 0.37667 0.08345 0.43588
 C163 C 0.42701 0.08399 0.38479
 C164 C 0.42543 0.13447 0.43620
 H165 H 0.40461 0.10564 0.35322
 H166 H 0.40328 0.16641 0.41338
 H167 H 0.34295 0.16475 0.35215
 H168 H 0.34390 0.10459 0.41337
 H169 H 0.33863 0.07457 0.37613
 H170 H 0.31325 0.09799 0.39049
 H171 H 0.43623 0.17063 0.39639
 H172 H 0.41088 0.19385 0.37263
 H173 H 0.38749 0.07321 0.34862
 H174 H 0.36485 0.09671 0.32528
 H175 H 0.38361 0.17136 0.44495
 H176 H 0.36384 0.19440 0.41973
 H177 H 0.41086 0.14446 0.32431
 H178 H 0.43591 0.12593 0.34813
 H179 H 0.31561 0.14749 0.42044
 H180 H 0.33905 0.12275 0.44585
 O181 O 0.11702 0.34396 0.30870
 O182 O 0.09243 0.37476 0.30134
 O183 O 0.17451 0.37624 0.33667
 O184 O 0.18222 0.39853 0.36553
 O185 O 0.14662 0.31747 0.36869
 O186 O 0.11488 0.31111 0.39173
 O187 O 0.11431 0.43394 0.39670
 O188 O 0.14032 0.44013 0.36768
 O189 O 0.05762 0.40602 0.36618
 O190 O 0.05108 0.37429 0.34091
 O191 O 0.08387 0.37739 0.42370
 O192 O 0.11559 0.35183 0.43166
 O193 O 0.11388 0.40729 0.42385
 O194 O 0.13952 0.37545 0.43149
 O195 O 0.05742 0.37650 0.39637
 O196 O 0.05168 0.34998 0.36422
 O197 O 0.08417 0.43323 0.36728
 O198 O 0.11541 0.43981 0.34055
 O199 O 0.11657 0.31724 0.33584
 O200 O 0.09057 0.31136 0.36637
 O201 O 0.17360 0.34431 0.36868
 O202 O 0.17822 0.37634 0.39416
 O203 O 0.14814 0.37581 0.30919
 O204 O 0.11681 0.40003 0.30194
 Zr205 Zr 0.11742 0.37446 0.32644
 O206 O 0.09582 0.39537 0.34494
 Zr207 Zr 0.15590 0.37484 0.36660
 O208 O 0.13621 0.39623 0.38669
 Zr209 Zr 0.11652 0.33546 0.36606
 O210 O 0.09529 0.35477 0.38658
 Zr211 Zr 0.11477 0.41562 0.36661
 O212 O 0.13668 0.39644 0.34625
 Zr213 Zr 0.07580 0.37589 0.36631
 O214 O 0.09531 0.35474 0.34557
 Zr215 Zr 0.11450 0.37669 0.40636
 O216 O 0.13589 0.35519 0.38796
 O217 O 0.13788 0.35380 0.34560
 O218 O 0.09365 0.39724 0.38742
 C219 C 0.11672 0.32340 0.31518
 C220 C 0.16860 0.37652 0.31594
 C221 C 0.16717 0.32376 0.36972
 C222 C 0.11390 0.42781 0.41735
 C223 C 0.06366 0.42666 0.36707
 C224 C 0.06341 0.37730 0.41704
 H225 H 0.08658 0.40435 0.33456
 H226 H 0.08594 0.34471 0.39582
 H227 H 0.14780 0.34421 0.33638
 H228 H 0.14607 0.40585 0.39590
 H229 H 0.15214 0.43518 0.35713
 H230 H 0.17689 0.41215 0.37333
 H231 H 0.05399 0.33981 0.37710
 H232 H 0.07937 0.31629 0.35517
 H233 H 0.10264 0.43698 0.33037
 H234 H 0.12661 0.41216 0.30757
 H235 H 0.10343 0.34098 0.42865
 H236 H 0.12408 0.31688 0.40427
 H237 H 0.08033 0.36475 0.30665
 H238 H 0.05485 0.38563 0.32943
 H239 H 0.17357 0.36453 0.40484
 H240 H 0.15016 0.38783 0.42866
 O241 O 0.61719 0.84678 0.31203
 O242 O 0.59308 0.87777 0.30519
 O243 O 0.67561 0.87804 0.33936
 O244 O 0.68407 0.89978 0.36844
 O245 O 0.64735 0.81923 0.37128
 O246 O 0.61600 0.81302 0.39470
 O247 O 0.61718 0.93592 0.40053
 O248 O 0.64258 0.94202 0.37130
 O249 O 0.55955 0.90892 0.37110
 O250 O 0.55200 0.87763 0.34577
 O251 O 0.58621 0.87939 0.42799
 O252 O 0.61775 0.85366 0.43525
 O253 O 0.61673 0.90921 0.42762
 O254 O 0.64206 0.87683 0.43468
 O255 O 0.55939 0.87902 0.40102
 O256 O 0.55294 0.85286 0.36854
 O257 O 0.58648 0.93576 0.37182
 O258 O 0.61738 0.94198 0.34444
 O259 O 0.61680 0.81977 0.33888
 O260 O 0.59118 0.81395 0.36986
 O261 O 0.67471 0.84568 0.37106
 O262 O 0.68013 0.87742 0.39684
 O263 O 0.64881 0.87819 0.31230
 O264 O 0.61751 0.90293 0.30589
 Zr265 Zr 0.61832 0.87702 0.33002
 O266 O 0.59720 0.89794 0.34903
 Zr267 Zr 0.65741 0.87647 0.36958
 O268 O 0.63827 0.89795 0.39012
 Zr269 Zr 0.61748 0.83766 0.36931
 O270 O 0.59685 0.85704 0.39038
 Zr271 Zr 0.61680 0.91775 0.37047
 O272 O 0.63820 0.89851 0.34969
 Zr273 Zr 0.57730 0.87856 0.37062
 O274 O 0.59623 0.85742 0.34933
 Zr275 Zr 0.61659 0.87860 0.41005
 O276 O 0.63742 0.85696 0.39111
 O277 O 0.63878 0.85589 0.34866
 O278 O 0.59574 0.89956 0.39156
 C279 C 0.61670 0.82618 0.31829
 C280 C 0.66938 0.87867 0.31872
 C281 C 0.66800 0.82522 0.37201
 C282 C 0.61706 0.92974 0.42114
 C283 C 0.56589 0.92946 0.37199
 C284 C 0.56564 0.87950 0.42163
 H285 H 0.58790 0.90711 0.33888
 H286 H 0.58753 0.84701 0.39969
 H287 H 0.64844 0.84628 0.33919
 H288 H 0.64841 0.90738 0.39920
 H289 H 0.65426 0.93696 0.36064
 H290 H 0.67894 0.91347 0.37624
 H291 H 0.55519 0.84265 0.38140
 H292 H 0.57996 0.81903 0.35874
 H293 H 0.60417 0.93965 0.33471
 H294 H 0.62784 0.91472 0.31129
 H295 H 0.60569 0.84273 0.43212
 H296 H 0.62535 0.81862 0.40721
 H297 H 0.58075 0.86817 0.31075
 H298 H 0.55587 0.88880 0.33416
 H299 H 0.67550 0.86554 0.40744
 H300 H 0.65276 0.88915 0.43182
 O301 O 0.62675 0.65185 0.18399
 O302 O 0.60420 0.61975 0.19019
 O303 O 0.68558 0.62278 0.15369
 O304 O 0.69347 0.60211 0.12365
 O305 O 0.65575 0.68224 0.12557
 O306 O 0.62421 0.68915 0.10282
 O307 O 0.62516 0.56654 0.09159
 O308 O 0.65215 0.55943 0.11945
 O309 O 0.56901 0.59196 0.12393
 O310 O 0.56184 0.62197 0.15067
 O311 O 0.59391 0.62430 0.06765
 O312 O 0.62526 0.65017 0.06058
 O313 O 0.62406 0.59442 0.06579
 O314 O 0.64954 0.62691 0.05951
 O315 O 0.56782 0.62301 0.09531
 O316 O 0.56204 0.64769 0.12906
 O317 O 0.59591 0.56513 0.12201
 O318 O 0.62808 0.55805 0.14739
 O319 O 0.62516 0.67985 0.15822
 O320 O 0.59970 0.68691 0.12758
 O321 O 0.68347 0.65623 0.12359
 O322 O 0.68840 0.62557 0.09614
 O323 O 0.65963 0.62160 0.18155
 O324 O 0.62933 0.59542 0.18757
 Zr325 Zr 0.62862 0.62244 0.16467
 O326 O 0.60715 0.60217 0.14535
 Zr327 Zr 0.66653 0.62513 0.12410
 O328 O 0.64705 0.60421 0.10322
 Zr329 Zr 0.62620 0.66339 0.12705
 O330 O 0.60527 0.64474 0.10574
 Zr331 Zr 0.62621 0.58338 0.12250
 O332 O 0.64809 0.60199 0.14348
 Zr333 Zr 0.58651 0.62230 0.12517
 O334 O 0.60579 0.64261 0.14682
 Zr335 Zr 0.62471 0.62419 0.08471
 O336 O 0.64578 0.64529 0.10396
 O337 O 0.64823 0.64463 0.14639
 O338 O 0.60448 0.60233 0.10284
 C339 C 0.62518 0.67262 0.17853
 C340 C 0.68001 0.62168 0.17449
 C341 C 0.67644 0.67663 0.12401
 C342 C 0.62420 0.57356 0.07123
 C343 C 0.57531 0.57146 0.12252
 C344 C 0.57353 0.62375 0.07456
 H345 H 0.59821 0.59252 0.15539
 H346 H 0.59565 0.65510 0.09713
 H347 H 0.65781 0.65408 0.15608
 H348 H 0.65693 0.59520 0.09344
 H349 H 0.66420 0.56412 0.12984
 H350 H 0.68835 0.58876 0.11528
 H351 H 0.56358 0.65825 0.11638
 H352 H 0.58860 0.68134 0.13857
 H353 H 0.61578 0.56042 0.15823
 H354 H 0.64005 0.58432 0.18147
 H355 H 0.61344 0.66107 0.06462
 H356 H 0.63345 0.68421 0.08995
 H357 H 0.59137 0.62908 0.18537
 H358 H 0.56596 0.61019 0.16158
 H359 H 0.68340 0.63792 0.08626
 H360 H 0.66021 0.61438 0.06147
 O361 O 0.37001 0.84894 0.68432
 O362 O 0.39275 0.88079 0.69131
 O363 O 0.31202 0.87899 0.65316
 O364 O 0.30503 0.90025 0.62333
 O365 O 0.34145 0.81954 0.62520
 O366 O 0.37378 0.81290 0.60245
 O367 O 0.37332 0.93540 0.59321
 O368 O 0.34559 0.94184 0.62089
 O369 O 0.42902 0.91005 0.62674
 O370 O 0.43530 0.87873 0.65308
 O371 O 0.40535 0.87790 0.56901
 O372 O 0.37454 0.85239 0.56081
 O373 O 0.37501 0.90787 0.56698
 O374 O 0.34976 0.87506 0.55997
 O375 O 0.43095 0.87914 0.59711
 O376 O 0.43652 0.85434 0.63013
 O377 O 0.40182 0.93656 0.62459
 O378 O 0.36985 0.94370 0.64856
 O379 O 0.37181 0.82113 0.65833
 O380 O 0.39763 0.81421 0.62818
 O381 O 0.31435 0.84620 0.62311
 O382 O 0.31020 0.87657 0.59572
 O383 O 0.33735 0.87931 0.68161
 O384 O 0.36769 0.90519 0.68880
 Zr385 Zr 0.36873 0.87860 0.66538
 O386 O 0.39051 0.89913 0.64676
 Zr387 Zr 0.33164 0.87683 0.62402
 O388 O 0.35154 0.89774 0.60371
 Zr389 Zr 0.37146 0.83806 0.62730
 O390 O 0.39306 0.85703 0.60677
 Zr391 Zr 0.37184 0.91820 0.62384
 O392 O 0.34969 0.89948 0.64425
 Zr393 Zr 0.41161 0.87937 0.62667
 O394 O 0.39177 0.85862 0.64755
 Zr395 Zr 0.37423 0.87786 0.58551
 O396 O 0.35258 0.85668 0.60404
 O397 O 0.34930 0.85686 0.64641
 O398 O 0.39406 0.89961 0.60428
 C399 C 0.37142 0.82818 0.67872
 C400 C 0.31714 0.87954 0.67409
 C401 C 0.32085 0.82568 0.62355
 C402 C 0.37449 0.92860 0.57282
 C403 C 0.42244 0.93054 0.62582
 C404 C 0.42561 0.87852 0.57624
 H405 H 0.39920 0.90863 0.65716
 H406 H 0.40286 0.84678 0.59821
 H407 H 0.33948 0.84738 0.65584
 H408 H 0.34184 0.90683 0.59383
 H409 H 0.33370 0.93716 0.63148
 H410 H 0.31014 0.91332 0.61453
 H411 H 0.43439 0.84330 0.61795
 H412 H 0.40895 0.82003 0.63882
 H413 H 0.38057 0.94010 0.66066
 H414 H 0.35697 0.91635 0.68282
 H415 H 0.38554 0.84093 0.56554
 H416 H 0.36421 0.81784 0.58983
 H417 H 0.40553 0.87129 0.68666
 H418 H 0.43146 0.89090 0.66366
 H419 H 0.31535 0.86430 0.58581
 H420 H 0.33920 0.88773 0.56162
 O421 O 0.87353 0.34406 0.68085
 O422 O 0.89699 0.37611 0.68787
 O423 O 0.81463 0.37613 0.65295
 O424 O 0.80674 0.39829 0.62400
 O425 O 0.84267 0.31733 0.62200
 O426 O 0.87432 0.31166 0.59741
 O427 O 0.87341 0.43369 0.59195
 O428 O 0.84637 0.43893 0.62176
 O429 O 0.93048 0.40776 0.62299
 O430 O 0.93740 0.37582 0.64888
 O431 O 0.90496 0.37695 0.56569
 O432 O 0.87339 0.35105 0.55827
 O433 O 0.87445 0.40664 0.56520
 O434 O 0.84956 0.37471 0.55774
 O435 O 0.93142 0.37736 0.59302
 O436 O 0.93824 0.35211 0.62515
 O437 O 0.90317 0.43423 0.62238
 O438 O 0.87312 0.44144 0.64706
 O439 O 0.87416 0.31751 0.65353
 O440 O 0.89865 0.31141 0.62274
 O441 O 0.81562 0.34412 0.62197
 O442 O 0.81042 0.37507 0.59575
 O443 O 0.84090 0.37520 0.68052
 O444 O 0.87147 0.40006 0.68790
 Zr445 Zr 0.87167 0.37471 0.66314
 O446 O 0.89256 0.39611 0.64434
 Zr447 Zr 0.83310 0.37459 0.62306
 O448 O 0.85228 0.39587 0.60250
 Zr449 Zr 0.87283 0.33564 0.62347
 O450 O 0.89395 0.35517 0.60309
 Zr451 Zr 0.87324 0.41582 0.62242
 O452 O 0.85206 0.39645 0.64332
 Zr453 Zr 0.91306 0.37701 0.62308
 O454 O 0.89395 0.35538 0.64375
 Zr455 Zr 0.87434 0.37642 0.58308
 O456 O 0.85310 0.35497 0.60164
 O457 O 0.85146 0.35379 0.64410
 O458 O 0.89478 0.39773 0.60172
 C459 C 0.87459 0.32354 0.67420
 C460 C 0.82046 0.37605 0.67369
 C461 C 0.82204 0.32359 0.62151
 C462 C 0.87395 0.42722 0.57138
 C463 C 0.92384 0.42826 0.62255
 C464 C 0.92542 0.37727 0.57234
 H465 H 0.90157 0.40542 0.65464
 H466 H 0.90350 0.34515 0.59399
 H467 H 0.84194 0.34408 0.65359
 H468 H 0.84224 0.40517 0.59317
 H469 H 0.83563 0.43421 0.63351
 H470 H 0.81155 0.41146 0.61518
 H471 H 0.93551 0.34111 0.61305
 H472 H 0.91062 0.31701 0.63275
 H473 H 0.88184 0.43608 0.66007
 H474 H 0.86101 0.41178 0.68256
 H475 H 0.88557 0.34030 0.56152
 H476 H 0.86365 0.31666 0.58574
 H477 H 0.90923 0.36623 0.68260
 H478 H 0.93416 0.38810 0.65954
 H479 H 0.81536 0.36334 0.58510
 H480 H 0.83825 0.38639 0.56092
 O481 O 0.81702 0.87525 0.15860
 O482 O 0.80785 0.89880 0.12793
 O483 O 0.84492 0.81751 0.12522
 O484 O 0.87299 0.80994 0.10222
 O485 O 0.87759 0.84602 0.18285
 O486 O 0.90151 0.87795 0.18779
 O487 O 0.90055 0.87820 0.06477
 O488 O 0.87217 0.85083 0.06059
 O489 O 0.87108 0.93419 0.09294
 O490 O 0.84701 0.94092 0.12615
 O491 O 0.93022 0.90921 0.12030
 O492 O 0.94020 0.87862 0.14449
 O493 O 0.92896 0.87930 0.08999
 O494 O 0.93806 0.85323 0.12237
 O495 O 0.90270 0.93542 0.12177
 O496 O 0.87160 0.94139 0.14903
 O497 O 0.87004 0.90693 0.06639
 O498 O 0.84467 0.87542 0.06135
 O499 O 0.84520 0.87668 0.18419
 O500 O 0.87608 0.90232 0.18864
 O501 O 0.87719 0.81913 0.15588
 O502 O 0.90231 0.81490 0.12340
 O503 O 0.81681 0.84314 0.12726
 O504 O 0.80798 0.87432 0.10280
 Zr505 Zr 0.83346 0.87436 0.12741
 O506 O 0.85071 0.89600 0.10552
 Zr507 Zr 0.87433 0.83663 0.12554
 O508 O 0.89308 0.85626 0.10307
 Zr509 Zr 0.87470 0.87622 0.16471
 O510 O 0.89401 0.89756 0.14419
 Zr511 Zr 0.87158 0.87697 0.08455
 O512 O 0.85251 0.85508 0.10478
 Zr513 Zr 0.87277 0.91665 0.12361
 O514 O 0.85326 0.89702 0.14593
 Zr515 Zr 0.91316 0.87849 0.12156
 O516 O 0.89612 0.85710 0.14419
 O517 O 0.85384 0.85447 0.14735
 O518 O 0.89301 0.89873 0.10153
 C519 C 0.82430 0.87630 0.17887
 C520 C 0.82409 0.82285 0.12610
 C521 C 0.87829 0.82543 0.17643
 C522 C 0.92146 0.87912 0.06976
 C523 C 0.87021 0.92756 0.07243
 C524 C 0.92343 0.92962 0.12050
 H525 H 0.83977 0.90494 0.09691
 H526 H 0.90355 0.90712 0.15376
 H527 H 0.84501 0.84465 0.15739
 H528 H 0.90201 0.84647 0.09312
 H529 H 0.86186 0.83905 0.06609
 H530 H 0.88036 0.81512 0.08831
 H531 H 0.88451 0.93892 0.15912
 H532 H 0.86499 0.91368 0.18385
 H533 H 0.83352 0.88696 0.06548
 H534 H 0.81279 0.86368 0.09100
 H535 H 0.93605 0.88861 0.15705
 H536 H 0.91340 0.86797 0.18194
 H537 H 0.81372 0.91152 0.13683
 H538 H 0.83545 0.93725 0.11486
 H539 H 0.91301 0.81953 0.13521
 H540 H 0.93581 0.84341 0.10920
 O541 O 0.37569 0.34247 0.18149
 O542 O 0.40164 0.37171 0.18836
 O543 O 0.31798 0.37925 0.15841
 O544 O 0.30916 0.40195 0.13051
 O545 O 0.34019 0.31954 0.12350
 O546 O 0.36931 0.31203 0.09779
 O547 O 0.37779 0.43507 0.09660
 O548 O 0.35395 0.44180 0.12704
 O549 O 0.43417 0.40253 0.12229
 O550 O 0.44096 0.36994 0.14486
 O551 O 0.40201 0.37709 0.06520
 O552 O 0.36866 0.35511 0.05839
 O553 O 0.37460 0.40961 0.06849
 O554 O 0.34563 0.37940 0.06219
 O555 O 0.43024 0.37406 0.09050
 O556 O 0.43634 0.34598 0.12175
 O557 O 0.40942 0.43132 0.12468
 O558 O 0.37992 0.43873 0.15286
 O559 O 0.37293 0.31659 0.15367
 O560 O 0.39583 0.31039 0.12060
 O561 O 0.31477 0.34776 0.12614
 O562 O 0.31066 0.38084 0.10113
 O563 O 0.34583 0.37572 0.18414
 O564 O 0.37898 0.39836 0.18970
 Zr565 Zr 0.37529 0.37344 0.16476
 O566 O 0.39690 0.39346 0.14541
 Zr567 Zr 0.33435 0.37723 0.12731
 O568 O 0.35387 0.39834 0.10674
 Zr569 Zr 0.37132 0.33575 0.12403
 O570 O 0.39200 0.35453 0.10251
 Zr571 Zr 0.37781 0.41563 0.12589
 O572 O 0.35607 0.39708 0.14697
 Zr573 Zr 0.41416 0.37367 0.12194
 O574 O 0.39493 0.35316 0.14353
 Zr575 Zr 0.37289 0.37834 0.08488
 O576 O 0.35172 0.35724 0.10404
 O577 O 0.35249 0.35456 0.14648
 O578 O 0.39631 0.39690 0.10292
 C579 C 0.37485 0.32214 0.17444
 C580 C 0.32512 0.37825 0.17872
 C581 C 0.32000 0.32690 0.12434
 C582 C 0.37649 0.42982 0.07576
 C583 C 0.42945 0.42348 0.12339
 C584 C 0.42282 0.37541 0.07032
 H585 H 0.40736 0.40142 0.15547
 H586 H 0.39998 0.34422 0.09230
 H587 H 0.34281 0.34524 0.15621
 H588 H 0.34405 0.40892 0.09861
 H589 H 0.34222 0.43709 0.13780
 H590 H 0.31500 0.41578 0.12353
 H591 H 0.43310 0.33691 0.10825
 H592 H 0.40795 0.31400 0.13133
 H593 H 0.39270 0.43443 0.16249
 H594 H 0.36874 0.41074 0.18558
 H595 H 0.37870 0.34227 0.06134
 H596 H 0.35947 0.31867 0.08620
 H597 H 0.41305 0.36154 0.18190
 H598 H 0.43794 0.37987 0.15778
 H599 H 0.31343 0.36856 0.09032
 H600 H 0.33685 0.39309 0.06539
 O601 O 0.37543 0.65530 0.81496
 O602 O 0.39954 0.62463 0.80713
 O603 O 0.31880 0.62304 0.84526
 O604 O 0.31190 0.60150 0.87474
 O605 O 0.34714 0.68261 0.87517
 O606 O 0.37915 0.68964 0.89738
 O607 O 0.38131 0.56648 0.90355
 O608 O 0.35458 0.55974 0.87565
 O609 O 0.43670 0.59480 0.87149
 O610 O 0.44236 0.62625 0.84585
 O611 O 0.41185 0.62368 0.92949
 O612 O 0.38059 0.64843 0.93859
 O613 O 0.38215 0.59319 0.93066
 O614 O 0.35600 0.62542 0.93839
 O615 O 0.43749 0.62458 0.90140
 O616 O 0.44199 0.65091 0.86883
 O617 O 0.41048 0.56732 0.87335
 O618 O 0.37830 0.56041 0.84748
 O619 O 0.37655 0.68253 0.84159
 O620 O 0.40323 0.68890 0.87181
 O621 O 0.32037 0.65559 0.87633
 O622 O 0.31702 0.62389 0.90291
 O623 O 0.34423 0.62360 0.81690
 O624 O 0.37556 0.59911 0.80914
 Zr625 Zr 0.37550 0.62517 0.83315
 O626 O 0.39790 0.60480 0.85121
 Zr627 Zr 0.33828 0.62515 0.87451
 O628 O 0.35868 0.60397 0.89410
 Zr629 Zr 0.37730 0.66478 0.87221
 O630 O 0.39912 0.64582 0.89245
 Zr631 Zr 0.37970 0.58462 0.87352
 O632 O 0.35696 0.60339 0.85378
 Zr633 Zr 0.41827 0.62471 0.87186
 O634 O 0.39802 0.64535 0.85135
 Zr635 Zr 0.38075 0.62383 0.91301
 O636 O 0.35880 0.64517 0.89501
 O637 O 0.35551 0.64598 0.85265
 O638 O 0.40124 0.60334 0.89360
 C639 C 0.37598 0.67596 0.82103
 C640 C 0.32403 0.62273 0.82436
 C641 C 0.32666 0.67621 0.87667
 C642 C 0.38224 0.57263 0.92417
 C643 C 0.43090 0.57413 0.87259
 C644 C 0.43211 0.62393 0.92224
 H645 H 0.40693 0.59581 0.84064
 H646 H 0.40862 0.65605 0.90135
 H647 H 0.34533 0.65538 0.84353
 H648 H 0.34917 0.59433 0.90364
 H649 H 0.34220 0.56459 0.86572
 H650 H 0.31769 0.58780 0.88203
 H651 H 0.44010 0.66104 0.88182
 H652 H 0.41399 0.68412 0.86011
 H653 H 0.39102 0.56295 0.83718
 H654 H 0.36547 0.58730 0.81496
 H655 H 0.39144 0.66020 0.93432
 H656 H 0.37055 0.68385 0.91032
 H657 H 0.41200 0.63439 0.81208
 H658 H 0.43838 0.61480 0.83454
 H659 H 0.32154 0.63630 0.91295
 H660 H 0.34597 0.61237 0.93653
 O661 O 0.12973 0.65340 0.67807
 O662 O 0.10554 0.62256 0.68602
 O663 O 0.18809 0.61888 0.65201
 O664 O 0.19627 0.59632 0.62371
 O665 O 0.16170 0.67752 0.61858
 O666 O 0.13051 0.68310 0.59373
 O667 O 0.12814 0.56056 0.59282
 O668 O 0.15490 0.55559 0.62217
 O669 O 0.07189 0.58909 0.62181
 O670 O 0.06522 0.62218 0.64608
 O671 O 0.09911 0.61739 0.56358
 O672 O 0.13127 0.64146 0.55543
 O673 O 0.12824 0.58642 0.56493
 O674 O 0.15485 0.61756 0.55679
 O675 O 0.07217 0.61857 0.59042
 O676 O 0.06546 0.64504 0.62161
 O677 O 0.09864 0.56207 0.62297
 O678 O 0.12927 0.55589 0.64873
 O679 O 0.12995 0.67912 0.64999
 O680 O 0.10575 0.68447 0.61857
 O681 O 0.18826 0.65028 0.61985
 O682 O 0.19283 0.61812 0.59462
 O683 O 0.16149 0.62128 0.67917
 O684 O 0.12999 0.59762 0.68684
 Zr685 Zr 0.13100 0.62223 0.66139
 O686 O 0.10975 0.60073 0.64315
 Zr687 Zr 0.17011 0.62017 0.62182
 O688 O 0.15069 0.59836 0.60197
 Zr689 Zr 0.13118 0.65989 0.62048
 O690 O 0.11003 0.64002 0.60041
 Zr691 Zr 0.12898 0.57976 0.62238
 O692 O 0.15045 0.59945 0.64261
 Zr693 Zr 0.09002 0.61945 0.62084
 O694 O 0.10936 0.64132 0.64108
 Zr695 Zr 0.12937 0.61748 0.58150
 O696 O 0.15070 0.63935 0.59953
 O697 O 0.15196 0.64206 0.64197
 O698 O 0.10813 0.59745 0.60065
 C699 C 0.12916 0.67372 0.67083
 C700 C 0.18196 0.61952 0.67265
 C701 C 0.18221 0.67090 0.61844
 C702 C 0.12777 0.56610 0.57201
 C703 C 0.07811 0.56846 0.62263
 C704 C 0.07854 0.61796 0.56984
 H705 H 0.10039 0.59210 0.65371
 H706 H 0.10091 0.64993 0.59078
 H707 H 0.16162 0.65184 0.65125
 H708 H 0.16056 0.58838 0.59316
 H709 H 0.16629 0.56068 0.63312
 H710 H 0.19118 0.58272 0.61573
 H711 H 0.06874 0.65557 0.60924
 H712 H 0.09373 0.67964 0.62893
 H713 H 0.11807 0.56047 0.66005
 H714 H 0.14007 0.58538 0.68196
 H715 H 0.12004 0.65323 0.55860
 H716 H 0.14099 0.67737 0.58222
 H717 H 0.09340 0.63217 0.68008
 H718 H 0.06822 0.61053 0.65747
 H719 H 0.18836 0.62973 0.58364
 H720 H 0.16513 0.60497 0.56001
 O721 O 0.13063 0.14626 0.18405
 O722 O 0.10740 0.11427 0.18912
 O723 O 0.19066 0.11609 0.15698
 O724 O 0.19992 0.09511 0.12773
 O725 O 0.16343 0.17582 0.12751
 O726 O 0.13316 0.18288 0.10253
 O727 O 0.13225 0.06055 0.09174
 O728 O 0.15857 0.05326 0.12090
 O729 O 0.07541 0.08632 0.12162
 O730 O 0.06702 0.11673 0.14695
 O731 O 0.10439 0.11889 0.06611
 O732 O 0.13629 0.14401 0.06089
 O733 O 0.13348 0.08850 0.06603
 O734 O 0.16029 0.12036 0.06138
 O735 O 0.07654 0.11738 0.09197
 O736 O 0.06903 0.14244 0.12546
 O737 O 0.10225 0.05936 0.12160
 O738 O 0.13291 0.05175 0.14748
 O739 O 0.13083 0.17408 0.15806
 O740 O 0.10742 0.18140 0.12615
 O741 O 0.19069 0.14924 0.12693
 O742 O 0.19662 0.11847 0.09975
 O743 O 0.16339 0.11583 0.18357
 O744 O 0.13255 0.08975 0.18807
 Zr745 Zr 0.13324 0.11662 0.16501
 O746 O 0.11264 0.09652 0.14455
 Zr747 Zr 0.17329 0.11848 0.12651
 O748 O 0.15479 0.09775 0.10464
 Zr749 Zr 0.13346 0.15740 0.12714
 O750 O 0.11347 0.13889 0.10482
 Zr751 Zr 0.13263 0.07733 0.12280
 O752 O 0.15350 0.09572 0.14498
 Zr753 Zr 0.09328 0.11664 0.12310
 O754 O 0.11164 0.13689 0.14574
 Zr755 Zr 0.13390 0.11812 0.08501
 O756 O 0.15411 0.13899 0.10527
 O757 O 0.15410 0.13839 0.14769
 O758 O 0.11230 0.09648 0.10189
 C759 C 0.12965 0.16703 0.17838
 C760 C 0.18409 0.11558 0.17750
 C761 C 0.18408 0.16977 0.12713
 C762 C 0.13246 0.06767 0.07137
 C763 C 0.08165 0.06572 0.12126
 C764 C 0.08365 0.11837 0.07164
 H765 H 0.10309 0.08704 0.15418
 H766 H 0.10450 0.14935 0.09564
 H767 H 0.16323 0.14778 0.15787
 H768 H 0.16502 0.08854 0.09540
 H769 H 0.16996 0.05765 0.13214
 H770 H 0.19523 0.08187 0.11894
 H771 H 0.07125 0.15272 0.11264
 H772 H 0.09542 0.17579 0.13613
 H773 H 0.12139 0.05536 0.15882
 H774 H 0.14378 0.07872 0.18283
 H775 H 0.12470 0.15531 0.06446
 H776 H 0.14371 0.17811 0.09065
 H777 H 0.09508 0.12398 0.18373
 H778 H 0.07089 0.10575 0.15873
 H779 H 0.19252 0.13102 0.08971
 H780 H 0.17027 0.10731 0.06357
 O781 O 0.68449 0.37427 0.84650
 O782 O 0.69050 0.39719 0.87821
 O783 O 0.65714 0.31444 0.87660
 O784 O 0.62743 0.30432 0.89591
 O785 O 0.62719 0.34351 0.81690
 O786 O 0.60242 0.37424 0.81118
 O787 O 0.59478 0.37131 0.93417
 O788 O 0.62359 0.34513 0.93997
 O789 O 0.62390 0.42903 0.90930
 O790 O 0.64885 0.43798 0.87832
 O791 O 0.56748 0.40185 0.87710
 O792 O 0.56057 0.37130 0.85205
 O793 O 0.56799 0.37184 0.90717
 O794 O 0.56264 0.34551 0.87387
 O795 O 0.59372 0.42932 0.87852
 O796 O 0.62651 0.43723 0.85332
 O797 O 0.62419 0.40128 0.93533
 O798 O 0.65069 0.37006 0.94095
 O799 O 0.65817 0.37540 0.81901
 O800 O 0.62630 0.39989 0.81322
 O801 O 0.62724 0.31555 0.84272
 O802 O 0.59962 0.30949 0.87366
 O803 O 0.68400 0.34142 0.87707
 O804 O 0.68957 0.37228 0.90273
 Zr805 Zr 0.66595 0.37176 0.87632
 O806 O 0.64631 0.39205 0.89742
 Zr807 Zr 0.62693 0.33214 0.87399
 O808 O 0.60594 0.35029 0.89588
 Zr809 Zr 0.62742 0.37298 0.83624
 O810 O 0.60567 0.39263 0.85593
 Zr811 Zr 0.62500 0.37156 0.91641
 O812 O 0.64624 0.35097 0.89690
 Zr813 Zr 0.62459 0.41212 0.87831
 O814 O 0.64657 0.39408 0.85702
 Zr815 Zr 0.58602 0.37204 0.87672
 O816 O 0.60553 0.35226 0.85456
 O817 O 0.64806 0.35158 0.85432
 O818 O 0.60377 0.39275 0.89852
 C819 C 0.67862 0.37577 0.82583
 C820 C 0.67767 0.32082 0.87756
 C821 C 0.62711 0.32269 0.82236
 C822 C 0.57426 0.37172 0.92781
 C823 C 0.62388 0.42206 0.92969
 C824 C 0.57329 0.42252 0.87784
 H825 H 0.65626 0.40122 0.90695
 H826 H 0.59634 0.40196 0.84593
 H827 H 0.65806 0.34245 0.84473
 H828 H 0.59687 0.33986 0.90502
 H829 H 0.63420 0.33350 0.93471
 H830 H 0.62023 0.30912 0.91004
 H831 H 0.61395 0.43489 0.84277
 H832 H 0.63692 0.41134 0.81880
 H833 H 0.66097 0.38283 0.93858
 H834 H 0.68454 0.36104 0.91383
 H835 H 0.56514 0.38158 0.83989
 H836 H 0.59050 0.36372 0.81589
 H837 H 0.68483 0.40986 0.86912
 H838 H 0.66064 0.43383 0.88920
 H839 H 0.59000 0.31362 0.86079
 H840 H 0.56414 0.33589 0.88728
 O841 O 0.12153 0.83721 0.81670
 O842 O 0.09675 0.86840 0.81063
 O843 O 0.17934 0.86942 0.84488
 O844 O 0.18829 0.88937 0.87458
 O845 O 0.15135 0.80915 0.87510
 O846 O 0.12007 0.80281 0.89920
 O847 O 0.12112 0.92531 0.90731
 O848 O 0.14692 0.93168 0.87773
 O849 O 0.06350 0.89914 0.87622
 O850 O 0.05566 0.86831 0.85149
 O851 O 0.09064 0.86815 0.93326
 O852 O 0.12176 0.84253 0.94015
 O853 O 0.12100 0.89780 0.93359
 O854 O 0.14643 0.86528 0.93961
 O855 O 0.06354 0.86896 0.90659
 O856 O 0.05702 0.84292 0.87358
 O857 O 0.09045 0.92594 0.87734
 O858 O 0.12129 0.93300 0.85151
 O859 O 0.12049 0.81014 0.84347
 O860 O 0.09524 0.80382 0.87432
 O861 O 0.17866 0.83564 0.87508
 O862 O 0.18386 0.86669 0.90227
 O863 O 0.15281 0.86947 0.81756
 O864 O 0.12126 0.89352 0.81125
 Zr865 Zr 0.12224 0.86746 0.83520
 O866 O 0.10130 0.88824 0.85470
 Zr867 Zr 0.16129 0.86644 0.87488
 O868 O 0.14230 0.88763 0.89577
 Zr869 Zr 0.12144 0.82765 0.87398
 O870 O 0.10083 0.84673 0.89531
 Zr871 Zr 0.12076 0.90782 0.87660
 O872 O 0.14199 0.88877 0.85536
 Zr873 Zr 0.08127 0.86870 0.87602
 O874 O 0.10012 0.84774 0.85437
 Zr875 Zr 0.12075 0.86779 0.91526
 O876 O 0.14150 0.84643 0.89603
 O877 O 0.14273 0.84618 0.85356
 O878 O 0.09976 0.88925 0.89738
 C879 C 0.12075 0.81654 0.82291
 C880 C 0.17329 0.87045 0.82424
 C881 C 0.17201 0.81514 0.87545
 C882 C 0.12125 0.91850 0.92778
 C883 C 0.06983 0.91970 0.87690
 C884 C 0.07006 0.86872 0.92714
 H885 H 0.09203 0.89756 0.84464
 H886 H 0.09151 0.83656 0.90446
 H887 H 0.15239 0.83686 0.84381
 H888 H 0.15247 0.89685 0.90503
 H889 H 0.15836 0.92677 0.86674
 H890 H 0.18307 0.90317 0.88213
 H891 H 0.05884 0.83293 0.88668
 H892 H 0.08375 0.80925 0.86367
 H893 H 0.10948 0.92959 0.84041
 H894 H 0.13123 0.90549 0.81694
 H895 H 0.11018 0.83128 0.93642
 H896 H 0.13020 0.80784 0.91133
 H897 H 0.08495 0.85789 0.81568
 H898 H 0.06044 0.87824 0.83912
 H899 H 0.17970 0.85404 0.91215
 H900 H 0.15703 0.87778 0.93714
 O901 O 0.68961 0.11797 0.65693
 O902 O 0.69486 0.09326 0.62605
 O903 O 0.66243 0.17642 0.62574
 O904 O 0.63264 0.18578 0.60559
 O905 O 0.63176 0.14945 0.68620
 O906 O 0.60809 0.11859 0.69340
 O907 O 0.59876 0.11879 0.57032
 O908 O 0.62801 0.14395 0.56336
 O909 O 0.62791 0.06111 0.59699
 O910 O 0.65413 0.05357 0.62802
 O911 O 0.57232 0.08889 0.62768
 O912 O 0.56596 0.12047 0.65332
 O913 O 0.57227 0.11931 0.59764
 O914 O 0.56684 0.14515 0.63045
 O915 O 0.59886 0.06165 0.62761
 O916 O 0.63134 0.05447 0.65279
 O917 O 0.62703 0.08791 0.57001
 O918 O 0.65459 0.11844 0.56286
 O919 O 0.66374 0.11832 0.68489
 O920 O 0.63228 0.09315 0.69170
 O921 O 0.63191 0.17664 0.65957
 O922 O 0.60502 0.18219 0.62864
 O923 O 0.68892 0.14906 0.62525
 O924 O 0.69408 0.11757 0.60077
 Zr925 Zr 0.67067 0.11910 0.62733
 O926 O 0.65076 0.09832 0.60704
 Zr927 Zr 0.63191 0.15904 0.62884
 O928 O 0.61047 0.14023 0.60794
 Zr929 Zr 0.63267 0.11940 0.66791
 O930 O 0.61064 0.09912 0.64916
 Zr931 Zr 0.62919 0.11828 0.58776
 O932 O 0.65081 0.13934 0.60633
 Zr933 Zr 0.62943 0.07902 0.62724
 O934 O 0.65160 0.09758 0.64773
 Zr935 Zr 0.59069 0.11901 0.62792
 O936 O 0.61062 0.13952 0.64906
 O937 O 0.65311 0.14015 0.64888
 O938 O 0.60828 0.09770 0.60666
 C939 C 0.68410 0.11780 0.67775
 C940 C 0.68288 0.16970 0.62452
 C941 C 0.63138 0.17009 0.68013
 C942 C 0.57829 0.11910 0.57692
 C943 C 0.62672 0.06737 0.57644
 C944 C 0.57838 0.06822 0.62748
 H945 H 0.66050 0.08879 0.59764
 H946 H 0.60143 0.09004 0.65948
 H947 H 0.66307 0.14971 0.65808
 H948 H 0.60133 0.15047 0.59867
 H949 H 0.63891 0.15553 0.56808
 H950 H 0.62472 0.18064 0.59197
 H951 H 0.61930 0.05757 0.66376
 H952 H 0.64318 0.08180 0.68643
 H953 H 0.66411 0.10503 0.56490
 H954 H 0.68858 0.12790 0.58902
 H955 H 0.56953 0.10882 0.66454
 H956 H 0.59545 0.12786 0.68796
 H957 H 0.68946 0.08125 0.63614
 H958 H 0.66502 0.05667 0.61592
 H959 H 0.59484 0.17792 0.64103
 H960 H 0.56926 0.15547 0.61771
 C961 C 0.37216 0.81824 0.71961
 C962 C 0.37347 0.80251 0.73691
 C963 C 0.37492 0.77954 0.73216
 C964 C 0.37540 0.77262 0.70957
 C965 C 0.37411 0.78836 0.69225
 C966 C 0.37247 0.81138 0.69704
 C967 C 0.37666 0.76356 0.75118
 C968 C 0.37111 0.74182 0.74968
 C969 C 0.37291 0.72563 0.76851
 C970 C 0.37317 0.70269 0.76341
 C971 C 0.37442 0.68666 0.78041
 C972 C 0.37528 0.69316 0.80306
 C973 C 0.37492 0.71615 0.80824
 C974 C 0.37369 0.73222 0.79119
 H975 H 0.37099 0.83581 0.72399
 H976 H 0.37325 0.80833 0.75411
 H977 H 0.37727 0.75517 0.70510
 H978 H 0.37461 0.78248 0.67508
 H979 H 0.38251 0.77028 0.76696
 H980 H 0.36512 0.73525 0.73388
 H981 H 0.37244 0.69710 0.74614
 H982 H 0.37456 0.66913 0.77572
 H983 H 0.37534 0.72176 0.82551
 H984 H 0.37285 0.74966 0.79598
 C985 C 0.37507 0.22563 0.31906
 C986 C 0.37460 0.24195 0.30230
 C987 C 0.37405 0.23588 0.27957
 C988 C 0.37375 0.21297 0.27394
 C989 C 0.37421 0.19662 0.29073
 C990 C 0.37485 0.20274 0.31350
 C991 C 0.37309 0.25400 0.26255
 C992 C 0.37819 0.25126 0.24079
 C993 C 0.37731 0.26975 0.22417
 C994 C 0.37463 0.26448 0.20139
 C995 C 0.37380 0.28141 0.18520
 C996 C 0.37581 0.30404 0.19145
 C997 C 0.37885 0.30928 0.21424
 C998 C 0.37970 0.29237 0.23039
 H999 H 0.37545 0.23100 0.33640
 H1000 H 0.37470 0.25945 0.30714
 H1001 H 0.37267 0.20745 0.25672
 H1002 H 0.37381 0.17915 0.28582
 H1003 H 0.36808 0.27037 0.26851
 H1004 H 0.38295 0.23493 0.23457
 H1005 H 0.37299 0.24719 0.19611
 H1006 H 0.37153 0.27674 0.16780
 H1007 H 0.38074 0.32649 0.21967
 H1008 H 0.38267 0.29717 0.24761
 C1009 C 0.61670 0.81489 0.27784
 C1010 C 0.61806 0.79859 0.26112
 C1011 C 0.61950 0.77581 0.26666
 C1012 C 0.61964 0.76961 0.28944
 C1013 C 0.61828 0.78593 0.30620
 C1014 C 0.61691 0.80877 0.30060
 C1015 C 0.62170 0.75935 0.24819
 C1016 C 0.61709 0.73746 0.25025
 C1017 C 0.61939 0.72130 0.23152
 C1018 C 0.62249 0.69855 0.23653
 C1019 C 0.62456 0.68274 0.21937
 C1020 C 0.62340 0.68936 0.19678
 C1021 C 0.62006 0.71212 0.19178
 C1022 C 0.61795 0.72790 0.20892
 H1023 H 0.61574 0.83231 0.27289
 H1024 H 0.61804 0.80384 0.24373
 H1025 H 0.62141 0.75233 0.29452
 H1026 H 0.61872 0.78064 0.32356
 H1027 H 0.62728 0.76583 0.23221
 H1028 H 0.61171 0.73080 0.26622
 H1029 H 0.62345 0.69300 0.25379
 H1030 H 0.62703 0.66533 0.22385
 H1031 H 0.61878 0.71778 0.17457
 H1032 H 0.61472 0.74511 0.20430
 C1033 C 0.11800 0.31138 0.27489
 C1034 C 0.11981 0.29475 0.25850
 C1035 C 0.12100 0.27205 0.26448
 C1036 C 0.12039 0.26630 0.28737
 C1037 C 0.11857 0.28294 0.30377
 C1038 C 0.11746 0.30569 0.29775
 C1039 C 0.12372 0.25520 0.24637
 C1040 C 0.11932 0.23327 0.24873
 C1041 C 0.12216 0.21671 0.23036
 C1042 C 0.12489 0.19401 0.23587
 C1043 C 0.12744 0.17784 0.21907
 C1044 C 0.12717 0.18404 0.19633
 C1045 C 0.12417 0.20675 0.19083
 C1046 C 0.12157 0.22287 0.20760
 H1047 H 0.11728 0.32872 0.26960
 H1048 H 0.12037 0.29969 0.24103
 H1049 H 0.12191 0.24911 0.29284
 H1050 H 0.11844 0.27795 0.32123
 H1051 H 0.12957 0.26144 0.23039
 H1052 H 0.11368 0.22686 0.26471
 H1053 H 0.12519 0.18877 0.25325
 H1054 H 0.12963 0.16050 0.22392
 H1055 H 0.12357 0.21212 0.17350
 H1056 H 0.11864 0.24001 0.20252
 C1057 C 0.12824 0.71469 0.68049
 C1058 C 0.12644 0.73211 0.69606
 C1059 C 0.12418 0.72758 0.71903
 C1060 C 0.12344 0.70504 0.72606
 C1061 C 0.12529 0.68759 0.71048
 C1062 C 0.12769 0.69218 0.68749
 C1063 C 0.12194 0.74675 0.73482
 C1064 C 0.12614 0.74528 0.75688
 C1065 C 0.12380 0.76417 0.77297
 C1066 C 0.12214 0.75906 0.79584
 C1067 C 0.12069 0.77603 0.81187
 C1068 C 0.12104 0.79872 0.80549
 C1069 C 0.12260 0.80394 0.78255
 C1070 C 0.12401 0.78688 0.76644
 H1071 H 0.13001 0.71891 0.66293
 H1072 H 0.12688 0.74925 0.69011
 H1073 H 0.12096 0.70067 0.74346
 H1074 H 0.12454 0.67048 0.71647
 H1075 H 0.11685 0.76263 0.72774
 H1076 H 0.13139 0.72941 0.76386
 H1077 H 0.12203 0.74178 0.80140
 H1078 H 0.11957 0.77127 0.82936
 H1079 H 0.12313 0.82122 0.77705
 H1080 H 0.12585 0.79164 0.74906
 C1081 C 0.88253 0.22116 0.81552
 C1082 C 0.88117 0.23839 0.79978
 C1083 C 0.87954 0.23362 0.77683
 C1084 C 0.87918 0.21102 0.76993
 C1085 C 0.88049 0.19370 0.78575
 C1086 C 0.88209 0.19857 0.80876
 C1087 C 0.87734 0.25270 0.76098
 C1088 C 0.88223 0.25144 0.73907
 C1089 C 0.87989 0.27049 0.72317
 C1090 C 0.87878 0.26568 0.70019
 C1091 C 0.87688 0.28287 0.68444
 C1092 C 0.87621 0.30544 0.69123
 C1093 C 0.87744 0.31035 0.71425
 C1094 C 0.87934 0.29309 0.73007
 H1095 H 0.88366 0.22564 0.83308
 H1096 H 0.88135 0.25559 0.80560
 H1097 H 0.87727 0.20654 0.75248
 H1098 H 0.87987 0.17651 0.77996
 H1099 H 0.87162 0.26841 0.76798
 H1100 H 0.88798 0.23571 0.73213
 H1101 H 0.87930 0.24850 0.69436
 H1102 H 0.87603 0.27837 0.66687
 H1103 H 0.87717 0.32754 0.72007
 H1104 H 0.88082 0.29767 0.74753
 C1105 C 0.77974 0.37614 0.68400
 C1106 C 0.76260 0.37582 0.69991
 C1107 C 0.76753 0.37591 0.72289
 C1108 C 0.79013 0.37605 0.72968
 C1109 C 0.80732 0.37634 0.71374
 C1110 C 0.80234 0.37637 0.69070
 C1111 C 0.74865 0.37496 0.73904
 C1112 C 0.75016 0.38171 0.76044
 C1113 C 0.73135 0.38032 0.77663
 C1114 C 0.73634 0.37983 0.79960
 C1115 C 0.71926 0.37838 0.81552
 C1116 C 0.69667 0.37758 0.80885
 C1117 C 0.69161 0.37848 0.78585
 C1118 C 0.70874 0.37990 0.76990
 H1119 H 0.77523 0.37603 0.66642
 H1120 H 0.74536 0.37552 0.69422
 H1121 H 0.79472 0.37539 0.74719
 H1122 H 0.82453 0.37628 0.71949
 H1123 H 0.73292 0.36851 0.73277
 H1124 H 0.76589 0.38813 0.76673
 H1125 H 0.75358 0.38033 0.80526
 H1126 H 0.72382 0.37784 0.83308
 H1127 H 0.67441 0.37812 0.78012
 H1128 H 0.70408 0.38104 0.75243
 C1129 C 0.28307 0.62171 0.81492
 C1130 C 0.26564 0.62172 0.79929
 C1131 C 0.27020 0.62177 0.77623
 C1132 C 0.29267 0.62215 0.76906
 C1133 C 0.31011 0.62216 0.78468
 C1134 C 0.30553 0.62197 0.80780
 C1135 C 0.25115 0.62238 0.76029
 C1136 C 0.25262 0.61515 0.73904
 C1137 C 0.23399 0.61638 0.72266
 C1138 C 0.23924 0.61555 0.69976
 C1139 C 0.22239 0.61664 0.68359
 C1140 C 0.19977 0.61842 0.68994
 C1141 C 0.19444 0.61898 0.71290
 C1142 C 0.21134 0.61790 0.72910
 H1143 H 0.27890 0.62170 0.83259
 H1144 H 0.24849 0.62165 0.80526
 H1145 H 0.29695 0.62302 0.75147
 H1146 H 0.32719 0.62263 0.77858
 H1147 H 0.23548 0.62898 0.76654
 H1148 H 0.26832 0.60840 0.73298
 H1149 H 0.25651 0.61422 0.69433
 H1150 H 0.22715 0.61609 0.66608
 H1151 H 0.17718 0.62012 0.71838
 H1152 H 0.20645 0.61787 0.74655
 C1153 C 0.28214 0.12776 0.32168
 C1154 C 0.26537 0.12475 0.30562
 C1155 C 0.27079 0.12210 0.28289
 C1156 C 0.29355 0.12224 0.27659
 C1157 C 0.31035 0.12529 0.29267
 C1158 C 0.30486 0.12806 0.31543
 C1159 C 0.25223 0.11868 0.26660
 C1160 C 0.25421 0.12217 0.24446
 C1161 C 0.23567 0.11915 0.22810
 C1162 C 0.24117 0.11692 0.20535
 C1163 C 0.22446 0.11515 0.18908
 C1164 C 0.20168 0.11572 0.19511
 C1165 C 0.19609 0.11770 0.21793
 C1166 C 0.21287 0.11947 0.23426
 H1167 H 0.27724 0.12979 0.33904
 H1168 H 0.24804 0.12457 0.31101
 H1169 H 0.29862 0.11955 0.25941
 H1170 H 0.32767 0.12519 0.28727
 H1171 H 0.23630 0.11340 0.27341
 H1172 H 0.27013 0.12749 0.23766
 H1173 H 0.25855 0.11672 0.20009
 H1174 H 0.22947 0.11369 0.17169
 H1175 H 0.17873 0.11844 0.22316
 H1176 H 0.20778 0.12177 0.25149
 C1177 C 0.78852 0.12422 0.81718
 C1178 C 0.77120 0.12194 0.80164
 C1179 C 0.77580 0.12046 0.77864
 C1180 C 0.79831 0.12103 0.77150
 C1181 C 0.81570 0.12330 0.78710
 C1182 C 0.81101 0.12492 0.81014
 C1183 C 0.75665 0.11777 0.76299
 C1184 C 0.75759 0.12266 0.74106
 C1185 C 0.73826 0.12040 0.72557
 C1186 C 0.74258 0.11870 0.70253
 C1187 C 0.72502 0.11738 0.68714
 C1188 C 0.70259 0.11790 0.69438
 C1189 C 0.69820 0.11953 0.71748
 C1190 C 0.71582 0.12083 0.73292
 H1191 H 0.78420 0.12536 0.83477
 H1192 H 0.75408 0.12142 0.80764
 H1193 H 0.80270 0.11926 0.75401
 H1194 H 0.83282 0.12357 0.78110
 H1195 H 0.74108 0.11187 0.77013
 H1196 H 0.77315 0.12850 0.73385
 H1197 H 0.75966 0.11848 0.69638
 H1198 H 0.72910 0.11622 0.66948
 H1199 H 0.68115 0.12023 0.72363
 H1200 H 0.71168 0.12283 0.75045
 C1201 C 0.68113 0.88054 0.27831
 C1202 C 0.69763 0.88132 0.26171
 C1203 C 0.72046 0.88104 0.26736
 C1204 C 0.72642 0.88034 0.29021
 C1205 C 0.70988 0.87959 0.30685
 C1206 C 0.68701 0.87962 0.30112
 C1207 C 0.73720 0.88202 0.24890
 C1208 C 0.75884 0.87613 0.25100
 C1209 C 0.77516 0.87664 0.23214
 C1210 C 0.79816 0.87751 0.23704
 C1211 C 0.81411 0.87758 0.21983
 C1212 C 0.80744 0.87660 0.19724
 C1213 C 0.78441 0.87551 0.19233
 C1214 C 0.76848 0.87544 0.20952
 H1215 H 0.66372 0.88066 0.27321
 H1216 H 0.69250 0.88201 0.24430
 H1217 H 0.74374 0.88074 0.29545
 H1218 H 0.71505 0.87905 0.32425
 H1219 H 0.73108 0.88760 0.23278
 H1220 H 0.76517 0.87077 0.26711
 H1221 H 0.80381 0.87821 0.25428
 H1222 H 0.83169 0.87831 0.22428
 H1223 H 0.77862 0.87448 0.17516
 H1224 H 0.75104 0.87391 0.20491
 C1225 C 0.81057 0.72547 0.38085
 C1226 C 0.79456 0.74246 0.37952
 C1227 C 0.77170 0.73731 0.37794
 C1228 C 0.76515 0.71464 0.37759
 C1229 C 0.78119 0.69761 0.37891
 C1230 C 0.80410 0.70282 0.38045
 C1231 C 0.75551 0.75603 0.37573
 C1232 C 0.73367 0.75428 0.38071
 C1233 C 0.71745 0.77293 0.37816
 C1234 C 0.69462 0.76771 0.37635
 C1235 C 0.67863 0.78464 0.37416
 C1236 C 0.68509 0.80729 0.37389
 C1237 C 0.70795 0.81258 0.37587
 C1238 C 0.72396 0.79561 0.37807
 H1239 H 0.82806 0.73014 0.38192
 H1240 H 0.80009 0.75975 0.37967
 H1241 H 0.74779 0.70987 0.37566
 H1242 H 0.77562 0.68035 0.37830
 H1243 H 0.76212 0.77183 0.36984
 H1244 H 0.72706 0.73847 0.38659
 H1245 H 0.68911 0.75041 0.37653
 H1246 H 0.66117 0.77991 0.37274
 H1247 H 0.71350 0.82985 0.37597
 H1248 H 0.74127 0.80047 0.38018
 C1249 C 0.78165 0.31240 0.62156
 C1250 C 0.76488 0.29616 0.62219
 C1251 C 0.77034 0.27333 0.62224
 C1252 C 0.79307 0.26700 0.62185
 C1253 C 0.80990 0.28328 0.62127
 C1254 C 0.80438 0.30618 0.62118
 C1255 C 0.75184 0.25687 0.62367
 C1256 C 0.75362 0.23551 0.61696
 C1257 C 0.73506 0.21916 0.61878
 C1258 C 0.74032 0.19630 0.61976
 C1259 C 0.72341 0.18027 0.62165
 C1260 C 0.70076 0.18676 0.62242
 C1261 C 0.69545 0.20966 0.62103
 C1262 C 0.71239 0.22569 0.61914
 H1263 H 0.77673 0.32986 0.62162
 H1264 H 0.74753 0.30148 0.62265
 H1265 H 0.79803 0.24960 0.62259
 H1266 H 0.82723 0.27792 0.62122
 H1267 H 0.73613 0.26288 0.63041
 H1268 H 0.76934 0.22942 0.61030
 H1269 H 0.75762 0.19081 0.61931
 H1270 H 0.72814 0.16278 0.62257
 H1271 H 0.67819 0.21523 0.62130
 H1272 H 0.70755 0.24308 0.61758
 C1273 C 0.68587 0.71744 0.12198
 C1274 C 0.70133 0.73493 0.12108
 C1275 C 0.72438 0.73054 0.12140
 C1276 C 0.73172 0.70811 0.12211
 C1277 C 0.71621 0.69055 0.12294
 C1278 C 0.69309 0.69502 0.12299
 C1279 C 0.74001 0.74981 0.12039
 C1280 C 0.76117 0.74904 0.12785
 C1281 C 0.77667 0.76842 0.12704
 C1282 C 0.79976 0.76423 0.12718
 C1283 C 0.81507 0.78188 0.12668
 C1284 C 0.80764 0.80425 0.12627
 C1285 C 0.78448 0.80851 0.12642
 C1286 C 0.76914 0.79080 0.12685
 H1287 H 0.66820 0.72157 0.12184
 H1288 H 0.69522 0.75201 0.12034
 H1289 H 0.74934 0.70395 0.12164
 H1290 H 0.72235 0.67348 0.12352
 H1291 H 0.73347 0.76530 0.11360
 H1292 H 0.76775 0.73356 0.13461
 H1293 H 0.80601 0.74719 0.12754
 H1294 H 0.83277 0.77792 0.12675
 H1295 H 0.77818 0.82552 0.12635
 H1296 H 0.75148 0.79479 0.12751
 C1297 C 0.27923 0.31634 0.12648
 C1298 C 0.26227 0.30015 0.12624
 C1299 C 0.26746 0.27737 0.12340
 C1300 C 0.28995 0.27116 0.12011
 C1301 C 0.30686 0.28728 0.12037
 C1302 C 0.30176 0.31005 0.12369
 C1303 C 0.24905 0.26068 0.12326
 C1304 C 0.25210 0.23903 0.12860
 C1305 C 0.23416 0.22183 0.12808
 C1306 C 0.24043 0.19916 0.12746
 C1307 C 0.22424 0.18226 0.12706
 C1308 C 0.20133 0.18765 0.12742
 C1309 C 0.19503 0.21035 0.12830
 C1310 C 0.21123 0.22725 0.12870
 H1311 H 0.27469 0.33372 0.12898
 H1312 H 0.24505 0.30540 0.12853
 H1313 H 0.29463 0.25395 0.11692
 H1314 H 0.32398 0.28183 0.11785
 H1315 H 0.23257 0.26672 0.11878
 H1316 H 0.26862 0.23330 0.13336
 H1317 H 0.25796 0.19448 0.12714
 H1318 H 0.22973 0.16497 0.12649
 H1319 H 0.17754 0.21513 0.12883
 H1320 H 0.20558 0.24441 0.12990
 C1321 C 0.31531 0.71656 0.87954
 C1322 C 0.29897 0.73324 0.88085
 C1323 C 0.27615 0.72769 0.88083
 C1324 C 0.26998 0.70493 0.88005
 C1325 C 0.28634 0.68821 0.87879
 C1326 C 0.30921 0.69382 0.87839
 C1327 C 0.25952 0.74611 0.88207
 C1328 C 0.23832 0.74423 0.87483
 C1329 C 0.22186 0.76284 0.87555
 C1330 C 0.19897 0.75759 0.87508
 C1331 C 0.18282 0.77452 0.87527
 C1332 C 0.18921 0.79720 0.87572
 C1333 C 0.21215 0.80250 0.87600
 C1334 C 0.22831 0.78554 0.87584
 H1335 H 0.33276 0.72153 0.87939
 H1336 H 0.30420 0.75060 0.88163
 H1337 H 0.25261 0.69987 0.88077
 H1338 H 0.28105 0.67087 0.87813
 H1339 H 0.26533 0.76192 0.88877
 H1340 H 0.23249 0.72843 0.86815
 H1341 H 0.19354 0.74028 0.87464
 H1342 H 0.16532 0.76979 0.87492
 H1343 H 0.21768 0.81978 0.87611
 H1344 H 0.24575 0.79038 0.87541
 C1345 C 0.31120 0.22658 0.38242
 C1346 C 0.29490 0.24324 0.38053
 C1347 C 0.27216 0.23764 0.37882
 C1348 C 0.26602 0.21485 0.37895
 C1349 C 0.28235 0.19815 0.38085
 C1350 C 0.30515 0.20381 0.38249
 C1351 C 0.25566 0.25601 0.37599
 C1352 C 0.23376 0.25397 0.38058
 C1353 C 0.21729 0.27232 0.37744
 C1354 C 0.19458 0.26672 0.37525
 C1355 C 0.17838 0.28337 0.37253
 C1356 C 0.18449 0.30612 0.37210
 C1357 C 0.20723 0.31178 0.37445
 C1358 C 0.22345 0.29510 0.37718
 H1359 H 0.32860 0.23160 0.38356
 H1360 H 0.30011 0.26063 0.38033
 H1361 H 0.24878 0.20970 0.37697
 H1362 H 0.27712 0.18078 0.38059
 H1363 H 0.26210 0.27183 0.36995
 H1364 H 0.22729 0.23816 0.38658
 H1365 H 0.18935 0.24934 0.37554
 H1366 H 0.16103 0.27836 0.37084
 H1367 H 0.21251 0.32914 0.37445
 H1368 H 0.24064 0.30026 0.37957
 C1369 C 0.53284 0.62343 1.06410
 C1370 C 0.51580 0.62403 1.04808
 C1371 C 0.52091 0.62507 1.02514
 C1372 C 0.54353 0.62583 1.01853
 C1373 C 0.56059 0.62525 1.03456
 C1374 C 0.55546 0.62407 1.05754
 C1375 C 0.50217 0.62610 1.00888
 C1376 C 0.50407 0.62025 0.98723
 C1377 C 0.48525 0.62137 0.97106
 C1378 C 0.49015 0.62277 0.94810
 C1379 C 0.47295 0.62375 0.93224
 C1380 C 0.45040 0.62319 0.93901
 C1381 C 0.44549 0.62147 0.96200
 C1382 C 0.46268 0.62047 0.97784
 H1383 H 0.52825 0.62255 1.08164
 H1384 H 0.49853 0.62358 1.05363
 H1385 H 0.54824 0.62738 1.00110
 H1386 H 0.57782 0.62594 1.02891
 H1387 H 0.48619 0.63174 1.01528
 H1388 H 0.52006 0.61467 0.98077
 H1389 H 0.50738 0.62326 0.94240
 H1390 H 0.47737 0.62491 0.91467
 H1391 H 0.42832 0.62066 0.96781
 H1392 H 0.45812 0.61853 0.99527
 C1393 C 0.43611 0.13558 0.47688
 C1394 C 0.45205 0.13463 0.49399
 C1395 C 0.47483 0.13174 0.48903
 C1396 C 0.48142 0.13036 0.46637
 C1397 C 0.46545 0.13139 0.44920
 C1398 C 0.44257 0.13390 0.45425
 C1399 C 0.49107 0.13094 0.50789
 C1400 C 0.51126 0.12115 0.50648
 C1401 C 0.52776 0.12058 0.52513
 C1402 C 0.55038 0.11709 0.51983
 C1403 C 0.56665 0.11655 0.53662
 C1404 C 0.56072 0.11929 0.55929
 C1405 C 0.53799 0.12230 0.56472
 C1406 C 0.52166 0.12293 0.54785
 H1407 H 0.41867 0.13761 0.48144
 H1408 H 0.44651 0.13596 0.51124
 H1409 H 0.49886 0.12888 0.46174
 H1410 H 0.47105 0.13017 0.43198
 H1411 H 0.48586 0.13852 0.52351
 H1412 H 0.51636 0.11350 0.49084
 H1413 H 0.55554 0.11499 0.50254
 H1414 H 0.58394 0.11397 0.53176
 H1415 H 0.53280 0.12425 0.58201
 H1416 H 0.50435 0.12491 0.55277
 C1417 C 0.52519 0.88121 0.43312
 C1418 C 0.50852 0.88219 0.44954
 C1419 C 0.51407 0.88218 0.47241
 C1420 C 0.53686 0.88157 0.47851
 C1421 C 0.55357 0.88062 0.46205
 C1422 C 0.54795 0.88035 0.43915
 C1423 C 0.49557 0.88336 0.48908
 C1424 C 0.49761 0.87752 0.51075
 C1425 C 0.47877 0.87823 0.52706
 C1426 C 0.48369 0.87915 0.55006
 C1427 C 0.46651 0.87938 0.56603
 C1428 C 0.44393 0.87849 0.55936
 C1429 C 0.43900 0.87738 0.53632
 C1430 C 0.45617 0.87716 0.52037
 H1431 H 0.52019 0.88119 0.41567
 H1432 H 0.49115 0.88282 0.44432
 H1433 H 0.54201 0.88222 0.49586
 H1434 H 0.57092 0.88021 0.46733
 H1435 H 0.47951 0.88901 0.48289
 H1436 H 0.51366 0.87205 0.51711
 H1437 H 0.50092 0.87979 0.55572
 H1438 H 0.47096 0.88020 0.58361
 H1439 H 0.42183 0.87648 0.53054
 H1440 H 0.45156 0.87562 0.50292
 C1441 C 1.02287 0.37821 0.42813
 C1442 C 1.00613 0.37950 0.44443
 C1443 C 1.01167 0.38083 0.46725
 C1444 C 1.03441 0.38139 0.47344
 C1445 C 1.05116 0.38011 0.45714
 C1446 C 1.04560 0.37841 0.43430
 C1447 C 0.99330 0.38214 0.48390
 C1448 C 0.99563 0.37606 0.50543
 C1449 C 0.97721 0.37695 0.52205
 C1450 C 0.98271 0.37766 0.54491
 C1451 C 0.96594 0.37798 0.56123
 C1452 C 0.94322 0.37741 0.55504
 C1453 C 0.93770 0.37660 0.53214
 C1454 C 0.95448 0.37628 0.51582
 H1455 H 1.01797 0.37710 0.41068
 H1456 H 0.98875 0.37927 0.43920
 H1457 H 1.03945 0.38326 0.49074
 H1458 H 1.06849 0.38063 0.46249
 H1459 H 0.97723 0.38796 0.47788
 H1460 H 1.01170 0.37022 0.51142
 H1461 H 1.00008 0.37802 0.55017
 H1462 H 0.97082 0.37857 0.57871
 H1463 H 0.92039 0.37594 0.52677
 H1464 H 0.94947 0.37495 0.49846
 C1465 C -0.07033 0.87989 1.02954
 C1466 C -0.05492 0.88019 1.01194
 C1467 C -0.03187 0.88025 1.01627
 C1468 C -0.02445 0.88086 1.03865
 C1469 C -0.03982 0.88063 1.05629
 C1470 C -0.06302 0.87988 1.05203
 C1471 C -0.01612 0.88003 0.99711
 C1472 C 0.00449 0.87123 0.99848
 C1473 C 0.02063 0.87079 0.97965
 C1474 C 0.04343 0.86843 0.98471
 C1475 C 0.05939 0.86777 0.96768
 C1476 C 0.05291 0.86924 0.94506
 C1477 C 0.03002 0.87131 0.93991
 C1478 C 0.01402 0.87203 0.95702
 H1479 H -0.08800 0.87956 1.02539
 H1480 H -0.06104 0.88001 0.99484
 H1481 H -0.00680 0.88183 1.04266
 H1482 H -0.03340 0.88099 1.07328
 H1483 H -0.02207 0.88687 0.98142
 H1484 H 0.01013 0.86421 1.01423
 H1485 H 0.04896 0.86726 1.00198
 H1486 H 0.07686 0.86608 0.97230
 H1487 H 0.02445 0.87235 0.92266
 H1488 H -0.00344 0.87315 0.95235
 C1489 C -0.05621 0.12196 -0.03075
 C1490 C -0.04034 0.11953 -0.01382
 C1491 C -0.01744 0.11923 -0.01889
 C1492 C -0.01067 0.12098 -0.04145
 C1493 C -0.02660 0.12335 -0.05847
 C1494 C -0.04956 0.12394 -0.05329
 C1495 C -0.00138 0.11660 -0.00020
 C1496 C 0.01989 0.12364 -0.00110
 C1497 C 0.03565 0.12164 0.01794
 C1498 C 0.05866 0.12136 0.01339
 C1499 C 0.07419 0.12003 0.03080
 C1500 C 0.06702 0.11917 0.05326
 C1501 C 0.04395 0.11954 0.05786
 C1502 C 0.02840 0.12085 0.04040
 H1503 H -0.07376 0.12211 -0.02612
 H1504 H -0.04599 0.11802 0.00338
 H1505 H 0.00680 0.12007 -0.04614
 H1506 H -0.02094 0.12453 -0.07568
 H1507 H -0.00770 0.10908 0.01504
 H1508 H 0.02629 0.13109 -0.01634
 H1509 H 0.06467 0.12212 -0.00374
 H1510 H 0.09184 0.11981 0.02660
 H1511 H 0.03787 0.11911 0.07496
 H1512 H 0.01082 0.12181 0.04467
 C1513 C 0.13091 1.05893 1.03125
 C1514 C 0.12870 1.04344 1.01384
 C1515 C 0.12677 1.02048 1.01835
 C1516 C 0.12687 1.01331 1.04085
 C1517 C 0.12910 1.02879 1.05833
 C1518 C 0.13108 1.05189 1.05383
 C1519 C 0.12396 1.00485 0.99916
 C1520 C 0.12839 0.98284 1.00027
 C1521 C 0.12565 0.96712 0.98116
 C1522 C 0.12389 0.94418 0.98586
 C1523 C 0.12206 0.92853 0.96857
 C1524 C 0.12213 0.93541 0.94601
 C1525 C 0.12379 0.95842 0.94123
 C1526 C 0.12560 0.97412 0.95859
 H1527 H 0.13227 1.07649 1.02689
 H1528 H 0.12851 1.04947 0.99671
 H1529 H 0.12469 0.99587 1.04519
 H1530 H 0.12889 1.02259 1.07539
 H1531 H 0.11824 1.01204 0.98354
 H1532 H 0.13416 0.97568 1.01588
 H1533 H 0.12398 0.93829 1.00304
 H1534 H 0.12082 0.91097 0.97295
 H1535 H 0.12407 0.96430 0.92406
 H1536 H 0.12756 0.99156 0.95414
 C1537 C 0.11344 0.46829 0.42882
 C1538 C 0.11363 0.48493 0.44531
 C1539 C 0.11417 0.47926 0.46813
 C1540 C 0.11382 0.45647 0.47417
 C1541 C 0.11360 0.43981 0.45769
 C1542 C 0.11361 0.44551 0.43481
 C1543 C 0.11471 0.49758 0.48493
 C1544 C 0.12240 0.49507 0.50594
 C1545 C 0.12356 0.51364 0.52245
 C1546 C 0.12407 0.50842 0.54538
 C1547 C 0.12545 0.52538 0.56151
 C1548 C 0.12655 0.54800 0.55501
 C1549 C 0.12635 0.55320 0.53201
 C1550 C 0.12496 0.53625 0.51592
 H1551 H 0.11327 0.47331 0.41138
 H1552 H 0.11365 0.50234 0.44018
 H1553 H 0.11339 0.45132 0.49154
 H1554 H 0.11344 0.42245 0.46293
 H1555 H 0.10897 0.51385 0.47940
 H1556 H 0.12807 0.47881 0.51157
 H1557 H 0.12324 0.49114 0.55087
 H1558 H 0.12560 0.52075 0.57905
 H1559 H 0.12736 0.57041 0.52636
 H1560 H 0.12546 0.54101 0.49844
 C1561 C 0.37827 0.47076 1.06621
 C1562 C 0.37875 0.48822 1.05060
 C1563 C 0.37846 0.48372 1.02752
 C1564 C 0.37728 0.46126 1.02034
 C1565 C 0.37673 0.44378 1.03596
 C1566 C 0.37722 0.44831 1.05910
 C1567 C 0.37846 0.50290 1.01163
 C1568 C 0.38534 0.50134 0.99026
 C1569 C 0.38474 0.52020 0.97399
 C1570 C 0.38541 0.51511 0.95104
 C1571 C 0.38466 0.53209 0.93496
 C1572 C 0.38338 0.55472 0.94142
 C1573 C 0.38317 0.55992 0.96442
 C1574 C 0.38388 0.54287 0.98055
 H1575 H 0.37860 0.47493 1.08388
 H1576 H 0.37946 0.50533 1.05661
 H1577 H 0.37626 0.45704 1.00275
 H1578 H 0.37578 0.42671 1.02988
 H1579 H 0.37264 0.51880 1.01808
 H1580 H 0.39131 0.48541 0.98400
 H1581 H 0.38629 0.49784 0.94548
 H1582 H 0.38505 0.52740 0.91742
 H1583 H 0.38244 0.57717 0.97001
 H1584 H 0.38407 0.54765 0.99802
 C1585 C 0.87560 0.56979 0.47157
 C1586 C 0.87692 0.55366 0.48843
 C1587 C 0.87691 0.53078 0.48313
 C1588 C 0.87599 0.52433 0.46042
 C1589 C 0.87470 0.54051 0.44349
 C1590 C 0.87442 0.56344 0.44888
 C1591 C 0.87845 0.51441 0.50176
 C1592 C 0.87151 0.49312 0.50017
 C1593 C 0.87274 0.47686 0.51892
 C1594 C 0.87278 0.45395 0.51377
 C1595 C 0.87341 0.43792 0.53078
 C1596 C 0.87380 0.44443 0.55346
 C1597 C 0.87365 0.46740 0.55867
 C1598 C 0.87307 0.48346 0.54160
 H1599 H 0.87561 0.58728 0.47639
 H1600 H 0.87782 0.55909 0.50574
 H1601 H 0.87670 0.50691 0.45553
 H1602 H 0.87409 0.53504 0.42619
 H1603 H 0.88520 0.52048 0.51746
 H1604 H 0.86479 0.48701 0.48448
 H1605 H 0.87237 0.44840 0.49648
 H1606 H 0.87344 0.42040 0.52609
 H1607 H 0.87378 0.47299 0.57594
 H1608 H 0.87233 0.50093 0.54634
 C1609 C 0.88652 1.06656 -0.03045
 C1610 C 0.88633 1.05072 -0.01327
 C1611 C 0.88229 1.02808 -0.01795
 C1612 C 0.87917 1.02143 -0.04040
 C1613 C 0.87947 1.03729 -0.05766
 C1614 C 0.88291 1.06008 -0.05284
 C1615 C 0.88196 1.01203 0.00099
 C1616 C 0.87083 0.99253 0.00044
 C1617 C 0.87046 0.97652 0.01941
 C1618 C 0.86648 0.95385 0.01477
 C1619 C 0.86622 0.93806 0.03200
 C1620 C 0.86968 0.94461 0.05440
 C1621 C 0.87311 0.96742 0.05915
 C1622 C 0.87347 0.98324 0.04185
 H1623 H 0.88949 1.08393 -0.02612
 H1624 H 0.88906 1.05625 0.00382
 H1625 H 0.87681 1.00401 -0.04480
 H1626 H 0.87687 1.03172 -0.07474
 H1627 H 0.89087 1.01686 0.01602
 H1628 H 0.86193 0.98769 -0.01460
 H1629 H 0.86387 0.94828 -0.00232
 H1630 H 0.86339 0.92066 0.02770
 H1631 H 0.87569 0.97305 0.07622
 H1632 H 0.87581 1.00066 0.04621
 C1633 C 0.61736 -0.02979 0.43233
 C1634 C 0.61863 -0.01304 0.44861
 C1635 C 0.61999 -0.01856 0.47142
 C1636 C 0.62022 -0.04131 0.47764
 C1637 C 0.61894 -0.05808 0.46135
 C1638 C 0.61760 -0.05252 0.43849
 C1639 C 0.62210 -0.00016 0.48794
 C1640 C 0.61680 -0.00228 0.50968
 C1641 C 0.61949 0.01601 0.52625
 C1642 C 0.62163 0.01035 0.54896
 C1643 C 0.62420 0.02698 0.56521
 C1644 C 0.62451 0.04973 0.55911
 C1645 C 0.62206 0.05544 0.53638
 C1646 C 0.61949 0.03879 0.52012
 H1647 H 0.61635 -0.02487 0.41488
 H1648 H 0.61857 0.00433 0.44336
 H1649 H 0.62199 -0.04635 0.49495
 H1650 H 0.61936 -0.07542 0.46668
 H1651 H 0.62826 0.01570 0.48171
 H1652 H 0.61066 -0.01813 0.51595
 H1653 H 0.62148 -0.00704 0.55414
 H1654 H 0.62586 0.02196 0.58258
 H1655 H 0.62188 0.07281 0.53113
 H1656 H 0.61707 0.04393 0.50292
 C1657 C 0.46764 1.07322 0.38440
 C1658 C 0.48457 1.05716 0.38267
 C1659 C 0.47933 1.03433 0.38073
 C1660 C 0.45663 1.02788 0.38047
 C1661 C 0.43968 1.04395 0.38222
 C1662 C 0.44497 1.06683 0.38406
 C1663 C 0.49795 1.01806 0.37803
 C1664 C 0.49602 0.99608 0.38232
 C1665 C 0.51443 0.97967 0.37910
 C1666 C 0.50885 0.95696 0.37689
 C1667 C 0.52550 0.94075 0.37421
 C1668 C 0.54825 0.94686 0.37384
 C1669 C 0.55390 0.96961 0.37614
 C1670 C 0.53720 0.98585 0.37882
 H1671 H 0.47236 1.09068 0.38577
 H1672 H 0.50188 1.06261 0.38278
 H1673 H 0.45174 1.01059 0.37828
 H1674 H 0.42240 1.03844 0.38170
 H1675 H 0.51379 1.02471 0.37229
 H1676 H 0.48019 0.98946 0.38812
 H1677 H 0.49148 0.95170 0.37721
 H1678 H 0.52049 0.92338 0.37264
 H1679 H 0.57125 0.97489 0.37623
 H1680 H 0.54234 1.00305 0.38118
 C1681 C -0.06513 -0.02973 0.12044
 C1682 C -0.04865 -0.01306 0.11939
 C1683 C -0.02589 -0.01870 0.11722
 C1684 C -0.02004 -0.04149 0.11553
 C1685 C -0.03649 -0.05813 0.11661
 C1686 C -0.05925 -0.05251 0.11920
 C1687 C -0.00900 -0.00037 0.11621
 C1688 C 0.01289 -0.00324 0.12081
 C1689 C 0.02995 0.01496 0.12020
 C1690 C 0.05272 0.00899 0.11970
 C1691 C 0.06948 0.02537 0.11981
 C1692 C 0.06390 0.04825 0.12055
 C1693 C 0.04110 0.05426 0.12103
 C1694 C 0.02434 0.03787 0.12093
 H1695 H -0.08248 -0.02474 0.12231
 H1696 H -0.05371 0.00434 0.12049
 H1697 H -0.00288 -0.04667 0.11300
 H1698 H -0.03131 -0.07547 0.11527
 H1699 H -0.01516 0.01608 0.11184
 H1700 H 0.01891 -0.01971 0.12534
 H1701 H 0.05760 -0.00849 0.11926
 H1702 H 0.08683 0.02007 0.11944
 H1703 H 0.03614 0.07170 0.12175
 H1704 H 0.00713 0.04337 0.12195
 C1705 C 0.53489 0.56101 0.11924
 C1706 C 0.51780 0.54518 0.11777
 C1707 C 0.52264 0.52223 0.11840
 C1708 C 0.54518 0.51537 0.12005
 C1709 C 0.56238 0.53128 0.12142
 C1710 C 0.55740 0.55430 0.12116
 C1711 C 0.50364 0.50631 0.11690
 C1712 C 0.50444 0.48506 0.12412
 C1713 C 0.48485 0.46981 0.12343
 C1714 C 0.48862 0.44664 0.12293
 C1715 C 0.47066 0.43164 0.12272
 C1716 C 0.44844 0.43950 0.12325
 C1717 C 0.44464 0.46272 0.12396
 C1718 C 0.46262 0.47772 0.12413
 H1719 H 0.53037 0.57858 0.11875
 H1720 H 0.50064 0.55094 0.11634
 H1721 H 0.54971 0.49783 0.11991
 H1722 H 0.57955 0.52555 0.12264
 H1723 H 0.48815 0.51278 0.11006
 H1724 H 0.51990 0.47834 0.13075
 H1725 H 0.50555 0.44010 0.12261
 H1726 H 0.47426 0.41387 0.12226
 H1727 H 0.42776 0.46936 0.12458
 H1728 H 0.45897 0.49543 0.12534
 C1729 C -0.06549 0.46892 0.62108
 C1730 C -0.04944 0.48593 0.62020
 C1731 C -0.02650 0.48083 0.62036
 C1732 C -0.01993 0.45816 0.62102
 C1733 C -0.03601 0.44111 0.62188
 C1734 C -0.05900 0.44627 0.62198
 C1735 C -0.01017 0.49959 0.61910
 C1736 C 0.01121 0.49797 0.62588
 C1737 C 0.02770 0.51659 0.62459
 C1738 C 0.05056 0.51124 0.62529
 C1739 C 0.06682 0.52803 0.62451
 C1740 C 0.06063 0.55074 0.62321
 C1741 C 0.03772 0.55618 0.62266
 C1742 C 0.02141 0.53932 0.62340
 H1743 H -0.08302 0.47358 0.62098
 H1744 H -0.05499 0.50320 0.61949
 H1745 H -0.00248 0.45338 0.62039
 H1746 H -0.03039 0.42386 0.62228
 H1747 H -0.01631 0.51533 0.61256
 H1748 H 0.01728 0.48223 0.63250
 H1749 H 0.05591 0.49392 0.62636
 H1750 H 0.08428 0.52314 0.62502
 H1751 H 0.03234 0.57349 0.62181
 H1752 H 0.00400 0.54429 0.62349
 C1753 C 0.47163 0.56394 0.87300
 C1754 C 0.48882 0.54818 0.87472
 C1755 C 0.48395 0.52530 0.87678
 C1756 C 0.46136 0.51849 0.87741
 C1757 C 0.44413 0.53427 0.87572
 C1758 C 0.44905 0.55719 0.87350
 C1759 C 0.50287 0.50935 0.87893
 C1760 C 0.50135 0.48752 0.87380
 C1761 C 0.52029 0.47153 0.87563
 C1762 C 0.51541 0.44859 0.87676
 C1763 C 0.53258 0.43276 0.87781
 C1764 C 0.55516 0.43950 0.87759
 C1765 C 0.56010 0.46249 0.87651
 C1766 C 0.54288 0.47835 0.87545
 H1767 H 0.47609 0.58145 0.87148
 H1768 H 0.50604 0.55391 0.87437
 H1769 H 0.45683 0.50111 0.87975
 H1770 H 0.42694 0.52852 0.87647
 H1771 H 0.51866 0.51616 0.88461
 H1772 H 0.48554 0.48078 0.86807
 H1773 H 0.49819 0.44285 0.87680
 H1774 H 0.52811 0.41520 0.87863
 H1775 H 0.57730 0.46826 0.87611
 H1776 H 0.54747 0.49580 0.87390
 C1777 C 0.62203 0.56414 1.03124
 C1778 C 0.62077 0.54820 1.01411
 C1779 C 0.62070 0.52522 1.01902
 C1780 C 0.62148 0.51849 1.04162
 C1781 C 0.62276 0.53440 1.05879
 C1782 C 0.62312 0.55751 1.05390
 C1783 C 0.61924 0.50902 1.00014
 C1784 C 0.62543 0.48744 1.00167
 C1785 C 0.62426 0.47126 0.98276
 C1786 C 0.62414 0.44828 0.98768
 C1787 C 0.62374 0.43234 0.97051
 C1788 C 0.62365 0.43902 0.94791
 C1789 C 0.62379 0.46206 0.94294
 C1790 C 0.62417 0.47801 0.96013
 H1791 H 0.62211 0.58169 1.02661
 H1792 H 0.61999 0.55389 0.99688
 H1793 H 0.62067 0.50102 1.04629
 H1794 H 0.62328 0.52846 1.07594
 H1795 H 0.61308 0.51544 0.98435
 H1796 H 0.63158 0.48099 1.01744
 H1797 H 0.62436 0.44259 1.00493
 H1798 H 0.62367 0.41477 0.97501
 H1799 H 0.62389 0.46782 0.92573
 H1800 H 0.62495 0.49549 0.95551
 C1801 C 0.37774 1.07285 0.47557
 C1802 C 0.37889 1.05640 0.49218
 C1803 C 0.37992 1.03363 0.48649
 C1804 C 0.38031 1.02761 0.46369
 C1805 C 0.37915 1.04402 0.44703
 C1806 C 0.37775 1.06692 0.45269
 C1807 C 0.38104 1.01685 0.50479
 C1808 C 0.37505 0.99532 0.50232
 C1809 C 0.37557 0.97871 0.52080
 C1810 C 0.37639 0.95584 0.51538
 C1811 C 0.37628 0.93956 0.53221
 C1812 C 0.37513 0.94581 0.55491
 C1813 C 0.37423 0.96872 0.56034
 C1814 C 0.37434 0.98498 0.54352
 H1815 H 0.37685 1.09022 0.48077
 H1816 H 0.37878 1.06151 0.50962
 H1817 H 0.38191 1.01033 0.45850
 H1818 H 0.37950 1.03863 0.42969
 H1819 H 0.38663 1.02282 0.52097
 H1820 H 0.36950 0.98931 0.48615
 H1821 H 0.37715 0.95054 0.49802
 H1822 H 0.37695 0.92208 0.52739
 H1823 H 0.37316 0.97415 0.57764
 H1824 H 0.37290 1.00234 0.54847
 C1825 C -0.06543 0.62753 0.47229
 C1826 C -0.04927 0.62487 0.48901
 C1827 C -0.02660 0.62220 0.48344
 C1828 C -0.02043 0.62187 0.46065
 C1829 C -0.03659 0.62454 0.44392
 C1830 C -0.05928 0.62743 0.44953
 C1831 C -0.01016 0.61927 0.50185
 C1832 C 0.01180 0.62349 0.49966
 C1833 C 0.02824 0.62105 0.51813
 C1834 C 0.05097 0.61885 0.51262
 C1835 C 0.06723 0.61741 0.52938
 C1836 C 0.06114 0.61833 0.55213
 C1837 C 0.03834 0.62041 0.55770
 C1838 C 0.02207 0.62185 0.54091
 H1839 H -0.08277 0.62954 0.47725
 H1840 H -0.05451 0.62500 0.50640
 H1841 H -0.00329 0.61905 0.45554
 H1842 H -0.03130 0.62404 0.42656
 H1843 H -0.01670 0.61379 0.51784
 H1844 H 0.01833 0.62899 0.48367
 H1845 H 0.05620 0.61831 0.49523
 H1846 H 0.08462 0.61583 0.52444
 H1847 H 0.03307 0.62136 0.57505
 H1848 H 0.00484 0.62423 0.54596
 C1849 C 0.43210 0.37643 1.02929
 C1850 C 0.44755 0.37546 1.01172
 C1851 C 0.47051 0.37308 1.01610
 C1852 C 0.47770 0.37130 1.03852
 C1853 C 0.46226 0.37227 1.05609
 C1854 C 0.43927 0.37483 1.05170
 C1855 C 0.48625 0.37171 0.99692
 C1856 C 0.50799 0.37710 0.99853
 C1857 C 0.52424 0.37525 0.97982
 C1858 C 0.54710 0.37444 0.98512
 C1859 C 0.56322 0.37300 0.96827
 C1860 C 0.55689 0.37250 0.94556
 C1861 C 0.53398 0.37344 0.94016
 C1862 C 0.51780 0.37485 0.95709
 H1863 H 0.41452 0.37835 1.02526
 H1864 H 0.44155 0.37666 0.99462
 H1865 H 0.49513 0.36862 1.04263
 H1866 H 0.46835 0.37075 1.07312
 H1867 H 0.47944 0.36621 0.98104
 H1868 H 0.51456 0.38284 1.01443
 H1869 H 0.55255 0.37486 1.00244
 H1870 H 0.58069 0.37245 0.97311
 H1871 H 0.52854 0.37335 0.92284
 H1872 H 0.50042 0.37610 0.95220
 C1873 C 0.43342 -0.02887 0.62556
 C1874 C 0.44963 -0.01201 0.62637
 C1875 C 0.47246 -0.01738 0.62772
 C1876 C 0.47877 -0.04010 0.62860
 C1877 C 0.46256 -0.05698 0.62781
 C1878 C 0.43969 -0.05158 0.62630
 C1879 C 0.48898 0.00115 0.62898
 C1880 C 0.51055 -0.00109 0.62307
 C1881 C 0.52732 0.01720 0.62458
 C1882 C 0.55009 0.01142 0.62495
 C1883 C 0.56659 0.02794 0.62611
 C1884 C 0.56073 0.05075 0.62678
 C1885 C 0.53792 0.05661 0.62622
 C1886 C 0.52138 0.04005 0.62507
 H1887 H 0.41596 -0.02406 0.62446
 H1888 H 0.44429 0.00533 0.62586
 H1889 H 0.49611 -0.04501 0.63042
 H1890 H 0.46799 -0.07428 0.62861
 H1891 H 0.48284 0.01716 0.63483
 H1892 H 0.51655 -0.01712 0.61710
 H1893 H 0.55515 -0.00600 0.62441
 H1894 H 0.58398 0.02277 0.62636
 H1895 H 0.53281 0.07402 0.62644
 H1896 H 0.50409 0.04533 0.62409
 C1897 C -0.03553 0.56977 0.37923
 C1898 C -0.01871 0.55362 0.37735
 C1899 C -0.02407 0.53087 0.37492
 C1900 C -0.04683 0.52460 0.37437
 C1901 C -0.06371 0.54079 0.37626
 C1902 C -0.05827 0.56359 0.37858
 C1903 C -0.00543 0.51459 0.37217
 C1904 C -0.00738 0.49247 0.37571
 C1905 C 0.01132 0.47627 0.37286
 C1906 C 0.00610 0.45352 0.37011
 C1907 C 0.02304 0.43751 0.36785
 C1908 C 0.04573 0.44385 0.36844
 C1909 C 0.05101 0.46664 0.37126
 C1910 C 0.03404 0.48266 0.37353
 H1911 H -0.03066 0.58715 0.38101
 H1912 H -0.00137 0.55896 0.37773
 H1913 H -0.05181 0.50737 0.37190
 H1914 H -0.08103 0.53545 0.37552
 H1915 H 0.01057 0.52141 0.36711
 H1916 H -0.02338 0.48561 0.38072
 H1917 H -0.01121 0.44807 0.36969
 H1918 H 0.01829 0.42012 0.36585
 H1919 H 0.06829 0.47209 0.37210
 H1920 H 0.03892 0.49986 0.37636
 C1921 C -0.02735 1.06521 0.87871
 C1922 C -0.01076 1.04869 0.87953
 C1923 C -0.01642 1.02589 0.88021
 C1924 C -0.03927 1.01997 0.88040
 C1925 C -0.05593 1.03650 0.87961
 C1926 C -0.05026 1.05943 0.87872
 C1927 C 0.00202 1.00910 0.88137
 C1928 C -0.00029 0.98738 0.87588
 C1929 C 0.01822 0.97064 0.87675
 C1930 C 0.01266 0.94779 0.87682
 C1931 C 0.02934 0.93133 0.87707
 C1932 C 0.05214 0.93729 0.87708
 C1933 C 0.05777 0.96018 0.87696
 C1934 C 0.04105 0.97666 0.87672
 H1935 H -0.02207 1.08256 0.87816
 H1936 H 0.00665 1.05379 0.87954
 H1937 H -0.04449 1.00268 0.88161
 H1938 H -0.07329 1.03121 0.87988
 H1939 H 0.01819 1.01525 0.88671
 H1940 H -0.01648 0.98126 0.87054
 H1941 H -0.00474 0.94260 0.87671
 H1942 H 0.02430 0.91391 0.87714
 H1943 H 0.07514 0.96541 0.87680
 H1944 H 0.04623 0.99399 0.87599
 C1945 C 0.77990 0.63206 0.31698
 C1946 C 0.76311 0.63133 0.30069
 C1947 C 0.76851 0.62996 0.27783
 C1948 C 0.79127 0.62975 0.27159
 C1949 C 0.80812 0.63055 0.28792
 C1950 C 0.80265 0.63165 0.31084
 C1951 C 0.74987 0.62950 0.26129
 C1952 C 0.75191 0.62214 0.24009
 C1953 C 0.73307 0.62177 0.22378
 C1954 C 0.73802 0.62168 0.20077
 C1955 C 0.72086 0.62148 0.18480
 C1956 C 0.69825 0.62115 0.19145
 C1957 C 0.69329 0.62074 0.21450
 C1958 C 0.71045 0.62097 0.23048
 H1959 H 0.77500 0.63302 0.33444
 H1960 H 0.74576 0.63171 0.30601
 H1961 H 0.79626 0.62941 0.25417
 H1962 H 0.82545 0.63037 0.28255
 H1963 H 0.73374 0.63532 0.26715
 H1964 H 0.76802 0.61645 0.23407
 H1965 H 0.75526 0.62205 0.19511
 H1966 H 0.72537 0.62172 0.16721
 H1967 H 0.67609 0.62028 0.22027
 H1968 H 0.70584 0.62019 0.24799
 C1969 C 0.27609 0.87958 0.68320
 C1970 C 0.25851 0.87843 0.69862
 C1971 C 0.26282 0.87744 0.72171
 C1972 C 0.28523 0.87749 0.72909
 C1973 C 0.30284 0.87865 0.71368
 C1974 C 0.29850 0.87960 0.69053
 C1975 C 0.24358 0.87530 0.73734
 C1976 C 0.24460 0.88081 0.75912
 C1977 C 0.22579 0.87789 0.77510
 C1978 C 0.23077 0.87697 0.79805
 C1979 C 0.21378 0.87437 0.81389
 C1980 C 0.19124 0.87282 0.80720
 C1981 C 0.18616 0.87393 0.78420
 C1982 C 0.20322 0.87649 0.76831
 H1983 H 0.27209 0.88018 0.66551
 H1984 H 0.24144 0.87823 0.69245
 H1985 H 0.28940 0.87597 0.74666
 H1986 H 0.31987 0.87836 0.71991
 H1987 H 0.22811 0.86889 0.73040
 H1988 H 0.26006 0.88735 0.76594
 H1989 H 0.24796 0.87813 0.80378
 H1990 H 0.21837 0.87368 0.83144
 H1991 H 0.16897 0.87299 0.77847
 H1992 H 0.19854 0.87779 0.75086
 C1993 C 0.18095 0.37726 0.27574
 C1994 C 0.19773 0.37725 0.25942
 C1995 C 0.22044 0.37726 0.26549
 C1996 C 0.22604 0.37710 0.28843
 C1997 C 0.20923 0.37710 0.30479
 C1998 C 0.18647 0.37714 0.29865
 C1999 C 0.23746 0.37670 0.24732
 C2000 C 0.25918 0.38193 0.25005
 C2001 C 0.27573 0.38125 0.23147
 C2002 C 0.29850 0.37835 0.23660
 C2003 C 0.31459 0.37746 0.21956
 C2004 C 0.30825 0.37965 0.19696
 C2005 C 0.28550 0.38305 0.19188
 C2006 C 0.26945 0.38394 0.20889
 H2007 H 0.16364 0.37721 0.27034
 H2008 H 0.19290 0.37724 0.24190
 H2009 H 0.24326 0.37647 0.29396
 H2010 H 0.21410 0.37681 0.32227
 H2011 H 0.23155 0.37179 0.23090
 H2012 H 0.26542 0.38652 0.26643
 H2013 H 0.30383 0.37648 0.25386
 H2014 H 0.33196 0.37492 0.22412
 H2015 H 0.28001 0.38508 0.17469
 H2016 H 0.25224 0.38711 0.20422
 C2017 C 0.87764 0.72534 0.31872
 C2018 C 0.87980 0.74236 0.30285
 C2019 C 0.88154 0.73726 0.27998
 C2020 C 0.88161 0.71462 0.27330
 C2021 C 0.87944 0.69755 0.28919
 C2022 C 0.87736 0.70271 0.31208
 C2023 C 0.88362 0.75600 0.26384
 C2024 C 0.87779 0.75431 0.24221
 C2025 C 0.87917 0.77309 0.22606
 C2026 C 0.87995 0.76797 0.20315
 C2027 C 0.88022 0.78497 0.18714
 C2028 C 0.87950 0.80761 0.19366
 C2029 C 0.87887 0.81282 0.21663
 C2030 C 0.87864 0.79575 0.23269
 H2031 H 0.87618 0.72997 0.33621
 H2032 H 0.87989 0.75963 0.30846
 H2033 H 0.88371 0.70990 0.25593
 H2034 H 0.87956 0.68031 0.28353
 H2035 H 0.88965 0.77181 0.27033
 H2036 H 0.87169 0.73851 0.23577
 H2037 H 0.88024 0.75068 0.19758
 H2038 H 0.88066 0.78028 0.16961
 H2039 H 0.87807 0.83007 0.22222
 H2040 H 0.87734 0.80044 0.25015
 C2041 C 0.62752 0.31272 0.78143
 C2042 C 0.62865 0.29695 0.76413
 C2043 C 0.62972 0.27395 0.76887
 C2044 C 0.62994 0.26706 0.79146
 C2045 C 0.62881 0.28283 0.80877
 C2046 C 0.62761 0.30587 0.80399
 C2047 C 0.63141 0.25792 0.74985
 C2048 C 0.62602 0.23614 0.75138
 C2049 C 0.62792 0.21989 0.73258
 C2050 C 0.62851 0.19697 0.73772
 C2051 C 0.62985 0.18090 0.72075
 C2052 C 0.63047 0.18733 0.69808
 C2053 C 0.62979 0.21030 0.69285
 C2054 C 0.62847 0.22642 0.70988
 H2055 H 0.62673 0.33031 0.77707
 H2056 H 0.62864 0.30277 0.74692
 H2057 H 0.63153 0.24960 0.79597
 H2058 H 0.62918 0.27695 0.82594
 H2059 H 0.63718 0.26462 0.73403
 H2060 H 0.62014 0.22954 0.76720
 H2061 H 0.62798 0.19143 0.75501
 H2062 H 0.63028 0.16339 0.72547
 H2063 H 0.63004 0.21586 0.67558
 H2064 H 0.62739 0.24383 0.70506
 C2065 C 0.82109 0.22214 0.87894
 C2066 C 0.80508 0.23918 0.87847
 C2067 C 0.78217 0.23405 0.87818
 C2068 C 0.77555 0.21141 0.87806
 C2069 C 0.79157 0.19435 0.87852
 C2070 C 0.81453 0.19951 0.87893
 C2071 C 0.76585 0.25272 0.87708
 C2072 C 0.74452 0.25089 0.88384
 C2073 C 0.72798 0.26930 0.88215
 C2074 C 0.70517 0.26377 0.88161
 C2075 C 0.68889 0.28046 0.88001
 C2076 C 0.69506 0.30318 0.87913
 C2077 C 0.71791 0.30879 0.87998
 C2078 C 0.73422 0.29204 0.88154
 H2079 H 0.83864 0.22676 0.87912
 H2080 H 0.81062 0.25646 0.87836
 H2081 H 0.75810 0.20669 0.87704
 H2082 H 0.78592 0.17712 0.87824
 H2083 H 0.77189 0.26849 0.87051
 H2084 H 0.73853 0.23512 0.89046
 H2085 H 0.69991 0.24641 0.88223
 H2086 H 0.67145 0.27550 0.87950
 H2087 H 0.72324 0.32612 0.87956
 H2088 H 0.75157 0.29708 0.88268
 C2089 C 0.28049 0.81421 0.62251
 C2090 C 0.26380 0.79786 0.62227
 C2091 C 0.26936 0.77504 0.62202
 C2092 C 0.29214 0.76887 0.62234
 C2093 C 0.30890 0.78527 0.62265
 C2094 C 0.30327 0.80814 0.62274
 C2095 C 0.25089 0.75844 0.62229
 C2096 C 0.25303 0.73719 0.61529
 C2097 C 0.23444 0.72072 0.61583
 C2098 C 0.23973 0.69783 0.61640
 C2099 C 0.22281 0.68169 0.61716
 C2100 C 0.20012 0.68807 0.61716
 C2101 C 0.19479 0.71099 0.61611
 C2102 C 0.21174 0.72714 0.61538
 H2103 H 0.27548 0.83165 0.62270
 H2104 H 0.24642 0.80308 0.62221
 H2105 H 0.29718 0.75148 0.62288
 H2106 H 0.32625 0.78000 0.62302
 H2107 H 0.23484 0.76428 0.62838
 H2108 H 0.26908 0.73127 0.60930
 H2109 H 0.25705 0.69241 0.61654
 H2110 H 0.22757 0.66420 0.61784
 H2111 H 0.17751 0.71650 0.61586
 H2112 H 0.20689 0.74455 0.61410
   
