data_POSCAR
  _audit_creation_date              2014-09-24
  _audit_creation_method            'ToBaCCo'
  _symmetry_space_group_name_H-M    'P1'
  _symmetry_Int_Tables_number       1
  _symmetry_cell_setting            triclinic
  loop_
  _symmetry_equiv_pos_as_xyz
 x,y,z
_cell_length_a 88.4310
_cell_length_b 88.4395
_cell_length_c 88.5098
_cell_angle_alpha 90.009200
_cell_angle_beta 89.989600
_cell_angle_gamma 89.927100
loop_
  _atom_site_label
  _atom_site_type_symbol
  _atom_site_fract_x
  _atom_site_fract_y
  _atom_site_fract_z
C1 C 0.35628 0.33405 0.34537
 C2 C 0.34507 0.33407 0.35657
 C3 C 0.33400 0.34514 0.35657
 C4 C 0.33399 0.35635 0.34537
 C5 C 0.34506 0.35634 0.33431
 C6 C 0.35628 0.34511 0.33431
 C7 C 0.36811 0.32440 0.34228
 N8 N 0.37525 0.32935 0.32963
 C9 C 0.36810 0.34201 0.32468
 C10 C 0.34197 0.36816 0.32468
 N11 N 0.32931 0.37531 0.32963
 C12 C 0.32435 0.36818 0.34228
 C13 C 0.32436 0.34206 0.36839
 N14 N 0.32932 0.32940 0.37553
 C15 C 0.34198 0.32443 0.36839
 H16 H 0.37116 0.31439 0.34863
 H17 H 0.37114 0.34837 0.31468
 H18 H 0.34833 0.37119 0.31468
 H19 H 0.31434 0.37124 0.34863
 H20 H 0.31435 0.34843 0.37143
 H21 H 0.34835 0.31442 0.37143
 C22 C 0.35624 0.83392 -0.15537
 C23 C 0.34506 0.83396 -0.14412
 C24 C 0.33399 0.84503 -0.14413
 C25 C 0.33394 0.85621 -0.15537
 C26 C 0.34497 0.85616 -0.16645
 C27 C 0.35620 0.84495 -0.16645
 C28 C 0.36807 0.82427 -0.15845
 N29 N 0.37519 0.82917 -0.17115
 C30 C 0.36800 0.84183 -0.17610
 C31 C 0.34186 0.86796 -0.17611
 N32 N 0.32919 0.87515 -0.17115
 C33 C 0.32429 0.86803 -0.15845
 C34 C 0.32438 0.84199 -0.13227
 N35 N 0.32937 0.82935 -0.12511
 C36 C 0.34201 0.82437 -0.13227
 H37 H 0.37112 0.81430 -0.15202
 H38 H 0.37099 0.84821 -0.18611
 H39 H 0.34824 0.87095 -0.18612
 H40 H 0.31432 0.87108 -0.15202
 H41 H 0.31438 0.84836 -0.12922
 H42 H 0.34839 0.81436 -0.12922
 C43 C 0.85617 0.33397 -0.15530
 C44 C 0.84499 0.33401 -0.14405
 C45 C 0.83392 0.34509 -0.14405
 C46 C 0.83388 0.35627 -0.15528
 C47 C 0.84491 0.35623 -0.16637
 C48 C 0.85613 0.34500 -0.16637
 C49 C 0.86799 0.32432 -0.15838
 N50 N 0.87512 0.32922 -0.17108
 C51 C 0.86794 0.34189 -0.17603
 C52 C 0.84180 0.36803 -0.17601
 N53 N 0.82914 0.37522 -0.17106
 C54 C 0.82423 0.36810 -0.15836
 C55 C 0.82432 0.34204 -0.13219
 N56 N 0.82930 0.32940 -0.12504
 C57 C 0.84194 0.32441 -0.13221
 H58 H 0.87104 0.31434 -0.15196
 H59 H 0.87093 0.34827 -0.18604
 H60 H 0.84818 0.37102 -0.18602
 H61 H 0.81426 0.37115 -0.15193
 H62 H 0.81431 0.34841 -0.12914
 H63 H 0.84831 0.31440 -0.12916
 C64 C 0.85634 0.83409 0.34502
 C65 C 0.84516 0.83413 0.35627
 C66 C 0.83408 0.84519 0.35627
 C67 C 0.83403 0.85636 0.34503
 C68 C 0.84505 0.85633 0.33394
 C69 C 0.85628 0.84511 0.33394
 C70 C 0.86817 0.82445 0.34194
 N71 N 0.87528 0.82935 0.32923
 C72 C 0.86809 0.84201 0.32428
 C73 C 0.84193 0.86812 0.32428
 N74 N 0.82926 0.87530 0.32923
 C75 C 0.82436 0.86818 0.34194
 C76 C 0.82448 0.84214 0.36813
 N77 N 0.82948 0.82951 0.37529
 C78 C 0.84212 0.82453 0.36812
 H79 H 0.87123 0.81448 0.34836
 H80 H 0.87107 0.84838 0.31427
 H81 H 0.84831 0.87111 0.31427
 H82 H 0.81439 0.87122 0.34837
 H83 H 0.81447 0.84851 0.37118
 H84 H 0.84850 0.81453 0.37118
 C85 C 0.64369 0.66601 0.34535
 C86 C 0.65490 0.66600 0.35656
 C87 C 0.66596 0.65491 0.35657
 C88 C 0.66596 0.64369 0.34537
 C89 C 0.65489 0.64370 0.33432
 C90 C 0.64369 0.65493 0.33430
 C91 C 0.63187 0.67566 0.34225
 N92 N 0.62473 0.67071 0.32960
 C93 C 0.63187 0.65803 0.32467
 C94 C 0.65798 0.63186 0.32470
 N95 N 0.67063 0.62470 0.32965
 C96 C 0.67559 0.63184 0.34230
 C97 C 0.67559 0.65799 0.36838
 N98 N 0.67064 0.67067 0.37551
 C99 C 0.65799 0.67564 0.36837
 H100 H 0.62883 0.68569 0.34859
 H101 H 0.62883 0.65166 0.31467
 H102 H 0.65162 0.62882 0.31470
 H103 H 0.68559 0.62879 0.34865
 H104 H 0.68559 0.65162 0.37144
 H105 H 0.65163 0.68566 0.37140
 C106 C 0.64367 0.16606 -0.15527
 C107 C 0.65485 0.16603 -0.14403
 C108 C 0.66592 0.15496 -0.14403
 C109 C 0.66596 0.14377 -0.15526
 C110 C 0.65493 0.14381 -0.16634
 C111 C 0.64371 0.15502 -0.16635
 C112 C 0.63184 0.17571 -0.15835
 N113 N 0.62472 0.17080 -0.17105
 C114 C 0.63190 0.15813 -0.17600
 C115 C 0.65805 0.13199 -0.17599
 N116 N 0.67072 0.12482 -0.17103
 C117 C 0.67562 0.13195 -0.15833
 C118 C 0.67552 0.15801 -0.13218
 N119 N 0.67053 0.17066 -0.12502
 C120 C 0.65789 0.17564 -0.13218
 H121 H 0.62878 0.18568 -0.15194
 H122 H 0.62892 0.15174 -0.18600
 H123 H 0.65168 0.12900 -0.18600
 H124 H 0.68559 0.12891 -0.15191
 H125 H 0.68552 0.15164 -0.12913
 H126 H 0.65152 0.18564 -0.12913
 C127 C 0.14375 0.66600 -0.15524
 C128 C 0.15493 0.66596 -0.14401
 C129 C 0.16600 0.65489 -0.14401
 C130 C 0.16603 0.64370 -0.15525
 C131 C 0.15500 0.64375 -0.16633
 C132 C 0.14378 0.65497 -0.16632
 C133 C 0.13192 0.67566 -0.15831
 N134 N 0.12479 0.67076 -0.17101
 C135 C 0.13197 0.65809 -0.17596
 C136 C 0.15810 0.63194 -0.17598
 N137 N 0.17076 0.62475 -0.17104
 C138 C 0.17568 0.63187 -0.15834
 C139 C 0.17561 0.65793 -0.13217
 N140 N 0.17063 0.67058 -0.12501
 C141 C 0.15799 0.67556 -0.13216
 H142 H 0.12889 0.68563 -0.15188
 H143 H 0.12897 0.65171 -0.18597
 H144 H 0.15171 0.62895 -0.18598
 H145 H 0.18565 0.62882 -0.15192
 H146 H 0.18562 0.65156 -0.12912
 H147 H 0.15162 0.68557 -0.12910
 C148 C 0.14380 0.16610 0.34482
 C149 C 0.15496 0.16604 0.35608
 C150 C 0.16604 0.15497 0.35607
 C151 C 0.16610 0.14381 0.34482
 C152 C 0.15509 0.14387 0.33371
 C153 C 0.14387 0.15509 0.33372
 C154 C 0.13198 0.17575 0.34173
 N155 N 0.12489 0.17087 0.32901
 C156 C 0.13208 0.15821 0.32405
 C157 C 0.15822 0.13208 0.32404
 N158 N 0.17088 0.12489 0.32900
 C159 C 0.17576 0.13199 0.34173
 C160 C 0.17562 0.15800 0.36795
 N161 N 0.17062 0.17063 0.37512
 C162 C 0.15799 0.17562 0.36795
 H163 H 0.12892 0.18572 0.34817
 H164 H 0.12911 0.15185 0.31402
 H165 H 0.15186 0.12911 0.31402
 H166 H 0.18572 0.12893 0.34816
 H167 H 0.18562 0.15162 0.37100
 H168 H 0.15161 0.18562 0.37101
 C169 C 0.64360 0.33406 0.65478
 C170 C 0.65481 0.33407 0.64356
 C171 C 0.66586 0.34513 0.64356
 C172 C 0.66586 0.35633 0.65477
 C173 C 0.65481 0.35632 0.66584
 C174 C 0.64360 0.34511 0.66584
 C175 C 0.63179 0.32442 0.65787
 N176 N 0.62466 0.32937 0.67053
 C177 C 0.63179 0.34202 0.67548
 C178 C 0.65790 0.36814 0.67548
 N179 N 0.67054 0.37528 0.67052
 C180 C 0.67549 0.36814 0.65786
 C181 C 0.67550 0.34204 0.63173
 N182 N 0.67055 0.32939 0.62459
 C183 C 0.65790 0.32444 0.63173
 H184 H 0.62875 0.31442 0.65150
 H185 H 0.62875 0.34837 0.68549
 H186 H 0.65154 0.37117 0.68549
 H187 H 0.68550 0.37119 0.65150
 H188 H 0.68550 0.34840 0.62869
 H189 H 0.65155 0.31443 0.62869
 C190 C 0.64340 0.83395 1.15513
 C191 C 0.65456 0.83398 1.14387
 C192 C 0.66561 0.84505 1.14385
 C193 C 0.66564 0.85624 1.15508
 C194 C 0.65462 0.85621 1.16618
 C195 C 0.64342 0.84499 1.16621
 C196 C 0.63159 0.82431 1.15823
 N197 N 0.62448 0.82922 1.17094
 C198 C 0.63164 0.84189 1.17588
 C199 C 0.65773 0.86801 1.17583
 N200 N 0.67036 0.87517 1.17083
 C201 C 0.67527 0.86805 1.15815
 C202 C 0.67520 0.84199 1.13199
 N203 N 0.67024 0.82935 1.12484
 C204 C 0.65762 0.82437 1.13202
 H205 H 0.62856 0.81433 1.15181
 H206 H 0.62865 0.84827 1.18588
 H207 H 0.65141 0.87103 1.18586
 H208 H 0.68525 0.87111 1.15176
 H209 H 0.68519 0.84836 1.12892
 H210 H 0.65127 0.81436 1.12898
 C211 C 0.14345 0.33389 1.15506
 C212 C 0.15461 0.33394 1.14380
 C213 C 0.16562 0.34505 1.14376
 C214 C 0.16561 0.35625 1.15498
 C215 C 0.15460 0.35620 1.16608
 C216 C 0.14344 0.34494 1.16613
 C217 C 0.13168 0.32421 1.15818
 N218 N 0.12455 0.32911 1.17089
 C219 C 0.13167 0.34181 1.17581
 C220 C 0.15768 0.36803 1.17571
 N221 N 0.17028 0.37522 1.17070
 C222 C 0.17521 0.36811 1.15803
 C223 C 0.17522 0.34200 1.13190
 N224 N 0.17029 0.32933 1.12477
 C225 C 0.15769 0.32433 1.13197
 H226 H 0.12868 0.31422 1.15178
 H227 H 0.12867 0.34820 1.18581
 H228 H 0.15135 0.37104 1.18574
 H229 H 0.18517 0.37119 1.15163
 H230 H 0.18518 0.34840 1.12881
 H231 H 0.15136 0.31430 1.12895
 C232 C 0.14386 0.83435 0.65506
 C233 C 0.15505 0.83437 0.64383
 C234 C 0.16613 0.84539 0.64387
 C235 C 0.16618 0.85655 0.65513
 C236 C 0.15514 0.85653 0.66621
 C237 C 0.14390 0.84535 0.66618
 C238 C 0.13202 0.82473 0.65813
 N239 N 0.12492 0.82964 0.67082
 C240 C 0.13209 0.84225 0.67582
 C241 C 0.15826 0.86830 0.67589
 N242 N 0.17095 0.87544 0.67096
 C243 C 0.17585 0.86833 0.65824
 C244 C 0.17574 0.84233 0.63201
 N245 N 0.17074 0.82973 0.62482
 C246 C 0.15809 0.82478 0.63196
 H247 H 0.12895 0.81476 0.65173
 H248 H 0.12908 0.84857 0.68586
 H249 H 0.15188 0.87129 0.68590
 H250 H 0.18583 0.87135 0.65183
 H251 H 0.18576 0.84867 0.62898
 H252 H 0.15170 0.81480 0.62889
 C253 C 0.35638 0.66576 0.65467
 C254 C 0.34518 0.66576 0.64345
 C255 C 0.33411 0.65471 0.64346
 C256 C 0.33409 0.64351 0.65468
 C257 C 0.34514 0.64351 0.66574
 C258 C 0.35636 0.65471 0.66574
 C259 C 0.36820 0.67538 0.65776
 N260 N 0.37532 0.67044 0.67042
 C261 C 0.36817 0.65780 0.67538
 C262 C 0.34204 0.63171 0.67539
 N263 N 0.32938 0.62458 0.67043
 C264 C 0.32445 0.63171 0.65777
 C265 C 0.32449 0.65780 0.63163
 N266 N 0.32946 0.67044 0.62448
 C267 C 0.34211 0.67538 0.63163
 H268 H 0.37125 0.68538 0.65140
 H269 H 0.37120 0.65145 0.68540
 H270 H 0.34839 0.62868 0.68540
 H271 H 0.31444 0.62867 0.65141
 H272 H 0.31448 0.65146 0.62858
 H273 H 0.34848 0.68538 0.62858
 C274 C 0.35619 0.16562 1.15486
 C275 C 0.34498 0.16563 1.14365
 C276 C 0.33388 0.15461 1.14369
 C277 C 0.33383 0.14345 1.15495
 C278 C 0.34489 0.14345 1.16600
 C279 C 0.35614 0.15461 1.16596
 C280 C 0.36804 0.17522 1.15791
 N281 N 0.37516 0.17028 1.17058
 C282 C 0.36797 0.15768 1.17558
 C283 C 0.34176 0.13168 1.17568
 N284 N 0.32906 0.12456 1.17077
 C285 C 0.32415 0.13168 1.15807
 C286 C 0.32425 0.15770 1.13186
 N287 N 0.32926 0.17030 1.12468
 C288 C 0.34193 0.17523 1.13180
 H289 H 0.37112 0.18518 1.15152
 H290 H 0.37099 0.15135 1.18561
 H291 H 0.34815 0.12867 1.18568
 H292 H 0.31415 0.12868 1.15167
 H293 H 0.31422 0.15137 1.12885
 H294 H 0.34832 0.18519 1.12872
 C295 C 0.85640 0.66591 1.15486
 C296 C 0.84521 0.66588 1.14364
 C297 C 0.83418 0.65480 1.14363
 C298 C 0.83419 0.64359 1.15485
 C299 C 0.84524 0.64362 1.16592
 C300 C 0.85642 0.65486 1.16593
 C301 C 0.86819 0.67557 1.15796
 N302 N 0.87533 0.67064 1.17062
 C303 C 0.86822 0.65797 1.17557
 C304 C 0.84217 0.63180 1.17555
 N305 N 0.82955 0.62463 1.17058
 C306 C 0.82459 0.63175 1.15792
 C307 C 0.82455 0.65786 1.13181
 N308 N 0.82947 0.67052 1.12467
 C309 C 0.84211 0.67550 1.13182
 H310 H 0.87121 0.68558 1.15160
 H311 H 0.87127 0.65163 1.18558
 H312 H 0.84853 0.62877 1.18556
 H313 H 0.81460 0.62868 1.15156
 H314 H 0.81456 0.65148 1.12875
 H315 H 0.84844 0.68552 1.12878
 C316 C 0.85662 0.16611 0.65517
 C317 C 0.84547 0.16605 0.64390
 C318 C 0.83445 0.15497 0.64386
 C319 C 0.83442 0.14378 0.65509
 C320 C 0.84542 0.14384 0.66621
 C321 C 0.85660 0.15508 0.66625
 C322 C 0.86840 0.17578 0.65829
 N323 N 0.87550 0.17089 0.67101
 C324 C 0.86836 0.15821 0.67594
 C325 C 0.84232 0.13203 0.67585
 N326 N 0.82971 0.12485 0.67085
 C327 C 0.82481 0.13195 0.65815
 C328 C 0.82487 0.15800 0.63199
 N329 N 0.82982 0.17065 0.62485
 C330 C 0.84242 0.17566 0.63205
 H331 H 0.87142 0.18576 0.65188
 H332 H 0.87135 0.15183 0.68595
 H333 H 0.84863 0.12903 0.68590
 H334 H 0.81484 0.12887 0.65175
 H335 H 0.81490 0.15161 0.62891
 H336 H 0.84876 0.18567 0.62902
 C337 C 0.33391 0.35619 0.65506
 C338 C 0.33391 0.34498 0.64385
 C339 C 0.34498 0.33390 0.64385
 C340 C 0.35619 0.33389 0.65506
 C341 C 0.35619 0.34496 0.66612
 C342 C 0.34497 0.35618 0.66612
 C343 C 0.32427 0.36802 0.65814
 N344 N 0.32922 0.37517 0.67079
 C345 C 0.34187 0.36801 0.67574
 C346 C 0.36802 0.34186 0.67574
 N347 N 0.37517 0.32921 0.67079
 C348 C 0.36803 0.32425 0.65814
 C349 C 0.34191 0.32427 0.63203
 N350 N 0.32925 0.32924 0.62489
 C351 C 0.32429 0.34190 0.63203
 H352 H 0.31426 0.37108 0.65178
 H353 H 0.34823 0.37106 0.68574
 H354 H 0.37106 0.34823 0.68574
 H355 H 0.37109 0.31425 0.65178
 H356 H 0.34828 0.31426 0.62899
 H357 H 0.31428 0.34827 0.62899
 C358 C 0.33404 0.85674 0.15449
 C359 C 0.33405 0.84552 0.14328
 C360 C 0.34513 0.83446 0.14327
 C361 C 0.35635 0.83446 0.15446
 C362 C 0.35635 0.84553 0.16551
 C363 C 0.34512 0.85674 0.16553
 C364 C 0.32439 0.86856 0.15758
 N365 N 0.32936 0.87571 0.17022
 C366 C 0.34203 0.86857 0.17516
 C367 C 0.36819 0.84244 0.17513
 N368 N 0.37534 0.82979 0.17017
 C369 C 0.36819 0.82483 0.15753
 C370 C 0.34204 0.82482 0.13146
 N371 N 0.32937 0.82977 0.12433
 C372 C 0.32440 0.84243 0.13148
 H373 H 0.31437 0.87161 0.15124
 H374 H 0.34840 0.87161 0.18515
 H375 H 0.37123 0.84881 0.18513
 H376 H 0.37125 0.81482 0.15117
 H377 H 0.34841 0.81482 0.12841
 H378 H 0.31438 0.84879 0.12844
 C379 C 0.83439 0.35619 0.15458
 C380 C 0.83440 0.34498 0.14337
 C381 C 0.84547 0.33391 0.14337
 C382 C 0.85668 0.33390 0.15457
 C383 C 0.85667 0.34497 0.16563
 C384 C 0.84545 0.35619 0.16563
 C385 C 0.82474 0.36802 0.15767
 N386 N 0.82969 0.37516 0.17031
 C387 C 0.84235 0.36801 0.17526
 C388 C 0.86850 0.34188 0.17525
 N389 N 0.87566 0.32922 0.17030
 C390 C 0.86852 0.32427 0.15766
 C391 C 0.84239 0.32427 0.13155
 N392 N 0.82973 0.32923 0.12442
 C393 C 0.82476 0.34189 0.13156
 H394 H 0.81473 0.37107 0.15131
 H395 H 0.84871 0.37106 0.18526
 H396 H 0.87154 0.34825 0.18525
 H397 H 0.87158 0.31425 0.15130
 H398 H 0.84876 0.31426 0.12851
 H399 H 0.81475 0.34826 0.12852
 C400 C 0.83427 0.85653 0.65505
 C401 C 0.83429 0.84532 0.64383
 C402 C 0.84536 0.83425 0.64383
 C403 C 0.85656 0.83424 0.65504
 C404 C 0.85654 0.84529 0.66611
 C405 C 0.84532 0.85651 0.66611
 C406 C 0.82462 0.86836 0.65813
 N407 N 0.82956 0.87549 0.67079
 C408 C 0.84222 0.86833 0.67575
 C409 C 0.86836 0.84220 0.67574
 N410 N 0.87552 0.82954 0.67078
 C411 C 0.86839 0.82459 0.65813
 C412 C 0.84229 0.82463 0.63200
 N413 N 0.82964 0.82960 0.62486
 C414 C 0.82466 0.84225 0.63201
 H415 H 0.81462 0.87141 0.65177
 H416 H 0.84857 0.87137 0.68575
 H417 H 0.87140 0.84855 0.68575
 H418 H 0.87145 0.81459 0.65177
 H419 H 0.84866 0.81462 0.62896
 H420 H 0.81465 0.84862 0.62896
 C421 C 0.66606 0.64369 0.65499
 C422 C 0.66605 0.65490 0.64379
 C423 C 0.65498 0.66597 0.64379
 C424 C 0.64376 0.66598 0.65499
 C425 C 0.64376 0.65491 0.66604
 C426 C 0.65499 0.64370 0.66604
 C427 C 0.67570 0.63186 0.65807
 N428 N 0.67074 0.62472 0.67072
 C429 C 0.65808 0.63187 0.67567
 C430 C 0.63193 0.65800 0.67566
 N431 N 0.62477 0.67066 0.67071
 C432 C 0.63192 0.67562 0.65807
 C433 C 0.65806 0.67560 0.63197
 N434 N 0.67072 0.67064 0.62483
 C435 C 0.67569 0.65798 0.63197
 H436 H 0.68571 0.62881 0.65172
 H437 H 0.65171 0.62882 0.68566
 H438 H 0.62888 0.65164 0.68566
 H439 H 0.62887 0.68562 0.65171
 H440 H 0.65169 0.68561 0.62892
 H441 H 0.68570 0.65162 0.62893
 C442 C 0.66611 0.14331 0.15463
 C443 C 0.66609 0.15451 0.14341
 C444 C 0.65499 0.16556 0.14339
 C445 C 0.64377 0.16556 0.15459
 C446 C 0.64379 0.15451 0.16565
 C447 C 0.65503 0.14331 0.16567
 C448 C 0.67577 0.13150 0.15773
 N449 N 0.67081 0.12436 0.17038
 C450 C 0.65813 0.13150 0.17531
 C451 C 0.63195 0.15759 0.17527
 N452 N 0.62478 0.17023 0.17031
 C453 C 0.63192 0.17519 0.15766
 C454 C 0.65807 0.17519 0.13157
 N455 N 0.67074 0.17024 0.12445
 C456 C 0.67573 0.15760 0.13160
 H457 H 0.68579 0.12846 0.15139
 H458 H 0.65177 0.12846 0.18531
 H459 H 0.62891 0.15124 0.18528
 H460 H 0.62885 0.18518 0.15130
 H461 H 0.65168 0.18518 0.12852
 H462 H 0.68575 0.15125 0.12857
 C463 C 0.16568 0.64385 0.15463
 C464 C 0.16568 0.65507 0.14343
 C465 C 0.15463 0.66616 0.14345
 C466 C 0.14343 0.66619 0.15467
 C467 C 0.14343 0.65512 0.16572
 C468 C 0.15463 0.64388 0.16570
 C469 C 0.17531 0.63200 0.15769
 N470 N 0.17035 0.62487 0.17034
 C471 C 0.15771 0.63204 0.17532
 C472 C 0.13162 0.65823 0.17536
 N473 N 0.12449 0.67091 0.17043
 C474 C 0.13162 0.67585 0.15777
 C475 C 0.15772 0.67579 0.13163
 N476 N 0.17036 0.67080 0.12447
 C477 C 0.17531 0.65813 0.13160
 H478 H 0.18530 0.62893 0.15132
 H479 H 0.15136 0.62901 0.18532
 H480 H 0.12858 0.65187 0.18536
 H481 H 0.12858 0.68587 0.15143
 H482 H 0.15137 0.68581 0.12860
 H483 H 0.18530 0.65174 0.12854
 C484 C 0.16567 0.14337 0.65494
 C485 C 0.16566 0.15457 0.64373
 C486 C 0.15459 0.16565 0.64373
 C487 C 0.14338 0.16566 0.65495
 C488 C 0.14339 0.15460 0.66601
 C489 C 0.15461 0.14338 0.66600
 C490 C 0.17531 0.13153 0.65802
 N491 N 0.17037 0.12440 0.67067
 C492 C 0.15771 0.13155 0.67563
 C493 C 0.13157 0.15770 0.67564
 N494 N 0.12442 0.17036 0.67069
 C495 C 0.13155 0.17531 0.65803
 C496 C 0.15767 0.17527 0.63191
 N497 N 0.17032 0.17030 0.62477
 C498 C 0.17529 0.15765 0.63191
 H499 H 0.18532 0.12848 0.65165
 H500 H 0.15135 0.12852 0.68563
 H501 H 0.12853 0.15135 0.68564
 H502 H 0.12850 0.18531 0.65168
 H503 H 0.15130 0.18528 0.62887
 H504 H 0.18530 0.15128 0.62886
 C505 C 0.33417 0.64374 0.34491
 C506 C 0.33417 0.65495 0.35612
 C507 C 0.34522 0.66601 0.35611
 C508 C 0.35642 0.66602 0.34489
 C509 C 0.35642 0.65496 0.33382
 C510 C 0.34522 0.64375 0.33383
 C511 C 0.32454 0.63192 0.34183
 N512 N 0.32949 0.62478 0.32917
 C513 C 0.34213 0.63193 0.32420
 C514 C 0.36823 0.65805 0.32418
 N515 N 0.37537 0.67070 0.32914
 C516 C 0.36823 0.67565 0.34180
 C517 C 0.34214 0.67564 0.36794
 N518 N 0.32950 0.67068 0.37509
 C519 C 0.32455 0.65803 0.36795
 H520 H 0.31455 0.62887 0.34820
 H521 H 0.34848 0.62889 0.31419
 H522 H 0.37127 0.65170 0.31418
 H523 H 0.37128 0.68565 0.34816
 H524 H 0.34849 0.68564 0.37098
 H525 H 0.31455 0.65167 0.37100
 C526 C 0.33423 0.14318 0.84526
 C527 C 0.33421 0.15440 0.85646
 C528 C 0.34528 0.16545 0.85647
 C529 C 0.35651 0.16544 0.84528
 C530 C 0.35652 0.15437 0.83423
 C531 C 0.34531 0.14317 0.83422
 C532 C 0.32460 0.13137 0.84217
 N533 N 0.32958 0.12421 0.82953
 C534 C 0.34224 0.13134 0.82459
 C535 C 0.36836 0.15744 0.82461
 N536 N 0.37549 0.17009 0.82957
 C537 C 0.36833 0.17506 0.84221
 C538 C 0.34217 0.17510 0.86828
 N539 N 0.32950 0.17016 0.87540
 C540 C 0.32456 0.15751 0.86826
 H541 H 0.31458 0.12834 0.84851
 H542 H 0.34862 0.12828 0.81460
 H543 H 0.37142 0.15107 0.81462
 H544 H 0.37136 0.18507 0.84856
 H545 H 0.34852 0.18510 0.87132
 H546 H 0.31455 0.15116 0.87130
 C547 C 0.83442 0.64337 0.84537
 C548 C 0.83440 0.65460 0.85657
 C549 C 0.84546 0.66566 0.85656
 C550 C 0.85668 0.66564 0.84537
 C551 C 0.85671 0.65456 0.83433
 C552 C 0.84550 0.64335 0.83433
 C553 C 0.82480 0.63155 0.84229
 N554 N 0.82978 0.62439 0.82966
 C555 C 0.84244 0.63152 0.82471
 C556 C 0.86854 0.65763 0.82471
 N557 N 0.87567 0.67029 0.82966
 C558 C 0.86850 0.67527 0.84229
 C559 C 0.84234 0.67532 0.86836
 N560 N 0.82968 0.67038 0.87549
 C561 C 0.82474 0.65771 0.86836
 H562 H 0.81478 0.62852 0.84864
 H563 H 0.84881 0.62846 0.81472
 H564 H 0.87161 0.65126 0.81472
 H565 H 0.87153 0.68528 0.84864
 H566 H 0.84869 0.68532 0.87140
 H567 H 0.81473 0.65136 0.87140
 C568 C 0.83471 0.14328 0.34521
 C569 C 0.83471 0.15449 0.35642
 C570 C 0.84576 0.16556 0.35641
 C571 C 0.85697 0.16555 0.34520
 C572 C 0.85697 0.15448 0.33414
 C573 C 0.84577 0.14327 0.33415
 C574 C 0.82508 0.13146 0.34214
 N575 N 0.83004 0.12431 0.32949
 C576 C 0.84269 0.13145 0.32453
 C577 C 0.86879 0.15757 0.32450
 N578 N 0.87592 0.17022 0.32945
 C579 C 0.86878 0.17518 0.34210
 C580 C 0.84267 0.17520 0.36822
 N581 N 0.83002 0.17025 0.37537
 C582 C 0.82507 0.15759 0.36824
 H583 H 0.81508 0.12842 0.34850
 H584 H 0.84904 0.12840 0.31452
 H585 H 0.87183 0.15120 0.31450
 H586 H 0.87182 0.18519 0.34845
 H587 H 0.84902 0.18521 0.37126
 H588 H 0.81507 0.15123 0.37129
 C589 C 0.66586 0.35622 0.34513
 C590 C 0.66586 0.34501 0.35633
 C591 C 0.65481 0.33395 0.35633
 C592 C 0.64360 0.33395 0.34512
 C593 C 0.64360 0.34501 0.33406
 C594 C 0.65480 0.35622 0.33407
 C595 C 0.67548 0.36804 0.34205
 N596 N 0.67053 0.37519 0.32940
 C597 C 0.65788 0.36805 0.32444
 C598 C 0.63178 0.34192 0.32443
 N599 N 0.62465 0.32927 0.32938
 C600 C 0.63179 0.32432 0.34203
 C601 C 0.65790 0.32432 0.36815
 N602 N 0.67055 0.32927 0.37529
 C603 C 0.67549 0.34193 0.36815
 H604 H 0.68548 0.37109 0.34841
 H605 H 0.65153 0.37109 0.31444
 H606 H 0.62873 0.34828 0.31443
 H607 H 0.62875 0.31431 0.34839
 H608 H 0.65155 0.31431 0.37119
 H609 H 0.68549 0.34829 0.37120
 C610 C 0.66550 0.85676 0.84537
 C611 C 0.66551 0.84554 0.85657
 C612 C 0.65445 0.83449 0.85656
 C613 C 0.64323 0.83450 0.84536
 C614 C 0.64322 0.84557 0.83431
 C615 C 0.65443 0.85678 0.83432
 C616 C 0.67514 0.86857 0.84229
 N617 N 0.67018 0.87573 0.82965
 C618 C 0.65752 0.86860 0.82470
 C619 C 0.63140 0.84250 0.82468
 N620 N 0.62427 0.82984 0.82963
 C621 C 0.63141 0.82488 0.84227
 C622 C 0.65754 0.82483 0.86836
 N623 N 0.67020 0.82977 0.87550
 C624 C 0.67515 0.84243 0.86837
 H625 H 0.68515 0.87160 0.84864
 H626 H 0.65116 0.87166 0.81470
 H627 H 0.62835 0.84887 0.81469
 H628 H 0.62838 0.81486 0.84862
 H629 H 0.65119 0.81483 0.87140
 H630 H 0.68516 0.84878 0.87142
 C631 C 0.16540 0.35659 0.84533
 C632 C 0.16542 0.34536 0.85652
 C633 C 0.15436 0.33430 0.85651
 C634 C 0.14315 0.33432 0.84531
 C635 C 0.14313 0.34539 0.83427
 C636 C 0.15434 0.35660 0.83428
 C637 C 0.17503 0.36841 0.84225
 N638 N 0.17007 0.37557 0.82962
 C639 C 0.15741 0.36843 0.82466
 C640 C 0.13131 0.34231 0.82464
 N641 N 0.12418 0.32965 0.82958
 C642 C 0.13133 0.32468 0.84222
 C643 C 0.15747 0.32465 0.86831
 N644 N 0.17012 0.32960 0.87545
 C645 C 0.17506 0.34226 0.86833
 H646 H 0.18504 0.37144 0.84861
 H647 H 0.15105 0.37149 0.81466
 H648 H 0.12826 0.34868 0.81465
 H649 H 0.12830 0.31467 0.84856
 H650 H 0.15112 0.31464 0.87134
 H651 H 0.18507 0.34861 0.87137
 C652 C 0.16569 0.85700 0.34525
 C653 C 0.16570 0.84579 0.35645
 C654 C 0.15464 0.83474 0.35647
 C655 C 0.14341 0.83475 0.34528
 C656 C 0.14340 0.84581 0.33422
 C657 C 0.15461 0.85701 0.33421
 C658 C 0.17532 0.86881 0.34215
 N659 N 0.17035 0.87596 0.32951
 C660 C 0.15769 0.86883 0.32457
 C661 C 0.13157 0.84273 0.32461
 N662 N 0.12443 0.83009 0.32957
 C663 C 0.13158 0.82513 0.34221
 C664 C 0.15774 0.82510 0.36828
 N665 N 0.17040 0.83005 0.37540
 C666 C 0.17535 0.84270 0.36826
 H667 H 0.18534 0.87185 0.34849
 H668 H 0.15132 0.87188 0.31458
 H669 H 0.12851 0.84909 0.31461
 H670 H 0.12855 0.81512 0.34857
 H671 H 0.15138 0.81511 0.37133
 H672 H 0.18536 0.84904 0.37129
 O673 O 0.24836 1.01527 0.26912
 O674 O 0.26912 0.98575 0.24829
 O675 O 0.26914 1.01523 0.24830
 O676 O 0.24834 0.98579 0.26911
 O677 O 0.23065 0.98583 0.25149
 O678 O 0.25145 1.01527 0.23068
 O679 O 0.25143 0.98580 0.23066
 O680 O 0.23067 1.01531 0.25150
 Cu681 Cu 0.26052 1.00051 0.26048
 Cu682 Cu 0.23927 1.00055 0.23931
 C683 C 0.23601 1.02033 0.26383
 C684 C 0.26378 0.98073 0.23595
 C685 C 0.26381 1.02028 0.23597
 C686 C 0.23598 0.98078 0.26382
 O687 O 0.24812 0.51493 0.76931
 O688 O 0.26890 0.48538 0.74857
 O689 O 0.26893 0.51485 0.74852
 O690 O 0.24808 0.48546 0.76935
 O691 O 0.23042 0.48547 0.75170
 O692 O 0.25127 0.51486 0.73087
 O693 O 0.25124 0.48539 0.73092
 O694 O 0.23046 0.51495 0.75166
 Cu695 Cu 0.26028 0.50015 0.76071
 Cu696 Cu 0.23907 0.50017 0.73951
 C697 C 0.23578 0.51999 0.76400
 C698 C 0.26359 0.48033 0.73624
 C699 C 0.26362 0.51988 0.73618
 C700 C 0.23573 0.48043 0.76405
 O701 O 0.74868 -0.01510 0.23098
 O702 O 0.76957 0.01434 0.25170
 O703 O 0.76950 -0.01513 0.25175
 O704 O 0.74876 0.01437 0.23092
 O705 O 0.73110 0.01448 0.24858
 O706 O 0.75184 -0.01503 0.26941
 O707 O 0.75191 0.01444 0.26936
 O708 O 0.73102 -0.01499 0.24864
 Cu709 Cu 0.76090 -0.00039 0.23956
 Cu710 Cu 0.73969 -0.00026 0.26077
 C711 C 0.73631 -0.02008 0.23631
 C712 C 0.76427 0.01943 0.26403
 C713 C 0.76417 -0.02013 0.26410
 C714 C 0.73643 0.01947 0.23622
 O715 O 0.73099 0.51456 0.74857
 O716 O 0.75176 0.48502 0.76933
 O717 O 0.75180 0.51450 0.76936
 O718 O 0.73096 0.48509 0.74855
 O719 O 0.74863 0.48506 0.73089
 O720 O 0.76947 0.51447 0.75171
 O721 O 0.76943 0.48499 0.75168
 O722 O 0.74866 0.51453 0.73092
 Cu723 Cu 0.73960 0.49980 0.76073
 Cu724 Cu 0.76082 0.49976 0.73953
 C725 C 0.73632 0.51960 0.73624
 C726 C 0.76410 0.47995 0.76401
 C727 C 0.76415 0.51951 0.76405
 C728 C 0.73627 0.48005 0.73620
 O729 O 0.24823 0.48527 0.23074
 O730 O 0.26908 0.51474 0.25145
 O731 O 0.26904 0.48527 0.25152
 O732 O 0.24826 0.51474 0.23067
 O733 O 0.23060 0.51482 0.24833
 O734 O 0.25137 0.48536 0.26918
 O735 O 0.25141 0.51483 0.26911
 O736 O 0.23057 0.48535 0.24840
 Cu737 Cu 0.26043 0.49999 0.23932
 Cu738 Cu 0.23921 0.50010 0.26053
 C739 C 0.23588 0.48027 0.23607
 C740 C 0.26377 0.51983 0.26378
 C741 C 0.26372 0.48027 0.26388
 C742 C 0.23592 0.51982 0.23598
 O743 O 0.74827 1.01507 0.76943
 O744 O 0.76911 0.98554 0.74870
 O745 O 0.76914 1.01501 0.74870
 O746 O 0.74826 0.98560 0.76945
 O747 O 0.73063 0.98562 0.75177
 O748 O 0.75151 1.01504 0.73101
 O749 O 0.75148 0.98557 0.73102
 O750 O 0.73065 1.01509 0.75175
 Cu751 Cu 0.76046 1.00030 0.76085
 Cu752 Cu 0.73930 1.00033 0.73961
 C753 C 0.73594 1.02013 0.76409
 C754 C 0.76381 0.98050 0.73635
 C755 C 0.76385 1.02006 0.73635
 C756 C 0.73591 0.98058 0.76412
 O757 O 0.76933 0.48511 0.24840
 O758 O 0.74855 0.51459 0.26925
 O759 O 0.74853 0.48512 0.26920
 O760 O 0.76934 0.51459 0.24844
 O761 O 0.75166 0.51464 0.23081
 O762 O 0.73086 0.48517 0.25156
 O763 O 0.73087 0.51464 0.25162
 O764 O 0.75165 0.48517 0.23076
 Cu765 Cu 0.76071 0.49985 0.26060
 Cu766 Cu 0.73948 0.49991 0.23942
 C767 C 0.76401 0.48010 0.23605
 C768 C 0.73620 0.51966 0.26396
 C769 C 0.73618 0.48010 0.26389
 C770 C 0.76402 0.51965 0.23612
 O771 O 0.23080 0.01431 0.74848
 O772 O 0.25164 -0.01519 0.76923
 O773 O 0.25163 0.01428 0.76925
 O774 O 0.23082 -0.01516 0.74846
 O775 O 0.24847 -0.01516 0.73079
 O776 O 0.26928 0.01428 0.75158
 O777 O 0.26929 -0.01519 0.75156
 O778 O 0.24845 0.01431 0.73081
 Cu779 Cu 0.23945 -0.00044 0.76063
 Cu780 Cu 0.26065 -0.00044 0.73941
 C781 C 0.23610 0.01936 0.73614
 C782 C 0.26399 -0.02024 0.76390
 C783 C 0.26397 0.01932 0.76393
 C784 C 0.23613 -0.02020 0.73611
 O785 O 0.26903 0.24828 1.01467
 O786 O 0.24822 0.26911 0.98523
 O787 O 0.24822 0.26910 1.01468
 O788 O 0.26903 0.24828 0.98522
 O789 O 0.25137 0.23063 0.98522
 O790 O 0.23056 0.25145 1.01468
 O791 O 0.23055 0.25146 0.98523
 O792 O 0.25136 0.23063 1.01467
 Cu793 Cu 0.26040 0.26046 0.99995
 Cu794 Cu 0.23919 0.23927 0.99995
 C795 C 0.26371 0.23593 1.01971
 C796 C 0.23587 0.26381 0.98020
 C797 C 0.23587 0.26380 1.01972
 C798 C 0.26372 0.23594 0.98019
 O799 O 0.24847 0.76949 0.48518
 O800 O 0.26926 0.74860 0.51459
 O801 O 0.26926 0.74864 0.48514
 O802 O 0.24849 0.76946 0.51463
 O803 O 0.23080 0.75184 0.51462
 O804 O 0.25157 0.73102 0.48513
 O805 O 0.25157 0.73098 0.51458
 O806 O 0.23078 0.75187 0.48517
 Cu807 Cu 0.26065 0.76082 0.49989
 Cu808 Cu 0.23940 0.73966 0.49987
 C809 C 0.23611 0.76422 0.48015
 C810 C 0.26393 0.73626 0.51962
 C811 C 0.26392 0.73631 0.48009
 C812 C 0.23614 0.76417 0.51967
 O813 O 0.26918 0.75165 -0.01497
 O814 O 0.24837 0.73090 0.01450
 O815 O 0.24840 0.73085 -0.01495
 O816 O 0.26916 0.75170 0.01448
 O817 O 0.25147 0.76937 0.01444
 O818 O 0.23072 0.74852 -0.01500
 O819 O 0.23068 0.74857 0.01445
 O820 O 0.25150 0.76932 -0.01501
 Cu821 Cu 0.26055 0.73950 -0.00023
 Cu822 Cu 0.23932 0.76072 -0.00028
 C823 C 0.26386 0.76399 -0.02003
 C824 C 0.23601 0.73623 0.01952
 C825 C 0.23605 0.73616 -0.02001
 C826 C 0.26382 0.76406 0.01950
 O827 O 0.26906 0.25142 0.48542
 O828 O 0.24826 0.23059 0.51484
 O829 O 0.24827 0.23062 0.48539
 O830 O 0.26905 0.25139 0.51487
 O831 O 0.25136 0.26906 0.51488
 O832 O 0.23059 0.24829 0.48540
 O833 O 0.23057 0.24826 0.51485
 O834 O 0.25137 0.26909 0.48543
 Cu835 Cu 0.26043 0.23923 0.50013
 Cu836 Cu 0.23920 0.26045 0.50014
 C837 C 0.26373 0.26377 0.48039
 C838 C 0.23590 0.23591 0.51988
 C839 C 0.23592 0.23595 0.48035
 C840 C 0.26372 0.26373 0.51992
 O841 O 0.74825 0.76926 0.98530
 O842 O 0.76907 0.74844 1.01474
 O843 O 0.76909 0.74846 0.98529
 O844 O 0.74822 0.76923 1.01475
 O845 O 0.73058 0.75156 1.01472
 O846 O 0.75145 0.73079 0.98526
 O847 O 0.75143 0.73077 1.01471
 O848 O 0.73061 0.75159 0.98527
 Cu849 Cu 0.76043 0.76062 1.00002
 Cu850 Cu 0.73925 0.73940 0.99998
 C851 C 0.73591 0.76395 0.98025
 C852 C 0.76377 0.73608 1.01976
 C853 C 0.76380 0.73611 0.98024
 C854 C 0.73588 0.76390 1.01977
 O855 O 0.73103 0.25141 0.51468
 O856 O 0.75190 0.23061 0.48525
 O857 O 0.75190 0.23064 0.51470
 O858 O 0.73104 0.25138 0.48523
 O859 O 0.74865 0.26907 0.48521
 O860 O 0.76951 0.24834 0.51468
 O861 O 0.76952 0.24830 0.48523
 O862 O 0.74865 0.26911 0.51466
 Cu863 Cu 0.73970 0.23923 0.49996
 Cu864 Cu 0.76085 0.26048 0.49994
 C865 C 0.73631 0.26378 0.51970
 C866 C 0.76424 0.23594 0.48020
 C867 C 0.76423 0.23598 0.51973
 C868 C 0.73632 0.26374 0.48018
 O869 O 0.73080 0.24836 -0.01492
 O870 O 0.75166 0.26909 0.01453
 O871 O 0.75160 0.26915 -0.01492
 O872 O 0.73086 0.24830 0.01453
 O873 O 0.74854 0.23062 0.01446
 O874 O 0.76927 0.25147 -0.01499
 O875 O 0.76933 0.25141 0.01446
 O876 O 0.74848 0.23068 -0.01499
 Cu877 Cu 0.73945 0.26050 -0.00018
 Cu878 Cu 0.76068 0.23927 -0.00027
 C879 C 0.73611 0.23602 -0.01999
 C880 C 0.76402 0.26376 0.01953
 C881 C 0.76394 0.26383 -0.01999
 C882 C 0.73620 0.23594 0.01954
 O883 O 0.73094 0.74859 0.48544
 O884 O 0.75174 0.76938 0.51488
 O885 O 0.75173 0.76938 0.48543
 O886 O 0.73095 0.74858 0.51489
 O887 O 0.74863 0.73091 0.51487
 O888 O 0.76941 0.75171 0.48541
 O889 O 0.76942 0.75171 0.51486
 O890 O 0.74862 0.73092 0.48542
 Cu891 Cu 0.73956 0.76076 0.50016
 Cu892 Cu 0.76080 0.73953 0.50014
 C893 C 0.73626 0.73624 0.48039
 C894 C 0.76410 0.76406 0.51991
 C895 C 0.76408 0.76406 0.48038
 C896 C 0.73628 0.73623 0.51992
 O897 O 1.01520 0.26910 0.24836
 O898 O 0.98577 0.24826 0.26913
 O899 O 1.01524 0.24831 0.26916
 O900 O 0.98573 0.26905 0.24833
 O901 O 0.98580 0.25137 0.23069
 O902 O 1.01531 0.23063 0.25152
 O903 O 0.98583 0.23059 0.25149
 O904 O 1.01527 0.25142 0.23072
 Cu905 Cu 1.00048 0.26046 0.26052
 Cu906 Cu 1.00056 0.23923 0.23933
 C907 C 1.02027 0.26378 0.23603
 C908 C 0.98077 0.23590 0.26383
 C909 C 1.02032 0.23596 0.26386
 C910 C 0.98072 0.26372 0.23599
 O911 O 0.51483 0.26895 0.74854
 O912 O 0.48542 0.24810 0.76935
 O913 O 0.51490 0.24814 0.76932
 O914 O 0.48535 0.26892 0.74858
 O915 O 0.48538 0.25126 0.73092
 O916 O 0.51493 0.23048 0.75166
 O917 O 0.48545 0.23044 0.75169
 O918 O 0.51486 0.25129 0.73088
 Cu919 Cu 0.50012 0.26030 0.76072
 Cu920 Cu 0.50016 0.23909 0.73952
 C921 C 0.51987 0.26364 0.73620
 C922 C 0.48041 0.23575 0.76404
 C923 C 0.51997 0.23580 0.76400
 C924 C 0.48031 0.26360 0.73624
 O925 O -0.01515 0.23083 0.74852
 O926 O 0.01428 0.25166 0.76930
 O927 O -0.01519 0.25167 0.76928
 O928 O 0.01432 0.23082 0.74854
 O929 O 0.01432 0.24846 0.73087
 O930 O -0.01520 0.26930 0.75161
 O931 O 0.01428 0.26930 0.75163
 O932 O -0.01516 0.24847 0.73085
 Cu933 Cu -0.00043 0.23947 0.76069
 Cu934 Cu -0.00044 0.26066 0.73946
 C935 C -0.02019 0.23613 0.73617
 C936 C 0.01932 0.26400 0.76398
 C937 C -0.02024 0.26401 0.76395
 C938 C 0.01937 0.23612 0.73620
 O939 O 0.48520 0.26897 0.25153
 O940 O 0.51467 0.24818 0.23069
 O941 O 0.48520 0.24818 0.23073
 O942 O 0.51467 0.26897 0.25149
 O943 O 0.51472 0.25130 0.26913
 O944 O 0.48524 0.23050 0.24837
 O945 O 0.51472 0.23051 0.24832
 O946 O 0.48524 0.25130 0.26917
 Cu947 Cu 0.49993 0.26035 0.23934
 Cu948 Cu 0.49999 0.23912 0.26052
 C949 C 0.48018 0.26365 0.26388
 C950 C 0.51974 0.23583 0.23598
 C951 C 0.48018 0.23583 0.23604
 C952 C 0.51974 0.26365 0.26382
 O953 O 0.98559 0.75148 0.73101
 O954 O 1.01511 0.73066 0.75175
 O955 O 0.98563 0.73065 0.75177
 O956 O 1.01506 0.75151 0.73101
 O957 O 1.01503 0.76914 0.74869
 O958 O 0.98560 0.74829 0.76945
 O959 O 1.01508 0.74830 0.76944
 O960 O 0.98556 0.76912 0.74870
 Cu961 Cu 1.00035 0.73930 0.73961
 Cu962 Cu 1.00032 0.76048 0.76085
 C963 C 0.98053 0.76382 0.73635
 C964 C 1.02014 0.73596 0.76410
 C965 C 0.98058 0.73594 0.76412
 C966 C 1.02008 0.76385 0.73634
 O967 O 0.48543 0.75183 0.23054
 O968 O 0.51487 0.73105 0.25141
 O969 O 0.48540 0.73104 0.25133
 O970 O 0.51490 0.75183 0.23061
 O971 O 0.51483 0.76951 0.24825
 O972 O 0.48533 0.74872 0.26897
 O973 O 0.51480 0.74872 0.26905
 O974 O 0.48536 0.76951 0.24818
 Cu975 Cu 0.50016 0.73966 0.23920
 Cu976 Cu 0.50007 0.76089 0.26039
 C977 C 0.48035 0.76419 0.23583
 C978 C 0.51987 0.73637 0.26376
 C979 C 0.48032 0.73636 0.26366
 C980 C 0.51992 0.76418 0.23593
 O981 O -0.01503 0.76968 0.25176
 O982 O 0.01449 0.74894 0.23094
 O983 O -0.01498 0.74889 0.23096
 O984 O 0.01445 0.76973 0.25174
 O985 O 0.01451 0.75206 0.26938
 O986 O -0.01491 0.73121 0.24860
 O987 O 0.01456 0.73126 0.24858
 O988 O -0.01496 0.75201 0.26940
 Cu989 Cu -0.00027 0.76108 0.23958
 Cu990 Cu -0.00019 0.73986 0.26076
 C991 C -0.02005 0.76435 0.26410
 C992 C 0.01957 0.73659 0.23623
 C993 C -0.01998 0.73652 0.23627
 C994 C 0.01951 0.76442 0.26407
 O995 O 0.48497 0.76939 0.75158
 O996 O 0.51453 0.74861 0.73085
 O997 O 0.48506 0.74857 0.73081
 O998 O 0.51445 0.76943 0.75162
 O999 O 0.51447 0.75178 0.76928
 O1000 O 0.48508 0.73092 0.74847
 O1001 O 0.51455 0.73096 0.74851
 O1002 O 0.48499 0.75174 0.76924
 Cu1003 Cu 0.49975 0.76077 0.73944
 Cu1004 Cu 0.49977 0.73958 0.76065
 C1005 C 0.47992 0.76408 0.76391
 C1006 C 0.51960 0.73627 0.73617
 C1007 C 0.48004 0.73621 0.73612
 C1008 C 0.51948 0.76413 0.76397
 N1009 N 0.40550 0.30243 0.32142
 C1010 C 0.41145 0.30825 0.30856
 N1011 N 0.40548 0.32112 0.30274
 N1012 N 0.39391 0.32795 0.30956
 C1013 C 0.38789 0.32214 0.32243
 N1014 N 0.39392 0.30925 0.32824
 C1015 C 0.42371 0.30074 0.30105
 C1016 C 0.43392 0.29435 0.29465
 C1017 C 0.44596 0.28665 0.28694
 N1018 N 0.45160 0.29226 0.27385
 N1019 N 0.46258 0.28497 0.26654
 C1020 C 0.46828 0.27182 0.27207
 N1021 N 0.46262 0.26625 0.28521
 N1022 N 0.45164 0.27355 0.29252
 N1023 N 0.40496 0.80274 0.82115
 C1024 C 0.41090 0.80855 0.80829
 N1025 N 0.40489 0.82137 0.80241
 N1026 N 0.39326 0.82816 0.80918
 C1027 C 0.38721 0.82236 0.82206
 N1028 N 0.39333 0.80952 0.82792
 C1029 C 0.42323 0.80108 0.80083
 C1030 C 0.43348 0.79471 0.79448
 C1031 C 0.44557 0.78704 0.78682
 N1032 N 0.45124 0.79264 0.77374
 N1033 N 0.46227 0.78536 0.76648
 C1034 C 0.46798 0.77224 0.77206
 N1035 N 0.46229 0.76668 0.78518
 N1036 N 0.45126 0.77396 0.79244
 N1037 N -0.09519 0.32141 0.80247
 C1038 C -0.08919 0.30859 0.80834
 N1039 N -0.09514 0.30277 0.82120
 N1040 N -0.10676 0.30956 0.82797
 C1041 C -0.11287 0.32241 0.82212
 N1042 N -0.10682 0.32821 0.80924
 C1043 C -0.07687 0.30110 0.80087
 C1044 C -0.06663 0.29472 0.79452
 C1045 C -0.05455 0.28703 0.78687
 N1046 N -0.04888 0.27395 0.79249
 N1047 N -0.03786 0.26665 0.78523
 C1048 C -0.03217 0.27220 0.77210
 N1049 N -0.03787 0.28532 0.76652
 N1050 N -0.04888 0.29262 0.77378
 N1051 N -0.09494 0.80293 0.32150
 C1052 C -0.08901 0.80875 0.30864
 N1053 N -0.09503 0.82157 0.30277
 N1054 N -0.10666 0.82835 0.30955
 C1055 C -0.11270 0.82255 0.32243
 N1056 N -0.10657 0.80971 0.32829
 C1057 C -0.07669 0.80128 0.30116
 C1058 C -0.06644 0.79492 0.29480
 C1059 C -0.05437 0.78727 0.28711
 N1060 N -0.04872 0.79289 0.27403
 N1061 N -0.03771 0.78563 0.26673
 C1062 C -0.03198 0.77250 0.27229
 N1063 N -0.03764 0.76692 0.28541
 N1064 N -0.04866 0.77418 0.29270
 N1065 N 0.59451 0.67891 0.30271
 C1066 C 0.58856 0.69180 0.30851
 N1067 N 0.59451 0.69764 0.32136
 N1068 N 0.60608 0.69082 0.32819
 C1069 C 0.61210 0.67792 0.32240
 N1070 N 0.60608 0.67208 0.30953
 C1071 C 0.57630 0.69931 0.30099
 C1072 C 0.56610 0.70569 0.29458
 C1073 C 0.55407 0.71338 0.28686
 N1074 N 0.54838 0.72649 0.29243
 N1075 N 0.53740 0.73377 0.28511
 C1076 C 0.53176 0.72820 0.27197
 N1077 N 0.53748 0.71506 0.26643
 N1078 N 0.54845 0.70777 0.27376
 N1079 N 0.59494 0.19721 0.82123
 C1080 C 0.58899 0.19137 0.80838
 N1081 N 0.59501 0.17855 0.80252
 N1082 N 0.60665 0.17177 0.80928
 C1083 C 0.61269 0.17759 0.82216
 N1084 N 0.60657 0.19043 0.82801
 C1085 C 0.57667 0.19884 0.80092
 C1086 C 0.56641 0.20520 0.79457
 C1087 C 0.55432 0.21286 0.78692
 N1088 N 0.54866 0.20725 0.77384
 N1089 N 0.53763 0.21452 0.76657
 C1090 C 0.53191 0.22764 0.77215
 N1091 N 0.53760 0.23321 0.78527
 N1092 N 0.54862 0.22594 0.79253
 N1093 N 1.09509 0.67857 0.80258
 C1094 C 1.08909 0.69140 0.80845
 N1095 N 1.09505 0.69721 0.82131
 N1096 N 1.10667 0.69042 0.82807
 C1097 C 1.11277 0.67757 0.82221
 N1098 N 1.10672 0.67177 0.80934
 C1099 C 1.07678 0.69889 0.80100
 C1100 C 1.06653 0.70526 0.79465
 C1101 C 1.05446 0.71295 0.78701
 N1102 N 1.04877 0.72603 0.79263
 N1103 N 1.03775 0.73333 0.78538
 C1104 C 1.03207 0.72778 0.77224
 N1105 N 1.03778 0.71466 0.76665
 N1106 N 1.04879 0.70737 0.77391
 N1107 N 1.09525 0.17870 0.30253
 C1108 C 1.08922 0.19151 0.30841
 N1109 N 1.09514 0.19732 0.32128
 N1110 N 1.10675 0.19052 0.32807
 C1111 C 1.11288 0.17769 0.32221
 N1112 N 1.10686 0.17190 0.30931
 C1113 C 1.07692 0.19900 0.30093
 C1114 C 1.06668 0.20537 0.29456
 C1115 C 1.05462 0.21303 0.28687
 N1116 N 1.04891 0.22612 0.29246
 N1117 N 1.03791 0.23339 0.28517
 C1118 C 1.03225 0.22781 0.27204
 N1119 N 1.03797 0.21468 0.26649
 N1120 N 1.04898 0.20741 0.27378
 N1121 N 0.59445 0.32116 0.69743
 C1122 C 0.58850 0.30830 0.69159
 N1123 N 0.59445 0.30248 0.67873
 N1124 N 0.60602 0.30930 0.67190
 C1125 C 0.61203 0.32217 0.67773
 N1126 N 0.60602 0.32798 0.69061
 C1127 C 0.57625 0.30079 0.69910
 C1128 C 0.56605 0.29440 0.70549
 C1129 C 0.55404 0.28669 0.71318
 N1130 N 0.54840 0.27359 0.70759
 N1131 N 0.53743 0.26628 0.71488
 C1132 C 0.53175 0.27184 0.72802
 N1133 N 0.53741 0.28498 0.73358
 N1134 N 0.54837 0.29228 0.72628
 N1135 N 0.59477 0.80281 0.17868
 C1136 C 0.58882 0.80864 0.19155
 N1137 N 0.59482 0.82146 0.19741
 N1138 N 0.60643 0.82824 0.19063
 C1139 C 0.61248 0.82242 0.17774
 N1140 N 0.60638 0.80958 0.17190
 C1141 C 0.57652 0.80117 0.19902
 C1142 C 0.56628 0.79481 0.20537
 C1143 C 0.55421 0.78715 0.21302
 N1144 N 0.54851 0.79276 0.22609
 N1145 N 0.53750 0.78549 0.23335
 C1146 C 0.53184 0.77235 0.22778
 N1147 N 0.53756 0.76677 0.21468
 N1148 N 0.54857 0.77405 0.20742
 N1149 N 1.09494 0.32127 0.19739
 C1150 C 1.08899 0.30842 0.19154
 N1151 N 1.09495 0.30260 0.17869
 N1152 N 1.10653 0.30941 0.17188
 C1153 C 1.11258 0.32228 0.17771
 N1154 N 1.10652 0.32809 0.19059
 C1155 C 1.07672 0.30092 0.19903
 C1156 C 1.06651 0.29453 0.20540
 C1157 C 1.05448 0.28683 0.21307
 N1158 N 1.04886 0.27371 0.20748
 N1159 N 1.03788 0.26641 0.21475
 C1160 C 1.03217 0.27197 0.22787
 N1161 N 1.03780 0.28512 0.23343
 N1162 N 1.04878 0.29243 0.22615
 N1163 N 1.09473 0.82138 0.69772
 C1164 C 1.08874 0.80856 0.69184
 N1165 N 1.09466 0.80279 0.67894
 N1166 N 1.10623 0.80961 0.67213
 C1167 C 1.11229 0.82244 0.67800
 N1168 N 1.10630 0.82821 0.69092
 C1169 C 1.07649 0.80104 0.69933
 C1170 C 1.06629 0.79464 0.70570
 C1171 C 1.05427 0.78693 0.71338
 N1172 N 1.04863 0.77383 0.70776
 N1173 N 1.03766 0.76652 0.71504
 C1174 C 1.03197 0.77205 0.72818
 N1175 N 1.03762 0.78519 0.73376
 N1176 N 1.04859 0.79250 0.72648
 N1177 N 0.40550 0.67866 0.69734
 C1178 C 0.41146 0.69151 0.69150
 N1179 N 0.40553 0.69733 0.67862
 N1180 N 0.39397 0.69051 0.67180
 C1181 C 0.38794 0.67764 0.67762
 N1182 N 0.39394 0.67184 0.69051
 C1183 C 0.42371 0.69903 0.69901
 C1184 C 0.43390 0.70543 0.70540
 C1185 C 0.44591 0.71314 0.71310
 N1186 N 0.45154 0.72624 0.70750
 N1187 N 0.46250 0.73356 0.71480
 C1188 C 0.46818 0.72801 0.72794
 N1189 N 0.46252 0.71487 0.73350
 N1190 N 0.45156 0.70756 0.72620
 N1191 N 0.40540 0.17847 0.19744
 C1192 C 0.41140 0.19128 0.19157
 N1193 N 0.40547 0.19708 0.17868
 N1194 N 0.39388 0.19029 0.17189
 C1195 C 0.38781 0.17746 0.17775
 N1196 N 0.39381 0.17167 0.19065
 C1197 C 0.42368 0.19878 0.19905
 C1198 C 0.43389 0.20515 0.20542
 C1199 C 0.44594 0.21284 0.21309
 N1200 N 0.45158 0.22594 0.20749
 N1201 N 0.46257 0.23323 0.21477
 C1202 C 0.46827 0.22766 0.22788
 N1203 N 0.46262 0.21451 0.23344
 N1204 N 0.45163 0.20723 0.22616
 N1205 N -0.09450 0.67892 0.19753
 C1206 C -0.08857 0.69179 0.19170
 N1207 N -0.09453 0.69760 0.17883
 N1208 N -0.10607 0.69075 0.17201
 C1209 C -0.11207 0.67787 0.17783
 N1210 N -0.10604 0.67207 0.19071
 C1211 C -0.07633 0.69932 0.19920
 C1212 C -0.06615 0.70573 0.20559
 C1213 C -0.05414 0.71345 0.21328
 N1214 N -0.04852 0.72656 0.20769
 N1215 N -0.03756 0.73388 0.21498
 C1216 C -0.03186 0.72833 0.22810
 N1217 N -0.03749 0.71517 0.23365
 N1218 N -0.04845 0.70786 0.22636
 N1219 N -0.09486 0.19736 0.67880
 C1220 C -0.08892 0.19155 0.69167
 N1221 N -0.09490 0.17872 0.69752
 N1222 N -0.10649 0.17191 0.69072
 C1223 C -0.11252 0.17771 0.67783
 N1224 N -0.10644 0.19056 0.67199
 C1225 C -0.07665 0.19904 0.69916
 C1226 C -0.06644 0.20542 0.70553
 C1227 C -0.05440 0.21311 0.71320
 N1228 N -0.04874 0.20753 0.72630
 N1229 N -0.03776 0.21482 0.73358
 C1230 C -0.03208 0.22795 0.72801
 N1231 N -0.03776 0.23350 0.71487
 N1232 N -0.04874 0.22620 0.70759
 N1233 N 0.32112 0.40555 0.30275
 C1234 C 0.30825 0.41152 0.30856
 N1235 N 0.30241 0.40558 0.32142
 N1236 N 0.30922 0.39400 0.32824
 C1237 C 0.32211 0.38795 0.32243
 N1238 N 0.32794 0.39397 0.30956
 C1239 C 0.30075 0.42379 0.30105
 C1240 C 0.29437 0.43400 0.29466
 C1241 C 0.28669 0.44604 0.28694
 N1242 N 0.27360 0.45175 0.29253
 N1243 N 0.26631 0.46274 0.28522
 C1244 C 0.27188 0.46837 0.27208
 N1245 N 0.28502 0.46264 0.26653
 N1246 N 0.29229 0.45166 0.27384
 N1247 N 0.32138 -0.09517 0.80241
 C1248 C 0.30856 -0.08916 0.80828
 N1249 N 0.30274 -0.09510 0.82114
 N1250 N 0.30953 -0.10673 0.82792
 C1251 C 0.32238 -0.11284 0.82206
 N1252 N 0.32818 -0.10680 0.80917
 C1253 C 0.30107 -0.07685 0.80082
 C1254 C 0.29470 -0.06661 0.79447
 C1255 C 0.28701 -0.05454 0.78681
 N1256 N 0.27392 -0.04886 0.79243
 N1257 N 0.26662 -0.03785 0.78517
 C1258 C 0.27217 -0.03216 0.77205
 N1259 N 0.28531 -0.03786 0.76646
 N1260 N 0.29260 -0.04887 0.77373
 N1261 N 0.82136 0.40493 0.80252
 C1262 C 0.80854 0.41094 0.80840
 N1263 N 0.80272 0.40500 0.82125
 N1264 N 0.80950 0.39336 0.82802
 C1265 C 0.82234 0.38725 0.82216
 N1266 N 0.82814 0.39329 0.80928
 C1267 C 0.80107 0.42327 0.80094
 C1268 C 0.79471 0.43352 0.79459
 C1269 C 0.78705 0.44561 0.78694
 N1270 N 0.77396 0.45130 0.79255
 N1271 N 0.76669 0.46233 0.78528
 C1272 C 0.77226 0.46801 0.77217
 N1273 N 0.78539 0.46230 0.76659
 N1274 N 0.79266 0.45127 0.77386
 N1275 N 0.80280 -0.09497 0.32151
 C1276 C 0.80861 -0.08903 0.30865
 N1277 N 0.82144 -0.09504 0.30278
 N1278 N 0.82824 -0.10666 0.30955
 C1279 C 0.82244 -0.11269 0.32244
 N1280 N 0.80959 -0.10659 0.32829
 C1281 C 0.80112 -0.07673 0.30117
 C1282 C 0.79476 -0.06649 0.29481
 C1283 C 0.78710 -0.05443 0.28712
 N1284 N 0.79271 -0.04880 0.27402
 N1285 N 0.78544 -0.03779 0.26672
 C1286 C 0.77232 -0.03205 0.27229
 N1287 N 0.76675 -0.03770 0.28542
 N1288 N 0.77402 -0.04870 0.29272
 N1289 N 0.32115 0.59441 0.69735
 C1290 C 0.30829 0.58846 0.69152
 N1291 N 0.30247 0.59440 0.67865
 N1292 N 0.30930 0.60596 0.67182
 C1293 C 0.32217 0.61197 0.67764
 N1294 N 0.32798 0.60596 0.69052
 C1295 C 0.30077 0.57622 0.69903
 C1296 C 0.29437 0.56603 0.70543
 C1297 C 0.28667 0.55402 0.71313
 N1298 N 0.27356 0.54838 0.70755
 N1299 N 0.26626 0.53742 0.71485
 C1300 C 0.27181 0.53175 0.72799
 N1301 N 0.28496 0.53741 0.73354
 N1302 N 0.29226 0.54837 0.72623
 N1303 N 0.30255 1.09495 0.17858
 C1304 C 0.30838 1.08899 0.19143
 N1305 N 0.32124 1.09494 0.19726
 N1306 N 0.32805 1.10653 0.19046
 C1307 C 0.32223 1.11259 0.17759
 N1308 N 0.30936 1.10653 0.17177
 C1309 C 0.30089 1.07672 0.19892
 C1310 C 0.29451 1.06652 0.20529
 C1311 C 0.28682 1.05448 0.21298
 N1312 N 0.29243 1.04880 0.22605
 N1313 N 0.28514 1.03783 0.23334
 C1314 C 0.27199 1.03217 0.22780
 N1315 N 0.26641 1.03787 0.21468
 N1316 N 0.27371 1.04885 0.20740
 N1317 N 0.80273 0.59435 0.17875
 C1318 C 0.80856 0.58841 0.19162
 N1319 N 0.82139 0.59440 0.19746
 N1320 N 0.82819 0.60598 0.19066
 C1321 C 0.82237 0.61199 0.17777
 N1322 N 0.80952 0.60593 0.17194
 C1323 C 0.80107 0.57614 0.19911
 C1324 C 0.79470 0.56592 0.20548
 C1325 C 0.78701 0.55389 0.21316
 N1326 N 0.79262 0.54820 0.22624
 N1327 N 0.78533 0.53721 0.23351
 C1328 C 0.77219 0.53156 0.22796
 N1329 N 0.76662 0.53726 0.21484
 N1330 N 0.77391 0.54825 0.20757
 N1331 N 0.82143 1.09468 0.69775
 C1332 C 0.80862 1.08869 0.69186
 N1333 N 0.80285 1.09460 0.67896
 N1334 N 0.80968 1.10616 0.67215
 C1335 C 0.82250 1.11222 0.67803
 N1336 N 0.82826 1.10625 0.69095
 C1337 C 0.80109 1.07643 0.69936
 C1338 C 0.79468 1.06624 0.70572
 C1339 C 0.78696 1.05422 0.71340
 N1340 N 0.77386 1.04859 0.70777
 N1341 N 0.76654 1.03762 0.71505
 C1342 C 0.77206 1.03194 0.72819
 N1343 N 0.78520 1.03759 0.73378
 N1344 N 0.79252 1.04855 0.72650
 N1345 N 0.69751 0.59441 0.32147
 C1346 C 0.69167 0.58846 0.30862
 N1347 N 0.67881 0.59443 0.30279
 N1348 N 0.67199 0.60602 0.30960
 C1349 C 0.67782 0.61205 0.32247
 N1350 N 0.69070 0.60600 0.32828
 C1351 C 0.69917 0.57617 0.30111
 C1352 C 0.70555 0.56595 0.29472
 C1353 C 0.71322 0.55391 0.28702
 N1354 N 0.70761 0.54827 0.27393
 N1355 N 0.71489 0.53728 0.26662
 C1356 C 0.72803 0.53157 0.27216
 N1357 N 0.73361 0.53722 0.28529
 N1358 N 0.72633 0.54821 0.29259
 N1359 N 0.69717 1.09506 0.82128
 C1360 C 0.69136 1.08911 0.80843
 N1361 N 0.67854 1.09511 0.80255
 N1362 N 0.67174 1.10674 0.80931
 C1363 C 0.67753 1.11280 0.82219
 N1364 N 0.69038 1.10669 0.82805
 C1365 C 0.69885 1.07679 0.80097
 C1366 C 0.70523 1.06654 0.79463
 C1367 C 0.71292 1.05446 0.78699
 N1368 N 0.70734 1.04879 0.77389
 N1369 N 0.71464 1.03777 0.76664
 C1370 C 0.72776 1.03207 0.77223
 N1371 N 0.73330 1.03775 0.78537
 N1372 N 0.72600 1.04877 0.79262
 N1373 N 0.19718 0.59497 0.82124
 C1374 C 0.19134 0.58902 0.80839
 N1375 N 0.17852 0.59504 0.80253
 N1376 N 0.17174 0.60668 0.80930
 C1377 C 0.17756 0.61272 0.82217
 N1378 N 0.19040 0.60660 0.82802
 C1379 C 0.19881 0.57670 0.80093
 C1380 C 0.20517 0.56644 0.79457
 C1381 C 0.21283 0.55435 0.78692
 N1382 N 0.20722 0.54868 0.77384
 N1383 N 0.21449 0.53765 0.76657
 C1384 C 0.22762 0.53194 0.77215
 N1385 N 0.23319 0.53763 0.78526
 N1386 N 0.22592 0.54866 0.79252
 N1387 N 0.17872 1.09525 0.30251
 C1388 C 0.19153 1.08923 0.30839
 N1389 N 0.19733 1.09515 0.32127
 N1390 N 0.19054 1.10676 0.32806
 C1391 C 0.17770 1.11289 0.32220
 N1392 N 0.17192 1.10686 0.30930
 C1393 C 0.19902 1.07693 0.30091
 C1394 C 0.20539 1.06669 0.29454
 C1395 C 0.21306 1.05463 0.28685
 N1396 N 0.22616 1.04893 0.29243
 N1397 N 0.23344 1.03793 0.28513
 C1398 C 0.22785 1.03226 0.27201
 N1399 N 0.21471 1.03797 0.26647
 N1400 N 0.20744 1.04897 0.27377
 N1401 N 0.69743 0.40548 0.67872
 C1402 C 0.69161 0.41143 0.69159
 N1403 N 0.67875 0.40548 0.69743
 N1404 N 0.67193 0.39391 0.69061
 C1405 C 0.67774 0.38790 0.67772
 N1406 N 0.69061 0.39392 0.67190
 C1407 C 0.69912 0.42368 0.69910
 C1408 C 0.70551 0.43388 0.70549
 C1409 C 0.71322 0.44589 0.71318
 N1410 N 0.70762 0.45156 0.72628
 N1411 N 0.71493 0.46252 0.73357
 C1412 C 0.72808 0.46817 0.72802
 N1413 N 0.73363 0.46249 0.71489
 N1414 N 0.72633 0.45153 0.70759
 N1415 N 0.69726 -0.09462 0.17896
 C1416 C 0.69149 -0.08870 0.19186
 N1417 N 0.67866 -0.09466 0.19774
 N1418 N 0.67182 -0.10622 0.19094
 C1419 C 0.67758 -0.11222 0.17802
 N1420 N 0.69042 -0.10618 0.17216
 C1421 C 0.69903 -0.07645 0.19936
 C1422 C 0.70544 -0.06626 0.20572
 C1423 C 0.71318 -0.05425 0.21339
 N1424 N 0.70761 -0.04853 0.22647
 N1425 N 0.71494 -0.03757 0.23374
 C1426 C 0.72810 -0.03196 0.22816
 N1427 N 0.73363 -0.03769 0.21504
 N1428 N 0.72630 -0.04865 0.20778
 N1429 N 0.17846 0.40546 0.19757
 C1430 C 0.19127 0.41147 0.19168
 N1431 N 0.19707 0.40554 0.17879
 N1432 N 0.19027 0.39395 0.17200
 C1433 C 0.17745 0.38787 0.17787
 N1434 N 0.17166 0.39387 0.19078
 C1435 C 0.19876 0.42375 0.19916
 C1436 C 0.20514 0.43397 0.20552
 C1437 C 0.21284 0.44602 0.21317
 N1438 N 0.22594 0.45164 0.20756
 N1439 N 0.23324 0.46263 0.21481
 C1440 C 0.22769 0.46836 0.22793
 N1441 N 0.21454 0.46272 0.23351
 N1442 N 0.20724 0.45173 0.22625
 N1443 N 0.19741 -0.09491 0.67874
 C1444 C 0.19159 -0.08897 0.69161
 N1445 N 0.17876 -0.09494 0.69746
 N1446 N 0.17196 -0.10654 0.69067
 C1447 C 0.17776 -0.11258 0.67778
 N1448 N 0.19062 -0.10650 0.67194
 C1449 C 0.19908 -0.07669 0.69909
 C1450 C 0.20545 -0.06647 0.70546
 C1451 C 0.21313 -0.05443 0.71314
 N1452 N 0.20754 -0.04876 0.72623
 N1453 N 0.21482 -0.03778 0.73352
 C1454 C 0.22795 -0.03210 0.72794
 N1455 N 0.23351 -0.03778 0.71481
 N1456 N 0.22622 -0.04877 0.70753
 N1457 N 0.30244 0.32124 0.40576
 C1458 C 0.30828 0.30837 0.41171
 N1459 N 0.32115 0.30253 0.40575
 N1460 N 0.32796 0.30933 0.39418
 C1461 C 0.32213 0.32222 0.38816
 N1462 N 0.30925 0.32805 0.39418
 C1463 C 0.30078 0.30087 0.42397
 C1464 C 0.29441 0.29449 0.43417
 C1465 C 0.28672 0.28680 0.44620
 N1466 N 0.29233 0.27369 0.45185
 N1467 N 0.28505 0.26639 0.46282
 C1468 C 0.27191 0.27196 0.46851
 N1469 N 0.26633 0.28510 0.46284
 N1470 N 0.27362 0.29240 0.45187
 N1471 N 0.30255 0.82126 -0.09481
 C1472 C 0.30840 0.80841 -0.08884
 N1473 N 0.32126 0.80255 -0.09481
 N1474 N 0.32805 0.80933 -0.10641
 C1475 C 0.32221 0.82220 -0.11245
 N1476 N 0.30934 0.82804 -0.10641
 C1477 C 0.30092 0.80093 -0.07655
 C1478 C 0.29455 0.79458 -0.06633
 C1479 C 0.28687 0.78692 -0.05428
 N1480 N 0.29248 0.77383 -0.04859
 N1481 N 0.28519 0.76656 -0.03760
 C1482 C 0.27204 0.77214 -0.03193
 N1483 N 0.26647 0.78527 -0.03764
 N1484 N 0.27376 0.79253 -0.04863
 N1485 N 0.82120 0.30257 -0.09475
 C1486 C 0.80834 0.30842 -0.08878
 N1487 N 0.80249 0.32127 -0.09474
 N1488 N 0.80927 0.32807 -0.10634
 C1489 C 0.82214 0.32223 -0.11238
 N1490 N 0.82799 0.30936 -0.10635
 C1491 C 0.80087 0.30093 -0.07650
 C1492 C 0.79451 0.29455 -0.06627
 C1493 C 0.78686 0.28686 -0.05423
 N1494 N 0.77377 0.29247 -0.04853
 N1495 N 0.76650 0.28517 -0.03754
 C1496 C 0.77209 0.27202 -0.03189
 N1497 N 0.78522 0.26645 -0.03761
 N1498 N 0.79248 0.27375 -0.04860
 N1499 N 0.80267 0.82140 0.40560
 C1500 C 0.80854 0.80855 0.41157
 N1501 N 0.82139 0.80270 0.40560
 N1502 N 0.82818 0.80949 0.39399
 C1503 C 0.82232 0.82235 0.38795
 N1504 N 0.80945 0.82819 0.39399
 C1505 C 0.80106 0.80107 0.42386
 C1506 C 0.79470 0.79471 0.43409
 C1507 C 0.78704 0.78704 0.44614
 N1508 N 0.79265 0.77394 0.45180
 N1509 N 0.78538 0.76666 0.46279
 C1510 C 0.77224 0.77223 0.46848
 N1511 N 0.76666 0.78537 0.46280
 N1512 N 0.77394 0.79265 0.45181
 N1513 N 0.67876 0.30252 0.59435
 C1514 C 0.69162 0.30835 0.58840
 N1515 N 0.69744 0.32121 0.59435
 N1516 N 0.69062 0.32802 0.60593
 C1517 C 0.67775 0.32220 0.61195
 N1518 N 0.67194 0.30933 0.60593
 C1519 C 0.69913 0.30085 0.57613
 C1520 C 0.70553 0.29447 0.56593
 C1521 C 0.71324 0.28678 0.55390
 N1522 N 0.72632 0.29239 0.54823
 N1523 N 0.73364 0.28510 0.53726
 C1524 C 0.72811 0.27195 0.53159
 N1525 N 0.71499 0.26637 0.53727
 N1526 N 0.70768 0.27367 0.54825
 N1527 N 0.67840 0.80251 1.09455
 C1528 C 0.69123 0.80836 1.08857
 N1529 N 0.69706 0.82122 1.09452
 N1530 N 0.69026 0.82802 1.10613
 C1531 C 0.67741 0.82218 1.11218
 N1532 N 0.67160 0.80930 1.10616
 C1533 C 0.69873 0.80088 1.07628
 C1534 C 0.70511 0.79452 1.06606
 C1535 C 0.71282 0.78685 1.05401
 N1536 N 0.72591 0.79246 1.04836
 N1537 N 0.73322 0.78519 1.03737
 C1538 C 0.72768 0.77206 1.03167
 N1539 N 0.71455 0.76648 1.03734
 N1540 N 0.70724 0.77376 1.04833
 N1541 N 0.17849 0.30247 1.09452
 C1542 C 0.19130 0.30835 1.08851
 N1543 N 0.19710 0.32123 1.09444
 N1544 N 0.19030 0.32803 1.10604
 C1545 C 0.17747 0.32216 1.11211
 N1546 N 0.17168 0.30927 1.10611
 C1547 C 0.19880 0.30086 1.07623
 C1548 C 0.20518 0.29449 1.06601
 C1549 C 0.21287 0.28680 1.05396
 N1550 N 0.22596 0.29239 1.04830
 N1551 N 0.23325 0.28510 1.03731
 C1552 C 0.22769 0.27198 1.03162
 N1553 N 0.21456 0.26642 1.03730
 N1554 N 0.20727 0.27371 1.04829
 N1555 N 0.17883 0.80293 0.59448
 C1556 C 0.19170 0.80874 0.58853
 N1557 N 0.19757 0.82156 0.59453
 N1558 N 0.19079 0.82836 0.60614
 C1559 C 0.17790 0.82256 0.61215
 N1560 N 0.17204 0.80973 0.60609
 C1561 C 0.19917 0.80126 0.57623
 C1562 C 0.20553 0.79488 0.56600
 C1563 C 0.21320 0.78719 0.55394
 N1564 N 0.22630 0.79276 0.54828
 N1565 N 0.23357 0.78547 0.53728
 C1566 C 0.22798 0.77236 0.53158
 N1567 N 0.21484 0.76682 0.53727
 N1568 N 0.20757 0.77412 0.54827
 N1569 N 0.32131 0.69733 0.59425
 C1570 C 0.30844 0.69152 0.58829
 N1571 N 0.30259 0.67867 0.59424
 N1572 N 0.30939 0.67184 0.60582
 C1573 C 0.32228 0.67764 0.61185
 N1574 N 0.32811 0.69050 0.60582
 C1575 C 0.30095 0.69904 0.57603
 C1576 C 0.29458 0.70544 0.56582
 C1577 C 0.28690 0.71316 0.55380
 N1578 N 0.27380 0.70760 0.54813
 N1579 N 0.26652 0.71492 0.53716
 C1580 C 0.27210 0.72805 0.53150
 N1581 N 0.28525 0.73357 0.53718
 N1582 N 0.29252 0.72625 0.54815
 N1583 N 0.30239 0.17851 1.09444
 C1584 C 0.30826 0.19133 1.08845
 N1585 N 0.32115 0.19712 1.09437
 N1586 N 0.32795 0.19031 1.10596
 C1587 C 0.32208 0.17748 1.11203
 N1588 N 0.30918 0.17170 1.10603
 C1589 C 0.30077 0.19883 1.07617
 C1590 C 0.29440 0.20521 1.06596
 C1591 C 0.28671 0.21291 1.05392
 N1592 N 0.29231 0.22600 1.04826
 N1593 N 0.28503 0.23330 1.03728
 C1594 C 0.27189 0.22775 1.03160
 N1595 N 0.26633 0.21461 1.03728
 N1596 N 0.27362 0.20732 1.04826
 N1597 N 0.82123 0.69738 1.09444
 C1598 C 0.80839 0.69152 1.08847
 N1599 N 0.80259 0.67865 1.09442
 N1600 N 0.80942 0.67185 1.10600
 C1601 C 0.82227 0.67769 1.11203
 N1602 N 0.82806 0.69058 1.10601
 C1603 C 0.80088 0.69901 1.07620
 C1604 C 0.79449 0.70539 1.06600
 C1605 C 0.78679 0.71307 1.05396
 N1606 N 0.77371 0.70747 1.04830
 N1607 N 0.76641 0.71476 1.03732
 C1608 C 0.77195 0.72790 1.03165
 N1609 N 0.78508 0.73347 1.03734
 N1610 N 0.79237 0.72618 1.04831
 N1611 N 0.80303 0.17873 0.59451
 C1612 C 0.80884 0.19160 0.58856
 N1613 N 0.82166 0.19747 0.59456
 N1614 N 0.82845 0.19069 0.60617
 C1615 C 0.82265 0.17781 0.61218
 N1616 N 0.80982 0.17194 0.60611
 C1617 C 0.80135 0.19907 0.57627
 C1618 C 0.79498 0.20542 0.56604
 C1619 C 0.78728 0.21307 0.55398
 N1620 N 0.79285 0.22617 0.54831
 N1621 N 0.78554 0.23343 0.53731
 C1622 C 0.77243 0.22784 0.53163
 N1623 N 0.76689 0.21470 0.53733
 N1624 N 0.77420 0.20744 0.54832
 N1625 N 0.67883 0.69756 0.40572
 C1626 C 0.69168 0.69170 0.41168
 N1627 N 0.69751 0.67882 0.40574
 N1628 N 0.69070 0.67201 0.39417
 C1629 C 0.67783 0.67786 0.38814
 N1630 N 0.67201 0.69075 0.39415
 C1631 C 0.69919 0.69920 0.42395
 C1632 C 0.70557 0.70557 0.43415
 C1633 C 0.71326 0.71326 0.44618
 N1634 N 0.72636 0.70765 0.45183
 N1635 N 0.73366 0.71493 0.46281
 C1636 C 0.72808 0.72807 0.46850
 N1637 N 0.71494 0.73364 0.46283
 N1638 N 0.70765 0.72636 0.45185
 N1639 N 0.67865 0.19748 -0.09473
 C1640 C 0.69151 0.19162 -0.08877
 N1641 N 0.69735 0.17876 -0.09473
 N1642 N 0.69056 0.17197 -0.10633
 C1643 C 0.67770 0.17782 -0.11236
 N1644 N 0.67186 0.19069 -0.10633
 C1645 C 0.69899 0.19910 -0.07648
 C1646 C 0.70537 0.20545 -0.06626
 C1647 C 0.71307 0.21311 -0.05422
 N1648 N 0.72618 0.20748 -0.04859
 N1649 N 0.73348 0.21474 -0.03761
 C1650 C 0.72792 0.22787 -0.03189
 N1651 N 0.71477 0.23346 -0.03753
 N1652 N 0.70747 0.22620 -0.04852
 N1653 N 0.17875 0.69741 -0.09472
 C1654 C 0.19161 0.69156 -0.08876
 N1655 N 0.19746 0.67870 -0.09473
 N1656 N 0.19067 0.67191 -0.10632
 C1657 C 0.17780 0.67774 -0.11235
 N1658 N 0.17196 0.69061 -0.10631
 C1659 C 0.19909 0.69905 -0.07648
 C1660 C 0.20545 0.70543 -0.06626
 C1661 C 0.21311 0.71312 -0.05423
 N1662 N 0.22621 0.70752 -0.04854
 N1663 N 0.23348 0.71482 -0.03756
 C1664 C 0.22790 0.72797 -0.03190
 N1665 N 0.21476 0.73353 -0.03760
 N1666 N 0.20749 0.72623 -0.04859
 N1667 N 0.17867 0.19740 0.40548
 C1668 C 0.19152 0.19154 0.41145
 N1669 N 0.19738 0.17869 0.40547
 N1670 N 0.19062 0.17192 0.39385
 C1671 C 0.17776 0.17777 0.38780
 N1672 N 0.17190 0.19063 0.39385
 C1673 C 0.19898 0.19900 0.42376
 C1674 C 0.20533 0.20535 0.43400
 C1675 C 0.21298 0.21301 0.44607
 N1676 N 0.22608 0.20739 0.45173
 N1677 N 0.23335 0.21466 0.46274
 C1678 C 0.22776 0.22779 0.46844
 N1679 N 0.21463 0.23337 0.46275
 N1680 N 0.20736 0.22610 0.45175
 N1681 N 0.30233 0.40546 0.67894
 C1682 C 0.30816 0.41142 0.69179
 N1683 N 0.32101 0.40545 0.69763
 N1684 N 0.32783 0.39385 0.69083
 C1685 C 0.32202 0.38782 0.67797
 N1686 N 0.30914 0.39386 0.67214
 C1687 C 0.30065 0.42371 0.69927
 C1688 C 0.29427 0.43395 0.70564
 C1689 C 0.28658 0.44601 0.71330
 N1690 N 0.29218 0.45168 0.72639
 N1691 N 0.28489 0.46269 0.73366
 C1692 C 0.27176 0.46839 0.72809
 N1693 N 0.26619 0.46270 0.71497
 N1694 N 0.27348 0.45169 0.70770
 N1695 N 0.30245 0.90596 0.17845
 C1696 C 0.30829 0.91192 0.19129
 N1697 N 0.32117 0.90596 0.19710
 N1698 N 0.32799 0.89438 0.19028
 C1699 C 0.32216 0.88835 0.17742
 N1700 N 0.30926 0.89438 0.17163
 C1701 C 0.30079 0.92420 0.19881
 C1702 C 0.29442 0.93442 0.20520
 C1703 C 0.28674 0.94646 0.21291
 N1704 N 0.29236 0.95211 0.22599
 N1705 N 0.28508 0.96310 0.23330
 C1706 C 0.27194 0.96881 0.22776
 N1707 N 0.26635 0.96315 0.21464
 N1708 N 0.27363 0.95215 0.20734
 N1709 N 0.82147 0.40540 0.19719
 C1710 C 0.80860 0.41136 0.19137
 N1711 N 0.80277 0.40541 0.17852
 N1712 N 0.80959 0.39383 0.17170
 C1713 C 0.82248 0.38780 0.17751
 N1714 N 0.82830 0.39382 0.19038
 C1715 C 0.80108 0.42363 0.19889
 C1716 C 0.79470 0.43384 0.20528
 C1717 C 0.78700 0.44587 0.21299
 N1718 N 0.77390 0.45156 0.20742
 N1719 N 0.76661 0.46254 0.21472
 C1720 C 0.77218 0.46820 0.22786
 N1721 N 0.78532 0.46249 0.23340
 N1722 N 0.79261 0.45151 0.22609
 N1723 N 0.80265 0.90575 0.67898
 C1724 C 0.80847 0.91170 0.69184
 N1725 N 0.82133 0.90572 0.69767
 N1726 N 0.82816 0.89414 0.69086
 C1727 C 0.82235 0.88813 0.67799
 N1728 N 0.80948 0.89417 0.67216
 C1729 C 0.80096 0.92397 0.69934
 C1730 C 0.79456 0.93419 0.70572
 C1731 C 0.78686 0.94623 0.71340
 N1732 N 0.79243 0.95188 0.72650
 N1733 N 0.78513 0.96288 0.73378
 C1734 C 0.77200 0.96858 0.72820
 N1735 N 0.76646 0.96292 0.71506
 N1736 N 0.77377 0.95192 0.70778
 N1737 N 0.69763 0.59444 0.67889
 C1738 C 0.69179 0.58848 0.69174
 N1739 N 0.67892 0.59445 0.69756
 N1740 N 0.67211 0.60604 0.69076
 C1741 C 0.67794 0.61207 0.67790
 N1742 N 0.69082 0.60603 0.67209
 C1743 C 0.69929 0.57619 0.69923
 C1744 C 0.70567 0.56596 0.70560
 C1745 C 0.71335 0.55390 0.71328
 N1746 N 0.70774 0.54825 0.72636
 N1747 N 0.71502 0.53724 0.73364
 C1748 C 0.72815 0.53153 0.72808
 N1749 N 0.73373 0.53721 0.71495
 N1750 N 0.72644 0.54821 0.70768
 N1751 N 0.67902 0.09416 0.19729
 C1752 C 0.69191 0.08821 0.19149
 N1753 N 0.69776 0.09415 0.17864
 N1754 N 0.69093 0.10572 0.17181
 C1755 C 0.67803 0.11174 0.17760
 N1756 N 0.67219 0.10573 0.19046
 C1757 C 0.69942 0.07595 0.19902
 C1758 C 0.70580 0.06574 0.20542
 C1759 C 0.71348 0.05371 0.21314
 N1760 N 0.72657 0.04799 0.20756
 N1761 N 0.73385 0.03701 0.21488
 C1762 C 0.72827 0.03138 0.22802
 N1763 N 0.71515 0.03712 0.23357
 N1764 N 0.70787 0.04811 0.22625
 N1765 N 0.19722 0.59456 0.17850
 C1766 C 0.19139 0.58862 0.19136
 N1767 N 0.17854 0.59461 0.19720
 N1768 N 0.17173 0.60620 0.19040
 C1769 C 0.17754 0.61221 0.17752
 N1770 N 0.19041 0.60615 0.17169
 C1771 C 0.19889 0.57633 0.19885
 C1772 C 0.20527 0.56611 0.20524
 C1773 C 0.21294 0.55407 0.21294
 N1774 N 0.20734 0.54844 0.22604
 N1775 N 0.21462 0.53745 0.23334
 C1776 C 0.22775 0.53173 0.22779
 N1777 N 0.23332 0.53737 0.21465
 N1778 N 0.22604 0.54836 0.20734
 N1779 N 0.19727 0.09412 0.67882
 C1780 C 0.19145 0.08817 0.69168
 N1781 N 0.17859 0.09415 0.69752
 N1782 N 0.17176 0.10573 0.69072
 C1783 C 0.17757 0.11175 0.67785
 N1784 N 0.19045 0.10571 0.67202
 C1785 C 0.19896 0.07589 0.69917
 C1786 C 0.20535 0.06567 0.70553
 C1787 C 0.21306 0.05362 0.71320
 N1788 N 0.20747 0.04796 0.72630
 N1789 N 0.21477 0.03696 0.73357
 C1790 C 0.22791 0.03127 0.72799
 N1791 N 0.23346 0.03696 0.71486
 N1792 N 0.22616 0.04795 0.70759
 N1793 N 0.32128 0.59454 0.30231
 C1794 C 0.30843 0.58859 0.30817
 N1795 N 0.30262 0.59454 0.32104
 N1796 N 0.30943 0.60612 0.32783
 C1797 C 0.32229 0.61215 0.32199
 N1798 N 0.32809 0.60612 0.30911
 C1799 C 0.30093 0.57631 0.30069
 C1800 C 0.29453 0.56610 0.29433
 C1801 C 0.28683 0.55406 0.28667
 N1802 N 0.27372 0.54845 0.29229
 N1803 N 0.26641 0.53746 0.28503
 C1804 C 0.27196 0.53173 0.27192
 N1805 N 0.28511 0.53736 0.26634
 N1806 N 0.29241 0.54835 0.27360
 N1807 N 0.32142 0.09397 0.80266
 C1808 C 0.30855 0.08803 0.80848
 N1809 N 0.30270 0.09400 0.82133
 N1810 N 0.30950 0.10557 0.82814
 C1811 C 0.32239 0.11158 0.82234
 N1812 N 0.32823 0.10554 0.80948
 C1813 C 0.30105 0.07576 0.80098
 C1814 C 0.29467 0.06555 0.79460
 C1815 C 0.28698 0.05352 0.78692
 N1816 N 0.27389 0.04787 0.79252
 N1817 N 0.26659 0.03689 0.78524
 C1818 C 0.27215 0.03121 0.77210
 N1819 N 0.28528 0.03689 0.76653
 N1820 N 0.29257 0.04786 0.77382
 N1821 N 0.82162 0.59413 0.80280
 C1822 C 0.80876 0.58819 0.80863
 N1823 N 0.80291 0.59416 0.82147
 N1824 N 0.80971 0.60574 0.82828
 C1825 C 0.82259 0.61175 0.82247
 N1826 N 0.82843 0.60571 0.80961
 C1827 C 0.80126 0.57592 0.80113
 C1828 C 0.79488 0.56572 0.79475
 C1829 C 0.78718 0.55369 0.78706
 N1830 N 0.77408 0.54805 0.79265
 N1831 N 0.76678 0.53708 0.78536
 C1832 C 0.77234 0.53139 0.77223
 N1833 N 0.78548 0.53705 0.76667
 N1834 N 0.79278 0.54802 0.77397
 N1835 N 0.80316 0.09408 0.32133
 C1836 C 0.80898 0.08812 0.30847
 N1837 N 0.82184 0.09407 0.30263
 N1838 N 0.82866 0.10565 0.30943
 C1839 C 0.82284 0.11168 0.32230
 N1840 N 0.80997 0.10566 0.32813
 C1841 C 0.80148 0.07586 0.30098
 C1842 C 0.79508 0.06565 0.29461
 C1843 C 0.78736 0.05362 0.28695
 N1844 N 0.79295 0.04792 0.27387
 N1845 N 0.78563 0.03694 0.26660
 C1846 C 0.77248 0.03132 0.27218
 N1847 N 0.76693 0.03704 0.28530
 N1848 N 0.77425 0.04802 0.29256
 N1849 N 0.69740 0.40542 0.32124
 C1850 C 0.69157 0.41137 0.30838
 N1851 N 0.67872 0.40542 0.30254
 N1852 N 0.67191 0.39385 0.30934
 C1853 C 0.67772 0.38782 0.32222
 N1854 N 0.69059 0.39384 0.32804
 C1855 C 0.69908 0.42364 0.30089
 C1856 C 0.70546 0.43385 0.29452
 C1857 C 0.71316 0.44588 0.28684
 N1858 N 0.70756 0.45157 0.27377
 N1859 N 0.71485 0.46256 0.26649
 C1860 C 0.72800 0.46821 0.27205
 N1861 N 0.73356 0.46249 0.28516
 N1862 N 0.72627 0.45151 0.29244
 N1863 N 0.69707 0.90594 0.82147
 C1864 C 0.69123 0.91191 0.80862
 N1865 N 0.67837 0.90597 0.80279
 N1866 N 0.67155 0.89440 0.80960
 C1867 C 0.67737 0.88836 0.82246
 N1868 N 0.69025 0.89437 0.82828
 C1869 C 0.69874 0.92417 0.80113
 C1870 C 0.70513 0.93437 0.79475
 C1871 C 0.71284 0.94639 0.78708
 N1872 N 0.70727 0.95206 0.77397
 N1873 N 0.71458 0.96303 0.76670
 C1874 C 0.72771 0.96869 0.77228
 N1875 N 0.73325 0.96301 0.78542
 N1876 N 0.72593 0.95204 0.79270
 N1877 N 0.19694 0.40580 0.82145
 C1878 C 0.19110 0.41177 0.80860
 N1879 N 0.17824 0.40582 0.80277
 N1880 N 0.17143 0.39424 0.80957
 C1881 C 0.17725 0.38820 0.82244
 N1882 N 0.19013 0.39422 0.82826
 C1883 C 0.19861 0.42403 0.80111
 C1884 C 0.20500 0.43424 0.79474
 C1885 C 0.21269 0.44626 0.78705
 N1886 N 0.20710 0.45193 0.77396
 N1887 N 0.21440 0.46289 0.76667
 C1888 C 0.22754 0.46856 0.77223
 N1889 N 0.23310 0.46287 0.78536
 N1890 N 0.22579 0.45191 0.79265
 N1891 N 0.17853 0.90617 0.30262
 C1892 C 0.19140 0.91211 0.30843
 N1893 N 0.19724 0.90616 0.32128
 N1894 N 0.19043 0.89459 0.32810
 C1895 C 0.17755 0.88858 0.32230
 N1896 N 0.17171 0.89461 0.30944
 C1897 C 0.19890 0.92437 0.30092
 C1898 C 0.20528 0.93457 0.29453
 C1899 C 0.21297 0.94659 0.28683
 N1900 N 0.22608 0.95223 0.29241
 N1901 N 0.23338 0.96320 0.28511
 C1902 C 0.22780 0.96889 0.27200
 N1903 N 0.21465 0.96324 0.26646
 N1904 N 0.20736 0.95227 0.27375
 N1905 N 0.40546 0.30232 0.67894
 C1906 C 0.41142 0.30815 0.69179
 N1907 N 0.40544 0.32101 0.69763
 N1908 N 0.39385 0.32783 0.69083
 C1909 C 0.38782 0.32201 0.67797
 N1910 N 0.39386 0.30913 0.67214
 C1911 C 0.42371 0.30065 0.69927
 C1912 C 0.43394 0.29427 0.70564
 C1913 C 0.44600 0.28658 0.71331
 N1914 N 0.45166 0.29218 0.72639
 N1915 N 0.46267 0.28490 0.73366
 C1916 C 0.46838 0.27177 0.72809
 N1917 N 0.46270 0.26620 0.71496
 N1918 N 0.45169 0.27349 0.70770
 N1919 N 0.40563 0.80290 0.17834
 C1920 C 0.41158 0.80874 0.19119
 N1921 N 0.40562 0.82160 0.19701
 N1922 N 0.39402 0.82842 0.19021
 C1923 C 0.38799 0.82259 0.17735
 N1924 N 0.39403 0.80971 0.17153
 C1925 C 0.42387 0.80123 0.19868
 C1926 C 0.43408 0.79485 0.20507
 C1927 C 0.44613 0.78717 0.21277
 N1928 N 0.45176 0.79278 0.22587
 N1929 N 0.46274 0.78550 0.23317
 C1930 C 0.46846 0.77236 0.22763
 N1931 N 0.46281 0.76678 0.21450
 N1932 N 0.45182 0.77407 0.20719
 N1933 N 0.90594 0.30234 0.17850
 C1934 C 0.91189 0.30818 0.19135
 N1935 N 0.90592 0.32105 0.19717
 N1936 N 0.89433 0.32786 0.19036
 C1937 C 0.88831 0.32203 0.17749
 N1938 N 0.89435 0.30915 0.17168
 C1939 C 0.92417 0.30069 0.19885
 C1940 C 0.93439 0.29432 0.20524
 C1941 C 0.94644 0.28665 0.21295
 N1942 N 0.95207 0.29227 0.22604
 N1943 N 0.96307 0.28500 0.23334
 C1944 C 0.96880 0.27187 0.22780
 N1945 N 0.96315 0.26628 0.21467
 N1946 N 0.95215 0.27355 0.20737
 N1947 N 0.90579 0.80263 0.67897
 C1948 C 0.91173 0.80846 0.69183
 N1949 N 0.90575 0.82132 0.69767
 N1950 N 0.89417 0.82814 0.69085
 C1951 C 0.88816 0.82233 0.67798
 N1952 N 0.89421 0.80946 0.67215
 C1953 C 0.92400 0.80094 0.69933
 C1954 C 0.93422 0.79455 0.70571
 C1955 C 0.94626 0.78685 0.71339
 N1956 N 0.95191 0.79243 0.72649
 N1957 N 0.96290 0.78513 0.73377
 C1958 C 0.96861 0.77201 0.72819
 N1959 N 0.96294 0.76646 0.71505
 N1960 N 0.95195 0.77376 0.70777
 N1961 N 0.59443 0.30239 0.32119
 C1962 C 0.58847 0.30822 0.30834
 N1963 N 0.59442 0.32108 0.30251
 N1964 N 0.60599 0.32790 0.30932
 C1965 C 0.61202 0.32208 0.32219
 N1966 N 0.60600 0.30920 0.32801
 C1967 C 0.57620 0.30072 0.30084
 C1968 C 0.56600 0.29434 0.29447
 C1969 C 0.55396 0.28665 0.28679
 N1970 N 0.54828 0.29225 0.27371
 N1971 N 0.53730 0.28497 0.26643
 C1972 C 0.53164 0.27182 0.27198
 N1973 N 0.53734 0.26625 0.28510
 N1974 N 0.54833 0.27354 0.29238
 N1975 N 0.59406 0.80296 0.82142
 C1976 C 0.58810 0.80880 0.80857
 N1977 N 0.59404 0.82167 0.80275
 N1978 N 0.60561 0.82848 0.80956
 C1979 C 0.61164 0.82265 0.82243
 N1980 N 0.60562 0.80977 0.82824
 C1981 C 0.57584 0.80129 0.80106
 C1982 C 0.56565 0.79490 0.79467
 C1983 C 0.55363 0.78720 0.78698
 N1984 N 0.54797 0.79278 0.77388
 N1985 N 0.53701 0.78547 0.76659
 C1986 C 0.53135 0.77233 0.77215
 N1987 N 0.53703 0.76678 0.78529
 N1988 N 0.54799 0.77410 0.79258
 N1989 N 0.09397 0.30277 0.82138
 C1990 C 0.08801 0.30861 0.80853
 N1991 N 0.09395 0.32148 0.80271
 N1992 N 0.10552 0.32829 0.80952
 C1993 C 0.11155 0.32246 0.82238
 N1994 N 0.10554 0.30958 0.82819
 C1995 C 0.07574 0.30111 0.80103
 C1996 C 0.06554 0.29473 0.79465
 C1997 C 0.05351 0.28703 0.78696
 N1998 N 0.04786 0.29261 0.77386
 N1999 N 0.03688 0.28531 0.76658
 C2000 C 0.03121 0.27219 0.77215
 N2001 N 0.03688 0.26664 0.78529
 N2002 N 0.04786 0.27394 0.79257
 N2003 N 0.09419 0.80322 0.32142
 C2004 C 0.08822 0.80905 0.30857
 N2005 N 0.09417 0.82190 0.30273
 N2006 N 0.10575 0.82872 0.30953
 C2007 C 0.11179 0.82290 0.32239
 N2008 N 0.10577 0.81003 0.32822
 C2009 C 0.07595 0.80154 0.30108
 C2010 C 0.06575 0.79516 0.29471
 C2011 C 0.05372 0.78746 0.28703
 N2012 N 0.04802 0.79306 0.27395
 N2013 N 0.03705 0.78576 0.26668
 C2014 C 0.03140 0.77261 0.27223
 N2015 N 0.03711 0.76704 0.28535
 N2016 N 0.04809 0.77435 0.29263
 N2017 N 0.59448 0.69755 0.67887
 C2018 C 0.58852 0.69171 0.69171
 N2019 N 0.59449 0.67885 0.69755
 N2020 N 0.60608 0.67204 0.69075
 C2021 C 0.61212 0.67786 0.67789
 N2022 N 0.60608 0.69073 0.67207
 C2023 C 0.57622 0.69921 0.69920
 C2024 C 0.56599 0.70559 0.70557
 C2025 C 0.55392 0.71328 0.71324
 N2026 N 0.54826 0.70769 0.72632
 N2027 N 0.53724 0.71497 0.73360
 C2028 C 0.53154 0.72810 0.72802
 N2029 N 0.53722 0.73366 0.71490
 N2030 N 0.54824 0.72637 0.70763
 N2031 N 0.59451 0.17842 0.19717
 C2032 C 0.58853 0.19128 0.19133
 N2033 N 0.59448 0.19711 0.17848
 N2034 N 0.60607 0.19030 0.17167
 C2035 C 0.61212 0.17742 0.17749
 N2036 N 0.60610 0.17161 0.19036
 C2037 C 0.57625 0.19878 0.19884
 C2038 C 0.56603 0.20516 0.20522
 C2039 C 0.55398 0.21284 0.21293
 N2040 N 0.54829 0.22594 0.20735
 N2041 N 0.53730 0.23323 0.21465
 C2042 C 0.53164 0.22766 0.22779
 N2043 N 0.53735 0.21452 0.23333
 N2044 N 0.54834 0.20723 0.22602
 N2045 N 0.09428 0.67915 0.19734
 C2046 C 0.08833 0.69203 0.19153
 N2047 N 0.09427 0.69786 0.17868
 N2048 N 0.10584 0.69103 0.17184
 C2049 C 0.11187 0.67813 0.17764
 N2050 N 0.10585 0.67231 0.19051
 C2051 C 0.07606 0.69955 0.19905
 C2052 C 0.06586 0.70593 0.20545
 C2053 C 0.05382 0.71362 0.21317
 N2054 N 0.04813 0.72672 0.20760
 N2055 N 0.03714 0.73400 0.21491
 C2056 C 0.03149 0.72843 0.22804
 N2057 N 0.03720 0.71529 0.23358
 N2058 N 0.04819 0.70801 0.22627
 N2059 N 0.09415 0.19727 0.67886
 C2060 C 0.08819 0.19145 0.69172
 N2061 N 0.09416 0.17859 0.69756
 N2062 N 0.10575 0.17176 0.69075
 C2063 C 0.11177 0.17757 0.67788
 N2064 N 0.10573 0.19044 0.67205
 C2065 C 0.07591 0.19896 0.69921
 C2066 C 0.06569 0.20536 0.70558
 C2067 C 0.05364 0.21307 0.71326
 N2068 N 0.04798 0.20749 0.72635
 N2069 N 0.03698 0.21479 0.73363
 C2070 C 0.03129 0.22793 0.72805
 N2071 N 0.03697 0.23347 0.71491
 N2072 N 0.04797 0.22616 0.70764
 N2073 N 0.40559 0.69758 0.32097
 C2074 C 0.41155 0.69176 0.30810
 N2075 N 0.40559 0.67891 0.30226
 N2076 N 0.39402 0.67209 0.30907
 C2077 C 0.38800 0.67790 0.32195
 N2078 N 0.39402 0.69077 0.32778
 C2079 C 0.42381 0.69927 0.30061
 C2080 C 0.43403 0.70565 0.29425
 C2081 C 0.44606 0.71335 0.28658
 N2082 N 0.45177 0.70775 0.27350
 N2083 N 0.46276 0.71504 0.26624
 C2084 C 0.46840 0.72819 0.27180
 N2085 N 0.46268 0.73375 0.28491
 N2086 N 0.45169 0.72646 0.29218
 N2087 N 0.40573 0.19696 0.82141
 C2088 C 0.41171 0.19112 0.80857
 N2089 N 0.40577 0.17826 0.80273
 N2090 N 0.39418 0.17145 0.80953
 C2091 C 0.38814 0.17728 0.82239
 N2092 N 0.39415 0.19015 0.82822
 C2093 C 0.42398 0.19862 0.80108
 C2094 C 0.43419 0.20501 0.79470
 C2095 C 0.44622 0.21270 0.78703
 N2096 N 0.45189 0.20711 0.77393
 N2097 N 0.46287 0.21442 0.76665
 C2098 C 0.46852 0.22755 0.77221
 N2099 N 0.46283 0.23311 0.78534
 N2100 N 0.45186 0.22581 0.79263
 N2101 N 0.90589 0.69717 0.82147
 C2102 C 0.91187 0.69132 0.80863
 N2103 N 0.90593 0.67845 0.80281
 N2104 N 0.89435 0.67164 0.80961
 C2105 C 0.88831 0.67748 0.82247
 N2106 N 0.89431 0.69036 0.82828
 C2107 C 0.92414 0.69882 0.80113
 C2108 C 0.93435 0.70520 0.79476
 C2109 C 0.94638 0.71290 0.78708
 N2110 N 0.95205 0.70732 0.77398
 N2111 N 0.96303 0.71462 0.76670
 C2112 C 0.96869 0.72775 0.77228
 N2113 N 0.96300 0.73329 0.78542
 N2114 N 0.95203 0.72599 0.79270
 N2115 N 0.90614 0.17841 0.30256
 C2116 C 0.91209 0.19127 0.30838
 N2117 N 0.90613 0.19711 0.32124
 N2118 N 0.89456 0.19029 0.32806
 C2119 C 0.88855 0.17742 0.32225
 N2120 N 0.89457 0.17159 0.30937
 C2121 C 0.92435 0.19878 0.30088
 C2122 C 0.93455 0.20516 0.29449
 C2123 C 0.94657 0.21286 0.28681
 N2124 N 0.95220 0.22598 0.29240
 N2125 N 0.96317 0.23328 0.28512
 C2126 C 0.96888 0.22771 0.27199
 N2127 N 0.96323 0.21456 0.26644
 N2128 N 0.95226 0.20726 0.27373
 N2129 N 0.30239 0.32109 0.59465
 C2130 C 0.30824 0.30823 0.58869
 N2131 N 0.32110 0.30238 0.59465
 N2132 N 0.32790 0.30918 0.60623
 C2133 C 0.32207 0.32206 0.61225
 N2134 N 0.30919 0.32790 0.60623
 C2135 C 0.30074 0.30074 0.57641
 C2136 C 0.29437 0.29437 0.56620
 C2137 C 0.28669 0.28669 0.55416
 N2138 N 0.29230 0.27360 0.54849
 N2139 N 0.28502 0.26632 0.53750
 C2140 C 0.27188 0.27189 0.53182
 N2141 N 0.26630 0.28503 0.53752
 N2142 N 0.27359 0.29230 0.54850
 N2143 N 0.30247 0.82157 0.09413
 C2144 C 0.30833 0.80871 0.08818
 N2145 N 0.32120 0.80288 0.09412
 N2146 N 0.32802 0.80970 0.10568
 C2147 C 0.32218 0.82258 0.11171
 N2148 N 0.30928 0.82839 0.10570
 C2149 C 0.30083 0.80120 0.07592
 C2150 C 0.29445 0.79481 0.06572
 C2151 C 0.28678 0.78711 0.05369
 N2152 N 0.29239 0.77400 0.04805
 N2153 N 0.28512 0.76669 0.03708
 C2154 C 0.27198 0.77225 0.03138
 N2155 N 0.26640 0.78540 0.03704
 N2156 N 0.27368 0.79270 0.04801
 N2157 N 0.80284 0.32107 0.09420
 C2158 C 0.80868 0.30821 0.08824
 N2159 N 0.82154 0.30236 0.09419
 N2160 N 0.82836 0.30916 0.10576
 C2161 C 0.82253 0.32205 0.11179
 N2162 N 0.80965 0.32788 0.10577
 C2163 C 0.80117 0.30071 0.07598
 C2164 C 0.79478 0.29435 0.06577
 C2165 C 0.78708 0.28668 0.05374
 N2166 N 0.79267 0.27359 0.04805
 N2167 N 0.78537 0.26632 0.03707
 C2168 C 0.77222 0.27191 0.03143
 N2169 N 0.76665 0.28504 0.03714
 N2170 N 0.77396 0.29230 0.04812
 N2171 N 0.80278 0.82144 0.59461
 C2172 C 0.80863 0.80858 0.58865
 N2173 N 0.82149 0.80274 0.59461
 N2174 N 0.82829 0.80954 0.60619
 C2175 C 0.82246 0.82241 0.61222
 N2176 N 0.80958 0.82825 0.60619
 C2177 C 0.80114 0.80109 0.57638
 C2178 C 0.79477 0.79472 0.56617
 C2179 C 0.78709 0.78704 0.55413
 N2180 N 0.79270 0.77394 0.54846
 N2181 N 0.78541 0.76665 0.53748
 C2182 C 0.77227 0.77223 0.53181
 N2183 N 0.76669 0.78536 0.53749
 N2184 N 0.77398 0.79265 0.54847
 N2185 N 0.30264 0.67885 0.40536
 C2186 C 0.30846 0.69171 0.41131
 N2187 N 0.32131 0.69755 0.40535
 N2188 N 0.32813 0.69074 0.39376
 C2189 C 0.32231 0.67787 0.38774
 N2190 N 0.30944 0.67204 0.39377
 C2191 C 0.30096 0.69921 0.42359
 C2192 C 0.29458 0.70559 0.43380
 C2193 C 0.28690 0.71329 0.44585
 N2194 N 0.29252 0.72637 0.45152
 N2195 N 0.28524 0.73366 0.46251
 C2196 C 0.27209 0.72813 0.46818
 N2197 N 0.26651 0.71501 0.46249
 N2198 N 0.27379 0.70771 0.45150
 N2199 N 0.30256 0.17840 0.90558
 C2200 C 0.30838 0.19127 0.91153
 N2201 N 0.32126 0.19708 0.90560
 N2202 N 0.32809 0.19025 0.89404
 C2203 C 0.32228 0.17737 0.88801
 N2204 N 0.30939 0.17157 0.89402
 C2205 C 0.30086 0.19879 0.92378
 C2206 C 0.29446 0.20518 0.93398
 C2207 C 0.28676 0.21289 0.94599
 N2208 N 0.29235 0.22599 0.95165
 N2209 N 0.28505 0.23330 0.96262
 C2210 C 0.27190 0.22775 0.96829
 N2211 N 0.26635 0.21461 0.96262
 N2212 N 0.27365 0.20731 0.95165
 N2213 N 0.82141 0.69731 0.90566
 C2214 C 0.80855 0.69149 0.91161
 N2215 N 0.80273 0.67862 0.90566
 N2216 N 0.80957 0.67178 0.89411
 C2217 C 0.82246 0.67759 0.88810
 N2218 N 0.82826 0.69048 0.89411
 C2219 C 0.80102 0.69901 0.92385
 C2220 C 0.79461 0.70541 0.93404
 C2221 C 0.78688 0.71311 0.94605
 N2222 N 0.77378 0.70751 0.95170
 N2223 N 0.76646 0.71480 0.96266
 C2224 C 0.77200 0.72794 0.96835
 N2225 N 0.78514 0.73350 0.96268
 N2226 N 0.79246 0.72621 0.95172
 N2227 N 0.80312 0.17846 0.40559
 C2228 C 0.80894 0.19133 0.41154
 N2229 N 0.82179 0.19716 0.40558
 N2230 N 0.82862 0.19033 0.39401
 C2231 C 0.82281 0.17745 0.38799
 N2232 N 0.80994 0.17163 0.39402
 C2233 C 0.80142 0.19884 0.42380
 C2234 C 0.79502 0.20523 0.43400
 C2235 C 0.78731 0.21292 0.44602
 N2236 N 0.79287 0.22604 0.45166
 N2237 N 0.78556 0.23333 0.46263
 C2238 C 0.77244 0.22776 0.46832
 N2239 N 0.76691 0.21460 0.46265
 N2240 N 0.77423 0.20731 0.45168
 N2241 N 0.69744 0.32109 0.40552
 C2242 C 0.69162 0.30823 0.41147
 N2243 N 0.67877 0.30239 0.40551
 N2244 N 0.67194 0.30920 0.39394
 C2245 C 0.67775 0.32208 0.38792
 N2246 N 0.69062 0.32791 0.39394
 C2247 C 0.69913 0.30073 0.42373
 C2248 C 0.70553 0.29436 0.43393
 C2249 C 0.71324 0.28668 0.44596
 N2250 N 0.70768 0.27358 0.45163
 N2251 N 0.71499 0.26630 0.46261
 C2252 C 0.72812 0.27189 0.46828
 N2253 N 0.73364 0.28503 0.46260
 N2254 N 0.72633 0.29230 0.45162
 N2255 N 0.67841 0.80284 0.90567
 C2256 C 0.69128 0.80865 0.91162
 N2257 N 0.69711 0.82151 0.90569
 N2258 N 0.69029 0.82835 0.89413
 C2259 C 0.67741 0.82255 0.88811
 N2260 N 0.67159 0.80967 0.89412
 C2261 C 0.69879 0.80112 0.92387
 C2262 C 0.70518 0.79472 0.93406
 C2263 C 0.71288 0.78700 0.94607
 N2264 N 0.72597 0.79259 0.95175
 N2265 N 0.73327 0.78529 0.96271
 C2266 C 0.72773 0.77214 0.96836
 N2267 N 0.71460 0.76658 0.96267
 N2268 N 0.70730 0.77389 0.95171
 N2269 N 0.17836 0.30267 0.90562
 C2270 C 0.19122 0.30849 0.91158
 N2271 N 0.19703 0.32136 0.90564
 N2272 N 0.19021 0.32819 0.89408
 C2273 C 0.17733 0.32238 0.88806
 N2274 N 0.17152 0.30950 0.89407
 C2275 C 0.19874 0.30097 0.92382
 C2276 C 0.20513 0.29457 0.93401
 C2277 C 0.21283 0.28686 0.94602
 N2278 N 0.22594 0.29244 0.95168
 N2279 N 0.23324 0.28513 0.96264
 C2280 C 0.22768 0.27200 0.96831
 N2281 N 0.21454 0.26645 0.96264
 N2282 N 0.20724 0.27376 0.95168
 N2283 N 0.19733 0.82181 0.40558
 C2284 C 0.19150 0.80896 0.41154
 N2285 N 0.17863 0.80315 0.40560
 N2286 N 0.17180 0.80997 0.39404
 C2287 C 0.17762 0.82284 0.38802
 N2288 N 0.19050 0.82864 0.39402
 C2289 C 0.19902 0.80144 0.42378
 C2290 C 0.20541 0.79504 0.43398
 C2291 C 0.21311 0.78732 0.44599
 N2292 N 0.20750 0.77422 0.45164
 N2293 N 0.21479 0.76690 0.46260
 C2294 C 0.22794 0.77243 0.46827
 N2295 N 0.23352 0.78556 0.46260
 N2296 N 0.22622 0.79288 0.45164
 N2297 N 0.67889 0.69751 0.59460
 C2298 C 0.69176 0.69167 0.58865
 N2299 N 0.69761 0.67881 0.59460
 N2300 N 0.69080 0.67200 0.60618
 C2301 C 0.67791 0.67783 0.61220
 N2302 N 0.67208 0.69071 0.60618
 C2303 C 0.69925 0.69917 0.57638
 C2304 C 0.70563 0.70555 0.56617
 C2305 C 0.71331 0.71323 0.55414
 N2306 N 0.72641 0.70763 0.54847
 N2307 N 0.73369 0.71492 0.53749
 C2308 C 0.72811 0.72806 0.53182
 N2309 N 0.71497 0.73363 0.53750
 N2310 N 0.70769 0.72634 0.54849
 N2311 N 0.67887 0.19711 0.09420
 C2312 C 0.69176 0.19129 0.08826
 N2313 N 0.69763 0.17844 0.09423
 N2314 N 0.69083 0.17163 0.10580
 C2315 C 0.67793 0.17743 0.11182
 N2316 N 0.67207 0.19030 0.10578
 C2317 C 0.69924 0.19879 0.07599
 C2318 C 0.70561 0.20518 0.06579
 C2319 C 0.71327 0.21289 0.05375
 N2320 N 0.72636 0.20729 0.04805
 N2321 N 0.73363 0.21459 0.03707
 C2322 C 0.72805 0.22775 0.03143
 N2323 N 0.71492 0.23331 0.03715
 N2324 N 0.70765 0.22600 0.04813
 N2325 N 0.19722 0.67891 0.09421
 C2326 C 0.19140 0.69179 0.08827
 N2327 N 0.17856 0.69766 0.09424
 N2328 N 0.17174 0.69087 0.10582
 C2329 C 0.17755 0.67797 0.11184
 N2330 N 0.19041 0.67212 0.10579
 C2331 C 0.19890 0.69927 0.07600
 C2332 C 0.20529 0.70564 0.06578
 C2333 C 0.21298 0.71330 0.05375
 N2334 N 0.20738 0.72639 0.04806
 N2335 N 0.21467 0.73366 0.03708
 C2336 C 0.22782 0.72808 0.03142
 N2337 N 0.23339 0.71495 0.03712
 N2338 N 0.22610 0.70768 0.04811
 N2339 N 0.19719 0.17846 0.59453
 C2340 C 0.19135 0.19133 0.58858
 N2341 N 0.17849 0.19717 0.59454
 N2342 N 0.17168 0.19037 0.60611
 C2343 C 0.17751 0.17749 0.61213
 N2344 N 0.19039 0.17165 0.60610
 C2345 C 0.19885 0.19882 0.57631
 C2346 C 0.20522 0.20520 0.56610
 C2347 C 0.21291 0.21289 0.55407
 N2348 N 0.20730 0.22600 0.54842
 N2349 N 0.21458 0.23329 0.53745
 C2350 C 0.22773 0.22773 0.53176
 N2351 N 0.23330 0.21458 0.53743
 N2352 N 0.22601 0.20729 0.54841
   
