data_POSCAR
  _audit_creation_date              2014-09-24
  _audit_creation_method            'ToBaCCo'
  _symmetry_space_group_name_H-M    'P1'
  _symmetry_Int_Tables_number       1
  _symmetry_cell_setting            triclinic
  loop_
  _symmetry_equiv_pos_as_xyz
 x,y,z
_cell_length_a 63.5148
_cell_length_b 63.5475
_cell_length_c 49.5725
_cell_angle_alpha 89.984100
_cell_angle_beta 90.003400
_cell_angle_gamma 91.258200
loop_
  _atom_site_label
  _atom_site_type_symbol
  _atom_site_fract_x
  _atom_site_fract_y
  _atom_site_fract_z
O1 O -0.02054 0.29218 0.02374
 O2 O 0.02121 0.29184 -0.02792
 O3 O -0.01989 0.29182 -0.02881
 O4 O 0.02058 0.29225 0.02449
 O5 O 0.01991 0.25754 0.02471
 O6 O -0.02082 0.25711 -0.02800
 O7 O 0.02020 0.25716 -0.02772
 O8 O -0.02103 0.25747 0.02436
 Cu9 Cu 0.00040 0.29551 -0.00217
 Cu10 Cu -0.00050 0.25385 -0.00164
 C11 C -0.02794 0.27486 0.03287
 C12 C 0.02795 0.27441 -0.03664
 C13 C -0.02739 0.27436 -0.03739
 C14 C 0.02726 0.27494 0.03361
 O15 O 0.52253 0.79265 0.47560
 O16 O 0.48165 0.79194 0.52845
 O17 O 0.52277 0.79236 0.52804
 O18 O 0.48140 0.79236 0.47588
 O19 O 0.48112 0.75766 0.47533
 O20 O 0.52207 0.75764 0.52783
 O21 O 0.48101 0.75723 0.52768
 O22 O 0.52205 0.75793 0.47539
 Cu23 Cu 0.50212 0.79582 0.50204
 Cu24 Cu 0.50152 0.75415 0.50155
 C25 C 0.52936 0.77537 0.46656
 C26 C 0.47422 0.77443 0.53695
 C27 C 0.52956 0.77498 0.53679
 C28 C 0.47416 0.77499 0.46670
 O29 O 1.02163 0.70905 0.02823
 O30 O 0.98015 0.70913 -0.02397
 O31 O 1.02114 0.70904 -0.02431
 O32 O 0.98029 0.70899 0.02856
 O33 O 0.98123 0.74371 0.02863
 O34 O 1.02208 0.74371 -0.02388
 O35 O 0.98096 0.74385 -0.02363
 O36 O 1.02200 0.74372 0.02856
 Cu37 Cu 1.00073 0.70556 0.00217
 Cu38 Cu 1.00167 0.74721 0.00238
 C39 C 1.02899 0.72643 0.03733
 C40 C 0.97339 0.72657 -0.03261
 C41 C 1.02871 0.72641 -0.03312
 C42 C 0.97367 0.72639 0.03750
 O43 O 0.47748 0.20962 0.47195
 O44 O 0.51850 0.20976 0.52457
 O45 O 0.47748 0.20940 0.52457
 O46 O 0.51866 0.21012 0.47203
 O47 O 0.51843 0.24483 0.47180
 O48 O 0.47816 0.24412 0.52501
 O49 O 0.51921 0.24447 0.52429
 O50 O 0.47744 0.24433 0.47297
 Cu51 Cu 0.49800 0.20623 0.49822
 Cu52 Cu 0.49841 0.24791 0.49854
 C53 C 0.47022 0.22698 0.46378
 C54 C 0.52597 0.22717 0.53332
 C55 C 0.47073 0.22669 0.53370
 C56 C 0.52556 0.22765 0.46291
 O57 O 0.70733 -0.02136 0.02525
 O58 O 0.70706 0.01992 -0.02716
 O59 O 0.70789 -0.02119 -0.02715
 O60 O 0.70635 0.01980 0.02539
 O61 O 0.74107 0.02109 0.02630
 O62 O 0.74261 -0.01934 -0.02677
 O63 O 0.74173 0.02165 -0.02593
 O64 O 0.74206 -0.01974 0.02572
 Cu65 Cu 0.70367 -0.00086 -0.00099
 Cu66 Cu 0.74533 0.00104 -0.00013
 C67 C 0.72481 -0.02768 0.03433
 C68 C 0.72439 0.02805 -0.03533
 C69 C 0.72553 -0.02734 -0.03589
 C70 C 0.72347 0.02751 0.03479
 O71 O 0.20899 0.47721 0.52707
 O72 O 0.20949 0.51851 0.47479
 O73 O 0.20960 0.47746 0.47451
 O74 O 0.20902 0.51838 0.52727
 O75 O 0.24376 0.51949 0.52719
 O76 O 0.24433 0.47785 0.47587
 O77 O 0.24422 0.51888 0.47503
 O78 O 0.24371 0.47854 0.52826
 Cu79 Cu 0.20578 0.49778 0.50087
 Cu80 Cu 0.24747 0.49873 0.50164
 C81 C 0.22629 0.47082 0.53663
 C82 C 0.22698 0.52582 0.46604
 C83 C 0.22711 0.47054 0.46634
 C84 C 0.22635 0.52616 0.53594
 O85 O 0.28950 1.02098 0.02715
 O86 O 0.29056 0.97947 -0.02482
 O87 O 0.29004 1.02059 -0.02532
 O88 O 0.29014 0.97993 0.02776
 O89 O 0.25541 0.97869 0.02708
 O90 O 0.25535 1.01915 -0.02598
 O91 O 0.25583 0.97822 -0.02507
 O92 O 0.25481 1.01972 0.02637
 Cu93 Cu 0.29355 1.00036 0.00124
 Cu94 Cu 0.25189 0.99885 0.00057
 C95 C 0.27192 1.02761 0.03554
 C96 C 0.27332 0.97161 -0.03364
 C97 C 0.27266 1.02695 -0.03469
 C98 C 0.27276 0.97224 0.03635
 O99 O 0.79136 0.52117 0.52577
 O100 O 0.79121 0.48051 0.47267
 O101 O 0.79147 0.52160 0.47330
 O102 O 0.79105 0.48004 0.52526
 O103 O 0.75631 0.47954 0.52494
 O104 O 0.75673 0.52088 0.47311
 O105 O 0.75647 0.47989 0.47281
 O106 O 0.75663 0.52056 0.52559
 Cu107 Cu 0.79476 0.50088 0.49927
 Cu108 Cu 0.75307 0.50021 0.49911
 C109 C 0.77400 0.52791 0.53466
 C110 C 0.77378 0.47313 0.46381
 C111 C 0.77413 0.52839 0.46437
 C112 C 0.77356 0.47256 0.53381
 C113 C 0.20567 0.22290 0.19306
 C114 C 0.22064 0.20770 0.19279
 C115 C 0.23755 0.21551 0.20771
 N116 N 0.23341 0.23497 0.21702
 C117 C 0.21390 0.23950 0.20816
 C118 C 0.25683 0.20514 0.21112
 C119 C 0.27265 0.21188 0.22947
 C120 C 0.29291 0.20420 0.23021
 C121 C 0.30294 0.21372 0.25170
 C122 C 0.28863 0.22717 0.26336
 N123 N 0.27014 0.22576 0.24984
 C124 C 0.29253 0.23935 0.28678
 C125 C 0.27964 0.25596 0.29533
 C126 C 0.28283 0.26763 0.31866
 C127 C 0.26802 0.28299 0.31869
 C128 C 0.25622 0.28024 0.29538
 N129 N 0.26350 0.26385 0.28101
 C130 C 0.24004 0.29370 0.28693
 C131 C 0.22741 0.29008 0.26382
 C132 C 0.21409 0.30470 0.25255
 C133 C 0.20393 0.29489 0.23137
 C134 C 0.21120 0.27449 0.23037
 N135 N 0.22537 0.27165 0.25034
 C136 C 0.20386 0.25887 0.21215
 H137 H 0.19048 0.22188 0.18319
 H138 H 0.21924 0.19264 0.18269
 H139 H 0.23146 0.25735 0.25626
 H140 H 0.29974 0.19275 0.21683
 H141 H 0.31894 0.21092 0.25802
 H142 H 0.29483 0.26562 0.33388
 H143 H 0.26643 0.29504 0.33393
 H144 H 0.19237 0.30194 0.21835
 H145 H 0.25599 0.23206 0.25599
 H146 H 0.21175 0.32075 0.25897
 C147 C 0.70704 0.72300 0.30510
 C148 C 0.72209 0.70785 0.30513
 C149 C 0.73890 0.71584 0.29020
 N150 N 0.73466 0.73535 0.28111
 C151 C 0.71516 0.73974 0.29015
 C152 C 0.75830 0.70573 0.28676
 C153 C 0.77411 0.71300 0.26879
 C154 C 0.79481 0.70650 0.26898
 C155 C 0.80480 0.71643 0.24773
 C156 C 0.78991 0.72866 0.23510
 N157 N 0.77122 0.72640 0.24799
 C158 C 0.79354 0.74067 0.21148
 C159 C 0.77955 0.75607 0.20225
 C160 C 0.78077 0.76588 0.17730
 C161 C 0.76563 0.78093 0.17714
 C162 C 0.75568 0.77983 0.20200
 N163 N 0.76421 0.76463 0.21732
 C164 C 0.74018 0.79382 0.21094
 C165 C 0.72814 0.79038 0.23458
 C166 C 0.71591 0.80537 0.24701
 C167 C 0.70599 0.79555 0.26839
 C168 C 0.71247 0.77485 0.26846
 N169 N 0.72587 0.77180 0.24770
 C170 C 0.70517 0.75919 0.28662
 H171 H 0.69192 0.72188 0.31512
 H172 H 0.72085 0.69275 0.31517
 H173 H 0.73133 0.75737 0.24116
 H174 H 0.80197 0.69569 0.28295
 H175 H 0.82116 0.71475 0.24218
 H176 H 0.79155 0.76265 0.16099
 H177 H 0.76246 0.79160 0.16068
 H178 H 0.69519 0.80283 0.28227
 H179 H 0.75683 0.73187 0.24127
 H180 H 0.71424 0.82167 0.24124
 C181 C 0.77457 0.20798 0.19280
 C182 C 0.79034 0.22306 0.19270
 C183 C 0.78300 0.23994 0.20740
 N184 N 0.76325 0.23572 0.21636
 C185 C 0.75809 0.21616 0.20753
 C186 C 0.79406 0.25929 0.21090
 C187 C 0.78759 0.27519 0.22886
 C188 C 0.79589 0.29556 0.22941
 C189 C 0.78636 0.30568 0.25050
 C190 C 0.77238 0.29128 0.26217
 N191 N 0.77341 0.27267 0.24901
 C192 C 0.76012 0.29516 0.28538
 C193 C 0.74332 0.28184 0.29400
 C194 C 0.73222 0.28426 0.31784
 C195 C 0.71636 0.26930 0.31771
 C196 C 0.71810 0.25834 0.29366
 N197 N 0.73456 0.26608 0.27918
 C198 C 0.70373 0.24253 0.28470
 C199 C 0.70718 0.22990 0.26168
 C200 C 0.69194 0.21720 0.24940
 C201 C 0.70170 0.20687 0.22865
 C202 C 0.72262 0.21358 0.22875
 N203 N 0.72586 0.22750 0.24906
 C204 C 0.73823 0.20608 0.21109
 H205 H 0.77513 0.19279 0.18300
 H206 H 0.80545 0.22177 0.18282
 H207 H 0.74040 0.23324 0.25569
 H208 H 0.80773 0.30238 0.21615
 H209 H 0.78954 0.32178 0.25663
 H210 H 0.73505 0.29577 0.33359
 H211 H 0.70471 0.26696 0.33342
 H212 H 0.69423 0.19568 0.21504
 H213 H 0.76660 0.25849 0.25526
 H214 H 0.67549 0.21550 0.25485
 C215 C 0.21907 0.76606 0.18093
 C216 C 0.23474 0.78123 0.18057
 C217 C 0.24574 0.77930 0.20457
 N218 N 0.23711 0.76364 0.21970
 C219 C 0.22081 0.75550 0.20529
 C220 C 0.26226 0.79300 0.21307
 C221 C 0.27466 0.78942 0.23625
 C222 C 0.28842 0.80410 0.24777
 C223 C 0.29822 0.79420 0.26885
 C224 C 0.29028 0.77370 0.26953
 N225 N 0.27607 0.77088 0.24947
 C226 C 0.29703 0.75797 0.28754
 C227 C 0.28618 0.73854 0.29122
 C228 C 0.29378 0.72175 0.30587
 C229 C 0.27808 0.70661 0.30618
 C230 C 0.26137 0.71466 0.29177
 N231 N 0.26634 0.73420 0.28267
 C232 C 0.24143 0.70460 0.28893
 C233 C 0.22568 0.71180 0.27124
 C234 C 0.20473 0.70520 0.27184
 C235 C 0.19485 0.71516 0.25087
 C236 C 0.21004 0.72755 0.23799
 N237 N 0.22881 0.72530 0.25044
 C238 C 0.20646 0.73979 0.21466
 H239 H 0.20754 0.76334 0.16517
 H240 H 0.23750 0.79254 0.16458
 H241 H 0.24332 0.73089 0.24347
 H242 H 0.29130 0.82023 0.24154
 H243 H 0.30999 0.80126 0.28202
 H244 H 0.30902 0.72058 0.31547
 H245 H 0.27883 0.69147 0.31609
 H246 H 0.17834 0.71346 0.24572
 H247 H 0.26947 0.75657 0.24333
 H248 H 0.19732 0.69433 0.28593
 C249 C 0.77269 0.21116 0.81185
 C250 C 0.78788 0.22679 0.81181
 C251 C 0.78174 0.24157 0.79296
 N252 N 0.76326 0.23544 0.78160
 C253 C 0.75761 0.21690 0.79316
 C254 C 0.79362 0.25997 0.78629
 C255 C 0.78855 0.27418 0.76532
 C256 C 0.80176 0.29049 0.75661
 C257 C 0.79182 0.30007 0.73547
 C258 C 0.77266 0.28955 0.73185
 N259 N 0.77066 0.27402 0.75045
 C260 C 0.75793 0.29452 0.71143
 C261 C 0.73947 0.28247 0.70546
 C262 C 0.72501 0.28757 0.68567
 C263 C 0.70989 0.27188 0.68564
 C264 C 0.71544 0.25770 0.70554
 N265 N 0.73349 0.26426 0.71762
 C266 C 0.70327 0.23963 0.71273
 C267 C 0.70796 0.22593 0.73440
 C268 C 0.69420 0.21047 0.74416
 C269 C 0.70410 0.20096 0.76538
 C270 C 0.72377 0.21066 0.76798
 N271 N 0.72611 0.22566 0.74873
 C272 C 0.73879 0.20526 0.78785
 H273 H 0.77283 0.19714 0.82424
 H274 H 0.80200 0.22703 0.82405
 H275 H 0.73985 0.23401 0.74426
 H276 H 0.81718 0.29488 0.76433
 H277 H 0.79819 0.31315 0.72386
 H278 H 0.72521 0.30122 0.67262
 H279 H 0.69616 0.27124 0.67270
 H280 H 0.69741 0.18841 0.77766
 H281 H 0.75737 0.26473 0.75387
 H282 H 0.67850 0.20657 0.73702
 C283 C 0.27305 0.71127 0.68673
 C284 C 0.28823 0.72690 0.68651
 C285 C 0.28282 0.74116 0.70636
 N286 N 0.26480 0.73471 0.71861
 C287 C 0.25870 0.71648 0.70661
 C288 C 0.29509 0.75922 0.71337
 C289 C 0.29048 0.77305 0.73492
 C290 C 0.30425 0.78862 0.74438
 C291 C 0.29447 0.79821 0.76561
 C292 C 0.27486 0.78845 0.76853
 N293 N 0.27242 0.77335 0.74943
 C294 C 0.26000 0.79386 0.78857
 C295 C 0.24124 0.78223 0.79421
 C296 C 0.22638 0.78797 0.81317
 C297 C 0.21119 0.77235 0.81343
 C298 C 0.21713 0.75754 0.79452
 N299 N 0.23547 0.76367 0.78280
 C300 C 0.20520 0.73911 0.78814
 C301 C 0.21007 0.72488 0.76710
 C302 C 0.19682 0.70852 0.75866
 C303 C 0.20657 0.69894 0.73738
 C304 C 0.22568 0.70949 0.73342
 N305 N 0.22781 0.72506 0.75193
 C306 C 0.24025 0.70448 0.71282
 H307 H 0.27274 0.69758 0.67376
 H308 H 0.30190 0.72745 0.67346
 H309 H 0.24113 0.73437 0.75510
 H310 H 0.31989 0.79254 0.73704
 H311 H 0.30120 0.81085 0.77770
 H312 H 0.22639 0.80200 0.82556
 H313 H 0.19721 0.77213 0.82592
 H314 H 0.20013 0.68580 0.72593
 H315 H 0.25868 0.76492 0.74523
 H316 H 0.18151 0.70408 0.76666
 C317 C 0.20672 0.22137 0.80670
 C318 C 0.22152 0.20598 0.80663
 C319 C 0.23835 0.21366 0.79148
 N320 N 0.23436 0.23323 0.78240
 C321 C 0.21500 0.23794 0.79160
 C322 C 0.25745 0.20307 0.78762
 C323 C 0.27329 0.20993 0.76938
 C324 C 0.29351 0.20216 0.76852
 C325 C 0.30362 0.21194 0.74727
 C326 C 0.28935 0.22554 0.73580
 N327 N 0.27084 0.22404 0.74925
 C328 C 0.29324 0.23785 0.71247
 C329 C 0.28009 0.25421 0.70388
 C330 C 0.28244 0.26521 0.67987
 C331 C 0.26764 0.28059 0.68001
 C332 C 0.25687 0.27868 0.70423
 N333 N 0.26455 0.26258 0.71882
 C334 C 0.24123 0.29254 0.71322
 C335 C 0.22893 0.28890 0.73663
 C336 C 0.21661 0.30384 0.74902
 C337 C 0.20641 0.29393 0.77010
 C338 C 0.21281 0.27322 0.77008
 N339 N 0.22644 0.27024 0.74953
 C340 C 0.20522 0.25750 0.78800
 H341 H 0.19164 0.22049 0.81686
 H342 H 0.22008 0.19090 0.81670
 H343 H 0.23185 0.25583 0.74291
 H344 H 0.30025 0.19050 0.78168
 H345 H 0.31960 0.20915 0.74089
 H346 H 0.29377 0.26263 0.66398
 H347 H 0.26528 0.29202 0.66417
 H348 H 0.19548 0.30116 0.78385
 H349 H 0.25672 0.23047 0.74321
 H350 H 0.21508 0.32020 0.74343
 C351 C 0.77002 0.78214 0.82139
 C352 C 0.78478 0.76672 0.82158
 C353 C 0.78248 0.75577 0.79753
 N354 N 0.76702 0.76420 0.78252
 C355 C 0.75933 0.78030 0.79709
 C356 C 0.79562 0.73939 0.78898
 C357 C 0.79174 0.72709 0.76564
 C358 C 0.80601 0.71350 0.75418
 C359 C 0.79590 0.70372 0.73293
 C360 C 0.77568 0.71148 0.73207
 N361 N 0.77323 0.72559 0.75220
 C362 C 0.75983 0.70463 0.71384
 C363 C 0.74071 0.71521 0.71005
 C364 C 0.72383 0.70749 0.69504
 C365 C 0.70904 0.72289 0.69496
 C366 C 0.71739 0.73952 0.70990
 N367 N 0.73678 0.73482 0.71903
 C368 C 0.70766 0.75911 0.71338
 C369 C 0.71531 0.77486 0.73121
 C370 C 0.70900 0.79560 0.73108
 C371 C 0.71923 0.80553 0.75212
 C372 C 0.73147 0.79056 0.76461
 N373 N 0.72891 0.77188 0.75180
 C374 C 0.74374 0.79421 0.78805
 H375 H 0.76763 0.79354 0.83724
 H376 H 0.79605 0.76408 0.83753
 H377 H 0.73426 0.75746 0.75850
 H378 H 0.82200 0.71072 0.76056
 H379 H 0.80264 0.69207 0.71976
 H380 H 0.72234 0.69238 0.68507
 H381 H 0.69392 0.72198 0.68490
 H382 H 0.71775 0.82191 0.75763
 H383 H 0.75911 0.73202 0.75824
 H384 H 0.69811 0.80284 0.71727
 C385 C 0.26996 0.07819 0.09101
 C386 C 0.28935 0.06995 0.08311
 C387 C 0.29005 0.05306 0.06508
 C388 C 0.27133 0.04394 0.05463
 C389 C 0.25193 0.05192 0.06323
 C390 C 0.25128 0.06886 0.08110
 C391 C 0.26914 0.09686 0.10888
 C392 C 0.25531 0.11319 0.10301
 C393 C 0.25443 0.13084 0.11966
 C394 C 0.26729 0.13253 0.14265
 C395 C 0.28112 0.11620 0.14859
 C396 C 0.28212 0.09857 0.13178
 C397 C 0.26599 0.15123 0.16040
 C398 C 0.26531 0.14895 0.18860
 C399 C 0.26271 0.16652 0.20517
 C400 C 0.26089 0.18661 0.19379
 C401 C 0.26219 0.18899 0.16571
 C402 C 0.26465 0.17146 0.14915
 H403 H 0.30399 0.07695 0.09032
 H404 H 0.30531 0.04738 0.05907
 H405 H 0.23714 0.04532 0.05587
 H406 H 0.23611 0.07470 0.08718
 H407 H 0.24530 0.11240 0.08533
 H408 H 0.24346 0.14307 0.11475
 H409 H 0.29129 0.11717 0.16610
 H410 H 0.29283 0.08615 0.13685
 H411 H 0.26614 0.13353 0.19778
 H412 H 0.26170 0.16443 0.22682
 H413 H 0.26095 0.20443 0.15663
 H414 H 0.26544 0.17370 0.12752
 C415 C 0.77366 0.57778 0.59351
 C416 C 0.75473 0.56802 0.58502
 C417 C 0.75487 0.55167 0.56618
 C418 C 0.77396 0.54466 0.55544
 C419 C 0.79292 0.55419 0.56425
 C420 C 0.79277 0.57060 0.58304
 C421 C 0.77335 0.59578 0.61260
 C422 C 0.78642 0.61360 0.60832
 C423 C 0.78535 0.63102 0.62545
 C424 C 0.77126 0.63096 0.64730
 C425 C 0.75852 0.61296 0.65193
 C426 C 0.75952 0.59558 0.63474
 C427 C 0.76928 0.64988 0.66462
 C428 C 0.76695 0.64792 0.69274
 C429 C 0.76424 0.66574 0.70882
 C430 C 0.76372 0.68578 0.69703
 C431 C 0.76633 0.68785 0.66906
 C432 C 0.76911 0.67007 0.65300
 H433 H 0.73973 0.57337 0.59246
 H434 H 0.73998 0.54469 0.55980
 H435 H 0.80790 0.54913 0.55642
 H436 H 0.80762 0.57766 0.58943
 H437 H 0.79710 0.61431 0.59130
 H438 H 0.79552 0.64458 0.62153
 H439 H 0.74737 0.61252 0.66846
 H440 H 0.74942 0.58198 0.63872
 H441 H 0.76725 0.63260 0.70229
 H442 H 0.76227 0.66391 0.73040
 H443 H 0.76594 0.70323 0.65968
 H444 H 0.77059 0.67207 0.63138
 C445 C 0.72687 0.92156 0.09177
 C446 C 0.74497 0.93393 0.08614
 C447 C 0.74418 0.95055 0.06779
 C448 C 0.72523 0.95536 0.05478
 C449 C 0.70698 0.94340 0.06091
 C450 C 0.70780 0.92664 0.07916
 C451 C 0.72814 0.90314 0.11015
 C452 C 0.71167 0.89805 0.12815
 C453 C 0.71307 0.88068 0.14538
 C454 C 0.73101 0.86814 0.14506
 C455 C 0.74739 0.87315 0.12698
 C456 C 0.74594 0.89038 0.10968
 C457 C 0.73277 0.84978 0.16332
 C458 C 0.75186 0.84597 0.17661
 C459 C 0.75404 0.82807 0.19258
 C460 C 0.73723 0.81355 0.19543
 C461 C 0.71796 0.81754 0.18277
 C462 C 0.71572 0.83557 0.16690
 H463 H 0.75980 0.93076 0.09592
 H464 H 0.75848 0.95960 0.06371
 H465 H 0.69216 0.94669 0.05114
 H466 H 0.69363 0.91730 0.08283
 H467 H 0.69785 0.90769 0.12923
 H468 H 0.70029 0.87726 0.15927
 H469 H 0.76122 0.86351 0.12592
 H470 H 0.75869 0.89352 0.09564
 H471 H 0.76515 0.85683 0.17455
 H472 H 0.76896 0.82532 0.20242
 H473 H 0.70484 0.80648 0.18475
 H474 H 0.70089 0.83805 0.15675
 C475 C 0.22663 0.42085 0.59528
 C476 C 0.24509 0.43263 0.58968
 C477 C 0.24491 0.44898 0.57085
 C478 C 0.22622 0.45404 0.55736
 C479 C 0.20765 0.44253 0.56336
 C480 C 0.20788 0.42603 0.58202
 C481 C 0.22716 0.40281 0.61425
 C482 C 0.21723 0.38355 0.60755
 C483 C 0.21872 0.36618 0.62468
 C484 C 0.23005 0.36770 0.64901
 C485 C 0.23956 0.38715 0.65597
 C486 C 0.23820 0.40448 0.63873
 C487 C 0.23252 0.34891 0.66655
 C488 C 0.25176 0.34535 0.67969
 C489 C 0.25443 0.32727 0.69524
 C490 C 0.23802 0.31227 0.69776
 C491 C 0.21869 0.31588 0.68508
 C492 C 0.21594 0.33405 0.66968
 H493 H 0.25980 0.42884 0.59938
 H494 H 0.25947 0.45756 0.56670
 H495 H 0.19301 0.44604 0.55330
 H496 H 0.19339 0.41732 0.58614
 H497 H 0.20885 0.38174 0.58864
 H498 H 0.21150 0.35137 0.61844
 H499 H 0.24806 0.38901 0.67478
 H500 H 0.24576 0.41923 0.64456
 H501 H 0.26496 0.35627 0.67743
 H502 H 0.26944 0.32476 0.70497
 H503 H 0.20581 0.30451 0.68692
 H504 H 0.20082 0.33646 0.66022
 C505 C 0.92172 0.27448 0.09112
 C506 C 0.92944 0.29356 0.08023
 C507 C 0.94597 0.29375 0.06159
 C508 C 0.95508 0.27484 0.05335
 C509 C 0.94749 0.25578 0.06447
 C510 C 0.93103 0.25561 0.08315
 C511 C 0.90366 0.27410 0.11014
 C512 C 0.90349 0.26058 0.13259
 C513 C 0.88601 0.25940 0.14968
 C514 C 0.86828 0.27166 0.14465
 C515 C 0.86862 0.28547 0.12249
 C516 C 0.88613 0.28671 0.10546
 C517 C 0.84923 0.26945 0.16186
 C518 C 0.82908 0.26865 0.15010
 C519 C 0.81117 0.26562 0.16610
 C520 C 0.81307 0.26337 0.19412
 C521 C 0.83309 0.26451 0.20604
 C522 C 0.85104 0.26748 0.19003
 H523 H 0.92272 0.30837 0.08621
 H524 H 0.95148 0.30870 0.05345
 H525 H 0.95414 0.24093 0.05854
 H526 H 0.92526 0.24064 0.09091
 H527 H 0.91686 0.25084 0.13687
 H528 H 0.88614 0.24848 0.16644
 H529 H 0.85527 0.29527 0.11827
 H530 H 0.88573 0.29714 0.08820
 H531 H 0.82720 0.26984 0.12845
 H532 H 0.79580 0.26476 0.15663
 H533 H 0.83478 0.26283 0.22767
 H534 H 0.86633 0.26826 0.19968
 C535 C 0.42412 0.77305 0.59558
 C536 C 0.43061 0.75445 0.58302
 C537 C 0.44705 0.75490 0.56431
 C538 C 0.45733 0.77398 0.55754
 C539 C 0.45098 0.79258 0.57020
 C540 C 0.43460 0.79211 0.58906
 C541 C 0.40617 0.77254 0.61486
 C542 C 0.39138 0.78868 0.61494
 C543 C 0.37393 0.78763 0.63210
 C544 C 0.37077 0.77037 0.64950
 C545 C 0.38578 0.75444 0.64978
 C546 C 0.40329 0.75554 0.63274
 C547 C 0.35156 0.76858 0.66659
 C548 C 0.35250 0.75990 0.69269
 C549 C 0.33421 0.75716 0.70809
 C550 C 0.31472 0.76326 0.69780
 C551 C 0.31370 0.77225 0.67204
 C552 C 0.33194 0.77485 0.65654
 H553 H 0.42267 0.73955 0.58717
 H554 H 0.45147 0.74030 0.55481
 H555 H 0.45865 0.80752 0.56551
 H556 H 0.43020 0.80668 0.59864
 H557 H 0.39300 0.80190 0.60126
 H558 H 0.36284 0.80033 0.63164
 H559 H 0.38374 0.74080 0.66269
 H560 H 0.41453 0.74300 0.63350
 H561 H 0.36737 0.75519 0.70120
 H562 H 0.33519 0.75014 0.72795
 H563 H 0.29870 0.77683 0.66377
 H564 H 0.33056 0.78123 0.63638
 C565 C 0.07862 0.72774 0.09461
 C566 C 0.06871 0.74635 0.08680
 C567 C 0.05231 0.74586 0.06808
 C568 C 0.04504 0.72668 0.05688
 C569 C 0.05451 0.70795 0.06534
 C570 C 0.07118 0.70850 0.08382
 C571 C 0.09692 0.72862 0.11342
 C572 C 0.10010 0.71261 0.13254
 C573 C 0.11732 0.71369 0.15018
 C574 C 0.13152 0.73093 0.14928
 C575 C 0.12843 0.74684 0.13016
 C576 C 0.11145 0.74564 0.11233
 C577 C 0.14969 0.73243 0.16795
 C578 C 0.15436 0.75145 0.18133
 C579 C 0.17238 0.75354 0.19730
 C580 C 0.18625 0.73676 0.19985
 C581 C 0.18128 0.71751 0.18722
 C582 C 0.16306 0.71532 0.17150
 H583 H 0.07361 0.76140 0.09519
 H584 H 0.04533 0.76063 0.06245
 H585 H 0.04942 0.69285 0.05722
 H586 H 0.07857 0.69388 0.08913
 H587 H 0.08912 0.69941 0.13420
 H588 H 0.11934 0.70127 0.16485
 H589 H 0.13939 0.76010 0.12871
 H590 H 0.10989 0.75797 0.09744
 H591 H 0.14415 0.76478 0.17919
 H592 H 0.17585 0.76844 0.20712
 H593 H 0.19181 0.70440 0.18899
 H594 H 0.15983 0.70054 0.16129
 C595 C 0.57559 0.22762 0.59259
 C596 C 0.56958 0.24636 0.57992
 C597 C 0.55333 0.24623 0.56093
 C598 C 0.54279 0.22733 0.55399
 C599 C 0.54869 0.20859 0.56671
 C600 C 0.56487 0.20875 0.58586
 C601 C 0.59327 0.22777 0.61227
 C602 C 0.60771 0.21131 0.61270
 C603 C 0.62488 0.21195 0.63033
 C604 C 0.62812 0.22911 0.64785
 C605 C 0.61346 0.24537 0.64777
 C606 C 0.59622 0.24468 0.63026
 C607 C 0.64711 0.23050 0.66536
 C608 C 0.64601 0.23919 0.69143
 C609 C 0.66418 0.24173 0.70713
 C610 C 0.68369 0.23541 0.69714
 C611 C 0.68484 0.22631 0.67147
 C612 C 0.66673 0.22391 0.65568
 H613 H 0.57773 0.26112 0.58425
 H614 H 0.54924 0.26091 0.55138
 H615 H 0.54079 0.19379 0.56192
 H616 H 0.56888 0.19409 0.59552
 H617 H 0.60604 0.19815 0.59894
 H618 H 0.63570 0.19902 0.63012
 H619 H 0.61558 0.25894 0.66076
 H620 H 0.58524 0.25746 0.63076
 H621 H 0.63113 0.24415 0.69965
 H622 H 0.66311 0.24887 0.72690
 H623 H 0.69987 0.22158 0.66342
 H624 H 0.66823 0.21750 0.63556
 C625 C 0.72484 0.07877 0.90924
 C626 C 0.74373 0.07134 0.91993
 C627 C 0.74359 0.05432 0.93773
 C628 C 0.72449 0.04441 0.94556
 C629 C 0.70557 0.05168 0.93438
 C630 C 0.70578 0.06860 0.91630
 C631 C 0.72512 0.09744 0.89135
 C632 C 0.71352 0.09748 0.86722
 C633 C 0.71438 0.11501 0.85012
 C634 C 0.72659 0.13290 0.85708
 C635 C 0.73792 0.13293 0.88141
 C636 C 0.73726 0.11536 0.89830
 C637 C 0.72803 0.15137 0.83889
 C638 C 0.72678 0.17184 0.84940
 C639 C 0.72965 0.18933 0.83264
 C640 C 0.73408 0.18664 0.80515
 C641 C 0.73479 0.16625 0.79441
 C642 C 0.73170 0.14873 0.81114
 H643 H 0.75866 0.07874 0.91451
 H644 H 0.75852 0.04921 0.94568
 H645 H 0.69054 0.04447 0.93978
 H646 H 0.69099 0.07411 0.90839
 H647 H 0.70411 0.08381 0.86137
 H648 H 0.70542 0.11465 0.83152
 H649 H 0.74762 0.14643 0.88714
 H650 H 0.74619 0.11580 0.91691
 H651 H 0.72373 0.17430 0.87065
 H652 H 0.72891 0.20499 0.84117
 H653 H 0.73819 0.16395 0.77322
 H654 H 0.73289 0.13312 0.80259
 C655 C 0.22819 0.57717 0.40930
 C656 C 0.24701 0.56886 0.41914
 C657 C 0.24660 0.55191 0.43709
 C658 C 0.22734 0.54290 0.44569
 C659 C 0.20850 0.55091 0.43539
 C660 C 0.20893 0.56784 0.41733
 C661 C 0.22872 0.59593 0.39144
 C662 C 0.21531 0.59718 0.36895
 C663 C 0.21601 0.61491 0.35219
 C664 C 0.23000 0.63181 0.35773
 C665 C 0.24331 0.63056 0.38029
 C666 C 0.24268 0.61284 0.39692
 C667 C 0.23111 0.65060 0.33993
 C668 C 0.23333 0.67085 0.35111
 C669 C 0.23601 0.68844 0.33448
 C670 C 0.23658 0.68611 0.30636
 C671 C 0.23363 0.66603 0.29504
 C672 C 0.23089 0.64840 0.31169
 H673 H 0.26211 0.57551 0.41299
 H674 H 0.26141 0.54608 0.44454
 H675 H 0.19340 0.54432 0.44161
 H676 H 0.19416 0.57402 0.41025
 H677 H 0.20448 0.58433 0.36414
 H678 H 0.20549 0.61550 0.33503
 H679 H 0.25445 0.64320 0.38489
 H680 H 0.25302 0.61245 0.41428
 H681 H 0.23320 0.67307 0.37277
 H682 H 0.23811 0.70386 0.34353
 H683 H 0.23407 0.66398 0.27336
 H684 H 0.22936 0.63298 0.30251
 C685 C 0.27364 0.91994 0.91035
 C686 C 0.29240 0.93114 0.91622
 C687 C 0.29234 0.94811 0.93420
 C688 C 0.27348 0.95432 0.94639
 C689 C 0.25467 0.94339 0.93995
 C690 C 0.25477 0.92635 0.92222
 C691 C 0.27367 0.90130 0.89243
 C692 C 0.26251 0.88288 0.89987
 C693 C 0.26199 0.86539 0.88287
 C694 C 0.27251 0.86598 0.85796
 C695 C 0.28381 0.88434 0.85054
 C696 C 0.28451 0.90181 0.86772
 C697 C 0.27109 0.84760 0.83961
 C698 C 0.26666 0.85033 0.81206
 C699 C 0.26350 0.83285 0.79529
 C700 C 0.26487 0.81244 0.80579
 C701 C 0.27006 0.80968 0.83304
 C702 C 0.27305 0.82711 0.84984
 H703 H 0.30718 0.92643 0.90742
 H704 H 0.30708 0.95625 0.93874
 H705 H 0.23986 0.94777 0.94896
 H706 H 0.24005 0.91815 0.91775
 H707 H 0.25420 0.88201 0.91893
 H708 H 0.25297 0.85153 0.88897
 H709 H 0.29215 0.88513 0.83149
 H710 H 0.29315 0.91586 0.86147
 H711 H 0.26490 0.86594 0.80372
 H712 H 0.25951 0.83520 0.77427
 H713 H 0.27130 0.79399 0.84137
 H714 H 0.27671 0.82458 0.87092
 C715 C 0.77302 0.42326 0.40487
 C716 C 0.79179 0.43456 0.41059
 C717 C 0.79207 0.45083 0.42961
 C718 C 0.77354 0.45629 0.44316
 C719 C 0.75474 0.44519 0.43723
 C720 C 0.75450 0.42882 0.41844
 C721 C 0.77270 0.40551 0.38525
 C722 C 0.75510 0.40183 0.36856
 C723 C 0.75423 0.38450 0.35123
 C724 C 0.77104 0.37050 0.34988
 C725 C 0.78888 0.37448 0.36606
 C726 C 0.78967 0.39172 0.38360
 C727 C 0.76957 0.35147 0.33238
 C728 C 0.77783 0.33223 0.34106
 C729 C 0.77533 0.31407 0.32537
 C730 C 0.76436 0.31476 0.30088
 C731 C 0.75643 0.33391 0.29184
 C732 C 0.75913 0.35214 0.30734
 H733 H 0.80627 0.43093 0.40024
 H734 H 0.80679 0.45916 0.43365
 H735 H 0.74023 0.44888 0.44749
 H736 H 0.73985 0.42022 0.41500
 H737 H 0.74189 0.41230 0.36894
 H738 H 0.74012 0.38183 0.33937
 H739 H 0.80225 0.36422 0.36527
 H740 H 0.80339 0.39393 0.39632
 H741 H 0.78565 0.33101 0.36038
 H742 H 0.78141 0.29933 0.33266
 H743 H 0.74793 0.33466 0.27293
 H744 H 0.75292 0.36673 0.29976
 C745 C 0.07778 0.27353 0.90654
 C746 C 0.06818 0.25468 0.91549
 C747 C 0.05163 0.25497 0.93404
 C748 C 0.04417 0.27418 0.94405
 C749 C 0.05362 0.29308 0.93466
 C750 C 0.07027 0.29273 0.91622
 C751 C 0.09592 0.27306 0.88771
 C752 C 0.11375 0.28610 0.89206
 C753 C 0.13132 0.28483 0.87520
 C754 C 0.13137 0.27058 0.85353
 C755 C 0.11336 0.25787 0.84882
 C756 C 0.09585 0.25905 0.86578
 C757 C 0.15040 0.26838 0.83648
 C758 C 0.14861 0.26611 0.80835
 C759 C 0.16649 0.26301 0.79252
 C760 C 0.18641 0.26200 0.80458
 C761 C 0.18832 0.26461 0.83257
 C762 C 0.17048 0.26781 0.84839
 H763 H 0.07380 0.23964 0.90862
 H764 H 0.04485 0.24006 0.94068
 H765 H 0.04834 0.30820 0.94174
 H766 H 0.07724 0.30751 0.90944
 H767 H 0.11432 0.29692 0.90894
 H768 H 0.14491 0.29494 0.87916
 H769 H 0.11301 0.24661 0.83242
 H770 H 0.08225 0.24895 0.86179
 H771 H 0.13337 0.26671 0.79862
 H772 H 0.16480 0.26106 0.77092
 H773 H 0.20361 0.26384 0.84215
 H774 H 0.17232 0.26927 0.87003
 C775 C 0.57914 0.77532 0.40758
 C776 C 0.56905 0.75641 0.41549
 C777 C 0.55276 0.75648 0.43442
 C778 C 0.54613 0.77547 0.44581
 C779 C 0.55601 0.79443 0.43761
 C780 C 0.57239 0.79434 0.41875
 C781 C 0.59703 0.77502 0.38834
 C782 C 0.61524 0.78743 0.39303
 C783 C 0.63260 0.78618 0.37581
 C784 C 0.63207 0.77256 0.35347
 C785 C 0.61366 0.76054 0.34842
 C786 C 0.59634 0.76172 0.36569
 C787 C 0.65091 0.77025 0.33612
 C788 C 0.64889 0.76859 0.30793
 C789 C 0.66658 0.76537 0.29179
 C790 C 0.68654 0.76365 0.30357
 C791 C 0.68868 0.76565 0.33161
 C792 C 0.67104 0.76894 0.34775
 H793 H 0.57408 0.74148 0.40751
 H794 H 0.54550 0.74160 0.44030
 H795 H 0.55125 0.80933 0.44599
 H796 H 0.57974 0.80917 0.41283
 H797 H 0.61629 0.79769 0.41043
 H798 H 0.64650 0.79579 0.38006
 H799 H 0.61285 0.74977 0.33150
 H800 H 0.58244 0.75214 0.36142
 H801 H 0.63362 0.76977 0.29840
 H802 H 0.66470 0.76391 0.27015
 H803 H 0.70401 0.76436 0.34099
 H804 H 0.67306 0.76989 0.36941
 C805 C 0.92315 0.72744 0.90899
 C806 C 0.92939 0.74585 0.92286
 C807 C 0.94587 0.74557 0.94149
 C808 C 0.95638 0.72684 0.94699
 C809 C 0.95021 0.70840 0.93318
 C810 C 0.93384 0.70872 0.91430
 C811 C 0.90535 0.72780 0.88946
 C812 C 0.89100 0.71069 0.88751
 C813 C 0.87378 0.71146 0.86998
 C814 C 0.87036 0.72942 0.85412
 C815 C 0.88489 0.74639 0.85580
 C816 C 0.90220 0.74554 0.87311
 C817 C 0.85143 0.73080 0.83654
 C818 C 0.85249 0.74148 0.81167
 C819 C 0.83441 0.74398 0.79604
 C820 C 0.81500 0.73558 0.80476
 C821 C 0.81389 0.72441 0.82911
 C822 C 0.83191 0.72213 0.84494
 H823 H 0.92127 0.76045 0.91973
 H824 H 0.95012 0.76001 0.95196
 H825 H 0.95809 0.69374 0.93688
 H826 H 0.92968 0.69432 0.90371
 H827 H 0.89278 0.69685 0.89997
 H828 H 0.86310 0.69797 0.86893
 H829 H 0.88267 0.76060 0.84420
 H830 H 0.91311 0.75886 0.87372
 H831 H 0.86729 0.74801 0.80431
 H832 H 0.83548 0.75262 0.77723
 H833 H 0.79895 0.71796 0.83615
 H834 H 0.83039 0.71411 0.86413
 C835 C 0.41872 0.22705 0.40754
 C836 C 0.42370 0.24502 0.42291
 C837 C 0.44072 0.24509 0.44072
 C838 C 0.45292 0.22707 0.44384
 C839 C 0.44802 0.20911 0.42831
 C840 C 0.43117 0.20917 0.41012
 C841 C 0.40029 0.22695 0.38930
 C842 C 0.40212 0.22037 0.36237
 C843 C 0.38479 0.22111 0.34499
 C844 C 0.36528 0.22806 0.35444
 C845 C 0.36339 0.23425 0.38150
 C846 C 0.38077 0.23384 0.39871
 C847 C 0.34700 0.22948 0.33608
 C848 C 0.32712 0.22162 0.34412
 C849 C 0.30956 0.22422 0.32760
 C850 C 0.31155 0.23496 0.30300
 C851 C 0.33142 0.24254 0.29469
 C852 C 0.34907 0.23966 0.31102
 H853 H 0.41442 0.25905 0.42107
 H854 H 0.44406 0.25914 0.45246
 H855 H 0.45719 0.19502 0.43026
 H856 H 0.42755 0.19511 0.39853
 H857 H 0.41706 0.21508 0.35467
 H858 H 0.38657 0.21620 0.32422
 H859 H 0.34856 0.23983 0.38918
 H860 H 0.37897 0.23885 0.41945
 H861 H 0.32518 0.21362 0.36328
 H862 H 0.29429 0.21835 0.33428
 H863 H 0.33314 0.25099 0.27582
 H864 H 0.36420 0.24601 0.30454
 C865 C 0.72789 0.92247 0.90592
 C866 C 0.74610 0.93442 0.91222
 C867 C 0.74530 0.95085 0.93091
 C868 C 0.72622 0.95583 0.94350
 C869 C 0.70791 0.94414 0.93677
 C870 C 0.70876 0.92758 0.91828
 C871 C 0.72899 0.90436 0.88713
 C872 C 0.71894 0.88510 0.89355
 C873 C 0.72070 0.86774 0.87648
 C874 C 0.73243 0.86926 0.85245
 C875 C 0.74216 0.88869 0.84582
 C876 C 0.74054 0.90601 0.86303
 C877 C 0.73497 0.85051 0.83485
 C878 C 0.75430 0.84688 0.82197
 C879 C 0.75700 0.82883 0.80635
 C880 C 0.74052 0.81394 0.80352
 C881 C 0.72110 0.81763 0.81592
 C882 C 0.71832 0.83577 0.83136
 H883 H 0.76109 0.93070 0.90319
 H884 H 0.75968 0.95956 0.93563
 H885 H 0.69296 0.94758 0.94613
 H886 H 0.69444 0.91875 0.91360
 H887 H 0.71018 0.88330 0.91219
 H888 H 0.71332 0.85295 0.88249
 H889 H 0.75098 0.89055 0.82726
 H890 H 0.74822 0.92075 0.85743
 H891 H 0.76755 0.85771 0.82449
 H892 H 0.77208 0.82627 0.79684
 H893 H 0.70818 0.80635 0.81384
 H894 H 0.70312 0.83824 0.84058
 C895 C 0.22838 0.42078 0.40744
 C896 C 0.24665 0.42673 0.42181
 C897 C 0.24625 0.44304 0.44065
 C898 C 0.22752 0.45367 0.44581
 C899 C 0.20924 0.44779 0.43148
 C900 C 0.20968 0.43159 0.41242
 C901 C 0.22884 0.40311 0.38778
 C902 C 0.21165 0.38890 0.38545
 C903 C 0.21250 0.37175 0.36785
 C904 C 0.23062 0.36829 0.35230
 C905 C 0.24766 0.38270 0.35433
 C906 C 0.24674 0.39994 0.37172
 C907 C 0.23206 0.34939 0.33474
 C908 C 0.24284 0.35046 0.30994
 C909 C 0.24521 0.33241 0.29423
 C910 C 0.23662 0.31306 0.30284
 C911 C 0.22547 0.31195 0.32720
 C912 C 0.22328 0.32992 0.34308
 H913 H 0.26122 0.41849 0.41893
 H914 H 0.26057 0.44708 0.45151
 H915 H 0.19459 0.45578 0.43492
 H916 H 0.19540 0.42764 0.40143
 H917 H 0.19770 0.39071 0.39769
 H918 H 0.19896 0.36116 0.36651
 H919 H 0.26197 0.38042 0.34293
 H920 H 0.26013 0.41075 0.37265
 H921 H 0.24948 0.36523 0.30267
 H922 H 0.25386 0.33346 0.27542
 H923 H 0.21889 0.29704 0.33416
 H924 H 0.21522 0.32841 0.36224
 C925 C 0.27203 0.07599 0.90736
 C926 C 0.29119 0.06866 0.91745
 C927 C 0.29146 0.05226 0.93625
 C928 C 0.27252 0.04285 0.94557
 C929 C 0.25336 0.05006 0.93507
 C930 C 0.25314 0.06638 0.91621
 C931 C 0.27163 0.09399 0.88829
 C932 C 0.25758 0.09387 0.86638
 C933 C 0.25644 0.11129 0.84927
 C934 C 0.26926 0.12925 0.85376
 C935 C 0.28358 0.12923 0.87537
 C936 C 0.28479 0.11177 0.89241
 C937 C 0.26715 0.14821 0.83655
 C938 C 0.26706 0.16837 0.84825
 C939 C 0.26417 0.18618 0.83229
 C940 C 0.26135 0.18418 0.80435
 C941 C 0.26176 0.16417 0.79248
 C942 C 0.26459 0.14631 0.80846
 H943 H 0.30601 0.07561 0.91075
 H944 H 0.30655 0.04715 0.94368
 H945 H 0.23841 0.04329 0.94164
 H946 H 0.23811 0.07186 0.90904
 H947 H 0.24740 0.08031 0.86254
 H948 H 0.24512 0.11091 0.83293
 H949 H 0.29381 0.14276 0.87916
 H950 H 0.29564 0.11241 0.90926
 H951 H 0.26872 0.17031 0.86985
 H952 H 0.26387 0.20155 0.84172
 H953 H 0.25964 0.16240 0.77092
 H954 H 0.26481 0.13101 0.79885
 C955 C 0.77383 0.57877 0.40629
 C956 C 0.79291 0.57193 0.41725
 C957 C 0.79307 0.55536 0.43581
 C958 C 0.77414 0.54537 0.44391
 C959 C 0.75509 0.55209 0.43272
 C960 C 0.75495 0.56857 0.41409
 C961 C 0.77348 0.59685 0.38736
 C962 C 0.76015 0.59639 0.36472
 C963 C 0.75899 0.61385 0.34769
 C964 C 0.77106 0.63218 0.35298
 C965 C 0.78468 0.63250 0.37533
 C966 C 0.78591 0.61501 0.39230
 C967 C 0.76885 0.65114 0.33581
 C968 C 0.76760 0.67118 0.34764
 C969 C 0.76447 0.68894 0.33165
 C970 C 0.76256 0.68698 0.30358
 C971 C 0.76420 0.66709 0.29162
 C972 C 0.76727 0.64930 0.30760
 H973 H 0.80772 0.57936 0.41139
 H974 H 0.80801 0.55054 0.44403
 H975 H 0.74023 0.54474 0.43855
 H976 H 0.73999 0.57367 0.40626
 H977 H 0.75055 0.58254 0.36026
 H978 H 0.74822 0.61320 0.33076
 H979 H 0.79432 0.64634 0.37975
 H980 H 0.79619 0.61589 0.40971
 H981 H 0.76851 0.67306 0.36932
 H982 H 0.76324 0.70421 0.34116
 H983 H 0.76281 0.66535 0.26995
 H984 H 0.76841 0.63409 0.29793
 C985 C 0.07743 0.72675 0.90838
 C986 C 0.06796 0.70769 0.91693
 C987 C 0.05180 0.70755 0.93609
 C988 C 0.04458 0.72651 0.94710
 C989 C 0.05386 0.74560 0.93814
 C990 C 0.07011 0.74569 0.91915
 C991 C 0.09523 0.72691 0.88885
 C992 C 0.09729 0.74290 0.86936
 C993 C 0.11461 0.74369 0.85199
 C994 C 0.13025 0.72842 0.85352
 C995 C 0.12792 0.71212 0.87254
 C996 C 0.11067 0.71141 0.89005
 C997 C 0.14928 0.72996 0.83606
 C998 C 0.16919 0.72493 0.84640
 C999 C 0.18724 0.72737 0.83051
 C1000 C 0.18576 0.73496 0.80407
 C1001 C 0.16597 0.73977 0.79347
 C1002 C 0.14787 0.73718 0.80927
 H1003 H 0.07297 0.69283 0.90872
 H1004 H 0.04503 0.69251 0.94226
 H1005 H 0.04884 0.76056 0.94610
 H1006 H 0.07727 0.76064 0.91338
 H1007 H 0.08553 0.75491 0.86759
 H1008 H 0.11599 0.75661 0.83781
 H1009 H 0.13950 0.69992 0.87402
 H1010 H 0.10973 0.69898 0.90497
 H1011 H 0.17093 0.71971 0.86705
 H1012 H 0.20246 0.72381 0.83903
 H1013 H 0.16463 0.74574 0.77309
 H1014 H 0.13277 0.74090 0.80054
 C1015 C 0.57548 0.22997 0.40410
 C1016 C 0.57017 0.21099 0.41733
 C1017 C 0.55368 0.21010 0.43603
 C1018 C 0.54225 0.22819 0.44207
 C1019 C 0.54731 0.24704 0.42852
 C1020 C 0.56364 0.24790 0.40967
 C1021 C 0.59364 0.23129 0.38516
 C1022 C 0.60674 0.24942 0.38454
 C1023 C 0.62386 0.25078 0.36693
 C1024 C 0.62844 0.23399 0.34965
 C1025 C 0.61550 0.21578 0.35030
 C1026 C 0.59822 0.21448 0.36779
 C1027 C 0.64692 0.23549 0.33141
 C1028 C 0.66082 0.21867 0.32909
 C1029 C 0.67907 0.22077 0.31344
 C1030 C 0.68361 0.23965 0.29972
 C1031 C 0.66937 0.25617 0.30122
 C1032 C 0.65124 0.25415 0.31702
 H1033 H 0.57911 0.19695 0.41378
 H1034 H 0.55020 0.19535 0.44623
 H1035 H 0.53866 0.26121 0.43252
 H1036 H 0.56698 0.26265 0.39944
 H1037 H 0.60401 0.26246 0.39804
 H1038 H 0.63381 0.26484 0.36723
 H1039 H 0.61859 0.20268 0.33702
 H1040 H 0.58831 0.20041 0.36748
 H1041 H 0.65794 0.20418 0.34011
 H1042 H 0.68992 0.20787 0.31250
 H1043 H 0.67255 0.27079 0.29058
 H1044 H 0.64064 0.26724 0.31814
 C1045 C 0.92287 0.27345 0.90351
 C1046 C 0.93316 0.29249 0.91055
 C1047 C 0.94946 0.29280 0.92953
 C1048 C 0.95587 0.27406 0.94182
 C1049 C 0.94580 0.25500 0.93449
 C1050 C 0.92946 0.25471 0.91564
 C1051 C 0.90494 0.27312 0.88421
 C1052 C 0.90227 0.25647 0.86577
 C1053 C 0.88475 0.25548 0.84875
 C1054 C 0.86950 0.27118 0.84966
 C1055 C 0.87245 0.28811 0.86761
 C1056 C 0.88994 0.28905 0.88472
 C1057 C 0.85023 0.26943 0.83270
 C1058 C 0.83055 0.27498 0.84326
 C1059 C 0.81225 0.27236 0.82788
 C1060 C 0.81329 0.26408 0.80174
 C1061 C 0.83285 0.25873 0.79094
 C1062 C 0.85119 0.26147 0.80624
 H1063 H 0.92867 0.30716 0.90131
 H1064 H 0.95697 0.30773 0.93465
 H1065 H 0.95029 0.24030 0.94368
 H1066 H 0.92166 0.23982 0.91104
 H1067 H 0.91369 0.24410 0.86458
 H1068 H 0.88287 0.24210 0.83539
 H1069 H 0.86116 0.30061 0.86856
 H1070 H 0.89140 0.30199 0.89885
 H1071 H 0.82919 0.28080 0.86369
 H1072 H 0.79720 0.27636 0.83654
 H1073 H 0.83383 0.25226 0.77078
 H1074 H 0.86611 0.25730 0.79739
 C1075 C 0.42421 0.77435 0.40789
 C1076 C 0.43174 0.79347 0.41886
 C1077 C 0.44816 0.79374 0.43768
 C1078 C 0.45732 0.77488 0.44602
 C1079 C 0.44992 0.75579 0.43482
 C1080 C 0.43359 0.75554 0.41595
 C1081 C 0.40625 0.77388 0.38871
 C1082 C 0.40627 0.76039 0.36624
 C1083 C 0.38887 0.75912 0.34901
 C1084 C 0.37103 0.77124 0.35394
 C1085 C 0.37118 0.78504 0.37609
 C1086 C 0.38862 0.78638 0.39326
 C1087 C 0.35204 0.76886 0.33665
 C1088 C 0.33187 0.76784 0.34836
 C1089 C 0.31402 0.76460 0.33232
 C1090 C 0.31598 0.76236 0.30431
 C1091 C 0.33600 0.76374 0.29244
 C1092 C 0.35390 0.76692 0.30848
 H1093 H 0.42497 0.80824 0.41282
 H1094 H 0.45352 0.80871 0.44589
 H1095 H 0.45662 0.74098 0.44082
 H1096 H 0.42795 0.74053 0.40813
 H1097 H 0.41972 0.75074 0.36206
 H1098 H 0.38915 0.74821 0.33225
 H1099 H 0.35775 0.79473 0.38023
 H1100 H 0.38806 0.79679 0.41052
 H1101 H 0.32994 0.76901 0.37000
 H1102 H 0.29865 0.76356 0.34177
 H1103 H 0.33775 0.76207 0.27081
 H1104 H 0.36921 0.76786 0.29888
 C1105 C 0.27253 0.92208 0.09487
 C1106 C 0.29111 0.93381 0.08953
 C1107 C 0.29119 0.95021 0.07069
 C1108 C 0.27266 0.95537 0.05695
 C1109 C 0.25403 0.94386 0.06255
 C1110 C 0.25399 0.92736 0.08116
 C1111 C 0.27247 0.90414 0.11419
 C1112 C 0.25486 0.89991 0.13066
 C1113 C 0.25429 0.88242 0.14774
 C1114 C 0.27141 0.86880 0.14905
 C1115 C 0.28924 0.87330 0.13307
 C1116 C 0.28973 0.89070 0.11578
 C1117 C 0.27031 0.84965 0.16636
 C1118 C 0.27905 0.83066 0.15756
 C1119 C 0.27697 0.81238 0.17312
 C1120 C 0.26596 0.81271 0.19760
 C1121 C 0.25753 0.83161 0.20673
 C1122 C 0.25981 0.84995 0.19136
 H1123 H 0.30560 0.93040 0.10001
 H1124 H 0.30578 0.95886 0.06691
 H1125 H 0.23952 0.94733 0.05214
 H1126 H 0.23949 0.91844 0.08433
 H1127 H 0.24142 0.91009 0.13031
 H1128 H 0.24017 0.87934 0.15945
 H1129 H 0.30283 0.86334 0.13383
 H1130 H 0.30348 0.89333 0.10321
 H1131 H 0.28693 0.82973 0.13826
 H1132 H 0.28344 0.79784 0.16577
 H1133 H 0.24901 0.83207 0.22564
 H1134 H 0.25324 0.86434 0.19903
 C1135 C 0.77243 0.42088 0.58990
 C1136 C 0.79133 0.43205 0.58475
 C1137 C 0.79173 0.44901 0.56673
 C1138 C 0.77318 0.45525 0.55379
 C1139 C 0.75421 0.44435 0.55950
 C1140 C 0.75386 0.42730 0.57725
 C1141 C 0.77203 0.40226 0.60789
 C1142 C 0.76117 0.38378 0.60003
 C1143 C 0.76038 0.36627 0.61702
 C1144 C 0.77030 0.36692 0.64234
 C1145 C 0.78125 0.38537 0.65021
 C1146 C 0.78224 0.40285 0.63304
 C1147 C 0.76870 0.34849 0.66060
 C1148 C 0.76351 0.35110 0.68795
 C1149 C 0.76039 0.33357 0.70463
 C1150 C 0.76258 0.31320 0.69426
 C1151 C 0.76847 0.31057 0.66723
 C1152 C 0.77139 0.32807 0.65049
 H1153 H 0.80588 0.42734 0.59414
 H1154 H 0.80658 0.45713 0.56277
 H1155 H 0.73964 0.44875 0.54988
 H1156 H 0.73904 0.41910 0.58113
 H1157 H 0.75334 0.38285 0.58064
 H1158 H 0.75166 0.35232 0.61058
 H1159 H 0.78912 0.38622 0.66957
 H1160 H 0.79063 0.41696 0.63960
 H1161 H 0.76119 0.36667 0.69618
 H1162 H 0.75586 0.33581 0.72548
 H1163 H 0.77033 0.29493 0.65900
 H1164 H 0.77562 0.32565 0.62957
 C1165 C 0.72248 0.07766 0.09320
 C1166 C 0.70363 0.06991 0.08168
 C1167 C 0.70388 0.05337 0.06307
 C1168 C 0.72299 0.04433 0.05545
 C1169 C 0.74179 0.05194 0.06724
 C1170 C 0.74153 0.06838 0.08593
 C1171 C 0.72245 0.09580 0.11209
 C1172 C 0.73546 0.09606 0.13502
 C1173 C 0.73639 0.11366 0.15191
 C1174 C 0.72440 0.13144 0.14618
 C1175 C 0.71104 0.13101 0.12358
 C1176 C 0.71003 0.11336 0.10675
 C1177 C 0.72655 0.15067 0.16307
 C1178 C 0.72801 0.17065 0.15090
 C1179 C 0.73137 0.18868 0.16657
 C1180 C 0.73330 0.18707 0.19467
 C1181 C 0.73133 0.16726 0.20699
 C1182 C 0.72804 0.14919 0.19132
 H1183 H 0.68869 0.07662 0.08711
 H1184 H 0.68912 0.04785 0.05438
 H1185 H 0.75679 0.04534 0.06181
 H1186 H 0.75633 0.07419 0.09418
 H1187 H 0.74504 0.08267 0.13981
 H1188 H 0.74698 0.11359 0.16904
 H1189 H 0.70146 0.14440 0.11880
 H1190 H 0.69998 0.11370 0.08911
 H1191 H 0.72718 0.17227 0.12919
 H1192 H 0.73287 0.20387 0.15678
 H1193 H 0.73275 0.16579 0.22868
 H1194 H 0.72675 0.13404 0.20126
 C1195 C 0.22644 0.57791 0.59185
 C1196 C 0.20772 0.56643 0.58663
 C1197 C 0.20766 0.54943 0.56869
 C1198 C 0.22637 0.54346 0.55591
 C1199 C 0.24515 0.55466 0.56171
 C1200 C 0.24516 0.57174 0.57938
 C1201 C 0.22649 0.59659 0.60971
 C1202 C 0.23708 0.61520 0.60176
 C1203 C 0.23765 0.63274 0.61868
 C1204 C 0.22779 0.63200 0.64402
 C1205 C 0.21707 0.61343 0.65196
 C1206 C 0.21629 0.59591 0.63486
 C1207 C 0.22928 0.65043 0.66226
 C1208 C 0.23464 0.64787 0.68956
 C1209 C 0.23780 0.66543 0.70618
 C1210 C 0.23546 0.68577 0.69578
 C1211 C 0.22937 0.68835 0.66882
 C1212 C 0.22641 0.67083 0.65215
 H1213 H 0.19306 0.57095 0.59591
 H1214 H 0.19295 0.54109 0.56465
 H1215 H 0.25983 0.55047 0.55222
 H1216 H 0.25984 0.58017 0.58332
 H1217 H 0.24490 0.61619 0.58236
 H1218 H 0.24620 0.64678 0.61217
 H1219 H 0.20925 0.61251 0.67135
 H1220 H 0.20810 0.58171 0.64149
 H1221 H 0.23711 0.63233 0.69779
 H1222 H 0.24250 0.66322 0.72697
 H1223 H 0.22740 0.70398 0.66058
 H1224 H 0.22205 0.67322 0.63127
 C1225 C 0.92274 0.72803 0.09472
 C1226 C 0.93501 0.74620 0.08917
 C1227 C 0.95173 0.74553 0.07096
 C1228 C 0.95675 0.72664 0.05801
 C1229 C 0.94494 0.70829 0.06414
 C1230 C 0.92807 0.70899 0.08225
 C1231 C 0.90412 0.72920 0.11279
 C1232 C 0.89895 0.71273 0.13075
 C1233 C 0.88136 0.71403 0.14765
 C1234 C 0.86868 0.73187 0.14702
 C1235 C 0.87378 0.74824 0.12898
 C1236 C 0.89122 0.74689 0.11202
 C1237 C 0.85010 0.73354 0.16493
 C1238 C 0.84601 0.75262 0.17806
 C1239 C 0.82790 0.75471 0.19367
 C1240 C 0.81345 0.73782 0.19632
 C1241 C 0.81771 0.71857 0.18381
 C1242 C 0.83594 0.71641 0.16830
 H1243 H 0.93165 0.76101 0.09888
 H1244 H 0.96066 0.75990 0.06688
 H1245 H 0.94839 0.69350 0.05441
 H1246 H 0.91883 0.69475 0.08587
 H1247 H 0.90867 0.69899 0.13206
 H1248 H 0.87787 0.70126 0.16152
 H1249 H 0.86405 0.76198 0.12767
 H1250 H 0.89442 0.75962 0.09798
 H1251 H 0.85680 0.76596 0.17615
 H1252 H 0.82494 0.76962 0.20339
 H1253 H 0.80670 0.70538 0.18564
 H1254 H 0.83864 0.70158 0.15826
 C1255 C 0.42086 0.22672 0.59262
 C1256 C 0.43157 0.20809 0.58687
 C1257 C 0.44783 0.20804 0.56783
 C1258 C 0.45387 0.22664 0.55430
 C1259 C 0.44333 0.24528 0.56023
 C1260 C 0.42696 0.24530 0.57902
 C1261 C 0.40314 0.22682 0.61228
 C1262 C 0.40002 0.24440 0.62891
 C1263 C 0.38271 0.24509 0.64623
 C1264 C 0.36817 0.22812 0.64766
 C1265 C 0.37160 0.21029 0.63156
 C1266 C 0.38881 0.20969 0.61401
 C1267 C 0.34919 0.22939 0.66517
 C1268 C 0.32968 0.22081 0.65659
 C1269 C 0.31162 0.22305 0.67233
 C1270 C 0.31266 0.23409 0.69677
 C1271 C 0.33206 0.24239 0.70567
 C1272 C 0.35019 0.23993 0.69013
 H1273 H 0.42750 0.19357 0.59723
 H1274 H 0.45574 0.19344 0.56377
 H1275 H 0.44747 0.25984 0.54998
 H1276 H 0.41881 0.25983 0.58246
 H1277 H 0.41092 0.25773 0.62848
 H1278 H 0.38048 0.25920 0.65802
 H1279 H 0.36091 0.19680 0.63241
 H1280 H 0.39059 0.19597 0.60133
 H1281 H 0.32821 0.21290 0.63732
 H1282 H 0.29669 0.21666 0.66515
 H1283 H 0.33308 0.25093 0.72455
 H1284 H 0.36498 0.24639 0.69764
 C1285 C 0.07690 0.27476 0.09276
 C1286 C 0.06710 0.25583 0.08439
 C1287 C 0.05084 0.25593 0.06545
 C1288 C 0.04394 0.27498 0.05447
 C1289 C 0.05351 0.29395 0.06315
 C1290 C 0.06985 0.29384 0.08206
 C1291 C 0.09485 0.27447 0.11192
 C1292 C 0.11279 0.28734 0.10754
 C1293 C 0.13023 0.28612 0.12461
 C1294 C 0.13007 0.27206 0.14650
 C1295 C 0.11192 0.25956 0.15128
 C1296 C 0.09452 0.26073 0.13415
 C1297 C 0.14905 0.26977 0.16361
 C1298 C 0.14721 0.26739 0.19174
 C1299 C 0.16507 0.26421 0.20760
 C1300 C 0.18501 0.26329 0.19558
 C1301 C 0.18696 0.26599 0.16762
 C1302 C 0.16915 0.26922 0.15177
 H1303 H 0.07238 0.24087 0.09200
 H1304 H 0.04382 0.24104 0.05917
 H1305 H 0.04853 0.30890 0.05513
 H1306 H 0.07696 0.30869 0.08835
 H1307 H 0.11358 0.29795 0.09045
 H1308 H 0.14391 0.29611 0.12060
 H1309 H 0.11140 0.24844 0.16783
 H1310 H 0.08082 0.25078 0.13820
 H1311 H 0.13197 0.26796 0.20144
 H1312 H 0.16334 0.26218 0.22918
 H1313 H 0.20227 0.26530 0.15808
 H1314 H 0.17104 0.27072 0.13014
 C1315 C 0.58012 0.77451 0.59469
 C1316 C 0.57312 0.79361 0.58401
 C1317 C 0.55648 0.79381 0.56554
 C1318 C 0.54656 0.77489 0.55725
 C1319 C 0.55341 0.75582 0.56820
 C1320 C 0.56998 0.75564 0.58674
 C1321 C 0.59832 0.77415 0.61348
 C1322 C 0.59807 0.76069 0.63599
 C1323 C 0.61560 0.75963 0.65293
 C1324 C 0.63380 0.77192 0.64767
 C1325 C 0.63392 0.78563 0.62542
 C1326 C 0.61635 0.78677 0.60855
 C1327 C 0.65285 0.76982 0.66474
 C1328 C 0.67289 0.76884 0.65282
 C1329 C 0.69074 0.76574 0.66868
 C1330 C 0.68886 0.76361 0.69674
 C1331 C 0.66899 0.76505 0.70882
 C1332 C 0.65110 0.76807 0.69295
 H1333 H 0.58049 0.80841 0.58998
 H1334 H 0.55155 0.80877 0.55752
 H1335 H 0.54613 0.74098 0.56223
 H1336 H 0.57519 0.74066 0.59438
 H1337 H 0.58431 0.75093 0.64044
 H1338 H 0.61511 0.74877 0.66977
 H1339 H 0.64766 0.79543 0.62101
 H1340 H 0.61708 0.79716 0.59124
 H1341 H 0.67471 0.76989 0.63113
 H1342 H 0.70599 0.76465 0.65908
 H1343 H 0.66732 0.76347 0.73047
 H1344 H 0.63590 0.76901 0.70271
   
