data_POSCAR
  _audit_creation_date              2014-09-24
  _audit_creation_method            'ToBaCCo'
  _symmetry_space_group_name_H-M    'P1'
  _symmetry_Int_Tables_number       1
  _symmetry_cell_setting            triclinic
  loop_
  _symmetry_equiv_pos_as_xyz
 x,y,z
_cell_length_a 45.5171
_cell_length_b 45.4322
_cell_length_c 47.3182
_cell_angle_alpha 89.451900
_cell_angle_beta 90.167500
_cell_angle_gamma 88.546800
loop_
  _atom_site_label
  _atom_site_type_symbol
  _atom_site_fract_x
  _atom_site_fract_y
  _atom_site_fract_z
C1 C 0.37892 -0.04101 0.25575
 C2 C 0.39198 -0.01429 0.24780
 C3 C 0.40332 -0.01077 0.22046
 C4 C 0.40109 -0.03340 0.20075
 C5 C 0.38704 -0.05923 0.20840
 C6 C 0.37585 -0.06361 0.23575
 C7 C 0.39222 0.01085 0.26733
 C8 C 0.40925 0.00918 0.29214
 C9 C 0.40875 0.03269 0.31139
 C10 C 0.39045 0.05739 0.30543
 C11 C 0.37380 0.05965 0.28053
 C12 C 0.37504 0.03640 0.26123
 H13 H 0.36980 -0.04319 0.27674
 H14 H 0.41302 0.00988 0.21438
 H15 H 0.42214 -0.01071 0.29632
 H16 H 0.36167 0.03745 0.24225
 H17 H 0.38481 -0.07620 0.19260
 H18 H 0.38914 0.07536 0.32037
 C19 C 0.12606 -0.02657 0.75330
 C20 C 0.10893 -0.00179 0.76130
 C21 C 0.09380 -0.00190 0.78716
 C22 C 0.09651 -0.02638 0.80544
 C23 C 0.11470 -0.05028 0.79775
 C24 C 0.12920 -0.05079 0.77175
 C25 C 0.10786 0.02458 0.74293
 C26 C 0.08971 0.02504 0.71889
 C27 C 0.09077 0.04853 0.69927
 C28 C 0.11033 0.07134 0.70442
 C29 C 0.12839 0.07133 0.72845
 C30 C 0.12687 0.04795 0.74797
 H31 H 0.13799 -0.02634 0.73351
 H32 H 0.08088 0.01733 0.79329
 H33 H 0.07589 0.00642 0.71538
 H34 H 0.14154 0.04699 0.76605
 H35 H 0.11764 -0.06880 0.81222
 H36 H 0.11203 0.08924 0.68920
 C37 C 0.63484 0.46835 0.25144
 C38 C 0.61622 0.49235 0.25873
 C39 C 0.60167 0.49239 0.28492
 C40 C 0.60612 0.46885 0.30408
 C41 C 0.62565 0.44581 0.29698
 C42 C 0.63990 0.44513 0.27079
 C43 C 0.61358 0.51816 0.23964
 C44 C 0.59757 0.51622 0.21429
 C45 C 0.59747 0.53959 0.19463
 C46 C 0.61370 0.56459 0.20055
 C47 C 0.62973 0.56701 0.22571
 C48 C 0.62929 0.54378 0.24554
 H49 H 0.64650 0.46863 0.23151
 H50 H 0.58772 0.51109 0.29054
 H51 H 0.58637 0.49611 0.20952
 H52 H 0.64245 0.54471 0.26461
 H53 H 0.62983 0.42806 0.31209
 H54 H 0.61442 0.58223 0.18497
 C55 C 0.87295 0.46356 0.74485
 C56 C 0.88635 0.49068 0.73963
 C57 C 0.89659 0.49746 0.71237
 C58 C 0.89288 0.47755 0.69024
 C59 C 0.87881 0.45112 0.69555
 C60 C 0.86880 0.44382 0.72258
 C61 C 0.88509 0.51384 0.76123
 C62 C 0.90137 0.51104 0.78649
 C63 C 0.89816 0.53248 0.80776
 C64 C 0.87813 0.55617 0.80317
 C65 C 0.86197 0.55927 0.77803
 C66 C 0.86577 0.53809 0.75696
 H67 H 0.86395 0.45897 0.76554
 H68 H 0.90594 0.51876 0.70821
 H69 H 0.91573 0.49192 0.78942
 H70 H 0.85277 0.53948 0.73777
 H71 H 0.87523 0.43613 0.67823
 H72 H 0.87493 0.57258 0.81947
 C73 C 0.25875 0.36068 1.03412
 C74 C 0.26664 0.37344 1.00827
 C75 C 0.29443 0.38556 1.00539
 C76 C 0.31423 0.38587 1.02831
 C77 C 0.30686 0.37092 1.05348
 C78 C 0.27891 0.35825 1.05664
 C79 C 0.24556 0.37475 0.98433
 C80 C 0.21675 0.38547 0.98848
 C81 C 0.19671 0.38791 0.96575
 C82 C 0.20536 0.37723 0.93917
 C83 C 0.23414 0.36618 0.93484
 C84 C 0.25428 0.36576 0.95728
 H85 H 0.23712 0.35142 1.03622
 H86 H 0.30016 0.39511 0.98519
 H87 H 0.21031 0.39209 1.00950
 H88 H 0.27652 0.35744 0.95391
 H89 H 0.32224 0.37084 1.07097
 H90 H 0.19003 0.37845 0.92159
 C91 C 0.74109 0.14638 1.03801
 C92 C 0.74052 0.13278 1.01157
 C93 C 0.71641 0.11614 1.00385
 C94 C 0.69339 0.11164 1.02269
 C95 C 0.69431 0.12478 1.04954
 C96 C 0.71771 0.14289 1.05721
 C97 C 0.76517 0.13520 0.99170
 C98 C 0.79301 0.12323 0.99862
 C99 C 0.81541 0.12187 0.97809
 C100 C 0.81011 0.13472 0.95142
 C101 C 0.78232 0.14688 0.94455
 C102 C 0.75987 0.14654 0.96455
 H103 H 0.76019 0.15882 1.04356
 H104 H 0.71603 0.10589 0.98324
 H105 H 0.79656 0.11416 1.01961
 H106 H 0.73813 0.15509 0.95898
 H107 H 0.67621 0.12206 1.06406
 H108 H 0.82709 0.13365 0.93541
 C109 C 0.23078 0.63964 0.53332
 C110 C 0.22455 0.62789 0.50679
 C111 C 0.19638 0.61756 0.50128
 C112 C 0.17467 0.61805 0.52243
 C113 C 0.18082 0.63132 0.54839
 C114 C 0.20893 0.64197 0.55391
 C115 C 0.24795 0.62505 0.48537
 C116 C 0.27553 0.61315 0.49310
 C117 C 0.29789 0.60957 0.47310
 C118 C 0.29291 0.61962 0.44515
 C119 C 0.26527 0.63170 0.43721
 C120 C 0.24275 0.63370 0.45725
 H121 H 0.25259 0.64749 0.53783
 H122 H 0.19188 0.60857 0.48069
 H123 H 0.27924 0.60559 0.51465
 H124 H 0.22146 0.64297 0.45116
 H125 H 0.16427 0.63198 0.56481
 H126 H 0.31017 0.61792 0.42953
 C127 C 0.76544 0.85681 0.54371
 C128 C 0.77168 0.87045 0.51778
 C129 C 0.79692 0.88740 0.51522
 C130 C 0.81540 0.89215 0.53865
 C131 C 0.80836 0.87854 0.56467
 C132 C 0.78383 0.86059 0.56715
 C133 C 0.75024 0.86947 0.49423
 C134 C 0.72152 0.88053 0.49828
 C135 C 0.70104 0.88170 0.47586
 C136 C 0.70915 0.86906 0.44986
 C137 C 0.73781 0.85746 0.44567
 C138 C 0.75847 0.85866 0.46769
 H139 H 0.74569 0.84415 0.54584
 H140 H 0.80130 0.89808 0.49512
 H141 H 0.71565 0.88851 0.51901
 H142 H 0.78075 0.85043 0.46442
 H143 H 0.82162 0.88135 0.58335
 H144 H 0.69354 0.86932 0.43251
 C145 C -0.03491 0.25130 0.34784
 C146 C -0.00762 0.24810 0.36112
 C147 C -0.00230 0.22512 0.38042
 C148 C -0.02474 0.20578 0.38754
 C149 C -0.05201 0.20869 0.37329
 C150 C -0.05741 0.23163 0.35344
 C151 C 0.01397 0.27107 0.35710
 C152 C 0.00799 0.29895 0.36809
 C153 C 0.02813 0.32150 0.36488
 C154 C 0.05375 0.31625 0.34913
 C155 C 0.05985 0.28828 0.33766
 C156 C 0.03997 0.26552 0.34226
 H157 H -0.03857 0.26959 0.33321
 H158 H 0.01882 0.22345 0.39107
 H159 H -0.01243 0.30293 0.37932
 H160 H 0.04447 0.24349 0.33464
 H161 H -0.06839 0.19249 0.37707
 H162 H 0.06928 0.33375 0.34640
 C163 C -0.02995 0.74723 0.15573
 C164 C -0.00427 0.75098 0.13999
 C165 C -0.00172 0.77548 0.12226
 C166 C -0.02498 0.79589 0.11910
 C167 C -0.05058 0.79244 0.13531
 C168 C -0.05332 0.76826 0.15408
 C169 C 0.01867 0.72761 0.13914
 C170 C 0.01171 0.70031 0.12793
 C171 C 0.03390 0.67903 0.12228
 C172 C 0.06315 0.68540 0.12931
 C173 C 0.07029 0.71231 0.14174
 C174 C 0.04783 0.73366 0.14593
 H175 H -0.03134 0.72752 0.16853
 H176 H 0.01799 0.77777 0.10968
 H177 H -0.01081 0.69719 0.12158
 H178 H 0.05274 0.75533 0.15363
 H179 H -0.06829 0.80875 0.13356
 H180 H 0.08054 0.66927 0.12518
 C181 C 0.47594 0.24349 0.65622
 C182 C 0.50412 0.24860 0.64574
 C183 C 0.51037 0.27566 0.63314
 C184 C 0.48822 0.29714 0.62958
 C185 C 0.46006 0.29221 0.64027
 C186 C 0.45388 0.26573 0.65435
 C187 C 0.52705 0.22537 0.64649
 C188 C 0.52504 0.20120 0.62858
 C189 C 0.54877 0.18100 0.62610
 C190 C 0.57422 0.18514 0.64222
 C191 C 0.57630 0.20914 0.66056
 C192 C 0.55257 0.22939 0.66231
 H193 H 0.47147 0.22221 0.66549
 H194 H 0.53213 0.27937 0.62474
 H195 H 0.50573 0.19950 0.61537
 H196 H 0.55394 0.24905 0.67488
 H197 H 0.44307 0.30924 0.63796
 H198 H 0.59275 0.16985 0.64007
 C199 C 0.44346 0.74353 0.84349
 C200 C 0.46875 0.73879 0.85998
 C201 C 0.47171 0.71367 0.87712
 C202 C 0.44920 0.69302 0.87849
 C203 C 0.42387 0.69810 0.86193
 C204 C 0.42086 0.72292 0.84405
 C205 C 0.49163 0.76096 0.86135
 C206 C 0.48839 0.78427 0.88025
 C207 C 0.51177 0.80291 0.88542
 C208 C 0.53806 0.79895 0.87025
 C209 C 0.54149 0.77596 0.85075
 C210 C 0.51814 0.75661 0.84684
 H211 H 0.44157 0.76347 0.83091
 H212 H 0.49109 0.71159 0.89031
 H213 H 0.46808 0.78697 0.89199
 H214 H 0.52041 0.73764 0.83334
 H215 H 0.40629 0.68243 0.86281
 H216 H 0.55591 0.81389 0.87347
 C217 C -0.29054 0.62582 1.00535
 C218 C -0.26419 0.64023 1.01137
 C219 C -0.26066 0.65460 1.03723
 C220 C -0.28324 0.65455 1.05732
 C221 C -0.30904 0.63951 1.05140
 C222 C -0.31321 0.62497 1.02560
 C223 C -0.23989 0.63962 0.99083
 C224 C -0.24261 0.65588 0.96551
 C225 C -0.22031 0.65430 0.94495
 C226 C -0.19560 0.63583 0.95029
 C227 C -0.19235 0.61976 0.97562
 C228 C -0.21453 0.62200 0.99611
 H229 H -0.29256 0.61467 0.98537
 H230 H -0.24014 0.66517 1.04177
 H231 H -0.26249 0.66896 0.96199
 H232 H -0.21288 0.60911 1.01545
 H233 H -0.32611 0.63908 1.06736
 H234 H -0.17851 0.63378 0.93443
 C235 C -0.29748 0.36373 0.49415
 C236 C -0.26835 0.35560 0.48684
 C237 C -0.26217 0.34487 0.45969
 C238 C -0.28479 0.34256 0.43978
 C239 C -0.31345 0.35107 0.44709
 C240 C -0.32034 0.36185 0.47408
 C241 C -0.24414 0.35993 0.50712
 C242 C -0.24443 0.34565 0.53362
 C243 C -0.22279 0.35152 0.55386
 C244 C -0.20146 0.37223 0.54761
 C245 C -0.20049 0.38627 0.52118
 C246 C -0.22168 0.37973 0.50068
 H247 H -0.30171 0.37233 0.51502
 H248 H -0.23973 0.33918 0.45389
 H249 H -0.26189 0.33071 0.53858
 H250 H -0.22177 0.39118 0.48049
 H251 H -0.33054 0.34972 0.43114
 H252 H -0.18527 0.37745 0.56354
 C253 C 0.21069 -0.12861 -0.00881
 C254 C 0.24036 -0.13575 -0.01386
 C255 C 0.24882 -0.14832 -0.03951
 C256 C 0.22761 -0.15652 -0.05917
 C257 C 0.19778 -0.14957 -0.05384
 C258 C 0.18921 -0.13464 -0.02922
 C259 C 0.26227 -0.13313 0.00874
 C260 C 0.25842 -0.14899 0.03392
 C261 C 0.27999 -0.14947 0.05509
 C262 C 0.30500 -0.13208 0.05107
 C263 C 0.30897 -0.11579 0.02603
 C264 C 0.28768 -0.11683 0.00460
 H265 H 0.20491 -0.11797 0.01081
 H266 H 0.27184 -0.15377 -0.04315
 H267 H 0.23890 -0.16198 0.03644
 H268 H 0.29022 -0.10438 -0.01483
 H269 H 0.18126 -0.15414 -0.06962
 H270 H 0.32141 -0.13024 0.06743
 C271 C 0.21499 1.11720 0.50362
 C272 C 0.24013 1.13397 0.50831
 C273 C 0.24361 1.14876 0.53396
 C274 C 0.22235 1.14651 0.55522
 C275 C 0.19791 1.12911 0.55064
 C276 C 0.19389 1.11447 0.52508
 C277 C 0.26449 1.13346 0.48791
 C278 C 0.26325 1.15133 0.46349
 C279 C 0.28647 1.15031 0.44379
 C280 C 0.31049 1.13087 0.44914
 C281 C 0.31223 1.11338 0.47371
 C282 C 0.28912 1.11491 0.49319
 H283 H 0.21283 1.10505 0.48417
 H284 H 0.26347 1.16081 0.53763
 H285 H 0.24400 1.16534 0.46001
 H286 H 0.28966 1.10104 0.51195
 H287 H 0.18185 1.12668 0.56735
 H288 H 0.32834 1.12936 0.43402
 C289 C 0.10737 0.51121 0.20917
 C290 C 0.11829 0.51427 0.23671
 C291 C 0.13355 0.53958 0.24380
 C292 C 0.13892 0.56158 0.22361
 C293 C 0.12803 0.55815 0.19591
 C294 C 0.11190 0.53329 0.18871
 C295 C 0.11502 0.49075 0.25820
 C296 C 0.12786 0.46274 0.25402
 C297 C 0.12847 0.44147 0.27601
 C298 C 0.11349 0.44788 0.30131
 C299 C 0.10029 0.47584 0.30546
 C300 C 0.10180 0.49727 0.28413
 H301 H 0.09580 0.49152 0.20361
 H302 H 0.14205 0.54169 0.26509
 H303 H 0.13812 0.45822 0.23389
 H304 H 0.09260 0.51918 0.28770
 H305 H 0.13143 0.57478 0.17985
 H306 H 0.11359 0.43180 0.31838
 C307 C -0.10512 0.99403 0.21627
 C308 C -0.11874 0.98647 0.24161
 C309 C -0.12961 0.95817 0.24532
 C310 C -0.12698 0.93698 0.22367
 C311 C -0.11174 0.94465 0.19886
 C312 C -0.10060 0.97316 0.19506
 C313 C -0.12112 1.00836 0.26440
 C314 C -0.13301 1.03657 0.25872
 C315 C -0.13386 1.05839 0.27984
 C316 C -0.12154 1.05131 0.30646
 C317 C -0.10974 1.02302 0.31221
 C318 C -0.11023 1.00148 0.29138
 H319 H -0.09677 1.01605 0.21366
 H320 H -0.14107 0.95385 0.26478
 H321 H -0.14178 1.04057 0.23781
 H322 H -0.10094 0.97970 0.29580
 H323 H -0.10980 0.92871 0.18205
 H324 H -0.12163 1.06759 0.32308
 C325 C 0.39415 0.50322 -0.28606
 C326 C 0.38475 0.49763 -0.25832
 C327 C 0.37525 0.46952 -0.25100
 C328 C 0.37427 0.44711 -0.27110
 C329 C 0.38531 0.45243 -0.29848
 C330 C 0.39556 0.48058 -0.30628
 C331 C 0.38237 0.52155 -0.23729
 C332 C 0.36343 0.54587 -0.24266
 C333 C 0.35747 0.56700 -0.22152
 C334 C 0.37166 0.56335 -0.19515
 C335 C 0.39115 0.53951 -0.18967
 C336 C 0.39635 0.51858 -0.21085
 H337 H 0.40108 0.52519 -0.29162
 H338 H 0.36697 0.46558 -0.22987
 H339 H 0.35285 0.54709 -0.26308
 H340 H 0.41027 0.49937 -0.20645
 H341 H 0.38500 0.43490 -0.31370
 H342 H 0.36722 0.57898 -0.17840
 C343 C 0.60615 0.01687 -0.28679
 C344 C 0.62170 0.01970 -0.26131
 C345 C 0.64200 0.04221 -0.25842
 C346 C 0.64752 0.06161 -0.28108
 C347 C 0.63249 0.05784 -0.30669
 C348 C 0.61140 0.03596 -0.30983
 C349 C 0.61889 -0.00255 -0.23851
 C350 C 0.62856 -0.03166 -0.24315
 C351 C 0.62838 -0.05279 -0.22111
 C352 C 0.61592 -0.04480 -0.19504
 C353 C 0.60572 -0.01574 -0.19028
 C354 C 0.60817 0.00546 -0.21185
 H355 H 0.59121 -0.00115 -0.28876
 H356 H 0.65433 0.04336 -0.23891
 H357 H 0.63663 -0.03731 -0.26391
 H358 H 0.60111 0.02806 -0.20812
 H359 H 0.63706 0.07246 -0.32432
 H360 H 0.61530 -0.06089 -0.17800
 C361 C 0.00959 0.20647 0.90226
 C362 C 0.00814 0.23353 0.88793
 C363 C -0.01330 0.23884 0.86721
 C364 C -0.03323 0.21709 0.86031
 C365 C -0.03205 0.19004 0.87511
 C366 C -0.01043 0.18449 0.89603
 C367 C 0.02992 0.25593 0.89357
 C368 C 0.05756 0.25349 0.88098
 C369 C 0.07802 0.27564 0.88454
 C370 C 0.07099 0.29983 0.90157
 C371 C 0.04305 0.30282 0.91399
 C372 C 0.02246 0.28066 0.90971
 H373 H 0.02642 0.20255 0.91822
 H374 H -0.01410 0.25985 0.85610
 H375 H 0.06289 0.23459 0.86796
 H376 H 0.00040 0.28266 0.91802
 H377 H -0.04862 0.17398 0.87109
 H378 H 0.08687 0.31700 0.90410
 C379 C 0.50897 0.20967 0.10270
 C380 C 0.51558 0.23790 0.11193
 C381 C 0.54358 0.24355 0.12226
 C382 C 0.56477 0.22093 0.12453
 C383 C 0.55839 0.19267 0.11472
 C384 C 0.53030 0.18686 0.10378
 C385 C 0.49262 0.26099 0.11360
 C386 C 0.46862 0.25689 0.13134
 C387 C 0.44867 0.28006 0.13660
 C388 C 0.45189 0.30713 0.12234
 C389 C 0.47544 0.31116 0.10361
 C390 C 0.49625 0.28811 0.10008
 H391 H 0.48707 0.20548 0.09487
 H392 H 0.54827 0.26527 0.13020
 H393 H 0.46643 0.23598 0.14230
 H394 H 0.51572 0.29107 0.08742
 H395 H 0.57546 0.17570 0.11533
 H396 H 0.43599 0.32494 0.12545
 C397 C -0.01398 0.72084 0.58716
 C398 C -0.00896 0.74526 0.60424
 C399 C 0.01867 0.74892 0.61654
 C400 C 0.04159 0.72844 0.61189
 C401 C 0.03678 0.70452 0.59417
 C402 C 0.00904 0.70030 0.58180
 C403 C -0.03139 0.76877 0.60767
 C404 C -0.05439 0.76595 0.62712
 C405 C -0.07287 0.79052 0.63351
 C406 C -0.06749 0.81763 0.62003
 C407 C -0.04459 0.82031 0.60042
 C408 C -0.02703 0.79570 0.59407
 H409 H -0.03562 0.71828 0.57816
 H410 H 0.02240 0.76820 0.62924
 H411 H -0.05645 0.74508 0.63798
 H412 H -0.00889 0.79779 0.57942
 H413 H 0.05462 0.68878 0.59045
 H414 H -0.08156 0.83662 0.62447
 C415 C 0.49674 0.70193 0.40752
 C416 C 0.49373 0.73099 0.39779
 C417 C 0.46678 0.74124 0.38668
 C418 C 0.44340 0.72215 0.38398
 C419 C 0.44646 0.69298 0.39383
 C420 C 0.47286 0.68300 0.40651
 C421 C 0.51893 0.75056 0.39879
 C422 C 0.54604 0.74162 0.38742
 C423 C 0.56915 0.76125 0.38616
 C424 C 0.56567 0.78944 0.39783
 C425 C 0.53911 0.79794 0.41074
 C426 C 0.51553 0.77863 0.41031
 H427 H 0.51781 0.69427 0.41578
 H428 H 0.46447 0.76368 0.37881
 H429 H 0.54861 0.72002 0.37806
 H430 H 0.49430 0.78534 0.41864
 H431 H 0.42814 0.67831 0.39211
 H432 H 0.58372 0.80454 0.39715
 Zr433 Zr 0.01787 -0.04030 1.03706
 O434 O 0.04795 -0.02647 1.06813
 O435 O 0.00969 -0.08327 1.05032
 O436 O -0.00220 -0.04113 1.07710
 O437 O 0.06841 -0.05969 0.98590
 O438 O -0.04383 -0.01269 1.07103
 O439 O 0.05886 -0.06281 1.03311
 O440 O -0.02944 -0.09584 1.02310
 O441 O -0.02742 -0.04231 1.03017
 O442 O 0.01224 -0.06187 0.99871
 O443 O 0.00194 0.00357 1.03772
 O444 O 0.04065 -0.01494 1.00716
 Zr445 Zr -0.02794 0.00597 0.95980
 Zr446 Zr -0.04296 0.00124 1.02853
 Zr447 Zr 0.03259 -0.03568 0.96857
 Zr448 Zr -0.03279 -0.06247 0.99140
 O449 O 0.07266 -0.01720 0.95563
 O450 O -0.07563 -0.07092 1.00644
 O451 O -0.01232 -0.03823 0.95909
 O452 O -0.05042 -0.01936 0.98983
 O453 O -0.02271 0.02767 0.99827
 O454 O 0.01726 0.00789 0.96713
 C455 C -0.01130 -0.10032 1.04384
 C456 C 0.07490 -0.06808 1.01126
 C457 C -0.02661 -0.02969 1.08587
 O458 O -0.08494 -0.01533 1.03781
 O459 O -0.07582 0.02981 1.01208
 O460 O -0.06648 0.03236 0.96478
 C461 C -0.08161 0.03917 0.98687
 O462 O 0.05501 0.03135 1.03783
 Zr463 Zr 0.02234 0.02812 1.00591
 O464 O -0.01945 0.04894 0.94654
 O465 O -0.04476 0.03911 1.05421
 O466 O 0.00895 0.06362 1.03204
 O467 O 0.06285 0.04044 0.98781
 O468 O 0.01360 0.06490 0.97897
 C469 C -0.00293 0.06866 0.95699
 O470 O -0.06054 -0.00663 0.93064
 O471 O 0.03596 -0.07593 0.94654
 O472 O -0.01039 0.00262 0.91852
 O473 O 0.03020 -0.02719 0.92496
 O474 O -0.01959 -0.10151 0.97019
 O475 O -0.06039 -0.06804 0.95565
 C476 C 0.01269 -0.01128 0.90939
 H477 H 0.02073 -0.08215 0.99890
 H478 H -0.07164 -0.01974 0.98524
 H479 H 0.02782 0.01907 0.95244
 H480 H 0.00526 0.01241 1.05647
 H481 H -0.07890 -0.09226 1.00419
 H482 H -0.09422 -0.00179 1.05165
 H483 H -0.06420 0.03934 1.06359
 H484 H 0.02136 0.08054 1.02720
 H485 H -0.03321 -0.11708 0.97612
 H486 H 0.05526 -0.07621 0.93689
 H487 H 0.08206 -0.03124 0.94231
 H488 H 0.06522 0.06169 0.99149
 H489 H -0.07020 -0.08719 0.95717
 H490 H -0.06408 0.01032 0.91759
 H491 H 0.05166 -0.04346 1.08109
 H492 H 0.06129 0.05201 1.03906
 Zr493 Zr 0.50551 0.45334 0.53213
 O494 O 0.53108 0.46772 0.56655
 O495 O 0.49619 0.41023 0.54447
 O496 O 0.48049 0.45330 0.56957
 O497 O 0.56349 0.43623 0.48794
 O498 O 0.43934 0.48122 0.55905
 O499 O 0.54753 0.43187 0.53342
 O500 O 0.46355 0.39556 0.51109
 O501 O 0.46158 0.44982 0.51962
 O502 O 0.50617 0.43177 0.49334
 O503 O 0.48797 0.49667 0.53057
 O504 O 0.53130 0.47953 0.50535
 Zr505 Zr 0.46948 0.49761 0.44961
 Zr506 Zr 0.44469 0.49299 0.51592
 Zr507 Zr 0.52967 0.45866 0.46598
 Zr508 Zr 0.46264 0.42955 0.48033
 O509 O 0.57032 0.47891 0.45845
 O510 O 0.41867 0.41924 0.49034
 O511 O 0.48669 0.45416 0.45086
 O512 O 0.44374 0.47189 0.47666
 O513 O 0.46824 0.51969 0.48831
 O514 O 0.51303 0.50164 0.46255
 C515 C 0.47792 0.39190 0.53435
 C516 C 0.56670 0.42750 0.51373
 C517 C 0.45542 0.46518 0.57601
 O518 O 0.40291 0.47421 0.52055
 O519 O 0.41338 0.52027 0.49415
 O520 O 0.42950 0.52139 0.44847
 C521 C 0.41112 0.52838 0.46795
 O522 O 0.54041 0.52565 0.53694
 Zr523 Zr 0.51172 0.52186 0.50172
 O524 O 0.47724 0.54111 0.43763
 O525 O 0.43761 0.53160 0.53985
 O526 O 0.49446 0.55659 0.52682
 O527 O 0.55321 0.53660 0.48803
 O528 O 0.50356 0.55852 0.47474
 C529 C 0.49003 0.56172 0.45089
 O530 O 0.44220 0.48315 0.41643
 O531 O 0.53793 0.41849 0.44482
 O532 O 0.49253 0.49489 0.41100
 O533 O 0.53332 0.46702 0.42228
 O534 O 0.47994 0.39132 0.46032
 O535 O 0.43997 0.42357 0.44156
 C536 C 0.51709 0.48194 0.40466
 H537 H 0.51526 0.41177 0.49462
 H538 H 0.42342 0.47057 0.46936
 H539 H 0.52486 0.51338 0.44927
 H540 H 0.48854 0.50580 0.54948
 H541 H 0.41646 0.39786 0.48723
 H542 H 0.39103 0.48798 0.53225
 H543 H 0.41695 0.53137 0.54636
 H544 H 0.50679 0.57395 0.52350
 H545 H 0.46601 0.37528 0.46382
 H546 H 0.55836 0.41908 0.43771
 H547 H 0.58217 0.46525 0.44659
 H548 H 0.55387 0.55795 0.49204
 H549 H 0.43059 0.40414 0.44174
 H550 H 0.43982 0.49968 0.40269
 H551 H 0.53326 0.45086 0.57994
 H552 H 0.54611 0.54642 0.53890
 Zr553 Zr 0.48113 1.01615 0.54387
 O554 O 0.45252 0.99707 0.57367
 O555 O 0.48447 1.05888 0.55918
 O556 O 0.50120 1.01374 0.58431
 O557 O 0.42758 1.03225 0.49372
 O558 O 0.54680 0.99369 0.57563
 O559 O 0.43811 1.03543 0.54070
 O560 O 0.51971 1.07865 0.53103
 O561 O 0.52566 1.02430 0.53672
 O562 O 0.48332 1.04063 0.50635
 O563 O 0.50259 0.97459 0.54205
 O564 O 0.46095 0.99015 0.51303
 Zr565 Zr 0.53025 0.98104 0.46380
 Zr566 Zr 0.54657 0.98306 0.53248
 Zr567 Zr 0.46558 1.01417 0.47527
 Zr568 Zr 0.52754 1.04743 0.49869
 O569 O 0.42831 0.99112 0.46174
 O570 O 0.56889 1.05987 0.51480
 O571 O 0.50940 1.02304 0.46552
 O572 O 0.55028 1.00698 0.49469
 O573 O 0.52876 0.95643 0.50140
 O574 O 0.48600 0.97289 0.47148
 C575 C 0.50193 1.07943 0.55224
 C576 C 0.42101 1.03971 0.51910
 C577 C 0.52728 1.00524 0.59208
 O578 O 0.58621 1.00424 0.54210
 O579 O 0.58225 0.95985 0.51396
 O580 O 0.57167 0.95920 0.46680
 C581 C 0.58824 0.95280 0.48822
 O582 O 0.45270 0.94088 0.54112
 Zr583 Zr 0.48446 0.94986 0.50956
 O584 O 0.52716 0.93798 0.44897
 O585 O 0.55386 0.94373 0.55603
 O586 O 0.50158 0.91458 0.53481
 O587 O 0.44621 0.93328 0.49033
 O588 O 0.49862 0.91599 0.48221
 C589 C 0.51479 0.91551 0.45990
 O590 O 0.56011 0.99975 0.43494
 O591 O 0.45607 1.05531 0.45547
 O592 O 0.51135 0.98539 0.42293
 O593 O 0.46813 1.01019 0.43128
 O594 O 0.50959 1.08573 0.47852
 O595 O 0.55389 1.05903 0.46350
 C596 C 0.48704 0.99796 0.41469
 H597 H 0.47255 1.05980 0.50732
 H598 H 0.57108 1.01035 0.48987
 H599 H 0.47674 0.96144 0.45631
 H600 H 0.50087 0.96390 0.56028
 H601 H 0.56952 1.08164 0.51377
 H602 H 0.59756 0.99086 0.55497
 H603 H 0.57344 0.94523 0.56505
 H604 H 0.49115 0.89660 0.52935
 H605 H 0.52115 1.10263 0.48495
 H606 H 0.43680 1.05365 0.44587
 H607 H 0.41683 1.00466 0.44913
 H608 H 0.44684 0.91161 0.49305
 H609 H 0.56196 1.07881 0.46645
 H610 H 0.56530 0.98433 0.42098
 H611 H 0.44725 1.01261 0.58747
 H612 H 0.44813 0.91969 0.54090
 Zr613 Zr -0.01959 0.52351 1.03923
 O614 O -0.04769 0.50735 1.07106
 O615 O -0.01177 0.56619 1.05335
 O616 O 0.00211 0.52123 1.07882
 O617 O -0.07573 0.53888 0.99157
 O618 O 0.04673 0.49966 1.06891
 O619 O -0.06191 0.54448 1.03752
 O620 O 0.02101 0.58380 1.02136
 O621 O 0.02464 0.52986 1.02926
 O622 O -0.01900 0.54621 1.00062
 O623 O 0.00030 0.48115 1.03809
 O624 O -0.04228 0.49669 1.01073
 Zr625 Zr 0.02366 0.48322 0.95839
 Zr626 Zr 0.04393 0.48786 1.02603
 Zr627 Zr -0.03939 0.51885 0.97175
 Zr628 Zr 0.02489 0.55107 0.99008
 O629 O -0.07807 0.49639 0.96134
 O630 O 0.06775 0.56316 1.00236
 O631 O 0.00406 0.52581 0.95919
 O632 O 0.04616 0.50985 0.98701
 O633 O 0.02370 0.46036 0.99706
 O634 O -0.02033 0.47679 0.96867
 C635 C 0.00595 0.58575 1.04428
 C636 C -0.08039 0.54793 1.01688
 C637 C 0.02819 0.51206 1.08586
 O638 O 0.08433 0.50867 1.03310
 O639 O 0.07817 0.46355 1.00659
 O640 O 0.06489 0.46085 0.96015
 C641 C 0.08267 0.45543 0.98091
 O642 O -0.05062 0.44904 1.04113
 Zr643 Zr -0.02029 0.45547 1.00771
 O644 O 0.01857 0.43964 0.94587
 O645 O 0.05165 0.44910 1.05035
 O646 O -0.00291 0.42095 1.03374
 O647 O -0.06001 0.43930 0.99108
 O648 O -0.00851 0.41967 0.98141
 C649 C 0.00645 0.41789 0.95836
 O650 O 0.05227 0.49944 0.92702
 O651 O -0.04889 0.55932 0.95071
 O652 O 0.00265 0.48651 0.91841
 O653 O -0.03954 0.51268 0.92782
 O654 O 0.00654 0.58905 0.96965
 O655 O 0.04885 0.55972 0.95255
 C656 C -0.02178 0.49932 0.91082
 H657 H -0.02900 0.56578 1.00152
 H658 H 0.06674 0.51244 0.98096
 H659 H -0.03070 0.46494 0.95451
 H660 H -0.00075 0.47128 1.05679
 H661 H 0.06902 0.58475 0.99970
 H662 H 0.09617 0.49548 1.04574
 H663 H 0.07172 0.45042 1.05832
 H664 H -0.01421 0.40309 1.02973
 H665 H 0.01923 0.60575 0.97430
 H666 H -0.06874 0.55779 0.94227
 H667 H -0.08989 0.50970 0.94880
 H668 H -0.05989 0.41778 0.99472
 H669 H 0.05721 0.57959 0.95352
 H670 H 0.05617 0.48320 0.91357
 H671 H -0.05133 0.52363 1.08453
 H672 H -0.05592 0.42805 1.04204
 Zr673 Zr -0.03049 0.47391 0.45713
 O674 O -0.05757 0.48834 0.42303
 O675 O -0.02115 0.42986 0.44693
 O676 O -0.00722 0.47006 0.41874
 O677 O -0.08769 0.46448 0.50375
 O678 O 0.03554 0.49357 0.42731
 O679 O -0.07213 0.45417 0.45905
 O680 O 0.00915 0.41353 0.48265
 O681 O 0.01357 0.46755 0.46882
 O682 O -0.03037 0.45478 0.49748
 O683 O -0.01213 0.51597 0.45522
 O684 O -0.05464 0.50377 0.48262
 Zr685 Zr 0.00982 0.52026 0.53514
 Zr686 Zr 0.03138 0.50945 0.46879
 Zr687 Zr -0.05224 0.48506 0.52330
 Zr688 Zr 0.01341 0.44989 0.50959
 O689 O -0.09161 0.50937 0.53107
 O690 O 0.05626 0.43520 0.49802
 O691 O -0.00884 0.47829 0.53748
 O692 O 0.03362 0.49079 0.50943
 O693 O 0.00990 0.53993 0.49496
 O694 O -0.03424 0.52673 0.52351
 C695 C -0.00454 0.41021 0.45915
 C696 C -0.09125 0.45327 0.47911
 C697 C 0.01851 0.47852 0.41153
 O698 O 0.07275 0.48760 0.46469
 O699 O 0.06411 0.53529 0.48660
 O700 O 0.04987 0.54246 0.53224
 C701 C 0.06767 0.54593 0.51145
 O702 O -0.06282 0.54996 0.44780
 Zr703 Zr -0.03402 0.54483 0.48303
 O704 O 0.00216 0.56441 0.54504
 O705 O 0.03830 0.54544 0.44111
 O706 O -0.01586 0.57706 0.45601
 O707 O -0.07535 0.56220 0.49628
 O708 O -0.02563 0.58229 0.50817
 C709 C -0.01147 0.58530 0.53162
 O710 O 0.03921 0.50649 0.56772
 O711 O -0.06166 0.44677 0.54708
 O712 O -0.01081 0.51962 0.57498
 O713 O -0.05293 0.49490 0.56665
 O714 O -0.00407 0.41523 0.53416
 O715 O 0.03795 0.44461 0.54766
 C716 C -0.03511 0.50835 0.58300
 H717 H -0.03994 0.43546 0.49805
 H718 H 0.05420 0.48843 0.51607
 H719 H -0.04535 0.53974 0.53656
 H720 H -0.01303 0.52401 0.43570
 H721 H 0.05803 0.41394 0.50280
 H722 H 0.08435 0.49935 0.45117
 H723 H 0.05863 0.54313 0.43390
 H724 H -0.02749 0.59558 0.45853
 H725 H 0.00905 0.39770 0.53173
 H726 H -0.08171 0.44973 0.55483
 H727 H -0.10331 0.49744 0.54433
 H728 H -0.07597 0.58348 0.49145
 H729 H 0.04728 0.42469 0.54830
 H730 H 0.04229 0.52371 0.58003
 H731 H -0.06062 0.47102 0.41085
 H732 H -0.06804 0.57109 0.44508
 Zr733 Zr 0.48221 -0.02912 -0.03370
 O734 O 0.45576 -0.00918 -0.06575
 O735 O 0.48734 -0.07208 -0.04850
 O736 O 0.50535 -0.02927 -0.07231
 O737 O 0.42566 -0.04253 0.01265
 O738 O 0.54899 -0.00789 -0.06208
 O739 O 0.43939 -0.04670 -0.03347
 O740 O 0.52063 -0.09303 -0.01774
 O741 O 0.52634 -0.03855 -0.02367
 O742 O 0.48219 -0.05326 0.00409
 O743 O 0.50268 0.01183 -0.03108
 O744 O 0.45954 -0.00209 -0.00459
 Zr745 Zr 0.52512 0.00497 0.04871
 Zr746 Zr 0.54621 0.00218 -0.01867
 Zr747 Zr 0.46196 -0.02578 0.03369
 Zr748 Zr 0.52597 -0.06151 0.01454
 O749 O 0.42339 -0.00143 0.04443
 O750 O 0.56842 -0.07575 0.00128
 O751 O 0.50518 -0.03628 0.04626
 O752 O 0.54771 -0.02175 0.01941
 O753 O 0.52578 0.02950 0.01102
 O754 O 0.48141 0.01485 0.03823
 C755 C 0.50454 -0.09327 -0.04025
 C756 C 0.42089 -0.04994 -0.01308
 C757 C 0.53111 -0.02046 -0.07909
 O758 O 0.58665 -0.02050 -0.02570
 O759 O 0.57994 0.02478 0.00249
 O760 O 0.56641 0.02412 0.04892
 C761 C 0.58397 0.03080 0.02884
 O762 O 0.45208 0.04700 -0.03374
 Zr763 Zr 0.48198 0.03752 -0.00010
 O764 O 0.52113 0.04860 0.06244
 O765 O 0.55439 0.04122 -0.04176
 O766 O 0.50009 0.07194 -0.02453
 O767 O 0.44224 0.05560 0.01634
 O768 O 0.49363 0.07132 0.02781
 C769 C 0.50888 0.07148 0.05076
 O770 O 0.55294 -0.01477 0.07987
 O771 O 0.45186 -0.06633 0.05332
 O772 O 0.50408 0.00205 0.08826
 O773 O 0.46143 -0.02075 0.07782
 O774 O 0.50751 -0.09903 0.03390
 O775 O 0.55031 -0.07322 0.05154
 C776 C 0.47938 -0.00904 0.09526
 H777 H 0.47180 -0.07206 0.00253
 H778 H 0.56821 -0.02583 0.02563
 H779 H 0.47112 0.02688 0.05265
 H780 H 0.50186 0.02229 -0.04954
 H781 H 0.56932 -0.09753 0.00283
 H782 H 0.59865 -0.00739 -0.03759
 H783 H 0.57466 0.03915 -0.04920
 H784 H 0.48895 0.09031 -0.02001
 H785 H 0.51997 -0.11633 0.02867
 H786 H 0.43195 -0.06385 0.06152
 H787 H 0.41132 -0.01451 0.05631
 H788 H 0.44259 0.07720 0.01329
 H789 H 0.55883 -0.09335 0.04952
 H790 H 0.55714 0.00048 0.09410
 H791 H 0.45173 -0.02466 -0.07977
 H792 H 0.44729 0.06838 -0.03426
 Zr793 Zr 0.52299 0.52651 -0.03956
 O794 O 0.55211 0.50751 -0.06945
 O795 O 0.51745 0.56945 -0.05533
 O796 O 0.50248 0.52429 -0.07976
 O797 O 0.57596 0.54350 0.00987
 O798 O 0.45826 0.50359 -0.07054
 O799 O 0.56519 0.54551 -0.03722
 O800 O 0.48130 0.58902 -0.02730
 O801 O 0.47807 0.53446 -0.03228
 O802 O 0.51973 0.55103 -0.00249
 O803 O 0.50397 0.48480 -0.03668
 O804 O 0.54482 0.50065 -0.00829
 Zr805 Zr 0.47648 0.49145 0.04159
 Zr806 Zr 0.45958 0.49308 -0.02710
 Zr807 Zr 0.53928 0.52481 0.02900
 Zr808 Zr 0.47518 0.55759 0.00536
 O809 O 0.57807 0.50202 0.04238
 O810 O 0.43314 0.56981 -0.01098
 O811 O 0.49502 0.53349 0.03889
 O812 O 0.45473 0.51706 0.01024
 O813 O 0.47905 0.46668 0.00453
 O814 O 0.52113 0.48347 0.03383
 C815 C 0.49907 0.59003 -0.04845
 C816 C 0.58204 0.55045 -0.01583
 C817 C 0.47691 0.51547 -0.08732
 O818 O 0.41861 0.51392 -0.03673
 O819 O 0.42562 0.46942 -0.00780
 O820 O 0.43665 0.46873 0.03929
 C821 C 0.42037 0.46210 0.01808
 O822 O 0.55561 0.45109 -0.03527
 Zr823 Zr 0.52362 0.46020 -0.00370
 O824 O 0.48256 0.44882 0.05784
 O825 O 0.45440 0.45374 -0.04995
 O826 O 0.50807 0.42479 -0.02798
 O827 O 0.56297 0.44387 0.01555
 O828 O 0.51154 0.42635 0.02473
 C829 C 0.49588 0.42621 0.04743
 O830 O 0.44540 0.51005 0.06989
 O831 O 0.54650 0.56594 0.04813
 O832 O 0.49512 0.49648 0.08230
 O833 O 0.53740 0.52059 0.07314
 O834 O 0.49095 0.59597 0.02487
 O835 O 0.44825 0.56893 0.04042
 C836 C 0.51903 0.50872 0.09013
 H837 H 0.52944 0.57024 -0.00386
 H838 H 0.43376 0.52026 0.01512
 H839 H 0.53115 0.47216 0.04919
 H840 H 0.50617 0.47410 -0.05472
 H841 H 0.43126 0.59157 -0.01027
 H842 H 0.40788 0.50040 -0.04916
 H843 H 0.43460 0.45501 -0.05869
 H844 H 0.51940 0.40683 -0.02212
 H845 H 0.47829 0.61278 0.01836
 H846 H 0.56591 0.56439 0.05765
 H847 H 0.58885 0.51558 0.05473
 H848 H 0.56344 0.42218 0.01340
 H849 H 0.43891 0.58858 0.03709
 H850 H 0.44121 0.49472 0.08429
 H851 H 0.55639 0.52308 -0.08357
 H852 H 0.56115 0.42987 -0.03469
 Zr853 Zr 0.01553 1.03808 0.46700
 O854 O 0.04285 1.01937 0.43544
 O855 O 0.00993 1.08160 0.45258
 O856 O -0.00635 1.03907 0.42761
 O857 O 0.07134 1.04988 0.51460
 O858 O -0.04974 1.01683 0.43673
 O859 O 0.05814 1.05555 0.46830
 O860 O -0.02448 1.10069 0.48273
 O861 O -0.02885 1.04674 0.47593
 O862 O 0.01436 1.06115 0.50498
 O863 O -0.00421 0.99670 0.46883
 O864 O 0.03775 1.01038 0.49657
 Zr865 Zr -0.02934 1.00078 0.54781
 Zr866 Zr -0.04805 1.00565 0.47986
 Zr867 Zr 0.03418 1.03306 0.53485
 Zr868 Zr -0.02979 1.06833 0.51450
 O869 O 0.07221 1.00855 0.54753
 O870 O -0.07215 1.08270 0.50058
 O871 O -0.00957 1.04229 0.54632
 O872 O -0.05128 1.02821 0.51816
 O873 O -0.02835 0.97750 0.50990
 O874 O 0.01495 0.99206 0.53878
 C875 C -0.00810 1.10204 0.46060
 C876 C 0.07654 1.05771 0.48889
 C877 C -0.03178 1.02998 0.42021
 O878 O -0.08831 1.02846 0.47154
 O879 O -0.08251 0.98268 0.49873
 O880 O -0.06970 0.97884 0.54532
 C881 C -0.08685 0.97381 0.52422
 O882 O 0.04658 0.96160 0.46761
 Zr883 Zr 0.01582 0.97028 0.50038
 O884 O -0.02436 0.95736 0.56199
 O885 O -0.05516 0.96714 0.45624
 O886 O -0.00123 0.93623 0.47528
 O887 O 0.05545 0.95269 0.51806
 O888 O 0.00388 0.93556 0.52796
 C889 C -0.01176 0.93483 0.55061
 O890 O -0.05934 1.01850 0.57762
 O891 O 0.04403 1.07344 0.55425
 O892 O -0.00957 1.00393 0.58815
 O893 O 0.03264 1.02830 0.57898
 O894 O -0.01202 1.10538 0.53471
 O895 O -0.05490 1.07847 0.55109
 C896 C 0.01437 1.01613 0.59592
 H897 H 0.02466 1.08005 0.50381
 H898 H -0.07203 1.03171 0.52370
 H899 H 0.02498 0.97996 0.55359
 H900 H -0.00278 0.98673 0.45035
 H901 H -0.07333 1.10439 0.50257
 H902 H -0.09978 1.01589 0.45879
 H903 H -0.07497 0.96943 0.44764
 H904 H 0.00988 0.91783 0.48019
 H905 H -0.02450 1.12275 0.52933
 H906 H 0.06368 1.07078 0.56312
 H907 H 0.08386 1.02160 0.55966
 H908 H 0.05546 0.93109 0.51532
 H909 H -0.06334 1.09872 0.54931
 H910 H -0.06353 1.00253 0.59135
 H911 H 0.04710 1.03528 0.42166
 H912 H 0.05189 0.94033 0.46755
 Zr913 Zr 0.72969 0.27272 0.20376
 O914 O 0.74647 0.30215 0.17321
 O915 O 0.68764 0.26487 0.18769
 O916 O 0.73345 0.25236 0.16383
 O917 O 0.71290 0.32719 0.25189
 O918 O 0.75439 0.20728 0.17406
 O919 O 0.70848 0.31492 0.20549
 O920 O 0.67060 0.22950 0.21755
 O921 O 0.72376 0.22802 0.21263
 O922 O 0.70584 0.27047 0.24140
 O923 O 0.77218 0.25331 0.20624
 O924 O 0.75526 0.29465 0.23392
 Zr925 Zr 0.76773 0.22676 0.28517
 Zr926 Zr 0.76573 0.20912 0.21708
 Zr927 Zr 0.73200 0.29008 0.27188
 Zr928 Zr 0.70133 0.22602 0.25082
 O929 O 0.75338 0.32870 0.28443
 O930 O 0.69007 0.18309 0.23812
 O931 O 0.72514 0.24606 0.28320
 O932 O 0.74253 0.20495 0.25499
 O933 O 0.79192 0.22856 0.24764
 O934 O 0.77398 0.27129 0.27623
 C935 C 0.66892 0.24553 0.19499
 C936 C 0.70477 0.33282 0.22631
 C937 C 0.74254 0.22630 0.15692
 O938 O 0.74616 0.16830 0.20882
 O939 O 0.79073 0.17502 0.23646
 O940 O 0.79071 0.18590 0.28342
 C941 C 0.79785 0.16949 0.26236
 O942 O 0.80413 0.30436 0.20554
 Zr943 Zr 0.79654 0.27306 0.23821
 O944 O 0.81048 0.23191 0.29980
 O945 O 0.80476 0.20304 0.19343
 O946 O 0.83216 0.25644 0.21382
 O947 O 0.81119 0.31281 0.25595
 O948 O 0.83118 0.26143 0.26648
 C949 C 0.83231 0.24543 0.28912
 O950 O 0.75090 0.19661 0.31505
 O951 O 0.69077 0.29830 0.29120
 O952 O 0.76295 0.24599 0.32544
 O953 O 0.73717 0.28869 0.31604
 O954 O 0.66209 0.24340 0.26895
 O955 O 0.69183 0.20134 0.28791
 C956 C 0.75010 0.27022 0.33307
 H957 H 0.68627 0.28036 0.23979
 H958 H 0.74013 0.18406 0.26045
 H959 H 0.78517 0.28133 0.29112
 H960 H 0.78257 0.25515 0.18798
 H961 H 0.66848 0.18156 0.23998
 H962 H 0.75983 0.15712 0.19641
 H963 H 0.80402 0.18314 0.18512
 H964 H 0.84974 0.26768 0.21897
 H965 H 0.64598 0.23045 0.26323
 H966 H 0.69178 0.31785 0.30020
 H967 H 0.73945 0.33989 0.29658
 H968 H 0.83279 0.31315 0.25348
 H969 H 0.67195 0.19314 0.28630
 H970 H 0.76670 0.19233 0.32910
 H971 H 0.73064 0.30605 0.15911
 H972 H 0.82511 0.30960 0.20560
 Zr973 Zr 0.75988 0.72597 0.71148
 O974 O 0.74123 0.69813 0.68102
 O975 O 0.80308 0.72915 0.69708
 O976 O 0.75898 0.74700 0.67139
 O977 O 0.77517 0.67142 0.76094
 O978 O 0.73790 0.79213 0.68015
 O979 O 0.77910 0.68301 0.71414
 O980 O 0.82259 0.76343 0.72620
 O981 O 0.76782 0.77042 0.71917
 O982 O 0.78352 0.72747 0.74934
 O983 O 0.71824 0.74716 0.71307
 O984 O 0.73334 0.70509 0.74176
 Zr985 Zr 0.72304 0.77357 0.79165
 Zr986 Zr 0.72643 0.79101 0.72315
 Zr987 Zr 0.75659 0.70901 0.77984
 Zr988 Zr 0.79012 0.77161 0.75751
 O989 O 0.73329 0.67148 0.79273
 O990 O 0.80280 0.81300 0.74117
 O991 O 0.76507 0.75281 0.79011
 O992 O 0.74956 0.79413 0.76126
 O993 O 0.69916 0.77269 0.75378
 O994 O 0.71527 0.72932 0.78349
 C995 C 0.82386 0.74586 0.70491
 C996 C 0.78320 0.66553 0.73553
 C997 C 0.75044 0.77317 0.66376
 O998 O 0.74757 0.83099 0.71413
 O999 O 0.70311 0.82652 0.74156
 O1000 O 0.70128 0.81519 0.78859
 C1001 C 0.69559 0.83221 0.76720
 O1002 O 0.68426 0.69762 0.71281
 Zr1003 Zr 0.69291 0.72840 0.74515
 O1004 O 0.67986 0.76946 0.80619
 O1005 O 0.68759 0.79857 0.69922
 O1006 O 0.65802 0.74650 0.72021
 O1007 O 0.67670 0.68917 0.76329
 O1008 O 0.65852 0.74091 0.77286
 C1009 C 0.65771 0.75655 0.79545
 O1010 O 0.74056 0.80334 0.82103
 O1011 O 0.79727 0.69892 0.79996
 O1012 O 0.72760 0.75418 0.83244
 O1013 O 0.75232 0.71092 0.82386
 O1014 O 0.82757 0.75359 0.77884
 O1015 O 0.80078 0.79811 0.79268
 C1016 C 0.74029 0.72981 0.84058
 H1017 H 0.80268 0.71671 0.74863
 H1018 H 0.75280 0.81491 0.76627
 H1019 H 0.70376 0.71969 0.79852
 H1020 H 0.70798 0.74576 0.69467
 H1021 H 0.82451 0.81366 0.74251
 H1022 H 0.73452 0.84246 0.70106
 H1023 H 0.68918 0.81832 0.69038
 H1024 H 0.63999 0.73590 0.72528
 H1025 H 0.84469 0.76514 0.77285
 H1026 H 0.79545 0.67936 0.80916
 H1027 H 0.74663 0.65971 0.80528
 H1028 H 0.65511 0.68954 0.76046
 H1029 H 0.82049 0.80639 0.78987
 H1030 H 0.72480 0.80805 0.83483
 H1031 H 0.75698 0.69309 0.66732
 H1032 H 0.66306 0.69322 0.71272
 Zr1033 Zr 0.22779 0.23853 0.78288
 O1034 O 0.24360 0.21232 0.81715
 O1035 O 0.18459 0.24841 0.79513
 O1036 O 0.22662 0.26328 0.82023
 O1037 O 0.21348 0.18039 0.73895
 O1038 O 0.25094 0.30520 0.80912
 O1039 O 0.20692 0.19722 0.78378
 O1040 O 0.16698 0.27873 0.75989
 O1041 O 0.22218 0.28260 0.77014
 O1042 O 0.20623 0.23818 0.74389
 O1043 O 0.27025 0.25589 0.78165
 O1044 O 0.25512 0.21256 0.75663
 Zr1045 Zr 0.27040 0.27483 0.70072
 Zr1046 Zr 0.26452 0.29931 0.76677
 Zr1047 Zr 0.23409 0.21453 0.71713
 Zr1048 Zr 0.20194 0.28182 0.73069
 O1049 O 0.25662 0.17409 0.70943
 O1050 O 0.18948 0.32530 0.74237
 O1051 O 0.22779 0.25772 0.70181
 O1052 O 0.24341 0.30058 0.72731
 O1053 O 0.29242 0.27569 0.73962
 O1054 O 0.27618 0.23101 0.71377
 C1055 C 0.16453 0.26504 0.78368
 C1056 C 0.20384 0.17773 0.76436
 C1057 C 0.23613 0.28894 0.82615
 O1058 O 0.24454 0.34168 0.77031
 O1059 O 0.29094 0.33046 0.74586
 O1060 O 0.29319 0.31453 0.70028
 C1061 C 0.29937 0.33278 0.71991
 O1062 O 0.30232 0.20396 0.78903
 Zr1063 Zr 0.29650 0.23200 0.75313
 O1064 O 0.31387 0.26566 0.68877
 O1065 O 0.30215 0.30575 0.79210
 O1066 O 0.33073 0.24968 0.77770
 O1067 O 0.31220 0.18985 0.74035
 O1068 O 0.33255 0.23860 0.72584
 C1069 C 0.33493 0.25188 0.70178
 O1070 O 0.25539 0.30313 0.66759
 O1071 O 0.19423 0.20575 0.69603
 O1072 O 0.26718 0.25256 0.66188
 O1073 O 0.24113 0.21201 0.67345
 O1074 O 0.16545 0.26515 0.70857
 O1075 O 0.19493 0.30594 0.69246
 C1076 C 0.25446 0.22848 0.65559
 H1077 H 0.18669 0.22915 0.74477
 H1078 H 0.24127 0.32101 0.71997
 H1079 H 0.28808 0.21905 0.70045
 H1080 H 0.27936 0.25531 0.80068
 H1081 H 0.16802 0.32764 0.73917
 H1082 H 0.25741 0.35320 0.78272
 H1083 H 0.30095 0.32642 0.79858
 H1084 H 0.34860 0.23723 0.77464
 H1085 H 0.14851 0.27884 0.71180
 H1086 H 0.19601 0.18536 0.68887
 H1087 H 0.24358 0.16234 0.69738
 H1088 H 0.33358 0.18872 0.74435
 H1089 H 0.17555 0.31632 0.69314
 H1090 H 0.27188 0.30529 0.65412
 H1091 H 0.22697 0.21004 0.83042
 H1092 H 0.32334 0.19812 0.79092
 Zr1093 Zr 0.28777 0.76333 0.28878
 O1094 O 0.27331 0.78721 0.32456
 O1095 O 0.33061 0.75009 0.30064
 O1096 O 0.28723 0.73581 0.32474
 O1097 O 0.30249 0.82456 0.24864
 O1098 O 0.26079 0.69623 0.31118
 O1099 O 0.30963 0.80408 0.29227
 O1100 O 0.34525 0.71961 0.26502
 O1101 O 0.29128 0.72021 0.27356
 O1102 O 0.30948 0.76576 0.25011
 O1103 O 0.24446 0.74807 0.28604
 O1104 O 0.26145 0.79230 0.26376
 Zr1105 Zr 0.24356 0.73555 0.20408
 Zr1106 Zr 0.24832 0.70574 0.26889
 Zr1107 Zr 0.28248 0.79247 0.22450
 Zr1108 Zr 0.31162 0.72313 0.23438
 O1109 O 0.26121 0.83385 0.21728
 O1110 O 0.32181 0.67785 0.24153
 O1111 O 0.28694 0.75050 0.20680
 O1112 O 0.26938 0.70665 0.22954
 O1113 O 0.22160 0.73258 0.24283
 O1114 O 0.23956 0.77838 0.21941
 C1115 C 0.34878 0.73156 0.28928
 C1116 C 0.31219 0.82531 0.27413
 C1117 C 0.27615 0.71043 0.32925
 O1118 O 0.26694 0.66262 0.27083
 O1119 O 0.22146 0.67706 0.24588
 O1120 O 0.21964 0.69667 0.20126
 C1121 C 0.21306 0.67703 0.21979
 O1122 O 0.21477 0.80118 0.29556
 Zr1123 Zr 0.21926 0.77519 0.25864
 O1124 O 0.19981 0.74612 0.19319
 O1125 O 0.20986 0.69893 0.29282
 O1126 O 0.18444 0.75789 0.28283
 O1127 O 0.20546 0.81860 0.24706
 O1128 O 0.18256 0.77106 0.23161
 C1129 C 0.17914 0.75887 0.20740
 O1130 O 0.25691 0.70958 0.16922
 O1131 O 0.32344 0.80190 0.20579
 O1132 O 0.24904 0.76084 0.16654
 O1133 O 0.27808 0.79801 0.18093
 O1134 O 0.34972 0.74037 0.21532
 O1135 O 0.31793 0.70346 0.19421
 C1136 C 0.26454 0.78377 0.16180
 H1137 H 0.32937 0.77389 0.25194
 H1138 H 0.27076 0.68681 0.22110
 H1139 H 0.22822 0.79161 0.20643
 H1140 H 0.23522 0.74758 0.30494
 H1141 H 0.34314 0.67477 0.23811
 H1142 H 0.25341 0.65062 0.28225
 H1143 H 0.21022 0.67785 0.29838
 H1144 H 0.16717 0.77141 0.28043
 H1145 H 0.36585 0.72555 0.21803
 H1146 H 0.32253 0.82288 0.19982
 H1147 H 0.27509 0.84608 0.20651
 H1148 H 0.18407 0.82035 0.25071
 H1149 H 0.33734 0.69313 0.19378
 H1150 H 0.24024 0.70958 0.15564
 H1151 H 0.29012 0.78767 0.33793
 H1152 H 0.19422 0.80869 0.29709
 Zr1153 Zr 0.19796 0.76735 0.70778
 O1154 O 0.21375 0.79407 0.67451
 O1155 O 0.15406 0.76130 0.69569
 O1156 O 0.19568 0.74510 0.66903
 O1157 O 0.18781 0.82419 0.75464
 O1158 O 0.21938 0.70111 0.67800
 O1159 O 0.17914 0.81053 0.70921
 O1160 O 0.13653 0.73072 0.72995
 O1161 O 0.19153 0.72310 0.71821
 O1162 O 0.17716 0.76706 0.74704
 O1163 O 0.24013 0.74702 0.70787
 O1164 O 0.22656 0.78939 0.73521
 Zr1165 Zr 0.24101 0.72260 0.78750
 Zr1166 Zr 0.23353 0.70330 0.72025
 Zr1167 Zr 0.20617 0.78675 0.77474
 Zr1168 Zr 0.17207 0.72298 0.75794
 O1169 O 0.23005 0.82457 0.78513
 O1170 O 0.15813 0.68145 0.74376
 O1171 O 0.19899 0.74320 0.78766
 O1172 O 0.21302 0.70076 0.75974
 O1173 O 0.26244 0.72285 0.74844
 O1174 O 0.24774 0.76677 0.77711
 C1175 C 0.13381 0.74577 0.70690
 C1176 C 0.17827 0.82940 0.72943
 C1177 C 0.20484 0.71924 0.66182
 O1178 O 0.21259 0.66268 0.71478
 O1179 O 0.26020 0.66944 0.73837
 O1180 O 0.26441 0.68200 0.78474
 C1181 C 0.27002 0.66502 0.76368
 O1182 O 0.27440 0.79618 0.70306
 Zr1183 Zr 0.26753 0.76688 0.73756
 O1184 O 0.28432 0.72904 0.80048
 O1185 O 0.27028 0.69569 0.69376
 O1186 O 0.30106 0.74775 0.71214
 O1187 O 0.28365 0.80732 0.75243
 O1188 O 0.30363 0.75636 0.76463
 C1189 C 0.30566 0.74199 0.78825
 O1190 O 0.22714 0.69191 0.81837
 O1191 O 0.16660 0.79762 0.79605
 O1192 O 0.23567 0.74146 0.82784
 O1193 O 0.21349 0.78615 0.81843
 O1194 O 0.13665 0.74093 0.78176
 O1195 O 0.16536 0.69702 0.79485
 C1196 C 0.22456 0.76652 0.83533
 H1197 H 0.15798 0.77783 0.74684
 H1198 H 0.21064 0.68005 0.76582
 H1199 H 0.25983 0.77700 0.79120
 H1200 H 0.24903 0.74809 0.68883
 H1201 H 0.13675 0.68046 0.74738
 H1202 H 0.22486 0.65106 0.70145
 H1203 H 0.26849 0.67557 0.68613
 H1204 H 0.31936 0.75844 0.71591
 H1205 H 0.11933 0.72866 0.77827
 H1206 H 0.16897 0.81748 0.80410
 H1207 H 0.21737 0.83670 0.79770
 H1208 H 0.30512 0.80715 0.74901
 H1209 H 0.14584 0.68796 0.79380
 H1210 H 0.24378 0.68841 0.83168
 H1211 H 0.19691 0.79851 0.66168
 H1212 H 0.29555 0.80063 0.70185
 Zr1213 Zr 0.28520 0.23562 0.21437
 O1214 O 0.27023 0.20903 0.18108
 O1215 O 0.32883 0.24212 0.20297
 O1216 O 0.28813 0.25912 0.17575
 O1217 O 0.29879 0.17941 0.26261
 O1218 O 0.26240 0.30209 0.18351
 O1219 O 0.30544 0.19295 0.21662
 O1220 O 0.34297 0.27831 0.23285
 O1221 O 0.28996 0.28004 0.22426
 O1222 O 0.30615 0.23668 0.25366
 O1223 O 0.24252 0.25465 0.21355
 O1224 O 0.25762 0.21237 0.24197
 Zr1225 Zr 0.24057 0.27828 0.29324
 Zr1226 Zr 0.24758 0.29852 0.22560
 Zr1227 Zr 0.27797 0.21580 0.28159
 Zr1228 Zr 0.30957 0.28091 0.26389
 O1229 O 0.25584 0.17676 0.29206
 O1230 O 0.32119 0.32429 0.25232
 O1231 O 0.28347 0.25952 0.29405
 O1232 O 0.26779 0.30140 0.26533
 O1233 O 0.21946 0.27769 0.25384
 O1234 O 0.23557 0.23404 0.28304
 C1235 C 0.34676 0.26168 0.21114
 C1236 C 0.30820 0.17448 0.23745
 C1237 C 0.27852 0.28493 0.16809
 O1238 O 0.26707 0.33994 0.21976
 O1239 O 0.22037 0.33153 0.24348
 O1240 O 0.21624 0.31853 0.28999
 C1241 C 0.21057 0.33571 0.26869
 O1242 O 0.21137 0.20315 0.20984
 Zr1243 Zr 0.21595 0.23357 0.24332
 O1244 O 0.19708 0.27159 0.30492
 O1245 O 0.21055 0.30487 0.19890
 O1246 O 0.18233 0.25070 0.21626
 O1247 O 0.19993 0.19330 0.25935
 O1248 O 0.17905 0.24432 0.26880
 C1249 C 0.17619 0.25891 0.29195
 O1250 O 0.25458 0.30794 0.32445
 O1251 O 0.31780 0.20698 0.30366
 O1252 O 0.24294 0.25740 0.33358
 O1253 O 0.27031 0.21569 0.32522
 O1254 O 0.34739 0.26332 0.28493
 O1255 O 0.31616 0.30471 0.30173
 C1256 C 0.25599 0.23318 0.34170
 H1257 H 0.32579 0.22681 0.25350
 H1258 H 0.26943 0.32213 0.27130
 H1259 H 0.22346 0.22333 0.29690
 H1260 H 0.23388 0.25342 0.19438
 H1261 H 0.34263 0.32588 0.25550
 H1262 H 0.25430 0.35136 0.20642
 H1263 H 0.21165 0.32508 0.19099
 H1264 H 0.16447 0.23924 0.21989
 H1265 H 0.36383 0.27644 0.28043
 H1266 H 0.31635 0.18704 0.31215
 H1267 H 0.26896 0.16514 0.30495
 H1268 H 0.17863 0.19302 0.25502
 H1269 H 0.33595 0.31325 0.30154
 H1270 H 0.23775 0.31132 0.33739
 H1271 H 0.28726 0.20535 0.16846
 H1272 H 0.19047 0.19790 0.20801
 Zr1273 Zr 0.72513 0.73504 0.28850
 O1274 O 0.73979 0.70586 0.32103
 O1275 O 0.68220 0.74609 0.30144
 O1276 O 0.72524 0.75699 0.32764
 O1277 O 0.70891 0.68092 0.24074
 O1278 O 0.75130 0.79840 0.31915
 O1279 O 0.70326 0.69437 0.28673
 O1280 O 0.66729 0.78157 0.26967
 O1281 O 0.72123 0.77996 0.27871
 O1282 O 0.70338 0.73849 0.24964
 O1283 O 0.76841 0.75047 0.28808
 O1284 O 0.75157 0.71036 0.26023
 Zr1285 Zr 0.76888 0.77601 0.20845
 Zr1286 Zr 0.76410 0.79493 0.27644
 Zr1287 Zr 0.73031 0.71599 0.22113
 Zr1288 Zr 0.70096 0.78309 0.23927
 O1289 O 0.75125 0.67550 0.21042
 O1290 O 0.69048 0.82676 0.25196
 O1291 O 0.72564 0.76033 0.20865
 O1292 O 0.74308 0.80042 0.23716
 O1293 O 0.79104 0.77288 0.24731
 O1294 O 0.77305 0.73116 0.21842
 C1295 C 0.66386 0.76600 0.29220
 C1296 C 0.69968 0.67644 0.26606
 C1297 C 0.73593 0.78171 0.33523
 O1298 O 0.74564 0.83751 0.28307
 O1299 O 0.79150 0.82615 0.25805
 O1300 O 0.79375 0.81469 0.21124
 C1301 C 0.80048 0.83061 0.23264
 O1302 O 0.79924 0.69702 0.29094
 Zr1303 Zr 0.79381 0.72830 0.25753
 O1304 O 0.81170 0.76633 0.19533
 O1305 O 0.80209 0.79796 0.30203
 O1306 O 0.82862 0.74270 0.28342
 O1307 O 0.80788 0.68700 0.24121
 O1308 O 0.83015 0.73656 0.23061
 C1309 C 0.83263 0.75148 0.20737
 O1310 O 0.75487 0.80743 0.17763
 O1311 O 0.68984 0.71045 0.19991
 O1312 O 0.76434 0.75641 0.16812
 O1313 O 0.73687 0.71617 0.17736
 O1314 O 0.66290 0.76892 0.21789
 O1315 O 0.69466 0.80888 0.20194
 C1316 C 0.75074 0.73317 0.16043
 H1317 H 0.68348 0.73021 0.25021
 H1318 H 0.74176 0.82141 0.23137
 H1319 H 0.78444 0.71986 0.20420
 H1320 H 0.77762 0.74808 0.30697
 H1321 H 0.66914 0.83022 0.24874
 H1322 H 0.75910 0.84770 0.29601
 H1323 H 0.80179 0.81809 0.30994
 H1324 H 0.84618 0.73022 0.27914
 H1325 H 0.64675 0.78321 0.22219
 H1326 H 0.69065 0.69057 0.19147
 H1327 H 0.73761 0.66512 0.19781
 H1328 H 0.82936 0.68505 0.24445
 H1329 H 0.67519 0.81907 0.20256
 H1330 H 0.77140 0.80978 0.16425
 H1331 H 0.72307 0.70342 0.33418
 H1332 H 0.82009 0.69029 0.29197
 Zr1333 Zr 0.79960 0.26239 0.78371
 O1334 O 0.78328 0.28978 0.81637
 O1335 O 0.84359 0.25557 0.79557
 O1336 O 0.80250 0.24035 0.82289
 O1337 O 0.80975 0.31853 0.73588
 O1338 O 0.77913 0.19727 0.81524
 O1339 O 0.81773 0.30470 0.78174
 O1340 O 0.86014 0.22069 0.76467
 O1341 O 0.80683 0.21791 0.77420
 O1342 O 0.82039 0.26133 0.74446
 O1343 O 0.75794 0.24335 0.78455
 O1344 O 0.77065 0.28555 0.75608
 Zr1345 Zr 0.75690 0.21932 0.70521
 Zr1346 Zr 0.76532 0.19946 0.77279
 Zr1347 Zr 0.79093 0.28209 0.71648
 Zr1348 Zr 0.82613 0.21708 0.73442
 O1349 O 0.76688 0.32117 0.70594
 O1350 O 0.84033 0.17401 0.74675
 O1351 O 0.79873 0.23831 0.70421
 O1352 O 0.78549 0.19639 0.73314
 O1353 O 0.73594 0.22012 0.74453
 O1354 O 0.74953 0.26362 0.71518
 C1355 C 0.86300 0.23688 0.78670
 C1356 C 0.81897 0.32333 0.76114
 C1357 C 0.79337 0.21508 0.83090
 O1358 O 0.78755 0.15847 0.77921
 O1359 O 0.73970 0.16627 0.75523
 O1360 O 0.73488 0.17903 0.70865
 C1361 C 0.72989 0.16212 0.73005
 O1362 O 0.72421 0.29500 0.78804
 Zr1363 Zr 0.73012 0.26427 0.75483
 O1364 O 0.71296 0.22580 0.69348
 O1365 O 0.72853 0.19262 0.79908
 O1366 O 0.69762 0.24744 0.78217
 O1367 O 0.71176 0.30426 0.73837
 O1368 O 0.69368 0.25288 0.72969
 C1369 C 0.69145 0.23824 0.70660
 O1370 O 0.77239 0.18961 0.67411
 O1371 O 0.83002 0.29091 0.69421
 O1372 O 0.75770 0.23978 0.66486
 O1373 O 0.78213 0.28212 0.67294
 O1374 O 0.86252 0.23454 0.71262
 O1375 O 0.83354 0.19266 0.69692
 C1376 C 0.76857 0.26436 0.65669
 H1377 H 0.83950 0.27126 0.74459
 H1378 H 0.78821 0.17563 0.72729
 H1379 H 0.73667 0.27419 0.70133
 H1380 H 0.74918 0.24475 0.80363
 H1381 H 0.86180 0.17245 0.74343
 H1382 H 0.77554 0.14710 0.79269
 H1383 H 0.73098 0.17256 0.80731
 H1384 H 0.67914 0.25887 0.77849
 H1385 H 0.87977 0.22148 0.71689
 H1386 H 0.82744 0.31088 0.68584
 H1387 H 0.77943 0.33282 0.69317
 H1388 H 0.69046 0.30445 0.74268
 H1389 H 0.85371 0.18395 0.69725
 H1390 H 0.75564 0.18591 0.66128
 H1391 H 0.79996 0.29359 0.82927
 H1392 H 0.70309 0.30043 0.78972
 C1393 C 0.42449 1.03246 0.33708
 C1394 C 0.44504 1.01246 0.34545
 C1395 C 0.45681 1.01432 0.37444
 C1396 C 0.47934 0.99759 0.38429
 H1397 H 0.45267 0.99484 0.33192
 H1398 H 0.44576 1.02957 0.38862
 H1399 H 0.41953 1.05033 0.35153
 H1400 H 0.49134 0.98291 0.37030
 C1401 C -0.08707 0.53125 0.83401
 C1402 C -0.06562 0.51202 0.84198
 C1403 C -0.05431 0.51344 0.87125
 C1404 C -0.03067 0.49807 0.88070
 H1405 H -0.05661 0.49566 0.82777
 H1406 H -0.06620 0.52769 0.88577
 H1407 H -0.09363 0.54775 0.84938
 H1408 H -0.01808 0.48426 0.86638
 C1409 C 0.08302 -0.02734 0.83377
 C1410 C 0.05745 -0.01425 0.84087
 C1411 C 0.04665 -0.01840 0.86994
 C1412 C 0.02075 -0.00777 0.87928
 H1413 H 0.04468 -0.00137 0.82562
 H1414 H 0.06104 -0.03050 0.88448
 H1415 H 0.09433 -0.04110 0.84944
 H1416 H 0.00621 0.00467 0.86517
 C1417 C 0.59266 0.46801 0.33252
 C1418 C 0.56633 0.47984 0.33898
 C1419 C 0.55470 0.47585 0.36782
 C1420 C 0.52779 0.48533 0.37535
 H1421 H 0.55322 0.49150 0.32312
 H1422 H 0.56878 0.46484 0.38338
 H1423 H 0.60444 0.45531 0.34867
 H1424 H 0.51372 0.49660 0.35998
 C1425 C 0.58377 0.53797 0.16629
 C1426 C 0.56094 0.52142 0.15936
 C1427 C 0.55074 0.52199 0.12972
 C1428 C 0.52666 0.50852 0.12060
 H1429 H 0.55010 0.50796 0.17498
 H1430 H 0.56395 0.53390 0.11462
 H1431 H 0.59292 0.55204 0.15005
 H1432 H 0.51295 0.49686 0.13541
 C1433 C 0.07480 1.04961 0.67370
 C1434 C 0.05474 1.03035 0.66527
 C1435 C 0.04327 1.03263 0.63615
 C1436 C 0.02213 1.01552 0.62625
 H1437 H 0.04751 1.01263 0.67874
 H1438 H 0.05340 1.04828 0.62197
 H1439 H 0.07966 1.06744 0.65913
 H1440 H 0.01107 1.00046 0.64030
 C1441 C -0.09928 0.48422 0.66071
 C1442 C -0.07596 0.49955 0.65287
 C1443 C -0.06866 0.50108 0.62262
 C1444 C -0.04300 0.51078 0.61314
 H1445 H -0.06153 0.50892 0.66846
 H1446 H -0.08433 0.49240 0.60774
 H1447 H -0.11215 0.47376 0.64446
 H1448 H -0.02718 0.51955 0.62780
 C1449 C 0.41117 -0.03038 0.17129
 C1450 C 0.43553 -0.01658 0.16369
 C1451 C 0.44466 -0.01719 0.13388
 C1452 C 0.47074 -0.00766 0.12527
 H1453 H 0.44912 -0.00617 0.17934
 H1454 H 0.42964 -0.02627 0.11862
 H1455 H 0.39904 -0.04207 0.15531
 H1456 H 0.48589 0.00139 0.14041
 C1457 C 0.34235 0.40201 0.02648
 C1458 C 0.34611 0.42441 0.00811
 C1459 C 0.37363 0.44042 0.00395
 C1460 C 0.39397 0.44468 0.02394
 H1461 H 0.32845 0.43132 -0.00593
 H1462 H 0.37609 0.45082 -0.01658
 H1463 H 0.36001 0.39557 0.04080
 H1464 H 0.39092 0.43603 0.04510
 C1465 C -0.16043 0.91085 0.53505
 C1466 C -0.14185 0.91902 0.55569
 C1467 C -0.11667 0.93874 0.55139
 C1468 C -0.11325 0.95625 0.52873
 H1469 H -0.14391 0.91071 0.57697
 H1470 H -0.10025 0.93870 0.56802
 H1471 H -0.15686 0.91912 0.51387
 H1472 H -0.12951 0.95707 0.51204
 C1473 C -0.15626 0.10566 0.98277
 C1474 C -0.15290 0.08356 1.00156
 C1475 C -0.12580 0.06527 1.00445
 C1476 C -0.10740 0.05914 0.98303
 H1477 H -0.17055 0.07811 1.01574
 H1478 H -0.12227 0.05472 1.02485
 H1479 H -0.13820 0.11086 0.96888
 H1480 H -0.11175 0.06803 0.96208
 C1481 C 0.32559 0.59461 0.48243
 C1482 C 0.34293 0.57898 0.46517
 C1483 C 0.36809 0.56136 0.47632
 C1484 C 0.38575 0.54670 0.45865
 H1485 H 0.33787 0.57788 0.44284
 H1486 H 0.37210 0.56028 0.49891
 H1487 H 0.33054 0.59427 0.50488
 H1488 H 0.38193 0.54877 0.43607
 C1489 C 0.14601 0.60381 0.51852
 C1490 C 0.14253 0.58136 0.50070
 C1491 C 0.11490 0.56576 0.49676
 C1492 C 0.09402 0.56333 0.51651
 H1493 H 0.16062 0.57365 0.48777
 H1494 H 0.11284 0.55412 0.47700
 H1495 H 0.12783 0.61118 0.53159
 H1496 H 0.09657 0.57335 0.53700
 C1497 C 0.66859 0.09376 0.01304
 C1498 C 0.65170 0.07846 0.03053
 C1499 C 0.62748 0.06084 0.01961
 C1500 C 0.61012 0.04675 0.03758
 H1501 H 0.65580 0.07860 0.05308
 H1502 H 0.62326 0.06020 -0.00294
 H1503 H 0.66488 0.09216 -0.00955
 H1504 H 0.61428 0.04832 0.06010
 C1505 C 0.67142 0.89627 0.47880
 C1506 C 0.66507 0.91615 0.49895
 C1507 C 0.63615 0.93112 0.50303
 C1508 C 0.61602 0.93616 0.48267
 H1509 H 0.68158 0.92190 0.51420
 H1510 H 0.63232 0.94006 0.52388
 H1511 H 0.65471 0.89091 0.46348
 H1512 H 0.62022 0.92885 0.46133
 C1513 C 0.16691 0.40167 0.96912
 C1514 C 0.16063 0.42125 0.98947
 C1515 C 0.13163 0.43567 0.99415
 C1516 C 0.11029 0.43896 0.97467
 H1517 H 0.17745 0.42732 1.00433
 H1518 H 0.12866 0.44559 1.01471
 H1519 H 0.15016 0.39606 0.95395
 H1520 H 0.11341 0.43063 0.95351
 C1521 C 0.02261 0.35032 0.37824
 C1522 C 0.01032 0.35218 0.40382
 C1523 C 0.00430 0.38061 0.41728
 C1524 C -0.00029 0.38193 0.44509
 H1525 H 0.00530 0.33230 0.41551
 H1526 H 0.00461 0.40063 0.40462
 H1527 H 0.02987 0.37005 0.36756
 H1528 H 0.00177 0.36217 0.45804
 C1529 C 0.50794 -0.17364 -0.09338
 C1530 C 0.53015 -0.16409 -0.07746
 C1531 C 0.52684 -0.14013 -0.05668
 C1532 C 0.50572 -0.11915 -0.05862
 H1533 H 0.55166 -0.17465 -0.07895
 H1534 H 0.54383 -0.13854 -0.04073
 H1535 H 0.48579 -0.16532 -0.08982
 H1536 H 0.48997 -0.11937 -0.07578
 C1537 C -0.02118 -0.17958 1.09873
 C1538 C -0.04337 -0.16575 1.08485
 C1539 C -0.03900 -0.14185 1.06378
 C1540 C -0.01446 -0.12619 1.06236
 H1541 H -0.06567 -0.17277 1.08801
 H1542 H -0.05746 -0.13589 1.05022
 H1543 H 0.00125 -0.17446 1.09359
 H1544 H 0.00331 -0.13040 1.07717
 C1545 C 0.49474 0.32417 0.61381
 C1546 C 0.47777 0.33339 0.59233
 C1547 C 0.48563 0.35916 0.57536
 C1548 C 0.47223 0.36505 0.55075
 H1549 H 0.45844 0.32123 0.58668
 H1550 H 0.50244 0.37349 0.58323
 H1551 H 0.51525 0.33495 0.61808
 H1552 H 0.45580 0.35028 0.54288
 C1553 C 0.54863 1.15684 0.60533
 C1554 C 0.52397 1.14511 0.59569
 C1555 C 0.52498 1.12122 0.57498
 C1556 C 0.50120 1.10542 0.57032
 H1557 H 0.50279 1.15224 0.60385
 H1558 H 0.54554 1.11558 0.56457
 H1559 H 0.56964 1.14792 0.59822
 H1560 H 0.48129 1.11004 0.58218
 C1561 C 0.02813 0.65272 1.10801
 C1562 C 0.00109 0.64237 1.10352
 C1563 C -0.00405 0.61651 1.08588
 C1564 C 0.01030 0.61198 1.06159
 H1565 H -0.01799 0.65167 1.11399
 H1566 H -0.02131 0.60193 1.09234
 H1567 H 0.04677 0.63993 1.10013
 H1568 H 0.02626 0.62770 1.05443
 C1569 C 0.45052 0.66811 -0.10355
 C1570 C 0.47493 0.65808 -0.09035
 C1571 C 0.47427 0.63223 -0.07152
 C1572 C 0.49889 0.61664 -0.06613
 H1573 H 0.49604 0.66769 -0.09417
 H1574 H 0.45349 0.62530 -0.06286
 H1575 H 0.43067 0.65565 -0.10081
 H1576 H 0.51917 0.62241 -0.07656
 C1577 C -0.01914 1.18426 0.40860
 C1578 C -0.04029 1.16984 0.42233
 C1579 C -0.03425 1.14648 0.44347
 C1580 C -0.01064 1.12835 0.44243
 H1581 H -0.06321 1.17596 0.41948
 H1582 H -0.05159 1.14220 0.45849
 H1583 H 0.00347 1.18031 0.41514
 H1584 H 0.00559 1.13095 0.42596
 C1585 C 0.77813 0.66908 0.91862
 C1586 C 0.75762 0.68921 0.91036
 C1587 C 0.75802 0.70011 0.88088
 C1588 C 0.74065 0.72224 0.87108
 H1589 H 0.74061 0.69723 0.92443
 H1590 H 0.77289 0.68892 0.86642
 H1591 H 0.79524 0.66358 0.90346
 H1592 H 0.72637 0.73438 0.88534
 C1593 C 0.28675 0.16683 0.41839
 C1594 C 0.26729 0.18804 0.41021
 C1595 C 0.27015 0.20094 0.38157
 C1596 C 0.25385 0.22390 0.37175
 H1597 H 0.24949 0.19548 0.42365
 H1598 H 0.28605 0.19048 0.36763
 H1599 H 0.30466 0.16188 0.40393
 H1600 H 0.23840 0.23522 0.38550
 C1601 C 0.72069 0.33407 0.41025
 C1602 C 0.73783 0.31122 0.40261
 C1603 C 0.73901 0.30323 0.37252
 C1604 C 0.75062 0.27769 0.36341
 H1605 H 0.74946 0.29789 0.41835
 H1606 H 0.72910 0.31862 0.35740
 H1607 H 0.70782 0.34575 0.39416
 H1608 H 0.76045 0.26210 0.37835
 C1609 C 0.23686 0.82952 0.91603
 C1610 C 0.22011 0.81110 0.90170
 C1611 C 0.22922 0.80057 0.87392
 C1612 C 0.22339 0.77346 0.86540
 H1613 H 0.19937 0.80382 0.91013
 H1614 H 0.23904 0.81612 0.85942
 H1615 H 0.25925 0.83254 0.90891
 H1616 H 0.21544 0.75713 0.88016
 C1617 C 0.27532 0.83314 0.07949
 C1618 C 0.29585 0.82735 0.09929
 C1619 C 0.29047 0.81216 0.12632
 C1620 C 0.26765 0.79503 0.13262
 H1621 H 0.31789 0.83522 0.09704
 H1622 H 0.30716 0.81565 0.14224
 H1623 H 0.25382 0.82387 0.08223
 H1624 H 0.25174 0.78913 0.11675
 C1625 C 0.77753 0.33830 0.58251
 C1626 C 0.76789 0.31150 0.58905
 C1627 C 0.77157 0.30063 0.61832
 C1628 C 0.76454 0.27350 0.62682
 H1629 H 0.75847 0.29759 0.57311
 H1630 H 0.78054 0.31571 0.63354
 H1631 H 0.78805 0.35085 0.59893
 H1632 H 0.75515 0.25831 0.61199
 C1633 C 0.22566 0.15966 0.58343
 C1634 C 0.24169 0.18317 0.58915
 C1635 C 0.24223 0.19393 0.61836
 C1636 C 0.25530 0.21871 0.62593
 H1637 H 0.25349 0.19461 0.57273
 H1638 H 0.23105 0.18102 0.63424
 H1639 H 0.21319 0.14985 0.60045
 H1640 H 0.26643 0.23192 0.61027
 C1641 C 0.71969 0.66778 0.08566
 C1642 C 0.73686 0.69034 0.09214
 C1643 C 0.73701 0.70089 0.12155
 C1644 C 0.75131 0.72470 0.13023
 H1645 H 0.75006 0.70098 0.07622
 H1646 H 0.72467 0.68830 0.13683
 H1647 H 0.70589 0.65882 0.10214
 H1648 H 0.76356 0.73771 0.11525
 C1649 C 0.15610 0.58730 0.23277
 C1650 C 0.16679 0.60790 0.21548
 C1651 C 0.18460 0.63186 0.22679
 C1652 C 0.19473 0.65290 0.20975
 H1653 H 0.16312 0.60712 0.19293
 H1654 H 0.18956 0.63218 0.24921
 H1655 H 0.16089 0.58893 0.25516
 H1656 H 0.18933 0.65253 0.18742
 C1657 C 0.66952 0.08527 0.72044
 C1658 C 0.68002 0.09594 0.74473
 C1659 C 0.70116 0.12015 0.74697
 C1660 C 0.71087 0.13670 0.72537
 H1661 H 0.67253 0.08720 0.76468
 H1662 H 0.70814 0.12513 0.76826
 H1663 H 0.67652 0.09458 0.70055
 H1664 H 0.70376 0.13286 0.70395
 C1665 C 0.85296 0.08662 0.27579
 C1666 C 0.84090 0.09646 0.25137
 C1667 C 0.82536 0.12514 0.24751
 C1668 C 0.81519 0.14231 0.26843
 H1669 H 0.84226 0.08364 0.23237
 H1670 H 0.82083 0.13148 0.22577
 H1671 H 0.85255 0.10115 0.29377
 H1672 H 0.81877 0.13628 0.29034
 C1673 C 0.33741 0.59114 0.77493
 C1674 C 0.32109 0.59684 0.75159
 C1675 C 0.30024 0.62228 0.74808
 C1676 C 0.28969 0.63916 0.76910
 H1677 H 0.32308 0.58315 0.73319
 H1678 H 0.29304 0.62693 0.72662
 H1679 H 0.33518 0.60608 0.79249
 H1680 H 0.29593 0.63465 0.79080
 C1681 C 0.36049 0.41903 0.73736
 C1682 C 0.34685 0.40138 0.71929
 C1683 C 0.33008 0.37595 0.72954
 C1684 C 0.31715 0.35806 0.71127
 H1685 H 0.34663 0.40641 0.69688
 H1686 H 0.32806 0.37205 0.75208
 H1687 H 0.35920 0.41404 0.75977
 H1688 H 0.32004 0.36181 0.68879
 C1689 C 0.85985 0.90911 0.22524
 C1690 C 0.84672 0.89842 0.24846
 C1691 C 0.83036 0.87082 0.25002
 C1692 C 0.81969 0.85597 0.22796
 H1693 H 0.84793 0.90968 0.26835
 H1694 H 0.82522 0.86362 0.27129
 H1695 H 0.86037 0.89565 0.20649
 H1696 H 0.82415 0.86277 0.20646
 C1697 C 0.64155 0.91702 0.77569
 C1698 C 0.66165 0.91021 0.75589
 C1699 C 0.67570 0.88081 0.75211
 C1700 C 0.67944 0.86031 0.77254
 H1701 H 0.66839 0.92672 0.74085
 H1702 H 0.68519 0.87690 0.73147
 H1703 H 0.63515 0.90028 0.79074
 H1704 H 0.67163 0.86451 0.79374
 C1705 C 0.14565 0.41317 0.27379
 C1706 C 0.16848 0.40961 0.25608
 C1707 C 0.18643 0.38225 0.25304
 C1708 C 0.19124 0.36194 0.27346
 H1709 H 0.17452 0.42737 0.24210
 H1710 H 0.19775 0.37991 0.23305
 H1711 H 0.13998 0.39529 0.28788
 H1712 H 0.18146 0.36477 0.29412
 C1713 C 0.10629 0.27421 0.86955
 C1714 C 0.10737 0.26847 0.84193
 C1715 C 0.13549 0.26633 0.82697
 C1716 C 0.13660 0.26846 0.79882
 H1717 H 0.08719 0.26556 0.83014
 H1718 H 0.15555 0.26313 0.83918
 H1719 H 0.12615 0.27946 0.88093
 H1720 H 0.11681 0.27364 0.78677
 C1721 C 0.59615 0.75245 0.37120
 C1722 C 0.60624 0.76897 0.35013
 C1723 C 0.63161 0.75924 0.33327
 C1724 C 0.63731 0.77260 0.30873
 H1725 H 0.59486 0.78950 0.34456
 H1726 H 0.64573 0.74138 0.34109
 H1727 H 0.60592 0.73083 0.37543
 H1728 H 0.62264 0.79012 0.30108
 C1729 C 0.59254 0.22742 0.13888
 C1730 C 0.60522 0.20837 0.15717
 C1731 C 0.62964 0.21555 0.17623
 C1732 C 0.64438 0.24076 0.17557
 H1733 H 0.59599 0.18681 0.16007
 H1734 H 0.63574 0.19867 0.19165
 H1735 H 0.60007 0.24971 0.13704
 H1736 H 0.64003 0.25745 0.15958
 C1737 C 0.07077 0.73198 0.62504
 C1738 C 0.07366 0.74201 0.65134
 C1739 C 0.10269 0.74465 0.66462
 C1740 C 0.10517 0.74503 0.69273
 H1741 H 0.05428 0.74712 0.66381
 H1742 H 0.12218 0.74494 0.65149
 H1743 H 0.09011 0.72456 0.61354
 H1744 H 0.08582 0.74236 0.70573
 C1745 C 0.90404 0.78965 0.65330
 C1746 C 0.89343 0.76515 0.66498
 C1747 C 0.86835 0.76701 0.68457
 C1748 C 0.85090 0.74412 0.68807
 H1749 H 0.90157 0.74353 0.65903
 H1750 H 0.86299 0.78776 0.69472
 H1751 H 0.89321 0.81039 0.65876
 H1752 H 0.85522 0.72417 0.67621
 C1753 C 0.42489 0.27466 0.15698
 C1754 C 0.41198 0.29573 0.17262
 C1755 C 0.38853 0.28988 0.19340
 C1756 C 0.37270 0.26540 0.19334
 H1757 H 0.41928 0.31816 0.17099
 H1758 H 0.38288 0.30740 0.20793
 H1759 H 0.41960 0.25186 0.16050
 H1760 H 0.37650 0.24863 0.17764
 C1761 C 0.41635 0.73288 0.36990
 C1762 C 0.40627 0.71948 0.34704
 C1763 C 0.38094 0.73169 0.33118
 C1764 C 0.37523 0.72223 0.30517
 H1765 H 0.41764 0.69990 0.33930
 H1766 H 0.36686 0.74830 0.34092
 H1767 H 0.40657 0.75372 0.37642
 H1768 H 0.38983 0.70594 0.29562
 C1769 C 0.94416 0.22398 0.83859
 C1770 C 0.93185 0.20342 0.82259
 C1771 C 0.90793 0.20989 0.80210
 C1772 C 0.88977 0.23348 0.80394
 H1773 H 0.93968 0.18077 0.82410
 H1774 H 0.90353 0.19306 0.78669
 H1775 H 0.93847 0.24700 0.83508
 H1776 H 0.89256 0.24932 0.82060
 C1777 C 0.59785 1.03313 0.66354
 C1778 C 0.57370 1.01771 0.65822
 C1779 C 0.56373 1.01438 0.62877
 C1780 C 0.53578 1.00925 0.62189
 H1781 H 0.56111 1.00787 0.67504
 H1782 H 0.57988 1.01670 0.61212
 H1783 H 0.60739 1.04494 0.64588
 H1784 H 0.51899 1.00908 0.63806
 C1785 C 0.10147 0.53006 1.15926
 C1786 C 0.07474 0.52041 1.15281
 C1787 C 0.06565 0.51714 1.12305
 C1788 C 0.03730 0.51588 1.11556
 H1789 H 0.05935 0.51536 1.16951
 H1790 H 0.08253 0.51623 1.10693
 H1791 H 0.11580 0.53720 1.14239
 H1792 H 0.02038 0.51863 1.13145
 C1793 C -0.08594 -0.01791 1.17050
 C1794 C -0.07225 -0.03623 1.15265
 C1795 C -0.05906 -0.02450 1.12676
 C1796 C -0.03645 -0.03830 1.11425
 H1797 H -0.06998 -0.05959 1.15716
 H1798 H -0.06860 -0.00452 1.11748
 H1799 H -0.08419 0.00557 1.16650
 H1800 H -0.02607 -0.05742 1.12433
 C1801 C 0.40626 0.48730 0.66637
 C1802 C 0.41492 0.46727 0.64717
 C1803 C 0.42574 0.47618 0.61891
 C1804 C 0.44435 0.45854 0.60466
 H1805 H 0.41565 0.44403 0.65237
 H1806 H 0.41890 0.49735 0.61003
 H1807 H 0.40901 0.51032 0.66091
 H1808 H 0.45253 0.43840 0.61473
 C1809 C 0.40304 0.53544 -0.16065
 C1810 C 0.43036 0.52542 -0.15479
 C1811 C 0.43982 0.52126 -0.12505
 C1812 C 0.46819 0.51948 -0.11730
 H1813 H 0.44569 0.52068 -0.17172
 H1814 H 0.42294 0.52034 -0.10896
 H1815 H 0.38887 0.54204 -0.14332
 H1816 H 0.48519 0.52222 -0.13302
 C1817 C -0.09730 1.01538 0.34010
 C1818 C -0.07713 1.03185 0.35240
 C1819 C -0.06551 1.02368 0.38043
 C1820 C -0.04147 1.03591 0.39097
 H1821 H -0.06917 1.05129 0.34170
 H1822 H -0.07723 1.00760 0.39284
 H1823 H -0.10361 0.99484 0.34993
 H1824 H -0.02917 1.05118 0.37816
 C1825 C 0.08766 0.48436 0.33293
 C1826 C 0.06687 0.46906 0.34592
 C1827 C 0.05475 0.47944 0.37302
 C1828 C 0.02956 0.46946 0.38351
 H1829 H 0.05848 0.44939 0.33631
 H1830 H 0.06680 0.49577 0.38456
 H1831 H 0.09428 0.50513 0.34174
 H1832 H 0.01705 0.45384 0.37153
 C1833 C 0.59405 -0.00676 -0.16241
 C1834 C 0.57528 -0.02321 -0.14783
 C1835 C 0.56461 -0.01421 -0.11970
 C1836 C 0.54094 -0.02645 -0.10823
 H1837 H 0.56752 -0.04346 -0.15682
 H1838 H 0.57647 0.00226 -0.10817
 H1839 H 0.60003 0.01451 -0.15432
 H1840 H 0.52856 -0.04196 -0.12048
 C1841 C 0.66049 0.60946 0.02229
 C1842 C 0.65149 0.59475 -0.00063
 C1843 C 0.62394 0.57816 0.00147
 C1844 C 0.60994 0.56611 -0.02048
 H1845 H 0.66379 0.59453 -0.02015
 H1846 H 0.61439 0.57617 0.02235
 H1847 H 0.64596 0.60923 0.04045
 H1848 H 0.61830 0.56874 -0.04174
 C1849 C 0.16877 1.09456 0.52338
 C1850 C 0.15287 1.08963 0.50014
 C1851 C 0.12582 1.07259 0.50316
 C1852 C 0.10525 1.07109 0.48296
 H1853 H 0.15843 1.09967 0.48007
 H1854 H 0.12182 1.06236 0.52355
 H1855 H 0.16136 1.08537 0.54331
 H1856 H 0.10891 1.08108 0.46243
 C1857 C 0.15823 -0.12386 0.97289
 C1858 C 0.14592 -0.11157 0.99577
 C1859 C 0.11657 -0.09735 0.99334
 C1860 C 0.10273 -0.08497 1.01533
 H1861 H 0.15750 -0.11069 1.01570
 H1862 H 0.10647 -0.09605 0.97256
 H1863 H 0.14507 -0.12487 0.95378
 H1864 H 0.11207 -0.08697 1.03637
 C1865 C 0.65039 0.37160 0.47851
 C1866 C 0.63908 0.38447 0.50169
 C1867 C 0.60901 0.39743 0.49946
 C1868 C 0.59448 0.41114 0.52038
 H1869 H 0.65175 0.38723 0.52080
 H1870 H 0.59862 0.39688 0.47880
 H1871 H 0.63558 0.36957 0.46062
 H1872 H 0.60326 0.41104 0.54168
 C1873 C -0.17843 0.40931 0.51733
 C1874 C -0.16372 0.41457 0.49342
 C1875 C -0.13906 0.43510 0.49443
 C1876 C -0.11857 0.43693 0.47422
 H1877 H -0.16815 0.40232 0.47440
 H1878 H -0.13642 0.44757 0.51367
 H1879 H -0.17198 0.42077 0.53631
 H1880 H -0.12082 0.42454 0.45491
 C1881 C 0.33476 -0.09665 0.02424
 C1882 C 0.34780 -0.08786 0.00031
 C1883 C 0.37415 -0.06980 0.00265
 C1884 C 0.39267 -0.06444 -0.01874
 H1885 H 0.34014 -0.09480 -0.02020
 H1886 H 0.37935 -0.06187 0.02357
 H1887 H 0.34437 -0.09038 0.04425
 H1888 H 0.38805 -0.07242 -0.03974
 C1889 C 0.33768 1.09254 0.47680
 C1890 C 0.34899 1.08221 0.50132
 C1891 C 0.37559 1.06286 0.50036
 C1892 C 0.39238 1.05562 0.52294
 H1893 H 0.33979 1.08885 0.52141
 H1894 H 0.38251 1.05552 0.47963
 H1895 H 0.34876 1.08644 0.45735
 H1896 H 0.38610 1.06308 0.54379
 C1897 C -0.16663 0.59914 0.97813
 C1898 C -0.15349 0.59008 1.00224
 C1899 C -0.12696 0.57068 1.00027
 C1900 C -0.10845 0.56452 1.02185
 H1901 H -0.16123 0.59772 1.02257
 H1902 H -0.12167 0.56219 0.97950
 H1903 H -0.15697 0.59202 0.95832
 H1904 H -0.11308 0.57311 1.04269
 C1905 C 0.00519 0.67339 0.56483
 C1906 C -0.01808 0.66794 0.54829
 C1907 C -0.02123 0.63939 0.53381
 C1908 C -0.01025 0.61426 0.54504
 H1909 H -0.03489 0.68471 0.54438
 H1910 H -0.03364 0.63904 0.51426
 H1911 H 0.02300 0.65715 0.56596
 H1912 H 0.00049 0.61459 0.56549
 C1913 C 0.52238 0.15777 0.09263
 C1914 C 0.53700 0.13254 0.09892
 C1915 C 0.52996 0.10369 0.08675
 C1916 C 0.51285 0.10026 0.06394
 H1917 H 0.55479 0.13238 0.11410
 H1918 H 0.54092 0.08461 0.09630
 H1919 H 0.50306 0.15742 0.07932
 H1920 H 0.50267 0.11903 0.05327
 C1921 C -0.00868 0.15659 0.91251
 C1922 C -0.01867 0.13108 0.90278
 C1923 C -0.01776 0.10290 0.91866
 C1924 C -0.00261 0.09761 0.94267
 H1925 H -0.02844 0.13031 0.88195
 H1926 H -0.03010 0.08536 0.90933
 H1927 H 0.00174 0.15738 0.93303
 H1928 H 0.01073 0.11432 0.95198
 C1929 C 0.47519 0.65269 0.41800
 C1930 C 0.49383 0.64504 0.43902
 C1931 C 0.49657 0.61516 0.45120
 C1932 C 0.48849 0.59099 0.43759
 H1933 H 0.50672 0.66161 0.44919
 H1934 H 0.50621 0.61321 0.47212
 H1935 H 0.45999 0.63688 0.40989
 H1936 H 0.47973 0.59249 0.41633
 C1937 C 0.53603 0.82733 0.42363
 C1938 C 0.51715 0.83280 0.44478
 C1939 C 0.51243 0.86178 0.45784
 C1940 C 0.51986 0.88726 0.44575
 H1941 H 0.50503 0.81500 0.45412
 H1942 H 0.50139 0.86187 0.47810
 H1943 H 0.55046 0.84426 0.41617
 H1944 H 0.53029 0.88772 0.42525
 C1945 C 0.03559 0.33054 0.92889
 C1946 C 0.01176 0.33479 0.94517
 C1947 C 0.00432 0.36362 0.95780
 C1948 C 0.01099 0.38907 0.94512
 H1949 H -0.00215 0.31670 0.95065
 H1950 H -0.00739 0.36372 0.97769
 H1951 H 0.05071 0.34838 0.92622
 H1952 H 0.02143 0.38891 0.92458
 C1953 C 0.47849 0.34001 0.08918
 C1954 C 0.49480 0.34370 0.06583
 C1955 C 0.49892 0.37224 0.05138
 C1956 C 0.49254 0.39839 0.06294
 H1957 H 0.50503 0.32488 0.05569
 H1958 H 0.50810 0.37139 0.03029
 H1959 H 0.46603 0.35837 0.09781
 H1960 H 0.48376 0.39985 0.08409
 C1961 C -0.03804 0.84849 0.58638
 C1962 C -0.04153 0.87444 0.59924
 C1963 C -0.03452 0.90286 0.58597
 C1964 C -0.01605 0.90599 0.56412
 H1965 H -0.05058 0.87536 0.62035
 H1966 H -0.04509 0.92212 0.59516
 H1967 H -0.02889 0.84739 0.56534
 H1968 H -0.00439 0.88719 0.55533
 C1969 C 0.26965 0.34430 0.08172
 C1970 C 0.28760 0.33260 0.10158
 C1971 C 0.27525 0.31939 0.12745
 C1972 C 0.28830 0.29619 0.14036
 H1973 H 0.31117 0.33158 0.09856
 H1974 H 0.25512 0.32891 0.13598
 H1975 H 0.24624 0.34126 0.08446
 H1976 H 0.30740 0.28568 0.13075
 C1977 C 0.77654 0.84824 0.59519
 C1978 C 0.76578 0.82135 0.59904
 C1979 C 0.75881 0.81106 0.62780
 C1980 C 0.75609 0.78252 0.63437
 H1981 H 0.76273 0.80689 0.58124
 H1982 H 0.75691 0.82739 0.64432
 H1983 H 0.78144 0.86142 0.61353
 H1984 H 0.75983 0.76590 0.61841
 C1985 C 0.21670 0.65364 0.58172
 C1986 C 0.20000 0.67376 0.59483
 C1987 C 0.20904 0.68474 0.62251
 C1988 C 0.19728 0.70941 0.63324
 H1989 H 0.18002 0.68240 0.58494
 H1990 H 0.22572 0.67229 0.63429
 H1991 H 0.23771 0.64679 0.59083
 H1992 H 0.18141 0.72240 0.62098
 C1993 C 0.71739 0.15595 0.08411
 C1994 C 0.73327 0.17926 0.09130
 C1995 C 0.73365 0.18953 0.12071
 C1996 C 0.73941 0.21741 0.12725
 H1997 H 0.74578 0.19119 0.07573
 H1998 H 0.72934 0.17375 0.13745
 H1999 H 0.70249 0.14727 0.09981
 H2000 H 0.74152 0.23385 0.11069
 C2001 C 0.77548 0.15772 0.91588
 C2002 C 0.79410 0.17390 0.90109
 C2003 C 0.78633 0.18377 0.87243
 C2004 C 0.80028 0.20581 0.85998
 H2005 H 0.81481 0.18026 0.91031
 H2006 H 0.76866 0.17300 0.86149
 H2007 H 0.75394 0.15339 0.90722
 H2008 H 0.81695 0.21748 0.87148
 C2009 C 0.25919 0.64220 0.40810
 C2010 C 0.27730 0.66008 0.39448
 C2011 C 0.26941 0.67272 0.36659
 C2012 C 0.28255 0.69682 0.35706
 H2013 H 0.29741 0.66673 0.40468
 H2014 H 0.25233 0.66272 0.35419
 H2015 H 0.23800 0.63757 0.39885
 H2016 H 0.29872 0.70721 0.37029
 C2017 C 0.74716 0.84555 0.41800
 C2018 C 0.73098 0.82675 0.40336
 C2019 C 0.74097 0.81545 0.37571
 C2020 C 0.72879 0.79190 0.36406
 H2021 H 0.71036 0.81937 0.41198
 H2022 H 0.75824 0.82681 0.36466
 H2023 H 0.76874 0.85112 0.41027
 H2024 H 0.71226 0.78012 0.37575
 C2025 C 0.24390 0.35563 0.90688
 C2026 C 0.22832 0.33659 0.89204
 C2027 C 0.23903 0.32512 0.86479
 C2028 C 0.22810 0.30053 0.85415
 H2029 H 0.20788 0.32860 0.90056
 H2030 H 0.25591 0.33680 0.85350
 H2031 H 0.26543 0.36177 0.89946
 H2032 H 0.21204 0.28855 0.86629
 C2033 C 0.85147 0.41689 0.72517
 C2034 C 0.84872 0.40044 0.74855
 C2035 C 0.83261 0.37282 0.74628
 C2036 C 0.83258 0.35198 0.76645
 H2037 H 0.85934 0.40628 0.76816
 H2038 H 0.82138 0.36885 0.72648
 H2039 H 0.84158 0.40919 0.70578
 H2040 H 0.84349 0.35557 0.78646
 C2041 C 0.36027 0.91039 0.24039
 C2042 C 0.34963 0.89986 0.26487
 C2043 C 0.33040 0.87420 0.26277
 C2044 C 0.32812 0.85231 0.28195
 H2045 H 0.35444 0.90954 0.28511
 H2046 H 0.31898 0.87235 0.24275
 H2047 H 0.35617 0.89733 0.22172
 H2048 H 0.33946 0.85335 0.30206
 C2049 C 0.14981 0.92433 0.76644
 C2050 C 0.15014 0.90820 0.74289
 C2051 C 0.16770 0.88041 0.74306
 C2052 C 0.16456 0.85890 0.72411
 H2053 H 0.13584 0.91395 0.72523
 H2054 H 0.18226 0.87651 0.76097
 H2055 H 0.16284 0.91672 0.78444
 H2056 H 0.15059 0.86239 0.70575
 C2057 C 0.66194 0.42119 0.26622
 C2058 C 0.66714 0.40753 0.24167
 C2059 C 0.68712 0.38135 0.24207
 C2060 C 0.68897 0.36141 0.22131
 H2061 H 0.65542 0.41407 0.22257
 H2062 H 0.69934 0.37715 0.26146
 H2063 H 0.67285 0.41261 0.28511
 H2064 H 0.67725 0.36519 0.20160
 C2065 C 0.64915 0.59260 0.22810
 C2066 C 0.65833 0.60498 0.25208
 C2067 C 0.67697 0.63113 0.24972
 C2068 C 0.68305 0.64916 0.27118
 H2069 H 0.65153 0.59680 0.27255
 H2070 H 0.68515 0.63642 0.22883
 H2071 H 0.65544 0.60274 0.20823
 H2072 H 0.67475 0.64457 0.29215
 C2073 C 0.15083 0.09431 0.72996
 C2074 C 0.16047 0.10707 0.75357
 C2075 C 0.18121 0.13147 0.75056
 C2076 C 0.18681 0.15103 0.77089
 H2077 H 0.15208 0.10086 0.77412
 H2078 H 0.19081 0.13461 0.72984
 H2079 H 0.15852 0.10263 0.70978
 H2080 H 0.17709 0.14856 0.79162
 C2081 C 0.35349 0.08549 0.27736
 C2082 C 0.34648 0.09938 0.25301
 C2083 C 0.32785 0.12654 0.25433
 C2084 C 0.32411 0.14593 0.23289
 H2085 H 0.35544 0.09188 0.23308
 H2086 H 0.31793 0.13152 0.27459
 H2087 H 0.34536 0.09491 0.29692
 H2088 H 0.33398 0.14150 0.21251
 C2089 C 0.84005 0.58389 0.77591
 C2090 C 0.82878 0.59530 0.75185
 C2091 C 0.80819 0.62082 0.75363
 C2092 C 0.79982 0.63747 0.73130
 H2093 H 0.83552 0.58706 0.73142
 H2094 H 0.80103 0.62720 0.77458
 H2095 H 0.83358 0.59404 0.79569
 H2096 H 0.80724 0.63173 0.71028
 C2097 C 0.92038 0.76577 0.16961
 C2098 C 0.91501 0.74487 0.18928
 C2099 C 0.88651 0.74262 0.20414
 C2100 C 0.86106 0.75221 0.19271
 H2101 H 0.93193 0.72934 0.19613
 H2102 H 0.88658 0.73190 0.22468
 H2103 H 0.90344 0.78245 0.16557
 H2104 H 0.86075 0.76174 0.17166
 C2105 C 0.42410 0.26223 0.66619
 C2106 C 0.41767 0.24281 0.68670
 C2107 C 0.38831 0.24106 0.69983
 C2108 C 0.36361 0.25172 0.68763
 H2109 H 0.43483 0.22892 0.69596
 H2110 H 0.38726 0.23047 0.72040
 H2111 H 0.40742 0.27792 0.65892
 H2112 H 0.36408 0.26122 0.66660
 C2113 C 0.39324 0.72644 0.82743
 C2114 C 0.38753 0.74760 0.80798
 C2115 C 0.35911 0.75036 0.79269
 C2116 C 0.33400 0.74008 0.80319
 H2117 H 0.40419 0.76293 0.80196
 H2118 H 0.35889 0.76203 0.77263
 H2119 H 0.37693 0.70997 0.83122
 H2120 H 0.33373 0.72982 0.82392
 C2121 C 0.91576 0.23618 0.33896
 C2122 C 0.89165 0.22017 0.34264
 C2123 C 0.86384 0.22553 0.32717
 C2124 C 0.86072 0.24227 0.30374
 H2125 H 0.89097 0.20270 0.35817
 H2126 H 0.84511 0.21399 0.33540
 H2127 H 0.91461 0.25446 0.32418
 H2128 H 0.87916 0.25315 0.29432
 C2129 C 0.08800 0.28316 0.32277
 C2130 C 0.09315 0.26078 0.30495
 C2131 C 0.12217 0.25514 0.29198
 C2132 C 0.14715 0.26207 0.30500
 H2133 H 0.07555 0.24672 0.29858
 H2134 H 0.12284 0.24441 0.27164
 H2135 H 0.10502 0.29894 0.32640
 H2136 H 0.14646 0.27154 0.32591
 C2137 C 0.57023 0.77245 0.83618
 C2138 C 0.57536 0.75432 0.81436
 C2139 C 0.60413 0.75080 0.80005
 C2140 C 0.62964 0.76012 0.81055
 H2141 H 0.55772 0.74196 0.80541
 H2142 H 0.60405 0.73942 0.78004
 H2143 H 0.58758 0.78624 0.84358
 H2144 H 0.63048 0.77084 0.83081
 C2145 C 0.60451 0.21363 0.67534
 C2146 C 0.60837 0.23338 0.69589
 C2147 C 0.63743 0.23909 0.70825
 C2148 C 0.66242 0.23484 0.69388
 H2149 H 0.58989 0.24526 0.70494
 H2150 H 0.63802 0.24762 0.72954
 H2151 H 0.62296 0.19986 0.66879
 H2152 H 0.66193 0.22734 0.67225
 C2153 C 0.10147 0.71756 0.14913
 C2154 C 0.10995 0.73816 0.16732
 C2155 C 0.14108 0.74070 0.17536
 C2156 C 0.14904 0.75894 0.19590
 H2157 H 0.09393 0.75231 0.17766
 H2158 H 0.15735 0.72631 0.16552
 H2159 H 0.11810 0.70285 0.14027
 H2160 H 0.13244 0.77250 0.20627
   
