data_POSCAR
  _audit_creation_date              2014-09-24
  _audit_creation_method            'ToBaCCo'
  _symmetry_space_group_name_H-M    'P1'
  _symmetry_Int_Tables_number       1
  _symmetry_cell_setting            triclinic
  loop_
  _symmetry_equiv_pos_as_xyz
 x,y,z
_cell_length_a 86.9948
_cell_length_b 87.6596
_cell_length_c 87.4406
_cell_angle_alpha 90.174900
_cell_angle_beta 89.979300
_cell_angle_gamma 90.350000
loop_
  _atom_site_label
  _atom_site_type_symbol
  _atom_site_fract_x
  _atom_site_fract_y
  _atom_site_fract_z
C1 C 0.31264 0.43332 0.91631
 N2 N 0.30633 0.42112 0.92366
 C3 C 0.31275 0.41574 0.93676
 N4 N 0.32555 0.42266 0.94241
 C5 C 0.33202 0.43484 0.93525
 N6 N 0.32546 0.44006 0.92219
 C7 C 0.43590 0.83672 0.43182
 N8 N 0.42337 0.83016 0.43854
 C9 C 0.41661 0.81757 0.43235
 N10 N 0.42246 0.81158 0.41931
 C11 C 0.43490 0.81786 0.41239
 N12 N 0.44160 0.83045 0.41871
 C13 C 0.94252 0.91610 0.81404
 N14 N 0.93016 0.92239 0.80708
 C15 C 0.92337 0.93506 0.81294
 N16 N 0.92908 0.94142 0.82600
 C17 C 0.94147 0.93524 0.83315
 N18 N 0.94806 0.92259 0.82703
 C19 C 0.43727 -0.08539 0.31696
 N20 N 0.42488 -0.07889 0.31018
 C21 C 0.41767 -0.06677 0.31674
 N22 N 0.42305 -0.06109 0.33027
 C23 C 0.43541 -0.06754 0.33719
 N24 N 0.44234 -0.07962 0.33045
 C25 C 0.81102 0.31982 0.33468
 N26 N 0.80560 0.33280 0.32818
 C27 C 0.81209 0.33848 0.31525
 N28 N 0.82412 0.33104 0.30886
 C29 C 0.82972 0.31808 0.31515
 N30 N 0.82312 0.31251 0.32811
 C31 C -0.18934 0.82805 0.80703
 N32 N -0.19632 0.82011 0.81837
 C33 C -0.19038 0.80680 0.82359
 N34 N -0.17717 0.80144 0.81722
 C35 C -0.17005 0.80927 0.80576
 N36 N -0.17622 0.82256 0.80080
 C37 C 0.94506 0.31902 0.44326
 N38 N 0.93235 0.31276 0.44994
 C39 C 0.92512 0.30054 0.44349
 N40 N 0.93066 0.29464 0.43024
 C41 C 0.94327 0.30071 0.42341
 N42 N 0.95038 0.31290 0.42997
 C43 C 0.44138 0.44078 0.82962
 N44 N 0.44783 0.42821 0.82328
 C45 C 0.44240 0.42224 0.80998
 N46 N 0.43026 0.42898 0.80297
 C47 C 0.42371 0.44163 0.80912
 N48 N 0.42934 0.44741 0.82242
 C49 C 0.81232 0.91204 0.93500
 N50 N 0.80656 0.91873 0.92224
 C51 C 0.81291 0.93177 0.91660
 N52 N 0.82521 0.93814 0.92387
 C53 C 0.83115 0.93161 0.93666
 N54 N 0.82458 0.91860 0.94208
 C55 C 0.31549 0.83707 0.31281
 N56 N 0.30827 0.83109 0.32522
 C57 C 0.31352 0.81825 0.33207
 N58 N 0.32627 0.81132 0.32638
 C59 C 0.33367 0.81713 0.31395
 N60 N 0.32819 0.82999 0.30728
 C61 C 0.80518 0.42734 0.44822
 N62 N 0.79889 0.43400 0.43574
 C63 C 0.80585 0.44606 0.42888
 N64 N 0.81935 0.45146 0.43461
 C65 C 0.82581 0.44494 0.44714
 N66 N 0.81867 0.43285 0.45382
 C67 C 0.93415 0.83260 -0.06762
 N68 N 0.92166 0.82639 -0.06052
 C69 C 0.91499 0.81338 -0.06592
 N70 N 0.92092 0.80660 -0.07857
 C71 C 0.93336 0.81255 -0.08586
 N72 N 0.93990 0.82556 -0.08028
 C73 C 0.31128 0.33129 0.81186
 N74 N 0.32404 0.32589 0.80477
 C75 C 0.33129 0.31327 0.80999
 N76 N 0.32566 0.30601 0.82254
 C77 C 0.31289 0.31124 0.82979
 N78 N 0.30579 0.32391 0.82438
 C79 C 0.16942 0.56586 0.56254
 N80 N 0.17487 0.57894 0.55617
 C81 C 0.18751 0.58608 0.56199
 N82 N 0.19468 0.57998 0.57434
 C83 C 0.18938 0.56691 0.58083
 N84 N 0.17674 0.55995 0.57487
 C85 C 0.57313 0.68960 0.05376
 N86 N 0.56629 0.67710 0.04738
 C87 C 0.55316 0.67120 0.05344
 N88 N 0.54697 0.67787 0.06600
 C89 C 0.55361 0.69028 0.07256
 N90 N 0.56673 0.69610 0.06640
 C91 C 0.69197 0.18897 0.67393
 N92 N 0.67950 0.19579 0.68026
 C93 C 0.67311 0.19030 0.69331
 N94 N 0.67928 0.17779 0.70001
 C95 C 0.69173 0.17082 0.69384
 N96 N 0.69800 0.17647 0.68078
 C97 C 1.08058 0.06046 0.18849
 N98 N 1.07279 0.05428 0.17647
 C99 C 1.05951 0.06057 0.17133
 N100 N 1.05404 0.07324 0.17843
 C101 C 1.06161 0.07961 0.19047
 N102 N 1.07487 0.07316 0.19541
 C103 C 0.05846 0.16959 1.06085
 N104 N 0.07140 0.17612 1.05505
 C105 C 0.07712 0.18930 1.06095
 N106 N 0.06976 0.19600 1.07286
 C107 C 0.05679 0.18972 1.07890
 N108 N 0.05122 0.17648 1.07281
 C109 C 0.17403 0.69015 0.68861
 N110 N 0.17996 0.67755 0.69534
 C111 C 0.19268 0.67069 0.68953
 N112 N 0.19946 0.67657 0.67678
 C113 C 0.19363 0.68920 0.66993
 N114 N 0.18094 0.69584 0.67594
 C115 C 1.18440 0.16930 0.18671
 N116 N 1.19015 0.17522 0.17349
 C117 C 1.18310 0.18717 0.16650
 N118 N 1.17019 0.19309 0.17294
 C119 C 1.16433 0.18733 0.18609
 N120 N 1.17150 0.17543 0.19287
 C121 C 0.67229 1.06352 0.56197
 N122 N 0.67925 1.05694 0.57427
 C123 C 0.69186 1.06355 0.58077
 N124 N 0.69740 1.07680 0.57492
 C125 C 0.69067 1.08356 0.56274
 N126 N 0.67813 1.07682 0.55634
 C127 C 0.56344 0.56244 0.17075
 N128 N 0.57601 0.55640 0.17764
 C129 C 0.58204 0.56283 0.19045
 N130 N 0.57538 0.57548 0.19636
 C131 C 0.56281 0.58173 0.18970
 N132 N 0.55688 0.57516 0.17684
 C133 C 0.67115 0.69054 0.18316
 N134 N 0.67831 0.67888 0.19052
 C135 C 0.69107 0.67234 0.18435
 N136 N 0.69652 0.67755 0.17077
 C137 C 0.68952 0.68911 0.16330
 N138 N 0.67685 0.69553 0.16957
 C139 C 0.16779 0.06131 1.06266
 N140 N 0.17489 0.07394 1.05690
 C141 C 0.18785 0.07967 1.06350
 N142 N 0.19370 0.07264 1.07601
 C143 C 0.18685 0.06002 1.08198
 N144 N 0.17389 0.05445 1.07521
 C145 C 0.57214 0.19709 0.55084
 N146 N 0.56522 0.20395 0.56301
 C147 C 0.55182 0.19827 0.56875
 N148 N 0.54553 0.18561 0.56230
 C149 C 0.55230 0.17859 0.55027
 N150 N 0.56563 0.18437 0.54462
 C151 C 0.07723 0.55362 0.69710
 N152 N 0.06990 0.54780 0.68467
 C153 C 0.05714 0.55459 0.67897
 N154 N 0.05174 0.56741 0.68584
 C155 C 0.05894 0.57338 0.69832
 N156 N 0.07169 0.56644 0.70383
 C157 C 0.67113 0.55603 0.06386
 N158 N 0.67737 0.56874 0.05741
 C159 C 0.68976 0.57577 0.06393
 N160 N 0.69580 0.56998 0.07702
 C161 C 0.68966 0.55731 0.08355
 N162 N 0.67735 0.55047 0.07690
 C163 C 0.06525 0.67843 0.58246
 N164 N 0.05989 0.66512 0.57637
 C165 C 0.06685 0.65866 0.56409
 N166 N 0.07933 0.66562 0.55791
 C167 C 0.08489 0.67891 0.56376
 N168 N 0.07780 0.68528 0.57608
 C169 C 0.56776 1.06308 0.67032
 N170 N 0.58017 1.05700 0.67751
 C171 C 0.58640 1.06381 0.69003
 N172 N 0.58013 1.07691 0.69537
 C173 C 0.56775 1.08323 0.68843
 N174 N 0.56160 1.07625 0.67589
 C175 C 0.43755 0.33021 0.93397
 N176 N 0.44334 0.32408 0.92082
 C177 C 0.43651 0.31176 0.91414
 N178 N 0.42383 0.30559 0.92072
 C179 C 0.41787 0.31143 0.93379
 N180 N 0.42477 0.32377 0.94036
 C181 C 0.93593 0.43336 0.33913
 N182 N 0.92337 0.44017 0.33313
 C183 C 0.91645 0.43471 0.32032
 N184 N 0.92227 0.42208 0.31336
 C185 C 0.93490 0.41504 0.31921
 N186 N 0.94162 0.42077 0.33208
 C187 C 0.31213 0.94496 0.42198
 N188 N 0.30487 0.93264 0.42822
 C189 C 0.31025 0.92627 0.44133
 N190 N 0.32297 0.93230 0.44807
 C191 C 0.33040 0.94451 0.44201
 N192 N 0.32487 0.95076 0.42895
 O193 O 0.21370 0.52083 0.74926
 O194 O 0.22139 0.52036 0.77536
 O195 O 0.25377 0.54040 0.72765
 O196 O 0.27867 0.53490 0.72567
 O197 O 0.23124 0.50123 0.70800
 O198 O 0.23159 0.47461 0.71371
 O199 O 0.29504 0.49725 0.76405
 O200 O 0.29167 0.52391 0.76189
 O201 O 0.25651 0.48069 0.78732
 O202 O 0.22857 0.48293 0.78378
 O203 O 0.27140 0.45925 0.74751
 O204 O 0.26859 0.46441 0.71993
 O205 O 0.29282 0.47871 0.74597
 O206 O 0.28540 0.48020 0.71852
 O207 O 0.25438 0.46019 0.76717
 O208 O 0.22636 0.46704 0.76732
 O209 O 0.27605 0.49792 0.78591
 O210 O 0.27525 0.52545 0.78090
 O211 O 0.21140 0.50221 0.73124
 O212 O 0.21604 0.47525 0.73197
 O213 O 0.25055 0.51874 0.70649
 O214 O 0.27832 0.51500 0.71053
 O215 O 0.23620 0.54144 0.74687
 O216 O 0.23951 0.53618 0.77382
 Zr217 Zr 0.23667 0.51944 0.75658
 O218 O 0.25034 0.50541 0.77049
 Zr219 Zr 0.26158 0.51777 0.72790
 O220 O 0.27658 0.50398 0.74068
 Zr221 Zr 0.23330 0.49224 0.73018
 O222 O 0.24706 0.47713 0.74277
 Zr223 Zr 0.27351 0.50793 0.76418
 O224 O 0.26000 0.52331 0.75134
 Zr225 Zr 0.24525 0.48235 0.76615
 O226 O 0.23010 0.49642 0.75368
 Zr227 Zr 0.27034 0.48098 0.73752
 O228 O 0.25637 0.49473 0.72339
 O229 O 0.23846 0.51520 0.73328
 O230 O 0.26849 0.48488 0.76096
 C231 C 0.20589 0.51310 0.73942
 C232 C 0.24374 0.54750 0.73574
 C233 C 0.23902 0.51145 0.70079
 C234 C 0.30040 0.48601 0.75628
 C235 C 0.26837 0.48748 0.79291
 C236 C 0.26451 0.45328 0.75905
 H237 H 0.24860 0.50804 0.78134
 H238 H 0.24388 0.46651 0.74054
 H239 H 0.23171 0.52192 0.72721
 H240 H 0.28732 0.50604 0.73759
 H241 H 0.28725 0.53312 0.75711
 H242 H 0.28775 0.53152 0.73152
 H243 H 0.22726 0.45972 0.75874
 H244 H 0.21182 0.47602 0.74246
 H245 H 0.26631 0.52464 0.78784
 H246 H 0.24983 0.54074 0.77228
 H247 H 0.25907 0.45844 0.72169
 H248 H 0.24152 0.47446 0.70818
 H249 H 0.21623 0.51028 0.77582
 H250 H 0.23051 0.49217 0.79002
 H251 H 0.27563 0.50555 0.70488
 H252 H 0.29274 0.48881 0.71948
 O253 O 0.21225 0.02470 0.24864
 O254 O 0.21708 0.02457 0.27537
 O255 O 0.25380 0.04456 0.23080
 O256 O 0.27895 0.03958 0.23167
 O257 O 0.23406 0.00490 0.20971
 O258 O 0.23427 -0.02158 0.21565
 O259 O 0.29172 0.00248 0.27258
 O260 O 0.28851 0.02892 0.26947
 O261 O 0.25135 -0.01451 0.29135
 O262 O 0.22394 -0.01285 0.28494
 O263 O 0.27086 -0.03599 0.25365
 O264 O 0.27118 -0.03128 0.22612
 O265 O 0.29190 -0.01623 0.25456
 O266 O 0.28741 -0.01467 0.22600
 O267 O 0.25179 -0.03515 0.27136
 O268 O 0.22374 -0.02885 0.26839
 O269 O 0.27064 0.00306 0.29188
 O270 O 0.26957 0.03090 0.28616
 O271 O 0.21202 0.00600 0.23056
 O272 O 0.21703 -0.02115 0.23257
 O273 O 0.25318 0.02269 0.20988
 O274 O 0.28060 0.01932 0.21689
 O275 O 0.23451 0.04552 0.24833
 O276 O 0.23513 0.04055 0.27564
 Zr277 Zr 0.23431 0.02365 0.25835
 O278 O 0.24660 0.00997 0.27378
 Zr279 Zr 0.26207 0.02212 0.23234
 O280 O 0.27591 0.00880 0.24690
 Zr281 Zr 0.23405 -0.00384 0.23207
 O282 O 0.24680 -0.01857 0.24614
 Zr283 Zr 0.27024 0.01289 0.26990
 O284 O 0.25798 0.02789 0.25544
 Zr285 Zr 0.24237 -0.01321 0.26912
 O286 O 0.22836 0.00053 0.25506
 Zr287 Zr 0.27048 -0.01434 0.24340
 O288 O 0.25772 -0.00107 0.22770
 O289 O 0.23857 0.01919 0.23542
 O290 O 0.26598 -0.01025 0.26642
 C291 C 0.20560 0.01695 0.23800
 C292 C 0.24286 0.05154 0.23776
 C293 C 0.24229 0.01524 0.20319
 C294 C 0.29807 -0.00884 0.26575
 C295 C 0.26247 -0.00753 0.29809
 C296 C 0.26289 -0.04195 0.26450
 H297 H 0.24366 0.01266 0.28436
 H298 H 0.24409 -0.02926 0.24371
 H299 H 0.23239 0.02573 0.22861
 H300 H 0.28690 0.01101 0.24500
 H301 H 0.28469 0.03795 0.26390
 H302 H 0.28744 0.03643 0.23845
 H303 H 0.22573 -0.03624 0.26006
 H304 H 0.21143 -0.01995 0.24235
 H305 H 0.26050 0.02938 0.29281
 H306 H 0.24540 0.04542 0.27497
 H307 H 0.26133 -0.03694 0.22643
 H308 H 0.24477 -0.02172 0.21128
 H309 H 0.21207 0.01441 0.27546
 H310 H 0.22496 -0.00345 0.29116
 H311 H 0.27853 0.00987 0.21099
 H312 H 0.29492 -0.00643 0.22819
 O313 O 0.54034 0.73128 0.24530
 O314 O 0.53433 0.73248 0.27175
 O315 O 0.49934 0.71209 0.22592
 O316 O 0.47451 0.71752 0.22502
 O317 O 0.52090 0.75118 0.20505
 O318 O 0.52161 0.77746 0.21062
 O319 O 0.46031 0.75604 0.26485
 O320 O 0.46311 0.72950 0.26263
 O321 O 0.50016 0.77280 0.28522
 O322 O 0.52730 0.77097 0.28051
 O323 O 0.48280 0.79342 0.24584
 O324 O 0.48378 0.78787 0.21856
 O325 O 0.46147 0.77416 0.24637
 O326 O 0.46735 0.77147 0.21805
 O327 O 0.50067 0.79284 0.26474
 O328 O 0.52917 0.78578 0.26289
 O329 O 0.48039 0.75576 0.28515
 O330 O 0.48130 0.72759 0.28014
 O331 O 0.54193 0.74954 0.22696
 O332 O 0.53755 0.77704 0.22858
 O333 O 0.50147 0.73373 0.20447
 O334 O 0.47373 0.73745 0.21034
 O335 O 0.51757 0.71113 0.24451
 O336 O 0.51574 0.71709 0.27170
 Zr337 Zr 0.51791 0.73331 0.25397
 O338 O 0.50517 0.74776 0.26843
 Zr339 Zr 0.49159 0.73472 0.22653
 O340 O 0.47727 0.74861 0.24012
 Zr341 Zr 0.52018 0.76010 0.22729
 O342 O 0.50690 0.77548 0.24019
 Zr343 Zr 0.48169 0.74515 0.26348
 O344 O 0.49432 0.72951 0.24994
 Zr345 Zr 0.51004 0.77073 0.26347
 O346 O 0.52453 0.75623 0.25060
 Zr347 Zr 0.48334 0.77150 0.23630
 O348 O 0.49674 0.75766 0.22164
 O349 O 0.51495 0.73723 0.23075
 O350 O 0.48657 0.76808 0.25961
 C351 C 0.54767 0.73856 0.23482
 C352 C 0.50961 0.70501 0.23368
 C353 C 0.51268 0.74106 0.19818
 C354 C 0.45458 0.76727 0.25742
 C355 C 0.48853 0.76632 0.29153
 C356 C 0.49010 0.79956 0.25704
 H357 H 0.50752 0.74535 0.27920
 H358 H 0.50993 0.78605 0.23764
 H359 H 0.52125 0.73038 0.22431
 H360 H 0.46635 0.74651 0.23773
 H361 H 0.46697 0.72023 0.25744
 H362 H 0.46603 0.72057 0.23190
 H363 H 0.52724 0.79354 0.25494
 H364 H 0.54287 0.77559 0.23847
 H365 H 0.48984 0.72938 0.28739
 H366 H 0.50547 0.71231 0.27054
 H367 H 0.49364 0.79349 0.21929
 H368 H 0.51128 0.77816 0.20594
 H369 H 0.53967 0.74248 0.27176
 H370 H 0.52671 0.76113 0.28598
 H371 H 0.47630 0.74660 0.20421
 H372 H 0.45937 0.76370 0.22027
 O373 O 0.00254 0.70670 0.73069
 O374 O -0.02397 0.71244 0.73045
 O375 O 0.02205 0.74628 0.70868
 O376 O 0.02268 0.77131 0.71254
 O377 O 0.04269 0.72818 0.74945
 O378 O 0.03678 0.72978 0.77580
 O379 O -0.01802 0.78749 0.74918
 O380 O -0.01534 0.78269 0.72291
 O381 O -0.03856 0.74886 0.76809
 O382 O -0.03318 0.72178 0.76825
 O383 O 0.00040 0.76845 0.78855
 O384 O 0.02794 0.76753 0.78369
 O385 O 0.00029 0.78812 0.76767
 O386 O 0.02872 0.78249 0.76624
 O387 O -0.01834 0.75032 0.78880
 O388 O -0.01621 0.72182 0.78384
 O389 O -0.03842 0.76706 0.74967
 O390 O -0.03277 0.76440 0.72192
 O391 O 0.02073 0.70688 0.74935
 O392 O 0.01906 0.71348 0.77628
 O393 O 0.04328 0.74609 0.73071
 O394 O 0.03718 0.77372 0.73264
 O395 O 0.00387 0.72754 0.70869
 O396 O -0.02359 0.72954 0.71381
 Zr397 Zr -0.00617 0.72896 0.73065
 O398 O -0.02110 0.74239 0.74392
 Zr399 Zr 0.02105 0.75561 0.73080
 O400 O 0.00702 0.77057 0.74348
 Zr401 Zr 0.02023 0.72931 0.75811
 O402 O 0.00677 0.74332 0.77233
 Zr403 Zr -0.01634 0.76552 0.73982
 O404 O -0.00233 0.75207 0.72530
 Zr405 Zr -0.01650 0.73943 0.76733
 O406 O -0.00309 0.72427 0.75409
 Zr407 Zr 0.01048 0.76640 0.76686
 O408 O 0.02565 0.75242 0.75417
 O409 O 0.01705 0.73259 0.73482
 O410 O -0.01287 0.76255 0.76318
 C411 C 0.01288 0.70016 0.73879
 C412 C 0.01465 0.73529 0.70219
 C413 C 0.04961 0.73562 0.73881
 C414 C -0.01070 0.79422 0.76005
 C415 C -0.04498 0.75960 0.76053
 C416 C -0.01085 0.76142 0.79499
 H417 H -0.03184 0.73964 0.74143
 H418 H 0.00917 0.74118 0.78315
 H419 H 0.02365 0.72587 0.72855
 H420 H 0.00938 0.78125 0.74069
 H421 H -0.00989 0.77825 0.71403
 H422 H 0.01574 0.77987 0.71497
 H423 H -0.00812 0.72428 0.79142
 H424 H 0.00901 0.70820 0.77537
 H425 H -0.03962 0.75554 0.72376
 H426 H -0.02234 0.73933 0.70830
 H427 H 0.02726 0.75813 0.78987
 H428 H 0.04147 0.74010 0.77564
 H429 H -0.02434 0.70806 0.74087
 H430 H -0.03896 0.72192 0.75851
 H431 H 0.04321 0.77194 0.74206
 H432 H 0.02678 0.78957 0.75767
 O433 O 0.03775 0.01711 0.00619
 O434 O 0.03250 0.01745 -0.02059
 O435 O -0.00248 0.03793 0.02516
 O436 O -0.02758 0.03373 0.02590
 O437 O 0.01595 -0.00354 0.04446
 O438 O 0.01406 -0.02982 0.03720
 O439 O -0.04360 -0.00078 -0.01649
 O440 O -0.03859 0.02542 -0.01207
 O441 O -0.00521 -0.01881 -0.03745
 O442 O 0.02251 -0.01881 -0.03199
 O443 O -0.02442 -0.04099 0.00020
 O444 O -0.02379 -0.03733 0.02768
 O445 O -0.04427 -0.02022 0.00062
 O446 O -0.03879 -0.01988 0.02918
 O447 O -0.00611 -0.04038 -0.01830
 O448 O 0.02234 -0.03547 -0.01618
 O449 O -0.02331 -0.00028 -0.03637
 O450 O -0.02032 0.02702 -0.02960
 O451 O 0.03736 -0.00243 0.02323
 O452 O 0.03096 -0.02923 0.01987
 O453 O -0.00192 0.01524 0.04557
 O454 O -0.02977 0.01311 0.03942
 O455 O 0.01640 0.03868 0.00718
 O456 O 0.01548 0.03431 -0.02011
 Zr457 Zr 0.01550 0.01702 -0.00332
 O458 O 0.00182 0.00459 -0.01890
 Zr459 Zr -0.01162 0.01577 0.02348
 O460 O -0.02669 0.00371 0.00887
 Zr461 Zr 0.01484 -0.01136 0.02172
 O462 O 0.00079 -0.02492 0.00743
 Zr463 Zr -0.02147 0.00850 -0.01406
 O464 O -0.00780 0.02225 0.00055
 Zr465 Zr 0.00470 -0.01894 -0.01549
 O466 O 0.02004 -0.00647 -0.00127
 Zr467 Zr -0.02249 -0.01974 0.01119
 O468 O -0.00846 -0.00772 0.02702
 O469 O 0.01158 0.01198 0.01953
 O470 O -0.01856 -0.01495 -0.01178
 C471 C 0.04416 0.00871 0.01639
 C472 C 0.00841 0.04480 0.01794
 C473 C 0.00862 0.00698 0.05163
 C474 C -0.05035 -0.01212 -0.01000
 C475 C -0.01612 -0.01096 -0.04340
 C476 C -0.01726 -0.04694 -0.01117
 H477 H 0.00454 0.00757 -0.02945
 H478 H 0.00293 -0.03581 0.00932
 H479 H 0.01822 0.01812 0.02641
 H480 H -0.03747 0.00635 0.01125
 H481 H -0.03388 0.03409 -0.00645
 H482 H -0.03624 0.03151 0.01891
 H483 H 0.02037 -0.04289 -0.00790
 H484 H 0.03625 -0.02787 0.00994
 H485 H -0.01151 0.02540 -0.03656
 H486 H 0.00544 0.03951 -0.01927
 H487 H -0.01412 -0.04318 0.02708
 H488 H 0.00383 -0.02951 0.04214
 H489 H 0.03696 0.00710 -0.02095
 H490 H 0.02207 -0.00898 -0.03749
 H491 H -0.02792 0.00347 0.04498
 H492 H -0.04605 -0.01143 0.02743
 O493 O 0.00301 0.46699 0.46852
 O494 O 0.02972 0.46846 0.47453
 O495 O -0.01616 0.44654 0.50861
 O496 O -0.01704 0.45134 0.53355
 O497 O -0.03750 0.48616 0.48882
 O498 O -0.03177 0.51257 0.48901
 O499 O 0.02206 0.48940 0.54923
 O500 O 0.02018 0.46291 0.54508
 O501 O 0.04314 0.50751 0.51029
 O502 O 0.03850 0.50615 0.48297
 O503 O 0.00366 0.52759 0.52793
 O504 O -0.02401 0.52190 0.52643
 O505 O 0.00358 0.50756 0.54859
 O506 O -0.02445 0.50556 0.54250
 O507 O 0.02244 0.52760 0.50991
 O508 O 0.02114 0.52115 0.48165
 O509 O 0.04291 0.48997 0.52934
 O510 O 0.03823 0.46209 0.52750
 O511 O -0.01540 0.48526 0.46770
 O512 O -0.01403 0.51243 0.47289
 O513 O -0.03790 0.46806 0.50737
 O514 O -0.03223 0.47094 0.53486
 O515 O 0.00252 0.44624 0.49043
 O516 O 0.02966 0.45229 0.49225
 Zr517 Zr 0.01182 0.46849 0.49088
 O518 O 0.02629 0.48256 0.50419
 Zr519 Zr -0.01576 0.46897 0.51713
 O520 O -0.00228 0.48263 0.53185
 Zr521 Zr -0.01510 0.49515 0.48969
 O522 O -0.00207 0.51023 0.50334
 Zr523 Zr 0.02120 0.47933 0.52744
 O524 O 0.00777 0.46399 0.51419
 Zr525 Zr 0.02135 0.50562 0.50015
 O526 O 0.00835 0.49156 0.48520
 Zr527 Zr -0.00608 0.50568 0.52660
 O528 O -0.02076 0.49202 0.51289
 O529 O -0.01155 0.47216 0.49399
 O530 O 0.01739 0.50241 0.52341
 C531 C -0.00754 0.47446 0.46156
 C532 C -0.00828 0.43980 0.49818
 C533 C -0.04433 0.47576 0.49665
 C534 C 0.01441 0.50031 0.55535
 C535 C 0.04939 0.50073 0.52167
 C536 C 0.01473 0.53404 0.52065
 H537 H 0.03713 0.48024 0.50183
 H538 H -0.00463 0.52085 0.50066
 H539 H -0.01802 0.46544 0.48750
 H540 H -0.00480 0.48022 0.54261
 H541 H 0.01519 0.45371 0.54068
 H542 H -0.01047 0.45444 0.54226
 H543 H 0.01266 0.52842 0.48337
 H544 H -0.00391 0.51146 0.46780
 H545 H 0.04522 0.46382 0.51875
 H546 H 0.02879 0.44749 0.50245
 H547 H -0.02282 0.52817 0.51711
 H548 H -0.03656 0.51287 0.49928
 H549 H 0.02953 0.47857 0.46954
 H550 H 0.04429 0.49650 0.48357
 H551 H -0.03816 0.48033 0.53285
 H552 H -0.02281 0.49701 0.54965
 O553 O 0.54457 0.01682 0.50426
 O554 O 0.53993 0.01456 0.47721
 O555 O 0.50523 0.04233 0.51911
 O556 O 0.47994 0.03961 0.52017
 O557 O 0.52037 0.00182 0.54368
 O558 O 0.51645 -0.02511 0.53875
 O559 O 0.46258 0.00271 0.48119
 O560 O 0.46965 0.02889 0.48332
 O561 O 0.49969 -0.01998 0.46278
 O562 O 0.52827 -0.02026 0.46938
 O563 O 0.47857 -0.03717 0.50113
 O564 O 0.47938 -0.03125 0.52868
 O565 O 0.46021 -0.01496 0.50001
 O566 O 0.46518 -0.01317 0.52820
 O567 O 0.49776 -0.03946 0.48369
 O568 O 0.52552 -0.03670 0.48534
 O569 O 0.48321 -0.00002 0.46174
 O570 O 0.48782 0.02725 0.46579
 O571 O 0.54231 -0.00081 0.52315
 O572 O 0.53426 -0.02714 0.52238
 O573 O 0.50397 0.02183 0.54215
 O574 O 0.47642 0.02087 0.53574
 O575 O 0.52476 0.03982 0.50200
 O576 O 0.52472 0.03287 0.47568
 Zr577 Zr 0.52266 0.01730 0.49399
 O578 O 0.50836 0.00465 0.47919
 Zr579 Zr 0.49485 0.02063 0.51991
 O580 O 0.47932 0.00813 0.50623
 Zr581 Zr 0.51929 -0.00825 0.52173
 O582 O 0.50484 -0.02217 0.50811
 Zr583 Zr 0.48532 0.01053 0.48314
 O584 O 0.49974 0.02455 0.49663
 Zr585 Zr 0.50959 -0.01855 0.48481
 O586 O 0.52540 -0.00609 0.49852
 Zr587 Zr 0.48188 -0.01529 0.51072
 O588 O 0.49618 -0.00259 0.52580
 O589 O 0.51780 0.01493 0.51712
 O590 O 0.48658 -0.01277 0.48754
 C591 C 0.55006 0.00909 0.51547
 C592 C 0.51670 0.04766 0.51147
 C593 C 0.51363 0.01354 0.54945
 C594 C 0.45487 -0.00735 0.48866
 C595 C 0.48951 -0.01188 0.45592
 C596 C 0.48579 -0.04456 0.49066
 H597 H 0.51147 0.00647 0.46848
 H598 H 0.50623 -0.03296 0.51098
 H599 H 0.52466 0.02134 0.52353
 H600 H 0.46872 0.01167 0.50813
 H601 H 0.47507 0.03770 0.48800
 H602 H 0.47121 0.03718 0.51333
 H603 H 0.52428 -0.04197 0.49524
 H604 H 0.53966 -0.02736 0.51242
 H605 H 0.49687 0.02464 0.45948
 H606 H 0.51484 0.03838 0.47514
 H607 H 0.48827 -0.03822 0.52827
 H608 H 0.50620 -0.02341 0.54336
 H609 H 0.54387 0.00405 0.47833
 H610 H 0.52709 -0.01225 0.46154
 H611 H 0.47726 0.01151 0.54199
 H612 H 0.45923 -0.00381 0.52620
 O613 O 0.54089 0.51529 0.00129
 O614 O 0.53543 0.51167 -0.02522
 O615 O 0.50049 0.53830 0.01707
 O616 O 0.47523 0.53376 0.01803
 O617 O 0.51927 0.50065 0.04268
 O618 O 0.51790 0.47353 0.03950
 O619 O 0.45997 0.49269 -0.01798
 O620 O 0.46430 0.51939 -0.01755
 O621 O 0.49930 0.47308 -0.03635
 O622 O 0.52713 0.47452 -0.03019
 O623 O 0.47959 0.45609 0.00367
 O624 O 0.48118 0.46379 0.03116
 O625 O 0.45956 0.47637 0.00215
 O626 O 0.46506 0.48022 0.02985
 O627 O 0.49818 0.45449 -0.01448
 O628 O 0.52633 0.45961 -0.01276
 O629 O 0.48075 0.49112 -0.03799
 O630 O 0.48228 0.51877 -0.03527
 O631 O 0.54094 0.49864 0.02117
 O632 O 0.53496 0.47179 0.02255
 O633 O 0.50104 0.51900 0.04076
 O634 O 0.47359 0.51569 0.03516
 O635 O 0.51942 0.53644 -0.00075
 O636 O 0.51834 0.52828 -0.02694
 Zr637 Zr 0.51864 0.51355 -0.00784
 O638 O 0.50525 0.49875 -0.02133
 Zr639 Zr 0.49156 0.51599 0.01881
 O640 O 0.47679 0.50139 0.00635
 Zr641 Zr 0.51850 0.48938 0.02134
 O642 O 0.50489 0.47347 0.00915
 Zr643 Zr 0.48186 0.50282 -0.01706
 O644 O 0.49527 0.51893 -0.00483
 Zr645 Zr 0.50874 0.47613 -0.01441
 O646 O 0.52371 0.49082 -0.00213
 Zr647 Zr 0.48150 0.47860 0.01208
 O648 O 0.49510 0.49334 0.02588
 O649 O 0.51484 0.51203 0.01556
 O650 O 0.48535 0.48006 -0.01137
 C651 C 0.54752 0.50857 0.01251
 C652 C 0.51138 0.54406 0.00890
 C653 C 0.51161 0.51194 0.04814
 C654 C 0.45334 0.48258 -0.00960
 C655 C 0.48848 0.47996 -0.04351
 C656 C 0.48686 0.44886 -0.00689
 H657 H 0.50799 0.50026 -0.03218
 H658 H 0.50724 0.46302 0.01258
 H659 H 0.52140 0.51921 0.02143
 H660 H 0.46596 0.50410 0.00835
 H661 H 0.46880 0.52892 -0.01334
 H662 H 0.46630 0.52996 0.01212
 H663 H 0.52454 0.45361 -0.00336
 H664 H 0.53980 0.47118 0.01232
 H665 H 0.49172 0.51708 -0.04133
 H666 H 0.50824 0.53342 -0.02683
 H667 H 0.49008 0.45688 0.03028
 H668 H 0.50747 0.47411 0.04397
 H669 H 0.54042 0.50165 -0.02382
 H670 H 0.52606 0.48293 -0.03762
 H671 H 0.47525 0.50668 0.04174
 H672 H 0.45842 0.48906 0.02764
 O673 O 0.79096 0.25383 0.48619
 O674 O 0.78354 0.22736 0.48587
 O675 O 0.75278 0.27502 0.46396
 O676 O 0.72731 0.27610 0.46729
 O677 O 0.77093 0.29401 0.50574
 O678 O 0.76862 0.28720 0.53208
 O679 O 0.70782 0.23696 0.50298
 O680 O 0.71359 0.24035 0.47647
 O681 O 0.74495 0.21384 0.52160
 O682 O 0.77313 0.21787 0.52169
 O683 O 0.72813 0.25282 0.54316
 O684 O 0.73124 0.28068 0.53866
 O685 O 0.70837 0.25458 0.52206
 O686 O 0.71541 0.28190 0.52204
 O687 O 0.74546 0.23357 0.54304
 O688 O 0.77355 0.23343 0.53846
 O689 O 0.72699 0.21554 0.50285
 O690 O 0.72991 0.22119 0.47591
 O691 O 0.79128 0.27154 0.50524
 O692 O 0.78461 0.26939 0.53177
 O693 O 0.75322 0.29565 0.48673
 O694 O 0.72563 0.29104 0.48740
 O695 O 0.77024 0.25584 0.46394
 O696 O 0.76726 0.22902 0.46832
 Zr697 Zr 0.76806 0.24585 0.48567
 O698 O 0.75317 0.23145 0.49805
 Zr699 Zr 0.74273 0.27399 0.48586
 O700 O 0.72664 0.26079 0.49819
 Zr701 Zr 0.76866 0.27150 0.51368
 O702 O 0.75377 0.25829 0.52729
 Zr703 Zr 0.73021 0.23753 0.49387
 O704 O 0.74508 0.25079 0.47996
 Zr705 Zr 0.75622 0.23514 0.52158
 O706 O 0.77251 0.24823 0.50922
 Zr707 Zr 0.73087 0.26334 0.52175
 O708 O 0.74581 0.27795 0.50943
 O709 O 0.76559 0.26897 0.49025
 O710 O 0.73321 0.24010 0.51738
 C711 C 0.79785 0.26383 0.49458
 C712 C 0.76332 0.26703 0.45749
 C713 C 0.76378 0.30141 0.49529
 C714 C 0.70148 0.24436 0.51401
 C715 C 0.73381 0.20832 0.51362
 C716 C 0.73478 0.24138 0.54942
 H717 H 0.75521 0.22073 0.49524
 H718 H 0.75603 0.26027 0.53819
 H719 H 0.77275 0.27541 0.48425
 H720 H 0.71608 0.26380 0.49538
 H721 H 0.71896 0.24501 0.46764
 H722 H 0.71783 0.27044 0.46998
 H723 H 0.77265 0.24235 0.54535
 H724 H 0.78907 0.25905 0.53090
 H725 H 0.73921 0.21483 0.47679
 H726 H 0.75724 0.23019 0.46310
 H727 H 0.73984 0.27854 0.54572
 H728 H 0.75870 0.29264 0.53159
 H729 H 0.78815 0.22715 0.49621
 H730 H 0.77192 0.21179 0.51222
 H731 H 0.72687 0.29605 0.49749
 H732 H 0.70906 0.28128 0.51268
 O733 O 0.74932 0.75776 -0.05322
 O734 O 0.72207 0.75659 -0.04928
 O735 O 0.76420 0.78312 -0.01360
 O736 O 0.76319 0.78063 0.01175
 O737 O 0.78809 0.74254 -0.02796
 O738 O 0.78277 0.71573 -0.02463
 O739 O 0.72337 0.74364 0.02742
 O740 O 0.72588 0.76981 0.02092
 O741 O 0.70592 0.72151 -0.01093
 O742 O 0.71342 0.72090 -0.03855
 O743 O 0.74377 0.70378 0.01143
 O744 O 0.77155 0.70976 0.01170
 O745 O 0.74212 0.72593 0.03009
 O746 O 0.77040 0.72744 0.02631
 O747 O 0.72673 0.70181 -0.00815
 O748 O 0.72978 0.70502 -0.03605
 O749 O 0.70443 0.74116 0.00597
 O750 O 0.70902 0.76850 0.00217
 O751 O 0.76811 0.74005 -0.05050
 O752 O 0.76688 0.71382 -0.04278
 O753 O 0.78642 0.76244 -0.01134
 O754 O 0.77888 0.76165 0.01578
 O755 O 0.74754 0.78100 -0.03354
 O756 O 0.72066 0.77476 -0.03375
 Zr757 Zr 0.73857 0.75872 -0.03165
 O758 O 0.72307 0.74601 -0.01820
 Zr759 Zr 0.76367 0.76157 -0.00314
 O760 O 0.74919 0.74909 0.01163
 Zr761 Zr 0.76592 0.73272 -0.02774
 O762 O 0.75164 0.71886 -0.01407
 Zr763 Zr 0.72618 0.75163 0.00497
 O764 O 0.74048 0.76573 -0.00864
 Zr765 Zr 0.72849 0.72276 -0.01961
 O766 O 0.74288 0.73528 -0.03462
 Zr767 Zr 0.75356 0.72567 0.00892
 O768 O 0.76934 0.73830 -0.00458
 O769 O 0.76158 0.75594 -0.02612
 O770 O 0.73044 0.72831 0.00349
 C771 C 0.76062 0.74986 -0.05840
 C772 C 0.75727 0.78854 -0.02537
 C773 C 0.79388 0.75413 -0.02091
 C774 C 0.73062 0.73356 0.03518
 C775 C 0.69867 0.72951 -0.00093
 C776 C 0.73344 0.69651 0.00377
 H777 H 0.71245 0.74794 -0.02167
 H778 H 0.75448 0.70806 -0.01552
 H779 H 0.76838 0.76216 -0.03273
 H780 H 0.75076 0.75256 0.02229
 H781 H 0.73097 0.77863 0.01593
 H782 H 0.75636 0.77800 0.02041
 H783 H 0.73902 0.69892 -0.03376
 H784 H 0.75702 0.71364 -0.04843
 H785 H 0.70324 0.76622 -0.00731
 H786 H 0.72026 0.78040 -0.02393
 H787 H 0.77125 0.70267 0.00289
 H788 H 0.78710 0.71734 -0.01428
 H789 H 0.72284 0.74602 -0.05320
 H790 H 0.70622 0.72958 -0.03814
 H791 H 0.78501 0.75219 0.01512
 H792 H 0.76849 0.73698 0.03206
 O793 O 0.99461 0.20712 0.22915
 O794 O 0.96769 0.21118 0.23273
 O795 O 1.00825 0.24708 0.20434
 O796 O 1.00757 0.27232 0.20765
 O797 O 1.03505 0.23171 0.24267
 O798 O 1.03206 0.23359 0.26970
 O799 O 0.97099 0.28706 0.24881
 O800 O 0.97127 0.28174 0.22222
 O801 O 0.95544 0.24838 0.27084
 O802 O 0.96210 0.22115 0.27008
 O803 O 0.99531 0.26983 0.28604
 O804 O 1.02222 0.27045 0.27752
 O805 O 0.99121 0.28912 0.26511
 O806 O 1.01944 0.28551 0.26041
 O807 O 0.97819 0.25037 0.28878
 O808 O 0.98055 0.22237 0.28387
 O809 O 0.95225 0.26559 0.25175
 O810 O 0.95460 0.26273 0.22378
 O811 O 1.01494 0.20907 0.24539
 O812 O 1.01585 0.21594 0.27221
 O813 O 1.03211 0.24888 0.22348
 O814 O 1.02478 0.27594 0.22564
 O815 O 0.99135 0.22738 0.20703
 O816 O 0.96491 0.22751 0.21538
 Zr817 Zr 0.98423 0.22874 0.23000
 O818 O 0.97014 0.24178 0.24454
 Zr819 Zr 1.00950 0.25704 0.22622
 O820 O 0.99630 0.27151 0.24033
 Zr821 Zr 1.01373 0.23153 0.25395
 O822 O 1.00109 0.24497 0.26940
 Zr823 Zr 0.97304 0.26503 0.23951
 O824 O 0.98590 0.25188 0.22373
 Zr825 Zr 0.97762 0.23963 0.26726
 O826 O 0.99046 0.22493 0.25294
 Zr827 Zr 1.00271 0.26810 0.26323
 O828 O 1.01708 0.25480 0.24895
 O829 O 1.00750 0.23397 0.23118
 O830 O 0.97937 0.26281 0.26236
 C831 C 1.00648 0.20158 0.23587
 C832 C 1.00074 0.23552 0.19908
 C833 C 1.04008 0.23915 0.23103
 C834 C 0.97901 0.29439 0.25879
 C835 C 0.94757 0.25848 0.26373
 C836 C 0.98568 0.26196 0.29394
 H837 H 0.95934 0.23843 0.24337
 H838 H 1.00492 0.24317 0.27988
 H839 H 1.01373 0.22756 0.22424
 H840 H 0.99762 0.28225 0.23714
 H841 H 0.97564 0.27721 0.21280
 H842 H 1.00107 0.28089 0.21107
 H843 H 0.99003 0.22473 0.28967
 H844 H 1.00613 0.21002 0.27257
 H845 H 0.94876 0.25336 0.22631
 H846 H 0.96449 0.23735 0.20988
 H847 H 1.02260 0.26139 0.28422
 H848 H 1.03625 0.24405 0.26853
 H849 H 0.96922 0.20701 0.24312
 H850 H 0.95474 0.22132 0.26147
 H851 H 1.03163 0.27504 0.23462
 H852 H 1.01625 0.29196 0.25173
 O853 O 0.71504 1.01845 0.74729
 O854 O 0.72077 1.01824 0.77395
 O855 O 0.75481 1.04075 0.72846
 O856 O 0.77984 1.03705 0.72680
 O857 O 0.73630 0.99936 0.70795
 O858 O 0.73853 0.97305 0.71415
 O859 O 0.79687 1.00160 0.76804
 O860 O 0.79165 1.02776 0.76482
 O861 O 0.75895 0.98201 0.78874
 O862 O 0.73142 0.98162 0.78405
 O863 O 0.77759 0.96155 0.74986
 O864 O 0.77679 0.96623 0.72268
 O865 O 0.79740 0.98264 0.75030
 O866 O 0.79163 0.98403 0.72178
 O867 O 0.75937 0.96113 0.76846
 O868 O 0.73086 0.96598 0.76722
 O869 O 0.77686 1.00096 0.78823
 O870 O 0.77346 1.02856 0.78244
 O871 O 0.71534 0.99942 0.72957
 O872 O 0.72211 0.97265 0.73181
 O873 O 0.75394 1.01856 0.70711
 O874 O 0.78208 1.01685 0.71287
 O875 O 0.73619 1.04056 0.74672
 O876 O 0.73763 1.03542 0.77378
 Zr877 Zr 0.73746 1.01862 0.75638
 O878 O 0.75145 1.00599 0.77129
 Zr879 Zr 0.76409 1.01872 0.72909
 O880 O 0.77951 1.00661 0.74308
 Zr881 Zr 0.73793 0.99100 0.73034
 O882 O 0.75235 0.97735 0.74384
 Zr883 Zr 0.77463 1.01050 0.76628
 O884 O 0.76065 1.02440 0.75233
 Zr885 Zr 0.74867 0.98255 0.76700
 O886 O 0.73302 0.99513 0.75354
 Zr887 Zr 0.77552 0.98316 0.73992
 O888 O 0.76110 0.99529 0.72476
 O889 O 0.74101 1.01434 0.73329
 O890 O 0.77186 0.98708 0.76313
 C891 C 0.70855 1.01016 0.73695
 C892 C 0.74399 1.04717 0.73611
 C893 C 0.74337 1.01020 0.70098
 C894 C 0.80358 0.99055 0.76112
 C895 C 0.76985 0.98986 0.79488
 C896 C 0.77038 0.95499 0.76086
 H897 H 0.74886 1.00857 0.78198
 H898 H 0.75022 0.96650 0.74151
 H899 H 0.73419 1.02053 0.72675
 H900 H 0.79023 1.00955 0.74066
 H901 H 0.78689 1.03647 0.75944
 H902 H 0.78840 1.03510 0.73395
 H903 H 0.73278 0.95874 0.75874
 H904 H 0.71668 0.97379 0.74170
 H905 H 0.76500 1.02636 0.78967
 H906 H 0.74764 1.04081 0.77299
 H907 H 0.76713 0.96023 0.72305
 H908 H 0.74867 0.97370 0.70904
 H909 H 0.71639 1.00779 0.77404
 H910 H 0.73149 0.99150 0.78953
 H911 H 0.78012 1.00744 0.70687
 H912 H 0.79894 0.99246 0.72391
 O913 O 0.71267 0.53026 0.25766
 O914 O 0.71954 0.52894 0.28449
 O915 O 0.75297 0.54968 0.23765
 O916 O 0.77842 0.54436 0.23769
 O917 O 0.73205 0.51046 0.21713
 O918 O 0.73180 0.48367 0.22320
 O919 O 0.79335 0.50536 0.27563
 O920 O 0.79049 0.53266 0.27232
 O921 O 0.75411 0.49025 0.29756
 O922 O 0.72599 0.49280 0.29275
 O923 O 0.76990 0.46821 0.25823
 O924 O 0.76744 0.47389 0.23002
 O925 O 0.79150 0.48731 0.25703
 O926 O 0.78536 0.48854 0.22985
 O927 O 0.75227 0.46948 0.27732
 O928 O 0.72482 0.47611 0.27708
 O929 O 0.77369 0.50747 0.29662
 O930 O 0.77410 0.53412 0.29168
 O931 O 0.71110 0.51173 0.23946
 O932 O 0.71520 0.48493 0.24043
 O933 O 0.75138 0.52802 0.21651
 O934 O 0.77844 0.52480 0.22133
 O935 O 0.73512 0.55053 0.25663
 O936 O 0.73719 0.54539 0.28337
 Zr937 Zr 0.73532 0.52855 0.26610
 O938 O 0.74872 0.51465 0.28035
 Zr939 Zr 0.76130 0.52712 0.23837
 O940 O 0.77582 0.51293 0.25133
 Zr941 Zr 0.73288 0.50154 0.23947
 O942 O 0.74596 0.48635 0.25264
 Zr943 Zr 0.77214 0.51690 0.27469
 O944 O 0.75887 0.53246 0.26176
 Zr945 Zr 0.74349 0.49167 0.27597
 O946 O 0.72878 0.50562 0.26286
 Zr947 Zr 0.76937 0.48997 0.24805
 O948 O 0.75618 0.50406 0.23357
 O949 O 0.73800 0.52445 0.24286
 O950 O 0.76690 0.49392 0.27142
 C951 C 0.70531 0.52270 0.24732
 C952 C 0.74267 0.55665 0.24558
 C953 C 0.74024 0.52062 0.21026
 C954 C 0.79875 0.49407 0.26790
 C955 C 0.76570 0.49723 0.30351
 C956 C 0.76255 0.46239 0.26958
 H957 H 0.74670 0.51740 0.29113
 H958 H 0.74273 0.47576 0.25034
 H959 H 0.73154 0.53115 0.23647
 H960 H 0.78669 0.51481 0.24857
 H961 H 0.78605 0.54217 0.26816
 H962 H 0.78777 0.54024 0.24256
 H963 H 0.72518 0.46958 0.26784
 H964 H 0.71088 0.48543 0.25090
 H965 H 0.76410 0.53490 0.29697
 H966 H 0.74756 0.54999 0.28234
 H967 H 0.75865 0.46706 0.23232
 H968 H 0.74176 0.48372 0.21774
 H969 H 0.71365 0.51926 0.28396
 H970 H 0.72817 0.50171 0.29939
 H971 H 0.77663 0.51486 0.21622
 H972 H 0.79216 0.49760 0.23044
 O973 O 0.50224 0.21357 0.72326
 O974 O 0.47545 0.21783 0.72498
 O975 O 0.51871 0.25493 0.70270
 O976 O 0.51916 0.27955 0.70770
 O977 O 0.54193 0.23594 0.74207
 O978 O 0.53676 0.23573 0.76858
 O979 O 0.47929 0.29276 0.74580
 O980 O 0.48078 0.28866 0.71942
 O981 O 0.46070 0.25284 0.76452
 O982 O 0.46666 0.22618 0.76354
 O983 O 0.49976 0.27297 0.78406
 O984 O 0.52679 0.27338 0.77842
 O985 O 0.49816 0.29340 0.76374
 O986 O 0.52685 0.28852 0.76112
 O987 O 0.48177 0.25410 0.78443
 O988 O 0.48478 0.22572 0.77798
 O989 O 0.45962 0.27176 0.74688
 O990 O 0.46397 0.26987 0.71875
 O991 O 0.52098 0.21368 0.74137
 O992 O 0.51962 0.21890 0.76878
 O993 O 0.54102 0.25431 0.72382
 O994 O 0.53400 0.28164 0.72730
 O995 O 0.50106 0.23571 0.70245
 O996 O 0.47391 0.23567 0.70918
 Zr997 Zr 0.49230 0.23531 0.72498
 O998 O 0.47741 0.24768 0.73934
 Zr999 Zr 0.51852 0.26301 0.72524
 O1000 O 0.50445 0.27693 0.73893
 Zr1001 Zr 0.51970 0.23560 0.75138
 O1002 O 0.50633 0.24862 0.76665
 Zr1003 Zr 0.48118 0.27108 0.73592
 O1004 O 0.49510 0.25873 0.72044
 Zr1005 Zr 0.48301 0.24411 0.76244
 O1006 O 0.49641 0.22989 0.74810
 Zr1007 Zr 0.50900 0.27202 0.76196
 O1008 O 0.52415 0.25903 0.74825
 O1009 O 0.51553 0.23971 0.72838
 O1010 O 0.48567 0.26747 0.75903
 C1011 C 0.51324 0.20716 0.73060
 C1012 C 0.51119 0.24424 0.69590
 C1013 C 0.54811 0.24398 0.73143
 C1014 C 0.48683 0.29942 0.75654
 C1015 C 0.45373 0.26378 0.75775
 C1016 C 0.48912 0.26527 0.79071
 H1017 H 0.46667 0.24466 0.73719
 H1018 H 0.50924 0.24617 0.77728
 H1019 H 0.52214 0.23363 0.72148
 H1020 H 0.50634 0.28777 0.73642
 H1021 H 0.48603 0.28465 0.71020
 H1022 H 0.51159 0.28747 0.71043
 H1023 H 0.49289 0.22829 0.78549
 H1024 H 0.50988 0.21310 0.76771
 H1025 H 0.45717 0.26106 0.72092
 H1026 H 0.47426 0.24577 0.70417
 H1027 H 0.52710 0.26350 0.78384
 H1028 H 0.54103 0.24622 0.76888
 H1029 H 0.47592 0.21299 0.73518
 H1030 H 0.46123 0.22583 0.75361
 H1031 H 0.54070 0.27955 0.73620
 H1032 H 0.52419 0.29605 0.75316
 O1033 O 0.26502 0.79781 0.49713
 O1034 O 0.26380 0.79363 0.52437
 O1035 O 0.28971 0.75832 0.48186
 O1036 O 0.28678 0.73288 0.48304
 O1037 O 0.24900 0.77304 0.45840
 O1038 O 0.22184 0.76968 0.46381
 O1039 O 0.24930 0.71732 0.52229
 O1040 O 0.27599 0.72343 0.51938
 O1041 O 0.22834 0.75558 0.54018
 O1042 O 0.22843 0.78352 0.53276
 O1043 O 0.20947 0.73384 0.50261
 O1044 O 0.21526 0.73406 0.47452
 O1045 O 0.23118 0.71502 0.50373
 O1046 O 0.23241 0.71874 0.47580
 O1047 O 0.20814 0.75333 0.51970
 O1048 O 0.21162 0.78084 0.51713
 O1049 O 0.24785 0.73852 0.54128
 O1050 O 0.27523 0.74189 0.53664
 O1051 O 0.24694 0.79536 0.47849
 O1052 O 0.22045 0.78792 0.47963
 O1053 O 0.26862 0.75610 0.45989
 O1054 O 0.26756 0.72924 0.46699
 O1055 O 0.28801 0.77797 0.49881
 O1056 O 0.28207 0.77824 0.52540
 Zr1057 Zr 0.26564 0.77622 0.50769
 O1058 O 0.25287 0.76274 0.52304
 Zr1059 Zr 0.26783 0.74789 0.48245
 O1060 O 0.25502 0.73315 0.49666
 Zr1061 Zr 0.23918 0.77270 0.48049
 O1062 O 0.22509 0.75919 0.49473
 Zr1063 Zr 0.25802 0.73958 0.51959
 O1064 O 0.27232 0.75322 0.50555
 Zr1065 Zr 0.22943 0.76450 0.51781
 O1066 O 0.24207 0.77943 0.50348
 Zr1067 Zr 0.23140 0.73620 0.49254
 O1068 O 0.24434 0.74956 0.47692
 O1069 O 0.26257 0.77085 0.48476
 O1070 O 0.23452 0.74142 0.51556
 C1071 C 0.25705 0.80311 0.48596
 C1072 C 0.29540 0.76995 0.48895
 C1073 C 0.26046 0.76583 0.45256
 C1074 C 0.23877 0.70980 0.51516
 C1075 C 0.23632 0.74545 0.54719
 C1076 C 0.20250 0.74147 0.51309
 H1077 H 0.25503 0.76607 0.53362
 H1078 H 0.21419 0.76079 0.49203
 H1079 H 0.26889 0.77743 0.47803
 H1080 H 0.25822 0.72248 0.49498
 H1081 H 0.28497 0.72846 0.51453
 H1082 H 0.28375 0.72394 0.48924
 H1083 H 0.20575 0.77915 0.50759
 H1084 H 0.22032 0.79338 0.48955
 H1085 H 0.27345 0.75150 0.54228
 H1086 H 0.28746 0.76834 0.52586
 H1087 H 0.20785 0.74251 0.47548
 H1088 H 0.22340 0.75943 0.45930
 H1089 H 0.25335 0.79792 0.52335
 H1090 H 0.23684 0.78256 0.54030
 H1091 H 0.25776 0.72974 0.46128
 H1092 H 0.24214 0.71316 0.47729
 O1093 O 0.28972 0.25159 0.97953
 O1094 O 0.28533 0.22446 0.97969
 O1095 O 0.24872 0.26794 0.95791
 O1096 O 0.22334 0.26661 0.96202
 O1097 O 0.26617 0.28947 0.99859
 O1098 O 0.26437 0.28297 1.02543
 O1099 O 0.20925 0.22603 0.99799
 O1100 O 0.21417 0.22971 0.97143
 O1101 O 0.24860 0.20723 1.01657
 O1102 O 0.27674 0.21427 1.01526
 O1103 O 0.22844 0.24401 1.03781
 O1104 O 0.22849 0.27200 1.03334
 O1105 O 0.20819 0.24377 1.01695
 O1106 O 0.21238 0.27169 1.01687
 O1107 O 0.24792 0.22690 1.03747
 O1108 O 0.27563 0.22964 1.03240
 O1109 O 0.23042 0.20690 0.99794
 O1110 O 0.23253 0.21250 0.97069
 O1111 O 0.28852 0.26930 0.99854
 O1112 O 0.28252 0.26708 1.02516
 O1113 O 0.24799 0.28884 0.97993
 O1114 O 0.22086 0.28165 0.98206
 O1115 O 0.26842 0.25101 0.95769
 O1116 O 0.26858 0.22409 0.96242
 Zr1117 Zr 0.26784 0.24109 0.97959
 O1118 O 0.25485 0.22526 0.99235
 Zr1119 Zr 0.23951 0.26634 0.98009
 O1120 O 0.22526 0.25163 0.99288
 Zr1121 Zr 0.26614 0.26704 1.00731
 O1122 O 0.25314 0.25233 1.02136
 Zr1123 Zr 0.23130 0.22888 0.98856
 O1124 O 0.24434 0.24351 0.97428
 Zr1125 Zr 0.25794 0.22950 1.01578
 O1126 O 0.27242 0.24425 1.00303
 Zr1127 Zr 0.22968 0.25481 1.01633
 O1128 O 0.24261 0.27089 1.00355
 O1129 O 0.26288 0.26380 0.98401
 O1130 O 0.23446 0.23198 1.01198
 C1131 C 0.29565 0.26235 0.98772
 C1132 C 0.26003 0.26120 0.95129
 C1133 C 0.25834 0.29578 0.98785
 C1134 C 0.20232 0.23282 1.00904
 C1135 C 0.23783 0.20060 1.00891
 C1136 C 0.23642 0.23336 1.04396
 H1137 H 0.25795 0.21478 0.98960
 H1138 H 0.25540 0.25460 1.03220
 H1139 H 0.26922 0.27078 0.97772
 H1140 H 0.21437 0.25347 0.99027
 H1141 H 0.21881 0.23495 0.96251
 H1142 H 0.21454 0.26011 0.96509
 H1143 H 0.27411 0.23866 1.03904
 H1144 H 0.28793 0.25720 1.02452
 H1145 H 0.24217 0.20671 0.97185
 H1146 H 0.25832 0.22397 0.95752
 H1147 H 0.23763 0.27103 1.03997
 H1148 H 0.25401 0.28753 1.02466
 H1149 H 0.28999 0.22477 0.99001
 H1150 H 0.27527 0.20724 1.00651
 H1151 H 0.22211 0.28711 0.99191
 H1152 H 0.20609 0.27050 1.00752
 C1153 C 0.29114 0.35162 0.81401
 C1154 C 0.28446 0.36516 0.80894
 C1155 C 0.29011 0.37264 0.79592
 C1156 C 0.30275 0.36636 0.78812
 C1157 C 0.30944 0.35285 0.79320
 C1158 C 0.30377 0.34534 0.80623
 C1159 C 0.28316 0.38734 0.79133
 C1160 C 0.28392 0.39286 0.77705
 C1161 C 0.27817 0.40810 0.77254
 C1162 C 0.28421 0.41483 0.75929
 C1163 C 0.27964 0.42938 0.75480
 C1164 C 0.26877 0.43753 0.76342
 C1165 C 0.26238 0.43063 0.77648
 C1166 C 0.26699 0.41606 0.78098
 H1167 H 0.28651 0.34618 0.82413
 H1168 H 0.27484 0.36984 0.81525
 H1169 H 0.30784 0.37201 0.77837
 H1170 H 0.31922 0.34842 0.78699
 H1171 H 0.27742 0.39379 0.80020
 H1172 H 0.28954 0.38624 0.76823
 H1173 H 0.29275 0.40892 0.75251
 H1174 H 0.28477 0.43430 0.74465
 H1175 H 0.25390 0.43653 0.78333
 H1176 H 0.26165 0.41111 0.79099
 C1177 C 0.31759 -0.14299 0.29327
 C1178 C 0.31235 -0.12944 0.28676
 C1179 C 0.29936 -0.12203 0.29262
 C1180 C 0.29177 -0.12841 0.30531
 C1181 C 0.29700 -0.14195 0.31185
 C1182 C 0.31003 -0.14945 0.30598
 C1183 C 0.29462 -0.10737 0.28564
 C1184 C 0.28046 -0.10149 0.28698
 C1185 C 0.27598 -0.08649 0.28059
 C1186 C 0.26342 -0.07885 0.28709
 C1187 C 0.25902 -0.06451 0.28175
 C1188 C 0.26701 -0.05751 0.26964
 C1189 C 0.27933 -0.06535 0.26285
 C1190 C 0.28373 -0.07969 0.26820
 H1191 H 0.32767 -0.14830 0.28836
 H1192 H 0.31850 -0.12471 0.27708
 H1193 H 0.28203 -0.12285 0.31054
 H1194 H 0.29086 -0.14640 0.32167
 H1195 H 0.30330 -0.10125 0.27921
 H1196 H 0.27177 -0.10759 0.29341
 H1197 H 0.25715 -0.08388 0.29654
 H1198 H 0.24946 -0.05885 0.28724
 H1199 H 0.28567 -0.06037 0.25342
 H1200 H 0.29311 -0.08539 0.26249
 C1201 C 0.79111 0.84885 0.80895
 C1202 C 0.78556 0.86313 0.80470
 C1203 C 0.79302 0.87168 0.79336
 C1204 C 0.80629 0.86572 0.78641
 C1205 C 0.81186 0.85144 0.79066
 C1206 C 0.80437 0.84287 0.80203
 C1207 C 0.78706 0.88700 0.78965
 C1208 C 0.78957 0.89389 0.77621
 C1209 C 0.78426 0.90948 0.77263
 C1210 C 0.79186 0.91757 0.76104
 C1211 C 0.78739 0.93233 0.75726
 C1212 C 0.77510 0.93934 0.76495
 C1213 C 0.76734 0.93118 0.77644
 C1214 C 0.77182 0.91638 0.78021
 H1215 H 0.78508 0.84259 0.81779
 H1216 H 0.77540 0.86752 0.81032
 H1217 H 0.81271 0.87216 0.77800
 H1218 H 0.82219 0.84725 0.78520
 H1219 H 0.78039 0.89266 0.79840
 H1220 H 0.79617 0.88811 0.76747
 H1221 H 0.80141 0.91248 0.75495
 H1222 H 0.79362 0.93825 0.74832
 H1223 H 0.75772 0.93618 0.78248
 H1224 H 0.76531 0.91038 0.78887
 C1225 C 0.45721 0.89511 0.31788
 C1226 C 0.46443 0.88236 0.31166
 C1227 C 0.45955 0.87620 0.29768
 C1228 C 0.44711 0.88299 0.29004
 C1229 C 0.43977 0.89573 0.29631
 C1230 C 0.44469 0.90197 0.31036
 C1231 C 0.46722 0.86227 0.29198
 C1232 C 0.46759 0.85816 0.27721
 C1233 C 0.47449 0.84369 0.27182
 C1234 C 0.46901 0.83721 0.25819
 C1235 C 0.47440 0.82310 0.25317
 C1236 C 0.48556 0.81518 0.26162
 C1237 C 0.49158 0.82200 0.27491
 C1238 C 0.48615 0.83613 0.27994
 H1239 H 0.46143 0.89943 0.32872
 H1240 H 0.47390 0.87728 0.31782
 H1241 H 0.44270 0.87828 0.27946
 H1242 H 0.43016 0.90056 0.29017
 H1243 H 0.47270 0.85516 0.30045
 H1244 H 0.46206 0.86524 0.26874
 H1245 H 0.46017 0.84287 0.25162
 H1246 H 0.46956 0.81825 0.24282
 H1247 H 0.50027 0.81629 0.28162
 H1248 H 0.49112 0.84103 0.29018
 C1249 C -0.03784 0.89533 0.81539
 C1250 C -0.03146 0.88179 0.80993
 C1251 C -0.03733 0.87468 0.79676
 C1252 C -0.04985 0.88139 0.78917
 C1253 C -0.05625 0.89495 0.79465
 C1254 C -0.05037 0.90204 0.80787
 C1255 C -0.03057 0.85996 0.79187
 C1256 C -0.03180 0.85427 0.77766
 C1257 C -0.02570 0.83915 0.77314
 C1258 C -0.03246 0.83156 0.76067
 C1259 C -0.02747 0.81708 0.75630
 C1260 C -0.01546 0.80989 0.76423
 C1261 C -0.00838 0.81769 0.77644
 C1262 C -0.01340 0.83218 0.78082
 H1263 H -0.03302 0.90044 0.82562
 H1264 H -0.02191 0.87682 0.81606
 H1265 H -0.05506 0.87607 0.77927
 H1266 H -0.06597 0.89973 0.78864
 H1267 H -0.02444 0.85361 0.80050
 H1268 H -0.03797 0.86056 0.76902
 H1269 H -0.04185 0.83674 0.75447
 H1270 H -0.03316 0.81146 0.74680
 H1271 H 0.00098 0.81256 0.78271
 H1272 H -0.00750 0.83786 0.79013
 C1273 C -0.04634 -0.14715 -0.06955
 C1274 C -0.03983 -0.13351 -0.06422
 C1275 C -0.04572 -0.12616 -0.05123
 C1276 C -0.05850 -0.13268 -0.04377
 C1277 C -0.06505 -0.14631 -0.04909
 C1278 C -0.05910 -0.15378 -0.06209
 C1279 C -0.03868 -0.11146 -0.04628
 C1280 C -0.03976 -0.10593 -0.03198
 C1281 C -0.03342 -0.09094 -0.02698
 C1282 C -0.03933 -0.08434 -0.01359
 C1283 C -0.03399 -0.07018 -0.00843
 C1284 C -0.02245 -0.06225 -0.01646
 C1285 C -0.01627 -0.06897 -0.02973
 C1286 C -0.02166 -0.08316 -0.03493
 H1287 H -0.04136 -0.15240 -0.07961
 H1288 H -0.03009 -0.12868 -0.07028
 H1289 H -0.06378 -0.12716 -0.03404
 H1290 H -0.07492 -0.15087 -0.04304
 H1291 H -0.03241 -0.10509 -0.05485
 H1292 H -0.04593 -0.11246 -0.02344
 H1293 H -0.04829 -0.09009 -0.00717
 H1294 H -0.03901 -0.06542 0.00185
 H1295 H -0.00733 -0.06323 -0.03616
 H1296 H -0.01644 -0.08799 -0.04504
 C1297 C -0.03485 0.33869 0.44246
 C1298 C -0.02808 0.35193 0.44837
 C1299 C -0.03379 0.35876 0.46171
 C1300 C -0.04650 0.35201 0.46909
 C1301 C -0.05332 0.33876 0.46317
 C1302 C -0.04769 0.33196 0.44967
 C1303 C -0.02677 0.37335 0.46689
 C1304 C -0.02802 0.37889 0.48116
 C1305 C -0.02199 0.39408 0.48580
 C1306 C -0.02890 0.40155 0.49820
 C1307 C -0.02422 0.41624 0.50245
 C1308 C -0.01239 0.42376 0.49444
 C1309 C -0.00503 0.41603 0.48240
 C1310 C -0.00973 0.40134 0.47815
 H1311 H -0.03007 0.33391 0.43207
 H1312 H -0.01837 0.35693 0.44241
 H1313 H -0.05157 0.35712 0.47914
 H1314 H -0.06319 0.33404 0.46909
 H1315 H -0.02053 0.37983 0.45837
 H1316 H -0.03430 0.37248 0.48970
 H1317 H -0.03824 0.39616 0.50440
 H1318 H -0.03010 0.42178 0.51184
 H1319 H 0.00423 0.42141 0.47609
 H1320 H -0.00369 0.39576 0.46891
 C1321 C 0.45550 -0.14303 0.43126
 C1322 C 0.46194 -0.12971 0.43741
 C1323 C 0.45587 -0.12301 0.45068
 C1324 C 0.44305 -0.12996 0.45767
 C1325 C 0.43659 -0.14330 0.45155
 C1326 C 0.44266 -0.15003 0.43819
 C1327 C 0.46294 -0.10857 0.45638
 C1328 C 0.46061 -0.10266 0.47039
 C1329 C 0.46756 -0.08802 0.47564
 C1330 C 0.46033 -0.07983 0.48743
 C1331 C 0.46632 -0.06585 0.49249
 C1332 C 0.47981 -0.05979 0.48597
 C1333 C 0.48728 -0.06821 0.47446
 C1334 C 0.48128 -0.08216 0.46940
 H1335 H 0.46059 -0.14774 0.42098
 H1336 H 0.47175 -0.12459 0.43171
 H1337 H 0.43768 -0.12506 0.46766
 H1338 H 0.42668 -0.14819 0.45726
 H1339 H 0.47036 -0.10257 0.44847
 H1340 H 0.45305 -0.10841 0.47834
 H1341 H 0.44984 -0.08415 0.49256
 H1342 H 0.46027 -0.05971 0.50139
 H1343 H 0.49776 -0.06398 0.46924
 H1344 H 0.48756 -0.08834 0.46072
 C1345 C 0.45756 0.35007 -0.06599
 C1346 C 0.46418 0.36319 -0.05958
 C1347 C 0.45808 0.36982 -0.04628
 C1348 C 0.44508 0.36297 -0.03951
 C1349 C 0.43843 0.34983 -0.04591
 C1350 C 0.44450 0.34320 -0.05932
 C1351 C 0.46526 0.38414 -0.04041
 C1352 C 0.46291 0.38998 -0.02637
 C1353 C 0.46978 0.40466 -0.02107
 C1354 C 0.46245 0.41280 -0.00931
 C1355 C 0.46818 0.42695 -0.00440
 C1356 C 0.48150 0.43325 -0.01106
 C1357 C 0.48915 0.42483 -0.02244
 C1358 C 0.48342 0.41069 -0.02734
 H1359 H 0.46267 0.34544 -0.07629
 H1360 H 0.47412 0.36823 -0.06512
 H1361 H 0.43971 0.36782 -0.02949
 H1362 H 0.42837 0.34503 -0.04038
 H1363 H 0.47274 0.39016 -0.04825
 H1364 H 0.45530 0.38420 -0.01849
 H1365 H 0.45203 0.40837 -0.00415
 H1366 H 0.46197 0.43309 0.00438
 H1367 H 0.49951 0.42923 -0.02774
 H1368 H 0.48979 0.40456 -0.03599
 C1369 C 0.78418 0.40771 0.44888
 C1370 C 0.77803 0.39403 0.45432
 C1371 C 0.78542 0.38594 0.46598
 C1372 C 0.79906 0.39196 0.47230
 C1373 C 0.80522 0.40566 0.46686
 C1374 C 0.79798 0.41357 0.45493
 C1375 C 0.77911 0.37084 0.47033
 C1376 C 0.78253 0.36361 0.48337
 C1377 C 0.77704 0.34796 0.48678
 C1378 C 0.78568 0.33889 0.49675
 C1379 C 0.78133 0.32381 0.49966
 C1380 C 0.76817 0.31752 0.49270
 C1381 C 0.75924 0.32676 0.48311
 C1382 C 0.76356 0.34184 0.48026
 H1383 H 0.77828 0.41350 0.43970
 H1384 H 0.76756 0.38962 0.44921
 H1385 H 0.80538 0.38593 0.48100
 H1386 H 0.81591 0.40981 0.47172
 H1387 H 0.77160 0.36539 0.46208
 H1388 H 0.79015 0.36890 0.49161
 H1389 H 0.79603 0.34338 0.50203
 H1390 H 0.78842 0.31702 0.50717
 H1391 H 0.74887 0.32237 0.47780
 H1392 H 0.75620 0.34863 0.47304
 C1393 C 0.81215 0.89134 -0.04629
 C1394 C 0.80620 0.87754 -0.04093
 C1395 C 0.79382 0.87037 -0.04834
 C1396 C 0.78749 0.87734 -0.06136
 C1397 C 0.79345 0.89117 -0.06677
 C1398 C 0.80594 0.89836 -0.05936
 C1399 C 0.78845 0.85540 -0.04243
 C1400 C 0.77479 0.84901 -0.04575
 C1401 C 0.77004 0.83382 -0.03993
 C1402 C 0.75935 0.82518 -0.04835
 C1403 C 0.75500 0.81058 -0.04354
 C1404 C 0.76117 0.80434 -0.03009
 C1405 C 0.77149 0.81321 -0.02139
 C1406 C 0.77582 0.82780 -0.02620
 H1407 H 0.82175 0.89639 -0.04018
 H1408 H 0.81135 0.87241 -0.03092
 H1409 H 0.77821 0.87205 -0.06770
 H1410 H 0.78834 0.89609 -0.07690
 H1411 H 0.79632 0.84942 -0.03501
 H1412 H 0.76691 0.85474 -0.05333
 H1413 H 0.75458 0.82962 -0.05887
 H1414 H 0.74697 0.80411 -0.05049
 H1415 H 0.77632 0.80887 -0.01087
 H1416 H 0.78359 0.83431 -0.01903
 C1417 C 0.79190 0.32190 0.35608
 C1418 C 0.78555 0.31670 0.36979
 C1419 C 0.79100 0.30339 0.37676
 C1420 C 0.80312 0.29541 0.36971
 C1421 C 0.80950 0.30063 0.35598
 C1422 C 0.80400 0.31397 0.34902
 C1423 C 0.78424 0.29874 0.39164
 C1424 C 0.78498 0.28453 0.39728
 C1425 C 0.77876 0.28014 0.41248
 C1426 C 0.78483 0.26725 0.41972
 C1427 C 0.77969 0.26289 0.43421
 C1428 C 0.76821 0.27126 0.44179
 C1429 C 0.76180 0.28392 0.43435
 C1430 C 0.76697 0.28829 0.41985
 H1431 H 0.78738 0.33223 0.35109
 H1432 H 0.77633 0.32313 0.37501
 H1433 H 0.80802 0.28538 0.37490
 H1434 H 0.81888 0.29430 0.35093
 H1435 H 0.77847 0.30753 0.39813
 H1436 H 0.79077 0.27573 0.39082
 H1437 H 0.79381 0.26067 0.41426
 H1438 H 0.78485 0.25303 0.43953
 H1439 H 0.75284 0.29054 0.43977
 H1440 H 0.76157 0.29796 0.41446
 C1441 C 0.78880 0.80505 -0.15775
 C1442 C 0.78197 0.79812 -0.14513
 C1443 C 0.78834 0.78504 -0.13859
 C1444 C 0.80171 0.77883 -0.14517
 C1445 C 0.80860 0.78577 -0.15788
 C1446 C 0.80237 0.79914 -0.16422
 C1447 C 0.78107 0.77903 -0.12448
 C1448 C 0.78388 0.76532 -0.11834
 C1449 C 0.77702 0.76051 -0.10359
 C1450 C 0.78515 0.75037 -0.09427
 C1451 C 0.77962 0.74655 -0.07975
 C1452 C 0.76577 0.75273 -0.07430
 C1453 C 0.75725 0.76228 -0.08395
 C1454 C 0.76275 0.76605 -0.09847
 H1455 H 0.78347 0.81524 -0.16223
 H1456 H 0.77170 0.80317 -0.14032
 H1457 H 0.80720 0.76892 -0.14037
 H1458 H 0.81901 0.78083 -0.16248
 H1459 H 0.77320 0.78663 -0.11870
 H1460 H 0.79200 0.75769 -0.12367
 H1461 H 0.79606 0.74580 -0.09802
 H1462 H 0.78645 0.73910 -0.07265
 H1463 H 0.74641 0.76703 -0.08023
 H1464 H 0.75580 0.77335 -0.10559
 C1465 C 0.29268 0.43235 0.89549
 C1466 C 0.28669 0.43764 0.88164
 C1467 C 0.29374 0.44980 0.87384
 C1468 C 0.30708 0.45646 0.88014
 C1469 C 0.31304 0.45120 0.89397
 C1470 C 0.30595 0.43906 0.90182
 C1471 C 0.28724 0.45471 0.85893
 C1472 C 0.29007 0.46838 0.85256
 C1473 C 0.28407 0.47309 0.83739
 C1474 C 0.29166 0.48488 0.82954
 C1475 C 0.28656 0.48963 0.81517
 C1476 C 0.27360 0.48278 0.80835
 C1477 C 0.26582 0.47116 0.81635
 C1478 C 0.27094 0.46640 0.83070
 H1479 H 0.28694 0.42295 0.90117
 H1480 H 0.27649 0.43220 0.87699
 H1481 H 0.31324 0.46548 0.87433
 H1482 H 0.32337 0.45656 0.89840
 H1483 H 0.27990 0.44659 0.85308
 H1484 H 0.29738 0.47651 0.85842
 H1485 H 0.30172 0.49033 0.83447
 H1486 H 0.29283 0.49863 0.80938
 H1487 H 0.25573 0.46568 0.81151
 H1488 H 0.26441 0.45764 0.83654
 C1489 C 0.31485 -0.03611 0.40072
 C1490 C 0.31004 -0.02985 0.38687
 C1491 C 0.29681 -0.03534 0.37950
 C1492 C 0.28850 -0.04742 0.38625
 C1493 C 0.29336 -0.05375 0.40011
 C1494 C 0.30662 -0.04818 0.40750
 C1495 C 0.29259 -0.02863 0.36453
 C1496 C 0.27838 -0.02919 0.35859
 C1497 C 0.27439 -0.02292 0.34334
 C1498 C 0.26139 -0.02876 0.33581
 C1499 C 0.25741 -0.02360 0.32126
 C1500 C 0.26627 -0.01232 0.31390
 C1501 C 0.27905 -0.00613 0.32162
 C1502 C 0.28305 -0.01132 0.33620
 H1503 H 0.32515 -0.03154 0.40601
 H1504 H 0.31672 -0.02065 0.38189
 H1505 H 0.27850 -0.05233 0.38073
 H1506 H 0.28680 -0.06310 0.40495
 H1507 H 0.30171 -0.02300 0.35826
 H1508 H 0.26927 -0.03485 0.36485
 H1509 H 0.25444 -0.03759 0.34109
 H1510 H 0.24745 -0.02861 0.31571
 H1511 H 0.28607 0.00265 0.31635
 H1512 H 0.29283 -0.00610 0.34180
 C1513 C -0.04011 -0.06532 -0.14574
 C1514 C -0.03458 -0.05957 -0.13191
 C1515 C -0.04131 -0.04678 -0.12505
 C1516 C -0.05383 -0.03981 -0.13239
 C1517 C -0.05945 -0.04559 -0.14628
 C1518 C -0.05272 -0.05851 -0.15313
 C1519 C -0.03523 -0.04168 -0.11001
 C1520 C -0.03748 -0.02780 -0.10393
 C1521 C -0.03136 -0.02328 -0.08872
 C1522 C -0.03892 -0.01185 -0.08040
 C1523 C -0.03384 -0.00765 -0.06581
 C1524 C -0.02096 -0.01472 -0.05924
 C1525 C -0.01309 -0.02582 -0.06778
 C1526 C -0.01816 -0.02999 -0.08237
 H1527 H -0.03451 -0.07526 -0.15051
 H1528 H -0.02496 -0.06521 -0.12650
 H1529 H -0.05962 -0.03015 -0.12733
 H1530 H -0.06920 -0.04002 -0.15150
 H1531 H -0.02853 -0.04992 -0.10374
 H1532 H -0.04437 -0.01954 -0.10995
 H1533 H -0.04900 -0.00637 -0.08508
 H1534 H -0.04018 0.00096 -0.05958
 H1535 H -0.00303 -0.03137 -0.06317
 H1536 H -0.01161 -0.03839 -0.08863
 C1537 C -0.06367 0.45204 0.35996
 C1538 C -0.05747 0.45758 0.37359
 C1539 C -0.04470 0.45059 0.38029
 C1540 C -0.03823 0.43779 0.37301
 C1541 C -0.04447 0.43218 0.35933
 C1542 C -0.05737 0.43916 0.35263
 C1543 C -0.03915 0.45665 0.39516
 C1544 C -0.02513 0.45408 0.40097
 C1545 C -0.02024 0.46004 0.41612
 C1546 C -0.00895 0.45215 0.42431
 C1547 C -0.00458 0.45699 0.43894
 C1548 C -0.01133 0.46993 0.44564
 C1549 C -0.02220 0.47817 0.43717
 C1550 C -0.02655 0.47334 0.42256
 H1551 H -0.07357 0.45784 0.35530
 H1552 H -0.06273 0.46740 0.37897
 H1553 H -0.02863 0.43181 0.37797
 H1554 H -0.03927 0.42222 0.35415
 H1555 H -0.04717 0.46356 0.40156
 H1556 H -0.01708 0.44699 0.39482
 H1557 H -0.00377 0.44198 0.41954
 H1558 H 0.00388 0.45040 0.44509
 H1559 H -0.02747 0.48831 0.44188
 H1560 H -0.03479 0.48013 0.41637
 C1561 C 0.45147 -0.07097 0.36056
 C1562 C 0.45770 -0.06569 0.37428
 C1563 C 0.45428 -0.05106 0.37971
 C1564 C 0.44401 -0.04193 0.37135
 C1565 C 0.43760 -0.04730 0.35762
 C1566 C 0.44143 -0.06182 0.35200
 C1567 C 0.46143 -0.04605 0.39427
 C1568 C 0.46419 -0.03140 0.39783
 C1569 C 0.47153 -0.02656 0.41238
 C1570 C 0.46844 -0.01191 0.41801
 C1571 C 0.47460 -0.00704 0.43195
 C1572 C 0.48418 -0.01666 0.44053
 C1573 C 0.48778 -0.03112 0.43461
 C1574 C 0.48155 -0.03603 0.42067
 H1575 H 0.45454 -0.08229 0.35667
 H1576 H 0.46543 -0.07301 0.38057
 H1577 H 0.44073 -0.03075 0.37544
 H1578 H 0.42983 -0.04003 0.35134
 H1579 H 0.46490 -0.05492 0.40210
 H1580 H 0.46067 -0.02252 0.39003
 H1581 H 0.46094 -0.00432 0.41178
 H1582 H 0.47166 0.00422 0.43609
 H1583 H 0.49517 -0.03879 0.44088
 H1584 H 0.48468 -0.04719 0.41644
 C1585 C 0.43970 0.45925 -0.14943
 C1586 C 0.44444 0.46440 -0.13507
 C1587 C 0.45630 0.45706 -0.12721
 C1588 C 0.46340 0.44437 -0.13403
 C1589 C 0.45869 0.43920 -0.14840
 C1590 C 0.44666 0.44646 -0.15627
 C1591 C 0.46036 0.46261 -0.11172
 C1592 C 0.47371 0.45961 -0.10471
 C1593 C 0.47734 0.46510 -0.08910
 C1594 C 0.48794 0.45696 -0.08028
 C1595 C 0.49157 0.46171 -0.06544
 C1596 C 0.48470 0.47480 -0.05918
 C1597 C 0.47427 0.48308 -0.06813
 C1598 C 0.47070 0.47836 -0.08295
 H1599 H 0.43041 0.46522 -0.15503
 H1600 H 0.43873 0.47416 -0.13004
 H1601 H 0.47229 0.43808 -0.12821
 H1602 H 0.46434 0.42928 -0.15317
 H1603 H 0.45183 0.46945 -0.10593
 H1604 H 0.48225 0.45264 -0.11031
 H1605 H 0.49332 0.44679 -0.08482
 H1606 H 0.49969 0.45510 -0.05887
 H1607 H 0.46895 0.49335 -0.06376
 H1608 H 0.46294 0.48530 -0.08958
 C1609 C 0.43236 0.79930 0.39074
 C1610 C 0.43749 0.79291 0.37706
 C1611 C 0.45118 0.79796 0.37027
 C1612 C 0.45957 0.80982 0.37738
 C1613 C 0.45437 0.81631 0.39109
 C1614 C 0.44070 0.81109 0.39794
 C1615 C 0.45585 0.79094 0.35556
 C1616 C 0.47040 0.79057 0.35050
 C1617 C 0.47490 0.78367 0.33566
 C1618 C 0.48856 0.78866 0.32873
 C1619 C 0.49308 0.78284 0.31455
 C1620 C 0.48411 0.77173 0.30700
 C1621 C 0.47066 0.76636 0.31415
 C1622 C 0.46612 0.77222 0.32834
 H1623 H 0.42173 0.79502 0.39560
 H1624 H 0.43074 0.78390 0.37177
 H1625 H 0.46995 0.81436 0.37227
 H1626 H 0.46101 0.82545 0.39627
 H1627 H 0.44683 0.78570 0.34881
 H1628 H 0.47942 0.79585 0.35724
 H1629 H 0.49562 0.79733 0.33417
 H1630 H 0.50355 0.78721 0.30945
 H1631 H 0.46353 0.75775 0.30871
 H1632 H 0.45581 0.76763 0.33353
 C1633 C -0.06794 0.79220 0.89490
 C1634 C -0.06247 0.78534 0.88154
 C1635 C -0.04967 0.79135 0.87385
 C1636 C -0.04251 0.80456 0.87973
 C1637 C -0.04800 0.81149 0.89308
 C1638 C -0.06084 0.80545 0.90087
 C1639 C -0.04467 0.78394 0.85942
 C1640 C -0.03036 0.78507 0.85380
 C1641 C -0.02548 0.77830 0.83901
 C1642 C -0.01242 0.78437 0.83178
 C1643 C -0.00757 0.77874 0.81764
 C1644 C -0.01560 0.76677 0.81039
 C1645 C -0.02844 0.76037 0.81781
 C1646 C -0.03332 0.76603 0.83198
 H1647 H -0.07786 0.78712 0.90043
 H1648 H -0.06828 0.77526 0.87720
 H1649 H -0.03292 0.80986 0.87389
 H1650 H -0.04223 0.82170 0.89716
 H1651 H -0.05325 0.77733 0.85332
 H1652 H -0.02182 0.79164 0.86001
 H1653 H -0.00608 0.79371 0.83698
 H1654 H 0.00241 0.78393 0.81232
 H1655 H -0.03484 0.75107 0.81261
 H1656 H -0.04312 0.76065 0.83736
 C1657 C 0.35382 0.79665 0.31475
 C1658 C 0.36730 0.79001 0.30915
 C1659 C 0.37501 0.79622 0.29647
 C1660 C 0.36897 0.80940 0.28959
 C1661 C 0.35551 0.81603 0.29519
 C1662 C 0.34777 0.80977 0.30785
 C1663 C 0.38957 0.78905 0.29127
 C1664 C 0.39567 0.79103 0.27728
 C1665 C 0.41055 0.78438 0.27228
 C1666 C 0.41827 0.79105 0.25986
 C1667 C 0.43244 0.78541 0.25489
 C1668 C 0.43918 0.77283 0.26216
 C1669 C 0.43127 0.76592 0.27438
 C1670 C 0.41711 0.77157 0.27936
 H1671 H 0.34822 0.79154 0.32455
 H1672 H 0.37174 0.77996 0.31476
 H1673 H 0.37474 0.81491 0.28014
 H1674 H 0.35128 0.82621 0.28965
 H1675 H 0.39541 0.78193 0.29947
 H1676 H 0.38980 0.79813 0.26908
 H1677 H 0.41344 0.80085 0.25410
 H1678 H 0.43817 0.79104 0.24544
 H1679 H 0.43605 0.75615 0.28021
 H1680 H 0.41136 0.76573 0.28862
 C1681 C -0.14801 0.81235 0.78758
 C1682 C -0.13400 0.80758 0.78149
 C1683 C -0.12713 0.79408 0.78652
 C1684 C -0.13455 0.78544 0.79794
 C1685 C -0.14858 0.79023 0.80408
 C1686 C -0.15545 0.80378 0.79901
 C1687 C -0.11194 0.78992 0.78010
 C1688 C -0.10637 0.77569 0.78015
 C1689 C -0.09084 0.77175 0.77443
 C1690 C -0.08376 0.75868 0.78025
 C1691 C -0.06897 0.75470 0.77562
 C1692 C -0.06093 0.76362 0.76488
 C1693 C -0.06817 0.77650 0.75870
 C1694 C -0.08299 0.78052 0.76340
 H1695 H -0.15290 0.82287 0.78340
 H1696 H -0.12849 0.81451 0.77281
 H1697 H -0.12943 0.77522 0.80251
 H1698 H -0.15394 0.78343 0.81294
 H1699 H -0.10516 0.79907 0.77521
 H1700 H -0.11313 0.76654 0.78505
 H1701 H -0.08959 0.75166 0.78864
 H1702 H -0.06381 0.74464 0.78056
 H1703 H -0.06235 0.78356 0.75034
 H1704 H -0.08825 0.79039 0.75824
 C1705 C 0.90352 0.28155 0.44331
 C1706 C 0.88954 0.27605 0.44892
 C1707 C 0.88257 0.28285 0.46166
 C1708 C 0.88999 0.29530 0.46881
 C1709 C 0.90401 0.30084 0.46317
 C1710 C 0.91084 0.29413 0.45024
 C1711 C 0.86717 0.27721 0.46634
 C1712 C 0.86091 0.27963 0.48015
 C1713 C 0.84506 0.27472 0.48413
 C1714 C 0.83722 0.28263 0.49568
 C1715 C 0.82201 0.27893 0.49927
 C1716 C 0.81429 0.26712 0.49143
 C1717 C 0.82232 0.25882 0.48024
 C1718 C 0.83755 0.26251 0.47668
 H1719 H 0.90842 0.27607 0.43335
 H1720 H 0.88406 0.26651 0.44315
 H1721 H 0.88484 0.30115 0.47841
 H1722 H 0.90930 0.31060 0.46873
 H1723 H 0.86072 0.27096 0.45778
 H1724 H 0.86724 0.28599 0.48872
 H1725 H 0.84278 0.29197 0.50171
 H1726 H 0.81622 0.28553 0.50801
 H1727 H 0.81681 0.24952 0.47413
 H1728 H 0.84336 0.25570 0.46815
 C1729 C 0.89428 0.81402 -0.04582
 C1730 C 0.88096 0.80794 -0.03917
 C1731 C 0.87431 0.79442 -0.04483
 C1732 C 0.88123 0.78714 -0.05741
 C1733 C 0.89452 0.79321 -0.06406
 C1734 C 0.90118 0.80676 -0.05841
 C1735 C 0.85971 0.78882 -0.03795
 C1736 C 0.85472 0.77432 -0.03911
 C1737 C 0.83951 0.76898 -0.03348
 C1738 C 0.83304 0.75577 -0.04001
 C1739 C 0.81841 0.75071 -0.03568
 C1740 C 0.80992 0.75870 -0.02459
 C1741 C 0.81666 0.77159 -0.01761
 C1742 C 0.83129 0.77665 -0.02196
 H1743 H 0.89906 0.82450 -0.04120
 H1744 H 0.87578 0.81387 -0.02960
 H1745 H 0.87624 0.77702 -0.06251
 H1746 H 0.89943 0.78736 -0.07380
 H1747 H 0.85282 0.79715 -0.03198
 H1748 H 0.86170 0.76601 -0.04502
 H1749 H 0.83918 0.74955 -0.04880
 H1750 H 0.81363 0.74072 -0.04128
 H1751 H 0.81053 0.77794 -0.00891
 H1752 H 0.83605 0.78654 -0.01621
 C1753 C -0.14961 -0.06920 -0.04295
 C1754 C -0.13648 -0.06333 -0.03586
 C1755 C -0.12930 -0.05010 -0.04137
 C1756 C -0.13554 -0.04282 -0.05426
 C1757 C -0.14869 -0.04872 -0.06143
 C1758 C -0.15590 -0.06207 -0.05594
 C1759 C -0.11495 -0.04485 -0.03379
 C1760 C -0.10944 -0.03054 -0.03460
 C1761 C -0.09470 -0.02569 -0.02750
 C1762 C -0.08695 -0.01302 -0.03357
 C1763 C -0.07272 -0.00842 -0.02769
 C1764 C -0.06595 -0.01634 -0.01548
 C1765 C -0.07396 -0.02873 -0.00904
 C1766 C -0.08821 -0.03332 -0.01492
 H1767 H -0.15470 -0.07948 -0.03826
 H1768 H -0.13186 -0.06922 -0.02601
 H1769 H -0.13012 -0.03284 -0.05916
 H1770 H -0.15305 -0.04288 -0.07142
 H1771 H -0.10873 -0.05330 -0.02732
 H1772 H -0.11559 -0.02208 -0.04113
 H1773 H -0.09175 -0.00684 -0.04314
 H1774 H -0.06691 0.00120 -0.03293
 H1775 H -0.06917 -0.03500 0.00047
 H1776 H -0.09406 -0.04278 -0.00950
 C1777 C -0.15139 0.46257 0.44589
 C1778 C -0.13682 0.46711 0.45093
 C1779 C -0.12968 0.45964 0.46318
 C1780 C -0.13746 0.44746 0.47031
 C1781 C -0.15202 0.44294 0.46529
 C1782 C -0.15912 0.45035 0.45295
 C1783 C -0.11388 0.46438 0.46754
 C1784 C -0.10742 0.46120 0.48110
 C1785 C -0.09136 0.46538 0.48501
 C1786 C -0.08372 0.45694 0.49627
 C1787 C -0.06847 0.46030 0.50012
 C1788 C -0.06057 0.47228 0.49283
 C1789 C -0.06835 0.48095 0.48180
 C1790 C -0.08358 0.47760 0.47797
 H1791 H -0.15648 0.46852 0.43634
 H1792 H -0.13105 0.47644 0.44516
 H1793 H -0.13224 0.44105 0.47945
 H1794 H -0.15758 0.43340 0.47092
 H1795 H -0.10738 0.47062 0.45905
 H1796 H -0.11384 0.45491 0.48961
 H1797 H -0.08950 0.44757 0.50197
 H1798 H -0.06287 0.45344 0.50872
 H1799 H -0.06269 0.49039 0.47610
 H1800 H -0.08920 0.48477 0.46967
 C1801 C 0.34977 -0.05664 0.46224
 C1802 C 0.36352 -0.05151 0.46872
 C1803 C 0.37171 -0.03934 0.46222
 C1804 C 0.36582 -0.03233 0.44902
 C1805 C 0.35206 -0.03746 0.44249
 C1806 C 0.34388 -0.04980 0.44892
 C1807 C 0.38668 -0.03498 0.46909
 C1808 C 0.39356 -0.02141 0.46698
 C1809 C 0.40896 -0.01764 0.47323
 C1810 C 0.41789 -0.00657 0.46577
 C1811 C 0.43271 -0.00309 0.47088
 C1812 C 0.43889 -0.01052 0.48370
 C1813 C 0.42975 -0.02127 0.49147
 C1814 C 0.41493 -0.02475 0.48635
 H1815 H 0.34392 -0.06615 0.46763
 H1816 H 0.36783 -0.05716 0.47884
 H1817 H 0.37198 -0.02320 0.44336
 H1818 H 0.34802 -0.03189 0.43222
 H1819 H 0.39224 -0.04351 0.47605
 H1820 H 0.38812 -0.01287 0.45996
 H1821 H 0.41351 -0.00082 0.45573
 H1822 H 0.43939 0.00530 0.46464
 H1823 H 0.43407 -0.02709 0.50148
 H1824 H 0.40820 -0.03292 0.49279
 C1825 C 0.35245 0.45414 -0.06642
 C1826 C 0.36605 0.46062 -0.06082
 C1827 C 0.37298 0.45499 -0.04753
 C1828 C 0.36606 0.44258 -0.03996
 C1829 C 0.35247 0.43607 -0.04554
 C1830 C 0.34548 0.44169 -0.05891
 C1831 C 0.38774 0.46186 -0.04243
 C1832 C 0.39320 0.46077 -0.02812
 C1833 C 0.40835 0.46700 -0.02335
 C1834 C 0.41571 0.46052 -0.01068
 C1835 C 0.43021 0.46569 -0.00607
 C1836 C 0.43764 0.47758 -0.01397
 C1837 C 0.43006 0.48437 -0.02640
 C1838 C 0.41556 0.47920 -0.03100
 H1839 H 0.34753 0.45885 -0.07675
 H1840 H 0.37120 0.47009 -0.06695
 H1841 H 0.37125 0.43753 -0.02997
 H1842 H 0.34761 0.42647 -0.03941
 H1843 H 0.39432 0.46795 -0.05098
 H1844 H 0.38667 0.45466 -0.01955
 H1845 H 0.41034 0.45121 -0.00450
 H1846 H 0.43569 0.46021 0.00357
 H1847 H 0.43536 0.49366 -0.03265
 H1848 H 0.41005 0.48490 -0.04045
 C1849 C 0.40374 0.46200 0.80826
 C1850 C 0.39029 0.46815 0.80227
 C1851 C 0.38286 0.46123 0.78981
 C1852 C 0.38930 0.44801 0.78330
 C1853 C 0.40280 0.44184 0.78930
 C1854 C 0.41006 0.44866 0.80197
 C1855 C 0.36803 0.46772 0.78474
 C1856 C 0.36133 0.46469 0.77125
 C1857 C 0.34607 0.47080 0.76705
 C1858 C 0.33688 0.46256 0.75671
 C1859 C 0.32212 0.46757 0.75304
 C1860 C 0.31629 0.48104 0.75957
 C1861 C 0.32570 0.48956 0.76952
 C1862 C 0.34045 0.48456 0.77315
 H1863 H 0.40902 0.46760 0.81799
 H1864 H 0.38558 0.47830 0.80754
 H1865 H 0.38379 0.44207 0.77393
 H1866 H 0.40732 0.43150 0.78424
 H1867 H 0.36233 0.47521 0.79276
 H1868 H 0.36673 0.45702 0.76320
 H1869 H 0.34100 0.45201 0.75174
 H1870 H 0.31520 0.46076 0.74529
 H1871 H 0.32167 0.50010 0.77456
 H1872 H 0.34741 0.49160 0.78064
 C1873 C 0.39778 -0.06678 0.29594
 C1874 C 0.38445 -0.06104 0.28924
 C1875 C 0.37684 -0.04848 0.29564
 C1876 C 0.38287 -0.04182 0.30907
 C1877 C 0.39622 -0.04760 0.31582
 C1878 C 0.40382 -0.06020 0.30937
 C1879 C 0.36236 -0.04327 0.28837
 C1880 C 0.35649 -0.02924 0.29020
 C1881 C 0.34174 -0.02419 0.28332
 C1882 C 0.33437 -0.01146 0.28969
 C1883 C 0.32035 -0.00639 0.28387
 C1884 C 0.31334 -0.01385 0.27140
 C1885 C 0.32087 -0.02639 0.26477
 C1886 C 0.33492 -0.03148 0.27061
 H1887 H 0.40326 -0.07652 0.29065
 H1888 H 0.38002 -0.06647 0.27899
 H1889 H 0.37715 -0.03242 0.31466
 H1890 H 0.40046 -0.04231 0.32621
 H1891 H 0.35642 -0.05147 0.28120
 H1892 H 0.36249 -0.02106 0.29735
 H1893 H 0.33938 -0.00554 0.29939
 H1894 H 0.31493 0.00332 0.28929
 H1895 H 0.31587 -0.03236 0.25510
 H1896 H 0.34038 -0.04101 0.26498
 C1897 C 0.09758 0.53357 0.69550
 C1898 C 0.11166 0.52756 0.70009
 C1899 C 0.12006 0.53436 0.71202
 C1900 C 0.11399 0.54731 0.71938
 C1901 C 0.09989 0.55331 0.71479
 C1902 C 0.09161 0.54661 0.70268
 C1903 C 0.13544 0.52821 0.71568
 C1904 C 0.14290 0.53092 0.72885
 C1905 C 0.15878 0.52569 0.73175
 C1906 C 0.16789 0.53387 0.74220
 C1907 C 0.18315 0.52973 0.74480
 C1908 C 0.18958 0.51720 0.73709
 C1909 C 0.18029 0.50872 0.72697
 C1910 C 0.16504 0.51286 0.72438
 H1911 H 0.09152 0.52812 0.68612
 H1912 H 0.11611 0.51765 0.69418
 H1913 H 0.12023 0.55321 0.72831
 H1914 H 0.09569 0.56343 0.72051
 H1915 H 0.14088 0.52141 0.70689
 H1916 H 0.13758 0.53778 0.73766
 H1917 H 0.16329 0.54370 0.74813
 H1918 H 0.18993 0.53647 0.75274
 H1919 H 0.18480 0.49887 0.72100
 H1920 H 0.15823 0.50588 0.71670
 C1921 C 0.10068 0.04110 0.18609
 C1922 C 0.11470 0.03496 0.19078
 C1923 C 0.12286 0.04138 0.20306
 C1924 C 0.11677 0.05427 0.21047
 C1925 C 0.10277 0.06046 0.20579
 C1926 C 0.09451 0.05401 0.19348
 C1927 C 0.13798 0.03481 0.20725
 C1928 C 0.14432 0.03639 0.22116
 C1929 C 0.15983 0.03072 0.22527
 C1930 C 0.16725 0.03727 0.23795
 C1931 C 0.18199 0.03269 0.24215
 C1932 C 0.18968 0.02130 0.23383
 C1933 C 0.18212 0.01443 0.22134
 C1934 C 0.16735 0.01906 0.21711
 H1935 H 0.09480 0.03574 0.17655
 H1936 H 0.11919 0.02512 0.18477
 H1937 H 0.12293 0.05992 0.21964
 H1938 H 0.09857 0.07044 0.21175
 H1939 H 0.14396 0.02854 0.19843
 H1940 H 0.13817 0.04255 0.22995
 H1941 H 0.16170 0.04618 0.24452
 H1942 H 0.18739 0.03819 0.25188
 H1943 H 0.18766 0.00555 0.21474
 H1944 H 0.16189 0.01335 0.20756
 C1945 C 0.64981 0.70951 0.18155
 C1946 C 0.63616 0.71583 0.18694
 C1947 C 0.62930 0.71049 0.20043
 C1948 C 0.63649 0.69858 0.20848
 C1949 C 0.65020 0.69222 0.20304
 C1950 C 0.65697 0.69755 0.18945
 C1951 C 0.61438 0.71723 0.20510
 C1952 C 0.60829 0.71615 0.21916
 C1953 C 0.59307 0.72260 0.22325
 C1954 C 0.58485 0.71608 0.23542
 C1955 C 0.57025 0.72141 0.23932
 C1956 C 0.56355 0.73352 0.23122
 C1957 C 0.57199 0.74039 0.21935
 C1958 C 0.58660 0.73504 0.21544
 H1959 H 0.65464 0.71396 0.17104
 H1960 H 0.63087 0.72492 0.18046
 H1961 H 0.63144 0.69383 0.21871
 H1962 H 0.65536 0.68296 0.20937
 H1963 H 0.60816 0.72332 0.19634
 H1964 H 0.61428 0.70991 0.22796
 H1965 H 0.58961 0.70661 0.24174
 H1966 H 0.56414 0.71588 0.24858
 H1967 H 0.56727 0.74983 0.21296
 H1968 H 0.59278 0.74079 0.20638
 C1969 C 0.15342 0.70991 0.68703
 C1970 C 0.13971 0.71633 0.69219
 C1971 C 0.13219 0.71048 0.70510
 C1972 C 0.13866 0.69797 0.71278
 C1973 C 0.15238 0.69151 0.70759
 C1974 C 0.15987 0.69735 0.69460
 C1975 C 0.11723 0.71719 0.70955
 C1976 C 0.11119 0.71610 0.72362
 C1977 C 0.09576 0.72196 0.72764
 C1978 C 0.08793 0.71532 0.73998
 C1979 C 0.07307 0.71992 0.74376
 C1980 C 0.06572 0.73142 0.73535
 C1981 C 0.07376 0.73847 0.72332
 C1982 C 0.08864 0.73384 0.71953
 H1983 H 0.15883 0.71470 0.67697
 H1984 H 0.13492 0.72587 0.68600
 H1985 H 0.13300 0.69280 0.72249
 H1986 H 0.15697 0.68177 0.71363
 H1987 H 0.11099 0.72310 0.70069
 H1988 H 0.11742 0.71016 0.73248
 H1989 H 0.09320 0.70626 0.74652
 H1990 H 0.06728 0.71429 0.75317
 H1991 H 0.06852 0.74748 0.71671
 H1992 H 0.09449 0.73968 0.71032
 C1993 C 0.59418 0.19537 0.53248
 C1994 C 0.60859 0.20011 0.52727
 C1995 C 0.61624 0.21245 0.53419
 C1996 C 0.60910 0.22000 0.54652
 C1997 C 0.59465 0.21523 0.55175
 C1998 C 0.58707 0.20278 0.54487
 C1999 C 0.63188 0.21643 0.52869
 C2000 C 0.63867 0.23002 0.53103
 C2001 C 0.65460 0.23358 0.52607
 C2002 C 0.66267 0.24520 0.53374
 C2003 C 0.67781 0.24875 0.52975
 C2004 C 0.68524 0.24084 0.51786
 C2005 C 0.67705 0.22944 0.50992
 C2006 C 0.66188 0.22588 0.51392
 H2007 H 0.58872 0.18572 0.52688
 H2008 H 0.61384 0.19403 0.51783
 H2009 H 0.61475 0.22928 0.55248
 H2010 H 0.58956 0.22113 0.56139
 H2011 H 0.63798 0.20763 0.52252
 H2012 H 0.63264 0.23882 0.53724
 H2013 H 0.65730 0.25140 0.54303
 H2014 H 0.68372 0.25765 0.53610
 H2015 H 0.68236 0.22322 0.50062
 H2016 H 0.65592 0.21723 0.50734
 C2017 C 0.59493 0.70851 0.05397
 C2018 C 0.60893 0.71394 0.04825
 C2019 C 0.61605 0.70682 0.03574
 C2020 C 0.60881 0.69401 0.02906
 C2021 C 0.59479 0.68858 0.03478
 C2022 C 0.58771 0.69572 0.04735
 C2023 C 0.63122 0.71273 0.03056
 C2024 C 0.63762 0.70951 0.01695
 C2025 C 0.65304 0.71518 0.01227
 C2026 C 0.65961 0.72858 0.01839
 C2027 C 0.67431 0.73330 0.01394
 C2028 C 0.68277 0.72485 0.00317
 C2029 C 0.67602 0.71169 -0.00324
 C2030 C 0.66130 0.70697 0.00122
 H2031 H 0.58985 0.71429 0.06368
 H2032 H 0.61426 0.72376 0.05369
 H2033 H 0.61401 0.68786 0.01969
 H2034 H 0.58963 0.67863 0.02945
 H2035 H 0.63736 0.72001 0.03853
 H2036 H 0.63168 0.70212 0.00896
 H2037 H 0.65343 0.73558 0.02650
 H2038 H 0.67906 0.74358 0.01902
 H2039 H 0.68217 0.70491 -0.01159
 H2040 H 0.65646 0.69669 -0.00380
 C2041 C 0.14756 0.06287 0.04317
 C2042 C 0.13381 0.05748 0.03680
 C2043 C 0.12629 0.04463 0.04283
 C2044 C 0.13285 0.03729 0.05553
 C2045 C 0.14660 0.04267 0.06195
 C2046 C 0.15416 0.05561 0.05592
 C2047 C 0.11134 0.03984 0.03603
 C2048 C 0.10509 0.02588 0.03768
 C2049 C 0.08978 0.02141 0.03146
 C2050 C 0.08204 0.00894 0.03802
 C2051 C 0.06740 0.00461 0.03295
 C2052 C 0.06015 0.01259 0.02105
 C2053 C 0.06811 0.02477 0.01413
 C2054 C 0.08276 0.02910 0.01922
 H2055 H 0.15290 0.07285 0.03812
 H2056 H 0.12899 0.06344 0.02710
 H2057 H 0.12725 0.02764 0.06087
 H2058 H 0.15115 0.03674 0.07179
 H2059 H 0.10531 0.04836 0.02947
 H2060 H 0.11111 0.01736 0.04424
 H2061 H 0.08721 0.00270 0.04735
 H2062 H 0.06166 -0.00485 0.03854
 H2063 H 0.06297 0.03110 0.00485
 H2064 H 0.08849 0.03840 0.01342
 C2065 C 0.14771 0.56433 0.54366
 C2066 C 0.13429 0.55740 0.53815
 C2067 C 0.12829 0.54424 0.54512
 C2068 C 0.13600 0.53818 0.55786
 C2069 C 0.14942 0.54511 0.56337
 C2070 C 0.15542 0.55829 0.55638
 C2071 C 0.11370 0.53770 0.53910
 C2072 C 0.10859 0.52352 0.54209
 C2073 C 0.09372 0.51748 0.53629
 C2074 C 0.08626 0.50580 0.54442
 C2075 C 0.07199 0.50014 0.53958
 C2076 C 0.06493 0.50597 0.52639
 C2077 C 0.07265 0.51733 0.51798
 C2078 C 0.08689 0.52297 0.52282
 H2079 H 0.15196 0.57448 0.53800
 H2080 H 0.12855 0.56238 0.52838
 H2081 H 0.13160 0.52835 0.56391
 H2082 H 0.15498 0.54020 0.57327
 H2083 H 0.10689 0.54508 0.53193
 H2084 H 0.11517 0.51609 0.54939
 H2085 H 0.09135 0.50125 0.55473
 H2086 H 0.06640 0.49137 0.54632
 H2087 H 0.06766 0.52197 0.50767
 H2088 H 0.09252 0.53152 0.51586
 C2089 C 0.65180 0.06400 0.54280
 C2090 C 0.63837 0.05790 0.53649
 C2091 C 0.63172 0.04455 0.54238
 C2092 C 0.63892 0.03733 0.55482
 C2093 C 0.65242 0.04344 0.56118
 C2094 C 0.65902 0.05695 0.55534
 C2095 C 0.61699 0.03915 0.53558
 C2096 C 0.61078 0.02525 0.53774
 C2097 C 0.59567 0.02066 0.53121
 C2098 C 0.58694 0.00944 0.53872
 C2099 C 0.57231 0.00538 0.53341
 C2100 C 0.56610 0.01237 0.52035
 C2101 C 0.57512 0.02315 0.51246
 C2102 C 0.58975 0.02720 0.51777
 H2103 H 0.65640 0.07438 0.53785
 H2104 H 0.63308 0.06375 0.52696
 H2105 H 0.63407 0.02721 0.55998
 H2106 H 0.65751 0.03764 0.57083
 H2107 H 0.61092 0.04727 0.52855
 H2108 H 0.61650 0.01708 0.54497
 H2109 H 0.59130 0.00408 0.54898
 H2110 H 0.56573 -0.00301 0.53975
 H2111 H 0.57081 0.02864 0.50226
 H2112 H 0.59634 0.03542 0.51128
 C2113 C 0.65073 0.53584 0.06465
 C2114 C 0.63717 0.52925 0.05922
 C2115 C 0.62983 0.53510 0.04627
 C2116 C 0.63641 0.54775 0.03876
 C2117 C 0.65001 0.55441 0.04424
 C2118 C 0.65724 0.54861 0.05734
 C2119 C 0.61492 0.52825 0.04169
 C2120 C 0.60898 0.52924 0.02759
 C2121 C 0.59360 0.52305 0.02354
 C2122 C 0.58572 0.52955 0.01122
 C2123 C 0.57089 0.52466 0.00747
 C2124 C 0.56361 0.51304 0.01593
 C2125 C 0.57172 0.50614 0.02792
 C2126 C 0.58658 0.51102 0.03165
 H2127 H 0.65595 0.53102 0.07477
 H2128 H 0.63231 0.51958 0.06526
 H2129 H 0.63088 0.55288 0.02898
 H2130 H 0.65466 0.56429 0.03840
 H2131 H 0.60863 0.52224 0.05050
 H2132 H 0.61521 0.53532 0.01878
 H2133 H 0.59092 0.53871 0.00468
 H2134 H 0.56504 0.53020 -0.00191
 H2135 H 0.56655 0.49703 0.03454
 H2136 H 0.59249 0.50527 0.04083
 C2137 C 0.03825 0.06109 0.15295
 C2138 C 0.03093 0.05527 0.13995
 C2139 C 0.03673 0.04245 0.13231
 C2140 C 0.05012 0.03553 0.13798
 C2141 C 0.05749 0.04135 0.15097
 C2142 C 0.05175 0.05431 0.15860
 C2143 C 0.02907 0.03733 0.11801
 C2144 C 0.03047 0.02327 0.11207
 C2145 C 0.02384 0.01870 0.09709
 C2146 C 0.03062 0.00660 0.08907
 C2147 C 0.02542 0.00250 0.07450
 C2148 C 0.01319 0.01036 0.06764
 C2149 C 0.00594 0.02204 0.07595
 C2150 C 0.01116 0.02614 0.09053
 H2151 H 0.03338 0.07106 0.15840
 H2152 H 0.02071 0.06089 0.13577
 H2153 H 0.05527 0.02591 0.13220
 H2154 H 0.06786 0.03578 0.15483
 H2155 H 0.02223 0.04573 0.11211
 H2156 H 0.03732 0.01487 0.11796
 H2157 H 0.04029 0.00056 0.09391
 H2158 H 0.03124 -0.00661 0.06848
 H2159 H -0.00362 0.02823 0.07111
 H2160 H 0.00519 0.03512 0.09655
 C2161 C 0.03707 0.55580 0.65835
 C2162 C 0.03073 0.55041 0.64465
 C2163 C 0.03682 0.53753 0.63732
 C2164 C 0.04947 0.53014 0.64397
 C2165 C 0.05580 0.53551 0.65764
 C2166 C 0.04977 0.54847 0.66494
 C2167 C 0.03035 0.53273 0.62235
 C2168 C 0.03190 0.51861 0.61662
 C2169 C 0.02678 0.51407 0.60108
 C2170 C 0.03385 0.50150 0.59412
 C2171 C 0.02979 0.49699 0.57933
 C2172 C 0.01842 0.50489 0.57119
 C2173 C 0.01108 0.51728 0.57829
 C2174 C 0.01518 0.52182 0.59309
 H2175 H 0.03216 0.56584 0.66363
 H2176 H 0.02108 0.55640 0.63970
 H2177 H 0.05491 0.52052 0.63847
 H2178 H 0.06565 0.52964 0.66231
 H2179 H 0.02441 0.54134 0.61584
 H2180 H 0.03774 0.51001 0.62324
 H2181 H 0.04275 0.49527 0.60006
 H2182 H 0.03565 0.48735 0.57427
 H2183 H 0.00218 0.52355 0.57240
 H2184 H 0.00909 0.53126 0.59821
 C2185 C 0.56851 0.04260 0.65119
 C2186 C 0.56295 0.03577 0.63783
 C2187 C 0.55035 0.04188 0.63005
 C2188 C 0.54341 0.05515 0.63592
 C2189 C 0.54901 0.06207 0.64929
 C2190 C 0.56172 0.05595 0.65711
 C2191 C 0.54542 0.03454 0.61549
 C2192 C 0.53134 0.03601 0.60942
 C2193 C 0.52673 0.02936 0.59443
 C2194 C 0.51423 0.03581 0.58672
 C2195 C 0.50980 0.03046 0.57231
 C2196 C 0.51769 0.01836 0.56526
 C2197 C 0.52987 0.01150 0.57320
 C2198 C 0.53433 0.01690 0.58763
 H2199 H 0.57831 0.03743 0.65674
 H2200 H 0.56858 0.02563 0.63353
 H2201 H 0.53395 0.06052 0.63004
 H2202 H 0.54345 0.07234 0.65334
 H2203 H 0.55392 0.02772 0.60963
 H2204 H 0.52286 0.04282 0.61534
 H2205 H 0.50805 0.04529 0.59173
 H2206 H 0.50030 0.03598 0.56662
 H2207 H 0.53613 0.00210 0.56816
 H2208 H 0.54368 0.01121 0.59338
 C2209 C 0.56480 0.54264 0.15006
 C2210 C 0.55957 0.53616 0.13641
 C2211 C 0.54672 0.54207 0.12884
 C2212 C 0.53920 0.55478 0.13526
 C2213 C 0.54448 0.56132 0.14895
 C2214 C 0.55738 0.55536 0.15649
 C2215 C 0.54213 0.53502 0.11405
 C2216 C 0.52817 0.53641 0.10769
 C2217 C 0.52396 0.52953 0.09268
 C2218 C 0.51183 0.53594 0.08438
 C2219 C 0.50770 0.53012 0.07005
 C2220 C 0.51554 0.51761 0.06369
 C2221 C 0.52742 0.51090 0.07220
 C2222 C 0.53155 0.51674 0.08654
 H2223 H 0.57479 0.53772 0.15549
 H2224 H 0.56564 0.52645 0.13172
 H2225 H 0.52952 0.55998 0.12961
 H2226 H 0.53856 0.57116 0.15351
 H2227 H 0.55079 0.52835 0.10825
 H2228 H 0.51949 0.54316 0.11336
 H2229 H 0.50567 0.54568 0.08888
 H2230 H 0.49844 0.53556 0.06388
 H2231 H 0.53361 0.50117 0.06775
 H2232 H 0.54058 0.51107 0.09278
 C2233 C 0.21000 0.56776 0.60091
 C2234 C 0.21688 0.56198 0.61410
 C2235 C 0.21106 0.54880 0.62117
 C2236 C 0.19808 0.54153 0.61477
 C2237 C 0.19121 0.54731 0.60158
 C2238 C 0.19703 0.56052 0.59452
 C2239 C 0.21833 0.54356 0.63556
 C2240 C 0.21678 0.52939 0.64114
 C2241 C 0.22323 0.52462 0.65606
 C2242 C 0.21615 0.51252 0.66388
 C2243 C 0.22141 0.50806 0.67828
 C2244 C 0.23401 0.51553 0.68513
 C2245 C 0.24144 0.52731 0.67705
 C2246 C 0.23615 0.53178 0.66267
 H2247 H 0.21478 0.57798 0.59581
 H2248 H 0.22677 0.56788 0.61884
 H2249 H 0.19287 0.53166 0.62008
 H2250 H 0.18116 0.54151 0.59706
 H2251 H 0.22505 0.55192 0.64181
 H2252 H 0.21004 0.52100 0.63498
 H2253 H 0.20629 0.50670 0.65898
 H2254 H 0.21546 0.49889 0.68411
 H2255 H 0.25127 0.53321 0.68190
 H2256 H 0.24230 0.54077 0.65677
 C2257 C 0.18582 0.04020 0.10175
 C2258 C 0.19166 0.03369 0.11511
 C2259 C 0.20484 0.03973 0.12221
 C2260 C 0.21204 0.05256 0.11565
 C2261 C 0.20622 0.05908 0.10231
 C2262 C 0.19295 0.05308 0.09517
 C2263 C 0.21012 0.03290 0.13682
 C2264 C 0.22437 0.03471 0.14250
 C2265 C 0.22922 0.02883 0.15766
 C2266 C 0.24165 0.03593 0.16511
 C2267 C 0.24616 0.03130 0.17972
 C2268 C 0.23841 0.01933 0.18718
 C2269 C 0.22634 0.01182 0.17947
 C2270 C 0.22182 0.01647 0.16487
 H2271 H 0.17560 0.03518 0.09671
 H2272 H 0.18580 0.02390 0.11998
 H2273 H 0.22191 0.05793 0.12095
 H2274 H 0.21207 0.06902 0.09776
 H2275 H 0.20171 0.02633 0.14314
 H2276 H 0.23279 0.04127 0.13619
 H2277 H 0.24766 0.04537 0.15977
 H2278 H 0.25553 0.03733 0.18527
 H2279 H 0.22020 0.00245 0.18478
 H2280 H 0.21258 0.01029 0.15932
 C2281 C 0.71113 0.18751 0.65253
 C2282 C 0.71687 0.19260 0.63851
 C2283 C 0.71021 0.20508 0.63106
 C2284 C 0.69755 0.21233 0.63791
 C2285 C 0.69181 0.20724 0.65193
 C2286 C 0.69848 0.19473 0.65938
 C2287 C 0.71632 0.20966 0.61592
 C2288 C 0.71431 0.22353 0.60982
 C2289 C 0.71995 0.22788 0.59443
 C2290 C 0.71281 0.24002 0.58687
 C2291 C 0.71761 0.24443 0.57228
 C2292 C 0.72978 0.23685 0.56497
 C2293 C 0.73712 0.22486 0.57266
 C2294 C 0.73232 0.22046 0.58725
 H2295 H 0.71653 0.17781 0.65791
 H2296 H 0.72655 0.18673 0.63343
 H2297 H 0.69171 0.22165 0.63236
 H2298 H 0.68197 0.21299 0.65680
 H2299 H 0.72268 0.20111 0.60965
 H2300 H 0.70795 0.23208 0.61609
 H2301 H 0.70334 0.24601 0.59219
 H2302 H 0.71172 0.25374 0.56672
 H2303 H 0.74664 0.21888 0.56745
 H2304 H 0.73852 0.21142 0.59287
 C2305 C 0.70837 0.68732 0.14172
 C2306 C 0.71363 0.69175 0.12732
 C2307 C 0.70618 0.70328 0.11913
 C2308 C 0.69321 0.71028 0.12566
 C2309 C 0.68791 0.70584 0.14009
 C2310 C 0.69540 0.69426 0.14826
 C2311 C 0.71202 0.70711 0.10367
 C2312 C 0.70897 0.72016 0.09633
 C2313 C 0.71492 0.72359 0.08082
 C2314 C 0.70684 0.73385 0.07157
 C2315 C 0.71195 0.73718 0.05679
 C2316 C 0.72535 0.73039 0.05098
 C2317 C 0.73363 0.72039 0.06038
 C2318 C 0.72854 0.71708 0.07515
 H2319 H 0.71441 0.67834 0.14765
 H2320 H 0.72360 0.68610 0.12254
 H2321 H 0.68683 0.71891 0.11959
 H2322 H 0.67782 0.71134 0.14473
 H2323 H 0.71922 0.69867 0.09822
 H2324 H 0.70163 0.72860 0.10158
 H2325 H 0.69641 0.73913 0.07573
 H2326 H 0.70531 0.74497 0.04988
 H2327 H 0.74411 0.71511 0.05636
 H2328 H 0.73546 0.70961 0.08210
 C2329 C 0.53356 0.69021 0.09309
 C2330 C 0.52767 0.69552 0.10693
 C2331 C 0.53484 0.70758 0.11475
 C2332 C 0.54810 0.71432 0.10835
 C2333 C 0.55405 0.70897 0.09447
 C2334 C 0.54692 0.69674 0.08675
 C2335 C 0.52864 0.71205 0.12989
 C2336 C 0.53111 0.72570 0.13642
 C2337 C 0.52563 0.72967 0.15198
 C2338 C 0.53337 0.74123 0.16003
 C2339 C 0.52905 0.74501 0.17493
 C2340 C 0.51676 0.73739 0.18213
 C2341 C 0.50868 0.72611 0.17391
 C2342 C 0.51302 0.72232 0.15898
 H2343 H 0.52773 0.68078 0.08749
 H2344 H 0.51750 0.69007 0.11163
 H2345 H 0.55425 0.72336 0.11422
 H2346 H 0.56441 0.71419 0.08997
 H2347 H 0.52187 0.70354 0.13584
 H2348 H 0.53791 0.73419 0.13048
 H2349 H 0.54302 0.74717 0.15488
 H2350 H 0.53550 0.75383 0.18086
 H2351 H 0.49905 0.72013 0.17903
 H2352 H 0.50636 0.71374 0.15298
 C2353 C 0.04520 0.67739 0.60306
 C2354 C 0.03833 0.68320 0.61627
 C2355 C 0.04359 0.69686 0.62289
 C2356 C 0.05602 0.70459 0.61599
 C2357 C 0.06295 0.69875 0.60276
 C2358 C 0.05766 0.68503 0.59617
 C2359 C 0.03632 0.70206 0.63736
 C2360 C 0.03692 0.71648 0.64256
 C2361 C 0.03032 0.72136 0.65746
 C2362 C 0.03629 0.73452 0.66450
 C2363 C 0.03097 0.73921 0.67883
 C2364 C 0.01940 0.73092 0.68646
 C2365 C 0.01300 0.71805 0.67917
 C2366 C 0.01836 0.71333 0.66482
 H2367 H 0.04081 0.66679 0.59837
 H2368 H 0.02887 0.67694 0.62138
 H2369 H 0.06076 0.71491 0.62095
 H2370 H 0.07258 0.70488 0.59783
 H2371 H 0.03030 0.69348 0.64395
 H2372 H 0.04297 0.72507 0.63600
 H2373 H 0.04538 0.74102 0.65904
 H2374 H 0.03613 0.74923 0.68402
 H2375 H 0.00399 0.71146 0.68464
 H2376 H 0.01302 0.70345 0.65958
 C2377 C 0.56302 0.60277 0.20912
 C2378 C 0.55730 0.61636 0.21512
 C2379 C 0.54446 0.62337 0.20858
 C2380 C 0.53741 0.61645 0.19578
 C2381 C 0.54320 0.60282 0.18972
 C2382 C 0.55613 0.59586 0.19628
 C2383 C 0.53946 0.63822 0.21504
 C2384 C 0.52543 0.64418 0.21312
 C2385 C 0.52103 0.65936 0.21927
 C2386 C 0.50922 0.66741 0.21202
 C2387 C 0.50525 0.68206 0.21693
 C2388 C 0.51293 0.68898 0.22932
 C2389 C 0.52433 0.68066 0.23699
 C2390 C 0.52830 0.66600 0.23208
 H2391 H 0.57301 0.59780 0.21451
 H2392 H 0.56300 0.62145 0.22491
 H2393 H 0.52774 0.62168 0.19014
 H2394 H 0.53767 0.59786 0.17977
 H2395 H 0.54793 0.64445 0.22167
 H2396 H 0.51695 0.63811 0.20636
 H2397 H 0.50331 0.66250 0.20226
 H2398 H 0.49636 0.68806 0.21078
 H2399 H 0.53037 0.68555 0.24668
 H2400 H 0.53701 0.65996 0.23841
 C2401 C 0.06147 0.59432 0.71776
 C2402 C 0.05689 0.60831 0.72387
 C2403 C 0.04416 0.61599 0.71788
 C2404 C 0.03606 0.60937 0.70557
 C2405 C 0.04066 0.59539 0.69943
 C2406 C 0.05349 0.58776 0.70537
 C2407 C 0.04036 0.63125 0.72409
 C2408 C 0.02641 0.63755 0.72289
 C2409 C 0.02297 0.65336 0.72779
 C2410 C 0.01062 0.66084 0.72084
 C2411 C 0.00728 0.67595 0.72453
 C2412 C 0.01615 0.68393 0.73540
 C2413 C 0.02824 0.67630 0.74273
 C2414 C 0.03161 0.66116 0.73900
 H2415 H 0.07143 0.58879 0.72261
 H2416 H 0.06339 0.61321 0.73326
 H2417 H 0.02651 0.61513 0.70026
 H2418 H 0.03432 0.59072 0.68982
 H2419 H 0.04959 0.63751 0.72959
 H2420 H 0.01720 0.63123 0.71745
 H2421 H 0.00370 0.65506 0.71228
 H2422 H -0.00220 0.68140 0.71873
 H2423 H 0.03520 0.68206 0.75127
 H2424 H 0.04089 0.65565 0.74501
 C2425 C 0.06076 0.14848 0.04264
 C2426 C 0.05570 0.13445 0.03691
 C2427 C 0.04264 0.12726 0.04298
 C2428 C 0.03472 0.13441 0.05505
 C2429 C 0.03979 0.14847 0.06084
 C2430 C 0.05296 0.15569 0.05478
 C2431 C 0.03823 0.11206 0.03684
 C2432 C 0.02417 0.10587 0.03827
 C2433 C 0.02018 0.09043 0.03247
 C2434 C 0.00798 0.08249 0.03937
 C2435 C 0.00407 0.06775 0.03457
 C2436 C 0.01221 0.06065 0.02263
 C2437 C 0.02416 0.06877 0.01543
 C2438 C 0.02807 0.08350 0.02024
 H2439 H 0.07094 0.15354 0.03757
 H2440 H 0.06207 0.12917 0.02767
 H2441 H 0.02485 0.12908 0.06038
 H2442 H 0.03346 0.15353 0.07022
 H2443 H 0.04711 0.10580 0.03091
 H2444 H 0.01527 0.11201 0.04428
 H2445 H 0.00162 0.08761 0.04870
 H2446 H -0.00525 0.06189 0.04034
 H2447 H 0.03055 0.06372 0.00609
 H2448 H 0.03715 0.08944 0.01422
 C2449 C 0.06896 0.63701 0.54543
 C2450 C 0.06392 0.62300 0.53960
 C2451 C 0.05094 0.61570 0.54573
 C2452 C 0.04315 0.62264 0.55801
 C2453 C 0.04822 0.63665 0.56388
 C2454 C 0.06120 0.64399 0.55768
 C2455 C 0.04639 0.60061 0.53945
 C2456 C 0.03215 0.59478 0.54059
 C2457 C 0.02780 0.57941 0.53485
 C2458 C 0.01505 0.57207 0.54140
 C2459 C 0.01072 0.55744 0.53668
 C2460 C 0.01898 0.54983 0.52516
 C2461 C 0.03153 0.55733 0.51830
 C2462 C 0.03588 0.57198 0.52305
 H2463 H 0.07903 0.64228 0.54039
 H2464 H 0.07020 0.61785 0.53023
 H2465 H 0.03341 0.61717 0.56342
 H2466 H 0.04204 0.64164 0.57340
 H2467 H 0.05525 0.59417 0.53367
 H2468 H 0.02330 0.60122 0.54636
 H2469 H 0.00855 0.57759 0.55040
 H2470 H 0.00095 0.55205 0.54219
 H2471 H 0.03808 0.55186 0.50932
 H2472 H 0.04544 0.57743 0.51731
 C2473 C 0.53191 0.15837 0.55010
 C2474 C 0.52653 0.14400 0.54570
 C2475 C 0.53488 0.13504 0.53535
 C2476 C 0.54866 0.14092 0.52921
 C2477 C 0.55404 0.15533 0.53361
 C2478 C 0.54586 0.16409 0.54431
 C2479 C 0.52935 0.11934 0.53223
 C2480 C 0.53379 0.11093 0.52020
 C2481 C 0.52893 0.09486 0.51797
 C2482 C 0.53829 0.08525 0.50918
 C2483 C 0.53437 0.06991 0.50710
 C2484 C 0.52092 0.06388 0.51372
 C2485 C 0.51139 0.07357 0.52229
 C2486 C 0.51529 0.08891 0.52431
 H2487 H 0.52528 0.16482 0.55834
 H2488 H 0.51592 0.13974 0.55062
 H2489 H 0.55569 0.13428 0.52151
 H2490 H 0.56488 0.15936 0.52900
 H2491 H 0.52150 0.11451 0.54052
 H2492 H 0.54173 0.11563 0.51193
 H2493 H 0.54879 0.08957 0.50408
 H2494 H 0.54193 0.06278 0.50037
 H2495 H 0.50082 0.06936 0.52732
 H2496 H 0.50743 0.09604 0.53065
 C2497 C 0.53243 0.65132 0.05360
 C2498 C 0.52620 0.63752 0.04854
 C2499 C 0.53328 0.62924 0.03678
 C2500 C 0.54673 0.63519 0.03000
 C2501 C 0.55300 0.64904 0.03510
 C2502 C 0.54602 0.65716 0.04710
 C2503 C 0.52684 0.61406 0.03281
 C2504 C 0.52955 0.60677 0.01958
 C2505 C 0.52400 0.59105 0.01645
 C2506 C 0.53214 0.58207 0.00596
 C2507 C 0.52788 0.56691 0.00331
 C2508 C 0.51528 0.56040 0.01105
 C2509 C 0.50676 0.56956 0.02114
 C2510 C 0.51101 0.58474 0.02376
 H2511 H 0.52670 0.65725 0.06284
 H2512 H 0.51589 0.63317 0.05399
 H2513 H 0.55279 0.62899 0.02119
 H2514 H 0.56353 0.65317 0.02991
 H2515 H 0.51979 0.60863 0.04143
 H2516 H 0.53670 0.61209 0.01097
 H2517 H 0.54208 0.58669 0.00006
 H2518 H 0.53467 0.56023 -0.00461
 H2519 H 0.49686 0.56498 0.02712
 H2520 H 0.50403 0.59145 0.03146
 C2521 C 0.70923 0.10457 0.56423
 C2522 C 0.71469 0.11867 0.55918
 C2523 C 0.70769 0.12612 0.54688
 C2524 C 0.69497 0.11915 0.53971
 C2525 C 0.68944 0.10501 0.54479
 C2526 C 0.69643 0.09754 0.55720
 C2527 C 0.71373 0.14134 0.54247
 C2528 C 0.71127 0.14795 0.52889
 C2529 C 0.71749 0.16323 0.52494
 C2530 C 0.70990 0.17196 0.51388
 C2531 C 0.71524 0.18654 0.51009
 C2532 C 0.72839 0.19268 0.51723
 C2533 C 0.73622 0.18377 0.52802
 C2534 C 0.73090 0.16920 0.53178
 H2535 H 0.71503 0.09932 0.57381
 H2536 H 0.72447 0.12379 0.56495
 H2537 H 0.68897 0.12467 0.53045
 H2538 H 0.67953 0.10009 0.53907
 H2539 H 0.72061 0.14724 0.55095
 H2540 H 0.70421 0.14228 0.52040
 H2541 H 0.69965 0.16757 0.50832
 H2542 H 0.70894 0.19306 0.50169
 H2543 H 0.74650 0.18804 0.53359
 H2544 H 0.73748 0.16263 0.53989
 C2545 C 0.70865 0.59750 0.06438
 C2546 C 0.71449 0.61111 0.05842
 C2547 C 0.70830 0.61742 0.04507
 C2548 C 0.69596 0.60983 0.03783
 C2549 C 0.69008 0.59621 0.04382
 C2550 C 0.69631 0.58991 0.05720
 C2551 C 0.71454 0.63222 0.03959
 C2552 C 0.71317 0.63717 0.02515
 C2553 C 0.71893 0.65223 0.01986
 C2554 C 0.71240 0.65859 0.00669
 C2555 C 0.71719 0.67287 0.00140
 C2556 C 0.72877 0.68111 0.00911
 C2557 C 0.73557 0.67460 0.02211
 C2558 C 0.73076 0.66031 0.02741
 H2559 H 0.71372 0.59304 0.07474
 H2560 H 0.72391 0.61677 0.06429
 H2561 H 0.69050 0.61451 0.02779
 H2562 H 0.68050 0.59074 0.03805
 H2563 H 0.72048 0.63921 0.04794
 H2564 H 0.70723 0.63016 0.01680
 H2565 H 0.70337 0.65258 0.00058
 H2566 H 0.71171 0.67749 -0.00867
 H2567 H 0.74460 0.68056 0.02826
 H2568 H 0.73650 0.65562 0.03728
 C2569 C 0.19124 0.65025 0.70954
 C2570 C 0.19648 0.63671 0.71604
 C2571 C 0.20941 0.62925 0.71010
 C2572 C 0.21698 0.63566 0.69738
 C2573 C 0.21171 0.64921 0.69084
 C2574 C 0.19872 0.65663 0.69678
 C2575 C 0.21398 0.61448 0.71698
 C2576 C 0.22802 0.60838 0.71553
 C2577 C 0.23218 0.59313 0.72159
 C2578 C 0.24448 0.58536 0.71481
 C2579 C 0.24842 0.57071 0.71961
 C2580 C 0.24024 0.56350 0.73146
 C2581 C 0.22827 0.57150 0.73866
 C2582 C 0.22430 0.58616 0.73382
 H2583 H 0.18118 0.65561 0.71442
 H2584 H 0.19035 0.63200 0.72574
 H2585 H 0.22669 0.63008 0.69212
 H2586 H 0.21769 0.65373 0.68096
 H2587 H 0.20522 0.60842 0.72335
 H2588 H 0.23679 0.61442 0.70914
 H2589 H 0.25086 0.59050 0.70549
 H2590 H 0.25777 0.56496 0.71384
 H2591 H 0.22179 0.56636 0.74791
 H2592 H 0.21511 0.59195 0.73975
 C2593 C 0.18509 0.14962 0.20741
 C2594 C 0.19147 0.13677 0.21426
 C2595 C 0.20472 0.12999 0.20824
 C2596 C 0.21151 0.13641 0.19508
 C2597 C 0.20507 0.14928 0.18816
 C2598 C 0.19172 0.15599 0.19420
 C2599 C 0.21043 0.11587 0.21561
 C2600 C 0.22472 0.11040 0.21400
 C2601 C 0.22980 0.09585 0.22103
 C2602 C 0.24200 0.08789 0.21426
 C2603 C 0.24656 0.07373 0.21996
 C2604 C 0.23909 0.06724 0.23268
 C2605 C 0.22733 0.07553 0.23987
 C2606 C 0.22278 0.08970 0.23417
 H2607 H 0.17480 0.15442 0.21241
 H2608 H 0.18594 0.13205 0.22431
 H2609 H 0.22150 0.13133 0.18981
 H2610 H 0.21043 0.15384 0.17796
 H2611 H 0.20225 0.10973 0.22264
 H2612 H 0.23291 0.11636 0.20685
 H2613 H 0.24774 0.09243 0.20425
 H2614 H 0.25570 0.06771 0.21414
 H2615 H 0.22144 0.07099 0.24979
 H2616 H 0.21378 0.09573 0.24015
 C2617 C 0.69088 1.15045 0.71390
 C2618 C 0.69621 1.13680 0.72009
 C2619 C 0.70880 1.12927 0.71357
 C2620 C 0.71596 1.13567 0.70063
 C2621 C 0.71061 1.14931 0.69441
 C2622 C 0.69793 1.15680 0.70091
 C2623 C 0.71344 1.11437 0.71998
 C2624 C 0.72748 1.10840 0.71813
 C2625 C 0.73173 1.09297 0.72349
 C2626 C 0.74396 1.08553 0.71623
 C2627 C 0.74804 1.07075 0.72043
 C2628 C 0.74004 1.06309 0.73212
 C2629 C 0.72807 1.07071 0.73972
 C2630 C 0.72399 1.08551 0.73550
 H2631 H 0.68106 1.15587 0.71918
 H2632 H 0.69041 1.13205 0.72997
 H2633 H 0.72536 1.13000 0.69492
 H2634 H 0.71625 1.15382 0.68434
 H2635 H 0.70476 1.10810 0.72627
 H2636 H 0.73615 1.11472 0.71189
 H2637 H 0.75021 1.09106 0.70705
 H2638 H 0.75738 1.06528 0.71437
 H2639 H 0.72178 1.06522 0.74889
 H2640 H 0.71486 1.09103 0.74178
 C2641 C 0.71127 0.65215 0.18452
 C2642 C 0.71837 0.63953 0.19105
 C2643 C 0.71343 0.63381 0.20517
 C2644 C 0.70109 0.64102 0.21268
 C2645 C 0.69388 0.65366 0.20607
 C2646 C 0.69885 0.65932 0.19186
 C2647 C 0.72090 0.61984 0.21105
 C2648 C 0.72093 0.61566 0.22579
 C2649 C 0.72773 0.60114 0.23119
 C2650 C 0.72205 0.59463 0.24469
 C2651 C 0.72729 0.58044 0.24964
 C2652 C 0.73849 0.57246 0.24125
 C2653 C 0.74476 0.57933 0.22813
 C2654 C 0.73949 0.59353 0.22317
 H2655 H 0.71544 0.65612 0.17355
 H2656 H 0.72776 0.63416 0.18497
 H2657 H 0.69665 0.63672 0.22339
 H2658 H 0.68431 0.65886 0.21199
 H2659 H 0.72654 0.61271 0.20266
 H2660 H 0.71520 0.62270 0.23419
 H2661 H 0.71315 0.60031 0.25120
 H2662 H 0.72226 0.57558 0.25987
 H2663 H 0.75349 0.57358 0.22147
 H2664 H 0.74465 0.59843 0.21305
 C2665 C 0.56871 0.10527 0.70672
 C2666 C 0.56324 0.11920 0.71218
 C2667 C 0.55031 0.12602 0.70561
 C2668 C 0.54296 0.11859 0.69328
 C2669 C 0.54848 0.10463 0.68774
 C2670 C 0.56146 0.09782 0.69438
 C2671 C 0.54543 0.14111 0.71162
 C2672 C 0.53130 0.14690 0.70986
 C2673 C 0.52675 0.16214 0.71579
 C2674 C 0.51425 0.16953 0.70897
 C2675 C 0.50976 0.18402 0.71390
 C2676 C 0.51759 0.19146 0.72590
 C2677 C 0.52984 0.18389 0.73303
 C2678 C 0.53434 0.16938 0.72808
 H2679 H 0.57875 0.10045 0.71212
 H2680 H 0.56919 0.12468 0.72161
 H2681 H 0.53320 0.12363 0.68760
 H2682 H 0.54268 0.09925 0.67817
 H2683 H 0.55401 0.14759 0.71785
 H2684 H 0.52272 0.14051 0.70354
 H2685 H 0.50809 0.16418 0.69960
 H2686 H 0.50022 0.18945 0.70817
 H2687 H 0.53604 0.18919 0.74240
 H2688 H 0.54365 0.16389 0.73407
 C2689 C 1.06384 0.10091 0.20968
 C2690 C 1.05847 0.11449 0.21615
 C2691 C 1.04477 0.12111 0.21100
 C2692 C 1.03658 0.11389 0.19910
 C2693 C 1.04195 0.10033 0.19263
 C2694 C 1.05568 0.09370 0.19778
 C2695 C 1.03991 0.13592 0.21768
 C2696 C 1.02537 0.14099 0.21729
 C2697 C 1.02062 0.15627 0.22287
 C2698 C 1.00695 0.16248 0.21716
 C2699 C 1.00223 0.17705 0.22156
 C2700 C 1.01102 0.18575 0.23192
 C2701 C 1.02448 0.17936 0.23802
 C2702 C 1.02921 0.16477 0.23359
 H2703 H 1.07448 0.09617 0.21391
 H2704 H 1.06508 0.11988 0.22519
 H2705 H 1.02626 0.11883 0.19440
 H2706 H 1.03541 0.09518 0.18340
 H2707 H 1.04880 0.14284 0.22291
 H2708 H 1.01651 0.13395 0.21214
 H2709 H 1.00002 0.15614 0.20900
 H2710 H 0.99177 0.18155 0.21667
 H2711 H 1.03147 0.18567 0.24613
 H2712 H 1.03954 0.16024 0.23868
 C2713 C 0.18583 0.60696 0.54247
 C2714 C 0.19098 0.62078 0.53634
 C2715 C 0.20366 0.62850 0.54268
 C2716 C 0.21104 0.62210 0.55545
 C2717 C 0.20590 0.60827 0.56158
 C2718 C 0.19321 0.60054 0.55520
 C2719 C 0.20830 0.64339 0.53601
 C2720 C 0.22212 0.64999 0.53815
 C2721 C 0.22638 0.66510 0.53175
 C2722 C 0.23799 0.67366 0.53898
 C2723 C 0.24216 0.68808 0.53353
 C2724 C 0.23489 0.69422 0.52059
 C2725 C 0.22354 0.68548 0.51312
 C2726 C 0.21937 0.67107 0.51858
 H2727 H 0.17600 0.60137 0.53727
 H2728 H 0.18499 0.62548 0.52658
 H2729 H 0.22055 0.62783 0.56103
 H2730 H 0.21179 0.60374 0.57147
 H2731 H 0.19982 0.64909 0.52906
 H2732 H 0.23063 0.64444 0.54517
 H2733 H 0.24368 0.66927 0.54905
 H2734 H 0.25097 0.69447 0.53956
 H2735 H 0.21779 0.68977 0.50304
 H2736 H 0.21079 0.66464 0.51231
 C2737 C 0.20806 0.10018 1.06506
 C2738 C 0.21490 0.11359 1.05970
 C2739 C 0.20939 0.12077 1.04650
 C2740 C 0.19669 0.11428 1.03882
 C2741 C 0.18979 0.10087 1.04423
 C2742 C 0.19537 0.09367 1.05744
 C2743 C 0.21666 0.13536 1.04166
 C2744 C 0.21606 0.14075 1.02732
 C2745 C 0.22254 0.15576 1.02263
 C2746 C 0.21680 0.16257 1.00933
 C2747 C 0.22200 0.17694 1.00472
 C2748 C 0.23324 0.18484 1.01323
 C2749 C 0.23940 0.17782 1.02629
 C2750 C 0.23415 0.16342 1.03093
 H2751 H 0.21265 0.09501 1.07531
 H2752 H 0.22456 0.11840 1.06591
 H2753 H 0.19174 0.11969 1.02889
 H2754 H 0.17997 0.09625 1.03813
 H2755 H 0.22266 0.14179 1.05040
 H2756 H 0.21010 0.13422 1.01861
 H2757 H 0.20797 0.15689 1.00263
 H2758 H 0.21702 0.18194 0.99456
 H2759 H 0.24811 0.18353 1.03308
 H2760 H 0.23929 0.15840 1.04096
 C2761 C 0.21373 0.68897 0.64920
 C2762 C 0.21984 0.69480 0.63558
 C2763 C 0.21301 0.70732 0.62829
 C2764 C 0.19981 0.71381 0.63488
 C2765 C 0.19375 0.70802 0.64847
 C2766 C 0.20057 0.69550 0.65578
 C2767 C 0.21948 0.71272 0.61353
 C2768 C 0.21668 0.72655 0.60758
 C2769 C 0.22233 0.73152 0.59237
 C2770 C 0.21430 0.74299 0.58461
 C2771 C 0.21892 0.74771 0.57004
 C2772 C 0.23181 0.74115 0.56297
 C2773 C 0.24011 0.72997 0.57095
 C2774 C 0.23547 0.72524 0.58548
 H2775 H 0.21925 0.67928 0.65448
 H2776 H 0.22992 0.68948 0.63069
 H2777 H 0.19380 0.72309 0.62946
 H2778 H 0.18351 0.71328 0.65310
 H2779 H 0.22664 0.70478 0.60733
 H2780 H 0.20952 0.73452 0.61373
 H2781 H 0.20422 0.74812 0.58972
 H2782 H 0.21228 0.75636 0.56426
 H2783 H 0.25017 0.72474 0.56593
 H2784 H 0.24231 0.71678 0.59127
 C2785 C 0.18111 0.20534 1.14540
 C2786 C 0.18639 0.21116 1.13151
 C2787 C 0.19955 0.20522 1.12448
 C2788 C 0.20731 0.19314 1.13165
 C2789 C 0.20200 0.18723 1.14557
 C2790 C 0.18877 0.19322 1.15266
 C2791 C 0.20427 0.21162 1.10947
 C2792 C 0.21845 0.21041 1.10356
 C2793 C 0.22287 0.21678 1.08844
 C2794 C 0.23550 0.21047 1.08076
 C2795 C 0.23996 0.21593 1.06642
 C2796 C 0.23198 0.22796 1.05944
 C2797 C 0.21954 0.23452 1.06729
 C2798 C 0.21507 0.22905 1.08164
 H2799 H 0.17089 0.21034 1.15033
 H2800 H 0.18013 0.22040 1.12622
 H2801 H 0.21725 0.18792 1.12643
 H2802 H 0.20822 0.17786 1.15066
 H2803 H 0.19554 0.21768 1.10316
 H2804 H 0.22719 0.20426 1.10976
 H2805 H 0.24181 0.20112 1.08577
 H2806 H 0.24962 0.21060 1.06075
 H2807 H 0.21321 0.24388 1.06233
 H2808 H 0.20564 0.23464 1.08739
 C2809 C 0.68872 0.53863 0.10512
 C2810 C 0.69384 0.53339 0.11926
 C2811 C 0.70618 0.54057 0.12672
 C2812 C 0.71334 0.55321 0.11973
 C2813 C 0.70818 0.55850 0.10557
 C2814 C 0.69574 0.55133 0.09816
 C2815 C 0.71058 0.53503 0.14207
 C2816 C 0.72449 0.53730 0.14828
 C2817 C 0.72850 0.53237 0.16396
 C2818 C 0.74045 0.54001 0.17160
 C2819 C 0.74433 0.53612 0.18656
 C2820 C 0.73640 0.52438 0.19422
 C2821 C 0.72469 0.51644 0.18643
 C2822 C 0.72082 0.52033 0.17144
 H2823 H 0.67909 0.53283 0.09978
 H2824 H 0.68807 0.52371 0.12444
 H2825 H 0.72258 0.55936 0.12530
 H2826 H 0.71376 0.56837 0.10057
 H2827 H 0.70184 0.52892 0.14841
 H2828 H 0.73322 0.54345 0.14194
 H2829 H 0.74664 0.54923 0.16605
 H2830 H 0.75347 0.54245 0.19217
 H2831 H 0.71848 0.50721 0.19191
 H2832 H 0.71193 0.51375 0.16577
 C2833 C 0.71195 1.06449 0.60121
 C2834 C 0.71880 1.05881 0.61440
 C2835 C 0.71342 1.04533 0.62115
 C2836 C 0.70093 1.03756 0.61436
 C2837 C 0.69398 1.04330 0.60111
 C2838 C 0.69937 1.05689 0.59444
 C2839 C 0.72071 1.04041 0.63564
 C2840 C 0.72015 1.02613 0.64110
 C2841 C 0.72705 1.02179 0.65597
 C2842 C 0.72091 1.00922 0.66381
 C2843 C 0.72647 1.00524 0.67823
 C2844 C 0.73843 1.01368 0.68514
 C2845 C 0.74503 1.02587 0.67701
 C2846 C 0.73946 1.02985 0.66256
 H2847 H 0.71645 1.07499 0.59645
 H2848 H 0.72833 1.06507 0.61942
 H2849 H 0.69617 1.02733 0.61942
 H2850 H 0.68428 1.03722 0.59624
 H2851 H 0.72678 1.04913 0.64205
 H2852 H 0.71395 1.01738 0.63485
 H2853 H 0.71149 1.00270 0.65893
 H2854 H 0.72114 0.99571 0.68410
 H2855 H 0.75436 1.03251 0.68188
 H2856 H 0.74496 1.03922 0.65664
 C2857 C 0.53067 0.19881 0.58809
 C2858 C 0.52447 0.20384 0.60190
 C2859 C 0.53192 0.21517 0.61051
 C2860 C 0.54566 0.22162 0.60486
 C2861 C 0.55192 0.21654 0.59100
 C2862 C 0.54462 0.20489 0.58260
 C2863 C 0.52558 0.21899 0.62576
 C2864 C 0.52836 0.23217 0.63307
 C2865 C 0.52306 0.23537 0.64888
 C2866 C 0.53080 0.24667 0.65729
 C2867 C 0.52681 0.24965 0.67245
 C2868 C 0.51486 0.24144 0.67959
 C2869 C 0.50677 0.23042 0.67104
 C2870 C 0.51076 0.22747 0.65583
 H2871 H 0.52467 0.18986 0.58192
 H2872 H 0.51392 0.19865 0.60601
 H2873 H 0.55198 0.23010 0.61134
 H2874 H 0.56271 0.22140 0.58715
 H2875 H 0.51855 0.21032 0.63114
 H2876 H 0.53537 0.24081 0.62759
 H2877 H 0.54022 0.25302 0.65221
 H2878 H 0.53327 0.25828 0.67864
 H2879 H 0.49739 0.22403 0.67612
 H2880 H 0.50408 0.21906 0.64962
 C2881 C 1.05563 0.21017 0.09796
 C2882 C 1.04901 0.21668 0.11095
 C2883 C 1.03612 0.20999 0.11791
 C2884 C 1.02986 0.19659 0.11146
 C2885 C 1.03648 0.19003 0.09843
 C2886 C 1.04959 0.19663 0.09157
 C2887 C 1.03032 0.21695 0.13227
 C2888 C 1.01654 0.21395 0.13853
 C2889 C 1.01173 0.22038 0.15349
 C2890 C 1.00126 0.21213 0.16250
 C2891 C 0.99731 0.21725 0.17713
 C2892 C 1.00367 0.23085 0.18303
 C2893 C 1.01357 0.23948 0.17369
 C2894 C 1.01750 0.23436 0.15907
 H2895 H 1.06565 0.21573 0.09311
 H2896 H 1.05412 0.22697 0.11568
 H2897 H 1.02016 0.19082 0.11660
 H2898 H 1.03145 0.17961 0.09394
 H2899 H 1.03807 0.22473 0.13808
 H2900 H 1.00874 0.20599 0.13305
 H2901 H 0.99650 0.20143 0.15840
 H2902 H 0.98959 0.21034 0.18396
 H2903 H 1.01851 0.25011 0.17776
 H2904 H 1.02508 0.24139 0.15223
 C2905 C 0.65232 0.19151 0.71311
 C2906 C 0.63864 0.19761 0.71872
 C2907 C 0.63147 0.20977 0.71122
 C2908 C 0.63835 0.21580 0.69796
 C2909 C 0.65205 0.20970 0.69234
 C2910 C 0.65911 0.19738 0.69977
 C2911 C 0.61644 0.21506 0.71711
 C2912 C 0.61010 0.22852 0.71360
 C2913 C 0.59458 0.23298 0.71890
 C2914 C 0.58607 0.24328 0.71010
 C2915 C 0.57106 0.24711 0.71428
 C2916 C 0.56430 0.24075 0.72742
 C2917 C 0.57306 0.23089 0.73654
 C2918 C 0.58805 0.22712 0.73240
 H2919 H 0.65743 0.18203 0.71913
 H2920 H 0.63356 0.19269 0.72890
 H2921 H 0.63304 0.22487 0.69155
 H2922 H 0.65692 0.21444 0.68198
 H2923 H 0.61028 0.20724 0.72448
 H2924 H 0.61604 0.23636 0.70609
 H2925 H 0.59090 0.24809 0.69975
 H2926 H 0.56466 0.25480 0.70704
 H2927 H 0.56832 0.22600 0.74689
 H2928 H 0.59445 0.21967 0.73986
 C2929 C 1.14381 0.18752 0.20626
 C2930 C 1.13007 0.19312 0.21226
 C2931 C 1.12223 0.20503 0.20502
 C2932 C 1.12845 0.21122 0.19151
 C2933 C 1.14221 0.20561 0.18549
 C2934 C 1.15002 0.19365 0.19275
 C2935 C 1.10735 0.21004 0.21160
 C2936 C 1.10049 0.22332 0.20830
 C2937 C 1.08535 0.22772 0.21472
 C2938 C 1.07612 0.23793 0.20655
 C2939 C 1.06153 0.24190 0.21193
 C2940 C 1.05590 0.23579 0.22571
 C2941 C 1.06538 0.22598 0.23415
 C2942 C 1.07994 0.22205 0.22878
 H2943 H 1.14947 0.17828 0.21216
 H2944 H 1.12551 0.18806 0.22262
 H2945 H 1.12263 0.22011 0.18528
 H2946 H 1.14660 0.21054 0.17501
 H2947 H 1.10184 0.20224 0.21947
 H2948 H 1.10575 0.23113 0.20029
 H2949 H 1.08008 0.24261 0.19578
 H2950 H 1.05457 0.24953 0.20515
 H2951 H 1.06152 0.22124 0.24492
 H2952 H 1.08693 0.21466 0.23577
 C2953 C 0.10669 0.67836 0.54507
 C2954 C 0.11994 0.68466 0.53864
 C2955 C 0.12561 0.69881 0.54364
 C2956 C 0.11776 0.70652 0.55544
 C2957 C 0.10448 0.70015 0.56196
 C2958 C 0.09879 0.68598 0.55685
 C2959 C 0.14002 0.70466 0.53667
 C2960 C 0.14416 0.71942 0.53653
 C2961 C 0.15881 0.72500 0.52978
 C2962 C 0.16498 0.73885 0.53508
 C2963 C 0.17900 0.74431 0.52946
 C2964 C 0.18714 0.73611 0.51825
 C2965 C 0.18071 0.72249 0.51255
 C2966 C 0.16668 0.71701 0.51820
 H2967 H 0.10273 0.66739 0.54085
 H2968 H 0.12581 0.67842 0.52967
 H2969 H 0.12199 0.71725 0.55994
 H2970 H 0.09875 0.70628 0.57108
 H2971 H 0.14741 0.69630 0.53135
 H2972 H 0.13684 0.72780 0.54192
 H2973 H 0.15909 0.74532 0.54386
 H2974 H 0.18354 0.75489 0.53409
 H2975 H 0.18660 0.71594 0.50384
 H2976 H 0.16206 0.70658 0.51336
 C2977 C 0.09786 0.20931 1.06131
 C2978 C 0.11183 0.21518 1.05601
 C2979 C 0.11979 0.20795 1.04408
 C2980 C 0.11349 0.19461 1.03758
 C2981 C 0.09952 0.18872 1.04289
 C2982 C 0.09158 0.19594 1.05487
 C2983 C 0.13490 0.21428 1.03938
 C2984 C 0.14155 0.21140 1.02583
 C2985 C 0.15693 0.21738 1.02152
 C2986 C 0.16541 0.20959 1.01033
 C2987 C 0.18009 0.21463 1.00616
 C2988 C 0.18658 0.22767 1.01305
 C2989 C 0.17794 0.23568 1.02401
 C2990 C 0.16326 0.23065 1.02814
 H2991 H 0.09209 0.21516 1.07058
 H2992 H 0.11647 0.22541 1.06129
 H2993 H 0.11944 0.18838 1.02871
 H2994 H 0.09508 0.17834 1.03775
 H2995 H 0.14069 0.22155 1.04759
 H2996 H 0.13584 0.20408 1.01762
 H2997 H 0.16075 0.19942 1.00495
 H2998 H 0.18641 0.20821 0.99766
 H2999 H 0.18249 0.24588 1.02940
 H3000 H 0.15691 0.23735 1.03636
 C3001 C 0.60308 0.54341 0.19145
 C3002 C 0.61663 0.53779 0.19782
 C3003 C 0.62346 0.54499 0.21049
 C3004 C 0.61638 0.55800 0.21672
 C3005 C 0.60281 0.56362 0.21035
 C3006 C 0.59606 0.55646 0.19758
 C3007 C 0.63827 0.53893 0.21625
 C3008 C 0.64446 0.54245 0.22989
 C3009 C 0.65965 0.53671 0.23487
 C3010 C 0.66833 0.54536 0.24534
 C3011 C 0.68304 0.54069 0.24970
 C3012 C 0.68932 0.52718 0.24373
 C3013 C 0.68036 0.51823 0.23373
 C3014 C 0.66568 0.52288 0.22942
 H3015 H 0.59823 0.53760 0.18162
 H3016 H 0.62186 0.52780 0.19273
 H3017 H 0.62138 0.56419 0.22621
 H3018 H 0.59777 0.57375 0.21532
 H3019 H 0.64439 0.53135 0.20863
 H3020 H 0.63864 0.55021 0.23754
 H3021 H 0.66387 0.55597 0.24986
 H3022 H 0.68960 0.54784 0.25746
 H3023 H 0.68472 0.50762 0.22911
 H3024 H 0.65912 0.51554 0.22186
 C3025 C 0.60698 1.06478 0.71010
 C3026 C 0.62034 1.05908 0.71677
 C3027 C 0.62721 1.04576 0.71113
 C3028 C 0.62038 1.03822 0.69858
 C3029 C 0.60701 1.04395 0.69189
 C3030 C 0.60020 1.05735 0.69750
 C3031 C 0.64188 1.04072 0.71809
 C3032 C 0.64745 1.02653 0.71685
 C3033 C 0.66268 1.02203 0.72294
 C3034 C 0.67032 1.00972 0.71610
 C3035 C 0.68505 1.00562 0.72088
 C3036 C 0.69244 1.01368 0.73274
 C3037 C 0.68453 1.02561 0.74002
 C3038 C 0.66980 1.02971 0.73523
 H3039 H 0.60209 1.07514 0.71473
 H3040 H 0.62540 1.06517 0.72634
 H3041 H 0.62551 1.02819 0.69355
 H3042 H 0.60217 1.03798 0.68214
 H3043 H 0.64836 1.04929 0.72430
 H3044 H 0.64106 1.01794 0.71058
 H3045 H 0.66503 1.00350 0.70673
 H3046 H 0.69074 0.99632 0.71504
 H3047 H 0.68979 1.03195 0.74931
 H3048 H 0.66408 1.03887 0.74122
 C3049 C 0.89581 0.45426 0.32308
 C3050 C 0.88264 0.46162 0.31793
 C3051 C 0.87587 0.45757 0.30395
 C3052 C 0.88249 0.44572 0.29526
 C3053 C 0.89569 0.43825 0.30049
 C3054 C 0.90252 0.44246 0.31446
 C3055 C 0.86165 0.46560 0.29934
 C3056 C 0.85674 0.46671 0.28486
 C3057 C 0.84229 0.47455 0.28055
 C3058 C 0.83490 0.47014 0.26699
 C3059 C 0.82097 0.47672 0.26275
 C3060 C 0.81413 0.48804 0.27191
 C3061 C 0.82181 0.49289 0.28522
 C3062 C 0.83576 0.48625 0.28949
 H3063 H 0.90065 0.45780 0.33394
 H3064 H 0.87773 0.47060 0.32491
 H3065 H 0.87737 0.44195 0.28463
 H3066 H 0.90050 0.42915 0.29362
 H3067 H 0.85511 0.47092 0.30840
 H3068 H 0.86318 0.46131 0.27577
 H3069 H 0.83975 0.46130 0.25980
 H3070 H 0.81545 0.47275 0.25236
 H3071 H 0.81693 0.50164 0.29249
 H3072 H 0.84137 0.49039 0.29974
 C3073 C 0.90329 0.93427 0.79238
 C3074 C 0.89006 0.93994 0.78545
 C3075 C 0.88287 0.95306 0.79113
 C3076 C 0.88920 0.96038 0.80407
 C3077 C 0.90244 0.95467 0.81106
 C3078 C 0.90962 0.94150 0.80533
 C3079 C 0.86845 0.95815 0.78371
 C3080 C 0.86293 0.97238 0.78474
 C3081 C 0.84811 0.97713 0.77787
 C3082 C 0.84056 0.98981 0.78409
 C3083 C 0.82628 0.99436 0.77845
 C3084 C 0.81924 0.98639 0.76631
 C3085 C 0.82704 0.97399 0.75972
 C3086 C 0.84133 0.96944 0.76538
 H3087 H 0.90845 0.92408 0.78765
 H3088 H 0.88539 0.93400 0.77559
 H3089 H 0.88378 0.97025 0.80912
 H3090 H 0.90693 0.96047 0.82107
 H3091 H 0.86219 0.94965 0.77719
 H3092 H 0.86916 0.98088 0.79130
 H3093 H 0.84557 0.99604 0.79360
 H3094 H 0.82066 1.00398 0.78380
 H3095 H 0.82203 0.96767 0.75029
 H3096 H 0.84700 0.95997 0.75986
 C3097 C 0.35160 0.31577 0.78976
 C3098 C 0.36519 0.31095 0.78281
 C3099 C 0.37291 0.29800 0.78809
 C3100 C 0.36677 0.28998 0.80065
 C3101 C 0.35318 0.29482 0.80764
 C3102 C 0.34545 0.30780 0.80232
 C3103 C 0.38763 0.29375 0.78070
 C3104 C 0.39363 0.27970 0.78124
 C3105 C 0.40875 0.27570 0.77452
 C3106 C 0.41654 0.26302 0.78037
 C3107 C 0.43101 0.25904 0.77479
 C3108 C 0.43802 0.26758 0.76308
 C3109 C 0.43004 0.28003 0.75690
 C3110 C 0.41555 0.28403 0.76252
 H3111 H 0.34601 0.32585 0.78537
 H3112 H 0.36972 0.31741 0.77325
 H3113 H 0.37259 0.28023 0.80542
 H3114 H 0.34884 0.28848 0.81736
 H3115 H 0.39368 0.30271 0.77465
 H3116 H 0.38756 0.27075 0.78727
 H3117 H 0.41152 0.25632 0.78951
 H3118 H 0.43677 0.24935 0.77979
 H3119 H 0.43504 0.28679 0.74780
 H3120 H 0.40973 0.29355 0.75731
 C3121 C 0.84972 0.31654 0.29466
 C3122 C 0.86270 0.30991 0.28814
 C3123 C 0.86945 0.29701 0.29470
 C3124 C 0.86285 0.29081 0.30805
 C3125 C 0.84981 0.29749 0.31463
 C3126 C 0.84316 0.31049 0.30804
 C3127 C 0.88363 0.29100 0.28749
 C3128 C 0.88959 0.27718 0.29015
 C3129 C 0.90400 0.27194 0.28277
 C3130 C 0.91319 0.26126 0.29035
 C3131 C 0.92720 0.25663 0.28405
 C3132 C 0.93225 0.26250 0.26994
 C3133 C 0.92274 0.27275 0.26209
 C3134 C 0.90875 0.27735 0.26837
 H3135 H 0.84495 0.32653 0.28923
 H3136 H 0.86753 0.31497 0.27790
 H3137 H 0.86784 0.28109 0.31371
 H3138 H 0.84510 0.29259 0.32498
 H3139 H 0.88943 0.29855 0.27957
 H3140 H 0.88421 0.26959 0.29830
 H3141 H 0.90971 0.25678 0.30136
 H3142 H 0.93420 0.24868 0.29040
 H3143 H 0.92615 0.27734 0.25111
 H3144 H 0.90169 0.28508 0.26184
 C3145 C 0.39585 0.79770 0.43250
 C3146 C 0.38253 0.79127 0.43862
 C3147 C 0.37581 0.79737 0.45184
 C3148 C 0.38274 0.81017 0.45885
 C3149 C 0.39611 0.81666 0.45267
 C3150 C 0.40277 0.81054 0.43937
 C3151 C 0.36122 0.79046 0.45731
 C3152 C 0.35567 0.79211 0.47152
 C3153 C 0.34066 0.78561 0.47633
 C3154 C 0.33252 0.79284 0.48810
 C3155 C 0.31796 0.78758 0.49241
 C3156 C 0.31128 0.77483 0.48512
 C3157 C 0.31972 0.76720 0.47376
 C3158 C 0.33427 0.77248 0.46944
 H3159 H 0.40062 0.79265 0.42223
 H3160 H 0.37740 0.78148 0.43295
 H3161 H 0.37771 0.81551 0.46881
 H3162 H 0.40109 0.82660 0.45820
 H3163 H 0.35480 0.78376 0.44907
 H3164 H 0.36187 0.79894 0.47981
 H3165 H 0.33726 0.80285 0.49371
 H3166 H 0.31185 0.79369 0.50129
 H3167 H 0.31502 0.75725 0.46803
 H3168 H 0.34045 0.76621 0.46076
 C3169 C 0.39656 0.29217 0.93289
 C3170 C 0.38301 0.28582 0.93860
 C3171 C 0.37629 0.29149 0.95201
 C3172 C 0.38347 0.30381 0.95963
 C3173 C 0.39707 0.31024 0.95386
 C3174 C 0.40374 0.30452 0.94037
 C3175 C 0.36152 0.28462 0.95705
 C3176 C 0.35584 0.28569 0.97127
 C3177 C 0.34081 0.27894 0.97572
 C3178 C 0.33267 0.28550 0.98790
 C3179 C 0.31816 0.27993 0.99200
 C3180 C 0.31150 0.26754 0.98408
 C3181 C 0.31992 0.26060 0.97226
 C3182 C 0.33443 0.26618 0.96817
 H3183 H 0.40130 0.28744 0.92246
 H3184 H 0.37771 0.27641 0.93245
 H3185 H 0.37848 0.30880 0.96979
 H3186 H 0.40225 0.31979 0.95986
 H3187 H 0.35510 0.27835 0.94847
 H3188 H 0.36203 0.29211 0.97990
 H3189 H 0.33739 0.29521 0.99403
 H3190 H 0.31205 0.28552 1.00121
 H3191 H 0.31524 0.25094 0.96603
 H3192 H 0.34060 0.26038 0.95914
 C3193 C 0.78543 0.44665 0.40871
 C3194 C 0.77967 0.45199 0.39485
 C3195 C 0.78746 0.46343 0.38672
 C3196 C 0.80118 0.46951 0.39281
 C3197 C 0.80696 0.46415 0.40670
 C3198 C 0.79923 0.45255 0.41473
 C3199 C 0.78136 0.46796 0.37160
 C3200 C 0.78479 0.48121 0.36475
 C3201 C 0.77936 0.48522 0.34922
 C3202 C 0.78782 0.49596 0.34080
 C3203 C 0.78338 0.49987 0.32600
 C3204 C 0.77025 0.49320 0.31930
 C3205 C 0.76158 0.48267 0.32785
 C3206 C 0.76603 0.47877 0.34267
 H3207 H 0.77916 0.43769 0.41457
 H3208 H 0.76914 0.44705 0.39038
 H3209 H 0.80781 0.47800 0.38672
 H3210 H 0.81768 0.46887 0.41094
 H3211 H 0.77387 0.45983 0.36593
 H3212 H 0.79230 0.48933 0.37039
 H3213 H 0.79806 0.50118 0.34561
 H3214 H 0.79032 0.50806 0.31977
 H3215 H 0.75131 0.47746 0.32311
 H3216 H 0.75886 0.47086 0.34896
 C3217 C 0.79414 0.93187 0.89485
 C3218 C 0.78851 0.93803 0.88126
 C3219 C 0.79516 0.95120 0.87492
 C3220 C 0.80769 0.95809 0.88252
 C3221 C 0.81335 0.95190 0.89613
 C3222 C 0.80668 0.93868 0.90243
 C3223 C 0.78899 0.95682 0.86015
 C3224 C 0.79155 0.97083 0.85448
 C3225 C 0.78540 0.97589 0.83950
 C3226 C 0.79312 0.98752 0.83154
 C3227 C 0.78796 0.99227 0.81718
 C3228 C 0.77485 0.98556 0.81050
 C3229 C 0.76684 0.97425 0.81870
 C3230 C 0.77199 0.96953 0.83305
 H3231 H 0.78870 0.92168 0.89931
 H3232 H 0.77890 0.93243 0.87565
 H3233 H 0.81345 0.96801 0.87789
 H3234 H 0.82308 0.95739 0.90161
 H3235 H 0.78200 0.94884 0.85368
 H3236 H 0.79872 0.97884 0.86068
 H3237 H 0.80338 0.99274 0.83632
 H3238 H 0.79441 1.00102 0.81121
 H3239 H 0.75659 0.96895 0.81401
 H3240 H 0.76532 0.96099 0.83905
 C3241 C 0.29293 0.81997 0.35209
 C3242 C 0.28565 0.81463 0.36529
 C3243 C 0.29066 0.80129 0.37252
 C3244 C 0.30328 0.79342 0.36627
 C3245 C 0.31061 0.79881 0.35306
 C3246 C 0.30556 0.81218 0.34584
 C3247 C 0.28295 0.79656 0.38693
 C3248 C 0.28331 0.78233 0.39254
 C3249 C 0.27644 0.77794 0.40747
 C3250 C 0.28228 0.76512 0.41500
 C3251 C 0.27680 0.76097 0.42943
 C3252 C 0.26519 0.76946 0.43665
 C3253 C 0.25886 0.78194 0.42884
 C3254 C 0.26440 0.78613 0.41440
 H3255 H 0.28871 0.83033 0.34690
 H3256 H 0.27606 0.82099 0.36991
 H3257 H 0.30784 0.78336 0.37171
 H3258 H 0.32037 0.79258 0.34862
 H3259 H 0.27686 0.80534 0.39313
 H3260 H 0.28942 0.77355 0.38635
 H3261 H 0.29142 0.75850 0.40988
 H3262 H 0.28189 0.75123 0.43504
 H3263 H 0.24984 0.78868 0.43401
 H3264 H 0.25917 0.79575 0.40876
 C3265 C 0.31472 0.29087 0.84985
 C3266 C 0.30945 0.28393 0.86324
 C3267 C 0.29627 0.28930 0.87073
 C3268 C 0.28851 0.30192 0.86457
 C3269 C 0.29379 0.30888 0.85119
 C3270 C 0.30700 0.30349 0.84369
 C3271 C 0.29154 0.28201 0.88532
 C3272 C 0.27725 0.28277 0.89106
 C3273 C 0.27279 0.27643 0.90616
 C3274 C 0.25985 0.28246 0.91356
 C3275 C 0.25554 0.27734 0.92806
 C3276 C 0.26401 0.26593 0.93549
 C3277 C 0.27667 0.25951 0.92786
 C3278 C 0.28099 0.26466 0.91335
 H3279 H 0.32496 0.28644 0.84442
 H3280 H 0.31573 0.27433 0.86781
 H3281 H 0.27862 0.30677 0.87022
 H3282 H 0.28762 0.31864 0.84686
 H3283 H 0.30036 0.27597 0.89151
 H3284 H 0.26845 0.28878 0.88480
 H3285 H 0.25323 0.29143 0.90823
 H3286 H 0.24569 0.28251 0.93354
 H3287 H 0.28337 0.25060 0.93316
 H3288 H 0.29069 0.25929 0.90784
 C3289 C 0.43436 0.29320 0.89241
 C3290 C 0.43951 0.28711 0.87858
 C3291 C 0.45292 0.29269 0.87163
 C3292 C 0.46105 0.30469 0.87879
 C3293 C 0.45585 0.31086 0.89266
 C3294 C 0.44242 0.30519 0.89962
 C3295 C 0.45750 0.28609 0.85667
 C3296 C 0.47186 0.28661 0.85110
 C3297 C 0.47618 0.28038 0.83589
 C3298 C 0.48929 0.28632 0.82866
 C3299 C 0.49359 0.28123 0.81414
 C3300 C 0.48495 0.26991 0.80651
 C3301 C 0.47209 0.26359 0.81394
 C3302 C 0.46775 0.26873 0.82848
 H3303 H 0.42394 0.28854 0.89736
 H3304 H 0.43296 0.27797 0.87328
 H3305 H 0.47119 0.30964 0.87360
 H3306 H 0.46227 0.32015 0.89784
 H3307 H 0.44853 0.28052 0.85010
 H3308 H 0.48082 0.29221 0.85764
 H3309 H 0.49609 0.29517 0.83415
 H3310 H 0.50363 0.28631 0.80884
 H3311 H 0.46524 0.25479 0.80844
 H3312 H 0.45789 0.26345 0.83387
 C3313 C 0.94131 0.28183 0.40194
 C3314 C 0.94573 0.27651 0.38756
 C3315 C 0.95765 0.28369 0.37945
 C3316 C 0.96514 0.29635 0.38611
 C3317 C 0.96071 0.30167 0.40054
 C3318 C 0.94865 0.29456 0.40856
 C3319 C 0.96123 0.27802 0.36386
 C3320 C 0.97426 0.28121 0.35627
 C3321 C 0.97721 0.27581 0.34047
 C3322 C 0.98731 0.28420 0.33119
 C3323 C 0.99013 0.27970 0.31611
 C3324 C 0.98299 0.26659 0.31003
 C3325 C 0.97315 0.25798 0.31945
 C3326 C 0.97035 0.26248 0.33452
 H3327 H 0.93197 0.27605 0.40777
 H3328 H 0.93972 0.26679 0.38269
 H3329 H 0.97410 0.30251 0.38015
 H3330 H 0.96654 0.31158 0.40525
 H3331 H 0.95253 0.27099 0.35844
 H3332 H 0.98296 0.28839 0.36146
 H3333 H 0.99285 0.29443 0.33555
 H3334 H 0.99782 0.28658 0.30921
 H3335 H 0.96760 0.24771 0.31520
 H3336 H 0.96296 0.25535 0.34146
 C3337 C 0.46181 0.40132 0.81109
 C3338 C 0.46788 0.38764 0.80567
 C3339 C 0.46170 0.38051 0.79268
 C3340 C 0.44921 0.38737 0.78516
 C3341 C 0.44312 0.40108 0.79058
 C3342 C 0.44928 0.40815 0.80368
 C3343 C 0.46809 0.36562 0.78793
 C3344 C 0.46655 0.35976 0.77383
 C3345 C 0.47231 0.34449 0.76951
 C3346 C 0.46509 0.33671 0.75745
 C3347 C 0.46983 0.32213 0.75322
 C3348 C 0.48206 0.31503 0.76088
 C3349 C 0.48954 0.32296 0.77275
 C3350 C 0.48477 0.33756 0.77700
 H3351 H 0.46685 0.40642 0.82122
 H3352 H 0.47742 0.38256 0.81173
 H3353 H 0.44378 0.38204 0.77538
 H3354 H 0.43339 0.40597 0.78468
 H3355 H 0.47420 0.35926 0.79656
 H3356 H 0.46038 0.36603 0.76517
 H3357 H 0.45556 0.34185 0.75142
 H3358 H 0.46384 0.31640 0.74397
 H3359 H 0.49910 0.31790 0.77879
 H3360 H 0.49100 0.34340 0.78599
 C3361 C 0.95413 0.39385 0.31823
 C3362 C 0.95984 0.38042 0.31183
 C3363 C 0.95287 0.37377 0.29895
 C3364 C 0.93990 0.38094 0.29259
 C3365 C 0.93415 0.39442 0.29902
 C3366 C 0.94116 0.40101 0.31196
 C3367 C 0.95924 0.35916 0.29309
 C3368 C 0.95609 0.35308 0.27930
 C3369 C 0.96251 0.33829 0.27397
 C3370 C 0.95452 0.32996 0.26274
 C3371 C 0.95996 0.31584 0.25765
 C3372 C 0.97364 0.30975 0.26358
 C3373 C 0.98187 0.31829 0.27453
 C3374 C 0.97642 0.33241 0.27962
 H3375 H 0.95985 0.39854 0.32819
 H3376 H 0.96979 0.37517 0.31704
 H3377 H 0.93390 0.37609 0.28289
 H3378 H 0.92409 0.39957 0.29394
 H3379 H 0.96691 0.35316 0.30069
 H3380 H 0.94824 0.35878 0.27168
 H3381 H 0.94387 0.33428 0.25807
 H3382 H 0.95331 0.30962 0.24919
 H3383 H 0.99251 0.31404 0.27926
 H3384 H 0.98327 0.33869 0.28784
 C3385 C 0.30868 0.90647 0.46179
 C3386 C 0.30263 0.89303 0.46783
 C3387 C 0.29060 0.88527 0.46045
 C3388 C 0.28459 0.89139 0.44683
 C3389 C 0.29070 0.90491 0.44072
 C3390 C 0.30293 0.91251 0.44806
 C3391 C 0.28548 0.87050 0.46700
 C3392 C 0.27204 0.86361 0.46383
 C3393 C 0.26772 0.84851 0.47025
 C3394 C 0.25737 0.83922 0.46212
 C3395 C 0.25364 0.82461 0.46738
 C3396 C 0.26013 0.81899 0.48096
 C3397 C 0.27004 0.82853 0.48941
 C3398 C 0.27372 0.84315 0.48418
 H3399 H 0.31806 0.91199 0.46782
 H3400 H 0.30751 0.88858 0.47830
 H3401 H 0.27555 0.88561 0.44058
 H3402 H 0.28606 0.90921 0.43010
 H3403 H 0.29340 0.86507 0.47478
 H3404 H 0.26413 0.86877 0.45586
 H3405 H 0.25244 0.84313 0.45146
 H3406 H 0.24592 0.81761 0.46059
 H3407 H 0.27506 0.82467 0.50004
 H3408 H 0.28121 0.85017 0.49116
 C3409 C 0.31382 0.39604 0.95743
 C3410 C 0.30816 0.38296 0.96462
 C3411 C 0.29471 0.37578 0.95939
 C3412 C 0.28702 0.38195 0.94667
 C3413 C 0.29274 0.39502 0.93940
 C3414 C 0.30625 0.40219 0.94466
 C3415 C 0.28971 0.36145 0.96694
 C3416 C 0.27526 0.35605 0.96657
 C3417 C 0.27064 0.34113 0.97319
 C3418 C 0.25756 0.33377 0.96729
 C3419 C 0.25330 0.31927 0.97240
 C3420 C 0.26197 0.31180 0.98367
 C3421 C 0.27466 0.31945 0.99012
 C3422 C 0.27894 0.33398 0.98497
 H3423 H 0.32428 0.40119 0.96180
 H3424 H 0.31438 0.37840 0.97430
 H3425 H 0.27688 0.37651 0.94197
 H3426 H 0.28667 0.39939 0.92955
 H3427 H 0.29850 0.35512 0.97290
 H3428 H 0.26649 0.36239 0.96059
 H3429 H 0.25084 0.33908 0.95835
 H3430 H 0.24338 0.31379 0.96724
 H3431 H 0.28152 0.31410 0.99890
 H3432 H 0.28875 0.33948 0.99026
 C3433 C 0.81386 0.35904 0.29547
 C3434 C 0.80897 0.37283 0.28924
 C3435 C 0.79653 0.38070 0.29561
 C3436 C 0.78910 0.37453 0.30853
 C3437 C 0.79402 0.36073 0.31481
 C3438 C 0.80649 0.35285 0.30838
 C3439 C 0.79223 0.39560 0.28892
 C3440 C 0.77828 0.40185 0.29047
 C3441 C 0.77427 0.41710 0.28442
 C3442 C 0.76211 0.42502 0.29126
 C3443 C 0.75819 0.43961 0.28632
 C3444 C 0.76628 0.44661 0.27427
 C3445 C 0.77818 0.43850 0.26710
 C3446 C 0.78212 0.42389 0.27207
 H3447 H 0.82353 0.35334 0.29023
 H3448 H 0.81497 0.37738 0.27938
 H3449 H 0.77978 0.38046 0.31411
 H3450 H 0.78816 0.35636 0.32482
 H3451 H 0.80104 0.40154 0.28252
 H3452 H 0.76947 0.39588 0.29687
 H3453 H 0.75578 0.42000 0.30068
 H3454 H 0.74890 0.44546 0.29208
 H3455 H 0.78457 0.44349 0.25771
 H3456 H 0.79120 0.41798 0.26611
   
