data_POSCAR
  _audit_creation_date              2014-09-24
  _audit_creation_method            'ToBaCCo'
  _symmetry_space_group_name_H-M    'P1'
  _symmetry_Int_Tables_number       1
  _symmetry_cell_setting            triclinic
  loop_
  _symmetry_equiv_pos_as_xyz
 x,y,z
_cell_length_a 43.5726
_cell_length_b 43.5730
_cell_length_c 43.5936
_cell_angle_alpha 89.965600
_cell_angle_beta 89.900800
_cell_angle_gamma 90.010700
loop_
  _atom_site_label
  _atom_site_type_symbol
  _atom_site_fract_x
  _atom_site_fract_y
  _atom_site_fract_z
N1 N 0.34487 1.34286 0.34422
 N2 N 0.35284 0.85139 0.85177
 N3 N 0.85254 1.35231 0.85235
 N4 N 0.85054 0.84923 0.34962
 N5 N 0.65614 0.65637 0.34446
 N6 N 0.65153 0.14908 0.85075
 N7 N 1.16691 0.66563 0.83304
 N8 N 1.14521 0.14558 0.35448
 N9 N 0.64931 1.35070 0.64823
 N10 N 0.64985 0.85147 1.14914
 N11 N 1.15535 1.34423 1.15489
 N12 N 1.16511 0.83419 0.66481
 N13 N 0.34435 0.65547 0.65359
 N14 N 0.35297 0.14984 1.14956
 N15 N 0.83549 0.66662 1.16524
 N16 N 0.85613 0.14419 0.64463
 N17 N 1.33422 0.33338 0.66598
 N18 N 1.33548 0.83490 1.16410
 N19 N 0.85264 0.35192 1.14891
 N20 N 0.84389 0.84457 0.65636
 N21 N 0.64942 0.64905 0.64753
 N22 N 0.65019 1.15146 1.14989
 N23 N 0.15604 0.65757 1.15543
 N24 N 0.14440 1.14339 0.64317
 N25 N 1.33503 0.66710 0.33287
 N26 N 1.35272 1.14942 0.85162
 N27 N 0.85654 0.64422 0.85575
 N28 N 0.85207 1.14864 0.35168
 N29 N 0.65555 0.34261 0.34254
 N30 N 0.66897 0.83368 0.83187
 N31 N 0.14940 0.35212 0.84983
 N32 N 0.14900 0.84967 0.34986
 O33 O 0.97064 0.88780 0.84813
 O34 O 0.97047 0.85196 0.81244
 C35 C 0.96008 0.87696 0.82326
 C36 C 0.93504 0.89332 0.80719
 C37 C 0.92251 0.88139 0.78002
 H38 H 0.93183 0.86056 0.77015
 O39 O 1.03102 1.11332 0.84714
 O40 O 1.03104 1.14944 0.81168
 C41 C 1.04131 1.12422 0.82212
 C42 C 1.06569 1.10751 0.80527
 C43 C 1.07466 1.11686 0.77577
 H44 H 1.06306 1.13599 0.76494
 O45 O 0.85030 0.97116 0.88754
 O46 O 0.81475 0.97126 0.85160
 C47 C 0.82558 0.96046 0.87640
 C48 C 0.80999 0.93431 0.89163
 C49 C 0.78421 0.92070 0.87795
 H50 H 0.77500 0.93023 0.85694
 O51 O 1.15245 1.03150 0.88667
 O52 O 1.18792 1.03178 0.85052
 C53 C 1.17729 1.04210 0.87566
 C54 C 1.19356 1.06707 0.89201
 C55 C 1.22181 1.07823 0.88109
 H56 H 1.23235 1.06775 0.86117
 O57 O 0.89020 0.84681 0.96958
 O58 O 0.85451 0.81092 0.97008
 C59 C 0.87958 0.82154 0.95965
 C60 C 0.89620 0.80478 0.93521
 C61 C 0.88653 0.77553 0.92587
 H62 H 0.86744 0.76464 0.93753
 O63 O 1.11323 1.15328 0.97011
 O64 O 1.14885 1.18925 0.97013
 C65 C 1.12391 1.17837 0.95972
 C66 C 1.10759 1.19457 0.93474
 C67 C 1.11858 1.22280 0.92359
 H68 H 1.13836 1.23342 0.93420
 O69 O 0.89193 1.03164 0.84562
 O70 O 0.85643 1.03168 0.80963
 C71 C 0.88125 1.04221 0.82063
 C72 C 0.89754 1.06750 0.80474
 C73 C 0.88857 1.07719 0.77532
 H74 H 0.86979 1.06568 0.76385
 O75 O 1.11035 0.97107 0.84558
 O76 O 1.14592 0.97083 0.80954
 C77 C 1.12124 0.96008 0.82088
 C78 C 1.10577 0.93374 0.80593
 C79 C 1.11882 0.91990 0.77988
 H80 H 1.13941 0.92950 0.76973
 O81 O 1.03126 0.84646 0.88949
 O82 O 1.03161 0.81075 0.85366
 C83 C 1.04234 0.82192 0.87834
 C84 C 1.06883 0.80705 0.89352
 C85 C 1.08285 0.78119 0.88030
 H86 H 1.07314 0.77100 0.85985
 O87 O 0.97127 1.15501 0.88974
 O88 O 0.97130 1.19145 0.85461
 C89 C 0.96076 1.18015 0.87937
 C90 C 0.93557 1.19588 0.89599
 C91 C 0.92526 1.22503 0.88672
 H92 H 0.93615 1.23630 0.86742
 O93 O 0.84799 1.11088 0.97022
 O94 O 0.81190 1.14637 0.96996
 C95 C 0.82302 1.12149 0.95958
 C96 C 0.80735 1.10502 0.93438
 C97 C 0.77822 1.11433 0.92411
 H98 H 0.76667 1.13336 0.93518
 O99 O 1.15447 0.89225 0.96856
 O100 O 1.19073 0.85695 0.96877
 C101 C 1.17957 0.88171 0.95811
 C102 C 1.19535 0.89784 0.93261
 C103 C 1.22362 0.88713 0.92152
 H104 H 1.23438 0.86755 0.93243
 O105 O 0.97130 1.11349 0.84728
 O106 O 0.97129 1.14969 0.81189
 C107 C 0.96094 1.12451 0.82238
 C108 C 0.93633 1.10798 0.80579
 C109 C 0.92702 1.11744 0.77645
 H110 H 0.93854 1.13656 0.76548
 O111 O 1.03035 0.88857 0.84781
 O112 O 1.03033 0.85290 0.81194
 C113 C 1.04079 0.87787 0.82279
 C114 C 1.06625 0.89382 0.80679
 C115 C 1.07946 0.88065 0.78055
 H116 H 1.07007 0.85956 0.77133
 O117 O 1.15333 0.97178 0.88644
 O118 O 1.18901 0.97192 0.85050
 C119 C 1.17838 0.96148 0.87559
 C120 C 1.19473 0.93657 0.89199
 C121 C 1.22298 0.92535 0.88108
 H122 H 1.23359 0.93584 0.86119
 O123 O 0.85040 1.03109 0.88833
 O124 O 0.81472 1.03112 0.85251
 C125 C 0.82537 1.04140 0.87761
 C126 C 0.80878 1.06597 0.89418
 C127 C 0.77982 1.07569 0.88414
 H128 H 0.76916 1.06442 0.86475
 O129 O 0.88995 1.15306 0.97050
 O130 O 0.85407 1.18874 0.97049
 C131 C 0.87920 1.17811 0.96018
 C132 C 0.89574 1.19472 0.93552
 C133 C 0.88590 1.22389 0.92608
 H134 H 0.86686 1.23473 0.93784
 O135 O 1.11330 0.84923 0.96860
 O136 O 1.14952 0.81389 0.96869
 C137 C 1.12449 0.82442 0.95813
 C138 C 1.10894 0.80828 0.93263
 C139 C 1.12245 0.78226 0.91924
 H140 H 1.14370 0.77327 0.92845
 O141 O 1.11056 1.03121 0.84457
 O142 O 1.14572 1.03114 0.80814
 C143 C 1.12095 1.04166 0.81939
 C144 C 1.10438 1.06688 0.80366
 C145 C 1.11298 1.07650 0.77407
 H146 H 1.13157 1.06494 0.76230
 O147 O 0.89279 0.97157 0.84614
 O148 O 0.85723 0.97169 0.81020
 C149 C 0.88196 0.96097 0.82128
 C150 C 0.89746 0.93495 0.80586
 C151 C 0.88559 0.92295 0.77848
 H152 H 0.86593 0.93377 0.76780
 O153 O 1.03128 1.15454 0.88998
 O154 O 1.03141 1.19086 0.85474
 C155 C 1.04192 1.17957 0.87948
 C156 C 1.06735 1.19522 0.89572
 C157 C 1.07855 1.22349 0.88508
 H158 H 1.06784 1.23431 0.86544
 O159 O 0.97126 0.84517 0.88973
 O160 O 0.97150 0.80914 0.85424
 C161 C 0.96104 0.81997 0.87919
 C162 C 0.93616 0.80378 0.89585
 C163 C 0.92626 0.77439 0.88683
 H164 H 0.93744 0.76297 0.86779
 O165 O 1.15427 1.11039 0.96954
 O166 O 1.19005 1.14618 0.96937
 C167 C 1.17903 1.12133 0.95874
 C168 C 1.19455 1.10549 0.93291
 C169 C 1.22282 1.11618 0.92175
 H170 H 1.23377 1.13558 0.93275
 O171 O 0.84916 0.88980 0.96829
 O172 O 0.81340 0.85399 0.96796
 C173 C 0.82460 0.87873 0.95723
 C174 C 0.80962 0.89416 0.93089
 C175 C 0.78398 0.88078 0.91666
 H176 H 0.77416 0.85993 0.92599
 Cu177 Cu 1.00073 0.87050 0.87245
 Cu178 Cu 1.00092 0.82758 0.82948
 Cu179 Cu 1.00119 1.13052 0.87210
 Cu180 Cu 1.00130 1.17408 0.82975
 Cu181 Cu 0.87497 1.00147 0.87046
 Cu182 Cu 0.83221 1.00154 0.82738
 Cu183 Cu 1.12808 1.00143 0.86935
 Cu184 Cu 1.17062 1.00148 0.82597
 C185 C 0.92247 0.92022 0.81983
 H186 H 0.93151 0.92915 0.84117
 C187 C 0.89774 0.89603 0.76562
 C188 C 1.08051 1.08236 0.81889
 H189 H 1.07395 1.07528 0.84180
 C190 C 1.09809 1.10139 0.75984
 C191 C 0.82235 0.92105 0.91829
 H192 H 0.84256 0.93110 0.92866
 C193 C 0.77137 0.89370 0.88998
 C194 C 1.18025 1.08072 0.91807
 H195 H 1.15824 1.07258 0.92631
 C196 C 1.23659 1.10279 0.89580
 C197 C 0.92117 0.81855 0.92026
 H198 H 0.92841 0.84132 0.92710
 C199 C 0.90147 0.76001 0.90183
 C200 C 1.08183 1.18109 0.92079
 H201 H 1.07358 1.15907 0.92889
 C202 C 1.10423 1.23738 0.89873
 C203 C 0.92162 1.08286 0.81960
 H204 H 0.92845 1.07569 0.84238
 C205 C 0.90333 1.10205 0.76087
 C206 C 1.07934 0.92060 0.81914
 H207 H 1.06960 0.93059 0.83971
 C208 C 1.10599 0.89318 0.76728
 C209 C 1.08193 0.82028 0.91982
 H210 H 1.07169 0.84065 0.92972
 C211 C 1.10985 0.76886 0.89282
 C212 C 0.92079 1.18106 0.92057
 H213 H 0.92828 1.15842 0.92756
 C214 C 0.90048 1.23933 0.90174
 C215 C 0.82226 1.08060 0.91946
 H216 H 0.84484 1.07351 0.92702
 C217 C 0.76432 1.09975 0.89898
 C218 C 1.18126 0.92280 0.91790
 H219 H 1.15924 0.93093 0.92610
 C220 C 1.23760 0.90060 0.89572
 O221 O 1.03127 0.89107 1.15190
 O222 O 1.03155 0.85502 1.18742
 C223 C 1.04187 0.88012 1.17675
 C224 C 1.06706 0.89624 1.19289
 C225 C 1.07830 0.88501 1.22090
 H226 H 1.06777 0.86495 1.23120
 O227 O 0.97011 1.11072 1.15336
 O228 O 0.97003 1.14658 1.18902
 C229 C 0.95957 1.12157 1.17828
 C230 C 0.93446 1.10512 1.19439
 C231 C 0.92420 1.11469 1.22346
 H232 H 0.93501 1.13418 1.23441
 O233 O 0.84691 1.03025 1.11119
 O234 O 0.81093 1.02997 1.14683
 C235 C 0.82185 1.04063 1.12196
 C236 C 0.80582 1.06577 1.10557
 C237 C 0.77697 1.07644 1.11551
 H238 H 0.76609 1.06590 1.13522
 O239 O 1.15380 0.97197 1.11021
 O240 O 1.18938 0.97173 1.14614
 C241 C 1.17858 0.96130 1.12117
 C242 C 1.19435 0.93566 1.10543
 C243 C 1.22039 0.92216 1.11868
 H244 H 1.22966 0.93142 1.13978
 O245 O 1.11274 0.84983 1.02844
 O246 O 1.14870 0.81421 1.02857
 C247 C 1.12370 0.82500 1.03906
 C248 C 1.10766 0.80912 1.06451
 C249 C 1.11949 0.78174 1.07681
 H250 H 1.13983 0.77143 1.06688
 O251 O 0.88946 1.15274 1.03032
 O252 O 0.85354 1.18840 1.03034
 C253 C 0.87847 1.17758 1.04089
 C254 C 0.89450 1.19354 1.06620
 C255 C 0.88352 1.22173 1.07734
 H256 H 0.86393 1.23250 1.06651
 O257 O 0.88925 0.97017 1.15256
 O258 O 0.85348 0.96963 1.18839
 C259 C 0.87852 0.95939 1.17745
 C260 C 0.89497 0.93413 1.19328
 C261 C 0.88408 0.92235 1.22126
 H262 H 0.86393 0.93241 1.23181
 O263 O 1.11181 1.03177 1.15237
 O264 O 1.14740 1.03161 1.18828
 C265 C 1.12246 1.04207 1.17743
 C266 C 1.10593 1.06679 1.19385
 C267 C 1.11559 1.07629 1.22300
 H268 H 1.13468 1.06472 1.23390
 O269 O 0.97127 0.84915 1.10976
 O270 O 0.97163 0.81317 1.14536
 C271 C 0.96077 0.82422 1.12069
 C272 C 0.93473 0.80864 1.10541
 C273 C 0.92139 0.78256 1.11884
 H274 H 0.93111 0.77309 1.13965
 O275 O 1.03015 1.15181 1.11049
 O276 O 1.03025 1.18791 1.14591
 C277 C 1.04076 1.17678 1.12104
 C278 C 1.06612 1.19263 1.10472
 C279 C 1.07663 1.22119 1.11510
 H280 H 1.06516 1.23218 1.13422
 O281 O 0.84768 0.89004 1.02833
 O282 O 0.81150 0.85465 1.02809
 C283 C 0.82251 0.87947 1.03864
 C284 C 0.80651 0.89557 1.06394
 C285 C 0.77842 0.88441 1.07526
 H286 H 0.76760 0.86488 1.06436
 O287 O 1.15598 1.11140 1.02950
 O288 O 1.19177 1.14718 1.02946
 C289 C 1.18097 1.12223 1.03994
 C290 C 1.19695 1.10594 1.06511
 C291 C 1.22592 1.11566 1.07555
 H292 H 1.23703 1.13505 1.06466
 O293 O 1.03003 1.11133 1.15397
 O294 O 1.03006 1.14719 1.18965
 C295 C 1.04055 1.12221 1.17889
 C296 C 1.06575 1.10590 1.19487
 C297 C 1.07569 1.11508 1.22418
 H298 H 1.06440 1.13403 1.23564
 O299 O 0.97126 0.89064 1.15214
 O300 O 0.97168 0.85463 1.18772
 C301 C 0.96086 0.87949 1.17702
 C302 C 0.93523 0.89504 1.19305
 C303 C 0.92386 0.88345 1.22094
 H304 H 0.93488 0.86388 1.23156
 O305 O 1.15440 1.03172 1.11074
 O306 O 1.19014 1.03150 1.14650
 C307 C 1.17947 1.04195 1.12150
 C308 C 1.19599 1.06665 1.10505
 C309 C 1.22492 1.07648 1.11506
 H310 H 1.23570 1.06493 1.13423
 O311 O 0.84767 0.97042 1.11004
 O312 O 0.81170 0.96999 1.14568
 C313 C 0.82265 0.95980 1.12062
 C314 C 0.80662 0.93481 1.10403
 C315 C 0.77845 0.92344 1.11484
 H316 H 0.76796 0.93367 1.13492
 O317 O 1.11245 1.15187 1.02988
 O318 O 1.14798 1.18791 1.03001
 C319 C 1.12303 1.17685 1.04044
 C320 C 1.10642 1.19276 1.06553
 C321 C 1.11666 1.22135 1.07641
 H322 H 1.13661 1.23203 1.06612
 O323 O 0.89002 0.84849 1.02936
 O324 O 0.85391 0.81302 1.02990
 C325 C 0.87882 0.82395 1.04043
 C326 C 0.89436 0.80866 1.06651
 C327 C 0.88120 0.78273 1.08051
 H328 H 0.86034 0.77294 1.07123
 O329 O 1.11223 0.97186 1.15263
 O330 O 1.14777 0.97175 1.18859
 C331 C 1.12295 0.96124 1.17756
 C332 C 1.10683 0.93578 1.19329
 C333 C 1.11788 0.92408 1.22124
 H334 H 1.13752 0.93470 1.23211
 O335 O 0.88939 1.03007 1.15264
 O336 O 0.85367 1.02966 1.18853
 C337 C 0.87861 1.04030 1.17771
 C338 C 0.89493 1.06528 1.19401
 C339 C 0.88512 1.07503 1.22309
 H340 H 0.86622 1.06325 1.23417
 O341 O 0.97017 1.15282 1.11134
 O342 O 0.97016 1.18892 1.14676
 C343 C 0.95966 1.17787 1.12192
 C344 C 0.93436 1.19378 1.10563
 C345 C 0.92319 1.22208 1.11627
 H346 H 0.93378 1.23279 1.13602
 O347 O 1.03128 0.84954 1.10921
 O348 O 1.03155 0.81345 1.14469
 C349 C 1.04192 0.82455 1.11978
 C350 C 1.06735 0.80880 1.10362
 C351 C 1.07919 0.78119 1.11519
 H352 H 1.06881 0.77076 1.13525
 O353 O 1.15476 0.89171 1.02864
 O354 O 1.19074 0.85612 1.02880
 C355 C 1.17955 0.88082 1.03946
 C356 C 1.19479 0.89624 1.06559
 C357 C 1.22070 0.88292 1.07938
 H358 H 1.23063 0.86228 1.06973
 O359 O 0.84761 1.11062 1.03010
 O360 O 0.81156 1.14614 1.02984
 C361 C 0.82249 1.12127 1.04042
 C362 C 0.80625 1.10504 1.06552
 C363 C 0.77743 1.11524 1.07561
 H364 H 0.76648 1.13423 1.06391
 Cu365 Cu 1.00129 0.87373 1.12720
 Cu366 Cu 1.00171 0.83042 1.16982
 Cu367 Cu 1.00009 1.12805 1.12879
 Cu368 Cu 1.00013 1.17132 1.17134
 Cu369 Cu 0.87283 0.87238 0.99884
 Cu370 Cu 0.82967 0.82962 0.99900
 Cu371 Cu 1.13023 0.87434 0.99851
 Cu372 Cu 1.17357 0.83177 0.99866
 Cu373 Cu 0.87233 1.12824 1.00026
 Cu374 Cu 0.82915 1.17100 1.00011
 Cu375 Cu 1.13048 1.12811 0.99980
 Cu376 Cu 1.17326 1.17121 0.99975
 Cu377 Cu 0.87187 1.00027 1.12805
 Cu378 Cu 0.82885 0.99975 1.17096
 Cu379 Cu 1.12945 1.00191 1.12791
 Cu380 Cu 1.17227 1.00171 1.17098
 C381 C 1.08127 0.92185 1.17946
 H382 H 1.07300 0.93038 1.15764
 C383 C 1.10379 0.89865 1.23519
 C384 C 0.91981 1.08026 1.18002
 H385 H 0.92729 1.07304 1.15745
 C386 C 0.89959 1.09967 1.23811
 C387 C 0.82010 1.08010 1.08043
 H388 H 0.84250 1.07236 1.07292
 C389 C 0.76253 1.10118 1.10058
 C390 C 1.18190 0.92276 1.07867
 H391 H 1.16146 0.93271 1.06864
 C392 C 1.23339 0.89552 1.10613
 C393 C 1.08147 0.82237 1.07799
 H394 H 1.07266 0.84387 1.06916
 C395 C 1.10539 0.76770 1.10217
 C396 C 0.92005 1.17987 1.08036
 H397 H 0.92828 1.15787 1.07223
 C398 C 0.89769 1.23615 1.10238
 C399 C 0.92078 0.92051 1.17956
 H400 H 0.92909 0.92918 1.15779
 C401 C 0.89827 0.89691 1.23519
 C402 C 1.08087 1.08155 1.18009
 H403 H 1.07359 1.07453 1.15741
 C404 C 1.10058 1.10027 1.23848
 C405 C 0.92125 0.82133 1.07904
 H406 H 0.93114 0.84176 1.06886
 C407 C 0.89439 0.76974 1.10687
 C408 C 1.08097 1.17870 1.07970
 H409 H 1.07323 1.15645 1.07180
 C410 C 1.10192 1.23569 1.10124
 C411 C 0.82029 0.92093 1.07833
 H412 H 0.84224 0.92926 1.07011
 C413 C 0.76428 0.89813 1.10073
 C414 C 1.18237 1.08127 1.07987
 H415 H 1.15987 1.07396 1.07228
 C416 C 1.24017 1.10096 1.10053
 O417 O 0.97114 0.38982 0.34711
 O418 O 0.97143 0.35433 0.31105
 C419 C 0.96089 0.37920 0.32201
 C420 C 0.93602 0.39555 0.30573
 C421 C 0.92637 0.38568 0.27671
 H422 H 0.93795 0.36661 0.26572
 O423 O 1.02973 0.61008 0.34707
 O424 O 1.02959 0.64595 0.31137
 C425 C 1.04020 0.62100 0.32214
 C426 C 1.06557 0.60503 0.30600
 C427 C 1.07641 0.61602 0.27774
 H428 H 1.06513 0.63541 0.26706
 O429 O 0.84749 0.46874 0.38865
 O430 O 0.81186 0.46857 0.35280
 C431 C 0.82272 0.45802 0.37769
 C432 C 0.80689 0.43243 0.39356
 C433 C 0.77972 0.42006 0.38151
 H434 H 0.76989 0.42996 0.36095
 O435 O 1.15392 0.53111 0.38827
 O436 O 1.18958 0.53143 0.35232
 C437 C 1.17856 0.54203 0.37714
 C438 C 1.19376 0.56814 0.39261
 C439 C 1.21955 0.58230 0.37936
 H440 H 1.22943 0.57299 0.35854
 O441 O 0.89004 0.34709 0.46966
 O442 O 0.85444 0.31111 0.46957
 C443 C 0.87938 0.32212 0.45910
 C444 C 0.89572 0.30627 0.43381
 C445 C 0.88508 0.27803 0.42256
 H446 H 0.86527 0.26729 0.43312
 O447 O 1.11029 0.65275 0.46991
 O448 O 1.14563 0.68898 0.47031
 C449 C 1.12079 0.67799 0.45975
 C450 C 1.10428 0.69408 0.43480
 C451 C 1.11399 0.72308 0.42436
 H452 H 1.13329 0.73434 0.43521
 O453 O 0.88905 0.52942 0.34714
 O454 O 0.85330 0.52940 0.31138
 C455 C 0.87807 0.54011 0.32237
 C456 C 0.89356 0.56607 0.30684
 C457 C 0.88035 0.57961 0.28079
 H458 H 0.85941 0.57015 0.27132
 O459 O 1.11238 0.47062 0.34704
 O460 O 1.14814 0.47047 0.31117
 C461 C 1.12328 0.45992 0.32222
 C462 C 1.10728 0.43442 0.30657
 C463 C 1.11899 0.42215 0.27916
 H464 H 1.13928 0.43207 0.26872
 O465 O 1.03110 0.34767 0.38884
 O466 O 1.03096 0.31191 0.35305
 C467 C 1.04151 0.32271 0.37795
 C468 C 1.06655 0.30641 0.39407
 C469 C 1.07593 0.27720 0.38436
 H470 H 1.06400 0.26613 0.36559
 O471 O 0.96968 0.65206 0.38913
 O472 O 0.96974 0.68825 0.35375
 C473 C 0.95918 0.67714 0.37858
 C474 C 0.93396 0.69303 0.39501
 C475 C 0.92343 0.72192 0.38519
 H476 H 0.93420 0.73286 0.36564
 O477 O 0.84694 0.60886 0.47049
 O478 O 0.81086 0.64434 0.47054
 C479 C 0.82189 0.61948 0.46005
 C480 C 0.80601 0.60344 0.43468
 C481 C 0.77853 0.61523 0.42277
 H482 H 0.76822 0.63537 0.43307
 O483 O 1.15337 0.38975 0.46968
 O484 O 1.18952 0.35435 0.46947
 C485 C 1.17852 0.37935 0.45923
 C486 C 1.19470 0.39594 0.43429
 C487 C 1.22303 0.38520 0.42347
 H488 H 1.23370 0.36569 0.43457
 O489 O 0.96971 0.61022 0.34706
 O490 O 0.96951 0.64634 0.31161
 C491 C 0.95894 0.62140 0.32242
 C492 C 0.93300 0.60594 0.30691
 C493 C 0.91930 0.61926 0.28097
 H494 H 0.92889 0.64003 0.27122
 O495 O 1.03097 0.39013 0.34729
 O496 O 1.03116 0.35445 0.31142
 C497 C 1.04156 0.37938 0.32236
 C498 C 1.06697 0.39541 0.30648
 C499 C 1.07869 0.38384 0.27882
 H500 H 1.06825 0.36382 0.26843
 O501 O 1.15434 0.47124 0.38891
 O502 O 1.19031 0.47130 0.35326
 C503 C 1.17939 0.46083 0.37823
 C504 C 1.19533 0.43565 0.39461
 C505 C 1.22367 0.42437 0.38398
 H506 H 1.23436 0.43466 0.36403
 O507 O 0.84705 0.52862 0.38904
 O508 O 0.81122 0.52859 0.35336
 C509 C 0.82209 0.53909 0.37827
 C510 C 0.80622 0.56442 0.39441
 C511 C 0.77898 0.57689 0.38252
 H512 H 0.76873 0.56709 0.36213
 O513 O 0.88890 0.65112 0.47016
 O514 O 0.85293 0.68671 0.47034
 C515 C 0.87796 0.67606 0.45976
 C516 C 0.89421 0.69240 0.43468
 C517 C 0.88411 0.72130 0.42462
 H518 H 0.86498 0.73222 0.43617
 O519 O 1.11228 0.34661 0.46900
 O520 O 1.14823 0.31100 0.46847
 C521 C 1.12315 0.32177 0.45826
 C522 C 1.10655 0.30575 0.43329
 C523 C 1.11555 0.27636 0.42336
 H524 H 1.13470 0.26496 0.43433
 O525 O 1.11183 0.53039 0.34659
 O526 O 1.14732 0.53043 0.31047
 C527 C 1.12236 0.54081 0.32147
 C528 C 1.10578 0.56586 0.30552
 C529 C 1.11633 0.57726 0.27721
 H530 H 1.13641 0.56717 0.26657
 O531 O 0.88955 0.46970 0.34653
 O532 O 0.85410 0.46961 0.31048
 C533 C 0.87915 0.45944 0.32135
 C534 C 0.89611 0.43490 0.30514
 C535 C 0.88690 0.42488 0.27591
 H536 H 0.86757 0.43569 0.26464
 O537 O 1.02959 0.65195 0.38927
 O538 O 1.02958 0.68795 0.35369
 C539 C 1.04000 0.67701 0.37860
 C540 C 1.06491 0.69326 0.39495
 C541 C 1.07507 0.72201 0.38469
 H542 H 1.06387 0.73281 0.36531
 O543 O 0.97113 0.34760 0.38894
 O544 O 0.97109 0.31203 0.35297
 C545 C 0.96058 0.32275 0.37795
 C546 C 0.93529 0.30666 0.39398
 C547 C 0.92415 0.27851 0.38291
 H548 H 0.93501 0.26782 0.36327
 O549 O 1.15265 0.61107 0.46916
 O550 O 1.18806 0.64724 0.46948
 C551 C 1.17740 0.62241 0.45863
 C552 C 1.19324 0.60730 0.43267
 C553 C 1.21917 0.62098 0.41925
 H554 H 1.22836 0.64199 0.42884
 O555 O 0.84715 0.38820 0.46970
 O556 O 0.81146 0.35231 0.46965
 C557 C 0.82232 0.37720 0.45906
 C558 C 0.80660 0.39293 0.43336
 C559 C 0.77939 0.38086 0.42095
 H560 H 0.76888 0.36091 0.43142
 Cu561 Cu 1.00105 0.37236 0.37169
 Cu562 Cu 1.00117 0.32959 0.32851
 Cu563 Cu 0.99969 0.62745 0.37167
 Cu564 Cu 0.99967 0.67069 0.32898
 Cu565 Cu 0.87185 0.49906 0.37145
 Cu566 Cu 0.82898 0.49897 0.32843
 Cu567 Cu 1.12957 0.50083 0.37131
 Cu568 Cu 1.17247 0.50088 0.32821
 C569 C 0.92093 0.42033 0.31966
 H570 H 0.92795 0.42770 0.34231
 C571 C 0.90193 0.40022 0.26160
 C572 C 1.08021 0.57973 0.31955
 H573 H 1.07225 0.57142 0.34160
 C574 C 1.10181 0.60240 0.26317
 C575 C 0.81999 0.41889 0.41967
 H576 H 0.84124 0.42798 0.42877
 C577 C 0.76588 0.39412 0.39484
 C578 C 1.18094 0.58067 0.41941
 H579 H 1.16063 0.57031 0.42936
 C580 C 1.23218 0.60893 0.39236
 C581 C 0.92107 0.32022 0.41956
 H582 H 0.92920 0.34220 0.42784
 C583 C 0.89905 0.26404 0.39704
 C584 C 1.07949 0.67958 0.42015
 H585 H 1.07207 0.65712 0.42783
 C586 C 1.09949 0.73714 0.39924
 C587 C 0.92010 0.57920 0.31953
 H588 H 0.93010 0.56920 0.33996
 C589 C 0.89277 0.60645 0.26800
 C590 C 1.08115 0.42100 0.31997
 H591 H 1.07241 0.42985 0.34150
 C592 C 1.10483 0.39685 0.26522
 C593 C 1.08184 0.32039 0.41866
 H594 H 1.07492 0.34312 0.42598
 C595 C 1.10024 0.26187 0.39892
 C596 C 0.91934 0.67863 0.41992
 H597 H 0.92705 0.65619 0.42734
 C598 C 0.89858 0.73636 0.39994
 C599 C 0.81945 0.57774 0.42062
 H600 H 0.84086 0.56877 0.42946
 C601 C 0.76510 0.60234 0.39653
 C602 C 1.18118 0.42141 0.41995
 H603 H 1.15907 0.42954 0.42791
 C604 C 1.23763 0.39904 0.39824
 O605 O 1.03051 0.38648 0.65081
 O606 O 1.03083 0.35069 0.68660
 C607 C 1.04097 0.37587 0.67582
 C608 C 1.06542 0.39282 0.69225
 C609 C 1.07527 0.38311 0.72128
 H610 H 1.06431 0.36356 0.73208
 O611 O 0.96917 0.60998 0.65286
 O612 O 0.96926 0.64570 0.68868
 C613 C 0.95892 0.62064 0.67798
 C614 C 0.93439 0.60400 0.69466
 C615 C 0.92510 0.61368 0.72390
 H616 H 0.93672 0.63283 0.73465
 O617 O 0.84848 0.52840 0.61238
 O618 O 0.81271 0.52813 0.64823
 C619 C 0.82353 0.53881 0.62329
 C620 C 0.80744 0.56403 0.60710
 C621 C 0.77924 0.57532 0.61806
 H622 H 0.76856 0.56477 0.63788
 O623 O 1.15180 0.46920 0.61065
 O624 O 1.18726 0.46911 0.64668
 C625 C 1.17652 0.45850 0.62177
 C626 C 1.19230 0.43261 0.60637
 C627 C 1.21829 0.41924 0.61986
 H628 H 1.22749 0.42877 0.64087
 O629 O 1.11161 0.34610 0.52876
 O630 O 1.14749 0.31040 0.52821
 C631 C 1.12245 0.32096 0.53879
 C632 C 1.10607 0.30420 0.56342
 C633 C 1.11571 0.27484 0.57248
 H634 H 1.13464 0.26394 0.56059
 O635 O 0.88848 0.65176 0.53007
 O636 O 0.85229 0.68713 0.53023
 C637 C 0.87733 0.67655 0.54067
 C638 C 0.89313 0.69255 0.56611
 C639 C 0.88116 0.71992 0.57832
 H640 H 0.86118 0.73033 0.56786
 O641 O 0.89094 0.46812 0.65331
 O642 O 0.85528 0.46748 0.68926
 C643 C 0.88023 0.45717 0.67810
 C644 C 0.89647 0.43161 0.69361
 C645 C 0.88616 0.42070 0.72209
 H646 H 0.86675 0.43166 0.73312
 O647 O 1.11004 0.52958 0.65256
 O648 O 1.14583 0.52972 0.68827
 C649 C 1.12106 0.54039 0.67728
 C650 C 1.10561 0.56646 0.69270
 C651 C 1.11905 0.58048 0.71843
 H652 H 1.13994 0.57110 0.72805
 O653 O 0.97090 0.34398 0.60924
 O654 O 0.97102 0.30783 0.64466
 C655 C 0.96046 0.31891 0.61985
 C656 C 0.93529 0.30310 0.60339
 C657 C 0.92535 0.27371 0.61234
 H658 H 0.93660 0.26210 0.63120
 O659 O 1.02901 0.65221 0.61073
 O660 O 1.02893 0.68808 0.64639
 C661 C 1.03968 0.67704 0.62164
 C662 C 1.06572 0.69247 0.60610
 C663 C 1.07946 0.71854 0.61923
 H664 H 1.06990 0.72843 0.63993
 O665 O 0.84811 0.38900 0.52974
 O666 O 0.81226 0.35327 0.52966
 C667 C 0.82316 0.37818 0.54024
 C668 C 0.80704 0.39434 0.56547
 C669 C 0.77793 0.38455 0.57510
 H670 H 0.76675 0.36591 0.56306
 O671 O 1.15219 0.60980 0.52905
 O672 O 1.18793 0.64564 0.52937
 C673 C 1.17711 0.62054 0.53962
 C674 C 1.19301 0.60430 0.56489
 C675 C 1.22065 0.61579 0.57667
 H676 H 1.23107 0.63589 0.56635
 O677 O 1.02901 0.61014 0.65252
 O678 O 1.02902 0.64605 0.68816
 C679 C 1.03966 0.62118 0.67727
 C680 C 1.06561 0.60576 0.69281
 C681 C 1.07922 0.61923 0.71867
 H682 H 1.06975 0.64023 0.72805
 O683 O 0.97078 0.38565 0.65146
 O684 O 0.97090 0.34978 0.68718
 C685 C 0.96037 0.37478 0.67645
 C686 C 0.93535 0.39111 0.69274
 C687 C 0.92451 0.38040 0.72120
 H688 H 0.93524 0.36069 0.73187
 O689 O 1.15186 0.52915 0.61035
 O690 O 1.18766 0.52910 0.64605
 C691 C 1.17681 0.53964 0.62113
 C692 C 1.19272 0.56503 0.60503
 C693 C 1.22015 0.57724 0.61678
 H694 H 1.23049 0.56722 0.63702
 O695 O 0.84799 0.46857 0.61232
 O696 O 0.81204 0.46807 0.64798
 C697 C 0.82294 0.45795 0.62288
 C698 C 0.80681 0.43319 0.60597
 C699 C 0.77764 0.42294 0.61536
 H700 H 0.76664 0.43348 0.63499
 O701 O 1.11016 0.65186 0.52973
 O702 O 1.14587 0.68774 0.53008
 C703 C 1.12100 0.67667 0.54053
 C704 C 1.10530 0.69224 0.56631
 C705 C 1.11844 0.71845 0.57957
 H706 H 1.13939 0.72789 0.57003
 O707 O 0.88940 0.34617 0.52946
 O708 O 0.85370 0.31028 0.52934
 C709 C 0.87869 0.32104 0.53972
 C710 C 0.89518 0.30442 0.56430
 C711 C 0.88549 0.27516 0.57360
 H712 H 0.86638 0.26431 0.56202
 O713 O 1.10954 0.46954 0.65249
 O714 O 1.14489 0.46970 0.68863
 C715 C 1.12007 0.45913 0.67757
 C716 C 1.10376 0.43382 0.69342
 C717 C 1.11316 0.42387 0.72260
 H718 H 1.13199 0.43533 0.73405
 O719 O 0.88970 0.52811 0.65509
 O720 O 0.85423 0.52764 0.69122
 C721 C 0.87904 0.53839 0.68023
 C722 C 0.89541 0.56366 0.69614
 C723 C 0.88641 0.57366 0.72554
 H724 H 0.86757 0.56234 0.73718
 O725 O 0.96897 0.65200 0.61065
 O726 O 0.96885 0.68782 0.64636
 C727 C 0.95835 0.67688 0.62150
 C728 C 0.93283 0.69267 0.60559
 C729 C 0.92056 0.71997 0.61747
 H730 H 0.93058 0.72998 0.63787
 O731 O 1.03077 0.34388 0.60935
 O732 O 1.03107 0.30776 0.64480
 C733 C 1.04138 0.31883 0.61986
 C734 C 1.06639 0.30298 0.60308
 C735 C 1.07624 0.27349 0.61178
 H736 H 1.06510 0.26188 0.63074
 O737 O 1.15325 0.38831 0.52969
 O738 O 1.18924 0.35274 0.52965
 C739 C 1.17796 0.37733 0.54055
 C740 C 1.19296 0.39273 0.56690
 C741 C 1.21878 0.37951 0.58100
 H742 H 1.22874 0.35877 0.57160
 O743 O 0.84769 0.60857 0.53045
 O744 O 0.81141 0.64385 0.53046
 C745 C 0.82266 0.61910 0.54107
 C746 C 0.80697 0.60296 0.56663
 C747 C 0.77873 0.61370 0.57777
 H748 H 0.76800 0.63333 0.56693
 Cu749 Cu 1.00074 0.36852 0.62662
 Cu750 Cu 1.00103 0.32540 0.66940
 Cu751 Cu 0.99896 0.62753 0.62806
 Cu752 Cu 0.99891 0.67055 0.67095
 Cu753 Cu 0.87221 0.37124 0.49966
 Cu754 Cu 0.82934 0.32819 0.49961
 Cu755 Cu 1.12905 0.37126 0.49926
 Cu756 Cu 1.17235 0.32866 0.49883
 Cu757 Cu 0.87163 0.62655 0.50026
 Cu758 Cu 0.82822 0.66902 0.50036
 Cu759 Cu 1.12776 0.62775 0.49938
 Cu760 Cu 1.17048 0.67099 0.49989
 Cu761 Cu 0.87285 0.49838 0.62975
 Cu762 Cu 0.83001 0.49774 0.67280
 Cu763 Cu 1.12722 0.49936 0.62795
 Cu764 Cu 1.16999 0.49936 0.67099
 C765 C 1.07965 0.41836 0.67860
 H766 H 1.07249 0.42570 0.65597
 C767 C 1.09901 0.39853 0.73669
 C768 C 0.91961 0.57885 0.68110
 H769 H 0.92648 0.57157 0.65835
 C770 C 0.90126 0.59867 0.73966
 C771 C 0.82099 0.57790 0.58125
 H772 H 0.84297 0.56971 0.57300
 C773 C 0.76472 0.60017 0.60352
 C774 C 1.18000 0.41940 0.57968
 H775 H 1.15965 0.42931 0.56944
 C776 C 1.23138 0.39247 0.60766
 C777 C 1.08127 0.31795 0.57869
 H778 H 1.07402 0.34078 0.57205
 C779 C 1.10083 0.25917 0.59646
 C780 C 0.91915 0.67931 0.57972
 H781 H 0.92816 0.65795 0.57077
 C782 C 0.89459 0.73371 0.60417
 C783 C 0.92131 0.41686 0.67926
 H784 H 0.92918 0.42493 0.65710
 C785 C 0.89993 0.39508 0.73604
 C786 C 1.07875 0.57916 0.68020
 H787 H 1.06868 0.56897 0.65992
 C788 C 1.10620 0.60707 0.73132
 C789 C 0.92023 0.31808 0.57915
 H790 H 0.92754 0.34085 0.57231
 C791 C 0.90049 0.25951 0.59744
 C792 C 1.07872 0.67961 0.57950
 H793 H 1.06877 0.65906 0.56968
 C794 C 1.10602 0.73147 0.60626
 C795 C 0.82117 0.41887 0.58084
 H796 H 0.84381 0.42632 0.57372
 C797 C 0.76294 0.39866 0.59996
 C798 C 1.17944 0.57862 0.57896
 H799 H 1.15790 0.56984 0.57023
 C800 C 1.23418 0.60263 0.60275
 O801 O 0.61041 1.03039 0.65349
 O802 O 0.64597 1.03001 0.68941
 C803 C 0.62114 1.04070 0.67852
 C804 C 0.60512 1.06613 0.69443
 C805 C 0.61614 1.07754 0.72243
 H806 H 0.63592 1.06686 0.73303
 O807 O 0.39024 0.96984 0.65421
 O808 O 0.35489 0.96962 0.69048
 C809 C 0.37976 0.95925 0.67930
 C810 C 0.39638 0.93412 0.69507
 C811 C 0.38711 0.92386 0.72424
 H812 H 0.36784 0.93477 0.73553
 O813 O 0.52982 1.15270 0.61034
 O814 O 0.52932 1.18893 0.64565
 C815 C 0.53997 1.17792 0.62083
 C816 C 0.56494 1.19416 0.60446
 C817 C 0.57470 1.22318 0.61430
 H818 H 0.56305 1.23426 0.63328
 O819 O 0.47032 0.84706 0.60955
 O820 O 0.47002 0.81092 0.64498
 C821 C 0.45970 0.82205 0.62010
 C822 C 0.43467 0.80618 0.60356
 C823 C 0.42359 0.77766 0.61387
 H824 H 0.43378 0.76696 0.63383
 O825 O 0.65466 1.11150 0.53144
 O826 O 0.69037 1.14736 0.53139
 C827 C 0.67957 1.12239 0.54194
 C828 C 0.69553 1.10592 0.56708
 C829 C 0.72501 1.11472 0.57689
 H830 H 0.73660 1.13365 0.56568
 O831 O 0.34762 0.88993 0.52968
 O832 O 0.31226 0.85372 0.53007
 C833 C 0.32319 0.87853 0.54082
 C834 C 0.30803 0.89361 0.56730
 C835 C 0.28197 0.88033 0.58096
 H836 H 0.27198 0.85981 0.57114
 O837 O 0.47065 1.11027 0.65304
 O838 O 0.47065 1.14609 0.68878
 C839 C 0.46035 1.12099 0.67811
 C840 C 0.43561 1.10455 0.69459
 C841 C 0.42598 1.11445 0.72364
 H842 H 0.43784 1.13334 0.73457
 O843 O 0.53053 0.88853 0.65140
 O844 O 0.53073 0.85223 0.68668
 C845 C 0.54129 0.87725 0.67599
 C846 C 0.56715 0.89272 0.69165
 C847 C 0.58092 0.87907 0.71734
 H848 H 0.57177 0.85780 0.72642
 O849 O 0.65256 0.97116 0.61063
 O850 O 0.68830 0.97078 0.64640
 C851 C 0.67750 0.96056 0.62134
 C852 C 0.69359 0.93545 0.60502
 C853 C 0.72191 0.92462 0.61573
 H854 H 0.73269 0.93580 0.63511
 O855 O 0.34775 1.02944 0.61239
 O856 O 0.31192 1.02903 0.64818
 C857 C 0.32259 1.03954 0.62313
 C858 C 0.30592 1.06405 0.60649
 C859 C 0.27651 1.07322 0.61591
 H860 H 0.26557 1.06163 0.63501
 O861 O 0.38809 1.15041 0.53054
 O862 O 0.35231 1.18620 0.53061
 C863 C 0.37717 1.17527 0.54116
 C864 C 0.39276 1.19103 0.56686
 C865 C 0.37943 1.21717 0.58013
 H866 H 0.35840 1.22645 0.57069
 O867 O 0.61145 0.84783 0.52931
 O868 O 0.64706 0.81186 0.52919
 C869 C 0.62204 0.82267 0.53955
 C870 C 0.60543 0.80615 0.56418
 C871 C 0.61544 0.77718 0.57393
 H872 H 0.63480 0.76643 0.56260
 O873 O 0.38986 1.02971 0.65432
 O874 O 0.35430 1.02960 0.69038
 C875 C 0.37918 1.04014 0.67937
 C876 C 0.39569 1.06519 0.69532
 C877 C 0.38618 1.07556 0.72438
 H878 H 0.36665 1.06488 0.73547
 O879 O 0.61075 0.97028 0.65275
 O880 O 0.64645 0.96984 0.68855
 C881 C 0.62176 0.95918 0.67734
 C882 C 0.60651 0.93271 0.69229
 C883 C 0.62006 0.91853 0.71784
 H884 H 0.64075 0.92810 0.72772
 O885 O 0.53011 0.84624 0.60974
 O886 O 0.52985 0.80982 0.64490
 C887 C 0.54036 0.82097 0.62009
 C888 C 0.56536 0.80501 0.60344
 C889 C 0.57559 0.77583 0.61279
 H890 H 0.56458 0.76439 0.63194
 O891 O 0.46977 1.15207 0.61095
 O892 O 0.46925 1.18795 0.64661
 C893 C 0.45867 1.17669 0.62191
 C894 C 0.43239 1.19168 0.60647
 C895 C 0.41847 1.21765 0.61958
 H896 H 0.42799 1.22770 0.64019
 O897 O 0.34570 1.10870 0.53029
 O898 O 0.30982 1.14438 0.53040
 C899 C 0.32070 1.11941 0.54084
 C900 C 0.30473 1.10295 0.56604
 C901 C 0.27520 1.11176 0.57573
 H902 H 0.26360 1.13050 0.56424
 O903 O 0.65320 0.89014 0.52982
 O904 O 0.68898 0.85435 0.52994
 C905 C 0.67806 0.87929 0.54041
 C906 C 0.69393 0.89556 0.56563
 C907 C 0.72227 0.88495 0.57679
 H908 H 0.73287 0.86496 0.56651
 O909 O 0.47069 0.88854 0.65218
 O910 O 0.47078 0.85260 0.68782
 C911 C 0.46044 0.87773 0.67725
 C912 C 0.43583 0.89426 0.69391
 C913 C 0.42638 0.88445 0.72309
 H914 H 0.43810 0.86540 0.73392
 O915 O 0.53038 1.11137 0.65307
 O916 O 0.53036 1.14747 0.68850
 C917 C 0.54091 1.12248 0.67785
 C918 C 0.56616 1.10647 0.69394
 C919 C 0.57764 1.11771 0.72188
 H920 H 0.56712 1.13760 0.73243
 O921 O 0.34858 0.96964 0.61205
 O922 O 0.31306 0.96906 0.64814
 C923 C 0.32391 0.95871 0.62310
 C924 C 0.30833 0.93295 0.60733
 C925 C 0.28213 0.91949 0.62040
 H926 H 0.27268 0.92880 0.64143
 O927 O 0.65295 1.03101 0.61187
 O928 O 0.68864 1.03052 0.64769
 C929 C 0.67795 1.04126 0.62282
 C930 C 0.69445 1.06624 0.60671
 C931 C 0.72376 1.07540 0.61632
 H932 H 0.73471 1.06346 0.63516
 O933 O 0.38972 0.84808 0.52829
 O934 O 0.35437 0.81185 0.52801
 C935 C 0.37926 0.82282 0.53847
 C936 C 0.39559 0.80656 0.56343
 C937 C 0.38494 0.77806 0.57398
 H938 H 0.36566 0.76725 0.56264
 O939 O 0.61195 1.15287 0.53078
 O940 O 0.64729 1.18910 0.53062
 C941 C 0.62228 1.17815 0.54092
 C942 C 0.60524 1.19445 0.56539
 C943 C 0.61454 1.22368 0.57540
 H944 H 0.63403 1.23484 0.56470
 Cu945 Cu 0.62804 1.00083 0.62865
 Cu946 Cu 0.67085 1.00028 0.67168
 Cu947 Cu 0.37270 0.99977 0.62969
 Cu948 Cu 0.32992 0.99934 0.67288
 Cu949 Cu 0.50024 1.12803 0.62825
 Cu950 Cu 0.49989 1.17131 0.67089
 Cu951 Cu 0.50038 0.87119 0.62716
 Cu952 Cu 0.50027 0.82780 0.66971
 C953 C 0.57990 1.08056 0.68057
 H954 H 0.57151 1.07213 0.65877
 C955 C 0.60266 1.10340 0.73629
 C956 C 0.42092 0.91932 0.68025
 H957 H 0.42790 0.92678 0.65758
 C958 C 0.40209 0.89908 0.73853
 C959 C 0.58019 1.18008 0.57984
 H960 H 0.57310 1.15743 0.57248
 C961 C 0.59938 1.23815 0.59990
 C962 C 0.42069 0.82029 0.57816
 H963 H 0.42875 0.84250 0.57043
 C964 C 0.39867 0.76345 0.59923
 C965 C 0.68065 1.08148 0.58199
 H966 H 0.65787 1.07470 0.57476
 C967 C 0.73938 1.09943 0.60147
 C968 C 0.32093 0.92005 0.58057
 H969 H 0.34144 0.93001 0.57063
 C970 C 0.26906 0.89297 0.60766
 C971 C 0.42057 1.07971 0.68078
 H972 H 0.42773 1.07220 0.65819
 C973 C 0.40130 1.10018 0.73880
 C974 C 0.57992 0.91975 0.67946
 H975 H 0.56977 0.93011 0.65930
 C976 C 0.60764 0.89152 0.73025
 C977 C 0.67993 0.92098 0.57974
 H978 H 0.65785 0.92896 0.57161
 C979 C 0.73641 0.89933 0.60190
 C980 C 0.31970 1.07889 0.58140
 H981 H 0.34256 1.07216 0.57428
 C982 C 0.26082 1.09688 0.60058
 C983 C 0.41946 1.17863 0.57997
 H984 H 0.42957 1.15816 0.57016
 C985 C 0.39180 1.23030 0.60674
 C986 C 0.58023 0.81977 0.57889
 H987 H 0.57272 0.84238 0.57177
 C988 C 0.60068 0.76179 0.59813
 O989 O 0.61251 0.97108 0.34742
 O990 O 0.64832 0.97127 0.31160
 C991 C 0.62327 0.96084 0.32235
 C992 C 0.60673 0.93613 0.30593
 C993 C 0.61684 0.92604 0.27708
 H994 H 0.63634 0.93712 0.26629
 O995 O 0.38810 1.02960 0.34648
 O996 O 0.35286 1.02990 0.31024
 C997 C 0.37785 1.04008 0.32132
 C998 C 0.39500 1.06482 0.30542
 C999 C 0.38591 1.07534 0.27629
 H1000 H 0.36650 1.06485 0.26489
 O1001 O 0.47026 1.15083 0.38997
 O1002 O 0.47015 1.18687 0.35443
 C1003 C 0.45951 1.17569 0.37918
 C1004 C 0.43375 1.19127 0.39501
 C1005 C 0.42144 1.21856 0.38303
 H1006 H 0.43160 1.22895 0.36284
 O1007 O 0.53091 0.84913 0.38805
 O1008 O 0.53121 0.81332 0.35233
 C1009 C 0.54152 0.82419 0.37730
 C1010 C 0.56662 0.80814 0.39365
 C1011 C 0.57759 0.77965 0.38316
 H1012 H 0.56725 0.76905 0.36324
 O1013 O 0.65440 0.88985 0.47007
 O1014 O 0.69023 0.85411 0.47012
 C1015 C 0.67948 0.87911 0.45974
 C1016 C 0.69569 0.89552 0.43479
 C1017 C 0.72456 0.88552 0.42432
 H1018 H 0.73563 0.86608 0.43514
 O1019 O 0.34590 1.10907 0.47024
 O1020 O 0.31019 1.14494 0.47049
 C1021 C 0.32101 1.12009 0.45979
 C1022 C 0.30485 1.10426 0.43450
 C1023 C 0.27578 1.11422 0.42498
 H1024 H 0.26467 1.13294 0.43701
 O1025 O 0.53083 1.10982 0.34759
 O1026 O 0.53081 1.14599 0.31219
 C1027 C 0.54147 1.12105 0.32284
 C1028 C 0.56716 1.10547 0.30689
 C1029 C 0.57853 1.11683 0.27894
 H1030 H 0.56772 1.13660 0.26844
 O1031 O 0.47077 0.89110 0.34626
 O1032 O 0.47112 0.85530 0.31052
 C1033 C 0.46018 0.88001 0.32149
 C1034 C 0.43394 0.89509 0.30605
 C1035 C 0.42079 0.88164 0.27995
 H1036 H 0.43084 0.86102 0.27035
 O1037 O 0.65474 1.03025 0.38995
 O1038 O 0.69092 1.03042 0.35451
 C1039 C 0.67993 1.04062 0.37952
 C1040 C 0.69607 1.06530 0.39638
 C1041 C 0.72526 1.07542 0.38698
 H1042 H 0.73652 1.06461 0.36763
 O1043 O 0.34529 0.97036 0.38827
 O1044 O 0.30944 0.97041 0.35263
 C1045 C 0.32024 0.95999 0.37763
 C1046 C 0.30414 0.93509 0.39435
 C1047 C 0.27526 0.92441 0.38469
 H1048 H 0.26436 0.93483 0.36496
 O1049 O 0.61231 1.15222 0.47115
 O1050 O 0.64768 1.18843 0.47073
 C1051 C 0.62283 1.17720 0.46039
 C1052 C 0.60625 1.19283 0.43517
 C1053 C 0.61659 1.22120 0.42372
 H1054 H 0.63661 1.23197 0.43372
 O1055 O 0.38896 0.84910 0.46835
 O1056 O 0.35322 0.81327 0.46809
 C1057 C 0.37800 0.82441 0.45742
 C1058 C 0.39366 0.80913 0.43135
 C1059 C 0.38050 0.78322 0.41735
 H1060 H 0.35955 0.77350 0.42658
 O1061 O 0.38766 0.96986 0.34671
 O1062 O 0.35208 0.96971 0.31080
 C1063 C 0.37689 0.95912 0.32189
 C1064 C 0.39290 0.93339 0.30641
 C1065 C 0.37998 0.91940 0.28043
 H1066 H 0.35897 0.92843 0.27075
 O1067 O 0.61300 1.03084 0.34773
 O1068 O 0.64897 1.03119 0.31208
 C1069 C 0.62396 1.04155 0.32293
 C1070 C 0.60776 1.06680 0.30705
 C1071 C 0.61892 1.07857 0.27917
 H1072 H 0.63886 1.06824 0.26850
 O1073 O 0.47095 0.84929 0.38825
 O1074 O 0.47124 0.81351 0.35249
 C1075 C 0.46039 0.82446 0.37725
 C1076 C 0.43426 0.80894 0.39254
 C1077 C 0.42092 0.78290 0.37913
 H1078 H 0.43074 0.77339 0.35836
 O1079 O 0.53038 1.15083 0.39066
 O1080 O 0.53012 1.18701 0.35527
 C1081 C 0.54072 1.17597 0.38009
 C1082 C 0.56595 1.19213 0.39618
 C1083 C 0.57654 1.22049 0.38523
 H1084 H 0.56512 1.23117 0.36593
 O1085 O 0.34634 0.89059 0.46961
 O1086 O 0.31056 0.85480 0.47006
 C1087 C 0.32119 0.87983 0.45953
 C1088 C 0.30468 0.89605 0.43465
 C1089 C 0.27581 0.88580 0.42479
 H1090 H 0.26491 0.86683 0.43661
 O1091 O 0.65430 1.11036 0.47163
 O1092 O 0.68995 1.14629 0.47138
 C1093 C 0.67922 1.12120 0.46110
 C1094 C 0.69550 1.10479 0.43619
 C1095 C 0.72447 1.11473 0.42633
 H1096 H 0.73544 1.13387 0.43778
 O1097 O 0.53077 0.89131 0.34599
 O1098 O 0.53106 0.85565 0.31011
 C1099 C 0.54134 0.88065 0.32100
 C1100 C 0.56645 0.89710 0.30502
 C1101 C 0.57672 0.88748 0.27598
 H1102 H 0.56564 0.86832 0.26469
 O1103 O 0.47075 1.10888 0.34787
 O1104 O 0.47095 1.14491 0.31232
 C1105 C 0.46042 1.11986 0.32293
 C1106 C 0.43540 1.10380 0.30645
 C1107 C 0.42583 1.11412 0.27754
 H1108 H 0.43763 1.13318 0.26676
 O1109 O 0.34547 1.03004 0.38798
 O1110 O 0.30979 1.03042 0.35218
 C1111 C 0.32055 1.04065 0.37725
 C1112 C 0.30443 1.06548 0.39403
 C1113 C 0.27518 1.07565 0.38490
 H1114 H 0.26393 1.06495 0.36551
 O1115 O 0.65428 0.97052 0.38948
 O1116 O 0.69030 0.97061 0.35387
 C1117 C 0.67926 0.96005 0.37871
 C1118 C 0.69527 0.93494 0.39495
 C1119 C 0.72389 0.92451 0.38463
 H1120 H 0.73478 0.93562 0.36521
 O1121 O 0.61134 0.84894 0.46951
 O1122 O 0.64700 0.81302 0.46936
 C1123 C 0.62211 0.82406 0.45887
 C1124 C 0.60595 0.80821 0.43355
 C1125 C 0.61649 0.77977 0.42283
 H1126 H 0.63572 0.76883 0.43412
 O1127 O 0.38851 1.15050 0.47070
 O1128 O 0.35292 1.18647 0.47069
 C1129 C 0.37787 1.17552 0.46021
 C1130 C 0.39410 1.19139 0.43484
 C1131 C 0.38250 1.21892 0.42278
 H1132 H 0.36225 1.22927 0.43288
 Cu1133 Cu 0.63002 1.00069 0.37221
 Cu1134 Cu 0.67325 1.00088 0.32941
 Cu1135 Cu 0.37016 1.00001 0.37093
 Cu1136 Cu 0.32751 1.00018 0.32778
 Cu1137 Cu 0.62979 1.12812 0.50136
 Cu1138 Cu 0.67242 1.17142 0.50102
 Cu1139 Cu 0.62905 0.87281 0.49969
 Cu1140 Cu 0.67188 0.82969 0.49967
 Cu1141 Cu 0.37058 1.12603 0.50045
 Cu1142 Cu 0.32777 1.16914 0.50055
 Cu1143 Cu 0.37169 0.87306 0.49894
 Cu1144 Cu 0.32903 0.82981 0.49905
 Cu1145 Cu 0.50057 1.12646 0.37257
 Cu1146 Cu 0.50050 1.16984 0.33004
 Cu1147 Cu 0.50096 0.87380 0.37072
 Cu1148 Cu 0.50126 0.83085 0.32777
 C1149 C 0.58137 0.92166 0.31959
 H1150 H 0.57377 0.92898 0.34210
 C1151 C 0.60193 0.90184 0.26187
 C1152 C 0.42001 1.07900 0.32010
 H1153 H 0.42698 1.07128 0.34266
 C1154 C 0.40123 1.10003 0.26224
 C1155 C 0.42001 1.17795 0.42102
 H1156 H 0.42891 1.15652 0.42994
 C1157 C 0.39581 1.23243 0.39671
 C1158 C 0.58080 0.82208 0.41901
 H1159 H 0.57279 0.84425 0.42692
 C1160 C 0.60258 0.76530 0.39761
 C1161 C 0.68145 0.92046 0.42018
 H1162 H 0.65908 0.92809 0.42792
 C1163 C 0.73875 0.89991 0.39917
 C1164 C 0.31888 1.07977 0.41904
 H1165 H 0.34151 1.07228 0.42606
 C1166 C 0.26064 1.10000 0.40036
 C1167 C 0.58175 1.08024 0.32057
 H1168 H 0.57336 1.07161 0.34233
 C1169 C 0.60448 1.10363 0.26495
 C1170 C 0.42002 0.92117 0.31894
 H1171 H 0.42973 0.93133 0.33941
 C1172 C 0.39359 0.89329 0.26728
 C1173 C 0.68157 1.07990 0.42124
 H1174 H 0.65895 1.07246 0.42841
 C1175 C 0.73956 1.10017 0.40184
 C1176 C 0.31847 0.92091 0.41950
 H1177 H 0.34093 0.92866 0.42678
 C1178 C 0.26083 0.89978 0.39987
 C1179 C 0.58075 1.17861 0.42137
 H1180 H 0.57296 1.15651 0.42968
 C1181 C 0.60191 1.23516 0.39867
 C1182 C 0.42066 0.82170 0.41886
 H1183 H 0.43054 0.84211 0.42903
 C1184 C 0.39381 0.77018 0.39104
 O1185 O 0.47263 0.38800 0.84695
 O1186 O 0.47285 0.35192 0.81150
 C1187 C 0.46205 0.37679 0.82224
 C1188 C 0.43610 0.39215 0.80654
 C1189 C 0.42241 0.37852 0.78077
 H1190 H 0.43169 0.35734 0.77163
 O1191 O 0.53078 0.61147 0.84622
 O1192 O 0.53054 0.64710 0.81025
 C1193 C 0.54103 0.62212 0.82110
 C1194 C 0.56593 0.60568 0.80482
 C1195 C 0.57565 0.61542 0.77574
 H1196 H 0.56382 0.63424 0.76462
 O1197 O 0.34910 0.46974 0.88700
 O1198 O 0.31345 0.46996 0.85113
 C1199 C 0.32400 0.45955 0.87621
 C1200 C 0.30735 0.43486 0.89261
 C1201 C 0.27821 0.42538 0.88277
 H1202 H 0.26735 0.43719 0.86380
 O1203 O 0.65342 0.53153 0.88838
 O1204 O 0.68942 0.53158 0.85276
 C1205 C 0.67847 0.54197 0.87771
 C1206 C 0.69485 0.56670 0.89427
 C1207 C 0.72421 0.57592 0.88482
 H1208 H 0.73523 0.56419 0.86587
 O1209 O 0.39019 0.34849 0.96838
 O1210 O 0.35463 0.31247 0.96817
 C1211 C 0.37975 0.32336 0.95803
 C1212 C 0.39670 0.30684 0.93364
 C1213 C 0.38679 0.27787 0.92388
 H1214 H 0.36724 0.26722 0.93500
 O1215 O 0.61187 0.65324 0.96919
 O1216 O 0.64786 0.68883 0.96901
 C1217 C 0.62302 0.67791 0.95838
 C1218 C 0.60777 0.69339 0.93231
 C1219 C 0.62143 0.71919 0.91872
 H1220 H 0.64240 0.72849 0.92827
 O1221 O 0.39187 0.52943 0.84510
 O1222 O 0.35660 0.52905 0.80889
 C1223 C 0.38120 0.53992 0.82009
 C1224 C 0.39678 0.56592 0.80458
 C1225 C 0.38477 0.57816 0.77733
 H1226 H 0.36471 0.56768 0.76709
 O1227 O 0.61214 0.47115 0.84638
 O1228 O 0.64804 0.47118 0.81067
 C1229 C 0.62318 0.46052 0.82158
 C1230 C 0.60735 0.43494 0.80580
 C1231 C 0.61839 0.42371 0.77765
 H1232 H 0.63786 0.43467 0.76671
 O1233 O 0.53306 0.34663 0.88886
 O1234 O 0.53347 0.31056 0.85340
 C1235 C 0.54382 0.32169 0.87824
 C1236 C 0.56903 0.30591 0.89469
 C1237 C 0.57939 0.27685 0.88520
 H1238 H 0.56856 0.26573 0.86583
 O1239 O 0.47159 0.65391 0.88860
 O1240 O 0.47166 0.69017 0.85330
 C1241 C 0.46128 0.67911 0.87823
 C1242 C 0.43636 0.69505 0.89501
 C1243 C 0.42618 0.72429 0.88586
 H1244 H 0.43719 0.73581 0.86676
 O1245 O 0.34820 0.60990 0.96816
 O1246 O 0.31253 0.64579 0.96771
 C1247 C 0.32364 0.62102 0.95709
 C1248 C 0.30860 0.60567 0.93080
 C1249 C 0.28276 0.61892 0.91682
 H1250 H 0.27277 0.63960 0.92633
 O1251 O 0.65513 0.39080 0.97006
 O1252 O 0.69133 0.35544 0.97001
 C1253 C 0.68025 0.38037 0.95962
 C1254 C 0.69618 0.39711 0.93463
 C1255 C 0.72542 0.38789 0.92457
 H1256 H 0.73683 0.36877 0.93560
 O1257 O 0.47103 0.61212 0.84622
 O1258 O 0.47067 0.64818 0.81071
 C1259 C 0.46034 0.62309 0.82142
 C1260 C 0.43512 0.60687 0.80539
 C1261 C 0.42277 0.61876 0.77807
 H1262 H 0.43278 0.63912 0.76792
 O1263 O 0.53247 0.38901 0.84715
 O1264 O 0.53288 0.35318 0.81145
 C1265 C 0.54305 0.37833 0.82219
 C1266 C 0.56801 0.39490 0.80605
 C1267 C 0.57917 0.38423 0.77781
 H1268 H 0.56878 0.36424 0.76730
 O1269 O 0.65375 0.47165 0.88866
 O1270 O 0.68981 0.47175 0.85309
 C1271 C 0.67888 0.46132 0.87807
 C1272 C 0.69526 0.43655 0.89466
 C1273 C 0.72434 0.42684 0.88481
 H1274 H 0.73525 0.43821 0.86556
 O1275 O 0.34975 0.52953 0.88700
 O1276 O 0.31447 0.52963 0.85077
 C1277 C 0.32507 0.54021 0.87576
 C1278 C 0.30923 0.56600 0.89119
 C1279 C 0.28322 0.57940 0.87776
 H1280 H 0.27400 0.56996 0.85672
 O1281 O 0.39022 0.65194 0.96910
 O1282 O 0.35456 0.68787 0.96914
 C1283 C 0.37966 0.67712 0.95888
 C1284 C 0.39635 0.69376 0.93437
 C1285 C 0.38641 0.72282 0.92481
 H1286 H 0.36711 0.73356 0.93624
 O1287 O 0.61393 0.34803 0.96961
 O1288 O 0.64984 0.31236 0.96979
 C1289 C 0.62487 0.32307 0.95924
 C1290 C 0.60865 0.30670 0.93429
 C1291 C 0.61858 0.27763 0.92460
 H1292 H 0.63756 0.26669 0.93630
 O1293 O 0.61186 0.53110 0.84583
 O1294 O 0.64766 0.53120 0.81002
 C1295 C 0.62259 0.54154 0.82079
 C1296 C 0.60596 0.56639 0.80455
 C1297 C 0.61551 0.57657 0.77542
 H1298 H 0.63507 0.56585 0.76446
 O1299 O 0.39198 0.46918 0.84573
 O1300 O 0.35636 0.46883 0.80987
 C1301 C 0.38107 0.45819 0.82108
 C1302 C 0.39647 0.43188 0.80603
 C1303 C 0.38305 0.41777 0.78038
 H1304 H 0.36235 0.42731 0.77051
 O1305 O 0.53154 0.65361 0.88784
 O1306 O 0.53179 0.68937 0.85203
 C1307 C 0.54249 0.67828 0.87675
 C1308 C 0.56868 0.69348 0.89216
 C1309 C 0.58295 0.71914 0.87870
 H1310 H 0.57377 0.72882 0.85775
 O1311 O 0.47311 0.34632 0.88921
 O1312 O 0.47346 0.31009 0.85391
 C1313 C 0.46280 0.32118 0.87870
 C1314 C 0.43748 0.30537 0.89507
 C1315 C 0.42727 0.27620 0.88569
 H1316 H 0.43853 0.26464 0.86678
 O1317 O 0.65462 0.61201 0.96971
 O1318 O 0.69075 0.64745 0.96986
 C1319 C 0.67980 0.62255 0.95937
 C1320 C 0.69585 0.60594 0.93434
 C1321 C 0.72538 0.61479 0.92460
 H1322 H 0.73694 0.63365 0.93590
 O1323 O 0.34710 0.38951 0.96797
 O1324 O 0.31129 0.35374 0.96774
 C1325 C 0.32220 0.37872 0.95735
 C1326 C 0.30634 0.39520 0.93221
 C1327 C 0.27720 0.38586 0.92195
 H1328 H 0.26599 0.36651 0.93281
 Cu1329 Cu 0.50282 0.37105 0.87162
 Cu1330 Cu 0.50326 0.32786 0.82896
 Cu1331 Cu 0.50116 0.62924 0.87083
 Cu1332 Cu 0.50111 0.67235 0.82801
 Cu1333 Cu 0.37430 0.49944 0.86976
 Cu1334 Cu 0.33175 0.49933 0.82646
 Cu1335 Cu 0.62915 0.50140 0.87083
 Cu1336 Cu 0.67234 0.50147 0.82804
 C1337 C 0.42314 0.41902 0.81882
 H1338 H 0.43320 0.42934 0.83903
 C1339 C 0.39561 0.39088 0.76788
 C1340 C 0.58100 0.58095 0.81889
 H1341 H 0.57380 0.57357 0.84152
 C1342 C 0.60038 0.60106 0.76076
 C1343 C 0.32104 0.41986 0.91753
 H1344 H 0.34367 0.42690 0.92501
 C1345 C 0.26283 0.40096 0.89728
 C1346 C 0.68096 0.58168 0.91918
 H1347 H 0.65812 0.57489 0.92631
 C1348 C 0.73978 0.59978 0.89987
 C1349 C 0.42222 0.32031 0.91928
 H1350 H 0.42968 0.34292 0.92641
 C1351 C 0.40186 0.26235 0.90000
 C1352 C 0.58118 0.68089 0.91909
 H1353 H 0.57083 0.66066 0.92918
 C1354 C 0.60952 0.73190 0.89169
 C1355 C 0.42214 0.58029 0.81828
 H1356 H 0.43118 0.57131 0.83961
 C1357 C 0.39738 0.60472 0.76398
 C1358 C 0.58203 0.42051 0.81969
 H1359 H 0.57379 0.42868 0.84167
 C1360 C 0.60442 0.39838 0.76350
 C1361 C 0.58368 0.32049 0.91939
 H1362 H 0.57609 0.34305 0.92657
 C1363 C 0.60409 0.26241 0.90013
 C1364 C 0.42149 0.68017 0.91953
 H1365 H 0.42893 0.65750 0.92649
 C1366 C 0.40117 0.73831 0.90067
 C1367 C 0.32154 0.57908 0.91793
 H1368 H 0.34191 0.56915 0.92812
 C1369 C 0.27013 0.60610 0.89012
 C1370 C 0.68146 0.42169 0.91974
 H1371 H 0.65880 0.42874 0.92716
 C1372 C 0.73964 0.40265 0.89966
 O1373 O 0.52996 0.39030 1.15101
 O1374 O 0.52998 0.35421 1.18650
 C1375 C 0.54048 0.37926 1.17583
 C1376 C 0.56597 0.39503 1.19183
 C1377 C 0.57787 0.38296 1.21920
 H1378 H 0.56748 0.36276 1.22935
 O1379 O 0.47063 0.61095 1.15146
 O1380 O 0.47032 0.64680 1.18716
 C1381 C 0.45977 0.62192 1.17620
 C1382 C 0.43372 0.60634 1.19164
 C1383 C 0.41982 0.61964 1.21754
 H1384 H 0.42932 0.64042 1.22730
 O1385 O 0.34717 0.52968 1.10981
 O1386 O 0.31123 0.52969 1.14549
 C1387 C 0.32217 0.54018 1.12058
 C1388 C 0.30631 0.56558 1.10449
 C1389 C 0.27915 0.57816 1.11653
 H1390 H 0.26882 0.56802 1.13674
 O1391 O 0.65420 0.47113 1.11018
 O1392 O 0.68987 0.47136 1.14601
 C1393 C 0.67925 0.46088 1.12099
 C1394 C 0.69572 0.43597 1.10472
 C1395 C 0.72472 0.42622 1.11472
 H1396 H 0.73566 0.43802 1.13363
 O1397 O 0.61305 0.34824 1.02932
 O1398 O 0.64887 0.31249 1.02969
 C1399 C 0.62368 0.32323 1.03982
 C1400 C 0.60675 0.30706 1.06453
 C1401 C 0.61632 0.27806 1.07502
 H1402 H 0.63595 0.26694 1.06454
 O1403 O 0.38944 0.65146 1.02889
 O1404 O 0.35348 0.68707 1.02879
 C1405 C 0.37833 0.67625 1.03948
 C1406 C 0.39379 0.69203 1.06527
 C1407 C 0.38046 0.71820 1.07852
 H1408 H 0.35946 0.72749 1.06903
 O1409 O 0.38906 0.46989 1.15202
 O1410 O 0.35324 0.46982 1.18781
 C1411 C 0.37815 0.45929 1.17692
 C1412 C 0.39407 0.43369 1.19263
 C1413 C 0.38221 0.42115 1.21991
 H1414 H 0.36222 0.43146 1.23048
 O1415 O 0.61133 0.53050 1.15224
 O1416 O 0.64662 0.53031 1.18843
 C1417 C 0.62185 0.54093 1.17732
 C1418 C 0.60580 0.56646 1.19307
 C1419 C 0.61759 0.57874 1.22038
 H1420 H 0.63791 0.56868 1.23051
 O1421 O 0.47030 0.34824 1.10855
 O1422 O 0.47036 0.31216 1.14404
 C1423 C 0.45984 0.32317 1.11919
 C1424 C 0.43455 0.30715 1.10306
 C1425 C 0.42341 0.27900 1.11408
 H1426 H 0.43409 0.26852 1.13392
 O1427 O 0.53061 0.65327 1.10943
 O1428 O 0.53009 0.68928 1.14495
 C1429 C 0.54079 0.67842 1.12008
 C1430 C 0.56584 0.69480 1.10382
 C1431 C 0.57568 0.72374 1.11392
 H1432 H 0.56388 0.73466 1.13289
 O1433 O 0.34718 0.39004 1.02785
 O1434 O 0.31155 0.35408 1.02779
 C1435 C 0.32234 0.37899 1.03841
 C1436 C 0.30654 0.39470 1.06409
 C1437 C 0.27921 0.38270 1.07636
 H1438 H 0.26867 0.36286 1.06578
 O1439 O 0.65348 0.61163 1.02960
 O1440 O 0.68909 0.64761 1.02979
 C1441 C 0.67817 0.62271 1.04036
 C1442 C 0.69369 0.60726 1.06628
 C1443 C 0.71978 0.62054 1.07962
 H1444 H 0.72926 0.64143 1.06999
 O1445 O 0.53062 0.61137 1.15180
 O1446 O 0.53038 0.64726 1.18743
 C1447 C 0.54102 0.62233 1.17669
 C1448 C 0.56644 0.60643 1.19270
 C1449 C 0.57859 0.61839 1.22004
 H1450 H 0.56818 0.63846 1.23035
 O1451 O 0.46999 0.38969 1.15125
 O1452 O 0.47009 0.35361 1.18674
 C1453 C 0.45946 0.37856 1.17608
 C1454 C 0.43391 0.39424 1.19216
 C1455 C 0.42173 0.38202 1.21940
 H1456 H 0.43182 0.36152 1.22917
 O1457 O 0.65364 0.53105 1.11058
 O1458 O 0.68899 0.53133 1.14672
 C1459 C 0.67821 0.54195 1.12182
 C1460 C 0.69365 0.56801 1.10635
 C1461 C 0.71959 0.58186 1.11954
 H1462 H 0.72935 0.57243 1.14035
 O1463 O 0.34772 0.46985 1.10939
 O1464 O 0.31180 0.46980 1.14509
 C1465 C 0.32274 0.45932 1.12017
 C1466 C 0.30682 0.43398 1.10408
 C1467 C 0.27952 0.42168 1.11600
 H1468 H 0.26962 0.43148 1.13659
 O1469 O 0.61211 0.65430 1.02910
 O1470 O 0.64758 0.69040 1.02901
 C1471 C 0.62263 0.67943 1.03947
 C1472 C 0.60594 0.69546 1.06448
 C1473 C 0.61557 0.72442 1.07505
 H1474 H 0.63520 0.73542 1.06446
 O1475 O 0.38896 0.34795 1.02809
 O1476 O 0.35346 0.31186 1.02796
 C1477 C 0.37825 0.32292 1.03858
 C1478 C 0.39444 0.30707 1.06390
 C1479 C 0.38348 0.27898 1.07544
 H1480 H 0.36377 0.26816 1.06491
 O1481 O 0.61165 0.47054 1.15172
 O1482 O 0.64717 0.47025 1.18768
 C1483 C 0.62239 0.45972 1.17653
 C1484 C 0.60635 0.43403 1.19199
 C1485 C 0.61820 0.42126 1.21910
 H1486 H 0.63856 0.43100 1.22950
 O1487 O 0.38969 0.52987 1.15127
 O1488 O 0.35379 0.52989 1.18699
 C1489 C 0.37868 0.54053 1.17606
 C1490 C 0.39423 0.56644 1.19163
 C1491 C 0.38088 0.57997 1.21765
 H1492 H 0.35987 0.57052 1.22706
 O1493 O 0.47056 0.65283 1.10950
 O1494 O 0.47007 0.68866 1.14521
 C1495 C 0.45956 0.67752 1.12043
 C1496 C 0.43341 0.69267 1.10490
 C1497 C 0.41954 0.71870 1.11796
 H1498 H 0.42911 0.72876 1.13855
 O1499 O 0.53039 0.34844 1.10882
 O1500 O 0.53024 0.31232 1.14427
 C1501 C 0.54090 0.32343 1.11950
 C1502 C 0.56625 0.30742 1.10344
 C1503 C 0.57630 0.27865 1.11373
 H1504 H 0.56465 0.26765 1.13277
 O1505 O 0.65542 0.38995 1.02986
 O1506 O 0.69155 0.35452 1.03001
 C1507 C 0.68045 0.37938 1.04043
 C1508 C 0.69635 0.39597 1.06547
 C1509 C 0.72536 0.38640 1.07589
 H1510 H 0.73637 0.36683 1.06526
 O1511 O 0.34723 0.60958 1.02829
 O1512 O 0.31130 0.64519 1.02784
 C1513 C 0.32218 0.62039 1.03861
 C1514 C 0.30624 0.60465 1.06425
 C1515 C 0.27911 0.61692 1.07665
 H1516 H 0.26922 0.63736 1.06654
 Cu1517 Cu 0.50013 0.37279 1.12635
 Cu1518 Cu 0.50018 0.32946 1.16894
 Cu1519 Cu 0.50073 0.62852 1.12698
 Cu1520 Cu 0.50028 0.67159 1.16977
 Cu1521 Cu 0.37186 0.37265 0.99804
 Cu1522 Cu 0.32913 0.32943 0.99781
 Cu1523 Cu 0.63082 0.37281 0.99973
 Cu1524 Cu 0.67403 0.33014 0.99988
 Cu1525 Cu 0.37229 0.62706 0.99862
 Cu1526 Cu 0.32931 0.67001 0.99833
 Cu1527 Cu 0.62945 0.62922 0.99941
 Cu1528 Cu 0.67240 0.67218 0.99942
 Cu1529 Cu 0.37203 0.49980 1.12707
 Cu1530 Cu 0.32894 0.49979 1.16997
 Cu1531 Cu 0.62915 0.50077 1.12757
 Cu1532 Cu 0.67171 0.50076 1.17085
 C1533 C 0.58012 0.42084 1.17863
 H1534 H 0.57128 0.43007 1.15732
 C1535 C 0.60413 0.39571 1.23277
 C1536 C 0.42086 0.57959 1.17899
 H1537 H 0.43096 0.56964 1.15857
 C1538 C 0.39319 0.60682 1.23045
 C1539 C 0.31948 0.57879 1.07817
 H1540 H 0.34072 0.56957 1.06911
 C1541 C 0.26552 0.60406 1.10297
 C1542 C 0.68189 0.42092 1.07989
 H1543 H 0.65936 0.42812 1.07229
 C1544 C 0.73983 0.40149 1.10047
 C1545 C 0.58147 0.32135 1.07869
 H1546 H 0.57412 0.34382 1.07099
 C1547 C 0.60121 0.26376 1.09969
 C1548 C 0.42047 0.67963 1.07842
 H1549 H 0.43057 0.65913 1.06863
 C1550 C 0.39288 0.73139 1.10511
 C1551 C 0.42010 0.42025 1.17914
 H1552 H 0.42905 0.42946 1.15784
 C1553 C 0.39573 0.39512 1.23336
 C1554 C 0.58003 0.58029 1.17957
 H1555 H 0.57115 0.57128 1.15820
 C1556 C 0.60435 0.60487 1.23394
 C1557 C 0.42012 0.32084 1.07774
 H1558 H 0.42834 0.34276 1.06935
 C1559 C 0.39781 0.26480 1.10057
 C1560 C 0.58090 0.68102 1.07890
 H1561 H 0.57362 0.65853 1.07123
 C1562 C 0.60049 0.73884 1.09975
 C1563 C 0.31999 0.42051 1.07793
 H1564 H 0.34135 0.42954 1.06893
 C1565 C 0.26565 0.39589 1.10249
 C1566 C 0.68100 0.58077 1.07958
 H1567 H 0.66056 0.57070 1.06968
 C1568 C 0.73260 0.60832 1.10647
 C1569 C 1.15312 1.11858 1.30518
 C1570 C 1.13334 1.13101 1.32717
 C1571 C 1.10151 1.12913 1.32136
 C1572 C 1.09057 1.11858 1.29280
 C1573 C 1.11122 1.10947 1.26951
 C1574 C 1.14239 1.10802 1.27724
 C1575 C 1.16983 1.12009 1.26055
 C1576 C 1.18156 1.13163 1.29131
 H1577 H 1.08520 1.13702 1.33836
 H1578 H 1.06607 1.11834 1.28872
 H1579 H 1.16397 1.13884 1.24426
 H1580 H 1.18413 1.10136 1.25077
 H1581 H 1.18248 1.15708 1.29291
 H1582 H 1.20252 1.11950 1.29928
 C1583 C 1.12012 0.65354 0.80340
 C1584 C 1.15208 0.65353 0.80605
 C1585 C 1.16919 0.64156 0.78130
 C1586 C 1.15437 0.62680 0.75671
 C1587 C 1.12210 0.62378 0.75630
 C1588 C 1.10550 0.63917 0.77913
 C1589 C 1.08017 0.62786 0.79930
 C1590 C 1.09627 0.64370 0.82588
 H1591 H 1.19401 0.64265 0.78150
 H1592 H 1.16821 0.61720 0.73845
 H1593 H 1.07985 0.60242 0.80134
 H1594 H 1.05776 0.63850 0.79340
 H1595 H 1.10536 0.62749 0.84336
 H1596 H 1.08320 0.66352 0.83523
 C1597 C 0.63968 1.10715 0.81458
 C1598 C 0.63935 1.13841 0.82183
 C1599 C 0.62970 1.15894 0.79872
 C1600 C 0.61791 1.14780 0.77070
 C1601 C 0.61574 1.11590 0.76512
 C1602 C 0.62839 1.09623 0.78706
 C1603 C 0.61515 1.06832 0.80193
 C1604 C 0.62765 1.08040 0.83218
 H1605 H 0.63087 1.18347 0.80248
 H1606 H 0.61027 1.16414 0.75363
 H1607 H 0.62668 1.04695 0.79413
 H1608 H 0.58965 1.06783 0.80099
 H1609 H 0.64643 1.06603 0.84172
 H1610 H 0.60944 1.08697 0.84882
 C1611 C 0.64627 0.61289 1.30960
 C1612 C 0.64427 0.64424 1.31607
 C1613 C 0.63223 0.66351 1.29304
 C1614 C 0.61958 0.65095 1.26606
 C1615 C 0.61871 0.61881 1.26153
 C1616 C 0.63390 0.60053 1.28313
 C1617 C 0.62336 0.57234 1.29955
 C1618 C 0.63705 0.58598 1.32859
 H1619 H 0.63202 0.68816 1.29618
 H1620 H 0.61014 0.66639 1.24907
 H1621 H 0.63562 0.55145 1.29154
 H1622 H 0.59792 0.57034 1.30031
 H1623 H 0.65725 0.57304 1.33723
 H1624 H 0.61960 0.59194 1.34625
 C1625 C 0.86166 0.89170 1.31372
 C1626 C 0.86265 0.86038 1.32077
 C1627 C 0.87265 0.84027 1.29744
 C1628 C 0.88406 0.85190 1.26939
 C1629 C 0.88545 0.88390 1.26398
 C1630 C 0.87250 0.90310 1.28616
 C1631 C 0.88520 0.93119 1.30109
 C1632 C 0.87319 0.91858 1.33137
 H1633 H 0.87201 0.81569 1.30102
 H1634 H 0.89201 0.83589 1.25215
 H1635 H 0.87313 0.95235 1.29355
 H1636 H 0.91068 0.93227 1.29988
 H1637 H 0.85416 0.93244 1.34121
 H1638 H 0.89167 0.91230 1.34778
 C1639 C 0.86468 0.39338 0.81529
 C1640 C 0.86460 0.36227 0.82310
 C1641 C 0.87362 0.34115 0.80026
 C1642 C 0.88511 0.35157 0.77180
 C1643 C 0.88759 0.38332 0.76553
 C1644 C 0.87567 0.40360 0.78735
 C1645 C 0.88970 0.43151 0.80140
 C1646 C 0.87752 0.42020 0.83212
 H1647 H 0.87212 0.31673 0.80455
 H1648 H 0.89219 0.33482 0.75489
 H1649 H 0.87843 0.45296 0.79344
 H1650 H 0.91518 0.43149 0.79991
 H1651 H 0.85919 0.43509 0.84179
 H1652 H 0.89590 0.41357 0.84851
 C1653 C 0.38323 0.84538 0.80427
 C1654 C 0.36821 0.86428 0.82538
 C1655 C 0.36866 0.89618 0.81980
 C1656 C 0.38062 0.90789 0.79205
 C1657 C 0.39232 0.88792 0.76930
 C1658 C 0.39498 0.85684 0.77707
 C1659 C 0.38562 0.82883 0.75967
 C1660 C 0.37277 0.81631 0.78963
 H1661 H 0.35868 0.91185 0.83629
 H1662 H 0.37976 0.93240 0.78809
 H1663 H 0.40573 0.81567 0.75112
 H1664 H 0.36768 0.83369 0.74222
 H1665 H 0.38554 0.79604 0.79838
 H1666 H 0.34736 0.81393 0.78964
 C1667 C 0.38807 0.35208 1.30864
 C1668 C 0.35682 0.35439 1.31555
 C1669 C 0.33744 0.36686 1.29285
 C1670 C 0.34985 0.37970 1.26583
 C1671 C 0.38194 0.38036 1.26091
 C1672 C 0.40028 0.36466 1.28212
 C1673 C 0.42878 0.37466 1.29827
 C1674 C 0.41530 0.36075 1.32735
 H1675 H 0.31284 0.36737 1.29634
 H1676 H 0.33432 0.38952 1.24915
 H1677 H 0.43109 0.40006 1.29928
 H1678 H 0.44943 0.36226 1.28985
 H1679 H 0.40975 0.37803 1.34528
 H1680 H 0.42811 0.34029 1.33559
 C1681 C 0.88395 1.15323 0.69327
 C1682 C 0.87115 1.13295 0.67198
 C1683 C 0.87351 1.10127 0.67835
 C1684 C 0.88485 1.09095 0.70685
 C1685 C 0.89420 1.11209 0.72957
 C1686 C 0.89524 1.14312 0.72120
 C1687 C 0.88333 1.17077 0.73758
 C1688 C 0.87098 1.18181 0.70687
 H1689 H 0.86544 1.08458 0.66184
 H1690 H 0.88538 1.06653 0.71137
 H1691 H 0.90216 1.18540 0.74660
 H1692 H 0.86500 1.16507 0.75443
 H1693 H 0.88275 1.20272 0.69816
 H1694 H 0.84550 1.18249 0.70587
 C1695 C 0.84730 0.62004 0.19533
 C1696 C 0.84761 0.65198 0.19231
 C1697 C 0.85946 0.66925 0.21695
 C1698 C 0.87377 0.65454 0.24187
 C1699 C 0.87646 0.62225 0.24271
 C1700 C 0.86124 0.60555 0.21991
 C1701 C 0.87261 0.57995 0.20017
 C1702 C 0.85724 0.59593 0.17323
 H1703 H 0.85853 0.69407 0.21645
 H1704 H 0.88326 0.66848 0.26008
 H1705 H 0.86171 0.55767 0.20619
 H1706 H 0.89807 0.57942 0.19844
 H1707 H 0.83744 0.58293 0.16379
 H1708 H 0.87374 0.60475 0.15585
 C1709 C 0.38011 1.15549 0.19908
 C1710 C 0.36798 1.13669 0.17611
 C1711 C 0.37106 1.10463 0.18002
 C1712 C 0.38244 1.09238 0.20777
 C1713 C 0.39139 1.11196 0.23195
 C1714 C 0.39167 1.14352 0.22607
 C1715 C 0.37907 1.16943 0.24463
 C1716 C 0.36639 1.18254 0.21490
 H1717 H 0.36351 1.08908 0.16221
 H1718 H 0.38343 1.06772 0.21057
 H1719 H 0.39753 1.18377 0.25480
 H1720 H 0.36093 1.16191 0.26097
 H1721 H 0.37759 1.20439 0.20793
 H1722 H 0.34088 1.18261 0.21391
 C1723 C 0.35473 0.61220 0.68859
 C1724 C 0.35643 0.64353 0.68198
 C1725 C 0.36854 0.66298 0.70481
 C1726 C 0.38152 0.65060 0.73174
 C1727 C 0.38273 0.61849 0.73640
 C1728 C 0.36749 0.60003 0.71498
 C1729 C 0.37814 0.57190 0.69855
 C1730 C 0.36402 0.58533 0.66960
 H1731 H 0.36856 0.68760 0.70153
 H1732 H 0.39095 0.66620 0.74857
 H1733 H 0.36617 0.55091 0.70674
 H1734 H 0.40359 0.57015 0.69753
 H1735 H 0.34386 0.57217 0.66122
 H1736 H 0.38123 0.59142 0.65174
 C1737 C 1.11876 0.84685 0.69498
 C1738 C 1.15069 0.84655 0.69193
 C1739 C 1.16817 0.85845 0.71640
 C1740 C 1.15374 0.87341 0.74113
 C1741 C 1.12151 0.87664 0.74196
 C1742 C 1.10453 0.86137 0.71941
 C1743 C 1.07912 0.87290 0.69956
 C1744 C 1.09481 0.85689 0.67279
 H1745 H 1.19298 0.85712 0.71588
 H1746 H 1.16782 0.88294 0.75920
 H1747 H 1.07903 0.89834 0.69750
 H1748 H 1.05666 0.86247 0.70576
 H1749 H 1.10390 0.87300 0.65519
 H1750 H 1.08146 0.83719 0.66362
 C1751 C 1.11143 0.35897 0.18765
 C1752 C 1.14310 0.35637 0.18321
 C1753 C 1.16236 0.36417 0.20801
 C1754 C 1.15004 0.37731 0.23484
 C1755 C 1.11819 0.38256 0.23753
 C1756 C 1.09926 0.37148 0.21417
 C1757 C 1.07426 0.38729 0.19692
 C1758 C 1.08769 0.37346 0.16782
 H1759 H 1.18692 0.36078 0.20635
 H1760 H 1.16542 0.38372 0.25324
 H1761 H 1.07620 0.41273 0.19789
 H1762 H 1.05123 0.37798 0.20280
 H1763 H 1.09752 0.39083 0.15187
 H1764 H 1.07245 0.35614 0.15698
 C1765 C 0.65642 0.87814 0.19878
 C1766 C 0.63716 0.86631 0.17603
 C1767 C 0.60524 0.87033 0.18006
 C1768 C 0.59348 0.88252 0.20770
 C1769 C 0.61344 0.89131 0.23165
 C1770 C 0.64495 0.89047 0.22566
 C1771 C 0.67053 0.87730 0.24425
 C1772 C 0.68310 0.86379 0.21462
 H1773 H 0.58942 0.86310 0.16237
 H1774 H 0.56887 0.88433 0.21059
 H1775 H 0.66251 0.85964 0.26087
 H1776 H 0.68550 0.89543 0.25411
 H1777 H 0.68235 0.83829 0.21396
 H1778 H 0.70525 0.87420 0.20739
 C1779 C 0.60757 0.36235 0.68477
 C1780 C 0.63880 0.36260 0.67735
 C1781 C 0.65949 0.37189 0.70043
 C1782 C 0.64854 0.38345 0.72863
 C1783 C 0.61668 0.38566 0.73443
 C1784 C 0.59683 0.37334 0.71250
 C1785 C 0.56893 0.38691 0.69800
 C1786 C 0.58081 0.37474 0.66751
 H1787 H 0.68399 0.37064 0.69650
 H1788 H 0.66495 0.39088 0.74570
 H1789 H 0.56858 0.41240 0.69930
 H1790 H 0.54753 0.37538 0.70579
 H1791 H 0.58742 0.39312 0.65107
 H1792 H 0.56631 0.35615 0.65780
 C1793 C 1.30521 1.11977 1.15493
 C1794 C 1.32660 1.13480 1.13633
 C1795 C 1.32131 1.13468 1.10440
 C1796 C 1.29363 1.12294 1.09236
 C1797 C 1.27067 1.11108 1.11203
 C1798 C 1.27810 1.10823 1.14316
 C1799 C 1.26040 1.11749 1.17105
 C1800 C 1.29027 1.13011 1.18391
 H1801 H 1.33801 1.14471 1.08894
 H1802 H 1.28994 1.12397 1.06783
 H1803 H 1.25162 1.09733 1.18402
 H1804 H 1.24305 1.13554 1.16613
 H1805 H 1.29875 1.11716 1.20418
 H1806 H 1.29034 1.15551 1.18644
 C1807 C 1.31169 0.64081 0.60964
 C1808 C 1.31613 0.64312 0.64132
 C1809 C 1.29135 0.63488 0.66053
 C1810 C 1.26456 0.62173 0.64813
 C1811 C 1.26186 0.61687 0.61623
 C1812 C 1.28522 0.62829 0.59740
 C1813 C 1.30257 0.61287 0.57218
 C1814 C 1.33161 0.62670 0.58569
 H1815 H 1.29295 0.63800 0.68511
 H1816 H 1.24617 0.61504 0.66349
 H1817 H 1.29667 0.62242 0.54929
 H1818 H 1.30173 0.58741 0.57384
 H1819 H 1.34239 0.64427 0.57063
 H1820 H 1.34764 0.60932 0.59528
 C1821 C 0.80698 1.11693 0.65325
 C1822 C 0.82884 1.12918 0.63319
 C1823 C 0.82269 1.12711 0.60144
 C1824 C 0.79389 1.11680 0.59086
 C1825 C 0.77071 1.10807 0.61179
 C1826 C 0.77878 1.10655 0.64286
 C1827 C 0.76251 1.11879 0.67045
 C1828 C 0.79350 1.13014 0.68178
 H1829 H 0.83956 1.13483 0.58490
 H1830 H 0.78953 1.11655 0.56643
 H1831 H 0.75274 1.10015 0.68489
 H1832 H 0.74629 1.13764 0.66473
 H1833 H 0.80161 1.11800 0.70269
 H1834 H 0.79531 1.15558 0.68260
 C1835 C 0.80514 0.65441 1.11902
 C1836 C 0.80821 0.65461 1.15091
 C1837 C 0.78366 0.64284 1.16847
 C1838 C 0.75880 0.62806 1.15413
 C1839 C 0.75795 0.62484 1.12192
 C1840 C 0.78062 0.64002 1.10488
 C1841 C 0.80039 0.62843 1.07938
 C1842 C 0.82727 0.64431 1.09497
 H1843 H 0.78423 0.64409 1.19326
 H1844 H 0.74067 0.61862 1.16828
 H1845 H 0.79423 0.63892 1.05698
 H1846 H 0.80232 0.60298 1.07926
 H1847 H 0.83653 0.66398 1.08161
 H1848 H 0.84481 0.62811 1.10396
 C1849 C 1.31600 0.86339 0.89316
 C1850 C 1.32368 0.86349 0.86201
 C1851 C 1.30091 0.87320 0.84115
 C1852 C 1.27277 0.88524 0.85185
 C1853 C 1.26674 0.88764 0.88364
 C1854 C 1.28838 0.87497 0.90365
 C1855 C 1.30294 0.88829 0.93162
 C1856 C 1.33329 0.87548 0.92002
 H1857 H 1.30504 0.87190 0.81669
 H1858 H 1.25595 0.89285 0.83527
 H1859 H 1.29476 0.87697 0.95298
 H1860 H 1.30213 0.91380 0.93189
 H1861 H 1.34252 0.85674 0.93464
 H1862 H 1.35015 0.89352 0.91351
 C1863 C 1.29736 0.34069 0.37504
 C1864 C 1.31953 0.35791 0.35948
 C1865 C 1.31661 0.39018 0.36034
 C1866 C 1.29038 0.40400 0.37356
 C1867 C 1.26671 0.38580 0.38633
 C1868 C 1.27186 0.35417 0.38814
 C1869 C 1.25164 0.32794 0.37927
 C1870 C 1.27980 0.31315 0.36491
 H1871 H 1.33405 0.40457 0.35001
 H1872 H 1.28835 0.42875 0.37310
 H1873 H 1.23387 0.33460 0.36224
 H1874 H 1.24289 0.31522 0.39960
 H1875 H 1.27847 0.31122 0.33951
 H1876 H 1.28731 0.29199 0.37701
 C1877 C 0.80089 0.87604 0.34377
 C1878 C 0.82394 0.86424 0.36268
 C1879 C 0.82039 0.86817 0.39465
 C1880 C 0.79290 0.88027 0.40684
 C1881 C 0.76867 0.88906 0.38725
 C1882 C 0.77417 0.88830 0.35566
 C1883 C 0.75519 0.87511 0.33039
 C1884 C 0.78467 0.86168 0.31735
 H1885 H 0.83832 0.86089 0.41018
 H1886 H 0.79035 0.88204 0.43149
 H1887 H 0.74505 0.89324 0.31560
 H1888 H 0.73874 0.85742 0.33867
 H1889 H 0.79153 0.87212 0.29510
 H1890 H 0.78540 0.83617 0.31808
 C1891 C 0.80327 0.37968 0.84551
 C1892 C 0.82588 0.36771 0.86487
 C1893 C 0.82166 0.37163 0.89676
 C1894 C 0.79393 0.38373 0.90839
 C1895 C 0.77007 0.39252 0.88832
 C1896 C 0.77629 0.39192 0.85686
 C1897 C 0.75787 0.37892 0.83109
 C1898 C 0.78761 0.36550 0.81865
 H1899 H 0.83922 0.36425 0.91267
 H1900 H 0.79085 0.38536 0.93298
 H1901 H 0.74811 0.39715 0.81618
 H1902 H 0.74121 0.36121 0.83889
 H1903 H 0.79499 0.37605 0.79662
 H1904 H 0.78828 0.33999 0.81925
 C1905 C 0.68585 0.89371 1.13761
 C1906 C 0.67875 0.86241 1.13701
 C1907 C 0.70199 0.84209 1.12723
 C1908 C 0.73001 0.85348 1.11556
 C1909 C 0.73545 0.88543 1.11369
 C1910 C 0.71340 0.90489 1.12649
 C1911 C 0.69847 0.93284 1.11347
 C1912 C 0.66819 0.92049 1.12578
 H1913 H 0.69833 0.81753 1.12821
 H1914 H 0.74720 0.83732 1.10777
 H1915 H 0.69956 0.93358 1.08799
 H1916 H 0.70611 0.95414 1.12521
 H1917 H 0.65168 0.91399 1.10748
 H1918 H 0.65847 0.93462 1.14466
 C1919 C 0.69688 0.34500 0.61784
 C1920 C 0.67581 0.36372 0.63314
 C1921 C 0.68163 0.39559 0.63338
 C1922 C 0.70954 0.40736 0.62180
 C1923 C 0.73218 0.38748 0.60973
 C1924 C 0.72421 0.35651 0.60643
 C1925 C 0.74142 0.32821 0.61527
 C1926 C 0.71132 0.31562 0.62776
 H1927 H 0.66521 0.41118 0.64362
 H1928 H 0.71368 0.43181 0.62318
 H1929 H 0.75885 0.33258 0.63336
 H1930 H 0.74997 0.31541 0.59493
 H1931 H 0.71121 0.31272 0.65311
 H1932 H 0.70250 0.29567 0.61456
 C1933 C 0.19596 0.88030 0.65297
 C1934 C 0.19245 0.84842 0.65264
 C1935 C 0.21684 0.83080 0.64064
 C1936 C 0.24201 0.84516 0.62628
 C1937 C 0.24338 0.87744 0.62373
 C1938 C 0.22079 0.89444 0.63902
 C1939 C 0.20145 0.92038 0.62775
 C1940 C 0.17423 0.90478 0.64313
 H1941 H 0.21596 0.80599 0.64149
 H1942 H 0.26003 0.83097 0.61670
 H1943 H 0.19976 0.92100 0.60230
 H1944 H 0.20780 0.94253 0.63867
 H1945 H 0.15673 0.89628 0.62665
 H1946 H 0.16496 0.91788 0.66296
 C1947 C 0.19026 0.38769 1.14504
 C1948 C 0.18367 0.35639 1.14279
 C1949 C 0.20655 0.33716 1.13035
 C1950 C 0.23348 0.34977 1.11755
 C1951 C 0.23811 0.38190 1.11695
 C1952 C 0.21669 0.40010 1.13252
 C1953 C 0.20030 0.42843 1.12240
 C1954 C 0.17129 0.41474 1.13624
 H1955 H 0.20332 0.31253 1.12996
 H1956 H 0.25037 0.33439 1.10778
 H1957 H 0.19938 0.43068 1.09700
 H1958 H 0.20846 0.44918 1.13476
 H1959 H 0.15348 0.40899 1.11892
 H1960 H 0.16282 0.42751 1.15663
 C1961 C 0.70105 1.12210 0.84432
 C1962 C 0.67817 1.13392 0.86348
 C1963 C 0.68212 1.13019 0.89543
 C1964 C 0.70986 1.11843 0.90729
 C1965 C 0.73399 1.10982 0.88742
 C1966 C 0.72805 1.11022 0.85591
 C1967 C 0.74656 1.12331 0.83016
 C1968 C 0.71679 1.13632 0.81746
 H1969 H 0.66433 1.13747 0.91118
 H1970 H 0.71271 1.11690 0.93191
 H1971 H 0.75668 1.10511 0.81542
 H1972 H 0.76295 1.14124 0.83795
 H1973 H 0.70974 1.12557 0.79546
 H1974 H 0.71583 1.16182 0.81789
 C1975 C 0.68816 0.64149 0.38883
 C1976 C 0.68415 0.64392 0.35709
 C1977 C 0.70910 0.63557 0.33818
 C1978 C 0.73558 0.62208 0.35088
 C1979 C 0.73778 0.61701 0.38279
 C1980 C 0.71432 0.62864 0.40136
 C1981 C 0.69649 0.61334 0.42634
 C1982 C 0.66777 0.62754 0.41250
 H1983 H 0.70784 0.63879 0.31359
 H1984 H 0.75408 0.61527 0.33574
 H1985 H 0.70222 0.62275 0.44932
 H1986 H 0.69706 0.58788 0.42464
 H1987 H 0.65703 0.64518 0.42746
 H1988 H 0.65166 0.61036 0.40268
 C1989 C 0.19425 1.15302 0.38208
 C1990 C 0.17232 1.13346 0.36924
 C1991 C 0.17802 1.10158 0.37092
 C1992 C 0.20645 1.09042 0.38162
 C1993 C 0.22969 1.11088 0.39114
 C1994 C 0.22205 1.14206 0.39285
 C1995 C 0.23896 1.16953 0.38121
 C1996 C 0.20838 1.18150 0.36943
 H1997 H 0.16105 1.08541 0.36274
 H1998 H 0.21050 1.06591 0.38163
 H1999 H 0.25548 1.16377 0.36261
 H2000 H 0.24856 1.18360 0.40018
 H2001 H 0.20709 1.18264 0.34398
 H2002 H 0.20032 1.20240 0.38163
 C2003 C 0.19735 0.61919 0.84464
 C2004 C 0.19427 0.65112 0.84472
 C2005 C 0.21899 0.66851 0.85627
 C2006 C 0.24398 0.65397 0.87065
 C2007 C 0.24484 0.62171 0.87363
 C2008 C 0.22203 0.60484 0.85860
 C2009 C 0.20236 0.57926 0.87020
 C2010 C 0.17532 0.59507 0.85482
 H2011 H 0.21846 0.69333 0.85519
 H2012 H 0.26220 0.66800 0.88002
 H2013 H 0.20071 0.57889 0.89566
 H2014 H 0.20840 0.55694 0.85944
 H2015 H 0.15797 0.60394 0.87131
 H2016 H 0.16584 0.58192 0.83516
 C2017 C 1.12438 1.29691 1.15815
 C2018 C 1.14001 1.31864 1.14043
 C2019 C 1.13914 1.31504 1.10826
 C2020 C 1.12602 1.28849 1.09506
 C2021 C 1.11334 1.26520 1.11381
 C2022 C 1.11136 1.27109 1.14527
 C2023 C 1.12013 1.25150 1.17199
 C2024 C 1.13442 1.28001 1.18613
 H2025 H 1.14946 1.33214 1.09347
 H2026 H 1.12656 1.28589 1.07038
 H2027 H 1.13721 1.23357 1.16583
 H2028 H 1.09975 1.24308 1.18486
 H2029 H 1.15983 1.27870 1.18817
 H2030 H 1.12222 1.28802 1.20706
 C2031 C 1.15266 0.80373 0.61869
 C2032 C 1.15278 0.80699 0.65057
 C2033 C 1.14058 0.78270 0.66820
 C2034 C 1.12555 0.75793 0.65391
 C2035 C 1.12251 0.75689 0.62169
 C2036 C 1.13803 0.77930 0.60462
 C2037 C 1.12679 0.79907 0.57900
 C2038 C 1.14292 0.82585 0.59452
 H2039 H 1.14171 0.78339 0.69299
 H2040 H 1.11585 0.73999 0.66812
 H2041 H 1.10136 0.80130 0.57880
 H2042 H 1.13729 0.79267 0.55665
 H2043 H 1.12690 0.84363 0.60338
 H2044 H 1.16276 0.83480 0.58117
 C2045 C 0.62189 1.30136 0.65451
 C2046 C 0.63415 1.32408 0.63540
 C2047 C 0.63073 1.32002 0.60343
 C2048 C 0.61881 1.29235 0.59154
 C2049 C 0.60964 1.26842 0.61142
 C2050 C 0.60979 1.27447 0.64291
 C2051 C 0.62238 1.25589 0.66879
 C2052 C 0.63567 1.28554 0.68150
 H2053 H 0.63836 1.33767 0.58768
 H2054 H 0.61754 1.28937 0.56692
 H2055 H 0.64017 1.23925 0.66117
 H2056 H 0.60391 1.24606 0.68342
 H2057 H 0.66118 1.28618 0.68124
 H2058 H 0.62481 1.29281 0.70342
 C2059 C 0.61904 0.80407 1.15424
 C2060 C 0.63463 0.82521 1.13580
 C2061 C 0.63487 0.81976 1.10387
 C2062 C 0.62299 0.79215 1.09176
 C2063 C 0.61060 0.76938 1.11133
 C2064 C 0.60736 0.77702 1.14239
 C2065 C 0.61594 0.75935 1.17048
 C2066 C 0.62872 0.78913 1.18342
 H2067 H 0.64528 0.83626 1.08847
 H2068 H 0.62436 0.78835 1.06727
 H2069 H 0.63386 0.74175 1.16590
 H2070 H 0.59547 0.75089 1.18316
 H2071 H 0.65407 0.78889 1.18633
 H2072 H 0.61556 0.79785 1.20346
 C2073 C 0.84669 1.30509 0.88321
 C2074 C 0.86550 1.32611 0.86792
 C2075 C 0.89739 1.32050 0.86810
 C2076 C 0.90917 1.29280 0.88005
 C2077 C 0.88927 1.27008 0.89200
 C2078 C 0.85821 1.27791 0.89492
 C2079 C 0.83010 1.26048 0.88590
 C2080 C 0.81752 1.29041 0.87309
 H2081 H 0.91301 1.33692 0.85787
 H2082 H 0.93367 1.28884 0.87898
 H2083 H 0.81708 1.25201 0.90615
 H2084 H 0.83480 1.24294 0.86797
 H2085 H 0.79736 1.29922 0.88602
 H2086 H 0.81494 1.29031 0.84771
 C2087 C 0.84472 0.80174 0.38014
 C2088 C 0.86350 0.82264 0.36460
 C2089 C 0.89539 0.81701 0.36483
 C2090 C 0.90717 0.78946 0.37718
 C2091 C 0.88730 0.76692 0.38956
 C2092 C 0.85623 0.77474 0.39228
 C2093 C 0.82816 0.75716 0.38348
 C2094 C 0.81557 0.78689 0.37021
 H2095 H 0.91103 0.83337 0.35454
 H2096 H 0.93168 0.78554 0.37623
 H2097 H 0.81512 0.74899 0.40385
 H2098 H 0.83289 0.73936 0.36583
 H2099 H 0.79539 0.79588 0.38299
 H2100 H 0.81302 0.78640 0.34484
 C2101 C 0.35855 1.31030 0.38867
 C2102 C 0.35674 1.31457 0.35691
 C2103 C 0.36471 1.28947 0.33805
 C2104 C 0.37723 1.26255 0.35089
 C2105 C 0.38167 1.26002 0.38287
 C2106 C 0.37041 1.28371 0.40133
 C2107 C 0.38576 1.30096 0.42660
 C2108 C 0.37266 1.33015 0.41262
 H2109 H 0.36191 1.29090 0.31343
 H2110 H 0.38384 1.24396 0.33578
 H2111 H 0.41122 1.29965 0.42531
 H2112 H 0.37576 1.29539 0.44941
 H2113 H 0.39048 1.34579 0.40313
 H2114 H 0.35507 1.34133 0.42734
 C2115 C 0.34645 0.80193 0.87899
 C2116 C 0.36559 0.82478 0.86704
 C2117 C 0.39757 0.82067 0.87048
 C2118 C 0.40947 0.79283 0.88204
 C2119 C 0.38960 0.76874 0.89076
 C2120 C 0.35808 0.77483 0.89068
 C2121 C 0.33218 0.75646 0.87782
 C2122 C 0.31944 0.78632 0.86500
 H2123 H 0.41334 0.83839 0.86308
 H2124 H 0.43410 0.78987 0.88332
 H2125 H 0.31754 0.74635 0.89613
 H2126 H 0.33978 0.74010 0.85977
 H2127 H 0.29752 0.79343 0.87598
 H2128 H 0.31968 0.78736 0.83951
 C2129 C 1.15582 0.69632 0.87944
 C2130 C 1.15516 0.69297 0.84756
 C2131 C 1.14302 0.71745 0.83021
 C2132 C 1.12872 0.74246 0.84483
 C2133 C 1.12635 0.74359 0.87712
 C2134 C 1.14192 0.72102 0.89386
 C2135 C 1.13100 0.70149 0.91983
 C2136 C 1.14632 0.67443 0.90395
 H2137 H 1.14363 0.71672 0.80539
 H2138 H 1.11892 0.76049 0.83083
 H2139 H 1.10556 0.69965 0.92075
 H2140 H 1.14214 0.70779 0.94186
 H2141 H 1.12981 0.65687 0.89558
 H2142 H 1.16634 0.66520 0.91676
 C2143 C 1.11823 0.19491 0.34652
 C2144 C 1.13064 0.17295 0.36632
 C2145 C 1.12875 0.17886 0.39813
 C2146 C 1.11830 0.20751 0.40901
 C2147 C 1.10925 0.23075 0.38833
 C2148 C 1.10771 0.22293 0.35721
 C2149 C 1.11977 0.23951 0.32972
 C2150 C 1.13130 0.20869 0.31806
 H2151 H 1.13658 0.16188 0.41446
 H2152 H 1.11812 0.21171 0.43349
 H2153 H 1.13853 0.25581 0.33550
 H2154 H 1.10104 0.24927 0.31546
 H2155 H 1.15675 0.20706 0.31711
 H2156 H 1.11917 0.20066 0.29713
 C2157 C 0.65945 0.70385 0.37514
 C2158 C 0.64172 0.68216 0.35954
 C2159 C 0.60955 0.68595 0.36030
 C2160 C 0.59638 0.71258 0.37335
 C2161 C 0.61515 0.73580 0.38605
 C2162 C 0.64660 0.72976 0.38807
 C2163 C 0.67346 0.74921 0.37927
 C2164 C 0.68756 0.72061 0.36509
 H2165 H 0.59473 0.66890 0.35001
 H2166 H 0.57169 0.71526 0.37279
 H2167 H 0.68627 0.75763 0.39963
 H2168 H 0.66745 0.76713 0.36213
 H2169 H 0.70840 0.71252 0.37734
 H2170 H 0.68972 0.72185 0.33970
 C2171 C 0.65760 0.19656 0.88111
 C2172 C 0.63869 0.17560 0.86592
 C2173 C 0.60683 0.18134 0.86625
 C2174 C 0.59518 0.20908 0.87829
 C2175 C 0.61519 0.23167 0.89021
 C2176 C 0.64622 0.22374 0.89294
 C2177 C 0.67437 0.24109 0.88381
 C2178 C 0.68681 0.21116 0.87087
 H2179 H 0.59112 0.16496 0.85618
 H2180 H 0.57070 0.21312 0.87737
 H2181 H 0.68745 0.24944 0.90402
 H2182 H 0.66970 0.25871 0.86594
 H2183 H 0.70696 0.20222 0.88367
 H2184 H 0.68934 0.21133 0.84548
 C2185 C 0.88175 0.69716 1.15310
 C2186 C 0.84984 0.69395 1.15322
 C2187 C 0.83230 0.71845 1.14141
 C2188 C 0.84667 0.74338 1.12669
 C2189 C 0.87892 0.74438 1.12353
 C2190 C 0.89593 0.72176 1.13874
 C2191 C 0.92153 0.70209 1.12723
 C2192 C 0.90591 0.67514 1.14306
 H2193 H 0.80749 0.71779 1.14260
 H2194 H 0.83251 0.76145 1.11723
 H2195 H 0.94389 0.70833 1.13777
 H2196 H 0.92179 0.70017 1.10179
 H2197 H 0.91920 0.66593 1.16276
 H2198 H 0.89704 0.65757 1.12684
 C2199 C 0.84795 0.19303 0.61686
 C2200 C 0.86785 0.17116 0.62926
 C2201 C 0.89967 0.17677 0.62662
 C2202 C 0.91056 0.20517 0.61549
 C2203 C 0.88986 0.22844 0.60658
 C2204 C 0.85863 0.22081 0.60572
 C2205 C 0.83145 0.23773 0.61800
 C2206 C 0.81979 0.20715 0.63019
 H2207 H 0.91602 0.15980 0.63444
 H2208 H 0.93507 0.20919 0.61481
 H2209 H 0.81692 0.24731 0.59938
 H2210 H 0.83767 0.25426 0.63640
 H2211 H 0.79860 0.19906 0.61854
 H2212 H 0.81926 0.20589 0.65566
 C2213 C 0.34131 0.70270 0.62238
 C2214 C 0.35892 0.68095 0.63807
 C2215 C 0.39112 0.68437 0.63700
 C2216 C 0.40448 0.71073 0.62359
 C2217 C 0.38587 0.73405 0.61082
 C2218 C 0.35434 0.72835 0.60907
 C2219 C 0.32777 0.74816 0.61787
 C2220 C 0.31347 0.71985 0.63247
 H2221 H 0.40582 0.66725 0.64737
 H2222 H 0.42920 0.71318 0.62398
 H2223 H 0.31490 0.75653 0.59752
 H2224 H 0.33412 0.76618 0.63477
 H2225 H 0.29244 0.71188 0.62047
 H2226 H 0.31152 0.72136 0.65786
 C2227 C 0.39466 0.18658 1.13815
 C2228 C 0.36346 0.17905 1.13780
 C2229 C 0.34277 0.20197 1.12801
 C2230 C 0.35370 0.23004 1.11605
 C2231 C 0.38555 0.23588 1.11382
 C2232 C 0.40538 0.21417 1.12668
 C2233 C 0.43347 0.19950 1.11362
 C2234 C 0.42162 0.16919 1.12632
 H2235 H 0.31828 0.19797 1.12911
 H2236 H 0.33725 0.24694 1.10827
 H2237 H 0.45473 0.20757 1.12514
 H2238 H 0.43405 0.20032 1.08813
 H2239 H 0.43600 0.15987 1.14519
 H2240 H 0.41527 0.15237 1.10822
 C2241 C 1.11684 1.15257 0.69202
 C2242 C 1.12923 1.13223 0.67051
 C2243 C 1.12666 1.10055 0.67683
 C2244 C 1.11564 1.09026 0.70549
 C2245 C 1.10682 1.11142 0.72841
 C2246 C 1.10585 1.14248 0.72011
 C2247 C 1.11814 1.17003 0.73633
 C2248 C 1.13015 1.18106 0.70544
 H2249 H 1.13443 1.08384 0.66018
 H2250 H 1.11501 1.06583 0.71000
 H2251 H 1.13665 1.16420 0.75288
 H2252 H 1.09951 1.18475 0.74568
 H2253 H 1.15563 1.18160 0.70403
 H2254 H 1.11840 1.20205 0.69697
 C2255 C 1.12491 0.66026 0.20278
 C2256 C 1.14061 0.64282 0.18088
 C2257 C 1.13966 0.61059 0.18414
 C2258 C 1.12634 0.59704 0.21046
 C2259 C 1.11354 0.61546 0.23392
 C2260 C 1.11170 0.64703 0.22840
 C2261 C 1.12045 0.67349 0.24834
 C2262 C 1.13494 0.68800 0.22008
 H2263 H 1.15002 0.59600 0.16691
 H2264 H 1.12679 0.57231 0.21274
 H2265 H 1.13742 0.66706 0.26625
 H2266 H 1.10007 0.68627 0.25685
 H2267 H 1.16034 0.68999 0.22151
 H2268 H 1.12285 0.70906 0.21228
 C2269 C 0.60821 1.14047 0.18645
 C2270 C 0.63948 1.13999 0.17913
 C2271 C 0.65999 1.13065 0.20234
 C2272 C 0.64885 1.11914 0.23052
 C2273 C 0.61695 1.11695 0.23615
 C2274 C 0.59727 1.12945 0.21414
 C2275 C 0.56932 1.11616 0.19950
 C2276 C 0.58141 1.12836 0.16908
 H2277 H 0.68452 1.13172 0.19849
 H2278 H 0.66518 1.11163 0.24762
 H2279 H 0.54798 1.12782 0.20723
 H2280 H 0.56876 1.09067 0.20073
 H2281 H 0.56709 1.14709 0.15936
 H2282 H 0.58792 1.10998 0.15262
 C2283 C 0.61895 0.65482 0.69500
 C2284 C 0.63417 0.63604 0.67393
 C2285 C 0.63414 0.60415 0.67963
 C2286 C 0.62236 0.59236 0.70744
 C2287 C 0.61036 0.61226 0.73009
 C2288 C 0.60734 0.64329 0.72222
 C2289 C 0.61637 0.67144 0.73956
 C2290 C 0.62907 0.68404 0.70957
 H2291 H 0.64432 0.58855 0.66320
 H2292 H 0.62352 0.56789 0.71149
 H2293 H 0.63437 0.66683 0.75702
 H2294 H 0.59611 0.68439 0.74809
 H2295 H 0.65446 0.68671 0.70955
 H2296 H 0.61607 0.70414 0.70078
 C2297 C 0.85923 0.88874 0.68840
 C2298 C 0.85629 0.85704 0.68444
 C2299 C 0.86403 0.83804 0.70948
 C2300 C 0.87744 0.85059 0.73605
 C2301 C 0.88306 0.88242 0.73824
 C2302 C 0.87204 0.90113 0.71463
 C2303 C 0.88799 0.92576 0.69689
 C2304 C 0.87383 0.91209 0.66810
 H2305 H 0.86040 0.81350 0.70821
 H2306 H 0.88375 0.83537 0.75464
 H2307 H 0.91340 0.92358 0.69769
 H2308 H 0.87894 0.94895 0.70249
 H2309 H 0.89098 0.90190 0.65217
 H2310 H 0.85657 0.92736 0.65717
 C2311 C 0.87949 0.34559 0.19844
 C2312 C 0.86765 0.36473 0.17558
 C2313 C 0.87133 0.39670 0.17955
 C2314 C 0.88309 0.40858 0.20728
 C2315 C 0.89181 0.38870 0.23132
 C2316 C 0.89143 0.35718 0.22537
 C2317 C 0.87839 0.33145 0.24392
 C2318 C 0.86529 0.31873 0.21422
 H2319 H 0.86404 0.41245 0.16180
 H2320 H 0.88456 0.43321 0.21019
 H2321 H 0.86050 0.33926 0.26039
 H2322 H 0.89661 0.31670 0.25395
 H2323 H 0.83979 0.31919 0.21336
 H2324 H 0.87601 0.29670 0.20711
 C2325 C 0.38158 0.84718 0.19465
 C2326 C 0.34967 0.84677 0.19149
 C2327 C 0.33197 0.85825 0.21605
 C2328 C 0.34615 0.87300 0.24100
 C2329 C 0.37835 0.87654 0.24193
 C2330 C 0.39556 0.86160 0.21925
 C2331 C 0.42103 0.87345 0.19959
 C2332 C 0.40563 0.85755 0.17264
 H2333 H 0.30717 0.85682 0.21539
 H2334 H 0.33185 0.88221 0.25912
 H2335 H 0.44351 0.86312 0.20578
 H2336 H 0.42098 0.89891 0.19774
 H2337 H 0.41916 0.83801 0.16337
 H2338 H 0.39658 0.87374 0.15512
 C2339 C 0.38113 0.34483 0.69569
 C2340 C 0.34916 0.34548 0.69290
 C2341 C 0.33219 0.35758 0.71766
 C2342 C 0.34721 0.37186 0.74241
 C2343 C 0.37954 0.37425 0.74297
 C2344 C 0.39594 0.35873 0.72011
 C2345 C 0.42157 0.36968 0.70013
 C2346 C 0.40525 0.35436 0.67337
 H2347 H 0.30735 0.35691 0.71739
 H2348 H 0.33347 0.38161 0.76068
 H2349 H 0.44374 0.35853 0.70603
 H2350 H 0.42241 0.39512 0.69829
 H2351 H 0.41796 0.33436 0.66391
 H2352 H 0.39655 0.37089 0.65599
 C2353 C 1.10727 0.86072 1.31318
 C2354 C 1.13845 0.86146 1.32071
 C2355 C 1.15906 0.87157 1.29783
 C2356 C 1.14804 0.88347 1.26980
 C2357 C 1.11617 0.88530 1.26398
 C2358 C 1.09646 0.87212 1.28563
 C2359 C 1.06819 0.88476 1.30034
 C2360 C 1.08014 0.87215 1.33060
 H2361 H 1.18356 0.87076 1.30181
 H2362 H 1.16443 0.89152 1.25293
 H2363 H 1.04708 0.87297 1.29225
 H2364 H 1.06732 0.91026 1.29959
 H2365 H 1.06597 0.85305 1.33987
 H2366 H 1.08625 0.89029 1.34745
 C2367 C 1.12241 0.34487 0.80051
 C2368 C 1.13427 0.36443 0.82298
 C2369 C 1.13021 0.39629 0.81862
 C2370 C 1.11800 0.40769 0.79087
 C2371 C 1.10931 0.38742 0.76713
 C2372 C 1.11013 0.35599 0.77350
 C2373 C 1.12329 0.33016 0.75522
 C2374 C 1.13675 0.31796 0.78499
 H2375 H 1.13748 0.41233 0.83610
 H2376 H 1.11618 0.43227 0.78772
 H2377 H 1.14098 0.33794 0.73851
 H2378 H 1.10516 0.31508 0.74554
 H2379 H 1.16225 0.31869 0.78564
 H2380 H 1.12631 0.29592 0.79250
 C2381 C 0.62209 0.84527 0.80225
 C2382 C 0.65405 0.84573 0.80492
 C2383 C 0.67104 0.85781 0.78014
 C2384 C 0.65603 0.87228 0.75549
 C2385 C 0.62373 0.87484 0.75508
 C2386 C 0.60730 0.85932 0.77792
 C2387 C 0.58179 0.87035 0.79800
 C2388 C 0.59809 0.85486 0.82467
 H2389 H 0.69587 0.85702 0.78035
 H2390 H 0.66975 0.88205 0.73720
 H2391 H 0.55954 0.85935 0.79214
 H2392 H 0.58110 0.89579 0.79990
 H2393 H 0.58530 0.83490 0.83414
 H2394 H 0.60694 0.87129 0.84206
 C2395 C 0.61136 0.35688 1.30994
 C2396 C 0.64308 0.35461 1.31424
 C2397 C 0.66216 0.36278 1.28934
 C2398 C 0.64962 0.37600 1.26265
 C2399 C 0.61770 0.38096 1.26016
 C2400 C 0.59897 0.36946 1.28357
 C2401 C 0.57377 0.38477 1.30104
 C2402 C 0.58744 0.37088 1.32998
 H2403 H 0.68676 0.35968 1.29082
 H2404 H 0.66489 0.38276 1.24423
 H2405 H 0.55087 0.37518 1.29521
 H2406 H 0.57535 0.41023 1.30025
 H2407 H 0.57246 0.35325 1.34077
 H2408 H 0.59704 0.38824 1.34601
 C2409 C 0.84615 1.11820 1.30424
 C2410 C 0.86497 1.13361 1.32510
 C2411 C 0.89682 1.13372 1.31913
 C2412 C 0.90848 1.12185 1.29132
 C2413 C 0.88851 1.10964 1.26886
 C2414 C 0.85755 1.10653 1.27699
 C2415 C 0.82923 1.11534 1.25983
 C2416 C 0.81678 1.12810 1.28983
 H2417 H 0.91249 1.14401 1.33540
 H2418 H 0.93293 1.12309 1.28712
 H2419 H 0.81633 1.09497 1.25154
 H2420 H 0.83364 1.13328 1.24221
 H2421 H 0.79680 1.11503 1.29887
 H2422 H 0.81398 1.15347 1.28970
 C2423 C 0.88377 0.65165 0.80642
 C2424 C 0.87123 0.63209 0.82855
 C2425 C 0.87278 0.60021 0.82280
 C2426 C 0.88309 0.58904 0.79419
 C2427 C 0.89227 0.60950 0.77076
 C2428 C 0.89407 0.64069 0.77842
 C2429 C 0.88224 0.66821 0.76176
 C2430 C 0.87098 0.68017 0.79256
 H2431 H 0.86477 0.58404 0.83989
 H2432 H 0.88305 0.56453 0.79019
 H2433 H 0.86334 0.66249 0.74562
 H2434 H 0.90108 0.68225 0.75181
 H2435 H 0.84555 0.68138 0.79435
 H2436 H 0.88339 0.70103 0.80039
 C2437 C 0.38321 1.15454 0.80411
 C2438 C 0.36780 1.13606 0.82532
 C2439 C 0.36745 1.10414 0.81987
 C2440 C 0.37913 1.09205 0.79217
 C2441 C 0.39136 1.11166 0.76937
 C2442 C 0.39468 1.14272 0.77698
 C2443 C 0.38591 1.17083 0.75941
 C2444 C 0.37336 1.18376 0.78930
 H2445 H 0.35708 1.08877 0.83642
 H2446 H 0.37772 1.06755 0.78833
 H2447 H 0.36786 1.16627 0.74200
 H2448 H 0.40630 1.18353 0.75077
 H2449 H 0.34800 1.18667 0.78931
 H2450 H 0.38656 1.20380 0.79792
 C2451 C 0.34697 0.62048 1.30284
 C2452 C 0.34722 0.65243 1.30580
 C2453 C 0.35932 0.66966 1.28119
 C2454 C 0.37391 0.65494 1.25639
 C2455 C 0.37664 0.62265 1.25564
 C2456 C 0.36118 0.60597 1.27837
 C2457 C 0.37234 0.58039 1.29825
 C2458 C 0.35667 0.59639 1.32505
 H2459 H 0.35840 0.69448 1.28162
 H2460 H 0.38358 0.66887 1.23822
 H2461 H 0.39778 0.57987 1.30018
 H2462 H 0.36151 0.55811 1.29219
 H2463 H 0.37299 0.60522 1.34254
 H2464 H 0.33678 0.58338 1.33437
 C2465 C 1.10757 1.31603 0.86232
 C2466 C 1.13883 1.32324 0.86227
 C2467 C 1.15947 1.30011 0.87161
 C2468 C 1.14845 1.27202 0.88343
 C2469 C 1.11657 1.26641 0.88592
 C2470 C 1.09676 1.28843 0.87363
 C2471 C 1.06905 1.30323 0.88735
 C2472 C 1.08100 1.33356 0.87483
 H2473 H 1.18398 1.30389 0.87012
 H2474 H 1.16484 1.25488 0.89078
 H2475 H 1.06889 1.30210 0.91284
 H2476 H 1.04751 1.29552 0.87610
 H2477 H 1.08784 1.35008 0.89301
 H2478 H 1.06641 1.34326 0.85631
 C2479 C 1.12238 0.79985 0.34394
 C2480 C 1.13405 0.82297 0.36287
 C2481 C 1.13028 0.81923 0.39485
 C2482 C 1.11856 0.79154 0.40700
 C2483 C 1.10998 0.76725 0.38737
 C2484 C 1.11051 0.77293 0.35579
 C2485 C 1.12374 0.75421 0.33031
 C2486 C 1.13676 0.78389 0.31731
 H2487 H 1.13743 0.83717 0.41044
 H2488 H 1.11694 0.78889 0.43164
 H2489 H 1.10563 0.74392 0.31561
 H2490 H 1.14166 0.73792 0.33833
 H2491 H 1.12611 0.79072 0.29519
 H2492 H 1.16226 0.78491 0.31783
 C2493 C 0.62441 1.29530 0.34039
 C2494 C 0.64014 1.31732 0.35757
 C2495 C 0.63939 1.31427 0.38982
 C2496 C 0.62626 1.28799 0.40362
 C2497 C 0.61344 1.26439 0.38542
 C2498 C 0.61138 1.26973 0.35385
 C2499 C 0.62002 1.24966 0.32745
 C2500 C 0.63432 1.27788 0.31267
 H2501 H 0.64980 1.33160 0.40421
 H2502 H 0.62688 1.28583 0.42834
 H2503 H 0.59959 1.24104 0.31489
 H2504 H 0.63710 1.23180 0.33384
 H2505 H 0.62206 1.28554 0.29168
 H2506 H 0.65971 1.27649 0.31048
 C2507 C 0.65668 0.80369 0.87841
 C2508 C 0.65703 0.80647 0.84648
 C2509 C 0.64509 0.78187 0.82918
 C2510 C 0.62993 0.75734 0.84377
 C2511 C 0.62651 0.75685 0.87598
 C2512 C 0.64191 0.77947 0.89279
 C2513 C 0.63051 0.79960 0.91806
 C2514 C 0.64678 0.82614 0.90221
 H2515 H 0.64640 0.78224 0.80438
 H2516 H 0.62032 0.73920 0.82980
 H2517 H 0.64084 0.79349 0.94055
 H2518 H 0.60508 0.80186 0.91813
 H2519 H 0.66653 0.83526 0.91549
 H2520 H 0.63084 0.84381 0.89303
 C2521 C 0.89441 1.31532 1.13761
 C2522 C 0.86318 1.32276 1.13710
 C2523 C 0.84253 1.29956 1.12800
 C2524 C 0.85352 1.27117 1.11691
 C2525 C 0.88539 1.26531 1.11493
 C2526 C 0.90519 1.28743 1.12704
 C2527 C 0.93321 1.30177 1.11344
 C2528 C 0.92129 1.33243 1.12514
 H2529 H 0.81803 1.30350 1.12911
 H2530 H 0.83710 1.25401 1.10964
 H2531 H 0.93374 1.30014 1.08798
 H2532 H 0.95451 1.29414 1.12517
 H2533 H 0.91484 1.34863 1.10651
 H2534 H 0.93567 1.34240 1.14366
 C2535 C 0.88700 0.80917 0.64668
 C2536 C 0.85577 0.81605 0.64445
 C2537 C 0.83634 0.79338 0.63199
 C2538 C 0.84871 0.76634 0.61919
 C2539 C 0.88080 0.76140 0.61857
 C2540 C 0.89916 0.78265 0.63414
 C2541 C 0.92766 0.79882 0.62403
 C2542 C 0.91424 0.82791 0.63790
 H2543 H 0.81175 0.79686 0.63155
 H2544 H 0.83317 0.74962 0.60944
 H2545 H 0.92994 0.79980 0.59863
 H2546 H 0.94833 0.79044 0.63638
 H2547 H 0.90867 0.84582 0.62060
 H2548 H 0.92707 0.83620 0.65829
 C2549 C 0.34598 1.30294 0.61963
 C2550 C 0.34599 1.30604 0.65154
 C2551 C 0.35765 1.28140 0.66899
 C2552 C 0.37220 1.25647 0.65451
 C2553 C 0.37527 1.25560 0.62228
 C2554 C 0.36013 1.27832 0.60536
 C2555 C 0.37168 1.29801 0.57977
 C2556 C 0.35608 1.32500 0.59551
 H2557 H 0.35653 1.28199 0.69379
 H2558 H 0.38163 1.23830 0.66858
 H2559 H 0.36102 1.29190 0.55745
 H2560 H 0.39714 1.29978 0.57943
 H2561 H 0.33638 1.33437 0.58232
 H2562 H 0.37245 1.34244 0.60437
 C2563 C 0.34723 0.80423 1.11786
 C2564 C 0.34742 0.80756 1.14975
 C2565 C 0.35924 0.78304 1.16727
 C2566 C 0.37365 0.75797 1.15285
 C2567 C 0.37646 0.75684 1.12060
 C2568 C 0.36125 0.77949 1.10364
 C2569 C 0.37267 0.79900 1.07786
 C2570 C 0.35721 0.82611 1.09353
 H2571 H 0.35827 0.78376 1.19207
 H2572 H 0.38315 0.73989 1.16699
 H2573 H 0.36185 0.79276 1.05565
 H2574 H 0.39813 0.80073 1.07734
 H2575 H 0.33745 0.83543 1.08040
 H2576 H 0.37367 0.84358 1.10217
 C2577 C 0.84879 0.69338 0.88314
 C2578 C 0.86850 0.67150 0.87039
 C2579 C 0.90034 0.67731 0.87223
 C2580 C 0.91135 0.70577 0.88310
 C2581 C 0.89076 0.72896 0.89257
 C2582 C 0.85958 0.72122 0.89402
 C2583 C 0.83216 0.73805 0.88225
 C2584 C 0.82038 0.70744 0.87034
 H2585 H 0.91662 0.66039 0.86413
 H2586 H 0.93585 0.70985 0.88327
 H2587 H 0.83804 0.75460 0.86371
 H2588 H 0.81790 0.74759 0.90113
 H2589 H 0.81945 0.70616 0.84488
 H2590 H 0.79940 0.69931 0.88240
 C2591 C 0.86365 0.18494 0.39354
 C2592 C 0.86403 0.17769 0.36229
 C2593 C 0.87316 0.20100 0.34172
 C2594 C 0.88439 0.22929 0.35279
 C2595 C 0.88646 0.23495 0.38466
 C2596 C 0.87434 0.21275 0.40441
 C2597 C 0.88799 0.19821 0.43224
 C2598 C 0.87616 0.16765 0.42023
 H2599 H 0.87196 0.19721 0.31721
 H2600 H 0.89167 0.24653 0.33644
 H2601 H 0.87634 0.20574 0.45366
 H2602 H 0.91346 0.19979 0.43261
 H2603 H 0.85764 0.15763 0.43468
 H2604 H 0.89473 0.15145 0.41358
 C2605 C 0.38129 0.69756 0.34501
 C2606 C 0.34937 0.69445 0.34477
 C2607 C 0.33181 0.71904 0.35640
 C2608 C 0.34615 0.74396 0.37110
 C2609 C 0.37838 0.74486 0.37440
 C2610 C 0.39543 0.72214 0.35934
 C2611 C 0.42088 0.70242 0.37102
 C2612 C 0.40530 0.67549 0.35522
 H2613 H 0.30701 0.71845 0.35512
 H2614 H 0.33197 0.76211 0.38043
 H2615 H 0.42094 0.70056 0.39646
 H2616 H 0.44333 0.70857 0.36055
 H2617 H 0.39625 0.65798 0.37146
 H2618 H 0.41871 0.66618 0.33561
 C2619 C 0.34675 0.19923 0.87809
 C2620 C 0.36572 0.17610 0.86648
 C2621 C 0.39773 0.17995 0.86999
 C2622 C 0.40983 0.20777 0.88139
 C2623 C 0.39014 0.23207 0.88986
 C2624 C 0.35857 0.22629 0.88959
 C2625 C 0.33295 0.24481 0.87640
 C2626 C 0.31999 0.21498 0.86378
 H2627 H 0.41335 0.16201 0.86283
 H2628 H 0.43449 0.21049 0.88283
 H2629 H 0.34085 0.26095 0.85825
 H2630 H 0.31830 0.25522 0.89452
 H2631 H 0.32038 0.21373 0.83830
 H2632 H 0.29793 0.20819 0.87468
 C2633 C 1.11211 0.69044 1.14097
 C2634 C 1.14379 0.68592 1.14331
 C2635 C 1.16307 0.71059 1.13490
 C2636 C 1.15073 0.73732 1.12150
 C2637 C 1.11884 0.74005 1.11656
 C2638 C 1.09995 0.71684 1.12820
 C2639 C 1.07469 0.69944 1.11296
 C2640 C 1.08813 0.67048 1.12707
 H2641 H 1.18765 0.70891 1.13799
 H2642 H 1.16614 0.75560 1.11468
 H2643 H 1.07638 0.70004 1.08751
 H2644 H 1.05180 0.70552 1.12245
 H2645 H 1.09770 0.65425 1.10985
 H2646 H 1.07301 0.65993 1.14474
 C2647 C 1.15289 0.19207 0.61509
 C2648 C 1.13286 0.17039 0.62774
 C2649 C 1.10109 0.17633 0.62541
 C2650 C 1.09040 0.20484 0.61441
 C2651 C 1.11126 0.22794 0.60530
 C2652 C 1.14240 0.21999 0.60408
 C2653 C 1.16984 0.23663 0.61606
 C2654 C 1.18129 0.20593 0.62811
 H2655 H 1.08461 0.15954 0.63341
 H2656 H 1.06593 0.20910 0.61401
 H2657 H 1.16394 0.25322 0.63453
 H2658 H 1.18433 0.24607 0.59729
 H2659 H 1.18200 0.20466 0.65358
 H2660 H 1.20231 0.19765 0.61624
 C2661 C 0.65560 0.69849 0.62024
 C2662 C 0.63655 0.67561 0.63228
 C2663 C 0.60455 0.67961 0.62883
 C2664 C 0.59256 0.70736 0.61714
 C2665 C 0.61235 0.73148 0.60828
 C2666 C 0.64388 0.72549 0.60842
 C2667 C 0.66971 0.74401 0.62121
 C2668 C 0.68254 0.71426 0.63417
 H2669 H 0.58885 0.66186 0.63630
 H2670 H 0.56792 0.71022 0.61584
 H2671 H 0.66202 0.76043 0.63918
 H2672 H 0.68432 0.75410 0.60287
 H2673 H 0.68229 0.71333 0.65966
 H2674 H 0.70450 0.70719 0.62325
 C2675 C 0.62322 0.20114 1.15532
 C2676 C 0.63536 0.17806 1.13660
 C2677 C 0.63219 0.18179 1.10455
 C2678 C 0.62064 0.20944 1.09221
 C2679 C 0.61157 0.23368 1.11170
 C2680 C 0.61147 0.22801 1.14327
 C2681 C 0.62410 0.24678 1.16897
 C2682 C 0.63699 0.21717 1.18218
 H2683 H 0.63971 0.16387 1.08908
 H2684 H 0.61951 0.21211 1.06754
 H2685 H 0.60564 0.25698 1.18335
 H2686 H 0.64211 0.26315 1.16124
 H2687 H 0.62593 0.21029 1.20413
 H2688 H 0.66250 0.21626 1.18209
 C2689 C 1.31576 1.13825 0.89312
 C2690 C 1.32335 1.13796 0.86195
 C2691 C 1.30025 1.12903 0.84113
 C2692 C 1.27182 1.11779 0.85190
 C2693 C 1.26584 1.11545 0.88371
 C2694 C 1.28785 1.12746 0.90369
 C2695 C 1.30208 1.11366 0.93160
 C2696 C 1.33276 1.12561 0.91992
 H2697 H 1.30434 1.13030 0.81667
 H2698 H 1.25475 1.11067 0.83535
 H2699 H 1.30053 1.08819 0.93187
 H2700 H 1.29430 1.12517 0.95300
 H2701 H 1.34907 1.10710 0.91335
 H2702 H 1.34259 1.14405 0.93453
 C2703 C 1.30456 0.65526 0.37927
 C2704 C 1.30774 0.65513 0.34736
 C2705 C 1.28321 0.64325 0.32996
 C2706 C 1.25830 0.62864 0.34450
 C2707 C 1.25736 0.62570 0.37675
 C2708 C 1.27999 0.64103 0.39360
 C2709 C 1.29968 0.62972 0.41923
 C2710 C 1.32661 0.64541 0.40343
 H2711 H 1.28383 0.64428 0.30516
 H2712 H 1.24021 0.61906 0.33045
 H2713 H 1.30159 0.60428 0.41966
 H2714 H 1.29346 0.64046 0.44151
 H2715 H 1.34417 0.62910 0.39463
 H2716 H 1.33585 0.66523 0.41654
 C2717 C 0.80265 1.15489 0.37894
 C2718 C 0.82545 1.13578 0.36687
 C2719 C 0.82148 1.10381 0.37053
 C2720 C 0.79382 1.09189 0.38253
 C2721 C 0.76981 1.11174 0.39150
 C2722 C 0.77577 1.14326 0.39110
 C2723 C 0.75715 1.16901 0.37828
 C2724 C 0.78680 1.18177 0.36494
 H2725 H 0.83920 1.08808 0.36305
 H2726 H 0.79092 1.06725 0.38400
 H2727 H 0.74722 1.18372 0.39660
 H2728 H 0.74058 1.16123 0.36053
 H2729 H 0.79398 1.20378 0.37563
 H2730 H 0.78752 1.18137 0.33944
 C2731 C 0.80708 0.61756 0.84766
 C2732 C 0.82904 0.62979 0.86752
 C2733 C 0.82300 0.62788 0.89932
 C2734 C 0.79424 0.61755 0.91014
 C2735 C 0.77102 0.60868 0.88939
 C2736 C 0.77896 0.60720 0.85827
 C2737 C 0.76256 0.61942 0.83079
 C2738 C 0.79351 0.63076 0.81921
 H2739 H 0.83997 0.63560 0.91569
 H2740 H 0.78997 0.61733 0.93460
 H2741 H 0.74637 0.63827 0.83661
 H2742 H 0.75274 0.60077 0.81645
 H2743 H 0.79531 0.65620 0.81834
 H2744 H 0.80154 0.61862 0.79827
 C2745 C 1.30564 0.88161 1.15217
 C2746 C 1.30850 0.84966 1.15190
 C2747 C 1.28385 0.83251 1.13987
 C2748 C 1.25914 0.84733 1.12530
 C2749 C 1.25851 0.87962 1.12258
 C2750 C 1.28125 0.89622 1.13801
 C2751 C 1.30123 0.92174 1.12683
 C2752 C 1.32796 0.90564 1.14244
 H2753 H 1.28419 0.80769 1.14081
 H2754 H 1.24093 0.83348 1.11565
 H2755 H 1.29522 0.94403 1.13767
 H2756 H 1.30320 0.92228 1.10140
 H2757 H 1.33730 0.91859 1.16230
 H2758 H 1.34545 0.89676 1.12609
 C2759 C 1.30370 0.37971 0.65409
 C2760 C 1.30685 0.34780 0.65420
 C2761 C 1.28233 0.33030 0.64233
 C2762 C 1.25752 0.34472 0.62753
 C2763 C 1.25662 0.37696 0.62438
 C2764 C 1.27919 0.39393 0.63969
 C2765 C 1.29897 0.41951 0.62828
 C2766 C 1.32581 0.40384 0.64414
 H2767 H 1.28293 0.30549 0.64348
 H2768 H 1.23947 0.33060 0.61797
 H2769 H 1.29271 0.44187 0.63884
 H2770 H 1.30101 0.41978 0.60285
 H2771 H 1.33496 0.41711 0.66389
 H2772 H 1.34344 0.39495 0.62796
 C2773 C 0.79680 0.87589 0.65932
 C2774 C 0.81852 0.86010 0.64175
 C2775 C 0.81523 0.86116 0.60956
 C2776 C 0.78899 0.87466 0.59616
 C2777 C 0.76565 0.88752 0.61473
 C2778 C 0.77124 0.88926 0.64626
 C2779 C 0.75129 0.88053 0.67278
 C2780 C 0.77950 0.86586 0.68712
 H2781 H 0.83238 0.85074 0.59489
 H2782 H 0.78665 0.87429 0.57145
 H2783 H 0.73324 0.86366 0.66639
 H2784 H 0.74295 0.90091 0.68564
 H2785 H 0.77791 0.84046 0.68906
 H2786 H 0.78744 0.87786 0.70815
 C2787 C 0.80528 0.38264 1.15443
 C2788 C 0.82628 0.36710 1.13579
 C2789 C 0.82067 0.36701 1.10392
 C2790 C 0.79306 0.37906 1.09203
 C2791 C 0.77043 0.39142 1.11179
 C2792 C 0.77822 0.39449 1.14280
 C2793 C 0.76067 0.38578 1.17097
 C2794 C 0.79047 0.37283 1.18367
 H2795 H 0.83707 0.35662 1.08840
 H2796 H 0.78913 0.37784 1.06756
 H2797 H 0.74298 0.36795 1.16643
 H2798 H 0.75234 0.40620 1.18379
 H2799 H 0.79015 0.34746 1.18649
 H2800 H 0.79935 0.38584 1.20370
 C2801 C 0.69779 1.15615 1.11937
 C2802 C 0.67651 1.13788 1.13495
 C2803 C 0.68178 1.10592 1.13537
 C2804 C 0.70933 1.09358 1.12351
 C2805 C 0.73218 1.11297 1.11098
 C2806 C 0.72475 1.14409 1.10770
 C2807 C 0.74260 1.17207 1.11626
 C2808 C 0.71289 1.18526 1.12902
 H2809 H 0.66517 1.09068 1.14584
 H2810 H 0.71300 1.06906 1.12493
 H2811 H 0.75118 1.18467 1.09579
 H2812 H 0.76013 1.16740 1.13418
 H2813 H 0.70431 1.20534 1.11584
 H2814 H 0.71310 1.18822 1.15436
 C2815 C 0.68626 0.63717 0.60610
 C2816 C 0.67863 0.63711 0.63726
 C2817 C 0.70148 0.62756 0.65811
 C2818 C 0.72963 0.61558 0.64739
 C2819 C 0.73560 0.61312 0.61559
 C2820 C 0.71390 0.62568 0.59559
 C2821 C 0.69936 0.61225 0.56766
 C2822 C 0.66897 0.62497 0.57929
 H2823 H 0.69740 0.62891 0.68257
 H2824 H 0.74651 0.60805 0.66395
 H2825 H 0.70025 0.58675 0.56743
 H2826 H 0.70746 0.62357 0.54627
 H2827 H 0.65219 0.60688 0.58585
 H2828 H 0.65965 0.64365 0.56465
 C2829 C 0.19325 1.11579 0.65208
 C2830 C 0.17166 1.12817 0.63187
 C2831 C 0.17787 1.12564 0.60017
 C2832 C 0.20651 1.11467 0.58972
 C2833 C 0.22948 1.10579 0.61076
 C2834 C 0.22129 1.10481 0.64184
 C2835 C 0.23767 1.11710 0.66928
 C2836 C 0.20683 1.12911 0.68046
 H2837 H 0.16117 1.13341 0.58354
 H2838 H 0.21093 1.11406 0.56529
 H2839 H 0.25423 1.13561 0.66335
 H2840 H 0.24705 1.09848 0.68395
 H2841 H 0.20546 1.15459 0.68097
 H2842 H 0.19843 1.11737 0.70150
 C2843 C 0.19057 0.64737 1.11166
 C2844 C 0.18425 0.64540 1.14305
 C2845 C 0.20723 0.63296 1.16210
 C2846 C 0.23395 0.61990 1.14930
 C2847 C 0.23826 0.61897 1.11714
 C2848 C 0.21679 0.63457 1.09907
 C2849 C 0.20002 0.62437 1.07102
 C2850 C 0.17127 0.63852 1.08491
 H2851 H 0.20420 0.63273 1.18676
 H2852 H 0.25089 0.61017 1.16460
 H2853 H 0.19885 0.59895 1.06900
 H2854 H 0.20809 0.63653 1.05008
 H2855 H 0.15336 0.62137 1.09100
 H2856 H 0.16286 0.65889 1.07207
 C2857 C 0.69928 0.88022 0.84344
 C2858 C 0.69621 0.84829 0.84370
 C2859 C 0.72075 0.83099 0.85579
 C2860 C 0.74553 0.84566 0.87040
 C2861 C 0.74634 0.87794 0.87319
 C2862 C 0.72373 0.89467 0.85768
 C2863 C 0.70388 0.92032 0.86876
 C2864 C 0.67709 0.90440 0.85306
 H2865 H 0.72021 0.80617 0.85492
 H2866 H 0.76361 0.83168 0.88012
 H2867 H 0.71008 0.94258 0.85793
 H2868 H 0.70181 0.92086 0.89419
 H2869 H 0.66793 0.91742 0.83315
 H2870 H 0.65947 0.89563 0.86935
 C2871 C 0.69071 0.38599 0.35198
 C2872 C 0.68402 0.35471 0.35430
 C2873 C 0.70681 0.33546 0.36684
 C2874 C 0.73371 0.34803 0.37969
 C2875 C 0.73840 0.38015 0.38026
 C2876 C 0.71710 0.39836 0.36455
 C2877 C 0.70071 0.42676 0.37452
 C2878 C 0.67176 0.41311 0.36061
 H2879 H 0.70349 0.31084 0.36735
 H2880 H 0.75048 0.33262 0.38955
 H2881 H 0.70901 0.44746 0.36211
 H2882 H 0.69961 0.42906 0.39990
 H2883 H 0.66347 0.42586 0.34015
 H2884 H 0.65381 0.40745 0.37789
 C2885 C 0.19626 0.84482 0.38073
 C2886 C 0.17510 0.86317 0.36514
 C2887 C 0.18025 0.89516 0.36512
 C2888 C 0.20766 0.90746 0.37722
 C2889 C 0.23047 0.88801 0.38963
 C2890 C 0.22310 0.85686 0.39266
 C2891 C 0.24108 0.82897 0.38399
 C2892 C 0.21152 0.81582 0.37095
 H2893 H 0.16369 0.91045 0.35471
 H2894 H 0.21129 0.93200 0.37601
 H2895 H 0.24949 0.81624 0.40442
 H2896 H 0.25878 0.83382 0.36623
 H2897 H 0.20285 0.79562 0.38391
 H2898 H 0.21199 0.81306 0.34559
 C2899 C 0.19683 0.38267 0.84378
 C2900 C 0.17576 0.36751 0.86267
 C2901 C 0.18149 0.36768 0.89453
 C2902 C 0.20932 0.37945 0.90617
 C2903 C 0.23203 0.39128 0.88618
 C2904 C 0.22411 0.39424 0.85518
 C2905 C 0.24141 0.38510 0.82700
 C2906 C 0.21138 0.37245 0.81456
 H2907 H 0.16506 0.35759 0.91022
 H2908 H 0.21335 0.37837 0.93064
 H2909 H 0.25888 0.36708 0.83160
 H2910 H 0.24994 0.40532 0.81397
 H2911 H 0.21135 0.34706 0.81196
 H2912 H 0.20258 0.38542 0.79445
   
