data_POSCAR
  _audit_creation_date              2014-09-24
  _audit_creation_method            'ToBaCCo'
  _symmetry_space_group_name_H-M    'P1'
  _symmetry_Int_Tables_number       1
  _symmetry_cell_setting            triclinic
  loop_
  _symmetry_equiv_pos_as_xyz
 x,y,z
_cell_length_a 58.7690
_cell_length_b 59.3957
_cell_length_c 59.9583
_cell_angle_alpha 89.957600
_cell_angle_beta 89.996900
_cell_angle_gamma 89.967800
loop_
  _atom_site_label
  _atom_site_type_symbol
  _atom_site_fract_x
  _atom_site_fract_y
  _atom_site_fract_z
O1 O 0.37095 0.33967 -0.02159
 O2 O 0.34002 0.37092 0.02195
 O3 O 0.37109 0.33960 0.02168
 O4 O 0.33990 0.37096 -0.02172
 O5 O 0.31301 0.34513 -0.02133
 O6 O 0.34427 0.31364 0.02170
 O7 O 0.31323 0.34492 0.02193
 O8 O 0.34406 0.31378 -0.02163
 Cu9 Cu 0.35813 0.35795 0.00007
 Cu10 Cu 0.32596 0.32678 0.00017
 C11 C 0.36285 0.32130 -0.02898
 C12 C 0.32133 0.36324 0.02941
 C13 C 0.36308 0.32116 0.02901
 C14 C 0.32104 0.36344 -0.02898
 O15 O 0.65984 0.62783 0.02053
 O16 O 0.62827 0.65888 -0.02293
 O17 O 0.65969 0.62792 -0.02310
 O18 O 0.62831 0.65872 0.02060
 O19 O 0.65473 0.68509 0.02039
 O20 O 0.68620 0.65414 -0.02284
 O21 O 0.65479 0.68516 -0.02281
 O22 O 0.68624 0.65421 0.02041
 Cu23 Cu 0.64139 0.64068 -0.00122
 Cu24 Cu 0.67314 0.67226 -0.00122
 C25 C 0.67849 0.63572 0.02787
 C26 C 0.63611 0.67742 -0.03021
 C27 C 0.67841 0.63571 -0.03044
 C28 C 0.63611 0.67728 0.02786
 O29 O 0.63120 0.34020 1.02308
 O30 O 0.66274 0.37109 0.97963
 O31 O 0.63119 0.34026 0.97947
 O32 O 0.66267 0.37110 1.02295
 O33 O 0.68913 0.34479 1.02285
 O34 O 0.65758 0.31383 0.97968
 O35 O 0.68913 0.34467 0.97969
 O36 O 0.65765 0.31383 1.02297
 Cu37 Cu 0.64426 0.35827 1.00128
 Cu38 Cu 0.67598 0.32662 1.00131
 C39 C 0.63904 0.32168 1.03043
 C40 C 0.68144 0.36325 0.97237
 C41 C 0.63900 0.32172 0.97217
 C42 C 0.68145 0.36337 1.03021
 O43 O 0.36719 0.66168 1.02127
 O44 O 0.33636 0.63011 0.97793
 O45 O 0.36725 0.66172 0.97796
 O46 O 0.33636 0.63013 1.02132
 O47 O 0.30927 0.65578 1.02107
 O48 O 0.34031 0.68759 0.97802
 O49 O 0.30949 0.65605 0.97775
 O50 O 0.34009 0.68738 1.02137
 Cu51 Cu 0.35449 0.64332 0.99961
 Cu52 Cu 0.32209 0.67428 0.99956
 C53 C 0.35897 0.67999 1.02868
 C54 C 0.31760 0.63763 0.97048
 C55 C 0.35916 0.68016 0.97068
 C56 C 0.31741 0.63744 1.02856
 O57 O -0.02339 0.37290 0.34173
 O58 O 0.02038 0.34082 0.37215
 O59 O 0.02068 0.37183 0.34126
 O60 O -0.02416 0.34153 0.37224
 O61 O -0.02413 0.31501 0.34656
 O62 O 0.01953 0.34583 0.31505
 O63 O 0.01990 0.31482 0.34591
 O64 O -0.02483 0.34620 0.31618
 Cu65 Cu -0.00154 0.35936 0.35951
 Cu66 Cu -0.00242 0.32787 0.32830
 C67 C -0.03161 0.36501 0.32378
 C68 C 0.02764 0.32233 0.36423
 C69 C 0.02758 0.36410 0.32269
 C70 C -0.03176 0.32295 0.36476
 O71 O 0.02265 0.65822 0.62646
 O72 O -0.02140 0.62703 0.65743
 O73 O -0.02170 0.65819 0.62689
 O74 O 0.02293 0.62688 0.65714
 O75 O 0.02212 0.65238 0.68386
 O76 O -0.02034 0.68487 0.65237
 O77 O -0.02194 0.65374 0.68296
 O78 O 0.02397 0.68343 0.65346
 Cu79 Cu 0.00063 0.63997 0.63934
 Cu80 Cu 0.00096 0.67125 0.67074
 C81 C 0.03100 0.67605 0.63482
 C82 C -0.02932 0.63514 0.67544
 C83 C -0.02854 0.67705 0.63435
 C84 C 0.02989 0.63413 0.67588
 O85 O 0.97973 0.65927 0.37198
 O86 O 1.02473 0.62882 0.34169
 O87 O 1.02387 0.65987 0.37234
 O88 O 0.98033 0.62830 0.34106
 O89 O 0.98002 0.65483 0.31531
 O90 O 1.02401 0.68593 0.34616
 O91 O 1.02426 0.65489 0.31547
 O92 O 0.97985 0.68567 0.34610
 Cu93 Cu 1.00215 0.64139 0.35934
 Cu94 Cu 1.00203 0.67294 0.32814
 C95 C 0.97225 0.67781 0.36434
 C96 C 1.03215 0.63662 0.32335
 C97 C 1.03137 0.67840 0.36466
 C98 C 0.97268 0.63620 0.32283
 O99 O 1.02098 0.36825 0.66051
 O100 O 0.97605 0.33879 0.62912
 O101 O 0.97684 0.37005 0.65980
 O102 O 1.02021 0.33726 0.62966
 O103 O 1.01932 0.31136 0.65598
 O104 O 0.97468 0.34331 0.68529
 O105 O 0.97528 0.31222 0.65484
 O106 O 1.01901 0.34238 0.68684
 Cu107 Cu 0.99866 0.35623 0.64217
 Cu108 Cu 0.99697 0.32473 0.67338
 C109 C 1.02751 0.36047 0.67919
 C110 C 0.96820 0.32028 0.63648
 C111 C 0.96828 0.36224 0.67765
 C112 C 1.02717 0.31861 0.63756
 O113 O 0.37275 0.02268 0.34032
 O114 O 0.34213 -0.02148 0.37137
 O115 O 0.37325 -0.02136 0.34021
 O116 O 0.34156 0.02217 0.37124
 O117 O 0.31472 0.02157 0.34554
 O118 O 0.34677 -0.02110 0.31413
 O119 O 0.31588 -0.02236 0.34504
 O120 O 0.34590 0.02244 0.31462
 Cu121 Cu 0.36014 0.00053 0.35835
 Cu122 Cu 0.32811 0.00014 0.32728
 C123 C 0.36455 0.03011 0.32213
 C124 C 0.32379 -0.02948 0.36346
 C125 C 0.36547 -0.02857 0.32176
 C126 C 0.32261 0.02921 0.36375
 O127 O 0.62955 0.02182 0.66232
 O128 O 0.66038 -0.02152 0.63030
 O129 O 0.62969 -0.02192 0.66188
 O130 O 0.65964 0.02239 0.63053
 O131 O 0.68707 0.02227 0.65564
 O132 O 0.65703 -0.02197 0.68707
 O133 O 0.68764 -0.02144 0.65558
 O134 O 0.65692 0.02171 0.68749
 Cu135 Cu 0.64209 0.00014 0.64370
 Cu136 Cu 0.67491 0.00012 0.67395
 C137 C 0.63796 0.02911 0.68046
 C138 C 0.67938 -0.02881 0.63743
 C139 C 0.63809 -0.02938 0.67995
 C140 C 0.67848 0.02992 0.63772
 O141 O 0.37295 0.97993 0.65978
 O142 O 0.34311 1.02392 0.62775
 O143 O 0.37397 1.02395 0.65919
 O144 O 0.34201 0.98030 0.62866
 O145 O 0.31487 0.98189 0.65402
 O146 O 0.34732 1.02443 0.68509
 O147 O 0.31670 1.02571 0.65388
 O148 O 0.34583 0.98087 0.68521
 Cu149 Cu 0.36076 1.00193 0.64130
 Cu150 Cu 0.32847 1.00331 0.67209
 C151 C 0.36447 0.97285 0.67798
 C152 C 0.32480 1.03232 0.63535
 C153 C 0.36616 1.03152 0.67748
 C154 C 0.32283 0.97379 0.63603
 O155 O 0.66052 1.01983 0.36922
 O156 O 0.62964 0.97649 0.33738
 O157 O 0.66020 0.97591 0.36889
 O158 O 0.62975 1.02020 0.33786
 O159 O 0.65688 1.02030 0.31244
 O160 O 0.68744 0.97628 0.34358
 O161 O 0.65687 0.97655 0.31207
 O162 O 0.68758 1.01993 0.34378
 Cu163 Cu 0.64232 0.99810 0.35591
 Cu164 Cu 0.67490 0.99827 0.32542
 C165 C 0.67942 1.02730 0.36200
 C166 C 0.63793 0.96918 0.31920
 C167 C 0.67910 0.96860 0.36159
 C168 C 0.63803 1.02773 0.31975
 C169 C 0.81112 0.81076 0.51204
 C170 C 0.81165 0.81043 0.48928
 C171 C 0.82804 0.79615 0.47681
 C172 C 0.79680 0.82534 0.47560
 C173 C 0.79705 0.82741 0.52433
 C174 C 0.82572 0.79567 0.52581
 C175 C 0.85155 0.79798 0.48052
 C176 C 0.86679 0.78461 0.46850
 C177 C 0.85880 0.76942 0.45232
 C178 C 0.83527 0.76789 0.44843
 C179 C 0.82004 0.78119 0.46052
 C180 C 0.80660 0.83895 0.45906
 C181 C 0.79318 0.85365 0.44655
 C182 C 0.76961 0.85518 0.45035
 C183 C 0.75971 0.84107 0.46652
 C184 C 0.77315 0.82615 0.47888
 C185 C 0.78083 0.81999 0.53982
 C186 C 0.76761 0.83553 0.55158
 C187 C 0.77061 0.85877 0.54825
 C188 C 0.78709 0.86614 0.53289
 C189 C 0.80024 0.85060 0.52110
 C190 C 0.82668 0.77235 0.52195
 C191 C 0.84179 0.75880 0.53400
 C192 C 0.85586 0.76820 0.55056
 C193 C 0.85395 0.79136 0.55513
 C194 C 0.83914 0.80491 0.54284
 H195 H 0.85809 0.80984 0.49264
 H196 H 0.88485 0.78644 0.47157
 H197 H 0.82861 0.75621 0.43621
 H198 H 0.80197 0.77968 0.45732
 H199 H 0.82477 0.83845 0.45605
 H200 H 0.80130 0.86382 0.43386
 H201 H 0.76513 0.81544 0.49122
 H202 H 0.77834 0.80216 0.54269
 H203 H 0.75530 0.82937 0.56356
 H204 H 0.78967 0.88394 0.52988
 H205 H 0.81295 0.85663 0.50946
 H206 H 0.81607 0.76471 0.50929
 H207 H 0.84283 0.74108 0.52994
 H208 H 0.86398 0.79910 0.56817
 H209 H 0.83853 0.82279 0.54635
 H210 H 0.74164 0.84187 0.46996
 C211 C 0.18484 0.18533 0.51150
 C212 C 0.18547 0.18564 0.48877
 C213 C 0.17070 0.20084 0.47535
 C214 C 0.20045 0.16997 0.47617
 C215 C 0.20055 0.17086 0.52447
 C216 C 0.16827 0.19881 0.52458
 C217 C 0.15753 0.19186 0.45800
 C218 C 0.14291 0.20562 0.44571
 C219 C 0.14106 0.22872 0.45053
 C220 C 0.15477 0.23783 0.46752
 C221 C 0.16959 0.22406 0.47967
 C222 C 0.19850 0.14658 0.47895
 C223 C 0.21252 0.13195 0.46697
 C224 C 0.22852 0.14041 0.45169
 C225 C 0.23016 0.16383 0.44864
 C226 C 0.21621 0.17847 0.46075
 C227 C 0.22407 0.17499 0.52444
 C228 C 0.23875 0.16090 0.53639
 C229 C 0.23012 0.14232 0.54813
 C230 C 0.20659 0.13831 0.54820
 C231 C 0.19188 0.15267 0.53670
 C232 C 0.17608 0.21293 0.54169
 C233 C 0.16076 0.22574 0.55418
 C234 C 0.13727 0.22459 0.54988
 C235 C 0.12944 0.21019 0.53293
 C236 C 0.14479 0.19729 0.52051
 H237 H 0.15828 0.17405 0.45418
 H238 H 0.13306 0.19813 0.43239
 H239 H 0.15371 0.25551 0.47176
 H240 H 0.17998 0.23147 0.49264
 H241 H 0.18596 0.13965 0.49027
 H242 H 0.21054 0.11398 0.46934
 H243 H 0.21782 0.19646 0.45824
 H244 H 0.23097 0.18906 0.51515
 H245 H 0.25687 0.16422 0.53614
 H246 H 0.19962 0.12413 0.55729
 H247 H 0.17376 0.14933 0.53689
 H248 H 0.19411 0.21427 0.54518
 H249 H 0.16732 0.23683 0.56698
 H250 H 0.11142 0.20867 0.52950
 H251 H 0.13835 0.18608 0.50775
 H252 H 0.24241 0.17083 0.43707
 C253 C 0.18776 0.81386 0.48940
 C254 C 0.18834 0.81444 0.51206
 C255 C 0.17407 0.79922 0.52570
 C256 C 0.20264 0.83088 0.52430
 C257 C 0.20262 0.82861 0.47585
 C258 C 0.17189 0.79899 0.47702
 C259 C 0.15690 0.80827 0.53917
 C260 C 0.14258 0.79413 0.55136
 C261 C 0.14551 0.77060 0.55076
 C262 C 0.16317 0.76165 0.53757
 C263 C 0.17723 0.77583 0.52504
 C264 C 0.19955 0.85411 0.52130
 C265 C 0.21286 0.86948 0.53316
 C266 C 0.22941 0.86188 0.54834
 C267 C 0.23233 0.83858 0.55141
 C268 C 0.21896 0.82323 0.53958
 C269 C 0.22629 0.82577 0.47594
 C270 C 0.24013 0.83996 0.46319
 C271 C 0.23054 0.85746 0.45038
 C272 C 0.20672 0.86016 0.45049
 C273 C 0.19292 0.84570 0.46287
 C274 C 0.18038 0.78411 0.46088
 C275 C 0.16560 0.77029 0.44883
 C276 C 0.14201 0.77118 0.45263
 C277 C 0.13353 0.78624 0.46869
 C278 C 0.14832 0.80013 0.48065
 H279 H 0.15418 0.82630 0.53974
 H280 H 0.12893 0.80168 0.56087
 H281 H 0.16627 0.74370 0.53700
 H282 H 0.19058 0.76862 0.51485
 H283 H 0.18673 0.86034 0.50988
 H284 H 0.21032 0.88731 0.53033
 H285 H 0.22141 0.80536 0.54226
 H286 H 0.23398 0.81249 0.48576
 H287 H 0.25830 0.83703 0.46322
 H288 H 0.19869 0.87369 0.44132
 H289 H 0.17465 0.84815 0.46276
 H290 H 0.19851 0.78308 0.45774
 H291 H 0.17264 0.75874 0.43669
 H292 H 0.11541 0.78760 0.47168
 H293 H 0.14135 0.81196 0.49257
 H294 H 0.24469 0.83223 0.56324
 C295 C 0.80776 0.18912 0.48662
 C296 C 0.80828 0.18942 0.50938
 C297 C 0.82484 0.20354 0.52174
 C298 C 0.79333 0.17467 0.52313
 C299 C 0.79393 0.17233 0.47430
 C300 C 0.82230 0.20437 0.47294
 C301 C 0.84833 0.20086 0.51844
 C302 C 0.86379 0.21400 0.53039
 C303 C 0.85603 0.22997 0.54593
 C304 C 0.83250 0.23249 0.54929
 C305 C 0.81705 0.21927 0.53741
 C306 C 0.80296 0.16142 0.54008
 C307 C 0.78936 0.14721 0.55295
 C308 C 0.76583 0.14588 0.54910
 C309 C 0.75610 0.15936 0.53235
 C310 C 0.76970 0.17383 0.51964
 C311 C 0.77772 0.17953 0.45870
 C312 C 0.76480 0.16381 0.44685
 C313 C 0.76815 0.14061 0.45019
 C314 C 0.78461 0.13346 0.46566
 C315 C 0.79742 0.14918 0.47758
 C316 C 0.82313 0.22766 0.47698
 C317 C 0.83827 0.24137 0.46515
 C318 C 0.85249 0.23216 0.44860
 C319 C 0.85067 0.20904 0.44381
 C320 C 0.83585 0.19532 0.45589
 H321 H 0.85465 0.18854 0.50665
 H322 H 0.88182 0.21180 0.52737
 H323 H 0.82606 0.24442 0.56141
 H324 H 0.79898 0.22137 0.54032
 H325 H 0.82112 0.16180 0.54313
 H326 H 0.79732 0.13686 0.56562
 H327 H 0.76179 0.18430 0.50704
 H328 H 0.77499 0.19733 0.45580
 H329 H 0.75247 0.16979 0.43481
 H330 H 0.78745 0.11570 0.46866
 H331 H 0.81012 0.14331 0.48931
 H332 H 0.81241 0.23517 0.48964
 H333 H 0.83920 0.25905 0.46939
 H334 H 0.86080 0.20145 0.43074
 H335 H 0.83533 0.17748 0.45223
 H336 H 0.73795 0.15886 0.52925
 C337 C 0.51029 0.81371 0.81382
 C338 C 0.48705 0.81375 0.81398
 C339 C 0.47355 0.82851 0.79887
 C340 C 0.47389 0.79985 0.83008
 C341 C 0.52377 0.79841 0.82841
 C342 C 0.52349 0.82979 0.79989
 C343 C 0.45661 0.84247 0.80784
 C344 C 0.44441 0.85716 0.79416
 C345 C 0.44893 0.85834 0.77115
 C346 C 0.46545 0.84384 0.76206
 C347 C 0.47748 0.82892 0.77575
 C348 C 0.47752 0.80180 0.85315
 C349 C 0.46507 0.78860 0.86809
 C350 C 0.44852 0.77345 0.86027
 C351 C 0.44463 0.77187 0.83719
 C352 C 0.45716 0.78500 0.82225
 C353 C 0.51972 0.77510 0.82890
 C354 C 0.53176 0.76125 0.84365
 C355 C 0.54840 0.77037 0.85789
 C356 C 0.55303 0.79357 0.85665
 C357 C 0.54083 0.80741 0.84212
 C358 C 0.54009 0.82168 0.78513
 C359 C 0.55269 0.83660 0.77201
 C360 C 0.54900 0.85994 0.77349
 C361 C 0.53258 0.86804 0.78855
 C362 C 0.52006 0.85311 0.80174
 H363 H 0.45309 0.84228 0.82557
 H364 H 0.43142 0.86763 0.80165
 H365 H 0.46946 0.84434 0.74445
 H366 H 0.49011 0.81794 0.76836
 H367 H 0.48997 0.81357 0.85956
 H368 H 0.46815 0.79048 0.88580
 H369 H 0.45401 0.78339 0.80452
 H370 H 0.50699 0.76769 0.81812
 H371 H 0.52769 0.74349 0.84421
 H372 H 0.56612 0.80110 0.86692
 H373 H 0.54444 0.82529 0.84187
 H374 H 0.54310 0.80376 0.78360
 H375 H 0.56509 0.82985 0.76044
 H376 H 0.52965 0.88595 0.79036
 H377 H 0.50772 0.85974 0.81344
 H378 H 0.43213 0.76022 0.83066
 C379 C 0.51255 0.18818 0.18797
 C380 C 0.48932 0.18860 0.18775
 C381 C 0.47553 0.17409 0.20283
 C382 C 0.47648 0.20259 0.17150
 C383 C 0.52636 0.20316 0.17337
 C384 C 0.52537 0.17178 0.20186
 C385 C 0.45843 0.16039 0.19380
 C386 C 0.44606 0.14579 0.20741
 C387 C 0.45058 0.14446 0.23042
 C388 C 0.46722 0.15875 0.23958
 C389 C 0.47941 0.17358 0.22595
 C390 C 0.48017 0.20035 0.14847
 C391 C 0.46797 0.21358 0.13336
 C392 C 0.45160 0.22905 0.14097
 C393 C 0.44767 0.23095 0.16402
 C394 C 0.45995 0.21778 0.17913
 C395 C 0.52268 0.22653 0.17273
 C396 C 0.53493 0.24007 0.15790
 C397 C 0.55142 0.23057 0.14371
 C398 C 0.55570 0.20731 0.14513
 C399 C 0.54329 0.19378 0.15975
 C400 C 0.54204 0.17947 0.21675
 C401 C 0.55430 0.16422 0.22982
 C402 C 0.55020 0.14097 0.22811
 C403 C 0.53371 0.13329 0.21293
 C404 C 0.52152 0.14855 0.19981
 H405 H 0.45493 0.16066 0.17606
 H406 H 0.43297 0.13549 0.19987
 H407 H 0.47121 0.15812 0.25719
 H408 H 0.49218 0.18436 0.23338
 H409 H 0.49245 0.18831 0.14222
 H410 H 0.47106 0.21145 0.11568
 H411 H 0.45675 0.21961 0.19683
 H412 H 0.51005 0.23422 0.18345
 H413 H 0.53112 0.25789 0.15719
 H414 H 0.56867 0.19950 0.13491
 H415 H 0.54661 0.17584 0.16012
 H416 H 0.54535 0.19733 0.21843
 H417 H 0.56677 0.17064 0.24148
 H418 H 0.53049 0.11546 0.21096
 H419 H 0.50913 0.14225 0.18800
 H420 H 0.43529 0.24283 0.17039
 C421 C 0.49031 0.18949 0.81294
 C422 C 0.51353 0.18917 0.81306
 C423 C 0.52647 0.17274 0.79940
 C424 C 0.52715 0.20407 0.82789
 C425 C 0.47716 0.20329 0.82907
 C426 C 0.47686 0.17488 0.79767
 C427 C 0.52320 0.14951 0.80224
 C428 C 0.53536 0.13415 0.78926
 C429 C 0.55111 0.14176 0.77330
 C430 C 0.55456 0.16504 0.77072
 C431 C 0.54245 0.18039 0.78378
 C432 C 0.54405 0.19464 0.84154
 C433 C 0.55630 0.20808 0.85636
 C434 C 0.55189 0.23129 0.85797
 C435 C 0.53544 0.24086 0.84378
 C436 C 0.52334 0.22742 0.82875
 C437 C 0.46061 0.21839 0.82131
 C438 C 0.44808 0.23141 0.83633
 C439 C 0.45180 0.22945 0.85941
 C440 C 0.46815 0.21402 0.86715
 C441 C 0.48059 0.20094 0.85213
 C442 C 0.48104 0.17451 0.77459
 C443 C 0.46926 0.15955 0.76078
 C444 C 0.45273 0.14496 0.76971
 C445 C 0.44791 0.14614 0.79266
 C446 C 0.45987 0.16088 0.80646
 H447 H 0.51116 0.14331 0.81447
 H448 H 0.53226 0.11632 0.79151
 H449 H 0.56683 0.17134 0.75878
 H450 H 0.54534 0.19826 0.78156
 H451 H 0.54749 0.17673 0.84104
 H452 H 0.56925 0.20022 0.86659
 H453 H 0.51074 0.23516 0.81803
 H454 H 0.45761 0.22028 0.80358
 H455 H 0.43572 0.24327 0.82987
 H456 H 0.47107 0.21184 0.88486
 H457 H 0.49287 0.18894 0.85848
 H458 H 0.49373 0.18552 0.76734
 H459 H 0.47347 0.15906 0.74321
 H460 H 0.43489 0.13560 0.80002
 H461 H 0.45616 0.16102 0.82416
 H462 H 0.53153 0.25865 0.84463
 C463 C 0.48753 0.81236 0.18546
 C464 C 0.51077 0.81232 0.18523
 C465 C 0.52412 0.82836 0.19901
 C466 C 0.52406 0.79715 0.17034
 C467 C 0.47412 0.79870 0.16941
 C468 C 0.47433 0.82710 0.20084
 C469 C 0.52069 0.85168 0.19711
 C470 C 0.53315 0.86659 0.21034
 C471 C 0.54949 0.85847 0.22546
 C472 C 0.55324 0.83514 0.22694
 C473 C 0.54070 0.82023 0.21378
 C474 C 0.54102 0.80627 0.15658
 C475 C 0.55311 0.79257 0.14186
 C476 C 0.54848 0.76938 0.14047
 C477 C 0.53191 0.76013 0.15474
 C478 C 0.51998 0.77385 0.16967
 C479 C 0.45745 0.78380 0.17730
 C480 C 0.44474 0.77084 0.16238
 C481 C 0.44839 0.77266 0.13927
 C482 C 0.46483 0.78790 0.13140
 C483 C 0.47746 0.80093 0.14633
 C484 C 0.47860 0.82734 0.22390
 C485 C 0.46706 0.84243 0.23780
 C486 C 0.45069 0.85728 0.22896
 C487 C 0.44577 0.85622 0.20603
 C488 C 0.45748 0.84135 0.19214
 H489 H 0.50836 0.85830 0.18540
 H490 H 0.53020 0.88449 0.20853
 H491 H 0.56559 0.82839 0.23856
 H492 H 0.54368 0.80230 0.21533
 H493 H 0.54467 0.82414 0.15696
 H494 H 0.56615 0.80018 0.13156
 H495 H 0.50732 0.76634 0.18048
 H496 H 0.45451 0.78200 0.19504
 H497 H 0.43231 0.75913 0.16894
 H498 H 0.46771 0.78998 0.11368
 H499 H 0.48984 0.81277 0.13988
 H500 H 0.49119 0.81616 0.23107
 H501 H 0.47134 0.84282 0.25535
 H502 H 0.43286 0.86696 0.19874
 H503 H 0.45370 0.84129 0.17446
 H504 H 0.52783 0.74238 0.15406
 C505 C 0.81249 0.51189 0.81179
 C506 C 0.81308 0.48898 0.81286
 C507 C 0.79982 0.47609 0.82957
 C508 C 0.82779 0.47563 0.79778
 C509 C 0.82802 0.52440 0.79669
 C510 C 0.79735 0.52557 0.82640
 C511 C 0.80267 0.47995 0.85249
 C512 C 0.78985 0.46785 0.86803
 C513 C 0.77402 0.45164 0.86089
 C514 C 0.77149 0.44759 0.83793
 C515 C 0.78439 0.45961 0.82243
 C516 C 0.84630 0.46368 0.80659
 C517 C 0.86093 0.45184 0.79249
 C518 C 0.85689 0.45129 0.76943
 C519 C 0.83799 0.46275 0.76066
 C520 C 0.82363 0.47504 0.77474
 C521 C 0.81913 0.53931 0.78078
 C522 C 0.83368 0.55122 0.76660
 C523 C 0.85739 0.54846 0.76817
 C524 C 0.86624 0.53374 0.78436
 C525 C 0.85170 0.52196 0.79859
 C526 C 0.77402 0.52082 0.82840
 C527 C 0.76044 0.53300 0.84330
 C528 C 0.76980 0.55055 0.85612
 C529 C 0.79294 0.55591 0.85324
 C530 C 0.80654 0.54353 0.83862
 H531 H 0.81476 0.49240 0.85830
 H532 H 0.79206 0.47138 0.88561
 H533 H 0.75969 0.43495 0.83199
 H534 H 0.78213 0.45628 0.80481
 H535 H 0.84970 0.46398 0.82435
 H536 H 0.87534 0.44298 0.79956
 H537 H 0.80933 0.48411 0.76773
 H538 H 0.80090 0.54155 0.77922
 H539 H 0.82639 0.56238 0.75422
 H540 H 0.88444 0.53164 0.78627
 H541 H 0.85892 0.51104 0.81121
 H542 H 0.76638 0.50744 0.81871
 H543 H 0.74275 0.52830 0.84511
 H544 H 0.80061 0.56970 0.86232
 H545 H 0.82441 0.54773 0.83717
 H546 H 0.83463 0.46253 0.74290
 C547 C 0.18914 0.51067 0.18854
 C548 C 0.18851 0.48770 0.18882
 C549 C 0.20363 0.47397 0.17428
 C550 C 0.17208 0.47515 0.20301
 C551 C 0.17528 0.52453 0.20414
 C552 C 0.20292 0.52318 0.17186
 C553 C 0.19424 0.45702 0.16083
 C554 C 0.20806 0.44444 0.14657
 C555 C 0.23156 0.44862 0.14543
 C556 C 0.24105 0.46526 0.15921
 C557 C 0.22725 0.47764 0.17371
 C558 C 0.14862 0.47949 0.20172
 C559 C 0.13335 0.46759 0.21514
 C560 C 0.14121 0.45088 0.22988
 C561 C 0.16466 0.44632 0.23085
 C562 C 0.17993 0.45830 0.21750
 C563 C 0.17553 0.52053 0.22725
 C564 C 0.16163 0.53312 0.24149
 C565 C 0.14770 0.55030 0.23292
 C566 C 0.14805 0.55477 0.20993
 C567 C 0.16168 0.54200 0.19568
 C568 C 0.21910 0.53896 0.17900
 C569 C 0.23192 0.55104 0.16345
 C570 C 0.22857 0.54778 0.14046
 C571 C 0.21217 0.53212 0.13336
 C572 C 0.19943 0.51995 0.14892
 H573 H 0.17610 0.45382 0.16105
 H574 H 0.20030 0.43181 0.13601
 H575 H 0.25917 0.46856 0.15887
 H576 H 0.23497 0.49021 0.18436
 H577 H 0.14215 0.49205 0.19025
 H578 H 0.11535 0.47120 0.21372
 H579 H 0.19795 0.45460 0.21863
 H580 H 0.18633 0.50753 0.23423
 H581 H 0.16187 0.52956 0.25920
 H582 H 0.13733 0.56781 0.20289
 H583 H 0.16126 0.54546 0.17795
 H584 H 0.22184 0.54182 0.19663
 H585 H 0.24421 0.56322 0.16939
 H586 H 0.20932 0.52916 0.11576
 H587 H 0.18677 0.50809 0.14310
 H588 H 0.17124 0.43367 0.24217
 C589 C 0.81332 0.48998 0.18699
 C590 C 0.81321 0.51291 0.18763
 C591 C 0.79817 0.52652 0.17289
 C592 C 0.82907 0.52544 0.20239
 C593 C 0.82786 0.47664 0.20223
 C594 C 0.79972 0.47707 0.17058
 C595 C 0.80759 0.54370 0.15977
 C596 C 0.79402 0.55586 0.14493
 C597 C 0.77067 0.55107 0.14282
 C598 C 0.76110 0.53435 0.15655
 C599 C 0.77467 0.52235 0.17158
 C600 C 0.85269 0.52248 0.20050
 C601 C 0.86752 0.53423 0.21446
 C602 C 0.85903 0.54945 0.23037
 C603 C 0.83538 0.55271 0.23193
 C604 C 0.82054 0.54084 0.21801
 C605 C 0.82385 0.47657 0.22530
 C606 C 0.83814 0.46438 0.23954
 C607 C 0.85681 0.45249 0.23088
 C608 C 0.86067 0.45249 0.20778
 C609 C 0.84611 0.46423 0.19353
 C610 C 0.78390 0.46110 0.17808
 C611 C 0.77084 0.44893 0.16282
 C612 C 0.77362 0.45229 0.13978
 C613 C 0.78978 0.46802 0.13230
 C614 C 0.80274 0.48031 0.14758
 H615 H 0.82561 0.54740 0.16067
 H616 H 0.80186 0.56900 0.13505
 H617 H 0.74322 0.53015 0.15532
 H618 H 0.76691 0.50953 0.18193
 H619 H 0.85964 0.51117 0.18809
 H620 H 0.88566 0.53172 0.21255
 H621 H 0.80237 0.54347 0.21958
 H622 H 0.80975 0.48601 0.23222
 H623 H 0.83494 0.46459 0.25733
 H624 H 0.87491 0.44329 0.20081
 H625 H 0.84937 0.46412 0.17575
 H626 H 0.78150 0.45826 0.19577
 H627 H 0.75875 0.43668 0.16903
 H628 H 0.79219 0.47101 0.11464
 H629 H 0.81511 0.49235 0.14151
 H630 H 0.82835 0.56424 0.24410
 C631 C 0.18748 0.48595 0.81184
 C632 C 0.18744 0.50894 0.81194
 C633 C 0.20116 0.52204 0.82820
 C634 C 0.17261 0.52221 0.79667
 C635 C 0.17116 0.47302 0.79795
 C636 C 0.20268 0.47255 0.82667
 C637 C 0.19883 0.51848 0.85124
 C638 C 0.21179 0.53095 0.86635
 C639 C 0.22707 0.54746 0.85872
 C640 C 0.22904 0.55126 0.83565
 C641 C 0.21615 0.53870 0.82055
 C642 C 0.15824 0.53882 0.80549
 C643 C 0.14350 0.55081 0.79164
 C644 C 0.14270 0.54641 0.76861
 C645 C 0.15760 0.53020 0.75967
 C646 C 0.17255 0.51836 0.77354
 C647 C 0.17923 0.45715 0.78256
 C648 C 0.16400 0.44483 0.76949
 C649 C 0.14040 0.44797 0.77180
 C650 C 0.13237 0.46367 0.78748
 C651 C 0.14761 0.47603 0.80049
 C652 C 0.22615 0.47688 0.82799
 C653 C 0.23978 0.46506 0.84313
 C654 C 0.23033 0.44827 0.85688
 C655 C 0.20704 0.44327 0.85468
 C656 C 0.19339 0.45532 0.83984
 H657 H 0.18692 0.50608 0.85750
 H658 H 0.20960 0.52794 0.88404
 H659 H 0.24079 0.56374 0.82927
 H660 H 0.21804 0.54181 0.80284
 H661 H 0.15815 0.54226 0.82323
 H662 H 0.13271 0.56357 0.79902
 H663 H 0.18384 0.50596 0.76629
 H664 H 0.19735 0.45444 0.78058
 H665 H 0.17067 0.43261 0.75780
 H666 H 0.11430 0.46656 0.78952
 H667 H 0.14106 0.48794 0.81256
 H668 H 0.23384 0.48971 0.81760
 H669 H 0.25760 0.46946 0.84440
 H670 H 0.19927 0.43003 0.86448
 H671 H 0.17541 0.45144 0.83895
 H672 H 0.15738 0.52631 0.74204
 C673 C 0.28469 0.39935 0.08033
 C674 C 0.30723 0.40523 0.07499
 C675 C 0.31913 0.39359 0.05840
 C676 C 0.30881 0.37569 0.04692
 C677 C 0.28634 0.36974 0.05230
 C678 C 0.27439 0.38149 0.06871
 C679 C 0.27182 0.41189 0.09771
 C680 C 0.25643 0.40060 0.11179
 C681 C 0.24356 0.41248 0.12744
 C682 C 0.24596 0.43590 0.12955
 C683 C 0.26168 0.44717 0.11591
 C684 C 0.27440 0.43532 0.10008
 H685 H 0.33647 0.39848 0.05472
 H686 H 0.27786 0.35613 0.04364
 H687 H 0.23177 0.40336 0.13798
 H688 H 0.26364 0.46527 0.11704
 H689 H 0.25693 0.37679 0.07204
 H690 H 0.25436 0.38252 0.11078
 H691 H 0.31580 0.41867 0.08381
 H692 H 0.28581 0.44462 0.08931
 C693 C 0.71668 0.59941 0.07751
 C694 C 0.72638 0.61776 0.06621
 C695 C 0.71388 0.62964 0.05027
 C696 C 0.69146 0.62330 0.04511
 C697 C 0.68171 0.60496 0.05645
 C698 C 0.69417 0.59321 0.07260
 C699 C 0.73021 0.58668 0.09415
 C700 C 0.72082 0.58072 0.11487
 C701 C 0.73389 0.56920 0.13070
 C702 C 0.75658 0.56323 0.12606
 C703 C 0.76578 0.56892 0.10514
 C704 C 0.75279 0.58060 0.08944
 H705 H 0.72189 0.64369 0.04184
 H706 H 0.66445 0.59970 0.05287
 H707 H 0.72635 0.56534 0.14673
 H708 H 0.78298 0.56413 0.10077
 H709 H 0.68635 0.57902 0.08097
 H710 H 0.70351 0.58539 0.11899
 H711 H 0.74362 0.62304 0.06985
 H712 H 0.76033 0.58466 0.07345
 C713 C 0.72034 0.40091 0.92433
 C714 C 0.69844 0.40806 0.93052
 C715 C 0.68571 0.39576 0.94599
 C716 C 0.69458 0.37597 0.95550
 C717 C 0.71639 0.36870 0.94910
 C718 C 0.72915 0.38107 0.93374
 C719 C 0.73402 0.41412 0.90820
 C720 C 0.75730 0.41791 0.91202
 C721 C 0.77025 0.43024 0.89676
 C722 C 0.76022 0.43891 0.87730
 C723 C 0.73693 0.43517 0.87351
 C724 C 0.72395 0.42296 0.88884
 H725 H 0.66898 0.40182 0.95060
 H726 H 0.72371 0.35353 0.95611
 H727 H 0.78820 0.43272 0.90001
 H728 H 0.72871 0.44185 0.85875
 H729 H 0.74586 0.37501 0.92906
 H730 H 0.76546 0.41149 0.92691
 H731 H 0.69131 0.42340 0.92368
 H732 H 0.70608 0.42016 0.88539
 C733 C 0.28003 0.59954 0.92174
 C734 C 0.27225 0.62076 0.92878
 C735 C 0.28453 0.63319 0.94445
 C736 C 0.30493 0.62472 0.95340
 C737 C 0.31283 0.60360 0.94620
 C738 C 0.30049 0.59113 0.93057
 C739 C 0.26670 0.58615 0.90544
 C740 C 0.26382 0.56285 0.90843
 C741 C 0.25097 0.55030 0.89328
 C742 C 0.24079 0.56076 0.87476
 C743 C 0.24378 0.58404 0.87171
 C744 C 0.25655 0.59660 0.88690
 H745 H 0.27795 0.64938 0.94968
 H746 H 0.32849 0.59661 0.95274
 H747 H 0.24915 0.53236 0.89594
 H748 H 0.23597 0.59260 0.85771
 H749 H 0.30705 0.57496 0.92526
 H750 H 0.27124 0.55438 0.92267
 H751 H 0.25640 0.62756 0.92247
 H752 H 0.25865 0.61448 0.88405
 C753 C 0.07719 0.28361 0.40071
 C754 C 0.07244 0.30595 0.40684
 C755 C 0.05642 0.31860 0.39495
 C756 C 0.04504 0.30924 0.37654
 C757 C 0.05013 0.28702 0.37019
 C758 C 0.06594 0.27433 0.38221
 C759 C 0.09349 0.26983 0.41374
 C760 C 0.08801 0.24759 0.41958
 C761 C 0.10334 0.23441 0.43167
 C762 C 0.12465 0.24306 0.43804
 C763 C 0.13006 0.26540 0.43230
 C764 C 0.11460 0.27868 0.42036
 H765 H 0.05290 0.33568 0.40023
 H766 H 0.04166 0.27932 0.35609
 H767 H 0.09836 0.21748 0.43625
 H768 H 0.14642 0.27251 0.43667
 H769 H 0.06947 0.25723 0.37698
 H770 H 0.07169 0.24048 0.41503
 H771 H 0.08076 0.31345 0.42113
 H772 H 0.11931 0.29572 0.41590
 C773 C 0.08222 0.71370 0.59963
 C774 C 0.08100 0.71427 0.62308
 C775 C 0.06438 0.70202 0.63447
 C776 C 0.04893 0.68846 0.62275
 C777 C 0.05047 0.68726 0.59943
 C778 C 0.06677 0.69992 0.58797
 C779 C 0.09909 0.72786 0.58742
 C780 C 0.10862 0.72059 0.56713
 C781 C 0.12370 0.73434 0.55531
 C782 C 0.12999 0.75558 0.56363
 C783 C 0.12089 0.76259 0.58418
 C784 C 0.10549 0.74905 0.59577
 H785 H 0.06372 0.70301 0.65250
 H786 H 0.03863 0.67704 0.59000
 H787 H 0.13008 0.72843 0.53942
 H788 H 0.12563 0.77861 0.59140
 H789 H 0.06683 0.69931 0.56994
 H790 H 0.10445 0.70424 0.56031
 H791 H 0.09291 0.72416 0.63273
 H792 H 0.09831 0.75549 0.61112
 C793 C 0.92255 0.71559 0.40151
 C794 C 0.92994 0.72310 0.38050
 C795 C 0.94590 0.71072 0.36835
 C796 C 0.95479 0.69051 0.37692
 C797 C 0.94720 0.68287 0.39783
 C798 C 0.93129 0.69530 0.41001
 C799 C 0.90600 0.72905 0.41461
 C800 C 0.90897 0.73204 0.43767
 C801 C 0.89364 0.74511 0.44992
 C802 C 0.87498 0.75539 0.43938
 C803 C 0.87192 0.75227 0.41634
 C804 C 0.88729 0.73927 0.40408
 H805 H 0.95142 0.71711 0.35232
 H806 H 0.95369 0.66735 0.40488
 H807 H 0.89630 0.74704 0.46769
 H808 H 0.85782 0.76015 0.40773
 H809 H 0.92569 0.68895 0.42603
 H810 H 0.92335 0.72456 0.44620
 H811 H 0.92371 0.73881 0.37364
 H812 H 0.88445 0.73709 0.38637
 C813 C 0.91941 0.28287 0.59792
 C814 C 0.92626 0.30445 0.59105
 C815 C 0.94194 0.31675 0.60366
 C816 C 0.95097 0.30775 0.62347
 C817 C 0.94380 0.28631 0.63050
 C818 C 0.92825 0.27400 0.61784
 C819 C 0.90331 0.26948 0.58429
 C820 C 0.90718 0.24641 0.58074
 C821 C 0.89193 0.23366 0.56813
 C822 C 0.87243 0.24367 0.55890
 C823 C 0.86860 0.26676 0.56236
 C824 C 0.88393 0.27956 0.57487
 H825 H 0.94714 0.33321 0.59779
 H826 H 0.95039 0.27890 0.64569
 H827 H 0.89521 0.21586 0.56590
 H828 H 0.85380 0.27495 0.55527
 H829 H 0.92302 0.25754 0.62370
 H830 H 0.92210 0.23825 0.58760
 H831 H 0.91985 0.31162 0.57567
 H832 H 0.88046 0.29727 0.57746
 C833 C 0.40107 0.08003 0.28441
 C834 C 0.38258 0.06851 0.27494
 C835 C 0.37055 0.05257 0.28733
 C836 C 0.37689 0.04761 0.30940
 C837 C 0.39530 0.05926 0.31893
 C838 C 0.40719 0.07543 0.30659
 C839 C 0.41413 0.09646 0.27092
 C840 C 0.41997 0.11762 0.27964
 C841 C 0.43180 0.13325 0.26656
 C842 C 0.43822 0.12791 0.24457
 C843 C 0.43269 0.10652 0.23610
 C844 C 0.42068 0.09105 0.24907
 H845 H 0.35646 0.04389 0.27950
 H846 H 0.40055 0.05584 0.33592
 H847 H 0.43553 0.14964 0.27353
 H848 H 0.43785 0.10161 0.21946
 H849 H 0.42147 0.08399 0.31421
 H850 H 0.41494 0.12225 0.29640
 H851 H 0.37738 0.07193 0.25794
 H852 H 0.41673 0.07470 0.24209
 C853 C 0.60131 0.07798 0.71941
 C854 C 0.59330 0.07155 0.69827
 C855 C 0.60524 0.05576 0.68554
 C856 C 0.62550 0.04619 0.69365
 C857 C 0.63362 0.05283 0.71469
 C858 C 0.62162 0.06851 0.72745
 C859 C 0.58842 0.09434 0.73316
 C860 C 0.58542 0.09060 0.75612
 C861 C 0.57327 0.10596 0.76912
 C862 C 0.56396 0.12545 0.75946
 C863 C 0.56699 0.12923 0.73652
 C864 C 0.57903 0.11379 0.72348
 H865 H 0.59854 0.05098 0.66941
 H866 H 0.64918 0.04581 0.72141
 H867 H 0.57137 0.10272 0.78680
 H868 H 0.55981 0.14401 0.72861
 H869 H 0.62833 0.07338 0.74356
 H870 H 0.59228 0.07564 0.76398
 H871 H 0.57758 0.07842 0.69176
 H872 H 0.58123 0.11718 0.70586
 C873 C 0.40009 0.92286 0.71653
 C874 C 0.40640 0.92714 0.69434
 C875 C 0.39480 0.94333 0.68174
 C876 C 0.37648 0.95533 0.69103
 C877 C 0.36994 0.95072 0.71311
 C878 C 0.38170 0.93475 0.72575
 C879 C 0.41286 0.90637 0.73024
 C880 C 0.41934 0.91185 0.75210
 C881 C 0.43120 0.89636 0.76521
 C882 C 0.43666 0.87489 0.75688
 C883 C 0.43026 0.86947 0.73491
 C884 C 0.41858 0.88509 0.72170
 H885 H 0.40021 0.94647 0.66476
 H886 H 0.35591 0.95968 0.72075
 H887 H 0.43633 0.90134 0.78183
 H888 H 0.43391 0.85300 0.72804
 H889 H 0.37635 0.93160 0.74276
 H890 H 0.41548 0.92827 0.75896
 H891 H 0.42062 0.91830 0.68689
 H892 H 0.41361 0.88039 0.70494
 C893 C 0.60068 0.92070 0.28030
 C894 C 0.62233 0.92798 0.27345
 C895 C 0.63450 0.94356 0.28618
 C896 C 0.62532 0.95216 0.30608
 C897 C 0.60377 0.94469 0.31306
 C898 C 0.59157 0.92916 0.30029
 C899 C 0.58753 0.90459 0.26648
 C900 C 0.56407 0.90769 0.26310
 C901 C 0.55174 0.89273 0.24979
 C902 C 0.56259 0.87430 0.23964
 C903 C 0.58602 0.87113 0.24312
 C904 C 0.59836 0.88613 0.25636
 H905 H 0.65103 0.94901 0.28031
 H906 H 0.59624 0.95095 0.32833
 H907 H 0.53366 0.89547 0.24760
 H908 H 0.59487 0.85719 0.23535
 H909 H 0.57506 0.92363 0.30613
 H910 H 0.55530 0.92188 0.27048
 H911 H 0.62967 0.92197 0.25800
 H912 H 0.61638 0.88319 0.25883
 C913 C 0.40030 0.28319 0.92222
 C914 C 0.37874 0.27597 0.92937
 C915 C 0.36650 0.28843 0.94508
 C916 C 0.37553 0.30843 0.95392
 C917 C 0.39699 0.31578 0.94657
 C918 C 0.40926 0.30327 0.93092
 C919 C 0.41352 0.26965 0.90596
 C920 C 0.43701 0.26632 0.90893
 C921 C 0.44941 0.25329 0.89383
 C922 C 0.43863 0.24338 0.87537
 C923 C 0.41518 0.24681 0.87232
 C924 C 0.40275 0.25977 0.88748
 H925 H 0.35003 0.28229 0.95042
 H926 H 0.40441 0.33114 0.95302
 H927 H 0.46751 0.25112 0.89648
 H928 H 0.40637 0.23922 0.85836
 H929 H 0.42570 0.30940 0.92550
 H930 H 0.44573 0.27353 0.92314
 H931 H 0.37151 0.26042 0.92315
 H932 H 0.38472 0.26222 0.88464
 C933 C 0.59844 0.71561 0.92118
 C934 C 0.59262 0.69312 0.92563
 C935 C 0.60487 0.68063 0.94138
 C936 C 0.62334 0.69032 0.95276
 C937 C 0.62936 0.71271 0.94798
 C938 C 0.61697 0.72524 0.93246
 C939 C 0.58509 0.72923 0.90512
 C940 C 0.57847 0.75124 0.91063
 C941 C 0.56634 0.76439 0.89543
 C942 C 0.56074 0.75595 0.87422
 C943 C 0.56716 0.73379 0.86880
 C944 C 0.57912 0.72053 0.88414
 H945 H 0.59985 0.66340 0.94468
 H946 H 0.64349 0.72068 0.95646
 H947 H 0.56119 0.78116 0.90041
 H948 H 0.56337 0.72684 0.85253
 H949 H 0.62196 0.74248 0.92916
 H950 H 0.58251 0.75821 0.92684
 H951 H 0.57832 0.68535 0.91725
 H952 H 0.58418 0.70366 0.87943
 C953 C 0.39650 0.71851 0.07710
 C954 C 0.37487 0.72562 0.07001
 C955 C 0.36258 0.71301 0.05446
 C956 C 0.37164 0.69297 0.04571
 C957 C 0.39316 0.68571 0.05302
 C958 C 0.40546 0.69837 0.06851
 C959 C 0.40980 0.73222 0.09316
 C960 C 0.43327 0.73550 0.09005
 C961 C 0.44577 0.74863 0.10499
 C962 C 0.43509 0.75871 0.12343
 C963 C 0.41164 0.75536 0.12660
 C964 C 0.39912 0.74230 0.11161
 H965 H 0.34607 0.71909 0.04915
 H966 H 0.40060 0.67033 0.04664
 H967 H 0.46386 0.75072 0.10224
 H968 H 0.40291 0.76308 0.14055
 H969 H 0.42196 0.69231 0.07389
 H970 H 0.44193 0.72815 0.07587
 H971 H 0.36763 0.74120 0.07615
 H972 H 0.38111 0.73991 0.11455
 C973 C 0.60160 0.28414 0.07963
 C974 C 0.59587 0.30663 0.07505
 C975 C 0.60803 0.31889 0.05908
 C976 C 0.62634 0.30897 0.04762
 C977 C 0.63227 0.28658 0.05251
 C978 C 0.61996 0.27427 0.06826
 C979 C 0.58832 0.27078 0.09594
 C980 C 0.58145 0.24880 0.09066
 C981 C 0.56927 0.23593 0.10605
 C982 C 0.56390 0.24464 0.12722
 C983 C 0.57062 0.26676 0.13242
 C984 C 0.58262 0.27974 0.11688
 H985 H 0.60309 0.33613 0.05570
 H986 H 0.64628 0.27845 0.04397
 H987 H 0.56388 0.21920 0.10126
 H988 H 0.56702 0.27390 0.14864
 H989 H 0.62487 0.25703 0.07166
 H990 H 0.58529 0.24164 0.07448
 H991 H 0.58169 0.31457 0.08350
 H992 H 0.58790 0.29659 0.12141
 C993 C 0.28768 0.08142 0.59738
 C994 C 0.28572 0.08078 0.62070
 C995 C 0.29788 0.06487 0.63309
 C996 C 0.31259 0.04967 0.62239
 C997 C 0.31500 0.05074 0.59910
 C998 C 0.30244 0.06631 0.58667
 C999 C 0.27368 0.09723 0.58422
 C1000 C 0.25953 0.08911 0.56717
 C1001 C 0.24538 0.10383 0.55541
 C1002 C 0.24555 0.12695 0.56018
 C1003 C 0.26008 0.13518 0.57686
 C1004 C 0.27386 0.12037 0.58899
 H1005 H 0.29578 0.06444 0.65103
 H1006 H 0.32614 0.03914 0.59044
 H1007 H 0.23432 0.09720 0.54254
 H1008 H 0.26035 0.15297 0.58081
 H1009 H 0.30420 0.06658 0.56869
 H1010 H 0.25905 0.07130 0.56334
 H1011 H 0.27432 0.09222 0.62925
 H1012 H 0.28470 0.12695 0.60206
 C1013 C 0.71619 0.07576 0.39923
 C1014 C 0.69483 0.06824 0.40661
 C1015 C 0.68262 0.05231 0.39432
 C1016 C 0.69144 0.04361 0.37424
 C1017 C 0.71276 0.05144 0.36678
 C1018 C 0.72498 0.06724 0.37917
 C1019 C 0.72940 0.09230 0.41247
 C1020 C 0.75290 0.08937 0.41566
 C1021 C 0.76542 0.10497 0.42802
 C1022 C 0.75474 0.12392 0.43733
 C1023 C 0.73124 0.12687 0.43416
 C1024 C 0.71867 0.11117 0.42193
 H1025 H 0.66630 0.04676 0.40068
 H1026 H 0.72017 0.04529 0.35141
 H1027 H 0.78355 0.10237 0.43003
 H1028 H 0.72254 0.14124 0.44131
 H1029 H 0.74128 0.07297 0.37294
 H1030 H 0.76157 0.07487 0.40875
 H1031 H 0.68773 0.07439 0.42213
 H1032 H 0.70061 0.11394 0.41960
 C1033 C 0.71738 0.92266 0.59924
 C1034 C 0.69557 0.92940 0.59230
 C1035 C 0.68312 0.94505 0.60475
 C1036 C 0.69219 0.95419 0.62445
 C1037 C 0.71389 0.94723 0.63150
 C1038 C 0.72635 0.93168 0.61902
 C1039 C 0.73087 0.90643 0.58587
 C1040 C 0.75426 0.90994 0.58244
 C1041 C 0.76709 0.89455 0.57011
 C1042 C 0.75684 0.87527 0.56101
 C1043 C 0.73343 0.87180 0.56435
 C1044 C 0.72056 0.88726 0.57659
 H1045 H 0.66645 0.95009 0.59886
 H1046 H 0.72137 0.95390 0.64662
 H1047 H 0.78513 0.89757 0.56799
 H1048 H 0.72505 0.85720 0.55734
 H1049 H 0.74297 0.92657 0.62495
 H1050 H 0.76261 0.92468 0.58918
 H1051 H 0.68831 0.92287 0.57702
 H1052 H 0.70261 0.88404 0.57911
 C1053 C 0.28635 0.92019 0.39977
 C1054 C 0.30078 0.93535 0.41098
 C1055 C 0.31335 0.95135 0.39913
 C1056 C 0.31139 0.95292 0.37586
 C1057 C 0.29712 0.93781 0.36458
 C1058 C 0.28495 0.92147 0.37635
 C1059 C 0.27241 0.90355 0.41244
 C1060 C 0.25068 0.89729 0.40481
 C1061 C 0.23739 0.88204 0.41683
 C1062 C 0.24520 0.87296 0.43711
 C1063 C 0.26696 0.87914 0.44472
 C1064 C 0.28045 0.89406 0.43245
 H1065 H 0.32411 0.96294 0.40824
 H1066 H 0.29552 0.93851 0.34659
 H1067 H 0.22095 0.87739 0.41014
 H1068 H 0.27350 0.87278 0.46038
 H1069 H 0.27452 0.90979 0.36702
 H1070 H 0.24365 0.90444 0.38970
 H1071 H 0.30202 0.93526 0.42899
 H1072 H 0.29723 0.89811 0.43871
 C1073 C 0.07693 0.39686 0.71802
 C1074 C 0.07095 0.40427 0.69654
 C1075 C 0.05506 0.39236 0.68384
 C1076 C 0.04489 0.37271 0.69231
 C1077 C 0.05112 0.36514 0.71367
 C1078 C 0.06693 0.37711 0.72639
 C1079 C 0.09329 0.40985 0.73178
 C1080 C 0.08915 0.41333 0.75460
 C1081 C 0.10442 0.42571 0.76756
 C1082 C 0.12421 0.43482 0.75801
 C1083 C 0.12840 0.43129 0.73520
 C1084 C 0.11307 0.41899 0.72221
 H1085 H 0.05061 0.39865 0.66745
 H1086 H 0.04364 0.35005 0.72067
 H1087 H 0.10085 0.42797 0.78514
 H1088 H 0.14341 0.43828 0.72734
 H1089 H 0.07144 0.37083 0.74277
 H1090 H 0.07394 0.40670 0.76239
 H1091 H 0.07820 0.41956 0.68974
 H1092 H 0.11680 0.41643 0.70470
 C1093 C 0.08370 0.60050 0.28691
 C1094 C 0.07842 0.59453 0.30902
 C1095 C 0.06170 0.60625 0.32088
 C1096 C 0.05001 0.62431 0.31095
 C1097 C 0.05542 0.63041 0.28894
 C1098 C 0.07197 0.61858 0.27704
 C1099 C 0.10104 0.58773 0.27400
 C1100 C 0.11537 0.59886 0.25878
 C1101 C 0.13077 0.58674 0.24572
 C1102 C 0.13238 0.56325 0.24775
 C1103 C 0.11857 0.55213 0.26336
 C1104 C 0.10299 0.56422 0.27629
 H1105 H 0.05801 0.60123 0.33787
 H1106 H 0.04661 0.64415 0.28077
 H1107 H 0.14146 0.59574 0.23400
 H1108 H 0.11931 0.53399 0.26505
 H1109 H 0.07526 0.62337 0.25991
 H1110 H 0.11470 0.61698 0.25694
 H1111 H 0.08735 0.58091 0.31725
 H1112 H 0.09201 0.55505 0.28759
 C1113 C 0.91888 0.40290 0.28684
 C1114 C 0.91965 0.37936 0.28503
 C1115 C 0.93576 0.36700 0.29706
 C1116 C 0.95100 0.37795 0.31147
 C1117 C 0.94982 0.40147 0.31366
 C1118 C 0.93407 0.41387 0.30124
 C1119 C 0.90278 0.41606 0.27313
 C1120 C 0.91085 0.43327 0.25917
 C1121 C 0.89584 0.44513 0.24544
 C1122 C 0.87247 0.44029 0.24583
 C1123 C 0.86430 0.42343 0.26014
 C1124 C 0.87940 0.41119 0.27351
 H1125 H 0.93627 0.34887 0.29514
 H1126 H 0.96144 0.41033 0.32459
 H1127 H 0.90242 0.45814 0.23454
 H1128 H 0.84633 0.41942 0.26058
 H1129 H 0.93369 0.43202 0.30288
 H1130 H 0.92884 0.43718 0.25856
 H1131 H 0.90815 0.37062 0.27389
 H1132 H 0.87287 0.39800 0.28422
 C1133 C 0.92010 0.59853 0.71262
 C1134 C 0.92691 0.62013 0.71940
 C1135 C 0.94318 0.63209 0.70721
 C1136 C 0.95293 0.62274 0.68792
 C1137 C 0.94586 0.60126 0.68095
 C1138 C 0.92966 0.58926 0.69320
 C1139 C 0.90351 0.58552 0.72610
 C1140 C 0.90710 0.56252 0.73035
 C1141 C 0.89201 0.55046 0.74381
 C1142 C 0.87294 0.56111 0.75324
 C1143 C 0.86912 0.58401 0.74869
 C1144 C 0.88428 0.59610 0.73531
 H1145 H 0.94825 0.64859 0.71304
 H1146 H 0.95301 0.59360 0.66613
 H1147 H 0.89524 0.53277 0.74685
 H1148 H 0.85467 0.59269 0.75587
 H1149 H 0.92454 0.57274 0.68745
 H1150 H 0.92187 0.55397 0.72366
 H1151 H 0.92004 0.62760 0.73444
 H1152 H 0.88097 0.61375 0.73214
 C1153 C 0.71581 0.59982 0.92071
 C1154 C 0.69425 0.59225 0.92742
 C1155 C 0.68186 0.60405 0.94356
 C1156 C 0.69063 0.62391 0.95312
 C1157 C 0.71211 0.63162 0.94597
 C1158 C 0.72458 0.61963 0.93010
 C1159 C 0.72937 0.58695 0.90424
 C1160 C 0.75239 0.58230 0.90841
 C1161 C 0.76537 0.57033 0.89292
 C1162 C 0.75572 0.56300 0.87270
 C1163 C 0.73260 0.56763 0.86860
 C1164 C 0.71953 0.57936 0.88428
 H1165 H 0.66540 0.59755 0.94852
 H1166 H 0.71952 0.64682 0.95281
 H1167 H 0.78292 0.56660 0.89694
 H1168 H 0.72466 0.56255 0.85312
 H1169 H 0.74109 0.62592 0.92504
 H1170 H 0.76029 0.58767 0.92384
 H1171 H 0.68718 0.57694 0.92050
 H1172 H 0.70184 0.58292 0.88062
 C1173 C 0.28409 0.39966 0.92210
 C1174 C 0.30582 0.40689 0.92861
 C1175 C 0.31806 0.39500 0.94482
 C1176 C 0.30894 0.37538 0.95460
 C1177 C 0.28728 0.36802 0.94765
 C1178 C 0.27496 0.38013 0.93174
 C1179 C 0.27069 0.41259 0.90557
 C1180 C 0.24791 0.41803 0.90999
 C1181 C 0.23500 0.42986 0.89434
 C1182 C 0.24446 0.43622 0.87371
 C1183 C 0.26738 0.43088 0.86939
 C1184 C 0.28041 0.41931 0.88523
 H1185 H 0.33467 0.40122 0.94962
 H1186 H 0.27961 0.35302 0.95467
 H1187 H 0.21763 0.43419 0.89855
 H1188 H 0.27516 0.43522 0.85360
 H1189 H 0.25830 0.37413 0.92682
 H1190 H 0.24016 0.41333 0.92570
 H1191 H 0.31314 0.42199 0.92147
 H1192 H 0.29792 0.41514 0.88140
 C1193 C 0.28044 0.59977 0.07645
 C1194 C 0.27161 0.61999 0.06792
 C1195 C 0.28390 0.63255 0.05232
 C1196 C 0.30531 0.62511 0.04471
 C1197 C 0.31416 0.60487 0.05343
 C1198 C 0.30189 0.59242 0.06915
 C1199 C 0.26721 0.58633 0.09280
 C1200 C 0.27793 0.57674 0.11148
 C1201 C 0.26540 0.56423 0.12695
 C1202 C 0.24192 0.56090 0.12396
 C1203 C 0.23124 0.57035 0.10520
 C1204 C 0.24374 0.58300 0.08982
 H1205 H 0.27647 0.64804 0.04613
 H1206 H 0.33054 0.59851 0.04806
 H1207 H 0.27411 0.55698 0.14116
 H1208 H 0.21314 0.56823 0.10258
 H1209 H 0.30902 0.57678 0.07529
 H1210 H 0.29597 0.57918 0.11428
 H1211 H 0.25524 0.62621 0.07347
 H1212 H 0.23507 0.59000 0.07547
 C1213 C 0.71975 0.40067 0.07726
 C1214 C 0.69834 0.40837 0.07019
 C1215 C 0.68560 0.39601 0.05479
 C1216 C 0.69392 0.37552 0.04619
 C1217 C 0.71526 0.36771 0.05362
 C1218 C 0.72804 0.38019 0.06887
 C1219 C 0.73350 0.41403 0.09320
 C1220 C 0.75694 0.41710 0.08967
 C1221 C 0.76992 0.42967 0.10468
 C1222 C 0.75978 0.43929 0.12363
 C1223 C 0.73634 0.43623 0.12716
 C1224 C 0.72332 0.42381 0.11205
 H1225 H 0.66928 0.40266 0.04955
 H1226 H 0.72230 0.35202 0.04750
 H1227 H 0.78798 0.43162 0.10164
 H1228 H 0.72806 0.44362 0.14154
 H1229 H 0.74437 0.37372 0.07426
 H1230 H 0.76518 0.40993 0.07516
 H1231 H 0.69163 0.42421 0.07626
 H1232 H 0.70532 0.42159 0.11526
 C1233 C 0.92183 0.71446 0.59893
 C1234 C 0.93210 0.72340 0.61809
 C1235 C 0.94826 0.71096 0.62993
 C1236 C 0.95483 0.68935 0.62266
 C1237 C 0.94443 0.68044 0.60339
 C1238 C 0.92798 0.69280 0.59179
 C1239 C 0.90501 0.72793 0.58627
 C1240 C 0.88410 0.71857 0.57980
 C1241 C 0.86808 0.73159 0.56829
 C1242 C 0.87279 0.75415 0.56276
 C1243 C 0.89397 0.76328 0.56896
 C1244 C 0.90979 0.75038 0.58072
 H1245 H 0.95577 0.71846 0.64465
 H1246 H 0.94893 0.66388 0.59725
 H1247 H 0.85187 0.72408 0.56408
 H1248 H 0.89849 0.78036 0.56450
 H1249 H 0.92037 0.68562 0.57696
 H1250 H 0.87997 0.70133 0.58406
 H1251 H 0.92748 0.74000 0.62402
 H1252 H 0.92595 0.75785 0.58524
 C1253 C 0.91847 0.28623 0.40066
 C1254 C 0.92818 0.27734 0.38120
 C1255 C 0.94433 0.28961 0.36921
 C1256 C 0.95148 0.31099 0.37661
 C1257 C 0.94160 0.31989 0.39614
 C1258 C 0.92512 0.30770 0.40792
 C1259 C 0.90176 0.27280 0.41347
 C1260 C 0.88088 0.28215 0.42009
 C1261 C 0.86483 0.26903 0.43144
 C1262 C 0.86949 0.24637 0.43667
 C1263 C 0.89068 0.23729 0.43042
 C1264 C 0.90651 0.25029 0.41881
 H1265 H 0.95140 0.28211 0.35428
 H1266 H 0.94655 0.33629 0.40237
 H1267 H 0.84862 0.27654 0.43571
 H1268 H 0.89518 0.22015 0.43468
 H1269 H 0.91791 0.31483 0.42296
 H1270 H 0.87679 0.29945 0.41600
 H1271 H 0.92316 0.26089 0.37518
 H1272 H 0.92265 0.24281 0.41416
 C1273 C 0.07455 0.27933 0.60112
 C1274 C 0.06703 0.30015 0.59281
 C1275 C 0.05166 0.31327 0.60496
 C1276 C 0.04331 0.30583 0.62573
 C1277 C 0.05110 0.28503 0.63411
 C1278 C 0.06654 0.27199 0.62197
 C1279 C 0.09057 0.26523 0.58801
 C1280 C 0.10869 0.25404 0.59856
 C1281 C 0.12380 0.24082 0.58620
 C1282 C 0.12106 0.23841 0.56304
 C1283 C 0.10287 0.24950 0.55250
 C1284 C 0.08782 0.26280 0.56485
 H1285 H 0.04621 0.32918 0.59791
 H1286 H 0.04513 0.27864 0.64999
 H1287 H 0.13753 0.23230 0.59482
 H1288 H 0.10045 0.24813 0.53465
 H1289 H 0.07186 0.25590 0.62870
 H1290 H 0.11136 0.25573 0.61635
 H1291 H 0.07317 0.30640 0.57694
 H1292 H 0.07387 0.27102 0.55629
 C1293 C 0.07955 0.71620 0.40154
 C1294 C 0.07127 0.69565 0.40983
 C1295 C 0.05558 0.68303 0.39758
 C1296 C 0.04766 0.69072 0.37673
 C1297 C 0.05616 0.71126 0.36841
 C1298 C 0.07191 0.72379 0.38065
 C1299 C 0.09585 0.72985 0.41473
 C1300 C 0.11435 0.74049 0.40427
 C1301 C 0.12943 0.75374 0.41660
 C1302 C 0.12627 0.75672 0.43964
 C1303 C 0.10785 0.74598 0.45013
 C1304 C 0.09283 0.73264 0.43781
 H1305 H 0.04956 0.66730 0.40458
 H1306 H 0.05054 0.71783 0.35248
 H1307 H 0.14335 0.76197 0.40803
 H1308 H 0.10512 0.74780 0.46790
 H1309 H 0.07779 0.73969 0.37395
 H1310 H 0.11724 0.73847 0.38655
 H1311 H 0.07707 0.68925 0.42577
 H1312 H 0.07861 0.72482 0.44629
 C1313 C 0.60077 0.92203 0.71880
 C1314 C 0.59171 0.93055 0.69882
 C1315 C 0.60396 0.94606 0.68604
 C1316 C 0.62554 0.95345 0.69300
 C1317 C 0.63472 0.94474 0.71286
 C1318 C 0.62248 0.92918 0.72560
 C1319 C 0.58750 0.90600 0.73267
 C1320 C 0.59818 0.88747 0.74284
 C1321 C 0.58570 0.87251 0.75603
 C1322 C 0.56226 0.87579 0.75942
 C1323 C 0.55157 0.89431 0.74925
 C1324 C 0.56404 0.90923 0.73600
 H1325 H 0.59642 0.95240 0.67080
 H1326 H 0.65127 0.95012 0.71872
 H1327 H 0.59444 0.85851 0.76381
 H1328 H 0.53350 0.89715 0.75138
 H1329 H 0.62981 0.92311 0.74105
 H1330 H 0.61619 0.88443 0.74042
 H1331 H 0.57515 0.92513 0.69299
 H1332 H 0.55538 0.92348 0.72858
 C1333 C 0.40277 0.92232 0.28365
 C1334 C 0.38440 0.93402 0.27415
 C1335 C 0.37221 0.94977 0.28663
 C1336 C 0.37826 0.95436 0.30885
 C1337 C 0.39662 0.94262 0.31840
 C1338 C 0.40866 0.92662 0.30596
 C1339 C 0.41576 0.90585 0.27012
 C1340 C 0.42128 0.88452 0.27868
 C1341 C 0.43269 0.86874 0.26543
 C1342 C 0.43900 0.87407 0.24340
 C1343 C 0.43391 0.89566 0.23511
 C1344 C 0.42232 0.91130 0.24826
 H1345 H 0.35817 0.95853 0.27877
 H1346 H 0.40164 0.94576 0.33549
 H1347 H 0.43611 0.85221 0.27227
 H1348 H 0.43901 0.90057 0.21846
 H1349 H 0.42284 0.91791 0.31362
 H1350 H 0.41624 0.87985 0.29543
 H1351 H 0.37934 0.93084 0.25708
 H1352 H 0.41863 0.92776 0.24139
 C1353 C 0.60100 0.07720 0.28175
 C1354 C 0.62253 0.06980 0.27467
 C1355 C 0.63463 0.05390 0.28711
 C1356 C 0.62549 0.04507 0.30693
 C1357 C 0.60405 0.05264 0.31413
 C1358 C 0.59192 0.06851 0.30166
 C1359 C 0.58794 0.09371 0.26825
 C1360 C 0.56442 0.09097 0.26497
 C1361 C 0.55219 0.10630 0.25197
 C1362 C 0.56318 0.12476 0.24203
 C1363 C 0.58667 0.12758 0.24541
 C1364 C 0.59892 0.11220 0.25835
 H1365 H 0.65108 0.04838 0.28107
 H1366 H 0.59654 0.04621 0.32935
 H1367 H 0.53406 0.10382 0.24984
 H1368 H 0.59564 0.14152 0.23780
 H1369 H 0.57550 0.07410 0.30768
 H1370 H 0.55553 0.07676 0.27220
 H1371 H 0.62985 0.07600 0.25927
 H1372 H 0.61698 0.11488 0.26075
 C1373 C 0.40394 0.08043 0.71530
 C1374 C 0.40985 0.07588 0.69304
 C1375 C 0.39763 0.05996 0.68068
 C1376 C 0.37909 0.04855 0.69027
 C1377 C 0.37303 0.05340 0.71243
 C1378 C 0.38539 0.06907 0.72483
 C1379 C 0.41713 0.09676 0.72876
 C1380 C 0.42365 0.09129 0.75062
 C1381 C 0.43543 0.10681 0.76371
 C1382 C 0.44078 0.12830 0.75535
 C1383 C 0.43450 0.13366 0.73332
 C1384 C 0.42289 0.11799 0.72013
 H1385 H 0.40267 0.05662 0.66363
 H1386 H 0.35885 0.04490 0.72031
 H1387 H 0.44051 0.10187 0.78037
 H1388 H 0.43811 0.15012 0.72643
 H1389 H 0.38033 0.07244 0.74187
 H1390 H 0.41975 0.07489 0.75755
 H1391 H 0.42417 0.08434 0.68536
 H1392 H 0.41788 0.12267 0.70337
 C1393 C 0.59846 0.71516 0.07670
 C1394 C 0.61692 0.72490 0.06538
 C1395 C 0.62930 0.71248 0.04977
 C1396 C 0.62335 0.69009 0.04496
 C1397 C 0.60494 0.68028 0.05637
 C1398 C 0.59271 0.69266 0.07221
 C1399 C 0.58512 0.72865 0.09289
 C1400 C 0.57920 0.71977 0.11382
 C1401 C 0.56724 0.73290 0.12927
 C1402 C 0.56078 0.75510 0.12400
 C1403 C 0.56634 0.76371 0.10283
 C1404 C 0.57846 0.75069 0.08752
 H1405 H 0.64337 0.72053 0.04127
 H1406 H 0.59998 0.66305 0.05306
 H1407 H 0.56349 0.72581 0.14549
 H1408 H 0.56115 0.78050 0.09797
 H1409 H 0.57846 0.68481 0.08062
 H1410 H 0.58429 0.70287 0.11842
 H1411 H 0.62186 0.74214 0.06871
 H1412 H 0.58246 0.75780 0.07135
 C1413 C 0.40057 0.28290 0.07776
 C1414 C 0.40956 0.30298 0.06903
 C1415 C 0.39731 0.31552 0.05337
 C1416 C 0.37583 0.30822 0.04604
 C1417 C 0.36679 0.28820 0.05487
 C1418 C 0.37901 0.27570 0.07058
 C1419 C 0.41371 0.26938 0.09413
 C1420 C 0.40281 0.25952 0.11257
 C1421 C 0.41512 0.24654 0.12782
 C1422 C 0.43858 0.24305 0.12491
 C1423 C 0.44950 0.25294 0.10650
 C1424 C 0.43720 0.26601 0.09130
 H1425 H 0.40473 0.33089 0.04692
 H1426 H 0.35032 0.28207 0.04954
 H1427 H 0.40620 0.23895 0.14173
 H1428 H 0.46761 0.25073 0.10396
 H1429 H 0.37176 0.26017 0.07680
 H1430 H 0.38477 0.26200 0.11530
 H1431 H 0.42601 0.30909 0.07445
 H1432 H 0.44603 0.27320 0.07714
 C1433 C 0.60167 0.28440 0.92272
 C1434 C 0.59593 0.30687 0.92738
 C1435 C 0.60804 0.31905 0.94345
 C1436 C 0.62631 0.30906 0.95494
 C1437 C 0.63223 0.28669 0.94999
 C1438 C 0.61997 0.27447 0.93414
 C1439 C 0.58848 0.27116 0.90625
 C1440 C 0.58166 0.24910 0.91131
 C1441 C 0.56959 0.23635 0.89576
 C1442 C 0.56424 0.24526 0.87465
 C1443 C 0.57089 0.26746 0.86968
 C1444 C 0.58280 0.28031 0.88537
 H1445 H 0.60311 0.33627 0.94686
 H1446 H 0.64620 0.27851 0.95854
 H1447 H 0.56425 0.21954 0.90039
 H1448 H 0.56731 0.27476 0.85351
 H1449 H 0.62490 0.25724 0.93069
 H1450 H 0.58548 0.24178 0.92743
 H1451 H 0.58180 0.31487 0.91891
 H1452 H 0.58802 0.29723 0.88100
 C1453 C 0.39684 0.71899 0.92250
 C1454 C 0.40576 0.69876 0.93099
 C1455 C 0.39342 0.68602 0.94642
 C1456 C 0.37191 0.69326 0.95377
 C1457 C 0.36292 0.71340 0.94515
 C1458 C 0.37523 0.72610 0.92967
 C1459 C 0.41011 0.73276 0.90643
 C1460 C 0.39936 0.74298 0.88809
 C1461 C 0.41182 0.75612 0.87309
 C1462 C 0.43530 0.75939 0.87614
 C1463 C 0.44606 0.74916 0.89446
 C1464 C 0.43361 0.73595 0.90941
 H1465 H 0.40082 0.67057 0.95271
 H1466 H 0.34642 0.71948 0.95049
 H1467 H 0.40302 0.76396 0.85925
 H1468 H 0.46417 0.75119 0.89712
 H1469 H 0.36802 0.74174 0.92362
 H1470 H 0.38132 0.74066 0.88523
 H1471 H 0.42224 0.69271 0.92557
 H1472 H 0.44233 0.72848 0.92351
 C1473 C 0.71638 0.91910 0.39920
 C1474 C 0.69353 0.92370 0.40434
 C1475 C 0.68134 0.93972 0.39207
 C1476 C 0.69170 0.95122 0.37426
 C1477 C 0.71443 0.94627 0.36890
 C1478 C 0.72667 0.93047 0.38130
 C1479 C 0.72966 0.90281 0.41266
 C1480 C 0.75174 0.90827 0.41975
 C1481 C 0.76451 0.89293 0.43218
 C1482 C 0.75562 0.87164 0.43761
 C1483 C 0.73341 0.86626 0.43066
 C1484 C 0.72052 0.88174 0.41839
 H1485 H 0.66383 0.94313 0.39658
 H1486 H 0.72290 0.95484 0.35528
 H1487 H 0.78131 0.89787 0.43771
 H1488 H 0.72613 0.84993 0.43430
 H1489 H 0.74419 0.92705 0.37685
 H1490 H 0.75903 0.92456 0.41589
 H1491 H 0.68525 0.91526 0.41815
 H1492 H 0.70360 0.87707 0.41296
 C1493 C 0.28360 0.92535 0.59894
 C1494 C 0.30546 0.93159 0.59174
 C1495 C 0.31828 0.94720 0.60384
 C1496 C 0.30953 0.95685 0.62346
 C1497 C 0.28775 0.95042 0.63077
 C1498 C 0.27493 0.93487 0.61863
 C1499 C 0.26978 0.90911 0.58588
 C1500 C 0.24640 0.91283 0.58260
 C1501 C 0.23335 0.89757 0.57035
 C1502 C 0.24336 0.87819 0.56116
 C1503 C 0.26675 0.87446 0.56442
 C1504 C 0.27983 0.88979 0.57660
 H1505 H 0.33498 0.95182 0.59774
 H1506 H 0.28053 0.95749 0.64583
 H1507 H 0.21533 0.90078 0.56831
 H1508 H 0.27497 0.85979 0.55736
 H1509 H 0.25826 0.93016 0.62476
 H1510 H 0.23823 0.92769 0.58934
 H1511 H 0.31250 0.92471 0.57650
 H1512 H 0.29776 0.88637 0.57900
 C1513 C 0.28401 0.07810 0.40097
 C1514 C 0.30425 0.06911 0.40973
 C1515 C 0.31691 0.05342 0.39756
 C1516 C 0.30954 0.04628 0.37641
 C1517 C 0.28935 0.05537 0.36762
 C1518 C 0.27676 0.07114 0.37974
 C1519 C 0.27028 0.09440 0.41407
 C1520 C 0.26042 0.11326 0.40369
 C1521 C 0.24709 0.12833 0.41595
 C1522 C 0.24321 0.12479 0.43881
 C1523 C 0.25319 0.10601 0.44921
 C1524 C 0.26663 0.09102 0.43699
 H1525 H 0.33240 0.04677 0.40480
 H1526 H 0.28318 0.05021 0.35139
 H1527 H 0.23947 0.14254 0.40744
 H1528 H 0.25068 0.10297 0.46685
 H1529 H 0.26109 0.07758 0.37267
 H1530 H 0.26312 0.11642 0.38610
 H1531 H 0.31039 0.07435 0.42594
 H1532 H 0.27383 0.07653 0.44540
 C1533 C 0.71397 0.08116 0.60055
 C1534 C 0.69135 0.07557 0.59530
 C1535 C 0.67982 0.05895 0.60736
 C1536 C 0.69059 0.04766 0.62506
 C1537 C 0.71312 0.05335 0.63044
 C1538 C 0.72471 0.06982 0.61827
 C1539 C 0.72648 0.09849 0.58745
 C1540 C 0.74201 0.11302 0.59798
 C1541 C 0.75453 0.12860 0.58557
 C1542 C 0.75166 0.13018 0.56237
 C1543 C 0.73577 0.11609 0.55186
 C1544 C 0.72338 0.10034 0.56424
 H1545 H 0.66241 0.05505 0.60289
 H1546 H 0.72195 0.04485 0.64389
 H1547 H 0.76645 0.13949 0.59412
 H1548 H 0.73343 0.11679 0.53396
 H1549 H 0.74224 0.07337 0.62252
 H1550 H 0.74447 0.11241 0.61587
 H1551 H 0.68243 0.08419 0.58200
 H1552 H 0.71184 0.08921 0.55553
 C1553 C 0.92258 0.59928 0.28528
 C1554 C 0.93197 0.59010 0.30483
 C1555 C 0.94809 0.60214 0.31716
 C1556 C 0.95523 0.62359 0.31013
 C1557 C 0.94573 0.63280 0.29064
 C1558 C 0.92956 0.62081 0.27838
 C1559 C 0.90585 0.58635 0.27187
 C1560 C 0.88679 0.59710 0.26251
 C1561 C 0.87144 0.58507 0.24929
 C1562 C 0.87488 0.56205 0.24504
 C1563 C 0.89381 0.55125 0.25459
 C1564 C 0.90910 0.56325 0.26790
 H1565 H 0.95505 0.59458 0.33212
 H1566 H 0.95087 0.64927 0.28474
 H1567 H 0.85712 0.59389 0.24202
 H1568 H 0.89676 0.53347 0.25181
 H1569 H 0.92285 0.62821 0.26324
 H1570 H 0.88372 0.61482 0.26546
 H1571 H 0.92674 0.57364 0.31069
 H1572 H 0.92373 0.55455 0.27471
 C1573 C 0.91893 0.40083 0.71414
 C1574 C 0.91946 0.37729 0.71608
 C1575 C 0.93551 0.36471 0.70420
 C1576 C 0.95095 0.37543 0.68980
 C1577 C 0.95002 0.39896 0.68748
 C1578 C 0.93432 0.41157 0.69974
 C1579 C 0.90284 0.41422 0.72767
 C1580 C 0.91092 0.43163 0.74135
 C1581 C 0.89593 0.44370 0.75490
 C1582 C 0.87256 0.43888 0.75463
 C1583 C 0.86437 0.42181 0.74058
 C1584 C 0.87946 0.40937 0.72739
 H1585 H 0.93581 0.34659 0.70623
 H1586 H 0.96179 0.40765 0.67656
 H1587 H 0.90253 0.45687 0.76559
 H1588 H 0.84640 0.41779 0.74022
 H1589 H 0.93414 0.42972 0.69799
 H1590 H 0.92892 0.43554 0.74189
 H1591 H 0.90781 0.36871 0.72720
 H1592 H 0.87290 0.39604 0.71689
 C1593 C 0.07872 0.59609 0.71390
 C1594 C 0.06696 0.61419 0.72358
 C1595 C 0.05135 0.62667 0.71112
 C1596 C 0.04697 0.62119 0.68873
 C1597 C 0.05883 0.60313 0.67898
 C1598 C 0.07468 0.59079 0.69141
 C1599 C 0.09492 0.58271 0.72743
 C1600 C 0.11654 0.57712 0.71912
 C1601 C 0.13206 0.56526 0.73238
 C1602 C 0.12617 0.55856 0.75415
 C1603 C 0.10429 0.56374 0.76217
 C1604 C 0.08892 0.57577 0.74902
 H1605 H 0.04250 0.64047 0.71913
 H1606 H 0.05585 0.59854 0.66175
 H1607 H 0.14883 0.56178 0.72576
 H1608 H 0.09895 0.55836 0.77862
 H1609 H 0.08345 0.57683 0.68360
 H1610 H 0.12164 0.58244 0.70258
 H1611 H 0.06995 0.61879 0.74081
 H1612 H 0.07221 0.57951 0.75568
 C1613 C 0.07718 0.40086 0.28426
 C1614 C 0.06921 0.37982 0.27695
 C1615 C 0.05325 0.36783 0.28951
 C1616 C 0.04494 0.37658 0.30971
 C1617 C 0.05306 0.39754 0.31713
 C1618 C 0.06897 0.40956 0.30452
 C1619 C 0.09381 0.41375 0.27065
 C1620 C 0.09140 0.43713 0.26783
 C1621 C 0.10678 0.44918 0.25464
 C1622 C 0.12497 0.43813 0.24405
 C1623 C 0.12747 0.41479 0.24701
 C1624 C 0.11205 0.40273 0.26012
 H1625 H 0.04732 0.35177 0.28329
 H1626 H 0.04702 0.40474 0.33262
 H1627 H 0.10455 0.46719 0.25286
 H1628 H 0.14119 0.40577 0.23890
 H1629 H 0.07500 0.42560 0.31071
 H1630 H 0.07740 0.44606 0.27555
 H1631 H 0.07500 0.37279 0.26128
 H1632 H 0.11448 0.38477 0.26216
   
