data_POSCAR
  _audit_creation_date              2014-09-24
  _audit_creation_method            'ToBaCCo'
  _symmetry_space_group_name_H-M    'P1'
  _symmetry_Int_Tables_number       1
  _symmetry_cell_setting            triclinic
  loop_
  _symmetry_equiv_pos_as_xyz
 x,y,z
_cell_length_a 97.7569
_cell_length_b 96.2645
_cell_length_c 99.5326
_cell_angle_alpha 89.862000
_cell_angle_beta 89.903300
_cell_angle_gamma 89.848300
loop_
  _atom_site_label
  _atom_site_type_symbol
  _atom_site_fract_x
  _atom_site_fract_y
  _atom_site_fract_z
N1 N 0.36748 0.33307 0.34038
 N2 N 0.36479 0.34202 0.33075
 C3 C 0.37437 0.34082 0.32108
 C4 C 0.38356 0.33051 0.32480
 C5 C 0.37882 0.32586 0.33716
 H6 H 0.37448 0.34688 0.31193
 H7 H 0.38303 0.31756 0.34320
 Cu8 Cu 0.34867 0.35390 0.33128
 Cu9 Cu 0.35565 0.33086 0.35595
 Cu10 Cu 0.32877 0.35405 0.35905
 N11 N 0.33451 0.36783 0.33409
 N12 N 0.32682 0.36792 0.34492
 C13 C 0.31767 0.37835 0.34397
 C14 C 0.31972 0.38521 0.33188
 C15 C 0.33055 0.37823 0.32590
 H16 H 0.31001 0.38066 0.35148
 H17 H 0.33500 0.38033 0.31616
 N18 N 0.33238 0.33919 0.37225
 N19 N 0.34257 0.33028 0.37100
 C20 C 0.34183 0.32088 0.38101
 C21 C 0.33061 0.32398 0.38899
 C22 C 0.32489 0.33569 0.38311
 H23 H 0.34878 0.31223 0.38221
 H24 H 0.31562 0.34095 0.38617
 H25 H 0.33777 0.33856 0.34767
 H26 H 0.34955 0.35146 0.35559
 N27 N 0.36785 0.83345 -0.16018
 N28 N 0.36485 0.84215 -0.16993
 C29 C 0.37434 0.84104 -0.17968
 C30 C 0.38386 0.83100 -0.17592
 C31 C 0.37934 0.82649 -0.16339
 H32 H 0.37404 0.84689 -0.18894
 H33 H 0.38378 0.81845 -0.15717
 Cu34 Cu 0.34836 0.85343 -0.16956
 Cu35 Cu 0.35604 0.83107 -0.14459
 Cu36 Cu 0.32868 0.85378 -0.14171
 N37 N 0.33436 0.86749 -0.16671
 N38 N 0.32666 0.86761 -0.15589
 C39 C 0.31751 0.87804 -0.15688
 C40 C 0.31956 0.88492 -0.16903
 C41 C 0.33044 0.87787 -0.17493
 H42 H 0.30983 0.88024 -0.14936
 H43 H 0.33505 0.87985 -0.18461
 N44 N 0.33248 0.83901 -0.12847
 N45 N 0.34288 0.83034 -0.12959
 C46 C 0.34235 0.82105 -0.11946
 C47 C 0.33103 0.82398 -0.11155
 C48 C 0.32506 0.83548 -0.11757
 H49 H 0.34954 0.81263 -0.11810
 H50 H 0.31570 0.84061 -0.11455
 H51 H 0.33795 0.83821 -0.15281
 H52 H 0.34951 0.85152 -0.14523
 N53 N 0.86712 0.33362 -0.16041
 N54 N 0.86500 0.34223 -0.17045
 C55 C 0.87469 0.34019 -0.17987
 C56 C 0.88336 0.32965 -0.17558
 C57 C 0.87820 0.32577 -0.16313
 H58 H 0.87516 0.34574 -0.18931
 H59 H 0.88204 0.31767 -0.15660
 Cu60 Cu 0.84945 0.35492 -0.17074
 Cu61 Cu 0.85490 0.33268 -0.14497
 Cu62 Cu 0.82882 0.35694 -0.14359
 N63 N 0.83555 0.36932 -0.16895
 N64 N 0.82762 0.37014 -0.15832
 C65 C 0.81873 0.38069 -0.15994
 C66 C 0.82115 0.38693 -0.17232
 C67 C 0.83199 0.37937 -0.17770
 H68 H 0.81094 0.38337 -0.15269
 H69 H 0.83683 0.38084 -0.18736
 N70 N 0.83159 0.34272 -0.12965
 N71 N 0.84148 0.33341 -0.13018
 C72 C 0.84013 0.32461 -0.11972
 C73 C 0.82880 0.32855 -0.11222
 C74 C 0.82369 0.34012 -0.11884
 H75 H 0.84671 0.31578 -0.11792
 H76 H 0.81456 0.34590 -0.11632
 H77 H 0.83758 0.34066 -0.15409
 H78 H 0.84957 0.35347 -0.14634
 N79 N 0.86747 0.83413 0.33981
 N80 N 0.86510 0.84258 0.32970
 C81 C 0.87460 0.84045 0.32011
 C82 C 0.88342 0.83003 0.32439
 C83 C 0.87853 0.82630 0.33699
 H84 H 0.87484 0.84587 0.31060
 H85 H 0.88252 0.81832 0.34355
 Cu86 Cu 0.84949 0.85515 0.32953
 Cu87 Cu 0.85556 0.83333 0.35549
 Cu88 Cu 0.82970 0.85783 0.35718
 N89 N 0.83594 0.86985 0.33155
 N90 N 0.82833 0.87092 0.34237
 C91 C 0.81954 0.88159 0.34085
 C92 C 0.82169 0.88761 0.32831
 C93 C 0.83229 0.87984 0.32276
 H94 H 0.81197 0.88447 0.34825
 H95 H 0.83688 0.88109 0.31296
 N96 N 0.83263 0.84367 0.37117
 N97 N 0.84241 0.83425 0.37050
 C98 C 0.84114 0.82548 0.38100
 C99 C 0.82998 0.82957 0.38866
 C100 C 0.82488 0.84117 0.38210
 H101 H 0.84765 0.81657 0.38271
 H102 H 0.81581 0.84701 0.38473
 H103 H 0.83807 0.84122 0.34673
 H104 H 0.85039 0.85406 0.35392
 N105 N 0.63152 0.67036 0.34595
 N106 N 0.63143 0.66090 0.33645
 C107 C 0.62144 0.66396 0.32761
 C108 C 0.61487 0.67600 0.33176
 C109 C 0.62158 0.67973 0.34348
 H110 H 0.61924 0.65796 0.31872
 H111 H 0.61965 0.68879 0.34958
 Cu112 Cu 0.64470 0.64579 0.33620
 Cu113 Cu 0.64491 0.67020 0.36047
 Cu114 Cu 0.66908 0.64386 0.36000
 N115 N 0.65867 0.63135 0.33589
 N116 N 0.66809 0.63061 0.34527
 C117 C 0.67660 0.61997 0.34252
 C118 C 0.67238 0.61370 0.33072
 C119 C 0.66092 0.62122 0.32682
 H120 H 0.68545 0.61729 0.34847
 H121 H 0.65476 0.61955 0.31797
 N122 N 0.66844 0.65820 0.37404
 N123 N 0.65926 0.66826 0.37422
 C124 C 0.66194 0.67675 0.38462
 C125 C 0.67335 0.67178 0.39139
 C126 C 0.67719 0.66001 0.38431
 H127 H 0.65625 0.68611 0.38680
 H128 H 0.68597 0.65347 0.38620
 H129 H 0.66000 0.66005 0.34963
 H130 H 0.64853 0.64899 0.36020
 N131 N 0.63290 0.17159 -0.15454
 N132 N 0.63282 0.16231 -0.16421
 C133 C 0.62277 0.16550 -0.17295
 C134 C 0.61618 0.17745 -0.16855
 C135 C 0.62293 0.18096 -0.15679
 H136 H 0.62066 0.15975 -0.18201
 H137 H 0.62095 0.18981 -0.15043
 Cu138 Cu 0.64649 0.14754 -0.16475
 Cu139 Cu 0.64629 0.17125 -0.14002
 Cu140 Cu 0.67027 0.14461 -0.14071
 N141 N 0.66013 0.13273 -0.16518
 N142 N 0.66932 0.13166 -0.15563
 C143 C 0.67781 0.12104 -0.15841
 C144 C 0.67383 0.11504 -0.17046
 C145 C 0.66250 0.12281 -0.17443
 H146 H 0.68644 0.11822 -0.15221
 H147 H 0.65655 0.12156 -0.18348
 N148 N 0.66964 0.15871 -0.12644
 N149 N 0.66068 0.16898 -0.12624
 C150 C 0.66345 0.17725 -0.11568
 C151 C 0.67468 0.17192 -0.10890
 C152 C 0.67828 0.16014 -0.11603
 H153 H 0.65782 0.18659 -0.11323
 H154 H 0.68690 0.15339 -0.11408
 H155 H 0.66157 0.16141 -0.15067
 H156 H 0.64978 0.15023 -0.14064
 N157 N 0.13107 0.67194 -0.15492
 N158 N 0.13212 0.66372 -0.16537
 C159 C 0.12195 0.66664 -0.17404
 C160 C 0.11411 0.67734 -0.16876
 C161 C 0.12022 0.68040 -0.15657
 H162 H 0.12069 0.66167 -0.18369
 H163 H 0.11722 0.68838 -0.14954
 Cu164 Cu 0.14719 0.65065 -0.16719
 Cu165 Cu 0.14445 0.67182 -0.14050
 Cu166 Cu 0.16911 0.64599 -0.14136
 N167 N 0.15951 0.63482 -0.16635
 N168 N 0.16806 0.63299 -0.15632
 C169 C 0.17566 0.62156 -0.15868
 C170 C 0.17164 0.61588 -0.17084
 C171 C 0.16134 0.62461 -0.17538
 H172 H 0.18364 0.61780 -0.15209
 H173 H 0.15582 0.62385 -0.18475
 N174 N 0.16833 0.66026 -0.12716
 N175 N 0.15887 0.67005 -0.12684
 C176 C 0.16137 0.67856 -0.11643
 C177 C 0.17300 0.67399 -0.10986
 C178 C 0.17712 0.66231 -0.11695
 H179 H 0.15546 0.68777 -0.11415
 H180 H 0.18601 0.65593 -0.11499
 H181 H 0.16098 0.66318 -0.15079
 H182 H 0.14864 0.65076 -0.14285
 N183 N 0.13147 0.17029 0.34578
 N184 N 0.13213 0.16063 0.33651
 C185 C 0.12223 0.16297 0.32736
 C186 C 0.11497 0.17474 0.33113
 C187 C 0.12116 0.17907 0.34290
 H188 H 0.12065 0.15675 0.31848
 H189 H 0.11875 0.18826 0.34867
 Cu190 Cu 0.14649 0.14657 0.33700
 Cu191 Cu 0.14460 0.17146 0.36040
 Cu192 Cu 0.17026 0.14644 0.36125
 N193 N 0.16085 0.13250 0.33749
 N194 N 0.17011 0.13253 0.34704
 C195 C 0.17907 0.12213 0.34487
 C196 C 0.17525 0.11514 0.33330
 C197 C 0.16362 0.12207 0.32890
 H198 H 0.18793 0.12009 0.35106
 H199 H 0.15771 0.11982 0.32002
 N200 N 0.16860 0.16138 0.37469
 N201 N 0.15884 0.17087 0.37437
 C202 C 0.16077 0.17987 0.38452
 C203 C 0.17232 0.17589 0.39162
 C204 C 0.17699 0.16410 0.38506
 H205 H 0.15447 0.18890 0.38635
 H206 H 0.18598 0.15807 0.38751
 H207 H 0.16068 0.16202 0.35040
 H208 H 0.14957 0.15062 0.36094
 N209 N 0.63252 0.33079 0.65466
 N210 N 0.63331 0.34032 0.66406
 C211 C 0.62316 0.33827 0.67301
 C212 C 0.61558 0.32685 0.66901
 C213 C 0.62187 0.32241 0.65729
 H214 H 0.62154 0.34451 0.68189
 H215 H 0.61923 0.31344 0.65134
 Cu216 Cu 0.64804 0.35388 0.66403
 Cu217 Cu 0.64580 0.32944 0.64013
 Cu218 Cu 0.67177 0.35394 0.63957
 N219 N 0.66258 0.36764 0.66358
 N220 N 0.67179 0.36766 0.65395
 C221 C 0.68076 0.37798 0.65618
 C222 C 0.67701 0.38484 0.66787
 C223 C 0.66539 0.37793 0.67226
 H224 H 0.68952 0.38011 0.64988
 H225 H 0.65945 0.38018 0.68116
 N226 N 0.67000 0.33919 0.62595
 N227 N 0.66018 0.32982 0.62623
 C228 C 0.66214 0.32079 0.61609
 C229 C 0.67378 0.32461 0.60906
 C230 C 0.67845 0.33637 0.61561
 H231 H 0.65582 0.31181 0.61424
 H232 H 0.68749 0.34231 0.61318
 H233 H 0.66195 0.33843 0.65020
 H234 H 0.65093 0.35023 0.63997
 N235 N 0.63309 0.83033 1.15431
 N236 N 0.63458 0.83868 1.16462
 C237 C 0.62467 0.83606 1.17367
 C238 C 0.61652 0.82543 1.16882
 C239 C 0.62222 0.82206 1.15648
 H240 H 0.62371 0.84125 1.18324
 H241 H 0.61884 0.81408 1.14964
 Cu242 Cu 0.64968 0.85177 1.16572
 Cu243 Cu 0.64575 0.83032 1.13920
 Cu244 Cu 0.67055 0.85584 1.13901
 N245 N 0.66249 0.86717 1.16445
 N246 N 0.67055 0.86875 1.15399
 C247 C 0.67864 0.87983 1.15596
 C248 C 0.67553 0.88557 1.16836
 C249 C 0.66517 0.87723 1.17343
 H250 H 0.68637 0.88329 1.14895
 H251 H 0.66020 0.87816 1.18310
 N252 N 0.66898 0.84180 1.12476
 N253 N 0.65954 0.83204 1.12483
 C254 C 0.66169 0.82352 1.11431
 C255 C 0.67305 0.82813 1.10725
 C256 C 0.67736 0.83977 1.11419
 H257 H 0.65564 0.81441 1.11219
 H258 H 0.68633 0.84595 1.11209
 H259 H 0.66245 0.83870 1.14882
 H260 H 0.64993 0.85124 1.14129
 N261 N 0.13414 0.33038 1.15406
 N262 N 0.13416 0.33941 1.16393
 C263 C 0.12401 0.33624 1.17257
 C264 C 0.11726 0.32455 1.16790
 C265 C 0.12402 0.32116 1.15609
 H266 H 0.12194 0.34183 1.18176
 H267 H 0.12194 0.31249 1.14953
 Cu268 Cu 0.14788 0.35401 1.16478
 Cu269 Cu 0.14766 0.33075 1.13964
 Cu270 Cu 0.17180 0.35706 1.14078
 N271 N 0.16148 0.36875 1.16533
 N272 N 0.17072 0.36992 1.15579
 C273 C 0.17909 0.38056 1.15866
 C274 C 0.17493 0.38647 1.17068
 C275 C 0.16369 0.37867 1.17461
 H276 H 0.18782 0.38349 1.15262
 H277 H 0.15765 0.37999 1.18362
 N278 N 0.17129 0.34305 1.12642
 N279 N 0.16221 0.33295 1.12602
 C280 C 0.16516 0.32459 1.11557
 C281 C 0.17668 0.32965 1.10907
 C282 C 0.18022 0.34140 1.11624
 H283 H 0.15951 0.31532 1.11307
 H284 H 0.18900 0.34796 1.11453
 H285 H 0.16295 0.34025 1.15047
 H286 H 0.15127 0.35177 1.14062
 N287 N 0.13308 0.83032 0.65415
 N288 N 0.13325 0.83961 0.66380
 C289 C 0.12311 0.83677 0.67257
 C290 C 0.11618 0.82506 0.66818
 C291 C 0.12287 0.82128 0.65644
 H292 H 0.12110 0.84265 0.68159
 H293 H 0.12076 0.81235 0.65022
 Cu294 Cu 0.14724 0.85398 0.66424
 Cu295 Cu 0.14660 0.83013 0.63970
 Cu296 Cu 0.17153 0.85570 0.64045
 N297 N 0.16120 0.86836 0.66461
 N298 N 0.17067 0.86895 0.65524
 C299 C 0.17937 0.87933 0.65808
 C300 C 0.17518 0.88565 0.66990
 C301 C 0.16358 0.87837 0.67374
 H302 H 0.18836 0.88177 0.65219
 H303 H 0.15746 0.88005 0.68264
 N304 N 0.17066 0.84138 0.62632
 N305 N 0.16115 0.83169 0.62600
 C306 C 0.16366 0.82317 0.61556
 C307 C 0.17539 0.82761 0.60902
 C308 C 0.17948 0.83925 0.61611
 H309 H 0.15767 0.81408 0.61320
 H310 H 0.18837 0.84557 0.61413
 H311 H 0.16211 0.83943 0.65048
 H312 H 0.15092 0.85105 0.64022
 N313 N 0.36677 0.66757 0.65992
 N314 N 0.36532 0.65965 0.67059
 C315 C 0.37530 0.66255 0.67943
 C316 C 0.38347 0.67292 0.67407
 C317 C 0.37771 0.67585 0.66165
 H318 H 0.37625 0.65774 0.68920
 H319 H 0.38111 0.68354 0.65445
 Cu320 Cu 0.35018 0.64682 0.67248
 Cu321 Cu 0.35394 0.66692 0.64496
 Cu322 Cu 0.32964 0.64084 0.64608
 N323 N 0.33816 0.63083 0.67190
 N324 N 0.33015 0.62849 0.66158
 C325 C 0.32248 0.61719 0.66414
 C326 C 0.32588 0.61213 0.67676
 C327 C 0.33591 0.62109 0.68136
 H328 H 0.31481 0.61315 0.65740
 H329 H 0.34088 0.62086 0.69105
 N330 N 0.33076 0.65443 0.63130
 N331 N 0.33997 0.66441 0.63089
 C332 C 0.33762 0.67243 0.62003
 C333 C 0.32634 0.66729 0.61325
 C334 C 0.32230 0.65583 0.62071
 H335 H 0.34351 0.68152 0.61745
 H336 H 0.31354 0.64930 0.61888
 H337 H 0.33728 0.65871 0.65492
 H338 H 0.35012 0.64609 0.64811
 N339 N 0.36722 0.16593 1.16152
 N340 N 0.36580 0.15662 1.17110
 C341 C 0.37538 0.15884 1.18057
 C342 C 0.38324 0.17018 1.17674
 C343 C 0.37770 0.17437 1.16457
 H344 H 0.37636 0.15282 1.18969
 H345 H 0.38085 0.18306 1.15843
 Cu346 Cu 0.35110 0.14302 1.17038
 Cu347 Cu 0.35513 0.16677 1.14598
 Cu348 Cu 0.32917 0.14233 1.14450
 N349 N 0.33642 0.12943 1.16964
 N350 N 0.32794 0.12922 1.15941
 C351 C 0.31859 0.11921 1.16140
 C352 C 0.32128 0.11273 1.17357
 C353 C 0.33271 0.11953 1.17851
 H354 H 0.31036 0.11696 1.15452
 H355 H 0.33778 0.11763 1.18798
 N356 N 0.33210 0.15649 1.13044
 N357 N 0.34189 0.16588 1.13107
 C358 C 0.34076 0.17449 1.12044
 C359 C 0.32968 0.17040 1.11275
 C360 C 0.32450 0.15890 1.11940
 H361 H 0.34737 0.18327 1.11860
 H362 H 0.31551 0.15303 1.11670
 H363 H 0.33819 0.15811 1.15530
 H364 H 0.34985 0.14603 1.14611
 N365 N 0.86747 0.66646 1.15891
 N366 N 0.86501 0.65803 1.16902
 C367 C 0.87447 0.66006 1.17863
 C368 C 0.88337 0.67038 1.17436
 C369 C 0.87857 0.67416 1.16175
 H370 H 0.87464 0.65461 1.18813
 H371 H 0.88266 0.68207 1.15518
 Cu372 Cu 0.84936 0.64560 1.16914
 Cu373 Cu 0.85568 0.66733 1.14317
 Cu374 Cu 0.82995 0.64285 1.14131
 N375 N 0.83613 0.63072 1.16695
 N376 N 0.82862 0.62966 1.15607
 C377 C 0.81996 0.61891 1.15749
 C378 C 0.82211 0.61287 1.16997
 C379 C 0.83251 0.62065 1.17566
 H380 H 0.81250 0.61590 1.15006
 H381 H 0.83687 0.61937 1.18556
 N382 N 0.83289 0.65708 1.12740
 N383 N 0.84265 0.66648 1.12811
 C384 C 0.84147 0.67522 1.11758
 C385 C 0.83040 0.67115 1.10985
 C386 C 0.82526 0.65957 1.11640
 H387 H 0.84800 0.68409 1.11585
 H388 H 0.81626 0.65373 1.11370
 H389 H 0.83807 0.65949 1.15181
 H390 H 0.85053 0.64659 1.14477
 N391 N 0.86785 0.16725 0.66068
 N392 N 0.86545 0.15827 0.67034
 C393 C 0.87504 0.15972 0.67994
 C394 C 0.88393 0.17024 0.67612
 C395 C 0.87899 0.17474 0.66380
 H396 H 0.87537 0.15370 0.68910
 H397 H 0.88294 0.18311 0.65768
 Cu398 Cu 0.84974 0.14588 0.66987
 Cu399 Cu 0.85597 0.16911 0.64516
 Cu400 Cu 0.82928 0.14583 0.64251
 N401 N 0.83527 0.13225 0.66752
 N402 N 0.82742 0.13219 0.65682
 C403 C 0.81815 0.12195 0.65803
 C404 C 0.82028 0.11517 0.67014
 C405 C 0.83128 0.12201 0.67587
 H406 H 0.81035 0.11973 0.65067
 H407 H 0.83586 0.11991 0.68554
 N408 N 0.83279 0.16044 0.62909
 N409 N 0.84291 0.16940 0.63017
 C410 C 0.84219 0.17853 0.61993
 C411 C 0.83107 0.17519 0.61198
 C412 C 0.82538 0.16362 0.61811
 H413 H 0.84913 0.18712 0.61851
 H414 H 0.81622 0.15822 0.61509
 H415 H 0.83834 0.16119 0.65379
 H416 H 0.85008 0.14840 0.64552
 N417 N 0.33035 0.36986 0.65936
 N418 N 0.33878 0.36955 0.66962
 C419 C 0.33504 0.37943 0.67847
 C420 C 0.32363 0.38630 0.67349
 C421 C 0.32100 0.37993 0.66130
 H422 H 0.34007 0.38127 0.68795
 H423 H 0.31284 0.38234 0.65436
 Cu424 Cu 0.35362 0.35604 0.67051
 Cu425 Cu 0.33163 0.35680 0.64454
 Cu426 Cu 0.35802 0.33272 0.64584
 N427 N 0.36864 0.34272 0.67091
 N428 N 0.37033 0.33365 0.66121
 C429 C 0.38124 0.32560 0.66402
 C430 C 0.38673 0.32981 0.67619
 C431 C 0.37842 0.34074 0.68024
 H432 H 0.38483 0.31727 0.65766
 H433 H 0.37928 0.34669 0.68938
 N434 N 0.34456 0.33344 0.63110
 N435 N 0.33462 0.34271 0.63057
 C436 C 0.32669 0.34005 0.61984
 C437 C 0.33182 0.32848 0.61329
 C438 C 0.34320 0.32461 0.62072
 H439 H 0.31746 0.34569 0.61739
 H440 H 0.34976 0.31576 0.61894
 H441 H 0.34092 0.34105 0.65532
 H442 H 0.35237 0.35345 0.64624
 N443 N 0.33200 0.87040 0.15907
 N444 N 0.34137 0.87026 0.16852
 C445 C 0.33843 0.88023 0.17756
 C446 C 0.32654 0.88698 0.17362
 C447 C 0.32278 0.88041 0.16180
 H448 H 0.34424 0.88207 0.18661
 H449 H 0.31381 0.88245 0.15578
 Cu450 Cu 0.35595 0.85645 0.16852
 Cu451 Cu 0.33187 0.85692 0.14450
 Cu452 Cu 0.35748 0.83182 0.14471
 N453 N 0.37024 0.84233 0.16858
 N454 N 0.37071 0.83266 0.15930
 C455 C 0.38103 0.82383 0.16208
 C456 C 0.38746 0.82819 0.17374
 C457 C 0.38028 0.84000 0.17755
 H458 H 0.38342 0.81475 0.15618
 H459 H 0.38195 0.84619 0.18644
 N460 N 0.34319 0.83280 0.13077
 N461 N 0.33351 0.84237 0.13064
 C462 C 0.32525 0.84011 0.12006
 C463 C 0.32988 0.82852 0.11318
 C464 C 0.34134 0.82421 0.12027
 H465 H 0.31632 0.84629 0.11773
 H466 H 0.34779 0.81539 0.11805
 H467 H 0.34145 0.84113 0.15510
 H468 H 0.35246 0.85258 0.14457
 N469 N 0.83177 0.36816 0.16047
 N470 N 0.84023 0.36702 0.17066
 C471 C 0.83760 0.37718 0.17954
 C472 C 0.82684 0.38514 0.17474
 C473 C 0.82339 0.37907 0.16258
 H474 H 0.84289 0.37842 0.18899
 H475 H 0.81534 0.38227 0.15581
 Cu476 Cu 0.85338 0.35198 0.17187
 Cu477 Cu 0.83204 0.35504 0.14556
 Cu478 Cu 0.85840 0.33086 0.14547
 N479 N 0.86934 0.34007 0.17064
 N480 N 0.87129 0.33177 0.16036
 C481 C 0.88280 0.32435 0.16238
 C482 C 0.88840 0.32824 0.17459
 C483 C 0.87955 0.33828 0.17952
 H484 H 0.88669 0.31660 0.15551
 H485 H 0.88023 0.34364 0.18902
 N486 N 0.84426 0.33167 0.13141
 N487 N 0.83420 0.34084 0.13145
 C488 C 0.82579 0.33816 0.12107
 C489 C 0.83076 0.32672 0.11416
 C490 C 0.84252 0.32294 0.12101
 H491 H 0.81655 0.34393 0.11893
 H492 H 0.84904 0.31412 0.11895
 H493 H 0.84111 0.33833 0.15517
 H494 H 0.85279 0.35152 0.14750
 N495 N 0.83111 0.86908 0.65835
 N496 N 0.83936 0.86845 0.66874
 C497 C 0.83637 0.87886 0.67724
 C498 C 0.82558 0.88646 0.67197
 C499 C 0.82252 0.87992 0.65994
 H500 H 0.84142 0.88049 0.68676
 H501 H 0.81453 0.88267 0.65292
 Cu502 Cu 0.85271 0.85366 0.67074
 Cu503 Cu 0.83180 0.85542 0.64393
 Cu504 Cu 0.85850 0.83174 0.64505
 N505 N 0.86882 0.84190 0.67014
 N506 N 0.87110 0.83337 0.66010
 C507 C 0.88258 0.82607 0.66258
 C508 C 0.88782 0.83025 0.67487
 C509 C 0.87877 0.84035 0.67934
 H510 H 0.88660 0.81811 0.65603
 H511 H 0.87913 0.84591 0.68874
 N512 N 0.84462 0.83178 0.63074
 N513 N 0.83439 0.84072 0.63034
 C514 C 0.82630 0.83761 0.61983
 C515 C 0.83167 0.82611 0.61328
 C516 C 0.84332 0.82275 0.62052
 H517 H 0.81699 0.84312 0.61738
 H518 H 0.85017 0.81413 0.61875
 H519 H 0.84097 0.83925 0.65427
 H520 H 0.85258 0.85239 0.64638
 N521 N 0.66541 0.63379 0.65715
 N522 N 0.65666 0.63510 0.66709
 C523 C 0.65866 0.62472 0.67596
 C524 C 0.66931 0.61642 0.67138
 C525 C 0.67330 0.62255 0.65936
 H526 H 0.65299 0.62354 0.68521
 H527 H 0.68152 0.61928 0.65281
 Cu528 Cu 0.64396 0.65063 0.66807
 Cu529 Cu 0.66637 0.64720 0.64249
 Cu530 Cu 0.64145 0.67274 0.64185
 N531 N 0.62897 0.66383 0.66650
 N532 N 0.62799 0.67238 0.65625
 C533 C 0.61712 0.68077 0.65806
 C534 C 0.61090 0.67733 0.67014
 C535 C 0.61873 0.66648 0.67519
 H536 H 0.61429 0.68908 0.65130
 H537 H 0.61727 0.66105 0.68460
 N538 N 0.65601 0.67139 0.62823
 N539 N 0.66558 0.66172 0.62851
 C540 C 0.67445 0.66404 0.61839
 C541 C 0.67029 0.67577 0.61138
 C542 C 0.65852 0.68010 0.61792
 H543 H 0.68343 0.65779 0.61644
 H544 H 0.65251 0.68925 0.61568
 H545 H 0.65768 0.66410 0.65220
 H546 H 0.64569 0.65178 0.64373
 N547 N 0.66664 0.13412 0.15727
 N548 N 0.65793 0.13522 0.16728
 C549 C 0.66030 0.12495 0.17616
 C550 C 0.67112 0.11693 0.17154
 C551 C 0.67487 0.12312 0.15948
 H552 H 0.65464 0.12356 0.18539
 H553 H 0.68312 0.12005 0.15288
 Cu554 Cu 0.64455 0.15014 0.16823
 Cu555 Cu 0.66700 0.14741 0.14250
 Cu556 Cu 0.64148 0.17236 0.14218
 N557 N 0.62940 0.16315 0.16688
 N558 N 0.62820 0.17175 0.15670
 C559 C 0.61721 0.17994 0.15866
 C560 C 0.61114 0.17629 0.17075
 C561 C 0.61919 0.16555 0.17567
 H562 H 0.61418 0.18825 0.15197
 H563 H 0.61789 0.16002 0.18504
 N564 N 0.65585 0.17134 0.12838
 N565 N 0.66559 0.16184 0.12848
 C566 C 0.67428 0.16437 0.11826
 C567 C 0.66982 0.17607 0.11138
 C568 C 0.65807 0.18016 0.11810
 H569 H 0.68336 0.15831 0.11619
 H570 H 0.65190 0.18923 0.11601
 H571 H 0.65803 0.16392 0.15240
 H572 H 0.64627 0.15142 0.14388
 N573 N 0.16515 0.63110 0.15932
 N574 N 0.15654 0.63346 0.16920
 C575 C 0.15808 0.62353 0.17863
 C576 C 0.16826 0.61442 0.17448
 C577 C 0.17247 0.61960 0.16213
 H578 H 0.15238 0.62318 0.18793
 H579 H 0.18056 0.61560 0.15581
 Cu580 Cu 0.14468 0.64971 0.16935
 Cu581 Cu 0.16681 0.64365 0.14403
 Cu582 Cu 0.14311 0.67033 0.14199
 N583 N 0.13009 0.66324 0.16694
 N584 N 0.12949 0.67128 0.15628
 C585 C 0.11882 0.68006 0.15757
 C586 C 0.11233 0.67738 0.16971
 C587 C 0.11981 0.66659 0.17536
 H588 H 0.11615 0.68795 0.15029
 H589 H 0.11819 0.66180 0.18506
 N590 N 0.15774 0.66760 0.12857
 N591 N 0.16680 0.65745 0.12937
 C592 C 0.17586 0.65879 0.11925
 C593 C 0.17240 0.67038 0.11169
 C594 C 0.16080 0.67566 0.11791
 H595 H 0.18452 0.65199 0.11769
 H596 H 0.15530 0.68500 0.11520
 H597 H 0.15895 0.66151 0.15274
 H598 H 0.14634 0.64934 0.14499
 N599 N 0.16579 0.13107 0.65981
 N600 N 0.15723 0.13338 0.66975
 C601 C 0.15899 0.12353 0.67922
 C602 C 0.16924 0.11454 0.67502
 C603 C 0.17329 0.11968 0.66262
 H604 H 0.15332 0.12305 0.68853
 H605 H 0.18138 0.11573 0.65628
 Cu606 Cu 0.14491 0.14928 0.66975
 Cu607 Cu 0.16717 0.14348 0.64445
 Cu608 Cu 0.14337 0.17002 0.64237
 N609 N 0.13041 0.16294 0.66735
 N610 N 0.12982 0.17098 0.65669
 C611 C 0.11913 0.17972 0.65793
 C612 C 0.11263 0.17705 0.67005
 C613 C 0.12010 0.16628 0.67573
 H614 H 0.11642 0.18756 0.65060
 H615 H 0.11841 0.16145 0.68540
 N616 N 0.15793 0.16728 0.62892
 N617 N 0.16697 0.15712 0.62970
 C618 C 0.17603 0.15846 0.61958
 C619 C 0.17260 0.17009 0.61206
 C620 C 0.16100 0.17536 0.61828
 H621 H 0.18470 0.15168 0.61804
 H622 H 0.15554 0.18474 0.61561
 H623 H 0.15918 0.16133 0.65328
 H624 H 0.14666 0.14912 0.64541
 N625 N 0.33293 0.63202 0.34067
 N626 N 0.34061 0.63286 0.32985
 C627 C 0.33725 0.62255 0.32138
 C628 C 0.32684 0.61480 0.32715
 C629 C 0.32437 0.62116 0.33942
 H630 H 0.34177 0.62109 0.31157
 H631 H 0.31678 0.61827 0.34681
 Cu632 Cu 0.35374 0.64772 0.32735
 Cu633 Cu 0.33405 0.64564 0.35510
 Cu634 Cu 0.36027 0.66961 0.35285
 N635 N 0.36991 0.65938 0.32748
 N636 N 0.37243 0.66792 0.33743
 C637 C 0.38393 0.67504 0.33470
 C638 C 0.38894 0.67074 0.32234
 C639 C 0.37973 0.66074 0.31808
 H640 H 0.38818 0.68290 0.34119
 H641 H 0.37992 0.65509 0.30872
 N642 N 0.34685 0.66956 0.36763
 N643 N 0.33692 0.66035 0.36856
 C644 C 0.32918 0.66336 0.37938
 C645 C 0.33444 0.67507 0.38557
 C646 C 0.34567 0.67868 0.37781
 H647 H 0.32006 0.65775 0.38222
 H648 H 0.35235 0.68746 0.37929
 H649 H 0.34250 0.66189 0.34440
 H650 H 0.35471 0.64889 0.35169
 N651 N 0.33277 0.13147 0.83900
 N652 N 0.34086 0.13284 0.82853
 C653 C 0.33818 0.12266 0.81968
 C654 C 0.32778 0.11447 0.82484
 C655 C 0.32460 0.12041 0.83714
 H656 H 0.34319 0.12156 0.81006
 H657 H 0.31686 0.11702 0.84418
 Cu658 Cu 0.35371 0.14807 0.82700
 Cu659 Cu 0.33309 0.14452 0.85393
 Cu660 Cu 0.35875 0.16923 0.85339
 N661 N 0.36946 0.16028 0.82796
 N662 N 0.37140 0.16856 0.83824
 C663 C 0.38271 0.17619 0.83604
 C664 C 0.38821 0.17248 0.82369
 C665 C 0.37948 0.16231 0.81888
 H666 H 0.38652 0.18397 0.84287
 H667 H 0.38013 0.15702 0.80934
 N668 N 0.34492 0.16815 0.86778
 N669 N 0.33517 0.15871 0.86802
 C670 C 0.32691 0.16116 0.87860
 C671 C 0.33164 0.17278 0.88535
 C672 C 0.34313 0.17686 0.87820
 H673 H 0.31792 0.15514 0.88098
 H674 H 0.34941 0.18585 0.88010
 H675 H 0.34145 0.16141 0.84404
 H676 H 0.35369 0.14847 0.85136
 N677 N 0.83229 0.63178 0.83911
 N678 N 0.84041 0.63260 0.82861
 C679 C 0.83736 0.62232 0.81999
 C680 C 0.82668 0.61462 0.82530
 C681 C 0.82374 0.62097 0.83749
 H682 H 0.84229 0.62086 0.81036
 H683 H 0.81585 0.61809 0.84457
 Cu684 Cu 0.85365 0.64745 0.82662
 Cu685 Cu 0.83304 0.64527 0.85369
 Cu686 Cu 0.85940 0.66919 0.85241
 N687 N 0.86960 0.65940 0.82710
 N688 N 0.87184 0.66785 0.83718
 C689 C 0.88314 0.67535 0.83460
 C690 C 0.88832 0.67139 0.82219
 C691 C 0.87941 0.66119 0.81776
 H692 H 0.88707 0.68332 0.84115
 H693 H 0.87976 0.65575 0.80829
 N694 N 0.84571 0.66885 0.86693
 N695 N 0.83561 0.65981 0.86741
 C696 C 0.82756 0.66280 0.87802
 C697 C 0.83281 0.67433 0.88456
 C698 C 0.84436 0.67782 0.87721
 H699 H 0.81829 0.65726 0.88051
 H700 H 0.85111 0.68649 0.87895
 H701 H 0.84190 0.66162 0.84337
 H702 H 0.85378 0.64853 0.85099
 N703 N 0.83376 0.13056 0.33752
 N704 N 0.84192 0.13250 0.32719
 C705 C 0.83957 0.12260 0.31797
 C706 C 0.82933 0.11396 0.32272
 C707 C 0.82588 0.11938 0.33518
 H708 H 0.84470 0.12200 0.30837
 H709 H 0.81811 0.11559 0.34201
 Cu710 Cu 0.85436 0.14814 0.32637
 Cu711 Cu 0.83370 0.14303 0.35293
 Cu712 Cu 0.85862 0.16862 0.35333
 N713 N 0.86969 0.16081 0.32768
 N714 N 0.87128 0.16894 0.33814
 C715 C 0.88238 0.17696 0.33617
 C716 C 0.88811 0.17362 0.32382
 C717 C 0.87973 0.16330 0.31875
 H718 H 0.88597 0.18468 0.34319
 H719 H 0.88065 0.15820 0.30913
 N720 N 0.84481 0.16650 0.36769
 N721 N 0.83538 0.15672 0.36754
 C722 C 0.82704 0.15844 0.37819
 C723 C 0.83136 0.16991 0.38541
 C724 C 0.84271 0.17470 0.37845
 H725 H 0.81824 0.15204 0.38028
 H726 H 0.84865 0.18385 0.38070
 H727 H 0.84162 0.16054 0.34374
 H728 H 0.85418 0.14779 0.35075
 N729 N 0.66498 0.36781 0.34174
 N730 N 0.65521 0.36691 0.33271
 C731 C 0.65702 0.37692 0.32340
 C732 C 0.66846 0.38460 0.32683
 C733 C 0.67323 0.37848 0.33854
 H734 H 0.65050 0.37849 0.31475
 H735 H 0.68227 0.38128 0.34413
 Cu736 Cu 0.64163 0.35225 0.33405
 Cu737 Cu 0.66665 0.35472 0.35667
 Cu738 Cu 0.64280 0.32799 0.35811
 N739 N 0.62845 0.33717 0.33442
 N740 N 0.62906 0.32765 0.34390
 C741 C 0.61927 0.31812 0.34174
 C742 C 0.61210 0.32180 0.33025
 C743 C 0.61829 0.33396 0.32587
 H744 H 0.61774 0.30903 0.34793
 H745 H 0.61566 0.33999 0.31707
 N746 N 0.65754 0.33026 0.37146
 N747 N 0.66657 0.34042 0.37091
 C748 C 0.67563 0.33875 0.38096
 C749 C 0.67217 0.32698 0.38823
 C750 C 0.66062 0.32189 0.38189
 H751 H 0.68427 0.34547 0.38268
 H752 H 0.65514 0.31249 0.38438
 H753 H 0.65755 0.33815 0.34701
 H754 H 0.64634 0.34905 0.35787
 N755 N 0.66587 0.86736 0.84166
 N756 N 0.65703 0.86621 0.83181
 C757 C 0.65906 0.87658 0.82295
 C758 C 0.66983 0.88470 0.82741
 C759 C 0.67386 0.87849 0.83938
 H760 H 0.65331 0.87787 0.81377
 H761 H 0.68215 0.88164 0.84585
 Cu762 Cu 0.64414 0.85091 0.83092
 Cu763 Cu 0.66679 0.85389 0.85628
 Cu764 Cu 0.64169 0.82862 0.85697
 N765 N 0.62907 0.83787 0.83256
 N766 N 0.62814 0.82921 0.84273
 C767 C 0.61722 0.82094 0.84094
 C768 C 0.61092 0.82458 0.82896
 C769 C 0.61874 0.83543 0.82396
 H770 H 0.61440 0.81258 0.84765
 H771 H 0.61725 0.84099 0.81463
 N772 N 0.65633 0.82971 0.87048
 N773 N 0.66593 0.83930 0.87021
 C774 C 0.67482 0.83682 0.88027
 C775 C 0.67064 0.82507 0.88722
 C776 C 0.65884 0.82089 0.88071
 H777 H 0.68385 0.84295 0.88219
 H778 H 0.65282 0.81176 0.88291
 H779 H 0.65796 0.83723 0.84655
 H780 H 0.64611 0.84959 0.85524
 N781 N 0.16700 0.36516 0.84547
 N782 N 0.15779 0.36539 0.83588
 C783 C 0.16062 0.37591 0.82738
 C784 C 0.17226 0.38267 0.83188
 C785 C 0.17600 0.37551 0.84341
 H786 H 0.15471 0.37837 0.81852
 H787 H 0.18480 0.37741 0.84967
 Cu788 Cu 0.14331 0.35156 0.83524
 Cu789 Cu 0.16704 0.35113 0.85961
 Cu790 Cu 0.14115 0.32658 0.85875
 N791 N 0.12871 0.33782 0.83492
 N792 N 0.12794 0.32813 0.84421
 C793 C 0.11733 0.31974 0.84148
 C794 C 0.11105 0.32435 0.82982
 C795 C 0.11860 0.33587 0.82593
 H796 H 0.11470 0.31065 0.84732
 H797 H 0.11696 0.34226 0.81713
 N798 N 0.15547 0.32673 0.87264
 N799 N 0.16531 0.33608 0.87298
 C800 C 0.17376 0.33307 0.88326
 C801 C 0.16908 0.32121 0.88970
 C802 C 0.15742 0.31754 0.88268
 H803 H 0.18280 0.33896 0.88569
 H804 H 0.15104 0.30857 0.88447
 H805 H 0.15733 0.33586 0.84874
 H806 H 0.14630 0.34741 0.85922
 N807 N 0.16513 0.86542 0.34385
 N808 N 0.15651 0.86415 0.33382
 C809 C 0.15852 0.87463 0.32506
 C810 C 0.16902 0.88295 0.32980
 C811 C 0.17293 0.87673 0.34180
 H812 H 0.15299 0.87584 0.31574
 H813 H 0.18106 0.87997 0.34842
 Cu814 Cu 0.14400 0.84854 0.33259
 Cu815 Cu 0.16619 0.85178 0.35830
 Cu816 Cu 0.14180 0.82579 0.35832
 N817 N 0.12923 0.83510 0.33388
 N818 N 0.12839 0.82625 0.34391
 C819 C 0.11765 0.81779 0.34190
 C820 C 0.11134 0.82153 0.32994
 C821 C 0.11902 0.83261 0.32517
 H822 H 0.11493 0.80928 0.34846
 H823 H 0.11748 0.83830 0.31593
 N824 N 0.15626 0.82709 0.37202
 N825 N 0.16557 0.83698 0.37201
 C826 C 0.17442 0.83462 0.38212
 C827 C 0.17054 0.82263 0.38884
 C828 C 0.15894 0.81818 0.38214
 H829 H 0.18322 0.84102 0.38424
 H830 H 0.15317 0.80885 0.38416
 H831 H 0.15794 0.83500 0.34823
 H832 H 0.14562 0.84689 0.35692
 C833 C 0.24662 1.03548 0.25304
 C834 C 0.25237 1.02828 0.24220
 C835 C 0.25169 1.01373 0.24197
 C836 C 0.24605 1.00618 0.25282
 C837 C 0.24060 1.01374 0.26376
 C838 C 0.24054 1.02833 0.26375
 C839 C 0.24590 0.99055 0.25272
 C840 C 0.23642 0.98299 0.26059
 C841 C 0.23660 0.96840 0.26079
 C842 C 0.24565 0.96126 0.25234
 C843 C 0.25486 0.96845 0.24413
 C844 C 0.25528 0.98300 0.24473
 H845 H 0.24687 1.04673 0.25312
 H846 H 0.25543 1.00848 0.23311
 H847 H 0.23658 1.00846 0.27250
 H848 H 0.22895 0.98827 0.26675
 H849 H 0.24555 0.95000 0.25221
 H850 H 0.26293 0.98830 0.23879
 C851 C 0.24687 0.53564 0.75336
 C852 C 0.25709 0.52835 0.74644
 C853 C 0.25702 0.51378 0.74672
 C854 C 0.24650 0.50639 0.75331
 C855 C 0.23621 0.51401 0.75999
 C856 C 0.23651 0.52858 0.76029
 C857 C 0.24626 0.49083 0.75315
 C858 C 0.23988 0.48323 0.76356
 C859 C 0.23959 0.46865 0.76335
 C860 C 0.24616 0.46156 0.75288
 C861 C 0.25276 0.46884 0.74255
 C862 C 0.25248 0.48340 0.74257
 H863 H 0.24698 0.54690 0.75337
 H864 H 0.26539 0.50831 0.74195
 H865 H 0.22775 0.50876 0.76480
 H866 H 0.23536 0.48852 0.77205
 H867 H 0.24619 0.45031 0.75280
 H868 H 0.25700 0.48884 0.73415
 C869 C 0.74641 -0.03569 0.25005
 C870 C 0.75298 -0.02828 0.26026
 C871 C 0.75326 -0.01372 0.25962
 C872 C 0.74772 -0.00650 0.24852
 C873 C 0.74142 -0.01426 0.23825
 C874 C 0.74050 -0.02879 0.23908
 C875 C 0.74879 0.00901 0.24757
 C876 C 0.73930 0.01683 0.23998
 C877 C 0.74067 0.03128 0.23860
 C878 C 0.75114 0.03810 0.24555
 C879 C 0.76043 0.03065 0.25348
 C880 C 0.75944 0.01614 0.25413
 H881 H 0.74602 -0.04692 0.25058
 H882 H 0.75775 -0.00814 0.26792
 H883 H 0.73750 -0.00917 0.22935
 H884 H 0.73087 0.01177 0.23498
 H885 H 0.75181 0.04933 0.24505
 H886 H 0.76722 0.01051 0.25963
 C887 C 0.74708 0.46428 0.74872
 C888 C 0.75283 0.47140 0.75957
 C889 C 0.75217 0.48596 0.75985
 C890 C 0.74647 0.49359 0.74908
 C891 C 0.74099 0.48609 0.73814
 C892 C 0.74099 0.47150 0.73806
 C893 C 0.74629 0.50923 0.74926
 C894 C 0.73685 0.51685 0.74137
 C895 C 0.73699 0.53144 0.74117
 C896 C 0.74597 0.53853 0.74966
 C897 C 0.75515 0.53131 0.75791
 C898 C 0.75560 0.51675 0.75730
 H899 H 0.74736 0.45303 0.74857
 H900 H 0.75596 0.49115 0.76870
 H901 H 0.73691 0.49142 0.72946
 H902 H 0.72942 0.51160 0.73520
 H903 H 0.74586 0.54979 0.74980
 H904 H 0.76322 0.51143 0.76325
 C905 C 0.24408 0.46375 0.25509
 C906 C 0.25002 0.47091 0.26582
 C907 C 0.24963 0.48549 0.26591
 C908 C 0.24402 0.49305 0.25504
 C909 C 0.23843 0.48551 0.24421
 C910 C 0.23811 0.47094 0.24433
 C911 C 0.24406 0.50866 0.25497
 C912 C 0.23453 0.51625 0.24719
 C913 C 0.23492 0.53081 0.24665
 C914 C 0.24425 0.53794 0.25473
 C915 C 0.25350 0.53074 0.26292
 C916 C 0.25369 0.51617 0.26264
 H917 H 0.24414 0.45250 0.25509
 H918 H 0.25358 0.49078 0.27464
 H919 H 0.23452 0.49082 0.23544
 H920 H 0.22684 0.51097 0.24134
 H921 H 0.24434 0.54920 0.25460
 H922 H 0.26134 0.51082 0.26853
 C923 C 0.74381 1.03710 0.74671
 C924 C 0.75001 1.02982 0.73616
 C925 C 0.74973 1.01524 0.73624
 C926 C 0.74398 1.00776 0.74711
 C927 C 0.73807 1.01546 0.75775
 C928 C 0.73766 1.03004 0.75743
 C929 C 0.74423 0.99210 0.74740
 C930 C 0.73509 0.98449 0.75564
 C931 C 0.73572 0.96993 0.75634
 C932 C 0.74485 0.96279 0.74800
 C933 C 0.75370 0.96994 0.73938
 C934 C 0.75370 0.98453 0.73949
 H935 H 0.74380 1.04835 0.74658
 H936 H 0.75388 1.00992 0.72760
 H937 H 0.73398 1.01032 0.76652
 H938 H 0.72751 0.98972 0.76170
 H939 H 0.74510 0.95153 0.74824
 H940 H 0.76109 0.98980 0.73325
 C941 C 0.74507 0.53634 0.24813
 C942 C 0.75166 0.52900 0.23786
 C943 C 0.75161 0.51442 0.23816
 C944 C 0.74569 0.50706 0.24899
 C945 C 0.73935 0.51477 0.25933
 C946 C 0.73875 0.52935 0.25881
 C947 C 0.74639 0.49147 0.24961
 C948 C 0.73671 0.48374 0.25706
 C949 C 0.73779 0.46922 0.25818
 C950 C 0.74813 0.46227 0.25109
 C951 C 0.75760 0.46962 0.24328
 C952 C 0.75690 0.48417 0.24288
 H953 H 0.74493 0.54759 0.24785
 H954 H 0.75614 0.50894 0.22978
 H955 H 0.73510 0.50961 0.26804
 H956 H 0.72836 0.48889 0.26218
 H957 H 0.74859 0.45103 0.25138
 H958 H 0.76481 0.48968 0.23747
 C959 C 0.24456 -0.03707 0.75463
 C960 C 0.25078 -0.02969 0.76507
 C961 C 0.25093 -0.01512 0.76458
 C962 C 0.24553 -0.00785 0.75346
 C963 C 0.23956 -0.01556 0.74296
 C964 C 0.23882 -0.03011 0.74360
 C965 C 0.24641 0.00767 0.75270
 C966 C 0.23680 0.01545 0.74522
 C967 C 0.23801 0.02993 0.74398
 C968 C 0.24848 0.03679 0.75089
 C969 C 0.25791 0.02936 0.75870
 C970 C 0.25701 0.01484 0.75931
 H971 H 0.24428 -0.04831 0.75503
 H972 H 0.25518 -0.00956 0.77302
 H973 H 0.23578 -0.01039 0.73405
 H974 H 0.22843 0.01034 0.74018
 H975 H 0.24908 0.04802 0.75046
 H976 H 0.26482 0.00922 0.76478
 C977 C 0.25775 0.25293 1.03471
 C978 C 0.24943 0.26219 1.02754
 C979 C 0.24862 0.26099 1.01352
 C980 C 0.25545 0.25020 1.00661
 C981 C 0.26354 0.24083 1.01416
 C982 C 0.26501 0.24238 1.02812
 C983 C 0.25415 0.24881 0.99164
 C984 C 0.26454 0.24241 0.98392
 C985 C 0.26336 0.24125 0.96990
 C986 C 0.25190 0.24695 0.96347
 C987 C 0.24153 0.25350 0.97083
 C988 C 0.24255 0.25409 0.98488
 H989 H 0.25826 0.25364 1.04556
 H990 H 0.24277 0.26870 1.00807
 H991 H 0.26881 0.23233 1.00930
 H992 H 0.27376 0.23858 0.98865
 H993 H 0.25109 0.24635 0.95263
 H994 H 0.23412 0.25857 0.99043
 C995 C 0.25081 0.74401 0.53455
 C996 C 0.24382 0.75466 0.52783
 C997 C 0.24527 0.75596 0.51385
 C998 C 0.25298 0.74621 0.50639
 C999 C 0.25964 0.73537 0.51344
 C1000 C 0.25882 0.73439 0.52750
 C1001 C 0.25389 0.74720 0.49134
 C1002 C 0.26514 0.74151 0.48430
 C1003 C 0.26582 0.74207 0.47021
 C1004 C 0.25541 0.74888 0.46310
 C1005 C 0.24423 0.75481 0.46979
 C1006 C 0.24341 0.75371 0.48384
 H1007 H 0.25026 0.74344 0.54541
 H1008 H 0.24022 0.76455 0.50888
 H1009 H 0.26527 0.72744 0.50808
 H1010 H 0.27356 0.73678 0.48967
 H1011 H 0.25598 0.74948 0.45224
 H1012 H 0.23436 0.75769 0.48878
 C1013 C 0.25609 0.74627 -0.03407
 C1014 C 0.26665 0.75278 -0.02702
 C1015 C 0.26637 0.75275 -0.01291
 C1016 C 0.25528 0.74692 -0.00572
 C1017 C 0.24459 0.74079 -0.01318
 C1018 C 0.24510 0.74015 -0.02726
 C1019 C 0.25481 0.74729 0.00942
 C1020 C 0.24661 0.73785 0.01678
 C1021 C 0.24575 0.73851 0.03085
 C1022 C 0.25391 0.74806 0.03774
 C1023 C 0.26255 0.75718 0.03080
 C1024 C 0.26256 0.75711 0.01670
 H1025 H 0.25638 0.74605 -0.04494
 H1026 H 0.27502 0.75717 -0.00772
 H1027 H 0.23561 0.73672 -0.00824
 H1028 H 0.24071 0.72998 0.01171
 H1029 H 0.25356 0.74837 0.04862
 H1030 H 0.26880 0.76468 0.01157
 C1031 C 0.25390 0.24852 0.46714
 C1032 C 0.26512 0.25422 0.47388
 C1033 C 0.26552 0.25371 0.48797
 C1034 C 0.25451 0.24816 0.49548
 C1035 C 0.24318 0.24284 0.48837
 C1036 C 0.24300 0.24265 0.47427
 C1037 C 0.25487 0.24790 0.51060
 C1038 C 0.24684 0.23834 0.51798
 C1039 C 0.24679 0.23837 0.53209
 C1040 C 0.25558 0.24737 0.53892
 C1041 C 0.26399 0.25664 0.53191
 C1042 C 0.26325 0.25719 0.51783
 H1043 H 0.25366 0.24864 0.45626
 H1044 H 0.27462 0.25745 0.49290
 H1045 H 0.23429 0.23897 0.49363
 H1046 H 0.24044 0.23090 0.51290
 H1047 H 0.25583 0.24720 0.54980
 H1048 H 0.26937 0.26485 0.51266
 C1049 C 0.75458 0.75070 1.03320
 C1050 C 0.74584 0.75973 1.02628
 C1051 C 0.74623 0.76003 1.01218
 C1052 C 0.75451 0.75063 1.00483
 C1053 C 0.76283 0.74126 1.01218
 C1054 C 0.76328 0.74163 1.02627
 C1055 C 0.75444 0.75057 0.98968
 C1056 C 0.76534 0.74462 0.98228
 C1057 C 0.76514 0.74423 0.96818
 C1058 C 0.75428 0.75052 0.96130
 C1059 C 0.74351 0.75684 0.96829
 C1060 C 0.74345 0.75648 0.98239
 H1061 H 0.75460 0.75070 1.04409
 H1062 H 0.73987 0.76757 1.00711
 H1063 H 0.76912 0.73367 1.00712
 H1064 H 0.77423 0.74042 0.98729
 H1065 H 0.75421 0.75050 0.95042
 H1066 H 0.73460 0.76066 0.98747
 C1067 C 0.75457 0.24980 0.53328
 C1068 C 0.74361 0.25582 0.52634
 C1069 C 0.74343 0.25532 0.51225
 C1070 C 0.75443 0.24946 0.50492
 C1071 C 0.76547 0.24372 0.51224
 C1072 C 0.76545 0.24359 0.52635
 C1073 C 0.75439 0.24942 0.48980
 C1074 C 0.76244 0.23984 0.48244
 C1075 C 0.76276 0.24015 0.46834
 C1076 C 0.75422 0.24941 0.46146
 C1077 C 0.74576 0.25866 0.46842
 C1078 C 0.74626 0.25899 0.48250
 H1079 H 0.75462 0.24994 0.54416
 H1080 H 0.73450 0.25935 0.50718
 H1081 H 0.77431 0.23952 0.50714
 H1082 H 0.76863 0.23215 0.48753
 H1083 H 0.75413 0.24940 0.45058
 H1084 H 0.74013 0.26669 0.48762
 C1085 C 0.75687 0.24594 -0.03437
 C1086 C 0.76440 0.25619 -0.02772
 C1087 C 0.76325 0.25743 -0.01370
 C1088 C 0.75529 0.24796 -0.00615
 C1089 C 0.74822 0.23744 -0.01314
 C1090 C 0.74863 0.23665 -0.02720
 C1091 C 0.75436 0.24896 0.00890
 C1092 C 0.74309 0.24328 0.01590
 C1093 C 0.74242 0.24358 0.02998
 C1094 C 0.75275 0.25032 0.03715
 C1095 C 0.76383 0.25646 0.03050
 C1096 C 0.76474 0.25548 0.01645
 H1097 H 0.75712 0.24549 -0.04524
 H1098 H 0.76867 0.26576 -0.00881
 H1099 H 0.74246 0.22962 -0.00777
 H1100 H 0.73462 0.23873 0.01053
 H1101 H 0.75218 0.25077 0.04801
 H1102 H 0.77376 0.25960 0.01159
 C1103 C 0.75478 0.74916 0.46502
 C1104 C 0.76326 0.75835 0.47197
 C1105 C 0.76274 0.75868 0.48606
 C1106 C 0.75452 0.74921 0.49337
 C1107 C 0.74643 0.73973 0.48602
 C1108 C 0.74617 0.74000 0.47192
 C1109 C 0.75437 0.74924 0.50851
 C1110 C 0.74338 0.74334 0.51578
 C1111 C 0.74335 0.74301 0.52988
 C1112 C 0.75405 0.74935 0.53688
 C1113 C 0.76490 0.75563 0.53000
 C1114 C 0.76521 0.75520 0.51591
 H1115 H 0.75486 0.74915 0.45413
 H1116 H 0.76891 0.76630 0.49115
 H1117 H 0.74011 0.73217 0.49107
 H1118 H 0.73458 0.73916 0.51067
 H1119 H 0.75392 0.74942 0.54776
 H1120 H 0.77411 0.75937 0.51091
 C1121 C 1.04043 0.24944 0.24771
 C1122 C 1.03344 0.24317 0.25840
 C1123 C 1.01910 0.24381 0.25880
 C1124 C 1.01162 0.25014 0.24831
 C1125 C 1.01894 0.25608 0.23750
 C1126 C 1.03329 0.25606 0.23731
 C1127 C 0.99629 0.25063 0.24869
 C1128 C 0.98906 0.26124 0.24192
 C1129 C 0.97472 0.26163 0.24197
 C1130 C 0.96749 0.25160 0.24930
 C1131 C 0.97438 0.24109 0.25635
 C1132 C 0.98872 0.24052 0.25583
 H1133 H 1.05151 0.24920 0.24749
 H1134 H 1.01390 0.23957 0.26748
 H1135 H 1.01360 0.26059 0.22903
 H1136 H 0.99448 0.26946 0.23676
 H1137 H 0.95642 0.25196 0.24950
 H1138 H 0.99385 0.23197 0.26079
 C1139 C 0.53944 0.25372 0.75147
 C1140 C 0.53246 0.24706 0.76193
 C1141 C 0.51809 0.24707 0.76193
 C1142 C 0.51063 0.25321 0.75130
 C1143 C 0.51798 0.25962 0.74076
 C1144 C 0.53233 0.26011 0.74092
 C1145 C 0.49530 0.25283 0.75112
 C1146 C 0.48766 0.26324 0.74445
 C1147 C 0.47331 0.26278 0.74410
 C1148 C 0.46650 0.25201 0.75081
 C1149 C 0.47380 0.24164 0.75765
 C1150 C 0.48815 0.24199 0.75759
 H1151 H 0.55052 0.25389 0.75150
 H1152 H 0.51282 0.24243 0.77038
 H1153 H 0.51266 0.26400 0.73222
 H1154 H 0.49276 0.27193 0.73970
 H1155 H 0.45543 0.25169 0.75071
 H1156 H 0.49364 0.23358 0.76240
 C1157 C -0.03867 0.24953 0.75007
 C1158 C -0.03181 0.26055 0.75626
 C1159 C -0.01746 0.26106 0.75562
 C1160 C -0.00990 0.25045 0.74921
 C1161 C -0.01710 0.23938 0.74324
 C1162 C -0.03145 0.23899 0.74343
 C1163 C 0.00542 0.25093 0.74872
 C1164 C 0.01269 0.24476 0.73801
 C1165 C 0.02704 0.24498 0.73761
 C1166 C 0.03420 0.25181 0.74781
 C1167 C 0.02727 0.25818 0.75849
 C1168 C 0.01292 0.25753 0.75898
 H1169 H -0.04974 0.24916 0.75038
 H1170 H -0.01230 0.26993 0.75990
 H1171 H -0.01162 0.23086 0.73861
 H1172 H 0.00726 0.23996 0.72978
 H1173 H 0.04527 0.25214 0.74745
 H1174 H 0.00771 0.26195 0.76757
 C1175 C 0.46060 0.25160 0.25007
 C1176 C 0.46788 0.26216 0.25653
 C1177 C 0.48223 0.26172 0.25654
 C1178 C 0.48937 0.25060 0.25053
 C1179 C 0.48178 0.23999 0.24427
 C1180 C 0.46742 0.24053 0.24383
 C1181 C 0.50467 0.25005 0.25081
 C1182 C 0.51205 0.24364 0.24031
 C1183 C 0.52640 0.24292 0.24060
 C1184 C 0.53345 0.24900 0.25132
 C1185 C 0.52639 0.25562 0.26178
 C1186 C 0.51203 0.25594 0.26156
 H1187 H 0.44952 0.25197 0.24992
 H1188 H 0.48777 0.27022 0.26107
 H1189 H 0.48693 0.23110 0.23993
 H1190 H 0.50673 0.23943 0.23172
 H1191 H 0.54452 0.24861 0.25152
 H1192 H 0.50667 0.26058 0.26995
 C1193 C 1.03886 0.75115 0.74886
 C1194 C 1.03170 0.74470 0.75936
 C1195 C 1.01735 0.74495 0.75930
 C1196 C 1.01008 0.75114 0.74862
 C1197 C 1.01753 0.75734 0.73807
 C1198 C 1.03188 0.75763 0.73826
 C1199 C 0.99479 0.75116 0.74852
 C1200 C 0.98748 0.76201 0.74223
 C1201 C 0.97313 0.76201 0.74196
 C1202 C 0.96601 0.75128 0.74840
 C1203 C 0.97302 0.74049 0.75490
 C1204 C 0.98738 0.74036 0.75473
 H1205 H 1.04994 0.75115 0.74895
 H1206 H 1.01193 0.74053 0.76778
 H1207 H 1.01227 0.76178 0.72952
 H1208 H 0.99286 0.77067 0.73774
 H1209 H 0.95493 0.75133 0.74836
 H1210 H 0.99268 0.73167 0.75928
 C1211 C 0.53930 0.75310 0.25173
 C1212 C 0.53207 0.74544 0.26136
 C1213 C 0.51775 0.74471 0.26046
 C1214 C 0.51064 0.75094 0.24964
 C1215 C 0.51828 0.75835 0.23994
 C1216 C 0.53252 0.75981 0.24116
 C1217 C 0.49536 0.74979 0.24859
 C1218 C 0.48757 0.76002 0.24182
 C1219 C 0.47326 0.75902 0.24097
 C1220 C 0.46661 0.74793 0.24731
 C1221 C 0.47403 0.73769 0.25418
 C1222 C 0.48836 0.73851 0.25453
 H1223 H 0.55037 0.75353 0.25224
 H1224 H 0.51225 0.73942 0.26838
 H1225 H 0.51325 0.76312 0.23143
 H1226 H 0.49245 0.76903 0.23745
 H1227 H 0.45555 0.74731 0.24696
 H1228 H 0.49396 0.73018 0.25935
 C1229 C -0.03952 0.75000 0.24910
 C1230 C -0.03250 0.76064 0.25573
 C1231 C -0.01814 0.76076 0.25542
 C1232 C -0.01073 0.75013 0.24889
 C1233 C -0.01807 0.73945 0.24245
 C1234 C -0.03243 0.73943 0.24236
 C1235 C 0.00459 0.75019 0.24882
 C1236 C 0.01199 0.74432 0.23803
 C1237 C 0.02635 0.74421 0.23800
 C1238 C 0.03339 0.75036 0.24868
 C1239 C 0.02632 0.75642 0.25944
 C1240 C 0.01196 0.75613 0.25954
 H1241 H -0.05060 0.74995 0.24919
 H1242 H -0.01283 0.76933 0.26008
 H1243 H -0.01270 0.73093 0.23771
 H1244 H 0.00666 0.74004 0.22947
 H1245 H 0.04447 0.75042 0.24864
 H1246 H 0.00662 0.76033 0.26816
 C1247 C 0.46032 0.75555 0.74647
 C1248 C 0.46756 0.76581 0.75342
 C1249 C 0.48191 0.76535 0.75352
 C1250 C 0.48909 0.75442 0.74724
 C1251 C 0.48153 0.74408 0.74054
 C1252 C 0.46720 0.74472 0.73992
 C1253 C 0.50437 0.75375 0.74777
 C1254 C 0.51189 0.74733 0.73738
 C1255 C 0.52620 0.74640 0.73797
 C1256 C 0.53312 0.75240 0.74880
 C1257 C 0.52593 0.75908 0.75913
 C1258 C 0.51159 0.75950 0.75868
 H1259 H 0.44925 0.75595 0.74623
 H1260 H 0.48739 0.77369 0.75838
 H1261 H 0.48669 0.73529 0.73603
 H1262 H 0.50673 0.74322 0.72865
 H1263 H 0.54418 0.75189 0.74919
 H1264 H 0.50613 0.76411 0.76702
 C1265 C 0.41654 0.31318 0.30150
 C1266 C 0.41479 0.30927 0.31494
 C1267 C 0.40427 0.31512 0.32260
 C1268 C 0.39527 0.32494 0.31691
 C1269 C 0.39733 0.32902 0.30346
 C1270 C 0.40786 0.32314 0.29581
 C1271 C 0.42668 0.30631 0.29337
 C1272 C 0.43483 0.30007 0.28656
 C1273 C 0.44409 0.29198 0.27847
 C1274 C 0.45605 0.28648 0.28411
 C1275 C 0.46415 0.27722 0.27674
 C1276 C 0.46033 0.27333 0.26366
 C1277 C 0.44859 0.27936 0.25790
 C1278 C 0.44052 0.28860 0.26528
 H1279 H 0.42142 0.30151 0.31943
 H1280 H 0.40315 0.31178 0.33292
 H1281 H 0.39065 0.33651 0.29868
 H1282 H 0.40907 0.32617 0.28539
 H1283 H 0.45886 0.28897 0.29434
 H1284 H 0.47304 0.27261 0.28148
 H1285 H 0.44549 0.27667 0.24780
 H1286 H 0.43126 0.29277 0.26083
 C1287 C 0.41647 0.81476 0.80080
 C1288 C 0.41403 0.80964 0.81373
 C1289 C 0.40347 0.81519 0.82155
 C1290 C 0.39506 0.82596 0.81653
 C1291 C 0.39794 0.83127 0.80359
 C1292 C 0.40851 0.82568 0.79581
 C1293 C 0.42654 0.80818 0.79237
 C1294 C 0.43462 0.80220 0.78527
 C1295 C 0.44380 0.79446 0.77679
 C1296 C 0.45579 0.78870 0.78212
 C1297 C 0.46387 0.77984 0.77430
 C1298 C 0.46000 0.77659 0.76107
 C1299 C 0.44823 0.78286 0.75564
 C1300 C 0.44017 0.79171 0.76347
 H1301 H 0.42014 0.80116 0.81769
 H1302 H 0.40186 0.81078 0.83142
 H1303 H 0.39196 0.83960 0.79925
 H1304 H 0.41030 0.82971 0.78579
 H1305 H 0.45864 0.79069 0.79245
 H1306 H 0.47279 0.77504 0.77879
 H1307 H 0.44511 0.78068 0.74543
 H1308 H 0.43089 0.79609 0.75925
 C1309 C -0.08398 0.31043 0.80199
 C1310 C -0.09012 0.32263 0.79724
 C1311 C -0.10054 0.32903 0.80465
 C1312 C -0.10503 0.32329 0.81692
 C1313 C -0.09857 0.31116 0.82172
 C1314 C -0.08816 0.30478 0.81429
 C1315 C -0.07390 0.30334 0.79395
 C1316 C -0.06577 0.29708 0.78712
 C1317 C -0.05651 0.28914 0.77888
 C1318 C -0.06049 0.28518 0.76596
 C1319 C -0.05218 0.27633 0.75837
 C1320 C -0.03978 0.27126 0.76364
 C1321 C -0.03561 0.27570 0.77645
 C1322 C -0.04395 0.28457 0.78403
 H1323 H -0.08700 0.32707 0.78771
 H1324 H -0.10511 0.33840 0.80064
 H1325 H -0.10169 0.30638 0.83107
 H1326 H -0.08352 0.29530 0.81803
 H1327 H -0.07018 0.28865 0.76186
 H1328 H -0.05559 0.27324 0.74848
 H1329 H -0.02620 0.27185 0.78083
 H1330 H -0.04079 0.28754 0.79405
 C1331 C -0.08404 0.81083 0.30181
 C1332 C -0.09062 0.82267 0.29680
 C1333 C -0.10101 0.82908 0.30423
 C1334 C -0.10504 0.82368 0.31680
 C1335 C -0.09815 0.81191 0.32184
 C1336 C -0.08776 0.80554 0.31439
 C1337 C -0.07400 0.80369 0.29376
 C1338 C -0.06592 0.79738 0.28692
 C1339 C -0.05674 0.78937 0.27865
 C1340 C -0.06052 0.78601 0.26551
 C1341 C -0.05235 0.77709 0.25785
 C1342 C -0.04030 0.77137 0.26327
 C1343 C -0.03630 0.77522 0.27631
 C1344 C -0.04451 0.78414 0.28396
 H1345 H -0.08785 0.82685 0.28705
 H1346 H -0.10593 0.83816 0.30001
 H1347 H -0.10090 0.80741 0.33143
 H1348 H -0.08277 0.79634 0.31835
 H1349 H -0.06995 0.79000 0.26128
 H1350 H -0.05559 0.77446 0.24777
 H1351 H -0.02714 0.77088 0.28078
 H1352 H -0.04151 0.78664 0.29415
 C1353 C 0.58323 0.69889 0.31127
 C1354 C 0.58693 0.70247 0.32438
 C1355 C 0.59705 0.69489 0.33112
 C1356 C 0.60369 0.68365 0.32481
 C1357 C 0.59974 0.68004 0.31167
 C1358 C 0.58962 0.68763 0.30496
 C1359 C 0.57325 0.70703 0.30410
 C1360 C 0.56518 0.71393 0.29779
 C1361 C 0.55598 0.72224 0.28983
 C1362 C 0.55920 0.73611 0.28706
 C1363 C 0.55111 0.74384 0.27822
 C1364 C 0.53966 0.73780 0.27199
 C1365 C 0.53622 0.72400 0.27520
 C1366 C 0.54435 0.71627 0.28405
 H1367 H 0.58210 0.71120 0.32934
 H1368 H 0.59965 0.69791 0.34125
 H1369 H 0.60459 0.67152 0.30643
 H1370 H 0.58689 0.68482 0.29478
 H1371 H 0.56819 0.74083 0.29145
 H1372 H 0.55396 0.75447 0.27603
 H1373 H 0.52760 0.71901 0.27041
 H1374 H 0.54181 0.70551 0.28606
 C1375 C 0.58456 0.20064 0.81115
 C1376 C 0.58875 0.18772 0.80619
 C1377 C 0.59886 0.18008 0.81288
 C1378 C 0.60499 0.18526 0.82464
 C1379 C 0.60052 0.19819 0.82964
 C1380 C 0.59041 0.20581 0.82293
 C1381 C 0.57463 0.20882 0.80391
 C1382 C 0.56655 0.21576 0.79765
 C1383 C 0.55722 0.22408 0.78982
 C1384 C 0.54519 0.21825 0.78475
 C1385 C 0.53675 0.22597 0.77617
 C1386 C 0.54034 0.23959 0.77246
 C1387 C 0.55220 0.24553 0.77797
 C1388 C 0.56057 0.23782 0.78660
 H1389 H 0.58430 0.18362 0.79706
 H1390 H 0.60190 0.17017 0.80873
 H1391 H 0.60491 0.20259 0.83862
 H1392 H 0.58728 0.21582 0.82685
 H1393 H 0.54253 0.20760 0.78711
 H1394 H 0.52776 0.22110 0.77196
 H1395 H 0.55515 0.25604 0.77538
 H1396 H 0.56984 0.24247 0.79049
 C1397 C 1.08170 0.69955 0.81139
 C1398 C 1.08772 0.70505 0.82293
 C1399 C 1.09804 0.69769 0.82959
 C1400 C 1.10253 0.68473 0.82472
 C1401 C 1.09618 0.67916 0.81326
 C1402 C 1.08585 0.68653 0.80664
 C1403 C 1.07188 0.70759 0.80393
 C1404 C 1.06402 0.71439 0.79731
 C1405 C 1.05511 0.72251 0.78889
 C1406 C 1.05893 0.73595 0.78509
 C1407 C 1.05108 0.74337 0.77579
 C1408 C 1.03929 0.73741 0.77018
 C1409 C 1.03525 0.72408 0.77440
 C1410 C 1.04315 0.71666 0.78368
 H1411 H 1.08464 0.71516 0.82664
 H1412 H 1.10270 0.70237 0.83831
 H1413 H 1.09924 0.66917 0.80930
 H1414 H 1.08127 0.68219 0.79768
 H1415 H 1.06817 0.74058 0.78906
 H1416 H 1.05434 0.75368 0.77283
 H1417 H 1.02631 0.71918 0.77012
 H1418 H 1.04015 0.70622 0.78650
 C1419 C 1.08380 0.19664 0.30915
 C1420 C 1.09101 0.18577 0.30305
 C1421 C 1.10094 0.17842 0.31026
 C1422 C 1.10382 0.18188 0.32369
 C1423 C 1.09624 0.19260 0.32983
 C1424 C 1.08634 0.19994 0.32259
 C1425 C 1.07422 0.20477 0.30149
 C1426 C 1.06644 0.21172 0.29490
 C1427 C 1.05750 0.22008 0.28673
 C1428 C 1.04524 0.21455 0.28189
 C1429 C 1.03711 0.22229 0.27306
 C1430 C 1.04121 0.23562 0.26892
 C1431 C 1.05331 0.24127 0.27420
 C1432 C 1.06140 0.23354 0.28304
 H1433 H 1.08911 0.18313 0.29264
 H1434 H 1.10654 0.17027 0.30518
 H1435 H 1.09798 0.19542 0.34019
 H1436 H 1.08079 0.20831 0.32742
 H1437 H 1.04215 0.20413 0.28467
 H1438 H 1.02791 0.21764 0.26904
 H1439 H 1.05661 0.25159 0.27131
 H1440 H 1.07085 0.23794 0.28677
 C1441 C 0.58342 0.30589 0.69042
 C1442 C 0.59067 0.31662 0.69661
 C1443 C 0.60090 0.32369 0.68957
 C1444 C 0.60407 0.32007 0.67622
 C1445 C 0.59646 0.30950 0.66999
 C1446 C 0.58623 0.30245 0.67706
 C1447 C 0.57355 0.29801 0.69795
 C1448 C 0.56558 0.29121 0.70445
 C1449 C 0.55648 0.28296 0.71253
 C1450 C 0.54425 0.28863 0.71741
 C1451 C 0.53603 0.28095 0.72621
 C1452 C 0.54003 0.26755 0.73029
 C1453 C 0.55208 0.26175 0.72493
 C1454 C 0.56026 0.26943 0.71614
 H1455 H 0.58859 0.31934 0.70698
 H1456 H 0.60650 0.33175 0.69473
 H1457 H 0.59843 0.30654 0.65970
 H1458 H 0.58067 0.29416 0.67217
 H1459 H 0.54126 0.29911 0.71470
 H1460 H 0.52687 0.28570 0.73028
 H1461 H 0.55529 0.25137 0.72775
 H1462 H 0.56970 0.26492 0.71242
 C1463 C 0.58380 0.80488 0.18983
 C1464 C 0.58953 0.79881 0.17836
 C1465 C 0.59996 0.80562 0.17133
 C1466 C 0.60487 0.81857 0.17574
 C1467 C 0.59882 0.82471 0.18713
 C1468 C 0.58839 0.81789 0.19412
 C1469 C 0.57377 0.79748 0.19765
 C1470 C 0.56576 0.79129 0.20466
 C1471 C 0.55677 0.78392 0.21364
 C1472 C 0.54628 0.77544 0.20872
 C1473 C 0.53815 0.76776 0.21764
 C1474 C 0.54050 0.76843 0.23156
 C1475 C 0.55087 0.77720 0.23638
 C1476 C 0.55893 0.78487 0.22749
 H1477 H 0.58613 0.78870 0.17500
 H1478 H 0.60438 0.80055 0.16266
 H1479 H 0.60217 0.83473 0.19072
 H1480 H 0.58406 0.82267 0.20301
 H1481 H 0.54454 0.77460 0.19800
 H1482 H 0.53031 0.76101 0.21364
 H1483 H 0.55280 0.77809 0.24706
 H1484 H 0.56698 0.79141 0.23142
 C1485 C 1.08496 0.30187 0.18750
 C1486 C 1.08924 0.31465 0.19264
 C1487 C 1.09957 0.32215 0.18616
 C1488 C 1.10584 0.31692 0.17445
 C1489 C 1.10126 0.30415 0.16926
 C1490 C 1.09092 0.29669 0.17575
 C1491 C 1.07491 0.29378 0.19462
 C1492 C 1.06678 0.28691 0.20086
 C1493 C 1.05748 0.27867 0.20875
 C1494 C 1.04560 0.28466 0.21410
 C1495 C 1.03736 0.27707 0.22295
 C1496 C 1.04096 0.26342 0.22659
 C1497 C 1.05261 0.25730 0.22075
 C1498 C 1.06082 0.26490 0.21190
 H1499 H 1.08471 0.31875 0.20175
 H1500 H 1.10266 0.33196 0.19043
 H1501 H 1.10577 0.29974 0.16031
 H1502 H 1.08771 0.28679 0.17171
 H1503 H 1.04294 0.29533 0.21175
 H1504 H 1.02853 0.28208 0.22743
 H1505 H 1.05551 0.24675 0.22326
 H1506 H 1.06998 0.26015 0.20780
 C1507 C 1.08354 0.80313 0.68807
 C1508 C 1.09009 0.81416 0.69451
 C1509 C 1.10053 0.82145 0.68798
 C1510 C 1.10465 0.81775 0.67490
 C1511 C 1.09779 0.80680 0.66842
 C1512 C 1.08734 0.79953 0.67498
 C1513 C 1.07338 0.79515 0.69519
 C1514 C 1.06524 0.78838 0.70152
 C1515 C 1.05602 0.78020 0.70958
 C1516 C 1.04393 0.78604 0.71464
 C1517 C 1.03576 0.77848 0.72359
 C1518 C 1.03965 0.76503 0.72764
 C1519 C 1.05156 0.75909 0.72215
 C1520 C 1.05968 0.76663 0.71318
 H1521 H 1.08725 0.81702 0.70466
 H1522 H 1.10549 0.82979 0.69333
 H1523 H 1.10050 0.80374 0.65831
 H1524 H 1.08234 0.79101 0.66988
 H1525 H 1.04103 0.79657 0.71199
 H1526 H 1.02670 0.78334 0.72776
 H1527 H 1.05471 0.74870 0.72499
 H1528 H 1.06899 0.76200 0.70932
 C1529 C 0.41626 0.69385 0.69431
 C1530 C 0.41054 0.69965 0.68270
 C1531 C 0.40008 0.69271 0.67590
 C1532 C 0.39517 0.67989 0.68069
 C1533 C 0.40123 0.67401 0.69220
 C1534 C 0.41167 0.68096 0.69897
 C1535 C 0.42620 0.70148 0.70192
 C1536 C 0.43413 0.70810 0.70857
 C1537 C 0.44307 0.71633 0.71678
 C1538 C 0.45548 0.72127 0.71164
 C1539 C 0.46360 0.73015 0.71935
 C1540 C 0.45932 0.73424 0.73226
 C1541 C 0.44703 0.72889 0.73746
 C1542 C 0.43896 0.72001 0.72976
 H1543 H 0.41396 0.70968 0.67906
 H1544 H 0.39563 0.69761 0.66714
 H1545 H 0.39786 0.66409 0.69610
 H1546 H 0.41600 0.67639 0.70797
 H1547 H 0.45872 0.71853 0.70157
 H1548 H 0.47295 0.73421 0.71504
 H1549 H 0.44356 0.73172 0.74743
 H1550 H 0.42937 0.71623 0.73383
 C1551 C 0.41548 0.18998 0.19902
 C1552 C 0.40930 0.17795 0.20404
 C1553 C 0.39899 0.17137 0.19672
 C1554 C 0.39463 0.17679 0.18428
 C1555 C 0.40111 0.18879 0.17924
 C1556 C 0.41143 0.19532 0.18657
 C1557 C 0.42551 0.19722 0.20692
 C1558 C 0.43360 0.20360 0.21362
 C1559 C 0.44282 0.21168 0.22169
 C1560 C 0.43891 0.21569 0.23464
 C1561 C 0.44717 0.22466 0.24206
 C1562 C 0.45945 0.22980 0.23659
 C1563 C 0.46353 0.22534 0.22375
 C1564 C 0.45525 0.21633 0.21634
 H1565 H 0.41234 0.17375 0.21369
 H1566 H 0.39438 0.16214 0.20094
 H1567 H 0.39816 0.19329 0.16971
 H1568 H 0.41612 0.20466 0.18259
 H1569 H 0.42931 0.21216 0.23888
 H1570 H 0.44384 0.22778 0.25199
 H1571 H 0.47283 0.22926 0.21922
 H1572 H 0.45836 0.21332 0.20630
 C1573 C -0.08406 0.68919 0.19696
 C1574 C -0.09076 0.67746 0.20200
 C1575 C -0.10118 0.67119 0.19457
 C1576 C -0.10509 0.67660 0.18197
 C1577 C -0.09808 0.68826 0.17691
 C1578 C -0.08767 0.69451 0.18436
 C1579 C -0.07400 0.69625 0.20497
 C1580 C -0.06589 0.70255 0.21173
 C1581 C -0.05667 0.71058 0.21985
 C1582 C -0.06021 0.71380 0.23310
 C1583 C -0.05202 0.72275 0.24063
 C1584 C -0.04018 0.72865 0.23496
 C1585 C -0.03640 0.72494 0.22180
 C1586 C -0.04464 0.71600 0.21427
 H1587 H -0.08808 0.67328 0.21177
 H1588 H -0.10621 0.66220 0.19881
 H1589 H -0.10074 0.69278 0.16731
 H1590 H -0.08260 0.70363 0.18039
 H1591 H -0.06949 0.70968 0.23752
 H1592 H -0.05508 0.72528 0.25079
 H1593 H -0.02741 0.72942 0.21715
 H1594 H -0.04184 0.71364 0.20399
 C1595 C -0.08324 0.18821 0.69898
 C1596 C -0.09124 0.17764 0.70458
 C1597 C -0.10172 0.17157 0.69707
 C1598 C -0.10441 0.17605 0.68385
 C1599 C -0.09607 0.18647 0.67823
 C1600 C -0.08560 0.19251 0.68576
 C1601 C -0.07310 0.19516 0.70698
 C1602 C -0.06491 0.20143 0.71367
 C1603 C -0.05556 0.20948 0.72164
 C1604 C -0.05892 0.21276 0.73493
 C1605 C -0.05071 0.22187 0.74225
 C1606 C -0.03907 0.22789 0.73633
 C1607 C -0.03544 0.22410 0.72316
 C1608 C -0.04367 0.21496 0.71585
 H1609 H -0.08953 0.17425 0.71483
 H1610 H -0.10783 0.16357 0.70177
 H1611 H -0.09765 0.19013 0.66808
 H1612 H -0.07950 0.20071 0.68132
 H1613 H -0.06810 0.20859 0.73951
 H1614 H -0.05364 0.22446 0.75244
 H1615 H -0.02661 0.22869 0.71830
 H1616 H -0.04100 0.21253 0.70555
 C1617 C 0.29593 0.41845 0.31476
 C1618 C 0.29106 0.41125 0.32601
 C1619 C 0.29889 0.40059 0.33173
 C1620 C 0.31168 0.39695 0.32622
 C1621 C 0.31655 0.40441 0.31502
 C1622 C 0.30872 0.41508 0.30934
 C1623 C 0.28751 0.42872 0.30825
 C1624 C 0.28048 0.43700 0.30231
 C1625 C 0.27217 0.44641 0.29457
 C1626 C 0.25899 0.44247 0.29072
 C1627 C 0.25151 0.45074 0.28180
 C1628 C 0.25714 0.46308 0.27661
 C1629 C 0.27017 0.46726 0.28099
 C1630 C 0.27766 0.45894 0.28988
 H1631 H 0.28112 0.41370 0.33021
 H1632 H 0.29474 0.39502 0.34025
 H1633 H 0.32637 0.40201 0.31056
 H1634 H 0.31256 0.42056 0.30060
 H1635 H 0.25465 0.43278 0.29427
 H1636 H 0.24144 0.44735 0.27871
 H1637 H 0.27483 0.47662 0.27705
 H1638 H 0.28790 0.46203 0.29272
 C1639 C 0.29623 -0.08219 0.81417
 C1640 C 0.30763 -0.08740 0.80735
 C1641 C 0.31545 -0.09809 0.81296
 C1642 C 0.31200 -0.10385 0.82557
 C1643 C 0.30062 -0.09825 0.83248
 C1644 C 0.29280 -0.08756 0.82679
 C1645 C 0.28778 -0.07182 0.80785
 C1646 C 0.28078 -0.06345 0.80199
 C1647 C 0.27258 -0.05391 0.79427
 C1648 C 0.27841 -0.04177 0.78906
 C1649 C 0.27105 -0.03348 0.78005
 C1650 C 0.25779 -0.03732 0.77606
 C1651 C 0.25179 -0.04920 0.78180
 C1652 C 0.25915 -0.05745 0.79084
 H1653 H 0.31039 -0.08331 0.79755
 H1654 H 0.32411 -0.10181 0.80724
 H1655 H 0.29751 -0.10218 0.84219
 H1656 H 0.28396 -0.08361 0.83216
 H1657 H 0.28883 -0.03899 0.79158
 H1658 H 0.27597 -0.02447 0.77568
 H1659 H 0.24154 -0.05230 0.77902
 H1660 H 0.25454 -0.06682 0.79480
 C1661 C 0.79858 0.41937 0.80921
 C1662 C 0.79501 0.41476 0.82207
 C1663 C 0.80259 0.40422 0.82829
 C1664 C 0.81386 0.39801 0.82169
 C1665 C 0.81746 0.40302 0.80883
 C1666 C 0.80987 0.41357 0.80267
 C1667 C 0.79030 0.42955 0.80241
 C1668 C 0.78333 0.43772 0.79627
 C1669 C 0.77504 0.44700 0.78837
 C1670 C 0.76200 0.44284 0.78428
 C1671 C 0.75450 0.45105 0.77532
 C1672 C 0.75998 0.46354 0.77033
 C1673 C 0.77286 0.46793 0.77494
 C1674 C 0.78036 0.45967 0.78387
 H1675 H 0.78625 0.41917 0.82721
 H1676 H 0.79937 0.40090 0.83817
 H1677 H 0.82603 0.39877 0.80332
 H1678 H 0.81271 0.41706 0.79269
 H1679 H 0.75778 0.43306 0.78771
 H1680 H 0.74454 0.44749 0.77207
 H1681 H 0.77738 0.47744 0.77117
 H1682 H 0.79049 0.46295 0.78691
 C1683 C 0.79891 -0.08004 0.30991
 C1684 C 0.79571 -0.08435 0.32295
 C1685 C 0.80335 -0.09485 0.32914
 C1686 C 0.81434 -0.10133 0.32234
 C1687 C 0.81759 -0.09664 0.30927
 C1688 C 0.80992 -0.08613 0.30314
 C1689 C 0.79057 -0.06985 0.30317
 C1690 C 0.78358 -0.06164 0.29709
 C1691 C 0.77532 -0.05229 0.28924
 C1692 C 0.76183 -0.05586 0.28607
 C1693 C 0.75431 -0.04770 0.27709
 C1694 C 0.76019 -0.03586 0.27115
 C1695 C 0.77353 -0.03200 0.27486
 C1696 C 0.78106 -0.04021 0.28381
 H1697 H 0.78717 -0.07971 0.32828
 H1698 H 0.80042 -0.09794 0.33918
 H1699 H 0.82593 -0.10110 0.30359
 H1700 H 0.81248 -0.08288 0.29301
 H1701 H 0.75728 -0.06518 0.29023
 H1702 H 0.74400 -0.05081 0.27454
 H1703 H 0.77837 -0.02302 0.27035
 H1704 H 0.79152 -0.03739 0.28613
 C1705 C 0.30668 0.57923 0.69911
 C1706 C 0.30079 0.58404 0.68717
 C1707 C 0.30718 0.59451 0.67972
 C1708 C 0.31953 0.60039 0.68416
 C1709 C 0.32554 0.59522 0.69602
 C1710 C 0.31914 0.58474 0.70344
 C1711 C 0.29955 0.56923 0.70728
 C1712 C 0.29326 0.56123 0.71427
 C1713 C 0.28530 0.55219 0.72273
 C1714 C 0.27978 0.53990 0.71758
 C1715 C 0.27097 0.53185 0.72548
 C1716 C 0.26755 0.53604 0.73860
 C1717 C 0.27353 0.54814 0.74383
 C1718 C 0.28232 0.55617 0.73593
 H1719 H 0.29112 0.57988 0.68375
 H1720 H 0.30222 0.59820 0.67068
 H1721 H 0.33513 0.59932 0.69966
 H1722 H 0.32379 0.58109 0.71268
 H1723 H 0.28199 0.53674 0.70736
 H1724 H 0.26641 0.52265 0.72114
 H1725 H 0.27124 0.55151 0.75396
 H1726 H 0.28654 0.56566 0.74001
 C1727 C 0.29798 1.08026 0.19256
 C1728 C 0.29320 1.08652 0.18078
 C1729 C 0.30081 1.09699 0.17455
 C1730 C 0.31336 1.10137 0.18003
 C1731 C 0.31814 1.09487 0.19181
 C1732 C 0.31049 1.08442 0.19803
 C1733 C 0.28977 1.07008 0.19940
 C1734 C 0.28283 1.06187 0.20549
 C1735 C 0.27454 1.05255 0.21332
 C1736 C 0.26141 1.05667 0.21733
 C1737 C 0.25393 1.04847 0.22629
 C1738 C 0.25951 1.03605 0.23139
 C1739 C 0.27247 1.03170 0.22688
 C1740 C 0.27995 1.03993 0.21790
 H1741 H 0.28349 1.08344 0.17650
 H1742 H 0.29669 1.10175 0.16558
 H1743 H 0.32776 1.09785 0.19631
 H1744 H 0.31426 1.07968 0.20720
 H1745 H 0.25713 1.06642 0.21384
 H1746 H 0.24391 1.05198 0.22947
 H1747 H 0.27708 1.02227 0.23076
 H1748 H 0.29012 1.03667 0.21489
 C1749 C 0.79887 0.58025 0.18876
 C1750 C 0.79439 0.58612 0.17668
 C1751 C 0.80206 0.59655 0.17044
 C1752 C 0.81432 0.60130 0.17624
 C1753 C 0.81883 0.59514 0.18829
 C1754 C 0.81115 0.58470 0.19450
 C1755 C 0.79051 0.57022 0.19566
 C1756 C 0.78342 0.56216 0.20179
 C1757 C 0.77492 0.55299 0.20959
 C1758 C 0.76150 0.55691 0.21272
 C1759 C 0.75368 0.54880 0.22150
 C1760 C 0.75922 0.53667 0.22725
 C1761 C 0.77254 0.53255 0.22365
 C1762 C 0.78035 0.54069 0.21490
 H1763 H 0.78485 0.58281 0.17220
 H1764 H 0.79816 0.60107 0.16125
 H1765 H 0.82823 0.59842 0.19303
 H1766 H 0.81468 0.58025 0.20388
 H1767 H 0.75720 0.56642 0.20868
 H1768 H 0.74341 0.55217 0.22401
 H1769 H 0.77713 0.52337 0.22808
 H1770 H 0.79077 0.53762 0.21261
 C1771 C 0.79643 1.08225 0.68764
 C1772 C 0.80912 1.08576 0.69313
 C1773 C 0.81695 1.09634 0.68736
 C1774 C 0.81220 1.10358 0.67598
 C1775 C 0.79951 1.09981 0.67041
 C1776 C 0.79168 1.08923 0.67622
 C1777 C 0.78802 1.07201 0.69419
 C1778 C 0.78098 1.06374 0.70011
 C1779 C 0.77262 1.05431 0.70776
 C1780 C 0.77812 1.04183 0.71261
 C1781 C 0.77048 1.03347 0.72134
 C1782 C 0.75729 1.03758 0.72541
 C1783 C 0.75164 1.04984 0.72003
 C1784 C 0.75927 1.05815 0.71128
 H1785 H 0.81288 1.08043 0.70200
 H1786 H 0.82669 1.09883 0.69188
 H1787 H 0.79544 1.10518 0.66173
 H1788 H 0.78183 1.08666 0.67193
 H1789 H 0.78847 1.03881 0.71002
 H1790 H 0.77513 1.02414 0.72540
 H1791 H 0.74144 1.05315 0.72285
 H1792 H 0.75491 1.06778 0.70759
 C1793 C 0.69341 0.58130 0.30921
 C1794 C 0.68285 0.58874 0.30299
 C1795 C 0.67579 0.59907 0.31005
 C1796 C 0.67925 0.60215 0.32344
 C1797 C 0.68973 0.59441 0.32966
 C1798 C 0.69677 0.58409 0.32258
 C1799 C 0.70119 0.57128 0.30166
 C1800 C 0.70786 0.56322 0.29509
 C1801 C 0.71600 0.55407 0.28690
 C1802 C 0.71058 0.54154 0.28222
 C1803 C 0.71820 0.53321 0.27345
 C1804 C 0.73130 0.53738 0.26921
 C1805 C 0.73680 0.54980 0.27427
 C1806 C 0.72918 0.55809 0.28303
 H1807 H 0.68024 0.58673 0.29260
 H1808 H 0.66786 0.60481 0.30487
 H1809 H 0.69261 0.59634 0.33997
 H1810 H 0.70497 0.57843 0.32748
 H1811 H 0.70036 0.53837 0.28508
 H1812 H 0.71367 0.52378 0.26958
 H1813 H 0.74691 0.55319 0.27130
 H1814 H 0.73346 0.56779 0.28657
 C1815 C 0.69374 1.08251 0.80851
 C1816 C 0.69859 1.08673 0.82104
 C1817 C 0.69193 1.09732 0.82808
 C1818 C 0.68025 1.10395 0.82268
 C1819 C 0.67533 1.09935 0.81013
 C1820 C 0.68204 1.08876 0.80312
 C1821 C 0.70120 1.07230 0.80088
 C1822 C 0.70768 1.06410 0.79428
 C1823 C 0.71563 1.05481 0.78606
 C1824 C 0.72888 1.05859 0.78218
 C1825 C 0.73626 1.05026 0.77325
 C1826 C 0.73049 1.03802 0.76809
 C1827 C 0.71737 1.03402 0.77244
 C1828 C 0.70997 1.04241 0.78134
 H1829 H 0.70766 1.08197 0.82530
 H1830 H 0.69614 1.10030 0.83767
 H1831 H 0.66641 1.10398 0.80552
 H1832 H 0.67821 1.08558 0.79340
 H1833 H 0.73338 1.06814 0.78581
 H1834 H 0.74641 1.05350 0.77022
 H1835 H 0.71264 1.02471 0.76855
 H1836 H 0.69971 1.03941 0.78425
 C1837 C 0.18955 0.58167 0.80763
 C1838 C 0.17697 0.58718 0.80357
 C1839 C 0.17100 0.59809 0.81074
 C1840 C 0.17758 0.60371 0.82207
 C1841 C 0.19009 0.59787 0.82624
 C1842 C 0.19605 0.58695 0.81903
 C1843 C 0.19616 0.57120 0.79963
 C1844 C 0.20196 0.56281 0.79268
 C1845 C 0.20934 0.55335 0.78416
 C1846 C 0.21198 0.55703 0.77080
 C1847 C 0.22039 0.54868 0.76284
 C1848 C 0.22629 0.53652 0.76817
 C1849 C 0.22314 0.53259 0.78144
 C1850 C 0.21474 0.54100 0.78940
 H1851 H 0.17187 0.58318 0.79473
 H1852 H 0.16130 0.60216 0.80730
 H1853 H 0.19549 0.60191 0.83486
 H1854 H 0.20585 0.58282 0.82220
 H1855 H 0.20783 0.56657 0.76665
 H1856 H 0.22252 0.55185 0.75261
 H1857 H 0.22766 0.52335 0.78582
 H1858 H 0.21279 0.53808 0.79975
 C1859 C 0.19677 1.08171 0.31379
 C1860 C 0.20018 1.08548 0.32692
 C1861 C 0.19305 1.09619 0.33337
 C1862 C 0.18243 1.10334 0.32672
 C1863 C 0.17893 1.09926 0.31359
 C1864 C 0.18606 1.08854 0.30719
 C1865 C 0.20462 1.07130 0.30680
 C1866 C 0.21125 1.06291 0.30057
 C1867 C 0.21917 1.05333 0.29263
 C1868 C 0.23251 1.05681 0.28878
 C1869 C 0.23974 1.04832 0.27987
 C1870 C 0.23368 1.03626 0.27462
 C1871 C 0.22049 1.03253 0.27897
 C1872 C 0.21327 1.04104 0.28790
 H1873 H 0.20844 1.08024 0.33214
 H1874 H 0.19593 1.09886 0.34352
 H1875 H 0.17088 1.10448 0.30811
 H1876 H 0.18334 1.08572 0.29701
 H1877 H 0.23719 1.06629 0.29237
 H1878 H 0.24995 1.05134 0.27683
 H1879 H 0.21552 1.02339 0.27498
 H1880 H 0.20294 1.03827 0.29078
 C1881 C 0.69815 0.41826 0.68755
 C1882 C 0.70219 0.41403 0.67471
 C1883 C 0.69524 0.40327 0.66823
 C1884 C 0.68415 0.39658 0.67453
 C1885 C 0.68009 0.40107 0.68739
 C1886 C 0.68705 0.41181 0.69384
 C1887 C 0.70575 0.42875 0.69460
 C1888 C 0.71217 0.43718 0.70091
 C1889 C 0.71993 0.44672 0.70896
 C1890 C 0.73329 0.44327 0.71275
 C1891 C 0.74040 0.45168 0.72176
 C1892 C 0.73421 0.46365 0.72713
 C1893 C 0.72100 0.46737 0.72284
 C1894 C 0.71388 0.45890 0.71384
 H1895 H 0.71081 0.41892 0.66977
 H1896 H 0.69864 0.40021 0.65832
 H1897 H 0.67168 0.39619 0.69265
 H1898 H 0.68388 0.41495 0.70382
 H1899 H 0.73807 0.43385 0.70905
 H1900 H 0.75063 0.44866 0.72478
 H1901 H 0.71594 0.47646 0.72691
 H1902 H 0.70350 0.46162 0.71103
 C1903 C 0.69628 -0.08112 0.18856
 C1904 C 0.68398 -0.08630 0.19372
 C1905 C 0.67708 -0.09694 0.18704
 C1906 C 0.68243 -0.10260 0.17509
 C1907 C 0.69467 -0.09709 0.16985
 C1908 C 0.70154 -0.08646 0.17657
 C1909 C 0.70388 -0.07092 0.19598
 C1910 C 0.71044 -0.06276 0.20247
 C1911 C 0.71845 -0.05354 0.21063
 C1912 C 0.71309 -0.04075 0.21481
 C1913 C 0.72048 -0.03243 0.22372
 C1914 C 0.73328 -0.03686 0.22858
 C1915 C 0.73877 -0.04949 0.22394
 C1916 C 0.73138 -0.05778 0.21506
 H1917 H 0.67983 -0.08225 0.20303
 H1918 H 0.66765 -0.10078 0.19133
 H1919 H 0.69916 -0.10116 0.16074
 H1920 H 0.71111 -0.08259 0.17253
 H1921 H 0.70308 -0.03739 0.21145
 H1922 H 0.71596 -0.02280 0.22720
 H1923 H 0.74870 -0.05304 0.22734
 H1924 H 0.73562 -0.06765 0.21189
 C1925 C 0.19509 0.41920 0.19229
 C1926 C 0.18480 0.41142 0.19852
 C1927 C 0.17807 0.40094 0.19145
 C1928 C 0.18158 0.39805 0.17801
 C1929 C 0.19178 0.40612 0.17178
 C1930 C 0.19849 0.41660 0.17887
 C1931 C 0.20261 0.42933 0.19989
 C1932 C 0.20904 0.43745 0.20656
 C1933 C 0.21685 0.44664 0.21495
 C1934 C 0.21110 0.45906 0.21963
 C1935 C 0.21826 0.46729 0.22880
 C1936 C 0.23123 0.46312 0.23344
 C1937 C 0.23712 0.45089 0.22830
 C1938 C 0.22996 0.44271 0.21914
 H1939 H 0.18213 0.41330 0.20893
 H1940 H 0.17034 0.39495 0.19663
 H1941 H 0.19469 0.40434 0.16143
 H1942 H 0.20645 0.42256 0.17394
 H1943 H 0.20094 0.46219 0.21648
 H1944 H 0.21343 0.47660 0.23267
 H1945 H 0.24717 0.44755 0.23154
 H1946 H 0.23452 0.43313 0.21557
 C1947 C 0.19608 -0.08205 0.69146
 C1948 C 0.19985 -0.08517 0.67825
 C1949 C 0.19290 -0.09549 0.67115
 C1950 C 0.18210 -0.10290 0.67719
 C1951 C 0.17823 -0.09946 0.69041
 C1952 C 0.18520 -0.08914 0.69749
 C1953 C 0.20369 -0.07200 0.69907
 C1954 C 0.21013 -0.06391 0.70576
 C1955 C 0.21786 -0.05470 0.71420
 C1956 C 0.23074 -0.05883 0.71887
 C1957 C 0.23776 -0.05061 0.72811
 C1958 C 0.23198 -0.03814 0.73282
 C1959 C 0.21924 -0.03382 0.72772
 C1960 C 0.21221 -0.04208 0.71848
 H1961 H 0.20825 -0.07973 0.67348
 H1962 H 0.19609 -0.09767 0.66096
 H1963 H 0.17001 -0.10488 0.69544
 H1964 H 0.18222 -0.08684 0.70773
 H1965 H 0.23522 -0.06856 0.71561
 H1966 H 0.24763 -0.05410 0.73172
 H1967 H 0.21449 -0.02433 0.73126
 H1968 H 0.20222 -0.03881 0.71496
 C1969 C 0.31393 0.30000 0.42164
 C1970 C 0.30921 0.31350 0.41922
 C1971 C 0.31481 0.32140 0.40878
 C1972 C 0.32522 0.31589 0.40057
 C1973 C 0.33009 0.30239 0.40329
 C1974 C 0.32444 0.29449 0.41371
 C1975 C 0.30748 0.29159 0.43179
 C1976 C 0.30163 0.28454 0.44001
 C1977 C 0.29402 0.27619 0.44939
 C1978 C 0.28985 0.28176 0.46172
 C1979 C 0.28098 0.27428 0.47006
 C1980 C 0.27609 0.26119 0.46608
 C1981 C 0.28084 0.25542 0.45395
 C1982 C 0.28974 0.26289 0.44567
 H1983 H 0.30104 0.31786 0.42528
 H1984 H 0.31089 0.33178 0.40713
 H1985 H 0.33805 0.29774 0.39721
 H1986 H 0.32810 0.28400 0.41544
 H1987 H 0.29306 0.29207 0.46467
 H1988 H 0.27741 0.27901 0.47928
 H1989 H 0.27739 0.24529 0.45072
 H1990 H 0.29291 0.25848 0.43615
 C1991 C 0.31495 0.80009 -0.07854
 C1992 C 0.32556 0.79472 -0.08642
 C1993 C 0.33101 0.80259 -0.09697
 C1994 C 0.32585 0.81594 -0.09984
 C1995 C 0.31535 0.82135 -0.09167
 C1996 C 0.30995 0.81347 -0.08111
 C1997 C 0.30857 0.79160 -0.06839
 C1998 C 0.30277 0.78445 -0.06023
 C1999 C 0.29521 0.77591 -0.05094
 C2000 C 0.29203 0.76220 -0.05437
 C2001 C 0.28327 0.75440 -0.04622
 C2002 C 0.27754 0.76022 -0.03454
 C2003 C 0.28130 0.77378 -0.03084
 C2004 C 0.29005 0.78159 -0.03902
 H2005 H 0.32945 0.78434 -0.08458
 H2006 H 0.33900 0.79801 -0.10306
 H2007 H 0.31120 0.83161 -0.09345
 H2008 H 0.30170 0.81772 -0.07510
 H2009 H 0.29596 0.75770 -0.06357
 H2010 H 0.28069 0.74392 -0.04923
 H2011 H 0.27694 0.77858 -0.02198
 H2012 H 0.29238 0.79221 -0.03631
 C2013 C 0.81013 0.30681 -0.07913
 C2014 C 0.82126 0.30094 -0.08592
 C2015 C 0.82754 0.30812 -0.09646
 C2016 C 0.82272 0.32130 -0.10045
 C2017 C 0.81168 0.32723 -0.09334
 C2018 C 0.80543 0.32002 -0.08279
 C2019 C 0.80304 0.29891 -0.06901
 C2020 C 0.79693 0.29191 -0.06094
 C2021 C 0.78946 0.28304 -0.05189
 C2022 C 0.78957 0.26869 -0.05401
 C2023 C 0.78164 0.25999 -0.04594
 C2024 C 0.77343 0.26551 -0.03562
 C2025 C 0.77363 0.27993 -0.03332
 C2026 C 0.78158 0.28865 -0.04145
 H2027 H 0.82492 0.29067 -0.08323
 H2028 H 0.83595 0.30316 -0.10165
 H2029 H 0.80772 0.33737 -0.09598
 H2030 H 0.79678 0.32465 -0.07763
 H2031 H 0.79562 0.26424 -0.06206
 H2032 H 0.78184 0.24891 -0.04783
 H2033 H 0.76732 0.28447 -0.02552
 H2034 H 0.78138 0.29976 -0.03976
 C2035 C 0.81125 0.80804 0.42181
 C2036 C 0.80721 0.82161 0.41865
 C2037 C 0.81353 0.82874 0.40809
 C2038 C 0.82395 0.82237 0.40048
 C2039 C 0.82816 0.80884 0.40398
 C2040 C 0.82183 0.80174 0.41454
 C2041 C 0.80393 0.80021 0.43182
 C2042 C 0.79756 0.79328 0.43974
 C2043 C 0.78970 0.78452 0.44856
 C2044 C 0.78255 0.79012 0.45950
 C2045 C 0.77415 0.78159 0.46739
 C2046 C 0.77277 0.76740 0.46433
 C2047 C 0.78029 0.76185 0.45353
 C2048 C 0.78866 0.77036 0.44570
 H2049 H 0.79900 0.82658 0.42418
 H2050 H 0.81009 0.83917 0.40582
 H2051 H 0.83607 0.80354 0.39835
 H2052 H 0.82497 0.79119 0.41684
 H2053 H 0.78327 0.80110 0.46177
 H2054 H 0.76844 0.78616 0.47560
 H2055 H 0.77961 0.75092 0.45109
 H2056 H 0.79414 0.76591 0.43727
 C2057 C 0.69327 0.30210 0.57698
 C2058 C 0.67985 0.29891 0.58072
 C2059 C 0.67340 0.30639 0.59097
 C2060 C 0.68033 0.31714 0.59768
 C2061 C 0.69377 0.32040 0.59366
 C2062 C 0.70017 0.31292 0.58340
 C2063 C 0.70027 0.29387 0.56705
 C2064 C 0.70653 0.28690 0.55908
 C2065 C 0.71453 0.27852 0.55005
 C2066 C 0.71843 0.26509 0.55389
 C2067 C 0.72743 0.25743 0.54588
 C2068 C 0.73268 0.26313 0.53391
 C2069 C 0.72826 0.27640 0.52984
 C2070 C 0.71929 0.28408 0.53790
 H2071 H 0.67443 0.29051 0.57585
 H2072 H 0.66303 0.30366 0.59366
 H2073 H 0.69950 0.32849 0.59860
 H2074 H 0.71061 0.31541 0.58063
 H2075 H 0.71482 0.26069 0.56328
 H2076 H 0.73053 0.24717 0.54918
 H2077 H 0.73224 0.28109 0.52074
 H2078 H 0.71641 0.29450 0.53488
 C2079 C 0.69452 0.80768 1.07508
 C2080 C 0.68374 0.80095 1.08165
 C2081 C 0.67649 0.80772 1.09186
 C2082 C 0.67998 0.82132 1.09569
 C2083 C 0.69057 0.82814 1.08871
 C2084 C 0.69781 0.82135 1.07852
 C2085 C 0.70272 0.80022 1.06546
 C2086 C 0.70975 0.79357 1.05785
 C2087 C 0.71831 0.78512 1.04935
 C2088 C 0.71979 0.77098 1.05227
 C2089 C 0.72861 0.76275 1.04463
 C2090 C 0.73611 0.76854 1.03393
 C2091 C 0.73438 0.78271 1.03087
 C2092 C 0.72554 0.79097 1.03858
 H2093 H 0.68113 0.79035 1.07911
 H2094 H 0.66845 0.80209 1.09695
 H2095 H 0.69342 0.83867 1.09120
 H2096 H 0.70615 0.82666 1.07351
 H2097 H 0.71423 0.76634 1.06056
 H2098 H 0.72959 0.75183 1.04709
 H2099 H 0.74010 0.78745 1.02275
 H2100 H 0.72451 0.80192 1.03627
 C2101 C 0.19983 0.31068 1.07717
 C2102 C 0.20269 0.32429 1.08114
 C2103 C 0.19498 0.33056 1.09130
 C2104 C 0.18430 0.32328 1.09770
 C2105 C 0.18134 0.30969 1.09342
 C2106 C 0.18906 0.30345 1.08324
 C2107 C 0.20837 0.30384 1.06740
 C2108 C 0.21565 0.29778 1.05957
 C2109 C 0.22444 0.29008 1.05066
 C2110 C 0.23831 0.28843 1.05377
 C2111 C 0.24660 0.27981 1.04593
 C2112 C 0.24110 0.27266 1.03488
 C2113 C 0.22728 0.27478 1.03152
 C2114 C 0.21900 0.28342 1.03939
 H2115 H 0.21102 0.32998 1.07653
 H2116 H 0.19752 0.34106 1.09419
 H2117 H 0.17329 0.30371 1.09811
 H2118 H 0.18679 0.29288 1.08028
 H2119 H 0.24263 0.29354 1.06247
 H2120 H 0.25725 0.27852 1.04865
 H2121 H 0.22272 0.26931 1.02316
 H2122 H 0.20826 0.28456 1.03693
 C2123 C 0.19694 0.80638 0.57737
 C2124 C 0.20333 0.81710 0.58444
 C2125 C 0.19624 0.82421 0.59453
 C2126 C 0.18264 0.82067 0.59773
 C2127 C 0.17624 0.81005 0.59036
 C2128 C 0.18336 0.80296 0.58028
 C2129 C 0.20457 0.79830 0.56776
 C2130 C 0.21100 0.79114 0.56008
 C2131 C 0.21874 0.78210 0.55141
 C2132 C 0.22717 0.78755 0.54130
 C2133 C 0.23517 0.77865 0.53340
 C2134 C 0.23487 0.76422 0.53559
 C2135 C 0.22617 0.75886 0.54560
 C2136 C 0.21818 0.76773 0.55345
 H2137 H 0.21388 0.81976 0.58235
 H2138 H 0.20159 0.83218 0.60004
 H2139 H 0.16579 0.80707 0.59244
 H2140 H 0.17834 0.79462 0.57491
 H2141 H 0.22770 0.79867 0.53968
 H2142 H 0.24186 0.78307 0.52583
 H2143 H 0.22558 0.74777 0.54738
 H2144 H 0.21169 0.76339 0.56122
 C2145 C 0.30519 0.68556 0.57965
 C2146 C 0.30178 0.67219 0.58403
 C2147 C 0.30885 0.66611 0.59476
 C2148 C 0.31939 0.67336 0.60132
 C2149 C 0.32290 0.68670 0.59664
 C2150 C 0.31583 0.69274 0.58591
 C2151 C 0.29731 0.69225 0.56926
 C2152 C 0.29053 0.69824 0.56093
 C2153 C 0.28224 0.70590 0.55152
 C2154 C 0.26839 0.70816 0.55436
 C2155 C 0.26060 0.71691 0.54616
 C2156 C 0.26658 0.72361 0.53503
 C2157 C 0.28035 0.72079 0.53189
 C2158 C 0.28814 0.71201 0.54012
 H2159 H 0.29352 0.66655 0.57930
 H2160 H 0.30593 0.65578 0.59794
 H2161 H 0.33088 0.69266 0.60141
 H2162 H 0.31851 0.70314 0.58266
 H2163 H 0.26371 0.70348 0.56314
 H2164 H 0.24997 0.71871 0.54871
 H2165 H 0.28525 0.72588 0.52345
 H2166 H 0.29886 0.71035 0.53784
 C2167 C 0.31124 0.19194 1.07943
 C2168 C 0.30721 0.17838 1.08256
 C2169 C 0.31346 0.17121 1.09316
 C2170 C 0.32380 0.17755 1.10082
 C2171 C 0.32803 0.19106 1.09732
 C2172 C 0.32176 0.19819 1.08673
 C2173 C 0.30403 0.19980 1.06933
 C2174 C 0.29781 0.20676 1.06130
 C2175 C 0.29023 0.21558 1.05226
 C2176 C 0.28191 0.20989 1.04225
 C2177 C 0.27389 0.21859 1.03413
 C2178 C 0.27409 0.23306 1.03601
 C2179 C 0.28272 0.23867 1.04589
 C2180 C 0.29071 0.22999 1.05396
 H2181 H 0.29906 0.17343 1.07699
 H2182 H 0.31003 0.16079 1.09542
 H2183 H 0.33589 0.19633 1.10296
 H2184 H 0.32490 0.20873 1.08445
 H2185 H 0.28142 0.19874 1.04089
 H2186 H 0.26725 0.21399 1.02668
 H2187 H 0.28322 0.24979 1.04743
 H2188 H 0.29710 0.23451 1.06167
 C2189 C 0.81183 0.69256 1.07656
 C2190 C 0.82218 0.69897 1.08397
 C2191 C 0.82849 0.69190 1.09458
 C2192 C 0.82447 0.67830 1.09796
 C2193 C 0.81430 0.67182 1.09020
 C2194 C 0.80802 0.67892 1.07959
 C2195 C 0.80446 0.70034 1.06654
 C2196 C 0.79801 0.70719 1.05861
 C2197 C 0.79004 0.71584 1.04976
 C2198 C 0.78893 0.73004 1.05245
 C2199 C 0.78045 0.73843 1.04459
 C2200 C 0.77291 0.73272 1.03394
 C2201 C 0.77433 0.71850 1.03106
 C2202 C 0.78283 0.71008 1.03898
 H2203 H 0.82514 0.70958 1.08177
 H2204 H 0.83619 0.69728 1.10033
 H2205 H 0.81102 0.66133 1.09239
 H2206 H 0.79998 0.67386 1.07394
 H2207 H 0.79444 0.73461 1.06078
 H2208 H 0.77971 0.74940 1.04690
 H2209 H 0.76857 0.71383 1.02297
 H2210 H 0.78357 0.69907 1.03686
 C2211 C 0.81465 0.19811 0.57853
 C2212 C 0.82501 0.20389 0.58639
 C2213 C 0.83057 0.19634 0.59710
 C2214 C 0.82578 0.18290 0.60013
 C2215 C 0.81555 0.17709 0.59196
 C2216 C 0.81003 0.18465 0.58125
 C2217 C 0.80811 0.20627 0.56824
 C2218 C 0.80216 0.21316 0.55997
 C2219 C 0.79443 0.22142 0.55059
 C2220 C 0.79065 0.23498 0.55403
 C2221 C 0.78173 0.24248 0.54579
 C2222 C 0.77646 0.23650 0.53401
 C2223 C 0.78084 0.22312 0.53029
 C2224 C 0.78972 0.21559 0.53859
 H2225 H 0.82859 0.21434 0.58443
 H2226 H 0.83836 0.20122 0.60316
 H2227 H 0.81170 0.16675 0.59386
 H2228 H 0.80197 0.18010 0.57525
 H2229 H 0.79423 0.23958 0.56329
 H2230 H 0.77867 0.25284 0.54881
 H2231 H 0.77688 0.21823 0.52133
 H2232 H 0.79251 0.20506 0.53589
 C2233 C 0.69532 0.69165 0.42344
 C2234 C 0.70013 0.67915 0.41807
 C2235 C 0.69278 0.67245 0.40795
 C2236 C 0.68055 0.67825 0.40294
 C2237 C 0.67557 0.69058 0.40879
 C2238 C 0.68294 0.69725 0.41891
 C2239 C 0.70348 0.69916 0.43300
 C2240 C 0.71048 0.70582 0.44057
 C2241 C 0.71898 0.71432 0.44899
 C2242 C 0.72618 0.70857 0.45983
 C2243 C 0.73495 0.71691 0.46747
 C2244 C 0.73663 0.73105 0.46426
 C2245 C 0.72919 0.73671 0.45346
 C2246 C 0.72043 0.72841 0.44591
 H2247 H 0.70971 0.67471 0.42151
 H2248 H 0.69687 0.66287 0.40395
 H2249 H 0.66609 0.69524 0.40546
 H2250 H 0.67912 0.70693 0.42301
 H2251 H 0.72516 0.69765 0.46227
 H2252 H 0.74063 0.71226 0.47566
 H2253 H 0.73013 0.74760 0.45088
 H2254 H 0.71488 0.73297 0.43757
 C2255 C 0.69746 0.19018 -0.07656
 C2256 C 0.69984 0.17638 -0.08022
 C2257 C 0.69217 0.17031 -0.09048
 C2258 C 0.68205 0.17802 -0.09729
 C2259 C 0.67950 0.19180 -0.09327
 C2260 C 0.68719 0.19783 -0.08299
 C2261 C 0.70610 0.19676 -0.06679
 C2262 C 0.71356 0.20254 -0.05898
 C2263 C 0.72266 0.20985 -0.05016
 C2264 C 0.73644 0.21133 -0.05368
 C2265 C 0.74506 0.21961 -0.04591
 C2266 C 0.73996 0.22657 -0.03453
 C2267 C 0.72621 0.22463 -0.03081
 C2268 C 0.71761 0.21633 -0.03859
 H2269 H 0.70780 0.17038 -0.07532
 H2270 H 0.69431 0.15964 -0.09312
 H2271 H 0.67186 0.19808 -0.09827
 H2272 H 0.68532 0.20856 -0.08027
 H2273 H 0.74045 0.20636 -0.06262
 H2274 H 0.75564 0.22079 -0.04894
 H2275 H 0.72196 0.23001 -0.02221
 H2276 H 0.70693 0.21530 -0.03582
 C2277 C 0.19395 0.69501 -0.07789
 C2278 C 0.18031 0.69826 -0.08073
 C2279 C 0.17340 0.69122 -0.09093
 C2280 C 0.18007 0.68085 -0.09849
 C2281 C 0.19373 0.67751 -0.09537
 C2282 C 0.20061 0.68457 -0.08516
 C2283 C 0.20136 0.70285 -0.06801
 C2284 C 0.20788 0.70956 -0.06008
 C2285 C 0.21611 0.71772 -0.05112
 C2286 C 0.22024 0.73104 -0.05502
 C2287 C 0.22926 0.73857 -0.04699
 C2288 C 0.23433 0.73284 -0.03498
 C2289 C 0.22976 0.71964 -0.03089
 C2290 C 0.22071 0.71212 -0.03894
 H2291 H 0.17507 0.70637 -0.07520
 H2292 H 0.16286 0.69399 -0.09293
 H2293 H 0.19925 0.66970 -0.10101
 H2294 H 0.21122 0.68206 -0.08312
 H2295 H 0.21674 0.73547 -0.06443
 H2296 H 0.23245 0.74879 -0.05029
 H2297 H 0.23361 0.71493 -0.02176
 H2298 H 0.21761 0.70179 -0.03585
 C2299 C 0.19160 0.19802 0.42389
 C2300 C 0.19824 0.18672 0.41791
 C2301 C 0.19187 0.17934 0.40761
 C2302 C 0.17876 0.18320 0.40309
 C2303 C 0.17204 0.19439 0.40942
 C2304 C 0.17845 0.20176 0.41972
 C2305 C 0.19862 0.20615 0.43381
 C2306 C 0.20494 0.21299 0.44178
 C2307 C 0.21309 0.22110 0.45085
 C2308 C 0.21807 0.21515 0.46272
 C2309 C 0.22732 0.22246 0.47072
 C2310 C 0.23176 0.23577 0.46686
 C2311 C 0.22626 0.24188 0.45519
 C2312 C 0.21699 0.23457 0.44724
 H2313 H 0.20845 0.18376 0.42105
 H2314 H 0.19740 0.17083 0.40305
 H2315 H 0.16190 0.19758 0.40637
 H2316 H 0.17322 0.21049 0.42429
 H2317 H 0.21518 0.20468 0.46555
 H2318 H 0.23152 0.21745 0.47955
 H2319 H 0.22940 0.25217 0.45206
 H2320 H 0.21321 0.23926 0.43806
 C2321 C 0.30015 0.41831 0.69294
 C2322 C 0.29515 0.41197 0.68133
 C2323 C 0.30284 0.40168 0.67489
 C2324 C 0.31566 0.39757 0.68002
 C2325 C 0.32064 0.40416 0.69163
 C2326 C 0.31294 0.41446 0.69803
 C2327 C 0.29182 0.42817 0.70008
 C2328 C 0.28473 0.43608 0.70637
 C2329 C 0.27622 0.44508 0.71432
 C2330 C 0.26284 0.44108 0.71748
 C2331 C 0.25498 0.44908 0.72630
 C2332 C 0.26044 0.46117 0.73207
 C2333 C 0.27372 0.46538 0.72846
 C2334 C 0.28157 0.45735 0.71965
 H2335 H 0.28521 0.41481 0.67738
 H2336 H 0.29857 0.39680 0.66608
 H2337 H 0.33045 0.40135 0.69586
 H2338 H 0.31689 0.41927 0.70705
 H2339 H 0.25861 0.43160 0.71340
 H2340 H 0.24472 0.44571 0.72877
 H2341 H 0.27822 0.47456 0.73287
 H2342 H 0.29194 0.46050 0.71731
 C2343 C 0.30429 0.91852 0.19526
 C2344 C 0.29859 0.91242 0.18383
 C2345 C 0.30588 0.90233 0.17668
 C2346 C 0.31900 0.89811 0.18092
 C2347 C 0.32470 0.90447 0.19234
 C2348 C 0.31740 0.91460 0.19944
 C2349 C 0.29639 0.92829 0.20303
 C2350 C 0.28947 0.93609 0.20966
 C2351 C 0.28079 0.94485 0.21773
 C2352 C 0.26682 0.94191 0.21863
 C2353 C 0.25841 0.94972 0.22710
 C2354 C 0.26385 0.96063 0.23477
 C2355 C 0.27784 0.96377 0.23357
 C2356 C 0.28628 0.95588 0.22512
 H2357 H 0.28841 0.91533 0.18054
 H2358 H 0.30109 0.89774 0.16799
 H2359 H 0.33478 0.90163 0.19588
 H2360 H 0.32191 0.91925 0.20828
 H2361 H 0.26244 0.93346 0.21292
 H2362 H 0.24762 0.94722 0.22766
 H2363 H 0.28230 0.97208 0.23941
 H2364 H 0.29709 0.95823 0.22451
 C2365 C 0.80668 0.41842 0.19568
 C2366 C 0.80029 0.41208 0.18473
 C2367 C 0.80694 0.40145 0.17770
 C2368 C 0.82006 0.39697 0.18160
 C2369 C 0.82650 0.40363 0.19246
 C2370 C 0.81985 0.41427 0.19943
 C2371 C 0.79943 0.42855 0.20360
 C2372 C 0.79315 0.43663 0.21051
 C2373 C 0.78531 0.44576 0.21900
 C2374 C 0.77869 0.45739 0.21356
 C2375 C 0.77005 0.46548 0.22161
 C2376 C 0.76789 0.46197 0.23517
 C2377 C 0.77492 0.45053 0.24065
 C2378 C 0.78358 0.44249 0.23261
 H2379 H 0.79005 0.41516 0.18178
 H2380 H 0.80163 0.39651 0.16947
 H2381 H 0.83665 0.40059 0.19566
 H2382 H 0.82489 0.41909 0.20791
 H2383 H 0.77991 0.45998 0.20303
 H2384 H 0.76464 0.47414 0.21710
 H2385 H 0.77355 0.44768 0.25110
 H2386 H 0.78868 0.43353 0.23693
 C2387 C 0.80370 0.91953 0.69158
 C2388 C 0.79820 0.91320 0.68016
 C2389 C 0.80546 0.90269 0.67357
 C2390 C 0.81830 0.89829 0.67837
 C2391 C 0.82387 0.90498 0.68967
 C2392 C 0.81661 0.91551 0.69622
 C2393 C 0.79568 0.92944 0.69903
 C2394 C 0.78866 0.93729 0.70549
 C2395 C 0.77988 0.94607 0.71342
 C2396 C 0.76609 0.94256 0.71491
 C2397 C 0.75758 0.95048 0.72318
 C2398 C 0.76276 0.96202 0.73015
 C2399 C 0.77658 0.96566 0.72841
 C2400 C 0.78510 0.95769 0.72010
 H2401 H 0.78817 0.91618 0.67652
 H2402 H 0.80080 0.89779 0.66496
 H2403 H 0.83378 0.90202 0.69358
 H2404 H 0.82096 0.92033 0.70506
 H2405 H 0.76193 0.93360 0.70978
 H2406 H 0.74693 0.94756 0.72415
 H2407 H 0.78087 0.97443 0.73372
 H2408 H 0.79578 0.96047 0.71906
 C2409 C 0.68870 0.58251 0.69232
 C2410 C 0.67672 0.58846 0.69744
 C2411 C 0.67023 0.59926 0.69049
 C2412 C 0.67566 0.60432 0.67831
 C2413 C 0.68753 0.59798 0.67309
 C2414 C 0.69401 0.58719 0.68007
 C2415 C 0.69613 0.57238 0.70010
 C2416 C 0.70280 0.56439 0.70678
 C2417 C 0.71132 0.55553 0.71490
 C2418 C 0.70584 0.54411 0.72180
 C2419 C 0.71419 0.53606 0.73021
 C2420 C 0.72808 0.53944 0.73187
 C2421 C 0.73350 0.55077 0.72471
 C2422 C 0.72518 0.55875 0.71631
 H2423 H 0.67255 0.58495 0.70695
 H2424 H 0.66108 0.60373 0.69483
 H2425 H 0.69206 0.60150 0.66378
 H2426 H 0.70333 0.58272 0.67604
 H2427 H 0.69510 0.54156 0.72082
 H2428 H 0.70973 0.52744 0.73567
 H2429 H 0.74420 0.55349 0.72562
 H2430 H 0.72954 0.56754 0.71101
 C2431 C 0.69084 0.08285 0.19191
 C2432 C 0.69537 0.08701 0.17918
 C2433 C 0.68881 0.09790 0.17244
 C2434 C 0.67764 0.10485 0.17836
 C2435 C 0.67299 0.10035 0.19105
 C2436 C 0.67956 0.08944 0.19776
 C2437 C 0.69842 0.07260 0.19938
 C2438 C 0.70523 0.06450 0.20578
 C2439 C 0.71397 0.05551 0.21353
 C2440 C 0.72811 0.05762 0.21316
 C2441 C 0.73675 0.04960 0.22119
 C2442 C 0.73137 0.03935 0.22977
 C2443 C 0.71715 0.03708 0.22991
 C2444 C 0.70849 0.04516 0.22185
 H2445 H 0.70414 0.08202 0.17459
 H2446 H 0.69269 0.10096 0.16269
 H2447 H 0.66445 0.10534 0.19598
 H2448 H 0.67601 0.08636 0.20764
 H2449 H 0.73246 0.06560 0.20676
 H2450 H 0.74767 0.05141 0.22071
 H2451 H 0.71273 0.02932 0.23650
 H2452 H 0.69754 0.04349 0.22225
 C2453 C 0.18660 0.58109 0.19712
 C2454 C 0.19056 0.58347 0.18380
 C2455 C 0.18436 0.59405 0.17631
 C2456 C 0.17413 0.60249 0.18208
 C2457 C 0.16997 0.59972 0.19538
 C2458 C 0.17619 0.58913 0.20283
 C2459 C 0.19393 0.57115 0.20520
 C2460 C 0.20054 0.56331 0.21208
 C2461 C 0.20906 0.55460 0.22036
 C2462 C 0.22302 0.55755 0.22129
 C2463 C 0.23139 0.54967 0.22972
 C2464 C 0.22592 0.53873 0.23739
 C2465 C 0.21191 0.53565 0.23625
 C2466 C 0.20351 0.54359 0.22779
 H2467 H 0.19867 0.57734 0.17929
 H2468 H 0.18778 0.59570 0.16610
 H2469 H 0.16215 0.60591 0.20021
 H2470 H 0.17309 0.58742 0.21316
 H2471 H 0.22743 0.56603 0.21559
 H2472 H 0.24218 0.55213 0.23024
 H2473 H 0.20742 0.52734 0.24212
 H2474 H 0.19269 0.54126 0.22717
 C2475 C 0.18782 0.08101 0.69712
 C2476 C 0.17863 0.09000 0.70350
 C2477 C 0.17236 0.10072 0.69627
 C2478 C 0.17523 0.10263 0.68252
 C2479 C 0.18424 0.09331 0.67613
 C2480 C 0.19050 0.08260 0.68339
 C2481 C 0.19532 0.07092 0.70486
 C2482 C 0.20213 0.06294 0.71139
 C2483 C 0.21096 0.05409 0.71919
 C2484 C 0.20560 0.04366 0.72750
 C2485 C 0.21438 0.03561 0.73548
 C2486 C 0.22857 0.03800 0.73528
 C2487 C 0.23382 0.04837 0.72675
 C2488 C 0.22507 0.05634 0.71879
 H2489 H 0.17658 0.08894 0.71416
 H2490 H 0.16557 0.10770 0.70158
 H2491 H 0.18661 0.09434 0.66555
 H2492 H 0.19766 0.07574 0.67836
 H2493 H 0.19468 0.04187 0.72793
 H2494 H 0.21006 0.02775 0.74203
 H2495 H 0.24472 0.05029 0.72623
 H2496 H 0.22932 0.06437 0.71239
 C2497 C 0.30458 0.58157 0.30853
 C2498 C 0.31728 0.58562 0.30339
 C2499 C 0.32466 0.59623 0.30961
 C2500 C 0.31940 0.60297 0.32106
 C2501 C 0.30675 0.59858 0.32633
 C2502 C 0.29939 0.58798 0.32007
 C2503 C 0.29645 0.57152 0.30149
 C2504 C 0.28931 0.56354 0.29539
 C2505 C 0.28033 0.55465 0.28791
 C2506 C 0.28545 0.54311 0.28095
 C2507 C 0.27671 0.53511 0.27298
 C2508 C 0.26278 0.53862 0.27187
 C2509 C 0.25771 0.55002 0.27917
 C2510 C 0.26643 0.55798 0.28710
 H2511 H 0.32138 0.58075 0.29444
 H2512 H 0.33442 0.59918 0.30536
 H2513 H 0.30233 0.60354 0.33505
 H2514 H 0.28951 0.58498 0.32408
 H2515 H 0.29621 0.54046 0.28150
 H2516 H 0.28091 0.52643 0.26741
 H2517 H 0.24698 0.55282 0.27869
 H2518 H 0.26236 0.56687 0.29245
 C2519 C 0.30769 0.08075 0.80476
 C2520 C 0.32057 0.08521 0.80042
 C2521 C 0.32721 0.09601 0.80709
 C2522 C 0.32106 0.10251 0.81823
 C2523 C 0.30824 0.09772 0.82271
 C2524 C 0.30159 0.08694 0.81598
 C2525 C 0.30037 0.07048 0.79717
 C2526 C 0.29401 0.06231 0.79051
 C2527 C 0.28606 0.05311 0.78228
 C2528 C 0.28436 0.05610 0.76862
 C2529 C 0.27557 0.04807 0.76080
 C2530 C 0.26838 0.03691 0.76656
 C2531 C 0.27056 0.03362 0.78017
 C2532 C 0.27930 0.04174 0.78801
 H2533 H 0.32537 0.08051 0.79172
 H2534 H 0.33711 0.09930 0.80344
 H2535 H 0.30314 0.10253 0.83117
 H2536 H 0.29157 0.08364 0.81937
 H2537 H 0.28957 0.06486 0.76409
 H2538 H 0.27421 0.05070 0.75030
 H2539 H 0.26507 0.02514 0.78488
 H2540 H 0.28049 0.03937 0.79859
 C2541 C 0.80482 0.58176 0.80557
 C2542 C 0.81765 0.58589 0.80080
 C2543 C 0.82490 0.59635 0.80739
 C2544 C 0.81939 0.60288 0.81884
 C2545 C 0.80662 0.59840 0.82374
 C2546 C 0.79939 0.58794 0.81712
 C2547 C 0.79685 0.57183 0.79816
 C2548 C 0.78987 0.56395 0.79176
 C2549 C 0.78115 0.55510 0.78391
 C2550 C 0.78656 0.54379 0.77682
 C2551 C 0.77809 0.53581 0.76854
 C2552 C 0.76414 0.53915 0.76721
 C2553 C 0.75877 0.55034 0.77462
 C2554 C 0.76722 0.55825 0.78289
 H2555 H 0.82195 0.58119 0.79185
 H2556 H 0.83475 0.59938 0.80340
 H2557 H 0.80201 0.60318 0.83246
 H2558 H 0.78942 0.58487 0.82086
 H2559 H 0.79735 0.54129 0.77751
 H2560 H 0.78252 0.52731 0.76290
 H2561 H 0.74802 0.55301 0.77397
 H2562 H 0.76291 0.56695 0.78835
 C2563 C 0.80998 0.08089 0.30098
 C2564 C 0.82260 0.08608 0.29669
 C2565 C 0.82904 0.09660 0.30393
 C2566 C 0.82292 0.10213 0.31558
 C2567 C 0.81041 0.09655 0.32002
 C2568 C 0.80397 0.08603 0.31273
 C2569 C 0.80280 0.07094 0.29289
 C2570 C 0.79649 0.06299 0.28593
 C2571 C 0.78853 0.05401 0.27749
 C2572 C 0.78683 0.05727 0.26389
 C2573 C 0.77803 0.04939 0.25593
 C2574 C 0.77082 0.03814 0.26150
 C2575 C 0.77295 0.03465 0.27507
 C2576 C 0.78174 0.04256 0.28303
 H2577 H 0.82734 0.08216 0.28760
 H2578 H 0.83875 0.10045 0.30030
 H2579 H 0.80537 0.10052 0.32890
 H2580 H 0.79416 0.08212 0.31611
 H2581 H 0.79204 0.06612 0.25951
 H2582 H 0.77670 0.05219 0.24547
 H2583 H 0.76740 0.02614 0.27966
 H2584 H 0.78293 0.04000 0.29357
 C2585 C 0.68766 0.41770 0.30470
 C2586 C 0.69087 0.41554 0.31824
 C2587 C 0.68448 0.40492 0.32550
 C2588 C 0.67473 0.39631 0.31931
 C2589 C 0.67134 0.39878 0.30577
 C2590 C 0.67782 0.40936 0.29851
 C2591 C 0.69517 0.42780 0.29697
 C2592 C 0.70197 0.43584 0.29051
 C2593 C 0.71079 0.44483 0.28282
 C2594 C 0.72491 0.44255 0.28315
 C2595 C 0.73364 0.45064 0.27528
 C2596 C 0.72837 0.46117 0.26692
 C2597 C 0.71417 0.46363 0.26684
 C2598 C 0.70542 0.45545 0.27473
 H2599 H 0.69850 0.42189 0.32314
 H2600 H 0.68725 0.40343 0.33592
 H2601 H 0.66398 0.39233 0.30064
 H2602 H 0.67536 0.41084 0.28800
 H2603 H 0.72919 0.43439 0.28939
 H2604 H 0.74454 0.44867 0.27572
 H2605 H 0.70983 0.47160 0.26044
 H2606 H 0.69449 0.45730 0.27439
 C2607 C 0.68911 0.91851 0.80630
 C2608 C 0.67694 0.91282 0.80145
 C2609 C 0.67051 0.90205 0.80846
 C2610 C 0.67620 0.89674 0.82042
 C2611 C 0.68830 0.90277 0.82535
 C2612 C 0.69470 0.91355 0.81832
 C2613 C 0.69635 0.92872 0.79847
 C2614 C 0.70279 0.93682 0.79170
 C2615 C 0.71100 0.94582 0.78343
 C2616 C 0.70507 0.95681 0.77621
 C2617 C 0.71311 0.96491 0.76756
 C2618 C 0.72714 0.96201 0.76599
 C2619 C 0.73301 0.95115 0.77352
 C2620 C 0.72499 0.94312 0.78214
 H2621 H 0.67256 0.91652 0.79211
 H2622 H 0.66119 0.89781 0.80434
 H2623 H 0.69304 0.89902 0.83448
 H2624 H 0.70418 0.91783 0.82213
 H2625 H 0.69422 0.95895 0.77709
 H2626 H 0.70831 0.97316 0.76183
 H2627 H 0.74382 0.94882 0.77268
 H2628 H 0.72969 0.93466 0.78768
 C2629 C 0.19412 0.41604 0.81268
 C2630 C 0.18310 0.40974 0.80617
 C2631 C 0.17584 0.39907 0.81248
 C2632 C 0.17954 0.39448 0.82542
 C2633 C 0.19050 0.40108 0.83198
 C2634 C 0.19774 0.41176 0.82563
 C2635 C 0.20208 0.42637 0.80575
 C2636 C 0.20884 0.43465 0.79955
 C2637 C 0.21700 0.44401 0.79163
 C2638 C 0.21131 0.45630 0.78653
 C2639 C 0.21888 0.46465 0.77772
 C2640 C 0.23217 0.46071 0.77385
 C2641 C 0.23795 0.44858 0.77937
 C2642 C 0.23040 0.44029 0.78819
 H2643 H 0.18026 0.41293 0.79610
 H2644 H 0.16753 0.39428 0.80706
 H2645 H 0.19358 0.39799 0.84198
 H2646 H 0.20629 0.41653 0.83075
 H2647 H 0.20091 0.45923 0.78905
 H2648 H 0.21414 0.47385 0.77350
 H2649 H 0.24822 0.44539 0.77667
 H2650 H 0.23488 0.43079 0.79206
 C2651 C 0.18835 0.91703 0.30917
 C2652 C 0.17619 0.91142 0.30421
 C2653 C 0.16972 0.90057 0.31108
 C2654 C 0.17536 0.89511 0.32300
 C2655 C 0.18742 0.90111 0.32807
 C2656 C 0.19387 0.91195 0.32118
 C2657 C 0.19571 0.92726 0.30148
 C2658 C 0.20232 0.93534 0.29488
 C2659 C 0.21084 0.94430 0.28686
 C2660 C 0.20524 0.95543 0.27960
 C2661 C 0.21362 0.96352 0.27126
 C2662 C 0.22765 0.96044 0.27004
 C2663 C 0.23317 0.94939 0.27755
 C2664 C 0.22483 0.94140 0.28590
 H2665 H 0.17186 0.91523 0.29489
 H2666 H 0.16041 0.89638 0.30689
 H2667 H 0.19212 0.89727 0.33718
 H2668 H 0.20333 0.91616 0.32507
 H2669 H 0.19440 0.95771 0.28021
 H2670 H 0.20911 0.97191 0.26550
 H2671 H 0.24396 0.94691 0.27693
 H2672 H 0.22927 0.93283 0.29148
 C2673 C 0.42022 0.31141 0.69805
 C2674 C 0.41566 0.30537 0.68610
 C2675 C 0.40492 0.31143 0.67889
 C2676 C 0.39853 0.32365 0.68354
 C2677 C 0.40338 0.32975 0.69546
 C2678 C 0.41413 0.32367 0.70265
 C2679 C 0.43055 0.30454 0.70598
 C2680 C 0.43884 0.29843 0.71276
 C2681 C 0.44825 0.29065 0.72100
 C2682 C 0.46048 0.28552 0.71557
 C2683 C 0.46898 0.27691 0.72329
 C2684 C 0.46526 0.27326 0.73649
 C2685 C 0.45318 0.27885 0.74199
 C2686 C 0.44474 0.28746 0.73428
 H2687 H 0.42026 0.29583 0.68248
 H2688 H 0.40150 0.30634 0.66983
 H2689 H 0.39883 0.33915 0.69938
 H2690 H 0.41754 0.32842 0.71191
 H2691 H 0.46326 0.28785 0.70527
 H2692 H 0.47814 0.27263 0.71875
 H2693 H 0.45015 0.27635 0.75218
 H2694 H 0.43528 0.29134 0.73858
 C2695 C 0.42027 0.80797 0.19509
 C2696 C 0.41539 0.82089 0.19937
 C2697 C 0.40484 0.82753 0.19237
 C2698 C 0.39896 0.82132 0.18096
 C2699 C 0.40409 0.80838 0.17664
 C2700 C 0.41464 0.80177 0.18368
 C2701 C 0.43054 0.80078 0.20280
 C2702 C 0.43880 0.79453 0.20949
 C2703 C 0.44815 0.78671 0.21775
 C2704 C 0.44438 0.78320 0.23089
 C2705 C 0.45278 0.77458 0.23863
 C2706 C 0.46511 0.76937 0.23333
 C2707 C 0.46907 0.77333 0.22028
 C2708 C 0.46060 0.78192 0.21252
 H2709 H 0.41964 0.82578 0.20822
 H2710 H 0.40130 0.83749 0.19599
 H2711 H 0.39988 0.80322 0.16795
 H2712 H 0.41829 0.79172 0.18030
 H2713 H 0.43478 0.78687 0.23506
 H2714 H 0.44954 0.77180 0.24869
 H2715 H 0.47843 0.76933 0.21590
 H2716 H 0.46360 0.78452 0.20234
 C2717 C 0.92286 0.31044 0.19523
 C2718 C 0.91715 0.32294 0.19969
 C2719 C 0.90614 0.32890 0.19281
 C2720 C 0.90064 0.32238 0.18138
 C2721 C 0.90668 0.30997 0.17681
 C2722 C 0.91769 0.30403 0.18372
 C2723 C 0.93333 0.30367 0.20301
 C2724 C 0.94164 0.29763 0.20980
 C2725 C 0.95090 0.28992 0.21821
 C2726 C 0.94744 0.28749 0.23165
 C2727 C 0.95551 0.27873 0.23955
 C2728 C 0.96715 0.27224 0.23410
 C2729 C 0.97090 0.27518 0.22073
 C2730 C 0.96278 0.28395 0.21282
 H2731 H 0.92103 0.32796 0.20864
 H2732 H 0.90190 0.33853 0.19656
 H2733 H 0.90271 0.30460 0.16812
 H2734 H 0.92196 0.29428 0.18025
 H2735 H 0.93828 0.29206 0.23592
 H2736 H 0.95251 0.27680 0.24987
 H2737 H 0.97975 0.27024 0.21625
 H2738 H 0.96552 0.28573 0.20240
 C2739 C 0.92163 0.81256 0.69664
 C2740 C 0.91761 0.80684 0.68437
 C2741 C 0.90682 0.81276 0.67714
 C2742 C 0.89985 0.82449 0.68212
 C2743 C 0.90422 0.83036 0.69432
 C2744 C 0.91501 0.82441 0.70154
 C2745 C 0.93187 0.80567 0.70460
 C2746 C 0.94005 0.79942 0.71137
 C2747 C 0.94924 0.79136 0.71953
 C2748 C 0.96135 0.78601 0.71405
 C2749 C 0.96947 0.77690 0.72158
 C2750 C 0.96549 0.77296 0.73462
 C2751 C 0.95357 0.77879 0.74021
 C2752 C 0.94550 0.78793 0.73270
 H2753 H 0.92263 0.79762 0.68053
 H2754 H 0.90381 0.80790 0.66783
 H2755 H 0.89925 0.83945 0.69845
 H2756 H 0.91802 0.82890 0.71106
 H2757 H 0.96428 0.78853 0.70383
 H2758 H 0.97854 0.77247 0.71700
 H2759 H 0.95036 0.77607 0.75029
 H2760 H 0.93614 0.79200 0.73703
 C2761 C 0.57931 0.29937 0.31143
 C2762 C 0.58514 0.31084 0.30499
 C2763 C 0.59573 0.31818 0.31112
 C2764 C 0.60067 0.31414 0.32383
 C2765 C 0.59465 0.30262 0.33026
 C2766 C 0.58405 0.29529 0.32409
 C2767 C 0.56890 0.29148 0.30471
 C2768 C 0.56050 0.28488 0.29862
 C2769 C 0.55097 0.27700 0.29073
 C2770 C 0.53919 0.28335 0.28555
 C2771 C 0.53080 0.27615 0.27659
 C2772 C 0.53419 0.26256 0.27261
 C2773 C 0.54577 0.25610 0.27825
 C2774 C 0.55409 0.26328 0.28725
 H2775 H 0.58161 0.31403 0.29514
 H2776 H 0.60012 0.32689 0.30577
 H2777 H 0.59809 0.29920 0.34004
 H2778 H 0.57966 0.28637 0.32914
 H2779 H 0.53675 0.29401 0.28809
 H2780 H 0.52204 0.28142 0.27229
 H2781 H 0.54855 0.24560 0.27545
 H2782 H 0.56319 0.25828 0.29118
 C2783 C 0.57789 0.80325 0.80941
 C2784 C 0.58492 0.81383 0.80268
 C2785 C 0.59546 0.82097 0.80912
 C2786 C 0.59916 0.81759 0.82240
 C2787 C 0.59181 0.80712 0.82916
 C2788 C 0.58128 0.79999 0.82269
 C2789 C 0.56768 0.79536 0.80242
 C2790 C 0.55945 0.78868 0.79620
 C2791 C 0.55009 0.78069 0.78823
 C2792 C 0.53825 0.78689 0.78304
 C2793 C 0.53000 0.77961 0.77403
 C2794 C 0.53357 0.76606 0.77005
 C2795 C 0.54517 0.75972 0.77576
 C2796 C 0.55338 0.76700 0.78477
 H2797 H 0.58241 0.81640 0.79237
 H2798 H 0.60083 0.82891 0.80353
 H2799 H 0.59423 0.80428 0.83940
 H2800 H 0.57592 0.79179 0.82797
 H2801 H 0.53565 0.79751 0.78561
 H2802 H 0.52120 0.78479 0.76969
 H2803 H 0.54806 0.74924 0.77300
 H2804 H 0.56253 0.76211 0.78873
 C2805 C 0.07849 0.30399 0.80864
 C2806 C 0.08608 0.31442 0.80230
 C2807 C 0.09646 0.32130 0.80926
 C2808 C 0.09945 0.31776 0.82267
 C2809 C 0.09152 0.30747 0.82905
 C2810 C 0.08115 0.30062 0.82206
 C2811 C 0.06852 0.29624 0.80116
 C2812 C 0.06054 0.28952 0.79465
 C2813 C 0.05152 0.28125 0.78654
 C2814 C 0.03905 0.28668 0.78201
 C2815 C 0.03087 0.27895 0.77327
 C2816 C 0.03514 0.26574 0.76889
 C2817 C 0.04750 0.26023 0.77383
 C2818 C 0.05562 0.26795 0.78258
 H2819 H 0.08415 0.31706 0.79188
 H2820 H 0.10233 0.32912 0.80400
 H2821 H 0.09335 0.30460 0.83940
 H2822 H 0.07535 0.29254 0.82707
 H2823 H 0.03581 0.29701 0.78495
 H2824 H 0.02147 0.28350 0.76953
 H2825 H 0.05099 0.25003 0.77076
 H2826 H 0.06526 0.26365 0.78603
 C2827 C 0.07836 0.80041 0.31003
 C2828 C 0.08530 0.81119 0.30352
 C2829 C 0.09582 0.81825 0.31008
 C2830 C 0.09963 0.81457 0.32326
 C2831 C 0.09237 0.80389 0.32981
 C2832 C 0.08184 0.79685 0.32322
 C2833 C 0.06815 0.79262 0.30290
 C2834 C 0.05994 0.78600 0.29655
 C2835 C 0.05065 0.77802 0.28847
 C2836 C 0.03844 0.78395 0.28382
 C2837 C 0.03017 0.77666 0.27481
 C2838 C 0.03408 0.76339 0.27029
 C2839 C 0.04610 0.75733 0.27544
 C2840 C 0.05432 0.76461 0.28445
 H2841 H 0.08272 0.81401 0.29329
 H2842 H 0.10109 0.82638 0.30466
 H2843 H 0.09485 0.80085 0.33998
 H2844 H 0.07654 0.78851 0.32836
 H2845 H 0.03554 0.79436 0.28681
 H2846 H 0.02104 0.78162 0.27092
 H2847 H 0.04927 0.74706 0.27226
 H2848 H 0.06374 0.75992 0.28800
 C2849 C 0.57797 0.69921 0.68955
 C2850 C 0.58518 0.68889 0.69651
 C2851 C 0.59569 0.68155 0.69013
 C2852 C 0.59918 0.68448 0.67669
 C2853 C 0.59165 0.69468 0.66972
 C2854 C 0.58115 0.70201 0.67612
 C2855 C 0.56785 0.70739 0.69644
 C2856 C 0.55973 0.71443 0.70250
 C2857 C 0.55055 0.72299 0.71019
 C2858 C 0.53800 0.71772 0.71465
 C2859 C 0.52975 0.72561 0.72324
 C2860 C 0.53404 0.73880 0.72755
 C2861 C 0.54643 0.74419 0.72262
 C2862 C 0.55463 0.73632 0.71400
 H2863 H 0.58284 0.68668 0.70694
 H2864 H 0.60123 0.67384 0.69588
 H2865 H 0.59389 0.69716 0.65935
 H2866 H 0.57566 0.71002 0.67066
 H2867 H 0.53478 0.70737 0.71181
 H2868 H 0.52031 0.72116 0.72699
 H2869 H 0.54991 0.75439 0.72565
 H2870 H 0.56432 0.74050 0.71059
 C2871 C 0.57783 0.19720 0.19050
 C2872 C 0.58531 0.18700 0.19732
 C2873 C 0.59596 0.17999 0.19084
 C2874 C 0.59930 0.18312 0.17741
 C2875 C 0.59148 0.19317 0.17054
 C2876 C 0.58084 0.20018 0.17706
 C2877 C 0.56765 0.20515 0.19758
 C2878 C 0.55955 0.21198 0.20390
 C2879 C 0.55045 0.22026 0.21195
 C2880 C 0.53806 0.21476 0.21659
 C2881 C 0.52992 0.22238 0.22551
 C2882 C 0.53415 0.23554 0.22995
 C2883 C 0.54638 0.24116 0.22487
 C2884 C 0.55448 0.23355 0.21595
 H2885 H 0.58309 0.18466 0.20776
 H2886 H 0.60172 0.17238 0.19651
 H2887 H 0.59361 0.19577 0.16018
 H2888 H 0.57513 0.20809 0.17169
 H2889 H 0.53491 0.20443 0.21362
 H2890 H 0.52062 0.21774 0.22937
 H2891 H 0.54981 0.25134 0.22800
 H2892 H 0.56406 0.23789 0.21244
 C2893 C 0.07920 0.69998 0.18811
 C2894 C 0.08349 0.68726 0.19349
 C2895 C 0.09407 0.67979 0.18738
 C2896 C 0.10059 0.68496 0.17578
 C2897 C 0.09601 0.69765 0.17030
 C2898 C 0.08542 0.70511 0.17645
 C2899 C 0.06888 0.70801 0.19495
 C2900 C 0.06054 0.71473 0.20109
 C2901 C 0.05102 0.72274 0.20898
 C2902 C 0.03890 0.71672 0.21368
 C2903 C 0.03048 0.72397 0.22265
 C2904 C 0.03417 0.73731 0.22709
 C2905 C 0.04607 0.74350 0.22185
 C2906 C 0.05444 0.73625 0.21288
 H2907 H 0.07876 0.68319 0.20254
 H2908 H 0.09715 0.67001 0.19181
 H2909 H 0.10075 0.70201 0.16143
 H2910 H 0.08223 0.71499 0.17224
 H2911 H 0.03618 0.70624 0.21078
 H2912 H 0.02145 0.71891 0.22661
 H2913 H 0.04907 0.75382 0.22496
 H2914 H 0.06379 0.74102 0.20930
 C2915 C 0.07929 0.19953 0.68816
 C2916 C 0.08353 0.18680 0.69356
 C2917 C 0.09421 0.17938 0.68756
 C2918 C 0.10084 0.18460 0.67604
 C2919 C 0.09631 0.19730 0.67055
 C2920 C 0.08564 0.20472 0.67659
 C2921 C 0.06897 0.20758 0.69495
 C2922 C 0.06068 0.21439 0.70106
 C2923 C 0.05128 0.22258 0.70891
 C2924 C 0.03945 0.21654 0.71427
 C2925 C 0.03118 0.22406 0.72315
 C2926 C 0.03473 0.23768 0.72685
 C2927 C 0.04635 0.24383 0.72100
 C2928 C 0.05456 0.23631 0.71209
 H2929 H 0.07872 0.18271 0.70255
 H2930 H 0.09730 0.16962 0.69202
 H2931 H 0.10118 0.20172 0.66177
 H2932 H 0.08250 0.21461 0.67238
 H2933 H 0.03687 0.20588 0.71194
 H2934 H 0.02238 0.21902 0.72761
 H2935 H 0.04925 0.25434 0.72356
 H2936 H 0.06370 0.24109 0.70801
 C2937 C 0.42274 0.68771 0.30007
 C2938 C 0.41873 0.69374 0.31222
 C2939 C 0.40793 0.68807 0.31960
 C2940 C 0.40095 0.67626 0.31491
 C2941 C 0.40533 0.67007 0.30283
 C2942 C 0.41613 0.67579 0.29545
 C2943 C 0.43299 0.69436 0.29194
 C2944 C 0.44119 0.70045 0.28507
 C2945 C 0.45043 0.70835 0.27684
 C2946 C 0.46221 0.71418 0.28244
 C2947 C 0.47031 0.72321 0.27483
 C2948 C 0.46663 0.72660 0.26156
 C2949 C 0.45507 0.72026 0.25586
 C2950 C 0.44701 0.71121 0.26347
 H2951 H 0.42374 0.70303 0.31584
 H2952 H 0.40490 0.69318 0.32879
 H2953 H 0.40035 0.66091 0.29893
 H2954 H 0.41914 0.67106 0.28603
 H2955 H 0.46486 0.71214 0.29282
 H2956 H 0.47906 0.72807 0.27952
 H2957 H 0.45207 0.72257 0.24563
 H2958 H 0.43787 0.70681 0.25907
 C2959 C 0.42216 0.19107 0.80282
 C2960 C 0.41649 0.17867 0.79814
 C2961 C 0.40563 0.17246 0.80506
 C2962 C 0.40024 0.17862 0.81676
 C2963 C 0.40623 0.19094 0.82153
 C2964 C 0.41708 0.19713 0.81458
 C2965 C 0.43255 0.19807 0.79513
 C2966 C 0.44083 0.20435 0.78850
 C2967 C 0.45008 0.21237 0.78035
 C2968 C 0.44660 0.21540 0.76704
 C2969 C 0.45464 0.22448 0.75946
 C2970 C 0.46628 0.23069 0.76511
 C2971 C 0.47006 0.22713 0.77832
 C2972 C 0.46196 0.21806 0.78591
 H2973 H 0.42031 0.17391 0.78901
 H2974 H 0.40143 0.16292 0.80114
 H2975 H 0.40238 0.19604 0.83044
 H2976 H 0.42132 0.20679 0.81824
 H2977 H 0.43743 0.21105 0.76263
 H2978 H 0.45160 0.22688 0.74925
 H2979 H 0.47892 0.23184 0.78295
 H2980 H 0.46473 0.21583 0.79623
 C2981 C 0.92151 0.68985 0.80011
 C2982 C 0.91508 0.67795 0.79519
 C2983 C 0.90449 0.67176 0.80250
 C2984 C 0.90013 0.67743 0.81482
 C2985 C 0.90692 0.68923 0.81981
 C2986 C 0.91750 0.69539 0.81248
 C2987 C 0.93163 0.69688 0.79213
 C2988 C 0.93974 0.70320 0.78536
 C2989 C 0.94892 0.71130 0.77724
 C2990 C 0.94525 0.71479 0.76408
 C2991 C 0.95336 0.72390 0.75660
 C2992 C 0.96526 0.72963 0.76222
 C2993 C 0.96916 0.72566 0.77528
 C2994 C 0.96100 0.71658 0.78276
 H2995 H 0.91808 0.67359 0.78560
 H2996 H 0.89967 0.66263 0.79837
 H2997 H 0.90394 0.69393 0.82922
 H2998 H 0.92239 0.70465 0.81635
 H2999 H 0.93591 0.71078 0.75973
 H3000 H 0.95021 0.72665 0.74651
 H3001 H 0.97819 0.73004 0.77989
 H3002 H 0.96388 0.71401 0.79298
 C3003 C 0.92203 0.19286 0.30352
 C3004 C 0.91709 0.18002 0.29916
 C3005 C 0.90624 0.17364 0.30592
 C3006 C 0.90013 0.18004 0.31713
 C3007 C 0.90538 0.19281 0.32162
 C3008 C 0.91623 0.19919 0.31483
 C3009 C 0.93239 0.19996 0.29585
 C3010 C 0.94063 0.20613 0.28908
 C3011 C 0.94985 0.21384 0.28060
 C3012 C 0.94610 0.21672 0.26733
 C3013 C 0.95432 0.22519 0.25929
 C3014 C 0.96645 0.23092 0.26443
 C3015 C 0.97041 0.22760 0.27764
 C3016 C 0.96212 0.21914 0.28570
 H3017 H 0.92147 0.17505 0.29039
 H3018 H 0.90263 0.16373 0.30227
 H3019 H 0.90091 0.19809 0.33015
 H3020 H 0.91992 0.20918 0.31824
 H3021 H 0.93664 0.21267 0.26327
 H3022 H 0.95110 0.22743 0.24911
 H3023 H 0.97963 0.23198 0.28189
 H3024 H 0.96510 0.21702 0.29598
 C3025 C 0.31266 0.30640 0.58095
 C3026 C 0.32334 0.30023 0.58815
 C3027 C 0.32980 0.30751 0.59846
 C3028 C 0.32563 0.32110 0.60174
 C3029 C 0.31508 0.32733 0.59419
 C3030 C 0.30863 0.32001 0.58388
 C3031 C 0.30524 0.29841 0.57122
 C3032 C 0.29879 0.29138 0.56351
 C3033 C 0.29080 0.28261 0.55489
 C3034 C 0.28964 0.26847 0.55791
 C3035 C 0.28113 0.26002 0.55024
 C3036 C 0.27361 0.26560 0.53945
 C3037 C 0.27510 0.27976 0.53627
 C3038 C 0.28363 0.28823 0.54399
 H3039 H 0.32646 0.28965 0.58601
 H3040 H 0.33778 0.30231 0.60407
 H3041 H 0.31167 0.33779 0.59631
 H3042 H 0.30034 0.32488 0.57838
 H3043 H 0.29515 0.26402 0.56632
 H3044 H 0.28036 0.24911 0.55279
 H3045 H 0.26937 0.28437 0.52808
 H3046 H 0.28444 0.29919 0.54162
 C3047 C 0.31015 0.80777 0.08024
 C3048 C 0.32156 0.80177 0.08643
 C3049 C 0.32818 0.80864 0.09691
 C3050 C 0.32344 0.82165 0.10142
 C3051 C 0.31213 0.82775 0.09490
 C3052 C 0.30553 0.82084 0.08440
 C3053 C 0.30265 0.80003 0.07035
 C3054 C 0.29622 0.79304 0.06256
 C3055 C 0.28839 0.78408 0.05397
 C3056 C 0.28703 0.77007 0.05742
 C3057 C 0.27882 0.76134 0.04973
 C3058 C 0.27176 0.76650 0.03846
 C3059 C 0.27345 0.78053 0.03482
 C3060 C 0.28170 0.78929 0.04257
 H3061 H 0.32517 0.79160 0.08336
 H3062 H 0.33678 0.80354 0.10165
 H3063 H 0.30819 0.83775 0.09797
 H3064 H 0.29665 0.82556 0.07974
 H3065 H 0.29220 0.76591 0.06619
 H3066 H 0.27796 0.75052 0.05262
 H3067 H 0.26813 0.78480 0.02621
 H3068 H 0.28269 0.80013 0.03981
 C3069 C 0.81157 0.30436 0.08194
 C3070 C 0.82505 0.30129 0.08560
 C3071 C 0.83139 0.30874 0.09589
 C3072 C 0.82430 0.31936 0.10271
 C3073 C 0.81082 0.32251 0.09877
 C3074 C 0.80451 0.31505 0.08848
 C3075 C 0.80475 0.29609 0.07197
 C3076 C 0.79878 0.28898 0.06395
 C3077 C 0.79123 0.28032 0.05485
 C3078 C 0.78738 0.26696 0.05888
 C3079 C 0.77895 0.25894 0.05068
 C3080 C 0.77419 0.26421 0.03835
 C3081 C 0.77854 0.27744 0.03412
 C3082 C 0.78699 0.28547 0.04235
 H3083 H 0.83060 0.29299 0.08064
 H3084 H 0.84180 0.30607 0.09851
 H3085 H 0.80497 0.33052 0.10380
 H3086 H 0.79403 0.31746 0.08578
 H3087 H 0.79062 0.26287 0.06852
 H3088 H 0.77591 0.24872 0.05411
 H3089 H 0.77491 0.28182 0.02474
 H3090 H 0.78988 0.29581 0.03915
 C3091 C 0.81360 0.80295 0.58091
 C3092 C 0.82615 0.79877 0.58631
 C3093 C 0.83218 0.80645 0.59662
 C3094 C 0.82570 0.81843 0.60174
 C3095 C 0.81323 0.82270 0.59597
 C3096 C 0.80723 0.81500 0.58566
 C3097 C 0.80688 0.79452 0.57102
 C3098 C 0.80085 0.78738 0.56305
 C3099 C 0.79314 0.77885 0.55397
 C3100 C 0.78958 0.76532 0.55773
 C3101 C 0.78088 0.75749 0.54962
 C3102 C 0.77557 0.76314 0.53766
 C3103 C 0.77963 0.77655 0.53369
 C3104 C 0.78834 0.78437 0.54183
 H3105 H 0.83116 0.78944 0.58271
 H3106 H 0.84180 0.80282 0.60066
 H3107 H 0.80792 0.83186 0.59951
 H3108 H 0.79749 0.81832 0.58157
 H3109 H 0.79322 0.76096 0.56711
 H3110 H 0.77805 0.74714 0.55283
 H3111 H 0.77557 0.78122 0.52462
 H3112 H 0.79098 0.79487 0.53887
 C3113 C 0.31670 0.69757 0.41863
 C3114 C 0.31247 0.68400 0.41586
 C3115 C 0.31843 0.67657 0.40530
 C3116 C 0.32871 0.68263 0.39730
 C3117 C 0.33313 0.69617 0.40039
 C3118 C 0.32713 0.70358 0.41095
 C3119 C 0.30976 0.70558 0.42878
 C3120 C 0.30351 0.71230 0.43697
 C3121 C 0.29546 0.72032 0.44630
 C3122 C 0.28999 0.71402 0.45781
 C3123 C 0.28083 0.72134 0.46600
 C3124 C 0.27700 0.73503 0.46273
 C3125 C 0.28302 0.74146 0.45148
 C3126 C 0.29216 0.73414 0.44331
 H3127 H 0.30440 0.67924 0.42173
 H3128 H 0.31488 0.66614 0.40338
 H3129 H 0.34098 0.70122 0.39449
 H3130 H 0.33046 0.71410 0.41296
 H3131 H 0.29242 0.70331 0.46018
 H3132 H 0.27625 0.71608 0.47451
 H3133 H 0.28038 0.75205 0.44881
 H3134 H 0.29632 0.73912 0.43443
 C3135 C 0.31225 0.19482 0.91780
 C3136 C 0.30545 0.18386 0.91149
 C3137 C 0.31184 0.17650 0.90113
 C3138 C 0.32514 0.18003 0.89689
 C3139 C 0.33197 0.19092 0.90349
 C3140 C 0.32555 0.19825 0.91386
 C3141 C 0.30527 0.20298 0.92780
 C3142 C 0.29911 0.20994 0.93586
 C3143 C 0.29131 0.21836 0.94505
 C3144 C 0.28763 0.21318 0.95770
 C3145 C 0.27898 0.22090 0.96607
 C3146 C 0.27389 0.23387 0.96184
 C3147 C 0.27810 0.23921 0.94934
 C3148 C 0.28670 0.23148 0.94098
 H3149 H 0.29511 0.18117 0.91440
 H3150 H 0.30619 0.16829 0.89628
 H3151 H 0.34221 0.19391 0.90061
 H3152 H 0.33090 0.20674 0.91867
 H3153 H 0.29111 0.20301 0.96092
 H3154 H 0.27582 0.21648 0.97560
 H3155 H 0.27451 0.24927 0.94591
 H3156 H 0.28948 0.23559 0.93121
 C3157 C 0.81449 0.69730 0.91705
 C3158 C 0.80889 0.68461 0.91303
 C3159 C 0.81499 0.67699 0.90268
 C3160 C 0.82680 0.68197 0.89614
 C3161 C 0.83252 0.69459 0.90052
 C3162 C 0.82638 0.70220 0.91086
 C3163 C 0.80761 0.70562 0.92700
 C3164 C 0.80150 0.71270 0.93501
 C3165 C 0.79371 0.72119 0.94415
 C3166 C 0.78898 0.71566 0.95631
 C3167 C 0.78017 0.72342 0.96448
 C3168 C 0.77594 0.73679 0.96051
 C3169 C 0.78120 0.74247 0.94854
 C3170 C 0.79001 0.73470 0.94041
 H3171 H 0.79966 0.68072 0.91775
 H3172 H 0.81032 0.66729 0.89974
 H3173 H 0.84159 0.69882 0.89583
 H3174 H 0.83079 0.71203 0.91386
 H3175 H 0.79174 0.70518 0.95928
 H3176 H 0.77617 0.71874 0.97357
 H3177 H 0.77826 0.75281 0.94533
 H3178 H 0.79361 0.73910 0.93102
 C3179 C 0.81063 0.19015 0.41817
 C3180 C 0.80443 0.17905 0.41153
 C3181 C 0.81131 0.17221 0.40114
 C3182 C 0.82449 0.17645 0.39715
 C3183 C 0.83078 0.18740 0.40416
 C3184 C 0.82388 0.19421 0.41457
 C3185 C 0.80307 0.19798 0.42801
 C3186 C 0.79658 0.20492 0.43584
 C3187 C 0.78868 0.21371 0.44460
 C3188 C 0.78162 0.20818 0.45564
 C3189 C 0.77338 0.21678 0.46362
 C3190 C 0.77209 0.23100 0.46056
 C3191 C 0.77945 0.23648 0.44962
 C3192 C 0.78764 0.22789 0.44169
 H3193 H 0.79414 0.17588 0.41417
 H3194 H 0.80608 0.16388 0.39603
 H3195 H 0.84095 0.19087 0.40153
 H3196 H 0.82877 0.20282 0.41963
 H3197 H 0.78232 0.19719 0.45794
 H3198 H 0.76772 0.21228 0.47190
 H3199 H 0.77879 0.24742 0.44714
 H3200 H 0.79303 0.23229 0.43317
 C3201 C 0.69493 0.30737 0.41998
 C3202 C 0.68164 0.30297 0.41708
 C3203 C 0.67410 0.30955 0.40697
 C3204 C 0.67980 0.32060 0.39957
 C3205 C 0.69306 0.32516 0.40282
 C3206 C 0.70057 0.31856 0.41293
 C3207 C 0.70310 0.29982 0.42952
 C3208 C 0.71008 0.29308 0.43709
 C3209 C 0.71854 0.28450 0.44551
 C3210 C 0.71991 0.27039 0.44252
 C3211 C 0.72862 0.26202 0.45012
 C3212 C 0.73614 0.26764 0.46083
 C3213 C 0.73453 0.28180 0.46396
 C3214 C 0.72578 0.29020 0.45631
 H3215 H 0.67721 0.29427 0.42245
 H3216 H 0.66388 0.30586 0.40491
 H3217 H 0.69784 0.33357 0.39736
 H3218 H 0.71089 0.32199 0.41505
 H3219 H 0.71435 0.26588 0.43419
 H3220 H 0.72948 0.25110 0.44761
 H3221 H 0.74027 0.28641 0.47210
 H3222 H 0.72481 0.30113 0.45868
 C3223 C 0.69185 0.80303 0.91857
 C3224 C 0.67825 0.79979 0.91562
 C3225 C 0.67125 0.80715 0.90563
 C3226 C 0.67778 0.81785 0.89841
 C3227 C 0.69137 0.82122 0.90168
 C3228 C 0.69835 0.81383 0.91167
 C3229 C 0.69936 0.79489 0.92822
 C3230 C 0.70595 0.78797 0.93599
 C3231 C 0.71425 0.77965 0.94485
 C3232 C 0.71799 0.76617 0.94107
 C3233 C 0.72710 0.75851 0.94897
 C3234 C 0.73261 0.76425 0.96076
 C3235 C 0.72841 0.77761 0.96474
 C3236 C 0.71931 0.78528 0.95680
 H3237 H 0.67311 0.79144 0.92091
 H3238 H 0.66075 0.80436 0.90355
 H3239 H 0.69678 0.82932 0.89635
 H3240 H 0.70891 0.81640 0.91384
 H3241 H 0.71412 0.76171 0.93185
 H3242 H 0.73004 0.74818 0.94575
 H3243 H 0.73262 0.78235 0.97368
 H3244 H 0.71654 0.79573 0.95978
 C3245 C 0.18886 0.29810 0.92124
 C3246 C 0.17559 0.29461 0.91726
 C3247 C 0.16903 0.30228 0.90719
 C3248 C 0.17569 0.31353 0.90092
 C3249 C 0.18894 0.31708 0.90520
 C3250 C 0.19547 0.30940 0.91525
 C3251 C 0.19600 0.28981 0.93103
 C3252 C 0.20248 0.28296 0.93894
 C3253 C 0.21086 0.27493 0.94795
 C3254 C 0.21436 0.26124 0.94471
 C3255 C 0.22389 0.25399 0.95251
 C3256 C 0.23005 0.26038 0.96366
 C3257 C 0.22602 0.27392 0.96719
 C3258 C 0.21652 0.28117 0.95935
 H3259 H 0.17039 0.28585 0.92182
 H3260 H 0.15880 0.29928 0.90429
 H3261 H 0.19446 0.32559 0.90063
 H3262 H 0.20578 0.31214 0.91820
 H3263 H 0.21006 0.25631 0.93590
 H3264 H 0.22670 0.24352 0.94964
 H3265 H 0.23070 0.27915 0.97563
 H3266 H 0.21396 0.29180 0.96189
 C3267 C 0.19225 0.80081 0.42003
 C3268 C 0.17880 0.79712 0.41689
 C3269 C 0.17163 0.80439 0.40695
 C3270 C 0.17784 0.81544 0.39995
 C3271 C 0.19129 0.81923 0.40339
 C3272 C 0.19843 0.81194 0.41333
 C3273 C 0.19995 0.79279 0.42962
 C3274 C 0.20670 0.78594 0.43733
 C3275 C 0.21515 0.77766 0.44608
 C3276 C 0.21973 0.76462 0.44181
 C3277 C 0.22885 0.75698 0.44972
 C3278 C 0.23355 0.76231 0.46202
 C3279 C 0.22857 0.77525 0.46644
 C3280 C 0.21945 0.78289 0.45849
 H3281 H 0.17392 0.78850 0.42200
 H3282 H 0.16126 0.80125 0.40472
 H3283 H 0.19647 0.82758 0.39821
 H3284 H 0.20887 0.81484 0.41562
 H3285 H 0.21646 0.76047 0.43223
 H3286 H 0.23237 0.74698 0.44613
 H3287 H 0.23213 0.77967 0.47579
 H3288 H 0.21600 0.79300 0.46187
 C3289 C 0.69151 0.69735 0.57974
 C3290 C 0.67796 0.70081 0.58280
 C3291 C 0.67095 0.69360 0.59289
 C3292 C 0.67743 0.68284 0.60010
 C3293 C 0.69098 0.67926 0.59673
 C3294 C 0.69797 0.68650 0.58665
 C3295 C 0.69903 0.70536 0.57001
 C3296 C 0.70562 0.71220 0.56218
 C3297 C 0.71393 0.72045 0.55330
 C3298 C 0.71779 0.73385 0.55714
 C3299 C 0.72694 0.74144 0.54924
 C3300 C 0.73240 0.73568 0.53740
 C3301 C 0.72808 0.72241 0.53336
 C3302 C 0.71890 0.71483 0.54128
 H3303 H 0.67287 0.70921 0.57752
 H3304 H 0.66051 0.69657 0.59506
 H3305 H 0.69636 0.67112 0.60206
 H3306 H 0.70849 0.68379 0.58441
 H3307 H 0.71400 0.73830 0.56642
 H3308 H 0.72995 0.75171 0.55250
 H3309 H 0.73222 0.71766 0.52437
 H3310 H 0.71599 0.70446 0.53823
 C3311 C 0.69036 0.19822 0.07969
 C3312 C 0.69701 0.18736 0.08640
 C3313 C 0.69026 0.17997 0.09651
 C3314 C 0.67673 0.18337 0.10011
 C3315 C 0.67004 0.19416 0.09311
 C3316 C 0.67683 0.20153 0.08298
 C3317 C 0.69769 0.20635 0.06993
 C3318 C 0.70423 0.21320 0.06209
 C3319 C 0.71255 0.22138 0.05316
 C3320 C 0.71795 0.21546 0.04146
 C3321 C 0.72724 0.22293 0.03356
 C3322 C 0.73126 0.23639 0.03733
 C3323 C 0.72536 0.24243 0.04883
 C3324 C 0.71610 0.23495 0.05671
 H3325 H 0.70752 0.18476 0.08397
 H3326 H 0.69580 0.17183 0.10169
 H3327 H 0.65961 0.19701 0.09547
 H3328 H 0.67159 0.20993 0.07786
 H3329 H 0.71533 0.20493 0.03867
 H3330 H 0.73172 0.21794 0.02486
 H3331 H 0.72812 0.25284 0.05188
 H3332 H 0.71201 0.23961 0.06576
 C3333 C 0.19537 0.68951 0.07971
 C3334 C 0.20103 0.67848 0.08702
 C3335 C 0.19345 0.67202 0.09718
 C3336 C 0.18010 0.67655 0.10025
 C3337 C 0.17439 0.68744 0.09260
 C3338 C 0.18199 0.69387 0.08243
 C3339 C 0.20360 0.69701 0.07013
 C3340 C 0.21058 0.70374 0.06253
 C3341 C 0.21897 0.71237 0.05404
 C3342 C 0.22653 0.70668 0.04341
 C3343 C 0.23510 0.71518 0.03565
 C3344 C 0.23624 0.72944 0.03852
 C3345 C 0.22841 0.73505 0.04908
 C3346 C 0.21988 0.72657 0.05677
 H3347 H 0.21142 0.67508 0.08507
 H3348 H 0.19825 0.66375 0.10285
 H3349 H 0.16412 0.69114 0.09453
 H3350 H 0.17752 0.70245 0.07688
 H3351 H 0.22594 0.69568 0.04123
 H3352 H 0.24109 0.71055 0.02766
 H3353 H 0.22891 0.74602 0.05139
 H3354 H 0.21408 0.73109 0.06497
 C3355 C 0.19594 0.18940 0.58049
 C3356 C 0.20151 0.17833 0.58779
 C3357 C 0.19381 0.17181 0.59783
 C3358 C 0.18042 0.17634 0.60076
 C3359 C 0.17482 0.18729 0.59314
 C3360 C 0.18254 0.19377 0.58309
 C3361 C 0.20429 0.19694 0.57106
 C3362 C 0.21139 0.20369 0.56359
 C3363 C 0.21994 0.21231 0.55526
 C3364 C 0.22666 0.20687 0.54399
 C3365 C 0.23532 0.21533 0.53630
 C3366 C 0.23736 0.22931 0.53985
 C3367 C 0.23039 0.23469 0.55109
 C3368 C 0.22179 0.22624 0.55873
 H3369 H 0.21192 0.17493 0.58595
 H3370 H 0.19854 0.16351 0.60350
 H3371 H 0.16455 0.19102 0.59500
 H3372 H 0.17814 0.20238 0.57753
 H3373 H 0.22532 0.19608 0.54124
 H3374 H 0.24063 0.21088 0.52778
 H3375 H 0.23158 0.24547 0.55395
 H3376 H 0.21663 0.23058 0.56742
   
