data_POSCAR
  _audit_creation_date              2014-09-24
  _audit_creation_method            'ToBaCCo'
  _symmetry_space_group_name_H-M    'P1'
  _symmetry_Int_Tables_number       1
  _symmetry_cell_setting            triclinic
  loop_
  _symmetry_equiv_pos_as_xyz
 x,y,z
_cell_length_a 56.0498
_cell_length_b 54.5020
_cell_length_c 54.5718
_cell_angle_alpha 89.864100
_cell_angle_beta 90.025300
_cell_angle_gamma 89.929000
loop_
  _atom_site_label
  _atom_site_type_symbol
  _atom_site_fract_x
  _atom_site_fract_y
  _atom_site_fract_z
C1 C 0.31443 0.45373 0.92504
 N2 N 0.30569 0.43169 0.93220
 C3 C 0.31493 0.42011 0.95209
 N4 N 0.33335 0.43041 0.96459
 C5 C 0.34197 0.45283 0.95794
 N6 N 0.33219 0.46429 0.93821
 C7 C 0.43421 0.83044 0.44331
 N8 N 0.44437 0.82025 0.42305
 C9 C 0.43708 0.79795 0.41480
 N10 N 0.41914 0.78593 0.42640
 C11 C 0.40931 0.79554 0.44692
 N12 N 0.41700 0.81757 0.45517
 C13 C 0.94249 0.91641 0.80101
 N14 N 0.92211 0.92547 0.79125
 C15 C 0.91406 0.94793 0.79795
 N16 N 0.92630 0.96107 0.81494
 C17 C 0.94715 0.95242 0.82446
 N18 N 0.95487 0.92977 0.81762
 C19 C 0.43389 -0.09176 0.30546
 N20 N 0.41561 -0.08071 0.29334
 C21 C 0.40698 -0.05878 0.30114
 N22 N 0.41669 -0.04772 0.32105
 C23 C 0.43561 -0.05807 0.33264
 N24 N 0.44387 -0.08012 0.32491
 C25 C 0.80572 0.29756 0.33081
 N26 N 0.82541 0.28969 0.31868
 C27 C 0.83244 0.30068 0.29760
 N28 N 0.81876 0.31870 0.28778
 C29 C 0.79863 0.32635 0.29921
 N30 N 0.79243 0.31603 0.32100
 C31 C -0.19466 0.83302 0.80306
 N32 N -0.17587 0.82094 0.79292
 C33 C -0.16491 0.80241 0.80538
 N34 N -0.17231 0.79664 0.82841
 C35 C -0.19029 0.80944 0.83918
 N36 N -0.20143 0.82738 0.82623
 C37 C 0.94305 0.32460 0.45043
 N38 N 0.92259 0.31463 0.45937
 C39 C 0.91232 0.29499 0.44831
 N40 N 0.92202 0.28589 0.42736
 C41 C 0.94210 0.29615 0.41783
 N42 N 0.95238 0.31549 0.42934
 C43 C 0.45423 0.45252 0.82870
 N44 N 0.43373 0.46271 0.82013
 C45 C 0.42068 0.45148 0.80254
 N46 N 0.42775 0.42932 0.79378
 C47 C 0.44828 0.41891 0.80203
 N48 N 0.46120 0.43034 0.81968
 C49 C 0.80689 0.92380 0.95278
 N50 N 0.79687 0.93136 0.93131
 C51 C 0.80919 0.94592 0.91551
 N52 N 0.83198 0.95234 0.92080
 C53 C 0.84216 0.94525 0.94225
 N54 N 0.82946 0.93125 0.95819
 C55 C 0.30385 0.83077 0.29976
 N56 N 0.32018 0.81800 0.28649
 C57 C 0.32795 0.79557 0.29377
 N58 N 0.31945 0.78604 0.31500
 C59 C 0.30298 0.79839 0.32845
 N60 N 0.29488 0.82055 0.32056
 C61 C 0.80353 0.41389 0.45110
 N62 N 0.82093 0.42483 0.46441
 C63 C 0.83064 0.44635 0.45678
 N64 N 0.82321 0.45643 0.43534
 C65 C 0.80627 0.44523 0.42155
 N66 N 0.79645 0.42394 0.42952
 C67 C 0.94239 0.84075 -0.06099
 N68 N 0.95244 0.82619 -0.07825
 C69 C 0.94366 0.80360 -0.08336
 N70 N 0.92411 0.79553 -0.07097
 C71 C 0.91468 0.80918 -0.05246
 N72 N 0.92386 0.83176 -0.04764
 C73 C 0.30651 0.33573 0.80962
 N74 N 0.29544 0.32177 0.82681
 C75 C 0.30376 0.29913 0.83264
 N76 N 0.32327 0.29026 0.82084
 C77 C 0.33391 0.30358 0.80280
 N78 N 0.32572 0.32648 0.79758
 C79 C 0.16097 0.54478 0.56058
 N80 N 0.16973 0.54037 0.58334
 C81 C 0.18727 0.55472 0.59269
 N82 N 0.19564 0.57383 0.57914
 C83 C 0.18625 0.57910 0.55679
 N84 N 0.16930 0.56409 0.54745
 C85 C 0.58614 0.70357 0.05039
 N86 N 0.58062 0.68109 0.04124
 C87 C 0.56261 0.66779 0.05123
 N88 N 0.55031 0.67682 0.07063
 C89 C 0.55566 0.69925 0.07992
 N90 N 0.57394 0.71225 0.07004
 C91 C 0.69535 0.20368 0.67041
 N92 N 0.70603 0.18294 0.67907
 C93 C 0.69681 0.17090 0.69870
 N94 N 0.67628 0.17904 0.70904
 C95 C 0.66532 0.19950 0.70035
 N96 N 0.67477 0.21164 0.68092
 C97 C 1.07872 0.04605 0.19685
 N98 N 1.07290 0.04054 0.17324
 C99 C 1.05565 0.05303 0.16080
 N100 N 1.04336 0.07090 0.17275
 C101 C 1.04870 0.07675 0.19631
 N102 N 1.06676 0.06470 0.20790
 C103 C 0.05524 0.17390 1.04509
 N104 N 0.04769 0.17973 1.06801
 C105 C 0.05907 0.19661 1.08195
 N106 N 0.07831 0.20839 1.07253
 C107 C 0.08659 0.20270 1.04985
 N108 N 0.07521 0.18522 1.03634
 C109 C 0.16693 0.70316 0.70038
 N110 N 0.17702 0.68278 0.71025
 C111 C 0.19694 0.67292 0.70007
 N112 N 0.20630 0.68308 0.67948
 C113 C 0.19619 0.70344 0.66943
 N114 N 0.17625 0.71311 0.67971
 C115 C 1.19547 0.16897 0.19586
 N116 N 1.17416 0.17641 0.20475
 C117 C 1.16431 0.19773 0.19698
 N118 N 1.17562 0.21152 0.17975
 C119 C 1.19746 0.20460 0.17114
 N120 N 1.20714 0.18322 0.17936
 C121 C 0.66042 1.04449 0.54878
 N122 N 0.66807 1.03890 0.57195
 C123 C 0.68367 1.05378 0.58396
 N124 N 0.69101 1.07458 0.57272
 C125 C 0.68319 1.08084 0.55011
 N126 N 0.66824 1.06558 0.53800
 C127 C 0.56566 0.54939 0.16604
 N128 N 0.55373 0.56946 0.17419
 C129 C 0.55820 0.57873 0.19677
 N130 N 0.57544 0.56839 0.21096
 C131 C 0.58721 0.54809 0.20314
 N132 N 0.58205 0.53861 0.18082
 C133 C 0.66188 0.69529 0.19956
 N134 N 0.67217 0.67454 0.20845
 C135 C 0.69358 0.66689 0.19962
 N136 N 0.70439 0.67974 0.18144
 C137 C 0.69417 0.70050 0.17241
 N138 N 0.67270 0.70797 0.18126
 C139 C 0.16794 0.05484 1.04536
 N140 N 0.17986 0.07531 1.03833
 C141 C 0.20033 0.08206 1.04970
 N142 N 0.20848 0.06862 1.06895
 C143 C 0.19659 0.04814 1.07624
 N144 N 0.17638 0.04131 1.06435
 C145 C 0.57851 0.19750 0.54402
 N146 N 0.57054 0.20664 0.56561
 C147 C 0.55288 0.19518 0.57821
 N148 N 0.54280 0.17459 0.56883
 C149 C 0.55041 0.16543 0.54703
 N150 N 0.56867 0.17660 0.53504
 C151 C 0.08553 0.54667 0.70449
 N152 N 0.07462 0.53451 0.68585
 C153 C 0.05567 0.54481 0.67398
 N154 N 0.04860 0.56794 0.68002
 C155 C 0.05973 0.58037 0.69827
 N156 N 0.07784 0.56940 0.71057
 C157 C 0.67457 0.55371 0.05001
 N158 N 0.68387 0.54306 0.07038
 C159 C 0.70235 0.55364 0.08247
 N160 N 0.71058 0.57587 0.07480
 C161 C 0.70095 0.58695 0.05475
 N162 N 0.68304 0.57571 0.04235
 C163 C 0.05560 0.69307 0.58472
 N164 N 0.04694 0.67067 0.57843
 C165 C 0.05448 0.65946 0.55761
 N166 N 0.07093 0.67061 0.54312
 C167 C 0.07948 0.69317 0.54902
 N168 N 0.07165 0.70426 0.56977
 C169 C 0.55657 1.05234 0.66300
 N170 N 0.57653 1.04492 0.67505
 C171 C 0.58338 1.05546 0.69641
 N172 N 0.56929 1.07289 0.70661
 C173 C 0.54895 1.08028 0.69531
 N174 N 0.54293 1.07022 0.67341
 C175 C 0.45036 0.33257 0.94715
 N176 N 0.45820 0.32186 0.92619
 C177 C 0.44623 0.30280 0.91606
 N178 N 0.42588 0.29468 0.92667
 C179 C 0.41779 0.30509 0.94759
 N180 N 0.42974 0.32434 0.95748
 C181 C 0.94728 0.44500 0.33650
 N182 N 0.92587 0.45307 0.32772
 C183 C 0.91535 0.44184 0.30833
 N184 N 0.92572 0.42182 0.29816
 C185 C 0.94697 0.41353 0.30673
 N186 N 0.95757 0.42502 0.32591
 C187 C 0.30839 0.94021 0.41026
 N188 N 0.29867 0.91926 0.41947
 C189 C 0.30635 0.91002 0.44131
 N190 N 0.32430 0.92149 0.45350
 C191 C 0.33359 0.94294 0.44503
 N192 N 0.32535 0.95209 0.42346
 O193 O 0.28481 0.44262 0.76404
 O194 O 0.27935 0.44942 0.71925
 O195 O 0.31788 0.50680 0.78821
 O196 O 0.31141 0.54861 0.78204
 O197 O 0.25989 0.47986 0.82547
 O198 O 0.21604 0.48279 0.81898
 O199 O 0.25045 0.57068 0.72567
 O200 O 0.29356 0.56178 0.72829
 O201 O 0.21937 0.50949 0.69694
 O202 O 0.22790 0.46229 0.70581
 O203 O 0.18948 0.53570 0.75733
 O204 O 0.20121 0.53762 0.80218
 O205 O 0.21975 0.56966 0.75289
 O206 O 0.22397 0.56557 0.79760
 O207 O 0.18966 0.50399 0.73042
 O208 O 0.20007 0.46244 0.73044
 O209 O 0.24967 0.53669 0.69345
 O210 O 0.28884 0.53499 0.69721
 O211 O 0.25574 0.44361 0.79297
 O212 O 0.21464 0.45314 0.79515
 O213 O 0.28549 0.51187 0.82290
 O214 O 0.28308 0.55294 0.81082
 O215 O 0.31684 0.47518 0.76096
 O216 O 0.30774 0.47537 0.71777
 Zr217 Zr 0.28222 0.47700 0.74627
 O218 O 0.26076 0.49771 0.72214
 Zr219 Zr 0.28341 0.52292 0.78628
 O220 O 0.26076 0.54501 0.76467
 Zr221 Zr 0.24198 0.47949 0.79105
 O222 O 0.21806 0.49881 0.76838
 Zr223 Zr 0.26586 0.53544 0.72793
 O224 O 0.29032 0.51478 0.74924
 Zr225 Zr 0.22492 0.49158 0.73110
 O226 O 0.24625 0.46902 0.75405
 Zr227 Zr 0.22465 0.53655 0.77188
 O228 O 0.24740 0.51724 0.79632
 O229 O 0.27737 0.48562 0.78286
 O230 O 0.22982 0.52916 0.73495
 C231 C 0.27318 0.43302 0.78203
 C232 C 0.32726 0.48809 0.77741
 C233 C 0.27663 0.49355 0.83430
 C234 C 0.23173 0.57987 0.73567
 C235 C 0.23063 0.52665 0.68543
 C236 C 0.17919 0.52166 0.74153
 H237 H 0.26428 0.49326 0.70496
 H238 H 0.20162 0.49428 0.77313
 H239 H 0.28766 0.47574 0.79357
 H240 H 0.26439 0.56252 0.76751
 H241 H 0.30849 0.55303 0.73259
 H242 H 0.30476 0.56326 0.77373
 H243 H 0.19332 0.46117 0.74713
 H244 H 0.21357 0.44437 0.77932
 H245 H 0.29789 0.51948 0.69819
 H246 H 0.31775 0.49026 0.71917
 H247 H 0.19320 0.52151 0.80301
 H248 H 0.21961 0.49813 0.82795
 H249 H 0.26493 0.43973 0.72324
 H250 H 0.23508 0.46874 0.69055
 H251 H 0.26672 0.55387 0.81757
 H252 H 0.23774 0.57639 0.79419
 O253 O 0.18098 0.02598 0.24649
 O254 O 0.19352 0.02676 0.28904
 O255 O 0.24218 0.06073 0.21188
 O256 O 0.28026 0.05441 0.20723
 O257 O 0.21014 -0.00451 0.18222
 O258 O 0.21484 -0.04767 0.19220
 O259 O 0.30940 -0.00293 0.27375
 O260 O 0.30183 0.03981 0.26659
 O261 O 0.25453 -0.03304 0.30950
 O262 O 0.20990 -0.03246 0.30474
 O263 O 0.27609 -0.06755 0.24401
 O264 O 0.27547 -0.05881 0.20225
 O265 O 0.30778 -0.03450 0.24664
 O266 O 0.29790 -0.02987 0.20010
 O267 O 0.25384 -0.06587 0.27849
 O268 O 0.20867 -0.05932 0.27885
 O269 O 0.27965 -0.00063 0.30760
 O270 O 0.27558 0.04222 0.29708
 O271 O 0.17972 -0.00550 0.21933
 O272 O 0.19054 -0.04790 0.22158
 O273 O 0.23957 0.02405 0.17866
 O274 O 0.28342 0.02132 0.18646
 O275 O 0.21338 0.06093 0.24124
 O276 O 0.21887 0.05462 0.28505
 Zr277 Zr 0.21684 0.02633 0.25868
 O278 O 0.23975 0.00593 0.28181
 Zr279 Zr 0.25620 0.02514 0.21313
 O280 O 0.28109 0.00563 0.23444
 Zr281 Zr 0.21505 -0.01868 0.21789
 O282 O 0.23841 -0.04073 0.23867
 Zr283 Zr 0.27525 0.01277 0.27175
 O284 O 0.25255 0.03513 0.25027
 Zr285 Zr 0.23533 -0.03197 0.27606
 O286 O 0.20983 -0.01159 0.25544
 Zr287 Zr 0.27393 -0.03191 0.23005
 O288 O 0.25051 -0.01241 0.20675
 O289 O 0.22057 0.01872 0.22171
 O290 O 0.27060 -0.02487 0.26736
 C291 C 0.16975 0.01204 0.23133
 C292 C 0.22483 0.07093 0.22332
 C293 C 0.22173 0.01198 0.17027
 C294 C 0.31819 -0.02199 0.26340
 C295 C 0.27136 -0.01966 0.31846
 C296 C 0.26905 -0.07659 0.26435
 H297 H 0.23669 0.01033 0.29907
 H298 H 0.23478 -0.05816 0.23537
 H299 H 0.20939 0.02855 0.21170
 H300 H 0.29759 0.00992 0.22969
 H301 H 0.29388 0.05416 0.25895
 H302 H 0.29401 0.05168 0.21827
 H303 H 0.21169 -0.07162 0.26592
 H304 H 0.18489 -0.04751 0.23875
 H305 H 0.26089 0.04124 0.30704
 H306 H 0.23382 0.06370 0.28173
 H307 H 0.25942 -0.06626 0.20128
 H308 H 0.22904 -0.04540 0.18165
 H309 H 0.18825 0.00960 0.29137
 H310 H 0.21297 -0.01812 0.31535
 H311 H 0.27971 0.00648 0.17677
 H312 H 0.31156 -0.01948 0.20495
 O313 O 0.48882 0.77216 0.31384
 O314 O 0.53188 0.76991 0.30744
 O315 O 0.46226 0.80805 0.25238
 O316 O 0.46859 0.80496 0.21056
 O317 O 0.42892 0.74271 0.27387
 O318 O 0.43997 0.69946 0.27272
 O319 O 0.52812 0.74566 0.18498
 O320 O 0.52480 0.78809 0.19513
 O321 O 0.55715 0.71198 0.24759
 O322 O 0.54564 0.71450 0.29314
 O323 O 0.49955 0.68099 0.21425
 O324 O 0.45562 0.68957 0.21357
 O325 O 0.50042 0.71529 0.18280
 O326 O 0.45674 0.71657 0.18918
 O327 O 0.52528 0.67964 0.24640
 O328 O 0.52234 0.68626 0.28933
 O329 O 0.55830 0.74200 0.21854
 O330 O 0.55146 0.78643 0.22434
 O331 O 0.45884 0.74417 0.31051
 O332 O 0.46424 0.70082 0.30206
 O333 O 0.43067 0.77319 0.24544
 O334 O 0.44317 0.77396 0.20347
 O335 O 0.49198 0.80786 0.28058
 O336 O 0.53322 0.79863 0.28233
 Zr337 Zr 0.50592 0.77210 0.27939
 O338 O 0.53025 0.75166 0.25833
 Zr339 Zr 0.46646 0.77409 0.23404
 O340 O 0.48897 0.75355 0.21091
 Zr341 Zr 0.46414 0.72902 0.27538
 O342 O 0.48664 0.70655 0.25417
 Zr343 Zr 0.52474 0.75907 0.22093
 O344 O 0.50239 0.78204 0.24223
 Zr345 Zr 0.52248 0.71429 0.26246
 O346 O 0.49988 0.73457 0.28597
 Zr347 Zr 0.48314 0.71584 0.21692
 O348 O 0.45847 0.73644 0.23791
 O349 O 0.47030 0.76616 0.27088
 O350 O 0.51894 0.72154 0.22510
 C351 C 0.47031 0.76096 0.32211
 C352 C 0.47371 0.81776 0.27046
 C353 C 0.41927 0.75986 0.26097
 C354 C 0.51718 0.72840 0.17357
 C355 C 0.56752 0.72392 0.23029
 C356 C 0.51544 0.67015 0.22745
 H357 H 0.54673 0.75536 0.26353
 H358 H 0.48271 0.68915 0.25728
 H359 H 0.45912 0.77599 0.28070
 H360 H 0.48611 0.75842 0.19370
 H361 H 0.51701 0.80232 0.20307
 H362 H 0.47761 0.79991 0.19582
 H363 H 0.50622 0.67893 0.28934
 H364 H 0.47884 0.70308 0.31202
 H365 H 0.56174 0.78237 0.23852
 H366 H 0.53511 0.80583 0.26577
 H367 H 0.45582 0.67946 0.22861
 H368 H 0.43334 0.70020 0.25594
 H369 H 0.52985 0.75371 0.31541
 H370 H 0.55824 0.72683 0.29014
 H371 H 0.43540 0.75767 0.20320
 H372 H 0.45946 0.73135 0.17900
 O373 O 0.00746 0.68377 0.71996
 O374 O -0.03567 0.68866 0.72167
 O375 O 0.02859 0.75242 0.68730
 O376 O 0.02975 0.79198 0.69692
 O377 O 0.06427 0.72051 0.75104
 O378 O 0.05535 0.72276 0.79474
 O379 O -0.03563 0.81026 0.75353
 O380 O -0.03010 0.80257 0.71039
 O381 O -0.06392 0.74649 0.78305
 O382 O -0.05423 0.70301 0.78050
 O383 O -0.00561 0.77762 0.81731
 O384 O 0.03681 0.78103 0.80903
 O385 O -0.00923 0.81083 0.78524
 O386 O 0.03581 0.80603 0.78223
 O387 O -0.03228 0.74629 0.81646
 O388 O -0.02720 0.70164 0.80515
 O389 O -0.06502 0.77600 0.75360
 O390 O -0.05913 0.77215 0.71252
 O391 O 0.03304 0.68469 0.75217
 O392 O 0.03047 0.69417 0.79513
 O393 O 0.06261 0.74968 0.72116
 O394 O 0.05113 0.79418 0.72892
 O395 O 0.00633 0.71775 0.68724
 O396 O -0.03796 0.71635 0.69498
 Zr397 Zr -0.01082 0.71780 0.72191
 O398 O -0.03575 0.73747 0.74322
 Zr399 Zr 0.02771 0.76416 0.72389
 O400 O 0.00438 0.78581 0.74491
 Zr401 Zr 0.02965 0.72031 0.76646
 O402 O 0.00665 0.74010 0.78958
 Zr403 Zr -0.03091 0.77530 0.73805
 O404 O -0.00788 0.75573 0.71426
 Zr405 Zr -0.02902 0.73184 0.78076
 O406 O -0.00586 0.70961 0.75941
 Zr407 Zr 0.00987 0.77780 0.78219
 O408 O 0.03531 0.75812 0.76125
 O409 O 0.02407 0.72680 0.72957
 O410 O -0.02573 0.76950 0.77543
 C411 C 0.02429 0.67433 0.73311
 C412 C 0.02118 0.73273 0.67707
 C413 C 0.07339 0.73255 0.73305
 C414 C -0.02606 0.82030 0.77238
 C415 C -0.07456 0.76377 0.77116
 C416 C -0.02157 0.76401 0.82740
 H417 H -0.05216 0.73266 0.73861
 H418 H 0.01062 0.73614 0.80680
 H419 H 0.03470 0.71715 0.71916
 H420 H 0.00685 0.80336 0.74107
 H421 H -0.02387 0.79464 0.69539
 H422 H 0.01592 0.80292 0.69952
 H423 H -0.01442 0.70507 0.81717
 H424 H 0.01553 0.68460 0.79385
 H425 H -0.05287 0.76245 0.69868
 H426 H -0.03461 0.72949 0.68292
 H427 H 0.04077 0.76417 0.81431
 H428 H 0.06430 0.73818 0.79202
 H429 H -0.03370 0.67985 0.73743
 H430 H -0.06000 0.70127 0.76349
 H431 H 0.06154 0.79009 0.74302
 H432 H 0.03159 0.81794 0.76921
 O433 O 0.00405 0.07251 0.01811
 O434 O -0.03670 0.06115 0.02049
 O435 O 0.03586 0.00721 0.05277
 O436 O 0.03773 -0.03280 0.04498
 O437 O 0.06704 0.04024 -0.01129
 O438 O 0.05816 0.03748 -0.05408
 O439 O -0.02749 -0.05640 -0.01564
 O440 O -0.01910 -0.05213 0.02796
 O441 O -0.05742 0.00051 -0.04344
 O442 O -0.05260 0.04732 -0.03779
 O443 O 0.00204 -0.02225 -0.07689
 O444 O 0.04631 -0.02100 -0.06655
 O445 O 0.00152 -0.05668 -0.04448
 O446 O 0.04398 -0.04937 -0.04383
 O447 O -0.02638 0.00734 -0.07612
 O448 O -0.02805 0.05046 -0.06459
 O449 O -0.05794 -0.02534 -0.01067
 O450 O -0.04788 -0.02366 0.03204
 O451 O 0.03252 0.07324 -0.01143
 O452 O 0.03044 0.06296 -0.05491
 O453 O 0.06864 0.00943 0.01683
 O454 O 0.06020 -0.03458 0.01258
 O455 O 0.00959 0.03897 0.05307
 O456 O -0.03351 0.03356 0.04727
 Zr457 Zr -0.00806 0.03597 0.01877
 O458 O -0.03139 0.01433 -0.00249
 Zr459 Zr 0.03446 -0.00640 0.01669
 O460 O 0.01300 -0.03018 -0.00429
 Zr461 Zr 0.03232 0.03737 -0.02585
 O462 O 0.01098 0.01562 -0.04885
 Zr463 Zr -0.02308 -0.02289 0.00272
 O464 O -0.00163 -0.00143 0.02633
 Zr465 Zr -0.02523 0.02056 -0.03996
 O466 O -0.00395 0.04464 -0.01872
 Zr467 Zr 0.01748 -0.02175 -0.04164
 O468 O 0.04110 0.00012 -0.02069
 O469 O 0.02783 0.03078 0.01128
 O470 O -0.01859 -0.01654 -0.03466
 C471 C 0.02012 0.08364 0.00544
 C472 C 0.02636 0.02607 0.06301
 C473 C 0.07770 0.02792 0.00559
 C474 C -0.01668 -0.06631 -0.03390
 C475 C -0.06714 -0.01634 -0.03020
 C476 C -0.01449 -0.00948 -0.08718
 H477 H -0.04810 0.01796 0.00198
 H478 H 0.01455 0.02019 -0.06600
 H479 H 0.03796 0.04171 0.02128
 H480 H 0.01681 -0.04753 -0.00068
 H481 H -0.01176 -0.04512 0.04289
 H482 H 0.02792 -0.04710 0.04027
 H483 H -0.01386 0.05006 -0.07536
 H484 H 0.01455 0.07078 -0.05370
 H485 H -0.05607 -0.00760 0.03249
 H486 H -0.03014 0.01813 0.05626
 H487 H 0.04532 -0.00523 -0.07546
 H488 H 0.06746 0.02211 -0.05237
 H489 H -0.03929 0.06697 0.00351
 H490 H -0.06509 0.04118 -0.02654
 H491 H 0.06838 -0.03166 -0.00325
 H492 H 0.04403 -0.05842 -0.02811
 O493 O -0.03351 0.42621 0.50513
 O494 O -0.03161 0.43453 0.54831
 O495 O -0.06563 0.49326 0.47811
 O496 O -0.05658 0.53344 0.47685
 O497 O -0.00387 0.46172 0.44146
 O498 O 0.03802 0.46065 0.45121
 O499 O 0.00378 0.55335 0.54216
 O500 O -0.03851 0.54891 0.53682
 O501 O 0.02853 0.48884 0.57259
 O502 O 0.02547 0.44465 0.56120
 O503 O 0.06208 0.51906 0.50980
 O504 O 0.05313 0.52051 0.46618
 O505 O 0.03137 0.55354 0.51160
 O506 O 0.02767 0.54584 0.46640
 O507 O 0.06047 0.49023 0.53997
 O508 O 0.05175 0.44599 0.53612
 O509 O 0.00125 0.51965 0.57349
 O510 O -0.04133 0.51990 0.56478
 O511 O -0.00519 0.42603 0.47537
 O512 O 0.03747 0.43435 0.47709
 O513 O -0.03185 0.49190 0.44256
 O514 O -0.02623 0.53533 0.45347
 O515 O -0.06594 0.46203 0.50583
 O516 O -0.05736 0.46203 0.54858
 Zr517 Zr -0.03136 0.46161 0.52050
 O518 O -0.00964 0.48172 0.54465
 Zr519 Zr -0.03005 0.50587 0.47855
 O520 O -0.00836 0.52810 0.50106
 Zr521 Zr 0.01028 0.46117 0.47732
 O522 O 0.03388 0.48143 0.49947
 Zr523 Zr -0.01388 0.51950 0.53814
 O524 O -0.03797 0.49947 0.51586
 Zr525 Zr 0.02634 0.47479 0.53667
 O526 O 0.00457 0.45220 0.51442
 Zr527 Zr 0.02758 0.51915 0.49467
 O528 O 0.00599 0.49884 0.47015
 O529 O -0.02562 0.46830 0.48344
 O530 O 0.02210 0.51249 0.53189
 C531 C -0.02174 0.41557 0.48792
 C532 C -0.07616 0.47594 0.48997
 C533 C -0.01999 0.47515 0.43126
 C534 C 0.02092 0.56329 0.53008
 C535 C 0.01748 0.50634 0.58359
 C536 C 0.07127 0.50693 0.52766
 H537 H -0.01367 0.47719 0.56170
 H538 H 0.05049 0.47702 0.49525
 H539 H -0.03623 0.45850 0.47277
 H540 H -0.01169 0.54565 0.49790
 H541 H -0.05316 0.54254 0.52894
 H542 H -0.05195 0.54645 0.48850
 H543 H 0.06285 0.44901 0.52235
 H544 H 0.03848 0.42805 0.49406
 H545 H -0.04281 0.50308 0.57134
 H546 H -0.06561 0.47807 0.54750
 H547 H 0.06177 0.50471 0.46626
 H548 H 0.03962 0.47774 0.44536
 H549 H -0.01624 0.42564 0.54709
 H550 H 0.01166 0.44694 0.57224
 H551 H -0.01158 0.53217 0.44386
 H552 H 0.01483 0.55780 0.46988
 O553 O 0.56180 0.02174 0.49733
 O554 O 0.55004 0.02022 0.45383
 O555 O 0.50263 0.05948 0.52977
 O556 O 0.46348 0.05498 0.53242
 O557 O 0.53088 -0.00646 0.56144
 O558 O 0.52473 -0.04937 0.55276
 O559 O 0.43262 -0.00406 0.46964
 O560 O 0.44288 0.03993 0.47531
 O561 O 0.48865 -0.03621 0.43468
 O562 O 0.53211 -0.03700 0.43994
 O563 O 0.46127 -0.06644 0.49689
 O564 O 0.46749 -0.05861 0.54252
 O565 O 0.43183 -0.03226 0.50026
 O566 O 0.44257 -0.03196 0.54332
 O567 O 0.48956 -0.06950 0.46763
 O568 O 0.53354 -0.06218 0.46679
 O569 O 0.46274 -0.00407 0.43558
 O570 O 0.46639 0.03835 0.44357
 O571 O 0.56164 -0.00907 0.52544
 O572 O 0.54960 -0.05127 0.52404
 O573 O 0.50388 0.02428 0.56377
 O574 O 0.46038 0.02312 0.55684
 O575 O 0.52936 0.05859 0.49837
 O576 O 0.52798 0.04953 0.45595
 Zr577 Zr 0.52643 0.02274 0.48389
 O578 O 0.50285 0.00279 0.46140
 Zr579 Zr 0.48687 0.02465 0.52921
 O580 O 0.46137 0.00523 0.50847
 Zr581 Zr 0.52602 -0.02104 0.52626
 O582 O 0.50230 -0.04283 0.50587
 Zr583 Zr 0.46735 0.01071 0.47088
 O584 O 0.49093 0.03295 0.49154
 Zr585 Zr 0.50658 -0.03500 0.46847
 O586 O 0.53237 -0.01516 0.48873
 Zr587 Zr 0.46699 -0.03248 0.51374
 O588 O 0.49072 -0.01295 0.53666
 O589 O 0.52223 0.01656 0.52113
 O590 O 0.47104 -0.02692 0.47624
 C591 C 0.57223 0.00791 0.51324
 C592 C 0.51862 0.06944 0.51619
 C593 C 0.52072 0.01106 0.57305
 C594 C 0.42190 -0.02042 0.48260
 C595 C 0.47239 -0.02266 0.42504
 C596 C 0.47183 -0.07824 0.47979
 H597 H 0.50608 0.00675 0.44404
 H598 H 0.50532 -0.06031 0.50959
 H599 H 0.53356 0.02643 0.53091
 H600 H 0.44505 0.01031 0.51312
 H601 H 0.45190 0.05394 0.48219
 H602 H 0.44879 0.05098 0.52324
 H603 H 0.53144 -0.07324 0.48103
 H604 H 0.55696 -0.05061 0.50757
 H605 H 0.48220 0.03869 0.43564
 H606 H 0.51188 0.05686 0.45513
 H607 H 0.47928 -0.07143 0.53827
 H608 H 0.50954 -0.04727 0.56176
 H609 H 0.55618 0.00319 0.45385
 H610 H 0.53056 -0.02200 0.42982
 H611 H 0.46284 0.00761 0.56599
 H612 H 0.43427 -0.01595 0.54298
 O613 O 0.44565 0.50011 -0.02813
 O614 O 0.45615 0.54277 -0.02703
 O615 O 0.50652 0.47191 -0.06941
 O616 O 0.54474 0.46663 -0.06492
 O617 O 0.48005 0.43428 -0.00358
 O618 O 0.48498 0.44174 0.03906
 O619 O 0.57479 0.52966 -0.00510
 O620 O 0.56449 0.52657 -0.04731
 O621 O 0.51898 0.56107 0.03131
 O622 O 0.47509 0.55453 0.03235
 O623 O 0.54616 0.49526 0.05906
 O624 O 0.54453 0.45230 0.04661
 O625 O 0.57566 0.50024 0.02455
 O626 O 0.56815 0.45506 0.01915
 O627 O 0.52017 0.52685 0.06189
 O628 O 0.47553 0.52653 0.05655
 O629 O 0.54425 0.56241 -0.00129
 O630 O 0.53713 0.55607 -0.04525
 O631 O 0.44733 0.46985 0.00052
 O632 O 0.46001 0.46982 0.04239
 O633 O 0.50563 0.43475 -0.03584
 O634 O 0.54999 0.44403 -0.03417
 O635 O 0.47699 0.50025 -0.06590
 O636 O 0.48025 0.54363 -0.05446
 Zr637 Zr 0.48095 0.51376 -0.02978
 O638 O 0.50407 0.53606 -0.00894
 Zr639 Zr 0.52171 0.46977 -0.03442
 O640 O 0.54684 0.49047 -0.01454
 Zr641 Zr 0.48319 0.46937 0.01184
 O642 O 0.50677 0.48927 0.03420
 Zr643 Zr 0.53959 0.52810 -0.01823
 O644 O 0.51645 0.50757 -0.04099
 Zr645 Zr 0.50150 0.52699 0.02840
 O646 O 0.47593 0.50705 0.00792
 Zr647 Zr 0.54212 0.48300 0.02294
 O648 O 0.51862 0.46035 0.00280
 O649 O 0.48619 0.47628 -0.02552
 O650 O 0.53690 0.52062 0.01914
 C651 C 0.43587 0.48325 -0.01494
 C652 C 0.48912 0.48445 -0.07827
 C653 C 0.49024 0.42402 -0.02199
 C654 C 0.58516 0.51786 0.01228
 C655 C 0.53503 0.57157 0.01817
 C656 C 0.53685 0.51318 0.07072
 H657 H 0.50017 0.55352 -0.01176
 H658 H 0.50411 0.48444 0.05145
 H659 H 0.47492 0.46660 -0.03559
 H660 H 0.56320 0.48674 -0.02018
 H661 H 0.55593 0.51981 -0.06167
 H662 H 0.55743 0.47901 -0.06275
 H663 H 0.47874 0.51212 0.06711
 H664 H 0.45272 0.48636 0.04284
 H665 H 0.52415 0.56746 -0.04061
 H666 H 0.49599 0.54371 -0.06264
 H667 H 0.53064 0.45291 0.05777
 H668 H 0.50031 0.43304 0.03663
 H669 H 0.45282 0.54462 -0.00933
 H670 H 0.47707 0.56647 0.01883
 H671 H 0.54895 0.43509 -0.01842
 H672 H 0.57885 0.45957 0.00545
 O673 O 0.68110 0.21865 0.49467
 O674 O 0.69382 0.21920 0.45215
 O675 O 0.73608 0.18190 0.53164
 O676 O 0.77716 0.18398 0.53087
 O677 O 0.71233 0.24919 0.56090
 O678 O 0.71609 0.29124 0.54936
 O679 O 0.81122 0.24209 0.47192
 O680 O 0.80026 0.19877 0.47753
 O681 O 0.75684 0.27430 0.43354
 O682 O 0.71187 0.27459 0.43791
 O683 O 0.78050 0.30745 0.49716
 O684 O 0.77464 0.29887 0.54185
 O685 O 0.81017 0.27365 0.49899
 O686 O 0.79937 0.27207 0.54327
 O687 O 0.75520 0.30784 0.46453
 O688 O 0.71171 0.30229 0.46250
 O689 O 0.78205 0.24181 0.43619
 O690 O 0.77758 0.20076 0.44422
 O691 O 0.68065 0.24844 0.52384
 O692 O 0.69210 0.29119 0.52030
 O693 O 0.73996 0.21874 0.56446
 O694 O 0.78071 0.21375 0.55750
 O695 O 0.71086 0.18252 0.49889
 O696 O 0.71761 0.18923 0.45600
 Zr697 Zr 0.71672 0.21709 0.48289
 O698 O 0.74111 0.23620 0.46066
 Zr699 Zr 0.75493 0.21537 0.52927
 O700 O 0.78111 0.23475 0.50925
 Zr701 Zr 0.71613 0.26159 0.52445
 O702 O 0.74036 0.28281 0.50395
 Zr703 Zr 0.77619 0.22815 0.47169
 O704 O 0.75178 0.20633 0.49187
 Zr705 Zr 0.73736 0.27403 0.46657
 O706 O 0.71089 0.25505 0.48679
 Zr707 Zr 0.77542 0.27273 0.51323
 O708 O 0.75121 0.25332 0.53571
 O709 O 0.71998 0.22406 0.52022
 O710 O 0.77252 0.26594 0.47582
 C711 C 0.67047 0.23162 0.51100
 C712 C 0.71962 0.17245 0.51817
 C713 C 0.72386 0.23298 0.57336
 C714 C 0.82089 0.26027 0.48312
 C715 C 0.77360 0.26061 0.42499
 C716 C 0.77135 0.31750 0.47806
 H717 H 0.73840 0.23187 0.44331
 H718 H 0.73725 0.30039 0.50707
 H719 H 0.70837 0.21524 0.53056
 H720 H 0.79728 0.22979 0.51459
 H721 H 0.79068 0.18439 0.48269
 H722 H 0.79274 0.18848 0.52363
 H723 H 0.71273 0.31294 0.47711
 H724 H 0.68657 0.29073 0.50308
 H725 H 0.76127 0.19877 0.43767
 H726 H 0.73186 0.17904 0.45950
 H727 H 0.76218 0.31111 0.53783
 H728 H 0.73125 0.29019 0.55860
 H729 H 0.68685 0.23590 0.45220
 H730 H 0.71520 0.26056 0.42696
 H731 H 0.78600 0.23080 0.56013
 H732 H 0.81096 0.25863 0.54062
 O733 O 0.81687 0.75992 -0.02012
 O734 O 0.80652 0.71691 -0.02062
 O735 O 0.75654 0.79190 -0.05683
 O736 O 0.71677 0.79142 -0.05213
 O737 O 0.78184 0.82457 0.01011
 O738 O 0.77964 0.81319 0.05237
 O739 O 0.68827 0.73007 0.00483
 O740 O 0.70046 0.73265 -0.03834
 O741 O 0.74768 0.69430 0.03825
 O742 O 0.79187 0.70273 0.03642
 O743 O 0.71846 0.75548 0.07005
 O744 O 0.72190 0.80059 0.06279
 O745 O 0.68777 0.75815 0.03547
 O746 O 0.69765 0.80201 0.03600
 O747 O 0.74812 0.72698 0.07149
 O748 O 0.79050 0.72695 0.06416
 O749 O 0.71902 0.69583 0.00881
 O750 O 0.72474 0.70010 -0.03195
 O751 O 0.81550 0.79067 0.00803
 O752 O 0.80627 0.78597 0.05133
 O753 O 0.75433 0.82555 -0.02047
 O754 O 0.71175 0.81486 -0.02146
 O755 O 0.78643 0.76373 -0.05543
 O756 O 0.78186 0.71954 -0.04930
 Zr757 Zr 0.78185 0.74624 -0.02122
 O758 O 0.75969 0.72233 -0.00100
 Zr759 Zr 0.74041 0.78962 -0.02199
 O760 O 0.71640 0.76774 -0.00190
 Zr761 Zr 0.78074 0.78816 0.02287
 O762 O 0.75849 0.76624 0.04494
 Zr763 Zr 0.72371 0.73042 -0.00786
 O764 O 0.74589 0.75231 -0.03072
 Zr765 Zr 0.76403 0.72904 0.03664
 O766 O 0.78848 0.75088 0.01653
 Zr767 Zr 0.72253 0.77275 0.03579
 O768 O 0.74474 0.79688 0.01566
 O769 O 0.77613 0.78332 -0.01448
 O770 O 0.72793 0.73545 0.02970
 C771 C 0.82635 0.77777 -0.00829
 C772 C 0.77498 0.78127 -0.06603
 C773 C 0.77022 0.83578 -0.00687
 C774 C 0.67757 0.74208 0.02184
 C775 C 0.73001 0.68504 0.02652
 C776 C 0.73031 0.73844 0.08092
 H777 H 0.76329 0.70510 -0.00528
 H778 H 0.76183 0.76976 0.06237
 H779 H 0.78663 0.79443 -0.02393
 H780 H 0.69995 0.77208 -0.00683
 H781 H 0.71024 0.73721 -0.05277
 H782 H 0.70434 0.77888 -0.04928
 H783 H 0.79241 0.74365 0.07086
 H784 H 0.81556 0.77075 0.04857
 H785 H 0.73913 0.70221 -0.04214
 H786 H 0.76860 0.72370 -0.06058
 H787 H 0.73490 0.79723 0.07460
 H788 H 0.76364 0.82089 0.05193
 H789 H 0.81310 0.71633 -0.00380
 H790 H 0.78874 0.69105 0.02295
 H791 H 0.71165 0.82211 -0.00488
 H792 H 0.68740 0.80034 0.02133
 O793 O 1.05974 0.21128 0.24915
 O794 O 1.04958 0.21577 0.29314
 O795 O 0.99691 0.18061 0.21938
 O796 O 0.95745 0.19130 0.21572
 O797 O 1.03291 0.24193 0.18614
 O798 O 1.02968 0.28653 0.19409
 O799 O 0.93484 0.25425 0.27698
 O800 O 0.93925 0.20923 0.27175
 O801 O 0.99473 0.27756 0.31340
 O802 O 1.03890 0.27184 0.30626
 O803 O 0.97061 0.31197 0.25139
 O804 O 0.97798 0.30303 0.20469
 O805 O 0.93708 0.28092 0.24518
 O806 O 0.94810 0.28189 0.20437
 O807 O 0.99854 0.31051 0.28161
 O808 O 1.04077 0.29966 0.28147
 O809 O 0.96477 0.24947 0.31178
 O810 O 0.96264 0.20820 0.30434
 O811 O 1.06294 0.24225 0.22118
 O812 O 1.05618 0.28527 0.22229
 O813 O 1.00224 0.21481 0.18420
 O814 O 0.95953 0.22146 0.19025
 O815 O 1.02459 0.17947 0.24977
 O816 O 1.02304 0.18898 0.29232
 Zr817 Zr 1.02489 0.21529 0.26383
 O818 O 1.00354 0.23779 0.28618
 Zr819 Zr 0.98510 0.21753 0.21859
 O820 O 0.96239 0.24083 0.23876
 Zr821 Zr 1.02908 0.25838 0.22082
 O822 O 1.00870 0.28317 0.24171
 Zr823 Zr 0.96737 0.23467 0.27636
 O824 O 0.98834 0.20924 0.25631
 Zr825 Zr 1.01196 0.27468 0.27919
 O826 O 1.03510 0.25207 0.25844
 Zr827 Zr 0.97255 0.27763 0.23358
 O828 O 0.99311 0.25448 0.21066
 O829 O 1.02091 0.22166 0.22668
 O830 O 0.97572 0.27146 0.27113
 C831 C 1.07119 0.22358 0.23272
 C832 C 1.01256 0.16927 0.23255
 C833 C 1.02110 0.22488 0.17529
 C834 C 0.92611 0.27147 0.26344
 C835 C 0.97688 0.26611 0.32279
 C836 C 0.98189 0.32131 0.26964
 H837 H 1.00615 0.23322 0.30351
 H838 H 1.01371 0.30018 0.23811
 H839 H 1.03079 0.21022 0.21708
 H840 H 0.94563 0.23801 0.23386
 H841 H 0.94657 0.19373 0.26597
 H842 H 0.94356 0.19757 0.22495
 H843 H 1.04071 0.30976 0.26640
 H844 H 1.06279 0.28465 0.23910
 H845 H 0.97864 0.20181 0.30837
 H846 H 1.00764 0.18031 0.29044
 H847 H 0.98828 0.31640 0.21084
 H848 H 1.01552 0.28411 0.18352
 H849 H 1.05962 0.23054 0.29085
 H850 H 1.03468 0.25810 0.31731
 H851 H 0.96374 0.23647 0.18097
 H852 H 0.94082 0.26562 0.20153
 O853 O 0.68510 1.03129 0.75381
 O854 O 0.69710 1.03018 0.79563
 O855 O 0.74564 1.06538 0.71889
 O856 O 0.78566 1.05877 0.71980
 O857 O 0.71412 1.00448 0.68657
 O858 O 0.71602 0.96050 0.69419
 O859 O 0.81249 0.99721 0.77736
 O860 O 0.80425 1.04021 0.77591
 O861 O 0.75245 0.96665 0.81327
 O862 O 0.70937 0.96886 0.80682
 O863 O 0.77741 0.93463 0.74799
 O864 O 0.77465 0.94442 0.70512
 O865 O 0.80989 0.96683 0.74894
 O866 O 0.79907 0.97161 0.70367
 O867 O 0.75067 0.93441 0.77925
 O868 O 0.70699 0.94465 0.77982
 O869 O 0.78310 0.99395 0.81153
 O870 O 0.77870 1.03547 0.80899
 O871 O 0.68345 1.00526 0.72156
 O872 O 0.69055 0.96071 0.72353
 O873 O 0.74529 1.03086 0.68516
 O874 O 0.78799 1.02825 0.69374
 O875 O 0.71781 1.06526 0.74931
 O876 O 0.72380 1.05617 0.79384
 Zr877 Zr 0.72076 1.02994 0.76548
 O878 O 0.74227 1.00698 0.78730
 Zr879 Zr 0.76055 1.02985 0.72035
 O880 O 0.78403 1.00733 0.74037
 Zr881 Zr 0.71733 0.98792 0.72148
 O882 O 0.73915 0.96326 0.74120
 Zr883 Zr 0.77817 1.01222 0.77802
 O884 O 0.75690 1.03757 0.75811
 Zr885 Zr 0.73555 0.96995 0.77893
 O886 O 0.71157 0.99291 0.75934
 Zr887 Zr 0.77535 0.97042 0.73384
 O888 O 0.75338 0.99297 0.71155
 O889 O 0.72489 1.02428 0.72826
 O890 O 0.77163 0.97517 0.77147
 C891 C 0.67429 1.02197 0.73540
 C892 C 0.72875 1.07548 0.73122
 C893 C 0.72658 1.02118 0.67580
 C894 C 0.82122 0.97919 0.76527
 C895 C 0.77101 0.97709 0.82227
 C896 C 0.76668 0.92402 0.76589
 H897 H 0.73954 1.01068 0.80481
 H898 H 0.73476 0.94624 0.73691
 H899 H 0.71447 1.03478 0.71835
 H900 H 0.80066 1.01127 0.73582
 H901 H 0.79578 1.05565 0.77182
 H902 H 0.79936 1.05347 0.72994
 H903 H 0.70607 0.93692 0.76349
 H904 H 0.68211 0.96324 0.73926
 H905 H 0.76823 1.04951 0.80507
 H906 H 0.73615 1.06812 0.78877
 H907 H 0.75878 0.93652 0.70539
 H908 H 0.73103 0.96190 0.68474
 H909 H 0.68894 1.01408 0.79562
 H910 H 0.71059 0.98433 0.81614
 H911 H 0.78568 1.01282 0.68453
 H912 H 0.81155 0.98391 0.70729
 O913 O 0.74850 0.56337 0.21944
 O914 O 0.79212 0.55479 0.22248
 O915 O 0.72023 0.49976 0.18853
 O916 O 0.72093 0.45838 0.19659
 O917 O 0.68895 0.52873 0.25546
 O918 O 0.70161 0.52926 0.29751
 O919 O 0.78012 0.43284 0.25245
 O920 O 0.77823 0.44392 0.20880
 O921 O 0.81685 0.49678 0.28072
 O922 O 0.80712 0.54284 0.27612
 O923 O 0.76021 0.46773 0.31633
 O924 O 0.71494 0.47240 0.31168
 O925 O 0.75405 0.43461 0.28424
 O926 O 0.71212 0.44547 0.28719
 O927 O 0.78615 0.49962 0.31558
 O928 O 0.78612 0.54126 0.30644
 O929 O 0.81332 0.46343 0.25607
 O930 O 0.81021 0.46874 0.21455
 O931 O 0.72022 0.56335 0.24947
 O932 O 0.72735 0.55750 0.29305
 O933 O 0.68781 0.49955 0.22574
 O934 O 0.69795 0.45612 0.22672
 O935 O 0.74886 0.52932 0.18719
 O936 O 0.79114 0.52846 0.19440
 Zr937 Zr 0.76463 0.52825 0.22198
 O938 O 0.78846 0.50633 0.24251
 Zr939 Zr 0.72279 0.48515 0.22449
 O940 O 0.74434 0.46187 0.24588
 Zr941 Zr 0.72469 0.52907 0.26689
 O942 O 0.74697 0.50800 0.28977
 Zr943 Zr 0.78043 0.46890 0.23834
 O944 O 0.75885 0.49063 0.21469
 Zr945 Zr 0.78281 0.51335 0.27982
 O946 O 0.76064 0.53724 0.25923
 Zr947 Zr 0.74065 0.47058 0.28330
 O948 O 0.71649 0.49167 0.26207
 O949 O 0.72895 0.52200 0.22985
 O950 O 0.77654 0.47587 0.27557
 C951 C 0.73105 0.57328 0.23120
 C952 C 0.73190 0.51690 0.17748
 C953 C 0.67792 0.51606 0.23921
 C954 C 0.76868 0.42301 0.27039
 C955 C 0.82462 0.47651 0.27179
 C956 C 0.77703 0.48068 0.32587
 H957 H 0.80510 0.50973 0.23754
 H958 H 0.74415 0.51250 0.30706
 H959 H 0.71792 0.53146 0.21954
 H960 H 0.73972 0.44477 0.24214
 H961 H 0.77380 0.45347 0.19400
 H962 H 0.73355 0.44617 0.20004
 H963 H 0.76991 0.54456 0.31275
 H964 H 0.74206 0.56677 0.28916
 H965 H 0.80757 0.48214 0.20265
 H966 H 0.78887 0.51341 0.18456
 H967 H 0.72036 0.48463 0.32384
 H968 H 0.69434 0.51274 0.29833
 H969 H 0.78949 0.56507 0.23717
 H970 H 0.81872 0.53849 0.26318
 H971 H 0.69247 0.45575 0.24391
 H972 H 0.71244 0.43438 0.27286
 O973 O 0.55960 0.21508 0.74781
 O974 O 0.54967 0.21744 0.79046
 O975 O 0.49677 0.18444 0.71565
 O976 O 0.45857 0.19401 0.71133
 O977 O 0.53168 0.24868 0.68403
 O978 O 0.53011 0.29119 0.69361
 O979 O 0.43366 0.25204 0.77576
 O980 O 0.43966 0.20932 0.77050
 O981 O 0.49392 0.27846 0.81232
 O982 O 0.53665 0.27648 0.80566
 O983 O 0.46762 0.31411 0.75011
 O984 O 0.47209 0.30722 0.70551
 O985 O 0.43546 0.28242 0.74729
 O986 O 0.44675 0.28125 0.70271
 O987 O 0.49476 0.31232 0.78109
 O988 O 0.53897 0.30245 0.77930
 O989 O 0.46410 0.25028 0.81023
 O990 O 0.46459 0.20654 0.80058
 O991 O 0.56277 0.24709 0.72112
 O992 O 0.55417 0.29070 0.72292
 O993 O 0.50348 0.21883 0.68204
 O994 O 0.45981 0.22637 0.68768
 O995 O 0.52415 0.18242 0.74637
 O996 O 0.52309 0.19172 0.78975
 Zr997 Zr 0.52467 0.21811 0.76144
 O998 O 0.50327 0.23985 0.78436
 Zr999 Zr 0.48524 0.22107 0.71593
 O1000 O 0.46170 0.24245 0.73727
 Zr1001 Zr 0.52831 0.26266 0.71983
 O1002 O 0.50656 0.28630 0.74072
 Zr1003 Zr 0.46728 0.23538 0.77469
 O1004 O 0.48850 0.21142 0.75337
 Zr1005 Zr 0.51030 0.27722 0.77789
 O1006 O 0.53407 0.25532 0.75722
 Zr1007 Zr 0.47037 0.27971 0.73291
 O1008 O 0.49236 0.25842 0.70945
 O1009 O 0.52106 0.22552 0.72435
 O1010 O 0.47414 0.27265 0.77022
 C1011 C 0.57117 0.22809 0.73220
 C1012 C 0.51208 0.17276 0.72877
 C1013 C 0.52126 0.23082 0.67304
 C1014 C 0.42448 0.27016 0.76400
 C1015 C 0.47616 0.26686 0.82153
 C1016 C 0.47824 0.32317 0.76885
 H1017 H 0.50630 0.23523 0.80161
 H1018 H 0.51100 0.30354 0.73749
 H1019 H 0.53140 0.21463 0.71454
 H1020 H 0.44500 0.23901 0.73257
 H1021 H 0.44664 0.19513 0.76175
 H1022 H 0.44443 0.19927 0.72080
 H1023 H 0.53629 0.31510 0.76657
 H1024 H 0.56127 0.28906 0.73946
 H1025 H 0.47989 0.20571 0.80948
 H1026 H 0.50685 0.18475 0.78906
 H1027 H 0.48664 0.31703 0.70843
 H1028 H 0.51428 0.29184 0.68558
 H1029 H 0.55828 0.23328 0.78989
 H1030 H 0.53538 0.26051 0.81420
 H1031 H 0.46492 0.24091 0.67813
 H1032 H 0.43748 0.26584 0.70266
 O1033 O 0.23627 0.67939 0.52656
 O1034 O 0.27960 0.68548 0.52579
 O1035 O 0.21143 0.74603 0.55916
 O1036 O 0.21215 0.78596 0.55108
 O1037 O 0.17935 0.71597 0.49330
 O1038 O 0.19047 0.71896 0.45050
 O1039 O 0.27827 0.80686 0.49520
 O1040 O 0.27101 0.79961 0.53808
 O1041 O 0.30909 0.74152 0.46964
 O1042 O 0.29766 0.69849 0.46926
 O1043 O 0.25279 0.77593 0.43183
 O1044 O 0.20799 0.77501 0.43735
 O1045 O 0.25186 0.80798 0.46356
 O1046 O 0.20818 0.80212 0.46294
 O1047 O 0.27936 0.74452 0.43361
 O1048 O 0.27372 0.69973 0.44229
 O1049 O 0.30776 0.77305 0.49680
 O1050 O 0.29753 0.77006 0.54080
 O1051 O 0.21109 0.68055 0.49423
 O1052 O 0.21526 0.68999 0.45163
 O1053 O 0.17890 0.74547 0.52274
 O1054 O 0.19009 0.78895 0.51842
 O1055 O 0.23912 0.71548 0.56119
 O1056 O 0.27947 0.71001 0.55369
 Zr1057 Zr 0.25369 0.71374 0.52574
 O1058 O 0.27904 0.73415 0.50596
 Zr1059 Zr 0.21411 0.75929 0.52302
 O1060 O 0.23780 0.78167 0.50289
 Zr1061 Zr 0.21466 0.71620 0.48012
 O1062 O 0.23841 0.73645 0.45798
 Zr1063 Zr 0.27313 0.77193 0.51108
 O1064 O 0.24961 0.75146 0.53341
 Zr1065 Zr 0.27372 0.72851 0.46830
 O1066 O 0.25000 0.70582 0.48825
 Zr1067 Zr 0.23420 0.77402 0.46530
 O1068 O 0.20837 0.75385 0.48530
 O1069 O 0.21837 0.72181 0.51764
 O1070 O 0.26963 0.76612 0.47357
 C1071 C 0.22043 0.66950 0.51261
 C1072 C 0.22310 0.72935 0.57079
 C1073 C 0.16881 0.72853 0.51004
 C1074 C 0.26853 0.81744 0.47660
 C1075 C 0.31859 0.75963 0.48107
 C1076 C 0.27016 0.76334 0.42299
 H1077 H 0.29522 0.72914 0.51116
 H1078 H 0.23550 0.73267 0.44054
 H1079 H 0.20734 0.71205 0.52793
 H1080 H 0.23484 0.79916 0.50658
 H1081 H 0.26201 0.79259 0.55205
 H1082 H 0.22293 0.79956 0.54649
 H1083 H 0.26113 0.70327 0.43008
 H1084 H 0.23079 0.68142 0.45288
 H1085 H 0.30891 0.75651 0.53776
 H1086 H 0.28552 0.72674 0.55677
 H1087 H 0.21116 0.76128 0.42599
 H1088 H 0.18336 0.73557 0.45135
 H1089 H 0.27737 0.67608 0.51046
 H1090 H 0.30464 0.69787 0.48588
 H1091 H 0.18319 0.78738 0.50182
 H1092 H 0.20978 0.81257 0.47764
 O1093 O 0.31776 0.25275 0.97301
 O1094 O 0.30957 0.20961 0.97795
 O1095 O 0.25566 0.27892 0.93666
 O1096 O 0.21643 0.28492 0.94481
 O1097 O 0.28668 0.31695 0.99989
 O1098 O 0.28238 0.31032 1.04335
 O1099 O 0.19089 0.22260 1.00477
 O1100 O 0.19948 0.22392 0.96275
 O1101 O 0.25130 0.18942 1.03755
 O1102 O 0.29239 0.19684 1.03875
 O1103 O 0.22251 0.25530 1.06780
 O1104 O 0.22361 0.29759 1.05701
 O1105 O 0.19099 0.25246 1.03385
 O1106 O 0.20084 0.29792 1.02830
 O1107 O 0.25014 0.22489 1.06980
 O1108 O 0.29482 0.22556 1.06035
 O1109 O 0.22254 0.18920 1.00813
 O1110 O 0.22664 0.19523 0.96384
 O1111 O 0.31838 0.28229 1.00247
 O1112 O 0.30834 0.28273 1.04571
 O1113 O 0.25959 0.31604 0.96881
 O1114 O 0.21546 0.30885 0.97471
 O1115 O 0.28449 0.24959 0.93891
 O1116 O 0.28286 0.20723 0.95133
 Zr1117 Zr 0.28336 0.23747 0.97553
 O1118 O 0.26170 0.21540 0.99789
 Zr1119 Zr 0.24243 0.28168 0.97270
 O1120 O 0.21864 0.26098 0.99440
 Zr1121 Zr 0.28346 0.28233 1.01660
 O1122 O 0.26128 0.26239 1.04058
 Zr1123 Zr 0.22569 0.22337 0.99064
 O1124 O 0.24732 0.24378 0.96628
 Zr1125 Zr 0.26640 0.22467 1.03490
 O1126 O 0.29074 0.24459 1.01274
 Zr1127 Zr 0.22524 0.26840 1.03159
 O1128 O 0.24751 0.29113 1.00972
 O1129 O 0.27814 0.27487 0.97966
 O1130 O 0.23028 0.23066 1.02791
 C1131 C 0.32813 0.26989 0.98515
 C1132 C 0.27207 0.26550 0.92701
 C1133 C 0.27638 0.32641 0.98110
 C1134 C 0.18083 0.23517 1.02172
 C1135 C 0.23439 0.17903 1.02555
 C1136 C 0.23369 0.23825 1.07940
 H1137 H 0.26573 0.19799 0.99496
 H1138 H 0.26485 0.26725 1.05763
 H1139 H 0.28860 0.28419 0.96844
 H1140 H 0.20203 0.26483 0.98964
 H1141 H 0.20692 0.23164 0.94820
 H1142 H 0.20407 0.27245 0.94817
 H1143 H 0.29425 0.24169 1.06851
 H1144 H 0.31692 0.26687 1.04509
 H1145 H 0.24040 0.18441 0.96732
 H1146 H 0.26732 0.20782 0.94272
 H1147 H 0.23934 0.29853 1.06516
 H1148 H 0.26725 0.31938 1.04079
 H1149 H 0.31879 0.21269 0.99311
 H1150 H 0.29731 0.19224 1.02201
 H1151 H 0.21957 0.31975 0.98857
 H1152 H 0.18935 0.29385 1.01516
 C1153 C 0.29019 0.37748 0.82282
 C1154 C 0.29807 0.36103 0.80430
 C1155 C 0.29792 0.36873 0.77983
 C1156 C 0.28963 0.39188 0.77327
 C1157 C 0.28091 0.40832 0.79086
 C1158 C 0.28110 0.40112 0.81609
 C1159 C 0.29198 0.37141 0.84802
 C1160 C 0.28334 0.38712 0.86599
 C1161 C 0.27394 0.40971 0.85952
 C1162 C 0.27342 0.41698 0.83506
 H1163 H 0.30046 0.35484 0.85441
 H1164 H 0.28424 0.38190 0.88510
 H1165 H 0.26751 0.42191 0.87363
 H1166 H 0.26740 0.43533 0.83181
 H1167 H 0.30402 0.35654 0.76547
 H1168 H 0.28981 0.39689 0.75404
 C1169 C 0.31256 -0.12968 0.27904
 C1170 C 0.29702 -0.14540 0.29241
 C1171 C 0.27386 -0.13721 0.29761
 C1172 C 0.26531 -0.11523 0.28794
 C1173 C 0.27930 -0.10067 0.27230
 C1174 C 0.30334 -0.10826 0.26723
 C1175 C 0.33756 -0.13359 0.27904
 C1176 C 0.35271 -0.11915 0.26499
 C1177 C 0.34343 -0.10022 0.25097
 C1178 C 0.31920 -0.09464 0.25214
 H1179 H 0.34585 -0.14705 0.29085
 H1180 H 0.37175 -0.12257 0.26512
 H1181 H 0.35522 -0.08914 0.23979
 H1182 H 0.31391 -0.07930 0.24120
 H1183 H 0.26180 -0.14831 0.30848
 H1184 H 0.24723 -0.10981 0.29243
 C1185 C 0.76863 0.85778 0.79075
 C1186 C 0.79370 0.85384 0.79019
 C1187 C 0.80829 0.87119 0.77869
 C1188 C 0.79884 0.89309 0.76980
 C1189 C 0.77448 0.89862 0.77222
 C1190 C 0.75893 0.88028 0.78159
 C1191 C 0.75288 0.83952 0.79949
 C1192 C 0.72830 0.84338 0.79955
 C1193 C 0.71886 0.86515 0.79042
 C1194 C 0.73392 0.88331 0.78126
 H1195 H 0.75925 0.82184 0.80568
 H1196 H 0.71648 0.82918 0.80626
 H1197 H 0.69972 0.86780 0.79000
 H1198 H 0.72565 0.89924 0.77318
 H1199 H 0.82740 0.86836 0.77769
 H1200 H 0.81097 0.90633 0.76186
 C1201 C 0.45208 0.86786 0.31538
 C1202 C 0.44203 0.88481 0.29838
 C1203 C 0.44110 0.87831 0.27355
 C1204 C 0.45189 0.85692 0.26514
 C1205 C 0.46431 0.84115 0.28104
 C1206 C 0.46465 0.84677 0.30673
 C1207 C 0.44819 0.87036 0.34093
 C1208 C 0.45913 0.85481 0.35771
 C1209 C 0.47365 0.83603 0.34949
 C1210 C 0.47609 0.83171 0.32447
 H1211 H 0.43582 0.88365 0.34822
 H1212 H 0.45616 0.85724 0.37716
 H1213 H 0.48241 0.82408 0.36259
 H1214 H 0.48706 0.81638 0.32000
 H1215 H 0.43284 0.89038 0.26020
 H1216 H 0.45086 0.85290 0.24573
 C1217 C -0.05568 0.87105 0.80949
 C1218 C -0.04979 0.89151 0.79468
 C1219 C -0.03729 0.88811 0.77277
 C1220 C -0.03008 0.86477 0.76559
 C1221 C -0.03520 0.84430 0.78016
 C1222 C -0.04835 0.84717 0.80215
 C1223 C -0.06907 0.87377 0.83123
 C1224 C -0.07525 0.85335 0.84528
 C1225 C -0.06826 0.82997 0.83800
 C1226 C -0.05489 0.82679 0.81668
 H1227 H -0.07495 0.89162 0.83747
 H1228 H -0.08562 0.85566 0.86185
 H1229 H -0.07341 0.81422 0.84882
 H1230 H -0.05010 0.80828 0.81150
 H1231 H -0.03303 0.90369 0.76120
 H1232 H -0.02013 0.86267 0.74869
 C1233 C -0.03711 -0.12076 -0.07475
 C1234 C -0.04847 -0.13550 -0.05645
 C1235 C -0.05010 -0.12631 -0.03256
 C1236 C -0.03917 -0.10445 -0.02600
 C1237 C -0.02646 -0.09020 -0.04302
 C1238 C -0.02563 -0.09824 -0.06797
 C1239 C -0.03856 -0.12678 -0.10000
 C1240 C -0.02716 -0.11272 -0.11773
 C1241 C -0.01500 -0.09172 -0.11106
 C1242 C -0.01473 -0.08414 -0.08673
 H1243 H -0.04924 -0.14174 -0.10673
 H1244 H -0.02812 -0.11792 -0.13683
 H1245 H -0.00626 -0.08084 -0.12497
 H1246 H -0.00618 -0.06693 -0.08353
 H1247 H -0.05895 -0.13669 -0.01825
 H1248 H -0.04053 -0.09878 -0.00703
 C1249 C -0.02134 0.34975 0.46200
 C1250 C -0.04640 0.34495 0.46221
 C1251 C -0.06148 0.36154 0.47441
 C1252 C -0.05293 0.38375 0.48328
 C1253 C -0.02880 0.39008 0.48116
 C1254 C -0.01255 0.37232 0.47186
 C1255 C -0.00457 0.33190 0.45423
 C1256 C 0.01985 0.33646 0.45509
 C1257 C 0.02828 0.35834 0.46468
 C1258 C 0.01235 0.37585 0.47342
 H1259 H -0.00979 0.31375 0.44853
 H1260 H 0.03233 0.32256 0.44905
 H1261 H 0.04731 0.36145 0.46608
 H1262 H 0.01987 0.39151 0.48249
 H1263 H -0.08051 0.35824 0.47560
 H1264 H -0.06563 0.39658 0.49099
 C1265 C 0.42964 -0.13320 0.47119
 C1266 C 0.44161 -0.14618 0.45200
 C1267 C 0.46272 -0.13594 0.44256
 C1268 C 0.47236 -0.11453 0.45221
 C1269 C 0.46228 -0.10296 0.47274
 C1270 C 0.44162 -0.11379 0.48364
 C1271 C 0.40568 -0.13807 0.47785
 C1272 C 0.39574 -0.12810 0.49897
 C1273 C 0.40938 -0.11305 0.51385
 C1274 C 0.43209 -0.10591 0.50636
 H1275 H 0.39396 -0.14861 0.46638
 H1276 H 0.37755 -0.13244 0.50400
 H1277 H 0.40212 -0.10632 0.53094
 H1278 H 0.44202 -0.09491 0.51912
 H1279 H 0.47217 -0.14454 0.42754
 H1280 H 0.48809 -0.10708 0.44341
 C1281 C 0.48738 0.35742 -0.04604
 C1282 C 0.46242 0.35300 -0.04288
 C1283 C 0.44883 0.37041 -0.03008
 C1284 C 0.45846 0.39280 -0.02326
 C1285 C 0.48230 0.39871 -0.02823
 C1286 C 0.49731 0.38047 -0.03874
 C1287 C 0.50313 0.33886 -0.05442
 C1288 C 0.52745 0.34328 -0.05702
 C1289 C 0.53693 0.36580 -0.05042
 C1290 C 0.52219 0.38402 -0.04094
 H1291 H 0.49730 0.32035 -0.05793
 H1292 H 0.53913 0.32886 -0.06353
 H1293 H 0.55594 0.36892 -0.05189
 H1294 H 0.53081 0.40036 -0.03451
 H1295 H 0.42998 0.36756 -0.02670
 H1296 H 0.44671 0.40607 -0.01473
 C1297 C 0.80470 0.36834 0.44461
 C1298 C 0.79589 0.38897 0.45749
 C1299 C 0.78011 0.38572 0.47707
 C1300 C 0.77243 0.36231 0.48364
 C1301 C 0.78037 0.34169 0.47077
 C1302 C 0.79678 0.34446 0.45125
 C1303 C 0.82168 0.37089 0.42564
 C1304 C 0.83072 0.35035 0.41366
 C1305 C 0.82299 0.32702 0.42021
 C1306 C 0.80599 0.32397 0.43860
 H1307 H 0.82843 0.38867 0.42017
 H1308 H 0.84394 0.35252 0.39936
 H1309 H 0.83050 0.31124 0.41120
 H1310 H 0.80063 0.30546 0.44323
 H1311 H 0.77358 0.40143 0.48720
 H1312 H 0.76002 0.36027 0.49873
 C1313 C 0.77041 0.90163 -0.03241
 C1314 C 0.79553 0.90591 -0.03240
 C1315 C 0.81009 0.88982 -0.01880
 C1316 C 0.80113 0.86800 -0.00935
 C1317 C 0.77713 0.86159 -0.01241
 C1318 C 0.76121 0.87931 -0.02236
 C1319 C 0.75408 0.91947 -0.04100
 C1320 C 0.72961 0.91511 -0.04084
 C1321 C 0.72074 0.89331 -0.03130
 C1322 C 0.73628 0.87577 -0.02176
 H1323 H 0.75985 0.93739 -0.04679
 H1324 H 0.71742 0.92902 -0.04753
 H1325 H 0.70166 0.89027 -0.03063
 H1326 H 0.72847 0.86001 -0.01298
 H1327 H 0.82916 0.89273 -0.01738
 H1328 H 0.81359 0.85527 -0.00100
 C1329 C 0.81634 0.27863 0.37255
 C1330 C 0.79924 0.28702 0.35507
 C1331 C 0.77494 0.28555 0.36080
 C1332 C 0.76729 0.27628 0.38316
 C1333 C 0.78350 0.26737 0.40059
 C1334 C 0.80839 0.26765 0.39497
 C1335 C 0.84119 0.28199 0.36903
 C1336 C 0.85774 0.27257 0.38556
 C1337 C 0.85005 0.26039 0.40640
 C1338 C 0.82578 0.25846 0.41143
 H1339 H 0.84842 0.29262 0.35414
 H1340 H 0.87665 0.27500 0.38233
 H1341 H 0.86300 0.25291 0.41904
 H1342 H 0.82130 0.24973 0.42838
 H1343 H 0.76159 0.29185 0.34787
 H1344 H 0.74830 0.27615 0.38693
 C1345 C 0.79467 0.82261 -0.11993
 C1346 C 0.80273 0.80419 -0.13656
 C1347 C 0.80345 0.77970 -0.12860
 C1348 C 0.79415 0.77285 -0.10597
 C1349 C 0.78439 0.79024 -0.08995
 C1350 C 0.78549 0.81558 -0.09648
 C1351 C 0.79757 0.84798 -0.12505
 C1352 C 0.79027 0.86581 -0.10848
 C1353 C 0.78093 0.85896 -0.08601
 C1354 C 0.77909 0.83427 -0.07977
 H1355 H 0.80652 0.85459 -0.14125
 H1356 H 0.79252 0.88507 -0.11282
 H1357 H 0.77575 0.87291 -0.07305
 H1358 H 0.77345 0.83036 -0.06141
 H1359 H 0.81003 0.76535 -0.14055
 H1360 H 0.79422 0.75357 -0.10110
 C1361 C 0.32177 0.47583 0.88469
 C1362 C 0.30593 0.46521 0.90199
 C1363 C 0.28140 0.46537 0.89725
 C1364 C 0.27235 0.47544 0.87570
 C1365 C 0.28733 0.48678 0.85850
 C1366 C 0.31242 0.48828 0.86369
 C1367 C 0.34683 0.47346 0.88725
 C1368 C 0.36236 0.48523 0.87127
 C1369 C 0.35339 0.49943 0.85232
 C1370 C 0.32887 0.50087 0.84840
 H1371 H 0.35487 0.46198 0.90112
 H1372 H 0.38146 0.48335 0.87363
 H1373 H 0.36554 0.50891 0.84013
 H1374 H 0.32373 0.51224 0.83333
 H1375 H 0.26910 0.45713 0.91017
 H1376 H 0.25335 0.47413 0.87233
 C1377 C 0.31613 -0.03735 0.36982
 C1378 C 0.30039 -0.04961 0.38620
 C1379 C 0.27620 -0.05121 0.38010
 C1380 C 0.26736 -0.04076 0.35860
 C1381 C 0.28207 -0.02740 0.34255
 C1382 C 0.30683 -0.02472 0.34881
 C1383 C 0.34116 -0.03828 0.37329
 C1384 C 0.35654 -0.02515 0.35822
 C1385 C 0.34746 -0.01099 0.33928
 C1386 C 0.32305 -0.01082 0.33446
 H1387 H 0.34931 -0.04975 0.38710
 H1388 H 0.37562 -0.02602 0.36122
 H1389 H 0.35949 -0.00058 0.32774
 H1390 H 0.31777 0.00037 0.31928
 H1391 H 0.26387 -0.06061 0.39217
 H1392 H 0.24858 -0.04311 0.35452
 C1393 C -0.01582 -0.03727 -0.15212
 C1394 C -0.04060 -0.03420 -0.15728
 C1395 C -0.05381 -0.01808 -0.14248
 C1396 C -0.04442 -0.00904 -0.12071
 C1397 C -0.02125 -0.01515 -0.11309
 C1398 C -0.00606 -0.02751 -0.12995
 C1399 C -0.00011 -0.04831 -0.16920
 C1400 C 0.02412 -0.05080 -0.16416
 C1401 C 0.03352 -0.04143 -0.14261
 C1402 C 0.01877 -0.02948 -0.12594
 H1403 H -0.00596 -0.05409 -0.18712
 H1404 H 0.03580 -0.05934 -0.17744
 H1405 H 0.05250 -0.04271 -0.13915
 H1406 H 0.02738 -0.02078 -0.11068
 H1407 H -0.07242 -0.01426 -0.14630
 H1408 H -0.05620 0.00136 -0.10890
 C1409 C -0.01777 0.45536 0.36329
 C1410 C -0.04271 0.45562 0.35783
 C1411 C -0.05834 0.46586 0.37520
 C1412 C -0.05045 0.47256 0.39842
 C1413 C -0.02643 0.47022 0.40515
 C1414 C -0.00966 0.46293 0.38699
 C1415 C -0.00049 0.44971 0.34521
 C1416 C 0.02380 0.45037 0.35049
 C1417 C 0.03158 0.45765 0.37349
 C1418 C 0.01512 0.46431 0.39137
 H1419 H -0.00525 0.44592 0.32647
 H1420 H 0.03669 0.44598 0.33639
 H1421 H 0.05050 0.45891 0.37726
 H1422 H 0.02212 0.47165 0.40814
 H1423 H -0.07731 0.46705 0.37161
 H1424 H -0.06358 0.47871 0.41163
 C1425 C 0.45171 -0.02223 0.35778
 C1426 C 0.44532 -0.04732 0.35544
 C1427 C 0.44853 -0.06316 0.37542
 C1428 C 0.45744 -0.05468 0.39754
 C1429 C 0.46350 -0.02999 0.40061
 C1430 C 0.46099 -0.01352 0.38055
 C1431 C 0.45005 -0.00580 0.33779
 C1432 C 0.45699 0.01862 0.34022
 C1433 C 0.46618 0.02704 0.36233
 C1434 C 0.46843 0.01114 0.38224
 H1435 H 0.44387 -0.01164 0.31999
 H1436 H 0.45561 0.03099 0.32473
 H1437 H 0.47194 0.04592 0.36396
 H1438 H 0.47655 0.01822 0.39865
 H1439 H 0.44374 -0.08234 0.37408
 H1440 H 0.45928 -0.06754 0.41262
 C1441 C 0.46442 0.48827 -0.14445
 C1442 C 0.46605 0.46293 -0.15092
 C1443 C 0.47832 0.44701 -0.13503
 C1444 C 0.48581 0.45468 -0.11207
 C1445 C 0.48217 0.47883 -0.10406
 C1446 C 0.47246 0.49622 -0.12084
 C1447 C 0.45658 0.50625 -0.16146
 C1448 C 0.45535 0.53093 -0.15506
 C1449 C 0.46276 0.53851 -0.13204
 C1450 C 0.47163 0.52149 -0.11528
 H1451 H 0.45240 0.50182 -0.18023
 H1452 H 0.44924 0.54435 -0.16832
 H1453 H 0.46234 0.55780 -0.12739
 H1454 H 0.47867 0.52865 -0.09848
 H1455 H 0.48058 0.42776 -0.13939
 H1456 H 0.49372 0.44110 -0.10002
 C1457 C 0.43203 0.79435 0.36937
 C1458 C 0.44516 0.78903 0.39085
 C1459 C 0.46575 0.77458 0.38951
 C1460 C 0.47347 0.76522 0.36709
 C1461 C 0.46047 0.76964 0.34561
 C1462 C 0.43952 0.78435 0.34658
 C1463 C 0.41185 0.80993 0.37003
 C1464 C 0.39936 0.81558 0.34869
 C1465 C 0.40655 0.80573 0.32644
 C1466 C 0.42626 0.79015 0.32532
 H1467 H 0.40568 0.81808 0.38695
 H1468 H 0.38402 0.82765 0.34943
 H1469 H 0.39685 0.81033 0.30996
 H1470 H 0.43097 0.78289 0.30768
 H1471 H 0.47593 0.77058 0.40592
 H1472 H 0.48971 0.75443 0.36648
 C1473 C -0.02105 0.79020 0.89258
 C1474 C -0.04599 0.78961 0.89772
 C1475 C -0.06094 0.77591 0.88227
 C1476 C -0.05248 0.76668 0.86006
 C1477 C -0.02857 0.76974 0.85312
 C1478 C -0.01231 0.77967 0.87042
 C1479 C -0.00436 0.79931 0.90980
 C1480 C 0.02005 0.79874 0.90504
 C1481 C 0.02850 0.78818 0.88361
 C1482 C 0.01259 0.77833 0.86670
 H1483 H -0.00972 0.80593 0.92761
 H1484 H 0.03251 0.80577 0.91845
 H1485 H 0.04752 0.78698 0.88038
 H1486 H 0.02007 0.76858 0.85138
 H1487 H -0.07986 0.77444 0.88605
 H1488 H -0.06513 0.75840 0.84755
 C1489 C 0.35332 0.75841 0.28131
 C1490 C 0.34871 0.78406 0.28125
 C1491 C 0.36560 0.79982 0.27070
 C1492 C 0.38767 0.79122 0.26314
 C1493 C 0.39384 0.76641 0.26551
 C1494 C 0.37605 0.74950 0.27331
 C1495 C 0.33563 0.74133 0.28828
 C1496 C 0.34026 0.71622 0.28795
 C1497 C 0.36227 0.70755 0.28005
 C1498 C 0.37988 0.72393 0.27249
 H1499 H 0.31780 0.74702 0.29320
 H1500 H 0.32648 0.70337 0.29331
 H1501 H 0.36555 0.68799 0.27926
 H1502 H 0.39603 0.71623 0.26513
 H1503 H 0.36249 0.81937 0.26971
 H1504 H 0.40059 0.80457 0.25677
 C1505 C -0.13949 0.76500 0.79481
 C1506 C -0.14316 0.79078 0.79527
 C1507 C -0.12509 0.80633 0.78688
 C1508 C -0.10336 0.79699 0.77901
 C1509 C -0.09883 0.77165 0.77890
 C1510 C -0.11725 0.75531 0.78631
 C1511 C -0.15774 0.74858 0.80181
 C1512 C -0.15422 0.72329 0.80063
 C1513 C -0.13274 0.71386 0.79202
 C1514 C -0.11451 0.72962 0.78469
 H1515 H -0.17503 0.75502 0.80777
 H1516 H -0.16839 0.71094 0.80603
 H1517 H -0.13031 0.69420 0.79070
 H1518 H -0.09862 0.72138 0.77720
 H1519 H -0.12752 0.82607 0.78720
 H1520 H -0.08966 0.80987 0.77346
 C1521 C 0.88679 0.25925 0.46344
 C1522 C 0.88999 0.28464 0.45850
 C1523 C 0.87148 0.30102 0.46378
 C1524 C 0.84971 0.29266 0.47262
 C1525 C 0.84545 0.26757 0.47620
 C1526 C 0.86428 0.25060 0.47221
 C1527 C 0.90564 0.24235 0.46061
 C1528 C 0.90234 0.21748 0.46550
 C1529 C 0.88041 0.20903 0.47389
 C1530 C 0.86162 0.22539 0.47754
 H1531 H 0.92322 0.24824 0.45526
 H1532 H 0.91701 0.20476 0.46316
 H1533 H 0.87808 0.18975 0.47805
 H1534 H 0.84531 0.21810 0.48515
 H1535 H 0.87370 0.32051 0.46053
 H1536 H 0.83576 0.30598 0.47604
 C1537 C 0.89137 0.77577 -0.02986
 C1538 C 0.89368 0.80030 -0.03844
 C1539 C 0.87522 0.81707 -0.03389
 C1540 C 0.85411 0.80965 -0.02270
 C1541 C 0.85069 0.78519 -0.01568
 C1542 C 0.86962 0.76815 -0.01854
 C1543 C 0.91035 0.75877 -0.03155
 C1544 C 0.90775 0.73478 -0.02303
 C1545 C 0.88646 0.72734 -0.01226
 C1546 C 0.86762 0.74385 -0.00980
 H1547 H 0.92755 0.76386 -0.03886
 H1548 H 0.92246 0.72198 -0.02449
 H1549 H 0.88468 0.70878 -0.00540
 H1550 H 0.85175 0.73758 -0.00046
 H1551 H 0.87672 0.83594 -0.03998
 H1552 H 0.83981 0.82288 -0.02072
 C1553 C -0.11522 -0.04837 -0.06837
 C1554 C -0.13472 -0.04704 -0.05169
 C1555 C -0.13082 -0.03769 -0.02808
 C1556 C -0.10902 -0.02732 -0.02171
 C1557 C -0.09003 -0.02695 -0.03831
 C1558 C -0.09254 -0.03886 -0.06126
 C1559 C -0.11703 -0.06117 -0.09085
 C1560 C -0.09707 -0.06479 -0.10564
 C1561 C -0.07491 -0.05610 -0.09831
 C1562 C -0.07260 -0.04309 -0.07649
 H1563 H -0.13349 -0.06959 -0.09674
 H1564 H -0.09868 -0.07499 -0.12256
 H1565 H -0.05936 -0.05971 -0.10949
 H1566 H -0.05490 -0.03726 -0.07125
 H1567 H -0.14521 -0.03709 -0.01481
 H1568 H -0.10699 -0.01933 -0.00366
 C1569 C -0.14238 0.48082 0.47190
 C1570 C -0.14734 0.45552 0.46852
 C1571 C -0.12981 0.43813 0.47430
 C1572 C -0.10724 0.44532 0.48178
 C1573 C -0.10132 0.47017 0.48399
 C1574 C -0.11923 0.48820 0.48000
 C1575 C -0.16009 0.49888 0.46815
 C1576 C -0.15516 0.52360 0.47219
 C1577 C -0.13275 0.53076 0.48048
 C1578 C -0.11500 0.51329 0.48461
 H1579 H -0.17802 0.49407 0.46267
 H1580 H -0.16894 0.53724 0.46931
 H1581 H -0.12921 0.54994 0.48408
 H1582 H -0.09828 0.51959 0.49209
 H1583 H -0.13317 0.41872 0.47180
 H1584 H -0.09396 0.43122 0.48497
 C1585 C 0.35813 -0.02004 0.45564
 C1586 C 0.35287 -0.04566 0.45736
 C1587 C 0.36845 -0.06066 0.47098
 C1588 C 0.39010 -0.05178 0.47967
 C1589 C 0.39692 -0.02731 0.47597
 C1590 C 0.38021 -0.01085 0.46516
 C1591 C 0.34127 -0.00295 0.44641
 C1592 C 0.34637 0.02203 0.44539
 C1593 C 0.36784 0.03082 0.45446
 C1594 C 0.38438 0.01471 0.46468
 H1595 H 0.32352 -0.00827 0.44098
 H1596 H 0.33324 0.03474 0.43822
 H1597 H 0.37138 0.05034 0.45429
 H1598 H 0.39986 0.02277 0.47312
 H1599 H 0.36491 -0.08006 0.47336
 H1600 H 0.40217 -0.06464 0.48837
 C1601 C 0.36888 0.48790 -0.03138
 C1602 C 0.36287 0.46243 -0.03108
 C1603 C 0.37962 0.44579 -0.02142
 C1604 C 0.40272 0.45317 -0.01572
 C1605 C 0.40999 0.47763 -0.01854
 C1606 C 0.39251 0.49550 -0.02490
 C1607 C 0.35153 0.50620 -0.03623
 C1608 C 0.35740 0.53101 -0.03583
 C1609 C 0.38033 0.53830 -0.02962
 C1610 C 0.39757 0.52083 -0.02375
 H1611 H 0.33298 0.50180 -0.03923
 H1612 H 0.34387 0.54470 -0.03962
 H1613 H 0.38460 0.55764 -0.02859
 H1614 H 0.41443 0.52754 -0.01722
 H1615 H 0.37564 0.42638 -0.02019
 H1616 H 0.41537 0.43921 -0.01010
 C1617 C 0.37652 0.45180 0.80973
 C1618 C 0.39666 0.46082 0.79701
 C1619 C 0.39388 0.47934 0.77943
 C1620 C 0.37127 0.48856 0.77380
 C1621 C 0.35093 0.47940 0.78556
 C1622 C 0.35341 0.46074 0.80364
 C1623 C 0.37895 0.43419 0.82863
 C1624 C 0.35903 0.42514 0.84088
 C1625 C 0.33640 0.43341 0.83459
 C1626 C 0.33352 0.45089 0.81611
 H1627 H 0.39624 0.42755 0.83437
 H1628 H 0.36117 0.41177 0.85542
 H1629 H 0.32108 0.42656 0.84442
 H1630 H 0.31569 0.45696 0.81230
 H1631 H 0.40930 0.48657 0.76989
 H1632 H 0.36956 0.50262 0.75984
 C1633 C 0.36240 -0.05984 0.30042
 C1634 C 0.38410 -0.04995 0.29163
 C1635 C 0.38387 -0.03113 0.27415
 C1636 C 0.36232 -0.02215 0.26499
 C1637 C 0.34064 -0.03177 0.27325
 C1638 C 0.34048 -0.05058 0.29124
 C1639 C 0.36202 -0.07847 0.31851
 C1640 C 0.34047 -0.08759 0.32741
 C1641 C 0.31899 -0.07835 0.31859
 C1642 C 0.31893 -0.06007 0.30069
 H1643 H 0.37831 -0.08602 0.32607
 H1644 H 0.34044 -0.10179 0.34131
 H1645 H 0.30228 -0.08535 0.32565
 H1646 H 0.30188 -0.05331 0.29447
 H1647 H 0.40047 -0.02339 0.26756
 H1648 H 0.36253 -0.00764 0.25139
 C1649 C 0.11247 0.53978 0.74154
 C1650 C 0.10752 0.53697 0.71614
 C1651 C 0.12510 0.52719 0.70086
 C1652 C 0.14778 0.52197 0.70978
 C1653 C 0.15387 0.52625 0.73439
 C1654 C 0.13578 0.53432 0.75078
 C1655 C 0.09450 0.54717 0.75812
 C1656 C 0.09935 0.54954 0.78304
 C1657 C 0.12193 0.54407 0.79205
 C1658 C 0.13989 0.53625 0.77622
 H1659 H 0.07638 0.55050 0.75220
 H1660 H 0.08537 0.55520 0.79549
 H1661 H 0.12545 0.54545 0.81150
 H1662 H 0.15665 0.53110 0.78435
 H1663 H 0.12171 0.52487 0.68145
 H1664 H 0.16107 0.51553 0.69688
 C1665 C 0.10464 0.03646 0.23386
 C1666 C 0.09848 0.03409 0.20844
 C1667 C 0.11379 0.01991 0.19366
 C1668 C 0.13588 0.01185 0.20204
 C1669 C 0.14405 0.01744 0.22563
 C1670 C 0.12769 0.02842 0.24230
 C1671 C 0.08811 0.04504 0.25154
 C1672 C 0.09443 0.04732 0.27611
 C1673 C 0.11689 0.04012 0.28402
 C1674 C 0.13316 0.03029 0.26749
 H1675 H 0.06971 0.04878 0.24726
 H1676 H 0.08151 0.05400 0.28925
 H1677 H 0.12143 0.04130 0.30327
 H1678 H 0.14949 0.02313 0.27501
 H1679 H 0.10956 0.01609 0.17470
 H1680 H 0.14729 0.00230 0.18918
 C1681 C 0.61729 0.69177 0.19512
 C1682 C 0.63747 0.70188 0.20702
 C1683 C 0.63432 0.71847 0.22629
 C1684 C 0.61147 0.72525 0.23386
 C1685 C 0.59126 0.71552 0.22239
 C1686 C 0.59398 0.69852 0.20297
 C1687 C 0.61980 0.67512 0.17551
 C1688 C 0.59983 0.66465 0.16451
 C1689 C 0.57706 0.67089 0.17247
 C1690 C 0.57403 0.68800 0.19120
 H1691 H 0.63715 0.67007 0.16853
 H1692 H 0.60203 0.65162 0.14973
 H1693 H 0.56169 0.66236 0.16408
 H1694 H 0.55600 0.69255 0.19665
 H1695 H 0.64967 0.72629 0.23546
 H1696 H 0.60953 0.73831 0.24866
 C1697 C 0.12256 0.70119 0.69592
 C1698 C 0.14289 0.71049 0.70811
 C1699 C 0.14016 0.72640 0.72800
 C1700 C 0.11746 0.73347 0.73581
 C1701 C 0.09702 0.72469 0.72401
 C1702 C 0.09944 0.70813 0.70403
 C1703 C 0.12479 0.68472 0.67604
 C1704 C 0.10470 0.67473 0.66488
 C1705 C 0.08209 0.68114 0.67303
 C1706 C 0.07945 0.69778 0.69218
 H1707 H 0.14201 0.67933 0.66897
 H1708 H 0.10669 0.66202 0.64981
 H1709 H 0.06647 0.67338 0.66433
 H1710 H 0.06163 0.70221 0.69753
 H1711 H 0.15570 0.73341 0.73747
 H1712 H 0.11582 0.74589 0.75120
 C1713 C 0.60435 0.23342 0.53004
 C1714 C 0.60027 0.20783 0.53263
 C1715 C 0.61826 0.19132 0.52600
 C1716 C 0.64044 0.19962 0.51832
 C1717 C 0.64550 0.22477 0.51682
 C1718 C 0.62714 0.24197 0.52198
 C1719 C 0.58610 0.25070 0.53461
 C1720 C 0.59023 0.27575 0.53165
 C1721 C 0.61237 0.28405 0.52366
 C1722 C 0.63060 0.26739 0.51864
 H1723 H 0.56836 0.24508 0.53995
 H1724 H 0.57605 0.28877 0.53519
 H1725 H 0.61532 0.30350 0.52100
 H1726 H 0.64711 0.27462 0.51154
 H1727 H 0.61556 0.17172 0.52789
 H1728 H 0.65416 0.18612 0.51449
 C1729 C 0.61321 0.71839 0.01581
 C1730 C 0.60711 0.71724 0.04102
 C1731 C 0.62229 0.72813 0.05826
 C1732 C 0.64441 0.73735 0.05137
 C1733 C 0.65211 0.73628 0.02695
 C1734 C 0.63576 0.72830 0.00867
 C1735 C 0.59710 0.71072 -0.00254
 C1736 C 0.60305 0.71254 -0.02727
 C1737 C 0.62480 0.72260 -0.03424
 C1738 C 0.64088 0.73071 -0.01656
 H1739 H 0.57949 0.70400 0.00189
 H1740 H 0.59047 0.70665 -0.04111
 H1741 H 0.62904 0.72457 -0.05350
 H1742 H 0.65683 0.73972 -0.02296
 H1743 H 0.61777 0.72797 0.07757
 H1744 H 0.65615 0.74411 0.06558
 C1745 C 0.12729 0.06741 0.03330
 C1746 C 0.14560 0.04943 0.03536
 C1747 C 0.14088 0.02520 0.02833
 C1748 C 0.11918 0.01892 0.01769
 C1749 C 0.10122 0.03648 0.01431
 C1750 C 0.10495 0.06088 0.02267
 C1751 C 0.12970 0.09098 0.04397
 C1752 C 0.11129 0.10806 0.04292
 C1753 C 0.08978 0.10184 0.03213
 C1754 C 0.08643 0.07850 0.02245
 H1755 H 0.14525 0.09618 0.05433
 H1756 H 0.11350 0.12597 0.05116
 H1757 H 0.07536 0.11493 0.03198
 H1758 H 0.06894 0.07437 0.01564
 H1759 H 0.15436 0.01107 0.03051
 H1760 H 0.11625 0.00004 0.01232
 C1761 C 0.13757 0.52310 0.52727
 C1762 C 0.13988 0.53138 0.55177
 C1763 C 0.12058 0.52918 0.56789
 C1764 C 0.09875 0.52042 0.55978
 C1765 C 0.09558 0.51339 0.53538
 C1766 C 0.11519 0.51391 0.51903
 C1767 C 0.15709 0.52326 0.51092
 C1768 C 0.15452 0.51481 0.48696
 C1769 C 0.13267 0.50571 0.47897
 C1770 C 0.11321 0.50505 0.49485
 H1771 H 0.17458 0.52940 0.51658
 H1772 H 0.16964 0.51501 0.47463
 H1773 H 0.13088 0.49884 0.46046
 H1774 H 0.09682 0.49706 0.48822
 H1775 H 0.12199 0.53557 0.58663
 H1776 H 0.08386 0.52027 0.57237
 C1777 C 0.63709 0.03136 0.51190
 C1778 C 0.64205 0.03065 0.53759
 C1779 C 0.62629 0.01766 0.55286
 C1780 C 0.60444 0.00941 0.54414
 C1781 C 0.59759 0.01305 0.51970
 C1782 C 0.61466 0.02258 0.50297
 C1783 C 0.65438 0.03917 0.49467
 C1784 C 0.64938 0.03956 0.46967
 C1785 C 0.62745 0.03140 0.46111
 C1786 C 0.61040 0.02262 0.47747
 H1787 H 0.67231 0.04398 0.50007
 H1788 H 0.66284 0.04564 0.45680
 H1789 H 0.62388 0.03120 0.44162
 H1790 H 0.59439 0.01493 0.46977
 H1791 H 0.62964 0.01581 0.57233
 H1792 H 0.59210 0.00148 0.55715
 C1793 C 0.65086 0.53766 0.01364
 C1794 C 0.65279 0.54354 0.03887
 C1795 C 0.63300 0.54066 0.05417
 C1796 C 0.61143 0.53242 0.04490
 C1797 C 0.60896 0.52619 0.02021
 C1798 C 0.62874 0.52873 0.00423
 C1799 C 0.67054 0.53988 -0.00231
 C1800 C 0.66846 0.53356 -0.02698
 C1801 C 0.64694 0.52470 -0.03612
 C1802 C 0.62725 0.52214 -0.02070
 H1803 H 0.68770 0.54623 0.00415
 H1804 H 0.68370 0.53535 -0.03903
 H1805 H 0.64554 0.51961 -0.05522
 H1806 H 0.61103 0.51473 -0.02843
 H1807 H 0.63404 0.54553 0.07339
 H1808 H 0.59623 0.53150 0.05701
 C1809 C 0.06756 0.03811 0.11897
 C1810 C 0.05044 0.04769 0.13589
 C1811 C 0.02709 0.05206 0.12736
 C1812 C 0.01989 0.04503 0.10395
 C1813 C 0.03575 0.03385 0.08756
 C1814 C 0.06016 0.03127 0.09475
 C1815 C 0.09226 0.03699 0.12464
 C1816 C 0.10871 0.02737 0.10820
 C1817 C 0.10153 0.02065 0.08495
 C1818 C 0.07783 0.02333 0.07802
 H1819 H 0.09968 0.04446 0.14119
 H1820 H 0.12729 0.02580 0.11323
 H1821 H 0.11457 0.01401 0.07194
 H1822 H 0.07404 0.01985 0.05919
 H1823 H 0.01369 0.05988 0.13934
 H1824 H 0.00142 0.04790 0.09880
 C1825 C 0.01896 0.53249 0.64916
 C1826 C 0.04397 0.53170 0.65337
 C1827 C 0.05846 0.51881 0.63691
 C1828 C 0.04916 0.50934 0.61524
 C1829 C 0.02501 0.51240 0.60914
 C1830 C 0.00939 0.52258 0.62700
 C1831 C 0.00309 0.54200 0.66690
 C1832 C -0.02145 0.54213 0.66284
 C1833 C -0.03076 0.53218 0.64147
 C1834 C -0.01560 0.52218 0.62389
 H1835 H 0.00927 0.54864 0.68442
 H1836 H -0.03334 0.54943 0.67665
 H1837 H -0.04989 0.53170 0.63874
 H1838 H -0.02377 0.51323 0.60847
 H1839 H 0.07749 0.51733 0.64008
 H1840 H 0.06132 0.50067 0.60253
 C1841 C 0.56325 0.02368 0.62717
 C1842 C 0.54946 0.04145 0.64043
 C1843 C 0.52667 0.04740 0.63131
 C1844 C 0.51751 0.03649 0.61042
 C1845 C 0.52994 0.01803 0.59794
 C1846 C 0.55224 0.00992 0.60787
 C1847 C 0.58787 0.01954 0.63169
 C1848 C 0.59980 -0.00025 0.62126
 C1849 C 0.58769 -0.01625 0.60601
 C1850 C 0.56425 -0.01124 0.59920
 H1851 H 0.59872 0.03188 0.64226
 H1852 H 0.61848 -0.00335 0.62531
 H1853 H 0.59671 -0.03225 0.59879
 H1854 H 0.55579 -0.02479 0.58786
 H1855 H 0.51548 0.06091 0.64023
 H1856 H 0.50031 0.04286 0.60393
 C1857 C 0.57692 0.52624 0.12687
 C1858 C 0.56005 0.53899 0.14161
 C1859 C 0.53656 0.54136 0.13334
 C1860 C 0.52958 0.53195 0.11094
 C1861 C 0.54550 0.51895 0.09596
 C1862 C 0.56925 0.51458 0.10472
 C1863 C 0.60149 0.52577 0.13291
 C1864 C 0.61760 0.51188 0.11942
 C1865 C 0.60975 0.49840 0.09950
 C1866 C 0.58601 0.49979 0.09205
 H1867 H 0.60888 0.53666 0.14752
 H1868 H 0.63628 0.51157 0.12446
 H1869 H 0.62230 0.48732 0.08926
 H1870 H 0.58169 0.48906 0.07623
 H1871 H 0.52330 0.55081 0.14427
 H1872 H 0.51130 0.53508 0.10523
 C1873 C 0.20707 0.56767 0.63276
 C1874 C 0.19729 0.54930 0.61735
 C1875 C 0.19818 0.52475 0.62499
 C1876 C 0.20908 0.51809 0.64691
 C1877 C 0.22065 0.53547 0.66159
 C1878 C 0.22044 0.56069 0.65397
 C1879 C 0.20326 0.59293 0.62801
 C1880 C 0.21478 0.61085 0.64165
 C1881 C 0.22999 0.60408 0.66049
 C1882 C 0.23251 0.57945 0.66690
 H1883 H 0.19087 0.59925 0.61422
 H1884 H 0.21191 0.63008 0.63757
 H1885 H 0.23929 0.61806 0.67081
 H1886 H 0.24414 0.57593 0.68198
 H1887 H 0.19056 0.51039 0.61375
 H1888 H 0.20893 0.49891 0.65217
 C1889 C 0.18576 0.04237 0.11933
 C1890 C 0.20140 0.03824 0.09923
 C1891 C 0.22300 0.02592 0.10300
 C1892 C 0.22869 0.01633 0.12595
 C1893 C 0.21316 0.01922 0.14582
 C1894 C 0.19169 0.03269 0.14279
 C1895 C 0.16563 0.05800 0.11719
 C1896 C 0.15171 0.06370 0.13754
 C1897 C 0.15730 0.05390 0.16033
 C1898 C 0.17698 0.03848 0.16299
 H1899 H 0.16082 0.06664 0.10003
 H1900 H 0.13656 0.07590 0.13561
 H1901 H 0.14655 0.05859 0.17610
 H1902 H 0.18092 0.03184 0.18116
 H1903 H 0.23548 0.02351 0.08802
 H1904 H 0.24561 0.00700 0.12837
 C1905 C 0.72831 0.21885 0.64206
 C1906 C 0.70381 0.21510 0.64732
 C1907 C 0.68673 0.22105 0.62945
 C1908 C 0.69356 0.22827 0.60598
 C1909 C 0.71768 0.22976 0.59960
 C1910 C 0.73525 0.22654 0.61810
 C1911 C 0.74603 0.21591 0.66026
 C1912 C 0.76998 0.22030 0.65496
 C1913 C 0.77669 0.22823 0.63172
 C1914 C 0.75952 0.23160 0.61353
 H1915 H 0.74157 0.21089 0.67887
 H1916 H 0.78334 0.21804 0.66912
 H1917 H 0.79523 0.23219 0.62789
 H1918 H 0.76531 0.23906 0.59621
 H1919 H 0.66790 0.21870 0.63320
 H1920 H 0.67985 0.23122 0.59227
 C1921 C 0.72898 0.71855 0.14844
 C1922 C 0.70442 0.71261 0.15056
 C1923 C 0.68914 0.71706 0.13073
 C1924 C 0.69789 0.72598 0.10863
 C1925 C 0.72220 0.73094 0.10560
 C1926 C 0.73792 0.72795 0.12581
 C1927 C 0.74472 0.71607 0.16852
 C1928 C 0.76870 0.72247 0.16630
 C1929 C 0.77736 0.73185 0.14431
 C1930 C 0.76214 0.73481 0.12430
 H1931 H 0.73863 0.70970 0.18621
 H1932 H 0.78055 0.72050 0.18185
 H1933 H 0.79590 0.73718 0.14284
 H1934 H 0.76943 0.74305 0.10795
 H1935 H 0.67033 0.71263 0.13201
 H1936 H 0.68565 0.72820 0.09344
 C1937 C 0.53789 0.73319 0.10664
 C1938 C 0.54339 0.70808 0.10232
 C1939 C 0.53781 0.69064 0.12033
 C1940 C 0.52848 0.69768 0.14280
 C1941 C 0.52485 0.72243 0.14836
 C1942 C 0.52870 0.74043 0.12995
 C1943 C 0.54036 0.75117 0.08811
 C1944 C 0.53469 0.77566 0.09261
 C1945 C 0.52591 0.78269 0.11536
 C1946 C 0.52265 0.76528 0.13379
 H1947 H 0.54594 0.74654 0.06976
 H1948 H 0.53670 0.78918 0.07820
 H1949 H 0.52115 0.80166 0.11859
 H1950 H 0.51468 0.77143 0.15071
 H1951 H 0.54146 0.67134 0.11735
 H1952 H 0.52487 0.68364 0.15640
 C1953 C 0.06396 0.71815 0.62341
 C1954 C 0.04810 0.70471 0.60814
 C1955 C 0.02426 0.70212 0.61530
 C1956 C 0.01593 0.71222 0.63706
 C1957 C 0.03082 0.72610 0.65235
 C1958 C 0.05505 0.73019 0.64487
 C1959 C 0.08878 0.71884 0.61859
 C1960 C 0.10413 0.73283 0.63286
 C1961 C 0.09528 0.74618 0.65241
 C1962 C 0.07120 0.74482 0.65853
 H1963 H 0.09696 0.70798 0.60440
 H1964 H 0.12303 0.73318 0.62881
 H1965 H 0.10729 0.75714 0.66340
 H1966 H 0.06615 0.75535 0.67421
 H1967 H 0.01189 0.69186 0.60403
 H1968 H -0.00248 0.70893 0.64211
 C1969 C 0.52046 0.60395 0.20322
 C1970 C 0.54556 0.60090 0.20523
 C1971 C 0.55933 0.61959 0.21546
 C1972 C 0.54894 0.64145 0.22281
 C1973 C 0.52438 0.64564 0.22003
 C1974 C 0.50975 0.62653 0.21069
 C1975 C 0.50561 0.58471 0.19497
 C1976 C 0.48097 0.58775 0.19356
 C1977 C 0.47055 0.60969 0.20089
 C1978 C 0.48468 0.62877 0.20964
 H1979 H 0.51267 0.56692 0.19013
 H1980 H 0.46986 0.57284 0.18719
 H1981 H 0.45135 0.61177 0.20022
 H1982 H 0.47561 0.64484 0.21619
 H1983 H 0.57848 0.61750 0.21731
 H1984 H 0.56046 0.65552 0.23029
 C1985 C 0.06847 0.62313 0.71448
 C1986 C 0.05211 0.60554 0.70525
 C1987 C 0.02777 0.61129 0.70469
 C1988 C 0.01936 0.63349 0.71391
 C1989 C 0.03477 0.65042 0.72507
 C1990 C 0.05978 0.64489 0.72600
 C1991 C 0.09342 0.61986 0.71189
 C1992 C 0.10946 0.63590 0.72280
 C1993 C 0.10110 0.65578 0.73601
 C1994 C 0.07671 0.66048 0.73733
 H1995 H 0.10091 0.60529 0.70094
 H1996 H 0.12846 0.63293 0.72099
 H1997 H 0.11364 0.66816 0.74463
 H1998 H 0.07195 0.67663 0.74721
 H1999 H 0.01500 0.59826 0.69746
 H2000 H 0.00040 0.63723 0.71282
 C2001 C 0.04609 0.14957 0.00665
 C2002 C 0.04368 0.15447 0.03230
 C2003 C 0.02962 0.13818 0.04626
 C2004 C 0.02134 0.11625 0.03673
 C2005 C 0.02591 0.10951 0.01246
 C2006 C 0.03709 0.12698 -0.00326
 C2007 C 0.05571 0.16705 -0.00977
 C2008 C 0.05768 0.16220 -0.03472
 C2009 C 0.04918 0.14029 -0.04418
 C2010 C 0.03857 0.12310 -0.02879
 H2011 H 0.06064 0.18516 -0.00405
 H2012 H 0.06514 0.17589 -0.04690
 H2013 H 0.05009 0.13695 -0.06371
 H2014 H 0.03060 0.10742 -0.03743
 H2015 H 0.02622 0.14128 0.06553
 H2016 H 0.01231 0.10380 0.04914
 C2017 C 0.05160 0.61398 0.56672
 C2018 C 0.04620 0.63449 0.55165
 C2019 C 0.03328 0.63107 0.52996
 C2020 C 0.02507 0.60787 0.52337
 C2021 C 0.02964 0.58743 0.53822
 C2022 C 0.04334 0.59023 0.55987
 C2023 C 0.06582 0.61640 0.58796
 C2024 C 0.07184 0.59592 0.60200
 C2025 C 0.06399 0.57273 0.59516
 C2026 C 0.04979 0.56979 0.57439
 H2027 H 0.07281 0.63397 0.59366
 H2028 H 0.08292 0.59800 0.61812
 H2029 H 0.06923 0.55693 0.60585
 H2030 H 0.04434 0.55140 0.56956
 H2031 H 0.02938 0.64655 0.51812
 H2032 H 0.01500 0.60584 0.50654
 C2033 C 0.53405 0.13809 0.51313
 C2034 C 0.54083 0.14187 0.53792
 C2035 C 0.53910 0.12242 0.55463
 C2036 C 0.53177 0.09928 0.54711
 C2037 C 0.52581 0.09474 0.52261
 C2038 C 0.52638 0.11434 0.50545
 C2039 C 0.53380 0.15757 0.49600
 C2040 C 0.52654 0.15371 0.47188
 C2041 C 0.51892 0.13061 0.46447
 C2042 C 0.51858 0.11116 0.48110
 H2043 H 0.53864 0.17605 0.50110
 H2044 H 0.52643 0.16882 0.45898
 H2045 H 0.51289 0.12783 0.44584
 H2046 H 0.51160 0.09387 0.47484
 H2047 H 0.54411 0.12498 0.57364
 H2048 H 0.53115 0.08459 0.56053
 C2049 C 0.56423 0.62186 0.05650
 C2050 C 0.55765 0.64274 0.04256
 C2051 C 0.54539 0.63975 0.02042
 C2052 C 0.53862 0.61645 0.01248
 C2053 C 0.54394 0.59560 0.02650
 C2054 C 0.55740 0.59807 0.04835
 C2055 C 0.57783 0.62409 0.07818
 C2056 C 0.58482 0.60332 0.09132
 C2057 C 0.57841 0.58007 0.08318
 C2058 C 0.56472 0.57737 0.06201
 H2059 H 0.58351 0.64181 0.08493
 H2060 H 0.59545 0.60526 0.10777
 H2061 H 0.58428 0.56406 0.09320
 H2062 H 0.56035 0.55897 0.05619
 H2063 H 0.54049 0.65563 0.00953
 H2064 H 0.52862 0.61473 -0.00443
 C2065 C 0.68475 0.12540 0.55543
 C2066 C 0.68850 0.10415 0.54094
 C2067 C 0.69953 0.10648 0.51803
 C2068 C 0.70954 0.12883 0.51088
 C2069 C 0.70861 0.14932 0.52637
 C2070 C 0.69538 0.14800 0.54847
 C2071 C 0.66913 0.12496 0.57578
 C2072 C 0.66548 0.14580 0.58998
 C2073 C 0.67678 0.16762 0.58387
 C2074 C 0.69150 0.16887 0.56331
 H2075 H 0.65918 0.10863 0.58055
 H2076 H 0.65362 0.14508 0.60562
 H2077 H 0.67361 0.18375 0.59481
 H2078 H 0.69928 0.18641 0.55900
 H2079 H 0.70183 0.09060 0.50634
 H2080 H 0.71875 0.12997 0.49346
 C2081 C 0.69044 0.63159 0.04790
 C2082 C 0.70759 0.61242 0.04837
 C2083 C 0.73144 0.61770 0.04289
 C2084 C 0.73833 0.64132 0.03595
 C2085 C 0.72159 0.66040 0.03426
 C2086 C 0.69748 0.65573 0.04080
 C2087 C 0.66657 0.62750 0.05529
 C2088 C 0.64995 0.64648 0.05509
 C2089 C 0.65683 0.66994 0.04818
 C2090 C 0.68035 0.67471 0.04144
 H2091 H 0.66051 0.60984 0.06179
 H2092 H 0.63172 0.64305 0.06069
 H2093 H 0.64392 0.68455 0.04843
 H2094 H 0.68499 0.69345 0.03731
 H2095 H 0.74476 0.60330 0.04357
 H2096 H 0.75688 0.64466 0.03147
 C2097 C 0.19207 0.62720 0.70402
 C2098 C 0.20544 0.64877 0.70848
 C2099 C 0.22737 0.64719 0.72067
 C2100 C 0.23581 0.62466 0.72925
 C2101 C 0.22247 0.60323 0.72592
 C2102 C 0.20057 0.60425 0.71292
 C2103 C 0.17087 0.62782 0.69001
 C2104 C 0.15840 0.60636 0.68485
 C2105 C 0.16672 0.58392 0.69349
 C2106 C 0.18752 0.58275 0.70747
 H2107 H 0.16401 0.64475 0.68249
 H2108 H 0.14230 0.60712 0.67390
 H2109 H 0.15719 0.56734 0.68897
 H2110 H 0.19365 0.56484 0.71324
 H2111 H 0.23789 0.66356 0.72375
 H2112 H 0.25273 0.62397 0.73884
 C2113 C 0.20839 0.12644 0.18296
 C2114 C 0.20394 0.14400 0.20156
 C2115 C 0.20549 0.13704 0.22621
 C2116 C 0.21208 0.11330 0.23279
 C2117 C 0.21736 0.09569 0.21494
 C2118 C 0.21528 0.10213 0.18965
 C2119 C 0.20511 0.13214 0.15783
 C2120 C 0.20968 0.11484 0.13972
 C2121 C 0.21679 0.09133 0.14618
 C2122 C 0.21890 0.08481 0.17077
 H2123 H 0.19863 0.14975 0.15171
 H2124 H 0.20737 0.11959 0.12059
 H2125 H 0.22023 0.07793 0.13204
 H2126 H 0.22283 0.06593 0.17454
 H2127 H 0.20157 0.15017 0.24054
 H2128 H 0.21335 0.10871 0.25208
 C2129 C 0.69485 1.12504 0.69568
 C2130 C 0.70572 1.14633 0.70534
 C2131 C 0.72373 1.14405 0.72298
 C2132 C 0.73099 1.12092 0.73126
 C2133 C 0.71999 1.09959 0.72256
 C2134 C 0.70152 1.10155 0.70479
 C2135 C 0.67748 1.12665 0.67696
 C2136 C 0.66579 1.10577 0.66853
 C2137 C 0.67166 1.08288 0.67802
 C2138 C 0.68949 1.08071 0.69570
 H2139 H 0.67322 1.14395 0.66832
 H2140 H 0.65237 1.10734 0.65434
 H2141 H 0.66261 1.06665 0.67141
 H2142 H 0.69342 1.06263 0.70229
 H2143 H 0.73207 1.16028 0.73053
 H2144 H 0.74515 1.11966 0.74473
 C2145 C 0.69128 0.62079 0.19948
 C2146 C 0.70296 0.64262 0.20670
 C2147 C 0.72399 0.64125 0.22051
 C2148 C 0.73308 0.61859 0.22806
 C2149 C 0.72139 0.59676 0.22193
 C2150 C 0.70042 0.59770 0.20728
 C2151 C 0.67091 0.62142 0.18419
 C2152 C 0.65956 0.59986 0.17707
 C2153 C 0.66831 0.57731 0.18487
 C2154 C 0.68845 0.57619 0.19982
 H2155 H 0.66379 0.63849 0.17729
 H2156 H 0.64398 0.60067 0.16537
 H2157 H 0.65948 0.56057 0.17929
 H2158 H 0.69447 0.55833 0.20524
 H2159 H 0.73322 0.65788 0.22578
 H2160 H 0.74918 0.61809 0.23905
 C2161 C 0.53191 0.10524 0.73068
 C2162 C 0.53523 0.10132 0.70520
 C2163 C 0.52706 0.11906 0.68857
 C2164 C 0.51836 0.14152 0.69671
 C2165 C 0.51731 0.14696 0.72179
 C2166 C 0.52273 0.12819 0.73902
 C2167 C 0.53678 0.08662 0.74804
 C2168 C 0.53305 0.09059 0.77297
 C2169 C 0.52385 0.11284 0.78105
 C2170 C 0.51845 0.13135 0.76427
 H2171 H 0.54275 0.06859 0.74258
 H2172 H 0.53682 0.07611 0.78603
 H2173 H 0.52043 0.11561 0.80037
 H2174 H 0.51004 0.14769 0.77118
 H2175 H 0.52904 0.11632 0.66902
 H2176 H 0.51391 0.15535 0.68316
 C2177 C 1.01230 0.10350 0.20615
 C2178 C 1.03704 0.09810 0.20830
 C2179 C 1.05163 0.11418 0.22145
 C2180 C 1.04282 0.13626 0.23034
 C2181 C 1.01903 0.14338 0.22639
 C2182 C 1.00318 0.12620 0.21547
 C2183 C 0.99628 0.08659 0.19555
 C2184 C 0.97201 0.09189 0.19388
 C2185 C 0.96310 0.11374 0.20329
 C2186 C 0.97839 0.13060 0.21426
 H2187 H 1.00212 0.06887 0.18905
 H2188 H 0.95996 0.07872 0.18573
 H2189 H 0.94413 0.11745 0.20250
 H2190 H 0.97040 0.14653 0.22256
 H2191 H 1.07046 0.11028 0.22377
 H2192 H 1.05528 0.14849 0.23929
 C2193 C 0.17906 0.61487 0.52682
 C2194 C 0.19400 0.60154 0.54331
 C2195 C 0.21738 0.60970 0.54711
 C2196 C 0.22583 0.63086 0.53590
 C2197 C 0.21174 0.64433 0.51935
 C2198 C 0.18876 0.63483 0.51293
 C2199 C 0.15444 0.60957 0.52431
 C2200 C 0.14073 0.62076 0.50621
 C2201 C 0.15109 0.63750 0.49031
 C2202 C 0.17474 0.64459 0.49359
 H2203 H 0.14512 0.59741 0.53658
 H2204 H 0.12202 0.61620 0.50434
 H2205 H 0.14058 0.64552 0.47569
 H2206 H 0.18151 0.65722 0.48018
 H2207 H 0.22921 0.59993 0.55947
 H2208 H 0.24362 0.63697 0.54065
 C2209 C 0.23550 0.10992 1.03953
 C2210 C 0.21083 0.10623 1.04389
 C2211 C 0.19513 0.12619 1.04232
 C2212 C 0.20330 0.14952 1.03668
 C2213 C 0.22750 0.15380 1.03233
 C2214 C 0.24389 0.13392 1.03346
 C2215 C 0.25186 0.09020 1.03996
 C2216 C 0.27592 0.09401 1.03475
 C2217 C 0.28405 0.11732 1.02855
 C2218 C 0.26823 0.13705 1.02764
 H2219 H 0.24625 0.07164 1.04388
 H2220 H 0.28825 0.07872 1.03515
 H2221 H 0.30268 0.12006 1.02409
 H2222 H 0.27518 0.15455 1.02184
 H2223 H 0.17625 0.12382 1.04566
 H2224 H 0.19053 0.16446 1.03575
 C2225 C 0.22850 0.71720 0.63976
 C2226 C 0.20423 0.71246 0.64527
 C2227 C 0.18690 0.71552 0.62697
 C2228 C 0.19333 0.72178 0.60315
 C2229 C 0.21727 0.72533 0.59689
 C2230 C 0.23503 0.72400 0.61543
 C2231 C 0.24632 0.71614 0.65804
 C2232 C 0.27001 0.72158 0.65247
 C2233 C 0.27631 0.72864 0.62883
 C2234 C 0.25902 0.73010 0.61051
 H2235 H 0.24213 0.71163 0.67685
 H2236 H 0.28347 0.72075 0.66667
 H2237 H 0.29464 0.73335 0.62474
 H2238 H 0.26449 0.73671 0.59274
 H2239 H 0.16825 0.71209 0.63091
 H2240 H 0.17953 0.72300 0.58928
 C2241 C 0.23333 0.21660 1.14681
 C2242 C 0.20828 0.21722 1.15138
 C2243 C 0.19346 0.22891 1.13412
 C2244 C 0.20227 0.23633 1.11141
 C2245 C 0.22638 0.23320 1.10526
 C2246 C 0.24240 0.22482 1.12371
 C2247 C 0.24979 0.20962 1.16527
 C2248 C 0.27425 0.20970 1.16087
 C2249 C 0.28300 0.21763 1.13842
 C2250 C 0.26735 0.22553 1.12022
 H2251 H 0.24415 0.20509 1.18365
 H2252 H 0.28653 0.20428 1.17522
 H2253 H 0.30207 0.21835 1.13534
 H2254 H 0.27512 0.23321 1.10395
 H2255 H 0.17441 0.23039 1.13714
 H2256 H 0.18975 0.24347 1.09805
 C2257 C 0.71523 0.51712 0.10901
 C2258 C 0.71119 0.54272 0.10572
 C2259 C 0.71469 0.55857 0.12554
 C2260 C 0.72135 0.54963 0.14839
 C2261 C 0.72462 0.52446 0.15247
 C2262 C 0.72190 0.50793 0.13263
 C2263 C 0.71377 0.50053 0.08921
 C2264 C 0.71810 0.47557 0.09265
 C2265 C 0.72448 0.46666 0.11564
 C2266 C 0.72665 0.48265 0.13541
 H2267 H 0.70991 0.50661 0.07078
 H2268 H 0.71688 0.46311 0.07729
 H2269 H 0.72817 0.44731 0.11809
 H2270 H 0.73255 0.47503 0.15265
 H2271 H 0.71172 0.57812 0.12351
 H2272 H 0.72369 0.56260 0.16322
 C2273 C 0.70518 1.06428 0.62424
 C2274 C 0.69350 1.04705 0.60865
 C2275 C 0.69336 1.02229 0.61563
 C2276 C 0.70467 1.01443 0.63699
 C2277 C 0.71784 1.03064 0.65167
 C2278 C 0.71926 1.05588 0.64445
 C2279 C 0.70256 1.08986 0.62083
 C2280 C 0.71624 1.10660 0.63382
 C2281 C 0.73220 1.09833 0.65133
 C2282 C 0.73344 1.07344 0.65699
 H2283 H 0.68913 1.09735 0.60904
 H2284 H 0.71416 1.12609 0.63055
 H2285 H 0.74298 1.11137 0.66136
 H2286 H 0.74590 1.06895 0.67116
 H2287 H 0.68450 1.00871 0.60440
 H2288 H 0.70332 0.99521 0.64194
 C2289 C 0.56325 0.20982 0.62101
 C2290 C 0.54603 0.20399 0.60287
 C2291 C 0.52176 0.20663 0.60828
 C2292 C 0.51431 0.21560 0.63091
 C2293 C 0.53082 0.22261 0.64890
 C2294 C 0.55572 0.21973 0.64396
 C2295 C 0.58783 0.20503 0.61723
 C2296 C 0.60475 0.21148 0.63469
 C2297 C 0.59760 0.22211 0.65651
 C2298 C 0.57344 0.22554 0.66144
 H2299 H 0.59435 0.19581 0.60109
 H2300 H 0.62348 0.20797 0.63136
 H2301 H 0.61083 0.22725 0.66996
 H2302 H 0.56920 0.23250 0.67920
 H2303 H 0.50841 0.20192 0.59472
 H2304 H 0.49534 0.21730 0.63432
 C2305 C 1.04095 0.18349 0.12153
 C2306 C 1.05111 0.20170 0.10589
 C2307 C 1.05279 0.22588 0.11442
 C2308 C 1.04257 0.23277 0.13656
 C2309 C 1.03074 0.21575 0.15153
 C2310 C 1.03045 0.19054 0.14435
 C2311 C 1.04296 0.15813 0.11609
 C2312 C 1.03305 0.14040 0.13131
 C2313 C 1.02195 0.14728 0.15288
 C2314 C 1.02127 0.17185 0.15975
 H2315 H 1.05309 0.15144 0.10069
 H2316 H 1.03455 0.12115 0.12666
 H2317 H 1.01461 0.13337 0.16481
 H2318 H 1.01418 0.17545 0.17759
 H2319 H 1.06095 0.24004 0.10326
 H2320 H 1.04365 0.25189 0.14187
 C2321 C 0.62169 0.18961 0.70532
 C2322 C 0.64115 0.20578 0.70895
 C2323 C 0.63725 0.22867 0.71981
 C2324 C 0.61450 0.23551 0.72761
 C2325 C 0.59513 0.21950 0.72503
 C2326 C 0.59857 0.19631 0.71373
 C2327 C 0.62445 0.16752 0.69215
 C2328 C 0.60519 0.15205 0.68793
 C2329 C 0.58275 0.15827 0.69663
 C2330 C 0.57930 0.18020 0.70921
 H2331 H 0.64131 0.16228 0.68442
 H2332 H 0.60768 0.13524 0.67771
 H2333 H 0.56789 0.14621 0.69321
 H2334 H 0.56136 0.18448 0.71477
 H2335 H 0.65193 0.24137 0.72216
 H2336 H 0.61197 0.25344 0.73573
 C2337 C 1.12032 0.18905 0.19904
 C2338 C 1.14011 0.20397 0.20517
 C2339 C 1.13701 0.22424 0.22051
 C2340 C 1.11463 0.22974 0.23015
 C2341 C 1.09485 0.21500 0.22486
 C2342 C 1.09748 0.19461 0.20895
 C2343 C 1.12263 0.16913 0.18264
 C2344 C 1.10290 0.15497 0.17628
 C2345 C 1.08058 0.16041 0.18594
 C2346 C 1.07780 0.18003 0.20203
 H2347 H 1.13955 0.16455 0.17428
 H2348 H 1.10492 0.13979 0.16369
 H2349 H 1.06535 0.14934 0.18092
 H2350 H 1.06014 0.18357 0.20896
 H2351 H 1.15208 0.23573 0.22523
 H2352 H 1.11264 0.24579 0.24166
 C2353 C 0.10318 0.72901 0.53091
 C2354 C 0.10018 0.70351 0.53553
 C2355 C 0.11862 0.68732 0.52932
 C2356 C 0.14021 0.69597 0.52030
 C2357 C 0.14421 0.72107 0.51679
 C2358 C 0.12538 0.73784 0.52148
 C2359 C 0.08446 0.74588 0.53490
 C2360 C 0.08760 0.77082 0.53019
 C2361 C 0.10922 0.77939 0.52103
 C2362 C 0.12789 0.76311 0.51650
 H2363 H 0.06707 0.73998 0.54112
 H2364 H 0.07307 0.78353 0.53333
 H2365 H 0.11142 0.79873 0.51710
 H2366 H 0.14403 0.77043 0.50858
 H2367 H 0.11688 0.66782 0.53279
 H2368 H 0.15447 0.68296 0.51730
 C2369 C 0.11362 0.22275 1.01788
 C2370 C 0.10972 0.21309 1.04170
 C2371 C 0.12867 0.21273 1.05852
 C2372 C 0.15137 0.22062 1.05185
 C2373 C 0.15598 0.22887 1.02805
 C2374 C 0.13704 0.23027 1.01085
 C2375 C 0.09465 0.22599 1.00121
 C2376 C 0.09877 0.23519 0.97773
 C2377 C 0.12171 0.24190 0.97062
 C2378 C 0.14067 0.23975 0.98704
 H2379 H 0.07644 0.22218 1.00640
 H2380 H 0.08403 0.23746 0.96510
 H2381 H 0.12474 0.24924 0.95244
 H2382 H 0.15803 0.24598 0.98105
 H2383 H 0.12605 0.20564 1.07689
 H2384 H 0.16566 0.21950 1.06518
 C2385 C 0.61251 0.51276 0.21883
 C2386 C 0.60766 0.53824 0.21709
 C2387 C 0.62412 0.55503 0.22654
 C2388 C 0.64616 0.54719 0.23520
 C2389 C 0.65255 0.52231 0.23456
 C2390 C 0.63508 0.50471 0.22786
 C2391 C 0.59522 0.49507 0.21236
 C2392 C 0.60009 0.47008 0.21458
 C2393 C 0.62196 0.46224 0.22377
 C2394 C 0.63919 0.47932 0.23062
 H2395 H 0.57759 0.50032 0.20622
 H2396 H 0.58665 0.45675 0.20962
 H2397 H 0.62544 0.44282 0.22603
 H2398 H 0.65530 0.47248 0.23892
 H2399 H 0.62062 0.57457 0.22565
 H2400 H 0.65892 0.56095 0.24093
 C2401 C 0.62202 1.06549 0.71922
 C2402 C 0.60643 1.04835 0.70790
 C2403 C 0.61304 1.02360 0.70704
 C2404 C 0.63454 1.01556 0.71691
 C2405 C 0.65015 1.03173 0.72880
 C2406 C 0.64333 1.05703 0.73105
 C2407 C 0.61754 1.09106 0.71807
 C2408 C 0.63215 1.10772 0.73012
 C2409 C 0.65169 1.09947 0.74328
 C2410 C 0.65736 1.07460 0.74369
 H2411 H 0.60322 1.09875 0.70734
 H2412 H 0.62830 1.12716 0.72925
 H2413 H 0.66292 1.11251 0.75278
 H2414 H 0.67295 1.07010 0.75407
 H2415 H 0.60152 1.01027 0.69830
 H2416 H 0.63912 0.99633 0.71502
 C2417 C 0.87073 0.43707 0.30545
 C2418 C 0.89179 0.45007 0.29957
 C2419 C 0.89040 0.47139 0.28527
 C2420 C 0.86850 0.47967 0.27626
 C2421 C 0.84745 0.46684 0.28132
 C2422 C 0.84834 0.44559 0.29643
 C2423 C 0.87139 0.41629 0.32095
 C2424 C 0.85040 0.40462 0.32803
 C2425 C 0.82849 0.41332 0.31981
 C2426 C 0.82734 0.43338 0.30392
 H2427 H 0.88801 0.40924 0.32820
 H2428 H 0.85111 0.38899 0.34029
 H2429 H 0.81233 0.40462 0.32611
 H2430 H 0.80989 0.43970 0.29828
 H2431 H 0.90642 0.48160 0.28091
 H2432 H 0.86798 0.49617 0.26516
 C2433 C 0.88816 0.98103 0.77843
 C2434 C 0.89121 0.95699 0.78800
 C2435 C 0.87187 0.94072 0.78812
 C2436 C 0.84953 0.94810 0.77993
 C2437 C 0.84582 0.97191 0.77120
 C2438 C 0.86519 0.98857 0.77004
 C2439 C 0.90748 0.99753 0.77629
 C2440 C 0.90412 1.02101 0.76668
 C2441 C 0.88166 1.02841 0.75868
 C2442 C 0.86236 1.01236 0.76014
 H2443 H 0.92539 0.99241 0.78153
 H2444 H 0.91909 1.03345 0.76518
 H2445 H 0.87923 1.04658 0.75101
 H2446 H 0.84539 1.01863 0.75305
 H2447 H 0.87392 0.92228 0.79529
 H2448 H 0.83478 0.93540 0.78132
 C2449 C 0.36011 0.29568 0.76530
 C2450 C 0.35584 0.29419 0.79092
 C2451 C 0.37313 0.28365 0.80611
 C2452 C 0.39479 0.27572 0.79673
 C2453 C 0.40014 0.27789 0.77170
 C2454 C 0.38239 0.28731 0.75555
 C2455 C 0.34240 0.30432 0.74899
 C2456 C 0.34653 0.30509 0.72383
 C2457 C 0.36806 0.29675 0.71433
 C2458 C 0.38571 0.28769 0.72991
 H2459 H 0.32499 0.30998 0.75530
 H2460 H 0.33275 0.31174 0.71158
 H2461 H 0.37095 0.29691 0.69472
 H2462 H 0.40153 0.28037 0.72146
 H2463 H 0.37018 0.28222 0.82569
 H2464 H 0.40788 0.26848 0.80948
 C2465 C 0.87228 0.31300 0.27861
 C2466 C 0.85612 0.29475 0.28712
 C2467 C 0.86306 0.27011 0.28684
 C2468 C 0.88548 0.26320 0.27852
 C2469 C 0.90171 0.28053 0.26942
 C2470 C 0.89472 0.30578 0.26843
 C2471 C 0.86724 0.33838 0.28107
 C2472 C 0.88249 0.35606 0.27151
 C2473 C 0.90329 0.34902 0.25976
 C2474 C 0.90961 0.32433 0.25859
 H2475 H 0.85196 0.34514 0.29095
 H2476 H 0.87821 0.37535 0.27337
 H2477 H 0.91508 0.36285 0.25225
 H2478 H 0.92640 0.32058 0.25005
 H2479 H 0.85109 0.25600 0.29352
 H2480 H 0.89023 0.24393 0.27928
 C2481 C 0.38501 0.75960 0.46363
 C2482 C 0.38746 0.78479 0.45752
 C2483 C 0.36800 0.80059 0.46054
 C2484 C 0.34627 0.79198 0.46895
 C2485 C 0.34303 0.76713 0.47442
 C2486 C 0.36254 0.75066 0.47217
 C2487 C 0.40440 0.74318 0.46183
 C2488 C 0.40170 0.71851 0.46808
 C2489 C 0.37984 0.70983 0.47652
 C2490 C 0.36044 0.72572 0.47874
 H2491 H 0.42184 0.74926 0.45595
 H2492 H 0.41673 0.70611 0.46663
 H2493 H 0.37797 0.69073 0.48162
 H2494 H 0.34402 0.71837 0.48604
 H2495 H 0.36924 0.81972 0.45540
 H2496 H 0.33151 0.80479 0.47028
 C2497 C 0.39384 0.28906 0.98385
 C2498 C 0.39562 0.29583 0.95877
 C2499 C 0.37596 0.29271 0.94329
 C2500 C 0.35453 0.28372 0.95225
 C2501 C 0.35204 0.27744 0.97697
 C2502 C 0.37177 0.27980 0.99303
 C2503 C 0.41363 0.29036 0.99984
 C2504 C 0.41158 0.28324 1.02431
 C2505 C 0.39003 0.27428 1.03323
 C2506 C 0.37034 0.27234 1.01775
 H2507 H 0.43094 0.29644 0.99364
 H2508 H 0.42690 0.28437 1.03634
 H2509 H 0.38866 0.26846 1.05216
 H2510 H 0.35422 0.26447 1.02519
 H2511 H 0.37709 0.29764 0.92407
 H2512 H 0.33951 0.28226 0.93984
 C2513 C 0.81790 0.46276 0.38003
 C2514 C 0.80026 0.45469 0.39688
 C2515 C 0.77624 0.45518 0.39001
 C2516 C 0.76934 0.46390 0.36712
 C2517 C 0.78611 0.47313 0.35042
 C2518 C 0.81078 0.47318 0.35712
 C2519 C 0.84254 0.45972 0.38496
 C2520 C 0.85973 0.46869 0.36893
 C2521 C 0.85287 0.48048 0.34755
 C2522 C 0.82881 0.48240 0.34148
 H2523 H 0.84897 0.44988 0.40081
 H2524 H 0.87847 0.46637 0.37310
 H2525 H 0.86632 0.48758 0.33519
 H2526 H 0.82500 0.49098 0.32430
 H2527 H 0.76260 0.44871 0.40252
 H2528 H 0.75054 0.46364 0.36251
 C2529 C 0.77625 0.96714 0.89142
 C2530 C 0.79825 0.95424 0.89229
 C2531 C 0.81064 0.94962 0.87049
 C2532 C 0.80140 0.95705 0.84798
 C2533 C 0.77936 0.96905 0.84657
 C2534 C 0.76651 0.97420 0.86831
 C2535 C 0.76424 0.97423 0.91300
 C2536 C 0.74257 0.98675 0.91185
 C2537 C 0.73273 0.99301 0.88927
 C2538 C 0.74466 0.98708 0.86766
 H2539 H 0.77176 0.97081 0.93090
 H2540 H 0.73352 0.99193 0.92858
 H2541 H 0.71600 1.00292 0.88849
 H2542 H 0.73679 0.99298 0.85055
 H2543 H 0.82762 0.94009 0.87089
 H2544 H 0.81148 0.95328 0.83146
 C2545 C 0.31294 0.78155 0.37061
 C2546 C 0.29591 0.78908 0.35283
 C2547 C 0.27162 0.78834 0.35856
 C2548 C 0.26385 0.77969 0.38119
 C2549 C 0.28007 0.77137 0.39896
 C2550 C 0.30500 0.77235 0.39374
 C2551 C 0.33778 0.78392 0.36635
 C2552 C 0.35433 0.77604 0.38365
 C2553 C 0.34666 0.76666 0.40589
 C2554 C 0.32240 0.76541 0.41117
 H2555 H 0.34488 0.79224 0.34996
 H2556 H 0.37323 0.77747 0.37991
 H2557 H 0.35962 0.76067 0.41927
 H2558 H 0.31777 0.75924 0.42915
 H2559 H 0.25847 0.79437 0.34527
 H2560 H 0.24485 0.77936 0.38481
 C2561 C 0.26911 0.28508 0.85939
 C2562 C 0.29391 0.28609 0.85423
 C2563 C 0.31008 0.27650 0.87132
 C2564 C 0.30241 0.26854 0.89424
 C2565 C 0.27825 0.26969 0.90083
 C2566 C 0.26120 0.27643 0.88273
 C2567 C 0.25197 0.29178 0.84162
 C2568 C 0.22765 0.29003 0.84666
 C2569 C 0.21994 0.28106 0.86918
 C2570 C 0.23647 0.27406 0.88697
 H2571 H 0.25711 0.29774 0.82347
 H2572 H 0.21473 0.29513 0.83281
 H2573 H 0.20103 0.27914 0.87274
 H2574 H 0.22966 0.26593 0.90360
 H2575 H 0.32908 0.27678 0.86764
 H2576 H 0.31574 0.26284 0.90744
 C2577 C 0.45623 0.26629 0.88897
 C2578 C 0.45461 0.29199 0.89287
 C2579 C 0.46102 0.30816 0.87409
 C2580 C 0.46810 0.29943 0.85139
 C2581 C 0.46885 0.27421 0.84651
 C2582 C 0.46344 0.25732 0.86557
 C2583 C 0.45190 0.24931 0.90808
 C2584 C 0.45413 0.22416 0.90413
 C2585 C 0.46126 0.21544 0.88136
 C2586 C 0.46616 0.23180 0.86236
 H2587 H 0.44737 0.25514 0.92640
 H2588 H 0.45076 0.21140 0.91895
 H2589 H 0.46343 0.19591 0.87853
 H2590 H 0.47273 0.22424 0.84551
 H2591 H 0.46011 0.32783 0.87684
 H2592 H 0.47277 0.31262 0.83732
 C2593 C 0.95910 0.26263 0.39052
 C2594 C 0.95215 0.28735 0.39436
 C2595 C 0.95504 0.30446 0.37539
 C2596 C 0.96362 0.29731 0.35253
 C2597 C 0.96952 0.27279 0.34790
 C2598 C 0.96776 0.25526 0.36708
 C2599 C 0.95857 0.24528 0.40973
 C2600 C 0.96567 0.22108 0.40583
 C2601 C 0.97396 0.21384 0.38293
 C2602 C 0.97528 0.23076 0.36378
 H2603 H 0.95335 0.25039 0.42802
 H2604 H 0.96512 0.20798 0.42076
 H2605 H 0.97981 0.19512 0.38011
 H2606 H 0.98278 0.22460 0.34665
 H2607 H 0.95014 0.32349 0.37814
 H2608 H 0.96508 0.31094 0.33812
 C2609 C 0.44308 0.37284 0.80241
 C2610 C 0.45515 0.39407 0.79393
 C2611 C 0.47454 0.39154 0.77795
 C2612 C 0.48183 0.36842 0.76992
 C2613 C 0.46995 0.34723 0.77774
 C2614 C 0.45046 0.34925 0.79415
 C2615 C 0.42417 0.37452 0.81940
 C2616 C 0.41276 0.35349 0.82799
 C2617 C 0.41989 0.33046 0.81984
 C2618 C 0.43840 0.32825 0.80291
 H2619 H 0.41832 0.39200 0.82646
 H2620 H 0.39842 0.35506 0.84118
 H2621 H 0.41122 0.31424 0.82695
 H2622 H 0.44349 0.30999 0.79720
 H2623 H 0.48405 0.40763 0.77158
 H2624 H 0.49684 0.36703 0.75749
 C2625 C 0.97878 0.39010 0.28330
 C2626 C 0.95720 0.39069 0.29682
 C2627 C 0.94478 0.36887 0.30119
 C2628 C 0.95334 0.34662 0.29239
 C2629 C 0.97423 0.34557 0.27844
 C2630 C 0.98736 0.36729 0.27400
 C2631 C 0.99178 0.41170 0.27840
 C2632 C 1.01293 0.41079 0.26495
 C2633 C 1.02136 0.38849 0.25598
 C2634 C 1.00870 0.36689 0.26033
 H2635 H 0.98567 0.42940 0.28476
 H2636 H 1.02278 0.42749 0.26138
 H2637 H 1.03774 0.38795 0.24549
 H2638 H 1.01570 0.34996 0.25289
 H2639 H 0.92837 0.36905 0.31169
 H2640 H 0.94353 0.32999 0.29650
 C2641 C 0.28830 0.88500 0.47633
 C2642 C 0.29568 0.88723 0.45146
 C2643 C 0.29302 0.86712 0.43576
 C2644 C 0.28410 0.84486 0.44433
 C2645 C 0.27751 0.84185 0.46893
 C2646 C 0.27925 0.86209 0.48512
 C2647 C 0.28875 0.90526 0.49245
 C2648 C 0.28115 0.90290 0.51666
 C2649 C 0.27248 0.88058 0.52521
 C2650 C 0.27127 0.86042 0.50961
 H2651 H 0.29437 0.92326 0.48651
 H2652 H 0.28165 0.91860 0.52875
 H2653 H 0.26630 0.87898 0.54393
 H2654 H 0.26355 0.84376 0.51684
 H2655 H 0.29836 0.86851 0.41673
 H2656 H 0.28271 0.82963 0.43167
 C2657 C 0.30850 0.37523 0.94304
 C2658 C 0.30603 0.39562 0.95888
 C2659 C 0.29429 0.39284 0.98133
 C2660 C 0.28439 0.37036 0.98800
 C2661 C 0.28576 0.35011 0.97231
 C2662 C 0.29815 0.35230 0.94970
 C2663 C 0.32183 0.37693 0.92113
 C2664 C 0.32474 0.35657 0.90603
 C2665 C 0.31443 0.33426 0.91235
 C2666 C 0.30129 0.33202 0.93394
 H2667 H 0.33041 0.39384 0.91563
 H2668 H 0.33505 0.35812 0.88933
 H2669 H 0.31683 0.31857 0.90056
 H2670 H 0.29394 0.31424 0.93819
 H2671 H 0.29254 0.40829 0.99366
 H2672 H 0.27550 0.36873 1.00556
 C2673 C 0.78368 0.35438 0.26509
 C2674 C 0.78642 0.34878 0.29036
 C2675 C 0.77985 0.36629 0.30783
 C2676 C 0.77305 0.38978 0.30078
 C2677 C 0.77278 0.39671 0.27605
 C2678 C 0.77662 0.37851 0.25785
 C2679 C 0.78709 0.33633 0.24689
 C2680 C 0.78386 0.34191 0.22218
 C2681 C 0.77665 0.36530 0.21513
 C2682 C 0.77276 0.38337 0.23273
 H2683 H 0.79153 0.31758 0.25154
 H2684 H 0.78647 0.32785 0.20845
 H2685 H 0.77360 0.36936 0.19595
 H2686 H 0.76591 0.40077 0.22641
 H2687 H 0.78146 0.36235 0.32723
 H2688 H 0.76933 0.40310 0.31499
   
