data_POSCAR
  _audit_creation_date              2014-09-24
  _audit_creation_method            'ToBaCCo'
  _symmetry_space_group_name_H-M    'P1'
  _symmetry_Int_Tables_number       1
  _symmetry_cell_setting            triclinic
  loop_
  _symmetry_equiv_pos_as_xyz
 x,y,z
_cell_length_a 83.0674
_cell_length_b 86.6919
_cell_length_c 81.5734
_cell_angle_alpha 89.178900
_cell_angle_beta 90.080200
_cell_angle_gamma 88.839500
loop_
  _atom_site_label
  _atom_site_type_symbol
  _atom_site_fract_x
  _atom_site_fract_y
  _atom_site_fract_z
C1 C 0.32535 0.43245 0.92871
 C2 C 0.31836 0.43789 0.91395
 C3 C 0.30553 0.43000 0.90674
 C4 C 0.29991 0.41653 0.91432
 C5 C 0.30661 0.41107 0.92911
 C6 C 0.31936 0.41906 0.93636
 C7 C 0.33833 0.44007 0.93586
 C8 C 0.34543 0.43458 0.95061
 C9 C 0.33913 0.42123 0.95816
 C10 C 0.32625 0.41349 0.95113
 C11 C 0.32028 0.40011 0.95861
 C12 C 0.30750 0.39217 0.95157
 C13 C 0.30082 0.39767 0.93668
 H14 H 0.32316 0.44803 0.90798
 H15 H 0.29014 0.41035 0.90873
 H16 H 0.34296 0.45030 0.92985
 H17 H 0.34420 0.41644 0.96935
 H18 H 0.32560 0.39582 0.96998
 H19 H 0.29135 0.39147 0.93070
 C20 C 0.44872 0.83165 0.42552
 C21 C 0.45592 0.84427 0.43287
 C22 C 0.44887 0.85147 0.44651
 C23 C 0.43454 0.84544 0.45305
 C24 C 0.42726 0.83271 0.44584
 C25 C 0.43431 0.82584 0.43196
 C26 C 0.45556 0.82503 0.41157
 C27 C 0.44809 0.81281 0.40368
 C28 C 0.43380 0.80682 0.41029
 C29 C 0.42686 0.81328 0.42441
 C30 C 0.41246 0.80758 0.43094
 C31 C 0.40543 0.81433 0.44491
 C32 C 0.41289 0.82692 0.45217
 H33 H 0.46695 0.84871 0.42767
 H34 H 0.42878 0.85049 0.46361
 H35 H 0.46658 0.82965 0.40657
 H36 H 0.42809 0.79714 0.40462
 H37 H 0.40664 0.79820 0.42485
 H38 H 0.40744 0.83225 0.46281
 C39 C 0.94976 0.92269 0.81866
 C40 C 0.95861 0.91028 0.81220
 C41 C 0.95358 0.90292 0.79789
 C42 C 0.93961 0.90860 0.78974
 C43 C 0.93070 0.92111 0.79605
 C44 C 0.93574 0.92814 0.81061
 C45 C 0.95462 0.92943 0.83331
 C46 C 0.94552 0.94157 0.84034
 C47 C 0.93158 0.94705 0.83204
 C48 C 0.92663 0.94044 0.81726
 C49 C 0.91255 0.94571 0.80920
 C50 C 0.90749 0.93882 0.79456
 C51 C 0.91663 0.92651 0.78816
 H52 H 0.96932 0.90609 0.81863
 H53 H 0.93536 0.90338 0.77865
 H54 H 0.96542 0.92484 0.83905
 H55 H 0.92442 0.95639 0.83719
 H56 H 0.90543 0.95488 0.81463
 H57 H 0.91270 0.92105 0.77700
 C58 C 0.43203 -0.08684 0.33451
 C59 C 0.43520 -0.10113 0.32716
 C60 C 0.42567 -0.10597 0.31399
 C61 C 0.41281 -0.09665 0.30843
 C62 C 0.40981 -0.08222 0.31534
 C63 C 0.41938 -0.07725 0.32843
 C64 C 0.44135 -0.08189 0.34771
 C65 C 0.43831 -0.06745 0.35481
 C66 C 0.42564 -0.05797 0.34867
 C67 C 0.41626 -0.06271 0.33544
 C68 C 0.40387 -0.05313 0.32903
 C69 C 0.39476 -0.05786 0.31557
 C70 C 0.39753 -0.07260 0.30910
 H71 H 0.44499 -0.10847 0.33168
 H72 H 0.40551 -0.10041 0.29826
 H73 H 0.45105 -0.08925 0.35244
 H74 H 0.42277 -0.04702 0.35428
 H75 H 0.40151 -0.04188 0.33426
 H76 H 0.39007 -0.07670 0.29923
 C77 C 0.82431 0.31507 0.33004
 C78 C 0.81355 0.30941 0.34178
 C79 C 0.79929 0.31768 0.34549
 C80 C 0.79608 0.33190 0.33755
 C81 C 0.80673 0.33771 0.32574
 C82 C 0.82088 0.32923 0.32192
 C83 C 0.83851 0.30681 0.32636
 C84 C 0.84920 0.31236 0.31448
 C85 C 0.84580 0.32659 0.30654
 C86 C 0.83171 0.33503 0.31018
 C87 C 0.82833 0.34922 0.30231
 C88 C 0.81423 0.35772 0.30590
 C89 C 0.80353 0.35191 0.31779
 H90 H 0.81657 0.29874 0.34822
 H91 H 0.78523 0.33841 0.34055
 H92 H 0.84117 0.29591 0.33259
 H93 H 0.85422 0.33128 0.29775
 H94 H 0.83669 0.35367 0.29328
 H95 H 0.79286 0.35845 0.32119
 C96 C -0.19095 0.83014 0.83414
 C97 C -0.19882 0.84374 0.82860
 C98 C -0.19354 0.85173 0.81449
 C99 C -0.17997 0.84577 0.80601
 C100 C -0.17194 0.83223 0.81147
 C101 C -0.17744 0.82437 0.82557
 C102 C -0.19633 0.82228 0.84823
 C103 C -0.18838 0.80869 0.85387
 C104 C -0.17477 0.80320 0.84537
 C105 C -0.16929 0.81086 0.83121
 C106 C -0.15573 0.80528 0.82269
 C107 C -0.15022 0.81298 0.80848
 C108 C -0.15838 0.82648 0.80308
 H109 H -0.20917 0.84810 0.83532
 H110 H -0.17528 0.85154 0.79528
 H111 H -0.20648 0.82701 0.85493
 H112 H -0.16850 0.79284 0.84974
 H113 H -0.14940 0.79514 0.82741
 H114 H -0.15413 0.83255 0.79225
 C115 C 0.92199 0.33435 0.44230
 C116 C 0.92954 0.34728 0.44861
 C117 C 0.94357 0.35314 0.44136
 C118 C 0.95003 0.34564 0.42747
 C119 C 0.94253 0.33264 0.42096
 C120 C 0.92846 0.32699 0.42844
 C121 C 0.90796 0.32873 0.44963
 C122 C 0.90026 0.31579 0.44338
 C123 C 0.90674 0.30853 0.42945
 C124 C 0.92079 0.31404 0.42201
 C125 C 0.92720 0.30682 0.40815
 C126 C 0.94114 0.31231 0.40049
 C127 C 0.94882 0.32523 0.40705
 H128 H 0.92438 0.35285 0.45927
 H129 H 0.96074 0.34978 0.42151
 H130 H 0.90300 0.33446 0.46028
 H131 H 0.90082 0.29881 0.42411
 H132 H 0.92123 0.29688 0.40321
 H133 H 0.95971 0.32953 0.40155
 C134 C 0.42980 0.45145 0.83000
 C135 C 0.43282 0.45599 0.84611
 C136 C 0.44470 0.44842 0.85566
 C137 C 0.45352 0.43599 0.84891
 C138 C 0.45064 0.43136 0.83277
 C139 C 0.43877 0.43913 0.82325
 C140 C 0.41770 0.45888 0.82069
 C141 C 0.41446 0.45426 0.80456
 C142 C 0.42356 0.44204 0.79787
 C143 C 0.43566 0.43440 0.80711
 C144 C 0.44445 0.42192 0.80058
 C145 C 0.45619 0.41393 0.81011
 C146 C 0.45927 0.41888 0.82612
 H147 H 0.42587 0.46546 0.85128
 H148 H 0.46238 0.42962 0.85614
 H149 H 0.41060 0.46791 0.82636
 H150 H 0.42102 0.43830 0.78552
 H151 H 0.44203 0.41856 0.78812
 H152 H 0.46829 0.41283 0.83354
 C153 C 0.81828 0.92696 0.94731
 C154 C 0.81129 0.91518 0.95675
 C155 C 0.79630 0.90907 0.95242
 C156 C 0.78825 0.91520 0.93843
 C157 C 0.79510 0.92693 0.92890
 C158 C 0.81015 0.93282 0.93333
 C159 C 0.83337 0.93279 0.95153
 C160 C 0.84057 0.94441 0.94182
 C161 C 0.83226 0.95010 0.92789
 C162 C 0.81719 0.94441 0.92360
 C163 C 0.80921 0.94999 0.90951
 C164 C 0.79414 0.94420 0.90504
 C165 C 0.78722 0.93265 0.91480
 H166 H 0.81769 0.91063 0.96743
 H167 H 0.77680 0.91089 0.93452
 H168 H 0.83930 0.92802 0.96230
 H169 H 0.83757 0.95898 0.92025
 H170 H 0.81505 0.95849 0.90187
 H171 H 0.77569 0.92803 0.91130
 C172 C 0.30421 0.80590 0.28587
 C173 C 0.29815 0.82066 0.28149
 C174 C 0.28313 0.82605 0.28754
 C175 C 0.27423 0.81624 0.29781
 C176 C 0.28016 0.80156 0.30232
 C177 C 0.29517 0.79633 0.29632
 C178 C 0.31944 0.80077 0.28041
 C179 C 0.32570 0.78616 0.28528
 C180 C 0.31642 0.77668 0.29550
 C181 C 0.30131 0.78169 0.30116
 C182 C 0.29261 0.77254 0.31219
 C183 C 0.27801 0.77807 0.31884
 C184 C 0.27162 0.79234 0.31339
 H185 H 0.30544 0.82779 0.27364
 H186 H 0.26273 0.82017 0.30267
 H187 H 0.32643 0.80842 0.27278
 H188 H 0.32119 0.76549 0.29944
 H189 H 0.29747 0.76133 0.31583
 H190 H 0.26034 0.79662 0.31844
 C191 C 0.83616 0.41913 0.44184
 C192 C 0.82937 0.40617 0.44938
 C193 C 0.81512 0.39992 0.44335
 C194 C 0.80768 0.40681 0.42949
 C195 C 0.81432 0.41984 0.42188
 C196 C 0.82862 0.42606 0.42806
 C197 C 0.85049 0.42510 0.44783
 C198 C 0.85767 0.43793 0.44029
 C199 C 0.84996 0.44493 0.42649
 C200 C 0.83547 0.43906 0.42035
 C201 C 0.82779 0.44580 0.40650
 C202 C 0.81344 0.43961 0.40031
 C203 C 0.80693 0.42661 0.40806
 H204 H 0.83526 0.40085 0.45998
 H205 H 0.79693 0.40203 0.42430
 H206 H 0.85619 0.41956 0.45842
 H207 H 0.85506 0.45482 0.42036
 H208 H 0.83321 0.45558 0.40043
 H209 H 0.79597 0.42174 0.40330
 C210 C 0.94023 0.81914 -0.06597
 C211 C 0.94545 0.83323 -0.05958
 C212 C 0.93698 0.84032 -0.04662
 C213 C 0.92330 0.83325 -0.04017
 C214 C 0.91809 0.81919 -0.04621
 C215 C 0.92658 0.81207 -0.05909
 C216 C 0.94816 0.81214 -0.07932
 C217 C 0.94261 0.79810 -0.08573
 C218 C 0.92930 0.79110 -0.07831
 C219 C 0.92119 0.79800 -0.06526
 C220 C 0.90746 0.79119 -0.05860
 C221 C 0.89883 0.79829 -0.04591
 C222 C 0.90429 0.81234 -0.03973
 H223 H 0.95577 0.83880 -0.06496
 H224 H 0.91668 0.83874 -0.03031
 H225 H 0.95847 0.81778 -0.08457
 H226 H 0.92488 0.78031 -0.08301
 H227 H 0.90328 0.78043 -0.06354
 H228 H 0.89776 0.81827 -0.03019
 C229 C 0.32506 0.32946 0.80826
 C230 C 0.31889 0.34332 0.80129
 C231 C 0.30418 0.34977 0.80682
 C232 C 0.29565 0.34208 0.81922
 C233 C 0.30166 0.32834 0.82632
 C234 C 0.31641 0.32198 0.82086
 C235 C 0.33980 0.32303 0.80295
 C236 C 0.34600 0.30922 0.81009
 C237 C 0.33729 0.30201 0.82272
 C238 C 0.32256 0.30823 0.82814
 C239 C 0.31398 0.30100 0.84086
 C240 C 0.29922 0.30733 0.84638
 C241 C 0.29320 0.32099 0.83896
 H242 H 0.32552 0.34888 0.79154
 H243 H 0.28431 0.34695 0.82352
 H244 H 0.34648 0.32901 0.79352
 H245 H 0.34204 0.29146 0.82837
 H246 H 0.31906 0.29064 0.84650
 H247 H 0.28190 0.32601 0.84317
 C248 C 0.15870 0.57696 0.59404
 C249 C 0.14439 0.57063 0.58849
 C250 C 0.13833 0.57452 0.57294
 C251 C 0.14607 0.58570 0.56329
 C252 C 0.16022 0.59248 0.56893
 C253 C 0.16676 0.58785 0.58422
 C254 C 0.16541 0.57201 0.60894
 C255 C 0.18040 0.57730 0.61398
 C256 C 0.18834 0.58843 0.60441
 C257 C 0.18151 0.59384 0.58957
 C258 C 0.18933 0.60487 0.57983
 C259 C 0.18256 0.60999 0.56478
 C260 C 0.16813 0.60354 0.55937
 H261 H 0.13839 0.56200 0.59591
 H262 H 0.14118 0.58902 0.55140
 H263 H 0.15929 0.56343 0.61632
 H264 H 0.19975 0.59288 0.60845
 H265 H 0.20072 0.60919 0.58400
 H266 H 0.16301 0.60719 0.54767
 C267 C 0.56698 0.68319 0.06908
 C268 C 0.58053 0.68960 0.06161
 C269 C 0.58796 0.68237 0.04816
 C270 C 0.58184 0.66846 0.04247
 C271 C 0.56834 0.66188 0.04988
 C272 C 0.56082 0.66928 0.06320
 C273 C 0.55968 0.69038 0.08252
 C274 C 0.54610 0.68398 0.09012
 C275 C 0.54009 0.67004 0.08421
 C276 C 0.54736 0.66262 0.07083
 C277 C 0.54154 0.64855 0.06511
 C278 C 0.54906 0.64106 0.05182
 C279 C 0.56240 0.64790 0.04430
 H280 H 0.58542 0.70001 0.06660
 H281 H 0.58764 0.66274 0.03226
 H282 H 0.56491 0.70079 0.08709
 H283 H 0.52975 0.66493 0.09011
 H284 H 0.53138 0.64349 0.07127
 H285 H 0.56830 0.64221 0.03412
 C286 C 0.70115 0.17756 0.68154
 C287 C 0.70986 0.18330 0.66811
 C288 C 0.70593 0.19774 0.66101
 C289 C 0.69312 0.20652 0.66761
 C290 C 0.68437 0.20095 0.68107
 C291 C 0.68835 0.18640 0.68805
 C292 C 0.70488 0.16295 0.68824
 C293 C 0.69589 0.15683 0.70144
 C294 C 0.68314 0.16586 0.70787
 C295 C 0.67931 0.18056 0.70130
 C296 C 0.66636 0.18939 0.70751
 C297 C 0.66236 0.20397 0.70057
 C298 C 0.67144 0.20958 0.68737
 H299 H 0.71961 0.17640 0.66299
 H300 H 0.68949 0.21746 0.66212
 H301 H 0.71465 0.15652 0.68271
 H302 H 0.67604 0.16138 0.71796
 H303 H 0.65925 0.18464 0.71739
 H304 H 0.66833 0.22072 0.68188
 C305 C 1.06717 0.05276 0.18215
 C306 C 1.08083 0.04736 0.19067
 C307 C 1.08671 0.05533 0.20424
 C308 C 1.07887 0.06908 0.20898
 C309 C 1.06512 0.07467 0.20051
 C310 C 1.05923 0.06643 0.18704
 C311 C 1.06157 0.04475 0.16860
 C312 C 1.04806 0.05008 0.15964
 C313 C 1.04004 0.06377 0.16466
 C314 C 1.04560 0.07198 0.17827
 C315 C 1.03790 0.08575 0.18315
 C316 C 1.04361 0.09408 0.19659
 C317 C 1.05733 0.08844 0.20515
 H318 H 1.08709 0.03715 0.18631
 H319 H 1.08350 0.07543 0.21927
 H320 H 1.06790 0.03427 0.16495
 H321 H 1.02964 0.06830 0.15807
 H322 H 1.02746 0.09006 0.17639
 H323 H 1.06228 0.09479 0.21522
 C324 C 0.04646 0.16377 1.06938
 C325 C 0.03819 0.15063 1.06455
 C326 C 0.04316 0.14210 1.05081
 C327 C 0.05683 0.14699 1.04195
 C328 C 0.06528 0.16006 1.04671
 C329 C 0.06004 0.16850 1.06043
 C330 C 0.04145 0.17215 1.08316
 C331 C 0.04988 0.18526 1.08810
 C332 C 0.06343 0.18978 1.07911
 C333 C 0.06855 0.18153 1.06537
 C334 C 0.08223 0.18605 1.05667
 C335 C 0.08753 0.17780 1.04290
 C336 C 0.07905 0.16474 1.03808
 H337 H 0.02780 0.14703 1.07156
 H338 H 0.06131 0.14065 1.03156
 H339 H 0.03115 0.16821 1.09001
 H340 H 0.07007 0.19978 1.08287
 H341 H 0.08894 0.19576 1.06101
 H342 H 0.08321 0.15823 1.02760
 C343 C 0.18257 0.67928 0.69485
 C344 C 0.16738 0.68531 0.69932
 C345 C 0.16050 0.69803 0.69070
 C346 C 0.16885 0.70451 0.67745
 C347 C 0.18404 0.69875 0.67294
 C348 C 0.19098 0.68614 0.68168
 C349 C 0.18943 0.66639 0.70313
 C350 C 0.20457 0.66035 0.69838
 C351 C 0.21294 0.66755 0.68555
 C352 C 0.20622 0.68027 0.67709
 C353 C 0.21439 0.68700 0.66387
 C354 C 0.20753 0.69949 0.65502
 C355 C 0.19227 0.70530 0.65966
 H356 H 0.16087 0.67986 0.70924
 H357 H 0.16352 0.71420 0.67068
 H358 H 0.18298 0.66123 0.71327
 H359 H 0.22462 0.66298 0.68187
 H360 H 0.22607 0.68236 0.66028
 H361 H 0.18648 0.71464 0.65283
 C362 C 1.19832 0.16722 0.18601
 C363 C 1.20302 0.15256 0.19211
 C364 C 1.19567 0.14625 0.20627
 C365 C 1.18378 0.15507 0.21431
 C366 C 1.17899 0.16967 0.20834
 C367 C 1.18621 0.17578 0.19412
 C368 C 1.20533 0.17332 0.17174
 C369 C 1.20031 0.18778 0.16532
 C370 C 1.18838 0.19636 0.17367
 C371 C 1.18121 0.19039 0.18793
 C372 C 1.16888 0.19866 0.19593
 C373 C 1.16136 0.19237 0.20990
 C374 C 1.16676 0.17805 0.21620
 H375 H 1.21221 0.14623 0.18552
 H376 H 1.17798 0.15046 0.22519
 H377 H 1.21456 0.16669 0.16541
 H378 H 1.18462 0.20769 0.16924
 H379 H 1.16518 0.20990 0.19118
 H380 H 1.16102 0.17319 0.22698
 C381 C 0.67836 1.07610 0.53878
 C382 C 0.66566 1.06839 0.53135
 C383 C 0.66136 1.05357 0.53673
 C384 C 0.67031 1.04625 0.54941
 C385 C 0.68301 1.05386 0.55701
 C386 C 0.68702 1.06886 0.55171
 C387 C 0.68237 1.09105 0.53362
 C388 C 0.69490 1.09903 0.54122
 C389 C 0.70353 1.09158 0.55412
 C390 C 0.69964 1.07663 0.55937
 C391 C 0.70808 1.06943 0.57237
 C392 C 0.70404 1.05462 0.57795
 C393 C 0.69163 1.04677 0.56999
 H394 H 0.65889 1.07405 0.52153
 H395 H 0.66752 1.03466 0.55342
 H396 H 0.67557 1.09654 0.52370
 H397 H 0.71326 1.09717 0.56032
 H398 H 0.71768 1.07550 0.57838
 H399 H 0.68859 1.03518 0.57375
 C400 C 0.56425 0.59419 0.16605
 C401 C 0.55612 0.58502 0.15497
 C402 C 0.56037 0.56944 0.15315
 C403 C 0.57341 0.56308 0.16224
 C404 C 0.58189 0.57226 0.17329
 C405 C 0.57713 0.58784 0.17534
 C406 C 0.55939 0.60954 0.16821
 C407 C 0.56685 0.61857 0.17995
 C408 C 0.57989 0.61238 0.18909
 C409 C 0.58513 0.59707 0.18675
 C410 C 0.59817 0.59081 0.19569
 C411 C 0.60340 0.57549 0.19339
 C412 C 0.59501 0.56617 0.18235
 H413 H 0.54614 0.58999 0.14794
 H414 H 0.57712 0.55116 0.16064
 H415 H 0.54933 0.61434 0.16118
 H416 H 0.58594 0.61945 0.19794
 H417 H 0.60442 0.59796 0.20435
 H418 H 0.59845 0.55417 0.18086
 C419 C 0.68243 0.70880 0.19710
 C420 C 0.66766 0.71366 0.20383
 C421 C 0.66119 0.70591 0.21756
 C422 C 0.66970 0.69329 0.22449
 C423 C 0.68443 0.68830 0.21790
 C424 C 0.69084 0.69606 0.20415
 C425 C 0.68870 0.71620 0.18314
 C426 C 0.70320 0.71088 0.17603
 C427 C 0.71165 0.69842 0.18342
 C428 C 0.70551 0.69087 0.19728
 C429 C 0.71356 0.67792 0.20407
 C430 C 0.70695 0.66988 0.21748
 C431 C 0.69259 0.67537 0.22453
 H432 H 0.66107 0.72310 0.19795
 H433 H 0.66470 0.68717 0.23494
 H434 H 0.68221 0.72604 0.17793
 H435 H 0.72283 0.69429 0.17803
 H436 H 0.72487 0.67412 0.19877
 H437 H 0.68748 0.66924 0.23491
 C438 C 0.18304 0.04220 1.05330
 C439 C 0.16883 0.03608 1.04692
 C440 C 0.16103 0.04308 1.03321
 C441 C 0.16806 0.05601 1.02572
 C442 C 0.18213 0.06229 1.03203
 C443 C 0.18965 0.05539 1.04587
 C444 C 0.19042 0.03561 1.06732
 C445 C 0.20434 0.04215 1.07415
 C446 C 0.21091 0.05515 1.06636
 C447 C 0.20362 0.06188 1.05245
 C448 C 0.20976 0.07537 1.04539
 C449 C 0.20188 0.08265 1.03202
 C450 C 0.18838 0.07577 1.02511
 H451 H 0.16400 0.02601 1.05293
 H452 H 0.16228 0.06156 1.01519
 H453 H 0.18497 0.02561 1.07284
 H454 H 0.22156 0.06038 1.07142
 H455 H 0.22053 0.08024 1.05051
 H456 H 0.18233 0.08131 1.01473
 C457 C 0.57217 0.17165 0.55491
 C458 C 0.58600 0.17762 0.54754
 C459 C 0.59400 0.19011 0.55442
 C460 C 0.58799 0.19662 0.56899
 C461 C 0.57409 0.19083 0.57649
 C462 C 0.56616 0.17832 0.56940
 C463 C 0.56436 0.15901 0.54812
 C464 C 0.55067 0.15283 0.55578
 C465 C 0.54464 0.15974 0.57001
 C466 C 0.55232 0.17233 0.57691
 C467 C 0.54646 0.17884 0.59137
 C468 C 0.55423 0.19126 0.59861
 C469 C 0.56812 0.19721 0.59109
 H470 H 0.59063 0.17246 0.53642
 H471 H 0.59419 0.20595 0.57478
 H472 H 0.56897 0.15413 0.53689
 H473 H 0.53407 0.15509 0.57593
 H474 H 0.53583 0.17414 0.59711
 H475 H 0.57450 0.20659 0.59654
 C476 C 0.07611 0.55787 0.67335
 C477 C 0.08960 0.55078 0.68112
 C478 C 0.09546 0.55647 0.69609
 C479 C 0.08757 0.56916 0.70325
 C480 C 0.07430 0.57644 0.69564
 C481 C 0.06855 0.57082 0.68064
 C482 C 0.07007 0.55233 0.65840
 C483 C 0.05667 0.55969 0.65071
 C484 C 0.04950 0.57265 0.65806
 C485 C 0.05524 0.57821 0.67294
 C486 C 0.04788 0.59113 0.68018
 C487 C 0.05361 0.59689 0.69505
 C488 C 0.06677 0.58932 0.70281
 H489 H 0.09531 0.54082 0.67556
 H490 H 0.09196 0.57357 0.71477
 H491 H 0.07599 0.54255 0.65272
 H492 H 0.03927 0.57842 0.65217
 H493 H 0.03770 0.59682 0.67414
 H494 H 0.07119 0.59324 0.71447
 C495 C 0.66522 0.58520 0.05318
 C496 C 0.65169 0.57836 0.04613
 C497 C 0.64554 0.56462 0.05273
 C498 C 0.65289 0.55795 0.06673
 C499 C 0.66641 0.56459 0.07379
 C500 C 0.67269 0.57824 0.06702
 C501 C 0.67127 0.59896 0.04669
 C502 C 0.68463 0.60600 0.05383
 C503 C 0.69220 0.59882 0.06755
 C504 C 0.68628 0.58499 0.07422
 C505 C 0.69357 0.57785 0.08807
 C506 C 0.68723 0.56419 0.09484
 C507 C 0.67363 0.55778 0.08766
 H508 H 0.64593 0.58371 0.03549
 H509 H 0.64796 0.54778 0.07250
 H510 H 0.66544 0.60434 0.03610
 H511 H 0.70269 0.60382 0.07305
 H512 H 0.70385 0.58313 0.09373
 H513 H 0.66867 0.54732 0.09287
 C514 C 0.06685 0.65973 0.58089
 C515 C 0.05856 0.66346 0.59536
 C516 C 0.06248 0.67663 0.60427
 C517 C 0.07518 0.68591 0.59875
 C518 C 0.08363 0.68231 0.58436
 C519 C 0.07942 0.66920 0.57537
 C520 C 0.06281 0.64665 0.57191
 C521 C 0.07113 0.64292 0.55739
 C522 C 0.08378 0.65231 0.55216
 C523 C 0.08793 0.66545 0.56097
 C524 C 0.10053 0.67484 0.55562
 C525 C 0.10471 0.68806 0.56442
 C526 C 0.09628 0.69158 0.57887
 H527 H 0.04891 0.65619 0.59963
 H528 H 0.07876 0.69578 0.60576
 H529 H 0.05339 0.63930 0.57646
 H530 H 0.09034 0.64942 0.54110
 H531 H 0.10721 0.67157 0.54479
 H532 H 0.09953 0.70163 0.58580
 C533 C 0.54972 1.08590 0.67974
 C534 C 0.54252 1.07900 0.66624
 C535 C 0.54898 1.06535 0.65955
 C536 C 0.56292 1.05858 0.66683
 C537 C 0.57027 1.06541 0.68041
 C538 C 0.56364 1.07913 0.68688
 C539 C 0.54330 1.09965 0.68600
 C540 C 0.55056 1.10690 0.69930
 C541 C 0.56450 1.10008 0.70646
 C542 C 0.57107 1.08623 0.70031
 C543 C 0.58510 1.07949 0.70717
 C544 C 0.59183 1.06578 0.70086
 C545 C 0.58432 1.05885 0.68740
 H546 H 0.53185 1.08441 0.66081
 H547 H 0.56837 1.04818 0.66202
 H548 H 0.53263 1.10484 0.68036
 H549 H 0.57049 1.10557 0.71653
 H550 H 0.59087 1.08499 0.71742
 H551 H 0.58947 1.04857 0.68199
 C552 C 0.42242 0.32309 0.95762
 C553 C 0.43182 0.33469 0.96438
 C554 C 0.44516 0.34058 0.95574
 C555 C 0.44878 0.33465 0.94018
 C556 C 0.43959 0.32296 0.93340
 C557 C 0.42638 0.31712 0.94213
 C558 C 0.40898 0.31751 0.96605
 C559 C 0.39956 0.30593 0.95931
 C560 C 0.40361 0.30000 0.94384
 C561 C 0.41697 0.30550 0.93524
 C562 C 0.42098 0.29965 0.91978
 C563 C 0.43430 0.30523 0.91113
 C564 C 0.44338 0.31711 0.91794
 H565 H 0.42832 0.33917 0.97615
 H566 H 0.45890 0.33909 0.93331
 H567 H 0.40580 0.32218 0.97791
 H568 H 0.39619 0.29143 0.93820
 H569 H 0.41380 0.29067 0.91450
 H570 H 0.45325 0.32209 0.91119
 C571 C 0.93872 0.44889 0.31015
 C572 C 0.94497 0.45682 0.32344
 C573 C 0.95923 0.45175 0.33129
 C574 C 0.96736 0.43846 0.32536
 C575 C 0.96115 0.43034 0.31201
 C576 C 0.94677 0.43560 0.30439
 C577 C 0.92428 0.45392 0.30279
 C578 C 0.91776 0.44590 0.28955
 C579 C 0.92575 0.43258 0.28395
 C580 C 0.94021 0.42738 0.29126
 C581 C 0.94798 0.41392 0.28585
 C582 C 0.96240 0.40855 0.29327
 C583 C 0.96887 0.41685 0.30635
 H584 H 0.93853 0.46697 0.32782
 H585 H 0.97829 0.43410 0.33110
 H586 H 0.91799 0.46382 0.30780
 H587 H 0.92064 0.42621 0.27391
 H588 H 0.94239 0.40750 0.27619
 H589 H 0.97986 0.41269 0.31226
 C590 C 0.33425 0.93881 0.42109
 C591 C 0.32887 0.94548 0.40622
 C592 C 0.31674 0.93860 0.39698
 C593 C 0.31011 0.92468 0.40270
 C594 C 0.31535 0.91783 0.41755
 C595 C 0.32747 0.92494 0.42676
 C596 C 0.34636 0.94579 0.43029
 C597 C 0.35195 0.93906 0.44518
 C598 C 0.34507 0.92516 0.45061
 C599 C 0.33292 0.91811 0.44157
 C600 C 0.32622 0.90426 0.44711
 C601 C 0.31414 0.89701 0.43811
 C602 C 0.30877 0.90391 0.42326
 H603 H 0.33411 0.95612 0.40183
 H604 H 0.30111 0.91893 0.39554
 H605 H 0.35138 0.95633 0.42550
 H606 H 0.34920 0.91975 0.46198
 H607 H 0.33049 0.89905 0.45852
 H608 H 0.29957 0.89857 0.41602
 O609 O 0.25603 0.48059 0.79441
 O610 O 0.22910 0.47900 0.78553
 O611 O 0.28425 0.46940 0.75263
 O612 O 0.28641 0.47755 0.72655
 O613 O 0.29453 0.50997 0.78035
 O614 O 0.28237 0.53542 0.78119
 O615 O 0.23942 0.50968 0.70851
 O616 O 0.24844 0.48376 0.71019
 O617 O 0.20990 0.51842 0.74764
 O618 O 0.21185 0.51372 0.77767
 O619 O 0.24714 0.54804 0.73743
 O620 O 0.27666 0.54742 0.74261
 O621 O 0.25476 0.53063 0.71345
 O622 O 0.28230 0.53414 0.72354
 O623 O 0.22602 0.54201 0.75385
 O624 O 0.22522 0.53222 0.78292
 O625 O 0.21674 0.50323 0.72614
 O626 O 0.22750 0.47637 0.72913
 O627 O 0.26955 0.50267 0.79944
 O628 O 0.26327 0.52956 0.79653
 O629 O 0.30101 0.49459 0.75888
 O630 O 0.29777 0.49967 0.72930
 O631 O 0.26331 0.46332 0.76931
 O632 O 0.23427 0.46480 0.76258
 Zr633 Zr 0.24870 0.48350 0.76971
 O634 O 0.23225 0.49615 0.75473
 Zr635 Zr 0.27950 0.49253 0.74564
 O636 O 0.26437 0.50538 0.72963
 Zr637 Zr 0.26975 0.51490 0.77702
 O638 O 0.25424 0.52883 0.76240
 Zr639 Zr 0.24091 0.49690 0.73058
 O640 O 0.25653 0.48272 0.74511
 Zr641 Zr 0.23116 0.51928 0.76188
 O642 O 0.24627 0.50630 0.77812
 Zr643 Zr 0.26215 0.52816 0.73797
 O644 O 0.27882 0.51573 0.75298
 O645 O 0.27188 0.49209 0.76983
 O646 O 0.23882 0.51984 0.73765
 C647 C 0.26395 0.48955 0.80383
 C648 C 0.27657 0.45999 0.76191
 C649 C 0.30459 0.50188 0.77194
 C650 C 0.24569 0.52260 0.70429
 C651 C 0.20672 0.51178 0.73403
 C652 C 0.23361 0.55125 0.74434
 H653 H 0.22157 0.49133 0.75517
 H654 H 0.25400 0.53944 0.76668
 H655 H 0.27929 0.48591 0.77694
 H656 H 0.26869 0.50493 0.71836
 H657 H 0.25319 0.47400 0.71467
 H658 H 0.27954 0.48021 0.71698
 H659 H 0.23274 0.54089 0.78350
 H660 H 0.25225 0.52672 0.79986
 H661 H 0.22140 0.47672 0.71867
 H662 H 0.23594 0.45616 0.77054
 H663 H 0.27254 0.55243 0.75263
 H664 H 0.28899 0.53729 0.77131
 H665 H 0.22665 0.48868 0.79139
 H666 H 0.20774 0.50360 0.77437
 H667 H 0.30134 0.50988 0.73302
 H668 H 0.28427 0.52574 0.71567
 O669 O 0.20176 0.00640 0.23966
 O670 O 0.20768 0.00435 0.26710
 O671 O 0.24345 0.02655 0.21796
 O672 O 0.26944 0.02136 0.21516
 O673 O 0.22203 -0.01376 0.19644
 O674 O 0.22297 -0.04019 0.20268
 O675 O 0.28739 -0.01522 0.25907
 O676 O 0.28224 0.01081 0.25637
 O677 O 0.24756 -0.03480 0.28200
 O678 O 0.21920 -0.03439 0.27780
 O679 O 0.26636 -0.05466 0.23945
 O680 O 0.26510 -0.04994 0.21128
 O681 O 0.28730 -0.03359 0.23940
 O682 O 0.27938 -0.03133 0.20867
 O683 O 0.24764 -0.05541 0.25975
 O684 O 0.21732 -0.04885 0.25874
 O685 O 0.26725 -0.01695 0.28119
 O686 O 0.26085 0.01127 0.27610
 O687 O 0.20065 -0.01281 0.22093
 O688 O 0.20739 -0.04061 0.22258
 O689 O 0.24119 0.00459 0.19497
 O690 O 0.27103 0.00165 0.20086
 O691 O 0.22453 0.02722 0.23811
 O692 O 0.22898 0.02041 0.26779
 Zr693 Zr 0.22544 0.00465 0.24851
 O694 O 0.23992 -0.00971 0.26385
 Zr695 Zr 0.25233 0.00388 0.21832
 O696 O 0.26849 -0.00925 0.23296
 Zr697 Zr 0.22415 -0.02266 0.22036
 O698 O 0.23960 -0.03764 0.23388
 Zr699 Zr 0.26408 -0.00592 0.25806
 O700 O 0.24970 0.00928 0.24338
 Zr701 Zr 0.23654 -0.03317 0.25888
 O702 O 0.22015 -0.01889 0.24538
 Zr703 Zr 0.26387 -0.03257 0.22920
 O704 O 0.24836 -0.01946 0.21354
 O705 O 0.22820 0.00065 0.22358
 O706 O 0.26076 -0.02935 0.25423
 C707 C 0.19427 -0.00164 0.22908
 C708 C 0.23271 0.03353 0.22650
 C709 C 0.22979 -0.00329 0.18873
 C710 C 0.29415 -0.02606 0.25087
 C711 C 0.25949 -0.02785 0.28833
 C712 C 0.25907 -0.06150 0.25120
 H713 H 0.23771 -0.00734 0.27546
 H714 H 0.23717 -0.04843 0.23121
 H715 H 0.22106 0.00741 0.21677
 H716 H 0.27965 -0.00654 0.23006
 H717 H 0.27684 0.02060 0.25285
 H718 H 0.27641 0.02086 0.22498
 H719 H 0.21961 -0.05658 0.25020
 H720 H 0.20167 -0.03909 0.23309
 H721 H 0.27017 0.01054 0.28370
 H722 H 0.22078 0.02886 0.26681
 H723 H 0.25421 -0.05422 0.21033
 H724 H 0.23365 -0.04064 0.19732
 H725 H 0.20362 -0.00630 0.26766
 H726 H 0.21874 -0.02420 0.28310
 H727 H 0.26824 -0.00699 0.19365
 H728 H 0.28791 -0.02391 0.21117
 O729 O 0.53848 0.74098 0.24513
 O730 O 0.52993 0.74339 0.27248
 O731 O 0.50014 0.71865 0.22101
 O732 O 0.47301 0.72229 0.21881
 O733 O 0.52000 0.75884 0.19947
 O734 O 0.51639 0.78611 0.20461
 O735 O 0.45040 0.75988 0.25673
 O736 O 0.45652 0.73366 0.25469
 O737 O 0.48774 0.77972 0.28270
 O738 O 0.51757 0.77869 0.28062
 O739 O 0.47243 0.79981 0.23930
 O740 O 0.47769 0.79418 0.20950
 O741 O 0.45202 0.77848 0.23683
 O742 O 0.46074 0.77799 0.20821
 O743 O 0.49084 0.80047 0.25994
 O744 O 0.51965 0.79458 0.26304
 O745 O 0.46889 0.76119 0.28041
 O746 O 0.47592 0.73345 0.27661
 O747 O 0.53967 0.76000 0.22557
 O748 O 0.53239 0.78675 0.22423
 O749 O 0.50151 0.73992 0.19794
 O750 O 0.47238 0.74162 0.20073
 O751 O 0.51686 0.71922 0.24315
 O752 O 0.51026 0.72539 0.27159
 Zr753 Zr 0.51406 0.74159 0.25227
 O754 O 0.49761 0.75494 0.26590
 Zr755 Zr 0.48916 0.74079 0.22031
 O756 O 0.47170 0.75422 0.23260
 Zr757 Zr 0.51596 0.76851 0.22280
 O758 O 0.49983 0.78311 0.23542
 Zr759 Zr 0.47404 0.75075 0.25798
 O760 O 0.49036 0.73590 0.24561
 Zr761 Zr 0.50114 0.77833 0.26075
 O762 O 0.51872 0.76510 0.24828
 Zr763 Zr 0.47611 0.77782 0.22893
 O764 O 0.49240 0.76434 0.21480
 O765 O 0.51270 0.74516 0.22703
 O766 O 0.47738 0.77430 0.25417
 C767 C 0.54614 0.74940 0.23473
 C768 C 0.51060 0.71247 0.23088
 C769 C 0.51314 0.74776 0.19200
 C770 C 0.44425 0.77077 0.24768
 C771 C 0.47560 0.77215 0.28806
 C772 C 0.47963 0.80656 0.25108
 H773 H 0.49887 0.75244 0.27770
 H774 H 0.50241 0.79394 0.23280
 H775 H 0.52067 0.73872 0.22108
 H776 H 0.46084 0.75146 0.22881
 H777 H 0.46247 0.72399 0.25208
 H778 H 0.46285 0.72562 0.22410
 H779 H 0.51967 0.80098 0.25290
 H780 H 0.53644 0.78672 0.23565
 H781 H 0.46580 0.73370 0.28304
 H782 H 0.51947 0.71791 0.27198
 H783 H 0.48631 0.80143 0.21225
 H784 H 0.50641 0.78514 0.19808
 H785 H 0.53434 0.75390 0.27204
 H786 H 0.51561 0.76957 0.28771
 H787 H 0.47395 0.75153 0.19481
 H788 H 0.45497 0.76812 0.20827
 O789 O 0.00290 0.77349 0.79536
 O790 O 0.02998 0.77259 0.78980
 O791 O -0.01888 0.78698 0.74915
 O792 O -0.02104 0.77773 0.72386
 O793 O -0.03783 0.74845 0.77790
 O794 O -0.02978 0.72264 0.78180
 O795 O 0.02473 0.74295 0.71289
 O796 O 0.02045 0.76898 0.71377
 O797 O 0.04822 0.73025 0.75748
 O798 O 0.04287 0.73422 0.78612
 O799 O 0.00912 0.70493 0.74131
 O800 O -0.01916 0.70779 0.74145
 O801 O 0.00779 0.72281 0.71631
 O802 O -0.02279 0.72409 0.72340
 O803 O 0.02863 0.70853 0.76035
 O804 O 0.02587 0.71821 0.78969
 O805 O 0.04624 0.74464 0.73399
 O806 O 0.03927 0.77315 0.73529
 O807 O -0.01443 0.75377 0.79965
 O808 O -0.01051 0.72543 0.79785
 O809 O -0.03995 0.76473 0.75584
 O810 O -0.03388 0.75728 0.72643
 O811 O -0.00004 0.79100 0.76883
 O812 O 0.02949 0.78596 0.76557
 Zr813 Zr 0.01195 0.76942 0.77184
 O814 O 0.02836 0.75453 0.76000
 Zr815 Zr -0.01699 0.76329 0.74459
 O816 O -0.00132 0.74908 0.73088
 Zr817 Zr -0.01367 0.74085 0.77773
 O818 O 0.00118 0.72497 0.76509
 Zr819 Zr 0.02286 0.75471 0.73494
 O820 O 0.00706 0.77058 0.74654
 Zr821 Zr 0.02517 0.73158 0.76775
 O822 O 0.01041 0.74676 0.78147
 Zr823 Zr -0.00307 0.72632 0.73962
 O824 O -0.01985 0.74036 0.75263
 O825 O -0.01207 0.76353 0.76951
 O826 O 0.02098 0.73180 0.74258
 C827 C -0.00714 0.76601 0.80421
 C828 C -0.01147 0.79562 0.75917
 C829 C -0.04578 0.75793 0.76859
 C830 C 0.01815 0.73059 0.70799
 C831 C 0.05399 0.73563 0.74406
 C832 C 0.02133 0.70028 0.74982
 H833 H 0.03948 0.75795 0.76193
 H834 H -0.00056 0.71443 0.76945
 H835 H -0.01929 0.77073 0.77547
 H836 H -0.00414 0.75010 0.71912
 H837 H 0.01601 0.77903 0.71748
 H838 H -0.01123 0.77689 0.71707
 H839 H 0.01815 0.70975 0.78858
 H840 H -0.00046 0.72836 0.80344
 H841 H 0.04706 0.77157 0.72624
 H842 H 0.02780 0.79519 0.77247
 H843 H -0.01987 0.70488 0.75319
 H844 H -0.03453 0.72035 0.77099
 H845 H 0.03112 0.76272 0.79598
 H846 H 0.04803 0.74425 0.78411
 H847 H -0.04017 0.74864 0.73099
 H848 H -0.02073 0.73057 0.71358
 O849 O 0.04073 0.00881 0.00357
 O850 O 0.03783 0.00314 -0.02425
 O851 O -0.00372 0.03158 0.01621
 O852 O -0.03029 0.02627 0.01325
 O853 O 0.01501 -0.00443 0.04702
 O854 O 0.01498 -0.03237 0.04533
 O855 O -0.04146 -0.01717 -0.02208
 O856 O -0.03836 0.00949 -0.02285
 O857 O 0.00226 -0.03699 -0.03710
 O858 O 0.03106 -0.03352 -0.02882
 O859 O -0.01994 -0.05291 0.00446
 O860 O -0.02047 -0.04371 0.03414
 O861 O -0.04199 -0.03288 0.00054
 O862 O -0.03906 -0.02883 0.02978
 O863 O 0.00201 -0.05475 -0.01207
 O864 O 0.03035 -0.04783 -0.00934
 O865 O -0.01840 -0.01977 -0.04133
 O866 O -0.01504 0.00856 -0.04033
 O867 O 0.03958 -0.00729 0.02589
 O868 O 0.03484 -0.03398 0.02965
 O869 O -0.00532 0.01302 0.04210
 O870 O -0.03286 0.00930 0.03362
 O871 O 0.01720 0.02942 -0.00168
 O872 O 0.01675 0.01959 -0.02978
 Zr873 Zr 0.01821 0.00602 -0.00792
 O874 O 0.00608 -0.00995 -0.02242
 Zr875 Zr -0.01255 0.00890 0.01796
 O876 O -0.02587 -0.00715 0.00466
 Zr877 Zr 0.01668 -0.01704 0.02504
 O878 O 0.00488 -0.03419 0.01174
 Zr879 Zr -0.01894 -0.00652 -0.02005
 O880 O -0.00681 0.01079 -0.00708
 Zr881 Zr 0.01069 -0.03229 -0.01328
 O882 O 0.02411 -0.01649 0.00036
 Zr883 Zr -0.02003 -0.02981 0.01259
 O884 O -0.00830 -0.01357 0.02745
 O885 O 0.01220 0.00539 0.01682
 O886 O -0.01418 -0.02913 -0.01217
 C887 C 0.04688 0.00231 0.01650
 C888 C 0.00795 0.03724 0.00781
 C889 C 0.00556 0.00676 0.05131
 C890 C -0.04820 -0.02720 -0.01268
 C891 C -0.00923 -0.03101 -0.04583
 C892 C -0.01034 -0.06044 -0.00506
 H893 H 0.00946 -0.00875 -0.03398
 H894 H 0.00780 -0.04448 0.01632
 H895 H 0.01821 0.01299 0.02323
 H896 H -0.03749 -0.00475 0.00581
 H897 H -0.03399 0.01981 -0.02070
 H898 H -0.03890 0.02158 0.00672
 H899 H 0.02877 -0.05299 0.00141
 H900 H 0.04069 -0.03537 0.01920
 H901 H -0.02364 0.00687 -0.04851
 H902 H 0.02504 0.02767 -0.02941
 H903 H -0.01149 -0.05135 0.03354
 H904 H 0.00384 -0.03132 0.04950
 H905 H 0.04304 -0.00694 -0.02152
 H906 H 0.02946 -0.02585 -0.03780
 H907 H -0.03178 0.00020 0.04103
 H908 H -0.04556 -0.01940 0.02730
 O909 O 0.00969 0.53739 0.51489
 O910 O -0.01720 0.53175 0.51071
 O911 O 0.02930 0.49572 0.53702
 O912 O 0.03147 0.46955 0.52940
 O913 O 0.05474 0.51731 0.49656
 O914 O 0.05080 0.51980 0.46836
 O915 O -0.00690 0.45750 0.48595
 O916 O -0.00639 0.45939 0.51396
 O917 O -0.02710 0.49767 0.46618
 O918 O -0.02297 0.52466 0.46847
 O919 O 0.01715 0.48059 0.44790
 O920 O 0.04486 0.48096 0.45683
 O921 O 0.01446 0.45875 0.46854
 O922 O 0.04388 0.46442 0.47433
 O923 O -0.00343 0.49828 0.44661
 O924 O -0.00270 0.52700 0.45482
 O925 O -0.02836 0.47770 0.48449
 O926 O -0.02576 0.48066 0.51495
 O927 O 0.03122 0.53893 0.49766
 O928 O 0.03141 0.53531 0.46762
 O929 O 0.05358 0.49857 0.51637
 O930 O 0.04890 0.47073 0.51164
 O931 O 0.01023 0.51494 0.53630
 O932 O -0.01844 0.51034 0.52720
 Zr933 Zr 0.00154 0.51484 0.51181
 O934 O -0.01189 0.50238 0.49465
 Zr935 Zr 0.03099 0.48838 0.51265
 O936 O 0.01833 0.47437 0.49643
 Zr937 Zr 0.03198 0.51744 0.48556
 O938 O 0.02033 0.50430 0.46778
 Zr939 Zr -0.00660 0.47878 0.49788
 O940 O 0.00591 0.49109 0.51613
 Zr941 Zr -0.00462 0.50745 0.47051
 O942 O 0.00709 0.52167 0.48753
 Zr943 Zr 0.02450 0.48060 0.47239
 O944 O 0.03824 0.49387 0.48860
 O945 O 0.02629 0.51183 0.50962
 O946 O -0.00034 0.48389 0.47372
 C947 C 0.02158 0.54458 0.50853
 C948 C 0.02097 0.50649 0.54378
 C949 C 0.06074 0.50949 0.50861
 C950 C 0.00224 0.45188 0.47472
 C951 C -0.03417 0.48607 0.47265
 C952 C 0.00590 0.48797 0.44022
 H953 H -0.02350 0.50459 0.49630
 H954 H 0.02405 0.50747 0.45676
 H955 H 0.03236 0.51803 0.51751
 H956 H 0.02083 0.46339 0.49896
 H957 H -0.00432 0.46330 0.52508
 H958 H 0.02044 0.46872 0.53381
 H959 H 0.00618 0.52497 0.44703
 H960 H 0.02101 0.54095 0.46892
 H961 H -0.03306 0.47193 0.51314
 H962 H -0.01830 0.51763 0.53646
 H963 H 0.04463 0.49095 0.45081
 H964 H 0.05583 0.50941 0.46727
 H965 H -0.01656 0.53673 0.49975
 H966 H -0.02945 0.52418 0.47861
 H967 H 0.05600 0.47329 0.50229
 H968 H 0.04087 0.45636 0.48239
 O969 O 0.54596 0.01252 0.50293
 O970 O 0.54016 0.00989 0.47524
 O971 O 0.50793 0.04163 0.52099
 O972 O 0.48120 0.04153 0.52302
 O973 O 0.52154 -0.00079 0.54699
 O974 O 0.51599 -0.02720 0.54278
 O975 O 0.45853 0.00547 0.48173
 O976 O 0.46695 0.03078 0.48378
 O977 O 0.49469 -0.02124 0.46234
 O978 O 0.52359 -0.02502 0.46737
 O979 O 0.47330 -0.03606 0.50591
 O980 O 0.47468 -0.02900 0.53424
 O981 O 0.45574 -0.01250 0.50212
 O982 O 0.46169 -0.00881 0.53302
 O983 O 0.49193 -0.04035 0.48601
 O984 O 0.52218 -0.03954 0.48680
 O985 O 0.47925 0.00072 0.46083
 O986 O 0.48895 0.02747 0.46478
 O987 O 0.54333 -0.00511 0.52370
 O988 O 0.53272 -0.03119 0.52399
 O989 O 0.50574 0.02095 0.54598
 O990 O 0.47621 0.02303 0.53959
 O991 O 0.52722 0.03712 0.50174
 O992 O 0.52236 0.03021 0.47278
 Zr993 Zr 0.52256 0.01484 0.49328
 O994 O 0.50617 0.00300 0.47862
 Zr995 Zr 0.49518 0.02091 0.52241
 O996 O 0.47742 0.00988 0.50856
 Zr997 Zr 0.51865 -0.01058 0.52381
 O998 O 0.50166 -0.02323 0.51068
 Zr999 Zr 0.48282 0.01136 0.48348
 O1000 O 0.49931 0.02432 0.49713
 Zr1001 Zr 0.50594 -0.02042 0.48545
 O1002 O 0.52396 -0.00899 0.49868
 Zr1003 Zr 0.47835 -0.01384 0.51411
 O1004 O 0.49516 -0.00260 0.52922
 O1005 O 0.51849 0.01287 0.51836
 O1006 O 0.48259 -0.01216 0.48905
 C1007 C 0.55167 0.00412 0.51478
 C1008 C 0.52009 0.04570 0.51230
 C1009 C 0.51558 0.01150 0.55335
 C1010 C 0.45036 -0.00454 0.48975
 C1011 C 0.48471 -0.01198 0.45494
 C1012 C 0.47983 -0.04437 0.49476
 H1013 H 0.50895 0.00451 0.46693
 H1014 H 0.50244 -0.03416 0.51426
 H1015 H 0.52646 0.01855 0.52484
 H1016 H 0.46668 0.01451 0.51075
 H1017 H 0.47353 0.03973 0.48672
 H1018 H 0.47289 0.04071 0.51441
 H1019 H 0.51946 -0.04569 0.49668
 H1020 H 0.53839 -0.03155 0.51333
 H1021 H 0.47978 0.02834 0.45701
 H1022 H 0.53215 0.03658 0.47317
 H1023 H 0.48406 -0.03620 0.53478
 H1024 H 0.50553 -0.02486 0.54808
 H1025 H 0.54268 -0.00130 0.47611
 H1026 H 0.52432 -0.01575 0.46023
 H1027 H 0.47685 0.01379 0.54685
 H1028 H 0.45435 -0.00042 0.52908
 O1029 O 0.49297 0.52534 0.04174
 O1030 O 0.46646 0.51840 0.04124
 O1031 O 0.51704 0.48646 0.06580
 O1032 O 0.52108 0.46149 0.06176
 O1033 O 0.53656 0.50662 0.02123
 O1034 O 0.53023 0.50433 -0.00690
 O1035 O 0.47873 0.44204 0.02538
 O1036 O 0.48154 0.44781 0.05252
 O1037 O 0.45383 0.47865 0.00235
 O1038 O 0.45630 0.50653 0.00174
 O1039 O 0.49620 0.46227 -0.01893
 O1040 O 0.52401 0.46409 -0.01421
 O1041 O 0.49685 0.44253 0.00445
 O1042 O 0.52684 0.45029 0.00595
 O1043 O 0.47517 0.47946 -0.01989
 O1044 O 0.47421 0.50827 -0.01482
 O1045 O 0.45587 0.46085 0.02303
 O1046 O 0.46107 0.46769 0.05237
 O1047 O 0.51170 0.52624 0.02137
 O1048 O 0.51000 0.51917 -0.00764
 O1049 O 0.53921 0.48858 0.04163
 O1050 O 0.53498 0.45983 0.04044
 O1051 O 0.49686 0.50464 0.06526
 O1052 O 0.46783 0.49868 0.05996
 Zr1053 Zr 0.48592 0.50226 0.04204
 O1054 O 0.47143 0.48751 0.02832
 Zr1055 Zr 0.51690 0.47729 0.04220
 O1056 O 0.50330 0.46109 0.02953
 Zr1057 Zr 0.51317 0.50352 0.01228
 O1058 O 0.50035 0.48806 -0.00227
 Zr1059 Zr 0.47857 0.46469 0.03368
 O1060 O 0.49231 0.47934 0.04848
 Zr1061 Zr 0.47571 0.49036 0.00308
 O1062 O 0.48845 0.50680 0.01669
 Zr1063 Zr 0.50626 0.46506 0.00433
 O1064 O 0.52106 0.48059 0.01700
 O1065 O 0.51045 0.50015 0.03733
 O1066 O 0.48165 0.46742 0.00845
 C1067 C 0.50315 0.53250 0.03276
 C1068 C 0.50865 0.49731 0.07233
 C1069 C 0.54461 0.49964 0.03265
 C1070 C 0.48639 0.43573 0.01353
 C1071 C 0.44837 0.46740 0.01095
 C1072 C 0.48416 0.46884 -0.02617
 H1073 H 0.45997 0.48932 0.03110
 H1074 H 0.50268 0.49025 -0.01394
 H1075 H 0.51683 0.50742 0.04380
 H1076 H 0.50675 0.45054 0.03293
 H1077 H 0.48488 0.45334 0.06246
 H1078 H 0.51214 0.45415 0.06152
 H1079 H 0.48312 0.50666 -0.02268
 H1080 H 0.49931 0.52422 -0.00621
 H1081 H 0.45411 0.45852 0.05245
 H1082 H 0.46852 0.50690 0.06826
 H1083 H 0.52409 0.47436 -0.01962
 H1084 H 0.53638 0.49443 -0.00636
 H1085 H 0.46521 0.52169 0.02963
 H1086 H 0.45029 0.50586 0.01218
 H1087 H 0.54151 0.46230 0.03064
 H1088 H 0.52471 0.44221 0.01431
 O1089 O 0.76652 0.29462 0.49116
 O1090 O 0.76644 0.29233 0.51965
 O1091 O 0.78763 0.25201 0.47507
 O1092 O 0.78284 0.22676 0.47770
 O1093 O 0.74421 0.27024 0.45275
 O1094 O 0.71648 0.26965 0.46043
 O1095 O 0.74735 0.21612 0.52467
 O1096 O 0.77429 0.21991 0.51955
 O1097 O 0.72837 0.25789 0.54252
 O1098 O 0.72856 0.28477 0.53322
 O1099 O 0.70446 0.23520 0.50527
 O1100 O 0.70746 0.23303 0.47609
 O1101 O 0.72673 0.21446 0.50639
 O1102 O 0.72604 0.21771 0.47532
 O1103 O 0.70536 0.25577 0.52219
 O1104 O 0.71105 0.28376 0.51629
 O1105 O 0.74710 0.23839 0.54344
 O1106 O 0.77589 0.24266 0.53587
 O1107 O 0.74539 0.29350 0.47338
 O1108 O 0.71700 0.28804 0.47697
 O1109 O 0.76324 0.25098 0.45355
 O1110 O 0.76136 0.22384 0.46386
 O1111 O 0.78865 0.27283 0.49170
 O1112 O 0.78441 0.27210 0.52191
 Zr1113 Zr 0.76616 0.27330 0.50367
 O1114 O 0.75286 0.26178 0.52188
 Zr1115 Zr 0.76420 0.24370 0.47830
 O1116 O 0.75140 0.23071 0.49575
 Zr1117 Zr 0.73588 0.27131 0.47706
 O1118 O 0.72150 0.25925 0.49400
 Zr1119 Zr 0.75671 0.23793 0.51958
 O1120 O 0.77133 0.24945 0.50223
 Zr1121 Zr 0.72809 0.26530 0.51788
 O1122 O 0.74139 0.27853 0.50087
 Zr1123 Zr 0.72665 0.23543 0.49289
 O1124 O 0.73937 0.24736 0.47424
 O1125 O 0.76045 0.26735 0.47980
 O1126 O 0.73197 0.24153 0.51682
 C1127 C 0.75731 0.30044 0.47988
 C1128 C 0.79486 0.26359 0.48113
 C1129 C 0.75492 0.26152 0.44599
 C1130 C 0.73559 0.20901 0.51816
 C1131 C 0.73630 0.24708 0.55006
 C1132 C 0.69838 0.24399 0.51630
 H1133 H 0.75623 0.26529 0.53282
 H1134 H 0.71002 0.26162 0.49175
 H1135 H 0.76683 0.27315 0.47164
 H1136 H 0.75412 0.21964 0.49443
 H1137 H 0.78419 0.22432 0.51480
 H1138 H 0.78148 0.22012 0.48753
 H1139 H 0.70291 0.28111 0.50799
 H1140 H 0.71847 0.29431 0.48689
 H1141 H 0.77591 0.23470 0.54473
 H1142 H 0.79258 0.27997 0.51932
 H1143 H 0.70204 0.24324 0.47485
 H1144 H 0.71669 0.25890 0.45648
 H1145 H 0.75543 0.29693 0.51956
 H1146 H 0.73900 0.28454 0.53907
 H1147 H 0.75121 0.22535 0.45761
 H1148 H 0.73502 0.21037 0.47777
 O1149 O 0.73787 0.77815 -0.03715
 O1150 O 0.71067 0.77378 -0.03377
 O1151 O 0.75140 0.80444 0.00429
 O1152 O 0.74976 0.80235 0.03157
 O1153 O 0.78028 0.76486 -0.00899
 O1154 O 0.77735 0.73783 -0.00620
 O1155 O 0.71172 0.76241 0.04930
 O1156 O 0.71194 0.78821 0.04199
 O1157 O 0.69688 0.73768 0.00899
 O1158 O 0.70456 0.73678 -0.02003
 O1159 O 0.73820 0.72338 0.03402
 O1160 O 0.76599 0.73139 0.03471
 O1161 O 0.73335 0.74617 0.05307
 O1162 O 0.76326 0.74999 0.04884
 O1163 O 0.72090 0.71946 0.01294
 O1164 O 0.72431 0.72304 -0.01752
 O1165 O 0.69291 0.75773 0.02632
 O1166 O 0.69515 0.78536 0.01820
 O1167 O 0.75972 0.76205 -0.03380
 O1168 O 0.76053 0.73486 -0.02517
 O1169 O 0.77643 0.78486 0.00842
 O1170 O 0.76756 0.78456 0.03727
 O1171 O 0.73376 0.80098 -0.01666
 O1172 O 0.70549 0.79201 -0.01455
 Zr1173 Zr 0.72665 0.77785 -0.01411
 O1174 O 0.71201 0.76364 0.00046
 Zr1175 Zr 0.75250 0.78288 0.01643
 O1176 O 0.73857 0.76944 0.03245
 Zr1177 Zr 0.75800 0.75381 -0.00927
 O1178 O 0.74484 0.73883 0.00604
 Zr1179 Zr 0.71437 0.77006 0.02501
 O1180 O 0.72792 0.78533 0.01031
 Zr1181 Zr 0.72032 0.74062 -0.00015
 O1182 O 0.73372 0.75450 -0.01656
 Zr1183 Zr 0.74578 0.74618 0.03049
 O1184 O 0.76089 0.75984 0.01550
 O1185 O 0.75097 0.77684 -0.00801
 O1186 O 0.72148 0.74686 0.02435
 C1187 C 0.75072 0.77138 -0.04242
 C1188 C 0.74343 0.80924 -0.00838
 C1189 C 0.78517 0.77669 -0.00125
 C1190 C 0.72043 0.75308 0.05806
 C1191 C 0.68834 0.74545 0.01923
 C1192 C 0.72844 0.71501 0.02600
 H1193 H 0.70070 0.76476 -0.00325
 H1194 H 0.74910 0.72818 0.00492
 H1195 H 0.75762 0.78355 -0.01508
 H1196 H 0.73970 0.77325 0.04375
 H1197 H 0.71457 0.79784 0.03598
 H1198 H 0.74150 0.79980 0.03984
 H1199 H 0.73427 0.71731 -0.01435
 H1200 H 0.75054 0.73462 -0.03178
 H1201 H 0.68690 0.78498 0.02697
 H1202 H 0.70621 0.79947 -0.02385
 H1203 H 0.76717 0.72466 0.02508
 H1204 H 0.78118 0.73893 0.00521
 H1205 H 0.71231 0.76286 -0.03684
 H1206 H 0.69683 0.74560 -0.02070
 H1207 H 0.77511 0.77558 0.03711
 H1208 H 0.75947 0.75880 0.05548
 O1209 O 1.04209 0.23134 0.24351
 O1210 O 1.03940 0.23792 0.27091
 O1211 O 0.99884 0.20693 0.23296
 O1212 O 0.97215 0.21159 0.23629
 O1213 O 1.01449 0.24167 0.19994
 O1214 O 1.01293 0.26943 0.19980
 O1215 O 0.95912 0.25716 0.26976
 O1216 O 0.96380 0.23053 0.27208
 O1217 O 1.00157 0.27882 0.28177
 O1218 O 1.03003 0.27582 0.27323
 O1219 O 0.97754 0.29146 0.23881
 O1220 O 0.97586 0.28016 0.21094
 O1221 O 0.95672 0.27125 0.24604
 O1222 O 0.95908 0.26479 0.21685
 O1223 O 0.99876 0.29471 0.25595
 O1224 O 1.02811 0.28821 0.25220
 O1225 O 0.98235 0.26136 0.28793
 O1226 O 0.98763 0.23296 0.28869
 O1227 O 1.03929 0.24603 0.22021
 O1228 O 1.03265 0.27256 0.21525
 O1229 O 0.99534 0.22414 0.20619
 O1230 O 0.96758 0.22767 0.21557
 O1231 O 1.02017 0.21030 0.25000
 O1232 O 1.01921 0.22170 0.27785
 Zr1233 Zr 1.01959 0.23408 0.25522
 O1234 O 1.00690 0.25079 0.26894
 Zr1235 Zr 0.98846 0.22922 0.23033
 O1236 O 0.97441 0.24558 0.24312
 Zr1237 Zr 1.01581 0.25537 0.22104
 O1238 O 1.00299 0.27291 0.23331
 Zr1239 Zr 0.98211 0.24669 0.26760
 O1240 O 0.99490 0.22884 0.25532
 Zr1241 Zr 1.00958 0.27270 0.25820
 O1242 O 1.02378 0.25630 0.24550
 Zr1243 Zr 0.97841 0.26775 0.23337
 O1244 O 0.99105 0.25115 0.21929
 O1245 O 1.01298 0.23333 0.23066
 O1246 O 0.98496 0.26883 0.25794
 C1247 C 1.04745 0.23718 0.23001
 C1248 C 1.01119 0.20188 0.24109
 C1249 C 1.00564 0.23017 0.19643
 C1250 C 0.95141 0.26644 0.25993
 C1251 C 0.99074 0.27322 0.29124
 C1252 C 0.98636 0.29976 0.24798
 H1253 H 1.01069 0.25042 0.28044
 H1254 H 1.00506 0.28296 0.22794
 H1255 H 1.01935 0.22557 0.22451
 H1256 H 0.96294 0.24282 0.24254
 H1257 H 0.96877 0.22018 0.27049
 H1258 H 0.96379 0.21620 0.24343
 H1259 H 1.02506 0.29364 0.24188
 H1260 H 1.03871 0.27447 0.22546
 H1261 H 0.97919 0.23501 0.29701
 H1262 H 1.02776 0.21354 0.27770
 H1263 H 0.98527 0.28689 0.20973
 H1264 H 1.00179 0.26797 0.19588
 H1265 H 1.04346 0.24827 0.26806
 H1266 H 1.02959 0.26824 0.28239
 H1267 H 0.96802 0.23615 0.20733
 H1268 H 0.95278 0.25594 0.22085
 O1269 O 0.70645 1.01739 0.73908
 O1270 O 0.71200 1.01727 0.76693
 O1271 O 0.74726 1.03798 0.71662
 O1272 O 0.77356 1.03374 0.71428
 O1273 O 0.72844 0.99496 0.69826
 O1274 O 0.73100 0.96889 0.70704
 O1275 O 0.79281 1.00143 0.76152
 O1276 O 0.78662 1.02690 0.75568
 O1277 O 0.75389 0.98231 0.78575
 O1278 O 0.72525 0.98109 0.78111
 O1279 O 0.77367 0.95926 0.74529
 O1280 O 0.77277 0.96221 0.71648
 O1281 O 0.79368 0.98099 0.74429
 O1282 O 0.78687 0.98083 0.71321
 O1283 O 0.75538 0.95982 0.76599
 O1284 O 0.72496 0.96439 0.76401
 O1285 O 0.77204 1.00151 0.78331
 O1286 O 0.76478 1.02858 0.77498
 O1287 O 0.70670 0.99679 0.72204
 O1288 O 0.71461 0.96957 0.72657
 O1289 O 0.74652 1.01418 0.69552
 O1290 O 0.77625 1.01291 0.70164
 O1291 O 0.72800 1.03907 0.73642
 O1292 O 0.73208 1.03484 0.76637
 Zr1293 Zr 0.72997 1.01739 0.74854
 O1294 O 0.74513 1.00523 0.76517
 Zr1295 Zr 0.75738 1.01569 0.71883
 O1296 O 0.77402 1.00440 0.73459
 Zr1297 Zr 0.73065 0.98794 0.72293
 O1298 O 0.74656 0.97485 0.73807
 Zr1299 Zr 0.76910 1.00975 0.75911
 O1300 O 0.75400 1.02295 0.74318
 Zr1301 Zr 0.74301 0.98125 0.76254
 O1302 O 0.72607 0.99343 0.74749
 Zr1303 Zr 0.77062 0.98057 0.73318
 O1304 O 0.75477 0.99179 0.71621
 O1305 O 0.73342 1.01164 0.72413
 O1306 O 0.76701 0.98587 0.75769
 C1307 C 0.69962 1.00834 0.72897
 C1308 C 0.73602 1.04502 0.72450
 C1309 C 0.73562 1.00537 0.68984
 C1310 C 0.80004 0.98987 0.75495
 C1311 C 0.76500 0.99083 0.79147
 C1312 C 0.76691 0.95332 0.75794
 H1313 H 0.74263 1.00853 0.77646
 H1314 H 0.74472 0.96375 0.73645
 H1315 H 0.72609 1.01756 0.71670
 H1316 H 0.78509 1.00730 0.73159
 H1317 H 0.78087 1.03615 0.75120
 H1318 H 0.78115 1.03367 0.72362
 H1319 H 0.72757 0.95632 0.75593
 H1320 H 0.70902 0.97150 0.73707
 H1321 H 0.77407 1.02919 0.78257
 H1322 H 0.72318 1.04253 0.76474
 H1323 H 0.76232 0.95695 0.71637
 H1324 H 0.74163 0.96888 0.70156
 H1325 H 0.70818 1.00655 0.76787
 H1326 H 0.72463 0.99156 0.78574
 H1327 H 0.77422 1.00328 0.69567
 H1328 H 0.79499 0.98876 0.71532
 O1329 O 0.71751 0.53230 0.24207
 O1330 O 0.72089 0.53128 0.27034
 O1331 O 0.76189 0.55060 0.22388
 O1332 O 0.78810 0.54450 0.22489
 O1333 O 0.74103 0.51071 0.20244
 O1334 O 0.74223 0.48353 0.21014
 O1335 O 0.80086 0.50967 0.27061
 O1336 O 0.79681 0.53574 0.26545
 O1337 O 0.75945 0.49235 0.29127
 O1338 O 0.72981 0.49577 0.28439
 O1339 O 0.77911 0.46935 0.25292
 O1340 O 0.78005 0.47269 0.22354
 O1341 O 0.80109 0.48965 0.25280
 O1342 O 0.79664 0.48934 0.22208
 O1343 O 0.75803 0.47109 0.27060
 O1344 O 0.72943 0.47858 0.26805
 O1345 O 0.77876 0.51058 0.29096
 O1346 O 0.77405 0.53824 0.28341
 O1347 O 0.71796 0.51210 0.22447
 O1348 O 0.72331 0.48486 0.22730
 O1349 O 0.76141 0.52786 0.20216
 O1350 O 0.78990 0.52399 0.21039
 O1351 O 0.74131 0.55250 0.24220
 O1352 O 0.74202 0.54746 0.27205
 Zr1353 Zr 0.74031 0.53058 0.25355
 O1354 O 0.75321 0.51720 0.27111
 Zr1355 Zr 0.77013 0.52761 0.22634
 O1356 O 0.78426 0.51434 0.24287
 Zr1357 Zr 0.74106 0.50199 0.22678
 O1358 O 0.75397 0.48739 0.24322
 Zr1359 Zr 0.77795 0.51972 0.26704
 O1360 O 0.76515 0.53440 0.25053
 Zr1361 Zr 0.74909 0.49373 0.26754
 O1362 O 0.73467 0.50715 0.25108
 Zr1363 Zr 0.77879 0.49090 0.24051
 O1364 O 0.76588 0.50407 0.22251
 O1365 O 0.74549 0.52530 0.22933
 O1366 O 0.77378 0.49620 0.26477
 C1367 C 0.71101 0.52378 0.23118
 C1368 C 0.75065 0.55818 0.23121
 C1369 C 0.74990 0.52076 0.19523
 C1370 C 0.80759 0.49789 0.26391
 C1371 C 0.77091 0.49979 0.29801
 C1372 C 0.76992 0.46378 0.26412
 H1373 H 0.75025 0.52045 0.28229
 H1374 H 0.75112 0.47657 0.24115
 H1375 H 0.73920 0.53198 0.22164
 H1376 H 0.79576 0.51631 0.24079
 H1377 H 0.79201 0.54546 0.26092
 H1378 H 0.79603 0.54205 0.23363
 H1379 H 0.73056 0.47167 0.25857
 H1380 H 0.71742 0.48610 0.23776
 H1381 H 0.78289 0.53795 0.29160
 H1382 H 0.73379 0.55571 0.26992
 H1383 H 0.76926 0.46811 0.22301
 H1384 H 0.75302 0.48381 0.20502
 H1385 H 0.71669 0.52069 0.27110
 H1386 H 0.73207 0.50442 0.29177
 H1387 H 0.78796 0.51427 0.20455
 H1388 H 0.80430 0.49776 0.22378
 O1389 O 0.54852 0.24083 0.76156
 O1390 O 0.53972 0.24545 0.78816
 O1391 O 0.50938 0.21913 0.73815
 O1392 O 0.48310 0.22400 0.73376
 O1393 O 0.53225 0.25738 0.71398
 O1394 O 0.53149 0.28430 0.71724
 O1395 O 0.46200 0.26593 0.77014
 O1396 O 0.46599 0.23935 0.76994
 O1397 O 0.50033 0.28520 0.79428
 O1398 O 0.52935 0.28374 0.79246
 O1399 O 0.48614 0.30258 0.74801
 O1400 O 0.49056 0.29451 0.71983
 O1401 O 0.46460 0.28240 0.74835
 O1402 O 0.47420 0.27771 0.71925
 O1403 O 0.50260 0.30400 0.77021
 O1404 O 0.53245 0.29750 0.77267
 O1405 O 0.48050 0.26748 0.79376
 O1406 O 0.48562 0.23912 0.79177
 O1407 O 0.55156 0.25762 0.74006
 O1408 O 0.54596 0.28552 0.73825
 O1409 O 0.51292 0.23917 0.71313
 O1410 O 0.48320 0.24243 0.71576
 O1411 O 0.52608 0.22037 0.76022
 O1412 O 0.51846 0.22910 0.78814
 Zr1413 Zr 0.52412 0.24348 0.76776
 O1414 O 0.50851 0.25901 0.77976
 Zr1415 Zr 0.50005 0.24179 0.73527
 O1416 O 0.48300 0.25669 0.74633
 Zr1417 Zr 0.52858 0.26813 0.73658
 O1418 O 0.51259 0.28445 0.74692
 Zr1419 Zr 0.48485 0.25529 0.77199
 O1420 O 0.50027 0.23866 0.76096
 Zr1421 Zr 0.51324 0.28181 0.77251
 O1422 O 0.53037 0.26642 0.76221
 Zr1423 Zr 0.48870 0.27959 0.74047
 O1424 O 0.50495 0.26463 0.72810
 O1425 O 0.52364 0.24533 0.74232
 O1426 O 0.48943 0.27821 0.76593
 C1427 C 0.55696 0.24730 0.75033
 C1428 C 0.51945 0.21305 0.74850
 C1429 C 0.52492 0.24640 0.70695
 C1430 C 0.45649 0.27638 0.76017
 C1431 C 0.48798 0.27862 0.80041
 C1432 C 0.49232 0.30987 0.75999
 H1433 H 0.50961 0.25742 0.79175
 H1434 H 0.51562 0.29493 0.74334
 H1435 H 0.53121 0.23803 0.73696
 H1436 H 0.47202 0.25413 0.74272
 H1437 H 0.47117 0.22913 0.76814
 H1438 H 0.47384 0.22713 0.74063
 H1439 H 0.53151 0.30412 0.76272
 H1440 H 0.55031 0.28497 0.74955
 H1441 H 0.47557 0.24044 0.79819
 H1442 H 0.52689 0.22087 0.78925
 H1443 H 0.50049 0.30048 0.72112
 H1444 H 0.52124 0.28452 0.71102
 H1445 H 0.54466 0.25572 0.78727
 H1446 H 0.52815 0.27448 0.79954
 H1447 H 0.48596 0.25132 0.70862
 H1448 H 0.46609 0.26974 0.72145
 O1449 O 0.26861 0.78864 0.48110
 O1450 O 0.26539 0.78917 0.50933
 O1451 O 0.29473 0.74668 0.47216
 O1452 O 0.29222 0.72163 0.47746
 O1453 O 0.25193 0.75755 0.44362
 O1454 O 0.22407 0.75736 0.44883
 O1455 O 0.25228 0.71240 0.52168
 O1456 O 0.27936 0.71761 0.51845
 O1457 O 0.22820 0.75352 0.53225
 O1458 O 0.22653 0.77914 0.52000
 O1459 O 0.21055 0.72552 0.49439
 O1460 O 0.21810 0.72038 0.46655
 O1461 O 0.23382 0.70729 0.50191
 O1462 O 0.23741 0.70662 0.47074
 O1463 O 0.20799 0.74660 0.51052
 O1464 O 0.21135 0.77475 0.50117
 O1465 O 0.24871 0.73633 0.53726
 O1466 O 0.27751 0.74211 0.53200
 O1467 O 0.25025 0.78386 0.46113
 O1468 O 0.22191 0.77686 0.46327
 O1469 O 0.27295 0.74093 0.44875
 O1470 O 0.27265 0.71509 0.46215
 O1471 O 0.29217 0.76897 0.48642
 O1472 O 0.28449 0.77080 0.51598
 Zr1473 Zr 0.26852 0.76862 0.49586
 O1474 O 0.25427 0.75770 0.51376
 Zr1475 Zr 0.27204 0.73659 0.47414
 O1476 O 0.25866 0.72414 0.49153
 Zr1477 Zr 0.24174 0.76149 0.46682
 O1478 O 0.22670 0.74962 0.48334
 Zr1479 Zr 0.26059 0.73417 0.51468
 O1480 O 0.27595 0.74528 0.49777
 Zr1481 Zr 0.22984 0.75839 0.50698
 O1482 O 0.24383 0.77127 0.49012
 Zr1483 Zr 0.23416 0.72634 0.48548
 O1484 O 0.24765 0.73771 0.46713
 O1485 O 0.26609 0.75992 0.47237
 O1486 O 0.23612 0.73511 0.50897
 C1487 C 0.26063 0.79249 0.46811
 C1488 C 0.30024 0.75935 0.47761
 C1489 C 0.26391 0.74905 0.43905
 C1490 C 0.24155 0.70392 0.51522
 C1491 C 0.23643 0.74444 0.54175
 C1492 C 0.20268 0.73408 0.50438
 H1493 H 0.25606 0.76258 0.52449
 H1494 H 0.21540 0.75066 0.47959
 H1495 H 0.27275 0.76531 0.46412
 H1496 H 0.26242 0.71325 0.49191
 H1497 H 0.28936 0.72236 0.51437
 H1498 H 0.29031 0.71564 0.48765
 H1499 H 0.20403 0.77005 0.49316
 H1500 H 0.22203 0.78413 0.47252
 H1501 H 0.27739 0.73502 0.54164
 H1502 H 0.29230 0.77897 0.51332
 H1503 H 0.21132 0.72962 0.46400
 H1504 H 0.22475 0.74618 0.44654
 H1505 H 0.25408 0.79267 0.50767
 H1506 H 0.23650 0.78085 0.52629
 H1507 H 0.26301 0.71485 0.45502
 H1508 H 0.24609 0.70008 0.47568
 O1509 O 0.24671 0.25905 0.95570
 O1510 O 0.21890 0.25616 0.95895
 O1511 O 0.26183 0.28424 0.99689
 O1512 O 0.26092 0.28233 1.02417
 O1513 O 0.28735 0.24221 0.98365
 O1514 O 0.28215 0.21563 0.98711
 O1515 O 0.21894 0.24574 1.04235
 O1516 O 0.22147 0.27145 1.03485
 O1517 O 0.20193 0.22201 1.00243
 O1518 O 0.20866 0.22016 0.97395
 O1519 O 0.24240 0.20480 1.02719
 O1520 O 0.27073 0.21096 1.02794
 O1521 O 0.23898 0.22771 1.04610
 O1522 O 0.26913 0.22966 1.04219
 O1523 O 0.22495 0.20203 1.00599
 O1524 O 0.22802 0.20576 0.97530
 O1525 O 0.19969 0.24260 1.01932
 O1526 O 0.20450 0.26994 1.01107
 O1527 O 0.26629 0.24048 0.95918
 O1528 O 0.26512 0.21360 0.96844
 O1529 O 0.28545 0.26286 1.00050
 O1530 O 0.27688 0.26318 1.02977
 O1531 O 0.24385 0.28199 0.97602
 O1532 O 0.21512 0.27516 0.97780
 Zr1533 Zr 0.23508 0.25948 0.97863
 O1534 O 0.21926 0.24675 0.99347
 Zr1535 Zr 0.26150 0.26272 1.00907
 O1536 O 0.24641 0.25069 1.02533
 Zr1537 Zr 0.26418 0.23302 0.98383
 O1538 O 0.24981 0.21944 0.99932
 Zr1539 Zr 0.22225 0.25311 1.01798
 O1540 O 0.23711 0.26700 1.00301
 Zr1541 Zr 0.22549 0.22318 0.99308
 O1542 O 0.24003 0.23565 0.97646
 Zr1543 Zr 0.25156 0.22698 1.02365
 O1544 O 0.26781 0.23911 1.00846
 O1545 O 0.25927 0.25655 0.98474
 O1546 O 0.22732 0.22947 1.01753
 C1547 C 0.25865 0.25077 0.95051
 C1548 C 0.25411 0.28957 0.98429
 C1549 C 0.29332 0.25385 0.99085
 C1550 C 0.22666 0.23558 1.05107
 C1551 C 0.19406 0.23060 1.01248
 C1552 C 0.23234 0.19703 1.01891
 H1553 H 0.20804 0.24873 0.98980
 H1554 H 0.25320 0.20851 0.99823
 H1555 H 0.26641 0.26266 0.97758
 H1556 H 0.24786 0.25449 1.03660
 H1557 H 0.22508 0.28075 1.02882
 H1558 H 0.25215 0.28081 1.03216
 H1559 H 0.23717 0.19894 0.97864
 H1560 H 0.25527 0.21412 0.96158
 H1561 H 0.19617 0.27022 1.01977
 H1562 H 0.21636 0.28221 0.96822
 H1563 H 0.27128 0.20402 1.01843
 H1564 H 0.28632 0.21674 0.99839
 H1565 H 0.22027 0.24529 0.95555
 H1566 H 0.20304 0.23017 0.97201
 H1567 H 0.28375 0.25372 1.02944
 H1568 H 0.26601 0.23878 1.04869
 C1569 C 0.29707 0.36442 0.80015
 C1570 C 0.30528 0.37532 0.79074
 C1571 C 0.29761 0.39024 0.78597
 N1572 N 0.30581 0.40069 0.77686
 N1573 N 0.29910 0.41436 0.77289
 C1574 C 0.28394 0.41808 0.77792
 N1575 N 0.27575 0.40763 0.78699
 N1576 N 0.28244 0.39398 0.79092
 C1577 C 0.27641 0.43326 0.77417
 C1578 C 0.28383 0.44448 0.76454
 H1579 H 0.31769 0.37330 0.78728
 H1580 H 0.26468 0.43572 0.77943
 H1581 H 0.28475 0.36714 0.80361
 H1582 H 0.29542 0.44195 0.75903
 C1583 C 0.27671 -0.15905 0.28424
 C1584 C 0.28395 -0.14779 0.27448
 C1585 C 0.27689 -0.13217 0.27241
 N1586 N 0.28409 -0.12196 0.26222
 N1587 N 0.27805 -0.10773 0.26025
 C1588 C 0.26458 -0.10310 0.26841
 N1589 N 0.25738 -0.11330 0.27867
 N1590 N 0.26343 -0.12758 0.28063
 C1591 C 0.25791 -0.08732 0.26610
 C1592 C 0.26472 -0.07736 0.25465
 H1593 H 0.29507 -0.15011 0.26807
 H1594 H 0.24757 -0.08362 0.27321
 H1595 H 0.26530 -0.15595 0.28988
 H1596 H 0.27486 -0.08144 0.24746
 C1597 C 0.79805 0.86540 0.80960
 C1598 C 0.80135 0.87419 0.79548
 C1599 C 0.79255 0.88862 0.79105
 N1600 N 0.79630 0.89605 0.77687
 N1601 N 0.78879 0.90921 0.77258
 C1602 C 0.77721 0.91551 0.78228
 N1603 N 0.77341 0.90808 0.79650
 N1604 N 0.78094 0.89487 0.80081
 C1605 C 0.76914 0.93031 0.77759
 C1606 C 0.77331 0.93804 0.76313
 H1607 H 0.81058 0.87060 0.78699
 H1608 H 0.76022 0.93532 0.78572
 H1609 H 0.78819 0.86940 0.81725
 H1610 H 0.78237 0.93288 0.75527
 C1611 C 0.42914 0.87959 0.30529
 C1612 C 0.44481 0.87491 0.30162
 C1613 C 0.44827 0.86249 0.29005
 N1614 N 0.46365 0.85967 0.28533
 N1615 N 0.46704 0.84854 0.27475
 C1616 C 0.45517 0.83985 0.26842
 N1617 N 0.43974 0.84271 0.27308
 N1618 N 0.43634 0.85389 0.28366
 C1619 C 0.45908 0.82669 0.25786
 C1620 C 0.47504 0.82235 0.25519
 H1621 H 0.45485 0.88130 0.30633
 H1622 H 0.44951 0.81918 0.25412
 H1623 H 0.41918 0.87384 0.29956
 H1624 H 0.48454 0.82951 0.25978
 C1625 C -0.03749 0.88985 0.79282
 C1626 C -0.04125 0.88058 0.77952
 C1627 C -0.03264 0.86584 0.77671
 N1628 N -0.03751 0.85653 0.76453
 N1629 N -0.03048 0.84276 0.76245
 C1630 C -0.01831 0.83778 0.77248
 N1631 N -0.01332 0.84716 0.78455
 N1632 N -0.02036 0.86093 0.78663
 C1633 C -0.01110 0.82224 0.77091
 C1634 C -0.01698 0.81180 0.75968
 H1635 H -0.05113 0.88345 0.77136
 H1636 H -0.00158 0.81871 0.77934
 H1637 H -0.02719 0.88630 0.80023
 H1638 H -0.02659 0.81538 0.75138
 C1639 C -0.05858 -0.14464 -0.03970
 C1640 C -0.04306 -0.13881 -0.03972
 C1641 C -0.03937 -0.12435 -0.03127
 N1642 N -0.02405 -0.11924 -0.03090
 N1643 N -0.02061 -0.10619 -0.02332
 C1644 C -0.03234 -0.09775 -0.01576
 N1645 N -0.04765 -0.10289 -0.01608
 N1646 N -0.05109 -0.11594 -0.02366
 C1647 C -0.02882 -0.08289 -0.00806
 C1648 C -0.01354 -0.07662 -0.00887
 H1649 H -0.03330 -0.14518 -0.04544
 H1650 H -0.03869 -0.07621 -0.00288
 H1651 H -0.06791 -0.13832 -0.03318
 H1652 H -0.00388 -0.08319 -0.01458
 C1653 C -0.04971 0.36634 0.44836
 C1654 C -0.03583 0.37383 0.44302
 C1655 C -0.03027 0.38796 0.45102
 N1656 N -0.01670 0.39494 0.44574
 N1657 N -0.01175 0.40783 0.45273
 C1658 C -0.02019 0.41422 0.46528
 N1659 N -0.03373 0.40722 0.47056
 N1660 N -0.03866 0.39435 0.46358
 C1661 C -0.01526 0.42868 0.47292
 C1662 C -0.00161 0.43666 0.46806
 H1663 H -0.02882 0.36958 0.43285
 H1664 H -0.02296 0.43340 0.48240
 H1665 H -0.05590 0.37122 0.45883
 H1666 H 0.00610 0.43196 0.45858
 C1667 C 0.45633 -0.13538 0.45264
 C1668 C 0.45050 -0.12623 0.46540
 C1669 C 0.45833 -0.11176 0.46970
 N1670 N 0.45185 -0.10261 0.48143
 N1671 N 0.45852 -0.08922 0.48500
 C1672 C 0.47190 -0.08450 0.47696
 N1673 N 0.47842 -0.09369 0.46531
 N1674 N 0.47175 -0.10706 0.46174
 C1675 C 0.47919 -0.06962 0.48038
 C1676 C 0.47282 -0.05951 0.49191
 H1677 H 0.43974 -0.12908 0.47208
 H1678 H 0.48973 -0.06646 0.47340
 H1679 H 0.46726 -0.13171 0.44661
 H1680 H 0.46232 -0.06269 0.49896
 C1681 C 0.45483 0.35241 -0.03826
 C1682 C 0.45362 0.35870 -0.02261
 C1683 C 0.46298 0.37210 -0.01777
 N1684 N 0.46120 0.37781 -0.00248
 N1685 N 0.46886 0.39045 0.00188
 C1686 C 0.47862 0.39786 -0.00886
 N1687 N 0.48057 0.39206 -0.02410
 N1688 N 0.47289 0.37940 -0.02848
 C1689 C 0.48607 0.41251 -0.00453
 C1690 C 0.48235 0.41970 0.01018
 H1691 H 0.44559 0.35403 -0.01351
 H1692 H 0.49337 0.41833 -0.01359
 H1693 H 0.46395 0.35702 -0.04636
 H1694 H 0.47469 0.41393 0.01898
 C1695 C 0.80886 0.38591 0.45160
 C1696 C 0.79372 0.37977 0.44869
 C1697 C 0.78860 0.36539 0.45674
 N1698 N 0.77427 0.35919 0.45273
 N1699 N 0.76966 0.34598 0.45964
 C1700 C 0.77922 0.33851 0.47084
 N1701 N 0.79348 0.34475 0.47492
 N1702 N 0.79810 0.35793 0.46799
 C1703 C 0.77462 0.32371 0.47827
 C1704 C 0.76089 0.31593 0.47348
 H1705 H 0.78532 0.38539 0.44031
 H1706 H 0.78269 0.31849 0.48730
 H1707 H 0.81663 0.38014 0.46054
 H1708 H 0.75295 0.32101 0.46424
 C1709 C 0.79025 0.89678 -0.03803
 C1710 C 0.77562 0.88948 -0.04083
 C1711 C 0.77084 0.87555 -0.03170
 N1712 N 0.75723 0.86826 -0.03608
 N1713 N 0.75304 0.85522 -0.02854
 C1714 C 0.76229 0.84900 -0.01630
 N1715 N 0.77582 0.85639 -0.01179
 N1716 N 0.78003 0.86942 -0.01937
 C1717 C 0.75828 0.83417 -0.00850
 C1718 C 0.74591 0.82509 -0.01437
 H1719 H 0.76741 0.89346 -0.05030
 H1720 H 0.76593 0.82985 0.00138
 H1721 H 0.79763 0.89239 -0.02796
 H1722 H 0.73855 0.82928 -0.02453
 C1723 C 0.78795 0.31216 0.35820
 C1724 C 0.78705 0.29670 0.36310
 C1725 C 0.77752 0.29170 0.37731
 N1726 N 0.77886 0.27688 0.38280
 N1727 N 0.77121 0.27235 0.39631
 C1728 C 0.76186 0.28246 0.40482
 N1729 N 0.76030 0.29722 0.39918
 N1730 N 0.76800 0.30177 0.38569
 C1731 C 0.75450 0.27800 0.42052
 C1732 C 0.75877 0.26423 0.42862
 H1733 H 0.79403 0.28794 0.35682
 H1734 H 0.74694 0.28646 0.42664
 H1735 H 0.78008 0.32060 0.36393
 H1736 H 0.76683 0.25606 0.42273
 C1737 C 0.80638 0.80027 -0.13113
 C1738 C 0.79065 0.80103 -0.12510
 C1739 C 0.78565 0.79313 -0.10986
 N1740 N 0.77011 0.79437 -0.10489
 N1741 N 0.76537 0.78775 -0.09093
 C1742 C 0.77598 0.77958 -0.08136
 N1743 N 0.79153 0.77824 -0.08636
 N1744 N 0.79629 0.78488 -0.10035
 C1745 C 0.77098 0.77287 -0.06545
 C1746 C 0.75546 0.77534 -0.05933
 H1747 H 0.78148 0.80756 -0.13179
 H1748 H 0.77991 0.76678 -0.05799
 H1749 H 0.81512 0.79281 -0.12491
 H1750 H 0.74676 0.78182 -0.06673
 C1751 C 0.29795 0.43512 0.89109
 C1752 C 0.29750 0.45042 0.88558
 C1753 C 0.28928 0.45519 0.87025
 N1754 N 0.28854 0.47032 0.86584
 N1755 N 0.28136 0.47483 0.85192
 C1756 C 0.27461 0.46439 0.84187
 N1757 N 0.27529 0.44925 0.84630
 N1758 N 0.28247 0.44473 0.86025
 C1759 C 0.26739 0.46923 0.82603
 C1760 C 0.26769 0.48457 0.82073
 H1761 H 0.30287 0.45931 0.89286
 H1762 H 0.26289 0.46048 0.81797
 H1763 H 0.29158 0.42661 0.88412
 H1764 H 0.27259 0.49315 0.82876
 C1765 C 0.31173 -0.05390 0.38122
 C1766 C 0.29705 -0.05653 0.37347
 C1767 C 0.29238 -0.04905 0.35777
 N1768 N 0.27791 -0.05219 0.35099
 N1769 N 0.27348 -0.04577 0.33672
 C1770 C 0.28332 -0.03591 0.32863
 N1771 N 0.29778 -0.03271 0.33543
 N1772 N 0.30224 -0.03916 0.34973
 C1773 C 0.27858 -0.02906 0.31260
 C1774 C 0.26431 -0.03315 0.30489
 H1775 H 0.28844 -0.06413 0.37911
 H1776 H 0.28667 -0.02117 0.30654
 H1777 H 0.31973 -0.04554 0.37579
 H1778 H 0.25655 -0.04136 0.31093
 C1779 C -0.05038 -0.05180 -0.14453
 C1780 C -0.03717 -0.05641 -0.13476
 C1781 C -0.03395 -0.04982 -0.11860
 N1782 N -0.02126 -0.05529 -0.10962
 N1783 N -0.01820 -0.04969 -0.09484
 C1784 C -0.02776 -0.03839 -0.08850
 N1785 N -0.04044 -0.03288 -0.09749
 N1786 N -0.04351 -0.03850 -0.11227
 C1787 C -0.02463 -0.03209 -0.07219
 C1788 C -0.01208 -0.03754 -0.06212
 H1789 H -0.02882 -0.06534 -0.13854
 H1790 H -0.03256 -0.02290 -0.06799
 H1791 H -0.05817 -0.04266 -0.13994
 H1792 H -0.00422 -0.04683 -0.06620
 C1793 C -0.03570 0.46008 0.34499
 C1794 C -0.02186 0.45695 0.35429
 C1795 C -0.01849 0.46554 0.36934
 N1796 N -0.00472 0.46252 0.37782
 N1797 N -0.00181 0.46973 0.39178
 C1798 C -0.01255 0.48023 0.39782
 N1799 N -0.02629 0.48332 0.38929
 N1800 N -0.02919 0.47612 0.37530
 C1801 C -0.00983 0.48750 0.41378
 C1802 C 0.00383 0.48374 0.42301
 H1803 H -0.01331 0.44801 0.35091
 H1804 H -0.01912 0.49500 0.41878
 H1805 H -0.04330 0.46968 0.34884
 H1806 H 0.01291 0.47607 0.41789
 C1807 C 0.44824 -0.06287 0.36896
 C1808 C 0.44992 -0.04757 0.37366
 C1809 C 0.45866 -0.04330 0.38853
 N1810 N 0.45861 -0.02835 0.39317
 N1811 N 0.46592 -0.02429 0.40694
 C1812 C 0.47359 -0.03503 0.41657
 N1813 N 0.47378 -0.04998 0.41185
 N1814 N 0.46643 -0.05406 0.39809
 C1815 C 0.48110 -0.03075 0.43214
 C1816 C 0.47882 -0.01609 0.43863
 H1817 H 0.44449 -0.03829 0.36642
 H1818 H 0.48777 -0.03954 0.43904
 H1819 H 0.45463 -0.07188 0.37580
 H1820 H 0.47161 -0.00753 0.43197
 C1821 C 0.44708 0.45360 -0.12728
 C1822 C 0.46037 0.44942 -0.11762
 C1823 C 0.46219 0.45473 -0.10071
 N1824 N 0.47499 0.44967 -0.09168
 N1825 N 0.47689 0.45431 -0.07633
 C1826 C 0.46607 0.46419 -0.06942
 N1827 N 0.45325 0.46929 -0.07845
 N1828 N 0.45133 0.46462 -0.09382
 C1829 C 0.46824 0.46943 -0.05249
 C1830 C 0.48090 0.46367 -0.04286
 H1831 H 0.46995 0.44219 -0.12243
 H1832 H 0.45986 0.47793 -0.04761
 H1833 H 0.43807 0.46138 -0.12221
 H1834 H 0.48902 0.45499 -0.04782
 C1835 C 0.45565 0.80695 0.38851
 C1836 C 0.44748 0.79894 0.37647
 C1837 C 0.45504 0.79536 0.36062
 N1838 N 0.44696 0.78708 0.34942
 N1839 N 0.45351 0.78408 0.33488
 C1840 C 0.46835 0.78931 0.33097
 N1841 N 0.47642 0.79763 0.34215
 N1842 N 0.46989 0.80060 0.35671
 C1843 C 0.47567 0.78608 0.31493
 C1844 C 0.46854 0.77609 0.30400
 H1845 H 0.43506 0.79582 0.37821
 H1846 H 0.48702 0.79133 0.31187
 H1847 H 0.46796 0.81020 0.38611
 H1848 H 0.45748 0.77048 0.30742
 C1849 C -0.05067 0.79074 0.90050
 C1850 C -0.03835 0.79632 0.89051
 C1851 C -0.03361 0.78821 0.87539
 N1852 N -0.02221 0.79416 0.86537
 N1853 N -0.01829 0.78720 0.85142
 C1854 C -0.02562 0.77402 0.84694
 N1855 N -0.03695 0.76803 0.85699
 N1856 N -0.04087 0.77498 0.87093
 C1857 C -0.02179 0.76645 0.83130
 C1858 C -0.01054 0.77248 0.82045
 H1859 H -0.03244 0.80698 0.89318
 H1860 H -0.02824 0.75618 0.82811
 H1861 H -0.05596 0.77996 0.89691
 H1862 H -0.00417 0.78277 0.82378
 C1863 C 0.34215 0.78057 0.28096
 C1864 C 0.35241 0.78787 0.26988
 C1865 C 0.36911 0.78235 0.26735
 N1866 N 0.37862 0.78966 0.25633
 N1867 N 0.39385 0.78503 0.25418
 C1868 C 0.40017 0.77294 0.26300
 N1869 N 0.39066 0.76562 0.27402
 N1870 N 0.37542 0.77024 0.27615
 C1871 C 0.41709 0.76790 0.26095
 C1872 C 0.42715 0.77506 0.24965
 H1873 H 0.34838 0.79791 0.26291
 H1874 H 0.42172 0.75851 0.26860
 H1875 H 0.34655 0.77015 0.28710
 H1876 H 0.42239 0.78439 0.24199
 C1877 C -0.13572 0.80768 0.79927
 C1878 C -0.12883 0.79286 0.80067
 C1879 C -0.11405 0.78819 0.79185
 N1880 N -0.10749 0.77391 0.79456
 N1881 N -0.09391 0.76957 0.78711
 C1882 C -0.08635 0.77931 0.77659
 N1883 N -0.09297 0.79356 0.77377
 N1884 N -0.10655 0.79792 0.78126
 C1885 C -0.07086 0.77487 0.76890
 C1886 C -0.06249 0.76140 0.77359
 H1887 H -0.13430 0.78426 0.80847
 H1888 H -0.06541 0.78288 0.76036
 H1889 H -0.13038 0.81579 0.79073
 H1890 H -0.06772 0.75382 0.78272
 C1891 C 0.88524 0.31065 0.45147
 C1892 C 0.87818 0.29638 0.44899
 C1893 C 0.86300 0.29208 0.45704
 N1894 N 0.85632 0.27828 0.45385
 N1895 N 0.84247 0.27435 0.46083
 C1896 C 0.83479 0.28406 0.47130
 N1897 N 0.84150 0.29783 0.47454
 N1898 N 0.85534 0.30177 0.46755
 C1899 C 0.81926 0.28012 0.47879
 C1900 C 0.81117 0.26667 0.47500
 H1901 H 0.88379 0.28797 0.44105
 H1902 H 0.81375 0.28838 0.48701
 H1903 H 0.87960 0.31847 0.46009
 H1904 H 0.81656 0.25854 0.46655
 C1905 C 0.88377 0.79106 -0.04024
 C1906 C 0.87466 0.79609 -0.02692
 C1907 C 0.85873 0.78985 -0.02330
 N1908 N 0.84956 0.79624 -0.01135
 N1909 N 0.83480 0.79119 -0.00840
 C1910 C 0.82868 0.77955 -0.01730
 N1911 N 0.83790 0.77305 -0.02915
 N1912 N 0.85265 0.77813 -0.03213
 C1913 C 0.81225 0.77417 -0.01451
 C1914 C 0.80181 0.78156 -0.00367
 H1915 H 0.87881 0.80516 -0.01914
 H1916 H 0.80817 0.76446 -0.02149
 H1917 H 0.87936 0.78152 -0.04729
 H1918 H 0.80586 0.79144 0.00308
 C1919 C -0.14422 -0.04943 -0.05477
 C1920 C -0.13433 -0.05379 -0.04154
 C1921 C -0.11846 -0.04699 -0.03894
 N1922 N -0.10954 -0.05159 -0.02578
 N1923 N -0.09513 -0.04566 -0.02314
 C1924 C -0.08905 -0.03490 -0.03356
 N1925 N -0.09796 -0.03028 -0.04676
 N1926 N -0.11241 -0.03622 -0.04940
 C1927 C -0.07309 -0.02835 -0.03055
 C1928 C -0.06417 -0.03295 -0.01680
 H1929 H -0.13797 -0.06237 -0.03267
 H1930 H -0.06837 -0.01992 -0.03911
 H1931 H -0.13975 -0.04064 -0.06308
 H1932 H -0.06914 -0.04138 -0.00839
 C1933 C -0.12768 0.44292 0.44696
 C1934 C -0.11856 0.45530 0.44127
 C1935 C -0.10309 0.45911 0.44908
 N1936 N -0.09464 0.47137 0.44357
 N1937 N -0.08063 0.47485 0.45046
 C1938 C -0.07451 0.46618 0.46312
 N1939 N -0.08295 0.45392 0.46861
 N1940 N -0.09696 0.45046 0.46174
 C1941 C -0.05896 0.46980 0.47079
 C1942 C -0.04997 0.48238 0.46566
 H1943 H -0.12252 0.46239 0.43099
 H1944 H -0.05446 0.46232 0.48059
 H1945 H -0.12292 0.43650 0.45746
 H1946 H -0.05456 0.48978 0.45584
 C1947 C 0.36427 -0.05459 0.45480
 C1948 C 0.37195 -0.04063 0.45153
 C1949 C 0.38543 -0.03520 0.46161
 N1950 N 0.39244 -0.02160 0.45779
 N1951 N 0.40498 -0.01675 0.46637
 C1952 C 0.41100 -0.02529 0.47914
 N1953 N 0.40393 -0.03884 0.48304
 N1954 N 0.39138 -0.04370 0.47445
 C1955 C 0.42551 -0.02056 0.48809
 C1956 C 0.43400 -0.00741 0.48365
 H1957 H 0.36834 -0.03329 0.44132
 H1958 H 0.43030 -0.02828 0.49754
 H1959 H 0.36816 -0.06104 0.46564
 H1960 H 0.42931 0.00012 0.47398
 C1961 C 0.35874 0.44245 -0.04299
 C1962 C 0.36667 0.43859 -0.02826
 C1963 C 0.38130 0.44632 -0.02274
 N1964 N 0.38855 0.44158 -0.00857
 N1965 N 0.40205 0.44805 -0.00352
 C1966 C 0.40883 0.45954 -0.01245
 N1967 N 0.40154 0.46435 -0.02659
 N1968 N 0.38803 0.45786 -0.03166
 C1969 C 0.42400 0.46651 -0.00727
 C1970 C 0.43253 0.46130 0.00657
 H1971 H 0.36246 0.42952 -0.02027
 H1972 H 0.42883 0.47563 -0.01490
 H1973 H 0.36328 0.45212 -0.05003
 H1974 H 0.42779 0.45205 0.01408
 C1975 C 0.40096 0.46113 0.79480
 C1976 C 0.39255 0.47462 0.79902
 C1977 C 0.37743 0.47940 0.79089
 N1978 N 0.36828 0.49100 0.79725
 N1979 N 0.35404 0.49483 0.79066
 C1980 C 0.34848 0.48723 0.77744
 N1981 N 0.35773 0.47578 0.77095
 N1982 N 0.37192 0.47190 0.77758
 C1983 C 0.33248 0.49066 0.77048
 C1984 C 0.32124 0.50039 0.77803
 H1985 H 0.39653 0.48159 0.80906
 H1986 H 0.32913 0.48451 0.75957
 H1987 H 0.39707 0.45490 0.78412
 H1988 H 0.32444 0.50637 0.78911
 C1989 C 0.38205 -0.04756 0.30864
 C1990 C 0.37762 -0.04823 0.29217
 C1991 C 0.36287 -0.04088 0.28573
 N1992 N 0.35768 -0.04449 0.27052
 N1993 N 0.34364 -0.03897 0.26488
 C1994 C 0.33433 -0.02959 0.27427
 N1995 N 0.33964 -0.02575 0.28937
 N1996 N 0.35365 -0.03134 0.29505
 C1997 C 0.31842 -0.02416 0.26867
 C1998 C 0.31085 -0.03033 0.25505
 H1999 H 0.38455 -0.05536 0.28385
 H2000 H 0.31207 -0.01582 0.27618
 H2001 H 0.37592 -0.03954 0.31669
 H2002 H 0.31696 -0.03907 0.24785
 C2003 C 0.10966 0.54973 0.70495
 C2004 C 0.12140 0.53999 0.69816
 C2005 C 0.13610 0.53538 0.70743
 N2006 N 0.14738 0.52595 0.70055
 N2007 N 0.16091 0.52215 0.70862
 C2008 C 0.16370 0.52764 0.72387
 N2009 N 0.15241 0.53702 0.73076
 N2010 N 0.13888 0.54080 0.72271
 C2011 C 0.17887 0.52404 0.73275
 C2012 C 0.19073 0.51421 0.72639
 H2013 H 0.12029 0.53618 0.68566
 H2014 H 0.18092 0.52964 0.74433
 H2015 H 0.11148 0.55348 0.71742
 H2016 H 0.18853 0.50856 0.71487
 C2017 C 0.10153 0.04997 0.21296
 C2018 C 0.10709 0.03465 0.21259
 C2019 C 0.12317 0.02973 0.21838
 N2020 N 0.12864 0.01523 0.21519
 N2021 N 0.14350 0.01071 0.21947
 C2022 C 0.15343 0.02054 0.22716
 N2023 N 0.14790 0.03499 0.23054
 N2024 N 0.13306 0.03954 0.22617
 C2025 C 0.17003 0.01589 0.23150
 C2026 C 0.17729 0.00239 0.22565
 H2027 H 0.09977 0.02591 0.20714
 H2028 H 0.17695 0.02369 0.23885
 H2029 H 0.10841 0.05839 0.21952
 H2030 H 0.17058 -0.00509 0.21772
 C2031 C 0.64515 0.70992 0.22438
 C2032 C 0.63710 0.72395 0.22143
 C2033 C 0.62047 0.72680 0.22691
 N2034 N 0.61283 0.74022 0.22264
 N2035 N 0.59753 0.74274 0.22680
 C2036 C 0.58928 0.73196 0.23541
 N2037 N 0.59697 0.71858 0.23985
 N2038 N 0.61229 0.71604 0.23565
 C2039 C 0.57213 0.73443 0.23933
 C2040 C 0.56352 0.74692 0.23258
 H2041 H 0.64288 0.73309 0.21464
 H2042 H 0.56607 0.72596 0.24685
 H2043 H 0.63939 0.70135 0.23205
 H2044 H 0.56965 0.75502 0.22463
 C2045 C 0.14448 0.70470 0.69474
 C2046 C 0.13743 0.70361 0.71020
 C2047 C 0.12189 0.71125 0.71388
 N2048 N 0.11576 0.71031 0.72924
 N2049 N 0.10171 0.71714 0.73278
 C2050 C 0.09326 0.72520 0.72111
 N2051 N 0.09941 0.72617 0.70574
 N2052 N 0.11347 0.71934 0.70219
 C2053 C 0.07748 0.73237 0.72483
 C2054 C 0.07055 0.73067 0.74026
 H2055 H 0.14362 0.69750 0.72008
 H2056 H 0.07091 0.73838 0.71511
 H2057 H 0.13840 0.71162 0.68534
 H2058 H 0.07710 0.72434 0.74977
 C2059 C 0.60888 0.19552 0.54629
 C2060 C 0.61610 0.20961 0.54935
 C2061 C 0.63113 0.21417 0.54118
 N2062 N 0.63788 0.22784 0.54477
 N2063 N 0.65159 0.23202 0.53767
 C2064 C 0.65906 0.22267 0.52668
 N2065 N 0.65228 0.20903 0.52305
 N2066 N 0.63858 0.20485 0.53016
 C2067 C 0.67440 0.22692 0.51898
 C2068 C 0.68241 0.24035 0.52297
 H2069 H 0.61069 0.21767 0.55780
 H2070 H 0.67977 0.21898 0.51032
 H2071 H 0.61427 0.18809 0.53715
 H2072 H 0.67714 0.24817 0.53181
 C2073 C 0.60254 0.68862 0.04029
 C2074 C 0.60690 0.70402 0.04136
 C2075 C 0.62216 0.70968 0.03478
 N2076 N 0.62635 0.72446 0.03749
 N2077 N 0.64040 0.72967 0.03219
 C2078 C 0.65079 0.72030 0.02395
 N2079 N 0.64654 0.70555 0.02109
 N2080 N 0.63249 0.70032 0.02644
 C2081 C 0.66657 0.72581 0.01857
 C2082 C 0.67220 0.74008 0.02339
 H2083 H 0.59911 0.71228 0.04744
 H2084 H 0.67414 0.71823 0.01132
 H2085 H 0.61004 0.68079 0.03325
 H2086 H 0.66477 0.74738 0.03111
 C2087 C 0.14621 0.03815 0.02694
 C2088 C 0.13682 0.02654 0.03382
 C2089 C 0.12053 0.02345 0.02775
 N2090 N 0.11130 0.01315 0.03587
 N2091 N 0.09632 0.01060 0.03095
 C2092 C 0.08998 0.01824 0.01772
 N2093 N 0.09924 0.02847 0.00950
 N2094 N 0.11424 0.03106 0.01445
 C2095 C 0.07334 0.01557 0.01239
 C2096 C 0.06338 0.00590 0.02137
 H2097 H 0.14080 0.01995 0.04445
 H2098 H 0.06890 0.02129 0.00133
 H2099 H 0.14130 0.04433 0.01635
 H2100 H 0.06795 0.00037 0.03248
 C2101 C 0.12450 0.56592 0.56686
 C2102 C 0.12371 0.56094 0.55074
 C2103 C 0.11232 0.54918 0.54571
 N2104 N 0.11230 0.54430 0.53001
 N2105 N 0.10219 0.53350 0.52531
 C2106 C 0.09182 0.52707 0.53618
 N2107 N 0.09194 0.53184 0.55193
 N2108 N 0.10205 0.54267 0.55663
 C2109 C 0.07961 0.51622 0.53078
 C2110 C 0.07656 0.51425 0.51420
 H2111 H 0.13245 0.56483 0.54184
 H2112 H 0.07130 0.51172 0.53980
 H2113 H 0.11618 0.56132 0.57581
 H2114 H 0.08429 0.51963 0.50519
 C2115 C 0.64734 0.04630 0.52890
 C2116 C 0.63862 0.03439 0.53612
 C2117 C 0.62351 0.02896 0.52896
 N2118 N 0.61489 0.01807 0.53697
 N2119 N 0.60076 0.01364 0.53110
 C2120 C 0.59474 0.01993 0.51697
 N2121 N 0.60343 0.03071 0.50888
 N2122 N 0.61755 0.03513 0.51475
 C2123 C 0.57867 0.01602 0.51089
 C2124 C 0.56877 0.00567 0.51911
 H2125 H 0.64222 0.02950 0.54786
 H2126 H 0.57416 0.02224 0.50016
 H2127 H 0.64296 0.05137 0.51748
 H2128 H 0.57334 -0.00070 0.52971
 C2129 C 0.63103 0.55787 0.04529
 C2130 C 0.62694 0.54243 0.04763
 C2131 C 0.61153 0.53619 0.04221
 N2132 N 0.60756 0.52166 0.04683
 N2133 N 0.59339 0.51595 0.04266
 C2134 C 0.58268 0.52455 0.03367
 N2135 N 0.58671 0.53904 0.02890
 N2136 N 0.60086 0.54478 0.03314
 C2137 C 0.56681 0.51857 0.02934
 C2138 C 0.56098 0.50490 0.03611
 H2139 H 0.63506 0.53456 0.05410
 H2140 H 0.55924 0.52551 0.02117
 H2141 H 0.62328 0.56532 0.03782
 H2142 H 0.56829 0.49828 0.04480
 C2143 C 0.04352 0.04145 0.14592
 C2144 C 0.03056 0.04480 0.13541
 C2145 C 0.02756 0.03536 0.12084
 N2146 N 0.01484 0.03879 0.11091
 N2147 N 0.01226 0.03060 0.09749
 C2148 C 0.02230 0.01866 0.09347
 N2149 N 0.03498 0.01520 0.10343
 N2150 N 0.03756 0.02338 0.11685
 C2151 C 0.01993 0.00994 0.07830
 C2152 C 0.00730 0.01359 0.06760
 H2153 H 0.02248 0.05449 0.13750
 H2154 H 0.02864 0.00100 0.07517
 H2155 H 0.05084 0.03133 0.14312
 H2156 H -0.00128 0.02261 0.07085
 C2157 C 0.04989 0.55473 0.63479
 C2158 C 0.05188 0.54003 0.62819
 C2159 C 0.04387 0.53577 0.61272
 N2160 N 0.04583 0.52132 0.60675
 N2161 N 0.03874 0.51738 0.59278
 C2162 C 0.02935 0.52772 0.58425
 N2163 N 0.02735 0.54215 0.59024
 N2164 N 0.03444 0.54609 0.60420
 C2165 C 0.02200 0.52376 0.56836
 C2166 C 0.02489 0.50953 0.56105
 H2167 H 0.05901 0.53128 0.63460
 H2168 H 0.01520 0.53264 0.56174
 H2169 H 0.04213 0.56296 0.62832
 H2170 H 0.03216 0.50090 0.56754
 C2171 C 0.54134 0.05939 0.64563
 C2172 C 0.54588 0.04588 0.63751
 C2173 C 0.53783 0.04121 0.62230
 N2174 N 0.54227 0.02781 0.61503
 N2175 N 0.53543 0.02366 0.60103
 C2176 C 0.52390 0.03276 0.59375
 N2177 N 0.51943 0.04614 0.60104
 N2178 N 0.52625 0.05028 0.61506
 C2179 C 0.51671 0.02862 0.57795
 C2180 C 0.52106 0.01505 0.57000
 H2181 H 0.55553 0.03845 0.64203
 H2182 H 0.50826 0.03670 0.57220
 H2183 H 0.53111 0.06589 0.64067
 H2184 H 0.52946 0.00698 0.57586
 C2185 C 0.55079 0.56055 0.14145
 C2186 C 0.54979 0.54453 0.14135
 C2187 C 0.53879 0.53701 0.12993
 N2188 N 0.53985 0.52157 0.12758
 N2189 N 0.53035 0.51489 0.11670
 C2190 C 0.51935 0.52339 0.10790
 N2191 N 0.51808 0.53876 0.11050
 N2192 N 0.52761 0.54544 0.12130
 C2193 C 0.50994 0.51659 0.09468
 C2194 C 0.51376 0.50204 0.08869
 H2195 H 0.55697 0.53739 0.14965
 H2196 H 0.50140 0.52399 0.08810
 H2197 H 0.54329 0.56718 0.13291
 H2198 H 0.52275 0.49489 0.09497
 C2199 C 0.18750 0.57027 0.62894
 C2200 C 0.20398 0.56774 0.63108
 C2201 C 0.21009 0.55708 0.64392
 N2202 N 0.22606 0.55616 0.64732
 N2203 N 0.23164 0.54637 0.65883
 C2204 C 0.22146 0.53701 0.66716
 N2205 N 0.20554 0.53778 0.66358
 N2206 N 0.19996 0.54763 0.65217
 C2207 C 0.22721 0.52689 0.68059
 C2208 C 0.24198 0.52921 0.68809
 H2209 H 0.21251 0.57276 0.62264
 H2210 H 0.21884 0.51890 0.68605
 H2211 H 0.17931 0.56494 0.63756
 H2212 H 0.24982 0.53805 0.68333
 C2213 C 0.21167 0.03670 0.08878
 C2214 C 0.20629 0.02442 0.09850
 C2215 C 0.21341 0.02071 0.11466
 N2216 N 0.20730 0.00910 0.12388
 N2217 N 0.21311 0.00596 0.13880
 C2218 C 0.22526 0.01432 0.14509
 N2219 N 0.23145 0.02589 0.13583
 N2220 N 0.22562 0.02904 0.12089
 C2221 C 0.23140 0.01120 0.16178
 C2222 C 0.22473 -0.00018 0.17173
 H2223 H 0.19629 0.01752 0.09479
 H2224 H 0.24103 0.01818 0.16641
 H2225 H 0.22202 0.04284 0.09320
 H2226 H 0.21506 -0.00704 0.16697
 C2227 C 0.71484 0.20272 0.64615
 C2228 C 0.71394 0.21760 0.63940
 C2229 C 0.72102 0.22141 0.62337
 N2230 N 0.71787 0.23542 0.61633
 N2231 N 0.72344 0.23880 0.60144
 C2232 C 0.73242 0.22831 0.59304
 N2233 N 0.73576 0.21437 0.60017
 N2234 N 0.73013 0.21097 0.61505
 C2235 C 0.73796 0.23161 0.57627
 C2236 C 0.73238 0.24453 0.56743
 H2237 H 0.70738 0.22672 0.64554
 H2238 H 0.74579 0.22320 0.57042
 H2239 H 0.72217 0.19409 0.64001
 H2240 H 0.72408 0.25261 0.57314
 C2241 C 0.70979 0.71762 0.16072
 C2242 C 0.70066 0.72630 0.14939
 C2243 C 0.70707 0.73071 0.13322
 N2244 N 0.69773 0.73907 0.12257
 N2245 N 0.70310 0.74259 0.10763
 C2246 C 0.71801 0.73785 0.10277
 N2247 N 0.72738 0.72954 0.11344
 N2248 N 0.72202 0.72604 0.12839
 C2249 C 0.72392 0.74121 0.08613
 C2250 C 0.71498 0.75017 0.07494
 H2251 H 0.68820 0.72923 0.15184
 H2252 H 0.73552 0.73641 0.08260
 H2253 H 0.72210 0.71454 0.15757
 H2254 H 0.70355 0.75525 0.07864
 C2255 C 0.53825 0.69113 0.10460
 C2256 C 0.54120 0.70609 0.10994
 C2257 C 0.53394 0.71236 0.12497
 N2258 N 0.53830 0.72642 0.13037
 N2259 N 0.53208 0.73213 0.14412
 C2260 C 0.52122 0.72398 0.15294
 N2261 N 0.51681 0.70996 0.14749
 N2262 N 0.52306 0.70424 0.13378
 C2263 C 0.51436 0.72982 0.16830
 C2264 C 0.51943 0.74328 0.17582
 H2265 H 0.54911 0.71357 0.10317
 H2266 H 0.50536 0.72282 0.17426
 H2267 H 0.52971 0.68426 0.11138
 H2268 H 0.52874 0.75013 0.17020
 C2269 C 0.05337 0.68017 0.61948
 C2270 C 0.05174 0.69510 0.62556
 C2271 C 0.04328 0.69881 0.64094
 N2272 N 0.04250 0.71368 0.64581
 N2273 N 0.03540 0.71743 0.65985
 C2274 C 0.02875 0.70647 0.66963
 N2275 N 0.02940 0.69156 0.66471
 N2276 N 0.03655 0.68779 0.65062
 C2277 C 0.02153 0.71067 0.68558
 C2278 C 0.02312 0.72556 0.69158
 H2279 H 0.05677 0.70466 0.61878
 H2280 H 0.01580 0.70189 0.69299
 H2281 H 0.04727 0.67085 0.62571
 H2282 H 0.02955 0.73394 0.68425
 C2283 C 0.56016 0.63415 0.18279
 C2284 C 0.55881 0.64015 0.19846
 C2285 C 0.54836 0.65359 0.20179
 N2286 N 0.54601 0.65806 0.21747
 N2287 N 0.53610 0.66986 0.22076
 C2288 C 0.52809 0.67756 0.20852
 N2289 N 0.53044 0.67309 0.19283
 N2290 N 0.54036 0.66128 0.18953
 C2291 C 0.51775 0.69104 0.21201
 C2292 C 0.51672 0.69687 0.22777
 H2293 H 0.56425 0.63405 0.20880
 H2294 H 0.51221 0.69733 0.20183
 H2295 H 0.55388 0.63992 0.17272
 H2296 H 0.52288 0.69086 0.23777
 C2297 C 0.04541 0.61071 0.70198
 C2298 C 0.05167 0.61962 0.71455
 C2299 C 0.04344 0.63377 0.72026
 N2300 N 0.05014 0.64220 0.73230
 N2301 N 0.04307 0.65525 0.73727
 C2302 C 0.02900 0.66035 0.73038
 N2303 N 0.02227 0.65189 0.71841
 N2304 N 0.02933 0.63884 0.71345
 C2305 C 0.02136 0.67509 0.73511
 C2306 C 0.02779 0.68458 0.74704
 H2307 H 0.06317 0.61666 0.72008
 H2308 H 0.01069 0.67888 0.72840
 H2309 H 0.03411 0.61444 0.69641
 H2310 H 0.03839 0.68078 0.75385
 C2311 C 0.03443 0.12886 0.04679
 C2312 C 0.03710 0.11982 0.03294
 C2313 C 0.02847 0.10542 0.03006
 N2314 N 0.03155 0.09738 0.01624
 N2315 N 0.02447 0.08400 0.01363
 C2316 C 0.01400 0.07810 0.02473
 N2317 N 0.01078 0.08619 0.03851
 N2318 N 0.01788 0.09961 0.04113
 C2319 C 0.00697 0.06278 0.02234
 C2320 C 0.01174 0.05365 0.00921
 H2321 H 0.04574 0.12307 0.02372
 H2322 H -0.00099 0.05819 0.03163
 H2323 H 0.02485 0.12541 0.05500
 H2324 H 0.02011 0.05825 0.00031
 C2325 C 0.06731 0.62911 0.54764
 C2326 C 0.05245 0.62184 0.54815
 C2327 C 0.04899 0.60802 0.53851
 N2328 N 0.03429 0.60156 0.53963
 N2329 N 0.03098 0.58890 0.53130
 C2330 C 0.04223 0.58221 0.52147
 N2331 N 0.05693 0.58871 0.52029
 N2332 N 0.06025 0.60138 0.52864
 C2333 C 0.03888 0.56782 0.51272
 C2334 C 0.02442 0.56012 0.51486
 H2335 H 0.04284 0.62645 0.55567
 H2336 H 0.04830 0.56276 0.50523
 H2337 H 0.07641 0.62484 0.53924
 H2338 H 0.01525 0.56508 0.52274
 C2339 C 0.54234 0.13914 0.54956
 C2340 C 0.54935 0.12839 0.53903
 C2341 C 0.54131 0.11395 0.53501
 N2342 N 0.54858 0.10373 0.52484
 N2343 N 0.54174 0.09035 0.52158
 C2344 C 0.52737 0.08669 0.52840
 N2345 N 0.52008 0.09693 0.53853
 N2346 N 0.52691 0.11032 0.54176
 C2347 C 0.51993 0.07175 0.52536
 C2348 C 0.52677 0.06106 0.51470
 H2349 H 0.56132 0.13003 0.53424
 H2350 H 0.50896 0.06903 0.53186
 H2351 H 0.53052 0.13682 0.55449
 H2352 H 0.53757 0.06395 0.50799
 C2353 C 0.54395 0.62590 0.04560
 C2354 C 0.53046 0.61791 0.05095
 C2355 C 0.52685 0.60243 0.04488
 N2356 N 0.51405 0.59474 0.05093
 N2357 N 0.51091 0.58056 0.04590
 C2358 C 0.52045 0.57353 0.03460
 N2359 N 0.53319 0.58125 0.02847
 N2360 N 0.53634 0.59543 0.03351
 C2361 C 0.51747 0.55764 0.02939
 C2362 C 0.50531 0.54890 0.03637
 H2363 H 0.52238 0.62280 0.05994
 H2364 H 0.52547 0.55253 0.02041
 H2365 H 0.55144 0.62060 0.03629
 H2366 H 0.49753 0.55402 0.04555
 C2367 C 0.69811 0.11414 0.53565
 C2368 C 0.70991 0.12368 0.54208
 C2369 C 0.71241 0.13946 0.53582
 N2370 N 0.72406 0.14813 0.54254
 N2371 N 0.72655 0.16243 0.53707
 C2372 C 0.71746 0.16862 0.52468
 N2373 N 0.70579 0.15996 0.51797
 N2374 N 0.70330 0.14565 0.52344
 C2375 C 0.72020 0.18435 0.51841
 C2376 C 0.73228 0.19351 0.52472
 H2377 H 0.71766 0.11986 0.55201
 H2378 H 0.71267 0.18870 0.50845
 H2379 H 0.69080 0.11883 0.52567
 H2380 H 0.73979 0.18910 0.53466
 C2381 C 0.69010 0.62077 0.04640
 C2382 C 0.70080 0.63085 0.05373
 C2383 C 0.70476 0.64587 0.04611
 N2384 N 0.71522 0.65532 0.05362
 N2385 N 0.71863 0.66905 0.04706
 C2386 C 0.71170 0.67387 0.03273
 N2387 N 0.70127 0.66441 0.02521
 N2388 N 0.69787 0.65069 0.03175
 C2389 C 0.71504 0.68917 0.02547
 C2390 C 0.72575 0.69933 0.03258
 H2391 H 0.70609 0.62808 0.06554
 H2392 H 0.70866 0.69260 0.01437
 H2393 H 0.68480 0.62423 0.03474
 H2394 H 0.73216 0.69583 0.04364
 C2395 C 0.21218 0.64651 0.70623
 C2396 C 0.20381 0.63515 0.71478
 C2397 C 0.21178 0.62052 0.71993
 N2398 N 0.20335 0.60956 0.72806
 N2399 N 0.21030 0.59605 0.73217
 C2400 C 0.22593 0.59299 0.72825
 N2401 N 0.23435 0.60396 0.72017
 N2402 N 0.22742 0.61746 0.71611
 C2403 C 0.23372 0.57799 0.73216
 C2404 C 0.22604 0.56650 0.74114
 H2405 H 0.19102 0.63647 0.71692
 H2406 H 0.24584 0.57593 0.72771
 H2407 H 0.22490 0.64453 0.70394
 H2408 H 0.21408 0.56870 0.74597
 C2409 C 0.19930 0.13138 0.21261
 C2410 C 0.21057 0.12100 0.20607
 C2411 C 0.21273 0.10519 0.21263
 N2412 N 0.22386 0.09566 0.20578
 N2413 N 0.22578 0.08120 0.21121
 C2414 C 0.21665 0.07567 0.22370
 N2415 N 0.20552 0.08522 0.23062
 N2416 N 0.20360 0.09972 0.22517
 C2417 C 0.21866 0.05955 0.22947
 C2418 C 0.22991 0.04981 0.22204
 H2419 H 0.21798 0.12410 0.19573
 H2420 H 0.21122 0.05531 0.23938
 H2421 H 0.19263 0.12751 0.22326
 H2422 H 0.23720 0.05431 0.21213
 C2423 C 0.69889 1.14193 0.70819
 C2424 C 0.71130 1.13188 0.70319
 C2425 C 0.71349 1.11602 0.70960
 N2426 N 0.72554 1.10707 0.70347
 N2427 N 0.72776 1.09259 0.70874
 C2428 C 0.71802 1.08647 0.72037
 N2429 N 0.70596 1.09543 0.72659
 N2430 N 0.70371 1.10996 0.72128
 C2431 C 0.72055 1.07040 0.72615
 C2432 C 0.73238 1.06095 0.71912
 H2433 H 0.71994 1.13531 0.69406
 H2434 H 0.71310 1.06599 0.73598
 H2435 H 0.69098 1.13788 0.71782
 H2436 H 0.73957 1.06549 0.70915
 C2437 C 0.71428 0.65542 0.22412
 C2438 C 0.72401 0.64557 0.21485
 C2439 C 0.72844 0.62994 0.22064
 N2440 N 0.73754 0.62057 0.21104
 N2441 N 0.74091 0.60608 0.21574
 C2442 C 0.73524 0.60044 0.23019
 N2443 N 0.72620 0.60983 0.23982
 N2444 N 0.72286 0.62431 0.23514
 C2445 C 0.73826 0.58434 0.23526
 C2446 C 0.74825 0.57444 0.22639
 H2447 H 0.72751 0.64877 0.20253
 H2448 H 0.73238 0.58018 0.24626
 H2449 H 0.71050 0.65160 0.23619
 H2450 H 0.75467 0.57875 0.21578
 C2451 C 0.54336 0.12180 0.70468
 C2452 C 0.54752 0.12962 0.71888
 C2453 C 0.53998 0.14467 0.72283
 N2454 N 0.54434 0.15216 0.73660
 N2455 N 0.53783 0.16592 0.74007
 C2456 C 0.52670 0.17269 0.72990
 N2457 N 0.52231 0.16518 0.71619
 N2458 N 0.52881 0.15144 0.71273
 C2459 C 0.51985 0.18816 0.73312
 C2460 C 0.52443 0.19678 0.74658
 H2461 H 0.55638 0.12481 0.72731
 H2462 H 0.51154 0.19316 0.72417
 H2463 H 0.53403 0.12690 0.69692
 H2464 H 0.53280 0.19179 0.75547
 C2465 C 1.03527 0.10888 0.20080
 C2466 C 1.03785 0.11696 0.21528
 C2467 C 1.03016 0.13210 0.21853
 N2468 N 1.03429 0.13991 0.23217
 N2469 N 1.02787 0.15380 0.23514
 C2470 C 1.01700 0.16042 0.22460
 N2471 N 1.01276 0.15256 0.21103
 N2472 N 1.01922 0.13868 0.20803
 C2473 C 1.01027 0.17605 0.22738
 C2474 C 1.01602 0.18548 0.23974
 H2475 H 1.04587 0.11230 0.22462
 H2476 H 1.00130 0.18059 0.21884
 H2477 H 1.02663 0.11364 0.19204
 H2478 H 1.02544 0.18111 0.24786
 C2479 C 0.19016 0.62182 0.55415
 C2480 C 0.20264 0.63128 0.55908
 C2481 C 0.20891 0.64355 0.54833
 N2482 N 0.22100 0.65250 0.55368
 N2483 N 0.22648 0.66395 0.54431
 C2484 C 0.22007 0.66688 0.52923
 N2485 N 0.20803 0.65790 0.52385
 N2486 N 0.20256 0.64643 0.53321
 C2487 C 0.22546 0.67993 0.51906
 C2488 C 0.23766 0.68960 0.52412
 H2489 H 0.20770 0.63022 0.57125
 H2490 H 0.21918 0.68235 0.50763
 H2491 H 0.18517 0.62362 0.54197
 H2492 H 0.24400 0.68707 0.53549
 C2493 C 0.20686 0.09780 1.02549
 C2494 C 0.21447 0.10862 1.03514
 C2495 C 0.21660 0.12461 1.02959
 N2496 N 0.22370 0.13475 1.03968
 N2497 N 0.22520 0.14946 1.03513
 C2498 C 0.21958 0.15457 1.02034
 N2499 N 0.21249 0.14443 1.01023
 N2500 N 0.21102 0.12971 1.01478
 C2501 C 0.22119 0.17073 1.01516
 C2502 C 0.22945 0.18122 1.02463
 H2503 H 0.21799 0.10575 1.04760
 H2504 H 0.21624 0.17430 1.00337
 H2505 H 0.20277 0.10120 1.01332
 H2506 H 0.23474 0.17752 1.03622
 C2507 C 0.21626 0.70544 0.64049
 C2508 C 0.21198 0.71894 0.63188
 C2509 C 0.21954 0.72300 0.61617
 N2510 N 0.21354 0.73503 0.60708
 N2511 N 0.21967 0.73830 0.59238
 C2512 C 0.23205 0.72967 0.58628
 N2513 N 0.23817 0.71778 0.59546
 N2514 N 0.23201 0.71448 0.61012
 C2515 C 0.23841 0.73255 0.56978
 C2516 C 0.23117 0.74310 0.55888
 H2517 H 0.20247 0.72652 0.63620
 H2518 H 0.24854 0.72548 0.56581
 H2519 H 0.22635 0.69855 0.63609
 H2520 H 0.22087 0.75000 0.56274
 C2521 C 0.20784 0.19343 1.14991
 C2522 C 0.20103 0.20492 1.13971
 C2523 C 0.20831 0.20947 1.12394
 N2524 N 0.20097 0.22048 1.11439
 N2525 N 0.20717 0.22449 1.09992
 C2526 C 0.22096 0.21764 1.09445
 N2527 N 0.22833 0.20667 1.10403
 N2528 N 0.22213 0.20266 1.11850
 C2529 C 0.22774 0.22156 1.07827
 C2530 C 0.22067 0.23265 1.06781
 H2531 H 0.18968 0.21041 1.14289
 H2532 H 0.23839 0.21522 1.07434
 H2533 H 0.21883 0.18766 1.14595
 H2534 H 0.21008 0.23907 1.07180
 C2535 C 0.69386 0.55635 0.10971
 C2536 C 0.70963 0.55756 0.11537
 C2537 C 0.71539 0.54838 0.12968
 N2538 N 0.73078 0.54961 0.13505
 N2539 N 0.73598 0.54145 0.14807
 C2540 C 0.72601 0.53169 0.15615
 N2541 N 0.71068 0.53040 0.15071
 N2542 N 0.70548 0.53856 0.13773
 C2543 C 0.73120 0.52329 0.17115
 C2544 C 0.74624 0.52545 0.17821
 H2545 H 0.71802 0.56493 0.10906
 H2546 H 0.72241 0.51639 0.17756
 H2547 H 0.68602 0.54838 0.11602
 H2548 H 0.75483 0.53269 0.17194
 C2549 C 0.71296 1.04796 0.59223
 C2550 C 0.70749 1.03575 0.60194
 C2551 C 0.71566 1.03093 0.61725
 N2552 N 0.70958 1.01933 0.62653
 N2553 N 0.71636 1.01532 0.64082
 C2554 C 0.72948 1.02277 0.64636
 N2555 N 0.73564 1.03430 0.63703
 N2556 N 0.72887 1.03830 0.62273
 C2557 C 0.73652 1.01909 0.66254
 C2558 C 0.73034 1.00762 0.67275
 H2559 H 0.69644 1.03006 0.59895
 H2560 H 0.74631 1.02607 0.66681
 H2561 H 0.72381 1.05369 0.59598
 H2562 H 0.72068 1.00054 0.66837
 C2563 C 0.54751 0.19718 0.61421
 C2564 C 0.55241 0.21053 0.62199
 C2565 C 0.54519 0.21545 0.63760
 N2566 N 0.55056 0.22823 0.64509
 N2567 N 0.54424 0.23271 0.65929
 C2568 C 0.53229 0.22459 0.66652
 N2569 N 0.52688 0.21183 0.65901
 N2570 N 0.53322 0.20734 0.64482
 C2571 C 0.52534 0.22929 0.68231
 C2572 C 0.53116 0.24181 0.69085
 H2573 H 0.56162 0.21767 0.61671
 H2574 H 0.51567 0.22256 0.68745
 H2575 H 0.53795 0.19065 0.61983
 H2576 H 0.54098 0.24835 0.68574
 C2577 C 1.04544 0.19441 0.10271
 C2578 C 1.03151 0.19248 0.11202
 C2579 C 1.02830 0.20170 0.12672
 N2580 N 1.01519 0.19881 0.13608
 N2581 N 1.01235 0.20682 0.14962
 C2582 C 1.02249 0.21805 0.15430
 N2583 N 1.03554 0.22101 0.14489
 N2584 N 1.03840 0.21298 0.13136
 C2585 C 1.01981 0.22663 0.16952
 C2586 C 1.00753 0.22287 0.18038
 H2587 H 1.02273 0.18404 0.10875
 H2588 H 1.02814 0.23561 0.17257
 H2589 H 1.05368 0.20327 0.10634
 H2590 H 0.99945 0.21365 0.17742
 C2591 C 0.64835 0.21344 0.70601
 C2592 C 0.64019 0.21131 0.72079
 C2593 C 0.62578 0.22067 0.72486
 N2594 N 0.61780 0.21800 0.73909
 N2595 N 0.60441 0.22600 0.74261
 C2596 C 0.59852 0.23700 0.73204
 N2597 N 0.60657 0.23975 0.71789
 N2598 N 0.61995 0.23175 0.71437
 C2599 C 0.58319 0.24523 0.73522
 C2600 C 0.57372 0.24173 0.74880
 H2601 H 0.64424 0.20262 0.72958
 H2602 H 0.57872 0.25336 0.72601
 H2603 H 0.64434 0.22276 0.69791
 H2604 H 0.57816 0.23344 0.75788
 C2605 C 1.14744 0.19998 0.21794
 C2606 C 1.13671 0.20988 0.20964
 C2607 C 1.12107 0.21444 0.21665
 N2608 N 1.11062 0.22320 0.20756
 N2609 N 1.09602 0.22668 0.21325
 C2610 C 1.09127 0.22150 0.22825
 N2611 N 1.10176 0.21283 0.23742
 N2612 N 1.11640 0.20935 0.23171
 C2613 C 1.07492 0.22490 0.23433
 C2614 C 1.06398 0.23353 0.22486
 H2615 H 1.13904 0.21335 0.19709
 H2616 H 1.07144 0.22044 0.24625
 H2617 H 1.14445 0.19620 0.23027
 H2618 H 1.06770 0.23803 0.21303
 C2619 C 0.11813 0.69812 0.55921
 C2620 C 0.12392 0.69884 0.54314
 C2621 C 0.13784 0.70812 0.53820
 N2622 N 0.14328 0.70735 0.52256
 N2623 N 0.15616 0.71516 0.51786
 C2624 C 0.16412 0.72412 0.52859
 N2625 N 0.15859 0.72503 0.54422
 N2626 N 0.14570 0.71717 0.54895
 C2627 C 0.17893 0.73211 0.52362
 C2628 C 0.18654 0.72873 0.50882
 H2629 H 0.11818 0.69231 0.53365
 H2630 H 0.18459 0.73975 0.53220
 H2631 H 0.12340 0.70548 0.56830
 H2632 H 0.18125 0.72033 0.50083
 C2633 C 0.10235 0.18214 1.03396
 C2634 C 0.10831 0.19709 1.03409
 C2635 C 0.12421 0.20110 1.02757
 N2636 N 0.12972 0.21554 1.02978
 N2637 N 0.14437 0.21932 1.02474
 C2638 C 0.15409 0.20879 1.01725
 N2639 N 0.14852 0.19437 1.01487
 N2640 N 0.13386 0.19057 1.01998
 C2641 C 0.17050 0.21277 1.01211
 C2642 C 0.17743 0.22660 1.01667
 H2643 H 0.10137 0.20628 1.03971
 H2644 H 0.17745 0.20441 1.00519
 H2645 H 0.10879 0.17329 1.02721
 H2646 H 0.17060 0.23464 1.02411
 C2647 C 0.61762 0.56975 0.20285
 C2648 C 0.62713 0.55707 0.19832
 C2649 C 0.64206 0.55261 0.20708
 N2650 N 0.65083 0.54022 0.20203
 N2651 N 0.66461 0.53624 0.20947
 C2652 C 0.67018 0.54451 0.22223
 N2653 N 0.66139 0.55690 0.22732
 N2654 N 0.64757 0.56087 0.21990
 C2655 C 0.68572 0.54045 0.23010
 C2656 C 0.69469 0.52757 0.22521
 H2657 H 0.62411 0.55053 0.18760
 H2658 H 0.69034 0.54791 0.23947
 H2659 H 0.62139 0.57644 0.21325
 H2660 H 0.68981 0.52015 0.21594
 C2661 C 0.60705 1.05953 0.70824
 C2662 C 0.61364 1.04486 0.70515
 C2663 C 0.62933 1.03961 0.71191
 N2664 N 0.63565 1.02566 0.70766
 N2665 N 0.65001 1.02091 0.71331
 C2666 C 0.65858 1.02994 0.72347
 N2667 N 0.65222 1.04383 0.72780
 N2668 N 0.63788 1.04859 0.72213
 C2669 C 0.67471 1.02520 0.72945
 C2670 C 0.68272 1.01176 0.72439
 H2671 H 0.60736 1.03690 0.69748
 H2672 H 0.68078 1.03301 0.73755
 H2673 H 0.61341 1.06690 0.71657
 H2674 H 0.67679 1.00404 0.71610
 C2675 C 0.90222 0.45064 0.28197
 C2676 C 0.89551 0.46543 0.28343
 C2677 C 0.87915 0.46935 0.27782
 N2678 N 0.87254 0.48329 0.28150
 N2679 N 0.85749 0.48689 0.27706
 C2680 C 0.84852 0.47666 0.26876
 N2681 N 0.85517 0.46275 0.26496
 N2682 N 0.87021 0.45913 0.26946
 C2683 C 0.83193 0.48047 0.26384
 C2684 C 0.82398 0.49375 0.26927
 H2685 H 0.90215 0.47444 0.28926
 H2686 H 0.82580 0.47256 0.25592
 H2687 H 0.89575 0.44210 0.27514
 H2688 H 0.82992 0.50135 0.27768
 C2689 C 0.89242 0.94360 0.78591
 C2690 C 0.88447 0.95777 0.78803
 C2691 C 0.86925 0.96178 0.77953
 N2692 N 0.86193 0.97565 0.78215
 N2693 N 0.84799 0.97935 0.77486
 C2694 C 0.84082 0.96931 0.76464
 N2695 N 0.84817 0.95546 0.76195
 N2696 N 0.86212 0.95176 0.76925
 C2697 C 0.82509 0.97304 0.75701
 C2698 C 0.81665 0.98666 0.76051
 H2699 H 0.88945 0.96631 0.79602
 H2700 H 0.81971 0.96457 0.74917
 H2701 H 0.88756 0.93566 0.77713
 H2702 H 0.82199 0.99493 0.76862
 C2703 C 0.36171 0.30214 0.80525
 C2704 C 0.37011 0.30580 0.79092
 C2705 C 0.38577 0.29839 0.78697
 N2706 N 0.39363 0.30237 0.77300
 N2707 N 0.40787 0.29589 0.76940
 C2708 C 0.41478 0.28517 0.77965
 N2709 N 0.40690 0.28117 0.79359
 N2710 N 0.39268 0.28764 0.79718
 C2711 C 0.43069 0.27813 0.77617
 C2712 C 0.43987 0.28226 0.76252
 H2713 H 0.36518 0.31412 0.78218
 H2714 H 0.43557 0.26984 0.78501
 H2715 H 0.36676 0.29326 0.81332
 H2716 H 0.43510 0.29070 0.75378
 C2717 C 0.86394 0.30319 0.31083
 C2718 C 0.87133 0.30364 0.29551
 C2719 C 0.88605 0.29470 0.29174
 N2720 N 0.89205 0.29527 0.27632
 N2721 N 0.90554 0.28758 0.27261
 C2722 C 0.91358 0.27902 0.28417
 N2723 N 0.90755 0.27839 0.29962
 N2724 N 0.89401 0.28609 0.30334
 C2725 C 0.92885 0.27100 0.28013
 C2726 C 0.93540 0.27238 0.26448
 H2727 H 0.86603 0.31057 0.28569
 H2728 H 0.93531 0.26462 0.28967
 H2729 H 0.86860 0.29528 0.32017
 H2730 H 0.92890 0.27903 0.25518
 C2731 C 0.39000 0.80910 0.45195
 C2732 C 0.38353 0.79461 0.44930
 C2733 C 0.36804 0.79011 0.45652
 N2734 N 0.36229 0.77584 0.45384
 N2735 N 0.34819 0.77168 0.46011
 C2736 C 0.33933 0.78165 0.46931
 N2737 N 0.34510 0.79591 0.47203
 N2738 N 0.35920 0.80006 0.46576
 C2739 C 0.32350 0.77740 0.47590
 C2740 C 0.31677 0.76313 0.47279
 H2741 H 0.38996 0.78619 0.44201
 H2742 H 0.31675 0.78594 0.48278
 H2743 H 0.38367 0.81692 0.46007
 H2744 H 0.32351 0.75469 0.46577
 C2745 C 0.38512 0.30084 0.96832
 C2746 C 0.37829 0.28645 0.96610
 C2747 C 0.36294 0.28219 0.97365
 N2748 N 0.35668 0.26822 0.97052
 N2749 N 0.34240 0.26441 0.97654
 C2750 C 0.33382 0.27442 0.98593
 N2751 N 0.34014 0.28836 0.98921
 N2752 N 0.35444 0.29219 0.98317
 C2753 C 0.31763 0.27062 0.99184
 C2754 C 0.31021 0.25711 0.98715
 H2755 H 0.38416 0.27804 0.95833
 H2756 H 0.31113 0.27898 0.99919
 H2757 H 0.37977 0.30866 0.97711
 H2758 H 0.31670 0.24894 0.97955
 C2759 C 0.80504 0.44584 0.38549
 C2760 C 0.80682 0.46070 0.37905
 C2761 C 0.79766 0.46617 0.36448
 N2762 N 0.79968 0.48069 0.35853
 N2763 N 0.79168 0.48568 0.34525
 C2764 C 0.78129 0.47635 0.33741
 N2765 N 0.77920 0.46185 0.34341
 N2766 N 0.78722 0.45687 0.35669
 C2767 C 0.77298 0.48145 0.32220
 C2768 C 0.77610 0.49567 0.31480
 H2769 H 0.81480 0.46868 0.38487
 H2770 H 0.76526 0.47341 0.31609
 H2771 H 0.79639 0.43843 0.37973
 H2772 H 0.78424 0.50343 0.32077
 C2773 C 0.78576 0.94925 0.88981
 C2774 C 0.78906 0.96295 0.88141
 C2775 C 0.78201 0.96667 0.86529
 N2776 N 0.78670 0.97947 0.85699
 N2777 N 0.78098 0.98267 0.84205
 C2778 C 0.77034 0.97318 0.83486
 N2779 N 0.76553 0.96044 0.84321
 N2780 N 0.77128 0.95723 0.85815
 C2781 C 0.76434 0.97627 0.81818
 C2782 C 0.77023 0.98825 0.80849
 H2783 H 0.79733 0.97111 0.88646
 H2784 H 0.75549 0.96859 0.81323
 H2785 H 0.77666 0.94177 0.88496
 H2786 H 0.77930 0.99575 0.81336
 C2787 C 0.26985 0.77008 0.33255
 C2788 C 0.27817 0.76069 0.34386
 C2789 C 0.27198 0.75787 0.36045
 N2790 N 0.28146 0.75038 0.37166
 N2791 N 0.27686 0.74921 0.38724
 C2792 C 0.26263 0.75554 0.39220
 N2793 N 0.25302 0.76283 0.38096
 N2794 N 0.25762 0.76400 0.36536
 C2795 C 0.25797 0.75529 0.40956
 C2796 C 0.26792 0.74862 0.42156
 H2797 H 0.29047 0.75704 0.34155
 H2798 H 0.24670 0.76086 0.41298
 H2799 H 0.25766 0.77379 0.33542
 H2800 H 0.27901 0.74276 0.41806
 C2801 C 0.28990 0.30057 0.86018
 C2802 C 0.29321 0.28627 0.86772
 C2803 C 0.28401 0.28083 0.88207
 N2804 N 0.28822 0.26731 0.88967
 N2805 N 0.28038 0.26254 0.90300
 C2806 C 0.26798 0.27109 0.90920
 N2807 N 0.26369 0.28454 0.90152
 N2808 N 0.27155 0.28932 0.88822
 C2809 C 0.25974 0.26648 0.92444
 C2810 C 0.26473 0.25366 0.93381
 H2811 H 0.30283 0.27885 0.86334
 H2812 H 0.25023 0.27401 0.92895
 H2813 H 0.27982 0.30737 0.86474
 H2814 H 0.27442 0.24628 0.92941
 C2815 C 0.43817 0.29874 0.89487
 C2816 C 0.45338 0.29978 0.88776
 C2817 C 0.45708 0.29416 0.87129
 N2818 N 0.47159 0.29727 0.86460
 N2819 N 0.47525 0.29252 0.84961
 C2820 C 0.46456 0.28443 0.84074
 N2821 N 0.45005 0.28120 0.84746
 N2822 N 0.44634 0.28604 0.86247
 C2823 C 0.46871 0.27910 0.82421
 C2824 C 0.48250 0.28429 0.81634
 H2825 H 0.46312 0.30500 0.89435
 H2826 H 0.46090 0.27107 0.81821
 H2827 H 0.42886 0.29265 0.88846
 H2828 H 0.48983 0.29283 0.82220
 C2829 C 0.94713 0.30400 0.38582
 C2830 C 0.95906 0.30922 0.37514
 C2831 C 0.96365 0.30053 0.36036
 N2832 N 0.97526 0.30590 0.35019
 N2833 N 0.97930 0.29827 0.33667
 C2834 C 0.97185 0.28498 0.33281
 N2835 N 0.96027 0.27961 0.34298
 N2836 N 0.95625 0.28723 0.35649
 C2837 C 0.97581 0.27651 0.31776
 C2838 C 0.98767 0.28122 0.30679
 H2839 H 0.96496 0.32001 0.37723
 H2840 H 0.96891 0.26636 0.31513
 H2841 H 0.94135 0.29326 0.38296
 H2842 H 0.99464 0.29132 0.30944
 C2843 C 0.46538 0.40027 0.80412
 C2844 C 0.46146 0.39201 0.79014
 C2845 C 0.46990 0.37750 0.78593
 N2846 N 0.46538 0.36964 0.77248
 N2847 N 0.47242 0.35616 0.76891
 C2848 C 0.48425 0.35003 0.77866
 N2849 N 0.48885 0.35794 0.79205
 N2850 N 0.48182 0.37142 0.79562
 C2851 C 0.49156 0.33478 0.77536
 C2852 C 0.48678 0.32593 0.76214
 H2853 H 0.45150 0.39567 0.78239
 H2854 H 0.50037 0.33013 0.78400
 H2855 H 0.47526 0.39596 0.81169
 H2856 H 0.47799 0.33064 0.75350
 C2857 C 0.97042 0.39387 0.28835
 C2858 C 0.96706 0.38630 0.27376
 C2859 C 0.97334 0.37071 0.27027
 N2860 N 0.96784 0.36314 0.25700
 N2861 N 0.97284 0.34876 0.25400
 C2862 C 0.98357 0.34144 0.26415
 N2863 N 0.98919 0.34906 0.27733
 N2864 N 0.98413 0.36342 0.28038
 C2865 C 0.98890 0.32543 0.26132
 C2866 C 0.98175 0.31615 0.24963
 H2867 H 0.95916 0.39159 0.26467
 H2868 H 0.99823 0.32060 0.26926
 H2869 H 0.97911 0.38865 0.29677
 H2870 H 0.97201 0.32077 0.24208
 C2871 C 0.30777 0.88226 0.44480
 C2872 C 0.29546 0.87368 0.43784
 C2873 C 0.29013 0.85904 0.44540
 N2874 N 0.27831 0.85080 0.43830
 N2875 N 0.27354 0.83751 0.44501
 C2876 C 0.28042 0.83200 0.45910
 N2877 N 0.29219 0.84025 0.46618
 N2878 N 0.29695 0.85349 0.45949
 C2879 C 0.27569 0.81726 0.46677
 C2880 C 0.26401 0.80762 0.46037
 H2881 H 0.28952 0.87755 0.42669
 H2882 H 0.28203 0.81375 0.47786
 H2883 H 0.31320 0.87786 0.45605
 H2884 H 0.25759 0.81100 0.44928
 C2885 C 0.30196 0.37790 0.95982
 C2886 C 0.28725 0.37107 0.95655
 C2887 C 0.28264 0.35641 0.96432
 N2888 N 0.26889 0.34955 0.95962
 N2889 N 0.26475 0.33604 0.96617
 C2890 C 0.27421 0.32893 0.97772
 N2891 N 0.28789 0.33585 0.98252
 N2892 N 0.29205 0.34934 0.97593
 C2893 C 0.27007 0.31379 0.98466
 C2894 C 0.25740 0.30531 0.97850
 H2895 H 0.27880 0.37639 0.94801
 H2896 H 0.27767 0.30892 0.99431
 H2897 H 0.30978 0.37264 0.96906
 H2898 H 0.25014 0.31002 0.96851
 C2899 C 0.81141 0.37276 0.29733
 C2900 C 0.79645 0.38036 0.29652
 C2901 C 0.79410 0.39553 0.28845
 N2902 N 0.77953 0.40279 0.28931
 N2903 N 0.77717 0.41666 0.28240
 C2904 C 0.78927 0.42380 0.27431
 N2905 N 0.80384 0.41649 0.27332
 N2906 N 0.80622 0.40261 0.28029
 C2907 C 0.78678 0.43932 0.26702
 C2908 C 0.77280 0.44793 0.27019
 H2909 H 0.78596 0.37518 0.30194
 H2910 H 0.79627 0.44426 0.25965
 H2911 H 0.82152 0.37792 0.29109
 H2912 H 0.76372 0.44310 0.27817
   
