data_POSCAR
  _audit_creation_date              2014-09-24
  _audit_creation_method            'ToBaCCo'
  _symmetry_space_group_name_H-M    'P1'
  _symmetry_Int_Tables_number       1
  _symmetry_cell_setting            triclinic
  loop_
  _symmetry_equiv_pos_as_xyz
 x,y,z
_cell_length_a 57.4475
_cell_length_b 57.4765
_cell_length_c 57.5048
_cell_angle_alpha 90.019900
_cell_angle_beta 90.024200
_cell_angle_gamma 90.016200
loop_
  _atom_site_label
  _atom_site_type_symbol
  _atom_site_fract_x
  _atom_site_fract_y
  _atom_site_fract_z
O1 O 0.31706 0.34941 0.02242
 O2 O 0.34897 0.31756 -0.02293
 O3 O 0.31685 0.34960 -0.02269
 O4 O 0.34923 0.31747 0.02218
 O5 O 0.32212 0.29015 0.02229
 O6 O 0.28962 0.32239 -0.02272
 O7 O 0.32185 0.29024 -0.02296
 O8 O 0.28984 0.32219 0.02253
 Cu9 Cu 0.33576 0.33625 -0.00027
 Cu10 Cu 0.30311 0.30348 -0.00022
 C11 C 0.29801 0.34128 0.03004
 C12 C 0.34092 0.29845 -0.03048
 C13 C 0.29770 0.34155 -0.03017
 C14 C 0.34125 0.29833 0.02972
 O15 O 0.68300 0.65063 0.02217
 O16 O 0.65104 0.68250 -0.02315
 O17 O 0.68312 0.65043 -0.02293
 O18 O 0.65086 0.68262 0.02198
 O19 O 0.67800 0.70992 0.02206
 O20 O 0.71037 0.67761 -0.02298
 O21 O 0.67819 0.70978 -0.02320
 O22 O 0.71025 0.67782 0.02224
 Cu23 Cu 0.66427 0.66381 -0.00049
 Cu24 Cu 0.69695 0.69655 -0.00047
 C25 C 0.70209 0.65874 0.02974
 C26 C 0.65911 0.70158 -0.03073
 C27 C 0.70227 0.65845 -0.03042
 C28 C 0.65888 0.70176 0.02951
 O29 O 0.68293 0.34955 0.97773
 O30 O 0.65105 0.31742 1.02291
 O31 O 0.68300 0.34963 1.02285
 O32 O 0.65090 0.31746 0.97780
 O33 O 0.67813 0.29027 0.97768
 O34 O 0.71035 0.32257 1.02287
 O35 O 0.67830 0.29024 1.02292
 O36 O 0.71027 0.32247 0.97762
 Cu37 Cu 0.66423 0.33624 1.00034
 Cu38 Cu 0.69703 0.30364 1.00027
 C39 C 0.70203 0.34153 0.97014
 C40 C 0.65918 0.29834 1.03042
 C41 C 0.70215 0.34165 1.03037
 C42 C 0.65899 0.29838 0.97022
 O43 O 0.31727 0.65037 0.97792
 O44 O 0.34908 0.68238 1.02329
 O45 O 0.31709 0.65018 1.02304
 O46 O 0.34931 0.68248 0.97819
 O47 O 0.32208 0.70967 0.97808
 O48 O 0.28975 0.67725 1.02307
 O49 O 0.32184 0.70956 1.02332
 O50 O 0.28994 0.67745 0.97782
 Cu51 Cu 0.33593 0.66362 1.00062
 Cu52 Cu 0.30314 0.69623 1.00058
 C53 C 0.29818 0.65840 0.97031
 C54 C 0.34095 0.70145 1.03084
 C55 C 0.29791 0.65814 1.03052
 C56 C 0.34124 0.70159 0.97067
 O57 O 0.02230 0.31714 0.34932
 O58 O -0.02306 0.34899 0.31739
 O59 O -0.02284 0.31688 0.34938
 O60 O 0.02211 0.34932 0.31738
 O61 O 0.02231 0.32224 0.29006
 O62 O -0.02277 0.28969 0.32216
 O63 O -0.02299 0.32190 0.29007
 O64 O 0.02250 0.28995 0.32210
 Cu65 Cu -0.00038 0.33582 0.33610
 Cu66 Cu -0.00022 0.30320 0.30333
 C67 C 0.02994 0.29809 0.34122
 C68 C -0.03059 0.34093 0.29829
 C69 C -0.03028 0.29774 0.34129
 C70 C 0.02970 0.34137 0.29827
 O71 O 0.02268 0.68231 0.65041
 O72 O -0.02263 0.65070 0.68267
 O73 O -0.02248 0.68257 0.65043
 O74 O 0.02253 0.65036 0.68257
 O75 O 0.02283 0.67764 0.70970
 O76 O -0.02232 0.70996 0.67744
 O77 O -0.02246 0.67800 0.70978
 O78 O 0.02298 0.70970 0.67743
 Cu79 Cu 0.00000 0.66374 0.66380
 Cu80 Cu 0.00028 0.69660 0.69633
 C81 C 0.03038 0.70140 0.65837
 C82 C -0.03008 0.65891 0.70173
 C83 C -0.02991 0.70176 0.65839
 C84 C 0.03017 0.65845 0.70162
 O85 O 1.02285 0.65110 0.31702
 O86 O 0.97758 0.68286 0.34916
 O87 O 0.97770 0.65081 0.31707
 O88 O 1.02273 0.68305 0.34919
 O89 O 1.02265 0.71037 0.32213
 O90 O 0.97748 0.67802 0.28988
 O91 O 0.97737 0.71018 0.32208
 O92 O 1.02277 0.67832 0.28984
 Cu93 Cu 1.00023 0.66421 0.33584
 Cu94 Cu 1.00005 0.69698 0.30324
 C95 C 1.03034 0.65923 0.29794
 C96 C 0.96995 0.70195 0.34117
 C97 C 0.97010 0.65886 0.29799
 C98 C 1.03019 0.70221 0.34120
 O99 O 0.97719 0.31754 0.65017
 O100 O 1.02245 0.34924 0.68248
 O101 O 1.02236 0.31735 0.65023
 O102 O 0.97729 0.34953 0.68232
 O103 O 0.97702 0.32227 0.70945
 O104 O 1.02222 0.28998 0.67724
 O105 O 1.02231 0.32197 0.70960
 O106 O 0.97692 0.29018 0.67719
 Cu107 Cu 0.99984 0.33616 0.66358
 Cu108 Cu 0.99960 0.30333 0.69611
 C109 C 0.96952 0.29845 0.65812
 C110 C 1.02990 0.34107 0.70156
 C111 C 1.02980 0.29818 0.65820
 C112 C 0.96966 0.34144 0.70136
 O113 O 0.34911 0.02315 0.31756
 O114 O 0.31720 -0.02239 0.34916
 O115 O 0.34937 -0.02199 0.31721
 O116 O 0.31703 0.02274 0.34960
 O117 O 0.28979 0.02290 0.32242
 O118 O 0.32225 -0.02196 0.28991
 O119 O 0.28997 -0.02236 0.32197
 O120 O 0.32197 0.02331 0.29027
 Cu121 Cu 0.33592 0.00037 0.33612
 Cu122 Cu 0.30324 0.00048 0.30338
 C123 C 0.34104 0.03082 0.29852
 C124 C 0.29812 -0.02995 0.34101
 C125 C 0.34138 -0.02942 0.29804
 C126 C 0.29789 0.03026 0.34159
 O127 O 0.65068 0.02286 0.68229
 O128 O 0.68269 -0.02262 0.65067
 O129 O 0.65052 -0.02228 0.68260
 O130 O 0.68274 0.02252 0.65023
 O131 O 0.71000 0.02277 0.67740
 O132 O 0.67766 -0.02217 0.70990
 O133 O 0.70993 -0.02250 0.67786
 O134 O 0.67784 0.02310 0.70956
 Cu135 Cu 0.66393 0.00011 0.66371
 Cu136 Cu 0.69661 0.00032 0.69644
 C137 C 0.65875 0.03056 0.70133
 C138 C 0.70177 -0.03014 0.65882
 C139 C 0.65854 -0.02970 0.70176
 C140 C 0.70186 0.03011 0.65823
 O141 O 0.34867 0.97717 0.68299
 O142 O 0.31676 1.02251 0.65108
 O143 O 0.34883 1.02228 0.68315
 O144 O 0.31673 0.97736 0.65079
 O145 O 0.28938 0.97721 0.67784
 O146 O 0.32160 1.02228 0.71033
 O147 O 0.28943 1.02249 0.67816
 O148 O 0.32143 0.97703 0.71015
 Cu149 Cu 0.33548 0.99984 0.66427
 Cu150 Cu 0.30269 0.99974 0.69686
 C151 C 0.34055 0.96956 0.70203
 C152 C 0.29766 1.03007 0.65914
 C153 C 0.34075 1.02976 0.70226
 C154 C 0.29758 0.96979 0.65874
 O155 O 0.65135 0.97730 0.31761
 O156 O 0.68333 1.02274 0.34938
 O157 O 0.65116 1.02244 0.31739
 O158 O 0.68342 0.97761 0.34970
 O159 O 0.71067 0.97746 0.32255
 O160 O 0.67829 1.02243 0.29012
 O161 O 0.71057 1.02272 0.32222
 O162 O 0.67850 0.97716 0.29036
 Cu163 Cu 0.66458 1.00004 0.33625
 Cu164 Cu 0.69726 0.99993 0.30356
 C165 C 0.65942 0.96966 0.29856
 C166 C 0.70243 1.03029 0.34128
 C167 C 0.65916 1.02990 0.29824
 C168 C 0.70255 0.97008 0.34170
 C169 C 0.87824 0.77405 0.48872
 C170 C 0.87756 0.77323 0.51252
 C171 C 0.86107 0.78941 0.51956
 N172 N 0.85168 0.79996 0.50078
 C173 C 0.86212 0.79067 0.48188
 C174 C 0.85589 0.79472 0.54301
 C175 C 0.83961 0.81172 0.55036
 C176 C 0.83724 0.81923 0.57317
 C177 C 0.82030 0.83608 0.57323
 C178 C 0.81268 0.83851 0.55046
 N179 N 0.82424 0.82325 0.53671
 C180 C 0.79557 0.85472 0.54323
 C181 C 0.79017 0.86007 0.51983
 C182 C 0.77394 0.87658 0.51297
 C183 C 0.77471 0.87748 0.48917
 C184 C 0.79134 0.86145 0.48216
 N185 N 0.80069 0.85085 0.50095
 C186 C 0.79713 0.85673 0.45872
 C187 C 0.81340 0.83976 0.45133
 C188 C 0.81661 0.83310 0.42836
 C189 C 0.83348 0.81616 0.42829
 C190 C 0.84022 0.81285 0.45123
 N191 N 0.82813 0.82756 0.46510
 C192 C 0.85719 0.79651 0.45849
 H193 H 0.88934 0.76354 0.47773
 H194 H 0.88818 0.76211 0.52339
 H195 H 0.83101 0.83034 0.48263
 H196 H 0.84697 0.81344 0.58822
 H197 H 0.81452 0.84572 0.58834
 H198 H 0.76283 0.88710 0.52395
 H199 H 0.76417 0.88867 0.47830
 H200 H 0.83986 0.80713 0.41305
 H201 H 0.82068 0.81977 0.51940
 H202 H 0.80753 0.83958 0.41318
 C203 C 0.12233 0.22666 0.51232
 C204 C 0.12169 0.22585 0.48851
 C205 C 0.13788 0.20928 0.48170
 N206 N 0.14831 0.20001 0.50061
 C207 C 0.13884 0.21053 0.51938
 C208 C 0.14289 0.20349 0.45831
 C209 C 0.15993 0.18720 0.45109
 C210 C 0.16679 0.18398 0.42818
 C211 C 0.18367 0.16705 0.42827
 C212 C 0.18676 0.16031 0.45124
 N213 N 0.17195 0.17245 0.46497
 C214 C 0.20298 0.14331 0.45864
 C215 C 0.20867 0.13852 0.48210
 C216 C 0.22521 0.12241 0.48914
 C217 C 0.22591 0.12327 0.51295
 C218 C 0.20972 0.13983 0.51978
 N219 N 0.19929 0.14912 0.50087
 C220 C 0.20427 0.14518 0.54317
 C221 C 0.18718 0.16142 0.55036
 C222 C 0.17954 0.16386 0.57313
 C223 C 0.16261 0.18073 0.57303
 C224 C 0.16027 0.18823 0.55022
 N225 N 0.17565 0.17667 0.53660
 C226 C 0.14400 0.20522 0.54284
 H227 H 0.11165 0.23774 0.52317
 H228 H 0.11059 0.23634 0.47750
 H229 H 0.17922 0.18014 0.51930
 H230 H 0.16048 0.19305 0.41294
 H231 H 0.19282 0.16063 0.41312
 H232 H 0.23576 0.11121 0.47829
 H233 H 0.23694 0.11270 0.52395
 H234 H 0.15287 0.18652 0.58807
 H235 H 0.16897 0.16959 0.48247
 H236 H 0.18529 0.15423 0.58824
 C237 C 0.22557 0.87743 0.48741
 C238 C 0.22636 0.87671 0.51121
 C239 C 0.21022 0.86015 0.51817
 N240 N 0.19972 0.85075 0.49936
 C241 C 0.20901 0.86126 0.48050
 C242 C 0.20489 0.85490 0.54160
 C243 C 0.18793 0.83856 0.54889
 C244 C 0.18041 0.83611 0.57169
 C245 C 0.16358 0.81913 0.57169
 C246 C 0.16119 0.81157 0.54889
 N247 N 0.17643 0.82319 0.53519
 C248 C 0.14499 0.79446 0.54161
 C249 C 0.13967 0.78910 0.51819
 C250 C 0.12316 0.77288 0.51127
 C251 C 0.12228 0.77370 0.48747
 C252 C 0.13833 0.79035 0.48052
 N253 N 0.14891 0.79966 0.49935
 C254 C 0.14307 0.79619 0.45710
 C255 C 0.16003 0.81250 0.44977
 C256 C 0.16671 0.81576 0.42681
 C257 C 0.18363 0.83266 0.42681
 C258 C 0.18691 0.83937 0.44977
 N259 N 0.17220 0.82723 0.46358
 C260 C 0.20322 0.85635 0.45708
 H261 H 0.23605 0.88860 0.47646
 H262 H 0.23743 0.88735 0.52213
 H263 H 0.16939 0.83006 0.48112
 H264 H 0.18616 0.84582 0.58677
 H265 H 0.15395 0.81330 0.58677
 H266 H 0.11263 0.76175 0.52221
 H267 H 0.11111 0.76317 0.47656
 H268 H 0.19267 0.83909 0.41160
 H269 H 0.17993 0.81969 0.51788
 H270 H 0.16026 0.80671 0.41161
 C271 C 0.77451 0.12199 0.48696
 C272 C 0.77368 0.12274 0.51077
 C273 C 0.78986 0.13925 0.51777
 N274 N 0.80042 0.14861 0.49897
 C275 C 0.79112 0.13811 0.48009
 C276 C 0.79518 0.14450 0.54121
 C277 C 0.81216 0.16081 0.54853
 C278 C 0.81969 0.16324 0.57134
 C279 C 0.83652 0.18022 0.57137
 C280 C 0.83891 0.18780 0.54859
 N281 N 0.82367 0.17619 0.53486
 C282 C 0.85509 0.20494 0.54134
 C283 C 0.86041 0.21030 0.51794
 C284 C 0.87687 0.22658 0.51105
 C285 C 0.87777 0.22574 0.48725
 C286 C 0.86179 0.20904 0.48027
 N287 N 0.85123 0.19969 0.49907
 C288 C 0.85710 0.20317 0.45683
 C289 C 0.84018 0.18681 0.44946
 C290 C 0.83358 0.18349 0.42648
 C291 C 0.81666 0.16658 0.42644
 C292 C 0.81330 0.15994 0.44940
 N293 N 0.82798 0.17211 0.46325
 C294 C 0.79696 0.14299 0.45669
 H295 H 0.76400 0.11085 0.47600
 H296 H 0.76257 0.11213 0.52166
 H297 H 0.83072 0.16934 0.48080
 H298 H 0.81393 0.15353 0.58640
 H299 H 0.84616 0.18605 0.58647
 H300 H 0.88735 0.23775 0.52201
 H301 H 0.88892 0.23631 0.47636
 H302 H 0.80766 0.16012 0.41121
 H303 H 0.82015 0.17972 0.51755
 H304 H 0.84007 0.19251 0.41129
 C305 C 0.51142 0.87707 0.77368
 C306 C 0.48759 0.87771 0.77452
 C307 C 0.48078 0.86156 0.79112
 N308 N 0.49972 0.85115 0.80038
 C309 C 0.51850 0.86058 0.78983
 C310 C 0.45738 0.85659 0.79696
 C311 C 0.45016 0.83961 0.81329
 C312 C 0.42721 0.83284 0.81662
 C313 C 0.42732 0.81596 0.83354
 C314 C 0.45033 0.81279 0.84017
 N315 N 0.46407 0.82754 0.82797
 C316 C 0.45777 0.79652 0.85711
 C317 C 0.48125 0.79076 0.86179
 C318 C 0.48832 0.77414 0.87780
 C319 C 0.51213 0.77338 0.87686
 C320 C 0.51896 0.78962 0.86035
 N321 N 0.50003 0.80013 0.85118
 C322 C 0.54237 0.79504 0.85498
 C323 C 0.54955 0.81217 0.83879
 C324 C 0.57234 0.81982 0.83635
 C325 C 0.57223 0.83679 0.81954
 C326 C 0.54938 0.83914 0.81207
 N327 N 0.53575 0.82374 0.82359
 C328 C 0.54198 0.85543 0.79512
 H329 H 0.52228 0.88772 0.76258
 H330 H 0.47656 0.88881 0.76404
 H331 H 0.51843 0.82016 0.82012
 H332 H 0.41194 0.83920 0.80761
 H333 H 0.41215 0.80687 0.84002
 H334 H 0.47746 0.76358 0.88899
 H335 H 0.52316 0.76229 0.88735
 H336 H 0.58728 0.84654 0.81376
 H337 H 0.48162 0.83044 0.83073
 H338 H 0.58748 0.81404 0.84595
 C339 C 0.48840 0.22661 0.12302
 C340 C 0.51222 0.22577 0.12234
 C341 C 0.51906 0.20918 0.13849
 N342 N 0.50014 0.19992 0.14893
 C343 C 0.48135 0.21047 0.13952
 C344 C 0.54247 0.20334 0.14343
 C345 C 0.54972 0.18703 0.16042
 C346 C 0.57268 0.18371 0.16715
 C347 C 0.57260 0.16680 0.18404
 C348 C 0.54960 0.16018 0.18726
 N349 N 0.53583 0.17236 0.17252
 C350 C 0.54219 0.14324 0.20355
 C351 C 0.51872 0.13857 0.20935
 C352 C 0.51169 0.12258 0.22600
 C353 C 0.48787 0.12351 0.22679
 C354 C 0.48102 0.14000 0.21054
 N355 N 0.49992 0.14917 0.20000
 C356 C 0.45760 0.14536 0.20514
 C357 C 0.45038 0.16153 0.18800
 C358 C 0.42759 0.16394 0.18038
 C359 C 0.42766 0.18074 0.16340
 C360 C 0.45050 0.18823 0.16101
 N361 N 0.46416 0.17673 0.17641
 C362 C 0.45787 0.20518 0.14471
 H363 H 0.47752 0.23771 0.11238
 H364 H 0.52323 0.23625 0.11123
 H365 H 0.48148 0.18022 0.17996
 H366 H 0.58794 0.19272 0.16076
 H367 H 0.58779 0.16034 0.19312
 H368 H 0.52257 0.11140 0.23656
 H369 H 0.47687 0.11303 0.23791
 H370 H 0.41260 0.18650 0.15366
 H371 H 0.51828 0.16959 0.16966
 H372 H 0.41246 0.15433 0.18617
 C373 C 0.51196 0.22677 0.87687
 C374 C 0.48814 0.22598 0.87759
 C375 C 0.48123 0.20941 0.86144
 N376 N 0.50012 0.20012 0.85095
 C377 C 0.51895 0.21062 0.86034
 C378 C 0.45780 0.20362 0.85652
 C379 C 0.45050 0.18730 0.83956
 C380 C 0.42752 0.18403 0.83283
 C381 C 0.42754 0.16707 0.81598
 C382 C 0.45052 0.16037 0.81278
 N383 N 0.46433 0.17255 0.82749
 C384 C 0.45786 0.14336 0.79654
 C385 C 0.48131 0.13862 0.79070
 C386 C 0.48827 0.12254 0.77410
 C387 C 0.51209 0.12345 0.77326
 C388 C 0.51901 0.14000 0.78943
 N389 N 0.50015 0.14924 0.79998
 C390 C 0.54245 0.14536 0.79475
 C391 C 0.54973 0.16157 0.81184
 C392 C 0.57256 0.16400 0.81939
 C393 C 0.57254 0.18082 0.83635
 C394 C 0.54971 0.18832 0.83879
 N395 N 0.53600 0.17680 0.82345
 C396 C 0.54240 0.20529 0.85511
 H397 H 0.52289 0.23784 0.88751
 H398 H 0.47717 0.23648 0.88873
 H399 H 0.51867 0.18028 0.81995
 H400 H 0.41229 0.19309 0.83921
 H401 H 0.41233 0.16062 0.80693
 H402 H 0.47735 0.11134 0.76361
 H403 H 0.52305 0.11291 0.76215
 H404 H 0.58763 0.18660 0.84604
 H405 H 0.48188 0.16972 0.83036
 H406 H 0.58766 0.15437 0.81356
 C407 C 0.48819 0.77449 0.12224
 C408 C 0.51202 0.77370 0.12288
 C409 C 0.51908 0.78984 0.13939
 N410 N 0.50029 0.80035 0.14884
 C411 C 0.48136 0.79106 0.13841
 C412 C 0.54256 0.79515 0.14458
 C413 C 0.54994 0.81212 0.16087
 C414 C 0.57279 0.81959 0.16327
 C415 C 0.57288 0.83643 0.18022
 C416 C 0.55009 0.83889 0.18781
 N417 N 0.53630 0.82367 0.17623
 C418 C 0.54288 0.85513 0.20490
 C419 C 0.51946 0.86051 0.21027
 C420 C 0.51261 0.87708 0.22644
 C421 C 0.48879 0.87799 0.22567
 C422 C 0.48175 0.86190 0.20910
 N423 N 0.50054 0.85127 0.19978
 C424 C 0.45827 0.85715 0.20335
 C425 C 0.45086 0.84013 0.18714
 C426 C 0.42786 0.83341 0.18402
 C427 C 0.42777 0.81645 0.16718
 C428 C 0.45072 0.81318 0.16038
 N429 N 0.46461 0.82795 0.17239
 C430 C 0.45795 0.79685 0.14340
 H431 H 0.47718 0.76400 0.11113
 H432 H 0.52289 0.76262 0.11222
 H433 H 0.48214 0.83078 0.16945
 H434 H 0.58785 0.81378 0.15357
 H435 H 0.58802 0.84603 0.18602
 H436 H 0.52362 0.88762 0.23751
 H437 H 0.47792 0.88920 0.23619
 H438 H 0.41252 0.80737 0.16087
 H439 H 0.51897 0.82023 0.17975
 H440 H 0.41269 0.83986 0.19313
 C441 C 0.87686 0.48865 0.77356
 C442 C 0.87757 0.51246 0.77441
 C443 C 0.86147 0.51930 0.79104
 N444 N 0.85102 0.50040 0.80031
 C445 C 0.86039 0.48161 0.78973
 C446 C 0.85655 0.54271 0.79689
 C447 C 0.83959 0.54996 0.81323
 C448 C 0.83285 0.57291 0.81654
 C449 C 0.81599 0.57285 0.83348
 C450 C 0.81280 0.54986 0.84015
 N451 N 0.82753 0.53610 0.82795
 C452 C 0.79655 0.54247 0.85713
 C453 C 0.79079 0.51902 0.86188
 C454 C 0.77422 0.51199 0.87795
 C455 C 0.77346 0.48818 0.87707
 C456 C 0.78965 0.48133 0.86052
 N457 N 0.80013 0.50022 0.85127
 C458 C 0.79505 0.45792 0.85517
 C459 C 0.81210 0.45069 0.83891
 C460 C 0.81970 0.42790 0.83645
 C461 C 0.83659 0.42797 0.81955
 C462 C 0.83895 0.45079 0.81205
 N463 N 0.82362 0.46445 0.82363
 C464 C 0.85518 0.45815 0.79502
 H465 H 0.88747 0.47777 0.76243
 H466 H 0.88868 0.52346 0.76391
 H467 H 0.82006 0.48176 0.82017
 H468 H 0.83921 0.58815 0.80750
 H469 H 0.80691 0.58803 0.83995
 H470 H 0.76369 0.52287 0.88915
 H471 H 0.76240 0.47719 0.88761
 H472 H 0.84630 0.41291 0.81373
 H473 H 0.83042 0.51856 0.83073
 H474 H 0.81395 0.41279 0.84609
 C475 C 0.22668 0.48777 0.12319
 C476 C 0.22598 0.51158 0.12228
 C477 C 0.20934 0.51866 0.13826
 N478 N 0.19990 0.49990 0.14884
 C479 C 0.21039 0.48097 0.13966
 C480 C 0.20360 0.54214 0.14293
 C481 C 0.18730 0.54959 0.15984
 C482 C 0.18409 0.57260 0.16642
 C483 C 0.16720 0.57272 0.18333
 C484 C 0.16044 0.54978 0.18670
 N485 N 0.17254 0.53586 0.17205
 C486 C 0.14346 0.54258 0.20304
 C487 C 0.13850 0.51919 0.20892
 C488 C 0.12238 0.51241 0.22557
 C489 C 0.12302 0.48860 0.22643
 C490 C 0.13946 0.48150 0.21025
 N491 N 0.14888 0.50025 0.19966
 C492 C 0.14459 0.45802 0.20496
 C493 C 0.16082 0.45061 0.18796
 C494 C 0.16310 0.42778 0.18044
 C495 C 0.18004 0.42766 0.16359
 C496 C 0.18774 0.45042 0.16118
 N497 N 0.17624 0.46421 0.17644
 C498 C 0.20489 0.45758 0.14499
 H499 H 0.23777 0.47674 0.11271
 H500 H 0.23659 0.52242 0.11112
 H501 H 0.17989 0.48150 0.17994
 H502 H 0.19319 0.58776 0.15993
 H503 H 0.16082 0.58800 0.19231
 H504 H 0.11131 0.52345 0.23607
 H505 H 0.11239 0.47776 0.23757
 H506 H 0.18575 0.41252 0.15395
 H507 H 0.16967 0.51831 0.16934
 H508 H 0.15331 0.41276 0.18621
 C509 C 0.77330 0.48797 0.12276
 C510 C 0.77416 0.51178 0.12206
 C511 C 0.79074 0.51863 0.13823
 N512 N 0.79998 0.49973 0.14871
 C513 C 0.78943 0.48094 0.13930
 C514 C 0.79658 0.54203 0.14316
 C515 C 0.81288 0.54929 0.16018
 C516 C 0.81619 0.57225 0.16692
 C517 C 0.83308 0.57219 0.18384
 C518 C 0.83972 0.54920 0.18706
 N519 N 0.82756 0.53543 0.17230
 C520 C 0.85666 0.54182 0.20337
 C521 C 0.86137 0.51836 0.20917
 C522 C 0.87739 0.51135 0.22581
 C523 C 0.87648 0.48754 0.22658
 C524 C 0.85997 0.48068 0.21034
 N525 N 0.85077 0.49956 0.19981
 C526 C 0.85462 0.45727 0.20493
 C527 C 0.83842 0.45003 0.18781
 C528 C 0.83599 0.42724 0.18020
 C529 C 0.81916 0.42730 0.16323
 C530 C 0.81167 0.45013 0.16083
 N531 N 0.82319 0.46379 0.17621
 C532 C 0.79471 0.45748 0.14452
 H533 H 0.76221 0.47709 0.11211
 H534 H 0.76369 0.52277 0.11091
 H535 H 0.81971 0.48111 0.17976
 H536 H 0.80717 0.58749 0.16051
 H537 H 0.83954 0.58737 0.19292
 H538 H 0.88857 0.52223 0.23637
 H539 H 0.88698 0.47655 0.23769
 H540 H 0.81338 0.41225 0.15350
 H541 H 0.83034 0.51789 0.16944
 H542 H 0.84561 0.41213 0.18600
 C543 C 0.12298 0.51130 0.77379
 C544 C 0.12225 0.48748 0.77461
 C545 C 0.13833 0.48062 0.79126
 N546 N 0.14879 0.49952 0.80058
 C547 C 0.13944 0.51832 0.79000
 C548 C 0.14322 0.45721 0.79710
 C549 C 0.16016 0.44993 0.81345
 C550 C 0.16688 0.42698 0.81676
 C551 C 0.18374 0.42702 0.83372
 C552 C 0.18696 0.45001 0.84039
 N553 N 0.17225 0.46379 0.82819
 C554 C 0.20323 0.45738 0.85739
 C555 C 0.20901 0.48083 0.86216
 C556 C 0.22561 0.48784 0.87824
 C557 C 0.22640 0.51165 0.87737
 C558 C 0.21021 0.51852 0.86082
 N559 N 0.19969 0.49964 0.85156
 C560 C 0.20484 0.54194 0.85548
 C561 C 0.18777 0.54918 0.83923
 C562 C 0.18019 0.57198 0.83679
 C563 C 0.16328 0.57193 0.81990
 C564 C 0.16090 0.54911 0.81237
 N565 N 0.17623 0.53544 0.82395
 C566 C 0.14466 0.54177 0.79533
 H567 H 0.11239 0.52219 0.76266
 H568 H 0.11115 0.47650 0.76408
 H569 H 0.17978 0.51812 0.82046
 H570 H 0.16050 0.41174 0.80771
 H571 H 0.19280 0.41183 0.84019
 H572 H 0.23613 0.47695 0.88943
 H573 H 0.23749 0.52263 0.88792
 H574 H 0.15359 0.58699 0.81409
 H575 H 0.16939 0.48133 0.83097
 H576 H 0.18596 0.58709 0.84645
 C577 C 0.25678 0.39072 0.11310
 C578 C 0.24534 0.37286 0.09639
 C579 C 0.26185 0.38094 0.07699
 C580 C 0.27348 0.39853 0.09343
 C581 C 0.23915 0.40911 0.10499
 C582 C 0.25567 0.41713 0.08558
 C583 C 0.22750 0.39153 0.08857
 C584 C 0.24421 0.39934 0.06894
 C585 C 0.27463 0.36594 0.06085
 C586 C 0.28526 0.35431 0.04704
 C587 C 0.22672 0.42550 0.11997
 C588 C 0.21670 0.43972 0.13166
 H589 H 0.26179 0.38738 0.13144
 H590 H 0.24125 0.35447 0.10065
 H591 H 0.29253 0.40124 0.09525
 H592 H 0.25977 0.43551 0.08130
 H593 H 0.20845 0.38884 0.08676
 H594 H 0.23917 0.40273 0.05061
 C595 C 0.77307 0.60776 0.08690
 C596 C 0.75562 0.60006 0.06786
 C597 C 0.73858 0.61887 0.07627
 C598 C 0.75583 0.62684 0.09508
 C599 C 0.76162 0.59056 0.10384
 C600 C 0.74459 0.60935 0.11230
 C601 C 0.74436 0.58266 0.08501
 C602 C 0.72714 0.60166 0.09321
 C603 C 0.72564 0.63395 0.06033
 C604 C 0.71492 0.64565 0.04665
 C605 C 0.77428 0.57411 0.11857
 C606 C 0.78450 0.55988 0.13006
 H607 H 0.79210 0.61007 0.08449
 H608 H 0.76002 0.59640 0.04943
 H609 H 0.76039 0.64519 0.09903
 H610 H 0.74022 0.61297 0.13075
 H611 H 0.73980 0.56431 0.08104
 H612 H 0.70812 0.59932 0.09563
 C613 C 0.77245 0.39243 0.91213
 C614 C 0.75525 0.40021 0.93134
 C615 C 0.73811 0.38134 0.92325
 C616 C 0.75512 0.37329 0.90427
 C617 C 0.76077 0.40952 0.89524
 C618 C 0.74364 0.39067 0.88710
 C619 C 0.74376 0.41751 0.91423
 C620 C 0.72644 0.39844 0.90635
 C621 C 0.72536 0.36632 0.93939
 C622 C 0.71475 0.35464 0.95318
 C623 C 0.77320 0.42590 0.88024
 C624 C 0.78322 0.44010 0.86853
 H625 H 0.79152 0.39015 0.91432
 H626 H 0.75988 0.40398 0.94970
 H627 H 0.75963 0.35492 0.90037
 H628 H 0.73903 0.38694 0.86872
 H629 H 0.73923 0.43587 0.91815
 H630 H 0.70738 0.40075 0.90415
 C631 C 0.25602 0.58237 0.91473
 C632 C 0.27365 0.60113 0.90682
 C633 C 0.26204 0.61857 0.92341
 C634 C 0.24459 0.60002 0.93153
 C635 C 0.23929 0.59035 0.89547
 C636 C 0.22767 0.60778 0.91206
 C637 C 0.25673 0.60889 0.88730
 C638 C 0.24532 0.62661 0.90417
 C639 C 0.27483 0.63362 0.93952
 C640 C 0.28546 0.64530 0.95331
 C641 C 0.22680 0.57395 0.88052
 C642 C 0.21673 0.55975 0.86883
 H643 H 0.26028 0.56400 0.91890
 H644 H 0.29270 0.59856 0.90484
 H645 H 0.23974 0.59652 0.94988
 H646 H 0.20862 0.61033 0.91403
 H647 H 0.26156 0.61235 0.86894
 H648 H 0.24107 0.64499 0.90002
 C649 C 0.11237 0.25548 0.39087
 C650 C 0.09512 0.24427 0.37337
 C651 C 0.07635 0.26161 0.38124
 C652 C 0.09334 0.27302 0.39845
 C653 C 0.10379 0.23855 0.40967
 C654 C 0.08501 0.25589 0.41748
 C655 C 0.08681 0.22713 0.39247
 C656 C 0.06783 0.24467 0.40006
 C657 C 0.06048 0.27455 0.36610
 C658 C 0.04683 0.28528 0.35435
 C659 C 0.11844 0.22587 0.42618
 C660 C 0.12987 0.21562 0.44044
 H661 H 0.13087 0.25976 0.38729
 H662 H 0.09908 0.23965 0.35506
 H663 H 0.09585 0.29203 0.40075
 H664 H 0.08103 0.26052 0.43579
 H665 H 0.08430 0.20811 0.39019
 H666 H 0.04934 0.24035 0.40369
 C667 C 0.11329 0.74281 0.60870
 C668 C 0.09629 0.75427 0.62626
 C669 C 0.07716 0.73736 0.61831
 C670 C 0.09388 0.72570 0.60102
 C671 C 0.10504 0.76002 0.59000
 C672 C 0.08590 0.74310 0.58210
 C673 C 0.08833 0.77169 0.60727
 C674 C 0.06897 0.75458 0.59959
 C675 C 0.06109 0.72462 0.63342
 C676 C 0.04733 0.71405 0.64518
 C677 C 0.11998 0.77247 0.57357
 C678 C 0.13165 0.78254 0.55938
 H679 H 0.13170 0.73813 0.61225
 H680 H 0.10038 0.75870 0.64460
 H681 H 0.09599 0.70665 0.59862
 H682 H 0.08180 0.73866 0.56376
 H683 H 0.08622 0.79074 0.60965
 H684 H 0.05057 0.75928 0.59599
 C685 C 0.88954 0.75420 0.38503
 C686 C 0.91367 0.76267 0.37638
 C687 C 0.92365 0.73838 0.38136
 C688 C 0.89979 0.72969 0.38974
 C689 C 0.89629 0.76144 0.40985
 C690 C 0.90628 0.73715 0.41480
 C691 C 0.92015 0.77011 0.40147
 C692 C 0.93034 0.74564 0.40619
 C693 C 0.93948 0.72544 0.36617
 C694 C 0.95310 0.71473 0.35437
 C695 C 0.88166 0.77412 0.42638
 C696 C 0.87023 0.78438 0.44064
 H697 H 0.87258 0.75789 0.37654
 H698 H 0.91690 0.77301 0.36040
 H699 H 0.89160 0.71292 0.38474
 H700 H 0.90308 0.72681 0.43079
 H701 H 0.92835 0.78687 0.40647
 H702 H 0.94727 0.74199 0.41474
 C703 C 0.91154 0.22795 0.60722
 C704 C 0.93100 0.24492 0.59951
 C705 C 0.92279 0.26233 0.61805
 C706 C 0.90355 0.24557 0.62603
 C707 C 0.89495 0.23954 0.58976
 C708 C 0.88668 0.25695 0.60828
 C709 C 0.91420 0.25631 0.58184
 C710 C 0.90620 0.27390 0.60058
 C711 C 0.93884 0.27513 0.63315
 C712 C 0.95258 0.28575 0.64491
 C713 C 0.88004 0.22701 0.57334
 C714 C 0.86839 0.21689 0.55914
 H715 H 0.91355 0.20891 0.60977
 H716 H 0.94939 0.24010 0.59606
 H717 H 0.89936 0.24131 0.64438
 H718 H 0.86828 0.26173 0.61169
 H719 H 0.91841 0.26058 0.56349
 H720 H 0.90418 0.29294 0.59801
 C721 C 0.41708 0.08649 0.25658
 C722 C 0.39820 0.09448 0.27402
 C723 C 0.38086 0.07773 0.26245
 C724 C 0.39954 0.06953 0.24518
 C725 C 0.40911 0.10559 0.23967
 C726 C 0.39179 0.08884 0.22809
 C727 C 0.39045 0.11384 0.25693
 C728 C 0.37283 0.09681 0.24556
 C729 C 0.36581 0.06164 0.27524
 C730 C 0.35412 0.04784 0.28584
 C731 C 0.42554 0.12048 0.22717
 C732 C 0.43976 0.13210 0.21707
 H733 H 0.43545 0.08241 0.26096
 H734 H 0.40067 0.09662 0.29305
 H735 H 0.40313 0.05114 0.24049
 H736 H 0.38934 0.08670 0.20906
 H737 H 0.38691 0.13224 0.26160
 H738 H 0.35446 0.10087 0.24118
 C739 C 0.60932 0.11361 0.74276
 C740 C 0.62705 0.09671 0.75413
 C741 C 0.61896 0.07749 0.73740
 C742 C 0.60151 0.09412 0.72584
 C743 C 0.59080 0.10543 0.76019
 C744 C 0.58276 0.08619 0.74346
 C745 C 0.60823 0.08881 0.77177
 C746 C 0.60041 0.06936 0.75484
 C747 C 0.63398 0.06137 0.72461
 C748 C 0.64565 0.04757 0.71400
 C749 C 0.57442 0.12037 0.77271
 C750 C 0.56024 0.13204 0.78282
 H751 H 0.61280 0.13199 0.73796
 H752 H 0.64545 0.10085 0.75836
 H753 H 0.59891 0.09613 0.70682
 H754 H 0.56437 0.08204 0.73922
 H755 H 0.61081 0.08681 0.79079
 H756 H 0.59689 0.05099 0.75967
 C757 C 0.39151 0.91264 0.77315
 C758 C 0.39921 0.93164 0.75569
 C759 C 0.38046 0.92314 0.73863
 C760 C 0.37248 0.90436 0.75589
 C761 C 0.40877 0.89569 0.76182
 C762 C 0.39004 0.88713 0.74477
 C763 C 0.41669 0.91448 0.74455
 C764 C 0.39774 0.90618 0.72731
 C765 C 0.36537 0.93903 0.72563
 C766 C 0.35366 0.95267 0.71487
 C767 C 0.42524 0.88103 0.77455
 C768 C 0.43949 0.86960 0.78483
 H769 H 0.38913 0.91512 0.79215
 H770 H 0.40283 0.95011 0.76005
 H771 H 0.35412 0.90039 0.76039
 H772 H 0.38647 0.86865 0.74044
 H773 H 0.43505 0.91847 0.74004
 H774 H 0.40013 0.90369 0.70831
 C775 C 0.60882 0.91159 0.22793
 C776 C 0.60104 0.93102 0.24489
 C777 C 0.61958 0.92283 0.26232
 C778 C 0.62763 0.90362 0.24557
 C779 C 0.59135 0.89497 0.23946
 C780 C 0.60987 0.88673 0.25689
 C781 C 0.58336 0.91419 0.25622
 C782 C 0.60210 0.90621 0.27384
 C783 C 0.63462 0.93891 0.27517
 C784 C 0.64631 0.95267 0.28582
 C785 C 0.57494 0.88006 0.22692
 C786 C 0.56072 0.86842 0.21681
 H787 H 0.61140 0.91362 0.20891
 H788 H 0.59756 0.94940 0.24008
 H789 H 0.64601 0.89947 0.24134
 H790 H 0.61330 0.86834 0.26166
 H791 H 0.56498 0.91837 0.26046
 H792 H 0.59949 0.90417 0.29286
 C793 C 0.39200 0.22742 0.91259
 C794 C 0.39967 0.24490 0.93160
 C795 C 0.38090 0.26193 0.92311
 C796 C 0.37296 0.24466 0.90431
 C797 C 0.40927 0.23880 0.89567
 C798 C 0.39052 0.25583 0.88712
 C799 C 0.41715 0.25608 0.91448
 C800 C 0.39818 0.27330 0.90619
 C801 C 0.36578 0.27490 0.93899
 C802 C 0.35405 0.28564 0.95263
 C803 C 0.42574 0.22608 0.88101
 C804 C 0.43998 0.21579 0.86957
 H805 H 0.38965 0.20841 0.91505
 H806 H 0.40328 0.24054 0.95006
 H807 H 0.35461 0.24013 0.90032
 H808 H 0.38696 0.26016 0.86865
 H809 H 0.43550 0.26063 0.91849
 H810 H 0.40055 0.29231 0.90373
 C811 C 0.60934 0.74304 0.88647
 C812 C 0.62724 0.75442 0.90320
 C813 C 0.61924 0.73779 0.92253
 C814 C 0.60162 0.72621 0.90607
 C815 C 0.59093 0.76057 0.89472
 C816 C 0.58299 0.74393 0.91406
 C817 C 0.60853 0.77216 0.91117
 C818 C 0.60080 0.75533 0.93072
 C819 C 0.63431 0.72498 0.93857
 C820 C 0.64602 0.71433 0.95232
 C821 C 0.57447 0.77306 0.87985
 C822 C 0.56023 0.78315 0.86823
 H823 H 0.61266 0.73815 0.86809
 H824 H 0.64561 0.75857 0.89893
 H825 H 0.59895 0.70718 0.90414
 H826 H 0.56462 0.73977 0.91836
 H827 H 0.61118 0.79120 0.91309
 H828 H 0.59744 0.76025 0.94909
 C829 C 0.39220 0.77280 0.08728
 C830 C 0.39985 0.75504 0.06853
 C831 C 0.38092 0.73822 0.07712
 C832 C 0.37300 0.75578 0.09565
 C833 C 0.40930 0.76152 0.10444
 C834 C 0.39039 0.74472 0.11309
 C835 C 0.41716 0.74395 0.08590
 C836 C 0.39803 0.72696 0.09429
 C837 C 0.36579 0.72516 0.06130
 C838 C 0.35406 0.71435 0.04770
 C839 C 0.42580 0.77431 0.11904
 C840 C 0.44007 0.78465 0.13042
 H841 H 0.39000 0.79179 0.08457
 H842 H 0.40359 0.75914 0.05004
 H843 H 0.35466 0.76049 0.09948
 H844 H 0.38670 0.74064 0.13159
 H845 H 0.43550 0.73924 0.08205
 H846 H 0.40026 0.70797 0.09700
 C847 C 0.58310 0.25595 0.08568
 C848 C 0.60228 0.27296 0.09396
 C849 C 0.61931 0.26162 0.07677
 C850 C 0.60034 0.24479 0.06829
 C851 C 0.59103 0.23844 0.10425
 C852 C 0.60805 0.22709 0.08706
 C853 C 0.60998 0.25526 0.11279
 C854 C 0.62729 0.24412 0.09533
 C855 C 0.63439 0.27464 0.06089
 C856 C 0.64608 0.28543 0.04727
 C857 C 0.57457 0.22572 0.11893
 C858 C 0.56033 0.21546 0.13038
 H859 H 0.56475 0.26066 0.08188
 H860 H 0.60007 0.29196 0.09663
 H861 H 0.59653 0.24063 0.04982
 H862 H 0.61023 0.20809 0.08440
 H863 H 0.61374 0.25940 0.13127
 H864 H 0.64565 0.23942 0.09911
 C865 C 0.25638 0.11320 0.60981
 C866 C 0.24500 0.09650 0.62770
 C867 C 0.26145 0.07706 0.61955
 C868 C 0.27302 0.09349 0.60194
 C869 C 0.23866 0.10511 0.59150
 C870 C 0.25511 0.08566 0.58341
 C871 C 0.22706 0.08868 0.60910
 C872 C 0.24372 0.06903 0.60122
 C873 C 0.27426 0.06090 0.63450
 C874 C 0.28491 0.04708 0.64611
 C875 C 0.22617 0.12011 0.57516
 C876 C 0.21611 0.13182 0.56099
 H877 H 0.26142 0.13154 0.61315
 H878 H 0.24099 0.10076 0.64610
 H879 H 0.29206 0.09529 0.59916
 H880 H 0.25913 0.08138 0.56501
 H881 H 0.20802 0.08689 0.61186
 H882 H 0.23865 0.05069 0.59783
 C883 C 0.75742 0.07763 0.41274
 C884 C 0.73168 0.08094 0.40558
 C885 C 0.73844 0.07602 0.38020
 C886 C 0.76403 0.07250 0.38717
 C887 C 0.76169 0.10365 0.40833
 C888 C 0.76850 0.09876 0.38297
 C889 C 0.73611 0.10718 0.40138
 C890 C 0.74268 0.10203 0.37573
 C891 C 0.72540 0.06004 0.36523
 C892 C 0.71461 0.04631 0.35363
 C893 C 0.77447 0.11839 0.42470
 C894 C 0.78479 0.12989 0.43888
 H895 H 0.76361 0.06776 0.42814
 H896 H 0.71640 0.07345 0.41472
 H897 H 0.77536 0.05806 0.38116
 H898 H 0.78379 0.10628 0.37388
 H899 H 0.72478 0.12161 0.40742
 H900 H 0.73646 0.11188 0.36033
 C901 C 0.77258 0.91143 0.60891
 C902 C 0.75570 0.93087 0.60096
 C903 C 0.73815 0.92282 0.61944
 C904 C 0.75482 0.90360 0.62765
 C905 C 0.76104 0.89476 0.59148
 C906 C 0.74350 0.88666 0.60993
 C907 C 0.74436 0.91399 0.58333
 C908 C 0.72663 0.90614 0.60200
 C909 C 0.72527 0.93899 0.63432
 C910 C 0.71458 0.95282 0.64588
 C911 C 0.77358 0.87976 0.57518
 C912 C 0.78368 0.86806 0.56104
 H913 H 0.79162 0.91341 0.61156
 H914 H 0.76058 0.94922 0.59742
 H915 H 0.75897 0.89952 0.64606
 H916 H 0.73864 0.86829 0.61343
 H917 H 0.74020 0.91809 0.56492
 H918 H 0.70759 0.90415 0.59932
 C919 C 0.26103 0.88898 0.39621
 C920 C 0.25124 0.89973 0.37348
 C921 C 0.26155 0.92335 0.38061
 C922 C 0.27154 0.91285 0.40306
 C923 C 0.23840 0.89571 0.40875
 C924 C 0.24874 0.91933 0.41582
 C925 C 0.22838 0.90620 0.38631
 C926 C 0.23893 0.93005 0.39317
 C927 C 0.27454 0.93934 0.36562
 C928 C 0.28529 0.95307 0.35400
 C929 C 0.22566 0.88096 0.42512
 C930 C 0.21537 0.86946 0.43930
 H931 H 0.26995 0.87192 0.39766
 H932 H 0.25243 0.89187 0.35589
 H933 H 0.28942 0.91575 0.40979
 H934 H 0.24757 0.92722 0.43340
 H935 H 0.21049 0.90327 0.37963
 H936 H 0.22998 0.94710 0.39176
 C937 C 0.08448 0.41687 0.74536
 C938 C 0.09264 0.39869 0.72726
 C939 C 0.07639 0.38069 0.73848
 C940 C 0.06801 0.39866 0.75639
 C941 C 0.10395 0.40881 0.76180
 C942 C 0.08770 0.39082 0.77303
 C943 C 0.11238 0.39086 0.74389
 C944 C 0.09585 0.37257 0.75491
 C945 C 0.06046 0.36570 0.72538
 C946 C 0.04679 0.35408 0.71453
 C947 C 0.11868 0.42519 0.77460
 C948 C 0.13015 0.43938 0.78492
 H949 H 0.07996 0.43527 0.74158
 H950 H 0.09450 0.40177 0.70829
 H951 H 0.04961 0.40172 0.76140
 H952 H 0.08585 0.38776 0.79200
 H953 H 0.13080 0.38784 0.73891
 H954 H 0.10034 0.35417 0.75867
 C955 C 0.11285 0.61024 0.25476
 C956 C 0.09525 0.62742 0.24363
 C957 C 0.07680 0.61947 0.26125
 C958 C 0.09413 0.60257 0.27258
 C959 C 0.10430 0.59118 0.23809
 C960 C 0.08583 0.58328 0.25571
 C961 C 0.08697 0.60807 0.22674
 C962 C 0.06830 0.60038 0.24456
 C963 C 0.06089 0.63452 0.27425
 C964 C 0.04723 0.64619 0.28504
 C965 C 0.11899 0.57472 0.22539
 C966 C 0.13043 0.56047 0.21514
 H967 H 0.13136 0.61410 0.25879
 H968 H 0.09894 0.64576 0.23882
 H969 H 0.09690 0.60047 0.29157
 H970 H 0.08212 0.56495 0.26054
 H971 H 0.08421 0.61014 0.20775
 H972 H 0.04981 0.59648 0.24050
 C973 C 0.91108 0.39134 0.22775
 C974 C 0.93063 0.39913 0.24459
 C975 C 0.92250 0.38064 0.26209
 C976 C 0.90317 0.37259 0.24545
 C977 C 0.89455 0.40884 0.23936
 C978 C 0.88637 0.39038 0.25685
 C979 C 0.91389 0.41684 0.25600
 C980 C 0.90597 0.39816 0.27368
 C981 C 0.93862 0.36562 0.27488
 C982 C 0.95241 0.35397 0.28552
 C983 C 0.87960 0.42525 0.22689
 C984 C 0.86793 0.43945 0.21682
 H985 H 0.91299 0.38873 0.20872
 H986 H 0.94900 0.40257 0.23968
 H987 H 0.89896 0.35421 0.24127
 H988 H 0.86799 0.38698 0.26173
 H989 H 0.91813 0.43522 0.26020
 H990 H 0.90404 0.40079 0.29271
 C991 C 0.91428 0.58317 0.74417
 C992 C 0.90604 0.60240 0.72723
 C993 C 0.92338 0.61933 0.73853
 C994 C 0.93183 0.60031 0.75529
 C995 C 0.89580 0.59116 0.76175
 C996 C 0.91314 0.60808 0.77306
 C997 C 0.88730 0.61016 0.74500
 C998 C 0.90491 0.62738 0.75609
 C999 C 0.93932 0.63431 0.72549
 C1000 C 0.95301 0.64593 0.71467
 C1001 C 0.88108 0.57476 0.77449
 C1002 C 0.86961 0.56055 0.78476
 H1003 H 0.91797 0.56482 0.73942
 H1004 H 0.90329 0.60022 0.70824
 H1005 H 0.95030 0.59640 0.75938
 H1006 H 0.91588 0.61023 0.79205
 H1007 H 0.86880 0.61402 0.74093
 H1008 H 0.90125 0.64574 0.76083
 C1009 C 0.74487 0.60997 0.88818
 C1010 C 0.72694 0.60231 0.90681
 C1011 C 0.73832 0.61910 0.92423
 C1012 C 0.75605 0.62704 0.90587
 C1013 C 0.76144 0.59080 0.89668
 C1014 C 0.77283 0.60758 0.91410
 C1015 C 0.74371 0.58291 0.91505
 C1016 C 0.75490 0.59991 0.93268
 C1017 C 0.72531 0.63421 0.94012
 C1018 C 0.71451 0.64595 0.95373
 C1019 C 0.77415 0.57438 0.88191
 C1020 C 0.78441 0.56022 0.87035
 H1021 H 0.74091 0.61392 0.86971
 H1022 H 0.70793 0.60030 0.90397
 H1023 H 0.76097 0.64537 0.90228
 H1024 H 0.79184 0.60957 0.91693
 H1025 H 0.73878 0.56459 0.91867
 H1026 H 0.75890 0.59591 0.95114
 C1027 C 0.25530 0.39019 0.88845
 C1028 C 0.27290 0.39792 0.90738
 C1029 C 0.26154 0.38082 0.92449
 C1030 C 0.24414 0.37281 0.90583
 C1031 C 0.23837 0.40907 0.89693
 C1032 C 0.22700 0.39197 0.91404
 C1033 C 0.25578 0.41701 0.91560
 C1034 C 0.24461 0.39971 0.93292
 C1035 C 0.27458 0.36574 0.94039
 C1036 C 0.28541 0.35403 0.95399
 C1037 C 0.22564 0.42547 0.88216
 C1038 C 0.21536 0.43963 0.87060
 H1039 H 0.25953 0.38647 0.86999
 H1040 H 0.29191 0.40021 0.90481
 H1041 H 0.23951 0.35446 0.90199
 H1042 H 0.20798 0.38971 0.91660
 H1043 H 0.26042 0.43537 0.91946
 H1044 H 0.24034 0.40348 0.95137
 C1045 C 0.26547 0.59130 0.10152
 C1046 C 0.26324 0.59204 0.07470
 C1047 C 0.26190 0.61871 0.07584
 C1048 C 0.26433 0.61823 0.10244
 C1049 C 0.23880 0.59038 0.10337
 C1050 C 0.23743 0.61705 0.10456
 C1051 C 0.23641 0.59090 0.07677
 C1052 C 0.23524 0.61780 0.07768
 C1053 C 0.27490 0.63384 0.05995
 C1054 C 0.28568 0.64560 0.04635
 C1055 C 0.22609 0.57397 0.11814
 C1056 C 0.21579 0.55983 0.12970
 H1057 H 0.27775 0.58022 0.11148
 H1058 H 0.27398 0.58189 0.06227
 H1059 H 0.27596 0.62964 0.11283
 H1060 H 0.22666 0.62714 0.11702
 H1061 H 0.22480 0.57949 0.06636
 H1062 H 0.22295 0.62887 0.06771
 C1063 C 0.77207 0.39180 0.08760
 C1064 C 0.75446 0.37292 0.09545
 C1065 C 0.73773 0.38092 0.07620
 C1066 C 0.75513 0.39954 0.06812
 C1067 C 0.76039 0.40919 0.10419
 C1068 C 0.74365 0.41714 0.08493
 C1069 C 0.74299 0.39059 0.11232
 C1070 C 0.72606 0.39832 0.09280
 C1071 C 0.72495 0.36584 0.06009
 C1072 C 0.71429 0.35412 0.04634
 C1073 C 0.77281 0.42559 0.11922
 C1074 C 0.78285 0.43975 0.13101
 H1075 H 0.79113 0.38931 0.08563
 H1076 H 0.75876 0.35455 0.09959
 H1077 H 0.76000 0.40307 0.04977
 H1078 H 0.73934 0.43550 0.08077
 H1079 H 0.73815 0.38710 0.13068
 H1080 H 0.70701 0.40084 0.09478
 C1081 C 0.91560 0.74369 0.58311
 C1082 C 0.93233 0.75508 0.60086
 C1083 C 0.92425 0.73747 0.61927
 C1084 C 0.90773 0.72590 0.60171
 C1085 C 0.89622 0.76026 0.59116
 C1086 C 0.88810 0.74266 0.60955
 C1087 C 0.91274 0.77184 0.60870
 C1088 C 0.90489 0.75403 0.62738
 C1089 C 0.94037 0.72463 0.63428
 C1090 C 0.95413 0.71393 0.64595
 C1091 C 0.88118 0.77276 0.57483
 C1092 C 0.86939 0.78283 0.56072
 H1093 H 0.91983 0.73957 0.56472
 H1094 H 0.95068 0.76006 0.59744
 H1095 H 0.90583 0.70687 0.59899
 H1096 H 0.86973 0.73770 0.61293
 H1097 H 0.91462 0.79088 0.61140
 H1098 H 0.90067 0.75813 0.64576
 C1099 C 0.92318 0.23510 0.40727
 C1100 C 0.92153 0.23495 0.38039
 C1101 C 0.92427 0.26154 0.38040
 C1102 C 0.92614 0.26185 0.40705
 C1103 C 0.89667 0.23835 0.40859
 C1104 C 0.89942 0.26493 0.40859
 C1105 C 0.89475 0.23799 0.38194
 C1106 C 0.89776 0.26482 0.38169
 C1107 C 0.94020 0.27459 0.36538
 C1108 C 0.95384 0.28544 0.35371
 C1109 C 0.88188 0.22560 0.42495
 C1110 C 0.87031 0.21531 0.43909
 H1111 H 0.93348 0.22275 0.41796
 H1112 H 0.93079 0.22276 0.36862
 H1113 H 0.93921 0.27180 0.41724
 H1114 H 0.89017 0.27712 0.42038
 H1115 H 0.88165 0.22801 0.37182
 H1116 H 0.88748 0.27718 0.37100
 C1117 C 0.11177 0.25747 0.60921
 C1118 C 0.09199 0.27404 0.60138
 C1119 C 0.07564 0.26248 0.61909
 C1120 C 0.09516 0.24610 0.62719
 C1121 C 0.10365 0.23969 0.59096
 C1122 C 0.08732 0.22811 0.60866
 C1123 C 0.08413 0.25608 0.58291
 C1124 C 0.06758 0.24470 0.60082
 C1125 C 0.05953 0.27532 0.63410
 C1126 C 0.04577 0.28601 0.64577
 C1127 C 0.11869 0.22720 0.57463
 C1128 C 0.13049 0.21712 0.56053
 H1129 H 0.13012 0.26256 0.61247
 H1130 H 0.09374 0.29306 0.59854
 H1131 H 0.09951 0.24214 0.64558
 H1132 H 0.08558 0.20909 0.61147
 H1133 H 0.07975 0.26005 0.56453
 H1134 H 0.04923 0.23958 0.59752
 C1135 C 0.11186 0.74429 0.38982
 C1136 C 0.09289 0.72673 0.39752
 C1137 C 0.07575 0.73815 0.38047
 C1138 C 0.09446 0.75552 0.37249
 C1139 C 0.10343 0.76120 0.40873
 C1140 C 0.08631 0.77263 0.39169
 C1141 C 0.08472 0.74382 0.41665
 C1142 C 0.06738 0.75506 0.39940
 C1143 C 0.05978 0.72519 0.36539
 C1144 C 0.04611 0.71443 0.35367
 C1145 C 0.11826 0.77386 0.42515
 C1146 C 0.12984 0.78409 0.43932
 H1147 H 0.13032 0.74003 0.38608
 H1148 H 0.09542 0.70771 0.39975
 H1149 H 0.09828 0.76017 0.35415
 H1150 H 0.08378 0.79165 0.38948
 H1151 H 0.08088 0.73915 0.43498
 H1152 H 0.04893 0.75936 0.40319
 C1153 C 0.58230 0.91456 0.74351
 C1154 C 0.59942 0.93190 0.75497
 C1155 C 0.61850 0.92373 0.73813
 C1156 C 0.60158 0.90660 0.72649
 C1157 C 0.59023 0.89578 0.76080
 C1158 C 0.60929 0.88757 0.74396
 C1159 C 0.60713 0.91291 0.77245
 C1160 C 0.62648 0.90497 0.75541
 C1161 C 0.63361 0.93980 0.72534
 C1162 C 0.64536 0.95348 0.71465
 C1163 C 0.57383 0.88076 0.77323
 C1164 C 0.55969 0.86896 0.78326
 H1165 H 0.56395 0.91834 0.73876
 H1166 H 0.59551 0.95030 0.75937
 H1167 H 0.59946 0.90417 0.70746
 H1168 H 0.61316 0.86916 0.73959
 H1169 H 0.60923 0.91533 0.79149
 H1170 H 0.64483 0.90121 0.76015
 C1171 C 0.39095 0.88832 0.25514
 C1172 C 0.39861 0.90722 0.27279
 C1173 C 0.38158 0.92438 0.26137
 C1174 C 0.37364 0.90574 0.24392
 C1175 C 0.40993 0.89679 0.23835
 C1176 C 0.39291 0.91394 0.22691
 C1177 C 0.41781 0.91545 0.25580
 C1178 C 0.40058 0.93280 0.24456
 C1179 C 0.36642 0.94027 0.27432
 C1180 C 0.35462 0.95385 0.28510
 C1181 C 0.42636 0.88200 0.22570
 C1182 C 0.44054 0.87041 0.21547
 H1183 H 0.38717 0.86985 0.25934
 H1184 H 0.40079 0.90463 0.29179
 H1185 H 0.35530 0.90193 0.23919
 H1186 H 0.39075 0.91653 0.20791
 H1187 H 0.43615 0.91927 0.26055
 H1188 H 0.40439 0.95126 0.24034
 C1189 C 0.58339 0.08851 0.25937
 C1190 C 0.59702 0.06790 0.24869
 C1191 C 0.61896 0.07611 0.26159
 C1192 C 0.60555 0.09652 0.27246
 C1193 C 0.59057 0.10365 0.23856
 C1194 C 0.61250 0.11192 0.25145
 C1195 C 0.60398 0.08324 0.22769
 C1196 C 0.62619 0.09123 0.24078
 C1197 C 0.63413 0.06023 0.27455
 C1198 C 0.64593 0.04665 0.28531
 C1199 C 0.57412 0.11843 0.22591
 C1200 C 0.55994 0.13000 0.21567
 H1201 H 0.56561 0.08755 0.26687
 H1202 H 0.59079 0.04964 0.24769
 H1203 H 0.60635 0.10181 0.29101
 H1204 H 0.61867 0.13019 0.25242
 H1205 H 0.60316 0.07795 0.20914
 H1206 H 0.64397 0.09217 0.23329
 C1207 C 0.41714 0.08518 0.74414
 C1208 C 0.40010 0.06769 0.75545
 C1209 C 0.38090 0.07609 0.73884
 C1210 C 0.39775 0.09338 0.72735
 C1211 C 0.40935 0.10371 0.76174
 C1212 C 0.39017 0.11217 0.74515
 C1213 C 0.39251 0.08643 0.77324
 C1214 C 0.37305 0.09462 0.75644
 C1215 C 0.36572 0.06017 0.72594
 C1216 C 0.35393 0.04655 0.71520
 C1217 C 0.42584 0.11852 0.77432
 C1218 C 0.44007 0.13011 0.78449
 H1219 H 0.43546 0.08146 0.73922
 H1220 H 0.40403 0.04923 0.75955
 H1221 H 0.39974 0.09607 0.70834
 H1222 H 0.38628 0.13064 0.74107
 H1223 H 0.39054 0.08375 0.79226
 H1224 H 0.35473 0.09831 0.76135
 C1225 C 0.58328 0.74934 0.08124
 C1226 C 0.60503 0.75983 0.06934
 C1227 C 0.61892 0.73805 0.07621
 C1228 C 0.59736 0.72739 0.08789
 C1229 C 0.59074 0.76075 0.10423
 C1230 C 0.60461 0.73896 0.11113
 C1231 C 0.61229 0.77144 0.09256
 C1232 C 0.62644 0.74944 0.09920
 C1233 C 0.63398 0.72525 0.06011
 C1234 C 0.64571 0.71458 0.04638
 C1235 C 0.57439 0.77321 0.11927
 C1236 C 0.56027 0.78327 0.13107
 H1237 H 0.56535 0.74944 0.07402
 H1238 H 0.60536 0.76828 0.05199
 H1239 H 0.59138 0.70914 0.08580
 H1240 H 0.60425 0.73053 0.12849
 H1241 H 0.61824 0.78970 0.09467
 H1242 H 0.64437 0.74932 0.10640
 C1243 C 0.39097 0.25682 0.11249
 C1244 C 0.39871 0.27379 0.09303
 C1245 C 0.38135 0.26212 0.07637
 C1246 C 0.37333 0.24535 0.09556
 C1247 C 0.40961 0.23948 0.10435
 C1248 C 0.39226 0.22780 0.08770
 C1249 C 0.41758 0.25626 0.08515
 C1250 C 0.40001 0.24478 0.06827
 C1251 C 0.36624 0.27489 0.06028
 C1252 C 0.35447 0.28553 0.04657
 C1253 C 0.42600 0.22706 0.11939
 C1254 C 0.44015 0.21703 0.13119
 H1255 H 0.38744 0.26162 0.13086
 H1256 H 0.40121 0.29283 0.09505
 H1257 H 0.35495 0.24101 0.09966
 H1258 H 0.38979 0.20875 0.08569
 H1259 H 0.43595 0.26061 0.08103
 H1260 H 0.40358 0.23995 0.04992
 C1261 C 0.60911 0.25721 0.88734
 C1262 C 0.60136 0.27382 0.90712
 C1263 C 0.61903 0.26215 0.92344
 C1264 C 0.62706 0.24574 0.90393
 C1265 C 0.59076 0.23954 0.89543
 C1266 C 0.60841 0.22785 0.91174
 C1267 C 0.58279 0.25596 0.91495
 C1268 C 0.60066 0.24447 0.93148
 C1269 C 0.63413 0.27491 0.93956
 C1270 C 0.64585 0.28555 0.95331
 C1271 C 0.57434 0.22713 0.88039
 C1272 C 0.56017 0.21712 0.86860
 H1273 H 0.61239 0.26230 0.86902
 H1274 H 0.59862 0.29286 0.90539
 H1275 H 0.64544 0.24169 0.89959
 H1276 H 0.61113 0.20881 0.91346
 H1277 H 0.56441 0.26002 0.91931
 H1278 H 0.59734 0.23936 0.94979
 C1279 C 0.41751 0.74430 0.91568
 C1280 C 0.39997 0.75550 0.93274
 C1281 C 0.38129 0.73829 0.92437
 C1282 C 0.39862 0.72690 0.90751
 C1283 C 0.40953 0.76139 0.89675
 C1284 C 0.39087 0.74419 0.88833
 C1285 C 0.39220 0.77279 0.91361
 C1286 C 0.37325 0.75538 0.90546
 C1287 C 0.36619 0.72530 0.94028
 C1288 C 0.35444 0.71452 0.95389
 C1289 C 0.42592 0.77410 0.88195
 C1290 C 0.44006 0.78437 0.87036
 H1291 H 0.43588 0.73988 0.91972
 H1292 H 0.40356 0.76002 0.95117
 H1293 H 0.40111 0.70789 0.90517
 H1294 H 0.38732 0.73970 0.86989
 H1295 H 0.38974 0.79181 0.91594
 H1296 H 0.35488 0.75978 0.90143
 C1297 C 0.77361 0.91355 0.39345
 C1298 C 0.75672 0.90532 0.37408
 C1299 C 0.73914 0.92386 0.38194
 C1300 C 0.75583 0.93232 0.40105
 C1301 C 0.76214 0.89632 0.41034
 C1302 C 0.74456 0.91488 0.41815
 C1303 C 0.74546 0.88781 0.39126
 C1304 C 0.72768 0.90662 0.39884
 C1305 C 0.72621 0.93974 0.36676
 C1306 C 0.71546 0.95332 0.35495
 C1307 C 0.77478 0.88154 0.42680
 C1308 C 0.78501 0.86997 0.44098
 H1309 H 0.79264 0.91623 0.39142
 H1310 H 0.76157 0.90156 0.35578
 H1311 H 0.75997 0.95079 0.40492
 H1312 H 0.73969 0.91865 0.43645
 H1313 H 0.74135 0.86933 0.38743
 H1314 H 0.70866 0.90394 0.40090
 C1315 C 0.22723 0.91174 0.60742
 C1316 C 0.24476 0.90385 0.62636
 C1317 C 0.26150 0.92315 0.61849
 C1318 C 0.24417 0.93127 0.59982
 C1319 C 0.23901 0.89520 0.59005
 C1320 C 0.25576 0.91451 0.58224
 C1321 C 0.25633 0.88703 0.60870
 C1322 C 0.27327 0.90660 0.60111
 C1323 C 0.27420 0.93923 0.63368
 C1324 C 0.28480 0.95293 0.64549
 C1325 C 0.22667 0.88018 0.57357
 C1326 C 0.21670 0.86841 0.55937
 H1327 H 0.20816 0.91368 0.60983
 H1328 H 0.24038 0.89965 0.64468
 H1329 H 0.23930 0.94963 0.59632
 H1330 H 0.26015 0.91873 0.56391
 H1331 H 0.26118 0.86866 0.61216
 H1332 H 0.29234 0.90465 0.59867
 C1333 C 0.22894 0.09542 0.38666
 C1334 C 0.25296 0.10102 0.37568
 C1335 C 0.26120 0.07636 0.38188
 C1336 C 0.23741 0.07052 0.39260
 C1337 C 0.23815 0.10384 0.41029
 C1338 C 0.24642 0.07918 0.41644
 C1339 C 0.26194 0.10970 0.39960
 C1340 C 0.27038 0.08481 0.40553
 C1341 C 0.27417 0.06052 0.36669
 C1342 C 0.28495 0.04697 0.35487
 C1343 C 0.22546 0.11858 0.42675
 C1344 C 0.21518 0.13011 0.44092
 H1345 H 0.21175 0.09997 0.37910
 H1346 H 0.25580 0.10981 0.35873
 H1347 H 0.22746 0.05424 0.38956
 H1348 H 0.24360 0.07037 0.43339
 H1349 H 0.27188 0.12598 0.40266
 H1350 H 0.28755 0.08028 0.41313
 C1351 C 0.77248 0.08847 0.60764
 C1352 C 0.75426 0.09639 0.62590
 C1353 C 0.73817 0.07655 0.61799
 C1354 C 0.75618 0.06841 0.60000
 C1355 C 0.76083 0.10437 0.58959
 C1356 C 0.74472 0.08452 0.58173
 C1357 C 0.74282 0.11255 0.60757
 C1358 C 0.72653 0.09245 0.59993
 C1359 C 0.72538 0.06055 0.63317
 C1360 C 0.71471 0.04691 0.64498
 C1361 C 0.77327 0.11932 0.57313
 C1362 C 0.78331 0.13105 0.55895
 H1363 H 0.79152 0.08702 0.61063
 H1364 H 0.75804 0.10108 0.64425
 H1365 H 0.76154 0.05009 0.59703
 H1366 H 0.74094 0.07981 0.56339
 H1367 H 0.73748 0.13088 0.61049
 H1368 H 0.70750 0.09392 0.59691
 C1369 C 0.88771 0.60937 0.25500
 C1370 C 0.90645 0.60179 0.27285
 C1371 C 0.92379 0.61864 0.26143
 C1372 C 0.90531 0.62650 0.24378
 C1373 C 0.89623 0.59022 0.23842
 C1374 C 0.91356 0.60706 0.22699
 C1375 C 0.91472 0.58241 0.25608
 C1376 C 0.93225 0.59946 0.24484
 C1377 C 0.93968 0.63382 0.27437
 C1378 C 0.95329 0.64563 0.28511
 C1379 C 0.88146 0.57375 0.22576
 C1380 C 0.86989 0.55956 0.21551
 H1381 H 0.86922 0.61325 0.25902
 H1382 H 0.90370 0.59978 0.29185
 H1383 H 0.90162 0.64481 0.23887
 H1384 H 0.91630 0.60904 0.20799
 H1385 H 0.91843 0.56411 0.26099
 H1386 H 0.95073 0.59554 0.24079
 C1387 C 0.88751 0.39391 0.74046
 C1388 C 0.90928 0.40147 0.72647
 C1389 C 0.92310 0.38153 0.73770
 C1390 C 0.90158 0.37370 0.75150
 C1391 C 0.89527 0.40984 0.76048
 C1392 C 0.90907 0.38992 0.77173
 C1393 C 0.91680 0.41762 0.74667
 C1394 C 0.93082 0.39748 0.75772
 C1395 C 0.93911 0.36640 0.72488
 C1396 C 0.95280 0.35463 0.71420
 C1397 C 0.88033 0.42626 0.77298
 C1398 C 0.86862 0.44042 0.78308
 H1399 H 0.86952 0.39264 0.73352
 H1400 H 0.90954 0.40606 0.70773
 H1401 H 0.89550 0.35545 0.75334
 H1402 H 0.90880 0.38535 0.79049
 H1403 H 0.92289 0.43586 0.74481
 H1404 H 0.94880 0.39879 0.76469
 C1405 C 0.11283 0.60863 0.74344
 C1406 C 0.09335 0.60092 0.72645
 C1407 C 0.07673 0.61837 0.73800
 C1408 C 0.09594 0.62636 0.75481
 C1409 C 0.10456 0.59008 0.76080
 C1410 C 0.08794 0.60752 0.77237
 C1411 C 0.08533 0.58215 0.74399
 C1412 C 0.06850 0.59980 0.75537
 C1413 C 0.06070 0.63349 0.72516
 C1414 C 0.04702 0.64526 0.71447
 C1415 C 0.11950 0.57367 0.77331
 C1416 C 0.13123 0.55951 0.78341
 H1417 H 0.13124 0.61208 0.73870
 H1418 H 0.09541 0.59836 0.70742
 H1419 H 0.10012 0.64473 0.75910
 H1420 H 0.08589 0.61005 0.79140
 H1421 H 0.08114 0.56379 0.73969
 H1422 H 0.05010 0.59632 0.76015
 C1423 C 0.11239 0.39176 0.25733
 C1424 C 0.09240 0.39950 0.27368
 C1425 C 0.07632 0.38155 0.26208
 C1426 C 0.09605 0.37354 0.24592
 C1427 C 0.10426 0.40983 0.23940
 C1428 C 0.08819 0.39189 0.22778
 C1429 C 0.08452 0.41778 0.25557
 C1430 C 0.06823 0.39963 0.24415
 C1431 C 0.06026 0.36642 0.27486
 C1432 C 0.04656 0.35462 0.28549
 C1433 C 0.11927 0.42622 0.22694
 C1434 C 0.13106 0.44034 0.21687
 H1435 H 0.13073 0.38872 0.26260
 H1436 H 0.09397 0.40247 0.29270
 H1437 H 0.10061 0.35516 0.24210
 H1438 H 0.08664 0.38894 0.20877
 H1439 H 0.07994 0.43615 0.25940
 H1440 H 0.04990 0.40272 0.23885
   
