data_POSCAR
  _audit_creation_date              2014-09-24
  _audit_creation_method            'ToBaCCo'
  _symmetry_space_group_name_H-M    'P1'
  _symmetry_Int_Tables_number       1
  _symmetry_cell_setting            triclinic
  loop_
  _symmetry_equiv_pos_as_xyz
 x,y,z
_cell_length_a 61.7943
_cell_length_b 61.7218
_cell_length_c 61.5786
_cell_angle_alpha 89.950400
_cell_angle_beta 89.988100
_cell_angle_gamma 89.964700
loop_
  _atom_site_label
  _atom_site_type_symbol
  _atom_site_fract_x
  _atom_site_fract_y
  _atom_site_fract_z
N1 N 0.36258 1.34832 0.30302
 N2 N 0.34763 1.36346 0.30332
 C3 C 0.35088 1.37700 0.28645
 C4 C 0.36896 1.37002 0.27489
 C5 C 0.37586 1.35171 0.28606
 H6 H 0.34082 1.39089 0.28294
 H7 H 0.38951 1.34144 0.28229
 Cu8 Cu 0.32529 1.36344 0.32571
 Cu9 Cu 0.36392 1.32521 0.32456
 Cu10 Cu 0.32411 1.32515 0.36441
 N11 N 0.30291 1.36341 0.34805
 N12 N 0.30258 1.34826 0.36305
 C13 C 0.28562 1.35162 0.37632
 C14 C 0.27448 1.36993 0.36936
 C15 C 0.28607 1.37692 0.35126
 H16 H 0.28181 1.34133 0.38999
 H17 H 0.28260 1.39082 0.34115
 N18 N 0.34732 1.30322 0.36292
 N19 N 0.36242 1.30325 0.34778
 C20 C 0.37581 1.28636 0.35116
 C21 C 0.36886 1.27506 0.36932
 C22 C 0.35072 1.28629 0.37632
 H23 H 0.38964 1.28264 0.34110
 H24 H 0.34071 1.28249 0.39017
 H25 H 0.33120 1.32480 0.33162
 H26 H 0.34873 1.34200 0.34927
 N27 N 0.36257 0.84802 0.80327
 N28 N 0.34745 0.86299 0.80342
 C29 C 0.35072 0.87655 0.78658
 C30 C 0.36886 0.86968 0.77520
 C31 C 0.37590 0.85149 0.78637
 H32 H 0.34063 0.89038 0.78293
 H33 H 0.38970 0.84142 0.78259
 Cu34 Cu 0.32504 0.86317 0.82564
 Cu35 Cu 0.36396 0.82507 0.82486
 Cu36 Cu 0.32422 0.82500 0.86467
 N37 N 0.30284 0.86294 0.84807
 N38 N 0.30265 0.84796 0.86324
 C39 C 0.28574 0.85142 0.87656
 C40 C 0.27463 0.86962 0.86944
 C41 C 0.28604 0.87649 0.85128
 H42 H 0.28192 0.84135 0.89038
 H43 H 0.28244 0.89031 0.84113
 N44 N 0.34747 0.80317 0.86326
 N45 N 0.36256 0.80322 0.84811
 C46 C 0.37594 0.78633 0.85145
 C47 C 0.36900 0.77502 0.86960
 C48 C 0.35087 0.78624 0.87663
 H49 H 0.38973 0.78259 0.84135
 H50 H 0.34083 0.78239 0.89045
 H51 H 0.33126 0.82461 0.83192
 H52 H 0.34865 0.84208 0.84944
 N53 N 0.86286 1.34806 0.80286
 N54 N 0.84791 1.36319 0.80315
 C55 C 0.85114 1.37670 0.78625
 C56 C 0.86918 1.36969 0.77467
 C57 C 0.87610 1.35139 0.78586
 H58 H 0.84109 1.39059 0.78277
 H59 H 0.88975 1.34114 0.78208
 Cu60 Cu 0.82577 1.36373 0.82569
 Cu61 Cu 0.86421 1.32509 0.82447
 Cu62 Cu 0.82448 1.32506 0.86427
 N63 N 0.80326 1.36316 0.84785
 N64 N 0.80294 1.34804 0.86287
 C65 C 0.78593 1.35137 0.87608
 C66 C 0.77485 1.36962 0.86905
 C67 C 0.78640 1.37665 0.85103
 H68 H 0.78201 1.34118 0.88980
 H69 H 0.78287 1.39056 0.84098
 N70 N 0.84769 1.30320 0.86288
 N71 N 0.86279 1.30322 0.84774
 C72 C 0.87618 1.28634 0.85115
 C73 C 0.86921 1.27506 0.86932
 C74 C 0.85108 1.28631 0.87631
 H75 H 0.89000 1.28260 0.84110
 H76 H 0.84106 1.28254 0.89017
 H77 H 0.83145 1.32500 0.83148
 H78 H 0.84909 1.34199 0.84922
 N79 N 0.86311 0.84807 0.30299
 N80 N 0.84796 0.86299 0.30309
 C81 C 0.85124 0.87658 0.28626
 C82 C 0.86949 0.86981 0.27488
 C83 C 0.87652 0.85160 0.28616
 H84 H 0.84102 0.89031 0.28263
 H85 H 0.89035 0.84152 0.28253
 Cu86 Cu 0.82529 0.86291 0.32511
 Cu87 Cu 0.86442 0.82502 0.32455
 Cu88 Cu 0.82466 0.82494 0.36435
 N89 N 0.80329 0.86292 0.34780
 N90 N 0.80315 0.84798 0.36300
 C91 C 0.78631 0.85149 0.37639
 C92 C 0.77514 0.86966 0.36927
 C93 C 0.78649 0.87647 0.35104
 H94 H 0.78254 0.84146 0.39026
 H95 H 0.78281 0.89023 0.34083
 N96 N 0.84784 0.80303 0.36289
 N97 N 0.86295 0.80307 0.34776
 C98 C 0.87634 0.78618 0.35114
 C99 C 0.86938 0.77487 0.36929
 C100 C 0.85124 0.78611 0.37629
 H101 H 0.89017 0.78247 0.34109
 H102 H 0.84122 0.78231 0.39015
 H103 H 0.83170 0.82438 0.33157
 H104 H 0.84899 0.84202 0.34899
 N105 N 0.63723 0.65236 0.30307
 N106 N 0.65232 0.63737 0.30325
 C107 C 0.64910 0.62387 0.28638
 C108 C 0.63098 0.63076 0.27497
 C109 C 0.62392 0.64893 0.28614
 H110 H 0.65916 0.61002 0.28277
 H111 H 0.61011 0.65898 0.28236
 Cu112 Cu 0.67449 0.63691 0.32573
 Cu113 Cu 0.63580 0.67525 0.32473
 Cu114 Cu 0.67555 0.67527 0.36453
 N115 N 0.69697 0.63737 0.34791
 N116 N 0.69719 0.65235 0.36304
 C117 C 0.71413 0.64890 0.37632
 C118 C 0.72526 0.63072 0.36920
 C119 C 0.71381 0.62386 0.35107
 H120 H 0.71796 0.65893 0.39016
 H121 H 0.71738 0.61002 0.34095
 N122 N 0.65226 0.69708 0.36317
 N123 N 0.63715 0.69706 0.34804
 C124 C 0.62374 0.71392 0.35143
 C125 C 0.63067 0.72520 0.36959
 C126 C 0.64882 0.71397 0.37658
 H127 H 0.60992 0.71765 0.34137
 H128 H 0.65884 0.71776 0.39043
 H129 H 0.66850 0.67553 0.33174
 H130 H 0.65099 0.65827 0.34939
 N131 N 0.63713 0.15202 0.80292
 N132 N 0.65230 0.13711 0.80302
 C133 C 0.64901 0.12354 0.78620
 C134 C 0.63075 0.13032 0.77483
 C135 C 0.62372 0.14851 0.78609
 H136 H 0.65925 0.10982 0.78257
 H137 H 0.60990 0.15860 0.78247
 Cu138 Cu 0.67498 0.13718 0.82502
 Cu139 Cu 0.63582 0.17506 0.82446
 Cu140 Cu 0.67557 0.17510 0.86424
 N141 N 0.69696 0.13716 0.84772
 N142 N 0.69708 0.15208 0.86291
 C143 C 0.71391 0.14860 0.87631
 C144 C 0.72510 0.13045 0.86922
 C145 C 0.71377 0.12362 0.85098
 H146 H 0.71765 0.15863 0.89017
 H147 H 0.71749 0.10988 0.84079
 N148 N 0.65240 0.19700 0.86279
 N149 N 0.63728 0.19698 0.84767
 C150 C 0.62391 0.21388 0.85106
 C151 C 0.63090 0.22516 0.86921
 C152 C 0.64903 0.21390 0.87619
 H153 H 0.61007 0.21762 0.84103
 H154 H 0.65905 0.21766 0.89004
 H155 H 0.66854 0.17569 0.83148
 H156 H 0.65126 0.15799 0.84892
 N157 N 1.13724 0.65216 0.80324
 N158 N 1.15221 0.63703 0.80360
 C159 C 1.14899 0.62347 0.78678
 C160 C 1.13100 0.63046 0.77521
 C161 C 1.12402 0.64874 0.78625
 H162 H 1.15903 0.60958 0.78324
 H163 H 1.11036 0.65893 0.78230
 Cu164 Cu 1.17452 0.63705 0.82593
 Cu165 Cu 1.13590 0.67528 0.82473
 Cu166 Cu 1.17570 0.67532 0.86458
 N167 N 1.19682 0.63708 0.84825
 N168 N 1.19718 0.65222 0.86323
 C169 C 1.21417 0.64883 0.87645
 C170 C 1.22521 0.63056 0.86944
 C171 C 1.21364 0.62355 0.85144
 H172 H 1.21814 0.65904 0.89013
 H173 H 1.21717 0.60966 0.84138
 N174 N 1.15251 0.69724 0.86305
 N175 N 1.13741 0.69722 0.84792
 C176 C 1.12402 0.71410 0.85128
 C177 C 1.13098 0.72539 0.86943
 C178 C 1.14912 0.71415 0.87643
 H179 H 1.11020 0.71784 0.84123
 H180 H 1.15914 0.71794 0.89028
 H181 H 1.16861 0.67569 0.83180
 H182 H 1.15109 0.65848 0.84947
 N183 N 1.13732 0.15209 0.30295
 N184 N 1.15241 0.13711 0.30314
 C185 C 1.14924 0.12364 0.28624
 C186 C 1.13112 0.13053 0.27482
 C187 C 1.12403 0.14868 0.28601
 H188 H 1.15932 0.10982 0.28261
 H189 H 1.11018 0.15870 0.28226
 Cu190 Cu 1.17457 0.13664 0.32561
 Cu191 Cu 1.13587 0.17499 0.32458
 Cu192 Cu 1.17562 0.17500 0.36438
 N193 N 1.19703 0.13710 0.34778
 N194 N 1.19724 0.15209 0.36291
 C195 C 1.21418 0.14866 0.37619
 C196 C 1.22535 0.13051 0.36906
 C197 C 1.21391 0.12363 0.35092
 H198 H 1.21796 0.15868 0.39006
 H199 H 1.21752 0.10982 0.34079
 N200 N 1.15234 0.19680 0.36301
 N201 N 1.13724 0.19678 0.34787
 C202 C 1.12380 0.21362 0.35129
 C203 C 1.13074 0.22488 0.36945
 C204 C 1.14889 0.21365 0.37644
 H205 H 1.10995 0.21733 0.34126
 H206 H 1.15888 0.21741 0.39032
 H207 H 1.16858 0.17526 0.33156
 H208 H 1.15103 0.15802 0.34924
 N209 N 0.63729 1.34771 0.69691
 N210 N 0.65260 1.36246 0.69691
 C211 C 0.64940 1.37601 0.71375
 C212 C 0.63108 1.36936 0.72499
 C213 C 0.62388 1.35131 0.71372
 H214 H 0.65961 1.38970 0.71748
 H215 H 0.60990 1.34145 0.71735
 Cu216 Cu 0.67488 1.36251 0.67454
 Cu217 Cu 0.63575 1.32481 0.67523
 Cu218 Cu 0.67556 1.32472 0.63535
 N219 N 0.69721 1.36237 0.65224
 N220 N 0.69723 1.34760 0.63690
 C221 C 0.71404 1.35116 0.62349
 C222 C 0.72528 1.36921 0.63072
 C223 C 0.71403 1.37590 0.64906
 H224 H 0.71769 1.34129 0.60949
 H225 H 0.71774 1.38958 0.65932
 N226 N 0.65220 1.30300 0.63673
 N227 N 0.63710 1.30305 0.65187
 C228 C 0.62370 1.28620 0.64851
 C229 C 0.63064 1.27491 0.63036
 C230 C 0.64878 1.28611 0.62334
 H231 H 0.60991 1.28246 0.65861
 H232 H 0.65883 1.28227 0.60952
 H233 H 0.66840 1.32404 0.66810
 H234 H 0.65112 1.34177 0.65068
 N235 N 0.63712 0.84787 1.19688
 N236 N 0.65241 0.86264 1.19690
 C237 C 0.64913 0.87620 1.21372
 C238 C 0.63080 0.86954 1.22492
 C239 C 0.62365 0.85148 1.21364
 H240 H 0.65937 0.88987 1.21750
 H241 H 0.60968 0.84161 1.21725
 Cu242 Cu 0.67514 0.86256 1.17499
 Cu243 Cu 0.63575 0.82494 1.17526
 Cu244 Cu 0.67551 0.82489 1.13548
 N245 N 0.69704 0.86260 1.15226
 N246 N 0.69708 0.84782 1.13692
 C247 C 0.71385 0.85143 1.12348
 C248 C 0.72507 0.86949 1.13070
 C249 C 0.71383 0.87614 1.14905
 H250 H 0.71752 0.84155 1.10948
 H251 H 0.71756 0.88980 1.15934
 N252 N 0.65228 0.80307 1.13687
 N253 N 0.63717 0.80310 1.15200
 C254 C 0.62378 0.78625 1.14862
 C255 C 0.63074 0.77496 1.13046
 C256 C 0.64888 0.78618 1.12347
 H257 H 0.60996 0.78252 1.15868
 H258 H 0.65891 0.78239 1.10962
 H259 H 0.66844 0.82414 1.16826
 H260 H 0.65128 0.84209 1.15095
 N261 N 1.13732 1.34764 1.19681
 N262 N 1.15259 1.36243 1.19681
 C263 C 1.14932 1.37599 1.21363
 C264 C 1.13100 1.36931 1.22484
 C265 C 1.12386 1.35123 1.21358
 H266 H 1.15953 1.38969 1.21738
 H267 H 1.10993 1.34131 1.21723
 Cu268 Cu 1.17528 1.36236 1.17486
 Cu269 Cu 1.13591 1.32474 1.17519
 Cu270 Cu 1.17563 1.32471 1.13537
 N271 N 1.19719 1.36241 1.15213
 N272 N 1.19721 1.34762 1.13680
 C273 C 1.21397 1.35122 1.12334
 C274 C 1.22519 1.36930 1.13054
 C275 C 1.21396 1.37597 1.14889
 H276 H 1.21765 1.34130 1.10937
 H277 H 1.21768 1.38965 1.15916
 N278 N 1.15239 1.30290 1.13677
 N279 N 1.13730 1.30293 1.15192
 C280 C 1.12392 1.28605 1.14857
 C281 C 1.13087 1.27477 1.13041
 C282 C 1.14900 1.28600 1.12339
 H283 H 1.11015 1.28229 1.15868
 H284 H 1.15904 1.28217 1.10956
 H285 H 1.16858 1.32398 1.16815
 H286 H 1.15139 1.34193 1.15086
 N287 N 1.13699 0.84785 0.69674
 N288 N 1.15214 0.86276 0.69660
 C289 C 1.14887 0.87633 0.71341
 C290 C 1.13068 0.86955 0.72475
 C291 C 1.12360 0.85139 0.71358
 H292 H 1.15903 0.89009 0.71709
 H293 H 1.10976 0.84139 0.71735
 Cu294 Cu 1.17479 0.86271 0.67462
 Cu295 Cu 1.13569 0.82483 0.67522
 Cu296 Cu 1.17546 0.82479 0.63541
 N297 N 1.19676 0.86274 0.65196
 N298 N 1.19694 0.84783 0.63676
 C299 C 1.21378 0.85137 0.62339
 C300 C 1.22490 0.86954 0.63053
 C301 C 1.21353 0.87631 0.64875
 H302 H 1.21759 0.84137 0.60952
 H303 H 1.21717 0.89005 0.65896
 N304 N 1.15229 0.80290 0.63688
 N305 N 1.13719 0.80292 0.65202
 C306 C 1.12382 0.78604 0.64866
 C307 C 1.13079 0.77476 0.63051
 C308 C 1.14891 0.78599 0.62350
 H309 H 1.11000 0.78232 0.65872
 H310 H 1.15893 0.78221 0.60965
 H311 H 1.16839 0.82419 0.66821
 H312 H 1.15108 0.84187 0.65078
 N313 N 0.36254 0.65227 0.69671
 N314 N 0.34745 0.63730 0.69656
 C315 C 0.35072 0.62376 0.71342
 C316 C 0.36884 0.63064 0.72480
 C317 C 0.37587 0.64882 0.71361
 H318 H 0.34064 0.60995 0.71710
 H319 H 0.38966 0.65887 0.71738
 Cu320 Cu 0.32505 0.63712 0.67433
 Cu321 Cu 0.36391 0.67523 0.67511
 Cu322 Cu 0.32419 0.67529 0.63530
 N323 N 0.30286 0.63734 0.65189
 N324 N 0.30265 0.65232 0.63673
 C325 C 0.28576 0.64885 0.62341
 C326 C 0.27465 0.63067 0.63054
 C327 C 0.28607 0.62381 0.64870
 H328 H 0.28193 0.65890 0.60957
 H329 H 0.28246 0.61001 0.65887
 N330 N 0.34741 0.69713 0.63671
 N331 N 0.36249 0.69708 0.65186
 C332 C 0.37586 0.71396 0.64852
 C333 C 0.36892 0.72527 0.63036
 C334 C 0.35080 0.71406 0.62333
 H335 H 0.38964 0.71769 0.65862
 H336 H 0.34077 0.71790 0.60950
 H337 H 0.33120 0.67569 0.66808
 H338 H 0.34864 0.65825 0.65056
 N339 N 0.36290 0.15222 1.19674
 N340 N 0.34775 0.13731 1.19663
 C341 C 0.35101 0.12374 1.21346
 C342 C 0.36920 0.13052 1.22479
 C343 C 0.37628 0.14868 1.21359
 H344 H 0.34085 0.10999 1.21717
 H345 H 0.39012 0.15868 1.21733
 Cu346 Cu 0.32507 0.13739 1.17467
 Cu347 Cu 0.36421 0.17524 1.17519
 Cu348 Cu 0.32448 0.17530 1.13537
 N349 N 0.30314 0.13735 1.15195
 N350 N 0.30299 0.15227 1.13672
 C351 C 0.28615 0.14873 1.12335
 C352 C 0.27502 0.13056 1.13050
 C353 C 0.28637 0.12378 1.14874
 H354 H 0.28236 0.15874 1.10946
 H355 H 0.28272 0.11005 1.15898
 N356 N 0.34765 0.19720 1.13684
 N357 N 0.36273 0.19715 1.15199
 C358 C 0.37612 0.21402 1.14863
 C359 C 0.36919 0.22533 1.13046
 C360 C 0.35106 0.21411 1.12345
 H361 H 0.38993 0.21773 1.15870
 H362 H 0.34106 0.21792 1.10958
 H363 H 0.33150 0.17592 1.16819
 H364 H 0.34880 0.15821 1.15081
 N365 N 0.86299 0.65209 1.19675
 N366 N 0.84785 0.63717 1.19663
 C367 C 0.85114 0.62360 1.21346
 C368 C 0.86933 0.63040 1.22479
 C369 C 0.87638 0.64856 1.21358
 H370 H 0.84100 0.60984 1.21718
 H371 H 0.89021 0.65858 1.21732
 Cu372 Cu 0.82520 0.63726 1.17464
 Cu373 Cu 0.86430 0.67513 1.17522
 Cu374 Cu 0.82455 0.67523 1.13542
 N375 N 0.80322 0.63726 1.15198
 N376 N 0.80305 0.65220 1.13678
 C377 C 0.78620 0.64869 1.12341
 C378 C 0.77507 0.63052 1.13055
 C379 C 0.78644 0.62371 1.14876
 H380 H 0.78240 0.65873 1.10955
 H381 H 0.78279 0.60995 1.15897
 N382 N 0.84773 0.69712 1.13689
 N383 N 0.86283 0.69706 1.15203
 C384 C 0.87620 0.71394 1.14868
 C385 C 0.86925 0.72526 1.13054
 C386 C 0.85113 0.71405 1.12351
 H387 H 0.89001 0.71765 1.15876
 H388 H 0.84111 0.71789 1.10967
 H389 H 0.83159 0.67578 1.16824
 H390 H 0.84891 0.65812 1.15079
 N391 N 0.86254 0.15211 0.69672
 N392 N 0.84746 0.13711 0.69653
 C393 C 0.85068 0.12357 0.71341
 C394 C 0.86878 0.13046 0.72483
 C395 C 0.87583 0.14865 0.71365
 H396 H 0.84061 0.10974 0.71705
 H397 H 0.88959 0.15874 0.71746
 Cu398 Cu 0.82517 0.13716 0.67419
 Cu399 Cu 0.86397 0.17512 0.67512
 Cu400 Cu 0.82417 0.17522 0.63525
 N401 N 0.80286 0.13720 0.65187
 N402 N 0.80262 0.15221 0.63672
 C403 C 0.78569 0.14878 0.62345
 C404 C 0.77459 0.13059 0.63058
 C405 C 0.78604 0.12368 0.64871
 H406 H 0.78184 0.15887 0.60965
 H407 H 0.78246 0.10985 0.65886
 N408 N 0.84744 0.19704 0.63669
 N409 N 0.86253 0.19698 0.65184
 C410 C 0.87594 0.21381 0.64845
 C411 C 0.86902 0.22511 0.63028
 C412 C 0.85088 0.21393 0.62328
 H413 H 0.88976 0.21750 0.65852
 H414 H 0.84088 0.21774 0.60941
 H415 H 0.83126 0.17572 0.66803
 H416 H 0.84869 0.15832 0.65048
 N417 N 1.34794 0.36261 0.69669
 N418 N 1.36305 0.34765 0.69638
 C419 C 1.37655 0.35088 0.71326
 C420 C 1.36952 0.36889 0.72479
 C421 C 1.35128 0.37585 0.71369
 H422 H 1.39046 0.34088 0.71681
 H423 H 1.34110 0.38954 0.71759
 Cu424 Cu 1.36359 0.32548 0.67386
 Cu425 Cu 1.32499 0.36397 0.67512
 Cu426 Cu 1.32494 0.32419 0.63534
 N427 N 1.36302 0.30295 0.65171
 N428 N 1.34792 0.30261 0.63672
 C429 C 1.35125 0.28559 0.62351
 C430 C 1.36955 0.27447 0.63049
 C431 C 1.37653 0.28609 0.64853
 H432 H 1.34101 0.28175 0.60984
 H433 H 1.39040 0.28267 0.65863
 N434 N 1.30310 0.34745 0.63676
 N435 N 1.30314 0.36256 0.65189
 C436 C 1.28628 0.37597 0.64854
 C437 C 1.27498 0.36902 0.63040
 C438 C 1.28620 0.35087 0.62339
 H439 H 1.28254 0.38979 0.65861
 H440 H 1.28239 0.34083 0.60956
 H441 H 1.32489 0.33120 0.66816
 H442 H 1.34184 0.34887 0.65038
 N443 N 1.34802 0.86247 1.19712
 N444 N 1.36283 0.84719 1.19713
 C445 C 1.37634 0.85043 1.21399
 C446 C 1.36966 0.86882 1.22525
 C447 C 1.35156 0.87593 1.21390
 H448 H 1.39003 0.84018 1.21763
 H449 H 1.34159 0.88989 1.21740
 Cu450 Cu 1.36282 0.82484 1.17477
 Cu451 Cu 1.32513 0.86399 1.17541
 Cu452 Cu 1.32511 0.82418 1.13557
 N453 N 1.36281 0.80249 1.15241
 N454 N 1.34801 0.80247 1.13710
 C455 C 1.35155 0.78568 1.12365
 C456 C 1.36966 0.77437 1.13081
 C457 C 1.37633 0.78565 1.14920
 H458 H 1.34159 0.78215 1.10968
 H459 H 1.39001 0.78205 1.15949
 N460 N 1.30335 0.84755 1.13691
 N461 N 1.30337 0.86266 1.15204
 C462 C 1.28650 0.87606 1.14867
 C463 C 1.27522 0.86910 1.13052
 C464 C 1.28645 0.85095 1.12352
 H465 H 1.28272 0.88985 1.15876
 H466 H 1.28263 0.84089 1.10971
 H467 H 1.32446 0.83131 1.16828
 H468 H 1.34211 0.84863 1.15086
 N469 N 0.84805 0.36286 1.19710
 N470 N 0.86315 0.34789 1.19676
 C471 C 0.87667 0.35108 1.21362
 C472 C 0.86971 0.36911 1.22524
 C473 C 0.85141 0.37607 1.21411
 H474 H 0.89055 0.34099 1.21705
 H475 H 0.84118 0.38973 1.21795
 Cu476 Cu 0.86368 0.32575 1.17423
 Cu477 Cu 0.82507 0.36423 1.17552
 Cu478 Cu 0.82505 0.32446 1.13572
 N479 N 0.86311 0.30325 1.15208
 N480 N 0.84800 0.30291 1.13710
 C481 C 0.85134 0.28588 1.12389
 C482 C 0.86958 0.27482 1.13091
 C483 C 0.87660 0.28639 1.14890
 H484 H 0.84117 0.28195 1.11020
 H485 H 0.89050 0.28286 1.15894
 N486 N 0.80321 0.34769 1.13713
 N487 N 0.80321 0.36280 1.15226
 C488 C 0.78633 0.37618 1.14886
 C489 C 0.77507 0.36920 1.13070
 C490 C 0.78633 0.35106 1.12372
 H491 H 0.78256 0.39000 1.15892
 H492 H 0.78256 0.34101 1.10989
 H493 H 0.82498 0.33144 1.16853
 H494 H 0.84193 0.34912 1.15075
 N495 N 0.84782 0.86298 0.69679
 N496 N 0.86274 0.84782 0.69666
 C497 C 0.87629 0.85108 0.71347
 C498 C 0.86949 0.86929 0.72481
 C499 C 0.85134 0.87637 0.71363
 H500 H 0.89004 0.84091 0.71716
 H501 H 0.84132 0.89022 0.71740
 Cu502 Cu 0.86269 0.82516 0.67468
 Cu503 Cu 0.82481 0.86431 0.67526
 Cu504 Cu 0.82477 0.82454 0.63547
 N505 N 0.86272 0.80317 0.65201
 N506 N 0.84780 0.80301 0.63683
 C507 C 0.85133 0.78615 0.62346
 C508 C 0.86948 0.77500 0.63058
 C509 C 0.87628 0.78637 0.64879
 H510 H 0.84131 0.78236 0.60960
 H511 H 0.89002 0.78270 0.65899
 N512 N 0.80289 0.84775 0.63692
 N513 N 0.80291 0.86286 0.65205
 C514 C 0.78602 0.87624 0.64871
 C515 C 0.77473 0.86928 0.63057
 C516 C 0.78597 0.85114 0.62356
 H517 H 0.78226 0.89005 0.65879
 H518 H 0.78215 0.84109 0.60974
 H519 H 0.82420 0.83155 0.66828
 H520 H 0.84183 0.84890 0.65083
 N521 N 0.65234 0.63712 0.69682
 N522 N 0.63742 0.65227 0.69664
 C523 C 0.62393 0.64914 0.71355
 C524 C 0.63073 0.63096 0.72495
 C525 C 0.64886 0.62383 0.71378
 H526 H 0.61015 0.65929 0.71719
 H527 H 0.65892 0.61003 0.71763
 Cu528 Cu 0.63710 0.67450 0.67421
 Cu529 Cu 0.67525 0.63568 0.67519
 Cu530 Cu 0.67528 0.67553 0.63532
 N531 N 0.63743 0.69693 0.65199
 N532 N 0.65234 0.69715 0.63680
 C533 C 0.64886 0.71411 0.62354
 C534 C 0.63071 0.72525 0.63072
 C535 C 0.62393 0.71381 0.64891
 H536 H 0.65890 0.71800 0.60972
 H537 H 0.61016 0.71742 0.65909
 N538 N 0.69704 0.65219 0.63670
 N539 N 0.69702 0.63707 0.65185
 C540 C 0.71390 0.62368 0.64851
 C541 C 0.72519 0.63066 0.63036
 C542 C 0.71395 0.64881 0.62333
 H543 H 0.71768 0.60991 0.65865
 H544 H 0.71780 0.65891 0.60954
 H545 H 0.67571 0.66848 0.66818
 H546 H 0.65843 0.65100 0.65061
 N547 N 0.65222 1.13715 1.19743
 N548 N 0.63746 1.15245 1.19738
 C549 C 0.62389 1.14926 1.21422
 C550 C 0.63049 1.13088 1.22553
 C551 C 0.64860 1.12371 1.21424
 H552 H 0.61022 1.15955 1.21783
 H553 H 0.65853 1.10975 1.21782
 Cu554 Cu 0.63742 1.17476 1.17500
 Cu555 Cu 0.67516 1.13561 1.17572
 Cu556 Cu 0.67519 1.17547 1.13582
 N557 N 0.63751 1.19711 1.15267
 N558 N 0.65228 1.19715 1.13734
 C559 C 0.64871 1.21396 1.12390
 C560 C 0.63065 1.22520 1.13112
 C561 C 0.62398 1.21396 1.14948
 H562 H 0.65858 1.21763 1.10990
 H563 H 0.61029 1.21766 1.15972
 N564 N 0.69695 1.15212 1.13719
 N565 N 0.69694 1.13699 1.15233
 C566 C 0.71382 1.12360 1.14893
 C567 C 0.72509 1.13059 1.13076
 C568 C 0.71383 1.14874 1.12377
 H569 H 0.71759 1.10978 1.15901
 H570 H 0.71762 1.15881 1.10994
 H571 H 0.67588 1.16830 1.16858
 H572 H 0.65823 1.15098 1.15118
 N573 N 0.15202 0.63729 1.19708
 N574 N 0.13723 0.65257 1.19710
 C575 C 0.12369 0.64927 1.21394
 C576 C 0.13035 0.63088 1.22520
 C577 C 0.14845 0.62378 1.21385
 H578 H 0.11003 0.65955 1.21763
 H579 H 0.15841 0.60984 1.21736
 Cu580 Cu 0.13730 0.67533 1.17511
 Cu581 Cu 0.17495 0.63592 1.17544
 Cu582 Cu 0.17499 0.67574 1.13563
 N583 N 0.13726 0.69733 1.15236
 N584 N 0.15205 0.69736 1.13704
 C585 C 0.14847 0.71414 1.12357
 C586 C 0.13036 0.72546 1.13073
 C587 C 0.12371 0.71414 1.14912
 H588 H 0.15842 0.71771 1.10961
 H589 H 0.11006 0.71779 1.15944
 N590 N 0.19682 0.65246 1.13702
 N591 N 0.19680 0.63734 1.15216
 C592 C 0.21365 0.62392 1.14878
 C593 C 0.22493 0.63089 1.13061
 C594 C 0.21371 0.64906 1.12361
 H595 H 0.21739 0.61009 1.15885
 H596 H 0.21750 0.65911 1.10977
 H597 H 0.17571 0.66866 1.16841
 H598 H 0.15785 0.65146 1.15111
 N599 N 0.15179 1.13718 0.69726
 N600 N 0.13690 1.15238 0.69715
 C601 C 0.12335 1.14914 0.71397
 C602 C 0.13010 1.13086 0.72537
 C603 C 0.14827 1.12378 0.71412
 H604 H 0.10962 1.15936 0.71755
 H605 H 0.15832 1.10993 0.71776
 Cu606 Cu 0.13680 1.17470 0.67475
 Cu607 Cu 0.17474 1.13574 0.67562
 Cu608 Cu 0.17476 1.17558 0.63572
 N609 N 0.13690 1.19709 0.65241
 N610 N 0.15179 1.19721 0.63717
 C611 C 0.14827 1.21406 0.62377
 C612 C 0.13008 1.22529 0.63088
 C613 C 0.12335 1.21389 0.64918
 H614 H 0.15832 1.21772 0.60990
 H615 H 0.10962 1.21744 0.65943
 N616 N 0.19659 1.15228 0.63715
 N617 N 0.19657 1.13716 0.65231
 C618 C 0.21347 1.12378 0.64896
 C619 C 0.22475 1.13076 0.63080
 C620 C 0.21350 1.14890 0.62378
 H621 H 0.21725 1.10998 0.65906
 H622 H 0.21732 1.15897 0.60995
 H623 H 0.17531 1.16841 0.66848
 H624 H 0.15785 1.15101 0.65101
 N625 N 1.34788 0.63756 0.30326
 N626 N 1.36286 0.65265 0.30343
 C627 C 1.37635 0.64943 0.28653
 C628 C 1.36945 0.63130 0.27512
 C629 C 1.35130 0.62427 0.28632
 H630 H 1.39022 0.65948 0.28289
 H631 H 1.34128 0.61045 0.28260
 Cu632 Cu 1.36329 0.67483 0.32594
 Cu633 Cu 1.32501 0.63613 0.32492
 Cu634 Cu 1.32492 0.67585 0.36473
 N635 N 1.36278 0.69731 0.34815
 N636 N 1.34780 0.69752 0.36327
 C637 C 1.35121 0.71445 0.37657
 C638 C 1.36941 0.72566 0.36950
 C639 C 1.37628 0.71416 0.35132
 H640 H 1.34113 0.71812 0.39039
 H641 H 1.39011 0.71766 0.34115
 N642 N 1.30315 0.65253 0.36337
 N643 N 1.30322 0.63743 0.34822
 C644 C 1.28639 0.62400 0.35157
 C645 C 1.27508 0.63091 0.36973
 C646 C 1.28625 0.64907 0.37675
 H647 H 1.28268 0.61021 0.34146
 H648 H 1.28240 0.65910 0.39059
 H649 H 1.32474 0.66882 0.33195
 H650 H 1.34194 0.65129 0.34956
 N651 N 1.34776 1.13718 0.80296
 N652 N 1.36253 1.15247 0.80295
 C653 C 1.37608 1.14921 0.78613
 C654 C 1.36943 1.13088 0.77493
 C655 C 1.35138 1.12371 0.78620
 H656 H 1.38975 1.15945 0.78237
 H657 H 1.34151 1.10974 0.78257
 Cu658 Cu 1.36245 1.17519 0.82485
 Cu659 Cu 1.32484 1.13579 0.82457
 Cu660 Cu 1.32481 1.17554 0.86438
 N661 N 1.36250 1.19708 0.84760
 N662 N 1.34774 1.19711 0.86294
 C663 C 1.35137 1.21387 0.87640
 C664 C 1.36943 1.22509 0.86916
 C665 C 1.37606 1.21386 0.85081
 H666 H 1.34150 1.21754 0.89040
 H667 H 1.38972 1.21758 0.84052
 N668 N 1.30299 1.15231 0.86297
 N669 N 1.30302 1.13721 0.84783
 C670 C 1.28616 1.12383 0.85120
 C671 C 1.27488 1.13079 0.86936
 C672 C 1.28611 1.14892 0.87636
 H673 H 1.28242 1.11002 0.84112
 H674 H 1.28231 1.15896 0.89020
 H675 H 1.32407 1.16849 0.83156
 H676 H 1.34197 1.15126 0.84885
 N677 N 0.84778 0.63727 0.80304
 N678 N 0.86257 0.65254 0.80308
 C679 C 0.87611 0.64934 0.78622
 C680 C 0.86944 0.63102 0.77498
 C681 C 0.85138 0.62385 0.78624
 H682 H 0.88980 0.65954 0.78249
 H683 H 0.84152 0.60987 0.78261
 Cu684 Cu 0.86254 0.67487 0.82540
 Cu685 Cu 0.82487 0.63576 0.82473
 Cu686 Cu 0.82481 0.67560 0.86459
 N687 N 0.86253 0.69719 0.84772
 N688 N 0.84772 0.69726 0.86303
 C689 C 0.85132 0.71407 0.87643
 C690 C 0.86938 0.72529 0.86920
 C691 C 0.87605 0.71401 0.85087
 H692 H 0.84144 0.71775 0.89044
 H693 H 0.88974 0.71770 0.84062
 N694 N 0.80306 0.65225 0.86323
 N695 N 0.80310 0.63714 0.84810
 C696 C 0.78624 0.62375 0.85147
 C697 C 0.77496 0.63071 0.86962
 C698 C 0.78617 0.64885 0.87662
 H699 H 0.78249 0.60996 0.84137
 H700 H 0.78234 0.65892 0.89043
 H701 H 0.82411 0.66841 0.83185
 H702 H 0.84178 0.65109 0.84926
 N703 N 0.84782 1.13692 0.30307
 N704 N 0.86292 1.15187 0.30342
 C705 C 0.87643 1.14868 0.28655
 C706 C 0.86944 1.13072 0.27497
 C707 C 0.85118 1.12373 0.28603
 H708 H 0.89033 1.15869 0.28303
 H709 H 0.84103 1.11005 0.28209
 Cu710 Cu 0.86346 1.17398 0.32593
 Cu711 Cu 0.82485 1.13557 0.32464
 Cu712 Cu 0.82480 1.17533 0.36444
 N713 N 0.86288 1.19647 0.34806
 N714 N 0.84777 1.19685 0.36305
 C715 C 0.85112 1.21389 0.37623
 C716 C 0.86938 1.22491 0.36919
 C717 C 0.87639 1.21330 0.35121
 H718 H 0.84096 1.21786 0.38993
 H719 H 0.89028 1.21679 0.34116
 N720 N 0.80298 1.15212 0.36301
 N721 N 0.80301 1.13701 0.34788
 C722 C 0.78614 1.12363 0.35123
 C723 C 0.77485 1.13061 0.36938
 C724 C 0.78608 1.14874 0.37639
 H725 H 0.78239 1.10983 0.34116
 H726 H 0.78227 1.15879 0.39022
 H727 H 0.82476 1.16830 0.33159
 H728 H 0.84169 1.15060 0.34937
 N729 N 0.65190 0.36256 0.30298
 N730 N 0.63700 0.34739 0.30312
 C731 C 0.62344 0.35064 0.28629
 C732 C 0.63020 0.36890 0.27487
 C733 C 0.64839 0.37595 0.28611
 H734 H 0.60971 0.34042 0.28272
 H735 H 0.65843 0.38980 0.28248
 Cu736 Cu 0.63703 0.32503 0.32550
 Cu737 Cu 0.67489 0.36396 0.32460
 Cu738 Cu 0.67492 0.32410 0.36451
 N739 N 0.63703 0.30268 0.34787
 N740 N 0.65193 0.30250 0.36309
 C741 C 0.64842 0.28563 0.37646
 C742 C 0.63022 0.27445 0.36935
 C743 C 0.62347 0.28589 0.35108
 H744 H 0.65846 0.28196 0.39034
 H745 H 0.60975 0.28236 0.34081
 N746 N 0.69676 0.34738 0.36307
 N747 N 0.69673 0.36250 0.34792
 C748 C 0.71363 0.37585 0.35124
 C749 C 0.72493 0.36887 0.36939
 C750 C 0.71369 0.35074 0.37643
 H751 H 0.71741 0.38964 0.34113
 H752 H 0.71752 0.34066 0.39024
 H753 H 0.67548 0.33129 0.33178
 H754 H 0.65801 0.34869 0.34926
 N755 N 0.65211 0.86323 0.80333
 N756 N 0.63701 0.84827 0.80371
 C757 C 0.62349 0.85143 0.78685
 C758 C 0.63046 0.86942 0.77525
 C759 C 0.64870 0.87644 0.78629
 H760 H 0.60967 0.84134 0.78329
 H761 H 0.65882 0.89015 0.78236
 Cu762 Cu 0.63703 0.82593 0.82602
 Cu763 Cu 0.67522 0.86454 0.82480
 Cu764 Cu 0.67526 0.82465 0.86469
 N765 N 0.63704 0.80360 0.84836
 N766 N 0.65215 0.80319 0.86335
 C767 C 0.64876 0.78614 0.87654
 C768 C 0.63052 0.77513 0.86947
 C769 C 0.62354 0.78676 0.85148
 H770 H 0.65889 0.78216 0.89027
 H771 H 0.60972 0.78324 0.84134
 N772 N 0.69717 0.84784 0.86314
 N773 N 0.69714 0.86297 0.84800
 C774 C 0.71397 0.87639 0.85139
 C775 C 0.72524 0.86942 0.86956
 C776 C 0.71403 0.85125 0.87656
 H777 H 0.71764 0.89027 0.84137
 H778 H 0.71777 0.84126 0.89047
 H779 H 0.67564 0.83179 0.83185
 H780 H 0.65852 0.84935 0.84951
 N781 N 0.15226 0.36250 0.80312
 N782 N 0.13751 0.34717 0.80313
 C783 C 0.12397 0.35040 0.78628
 C784 C 0.13061 0.36874 0.77504
 C785 C 0.14865 0.37593 0.78631
 H786 H 0.11027 0.34020 0.78256
 H787 H 0.15850 0.38992 0.78266
 Cu788 Cu 0.13743 0.32487 0.82550
 Cu789 Cu 0.17512 0.36401 0.82481
 Cu790 Cu 0.17519 0.32417 0.86472
 N791 N 0.13754 0.30251 0.84783
 N792 N 0.15230 0.30247 0.86319
 C793 C 0.14869 0.28566 0.87662
 C794 C 0.13058 0.27439 0.86941
 C795 C 0.12399 0.28572 0.85101
 H796 H 0.15861 0.28207 0.89060
 H797 H 0.11033 0.28214 0.84070
 N798 N 0.19694 0.34755 0.86333
 N799 N 0.19688 0.36266 0.84816
 C800 C 0.21371 0.37608 0.85150
 C801 C 0.22502 0.36915 0.86966
 C802 C 0.21382 0.35099 0.87671
 H803 H 0.21743 0.38989 0.84140
 H804 H 0.21765 0.34096 0.89056
 H805 H 0.17586 0.33134 0.83196
 H806 H 0.15820 0.34866 0.84935
 N807 N 0.15192 0.86245 0.30356
 N808 N 0.13682 0.84747 0.30390
 C809 C 0.12330 0.85071 0.28705
 C810 C 0.13026 0.86873 0.27549
 C811 C 0.14851 0.87571 0.28657
 H812 H 0.10941 0.84069 0.28349
 H813 H 0.15867 0.88940 0.28265
 Cu814 Cu 0.13685 0.82513 0.32624
 Cu815 Cu 0.17499 0.86378 0.32506
 Cu816 Cu 0.17506 0.82391 0.36496
 N817 N 0.13689 0.80279 0.34857
 N818 N 0.15198 0.80241 0.36359
 C819 C 0.14857 0.78539 0.37682
 C820 C 0.13028 0.77432 0.36979
 C821 C 0.12336 0.78598 0.35173
 H822 H 0.15879 0.78151 0.39050
 H823 H 0.10952 0.78257 0.34158
 N824 N 0.19695 0.84714 0.36343
 N825 N 0.19689 0.86226 0.34827
 C826 C 0.21373 0.87567 0.35160
 C827 C 0.22503 0.86873 0.36976
 C828 C 0.21384 0.85056 0.37680
 H829 H 0.21741 0.88951 0.34153
 H830 H 0.21765 0.84056 0.39068
 H831 H 0.17543 0.83104 0.33218
 H832 H 0.15826 0.84859 0.34983
 O833 O 0.97893 0.92184 0.89198
 O834 O 0.97898 0.89659 0.86666
 C835 C 0.97146 0.91413 0.87440
 C836 C 0.95330 0.92521 0.86331
 C837 C 0.94433 0.91647 0.84427
 H838 H 0.95125 0.90203 0.83702
 O839 O 1.02117 1.07857 0.89177
 O840 O 1.02108 1.10382 0.86641
 C841 C 1.02860 1.08628 0.87415
 C842 C 1.04673 1.07518 0.86304
 C843 C 1.05568 1.08392 0.84398
 H844 H 1.04876 1.09836 0.83672
 O845 O 0.89210 0.97890 0.92168
 O846 O 0.86689 0.97894 0.89634
 C847 C 0.87456 0.97145 0.91395
 C848 C 0.86345 0.95336 0.92513
 C849 C 0.84440 0.94445 0.91645
 H850 H 0.83717 0.95135 0.90198
 O851 O 1.10785 1.02144 0.92149
 O852 O 1.13311 1.02138 0.89619
 C853 C 1.12541 1.02888 0.91377
 C854 C 1.13653 1.04696 0.92492
 C855 C 1.15560 1.05586 0.91623
 H856 H 1.16282 1.04896 0.90175
 O857 O 0.92168 0.89222 0.97878
 O858 O 0.89651 0.86690 0.97878
 C859 C 0.91402 0.87466 0.97126
 C860 C 0.92518 0.86360 0.95308
 C861 C 0.91655 0.84455 0.94408
 H862 H 0.90211 0.83730 0.95094
 O863 O 1.07847 1.10813 0.97853
 O864 O 1.10369 1.13340 0.97852
 C865 C 1.08617 1.12568 0.97099
 C866 C 1.07505 1.13677 0.95277
 C867 C 1.08369 1.15583 0.94376
 H868 H 1.09811 1.16308 0.95064
 O869 O 0.92188 1.02120 0.89207
 O870 O 0.89670 1.02123 0.86669
 C871 C 0.91421 1.02872 0.87446
 C872 C 0.92529 1.04688 0.86336
 C873 C 0.91656 1.05579 0.84427
 H874 H 0.90216 1.04883 0.83704
 O875 O 1.07816 0.97914 0.89188
 O876 O 1.10339 0.97908 0.86654
 C877 C 1.08586 0.97161 0.87431
 C878 C 1.07478 0.95345 0.86325
 C879 C 1.08350 0.94448 0.84420
 H880 H 1.09791 0.95139 0.83693
 O881 O 1.02126 0.89226 0.92175
 O882 O 1.02133 0.86699 0.89645
 C883 C 1.02879 0.87472 0.91404
 C884 C 1.04692 0.86365 0.92519
 C885 C 1.05589 0.84462 0.91645
 H886 H 1.04903 0.83741 0.90197
 O887 O 0.97893 1.10817 0.92160
 O888 O 0.97880 1.13346 0.89628
 C889 C 0.97138 1.12571 0.91389
 C890 C 0.95325 1.13674 0.92507
 C891 C 0.94426 1.15579 0.91639
 H892 H 0.95112 1.16307 0.90192
 O893 O 0.89217 1.07834 0.97884
 O894 O 0.86692 1.10361 0.97883
 C895 C 0.87464 1.08607 0.97132
 C896 C 0.86359 1.07496 0.95312
 C897 C 0.84457 1.08366 0.94411
 H898 H 0.83732 1.09811 0.95101
 O899 O 1.10780 0.92177 0.97905
 O900 O 1.13307 0.89652 0.97890
 C901 C 1.12531 0.91410 0.97145
 C902 C 1.13632 0.92530 0.95326
 C903 C 1.15538 0.91669 0.94428
 H904 H 1.16266 0.90226 0.95118
 O905 O 0.97887 1.07854 0.89190
 O906 O 0.97873 1.10379 0.86653
 C907 C 0.97131 1.08622 0.87432
 C908 C 0.95317 1.07504 0.86329
 C909 C 0.94415 1.08368 0.84420
 H910 H 0.95094 1.09815 0.83690
 O911 O 1.02123 0.92188 0.89199
 O912 O 1.02130 0.89664 0.86666
 C913 C 1.02874 0.91420 0.87440
 C914 C 1.04685 0.92535 0.86330
 C915 C 1.05585 0.91664 0.84424
 H916 H 1.04902 0.90218 0.83701
 O917 O 1.10767 0.97910 0.92167
 O918 O 1.13293 0.97902 0.89637
 C919 C 1.12520 0.97156 0.91398
 C920 C 1.13626 0.95341 0.92517
 C921 C 1.15533 0.94451 0.91649
 H922 H 1.16258 0.95146 0.90204
 O923 O 0.89217 1.02123 0.92166
 O924 O 0.86695 1.02129 0.89631
 C925 C 0.87466 1.02876 0.91391
 C926 C 0.86360 1.04692 0.92504
 C927 C 0.84458 1.05588 0.91632
 H928 H 0.83734 1.04897 0.90186
 O929 O 0.92182 1.10793 0.97883
 O930 O 0.89661 1.13324 0.97886
 C931 C 0.91413 1.12551 0.97134
 C932 C 0.92524 1.13664 0.95318
 C933 C 0.91654 1.15570 0.94424
 H934 H 0.90211 1.16292 0.95117
 O935 O 1.07828 0.89209 0.97911
 O936 O 1.10351 0.86680 0.97899
 C937 C 1.08598 0.87457 0.97153
 C938 C 1.07488 0.86357 0.95332
 C939 C 1.08359 0.84456 0.94431
 H940 H 1.09801 0.83729 0.95122
 O941 O 1.07822 1.02152 0.89178
 O942 O 1.10345 1.02147 0.86644
 C943 C 1.08592 1.02901 0.87417
 C944 C 1.07481 1.04718 0.86305
 C945 C 1.08350 1.05621 0.84398
 H946 H 1.09795 1.04936 0.83673
 O947 O 0.92176 0.97883 0.89199
 O948 O 0.89657 0.97885 0.86663
 C949 C 0.91408 0.97134 0.87440
 C950 C 0.92521 0.95319 0.86331
 C951 C 0.91651 0.94417 0.84427
 H952 H 0.90205 0.95101 0.83702
 O953 O 1.02126 1.10822 0.92145
 O954 O 1.02116 1.13350 0.89613
 C955 C 1.02873 1.12577 0.91369
 C956 C 1.04693 1.13682 0.92476
 C957 C 1.05584 1.15588 0.91602
 H958 H 1.04889 1.16315 0.90159
 O959 O 0.97895 0.89220 0.92171
 O960 O 0.97900 0.86693 0.89642
 C961 C 0.97148 0.87465 0.91399
 C962 C 0.95332 0.86358 0.92509
 C963 C 0.94442 0.84453 0.91637
 H964 H 0.95139 0.83727 0.90195
 O965 O 1.10800 1.07839 0.97868
 O966 O 1.13326 1.10362 0.97867
 C967 C 1.12554 1.08607 0.97119
 C968 C 1.13660 1.07493 0.95304
 C969 C 1.15566 1.08357 0.94410
 H970 H 1.16293 1.09796 0.95103
 O971 O 0.89208 0.92189 0.97887
 O972 O 0.86687 0.89661 0.97888
 C973 C 0.87454 0.91418 0.97139
 C974 C 0.86344 0.92534 0.95325
 C975 C 0.84438 0.91669 0.94433
 H976 H 0.83714 0.90228 0.95127
 Cu977 Cu 1.00009 0.90958 0.90940
 Cu978 Cu 1.00016 0.87925 0.87901
 Cu979 Cu 1.00007 1.09085 0.90922
 Cu980 Cu 0.99993 1.12118 0.87880
 Cu981 Cu 0.90951 1.00002 0.90939
 Cu982 Cu 0.87926 1.00009 0.87894
 Cu983 Cu 1.09044 1.00032 0.90923
 Cu984 Cu 1.12075 1.00023 0.87885
 C985 C 0.94376 0.94373 0.87257
 H986 H 0.95038 0.95038 0.88743
 C987 C 0.92602 0.92588 0.83482
 C988 C 1.05626 1.05664 0.87230
 H989 H 1.04965 1.05000 0.88718
 C990 C 1.07398 1.07450 0.83452
 C991 C 0.87270 0.94384 0.94369
 H992 H 0.88757 0.95040 0.95028
 C993 C 0.83493 0.92619 0.92601
 C994 C 1.12730 1.05647 0.94348
 H995 H 1.11242 1.04992 0.95008
 C996 C 1.16509 1.07409 0.92577
 C997 C 0.94372 0.87285 0.94360
 H998 H 0.95028 0.88772 0.95023
 C999 C 0.92612 0.83508 0.92581
 C1000 C 1.05651 1.12753 0.94329
 H1001 H 1.04994 1.11267 0.94993
 C1002 C 1.07414 1.16533 0.92547
 C1003 C 0.94376 1.05648 0.87262
 H1004 H 0.95040 1.04990 0.88751
 C1005 C 0.92592 1.07410 0.83477
 C1006 C 1.05629 0.94391 0.87254
 H1007 H 1.04966 0.95053 0.88741
 C1008 C 1.07410 0.92616 0.83477
 C1009 C 1.05639 0.87287 0.94377
 H1010 H 1.04979 0.88772 0.95040
 C1011 C 1.07415 0.83515 0.92596
 C1012 C 0.94377 1.12742 0.94363
 H1013 H 0.95038 1.11255 0.95022
 C1014 C 0.92598 1.16520 0.92592
 C1015 C 0.87284 1.05643 0.94360
 H1016 H 0.88768 1.04981 0.95023
 C1017 C 0.83513 1.07417 0.92580
 C1018 C 1.12701 0.94383 0.94372
 H1019 H 1.11214 0.95038 0.95033
 C1020 C 1.16481 0.92624 0.92598
 O1021 O 1.02117 0.92177 1.10824
 O1022 O 1.02115 0.89651 1.13360
 C1023 C 1.02864 0.91406 1.12584
 C1024 C 1.04679 0.92514 1.13692
 C1025 C 1.05570 0.91641 1.15600
 H1026 H 1.04874 0.90202 1.16329
 O1027 O 0.97909 1.07810 1.10793
 O1028 O 0.97911 1.10330 1.13330
 C1029 C 0.97162 1.08577 1.12554
 C1030 C 0.95350 1.07466 1.13666
 C1031 C 0.94458 1.08340 1.15572
 H1032 H 0.95149 1.09784 1.16295
 O1033 O 0.89216 1.02115 1.07857
 O1034 O 0.86694 1.02121 1.10392
 C1035 C 0.87465 1.02869 1.08631
 C1036 C 0.86360 1.04686 1.07517
 C1037 C 0.84456 1.05582 1.08385
 H1038 H 0.83731 1.04892 1.09831
 O1039 O 1.10820 0.97866 1.07839
 O1040 O 1.13343 0.97866 1.10372
 C1041 C 1.12574 0.97117 1.08613
 C1042 C 1.13682 0.95304 1.07501
 C1043 C 1.15587 0.94409 1.08369
 H1044 H 1.16312 0.95099 1.09814
 O1045 O 1.07840 0.89199 1.02160
 O1046 O 1.10363 0.86670 1.02150
 C1047 C 1.08613 0.87442 1.02909
 C1048 C 1.07506 0.86333 1.04733
 C1049 C 1.08374 0.84426 1.05631
 H1050 H 1.09815 0.83701 1.04938
 O1051 O 0.92181 1.10792 1.02127
 O1052 O 0.89660 1.13322 1.02132
 C1053 C 0.91414 1.12548 1.02879
 C1054 C 0.92531 1.13653 1.04695
 C1055 C 0.91666 1.15557 1.05597
 H1056 H 0.90221 1.16283 1.04911
 O1057 O 0.92174 0.97868 1.10822
 O1058 O 0.89656 0.97874 1.13360
 C1059 C 0.91406 0.97120 1.12583
 C1060 C 0.92514 0.95301 1.13694
 C1061 C 0.91641 0.94406 1.15602
 H1062 H 0.90200 0.95099 1.16326
 O1063 O 1.07843 1.02091 1.10801
 O1064 O 1.10362 1.02093 1.13338
 C1065 C 1.08609 1.02839 1.12561
 C1066 C 1.07495 1.04652 1.13669
 C1067 C 1.08363 1.05544 1.15577
 H1068 H 1.09805 1.04853 1.16303
 O1069 O 0.97900 0.89211 1.07846
 O1070 O 0.97893 0.86681 1.10377
 C1071 C 0.97149 0.87456 1.08616
 C1072 C 0.95337 0.86353 1.07498
 C1073 C 0.94443 0.84446 1.08366
 H1074 H 0.95132 0.83716 1.09811
 O1075 O 1.02137 1.10784 1.07824
 O1076 O 1.02138 1.13306 1.10359
 C1077 C 1.02884 1.12538 1.08598
 C1078 C 1.04693 1.13651 1.07482
 C1079 C 1.05586 1.15555 1.08355
 H1080 H 1.04898 1.16275 1.09804
 O1081 O 0.89207 0.92178 1.02129
 O1082 O 0.86686 0.89650 1.02134
 C1083 C 0.87455 0.91406 1.02883
 C1084 C 0.86348 0.92519 1.04702
 C1085 C 0.84443 0.91655 1.05600
 H1086 H 0.83717 0.90214 1.04909
 O1087 O 1.10796 1.07845 1.02111
 O1088 O 1.13322 1.10367 1.02115
 C1089 C 1.12548 1.08613 1.02867
 C1090 C 1.13650 1.07498 1.04690
 C1091 C 1.15552 1.08364 1.05591
 H1092 H 1.16276 1.09808 1.04901
 O1093 O 1.02139 1.07813 1.10796
 O1094 O 1.02142 1.10334 1.13332
 C1095 C 1.02888 1.08579 1.12556
 C1096 C 1.04699 1.07461 1.13666
 C1097 C 1.05595 1.08328 1.15574
 H1098 H 1.04911 1.09774 1.16299
 O1099 O 0.97885 0.92154 1.10837
 O1100 O 0.97881 0.89628 1.13372
 C1101 C 0.97131 0.91382 1.12595
 C1102 C 0.95313 0.92493 1.13701
 C1103 C 0.94412 0.91624 1.15609
 H1104 H 0.95098 0.90180 1.16338
 O1105 O 1.10803 1.02103 1.07830
 O1106 O 1.13326 1.02106 1.10363
 C1107 C 1.12553 1.02858 1.08605
 C1108 C 1.13653 1.04682 1.07494
 C1109 C 1.15554 1.05577 1.08367
 H1110 H 1.16279 1.04882 1.09812
 O1111 O 0.89214 0.97881 1.07850
 O1112 O 0.86693 0.97884 1.10385
 C1113 C 0.87461 0.97135 1.08624
 C1114 C 0.86351 0.95324 1.07510
 C1115 C 0.84446 0.94434 1.08380
 H1116 H 0.83722 0.95126 1.09826
 O1117 O 1.07833 1.10806 1.02098
 O1118 O 1.10355 1.13333 1.02101
 C1119 C 1.08601 1.12560 1.02849
 C1120 C 1.07489 1.13663 1.04667
 C1121 C 1.08355 1.15565 1.05566
 H1122 H 1.09795 1.16293 1.04874
 O1123 O 0.92184 0.89229 1.02123
 O1124 O 0.89667 0.86697 1.02127
 C1125 C 0.91420 0.87472 1.02875
 C1126 C 0.92534 0.86362 1.04691
 C1127 C 0.91668 0.84456 1.05585
 H1128 H 0.90225 0.83734 1.04894
 O1129 O 1.07851 0.97859 1.10805
 O1130 O 1.10370 0.97857 1.13342
 C1131 C 1.08617 0.97110 1.12568
 C1132 C 1.07498 0.95300 1.13682
 C1133 C 1.08362 0.94399 1.15592
 H1134 H 1.09809 0.95079 1.16316
 O1135 O 0.92189 1.02103 1.10813
 O1136 O 0.89672 1.02113 1.13352
 C1137 C 0.91425 1.02857 1.12572
 C1138 C 0.92543 1.04670 1.13675
 C1139 C 0.91677 1.05573 1.15580
 H1140 H 0.90232 1.04892 1.16308
 O1141 O 0.97906 1.10785 1.07830
 O1142 O 0.97906 1.13308 1.10365
 C1143 C 0.97157 1.12539 1.08606
 C1144 C 0.95342 1.13649 1.07495
 C1145 C 0.94449 1.15552 1.08370
 H1146 H 0.95141 1.16274 1.09816
 O1147 O 1.02132 0.89192 1.07877
 O1148 O 1.02128 0.86662 1.10408
 C1149 C 1.02882 0.87436 1.08652
 C1150 C 1.04702 0.86330 1.07543
 C1151 C 1.05597 0.84424 1.08414
 H1152 H 1.04906 0.83697 1.09859
 O1153 O 1.10806 0.92158 1.02145
 O1154 O 1.13332 0.89632 1.02135
 C1155 C 1.12563 0.91387 1.02887
 C1156 C 1.13677 0.92499 1.04697
 C1157 C 1.15582 0.91631 1.05590
 H1158 H 1.16305 0.90187 1.04898
 O1159 O 0.89221 1.07828 1.02131
 O1160 O 0.86696 1.10355 1.02132
 C1161 C 0.87468 1.08600 1.02883
 C1162 C 0.86362 1.07489 1.04704
 C1163 C 0.84457 1.08358 1.05598
 H1164 H 0.83733 1.09801 1.04903
 Cu1165 Cu 1.00009 0.90936 1.09092
 Cu1166 Cu 1.00004 0.87902 1.12133
 Cu1167 Cu 1.00024 1.09046 1.09056
 Cu1168 Cu 1.00025 1.12072 1.12101
 Cu1169 Cu 0.90944 0.90958 1.00003
 Cu1170 Cu 0.87920 0.87920 1.00008
 Cu1171 Cu 1.09060 0.90938 1.00033
 Cu1172 Cu 1.12091 0.87904 1.00017
 Cu1173 Cu 0.90952 1.09058 1.00006
 Cu1174 Cu 0.87924 1.12094 1.00008
 Cu1175 Cu 1.09066 1.09073 0.99982
 Cu1176 Cu 1.12097 1.12104 0.99984
 Cu1177 Cu 0.90950 0.99991 1.09081
 Cu1178 Cu 0.87926 0.99998 1.12127
 Cu1179 Cu 1.09078 0.99978 1.09064
 Cu1180 Cu 1.12104 0.99980 1.12107
 C1181 C 1.05639 0.94361 1.12759
 H1182 H 1.04981 0.95025 1.11270
 C1183 C 1.07403 0.92577 1.16543
 C1184 C 0.94396 1.05614 1.12743
 H1185 H 0.95054 1.04948 1.11255
 C1186 C 0.92629 1.07400 1.16521
 C1187 C 0.87287 1.05638 1.05661
 H1188 H 0.88774 1.04978 1.05002
 C1189 C 0.83511 1.07411 1.07431
 C1190 C 1.12754 0.94352 1.05649
 H1191 H 1.11267 0.95012 1.04990
 C1192 C 1.16530 0.92581 1.07418
 C1193 C 1.05655 0.87258 1.05687
 H1194 H 1.04995 0.88745 1.05025
 C1195 C 1.07425 0.83477 1.07464
 C1196 C 0.94386 1.12726 1.05641
 H1197 H 0.95045 1.11242 1.04974
 C1198 C 0.92620 1.16499 1.07426
 C1199 C 0.94365 0.94347 1.12769
 H1200 H 0.95028 0.95007 1.11281
 C1201 C 0.92583 0.92576 1.16553
 C1202 C 1.05645 1.05605 1.12740
 H1203 H 1.04983 1.04944 1.11253
 C1204 C 1.07418 1.07373 1.16522
 C1205 C 0.94385 0.87286 1.05645
 H1206 H 0.95042 0.88775 1.04986
 C1207 C 0.92616 0.83505 1.07414
 C1208 C 1.05641 1.12732 1.05622
 H1209 H 1.04984 1.11246 1.04958
 C1210 C 1.07409 1.16504 1.07402
 C1211 C 0.87275 0.94370 1.05654
 H1212 H 0.88761 0.95027 1.04993
 C1213 C 0.83499 0.92608 1.07431
 C1214 C 1.12726 1.05641 1.05640
 H1215 H 1.11242 1.04983 1.04977
 C1216 C 1.16497 1.07409 1.07421
 O1217 O 1.07832 0.52099 0.60797
 O1218 O 1.10352 0.52090 0.63332
 C1219 C 1.08602 0.52845 0.62557
 C1220 C 1.07497 0.54664 0.63667
 C1221 C 1.08375 0.55559 0.65571
 H1222 H 1.09818 0.54865 0.66292
 O1223 O 0.92176 0.47859 0.60818
 O1224 O 0.89654 0.47863 0.63352
 C1225 C 0.91404 0.47109 0.62577
 C1226 C 0.92509 0.45287 0.63687
 C1227 C 0.91635 0.44392 0.65594
 H1228 H 0.90195 0.45087 0.66319
 O1229 O 1.02126 0.60781 0.57830
 O1230 O 1.02125 0.63308 0.60360
 C1231 C 1.02874 0.62537 0.58601
 C1232 C 1.04685 0.63646 0.57485
 C1233 C 1.05579 0.65551 0.58355
 H1234 H 1.04889 0.66275 0.59802
 O1235 O 0.97888 0.39192 0.57829
 O1236 O 0.97881 0.36663 0.60361
 C1237 C 0.97137 0.37437 0.58600
 C1238 C 0.95327 0.36332 0.57482
 C1239 C 0.94431 0.34428 0.58352
 H1240 H 0.95118 0.33701 0.59800
 O1241 O 1.10794 0.57824 0.52108
 O1242 O 1.13319 0.60347 0.52112
 C1243 C 1.12546 0.58592 0.52861
 C1244 C 1.13651 0.57474 0.54680
 C1245 C 1.15552 0.58340 0.55580
 H1246 H 1.16276 0.59785 0.54892
 O1247 O 0.89210 0.42157 0.52103
 O1248 O 0.86689 0.39629 0.52115
 C1249 C 0.87460 0.41385 0.52862
 C1250 C 0.86357 0.42499 0.54685
 C1251 C 0.84451 0.41637 0.55583
 H1252 H 0.83723 0.40197 0.54892
 O1253 O 0.97901 0.57805 0.60799
 O1254 O 0.97899 0.60327 0.63333
 C1255 C 0.97151 0.58573 0.62558
 C1256 C 0.95337 0.57463 0.63668
 C1257 C 0.94443 0.58337 0.65574
 H1258 H 0.95135 0.59779 0.66298
 O1259 O 1.02103 0.42159 0.60806
 O1260 O 1.02104 0.39634 0.63341
 C1261 C 1.02851 0.41389 0.62565
 C1262 C 1.04664 0.42500 0.63672
 C1263 C 1.05557 0.41628 0.65580
 H1264 H 1.04866 0.40186 0.66307
 O1265 O 1.10792 0.47860 0.57827
 O1266 O 1.13315 0.47854 0.60360
 C1267 C 1.12545 0.47108 0.58600
 C1268 C 1.13655 0.45295 0.57485
 C1269 C 1.15563 0.44405 0.58351
 H1270 H 1.16289 0.45100 0.59794
 O1271 O 0.89218 0.52099 0.57844
 O1272 O 0.86692 0.52103 0.60374
 C1273 C 0.87464 0.52850 0.58614
 C1274 C 0.86357 0.54664 0.57495
 C1275 C 0.84453 0.55561 0.58362
 H1276 H 0.83727 0.54872 0.59809
 O1277 O 0.92176 0.60771 0.52119
 O1278 O 0.89653 0.63299 0.52115
 C1279 C 0.91404 0.62526 0.52870
 C1280 C 0.92514 0.63633 0.54691
 C1281 C 0.91645 0.65538 0.55590
 H1282 H 0.90201 0.66261 0.54901
 O1283 O 1.07845 0.39169 0.52137
 O1284 O 1.10363 0.36637 0.52139
 C1285 C 1.08613 0.37414 0.52893
 C1286 C 1.07501 0.36309 0.54719
 C1287 C 1.08365 0.34403 0.55624
 H1288 H 1.09806 0.33675 0.54936
 O1289 O 0.92184 0.52098 0.60810
 O1290 O 0.89661 0.52104 0.63344
 C1291 C 0.91415 0.52851 0.62568
 C1292 C 0.92529 0.54667 0.63673
 C1293 C 0.91661 0.55571 0.65579
 H1294 H 0.90216 0.54888 0.66306
 O1295 O 1.07823 0.47861 0.60795
 O1296 O 1.10343 0.47852 0.63330
 C1297 C 1.08589 0.47107 0.62555
 C1298 C 1.07473 0.45295 0.63666
 C1299 C 1.08339 0.44395 0.65575
 H1300 H 1.09784 0.45077 0.66300
 O1301 O 1.02120 0.39177 0.57856
 O1302 O 1.02116 0.36648 0.60388
 C1303 C 1.02870 0.37422 0.58632
 C1304 C 1.04690 0.36314 0.57524
 C1305 C 1.05582 0.34408 0.58400
 H1306 H 1.04886 0.33684 0.59844
 O1307 O 0.97894 0.60778 0.57835
 O1308 O 0.97890 0.63305 0.60366
 C1309 C 0.97141 0.62532 0.58608
 C1310 C 0.95322 0.63636 0.57495
 C1311 C 0.94427 0.65541 0.58366
 H1312 H 0.95120 0.66268 0.59808
 O1313 O 0.89220 0.57803 0.52110
 O1314 O 0.86694 0.60328 0.52105
 C1315 C 0.87466 0.58574 0.52859
 C1316 C 0.86358 0.57463 0.54678
 C1317 C 0.84454 0.58333 0.55572
 H1318 H 0.83730 0.59775 0.54876
 O1319 O 1.10795 0.42143 0.52117
 O1320 O 1.13319 0.39615 0.52121
 C1321 C 1.12548 0.41372 0.52868
 C1322 C 1.13656 0.42488 0.54681
 C1323 C 1.15563 0.41625 0.55574
 H1324 H 1.16288 0.40182 0.54884
 O1325 O 0.97871 0.42133 0.60823
 O1326 O 0.97869 0.39607 0.63358
 C1327 C 0.97119 0.41361 0.62582
 C1328 C 0.95302 0.42473 0.63689
 C1329 C 0.94399 0.41604 0.65597
 H1330 H 0.95083 0.40157 0.66324
 O1331 O 1.02134 0.57821 0.60810
 O1332 O 1.02134 0.60343 0.63343
 C1333 C 1.02884 0.58590 0.62568
 C1334 C 1.04702 0.57476 0.63674
 C1335 C 1.05607 0.58344 0.65578
 H1336 H 1.04925 0.59791 0.66305
 O1337 O 0.89225 0.47865 0.57838
 O1338 O 0.86699 0.47866 0.60369
 C1339 C 0.87471 0.47116 0.58610
 C1340 C 0.86363 0.45303 0.57494
 C1341 C 0.84457 0.44415 0.58364
 H1342 H 0.83733 0.45108 0.59808
 O1343 O 1.10792 0.52096 0.57826
 O1344 O 1.13315 0.52091 0.60358
 C1345 C 1.12544 0.52844 0.58599
 C1346 C 1.13651 0.54662 0.57486
 C1347 C 1.15552 0.55555 0.58359
 H1348 H 1.16276 0.54861 0.59804
 O1349 O 0.92180 0.39201 0.52098
 O1350 O 0.89663 0.36668 0.52106
 C1351 C 0.91416 0.37444 0.52852
 C1352 C 0.92530 0.36336 0.54669
 C1353 C 0.91663 0.34431 0.55565
 H1354 H 0.90222 0.33707 0.54872
 O1355 O 1.07830 0.60786 0.52104
 O1356 O 1.10351 0.63313 0.52106
 C1357 C 1.08599 0.62540 0.52856
 C1358 C 1.07486 0.63647 0.54674
 C1359 C 1.08352 0.65552 0.55570
 H1360 H 1.09793 0.66277 0.54877
 Cu1361 Cu 1.09057 0.49979 0.59057
 Cu1362 Cu 1.12084 0.49970 0.62099
 Cu1363 Cu 0.90954 0.49980 0.59075
 Cu1364 Cu 0.87924 0.49984 0.62114
 Cu1365 Cu 1.00015 0.59044 0.59065
 Cu1366 Cu 1.00011 0.62074 0.62105
 Cu1367 Cu 0.99995 0.40918 0.59075
 Cu1368 Cu 0.99992 0.37884 0.62116
 C1369 C 1.05645 0.55619 0.62745
 H1370 H 1.04978 0.54959 0.61260
 C1371 C 1.07436 0.57391 0.66519
 C1372 C 0.94357 0.44330 0.62760
 H1373 H 0.95021 0.44991 0.61273
 C1374 C 0.92574 0.42559 0.66543
 C1375 C 1.05637 0.62720 0.55629
 H1376 H 1.04979 0.61233 0.54969
 C1377 C 1.07404 0.66497 0.57402
 C1378 C 0.94379 0.37261 0.55624
 H1379 H 0.95038 0.38749 0.54964
 C1380 C 0.92607 0.33485 0.57398
 C1381 C 1.12726 0.55619 0.55631
 H1382 H 1.11242 0.54961 0.54967
 C1383 C 1.16496 0.57385 0.57411
 C1384 C 0.87288 0.44348 0.55639
 H1385 H 0.88775 0.45002 0.54978
 C1386 C 0.83508 0.42590 0.57414
 C1387 C 0.94383 0.55611 0.62744
 H1388 H 0.95042 0.54947 0.61256
 C1389 C 0.92614 0.57397 0.66522
 C1390 C 1.05618 0.44350 0.62741
 H1391 H 1.04958 0.45014 0.61253
 C1392 C 1.07385 0.42570 0.66524
 C1393 C 1.12727 0.44339 0.55634
 H1394 H 1.11238 0.44994 0.54976
 C1395 C 1.16510 0.42578 0.57401
 C1396 C 0.87284 0.55613 0.55638
 H1397 H 0.88771 0.54954 0.54980
 C1398 C 0.83508 0.57387 0.57405
 C1399 C 0.94368 0.62708 0.55643
 H1400 H 0.95027 0.61222 0.54981
 C1401 C 0.92596 0.66485 0.57420
 C1402 C 1.05648 0.37238 0.55669
 H1403 H 1.04991 0.38725 0.55004
 C1404 C 1.07411 0.33458 0.57457
 O1405 O 1.07838 0.47881 0.39193
 O1406 O 1.10360 0.47874 0.36658
 C1407 C 1.08606 0.47128 0.37435
 C1408 C 1.07494 0.45314 0.36328
 C1409 C 1.08366 0.44418 0.34422
 H1410 H 1.09810 0.45107 0.33698
 O1411 O 0.92193 0.52066 0.39184
 O1412 O 0.89676 0.52082 0.36645
 C1413 C 0.91429 0.52825 0.37426
 C1414 C 0.92542 0.54643 0.36323
 C1415 C 0.91669 0.55546 0.34420
 H1416 H 0.90228 0.54858 0.33693
 O1417 O 0.97909 0.60775 0.42147
 O1418 O 0.97897 0.63302 0.39612
 C1419 C 0.97155 0.62530 0.41374
 C1420 C 0.95342 0.63638 0.42493
 C1421 C 0.94450 0.65548 0.41627
 H1422 H 0.95140 0.66276 0.40182
 O1423 O 1.02119 0.39193 0.42151
 O1424 O 1.02131 0.36665 0.39623
 C1425 C 1.02873 0.37438 0.41383
 C1426 C 1.04683 0.36330 0.42503
 C1427 C 1.05580 0.34425 0.41634
 H1428 H 1.04894 0.33702 0.40186
 O1429 O 1.10804 0.42125 0.47872
 O1430 O 1.13327 0.39597 0.47870
 C1431 C 1.12556 0.41353 0.47116
 C1432 C 1.13661 0.42467 0.45292
 C1433 C 1.15567 0.41602 0.44391
 H1434 H 1.16292 0.40157 0.45079
 O1435 O 0.89229 0.57806 0.47863
 O1436 O 0.86704 0.60331 0.47855
 C1437 C 0.87478 0.58577 0.47106
 C1438 C 0.86373 0.57464 0.45285
 C1439 C 0.84466 0.58330 0.44389
 H1440 H 0.83741 0.59773 0.45081
 O1441 O 1.02148 0.57820 0.39169
 O1442 O 1.02136 0.60343 0.36631
 C1443 C 1.02895 0.58593 0.37409
 C1444 C 1.04717 0.57489 0.36301
 C1445 C 1.05613 0.58364 0.34394
 H1446 H 1.04919 0.59807 0.33668
 O1447 O 0.97883 0.42142 0.39161
 O1448 O 0.97896 0.39616 0.36631
 C1449 C 0.97138 0.41367 0.37402
 C1450 C 0.95317 0.42470 0.36291
 C1451 C 0.94422 0.41594 0.34387
 H1452 H 0.95116 0.40152 0.33663
 O1453 O 1.10816 0.52103 0.42157
 O1454 O 1.13341 0.52101 0.39626
 C1455 C 1.12570 0.52851 0.41385
 C1456 C 1.13675 0.54665 0.42500
 C1457 C 1.15581 0.55559 0.41634
 H1458 H 1.16309 0.54868 0.40190
 O1459 O 0.89199 0.47839 0.42133
 O1460 O 0.86679 0.47851 0.39599
 C1461 C 0.87445 0.47096 0.41358
 C1462 C 0.86333 0.45284 0.42473
 C1463 C 0.84430 0.44390 0.41605
 H1464 H 0.83707 0.45079 0.40156
 O1465 O 1.07841 0.60795 0.47858
 O1466 O 1.10362 0.63322 0.47857
 C1467 C 1.08610 0.62550 0.47105
 C1468 C 1.07497 0.63658 0.45285
 C1469 C 1.08360 0.65564 0.44384
 H1470 H 1.09800 0.66291 0.45073
 O1471 O 0.92168 0.39193 0.47854
 O1472 O 0.89652 0.36661 0.47860
 C1473 C 0.91403 0.37436 0.47106
 C1474 C 0.92520 0.36326 0.45291
 C1475 C 0.91657 0.34420 0.44394
 H1476 H 0.90213 0.33696 0.45082
 O1477 O 0.92163 0.47828 0.39162
 O1478 O 0.89646 0.47841 0.36624
 C1479 C 0.91394 0.47083 0.37401
 C1480 C 0.92504 0.45265 0.36291
 C1481 C 0.91635 0.44361 0.34386
 H1482 H 0.90189 0.45046 0.33662
 O1483 O 1.07866 0.52119 0.39172
 O1484 O 1.10388 0.52115 0.36638
 C1485 C 1.08637 0.52870 0.37412
 C1486 C 1.07528 0.54691 0.36302
 C1487 C 1.08398 0.55596 0.34395
 H1488 H 1.09843 0.54911 0.33670
 O1489 O 0.97888 0.39189 0.42147
 O1490 O 0.97899 0.36660 0.39619
 C1491 C 0.97145 0.37432 0.41376
 C1492 C 0.95331 0.36323 0.42489
 C1493 C 0.94441 0.34416 0.41620
 H1494 H 0.95136 0.33690 0.40177
 O1495 O 1.02139 0.60784 0.42140
 O1496 O 1.02129 0.63310 0.39605
 C1497 C 1.02882 0.62540 0.41365
 C1498 C 1.04693 0.63653 0.42476
 C1499 C 1.05583 0.65559 0.41603
 H1500 H 1.04891 0.66283 0.40156
 O1501 O 0.89196 0.42150 0.47856
 O1502 O 0.86676 0.39621 0.47864
 C1503 C 0.87443 0.41376 0.47109
 C1504 C 0.86333 0.42485 0.45289
 C1505 C 0.84429 0.41617 0.44396
 H1506 H 0.83705 0.40176 0.45093
 O1507 O 1.10796 0.57821 0.47865
 O1508 O 1.13321 0.60344 0.47865
 C1509 C 1.12551 0.58589 0.47116
 C1510 C 1.13664 0.57473 0.45304
 C1511 C 1.15570 0.58339 0.44412
 H1512 H 1.16291 0.59782 0.45105
 O1513 O 1.02118 0.42165 0.39183
 O1514 O 1.02133 0.39640 0.36652
 C1515 C 1.02876 0.41396 0.37428
 C1516 C 1.04693 0.42510 0.36324
 C1517 C 1.05596 0.41641 0.34418
 H1518 H 1.04911 0.40196 0.33691
 O1519 O 0.97911 0.57798 0.39187
 O1520 O 0.97898 0.60322 0.36650
 C1521 C 0.97155 0.58566 0.37430
 C1522 C 0.95339 0.57452 0.36326
 C1523 C 0.94435 0.58328 0.34422
 H1524 H 0.95118 0.59776 0.33698
 O1525 O 0.89219 0.52075 0.42140
 O1526 O 0.86698 0.52090 0.39606
 C1527 C 0.87470 0.52835 0.41366
 C1528 C 0.86369 0.54656 0.42479
 C1529 C 0.84463 0.55550 0.41612
 H1530 H 0.83736 0.54856 0.40169
 O1531 O 1.10809 0.47865 0.42152
 O1532 O 1.13335 0.47861 0.39621
 C1533 C 1.12560 0.47109 0.41379
 C1534 C 1.13663 0.45285 0.42489
 C1535 C 1.15568 0.44393 0.41618
 H1536 H 1.16294 0.45092 0.40176
 O1537 O 1.07822 0.39183 0.47888
 O1538 O 1.10341 0.36651 0.47887
 C1539 C 1.08589 0.37427 0.47137
 C1540 C 1.07478 0.36323 0.45319
 C1541 C 1.08347 0.34419 0.44423
 H1542 H 1.09787 0.33692 0.45116
 O1543 O 0.92193 0.60769 0.47873
 O1544 O 0.89671 0.63297 0.47866
 C1545 C 0.91426 0.62525 0.47120
 C1546 C 0.92541 0.63636 0.45304
 C1547 C 0.91677 0.65545 0.44411
 H1548 H 0.90236 0.66270 0.45104
 Cu1549 Cu 1.09080 0.49994 0.40922
 Cu1550 Cu 1.12109 0.49986 0.37882
 Cu1551 Cu 0.90946 0.49948 0.40909
 Cu1552 Cu 0.87923 0.49968 0.37864
 Cu1553 Cu 1.09062 0.59054 0.49983
 Cu1554 Cu 1.12092 0.62085 0.49985
 Cu1555 Cu 1.09064 0.40908 0.50004
 Cu1556 Cu 1.12090 0.37871 0.50005
 Cu1557 Cu 0.90957 0.59034 0.49992
 Cu1558 Cu 0.87927 0.62067 0.49984
 Cu1559 Cu 0.90940 0.40929 0.49976
 Cu1560 Cu 0.87918 0.37891 0.49988
 Cu1561 Cu 1.00029 0.59041 0.40914
 Cu1562 Cu 1.00013 0.62071 0.37869
 Cu1563 Cu 1.00000 0.40926 0.40913
 Cu1564 Cu 1.00017 0.37893 0.37877
 C1565 C 1.05641 0.44362 0.37253
 H1566 H 1.04978 0.45023 0.38741
 C1567 C 1.07424 0.42590 0.33475
 C1568 C 0.94393 0.55594 0.37252
 H1569 H 0.95055 0.54930 0.38739
 C1570 C 0.92609 0.57380 0.33478
 C1571 C 0.94391 0.62708 0.44348
 H1572 H 0.95047 0.61218 0.45007
 C1573 C 0.92625 0.66495 0.42580
 C1574 C 1.05630 0.37254 0.44361
 H1575 H 1.04971 0.38741 0.45021
 C1576 C 1.07404 0.33477 0.42588
 C1577 C 1.12735 0.44323 0.44341
 H1578 H 1.11249 0.44980 0.45003
 C1579 C 1.16514 0.42559 0.42561
 C1580 C 0.87299 0.55612 0.44331
 H1581 H 0.88786 0.54953 0.44990
 C1582 C 0.83518 0.57379 0.42561
 C1583 C 1.05673 0.55637 0.37228
 H1584 H 1.05012 0.54972 0.38715
 C1585 C 1.07445 0.57425 0.33447
 C1586 C 0.94361 0.44320 0.37217
 H1587 H 0.95021 0.44986 0.38703
 C1588 C 0.92589 0.42534 0.33440
 C1589 C 1.12742 0.55620 0.44351
 H1590 H 1.11255 0.54963 0.45009
 C1591 C 1.16521 0.57389 0.42585
 C1592 C 0.87258 0.44334 0.44331
 H1593 H 0.88743 0.44993 0.44990
 C1594 C 0.83483 0.42565 0.42562
 C1595 C 1.05647 0.62730 0.44334
 H1596 H 1.04990 0.61243 0.44999
 C1597 C 1.07408 0.66508 0.42551
 C1598 C 0.94373 0.37251 0.44341
 H1599 H 0.95030 0.38737 0.45002
 C1600 C 0.92613 0.33472 0.42567
 O1601 O 0.47847 0.92153 0.39160
 O1602 O 0.47866 0.89627 0.36630
 C1603 C 0.47107 0.91379 0.37400
 C1604 C 0.45290 0.92483 0.36285
 C1605 C 0.44396 0.91607 0.34380
 H1606 H 0.45091 0.90165 0.33658
 O1607 O 0.52115 1.07853 0.39190
 O1608 O 0.52100 1.10375 0.36651
 C1609 C 0.52859 1.08625 0.37428
 C1610 C 0.54678 1.07520 0.36317
 C1611 C 0.55572 1.08397 0.34410
 H1612 H 0.54878 1.09840 0.33686
 O1613 O 0.39195 0.97855 0.42142
 O1614 O 0.36668 0.97871 0.39614
 C1615 C 0.37437 0.97117 0.41372
 C1616 C 0.36323 0.95309 0.42490
 C1617 C 0.34417 0.94417 0.41625
 H1618 H 0.33694 0.95105 0.40176
 O1619 O 0.60783 1.02129 0.42155
 O1620 O 0.63304 1.02128 0.39619
 C1621 C 0.62536 1.02876 0.41380
 C1622 C 0.63646 1.04686 0.42495
 C1623 C 0.65554 1.05576 0.41629
 H1624 H 0.66280 1.04884 0.40185
 O1625 O 0.42138 0.89193 0.47853
 O1626 O 0.39619 0.86664 0.47863
 C1627 C 0.41368 0.87436 0.47104
 C1628 C 0.42479 0.86328 0.45283
 C1629 C 0.41616 0.84420 0.44384
 H1630 H 0.40175 0.83694 0.45076
 O1631 O 0.57827 1.10820 0.47853
 O1632 O 0.60350 1.13346 0.47851
 C1633 C 0.58596 1.12576 0.47100
 C1634 C 0.57482 1.13686 0.45281
 C1635 C 0.58347 1.15590 0.44376
 H1636 H 0.59791 1.16314 0.45062
 O1637 O 0.42182 1.02084 0.39189
 O1638 O 0.39659 1.02104 0.36658
 C1639 C 0.41412 1.02846 0.37435
 C1640 C 0.42521 1.04669 0.36334
 C1641 C 0.41647 1.05570 0.34431
 H1642 H 0.40207 1.04880 0.33704
 O1643 O 0.57801 0.97904 0.39198
 O1644 O 0.60318 0.97900 0.36659
 C1645 C 0.58566 0.97152 0.37439
 C1646 C 0.57455 0.95335 0.36334
 C1647 C 0.58329 0.94440 0.34429
 H1648 H 0.59772 0.95130 0.33705
 O1649 O 0.52080 0.89210 0.42157
 O1650 O 0.52099 0.86681 0.39630
 C1651 C 0.52840 0.87458 0.41389
 C1652 C 0.54658 0.86358 0.42508
 C1653 C 0.55557 0.84453 0.41642
 H1654 H 0.54869 0.83724 0.40199
 O1655 O 0.47876 1.10808 0.42166
 O1656 O 0.47862 1.13333 0.39631
 C1657 C 0.47119 1.12560 0.41393
 C1658 C 0.45304 1.13666 0.42508
 C1659 C 0.44407 1.15571 0.41637
 H1660 H 0.45095 1.16296 0.40189
 O1661 O 0.39215 1.07831 0.47893
 O1662 O 0.36687 1.10354 0.47878
 C1663 C 0.37463 1.08598 0.47133
 C1664 C 0.36363 1.07480 0.45312
 C1665 C 0.34456 1.08341 0.44415
 H1666 H 0.33728 1.09784 0.45103
 O1667 O 0.60787 0.92186 0.47871
 O1668 O 0.63310 0.89657 0.47874
 C1669 C 0.62540 0.91412 0.47120
 C1670 C 0.63647 0.92522 0.45298
 C1671 C 0.65551 0.91653 0.44400
 H1672 H 0.66275 0.90210 0.45094
 O1673 O 0.47880 1.07836 0.39202
 O1674 O 0.47864 1.10358 0.36664
 C1675 C 0.47123 1.08602 0.37444
 C1676 C 0.45310 1.07485 0.36340
 C1677 C 0.44407 1.08358 0.34435
 H1678 H 0.45087 1.09807 0.33711
 O1679 O 0.52080 0.92179 0.39188
 O1680 O 0.52102 0.89654 0.36657
 C1681 C 0.52841 0.91411 0.37433
 C1682 C 0.54658 0.92527 0.36330
 C1683 C 0.55561 0.91660 0.34425
 H1684 H 0.54878 0.90215 0.33697
 O1685 O 0.60787 0.97896 0.42144
 O1686 O 0.63307 0.97892 0.39608
 C1687 C 0.62538 0.97143 0.41369
 C1688 C 0.63646 0.95327 0.42485
 C1689 C 0.65551 0.94432 0.41616
 H1690 H 0.66276 0.95125 0.40170
 O1691 O 0.39220 1.02089 0.42159
 O1692 O 0.36693 1.02108 0.39631
 C1693 C 0.37469 1.02850 0.41390
 C1694 C 0.36366 1.04668 0.42508
 C1695 C 0.34459 1.05557 0.41641
 H1696 H 0.33732 1.04862 0.40199
 O1697 O 0.42162 1.10807 0.47899
 O1698 O 0.39639 1.13335 0.47889
 C1699 C 0.41393 1.12561 0.47142
 C1700 C 0.42504 1.13666 0.45321
 C1701 C 0.41635 1.15571 0.44421
 H1702 H 0.40192 1.16295 0.45113
 O1703 O 0.57809 0.89240 0.47877
 O1704 O 0.60328 0.86707 0.47881
 C1705 C 0.58576 0.87482 0.47129
 C1706 C 0.57463 0.86371 0.45314
 C1707 C 0.58333 0.84465 0.44422
 H1708 H 0.59777 0.83744 0.45114
 O1709 O 0.57830 1.02145 0.39176
 O1710 O 0.60346 1.02143 0.36637
 C1711 C 0.58598 1.02898 0.37416
 C1712 C 0.57488 1.04721 0.36312
 C1713 C 0.58355 1.05627 0.34405
 H1714 H 0.59799 1.04943 0.33678
 O1715 O 0.42147 0.97844 0.39156
 O1716 O 0.39623 0.97861 0.36625
 C1717 C 0.41373 0.97100 0.37396
 C1718 C 0.42480 0.95281 0.36283
 C1719 C 0.41611 0.94377 0.34377
 H1720 H 0.40166 0.95062 0.33652
 O1721 O 0.52109 1.10824 0.42152
 O1722 O 0.52096 1.13349 0.39616
 C1723 C 0.52852 1.12580 0.41374
 C1724 C 0.54669 1.13689 0.42481
 C1725 C 0.55563 1.15592 0.41603
 H1726 H 0.54868 1.16316 0.40158
 O1727 O 0.47846 0.89196 0.42142
 O1728 O 0.47864 0.86667 0.39614
 C1729 C 0.47104 0.87439 0.41369
 C1730 C 0.45287 0.86328 0.42477
 C1731 C 0.44397 0.84422 0.41606
 H1732 H 0.45093 0.83698 0.40163
 O1733 O 0.60778 1.07842 0.47862
 O1734 O 0.63305 1.10363 0.47861
 C1735 C 0.62533 1.08608 0.47113
 C1736 C 0.63643 1.07492 0.45300
 C1737 C 0.65551 1.08355 0.44408
 H1738 H 0.66275 1.09796 0.45100
 O1739 O 0.39186 0.92169 0.47866
 O1740 O 0.36662 0.89644 0.47876
 C1741 C 0.37431 0.91399 0.47123
 C1742 C 0.36320 0.92513 0.45309
 C1743 C 0.34414 0.91648 0.44419
 H1744 H 0.33688 0.90208 0.45117
 Cu1745 Cu 0.49960 0.90937 0.40915
 Cu1746 Cu 0.49985 0.87904 0.37879
 Cu1747 Cu 0.49996 1.09078 0.40932
 Cu1748 Cu 0.49978 1.12106 0.37885
 Cu1749 Cu 0.40940 0.99963 0.40914
 Cu1750 Cu 0.37908 0.99989 0.37878
 Cu1751 Cu 0.59048 1.00020 0.40922
 Cu1752 Cu 0.62070 1.00015 0.37875
 C1753 C 0.44335 0.94335 0.37208
 H1754 H 0.44997 0.95000 0.38694
 C1755 C 0.42565 0.92548 0.33432
 C1756 C 0.55635 1.05667 0.37242
 H1757 H 0.54976 1.05001 0.38730
 C1758 C 0.57402 1.07456 0.33461
 C1759 C 0.37247 0.94360 0.44349
 H1760 H 0.38735 0.95016 0.45006
 C1761 C 0.33469 0.92594 0.42585
 C1762 C 0.62718 1.05641 0.44348
 H1763 H 0.61229 1.04986 0.45006
 C1764 C 0.66499 1.07402 0.42580
 C1765 C 0.44329 0.87254 0.44330
 H1766 H 0.44985 0.88741 0.44992
 C1767 C 0.42569 0.83473 0.42554
 C1768 C 0.55626 1.12763 0.44336
 H1769 H 0.54968 1.11279 0.45002
 C1770 C 0.57393 1.16536 0.42545
 C1771 C 0.44368 1.05625 0.37265
 H1772 H 0.45032 1.04961 0.38752
 C1773 C 0.42584 1.07406 0.33489
 C1774 C 0.55604 0.94382 0.37260
 H1775 H 0.54940 0.95042 0.38748
 C1776 C 0.57389 0.92611 0.33482
 C1777 C 0.55609 0.87293 0.44359
 H1778 H 0.54948 0.88780 0.45016
 C1779 C 0.57387 0.83514 0.42593
 C1780 C 0.44354 1.12739 0.44367
 H1781 H 0.45014 1.11252 0.45029
 C1782 C 0.42580 1.16516 0.42588
 C1783 C 0.37294 1.05626 0.44361
 H1784 H 0.38781 1.04970 0.45021
 C1785 C 0.33511 1.07385 0.42588
 C1786 C 0.62721 0.94374 0.44342
 H1787 H 0.61236 0.95034 0.45002
 C1788 C 0.66497 0.92603 0.42567
 O1789 O 0.52090 0.92195 0.60804
 O1790 O 0.52090 0.89670 0.63340
 C1791 C 0.52838 0.91424 0.62564
 C1792 C 0.54650 0.92534 0.63675
 C1793 C 0.55544 0.91657 0.65580
 H1794 H 0.54855 0.90211 0.66303
 O1795 O 0.47903 1.07824 0.60802
 O1796 O 0.47894 1.10347 0.63336
 C1797 C 0.47151 1.08591 0.62560
 C1798 C 0.45337 1.07478 0.63665
 C1799 C 0.44442 1.08347 0.65572
 H1800 H 0.45135 1.09786 0.66301
 O1801 O 0.39174 1.02134 0.57834
 O1802 O 0.36655 1.02132 0.60371
 C1803 C 0.37422 1.02882 0.58611
 C1804 C 0.36312 1.04697 0.57499
 C1805 C 0.34407 1.05590 0.58369
 H1806 H 0.33683 1.04897 0.59815
 O1807 O 0.60769 0.97900 0.57856
 O1808 O 0.63296 0.97891 0.60385
 C1809 C 0.62523 0.97146 0.58626
 C1810 C 0.63630 0.95333 0.57507
 C1811 C 0.65537 0.94439 0.58372
 H1812 H 0.66263 0.95128 0.59817
 O1813 O 0.57820 0.89232 0.52123
 O1814 O 0.60339 0.86699 0.52128
 C1815 C 0.58587 0.87476 0.52878
 C1816 C 0.57472 0.86370 0.54697
 C1817 C 0.58335 0.84462 0.55596
 H1818 H 0.59779 0.83737 0.54909
 O1819 O 0.42154 1.10802 0.52150
 O1820 O 0.39630 1.13330 0.52141
 C1821 C 0.41381 1.12557 0.52900
 C1822 C 0.42488 1.13664 0.54724
 C1823 C 0.41619 1.15569 0.55622
 H1824 H 0.40175 1.16291 0.54933
 O1825 O 0.42152 0.97901 0.60796
 O1826 O 0.39636 0.97903 0.63337
 C1827 C 0.41387 0.97154 0.62559
 C1828 C 0.42502 0.95343 0.63672
 C1829 C 0.41633 0.94451 0.65583
 H1830 H 0.40191 0.95142 0.66307
 O1831 O 0.57822 1.02147 0.60831
 O1832 O 0.60345 1.02136 0.63363
 C1833 C 0.58596 1.02894 0.62589
 C1834 C 0.57496 1.04718 0.63698
 C1835 C 0.58372 1.05614 0.65603
 H1836 H 0.59812 1.04918 0.66327
 O1837 O 0.47863 0.89229 0.57836
 O1838 O 0.47862 0.86701 0.60370
 C1839 C 0.47114 0.87474 0.58610
 C1840 C 0.45304 0.86365 0.57495
 C1841 C 0.44410 0.84460 0.58369
 H1842 H 0.45096 0.83739 0.59820
 O1843 O 0.52113 1.10807 0.57827
 O1844 O 0.52112 1.13334 0.60356
 C1845 C 0.52859 1.12563 0.58596
 C1846 C 0.54669 1.13671 0.57478
 C1847 C 0.55565 1.15573 0.58348
 H1848 H 0.54877 1.16298 0.59795
 O1849 O 0.39193 0.92164 0.52108
 O1850 O 0.36669 0.89639 0.52122
 C1851 C 0.37442 0.91395 0.52868
 C1852 C 0.36340 0.92511 0.54688
 C1853 C 0.34437 0.91648 0.55591
 H1854 H 0.33711 0.90204 0.54904
 O1855 O 0.60779 1.07846 0.52105
 O1856 O 0.63307 1.10367 0.52108
 C1857 C 0.62532 1.08613 0.52858
 C1858 C 0.63636 1.07494 0.54679
 C1859 C 0.65542 1.08354 0.55575
 H1860 H 0.66271 1.09796 0.54884
 O1861 O 0.52135 1.07871 0.60830
 O1862 O 0.52130 1.10394 0.63363
 C1863 C 0.52885 1.08643 0.62589
 C1864 C 0.54704 1.07534 0.63698
 C1865 C 0.55609 1.08405 0.65602
 H1866 H 0.54925 1.09852 0.66326
 O1867 O 0.47862 0.92191 0.60809
 O1868 O 0.47860 0.89666 0.63345
 C1869 C 0.47113 0.91422 0.62569
 C1870 C 0.45301 0.92537 0.63678
 C1871 C 0.44404 0.91670 0.65588
 H1872 H 0.45091 0.90226 0.66317
 O1873 O 0.60764 1.02133 0.57841
 O1874 O 0.63291 1.02127 0.60370
 C1875 C 0.62520 1.02877 0.58610
 C1876 C 0.63629 1.04688 0.57491
 C1877 C 0.65535 1.05575 0.58359
 H1878 H 0.66257 1.04882 0.59806
 O1879 O 0.39197 0.97896 0.57820
 O1880 O 0.36678 0.97894 0.60357
 C1881 C 0.37448 0.97143 0.58598
 C1882 C 0.36343 0.95324 0.57489
 C1883 C 0.34439 0.94433 0.58364
 H1884 H 0.33715 0.95129 0.59807
 O1885 O 0.57813 1.10807 0.52099
 O1886 O 0.60337 1.13332 0.52101
 C1887 C 0.58583 1.12560 0.52850
 C1888 C 0.57471 1.13668 0.54668
 C1889 C 0.58340 1.15570 0.55565
 H1890 H 0.59783 1.16292 0.54874
 O1891 O 0.42165 0.89212 0.52100
 O1892 O 0.39646 0.86683 0.52113
 C1893 C 0.41399 0.87459 0.52858
 C1894 C 0.42511 0.86357 0.54679
 C1895 C 0.41645 0.84453 0.55579
 H1896 H 0.40206 0.83725 0.54886
 O1897 O 0.57798 0.97908 0.60819
 O1898 O 0.60321 0.97895 0.63351
 C1899 C 0.58566 0.97151 0.62576
 C1900 C 0.57453 0.95334 0.63681
 C1901 C 0.58321 0.94429 0.65586
 H1902 H 0.59765 0.95111 0.66313
 O1903 O 0.42162 1.02134 0.60779
 O1904 O 0.39646 1.02137 0.63320
 C1905 C 0.41399 1.02883 0.62541
 C1906 C 0.42519 1.04690 0.63653
 C1907 C 0.41652 1.05589 0.65561
 H1908 H 0.40204 1.04908 0.66283
 O1909 O 0.47880 1.10818 0.57860
 O1910 O 0.47876 1.13345 0.60389
 C1911 C 0.47124 1.12570 0.58634
 C1912 C 0.45299 1.13671 0.57526
 C1913 C 0.44402 1.15576 0.58397
 H1914 H 0.45096 1.16304 0.59839
 O1915 O 0.52096 0.89230 0.57838
 O1916 O 0.52096 0.86701 0.60370
 C1917 C 0.52846 0.87475 0.58612
 C1918 C 0.54662 0.86368 0.57500
 C1919 C 0.55553 0.84461 0.58371
 H1920 H 0.54860 0.83735 0.59816
 O1921 O 0.60775 0.92199 0.52119
 O1922 O 0.63298 0.89670 0.52123
 C1923 C 0.62527 0.91425 0.52873
 C1924 C 0.63632 0.92535 0.54693
 C1925 C 0.65539 0.91669 0.55585
 H1926 H 0.66265 0.90229 0.54889
 O1927 O 0.39182 1.07850 0.52136
 O1928 O 0.36655 1.10374 0.52125
 C1929 C 0.37424 1.08619 0.52879
 C1930 C 0.36313 1.07505 0.54693
 C1931 C 0.34407 1.08372 0.55588
 H1932 H 0.33684 1.09816 0.54896
 Cu1933 Cu 0.49977 0.90964 0.59068
 Cu1934 Cu 0.49977 0.87930 0.62110
 Cu1935 Cu 0.50010 1.09078 0.59076
 Cu1936 Cu 0.50002 1.12109 0.62115
 Cu1937 Cu 0.40924 0.90937 0.49980
 Cu1938 Cu 0.37897 0.87904 0.49995
 Cu1939 Cu 0.59046 0.90968 0.49997
 Cu1940 Cu 0.62071 0.87929 0.50002
 Cu1941 Cu 0.40931 1.09070 0.50022
 Cu1942 Cu 0.37900 1.12102 0.50006
 Cu1943 Cu 0.59046 1.09077 0.49979
 Cu1944 Cu 0.62078 1.12105 0.49980
 Cu1945 Cu 0.40923 1.00017 0.59052
 Cu1946 Cu 0.37901 1.00016 0.62100
 Cu1947 Cu 0.59035 1.00022 0.59084
 Cu1948 Cu 0.62066 1.00011 0.62121
 C1949 C 0.55600 0.94390 0.62752
 H1950 H 0.54940 0.95057 0.61266
 C1951 C 0.57371 0.92599 0.66528
 C1952 C 0.44379 1.05632 0.62731
 H1953 H 0.45040 1.04970 0.61243
 C1954 C 0.42609 1.07409 0.66511
 C1955 C 0.37238 1.05652 0.55645
 H1956 H 0.38725 1.04995 0.54985
 C1957 C 0.33461 1.07419 0.57418
 C1958 C 0.62703 0.94383 0.55652
 H1959 H 0.61215 0.95041 0.54995
 C1960 C 0.66485 0.92615 0.57416
 C1961 C 0.55619 0.87297 0.55647
 H1962 H 0.54962 0.88785 0.54984
 C1963 C 0.57381 0.83515 0.57425
 C1964 C 0.44343 1.12741 0.55675
 H1965 H 0.45004 1.11255 0.55014
 C1966 C 0.42570 1.16519 0.57451
 C1967 C 0.44352 0.94390 0.62746
 H1968 H 0.45013 0.95049 0.61256
 C1969 C 0.42578 0.92623 0.66532
 C1970 C 0.55647 1.05676 0.62772
 H1971 H 0.54981 1.05014 0.61288
 C1972 C 0.57435 1.07449 0.66549
 C1973 C 0.44356 0.87288 0.55635
 H1974 H 0.45013 0.88774 0.54971
 C1975 C 0.42588 0.83512 0.57415
 C1976 C 0.55619 1.12744 0.55621
 H1977 H 0.54960 1.11258 0.54960
 C1978 C 0.57393 1.16515 0.57397
 C1979 C 0.37267 0.94365 0.55636
 H1980 H 0.38752 0.95021 0.54971
 C1981 C 0.33494 0.92603 0.57420
 C1982 C 0.62706 1.05644 0.55634
 H1983 H 0.61219 1.04989 0.54973
 C1984 C 0.66484 1.07400 0.57407
 O1985 O 0.57823 0.52091 1.10814
 O1986 O 0.60342 0.52097 1.13350
 C1987 C 0.58591 0.52846 1.12570
 C1988 C 0.57481 0.54668 1.13671
 C1989 C 0.58351 0.55565 1.15576
 H1990 H 0.59791 0.54872 1.16305
 O1991 O 0.42159 0.47878 1.10828
 O1992 O 0.39635 0.47881 1.13360
 C1993 C 0.41386 0.47128 1.12587
 C1994 C 0.42491 0.45309 1.13701
 C1995 C 0.41612 0.44411 1.15604
 H1996 H 0.40166 0.45102 1.16322
 O1997 O 0.52107 0.60808 1.07829
 O1998 O 0.52114 0.63328 1.10366
 C1999 C 0.52858 0.62560 1.08604
 C2000 C 0.54670 0.63668 1.07488
 C2001 C 0.55564 0.65574 1.08356
 H2002 H 0.54873 0.66301 1.09800
 O2003 O 0.47886 0.39236 1.07862
 O2004 O 0.47881 0.36697 1.10384
 C2005 C 0.47138 0.37476 1.08625
 C2006 C 0.45332 0.36368 1.07499
 C2007 C 0.44441 0.34458 1.08362
 H2008 H 0.45127 0.33731 1.09811
 O2009 O 0.60787 0.57823 1.02137
 O2010 O 0.63310 0.60348 1.02136
 C2011 C 0.62539 0.58593 1.02889
 C2012 C 0.63647 0.57479 1.04710
 C2013 C 0.65551 0.58347 1.05607
 H2014 H 0.66273 0.59790 1.04914
 O2015 O 0.39214 0.42175 1.02108
 O2016 O 0.36695 0.39646 1.02118
 C2017 C 0.37464 0.41403 1.02865
 C2018 C 0.36357 0.42515 1.04685
 C2019 C 0.34451 0.41651 1.05581
 H2020 H 0.33726 0.40209 1.04888
 O2021 O 0.47881 0.57831 1.10798
 O2022 O 0.47887 0.60348 1.13338
 C2023 C 0.47135 0.58597 1.12560
 C2024 C 0.45320 0.57487 1.13671
 C2025 C 0.44428 0.58360 1.15577
 H2026 H 0.45119 0.59804 1.16299
 O2027 O 0.52113 0.42182 1.10855
 O2028 O 0.52109 0.39646 1.13381
 C2029 C 0.52863 0.41401 1.12610
 C2030 C 0.54687 0.42498 1.13718
 C2031 C 0.55584 0.41615 1.15620
 H2032 H 0.54887 0.40175 1.16346
 O2033 O 0.60800 0.47860 1.07855
 O2034 O 0.63324 0.47860 1.10387
 C2035 C 0.62554 0.47113 1.08627
 C2036 C 0.63665 0.45303 1.07508
 C2037 C 0.65571 0.44408 1.08374
 H2038 H 0.66295 0.45096 1.09820
 O2039 O 0.39197 0.52119 1.07856
 O2040 O 0.36670 0.52120 1.10385
 C2041 C 0.37443 0.52869 1.08627
 C2042 C 0.36336 0.54686 1.07511
 C2043 C 0.34429 0.55579 1.08377
 H2044 H 0.33702 0.54887 1.09821
 O2045 O 0.42158 0.60820 1.02150
 O2046 O 0.39632 0.63346 1.02145
 C2047 C 0.41386 0.62576 1.02898
 C2048 C 0.42499 0.63687 1.04716
 C2049 C 0.41634 0.65592 1.05618
 H2050 H 0.40191 0.66319 1.04931
 O2051 O 0.57826 0.39221 1.02132
 O2052 O 0.60344 0.36688 1.02137
 C2053 C 0.58592 0.37465 1.02887
 C2054 C 0.57478 0.36360 1.04709
 C2055 C 0.58340 0.34451 1.05606
 H2056 H 0.59779 0.33721 1.04914
 O2057 O 0.42171 0.52117 1.10815
 O2058 O 0.39647 0.52123 1.13348
 C2059 C 0.41401 0.52871 1.12573
 C2060 C 0.42514 0.54688 1.13678
 C2061 C 0.41648 0.55591 1.15586
 H2062 H 0.40205 0.54906 1.16315
 O2063 O 0.57850 0.47851 1.10841
 O2064 O 0.60370 0.47853 1.13377
 C2065 C 0.58619 0.47101 1.12602
 C2066 C 0.57507 0.45283 1.13713
 C2067 C 0.58378 0.44372 1.15616
 H2068 H 0.59826 0.45050 1.16338
 O2069 O 0.52115 0.39231 1.07874
 O2070 O 0.52112 0.36692 1.10396
 C2071 C 0.52863 0.37472 1.08640
 C2072 C 0.54676 0.36365 1.07522
 C2073 C 0.55565 0.34455 1.08390
 H2074 H 0.54874 0.33729 1.09836
 O2075 O 0.47875 0.60818 1.07846
 O2076 O 0.47881 0.63337 1.10383
 C2077 C 0.47128 0.62572 1.08625
 C2078 C 0.45311 0.63684 1.07517
 C2079 C 0.44419 0.65588 1.08392
 H2080 H 0.45114 0.66310 1.09836
 O2081 O 0.39210 0.57841 1.02144
 O2082 O 0.36681 0.60363 1.02136
 C2083 C 0.37453 0.58609 1.02889
 C2084 C 0.36343 0.57494 1.04704
 C2085 C 0.34436 0.58360 1.05595
 H2086 H 0.33713 0.59804 1.04901
 O2087 O 0.60802 0.42170 1.02127
 O2088 O 0.63323 0.39641 1.02127
 C2089 C 0.62555 0.41397 1.02877
 C2090 C 0.63665 0.42507 1.04693
 C2091 C 0.65572 0.41639 1.05584
 H2092 H 0.66298 0.40199 1.04888
 O2093 O 0.47875 0.42176 1.10858
 O2094 O 0.47867 0.39641 1.13383
 C2095 C 0.47118 0.41397 1.12612
 C2096 C 0.45294 0.42504 1.13715
 C2097 C 0.44385 0.41631 1.15619
 H2098 H 0.45070 0.40186 1.16348
 O2099 O 0.52116 0.57834 1.10797
 O2100 O 0.52122 0.60351 1.13336
 C2101 C 0.52870 0.58598 1.12556
 C2102 C 0.54687 0.57483 1.13663
 C2103 C 0.55586 0.58352 1.15569
 H2104 H 0.54903 0.59800 1.16292
 O2105 O 0.39214 0.47884 1.07842
 O2106 O 0.36687 0.47882 1.10370
 C2107 C 0.37461 0.47133 1.08612
 C2108 C 0.36356 0.45319 1.07495
 C2109 C 0.34450 0.44427 1.08363
 H2110 H 0.33725 0.45118 1.09808
 O2111 O 0.60801 0.52095 1.07862
 O2112 O 0.63324 0.52099 1.10393
 C2113 C 0.62552 0.52848 1.08634
 C2114 C 0.63654 0.54668 1.07518
 C2115 C 0.65557 0.55563 1.08387
 H2116 H 0.66284 0.54870 1.09831
 O2117 O 0.42192 0.39227 1.02103
 O2118 O 0.39676 0.36694 1.02112
 C2119 C 0.41428 0.37471 1.02859
 C2120 C 0.42542 0.36365 1.04678
 C2121 C 0.41680 0.34455 1.05569
 H2122 H 0.40243 0.33728 1.04871
 O2123 O 0.57827 0.60792 1.02124
 O2124 O 0.60346 0.63321 1.02122
 C2125 C 0.58593 0.62550 1.02872
 C2126 C 0.57477 0.63661 1.04684
 C2127 C 0.58343 0.65567 1.05578
 H2128 H 0.59787 0.66288 1.04887
 Cu2129 Cu 0.59066 0.49972 1.09090
 Cu2130 Cu 0.62092 0.49977 1.12131
 Cu2131 Cu 0.40938 0.50000 1.09082
 Cu2132 Cu 0.37907 0.50001 1.12120
 Cu2133 Cu 0.49994 0.59071 1.09063
 Cu2134 Cu 0.50002 0.62093 1.12111
 Cu2135 Cu 0.49997 0.40962 1.09112
 Cu2136 Cu 0.49992 0.37916 1.12140
 C2137 C 0.55633 0.55625 1.12738
 H2138 H 0.54971 0.54963 1.11251
 C2139 C 0.57410 0.57398 1.16518
 C2140 C 0.44347 0.44358 1.12783
 H2141 H 0.45015 0.45022 1.11298
 C2142 C 0.42552 0.42580 1.16557
 C2143 C 0.55624 0.62739 1.05635
 H2144 H 0.54966 0.61252 1.04976
 C2145 C 0.57393 0.66516 1.07406
 C2146 C 0.44385 0.37297 1.05640
 H2147 H 0.45040 0.38788 1.04984
 C2148 C 0.42622 0.33509 1.07403
 C2149 C 0.62725 0.55624 1.05664
 H2150 H 0.61239 0.54966 1.05005
 C2151 C 0.66499 0.57395 1.07437
 C2152 C 0.37284 0.44365 1.05641
 H2153 H 0.38771 0.45023 1.04981
 C2154 C 0.33505 0.42601 1.07412
 C2155 C 0.44366 0.55635 1.12747
 H2156 H 0.45025 0.54971 1.11259
 C2157 C 0.42600 0.57419 1.16528
 C2158 C 0.55646 0.44347 1.12790
 H2159 H 0.54985 0.45016 1.11305
 C2160 C 0.57421 0.42546 1.16564
 C2161 C 0.62738 0.44355 1.05652
 H2162 H 0.61251 0.45014 1.04995
 C2163 C 0.66518 0.42585 1.07417
 C2164 C 0.37267 0.55641 1.05659
 H2165 H 0.38755 0.54983 1.05002
 C2166 C 0.33485 0.57409 1.07424
 C2167 C 0.44355 0.62761 1.05662
 H2168 H 0.45014 0.61277 1.04997
 C2169 C 0.42589 0.66537 1.07448
 C2170 C 0.55630 0.37292 1.05666
 H2171 H 0.54974 0.38781 1.05005
 C2172 C 0.57389 0.33505 1.07438
 O2173 O 0.57826 0.47899 0.89201
 O2174 O 0.60344 0.47904 0.86663
 C2175 C 0.58594 0.47152 0.87440
 C2176 C 0.57485 0.45339 0.86329
 C2177 C 0.58359 0.44447 0.84423
 H2178 H 0.59801 0.45140 0.83699
 O2179 O 0.42177 0.52111 0.89189
 O2180 O 0.39657 0.52117 0.86654
 C2181 C 0.41408 0.52864 0.87431
 C2182 C 0.42516 0.54683 0.86323
 C2183 C 0.41644 0.55581 0.84417
 H2184 H 0.40204 0.54889 0.83691
 O2185 O 0.47871 0.60800 0.92168
 O2186 O 0.47868 0.63330 0.89637
 C2187 C 0.47122 0.62557 0.91397
 C2188 C 0.45311 0.63665 0.92514
 C2189 C 0.44415 0.65570 0.91643
 H2190 H 0.45101 0.66294 0.90194
 O2191 O 0.52128 0.39210 0.92159
 O2192 O 0.52136 0.36685 0.89627
 C2193 C 0.52881 0.37457 0.91387
 C2194 C 0.54695 0.36350 0.92502
 C2195 C 0.55591 0.34445 0.91633
 H2196 H 0.54903 0.33720 0.90187
 O2197 O 0.60795 0.42177 0.97882
 O2198 O 0.63317 0.39647 0.97880
 C2199 C 0.62547 0.41405 0.97130
 C2200 C 0.63654 0.42520 0.95310
 C2201 C 0.65558 0.41654 0.94410
 H2202 H 0.66283 0.40210 0.95099
 O2203 O 0.39217 0.57844 0.97897
 O2204 O 0.36688 0.60366 0.97887
 C2205 C 0.37465 0.58612 0.97139
 C2206 C 0.36366 0.57496 0.95316
 C2207 C 0.34463 0.58361 0.94414
 H2208 H 0.33735 0.59804 0.95100
 O2209 O 0.52097 0.57834 0.89195
 O2210 O 0.52096 0.60361 0.86660
 C2211 C 0.52845 0.58605 0.87436
 C2212 C 0.54659 0.57495 0.86327
 C2213 C 0.55553 0.58367 0.84419
 H2214 H 0.54862 0.59810 0.83692
 O2215 O 0.47894 0.42172 0.89186
 O2216 O 0.47900 0.39651 0.86651
 C2217 C 0.47147 0.41403 0.87426
 C2218 C 0.45330 0.42512 0.86318
 C2219 C 0.44434 0.41640 0.84413
 H2220 H 0.45125 0.40196 0.83689
 O2221 O 0.60791 0.52130 0.92164
 O2222 O 0.63312 0.52134 0.89629
 C2223 C 0.62543 0.52879 0.91390
 C2224 C 0.63652 0.54689 0.92506
 C2225 C 0.65557 0.55582 0.91638
 H2226 H 0.66280 0.54893 0.90190
 O2227 O 0.39202 0.47878 0.92152
 O2228 O 0.36679 0.47885 0.89620
 C2229 C 0.37447 0.47134 0.91379
 C2230 C 0.36337 0.45321 0.92494
 C2231 C 0.34433 0.44429 0.91627
 H2232 H 0.33707 0.45121 0.90181
 O2233 O 0.57829 0.60785 0.97880
 O2234 O 0.60348 0.63314 0.97875
 C2235 C 0.58596 0.62540 0.97124
 C2236 C 0.57481 0.63647 0.95303
 C2237 C 0.58344 0.65553 0.94403
 H2238 H 0.59787 0.66278 0.95090
 O2239 O 0.42170 0.39212 0.97857
 O2240 O 0.39655 0.36680 0.97864
 C2241 C 0.41404 0.37455 0.97109
 C2242 C 0.42519 0.36348 0.95291
 C2243 C 0.41653 0.34444 0.94390
 H2244 H 0.40208 0.33721 0.95076
 O2245 O 0.42177 0.47873 0.89191
 O2246 O 0.39657 0.47878 0.86657
 C2247 C 0.41409 0.47126 0.87431
 C2248 C 0.42521 0.45310 0.86320
 C2249 C 0.41652 0.44411 0.84414
 H2250 H 0.40207 0.45097 0.83689
 O2251 O 0.57822 0.52134 0.89201
 O2252 O 0.60340 0.52140 0.86663
 C2253 C 0.58587 0.52886 0.87441
 C2254 C 0.57470 0.54699 0.86331
 C2255 C 0.58337 0.55599 0.84422
 H2256 H 0.59783 0.54916 0.83699
 O2257 O 0.47896 0.39206 0.92156
 O2258 O 0.47902 0.36680 0.89624
 C2259 C 0.47150 0.37451 0.91382
 C2260 C 0.45333 0.36344 0.92492
 C2261 C 0.44441 0.34440 0.91619
 H2262 H 0.45137 0.33714 0.90177
 O2263 O 0.52102 0.60794 0.92166
 O2264 O 0.52101 0.63324 0.89635
 C2265 C 0.52852 0.62548 0.91392
 C2266 C 0.54670 0.63652 0.92503
 C2267 C 0.55559 0.65558 0.91631
 H2268 H 0.54864 0.66286 0.90188
 O2269 O 0.39206 0.42175 0.97864
 O2270 O 0.36687 0.39646 0.97871
 C2271 C 0.37453 0.41403 0.97118
 C2272 C 0.36341 0.42516 0.95303
 C2273 C 0.34437 0.41649 0.94410
 H2274 H 0.33715 0.40205 0.95104
 O2275 O 0.60796 0.57825 0.97890
 O2276 O 0.63319 0.60350 0.97887
 C2277 C 0.62549 0.58596 0.97139
 C2278 C 0.63656 0.57484 0.95321
 C2279 C 0.65561 0.58351 0.94426
 H2280 H 0.66287 0.59790 0.95121
 O2281 O 0.52125 0.42179 0.89189
 O2282 O 0.52135 0.39658 0.86654
 C2283 C 0.52879 0.41412 0.87430
 C2284 C 0.54691 0.42530 0.86324
 C2285 C 0.55594 0.41664 0.84417
 H2286 H 0.54912 0.40220 0.83689
 O2287 O 0.47867 0.57838 0.89196
 O2288 O 0.47864 0.60365 0.86661
 C2289 C 0.47117 0.58610 0.87436
 C2290 C 0.45306 0.57496 0.86326
 C2291 C 0.44407 0.58367 0.84420
 H2292 H 0.45089 0.59815 0.83695
 O2293 O 0.39227 0.52113 0.92170
 O2294 O 0.36704 0.52122 0.89638
 C2295 C 0.37477 0.52868 0.91398
 C2296 C 0.36372 0.54686 0.92511
 C2297 C 0.34468 0.55578 0.91639
 H2298 H 0.33745 0.54883 0.90195
 O2299 O 0.60790 0.47896 0.92165
 O2300 O 0.63312 0.47898 0.89631
 C2301 C 0.62543 0.47147 0.91391
 C2302 C 0.63651 0.45331 0.92504
 C2303 C 0.65554 0.44439 0.91631
 H2304 H 0.66277 0.45133 0.90185
 O2305 O 0.57835 0.39213 0.97883
 O2306 O 0.60354 0.36679 0.97886
 C2307 C 0.58603 0.37456 0.97133
 C2308 C 0.57494 0.36350 0.95313
 C2309 C 0.58364 0.34445 0.94417
 H2310 H 0.59806 0.33721 0.95109
 O2311 O 0.42177 0.60807 0.97904
 O2312 O 0.39651 0.63333 0.97896
 C2313 C 0.41406 0.62561 0.97149
 C2314 C 0.42516 0.63667 0.95329
 C2315 C 0.41647 0.65572 0.94432
 H2316 H 0.40207 0.66298 0.95126
 Cu2317 Cu 0.59055 0.50015 0.90937
 Cu2318 Cu 0.62080 0.50019 0.87891
 Cu2319 Cu 0.40949 0.49991 0.90929
 Cu2320 Cu 0.37921 0.50002 0.87888
 Cu2321 Cu 0.59057 0.59053 1.00008
 Cu2322 Cu 0.62084 0.62087 1.00005
 Cu2323 Cu 0.59062 0.40948 1.00006
 Cu2324 Cu 0.62087 0.37909 1.00008
 Cu2325 Cu 0.40944 0.59076 1.00026
 Cu2326 Cu 0.37909 0.62105 1.00015
 Cu2327 Cu 0.40948 0.40951 0.99981
 Cu2328 Cu 0.37926 0.37912 0.99993
 Cu2329 Cu 0.49983 0.59063 0.90935
 Cu2330 Cu 0.49982 0.62099 0.87894
 Cu2331 Cu 0.50011 0.40944 0.90926
 Cu2332 Cu 0.50020 0.37915 0.87885
 C2333 C 0.55635 0.44384 0.87254
 H2334 H 0.54971 0.45042 0.88742
 C2335 C 0.57419 0.42619 0.83474
 C2336 C 0.44364 0.55637 0.87252
 H2337 H 0.45026 0.54975 0.88740
 C2338 C 0.42584 0.57414 0.83473
 C2339 C 0.44364 0.62739 0.94373
 H2340 H 0.45024 0.61252 0.95035
 C2341 C 0.42591 0.66516 0.92597
 C2342 C 0.55644 0.37276 0.94358
 H2343 H 0.54984 0.38763 0.95019
 C2344 C 0.57418 0.33500 0.92585
 C2345 C 0.62727 0.44375 0.94360
 H2346 H 0.61243 0.45034 0.95023
 C2347 C 0.66501 0.42609 0.92579
 C2348 C 0.37296 0.55643 0.94366
 H2349 H 0.38782 0.54986 0.95028
 C2350 C 0.33522 0.57407 0.92583
 C2351 C 0.55615 0.55644 0.87257
 H2352 H 0.54955 0.54980 0.88745
 C2353 C 0.57383 0.57424 0.83474
 C2354 C 0.44377 0.44364 0.87246
 H2355 H 0.45038 0.45027 0.88732
 C2356 C 0.42604 0.42583 0.83468
 C2357 C 0.62728 0.55638 0.94364
 H2358 H 0.61240 0.54981 0.95023
 C2359 C 0.66504 0.57405 0.92593
 C2360 C 0.37264 0.44368 0.94349
 H2361 H 0.38750 0.45026 0.95008
 C2362 C 0.33489 0.42600 0.92579
 C2363 C 0.55628 0.62722 0.94355
 H2364 H 0.54971 0.61235 0.95019
 C2365 C 0.57388 0.66503 0.92575
 C2366 C 0.44374 0.37271 0.94344
 H2367 H 0.45032 0.38756 0.95007
 C2368 C 0.42610 0.33497 0.92563
 C2369 C 1.10210 1.10143 1.21841
 C2370 C 1.12078 1.09238 1.22749
 C2371 C 1.13032 1.10187 1.24575
 C2372 C 1.12127 1.12058 1.25520
 C2373 C 1.10256 1.12962 1.24574
 C2374 C 1.09307 1.12010 1.22751
 C2375 C 1.09218 1.09157 1.19977
 C2376 C 1.08389 1.08337 1.18410
 H2377 H 1.12793 1.07795 1.22050
 H2378 H 1.14471 1.09444 1.25239
 H2379 H 1.09510 1.14401 1.25235
 H2380 H 1.07864 1.12727 1.22054
 C2381 C 1.10237 0.60158 0.71843
 C2382 C 1.12086 0.59239 0.72774
 C2383 C 1.13027 0.60180 0.74612
 C2384 C 1.12128 0.62059 0.75547
 C2385 C 1.10276 0.62978 0.74578
 C2386 C 1.09341 0.62034 0.72743
 C2387 C 1.09248 0.59174 0.69973
 C2388 C 1.08416 0.58355 0.68405
 H2389 H 1.12798 0.57790 0.72084
 H2390 H 1.14452 0.59424 0.75293
 H2391 H 1.09535 0.64424 0.75231
 H2392 H 1.07913 0.62765 0.72029
 C2393 C 0.60233 1.10196 0.71896
 C2394 C 0.59330 1.12056 0.72816
 C2395 C 0.60269 1.12997 0.74652
 C2396 C 0.62140 1.12092 0.75612
 C2397 C 0.63041 1.10220 0.74649
 C2398 C 0.62094 1.09285 0.72811
 C2399 C 0.59242 1.09220 0.70018
 C2400 C 0.58411 1.08410 0.68443
 H2401 H 0.57892 1.12781 0.72117
 H2402 H 0.59508 1.14432 0.75305
 H2403 H 0.64475 1.09458 0.75303
 H2404 H 0.62812 1.07846 0.72106
 C2405 C 0.60203 0.60168 1.21845
 C2406 C 0.62070 0.59264 1.22757
 C2407 C 0.63020 0.60212 1.24586
 C2408 C 0.62113 0.62082 1.25532
 C2409 C 0.60243 0.62985 1.24583
 C2410 C 0.59298 0.62034 1.22756
 C2411 C 0.59213 0.59182 1.19976
 C2412 C 0.58384 0.58364 1.18407
 H2413 H 0.62788 0.57822 1.22059
 H2414 H 0.64458 0.59468 1.25252
 H2415 H 0.59495 0.64423 1.25245
 H2416 H 0.57856 0.62751 1.22057
 C2417 C 0.89790 0.89824 1.21901
 C2418 C 0.90693 0.87962 1.22820
 C2419 C 0.89754 0.87018 1.24656
 C2420 C 0.87884 0.87923 1.25616
 C2421 C 0.86982 0.89795 1.24654
 C2422 C 0.87929 0.90733 1.22816
 C2423 C 0.90779 0.90802 1.20023
 C2424 C 0.91609 0.91615 1.18448
 H2425 H 0.92131 0.87238 1.22119
 H2426 H 0.90516 0.85583 1.25309
 H2427 H 0.85548 0.90557 1.25308
 H2428 H 0.87210 0.92172 1.22110
 C2429 C 0.89769 0.39809 0.71885
 C2430 C 0.87918 0.40732 0.72809
 C2431 C 0.86966 0.39793 0.74644
 C2432 C 0.87852 0.37907 0.75594
 C2433 C 0.89711 0.36989 0.74624
 C2434 C 0.90655 0.37933 0.72792
 C2435 C 0.90763 0.40787 0.70010
 C2436 C 0.91597 0.41598 0.68436
 H2437 H 0.87213 0.42183 0.72113
 H2438 H 0.85541 0.40565 0.75305
 H2439 H 0.90460 0.35543 0.75268
 H2440 H 0.92085 0.37200 0.72085
 C2441 C 0.39779 0.89858 0.71858
 C2442 C 0.37915 0.90768 0.72767
 C2443 C 0.36965 0.89827 0.74601
 C2444 C 0.37870 0.87958 0.75553
 C2445 C 0.39737 0.87049 0.74606
 C2446 C 0.40682 0.87993 0.72774
 C2447 C 0.40773 0.90840 0.69989
 C2448 C 0.41604 0.91658 0.68420
 H2449 H 0.37199 0.92209 0.72062
 H2450 H 0.35528 0.90575 0.75266
 H2451 H 0.40484 0.85611 0.75273
 H2452 H 0.42121 0.87270 0.72077
 C2453 C 0.39738 0.39827 1.21894
 C2454 C 0.37889 0.40752 1.22819
 C2455 C 0.36941 0.39819 1.24659
 C2456 C 0.37829 0.37935 1.25612
 C2457 C 0.39685 0.37014 1.24640
 C2458 C 0.40625 0.37953 1.22802
 C2459 C 0.40733 0.40804 1.20018
 C2460 C 0.41569 0.41617 1.18447
 H2461 H 0.37183 0.42201 1.22122
 H2462 H 0.35517 0.40592 1.25322
 H2463 H 0.40435 0.35568 1.25284
 H2464 H 0.42052 0.37217 1.22094
 C2465 C 0.89775 1.10162 0.78150
 C2466 C 0.87910 1.09253 0.77244
 C2467 C 0.86957 1.10193 0.75410
 C2468 C 0.87861 1.12059 0.74454
 C2469 C 0.89727 1.12969 0.75400
 C2470 C 0.90674 1.12026 0.77231
 C2471 C 0.90773 1.09183 0.80019
 C2472 C 0.91610 1.08370 0.81589
 H2473 H 0.87196 1.07812 0.77951
 H2474 H 0.85520 1.09446 0.74748
 H2475 H 0.90472 1.14406 0.74732
 H2476 H 0.92114 1.12749 0.77925
 C2477 C 0.89814 0.60152 0.28151
 C2478 C 0.90719 0.62014 0.27234
 C2479 C 0.89781 0.62957 0.25398
 C2480 C 0.87916 0.62050 0.24448
 C2481 C 0.87009 0.60182 0.25400
 C2482 C 0.87953 0.59243 0.27237
 C2483 C 0.90803 0.59169 0.30023
 C2484 C 0.91633 0.58349 0.31592
 H2485 H 0.92157 0.62736 0.27935
 H2486 H 0.90530 0.64392 0.24730
 H2487 H 0.85576 0.59435 0.24731
 H2488 H 0.87233 0.57804 0.27942
 C2489 C 0.39795 1.10174 0.28159
 C2490 C 0.37935 1.09262 0.27246
 C2491 C 0.36992 1.10197 0.25405
 C2492 C 0.37900 1.12064 0.24451
 C2493 C 0.39764 1.12972 0.25401
 C2494 C 0.40701 1.12034 0.27239
 C2495 C 0.40782 1.09193 0.30032
 C2496 C 0.41610 1.08374 0.31603
 H2497 H 0.37217 1.07824 0.27954
 H2498 H 0.35559 1.09448 0.24738
 H2499 H 0.40513 1.14407 0.24731
 H2500 H 0.42138 1.12758 0.27939
 C2501 C 0.39782 0.60178 0.78146
 C2502 C 0.37920 0.59267 0.77236
 C2503 C 0.36969 0.60206 0.75401
 C2504 C 0.37870 0.62075 0.74448
 C2505 C 0.39736 0.62985 0.75394
 C2506 C 0.40682 0.62042 0.77227
 C2507 C 0.40776 0.59198 0.80016
 C2508 C 0.41608 0.58381 0.81585
 H2509 H 0.37205 0.57826 0.77942
 H2510 H 0.35535 0.59457 0.74736
 H2511 H 0.40481 0.64422 0.74726
 H2512 H 0.42120 0.62767 0.77924
 C2513 C 1.10196 0.89848 0.78147
 C2514 C 1.12058 0.90754 0.77229
 C2515 C 1.12999 0.89813 0.75392
 C2516 C 1.12089 0.87947 0.74445
 C2517 C 1.10224 0.87042 0.75399
 C2518 C 1.09288 0.87986 0.77234
 C2519 C 1.09211 0.90831 0.80019
 C2520 C 1.08383 0.91650 0.81589
 H2521 H 1.12779 0.92192 0.77930
 H2522 H 1.14433 0.90559 0.74721
 H2523 H 1.09473 0.85607 0.74735
 H2524 H 1.07850 0.87266 0.77938
 C2525 C 1.10218 0.39825 0.28148
 C2526 C 1.12094 0.40718 0.27246
 C2527 C 1.13038 0.39776 0.25411
 C2528 C 1.12116 0.37924 0.24450
 C2529 C 1.10237 0.37031 0.25388
 C2530 C 1.09298 0.37976 0.27222
 C2531 C 1.09231 0.40808 0.30019
 C2532 C 1.08401 0.41625 0.31589
 H2533 H 1.12824 0.42146 0.27957
 H2534 H 1.14483 0.40511 0.24752
 H2535 H 1.09477 0.35606 0.24714
 H2536 H 1.07850 0.37267 0.27914
 C2537 C 0.60188 0.89851 0.28153
 C2538 C 0.62065 0.90745 0.27253
 C2539 C 0.63013 0.89803 0.25419
 C2540 C 0.62093 0.87949 0.24456
 C2541 C 0.60213 0.87057 0.25392
 C2542 C 0.59270 0.88002 0.27224
 C2543 C 0.59198 0.90833 0.30024
 C2544 C 0.58366 0.91648 0.31594
 H2545 H 0.62794 0.92173 0.27966
 H2546 H 0.64460 0.90538 0.24763
 H2547 H 0.59454 0.85632 0.24717
 H2548 H 0.57821 0.87293 0.27913
 C2549 C 0.60211 0.39855 0.78144
 C2550 C 0.59291 0.38005 0.77220
 C2551 C 0.60235 0.37052 0.75393
 C2552 C 0.62119 0.37938 0.74458
 C2553 C 0.63038 0.39795 0.75414
 C2554 C 0.62089 0.40744 0.77243
 C2555 C 0.59224 0.40841 0.80014
 C2556 C 0.58395 0.41658 0.81584
 H2557 H 0.57840 0.37299 0.77910
 H2558 H 0.59475 0.35626 0.74721
 H2559 H 0.64486 0.40526 0.74757
 H2560 H 0.62819 0.42174 0.77952
 C2561 C 1.21831 1.10170 1.10191
 C2562 C 1.22742 1.12030 1.09275
 C2563 C 1.24577 1.12971 1.10207
 C2564 C 1.25534 1.12065 1.12076
 C2565 C 1.24589 1.10198 1.12994
 C2566 C 1.22752 1.09261 1.12056
 C2567 C 1.19957 1.09189 1.09212
 C2568 C 1.18385 1.08372 1.08391
 H2569 H 1.22038 1.12753 1.07835
 H2570 H 1.25239 1.14406 1.09450
 H2571 H 1.25261 1.09450 1.14431
 H2572 H 1.22053 1.07823 1.12783
 C2573 C 1.21813 0.60161 0.60187
 C2574 C 1.22734 0.59257 0.62053
 C2575 C 1.24563 0.60203 0.62993
 C2576 C 1.25502 0.62072 0.62077
 C2577 C 1.24545 0.62975 0.60206
 C2578 C 1.22717 0.62026 0.59271
 C2579 C 1.19946 0.59172 0.59205
 C2580 C 1.18380 0.58350 0.58383
 H2581 H 1.22040 0.57816 0.62780
 H2582 H 1.25236 0.59458 0.64432
 H2583 H 1.25202 0.64412 0.59450
 H2584 H 1.22011 0.62744 0.57829
 C2585 C 0.71803 1.10163 0.60191
 C2586 C 0.72719 1.09258 0.62060
 C2587 C 0.74549 1.10203 0.63002
 C2588 C 0.75491 1.12070 0.62085
 C2589 C 0.74535 1.12976 0.60215
 C2590 C 0.72707 1.12028 0.59278
 C2591 C 0.69937 1.09178 0.59206
 C2592 C 0.68370 1.08360 0.58380
 H2593 H 0.72024 1.07818 0.62785
 H2594 H 0.75218 1.09459 0.64443
 H2595 H 0.75193 1.14413 0.59460
 H2596 H 0.72004 1.12747 0.57835
 C2597 C 0.71837 0.60159 1.10200
 C2598 C 0.72744 0.62022 1.09282
 C2599 C 0.74579 0.62966 1.10212
 C2600 C 0.75539 0.62061 1.12080
 C2601 C 0.74598 0.60193 1.12998
 C2602 C 0.72762 0.59252 1.12064
 C2603 C 0.69962 0.59176 1.09223
 C2604 C 0.68389 0.58358 1.08404
 H2605 H 0.72036 0.62743 1.07843
 H2606 H 0.75238 0.64401 1.09454
 H2607 H 0.75274 0.59446 1.14434
 H2608 H 0.72067 0.57814 1.12793
 C2609 C 1.21804 0.89859 0.89816
 C2610 C 1.22712 0.87994 0.90728
 C2611 C 1.24542 0.87048 0.89791
 C2612 C 1.25496 0.87954 0.87922
 C2613 C 1.24554 0.89823 0.87007
 C2614 C 1.22722 0.90766 0.87949
 C2615 C 1.19936 0.90844 0.90800
 C2616 C 1.18368 0.91662 0.91626
 H2617 H 1.22008 0.87273 0.92170
 H2618 H 1.25201 0.85610 0.90545
 H2619 H 1.25224 0.90570 0.85568
 H2620 H 1.22025 0.92207 0.87225
 C2621 C 1.21857 0.39817 0.39766
 C2622 C 1.22760 0.37942 0.40660
 C2623 C 1.24596 0.37003 0.39724
 C2624 C 1.25573 0.37925 0.37865
 C2625 C 1.24625 0.39809 0.36970
 C2626 C 1.22787 0.40742 0.37915
 C2627 C 1.19980 0.40792 0.40755
 C2628 C 1.18406 0.41602 0.41585
 H2629 H 1.22047 0.37206 0.42089
 H2630 H 1.25235 0.35557 0.40478
 H2631 H 1.25291 0.40582 0.35544
 H2632 H 1.22095 0.42190 0.37202
 C2633 C 0.71839 0.89848 0.39796
 C2634 C 0.72752 0.87985 0.40709
 C2635 C 0.74588 0.87045 0.39774
 C2636 C 0.75544 0.87954 0.37905
 C2637 C 0.74597 0.89822 0.36992
 C2638 C 0.72760 0.90759 0.37932
 C2639 C 0.69963 0.90826 0.40778
 C2640 C 0.68389 0.91641 0.41600
 H2641 H 0.72048 0.87260 0.42148
 H2642 H 0.75251 0.85609 0.40528
 H2643 H 0.75269 0.90572 0.35556
 H2644 H 0.72060 0.92198 0.37207
 C2645 C 0.71826 0.39853 0.89787
 C2646 C 0.72724 0.37976 0.90684
 C2647 C 0.74553 0.37030 0.89743
 C2648 C 0.75517 0.37950 0.87884
 C2649 C 0.74584 0.39831 0.86985
 C2650 C 0.72754 0.40774 0.87931
 C2651 C 0.69957 0.40834 0.90775
 C2652 C 0.68388 0.41649 0.91604
 H2653 H 0.72014 0.37246 0.92118
 H2654 H 0.75204 0.35583 0.90486
 H2655 H 0.75263 0.40589 0.85556
 H2656 H 0.72066 0.42225 0.87219
 C2657 C 0.78165 0.89851 1.10203
 C2658 C 0.77256 0.90742 1.12081
 C2659 C 0.75423 0.89798 1.13020
 C2660 C 0.74470 0.87945 1.12091
 C2661 C 0.75414 0.87055 1.10209
 C2662 C 0.77245 0.88002 1.09275
 C2663 C 0.80037 0.90833 1.09223
 C2664 C 0.81609 0.91649 1.08400
 H2665 H 0.77961 0.92171 1.12818
 H2666 H 0.74761 0.90532 1.14468
 H2667 H 0.74745 0.85630 1.09444
 H2668 H 0.77941 0.87294 1.07824
 C2669 C 0.78171 0.39837 0.60187
 C2670 C 0.77265 0.40727 0.62067
 C2671 C 0.75437 0.39779 0.63012
 C2672 C 0.74486 0.37921 0.62087
 C2673 C 0.75425 0.37035 0.60201
 C2674 C 0.77252 0.37987 0.59261
 C2675 C 0.80043 0.40820 0.59206
 C2676 C 0.81616 0.41633 0.58383
 H2677 H 0.77969 0.42157 0.62802
 H2678 H 0.74776 0.40512 0.64461
 H2679 H 0.74757 0.35609 0.59437
 H2680 H 0.77945 0.37280 0.57809
 C2681 C 0.28159 0.89848 0.60196
 C2682 C 0.27235 0.90754 0.62060
 C2683 C 0.25399 0.89812 0.62996
 C2684 C 0.24458 0.87946 0.62079
 C2685 C 0.25417 0.87042 0.60212
 C2686 C 0.27251 0.87987 0.59281
 C2687 C 0.30033 0.90829 0.59217
 C2688 C 0.31605 0.91644 0.58393
 H2689 H 0.27930 0.92192 0.62787
 H2690 H 0.24723 0.90559 0.64432
 H2691 H 0.24758 0.85608 0.59455
 H2692 H 0.27959 0.87267 0.57841
 C2693 C 0.28174 0.39835 1.10184
 C2694 C 0.27255 0.37986 1.09256
 C2695 C 0.25425 0.37037 1.10190
 C2696 C 0.24481 0.37926 1.12073
 C2697 C 0.25434 0.39779 1.13002
 C2698 C 0.27266 0.40724 1.12063
 C2699 C 0.30046 0.40820 1.09204
 C2700 C 0.31616 0.41637 1.08381
 H2701 H 0.27951 0.37278 1.07805
 H2702 H 0.24756 0.35611 1.09425
 H2703 H 0.24771 0.40512 1.14451
 H2704 H 0.27970 0.42153 1.12801
 C2705 C 0.78181 1.10171 0.89797
 C2706 C 0.77264 1.09259 0.87934
 C2707 C 0.75428 1.10194 0.86992
 C2708 C 0.74479 1.12060 0.87903
 C2709 C 0.75431 1.12971 0.89770
 C2710 C 0.77266 1.12033 0.90707
 C2711 C 0.80054 1.09194 0.90783
 C2712 C 0.81625 1.08379 0.91608
 H2713 H 0.77966 1.07820 0.87213
 H2714 H 0.74758 1.09443 0.85557
 H2715 H 0.74767 1.14406 0.90522
 H2716 H 0.77968 1.12757 0.92146
 C2717 C 0.78180 0.60151 0.39793
 C2718 C 0.77258 0.59251 0.37926
 C2719 C 0.75430 0.60203 0.36983
 C2720 C 0.74492 0.62073 0.37898
 C2721 C 0.75448 0.62971 0.39769
 C2722 C 0.77275 0.62016 0.40707
 C2723 C 0.80052 0.59162 0.40773
 C2724 C 0.81625 0.58342 0.41594
 H2725 H 0.77950 0.57810 0.37200
 H2726 H 0.74758 0.59463 0.35544
 H2727 H 0.74792 0.64409 0.40524
 H2728 H 0.77980 0.62731 0.42149
 C2729 C 0.28179 1.10140 0.39801
 C2730 C 0.27266 1.09235 0.37933
 C2731 C 0.25440 1.10183 0.36981
 C2732 C 0.24498 1.12055 0.37889
 C2733 C 0.25447 1.12958 0.39761
 C2734 C 0.27270 1.12007 0.40708
 C2735 C 0.30048 1.09157 0.40791
 C2736 C 0.31619 1.08343 0.41618
 H2737 H 0.27962 1.07792 0.37214
 H2738 H 0.24773 1.09439 0.35541
 H2739 H 0.24788 1.14397 0.40510
 H2740 H 0.27968 1.12726 0.42151
 C2741 C 0.28197 0.60172 0.89798
 C2742 C 0.27263 0.59252 0.87947
 C2743 C 0.25426 0.60192 0.87010
 C2744 C 0.24495 0.62071 0.87914
 C2745 C 0.25466 0.62991 0.89766
 C2746 C 0.27301 0.62047 0.90698
 C2747 C 0.30067 0.59187 0.90781
 C2748 C 0.31635 0.58369 0.91608
 H2749 H 0.27950 0.57803 0.87232
 H2750 H 0.24743 0.59436 0.85585
 H2751 H 0.24816 0.64436 0.90511
 H2752 H 0.28017 0.62777 0.92127
 C2753 C 1.10189 1.21825 1.10167
 C2754 C 1.09286 1.22745 1.12033
 C2755 C 1.10231 1.24574 1.12973
 C2756 C 1.12098 1.25514 1.12059
 C2757 C 1.13001 1.24561 1.10188
 C2758 C 1.12052 1.22731 1.09252
 C2759 C 1.09200 1.19958 1.09188
 C2760 C 1.08375 1.18390 1.08370
 H2761 H 1.07847 1.22051 1.12760
 H2762 H 1.09484 1.25245 1.14411
 H2763 H 1.14435 1.25223 1.09434
 H2764 H 1.12769 1.22027 1.07810
 C2765 C 1.10181 0.71825 0.60169
 C2766 C 1.09277 0.72743 0.62036
 C2767 C 1.10222 0.74571 0.62979
 C2768 C 1.12090 0.75512 0.62067
 C2769 C 1.12995 0.74560 0.60197
 C2770 C 1.12045 0.72731 0.59257
 C2771 C 1.09193 0.69956 0.59187
 C2772 C 1.08370 0.68386 0.58368
 H2773 H 1.07837 0.72050 0.62760
 H2774 H 1.09476 0.75240 0.64418
 H2775 H 1.14431 0.75220 0.59446
 H2776 H 1.12764 0.72028 0.57815
 C2777 C 0.60174 1.21832 0.60168
 C2778 C 0.59270 1.22752 0.62033
 C2779 C 0.60212 1.24583 0.62973
 C2780 C 0.62078 1.25524 0.62058
 C2781 C 0.62984 1.24569 0.60190
 C2782 C 0.62038 1.22738 0.59254
 C2783 C 0.59186 1.19966 0.59187
 C2784 C 0.58362 1.18399 0.58365
 H2785 H 0.57830 1.22058 0.62759
 H2786 H 0.59465 1.25254 0.64410
 H2787 H 0.64420 1.25229 0.59437
 H2788 H 0.62756 1.22033 0.57814
 C2789 C 0.60177 0.71842 1.10169
 C2790 C 0.62041 0.72748 1.09256
 C2791 C 0.62990 0.74578 1.10194
 C2792 C 0.62085 0.75532 1.12063
 C2793 C 0.60217 0.74592 1.12976
 C2794 C 0.59273 0.72762 1.12034
 C2795 C 0.59187 0.69973 1.09189
 C2796 C 0.58361 0.68404 1.08372
 H2797 H 0.62760 0.72042 1.07816
 H2798 H 0.64426 0.75238 1.09442
 H2799 H 0.59471 0.75262 1.14413
 H2800 H 0.57834 0.72069 1.12760
 C2801 C 0.89814 1.21847 0.89819
 C2802 C 0.87950 1.22756 0.90730
 C2803 C 0.87002 1.24587 0.89789
 C2804 C 0.87908 1.25540 0.87919
 C2805 C 0.89775 1.24596 0.87007
 C2806 C 0.90718 1.22765 0.87951
 C2807 C 0.90802 1.19978 0.90803
 C2808 C 0.91627 1.18408 0.91625
 H2809 H 0.87231 1.22052 0.92172
 H2810 H 0.85566 1.25249 0.90540
 H2811 H 0.90521 1.25265 0.85568
 H2812 H 0.92157 1.22070 0.87227
 C2813 C 0.89842 0.71830 0.39815
 C2814 C 0.90744 0.72751 0.37948
 C2815 C 0.89797 0.74581 0.37004
 C2816 C 0.87928 0.75522 0.37915
 C2817 C 0.87025 0.74566 0.39786
 C2818 C 0.87976 0.72736 0.40727
 C2819 C 0.90832 0.69959 0.40797
 C2820 C 0.91657 0.68387 0.41615
 H2821 H 0.92184 0.72059 0.37223
 H2822 H 0.90542 0.75251 0.35564
 H2823 H 0.85587 0.75225 0.40537
 H2824 H 0.87258 0.72031 0.42169
 C2825 C 0.39794 1.21849 0.39819
 C2826 C 0.40696 1.22771 0.37952
 C2827 C 0.39748 1.24601 0.37008
 C2828 C 0.37879 1.25541 0.37919
 C2829 C 0.36977 1.24586 0.39791
 C2830 C 0.37929 1.22755 0.40731
 C2831 C 0.40784 1.19977 0.40800
 C2832 C 0.41610 1.18406 0.41619
 H2833 H 0.42137 1.22079 0.37227
 H2834 H 0.40494 1.25272 0.35570
 H2835 H 0.35541 1.25246 0.40544
 H2836 H 0.37213 1.22050 0.42174
 C2837 C 0.39805 0.71844 0.89831
 C2838 C 0.37942 0.72748 0.90747
 C2839 C 0.36990 0.74580 0.89812
 C2840 C 0.37891 0.75537 0.87941
 C2841 C 0.39760 0.74599 0.87026
 C2842 C 0.40707 0.72768 0.87965
 C2843 C 0.40796 0.69974 0.90810
 C2844 C 0.41622 0.68404 0.91629
 H2845 H 0.37226 0.72041 0.92189
 H2846 H 0.35555 0.75240 0.90567
 H2847 H 0.40504 0.75273 0.85588
 H2848 H 0.42146 0.72076 0.87237
 C2849 C 1.10197 0.78191 0.89827
 C2850 C 1.12061 0.77284 0.90739
 C2851 C 1.13011 0.75454 0.89800
 C2852 C 1.12108 0.74502 0.87929
 C2853 C 1.10239 0.75443 0.87019
 C2854 C 1.09293 0.77272 0.87962
 C2855 C 1.09208 0.80060 0.90808
 C2856 C 1.08384 0.81629 0.91628
 H2857 H 1.12779 0.77987 0.92181
 H2858 H 1.14447 0.74793 0.90552
 H2859 H 1.09492 0.74774 0.85582
 H2860 H 1.07852 0.77967 0.87238
 C2861 C 1.10188 0.28154 0.39817
 C2862 C 1.09283 0.27235 0.37952
 C2863 C 1.10223 0.25401 0.37013
 C2864 C 1.12088 0.24455 0.37927
 C2865 C 1.12996 0.25410 0.39794
 C2866 C 1.12051 0.27244 0.40729
 C2867 C 1.09201 0.30023 0.40799
 C2868 C 1.08375 0.31592 0.41619
 H2869 H 1.07846 0.27934 0.37225
 H2870 H 1.09476 0.24733 0.35575
 H2871 H 1.14432 0.24747 0.40545
 H2872 H 1.12773 0.27949 0.42167
 C2873 C 0.60173 0.78184 0.39831
 C2874 C 0.59269 0.77264 0.37967
 C2875 C 0.60211 0.75430 0.37028
 C2876 C 0.62078 0.74486 0.37941
 C2877 C 0.62983 0.75441 0.39809
 C2878 C 0.62037 0.77275 0.40744
 C2879 C 0.59185 0.80056 0.40811
 C2880 C 0.58359 0.81626 0.41628
 H2881 H 0.57831 0.77960 0.37240
 H2882 H 0.59465 0.74760 0.35591
 H2883 H 0.64419 0.74779 0.40562
 H2884 H 0.62757 0.77981 0.42183
 C2885 C 0.60195 0.28170 0.89813
 C2886 C 0.59290 0.27253 0.87947
 C2887 C 0.60234 0.25424 0.87001
 C2888 C 0.62103 0.24480 0.87909
 C2889 C 0.63009 0.25431 0.89779
 C2890 C 0.62061 0.27261 0.90721
 C2891 C 0.59209 0.30040 0.90797
 C2892 C 0.58386 0.31610 0.91617
 H2893 H 0.57849 0.27949 0.87224
 H2894 H 0.59487 0.24757 0.85563
 H2895 H 0.64447 0.24769 0.90528
 H2896 H 0.62781 0.27963 0.92162
 C2897 C 0.89831 0.78178 1.10176
 C2898 C 0.87967 0.77276 1.09263
 C2899 C 0.87015 0.75448 1.10201
 C2900 C 0.87916 0.74491 1.12072
 C2901 C 0.89784 0.75427 1.12986
 C2902 C 0.90732 0.77256 1.12043
 C2903 C 0.90822 0.80047 1.09197
 C2904 C 0.91648 0.81616 1.08379
 H2905 H 0.87252 0.77983 1.07820
 H2906 H 0.85578 0.74790 1.09449
 H2907 H 0.90529 0.74755 1.14424
 H2908 H 0.92173 0.77946 1.12768
 C2909 C 0.89812 0.28164 0.60160
 C2910 C 0.87949 0.27264 0.59242
 C2911 C 0.86997 0.25432 0.60175
 C2912 C 0.87896 0.24473 0.62046
 C2913 C 0.89763 0.25408 0.62963
 C2914 C 0.90711 0.27239 0.62026
 C2915 C 0.90806 0.30032 0.59183
 C2916 C 0.91636 0.31600 0.58365
 H2917 H 0.87235 0.27974 0.57801
 H2918 H 0.85562 0.24775 0.59420
 H2919 H 0.90506 0.24734 0.64401
 H2920 H 0.92149 0.27929 0.62755
 C2921 C 0.39798 0.78185 0.60173
 C2922 C 0.37936 0.77284 0.59254
 C2923 C 0.36984 0.75452 0.60187
 C2924 C 0.37882 0.74493 0.62058
 C2925 C 0.39748 0.75429 0.62976
 C2926 C 0.40696 0.77260 0.62040
 C2927 C 0.40792 0.80055 0.59199
 C2928 C 0.41620 0.81624 0.58383
 H2929 H 0.37223 0.77993 0.57812
 H2930 H 0.35550 0.74794 0.59430
 H2931 H 0.40491 0.74754 0.64414
 H2932 H 0.42135 0.77949 0.62770
 C2933 C 0.39833 0.28180 1.10163
 C2934 C 0.37968 0.27278 1.09250
 C2935 C 0.37013 0.25451 1.10190
 C2936 C 0.37912 0.24496 1.12063
 C2937 C 0.39779 0.25433 1.12977
 C2938 C 0.40730 0.27259 1.12033
 C2939 C 0.40826 0.30049 1.09183
 C2940 C 0.41654 0.31619 1.08367
 H2941 H 0.37254 0.27984 1.07806
 H2942 H 0.35576 0.24794 1.09437
 H2943 H 0.40521 0.24762 1.14418
 H2944 H 0.42170 0.27949 1.12759
 C2945 C 1.10154 1.10243 0.78112
 C2946 C 1.09249 1.12107 0.77194
 C2947 C 1.10191 1.13053 0.75359
 C2948 C 1.12064 1.12150 0.74405
 C2949 C 1.12962 1.10274 0.75367
 C2950 C 1.12015 1.09336 0.77200
 C2951 C 1.09173 1.09255 0.79987
 C2952 C 1.08359 1.08425 0.81560
 H2953 H 1.07810 1.12827 0.77894
 H2954 H 1.09432 1.14488 0.74701
 H2955 H 1.14396 1.09509 0.74719
 H2956 H 1.12733 1.07895 0.77905
 C2957 C 1.10192 0.60228 0.28100
 C2958 C 1.12040 0.59314 0.27168
 C2959 C 1.12983 0.60258 0.25334
 C2960 C 1.12092 0.62146 0.24389
 C2961 C 1.10234 0.63058 0.25364
 C2962 C 1.09297 0.62106 0.27200
 C2963 C 1.09216 0.59234 0.29978
 C2964 C 1.08405 0.58402 0.31553
 H2965 H 1.12753 0.57864 0.27856
 H2966 H 1.14407 0.59488 0.24671
 H2967 H 1.09484 0.64506 0.24722
 H2968 H 1.07869 0.62833 0.27916
 C2969 C 0.60166 1.10242 0.28116
 C2970 C 0.59281 1.12121 0.27210
 C2971 C 0.60232 1.13070 0.25380
 C2972 C 0.62094 1.12151 0.24417
 C2973 C 0.62973 1.10261 0.25368
 C2974 C 0.62016 1.09321 0.27196
 C2975 C 0.59179 1.09257 0.29992
 C2976 C 0.58362 1.08431 0.31566
 H2977 H 0.57851 1.12853 0.27916
 H2978 H 0.59489 1.14518 0.24733
 H2979 H 0.64398 1.09486 0.24712
 H2980 H 0.62720 1.07868 0.27889
 C2981 C 0.60157 0.60209 0.78147
 C2982 C 0.59255 0.62076 0.77231
 C2983 C 0.60205 0.63024 0.75401
 C2984 C 0.62075 0.62115 0.74460
 C2985 C 0.62974 0.60243 0.75412
 C2986 C 0.62020 0.59300 0.77240
 C2987 C 0.59170 0.59225 0.80018
 C2988 C 0.58349 0.58399 0.81588
 H2989 H 0.57815 0.62797 0.77928
 H2990 H 0.59461 0.64461 0.74729
 H2991 H 0.64408 0.59490 0.74750
 H2992 H 0.62736 0.57857 0.77943
 C2993 C 0.89837 0.89800 0.78153
 C2994 C 0.87976 0.90711 0.77239
 C2995 C 0.87034 0.89775 0.75403
 C2996 C 0.87940 0.87909 0.74449
 C2997 C 0.89805 0.86997 0.75397
 C2998 C 0.90744 0.87938 0.77235
 C2999 C 0.90819 0.90786 0.80025
 C3000 C 0.91637 0.91613 0.81595
 H3001 H 0.87256 0.92149 0.77943
 H3002 H 0.85601 0.90529 0.74738
 H3003 H 0.90552 0.85563 0.74725
 H3004 H 0.92182 0.87214 0.77937
 C3005 C 0.89825 0.39743 0.28103
 C3006 C 0.90741 0.37893 0.27172
 C3007 C 0.89799 0.36947 0.25338
 C3008 C 0.87913 0.37839 0.24396
 C3009 C 0.87001 0.39698 0.25373
 C3010 C 0.87950 0.40636 0.27205
 C3011 C 0.90808 0.40730 0.29977
 C3012 C 0.91625 0.41558 0.31549
 H3013 H 0.92191 0.37182 0.27861
 H3014 H 0.90567 0.35522 0.24671
 H3015 H 0.85556 0.40452 0.24735
 H3016 H 0.87221 0.42066 0.27917
 C3017 C 0.39820 0.89744 0.28089
 C3018 C 0.40714 0.87866 0.27190
 C3019 C 0.39774 0.86913 0.25359
 C3020 C 0.37913 0.87825 0.24387
 C3021 C 0.37026 0.89714 0.25329
 C3022 C 0.37972 0.90659 0.27159
 C3023 C 0.40797 0.90737 0.29964
 C3024 C 0.41607 0.91570 0.31538
 H3025 H 0.42144 0.87139 0.27903
 H3026 H 0.40522 0.85466 0.24717
 H3027 H 0.35601 0.90486 0.24668
 H3028 H 0.37261 0.92111 0.27846
 C3029 C 0.39841 0.39785 0.78141
 C3030 C 0.40761 0.37931 0.77217
 C3031 C 0.39820 0.36981 0.75385
 C3032 C 0.37940 0.37873 0.74448
 C3033 C 0.37020 0.39730 0.75409
 C3034 C 0.37965 0.40676 0.77239
 C3035 C 0.40822 0.40777 0.80011
 C3036 C 0.41639 0.41608 0.81580
 H3037 H 0.42211 0.37224 0.77908
 H3038 H 0.40578 0.35554 0.74708
 H3039 H 0.35575 0.40468 0.74753
 H3040 H 0.37235 0.42107 0.77947
 C3041 C 1.10153 0.89761 1.21871
 C3042 C 1.12027 0.90651 1.22775
 C3043 C 1.12966 0.89707 1.24611
 C3044 C 1.12043 0.87853 1.25575
 C3045 C 1.10168 0.86959 1.24634
 C3046 C 1.09232 0.87908 1.22797
 C3047 C 1.09175 0.90758 1.20001
 C3048 C 1.08363 0.91596 1.18432
 H3049 H 1.12759 0.92081 1.22066
 H3050 H 1.14409 0.90445 1.25267
 H3051 H 1.09411 0.85532 1.25312
 H3052 H 1.07785 0.87201 1.22102
 C3053 C 1.10148 0.39776 0.71856
 C3054 C 1.11998 0.40695 0.72778
 C3055 C 1.12949 0.39749 0.74606
 C3056 C 1.12062 0.37864 0.75542
 C3057 C 1.10206 0.36945 0.74586
 C3058 C 1.09258 0.37897 0.72757
 C3059 C 1.09164 0.40766 0.69985
 C3060 C 1.08347 0.41595 0.68414
 H3061 H 1.12704 0.42147 0.72088
 H3062 H 1.14375 0.40508 0.75278
 H3063 H 1.09474 0.35497 0.75245
 H3064 H 1.07828 0.37168 0.72048
 C3065 C 0.60148 0.89806 0.71851
 C3066 C 0.62021 0.90704 0.72745
 C3067 C 0.62971 0.89768 0.74579
 C3068 C 0.62057 0.87914 0.75550
 C3069 C 0.60179 0.87012 0.74620
 C3070 C 0.59234 0.87954 0.72785
 C3071 C 0.59158 0.90792 0.69983
 C3072 C 0.58336 0.91621 0.68415
 H3073 H 0.62746 0.92135 0.72029
 H3074 H 0.64415 0.90510 0.75229
 H3075 H 0.59427 0.85586 0.75303
 H3076 H 0.57786 0.87241 0.72098
 C3077 C 0.60171 0.39740 1.21907
 C3078 C 0.59263 0.37879 1.22826
 C3079 C 0.60201 0.36930 1.24663
 C3080 C 0.62073 0.37829 1.25620
 C3081 C 0.62974 0.39703 1.24659
 C3082 C 0.62030 0.40644 1.22823
 C3083 C 0.59193 0.40732 1.20031
 C3084 C 0.58381 0.41566 1.18456
 H3085 H 0.57824 0.37163 1.22124
 H3086 H 0.59440 0.35496 1.25321
 H3087 H 0.64408 0.40464 1.25308
 H3088 H 0.62752 0.42082 1.22121
 C3089 C 0.89851 1.10194 1.21837
 C3090 C 0.90766 1.12046 1.22767
 C3091 C 0.89818 1.12991 1.24598
 C3092 C 0.87937 1.12095 1.25527
 C3093 C 0.87022 1.10241 1.24561
 C3094 C 0.87974 1.09300 1.22731
 C3095 C 0.90841 1.09206 1.19972
 C3096 C 0.91663 1.08377 1.18405
 H3097 H 0.92216 1.12755 1.22080
 H3098 H 0.90572 1.14417 1.25278
 H3099 H 0.85576 1.09501 1.25211
 H3100 H 0.87248 1.07870 1.22018
 C3101 C 0.89854 0.60197 0.71850
 C3102 C 0.90747 0.62076 0.72748
 C3103 C 0.89802 0.63028 0.74578
 C3104 C 0.87944 0.62112 0.75538
 C3105 C 0.87055 0.60228 0.74605
 C3106 C 0.88003 0.59281 0.72777
 C3107 C 0.90836 0.59205 0.69980
 C3108 C 0.91652 0.58374 0.68411
 H3109 H 0.92177 0.62802 0.72036
 H3110 H 0.90536 0.64475 0.75233
 H3111 H 0.85628 0.59472 0.75278
 H3112 H 0.87294 0.57831 0.72089
 C3113 C 0.39843 1.10202 0.71834
 C3114 C 0.40736 1.12079 0.72735
 C3115 C 0.39793 1.13025 0.74568
 C3116 C 0.37938 1.12104 0.75528
 C3117 C 0.37046 1.10225 0.74590
 C3118 C 0.37993 1.09284 0.72759
 C3119 C 0.40826 1.09213 0.69966
 C3120 C 0.41644 1.08383 0.68398
 H3121 H 0.42165 1.12808 0.72023
 H3122 H 0.40528 1.14471 0.75226
 H3123 H 0.35620 1.09466 0.75263
 H3124 H 0.37283 1.07835 0.72066
 C3125 C 0.39843 0.60226 1.21856
 C3126 C 0.40747 0.62092 1.22768
 C3127 C 0.39803 0.63043 1.24599
 C3128 C 0.37936 0.62139 1.25547
 C3129 C 0.37032 0.60268 1.24601
 C3130 C 0.37980 0.59322 1.22771
 C3131 C 0.40826 0.59233 1.19987
 C3132 C 0.41640 0.58398 1.18418
 H3133 H 0.42186 0.62811 1.22068
 H3134 H 0.40546 0.64481 1.25265
 H3135 H 0.35595 0.59520 1.25265
 H3136 H 0.37262 0.57881 1.22072
 C3137 C 1.10177 1.21878 0.89776
 C3138 C 1.12025 1.22794 0.90703
 C3139 C 1.12982 1.24622 0.89766
 C3140 C 1.12104 1.25576 0.87875
 C3141 C 1.10244 1.24618 0.86951
 C3142 C 1.09294 1.22789 0.87895
 C3143 C 1.09190 1.20003 0.90756
 C3144 C 1.08373 1.18428 0.91577
 H3145 H 1.12728 1.22098 0.92157
 H3146 H 1.14406 1.25274 0.90546
 H3147 H 1.09502 1.25268 0.85501
 H3148 H 1.07865 1.22087 0.87159
 C3149 C 1.10179 0.71841 0.39778
 C3150 C 1.12051 0.72731 0.40682
 C3151 C 1.13000 0.74568 0.39756
 C3152 C 1.12089 0.75556 0.37898
 C3153 C 1.10210 0.74619 0.36992
 C3154 C 1.09268 0.72781 0.37927
 C3155 C 1.09191 0.69968 0.40756
 C3156 C 1.08370 0.68397 0.41579
 H3157 H 1.12777 0.72009 0.42113
 H3158 H 1.14442 0.75199 0.40517
 H3159 H 1.09444 0.75293 0.35565
 H3160 H 1.07821 0.72098 0.37207
 C3161 C 0.60158 1.21873 0.39765
 C3162 C 0.62019 1.22778 0.40679
 C3163 C 0.62968 1.24611 0.39745
 C3164 C 0.62073 1.25579 0.37868
 C3165 C 0.60200 1.24633 0.36959
 C3166 C 0.59256 1.22799 0.37901
 C3167 C 0.59173 1.20000 0.40747
 C3168 C 0.58354 1.18428 0.41571
 H3169 H 0.62736 1.22070 0.42119
 H3170 H 0.64402 1.25253 0.40513
 H3171 H 0.59442 1.25295 0.35523
 H3172 H 0.57817 1.22106 0.37177
 C3173 C 0.60152 0.71838 0.89798
 C3174 C 0.59239 0.72778 0.87945
 C3175 C 0.60184 0.74613 0.87008
 C3176 C 0.62062 0.75538 0.87915
 C3177 C 0.62975 0.74562 0.89770
 C3178 C 0.62026 0.72728 0.90702
 C3179 C 0.59166 0.69965 0.90779
 C3180 C 0.58348 0.68394 0.91603
 H3181 H 0.57791 0.72096 0.87227
 H3182 H 0.59431 0.75300 0.85580
 H3183 H 0.64420 0.75207 0.90516
 H3184 H 0.62752 0.72008 0.92133
 C3185 C 0.89853 1.21820 1.10216
 C3186 C 0.90771 1.22750 1.12069
 C3187 C 0.89828 1.24582 1.13013
 C3188 C 0.87947 1.25512 1.12114
 C3189 C 0.87030 1.24546 1.10258
 C3190 C 0.87977 1.22715 1.09319
 C3191 C 0.90838 1.19952 1.09230
 C3192 C 0.91657 1.18384 1.08402
 H3193 H 0.92221 1.22064 1.12782
 H3194 H 0.90584 1.25263 1.14440
 H3195 H 0.85585 1.25196 1.09515
 H3196 H 0.87249 1.22002 1.07887
 C3197 C 0.89838 0.71825 0.60196
 C3198 C 0.90745 0.72748 0.62060
 C3199 C 0.89806 0.74586 0.62997
 C3200 C 0.87940 0.75530 0.62082
 C3201 C 0.87035 0.74573 0.60215
 C3202 C 0.87977 0.72736 0.59283
 C3203 C 0.90818 0.69949 0.59215
 C3204 C 0.91634 0.68375 0.58391
 H3205 H 0.92182 0.72049 0.62787
 H3206 H 0.90553 0.75261 0.64431
 H3207 H 0.85601 0.75235 0.59459
 H3208 H 0.87256 0.72030 0.57844
 C3209 C 0.39806 1.21864 0.60224
 C3210 C 0.40722 1.22799 0.62074
 C3211 C 0.39780 1.24634 0.63017
 C3212 C 0.37896 1.25574 0.62121
 C3213 C 0.36984 1.24595 0.60261
 C3214 C 0.37932 1.22762 0.59326
 C3215 C 0.40789 1.19987 0.59242
 C3216 C 0.41606 1.18413 0.58420
 H3217 H 0.42171 1.22112 0.62788
 H3218 H 0.40549 1.25303 0.64442
 H3219 H 0.35540 1.25231 0.59504
 H3220 H 0.37202 1.22047 0.57896
 C3221 C 0.39832 0.71876 1.10234
 C3222 C 0.37983 0.72798 1.09313
 C3223 C 0.37032 0.74627 1.10252
 C3224 C 0.37915 0.75575 1.12142
 C3225 C 0.39777 0.74611 1.13061
 C3226 C 0.40722 0.72781 1.12113
 C3227 C 0.40816 0.70002 1.09249
 C3228 C 0.41630 0.68430 1.08422
 H3229 H 0.37275 0.72106 1.07861
 H3230 H 0.35606 0.75283 1.09476
 H3231 H 0.40523 0.75256 1.14509
 H3232 H 0.42152 0.72074 1.12846
 C3233 C 0.89853 0.78175 0.89804
 C3234 C 0.88002 0.77256 0.90729
 C3235 C 0.87052 0.75429 0.89789
 C3236 C 0.87939 0.74488 0.87904
 C3237 C 0.89797 0.75439 0.86980
 C3238 C 0.90744 0.77268 0.87925
 C3239 C 0.90837 0.80046 0.90787
 C3240 C 0.91653 0.81617 0.91610
 H3241 H 0.87294 0.77949 0.92180
 H3242 H 0.85625 0.74762 0.90552
 H3243 H 0.90530 0.74779 0.85531
 H3244 H 0.92174 0.77973 0.87191
 C3245 C 0.89843 0.28147 0.39789
 C3246 C 0.90760 0.27213 0.37935
 C3247 C 0.89813 0.25383 0.36993
 C3248 C 0.87932 0.24458 0.37893
 C3249 C 0.87016 0.25428 0.39750
 C3250 C 0.87966 0.27256 0.40687
 C3251 C 0.90830 0.30015 0.40772
 C3252 C 0.91650 0.31584 0.41596
 H3253 H 0.92210 0.27895 0.37222
 H3254 H 0.90568 0.24699 0.35565
 H3255 H 0.85570 0.24781 0.40493
 H3256 H 0.87238 0.27971 0.42119
 C3257 C 0.39807 0.78133 0.39780
 C3258 C 0.37945 0.77227 0.40694
 C3259 C 0.36992 0.75397 0.39760
 C3260 C 0.37888 0.74431 0.37883
 C3261 C 0.39759 0.75380 0.36972
 C3262 C 0.40705 0.77211 0.37914
 C3263 C 0.40793 0.80006 0.40761
 C3264 C 0.41610 0.81579 0.41583
 H3265 H 0.37230 0.77933 0.42136
 H3266 H 0.35557 0.74754 0.40528
 H3267 H 0.40512 0.74722 0.35532
 H3268 H 0.42143 0.77903 0.37186
 C3269 C 0.39847 0.28166 0.89786
 C3270 C 0.40738 0.27258 0.87907
 C3271 C 0.39794 0.25426 0.86967
 C3272 C 0.37940 0.24472 0.87896
 C3273 C 0.37051 0.25415 0.89778
 C3274 C 0.37998 0.27246 0.90713
 C3275 C 0.40831 0.30038 0.90767
 C3276 C 0.41648 0.31608 0.91591
 H3277 H 0.42166 0.27964 0.87171
 H3278 H 0.40527 0.24763 0.85519
 H3279 H 0.35626 0.24746 0.90543
 H3280 H 0.37290 0.27941 0.92164
 C3281 C 1.10185 0.78126 1.10236
 C3282 C 1.12033 0.77202 1.09313
 C3283 C 1.12979 0.75367 1.10250
 C3284 C 1.12092 0.74414 1.12138
 C3285 C 1.10233 0.75381 1.13058
 C3286 C 1.09293 0.77217 1.12114
 C3287 C 1.09204 0.80005 1.09254
 C3288 C 1.08387 0.81581 1.08432
 H3289 H 1.12743 0.77897 1.07862
 H3290 H 1.14403 0.74710 1.09473
 H3291 H 1.09485 0.74734 1.14506
 H3292 H 1.07865 0.77926 1.12848
 C3293 C 1.10154 0.28106 0.60246
 C3294 C 1.09249 0.27184 0.62112
 C3295 C 1.10189 0.25349 0.63058
 C3296 C 1.12062 0.24396 0.62152
 C3297 C 1.12961 0.25360 0.60275
 C3298 C 1.12014 0.27194 0.59337
 C3299 C 1.09176 0.29985 0.59260
 C3300 C 1.08366 0.31562 0.58432
 H3301 H 1.07810 0.27882 0.62835
 H3302 H 1.09429 0.24690 0.64494
 H3303 H 1.14394 0.24713 0.59508
 H3304 H 1.12735 0.27898 0.57896
 C3305 C 0.60149 0.78179 0.60199
 C3306 C 0.62013 0.77276 0.59284
 C3307 C 0.62968 0.75448 0.60223
 C3308 C 0.62071 0.74491 0.62096
 C3309 C 0.60201 0.75426 0.63010
 C3310 C 0.59250 0.77256 0.62067
 C3311 C 0.59163 0.80053 0.59220
 C3312 C 0.58344 0.81625 0.58398
 H3313 H 0.62728 0.77982 0.57841
 H3314 H 0.64402 0.74790 0.59465
 H3315 H 0.59458 0.74751 0.64448
 H3316 H 0.57810 0.77949 0.62793
 C3317 C 0.60148 0.28166 1.10215
 C3318 C 0.62000 0.27247 1.09293
 C3319 C 0.62953 0.25421 1.10237
 C3320 C 0.62065 0.24481 1.12124
 C3321 C 0.60207 0.25433 1.13046
 C3322 C 0.59258 0.27261 1.12097
 C3323 C 0.59164 0.30039 1.09231
 C3324 C 0.58348 0.31612 1.08407
 H3325 H 0.62708 0.27940 1.07839
 H3326 H 0.64380 0.24752 1.09475
 H3327 H 0.59474 0.24773 1.14496
 H3328 H 0.57827 0.27966 1.12829
 C3329 C 1.21836 1.10185 0.89814
 C3330 C 1.22743 1.12049 0.90727
 C3331 C 1.24573 1.12996 0.89789
 C3332 C 1.25525 1.12091 0.87919
 C3333 C 1.24583 1.10223 0.87006
 C3334 C 1.22754 1.09280 0.87949
 C3335 C 1.19966 1.09199 0.90794
 C3336 C 1.18397 1.08375 0.91612
 H3337 H 1.22041 1.12768 0.92169
 H3338 H 1.25234 1.14432 0.90540
 H3339 H 1.25252 1.09476 0.85568
 H3340 H 1.22059 1.07841 0.87224
 C3341 C 1.21850 0.60179 0.39834
 C3342 C 1.22775 0.59279 0.37968
 C3343 C 1.24606 0.60228 0.37032
 C3344 C 1.25542 0.62097 0.37950
 C3345 C 1.24583 0.62995 0.39820
 C3346 C 1.22752 0.62042 0.40752
 C3347 C 1.19980 0.59186 0.40808
 C3348 C 1.18410 0.58358 0.41622
 H3349 H 1.22085 0.57840 0.37239
 H3350 H 1.25279 0.59485 0.35595
 H3351 H 1.25240 0.64431 0.40576
 H3352 H 1.22044 0.62758 0.42193
 C3353 C 0.71829 1.10173 0.39817
 C3354 C 0.72738 1.12037 0.40728
 C3355 C 0.74568 1.12983 0.39789
 C3356 C 0.75519 1.12076 0.37920
 C3357 C 0.74576 1.10209 0.37008
 C3358 C 0.72747 1.09267 0.37951
 C3359 C 0.69959 1.09189 0.40798
 C3360 C 0.68389 1.08367 0.41616
 H3361 H 0.72036 1.12758 0.42170
 H3362 H 0.75230 1.14419 0.40540
 H3363 H 0.75245 1.09461 0.35570
 H3364 H 0.72051 1.07828 0.37227
 C3365 C 0.71834 0.60182 0.89831
 C3366 C 0.72755 0.59277 0.87966
 C3367 C 0.74587 0.60219 0.87027
 C3368 C 0.75528 0.62086 0.87941
 C3369 C 0.74573 0.62992 0.89810
 C3370 C 0.72741 0.62045 0.90745
 C3371 C 0.69963 0.59195 0.90809
 C3372 C 0.68393 0.58372 0.91627
 H3373 H 0.72061 0.57838 0.87240
 H3374 H 0.75258 0.59472 0.85590
 H3375 H 0.75234 0.64427 0.90563
 H3376 H 0.72036 0.62764 0.92185
 C3377 C 1.21859 0.89802 1.10181
 C3378 C 1.22768 0.87938 1.09267
 C3379 C 1.24600 0.86991 1.10202
 C3380 C 1.25554 0.87896 1.12071
 C3381 C 1.24611 0.89764 1.12984
 C3382 C 1.22779 0.90707 1.12045
 C3383 C 1.19989 0.90789 1.09202
 C3384 C 1.18419 0.91613 1.08383
 H3385 H 1.22064 0.87220 1.07826
 H3386 H 1.25262 0.85555 1.09449
 H3387 H 1.25280 0.90511 1.14421
 H3388 H 1.22083 0.92147 1.12771
 C3389 C 1.21843 0.39803 0.60164
 C3390 C 1.22762 0.40707 0.62029
 C3391 C 1.24592 0.39762 0.62971
 C3392 C 1.25533 0.37892 0.62058
 C3393 C 1.24580 0.36988 0.60190
 C3394 C 1.22750 0.37938 0.59252
 C3395 C 1.19972 0.40791 0.59184
 C3396 C 1.18401 0.41614 0.58366
 H3397 H 1.22068 0.42148 0.62753
 H3398 H 1.25261 0.40508 0.64408
 H3399 H 1.25240 0.35551 0.59438
 H3400 H 1.22046 0.37219 0.57811
 C3401 C 0.71821 0.89834 0.60174
 C3402 C 0.72729 0.87969 0.59262
 C3403 C 0.74556 0.87016 0.60202
 C3404 C 0.75508 0.87919 0.62073
 C3405 C 0.74568 0.89789 0.62984
 C3406 C 0.72740 0.90738 0.62040
 C3407 C 0.69950 0.90824 0.59194
 C3408 C 0.68378 0.91648 0.58378
 H3409 H 0.72027 0.87251 0.57819
 H3410 H 0.75217 0.85579 0.59451
 H3411 H 0.75237 0.90535 0.64422
 H3412 H 0.72048 0.92180 0.62763
 C3413 C 0.71851 0.39809 1.10182
 C3414 C 0.72762 0.37944 1.09273
 C3415 C 0.74592 0.36998 1.10214
 C3416 C 0.75542 0.37905 1.12083
 C3417 C 0.74596 0.39773 1.12993
 C3418 C 0.72766 0.40716 1.12048
 C3419 C 0.69980 0.40795 1.09199
 C3420 C 0.68409 0.41617 1.08380
 H3421 H 0.72061 0.37224 1.07831
 H3422 H 0.75255 0.35561 1.09464
 H3423 H 0.75263 0.40522 1.14430
 H3424 H 0.72070 0.42156 1.12771
 C3425 C 0.78177 1.10184 1.10197
 C3426 C 0.77260 1.09274 1.12062
 C3427 C 0.75426 1.10211 1.13004
 C3428 C 0.74478 1.12078 1.12092
 C3429 C 0.75429 1.12990 1.10224
 C3430 C 0.77264 1.12048 1.09285
 C3431 C 0.80050 1.09201 1.09215
 C3432 C 0.81621 1.08379 1.08396
 H3433 H 0.77959 1.07834 1.12787
 H3434 H 0.74759 1.09460 1.14442
 H3435 H 0.74765 1.14427 1.09473
 H3436 H 0.77965 1.12772 1.07845
 C3437 C 0.78179 0.60172 0.60166
 C3438 C 0.77272 0.62038 0.59252
 C3439 C 0.75442 0.62987 0.60189
 C3440 C 0.74488 0.62081 0.62058
 C3441 C 0.75430 0.60212 0.62973
 C3442 C 0.77260 0.59267 0.62032
 C3443 C 0.80048 0.59182 0.59186
 C3444 C 0.81618 0.58356 0.58369
 H3445 H 0.77974 0.62756 0.57808
 H3446 H 0.74781 0.64424 0.59435
 H3447 H 0.74760 0.59464 0.64411
 H3448 H 0.77952 0.57824 0.62757
 C3449 C 0.28131 1.10187 0.60194
 C3450 C 0.27220 1.12053 0.59284
 C3451 C 0.25392 1.13000 0.60227
 C3452 C 0.24443 1.12091 0.62098
 C3453 C 0.25389 1.10222 0.63009
 C3454 C 0.27217 1.09279 0.62062
 C3455 C 0.30001 1.09203 0.59208
 C3456 C 0.31571 1.08383 0.58386
 H3457 H 0.27919 1.12774 0.57841
 H3458 H 0.24729 1.14437 0.59477
 H3459 H 0.24723 1.09473 0.64449
 H3460 H 0.27914 1.07837 0.62784
 C3461 C 0.28151 0.60190 1.10182
 C3462 C 0.27231 0.59285 1.12048
 C3463 C 0.25400 0.60229 1.12990
 C3464 C 0.24458 0.62099 1.12077
 C3465 C 0.25412 0.63005 1.10206
 C3466 C 0.27242 0.62057 1.09269
 C3467 C 0.30023 0.59202 1.09203
 C3468 C 0.31594 0.58377 1.08387
 H3469 H 0.27925 0.57844 1.12774
 H3470 H 0.24731 0.59481 1.14428
 H3471 H 0.24751 0.64443 1.09454
 H3472 H 0.27946 0.62777 1.07827
 C3473 C 0.78170 0.89841 0.89837
 C3474 C 0.77265 0.87975 0.90750
 C3475 C 0.75438 0.87025 0.89811
 C3476 C 0.74485 0.87932 0.87941
 C3477 C 0.75426 0.89801 0.87027
 C3478 C 0.77253 0.90746 0.87970
 C3479 C 0.80038 0.90829 0.90817
 C3480 C 0.81606 0.91653 0.91635
 H3481 H 0.77969 0.87254 0.92191
 H3482 H 0.74779 0.85587 0.90562
 H3483 H 0.74758 0.90548 0.85587
 H3484 H 0.77947 0.92187 0.87243
 C3485 C 0.78151 0.39784 0.39809
 C3486 C 0.77245 0.37919 0.40725
 C3487 C 0.75416 0.36968 0.39789
 C3488 C 0.74461 0.37872 0.37918
 C3489 C 0.75402 0.39740 0.37002
 C3490 C 0.77230 0.40687 0.37942
 C3491 C 0.80022 0.40773 0.40785
 C3492 C 0.81593 0.41597 0.41600
 H3493 H 0.77949 0.37201 0.42168
 H3494 H 0.74756 0.35531 0.40544
 H3495 H 0.74731 0.40487 0.35563
 H3496 H 0.77922 0.42128 0.37214
 C3497 C 0.28145 0.89797 0.39842
 C3498 C 0.27247 0.87930 0.40762
 C3499 C 0.25421 0.86972 0.39828
 C3500 C 0.24463 0.87870 0.37957
 C3501 C 0.25395 0.89741 0.37038
 C3502 C 0.27220 0.90695 0.37975
 C3503 C 0.30012 0.90793 0.40814
 C3504 C 0.31581 0.91624 0.41625
 H3505 H 0.27955 0.87216 0.42204
 H3506 H 0.24766 0.85533 0.40585
 H3507 H 0.24722 0.90484 0.35599
 H3508 H 0.27907 0.92136 0.37245
 C3509 C 0.28162 0.39816 0.89823
 C3510 C 0.27258 0.37952 0.90742
 C3511 C 0.25426 0.37002 0.89811
 C3512 C 0.24468 0.37905 0.87942
 C3513 C 0.25407 0.39773 0.87022
 C3514 C 0.27239 0.40718 0.87957
 C3515 C 0.30032 0.40807 0.90799
 C3516 C 0.31601 0.41633 0.91615
 H3517 H 0.27965 0.37234 0.92183
 H3518 H 0.24768 0.35566 0.90567
 H3519 H 0.24735 0.40518 0.85583
 H3520 H 0.27931 0.42158 0.87226
   
