data_POSCAR
  _audit_creation_date              2014-09-24
  _audit_creation_method            'ToBaCCo'
  _symmetry_space_group_name_H-M    'P1'
  _symmetry_Int_Tables_number       1
  _symmetry_cell_setting            triclinic
  loop_
  _symmetry_equiv_pos_as_xyz
 x,y,z
_cell_length_a 31.5831
_cell_length_b 35.3582
_cell_length_c 39.3194
_cell_angle_alpha 89.648500
_cell_angle_beta 90.057900
_cell_angle_gamma 90.071200
loop_
  _atom_site_label
  _atom_site_type_symbol
  _atom_site_fract_x
  _atom_site_fract_y
  _atom_site_fract_z
Zr1 Zr 0.23381 0.24600 0.30866
 O2 O 0.26426 0.26903 0.35196
 O3 O 0.18766 0.21131 0.33191
 O4 O 0.19603 0.28386 0.33659
 O5 O 0.30542 0.17324 0.29632
 O6 O 0.16756 0.32237 0.29586
 O7 O 0.26984 0.20700 0.33653
 O8 O 0.14960 0.18891 0.28701
 O9 O 0.18160 0.25549 0.27700
 O10 O 0.23064 0.19944 0.27615
 O11 O 0.24691 0.29744 0.28379
 O12 O 0.29306 0.24342 0.28383
 Zr13 Zr 0.24922 0.25799 0.19089
 Zr14 Zr 0.19621 0.30527 0.25029
 Zr15 Zr 0.28763 0.19838 0.24957
 Zr16 Zr 0.18027 0.21006 0.24336
 O17 O 0.35441 0.19523 0.25290
 O18 O 0.11621 0.22767 0.24040
 O19 O 0.23687 0.20592 0.21558
 O20 O 0.19064 0.26026 0.21621
 O21 O 0.25323 0.30468 0.22324
 O22 O 0.30105 0.24819 0.22296
 C23 C 0.15767 0.19121 0.31901
 C24 C 0.29598 0.18127 0.32733
 C25 C 0.17242 0.31148 0.32687
 O26 O 0.13024 0.30932 0.24156
 O27 O 0.18610 0.33605 0.20529
 O28 O 0.21759 0.30131 0.16365
 C29 C 0.19557 0.32960 0.17409
 O30 O 0.32953 0.30674 0.30460
 Zr31 Zr 0.30338 0.29354 0.25626
 O32 O 0.29543 0.29209 0.16736
 O33 O 0.20940 0.36307 0.25926
 O34 O 0.30183 0.35327 0.26066
 O35 O 0.36829 0.27834 0.25789
 O36 O 0.33201 0.31629 0.21238
 C37 C 0.32467 0.31286 0.18035
 O38 O 0.21599 0.23743 0.14796
 O39 O 0.27357 0.14001 0.24603
 O40 O 0.28381 0.21759 0.16292
 O41 O 0.31043 0.17715 0.20311
 O42 O 0.17924 0.15020 0.24025
 O43 O 0.15771 0.19283 0.19491
 C44 C 0.30516 0.18816 0.17213
 H45 H 0.22686 0.17508 0.28831
 H46 H 0.16707 0.26437 0.19999
 H47 H 0.32808 0.24581 0.21042
 H48 H 0.24915 0.31847 0.30021
 H49 H 0.09827 0.20492 0.24362
 H50 H 0.12257 0.33630 0.24430
 H51 H 0.18231 0.37695 0.25674
 H52 H 0.33109 0.36269 0.25725
 H53 H 0.14943 0.14188 0.24287
 H54 H 0.30082 0.12637 0.24839
 H55 H 0.36198 0.16812 0.25120
 H56 H 0.38506 0.30184 0.25491
 H57 H 0.13042 0.17934 0.19767
 H58 H 0.23052 0.24736 0.12737
 H59 H 0.25034 0.25841 0.37256
 H60 H 0.35185 0.32620 0.30181
 Zr61 Zr 0.76500 0.76000 0.30875
 O62 O 0.73702 0.73250 0.35118
 O63 O 0.80782 0.79688 0.33287
 O64 O 0.80915 0.72738 0.33608
 O65 O 0.68625 0.82660 0.29636
 O66 O 0.83679 0.68725 0.29667
 O67 O 0.72488 0.79557 0.33692
 O68 O 0.84533 0.82100 0.28825
 O69 O 0.81785 0.75454 0.27713
 O70 O 0.76416 0.80732 0.27667
 O71 O 0.75714 0.70802 0.28367
 O72 O 0.70591 0.75849 0.28360
 Zr73 Zr 0.75134 0.74897 0.19108
 Zr74 Zr 0.80852 0.70415 0.25023
 Zr75 Zr 0.70740 0.80449 0.24965
 Zr76 Zr 0.81542 0.80076 0.24408
 O77 O 0.64046 0.80283 0.25169
 O78 O 0.88093 0.78857 0.23990
 O79 O 0.75885 0.80128 0.21600
 O80 O 0.80985 0.75047 0.21671
 O81 O 0.75163 0.70123 0.22288
 O82 O 0.69867 0.75434 0.22282
 C83 C 0.83767 0.81744 0.32025
 C84 C 0.69600 0.81909 0.32750
 C85 C 0.83344 0.69999 0.32721
 O86 O 0.87497 0.70534 0.24361
 O87 O 0.82379 0.67672 0.20416
 O88 O 0.78741 0.70975 0.16353
 C89 C 0.81351 0.68386 0.17303
 O90 O 0.67576 0.69196 0.30401
 Zr91 Zr 0.70056 0.70819 0.25584
 O92 O 0.70833 0.71203 0.16707
 O93 O 0.79985 0.64529 0.25731
 O94 O 0.70764 0.64870 0.25981
 O95 O 0.63446 0.71852 0.25752
 O96 O 0.67370 0.68459 0.21178
 C97 C 0.68067 0.68921 0.17979
 O98 O 0.78259 0.77277 0.14830
 O99 O 0.71603 0.86381 0.24729
 O100 O 0.71393 0.78747 0.16303
 O101 O 0.68420 0.82571 0.20301
 O102 O 0.81130 0.86062 0.24275
 O103 O 0.83535 0.82136 0.19577
 C104 C 0.69084 0.81570 0.17205
 H105 H 0.76585 0.83148 0.28921
 H106 H 0.83384 0.74874 0.20061
 H107 H 0.67163 0.75511 0.21007
 H108 H 0.75686 0.68671 0.30012
 H109 H 0.89658 0.81256 0.24331
 H110 H 0.88492 0.67888 0.24589
 H111 H 0.82816 0.63349 0.25526
 H112 H 0.67938 0.63722 0.25614
 H113 H 0.84032 0.87072 0.24586
 H114 H 0.68756 0.87531 0.24934
 H115 H 0.63055 0.82936 0.25013
 H116 H 0.61987 0.69393 0.25450
 H117 H 0.86067 0.83758 0.19862
 H118 H 0.76904 0.76241 0.12753
 H119 H 0.74971 0.74352 0.37201
 H120 H 0.65540 0.67091 0.30105
 Zr121 Zr 0.75846 0.24089 -0.31348
 O122 O 0.73497 0.26535 -0.35909
 O123 O 0.80374 0.20329 -0.33269
 O124 O 0.80447 0.27271 -0.33967
 O125 O 0.67842 0.17461 -0.30340
 O126 O 0.82770 0.31542 -0.30058
 O127 O 0.72083 0.20411 -0.34248
 O128 O 0.83754 0.18232 -0.28495
 O129 O 0.80817 0.24862 -0.27905
 O130 O 0.75488 0.19527 -0.27951
 O131 O 0.74789 0.29408 -0.29162
 O132 O 0.69712 0.24266 -0.29234
 Zr133 Zr 0.73367 0.25840 -0.19815
 Zr134 Zr 0.79595 0.30036 -0.25531
 Zr135 Zr 0.69563 0.19870 -0.25621
 Zr136 Zr 0.80286 0.20426 -0.24412
 O137 O 0.62892 0.19956 -0.26100
 O138 O 0.86768 0.21706 -0.23585
 O139 O 0.74387 0.20475 -0.21982
 O140 O 0.79445 0.25601 -0.21972
 O141 O 0.73654 0.30406 -0.23212
 O142 O 0.68395 0.25041 -0.23249
 C143 C 0.83263 0.18406 -0.31735
 C144 C 0.69094 0.18116 -0.33411
 C145 C 0.82716 0.30116 -0.33064
 O146 O 0.86178 0.30022 -0.24533
 O147 O 0.80776 0.32991 -0.20968
 O148 O 0.76706 0.29933 -0.17026
 C149 C 0.79463 0.32434 -0.17903
 O150 O 0.66802 0.30495 -0.31841
 Zr151 Zr 0.68872 0.29442 -0.26779
 O152 O 0.68864 0.29688 -0.17953
 O153 O 0.78690 0.35875 -0.26476
 O154 O 0.69458 0.35343 -0.27666
 O155 O 0.62279 0.28355 -0.27102
 O156 O 0.65997 0.32288 -0.22748
 C157 C 0.66422 0.32044 -0.19510
 O158 O 0.76016 0.23830 -0.15186
 O159 O 0.70430 0.13951 -0.25197
 O160 O 0.69508 0.22070 -0.17046
 O161 O 0.67053 0.17856 -0.20959
 O162 O 0.79904 0.14448 -0.24068
 O163 O 0.81749 0.18664 -0.19368
 C164 C 0.67479 0.19056 -0.17886
 H165 H 0.75794 0.17053 -0.29091
 H166 H 0.81684 0.25879 -0.20228
 H167 H 0.65601 0.25023 -0.22108
 H168 H 0.74888 0.31439 -0.30905
 H169 H 0.88361 0.19296 -0.23682
 H170 H 0.87166 0.32667 -0.24805
 H171 H 0.81491 0.37103 -0.26202
 H172 H 0.66572 0.36439 -0.27620
 H173 H 0.82838 0.13456 -0.24114
 H174 H 0.67602 0.12778 -0.25480
 H175 H 0.61926 0.17297 -0.25911
 H176 H 0.60812 0.30831 -0.27091
 H177 H 0.84284 0.17019 -0.19397
 H178 H 0.74439 0.25003 -0.13279
 H179 H 0.74973 0.25313 -0.37841
 H180 H 0.64601 0.32485 -0.31836
 Zr181 Zr 0.25704 0.74678 -0.30833
 O182 O 0.29512 0.71938 -0.34509
 O183 O 0.21544 0.77729 -0.33977
 O184 O 0.22343 0.70739 -0.33696
 O185 O 0.32264 0.82371 -0.29552
 O186 O 0.19165 0.66911 -0.29761
 O187 O 0.29562 0.78421 -0.33562
 O188 O 0.17086 0.80436 -0.30155
 O189 O 0.20004 0.73925 -0.28198
 O190 O 0.24830 0.79627 -0.28057
 O191 O 0.26553 0.69778 -0.27875
 O192 O 0.31211 0.75286 -0.27863
 Zr193 Zr 0.25397 0.74656 -0.19039
 Zr194 Zr 0.20992 0.69221 -0.25005
 Zr195 Zr 0.30083 0.80087 -0.24886
 Zr196 Zr 0.19317 0.78797 -0.25293
 O197 O 0.36767 0.80423 -0.24728
 O198 O 0.12937 0.76956 -0.25580
 O199 O 0.24507 0.79586 -0.22003
 O200 O 0.19952 0.74085 -0.22096
 O201 O 0.26265 0.69677 -0.21809
 O202 O 0.31030 0.75367 -0.21755
 C203 C 0.18398 0.79874 -0.33221
 C204 C 0.31786 0.81293 -0.32662
 C205 C 0.20061 0.67882 -0.32854
 O206 O 0.14313 0.68802 -0.24982
 O207 O 0.19087 0.66762 -0.20290
 O208 O 0.21719 0.70755 -0.16279
 C209 C 0.19537 0.67842 -0.17167
 O210 O 0.35137 0.69059 -0.29143
 Zr211 Zr 0.31747 0.70535 -0.24678
 O212 O 0.29551 0.71397 -0.16005
 O213 O 0.22495 0.63394 -0.25067
 O214 O 0.31839 0.64544 -0.24936
 O215 O 0.38207 0.72014 -0.24028
 O216 O 0.33609 0.68395 -0.19948
 C217 C 0.32416 0.69002 -0.16883
 O218 O 0.21531 0.77217 -0.15301
 O219 O 0.28619 0.85925 -0.24968
 O220 O 0.28526 0.78888 -0.16220
 O221 O 0.31738 0.82601 -0.20229
 O222 O 0.19042 0.84788 -0.25459
 O223 O 0.16272 0.80959 -0.20896
 C224 C 0.30806 0.81744 -0.17133
 H225 H 0.24593 0.81935 -0.29480
 H226 H 0.17355 0.73840 -0.20705
 H227 H 0.33518 0.75704 -0.20253
 H228 H 0.27059 0.67539 -0.29318
 H229 H 0.11219 0.79151 -0.26330
 H230 H 0.13633 0.66069 -0.25074
 H231 H 0.19767 0.62006 -0.25051
 H232 H 0.34721 0.63696 -0.24287
 H233 H 0.16125 0.85505 -0.26134
 H234 H 0.31351 0.87304 -0.25065
 H235 H 0.37494 0.83149 -0.24684
 H236 H 0.39766 0.69661 -0.23467
 H237 H 0.13545 0.82130 -0.21559
 H238 H 0.22623 0.76442 -0.13033
 H239 H 0.28516 0.72746 -0.36796
 H240 H 0.37440 0.67276 -0.28550
 Zr241 Zr 1.26344 1.27014 0.80855
 O242 O 1.22925 1.25195 0.85198
 O243 O 1.31057 1.30340 0.83155
 O244 O 1.29957 1.23374 0.84027
 O245 O 1.19682 1.34374 0.78554
 O246 O 1.32331 1.18801 0.80426
 O247 O 1.22704 1.31392 0.83106
 O248 O 1.35422 1.31841 0.78729
 O249 O 1.31673 1.25553 0.77979
 O250 O 1.27182 1.31347 0.77272
 O251 O 1.24945 1.21714 0.78697
 O252 O 1.20645 1.27253 0.78047
 Zr253 Zr 1.25459 1.24782 0.69067
 Zr254 Zr 1.30139 1.20440 0.75607
 Zr255 Zr 1.21721 1.31384 0.74291
 Zr256 Zr 1.32332 1.29793 0.74314
 O257 O 1.15063 1.32091 0.74255
 O258 O 1.38641 1.27743 0.74261
 O259 O 1.26913 1.30134 0.71180
 O260 O 1.31131 1.24627 0.71910
 O261 O 1.24628 1.20422 0.72646
 O262 O 1.20212 1.26249 0.72020
 C263 C 1.34429 1.31857 0.81914
 C264 C 1.20283 1.33942 0.81763
 C265 C 1.31979 1.20287 0.83385
 O266 O 1.36793 1.19789 0.75375
 O267 O 1.31760 1.17182 0.71360
 O268 O 1.28779 1.20188 0.66806
 C269 C 1.31081 1.17546 0.68149
 O270 O 1.16579 1.21189 0.80481
 Zr271 Zr 1.19515 1.22042 0.75674
 O272 O 1.20780 1.21295 0.66874
 O273 O 1.28367 1.14764 0.76589
 O274 O 1.19366 1.16119 0.76545
 O275 O 1.13123 1.23874 0.75522
 O276 O 1.16651 1.19577 0.71387
 C277 C 1.17582 1.19567 0.68203
 O278 O 1.28973 1.26498 0.64742
 O279 O 1.23568 1.37082 0.73530
 O280 O 1.21900 1.28479 0.65868
 O281 O 1.19847 1.33201 0.69439
 O282 O 1.32716 1.35750 0.73730
 O283 O 1.34999 1.31171 0.69501
 C284 C 1.19989 1.31633 0.66504
 H285 H 1.27639 1.33847 0.78334
 H286 H 1.33585 1.24031 0.70446
 H287 H 1.17559 1.26481 0.70694
 H288 H 1.24504 1.19763 0.80479
 H289 H 1.40554 1.29943 0.74542
 H290 H 1.37403 1.17081 0.75820
 H291 H 1.31010 1.13255 0.76633
 H292 H 1.16421 1.15251 0.76158
 H293 H 1.35682 1.36500 0.74203
 H294 H 1.20940 1.38611 0.73521
 H295 H 1.14496 1.34805 0.73800
 H296 H 1.11308 1.21593 0.75356
 H297 H 1.37662 1.32604 0.69833
 H298 H 1.27587 1.25349 0.62731
 H299 H 1.24278 1.26381 0.87207
 H300 H 1.14286 1.19294 0.80259
 Zr301 Zr 0.74097 0.74027 0.80917
 O302 O 0.77885 0.76142 0.84925
 O303 O 0.69610 0.70783 0.83628
 O304 O 0.70621 0.77754 0.84071
 O305 O 0.80650 0.66624 0.78713
 O306 O 0.67860 0.82104 0.80376
 O307 O 0.77868 0.69747 0.83246
 O308 O 0.64868 0.69129 0.79516
 O309 O 0.68520 0.75291 0.78259
 O310 O 0.73009 0.69506 0.77624
 O311 O 0.75265 0.79200 0.78384
 O312 O 0.79555 0.73691 0.77815
 Zr313 Zr 0.73852 0.75511 0.69027
 Zr314 Zr 0.69780 0.80278 0.75551
 Zr315 Zr 0.78226 0.69329 0.74388
 Zr316 Zr 0.67585 0.70857 0.74871
 O317 O 0.84882 0.68730 0.74044
 O318 O 0.61246 0.72827 0.74988
 O319 O 0.72729 0.70300 0.71520
 O320 O 0.68459 0.75896 0.72149
 O321 O 0.74975 0.80086 0.72275
 O322 O 0.79429 0.74308 0.71690
 C323 C 0.66129 0.69243 0.82626
 C324 C 0.80228 0.67159 0.81924
 C325 C 0.68432 0.80747 0.83380
 O326 O 0.63119 0.80916 0.75508
 O327 O 0.68051 0.83392 0.71211
 O328 O 0.70558 0.80045 0.66700
 C329 C 0.68546 0.82857 0.68003
 O330 O 0.83902 0.79834 0.79545
 Zr331 Zr 0.80402 0.78743 0.75035
 O332 O 0.78139 0.78877 0.66293
 O333 O 0.71566 0.85990 0.76264
 O334 O 0.80574 0.84690 0.75688
 O335 O 0.86773 0.76981 0.74430
 O336 O 0.82548 0.81170 0.70401
 C337 C 0.81244 0.80944 0.67297
 O338 O 0.69787 0.73591 0.65114
 O339 O 0.76472 0.63563 0.74069
 O340 O 0.76888 0.71534 0.65815
 O341 O 0.79711 0.67266 0.69558
 O342 O 0.67142 0.64874 0.74730
 O343 O 0.64652 0.69182 0.70251
 C344 C 0.79005 0.68505 0.66533
 H345 H 0.72665 0.67066 0.78842
 H346 H 0.65891 0.76431 0.70783
 H347 H 0.81914 0.74032 0.70180
 H348 H 0.75829 0.81242 0.80036
 H349 H 0.59392 0.70618 0.75441
 H350 H 0.62536 0.83647 0.75809
 H351 H 0.68921 0.87496 0.76308
 H352 H 0.83437 0.85572 0.75024
 H353 H 0.64189 0.64183 0.75320
 H354 H 0.79134 0.62085 0.73988
 H355 H 0.85472 0.66003 0.73721
 H356 H 0.88481 0.79269 0.73925
 H357 H 0.62018 0.67768 0.70763
 H358 H 0.70926 0.74584 0.62933
 H359 H 0.76724 0.75088 0.87076
 H360 H 0.86203 0.81656 0.79036
 Zr361 Zr 1.25396 0.74059 0.19112
 O362 O 1.22437 0.76249 0.14680
 O363 O 1.30192 0.70663 0.17029
 O364 O 1.29490 0.77611 0.16308
 O365 O 1.18190 0.66819 0.20385
 O366 O 1.31666 0.82011 0.20147
 O367 O 1.22082 0.69943 0.16363
 O368 O 1.33928 0.68727 0.21687
 O369 O 1.30477 0.75191 0.22352
 O370 O 1.25665 0.69511 0.22530
 O371 O 1.23923 0.79277 0.21346
 O372 O 1.19386 0.73828 0.21472
 Zr373 Zr 1.23494 0.75648 0.30771
 Zr374 Zr 1.28879 0.80253 0.24752
 Zr375 Zr 1.19871 0.69426 0.25056
 Zr376 Zr 1.30560 0.70761 0.25887
 O377 O 1.13203 0.69004 0.24695
 O378 O 1.36947 0.72531 0.26400
 O379 O 1.24819 0.70358 0.28547
 O380 O 1.29409 0.75876 0.28345
 O381 O 1.23116 0.80215 0.27370
 O382 O 1.18416 0.74493 0.27501
 C383 C 1.33264 0.68870 0.18465
 C384 C 1.19346 0.67443 0.17276
 C385 C 1.31567 0.80602 0.17141
 O386 O 1.35482 0.80737 0.25552
 O387 O 1.29895 0.83371 0.29181
 O388 O 1.26573 0.80099 0.33427
 C389 C 1.28874 0.82866 0.32313
 O390 O 1.15669 0.80043 0.19113
 Zr391 Zr 1.18199 0.78929 0.24028
 O392 O 1.18849 0.79084 0.32903
 O393 O 1.27442 0.86002 0.23762
 O394 O 1.18310 0.84878 0.23322
 O395 O 1.11729 0.77328 0.23845
 O396 O 1.15215 0.81362 0.28310
 C397 C 1.15946 0.81120 0.31530
 O398 O 1.26679 0.73643 0.35165
 O399 O 1.21312 0.63608 0.25565
 O400 O 1.19708 0.71854 0.33619
 O401 O 1.17593 0.67398 0.29783
 O402 O 1.30734 0.64779 0.26301
 O403 O 1.32541 0.69180 0.30864
 C404 C 1.17747 0.68781 0.32809
 H405 H 1.26140 0.67055 0.21398
 H406 H 1.31719 0.76362 0.29990
 H407 H 1.15672 0.74284 0.28702
 H408 H 1.23728 0.81305 0.19605
 H409 H 1.38753 0.70248 0.26246
 H410 H 1.36206 0.83448 0.25263
 H411 H 1.30122 0.87441 0.23987
 H412 H 1.15373 0.85805 0.23607
 H413 H 1.33739 0.63994 0.26147
 H414 H 1.18597 0.62224 0.25351
 H415 H 1.12492 0.66284 0.24928
 H416 H 1.10022 0.79665 0.24049
 H417 H 1.35218 0.67736 0.30728
 H418 H 1.25187 0.74698 0.37166
 H419 H 1.23942 0.75198 0.12682
 H420 H 1.13394 0.81957 0.19286
 Zr421 Zr 0.74429 1.25577 0.19479
 O422 O 0.77513 1.23547 0.15073
 O423 O 0.69624 1.28970 0.17367
 O424 O 0.70407 1.22049 0.16621
 O425 O 0.81386 1.32861 0.21081
 O426 O 0.68210 1.17518 0.20392
 O427 O 0.77726 1.29933 0.16842
 O428 O 0.65818 1.30800 0.21997
 O429 O 0.69306 1.24285 0.22665
 O430 O 0.74028 1.29990 0.22970
 O431 O 0.75856 1.20292 0.21712
 O432 O 0.80387 1.25750 0.21922
 Zr433 Zr 0.76191 1.23655 0.31171
 Zr434 Zr 0.70866 1.19166 0.25082
 Zr435 Zr 0.79761 1.30002 0.25578
 Zr436 Zr 0.69085 1.28615 0.26234
 O437 O 0.86428 1.30470 0.25226
 O438 O 0.62728 1.26712 0.26578
 O439 O 0.74776 1.28965 0.28979
 O440 O 0.70291 1.23474 0.28684
 O441 O 0.76618 1.19159 0.27742
 O442 O 0.81288 1.24915 0.27976
 C443 C 0.66537 1.30738 0.18779
 C444 C 0.80304 1.32483 0.17947
 C445 C 0.68331 1.19027 0.17402
 O446 O 0.64233 1.18615 0.25664
 O447 O 0.69493 1.16119 0.29596
 O448 O 0.73175 1.19178 0.33750
 C449 C 0.70597 1.16608 0.32723
 O450 O 0.84085 1.19532 0.19527
 Zr451 Zr 0.81550 1.20583 0.24437
 O452 O 0.80981 1.20262 0.33303
 O453 O 0.72431 1.13442 0.24201
 O454 O 0.81491 1.14643 0.23730
 O455 O 0.87993 1.22269 0.24251
 O456 O 0.84614 1.18132 0.28685
 C457 C 0.83944 1.18316 0.31910
 O458 O 0.72910 1.25375 0.35600
 O459 O 0.78281 1.35793 0.26216
 O460 O 0.79560 1.27594 0.34143
 O461 O 0.81967 1.31934 0.30282
 O462 O 0.68851 1.34577 0.26766
 O463 O 0.66932 1.30059 0.31178
 C464 C 0.81527 1.30661 0.33328
 H465 H 0.73544 1.32487 0.21887
 H466 H 0.67955 1.22972 0.30302
 H467 H 0.84005 1.25152 0.29216
 H468 H 0.76092 1.18303 0.19961
 H469 H 0.60875 1.28963 0.26392
 H470 H 0.63549 1.15902 0.25356
 H471 H 0.69752 1.11989 0.24355
 H472 H 0.84436 1.13729 0.24016
 H473 H 0.65848 1.35354 0.26550
 H474 H 0.80980 1.37215 0.26050
 H475 H 0.87133 1.33176 0.25544
 H476 H 0.89745 1.19951 0.24431
 H477 H 0.64187 1.31396 0.30998
 H478 H 0.74434 1.24319 0.37601
 H479 H 0.76042 1.24666 0.13077
 H480 H 0.86395 1.17649 0.19710
 O481 O 0.47893 1.06642 0.04551
 O482 O 0.51795 0.93706 0.04386
 O483 O 0.42654 0.97981 0.04375
 O484 O 0.57071 1.02317 0.04188
 O485 O 0.44703 0.92887 0.02184
 O486 O 0.54932 1.07491 0.02163
 O487 O 0.57713 0.95941 0.02651
 O488 O 0.41916 1.04421 0.02931
 C489 C 0.44057 1.06215 0.05075
 C490 C 0.55633 0.94154 0.04854
 C491 C 0.42950 0.94520 0.04587
 C492 C 0.56764 1.05762 0.04494
 O493 O 0.51627 1.06777 -0.04118
 O494 O 0.47701 0.93834 -0.04170
 O495 O 0.42482 1.02531 -0.03898
 O496 O 0.56825 0.98034 -0.04149
 O497 O 0.54783 0.92883 -0.01983
 O498 O 0.44668 1.07607 -0.01729
 O499 O 0.57609 1.04475 -0.02626
 O500 O 0.41789 0.96059 -0.02442
 Co501 Co 0.49785 1.06430 0.00213
 Co502 Co 0.49747 0.94036 0.00109
 Co503 Co 0.42915 1.00242 0.00231
 Co504 Co 0.56605 1.00199 0.00023
 O505 O 0.49763 1.00228 0.00144
 C506 C 0.55409 1.06263 -0.04755
 C507 C 0.43870 0.94318 -0.04651
 C508 C 0.42786 1.05999 -0.04086
 C509 C 0.56627 0.94562 -0.04339
 O510 O 0.96860 0.55695 0.55032
 O511 O 1.03559 0.42814 0.52865
 O512 O 0.92156 0.47367 0.53860
 O513 O 1.09240 0.53769 0.51699
 O514 O 0.95898 0.42601 0.51873
 O515 O 1.03968 0.55077 0.54681
 O516 O 1.06420 0.47946 0.54470
 O517 O 0.91296 0.54349 0.52350
 C518 C 0.92984 0.55763 0.54874
 C519 C 1.05791 0.44536 0.54966
 C520 C 0.93432 0.44010 0.54100
 C521 C 1.07827 0.55315 0.54283
 O522 O 1.03996 0.57056 0.47822
 O523 O 0.97659 0.44766 0.45151
 O524 O 0.92373 0.52853 0.46097
 O525 O 1.10619 0.46793 0.48972
 O526 O 1.04930 0.44944 0.46329
 O527 O 0.96172 0.57610 0.48135
 O528 O 1.06425 0.51750 0.45857
 O529 O 0.91779 0.45821 0.47487
 Co530 Co 1.00225 0.55904 0.51314
 Co531 Co 1.00414 0.44295 0.49163
 Co532 Co 0.92658 0.50087 0.49988
 Co533 Co 1.06113 0.49717 0.50139
 O534 O 0.99654 0.50174 0.50275
 C535 C 1.05915 0.55245 0.45519
 C536 C 0.93786 0.44571 0.45039
 C537 C 0.93689 0.56217 0.45888
 C538 C 1.08830 0.44398 0.46912
 O539 O 1.04459 0.46784 0.05410
 O540 O 1.05094 0.51554 -0.05923
 O541 O 1.04183 0.43001 -0.02398
 O542 O 1.05285 0.55519 0.02387
 O543 O 1.02123 0.45472 -0.06999
 O544 O 1.02216 0.53112 0.06647
 O545 O 1.03573 0.56803 -0.03547
 O546 O 1.01852 0.41885 0.03114
 C547 C 1.04768 0.43385 0.04777
 C548 C 1.05850 0.54954 -0.05572
 C549 C 1.04792 0.43528 -0.05445
 C550 C 1.05324 0.54818 0.05473
 O551 O 0.94193 0.51178 0.05575
 O552 O 0.94251 0.48535 -0.06287
 O553 O 0.93599 0.43393 0.01055
 O554 O 0.95107 0.56737 -0.01819
 O555 O 0.97411 0.54709 -0.06516
 O556 O 0.96228 0.44667 0.05838
 O557 O 0.96796 0.56519 0.04011
 O558 O 0.95910 0.42996 -0.04662
 Co559 Co 0.99308 0.48979 0.05236
 Co560 Co 0.99682 0.50001 -0.05814
 Co561 Co 0.98931 0.43476 -0.00679
 Co562 Co 1.00148 0.55730 0.00209
 O563 O 0.99509 0.49561 -0.00269
 C564 C 0.93994 0.54674 0.05578
 C565 C 0.93470 0.45125 -0.06282
 C566 C 0.93237 0.43345 0.04174
 C567 C 0.94715 0.56556 -0.04929
 O568 O 0.52658 0.95648 0.56068
 O569 O 0.50993 1.03975 0.42701
 O570 O 0.52216 0.92522 0.45790
 O571 O 0.53083 1.07096 0.52832
 O572 O 0.53835 0.97778 0.43431
 O573 O 0.55235 1.01841 0.54845
 O574 O 0.54367 1.06083 0.46886
 O575 O 0.54727 0.93401 0.51391
 C576 C 0.55326 0.93796 0.54461
 C577 C 0.54238 1.05523 0.43793
 C578 C 0.54547 0.94377 0.43800
 C579 C 0.55762 1.05269 0.54541
 O580 O 0.47416 1.04640 0.56088
 O581 O 0.45958 0.94992 0.43433
 O582 O 0.46525 0.92901 0.53845
 O583 O 0.45615 1.06721 0.45732
 O584 O 0.43275 1.01311 0.44188
 O585 O 0.44713 0.98281 0.55860
 O586 O 0.44465 1.06435 0.51555
 O587 O 0.43950 0.93202 0.48271
 Co588 Co 0.49936 1.00082 0.55080
 Co589 Co 0.48587 0.99539 0.44056
 Co590 Co 0.49349 0.93653 0.49791
 Co591 Co 0.49401 1.05942 0.49273
 O592 O 0.49307 0.99802 0.49556
 C593 C 0.44445 1.06353 0.54679
 C594 C 0.43267 0.93349 0.45200
 C595 C 0.44176 0.94827 0.55735
 C596 C 0.42796 1.04770 0.44315
 O597 O 1.08085 1.04356 0.48466
 O598 O 0.93545 1.04404 0.52392
 O599 O 0.98585 1.04374 0.44636
 O600 O 1.02917 1.05027 0.56172
 O601 O 0.92765 1.02455 0.46831
 O602 O 1.08826 1.03055 0.54171
 O603 O 0.95856 1.02405 0.57065
 O604 O 1.05726 1.01947 0.43974
 C605 C 1.07515 1.04636 0.45388
 C606 C 0.94001 1.04912 0.55446
 C607 C 0.94749 1.04858 0.45098
 C608 C 1.06753 1.05563 0.55677
 O609 O 1.08130 0.95277 0.52849
 O610 O 0.93676 0.94957 0.48921
 O611 O 1.02777 0.94933 0.44929
 O612 O 0.99037 0.95456 0.56734
 O613 O 0.93015 0.96915 0.54638
 O614 O 1.08727 0.96755 0.46943
 O615 O 1.06015 0.98113 0.57186
 O616 O 0.95722 0.97247 0.44244
 Co617 Co 1.07729 0.99834 0.50612
 Co618 Co 0.93970 0.99688 0.50699
 Co619 Co 1.00719 0.99654 0.45065
 Co620 Co 1.00933 1.00216 0.56187
 O621 O 1.00837 0.99845 0.50638
 C622 C 1.07603 0.95233 0.55957
 C623 C 0.93991 0.94615 0.45816
 C624 C 1.06606 0.94399 0.45293
 C625 C 0.95225 0.94757 0.56454
 O626 O 0.58416 0.53366 -0.02263
 O627 O 0.43566 0.55219 0.02331
 O628 O 0.46606 0.50960 -0.07233
 O629 O 0.53488 0.54330 0.06569
 O630 O 0.44596 0.54462 -0.03325
 O631 O 0.58863 0.52022 0.03795
 O632 O 0.45762 0.52957 0.07044
 O633 O 0.52623 0.54696 -0.04793
 C634 C 0.56312 0.55581 -0.04081
 C635 C 0.43878 0.55468 0.05437
 C636 C 0.44441 0.53693 -0.06374
 C637 C 0.57301 0.54474 0.05765
 O638 O 0.56793 0.44611 0.02360
 O639 O 0.43027 0.46726 -0.02812
 O640 O 0.54354 0.48657 -0.08033
 O641 O 0.47171 0.45852 0.06740
 O642 O 0.41955 0.47679 0.03374
 O643 O 0.56790 0.45895 -0.03482
 O644 O 0.54993 0.47104 0.07047
 O645 O 0.49204 0.44876 -0.04579
 Co646 Co 0.57091 0.49091 0.00151
 Co647 Co 0.43845 0.50912 -0.00071
 Co648 Co 0.51060 0.49784 -0.04447
 Co649 Co 0.50381 0.50064 0.06256
 O650 O 0.50378 0.50075 0.00672
 C651 C 0.56493 0.44376 0.05478
 C652 C 0.45306 0.44286 -0.04280
 C653 C 0.57159 0.46458 -0.06652
 C654 C 0.43427 0.45530 0.05699
 C655 C 0.38158 1.12544 0.12815
 C656 C 0.36241 1.12124 0.09618
 N657 N 0.32553 1.13948 0.08936
 C658 C 0.30681 1.16171 0.11311
 C659 C 0.32537 1.16536 0.14544
 N660 N 0.36238 1.14693 0.15217
 N661 N 0.41944 1.10855 0.13441
 C662 C 0.43909 1.08770 0.11008
 C663 C 0.41957 1.08285 0.07828
 N664 N 0.38155 1.09976 0.07217
 H665 H 0.27734 1.17583 0.10704
 H666 H 0.46950 1.07491 0.11551
 C667 C 0.86327 0.61879 0.62322
 C668 C 0.85018 0.62021 0.58916
 N669 N 0.81746 0.64326 0.58018
 C670 C 0.79726 0.66491 0.60379
 C671 C 0.81007 0.66302 0.63801
 N672 N 0.84280 0.63983 0.64664
 N673 N 0.89681 0.59706 0.63233
 C674 C 0.91823 0.57669 0.60881
 C675 C 0.90517 0.57762 0.57468
 N676 N 0.87120 0.59933 0.56560
 H677 H 0.77136 0.68302 0.59600
 H678 H 0.94523 0.55991 0.61665
 C679 C 0.61515 0.87889 0.12707
 C680 C 0.63439 0.88277 0.09505
 N681 N 0.67105 0.86419 0.08859
 C682 C 0.68947 0.84192 0.11271
 C683 C 0.67075 0.83848 0.14503
 N684 N 0.63399 0.85728 0.15143
 N685 N 0.57752 0.89617 0.13302
 C686 C 0.55814 0.91703 0.10833
 C687 C 0.57764 0.92140 0.07644
 N688 N 0.61546 0.90418 0.07063
 H689 H 0.71883 0.82758 0.10690
 H690 H 0.52784 0.93008 0.11350
 C691 C 1.13388 0.38916 0.62237
 C692 C 1.12137 0.37091 0.59248
 N693 N 1.13658 0.33576 0.58572
 C694 C 1.16344 0.31786 0.60771
 C695 C 1.17539 0.33581 0.63808
 N696 N 1.16011 0.37114 0.64446
 N697 N 1.11965 0.42463 0.62886
 C698 C 1.09369 0.44292 0.60657
 C699 C 1.08080 0.42475 0.57663
 N700 N 1.09504 0.38901 0.57037
 H701 H 1.17434 0.28960 0.60200
 H702 H 1.08361 0.47148 0.61197
 C703 C 0.60550 1.12419 -0.13019
 C704 C 0.62603 1.12329 -0.09846
 N705 N 0.66112 1.14468 -0.09354
 C706 C 0.67674 1.16697 -0.11886
 C707 C 0.65678 1.16760 -0.15089
 N708 N 0.62162 1.14588 -0.15585
 N709 N 0.56924 1.10407 -0.13451
 C710 C 0.55249 1.08331 -0.10850
 C711 C 0.57332 1.08199 -0.07690
 N712 N 0.60976 1.10201 -0.07271
 H713 H 0.70497 1.18352 -0.11417
 H714 H 0.52313 1.06808 -0.11237
 C715 C 1.12123 0.61120 0.37539
 C716 C 1.10979 0.62968 0.40548
 N717 N 1.12087 0.66642 0.40992
 C718 C 1.14296 0.68561 0.38564
 C719 C 1.15425 0.66739 0.35523
 N720 N 1.14283 0.63049 0.35087
 N721 N 1.11123 0.57408 0.37148
 C722 C 1.09055 0.55454 0.39641
 C723 C 1.07885 0.57303 0.42654
 N724 N 1.08872 0.61032 0.43018
 H725 H 1.15117 0.71493 0.38992
 H726 H 1.08348 0.52486 0.39281
 C727 C 0.38091 0.88216 -0.12590
 C728 C 0.36058 0.88622 -0.09440
 N729 N 0.32345 0.86788 -0.08860
 C730 C 0.30576 0.84553 -0.11284
 C731 C 0.32583 0.84169 -0.14455
 N732 N 0.36292 0.86037 -0.15029
 N733 N 0.41899 0.89905 -0.13119
 C734 C 0.43788 0.91960 -0.10627
 C735 C 0.41749 0.92395 -0.07480
 N736 N 0.37911 0.90724 -0.06969
 H737 H 0.27621 0.83114 -0.10751
 H738 H 0.46858 0.93227 -0.11089
 C739 C 0.88276 0.37763 0.37522
 C740 C 0.86770 0.37658 0.40877
 N741 N 0.83675 0.35164 0.41747
 C742 C 0.81993 0.32781 0.39400
 C743 C 0.83436 0.32945 0.36022
 N744 N 0.86546 0.35444 0.35175
 N745 N 0.91471 0.40154 0.36668
 C746 C 0.93253 0.42444 0.39033
 C747 C 0.91715 0.42382 0.42380
 N748 N 0.88498 0.39991 0.43225
 H749 H 0.79496 0.30849 0.40145
 H750 H 0.95845 0.44288 0.38313
 C751 C 1.13580 0.36527 0.09982
 C752 C 1.13030 0.40343 0.10857
 N753 N 1.14978 0.41731 0.13659
 C754 C 1.17354 0.39450 0.15689
 C755 C 1.17790 0.35599 0.14894
 N756 N 1.15942 0.34239 0.12019
 N757 N 1.11471 0.35107 0.07263
 C758 C 1.08757 0.37303 0.05430
 C759 C 1.08095 0.41086 0.06376
 N760 N 1.10311 0.42526 0.09040
 H761 H 1.18763 0.40598 0.17973
 H762 H 1.07044 0.36078 0.03320
 C763 C 0.63910 0.87270 0.60234
 C764 C 0.61830 0.90403 0.61632
 N765 N 0.62244 0.91161 0.64986
 C766 C 0.64562 0.88874 0.67044
 C767 C 0.66510 0.85624 0.65704
 N768 N 0.66184 0.84931 0.62302
 N769 N 0.63428 0.86516 0.56869
 C770 C 0.60880 0.88702 0.54864
 C771 C 0.58647 0.91732 0.56312
 N772 N 0.59235 0.92522 0.59657
 H773 H 0.64770 0.89537 0.69722
 H774 H 0.60462 0.87983 0.52213
 C775 C 1.13387 0.60580 -0.12955
 C776 C 1.13049 0.62046 -0.09654
 N777 N 1.15076 0.65317 -0.08895
 C778 C 1.17371 0.67217 -0.11287
 C779 C 1.17540 0.65871 -0.14675
 N780 N 1.15534 0.62548 -0.15392
 N781 N 1.11542 0.57218 -0.13680
 C782 C 1.09314 0.55285 -0.11277
 C783 C 1.08764 0.56831 -0.08008
 N784 N 1.10671 0.60193 -0.07273
 H785 H 1.18915 0.69825 -0.10559
 H786 H 1.07848 0.52629 -0.11961
 C787 C 0.62940 1.09981 0.36662
 C788 C 0.63457 1.10727 0.40145
 N789 N 0.66582 1.13113 0.41153
 C790 C 0.69134 1.14859 0.38834
 C791 C 0.68490 1.14246 0.35330
 N792 N 0.65429 1.11771 0.34351
 N793 N 0.59801 1.07645 0.35627
 C794 C 0.57087 1.06077 0.37905
 C795 C 0.57471 1.06922 0.41389
 N796 N 0.60700 1.09200 0.42436
 H797 H 0.71519 1.16823 0.39716
 H798 H 0.54582 1.04259 0.36983
 C799 C 0.86357 0.60449 0.12654
 C800 C 0.87807 0.62289 0.09697
 N801 N 0.86937 0.66011 0.09218
 C802 C 0.84729 0.67990 0.11579
 C803 C 0.83433 0.66200 0.14609
 N804 N 0.84271 0.62454 0.15068
 N805 N 0.87132 0.56704 0.13089
 C806 C 0.89362 0.54729 0.10737
 C807 C 0.91004 0.56604 0.07855
 N808 N 0.90159 0.60350 0.07402
 H809 H 0.84117 0.70967 0.11148
 H810 H 0.90006 0.51761 0.11191
 C811 C 0.35927 1.12993 0.60495
 C812 C 0.38411 1.10162 0.62028
 N813 N 0.38216 1.09636 0.65438
 C814 C 0.35721 1.11850 0.67407
 C815 C 0.33330 1.14804 0.65924
 N816 N 0.33471 1.15276 0.62473
 N817 N 0.36127 1.13484 0.57067
 C818 C 0.38729 1.11313 0.55119
 C819 C 0.41325 1.08555 0.56667
 N820 N 0.41066 1.08046 0.60096
 H821 H 0.35708 1.11362 0.70127
 H822 H 0.38849 1.11802 0.52400
 C823 C 0.85239 0.40062 -0.13377
 C824 C 0.86064 0.38309 -0.10229
 N825 N 0.84440 0.34830 -0.09569
 C826 C 0.82095 0.32986 -0.11938
 C827 C 0.81453 0.34637 -0.15163
 N828 N 0.83028 0.38162 -0.15797
 N829 N 0.86795 0.43579 -0.14002
 C830 C 0.89220 0.45386 -0.11654
 C831 C 0.90257 0.43542 -0.08582
 N832 N 0.88617 0.40049 -0.07939
 H833 H 0.80914 0.30179 -0.11361
 H834 H 0.90500 0.48152 -0.12253
 C835 C 0.34070 0.86931 0.39975
 C836 C 0.35688 0.90315 0.38604
 N837 N 0.34607 0.91383 0.35410
 C838 C 0.32105 0.89157 0.33460
 C839 C 0.30697 0.85631 0.34715
 N840 N 0.31648 0.84631 0.37989
 N841 N 0.35198 0.85892 0.43188
 C842 C 0.37948 0.88030 0.45044
 C843 C 0.39755 0.91296 0.43580
 N844 N 0.38521 0.92370 0.40406
 H845 H 0.31391 0.90058 0.30887
 H846 H 0.38877 0.87090 0.47561
 C847 C 1.12615 1.13609 0.39551
 C848 C 1.09506 1.11203 0.38202
 N849 N 1.08241 1.11659 0.34931
 C850 C 1.10018 1.14353 0.32911
 C851 C 1.13276 1.16668 0.34198
 N852 N 1.14457 1.16259 0.37516
 N853 N 1.13871 1.13142 0.42830
 C854 C 1.12202 1.10342 0.44806
 C855 C 1.09200 1.07844 0.43418
 N856 N 1.07903 1.08366 0.40148
 H857 H 1.08997 1.14583 0.30289
 H858 H 1.13286 1.10013 0.47402
 C859 C 0.62800 0.63974 -0.09624
 C860 C 0.58638 0.62947 -0.10484
 N861 N 0.56913 0.64235 -0.13427
 C862 C 0.59195 0.66425 -0.15604
 C863 C 0.63427 0.67338 -0.14829
 N864 N 0.65104 0.66139 -0.11815
 N865 N 0.64566 0.62562 -0.06735
 C866 C 0.62411 0.60073 -0.04726
 C867 C 0.58317 0.58901 -0.05673
 N868 N 0.56511 0.60432 -0.08505
 H869 H 0.57750 0.67351 -0.17963
 H870 H 0.63952 0.58886 -0.02503
 C871 C 0.87737 1.13433 0.60857
 C872 C 0.90802 1.11135 0.62422
 N873 N 0.91552 1.11445 0.65800
 C874 C 0.89299 1.13898 0.67716
 C875 C 0.86099 1.16098 0.66190
 N876 N 0.85436 1.15846 0.62777
 N877 N 0.86973 1.13078 0.57475
 C878 C 0.89079 1.10464 0.55603
 C879 C 0.92018 1.08062 0.57210
 N880 N 0.92838 1.08498 0.60574
 H881 H 0.89924 1.14036 0.70419
 H882 H 0.88365 1.10182 0.52924
 C883 C 0.37551 0.63887 0.10976
 C884 C 0.40744 0.61678 0.12479
 N885 N 0.41653 0.62081 0.15823
 C886 C 0.39438 0.64535 0.17767
 C887 C 0.36103 0.66638 0.16314
 N888 N 0.35278 0.66293 0.12930
 N889 N 0.36647 0.63456 0.07624
 C890 C 0.38746 0.60864 0.05724
 C891 C 0.41826 0.58550 0.07269
 N892 N 0.42772 0.59049 0.10606
 H893 H 0.40192 0.64739 0.20446
 H894 H 0.37926 0.60532 0.03068
 C895 C 1.11806 0.86848 0.62847
 C896 C 1.13171 0.86755 0.59451
 N897 N 1.16076 0.84128 0.58514
 C898 C 1.17748 0.81661 0.60834
 C899 C 1.16485 0.81852 0.64281
 N900 N 1.13471 0.84414 0.65146
 N901 N 1.09040 0.89525 0.63859
 C902 C 1.07604 0.92168 0.61642
 C903 C 1.08978 0.92147 0.58237
 N904 N 1.11719 0.89405 0.57201
 H905 H 1.20127 0.79667 0.60005
 H906 H 1.05461 0.94312 0.62562
 C907 C 0.62315 0.35710 0.11182
 C908 C 0.59305 0.38113 0.12656
 N909 N 0.58472 0.37844 0.16028
 C910 C 0.60592 0.35339 0.18023
 C911 C 0.63760 0.33043 0.16594
 N912 N 0.64503 0.33258 0.13185
 N913 N 0.63147 0.36005 0.07803
 C914 C 0.61164 0.38652 0.05846
 C915 C 0.58292 0.41169 0.07359
 N916 N 0.57405 0.40800 0.10726
 H917 H 0.59909 0.35249 0.20719
 H918 H 0.61943 0.38880 0.03172
 C919 C 0.87767 0.86413 0.39868
 C920 C 0.90991 0.88705 0.38522
 N921 N 0.91952 0.88521 0.35173
 C922 C 0.89778 0.86196 0.33071
 C923 C 0.86430 0.83978 0.34361
 N924 N 0.85534 0.84112 0.37756
 N925 N 0.86820 0.86649 0.43236
 C926 C 0.88900 0.89130 0.45295
 C927 C 0.92013 0.91526 0.43902
 N928 N 0.92994 0.91209 0.40552
 H929 H 0.90604 0.86157 0.30401
 H930 H 0.88028 0.89324 0.47950
 C931 C 0.38431 0.36571 -0.10265
 C932 C 0.42425 0.37870 -0.11315
 N933 N 0.43802 0.37069 -0.14501
 C934 C 0.41348 0.35075 -0.16705
 C935 C 0.37301 0.33826 -0.15692
 N936 N 0.35974 0.34581 -0.12465
 N937 N 0.36979 0.37500 -0.07129
 C938 C 0.39289 0.39750 -0.05028
 C939 C 0.43242 0.41149 -0.06103
 N940 N 0.44730 0.40128 -0.09220
 H941 H 0.42526 0.34515 -0.19236
 H942 H 0.37982 0.40562 -0.02595
 C943 C 1.14350 0.37674 -0.10798
 C944 C 1.12168 0.40718 -0.12301
 N945 N 1.12976 0.41682 -0.15573
 C946 C 1.15782 0.39682 -0.17452
 C947 C 1.17840 0.36508 -0.16022
 N948 N 1.17110 0.35613 -0.12695
 N949 N 1.13518 0.36726 -0.07513
 C950 C 1.10561 0.38642 -0.05688
 C951 C 1.08260 0.41598 -0.07237
 N952 N 1.09162 0.42579 -0.10507
 H953 H 1.16287 0.40496 -0.20078
 H954 H 1.09930 0.37796 -0.03087
 C955 C 0.62973 0.89117 0.36962
 C956 C 0.62000 0.87361 0.40081
 N957 N 0.63727 0.83936 0.40826
 C958 C 0.66333 0.82174 0.38576
 C959 C 0.67170 0.83871 0.35398
 N960 N 0.65467 0.87315 0.34686
 N961 N 0.61354 0.92569 0.36227
 C962 C 0.58760 0.94344 0.38450
 C963 C 0.57637 0.92553 0.41531
 N964 N 0.59301 0.89088 0.42282
 H965 H 0.67618 0.79422 0.39212
 H966 H 0.57487 0.97086 0.37766
 C967 C 0.85797 0.63059 -0.10500
 C968 C 0.88091 0.60119 -0.12021
 N969 N 0.87589 0.59412 -0.15373
 C970 C 0.84956 0.61549 -0.17309
 C971 C 0.82735 0.64598 -0.15851
 N972 N 0.83184 0.65257 -0.12448
 N973 N 0.86326 0.63724 -0.07123
 C974 C 0.89077 0.61616 -0.05221
 C975 C 0.91464 0.58746 -0.06778
 N976 N 0.90872 0.58068 -0.10144
 H977 H 0.84677 0.60906 -0.19988
 H978 H 0.89469 0.62233 -0.02546
 C979 C 0.34547 1.10294 0.37553
 C980 C 0.36245 1.12222 0.40358
 N981 N 0.35527 1.15980 0.40704
 C982 C 0.33246 1.17913 0.38338
 C983 C 0.31733 1.16025 0.35444
 N984 N 0.32395 1.12246 0.35129
 N985 N 0.35197 1.06523 0.37242
 C986 C 0.37572 1.04608 0.39559
 C987 C 0.39500 1.06579 0.42251
 N988 N 0.38745 1.10342 0.42603
 H989 H 0.32754 1.20921 0.38646
 H990 H 0.38141 1.01620 0.39190
 C991 C 1.13087 0.60023 0.12845
 C992 C 1.13173 0.61310 0.09453
 N993 N 1.15438 0.64458 0.08664
 C994 C 1.17565 0.66401 0.11110
 C995 C 1.17357 0.65199 0.14534
 N996 N 1.15133 0.62006 0.15302
 N997 N 1.10838 0.56880 0.13649
 C998 C 1.08572 0.55023 0.11244
 C999 C 1.08462 0.56400 0.07872
 N1000 N 1.10827 0.59500 0.07045
 H1001 H 1.19296 0.68926 0.10395
 H1002 H 1.06739 0.52567 0.11992
 C1003 C 0.63925 1.10602 0.61544
 C1004 C 0.62190 1.12685 0.58821
 N1005 N 0.62945 1.16460 0.58607
 C1006 C 0.65303 1.18247 0.61014
 C1007 C 0.66866 1.16190 0.63819
 N1008 N 0.66149 1.12404 0.64006
 N1009 N 0.63285 1.06821 0.61722
 C1010 C 0.60907 1.05027 0.59352
 C1011 C 0.58952 1.07121 0.56719
 N1012 N 0.59675 1.10917 0.56504
 H1013 H 0.65829 1.21266 0.60807
 H1014 H 0.60395 1.02012 0.59619
 C1015 C 0.84626 0.36885 0.10000
 C1016 C 0.86749 0.40022 0.11358
 N1017 N 0.86447 0.40783 0.14715
 C1018 C 0.84209 0.38492 0.16820
 C1019 C 0.82229 0.35222 0.15536
 N1020 N 0.82424 0.34526 0.12122
 N1021 N 0.85015 0.36146 0.06619
 C1022 C 0.87518 0.38342 0.04571
 C1023 C 0.89814 0.41359 0.05991
 N1024 N 0.89305 0.42133 0.09345
 H1025 H 0.84085 0.39174 0.19498
 H1026 H 0.87889 0.37618 0.01917
 C1027 C 0.37360 0.88856 0.63184
 C1028 C 0.37577 0.87511 0.59836
 N1029 N 0.35749 0.84164 0.59046
 C1030 C 0.33735 0.82073 0.61457
 C1031 C 0.33666 0.83323 0.64869
 N1032 N 0.35492 0.86710 0.65625
 N1033 N 0.39040 0.92280 0.63943
 C1034 C 0.41006 0.94388 0.61513
 C1035 C 0.41425 0.92948 0.58205
 N1036 N 0.39683 0.89541 0.57443
 H1037 H 0.32310 0.79415 0.60714
 H1038 H 0.42410 0.97072 0.62200
 C1039 C 0.36800 1.12344 -0.11835
 C1040 C 0.37912 1.14038 -0.08747
 N1041 N 0.36998 1.17750 -0.08237
 C1042 C 0.35032 1.19850 -0.10689
 C1043 C 0.33987 1.18171 -0.13811
 N1044 N 0.34907 1.14449 -0.14290
 N1045 N 0.37615 1.08619 -0.12330
 C1046 C 0.39506 1.06497 -0.09869
 C1047 C 0.40689 1.08191 -0.06788
 N1048 N 0.39863 1.11936 -0.06305
 H1049 H 0.34356 1.22803 -0.10226
 H1050 H 0.40125 1.03533 -0.10327
 C1051 C 0.88904 0.62486 0.37572
 C1052 C 0.89717 0.64275 0.40689
 N1053 N 0.88607 0.67954 0.41088
 C1054 C 0.86666 0.69906 0.38533
 C1055 C 0.85799 0.68104 0.35424
 N1056 N 0.86989 0.64438 0.35019
 N1057 N 0.89850 0.58775 0.37201
 C1058 C 0.91510 0.56745 0.39821
 C1059 C 0.92280 0.58501 0.42963
 N1060 N 0.91407 0.62251 0.43314
 H1061 H 0.85763 0.72821 0.38940
 H1062 H 0.92180 0.53770 0.39469
 C1063 C 0.62877 1.11497 0.12524
 C1064 C 0.61707 1.13427 0.09538
 N1065 N 0.62689 1.17148 0.09180
 C1066 C 0.64805 1.19027 0.11668
 C1067 C 0.65966 1.17110 0.14674
 N1068 N 0.64946 1.13381 0.15025
 N1069 N 0.62001 1.07752 0.12844
 C1070 C 0.60022 1.05840 0.10306
 C1071 C 0.58826 1.07766 0.07316
 N1072 N 0.59687 1.11531 0.07017
 H1073 H 0.65554 1.21991 0.11308
 H1074 H 0.59377 1.02851 0.10622
 C1075 C 1.14042 0.60627 0.62378
 C1076 C 1.15297 0.61375 0.59004
 N1077 N 1.18143 0.64160 0.58374
 C1078 C 1.19755 0.66259 0.60951
 C1079 C 1.18446 0.65564 0.64329
 N1080 N 1.15644 0.62725 0.64955
 N1081 N 1.11092 0.57934 0.63009
 C1082 C 1.09266 0.56014 0.60418
 C1083 C 1.10436 0.56813 0.57037
 N1084 N 1.13462 0.59459 0.56403
 H1085 H 1.22011 0.68471 0.60353
 H1086 H 1.06799 0.53977 0.60982
 C1087 C 0.63116 0.88506 -0.11970
 C1088 C 0.62145 0.86787 -0.08845
 N1089 N 0.63368 0.83155 -0.08255
 C1090 C 0.65497 0.81153 -0.10661
 C1091 C 0.66390 0.82842 -0.13828
 N1092 N 0.65166 0.86491 -0.14388
 N1093 N 0.61988 0.92160 -0.12543
 C1094 C 0.59918 0.94183 -0.10128
 C1095 C 0.58866 0.92457 -0.07013
 N1096 N 0.60012 0.88785 -0.06451
 H1097 H 0.66394 0.78254 -0.10135
 H1098 H 0.59062 0.97094 -0.10649
 C1099 C 1.15156 0.36849 0.40383
 C1100 C 1.10975 0.38003 0.39778
 N1101 N 1.08891 0.36789 0.36974
 C1102 C 1.10816 0.34488 0.34705
 C1103 C 1.14998 0.33311 0.35286
 N1104 N 1.17077 0.34505 0.38130
 N1105 N 1.17257 0.38202 0.43147
 C1106 C 1.15358 0.40666 0.45326
 C1107 C 1.11164 0.41795 0.44715
 N1108 N 1.09092 0.40408 0.41958
 H1109 H 1.09113 0.33608 0.32453
 H1110 H 1.17085 0.41707 0.47508
 C1111 C 0.36975 0.88365 0.12476
 C1112 C 0.38118 0.86593 0.09429
 N1113 N 0.37148 0.82890 0.08962
 C1114 C 0.35065 0.80876 0.11401
 C1115 C 0.33929 0.82636 0.14466
 N1116 N 0.34938 0.86346 0.14925
 N1117 N 0.37835 0.92094 0.12907
 C1118 C 0.39774 0.94145 0.10418
 C1119 C 0.40940 0.92378 0.07367
 N1120 N 0.40095 0.88628 0.06958
 H1121 H 0.34316 0.77932 0.10955
 H1122 H 0.40407 0.97119 0.10820
 C1123 C 0.88357 0.37674 0.62245
 C1124 C 0.89353 0.35894 0.59161
 N1125 N 0.88347 0.32191 0.58738
 C1126 C 0.86332 0.30206 0.61236
 C1127 C 0.85282 0.32005 0.64306
 N1128 N 0.86371 0.35693 0.64735
 N1129 N 0.89196 0.41404 0.62640
 C1130 C 0.90930 0.43462 0.60072
 C1131 C 0.91886 0.41714 0.56963
 N1132 N 0.91119 0.37946 0.56590
 H1133 H 0.85505 0.27275 0.60810
 H1134 H 0.91521 0.46449 0.60443
 C1135 C 1.13793 1.13808 0.60936
 C1136 C 1.09710 1.12784 0.62025
 N1137 N 1.08215 1.14136 0.65011
 C1138 C 1.10640 1.16412 0.66992
 C1139 C 1.14769 1.17383 0.65951
 N1140 N 1.16223 1.16087 0.62913
 N1141 N 1.15346 1.12339 0.58012
 C1142 C 1.13041 1.09828 0.56167
 C1143 C 1.08995 1.08724 0.57296
 N1144 N 1.07409 1.10275 0.60186
 H1145 H 1.09372 1.17409 0.69380
 H1146 H 1.14403 1.08622 0.53894
 C1147 C 0.64797 0.62491 0.10998
 C1148 C 0.60542 0.61846 0.11852
 N1149 N 0.58808 0.63644 0.14543
 C1150 C 0.61152 0.66030 0.16469
 C1151 C 0.65429 0.66668 0.15666
 N1152 N 0.67156 0.64903 0.12918
 N1153 N 0.66531 0.60566 0.08357
 C1154 C 0.64211 0.58002 0.06558
 C1155 C 0.59959 0.57336 0.07445
 N1156 N 0.58245 0.59313 0.10060
 H1157 H 0.59704 0.67384 0.18639
 H1158 H 0.65675 0.56483 0.04488
 C1159 C 1.12916 0.86538 0.39139
 C1160 C 1.08923 0.87941 0.38217
 N1161 N 1.07237 0.87032 0.35150
 C1162 C 1.09388 0.84801 0.32940
 C1163 C 1.13393 0.83398 0.33857
 N1164 N 1.15037 0.84285 0.36954
 N1165 N 1.14690 0.87580 0.42138
 C1166 C 1.12668 0.90017 0.44246
 C1167 C 1.08683 0.91444 0.43318
 N1168 N 1.06892 0.90341 0.40332
 H1169 H 1.07994 0.84140 0.30499
 H1170 H 1.14177 0.90871 0.46593
 C1171 C 0.63428 0.38183 -0.12349
 C1172 C 0.60306 0.40481 -0.13848
 N1173 N 0.59106 0.39867 -0.17107
 C1174 C 0.60919 0.37077 -0.18955
 C1175 C 0.64082 0.34793 -0.17475
 N1176 N 0.65249 0.35403 -0.14194
 N1177 N 0.64602 0.38780 -0.09079
 C1178 C 0.62754 0.41549 -0.07222
 C1179 C 0.59601 0.43825 -0.08710
 N1180 N 0.58464 0.43242 -0.11998
 H1181 H 0.59935 0.36685 -0.21567
 H1182 H 0.63678 0.41917 -0.04594
 C1183 C 0.87703 1.12753 0.39344
 C1184 C 0.91714 1.11560 0.38249
 N1185 N 0.93166 1.12689 0.35157
 C1186 C 0.90769 1.14922 0.33090
 C1187 C 0.86734 1.16098 0.34165
 N1188 N 0.85321 1.15004 0.37292
 N1189 N 0.86176 1.11500 0.42374
 C1190 C 0.88451 1.09060 0.44338
 C1191 C 0.92448 1.07828 0.43234
 N1192 N 0.93999 1.09143 0.40219
 H1193 H 0.91993 1.15748 0.30624
 H1194 H 0.87122 1.08040 0.46709
 C1195 C 0.38626 0.61150 -0.13290
 C1196 C 0.38122 0.61631 -0.09782
 N1197 N 0.35780 0.64574 -0.08609
 C1198 C 0.33906 0.67060 -0.10802
 C1199 C 0.34443 0.66585 -0.14319
 N1200 N 0.36795 0.63631 -0.15455
 N1201 N 0.40907 0.58197 -0.14488
 C1202 C 0.42749 0.55691 -0.12320
 C1203 C 0.42305 0.56186 -0.08801
 N1204 N 0.39993 0.59150 -0.07614
 H1205 H 0.32027 0.69362 -0.09813
 H1206 H 0.44583 0.53374 -0.13335
 C1207 C 0.89468 0.86776 0.63037
 C1208 C 0.87294 0.88127 0.60158
 N1209 N 0.83259 0.86963 0.59583
 C1210 C 0.81288 0.84544 0.61776
 C1211 C 0.83413 0.83290 0.64724
 N1212 N 0.87469 0.84440 0.65270
 N1213 N 0.93518 0.87881 0.63593
 C1214 C 0.95482 0.90319 0.61428
 C1215 C 0.93278 0.91798 0.58605
 N1216 N 0.89220 0.90644 0.58032
 H1217 H 0.78049 0.83707 0.61277
 H1218 H 0.98688 0.91187 0.61976
 C1219 C 0.35938 0.37489 0.10928
 C1220 C 0.40121 0.38270 0.11904
 N1221 N 0.41773 0.36607 0.14718
 C1222 C 0.39404 0.34235 0.16656
 C1223 C 0.35186 0.33483 0.15737
 N1224 N 0.33555 0.35101 0.12863
 N1225 N 0.34282 0.39271 0.08154
 C1226 C 0.36612 0.41831 0.06340
 C1227 C 0.40782 0.42646 0.07361
 N1228 N 0.42421 0.40805 0.10105
 H1229 H 0.40780 0.32991 0.18924
 H1230 H 0.35212 0.43242 0.04163
   
