data_POSCAR
  _audit_creation_date              2014-09-24
  _audit_creation_method            'ToBaCCo'
  _symmetry_space_group_name_H-M    'P1'
  _symmetry_Int_Tables_number       1
  _symmetry_cell_setting            triclinic
  loop_
  _symmetry_equiv_pos_as_xyz
 x,y,z
_cell_length_a 56.1047
_cell_length_b 56.1246
_cell_length_c 56.1218
_cell_angle_alpha 89.868700
_cell_angle_beta 89.646300
_cell_angle_gamma 89.784200
loop_
  _atom_site_label
  _atom_site_type_symbol
  _atom_site_fract_x
  _atom_site_fract_y
  _atom_site_fract_z
N1 N 0.22831 0.23007 0.23247
 N2 N 0.67754 0.67760 0.68195
 N3 N 0.30906 0.81575 0.67825
 N4 N 0.80976 0.31538 0.17785
 N5 N 0.82104 0.67607 0.31097
 N6 N 0.32067 0.17727 -0.18885
 N7 N 0.68171 0.30858 -0.18180
 N8 N 0.18200 0.81112 0.31873
 N9 N 0.48249 0.48001 0.48295
 N10 N -0.01525 -0.01942 0.98403
 N11 N 1.06997 0.56059 0.92640
 N12 N 0.57206 0.06046 0.42636
 N13 N -0.07470 0.06568 0.56481
 N14 N 0.42541 0.56636 0.06567
 N15 N 0.56185 -0.07519 0.06695
 N16 N 1.01012 0.47984 0.51617
 C17 C 0.40813 0.00533 0.21819
 H18 H 0.40959 0.02204 0.22764
 C19 C 0.42413 -0.00006 0.19982
 H20 H 0.43791 0.01256 0.19499
 C21 C 0.38913 -0.03207 0.21368
 H22 H 0.37589 -0.04475 0.21955
 C23 C 0.40480 -0.03817 0.19521
 H24 H 0.40344 -0.05545 0.18676
 N25 N 0.39108 -0.01062 0.22476
 C26 C 0.33753 0.03073 0.26352
 H27 H 0.33658 0.02033 0.27975
 C28 C 0.32325 0.05097 0.26091
 H29 H 0.31130 0.05626 0.27519
 C30 C 0.35443 0.03667 0.22511
 H31 H 0.36648 0.03095 0.21116
 C32 C 0.34045 0.05707 0.22178
 H33 H 0.34192 0.06715 0.20535
 Zn34 Zn 0.37217 -0.00297 0.25172
 N35 N 0.35302 0.02423 0.24592
 C36 C 0.39388 0.02477 0.28786
 N37 N 0.39354 0.00313 0.27695
 C38 C 0.40972 -0.01411 0.28250
 C39 C 0.42711 -0.00991 0.29968
 C40 C 0.41095 0.02969 0.30514
 C41 C 0.33417 -0.03385 0.24358
 C42 C 0.31759 -0.05165 0.24874
 C43 C 0.33665 -0.05769 0.28680
 C44 C 0.35289 -0.03977 0.28093
 N45 N 0.35143 -0.02835 0.25955
 H46 H 0.38133 0.03848 0.28279
 H47 H 0.40935 -0.03098 0.27322
 H48 H 0.44013 -0.02360 0.30376
 H49 H 0.41133 0.04708 0.31348
 H50 H 0.33319 -0.02421 0.22689
 H51 H 0.30381 -0.05582 0.23599
 H52 H 0.33778 -0.06657 0.30392
 H53 H 0.36637 -0.03477 0.29361
 C54 C 0.32488 0.06436 0.23994
 C55 C 0.42255 -0.02208 0.18835
 C56 C 0.31882 -0.06363 0.27058
 C57 C 0.42779 0.01225 0.31099
 C58 C 0.08226 -0.00544 0.71623
 H59 H 0.08174 -0.02213 0.72588
 C60 C 0.06524 -0.00058 0.69881
 H61 H 0.05160 -0.01360 0.69494
 C62 C 0.10023 0.03227 0.70993
 H63 H 0.11359 0.04521 0.71464
 C64 C 0.08353 0.03784 0.69238
 H65 H 0.08420 0.05498 0.68348
 N66 N 0.09935 0.01087 0.72136
 C67 C 0.15720 -0.02932 0.75411
 H68 H 0.15884 -0.01962 0.77066
 C69 C 0.17318 -0.04769 0.74876
 H70 H 0.18713 -0.05225 0.76124
 C71 C 0.13761 -0.03461 0.71716
 H72 H 0.12410 -0.02910 0.70467
 C73 C 0.15325 -0.05310 0.71110
 H74 H 0.15162 -0.06191 0.69404
 Zn75 Zn 0.12063 0.00344 0.74634
 N76 N 0.13983 -0.02319 0.73841
 C77 C 0.10408 -0.02366 0.78617
 N78 N 0.10206 -0.00281 0.77390
 C79 C 0.08647 0.01447 0.78092
 C80 C 0.07280 0.01152 0.80157
 C81 C 0.09073 -0.02733 0.80695
 C82 C 0.15755 0.03496 0.73465
 C83 C 0.17488 0.05227 0.73873
 C84 C 0.15928 0.05714 0.77867
 C85 C 0.14227 0.03974 0.77386
 N86 N 0.14170 0.02904 0.75213
 H87 H 0.11618 -0.03738 0.78004
 H88 H 0.08501 0.03074 0.77065
 H89 H 0.06080 0.02558 0.80731
 H90 H 0.09274 -0.04377 0.81690
 H91 H 0.15701 0.02583 0.71771
 H92 H 0.18769 0.05660 0.72488
 H93 H 0.15989 0.06525 0.79615
 H94 H 0.13002 0.03437 0.78775
 C95 C 0.17126 -0.05959 0.72701
 C96 C 0.06586 0.02128 0.68683
 C97 C 0.17583 0.06333 0.76101
 C98 C 0.07513 -0.00947 0.81481
 C99 C 0.58258 0.49337 0.21614
 H100 H 0.58199 0.47669 0.22582
 C101 C 0.56562 0.49824 0.19866
 H102 H 0.55195 0.48525 0.19478
 C103 C 0.60063 0.53104 0.20986
 H104 H 0.61399 0.54397 0.21461
 C105 C 0.58400 0.53662 0.19225
 H106 H 0.58471 0.55376 0.18336
 N107 N 0.59967 0.50966 0.22133
 C108 C 0.65726 0.46954 0.25471
 H109 H 0.65878 0.47929 0.27123
 C110 C 0.67331 0.45118 0.24952
 H111 H 0.68719 0.44669 0.26211
 C112 C 0.63795 0.46410 0.21763
 H113 H 0.62453 0.46957 0.20502
 C114 C 0.65367 0.44562 0.21174
 H115 H 0.65218 0.43677 0.19468
 Zn116 Zn 0.62078 0.50232 0.24649
 N117 N 0.64001 0.47561 0.23885
 C118 C 0.60384 0.47549 0.28636
 N119 N 0.60199 0.49629 0.27396
 C120 C 0.58638 0.51364 0.28075
 C121 C 0.57249 0.51082 0.30127
 C122 C 0.59026 0.47195 0.30702
 C123 C 0.65783 0.53369 0.23485
 C124 C 0.67517 0.55100 0.23892
 C125 C 0.65935 0.55617 0.27872
 C126 C 0.64232 0.53877 0.27393
 N127 N 0.64186 0.52792 0.25226
 H128 H 0.61596 0.46171 0.28041
 H129 H 0.58507 0.52987 0.27038
 H130 H 0.56046 0.52493 0.30680
 H131 H 0.59212 0.45555 0.31706
 H132 H 0.65738 0.52445 0.21796
 H133 H 0.68807 0.55521 0.22511
 H134 H 0.65986 0.56441 0.29615
 H135 H 0.62997 0.53353 0.28778
 C136 C 0.67158 0.43922 0.22779
 C137 C 0.56630 0.52010 0.18668
 C138 C 0.67601 0.56221 0.26112
 C139 C 0.57461 0.48988 0.31463
 C140 C 0.90531 0.50671 0.71834
 H141 H 0.90671 0.52269 0.72898
 C142 C 0.91934 0.50406 0.69791
 H143 H 0.93158 0.51805 0.69272
 C144 C 0.88738 0.46906 0.71190
 H145 H 0.87499 0.45544 0.71748
 C146 C 0.90111 0.46570 0.69129
 H147 H 0.89910 0.44959 0.68091
 N148 N 0.88939 0.48955 0.72467
 C149 C 0.83352 0.52793 0.76298
 H150 H 0.83360 0.51876 0.77996
 C151 C 0.81666 0.54578 0.75859
 H152 H 0.80374 0.55047 0.77223
 C153 C 0.84958 0.53242 0.72403
 H154 H 0.86196 0.52678 0.71036
 C155 C 0.83305 0.55034 0.71893
 H156 H 0.83297 0.55856 0.70144
 Zn157 Zn 0.87038 0.49571 0.75194
 N158 N 0.84957 0.52165 0.74580
 C159 C 0.89060 0.52427 0.78841
 N160 N 0.89140 0.50282 0.77715
 C161 C 0.90847 0.48637 0.78237
 C162 C 0.92565 0.49118 0.79957
 C163 C 0.90747 0.52981 0.80574
 C164 C 0.83387 0.46323 0.74366
 C165 C 0.81786 0.44492 0.74883
 C166 C 0.83734 0.43923 0.78672
 C167 C 0.85302 0.45767 0.78085
 N168 N 0.85103 0.46921 0.75958
 H169 H 0.87727 0.53733 0.78361
 H170 H 0.90893 0.46964 0.77282
 H171 H 0.93937 0.47811 0.80339
 H172 H 0.90696 0.54704 0.81438
 H173 H 0.83240 0.47301 0.72710
 H174 H 0.80407 0.44049 0.73618
 H175 H 0.83881 0.43034 0.80380
 H176 H 0.86638 0.46305 0.79350
 C177 C 0.81638 0.55698 0.73630
 C178 C 0.91705 0.48349 0.68414
 C179 C 0.81955 0.43290 0.77060
 C180 C 0.92522 0.51315 0.81125
 C181 C 0.21857 0.40410 0.00443
 H182 H 0.22777 0.40532 0.02127
 C183 C 0.20055 0.42039 -0.00105
 H184 H 0.19575 0.43414 0.01163
 C185 C 0.21432 0.38537 -0.03315
 H186 H 0.22014 0.37210 -0.04584
 C187 C 0.19620 0.40134 -0.03936
 H188 H 0.18797 0.40019 -0.05673
 N189 N 0.22508 0.38703 -0.01154
 C190 C 0.26180 0.33278 0.03039
 H191 H 0.27823 0.33147 0.02028
 C192 C 0.25854 0.31883 0.05076
 H193 H 0.27251 0.30676 0.05644
 C194 C 0.22362 0.35039 0.03558
 H195 H 0.21003 0.36263 0.02955
 C196 C 0.21963 0.33676 0.05609
 H197 H 0.20307 0.33870 0.06594
 Zn198 Zn 0.25151 0.36764 -0.00350
 N199 N 0.24465 0.34851 0.02349
 C200 C 0.28721 0.38868 0.02526
 N201 N 0.27695 0.38859 0.00333
 C202 C 0.28324 0.40479 -0.01364
 C203 C 0.30052 0.42196 -0.00886
 C204 C 0.30456 0.40553 0.03076
 C205 C 0.24355 0.32998 -0.03498
 C206 C 0.24897 0.31345 -0.05279
 C207 C 0.28755 0.33192 -0.05761
 C208 C 0.28141 0.34812 -0.03970
 N209 N 0.25966 0.34693 -0.02888
 H210 H 0.28155 0.37615 0.03875
 H211 H 0.27445 0.40462 -0.03075
 H212 H 0.30517 0.43501 -0.02233
 H213 H 0.31236 0.40573 0.04837
 H214 H 0.22655 0.32920 -0.02580
 H215 H 0.23610 0.29991 -0.05743
 H216 H 0.30496 0.33284 -0.06601
 H217 H 0.29418 0.36135 -0.03424
 C218 C 0.23737 0.32103 0.06386
 C219 C 0.18938 0.41909 -0.02320
 C220 C 0.27120 0.31441 -0.06415
 C221 C 0.31116 0.42240 0.01361
 C222 C 0.71616 0.07844 -0.00722
 H223 H 0.72599 0.07769 -0.02385
 C224 C 0.69840 0.06170 -0.00240
 H225 H 0.69444 0.04804 -0.01538
 C226 C 0.70979 0.09668 0.03039
 H227 H 0.71462 0.11000 0.04332
 C228 C 0.69191 0.08028 0.03592
 H229 H 0.68288 0.08115 0.05301
 N230 N 0.72144 0.09552 0.00907
 C231 C 0.75591 0.15277 -0.03068
 H232 H 0.77233 0.15412 -0.02077
 C233 C 0.75107 0.16900 -0.04890
 H234 H 0.76382 0.18285 -0.05315
 C235 C 0.71870 0.13378 -0.03653
 H236 H 0.70589 0.12043 -0.03125
 C237 C 0.71314 0.14970 -0.05489
 H238 H 0.69614 0.14843 -0.06383
 Zn239 Zn 0.74690 0.11639 0.00191
 N240 N 0.73981 0.13561 -0.02485
 C241 C 0.78714 0.09929 -0.02435
 N242 N 0.77432 0.09747 -0.00376
 C243 C 0.78072 0.08190 0.01371
 C244 C 0.80130 0.06806 0.01126
 C245 C 0.80787 0.08576 -0.02753
 C246 C 0.73503 0.15360 0.03299
 C247 C 0.73889 0.17094 0.05035
 C248 C 0.77847 0.15488 0.05618
 C249 C 0.77389 0.13786 0.03871
 N250 N 0.75243 0.13751 0.02753
 H251 H 0.78149 0.11138 -0.03822
 H252 H 0.77003 0.08062 0.02977
 H253 H 0.80656 0.05610 0.02548
 H254 H 0.81828 0.08763 -0.04374
 H255 H 0.71832 0.15323 0.02347
 H256 H 0.72510 0.18392 0.05434
 H257 H 0.79573 0.15530 0.06472
 H258 H 0.78773 0.12541 0.03371
 C259 C 0.72942 0.16755 -0.06099
 C260 C 0.68623 0.06260 0.01939
 C261 C 0.76087 0.17165 0.06193
 C262 C 0.81512 0.07020 -0.00944
 C263 C 0.21395 0.58145 0.49022
 H264 H 0.22522 0.57998 0.47459
 C265 C 0.19375 0.56714 0.49247
 H266 H 0.18938 0.55463 0.47850
 C267 C 0.20555 0.59989 0.52735
 H268 H 0.21023 0.61262 0.54092
 C269 C 0.18517 0.58591 0.53029
 H270 H 0.17409 0.58807 0.54603
 N271 N 0.21915 0.59777 0.50729
 C272 C 0.25683 0.65471 0.47025
 H273 H 0.27305 0.65543 0.48054
 C274 C 0.25277 0.67145 0.45226
 H275 H 0.26595 0.68505 0.44856
 C276 C 0.21928 0.63684 0.46320
 H277 H 0.20598 0.62378 0.46791
 C278 C 0.21454 0.65323 0.44506
 H279 H 0.19770 0.65257 0.43574
 Zn280 Zn 0.24582 0.61764 0.50183
 N281 N 0.24018 0.63784 0.47536
 C282 C 0.28603 0.60000 0.47611
 N283 N 0.27273 0.59792 0.49638
 C284 C 0.27838 0.58169 0.51351
 C285 C 0.29870 0.56744 0.51109
 C286 C 0.30651 0.58608 0.47298
 C287 C 0.23438 0.65474 0.53314
 C288 C 0.23836 0.67173 0.55082
 C289 C 0.27688 0.65379 0.55804
 C290 C 0.27220 0.63714 0.54022
 N291 N 0.25122 0.63792 0.52817
 H292 H 0.28100 0.61263 0.46248
 H293 H 0.26732 0.58023 0.52931
 H294 H 0.30340 0.55498 0.52508
 H295 H 0.31731 0.58820 0.45706
 H296 H 0.21810 0.65529 0.52293
 H297 H 0.22507 0.68533 0.55435
 H298 H 0.29381 0.65335 0.56722
 H299 H 0.28565 0.62413 0.53561
 C300 C 0.23136 0.67077 0.43967
 C301 C 0.17909 0.56961 0.51255
 C302 C 0.25989 0.67134 0.56323
 C303 C 0.31302 0.56986 0.49076
 C304 C 0.71948 0.90263 0.50462
 H305 H 0.72796 0.90310 0.52187
 C306 C 0.70179 0.91925 0.49905
 H307 H 0.69653 0.93253 0.51206
 C308 C 0.71661 0.88536 0.46620
 H309 H 0.72283 0.87251 0.45327
 C310 C 0.69885 0.90169 0.45990
 H311 H 0.69129 0.90123 0.44219
 N312 N 0.72649 0.88611 0.48829
 C313 C 0.76015 0.82991 0.53023
 H314 H 0.77757 0.82935 0.52186
 C315 C 0.75447 0.81372 0.54831
 H316 H 0.76755 0.80067 0.55397
 C317 C 0.72148 0.84703 0.53254
 H318 H 0.70850 0.85965 0.52598
 C319 C 0.71507 0.83116 0.55067
 H320 H 0.69723 0.83175 0.55816
 Zn321 Zn 0.75223 0.86600 0.49677
 N322 N 0.74374 0.84617 0.52277
 C323 C 0.78755 0.88601 0.52699
 N324 N 0.77779 0.88627 0.50484
 C325 C 0.78464 0.90254 0.48817
 C326 C 0.80196 0.91947 0.49350
 C327 C 0.80493 0.90266 0.53306
 C328 C 0.74438 0.82941 0.46418
 C329 C 0.74992 0.81305 0.44626
 C330 C 0.78917 0.83043 0.44311
 C331 C 0.78290 0.84649 0.46111
 N332 N 0.76076 0.84575 0.47117
 H333 H 0.78144 0.87334 0.54018
 H334 H 0.77625 0.90263 0.47087
 H335 H 0.80702 0.93260 0.48024
 H336 H 0.81233 0.90265 0.55085
 H337 H 0.72707 0.82896 0.47277
 H338 H 0.73683 0.79998 0.44094
 H339 H 0.80688 0.83095 0.43534
 H340 H 0.79586 0.85920 0.46728
 C341 C 0.73169 0.81430 0.55854
 C342 C 0.69148 0.91885 0.47644
 C343 C 0.77254 0.81353 0.43569
 C344 C 0.81206 0.91964 0.51620
 C345 C 0.00023 0.21714 0.40893
 H346 H 0.01652 0.22729 0.41031
 C347 C -0.00476 0.19923 0.42551
 H348 H 0.00776 0.19547 0.43966
 C349 C -0.03648 0.21026 0.38939
 H350 H -0.04904 0.21499 0.37565
 C351 C -0.04217 0.19221 0.40563
 H352 H -0.05900 0.18294 0.40422
 N353 N -0.01554 0.22228 0.39130
 C354 C 0.02551 0.25913 0.33627
 H355 H 0.01450 0.27485 0.33415
 C356 C 0.04611 0.25638 0.32247
 H357 H 0.05107 0.27005 0.30973
 C358 C 0.03265 0.22218 0.35561
 H359 H 0.02727 0.20884 0.36843
 C360 C 0.05344 0.21873 0.34216
 H361 H 0.06413 0.20285 0.34481
 Zn362 Zn -0.00833 0.24838 0.37114
 N363 N 0.01942 0.24236 0.35274
 C364 C 0.01706 0.28780 0.39016
 N365 N -0.00359 0.27516 0.39101
 C366 C -0.02150 0.28115 0.40636
 C367 C -0.01942 0.30113 0.42096
 C368 C 0.01988 0.30792 0.40447
 C369 C -0.03879 0.23770 0.33306
 C370 C -0.05632 0.24209 0.31598
 C371 C -0.06257 0.28108 0.33315
 C372 C -0.04495 0.27599 0.34987
 N373 N -0.03354 0.25454 0.34962
 H374 H 0.03133 0.28247 0.37831
 H375 H -0.03759 0.27058 0.40691
 H376 H -0.03396 0.30607 0.43277
 H377 H 0.03618 0.31815 0.40339
 H378 H -0.02913 0.22098 0.33296
 H379 H -0.06027 0.22870 0.30272
 H380 H -0.07138 0.29829 0.33333
 H381 H -0.04012 0.28941 0.36268
 C382 C 0.06031 0.23610 0.32559
 C383 C -0.02621 0.18674 0.42391
 C384 C -0.06825 0.26402 0.31602
 C385 C 0.00138 0.31475 0.41983
 C386 C -0.00195 0.71325 0.08272
 H387 H -0.01868 0.72289 0.08224
 C388 C 0.00287 0.69562 0.06583
 H389 H -0.01020 0.69158 0.05231
 C390 C 0.03587 0.70722 0.10047
 H391 H 0.04887 0.71212 0.11368
 C392 C 0.04141 0.68946 0.08390
 H393 H 0.05858 0.68061 0.08451
 N394 N 0.01443 0.71863 0.09964
 C395 C -0.02549 0.75227 0.15745
 H396 H -0.01580 0.76884 0.15884
 C397 C -0.04373 0.74713 0.17366
 H398 H -0.04821 0.75980 0.18754
 C399 C -0.03084 0.71505 0.13830
 H400 H -0.02539 0.70236 0.12487
 C401 C -0.04921 0.70919 0.15419
 H402 H -0.05798 0.69209 0.15282
 Zn403 Zn 0.00710 0.74393 0.12069
 N404 N -0.01944 0.73632 0.14020
 C405 C -0.01999 0.78367 0.10397
 N406 N 0.00079 0.77123 0.10187
 C407 C 0.01800 0.77790 0.08605
 C408 C 0.01507 0.79839 0.07221
 C409 C -0.02363 0.80430 0.09045
 C410 C 0.03885 0.73276 0.15748
 C411 C 0.05629 0.73708 0.17460
 C412 C 0.06107 0.77676 0.15849
 C413 C 0.04355 0.77172 0.14170
 N414 N 0.03283 0.75000 0.14148
 H415 H -0.03365 0.77781 0.11627
 H416 H 0.03422 0.76751 0.08455
 H417 H 0.02909 0.80387 0.06004
 H418 H -0.04000 0.81441 0.09254
 H419 H 0.02971 0.71582 0.15722
 H420 H 0.06069 0.72342 0.18752
 H421 H 0.06920 0.79423 0.15882
 H422 H 0.03811 0.78543 0.12934
 C423 C -0.05560 0.72534 0.17209
 C424 C 0.02477 0.68368 0.06639
 C425 C 0.06736 0.75935 0.17518
 C426 C -0.00583 0.81182 0.07462
 C427 C 0.49728 0.21261 0.58204
 H428 H 0.48048 0.22211 0.58151
 C429 C 0.50225 0.19494 0.56523
 H430 H 0.48922 0.19072 0.55172
 C431 C 0.53517 0.20699 0.59979
 H432 H 0.54814 0.21208 0.61295
 C433 C 0.54085 0.18921 0.58329
 H434 H 0.55811 0.18052 0.58393
 N435 N 0.51364 0.21822 0.59891
 C436 C 0.47371 0.25213 0.65658
 H437 H 0.48342 0.26870 0.65784
 C438 C 0.45552 0.24710 0.67287
 H439 H 0.45109 0.25986 0.68668
 C440 C 0.46826 0.21480 0.63766
 H441 H 0.47366 0.20204 0.62428
 C442 C 0.44994 0.20906 0.65363
 H443 H 0.44114 0.19196 0.65239
 Zn444 Zn 0.50622 0.24360 0.61985
 N445 N 0.47970 0.23608 0.63940
 C446 C 0.47904 0.28317 0.60295
 N447 N 0.49989 0.27083 0.60093
 C448 C 0.51710 0.27756 0.58514
 C449 C 0.51411 0.29800 0.57125
 C450 C 0.47532 0.30375 0.58938
 C451 C 0.53789 0.23253 0.65667
 C452 C 0.55534 0.23682 0.67377
 C453 C 0.56024 0.27646 0.65760
 C454 C 0.54270 0.27145 0.64082
 N455 N 0.53193 0.24975 0.64064
 H456 H 0.46537 0.27727 0.61521
 H457 H 0.53337 0.26724 0.58371
 H458 H 0.52813 0.30352 0.55911
 H459 H 0.45890 0.31378 0.59140
 H460 H 0.52871 0.21562 0.65644
 H461 H 0.55972 0.22317 0.68671
 H462 H 0.56843 0.29391 0.65789
 H463 H 0.53730 0.28514 0.62842
 C464 C 0.44362 0.22532 0.67147
 C465 C 0.52427 0.18320 0.56582
 C466 C 0.56649 0.25906 0.67431
 C467 C 0.49313 0.31133 0.57357
 C468 C 0.49965 0.71614 0.90776
 H469 H 0.51677 0.72496 0.90797
 C470 C 0.49456 0.69839 0.92447
 H471 H 0.50780 0.69342 0.93756
 C472 C 0.46112 0.71244 0.89101
 H473 H 0.44797 0.71836 0.87831
 C474 C 0.45529 0.69461 0.90744
 H475 H 0.43772 0.68668 0.90721
 N476 N 0.48304 0.72277 0.89145
 C477 C 0.52371 0.75690 0.83448
 H478 H 0.51492 0.77408 0.83394
 C479 C 0.54177 0.75158 0.81809
 H480 H 0.54700 0.76471 0.80490
 C481 C 0.52711 0.71844 0.85180
 H482 H 0.52100 0.70539 0.86460
 C483 C 0.54525 0.71239 0.83572
 H484 H 0.55319 0.69478 0.83631
 Zn485 Zn 0.49091 0.74852 0.87112
 N486 N 0.51682 0.74042 0.85095
 C487 C 0.52092 0.78439 0.89035
 N488 N 0.49887 0.77436 0.89109
 C489 C 0.48233 0.78119 0.90756
 C490 C 0.48770 0.79878 0.92422
 C491 C 0.52702 0.80205 0.90671
 C492 C 0.45824 0.73991 0.83492
 C493 C 0.44040 0.74517 0.81848
 C494 C 0.43688 0.78451 0.83561
 C495 C 0.45480 0.77852 0.85177
 N496 N 0.46504 0.75650 0.85115
 H497 H 0.53402 0.77830 0.87754
 H498 H 0.46511 0.77258 0.90803
 H499 H 0.47456 0.80384 0.93752
 H500 H 0.54474 0.80966 0.90630
 H501 H 0.46700 0.72271 0.83456
 H502 H 0.43530 0.73197 0.80543
 H503 H 0.42903 0.80217 0.83597
 H504 H 0.46084 0.79164 0.86439
 C505 C 0.55256 0.72909 0.81867
 C506 C 0.47213 0.68762 0.92437
 C507 C 0.42972 0.76772 0.81875
 C508 C 0.51030 0.80917 0.92388
 C509 C 0.16405 0.23007 0.26608
 C510 C 0.15452 0.20531 0.27277
 C511 C 0.13323 0.20595 0.28464
 C512 C 0.12360 0.23128 0.28863
 C513 C 0.12267 0.24254 0.26369
 C514 C 0.14394 0.24191 0.25184
 C515 C 0.16490 0.24383 0.28966
 C516 C 0.14366 0.24446 0.30150
 C517 C 0.18704 0.22962 0.25350
 C518 C 0.20616 0.22967 0.24355
 C519 C 0.10080 0.23224 0.30153
 C520 C 0.08224 0.23365 0.31239
 H521 H 0.16367 0.18876 0.26855
 H522 H 0.12414 0.18994 0.29058
 H523 H 0.10671 0.25030 0.25601
 H524 H 0.14620 0.24912 0.23400
 H525 H 0.18081 0.25233 0.29647
 H526 H 0.14138 0.25350 0.31845
 C527 C 0.63209 0.69835 0.73454
 C528 C 0.61642 0.67776 0.74339
 C529 C 0.60063 0.68420 0.76077
 C530 C 0.60204 0.71061 0.76761
 C531 C 0.59871 0.72428 0.74414
 C532 C 0.61450 0.71784 0.72675
 C533 C 0.64400 0.70819 0.75701
 C534 C 0.62819 0.71464 0.77441
 C535 C 0.64891 0.69126 0.71573
 C536 C 0.66237 0.68506 0.70008
 C537 C 0.58485 0.71743 0.78619
 C538 C 0.57033 0.72283 0.80117
 H539 H 0.61763 0.65968 0.73663
 H540 H 0.58833 0.67164 0.76888
 H541 H 0.58516 0.73786 0.74142
 H542 H 0.61449 0.72590 0.70915
 H543 H 0.66314 0.70994 0.75907
 H544 H 0.63378 0.72192 0.79138
 C545 C 0.35266 0.79709 0.73270
 C546 C 0.36854 0.77553 0.72685
 C547 C 0.38376 0.76951 0.74472
 C548 C 0.38162 0.78563 0.76669
 C549 C 0.35524 0.78450 0.77402
 C550 C 0.33999 0.79053 0.75614
 C551 C 0.37002 0.81705 0.73931
 C552 C 0.38525 0.81102 0.75718
 C553 C 0.33647 0.80365 0.71332
 C554 C 0.32357 0.80920 0.69710
 C555 C 0.39824 0.77918 0.78575
 C556 C 0.41235 0.77394 0.80102
 H557 H 0.36787 0.76583 0.71016
 H558 H 0.39613 0.75464 0.74332
 H559 H 0.34907 0.77941 0.79168
 H560 H 0.32077 0.79062 0.75847
 H561 H 0.37032 0.83440 0.73074
 H562 H 0.39858 0.82322 0.76390
 C563 C -0.14599 0.29470 0.23104
 C564 C -0.14322 0.26757 0.23347
 C565 C -0.12774 0.26081 0.25088
 C566 C -0.11655 0.28185 0.26413
 C567 C -0.13777 0.29659 0.27339
 C568 C -0.15325 0.30335 0.25598
 C569 C -0.12057 0.30403 0.22721
 C570 C -0.10511 0.29728 0.24459
 C571 C -0.16244 0.30207 0.21218
 C572 C -0.17555 0.30825 0.19634
 C573 C -0.09972 0.27480 0.28278
 C574 C -0.08553 0.26956 0.29798
 H575 H -0.15261 0.25480 0.22250
 H576 H -0.12385 0.24226 0.25483
 H577 H -0.14042 0.30129 0.29198
 H578 H -0.16916 0.31383 0.25965
 H579 H -0.11518 0.31498 0.21216
 H580 H -0.08648 0.30245 0.24442
 C581 C -0.13439 0.69566 0.25721
 C582 C -0.14542 0.69519 0.23224
 C583 C -0.12984 0.70133 0.21453
 C584 C -0.10480 0.70733 0.22355
 C585 C -0.09696 0.68537 0.23789
 C586 C -0.11251 0.67924 0.25557
 C587 C -0.12422 0.72086 0.25987
 C588 C -0.10866 0.72699 0.24217
 C589 C -0.15093 0.68893 0.27640
 C590 C -0.16412 0.68308 0.29240
 C591 C -0.08782 0.71386 0.20468
 C592 C -0.07338 0.71912 0.18958
 H593 H -0.16382 0.69046 0.22879
 H594 H -0.13490 0.70186 0.19589
 H595 H -0.08064 0.67548 0.23444
 H596 H -0.10949 0.66410 0.26727
 H597 H -0.12885 0.73284 0.27435
 H598 H -0.09996 0.74423 0.24149
 C599 C 0.36514 0.19655 0.75720
 C600 C 0.39143 0.19345 0.76398
 C601 C 0.40691 0.19937 0.74617
 C602 C 0.39461 0.20782 0.72329
 C603 C 0.37839 0.22849 0.73114
 C604 C 0.36288 0.22256 0.74898
 C605 C 0.36206 0.18167 0.73451
 C606 C 0.37756 0.18759 0.71667
 C607 C 0.34867 0.19001 0.77650
 C608 C 0.33550 0.18426 0.79256
 C609 C 0.41152 0.21413 0.70427
 C610 C 0.42590 0.21924 0.68907
 H611 H 0.39738 0.18717 0.78127
 H612 H 0.42611 0.19815 0.74821
 H613 H 0.37900 0.24621 0.72336
 H614 H 0.35022 0.23519 0.75648
 H615 H 0.34885 0.16773 0.73260
 H616 H 0.37764 0.17873 0.69950
 C617 C 0.64030 0.28848 0.76278
 C618 C 0.63749 0.26142 0.76013
 C619 C 0.62295 0.25501 0.74186
 C620 C 0.61268 0.27631 0.72806
 C621 C 0.63446 0.29080 0.72003
 C622 C 0.64900 0.29720 0.73829
 C623 C 0.61479 0.29816 0.76523
 C624 C 0.60028 0.29177 0.74699
 C625 C 0.65571 0.29550 0.78255
 C626 C 0.66797 0.30151 0.79904
 C627 C 0.59680 0.26962 0.70854
 C628 C 0.58325 0.26455 0.69278
 H629 H 0.64616 0.24843 0.77156
 H630 H 0.61917 0.23655 0.73764
 H631 H 0.63816 0.29558 0.70162
 H632 H 0.66515 0.30746 0.73554
 H633 H 0.60865 0.30908 0.78000
 H634 H 0.58171 0.29722 0.74615
 C635 C 0.14082 0.78987 0.26357
 C636 C 0.14976 0.79797 0.23895
 C637 C 0.13531 0.79126 0.22073
 C638 C 0.11335 0.77712 0.22893
 C639 C 0.10094 0.79310 0.24742
 C640 C 0.11537 0.79979 0.26561
 C641 C 0.13782 0.76278 0.26150
 C642 C 0.12337 0.75607 0.24328
 C643 C 0.15615 0.79725 0.28327
 C644 C 0.16833 0.80361 0.29969
 C645 C 0.09756 0.77014 0.20945
 C646 C 0.08406 0.76492 0.19368
 H647 H 0.16601 0.80805 0.23607
 H648 H 0.13917 0.79559 0.20224
 H649 H 0.08243 0.79866 0.24632
 H650 H 0.10921 0.81109 0.28009
 H651 H 0.14631 0.74999 0.27329
 H652 H 0.11947 0.73754 0.23946
 C653 C 0.26315 0.16657 0.23342
 C654 C 0.25025 0.14588 0.22120
 C655 C 0.26254 0.12488 0.22200
 C656 C 0.28650 0.12667 0.23493
 C657 C 0.28034 0.13677 0.25961
 C658 C 0.26807 0.15773 0.25882
 C659 C 0.28772 0.16770 0.22129
 C660 C 0.30000 0.14672 0.22209
 C661 C 0.25012 0.18926 0.23274
 C662 C 0.23981 0.20815 0.23251
 C663 C 0.29988 0.10419 0.23604
 C664 C 0.31115 0.08592 0.23750
 H665 H 0.23300 0.14758 0.21267
 H666 H 0.25583 0.10858 0.21416
 H667 H 0.28516 0.12819 0.27627
 H668 H 0.26238 0.16710 0.27478
 H669 H 0.29484 0.18356 0.21279
 H670 H 0.31763 0.14462 0.21427
 C671 C 0.73084 0.63409 0.70445
 C672 C 0.73656 0.61456 0.68619
 C673 C 0.75410 0.59932 0.69327
 C674 C 0.76422 0.60509 0.71793
 C675 C 0.74251 0.60545 0.73471
 C676 C 0.72496 0.62071 0.72763
 C677 C 0.75474 0.64641 0.70914
 C678 C 0.77230 0.63115 0.71623
 C679 C 0.71184 0.65029 0.69663
 C680 C 0.69598 0.66317 0.68990
 C681 C 0.78302 0.58845 0.72528
 C682 C 0.79831 0.57433 0.73068
 H683 H 0.72764 0.61284 0.66917
 H684 H 0.76018 0.58456 0.68231
 H685 H 0.74108 0.59471 0.75077
 H686 H 0.70848 0.62303 0.73761
 H687 H 0.75760 0.66543 0.70709
 H688 H 0.79022 0.63709 0.72027
 C689 C 0.73541 0.35340 0.79979
 C690 C 0.73864 0.35669 0.77280
 C691 C 0.75617 0.37240 0.76683
 C692 C 0.76875 0.38327 0.78843
 C693 C 0.77768 0.36186 0.80297
 C694 C 0.76014 0.34614 0.80895
 C695 C 0.73119 0.37860 0.80954
 C696 C 0.74870 0.39429 0.80357
 C697 C 0.71637 0.33671 0.80628
 C698 C 0.70037 0.32345 0.81176
 C699 C 0.78741 0.40041 0.78203
 C700 C 0.80231 0.41498 0.77681
 H701 H 0.72811 0.34747 0.75956
 H702 H 0.76065 0.37664 0.74846
 H703 H 0.79614 0.35926 0.80809
 H704 H 0.76357 0.33007 0.81919
 H705 H 0.71579 0.38368 0.82021
 H706 H 0.74829 0.41280 0.80913
 C707 C 0.23485 -0.14328 0.29984
 C708 C 0.23124 -0.11851 0.31086
 C709 C 0.24857 -0.10266 0.30479
 C710 C 0.26784 -0.11311 0.28829
 C711 C 0.25422 -0.12295 0.26683
 C712 C 0.23687 -0.13882 0.27291
 C713 C 0.25992 -0.15106 0.30754
 C714 C 0.27728 -0.13519 0.30146
 C715 C 0.21605 -0.16017 0.30647
 C716 C 0.20031 -0.17368 0.31210
 C717 C 0.28638 -0.09586 0.28183
 C718 C 0.30132 -0.08134 0.27664
 H719 H 0.21637 -0.11384 0.32243
 H720 H 0.24855 -0.08441 0.31117
 H721 H 0.25790 -0.11793 0.24849
 H722 H 0.22568 -0.14739 0.25977
 H723 H 0.26370 -0.16757 0.31692
 H724 H 0.29593 -0.13810 0.30564
 C725 C 0.25548 -0.13921 0.69717
 C726 C 0.23023 -0.14878 0.69305
 C727 C 0.21266 -0.13304 0.69914
 C728 C 0.22209 -0.10930 0.70875
 C729 C 0.23899 -0.09998 0.68928
 C730 C 0.25654 -0.11570 0.68320
 C731 C 0.25590 -0.13190 0.72350
 C732 C 0.23834 -0.11617 0.72959
 C733 C 0.27453 -0.15593 0.69054
 C734 C 0.29050 -0.16926 0.68491
 C735 C 0.20339 -0.09214 0.71527
 C736 C 0.18848 -0.07755 0.72061
 H737 H 0.22650 -0.16636 0.68598
 H738 H 0.19386 -0.13712 0.69730
 H739 H 0.23732 -0.08257 0.68097
 H740 H 0.26989 -0.11175 0.66968
 H741 H 0.26883 -0.13852 0.73625
 H742 H 0.23623 -0.10932 0.74755
 C743 C 0.75625 0.36008 0.19780
 C744 C 0.73173 0.35352 0.18779
 C745 C 0.71410 0.36915 0.19399
 C746 C 0.72273 0.38978 0.20960
 C747 C 0.74316 0.40125 0.19539
 C748 C 0.76076 0.38565 0.18919
 C749 C 0.75240 0.36218 0.22482
 C750 C 0.73478 0.37780 0.23103
 C751 C 0.77535 0.34348 0.19098
 C752 C 0.79129 0.33025 0.18502
 C753 C 0.70395 0.40683 0.21619
 C754 C 0.68894 0.42133 0.22151
 H755 H 0.72850 0.33796 0.17683
 H756 H 0.69576 0.36699 0.18834
 H757 H 0.74375 0.41999 0.19060
 H758 H 0.77642 0.39103 0.17911
 H759 H 0.76260 0.35226 0.23792
 H760 H 0.72987 0.38126 0.24944
 C761 C 0.76540 0.63516 0.29030
 C762 C 0.74174 0.64139 0.30272
 C763 C 0.72334 0.62704 0.29629
 C764 C 0.73040 0.60787 0.27807
 C765 C 0.75127 0.59438 0.28950
 C766 C 0.76965 0.60872 0.29592
 C767 C 0.75991 0.63597 0.26353
 C768 C 0.74148 0.62161 0.25710
 C769 C 0.78531 0.65039 0.29740
 C770 C 0.80187 0.66250 0.30359
 C771 C 0.71069 0.59218 0.27139
 C772 C 0.69474 0.57878 0.26642
 H773 H 0.73963 0.65583 0.31541
 H774 H 0.70545 0.62918 0.30348
 H775 H 0.75159 0.57524 0.29230
 H776 H 0.78571 0.60185 0.30421
 H777 H 0.76961 0.64687 0.25078
 H778 H 0.73540 0.62020 0.23884
 C779 C 0.26515 0.13625 0.79040
 C780 C 0.26465 0.13078 0.76361
 C781 C 0.24625 0.11642 0.75713
 C782 C 0.23018 0.10896 0.77807
 C783 C 0.22208 0.13243 0.78963
 C784 C 0.24048 0.14678 0.79611
 C785 C 0.26544 0.11180 0.80268
 C786 C 0.24708 0.09747 0.79621
 C787 C 0.28503 0.15149 0.79756
 C788 C 0.30154 0.16363 0.80377
 C789 C 0.21050 0.09328 0.77133
 C790 C 0.19455 0.07989 0.76632
 H791 H 0.27758 0.13760 0.75087
 H792 H 0.24341 0.11094 0.73883
 H793 H 0.20355 0.13735 0.79244
 H794 H 0.23771 0.16400 0.80449
 H795 H 0.27891 0.10622 0.81537
 H796 H 0.24481 0.07962 0.80335
 C797 C 0.22918 0.26288 0.16795
 C798 C 0.20494 0.27236 0.15951
 C799 C 0.20599 0.28386 0.13809
 C800 C 0.23117 0.28474 0.12726
 C801 C 0.23941 0.25865 0.12609
 C802 C 0.23836 0.24715 0.14749
 C803 C 0.24563 0.28466 0.16790
 C804 C 0.24667 0.29614 0.14653
 C805 C 0.22832 0.25067 0.19107
 C806 C 0.22813 0.24096 0.21027
 C807 C 0.23260 0.29728 0.10434
 C808 C 0.23443 0.30793 0.08574
 H809 H 0.18843 0.27020 0.16945
 H810 H 0.19038 0.29157 0.12968
 H811 H 0.24549 0.24996 0.10988
 H812 H 0.24355 0.22861 0.14962
 H813 H 0.25558 0.29057 0.18332
 H814 H 0.25753 0.31188 0.14365
 C815 C 0.69896 0.73054 0.63739
 C816 C 0.68617 0.75445 0.64135
 C817 C 0.69301 0.77180 0.62573
 C818 C 0.71198 0.76353 0.60769
 C819 C 0.70118 0.74159 0.59563
 C820 C 0.69434 0.72427 0.61122
 C821 C 0.72564 0.73638 0.63849
 C822 C 0.73249 0.75373 0.62287
 C823 C 0.69148 0.71172 0.65398
 C824 C 0.68509 0.69596 0.66717
 C825 C 0.71925 0.78204 0.59067
 C826 C 0.72502 0.79693 0.57624
 H827 H 0.67292 0.75749 0.65521
 H828 H 0.68563 0.78970 0.62620
 H829 H 0.69909 0.73982 0.57649
 H830 H 0.68640 0.70766 0.60544
 H831 H 0.73805 0.72767 0.65050
 H832 H 0.75077 0.75989 0.62149
 C833 C 0.80242 0.72940 0.35623
 C834 C 0.81351 0.72606 0.38095
 C835 C 0.80742 0.74348 0.39673
 C836 C 0.79083 0.76257 0.38627
 C837 C 0.76939 0.74874 0.37665
 C838 C 0.77548 0.73131 0.36086
 C839 C 0.81001 0.75444 0.34824
 C840 C 0.80392 0.77189 0.36404
 C841 C 0.80902 0.71047 0.33943
 C842 C 0.81456 0.69459 0.32602
 C843 C 0.78429 0.78117 0.40346
 C844 C 0.77894 0.79611 0.41796
 H845 H 0.82515 0.71130 0.38565
 H846 H 0.81384 0.74364 0.41494
 H847 H 0.75104 0.75235 0.38177
 H848 H 0.76235 0.71998 0.35245
 H849 H 0.81934 0.75814 0.33164
 H850 H 0.80802 0.79054 0.36098
 C851 C 0.30160 0.23050 -0.14365
 C852 C 0.29604 0.25458 -0.15544
 C853 C 0.28974 0.27194 -0.13961
 C854 C 0.28964 0.26349 -0.11356
 C855 C 0.31468 0.25322 -0.10944
 C856 C 0.32096 0.23589 -0.12525
 C857 C 0.27928 0.22451 -0.12888
 C858 C 0.27300 0.24184 -0.11307
 C859 C 0.30841 0.21165 -0.16047
 C860 C 0.31408 0.19580 -0.17386
 C861 C 0.28293 0.28201 -0.09635
 C862 C 0.27752 0.29693 -0.08184
 H863 H 0.29696 0.25772 -0.17452
 H864 H 0.28528 0.28996 -0.14512
 H865 H 0.32646 0.25908 -0.09535
 H866 H 0.33812 0.22690 -0.12470
 H867 H 0.26927 0.20810 -0.13070
 H868 H 0.25762 0.24028 -0.10134
 C869 C 0.70080 0.25402 -0.13826
 C870 C 0.70224 0.22952 -0.15032
 C871 C 0.70816 0.21148 -0.13511
 C872 C 0.71205 0.21975 -0.10937
 C873 C 0.68896 0.23281 -0.10241
 C874 C 0.68305 0.25081 -0.11759
 C875 C 0.72510 0.25734 -0.12635
 C876 C 0.73102 0.23932 -0.11116
 C877 C 0.69429 0.27354 -0.15440
 C878 C 0.68859 0.28979 -0.16729
 C879 C 0.71834 0.20055 -0.09277
 C880 C 0.72341 0.18523 -0.07857
 H881 H 0.69892 0.22660 -0.16912
 H882 H 0.70992 0.19310 -0.14088
 H883 H 0.67818 0.22829 -0.08693
 H884 H 0.66721 0.26172 -0.11510
 H885 H 0.73667 0.27249 -0.12959
 H886 H 0.74766 0.23904 -0.10138
 C887 C 0.20252 0.75727 0.36250
 C888 C 0.19167 0.75990 0.38753
 C889 C 0.19797 0.74207 0.40276
 C890 C 0.21452 0.72334 0.39149
 C891 C 0.23583 0.73749 0.38173
 C892 C 0.22951 0.75535 0.36647
 C893 C 0.19493 0.73243 0.35411
 C894 C 0.20124 0.71458 0.36936
 C895 C 0.19553 0.77656 0.34629
 C896 C 0.18939 0.79258 0.33333
 C897 C 0.22109 0.70425 0.40812
 C898 C 0.22602 0.68883 0.42225
 H899 H 0.18005 0.77449 0.39284
 H900 H 0.19175 0.74140 0.42110
 H901 H 0.25423 0.73380 0.38636
 H902 H 0.24251 0.76696 0.35804
 H903 H 0.18546 0.72915 0.33763
 H904 H 0.19718 0.69601 0.36595
 C905 C 0.28875 0.76018 0.63703
 C906 C 0.29674 0.76347 0.61103
 C907 C 0.29044 0.74513 0.59658
 C908 C 0.27676 0.72525 0.60951
 C909 C 0.25542 0.73778 0.62137
 C910 C 0.26173 0.75616 0.63585
 C911 C 0.29925 0.73605 0.64464
 C912 C 0.29294 0.71768 0.63017
 C913 C 0.29572 0.78005 0.65238
 C914 C 0.30180 0.79659 0.66457
 C915 C 0.27019 0.70562 0.59367
 C916 C 0.26524 0.68980 0.58009
 H917 H 0.30648 0.77887 0.60453
 H918 H 0.29479 0.74483 0.57770
 H919 H 0.23700 0.73266 0.61866
 H920 H 0.24871 0.76679 0.64555
 H921 H 0.31060 0.73361 0.66006
 H922 H 0.29889 0.69950 0.63318
 C923 C 0.78918 0.26055 0.13582
 C924 C 0.79198 0.23586 0.14734
 C925 C 0.78571 0.21757 0.13275
 C926 C 0.77725 0.22578 0.10809
 C927 C 0.79766 0.24108 0.09817
 C928 C 0.80393 0.25934 0.11274
 C929 C 0.76312 0.26171 0.12768
 C930 C 0.75685 0.24342 0.11308
 C931 C 0.79615 0.28027 0.15134
 C932 C 0.80232 0.29658 0.16379
 C933 C 0.77075 0.20620 0.09218
 C934 C 0.76595 0.19032 0.07863
 H935 H 0.79832 0.23301 0.16537
 H936 H 0.78666 0.19904 0.13827
 H937 H 0.80643 0.23784 0.08118
 H938 H 0.81806 0.27174 0.10823
 H939 H 0.75070 0.27564 0.13294
 H940 H 0.73905 0.24167 0.10583
 C941 C 0.48463 0.41542 0.51553
 C942 C 0.49457 0.39522 0.49992
 C943 C 0.49582 0.37382 0.51138
 C944 C 0.48701 0.37472 0.53731
 C945 C 0.46164 0.38497 0.53599
 C946 C 0.46039 0.40638 0.52452
 C947 C 0.50061 0.41569 0.53762
 C948 C 0.50185 0.39432 0.54906
 C949 C 0.48348 0.43855 0.50337
 C950 C 0.48289 0.45776 0.49373
 C951 C 0.48858 0.35180 0.54982
 C952 C 0.49038 0.33321 0.56047
 H953 H 0.50012 0.39753 0.48149
 H954 H 0.50244 0.35778 0.50277
 H955 H 0.44604 0.37618 0.54337
 H956 H 0.44372 0.41594 0.52208
 H957 H 0.51011 0.43132 0.54374
 H958 H 0.51243 0.39164 0.56499
 C959 C -0.01360 0.91600 0.01664
 C960 C -0.00396 0.89569 0.00099
 C961 C -0.00289 0.87428 0.01245
 C962 C -0.01156 0.87529 0.03843
 C963 C -0.03682 0.88581 0.03723
 C964 C -0.03790 0.90723 0.02576
 C965 C 0.00249 0.91610 0.03865
 C966 C 0.00356 0.89472 0.05010
 C967 C -0.01456 0.93913 0.00448
 C968 C -0.01500 0.95834 -0.00517
 C969 C -0.01017 0.85236 0.05094
 C970 C -0.00849 0.83374 0.06156
 H971 H 0.00152 0.89793 -0.01747
 H972 H 0.00351 0.85817 0.00382
 H973 H -0.05248 0.87720 0.04469
 H974 H -0.05447 0.91697 0.02340
 H975 H 0.01220 0.93163 0.04472
 H976 H 0.01418 0.89193 0.06597
 C977 C 0.05225 0.60536 -0.01956
 C978 C 0.03130 0.62192 -0.02563
 C979 C 0.02562 0.63749 -0.00788
 C980 C 0.04143 0.63499 0.01422
 C981 C 0.06705 0.63764 0.00486
 C982 C 0.07273 0.62208 -0.01289
 C983 C 0.04501 0.59314 0.00388
 C984 C 0.03932 0.60873 0.02165
 C985 C 0.05845 0.58878 -0.03881
 C986 C 0.06373 0.57552 -0.05490
 C987 C 0.03537 0.65193 0.03320
 C988 C 0.03050 0.66622 0.04850
 H989 H 0.02175 0.62144 -0.04239
 H990 H 0.01120 0.65035 -0.00943
 H991 H 0.07963 0.65059 0.01160
 H992 H 0.09018 0.62170 -0.02135
 H993 H 0.04441 0.57395 0.00630
 H994 H 0.03384 0.60290 0.03931
 C995 C 0.55329 0.10502 0.48023
 C996 C 0.53670 0.12520 0.47201
 C997 C 0.53065 0.14073 0.48968
 C998 C 0.54176 0.13457 0.51385
 C999 C 0.56869 0.13314 0.50902
 C1000 C 0.57474 0.11762 0.49135
 C1001 C 0.54020 0.09325 0.50126
 C1002 C 0.53414 0.10880 0.51895
 C1003 C 0.55989 0.08850 0.46106
 C1004 C 0.56549 0.07530 0.44502
 C1005 C 0.53532 0.15148 0.53275
 C1006 C 0.53020 0.16575 0.54798
 H1007 H 0.53026 0.12712 0.45390
 H1008 H 0.51901 0.15593 0.48670
 H1009 H 0.58185 0.14340 0.51866
 H1010 H 0.59309 0.11458 0.48586
 H1011 H 0.53608 0.07439 0.50217
 H1012 H 0.52482 0.10325 0.53503
 C1013 C -0.05562 0.10930 0.51018
 C1014 C -0.07712 0.11967 0.49686
 C1015 C -0.07101 0.13496 0.47895
 C1016 C -0.04401 0.13837 0.47612
 C1017 C -0.03385 0.11314 0.47286
 C1018 C -0.03996 0.09784 0.49079
 C1019 C -0.04153 0.13104 0.51865
 C1020 C -0.03543 0.14631 0.50076
 C1021 C -0.06229 0.09306 0.52962
 C1022 C -0.06798 0.08015 0.54588
 C1023 C -0.03751 0.15506 0.45701
 C1024 C -0.03230 0.16926 0.44170
 H1025 H -0.09551 0.11536 0.50108
 H1026 H -0.08418 0.14374 0.46785
 H1027 H -0.02284 0.10777 0.45781
 H1028 H -0.03419 0.07936 0.49110
 H1029 H -0.03673 0.13415 0.53710
 H1030 H -0.02541 0.16251 0.50388
 C1031 C 0.44394 0.61051 1.01131
 C1032 C 0.47047 0.61706 1.01054
 C1033 C 0.47625 0.63234 0.99251
 C1034 C 0.45493 0.63956 0.97703
 C1035 C 0.43643 0.64969 0.99457
 C1036 C 0.43065 0.63443 1.01258
 C1037 C 0.43852 0.60068 0.98642
 C1038 C 0.44430 0.61597 0.96838
 C1039 C 0.43760 0.59424 1.03080
 C1040 C 0.43207 0.58116 1.04698
 C1041 C 0.46109 0.65620 0.95778
 C1042 C 0.46612 0.67029 0.94233
 H1043 H 0.48357 0.61029 1.02303
 H1044 H 0.49430 0.63865 0.98955
 H1045 H 0.42853 0.66731 0.99297
 H1046 H 0.41782 0.63899 1.02641
 H1047 H 0.43083 0.58326 0.98325
 H1048 H 0.44156 0.61164 0.94976
 C1049 C 0.54146 0.88326 1.01167
 C1050 C 0.53630 0.89663 0.98835
 C1051 C 0.52982 0.88206 0.97010
 C1052 C 0.52914 0.85557 0.97700
 C1053 C 0.51235 0.85429 0.99866
 C1054 C 0.51882 0.86884 1.01688
 C1055 C 0.56048 0.86464 1.00510
 C1056 C 0.55401 0.85010 0.98689
 C1057 C 0.54854 0.89870 1.03142
 C1058 C 0.55463 0.91100 1.04788
 C1059 C 0.52226 0.83966 0.95755
 C1060 C 0.51674 0.82605 0.94196
 H1061 H 0.53761 0.91582 0.98635
 H1062 H 0.52557 0.88876 0.95246
 H1063 H 0.49672 0.84296 0.99958
 H1064 H 0.50874 0.86999 1.03342
 H1065 H 0.57756 0.86304 1.01397
 H1066 H 0.56555 0.83604 0.98015
 C1067 C 0.00834 0.41658 0.48139
 C1068 C 0.01528 0.41882 0.45499
 C1069 C 0.01415 0.39787 0.44286
 C1070 C 0.00618 0.37671 0.45831
 C1071 C -0.01774 0.38447 0.46927
 C1072 C -0.01660 0.40543 0.48141
 C1073 C 0.02482 0.39712 0.49138
 C1074 C 0.02368 0.37614 0.47923
 C1075 C 0.00938 0.43923 0.49429
 C1076 C 0.00988 0.45806 0.50458
 C1077 C 0.00481 0.35428 0.44506
 C1078 C 0.00339 0.33610 0.43377
 H1079 H 0.02066 0.43540 0.44657
 H1080 H 0.01855 0.39650 0.42405
 H1081 H -0.03412 0.37438 0.46768
 H1082 H -0.03201 0.41328 0.49021
 H1083 H 0.03634 0.39960 0.50664
 H1084 H 0.03423 0.36063 0.48408
 C1085 C 0.41749 0.51196 0.48428
 C1086 C 0.41910 0.53816 0.49184
 C1087 C 0.39760 0.54946 0.49279
 C1088 C 0.37656 0.53347 0.48609
 C1089 C 0.37833 0.51192 0.50289
 C1090 C 0.39985 0.50061 0.50193
 C1091 C 0.40439 0.51240 0.46034
 C1092 C 0.38285 0.52372 0.46129
 C1093 C 0.44076 0.50000 0.48343
 C1094 C 0.46010 0.49055 0.48307
 C1095 C 0.35353 0.54587 0.48730
 C1096 C 0.33489 0.55655 0.48867
 H1097 H 0.43568 0.54707 0.49606
 H1098 H 0.39578 0.56805 0.49783
 H1099 H 0.36393 0.50604 0.51448
 H1100 H 0.40390 0.48504 0.51271
 H1101 H 0.41140 0.50450 0.44409
 H1102 H 0.37141 0.52552 0.44586
 C1103 C 0.91984 0.01272 -0.01517
 C1104 C 0.92131 0.03875 -0.00702
 C1105 C 0.89981 0.05007 -0.00633
 C1106 C 0.87892 0.03426 -0.01386
 C1107 C 0.88027 0.01235 0.00251
 C1108 C 0.90179 0.00102 0.00182
 C1109 C 0.90731 0.01369 -0.03941
 C1110 C 0.88577 0.02502 -0.03871
 C1111 C 0.94309 0.00072 -0.01575
 C1112 C 0.96240 -0.00879 -0.01595
 C1113 C 0.85587 0.04663 -0.01289
 C1114 C 0.83716 0.05718 -0.01160
 H1115 H 0.93780 0.04754 -0.00223
 H1116 H 0.89789 0.06855 -0.00095
 H1117 H 0.86561 0.00626 0.01365
 H1118 H 0.90557 -0.01478 0.01236
 H1119 H 0.91468 0.00613 -0.05566
 H1120 H 0.87469 0.02718 -0.05437
 C1121 C 0.60719 -0.02210 0.04813
 C1122 C 0.59766 0.00318 0.05268
 C1123 C 0.61341 0.02065 0.04663
 C1124 C 0.63712 0.01112 0.03664
 C1125 C 0.63018 -0.00488 0.01566
 C1126 C 0.61443 -0.02235 0.02171
 C1127 C 0.63075 -0.02348 0.06182
 C1128 C 0.64648 -0.00603 0.05579
 C1129 C 0.59043 -0.04102 0.05473
 C1130 C 0.57699 -0.05682 0.06034
 C1131 C 0.65424 0.02980 0.03023
 C1132 C 0.66865 0.04489 0.02518
 H1133 H 0.58010 0.00700 0.05998
 H1134 H 0.60934 0.03946 0.04875
 H1135 H 0.63700 -0.00267 -0.00235
 H1136 H 0.60777 -0.03510 0.00888
 H1137 H 0.63473 -0.03699 0.07512
 H1138 H 0.66393 -0.00459 0.06390
 C1139 C 0.07496 0.51167 0.51659
 C1140 C 0.08852 0.50904 0.49291
 C1141 C 0.10995 0.52036 0.49255
 C1142 C 0.11574 0.53320 0.51592
 C1143 C 0.11378 0.51396 0.53532
 C1144 C 0.09231 0.50263 0.53568
 C1145 C 0.07307 0.53863 0.52074
 C1146 C 0.09450 0.54994 0.52038
 C1147 C 0.05176 0.49970 0.51680
 C1148 C 0.03247 0.49030 0.51663
 C1149 C 0.13870 0.54562 0.51531
 C1150 C 0.15728 0.55631 0.51432
 H1151 H 0.08188 0.49913 0.47775
 H1152 H 0.12168 0.52014 0.47709
 H1153 H 0.12797 0.50963 0.54767
 H1154 H 0.08811 0.48858 0.54833
 H1155 H 0.05636 0.54802 0.52373
 H1156 H 0.09614 0.56902 0.52307
 C1157 C 0.11286 0.50561 -0.05402
 C1158 C 0.13190 0.50000 -0.07296
 C1159 C 0.14694 0.48198 -0.06667
 C1160 C 0.14148 0.47131 -0.04204
 C1161 C 0.11522 0.46378 -0.04311
 C1162 C 0.10016 0.48183 -0.04941
 C1163 C 0.12684 0.51057 -0.03116
 C1164 C 0.14188 0.49255 -0.02486
 C1165 C 0.09689 0.52518 -0.06087
 C1166 C 0.08420 0.54156 -0.06670
 C1167 C 0.15793 0.45210 -0.03529
 C1168 C 0.17198 0.43678 -0.02978
 H1169 H 0.13343 0.50935 -0.08986
 H1170 H 0.16134 0.47590 -0.07817
 H1171 H 0.10901 0.44588 -0.03925
 H1172 H 0.08104 0.47939 -0.05096
 H1173 H 0.12507 0.52681 -0.02080
 H1174 H 0.15299 0.49335 -0.00911
 C1175 C 0.61528 1.00577 0.44597
 C1176 C 0.63393 0.99983 0.42674
 C1177 C 0.64898 0.98179 0.43296
 C1178 C 0.64392 0.97144 0.45781
 C1179 C 0.61760 0.96406 0.45733
 C1180 C 0.60253 0.98213 0.45110
 C1181 C 0.62973 1.01092 0.46850
 C1182 C 0.64478 0.99288 0.47472
 C1183 C 0.59927 1.02532 0.43917
 C1184 C 0.58647 1.04160 0.43333
 C1185 C 0.66034 0.95219 0.46447
 C1186 C 0.67429 0.93675 0.46992
 H1187 H 0.63520 1.00897 0.40971
 H1188 H 0.66312 0.97548 0.42126
 H1189 H 0.61135 0.94625 0.46151
 H1190 H 0.58337 0.97979 0.44994
 H1191 H 0.62824 1.02729 0.47869
 H1192 H 0.65619 0.99379 0.49024
 C1193 C 0.88464 1.00926 0.54572
 C1194 C 0.88588 1.00284 0.51916
 C1195 C 0.87164 0.98420 0.51313
 C1196 C 0.85755 0.97382 0.53425
 C1197 C 0.84388 0.99505 0.54488
 C1198 C 0.85810 1.01366 0.55090
 C1199 C 0.89069 0.98604 0.55893
 C1200 C 0.87644 0.96740 0.55290
 C1201 C 0.89976 1.02943 0.55231
 C1202 C 0.91179 1.04623 0.55800
 C1203 C 0.84197 0.95394 0.52780
 C1204 C 0.82863 0.93804 0.52253
 H1205 H 0.89698 1.01210 0.50624
 H1206 H 0.87053 0.97749 0.49504
 H1207 H 0.82468 0.99544 0.54745
 H1208 H 0.85109 1.02999 0.55862
 H1209 H 0.90492 0.98438 0.57186
 H1210 H 0.87846 0.94978 0.56066
 C1211 C 0.38435 0.51087 0.04487
 C1212 C 0.38313 0.50748 0.01777
 C1213 C 0.36872 0.48922 0.01103
 C1214 C 0.35695 0.47616 0.03206
 C1215 C 0.34396 0.49567 0.04625
 C1216 C 0.35835 0.51390 0.05298
 C1217 C 0.39210 0.48654 0.05475
 C1218 C 0.37769 0.46828 0.04801
 C1219 C 0.39964 0.53064 0.05222
 C1220 C 0.41179 0.54716 0.05843
 C1221 C 0.34121 0.45665 0.02498
 C1222 C 0.32777 0.44088 0.01956
 H1223 H 0.39276 0.51844 0.00500
 H1224 H 0.36599 0.48453 -0.00751
 H1225 H 0.32509 0.49521 0.05063
 H1226 H 0.35180 0.52905 0.06312
 H1227 H 0.40756 0.48388 0.06601
 H1228 H 0.38079 0.44997 0.05350
 C1229 C 0.51567 0.48191 0.41851
 C1230 C 0.50026 0.49170 0.39818
 C1231 C 0.51193 0.49284 0.37684
 C1232 C 0.53786 0.48409 0.37793
 C1233 C 0.53642 0.45878 0.38828
 C1234 C 0.52475 0.45764 0.40963
 C1235 C 0.53777 0.49792 0.41884
 C1236 C 0.54943 0.49907 0.39753
 C1237 C 0.50329 0.48086 0.44158
 C1238 C 0.49347 0.48034 0.46075
 C1239 C 0.55059 0.48555 0.35507
 C1240 C 0.56138 0.48725 0.33650
 H1241 H 0.48180 0.49721 0.40035
 H1242 H 0.50348 0.49934 0.36072
 H1243 H 0.54389 0.44316 0.37960
 H1244 H 0.52220 0.44103 0.41925
 H1245 H 0.54376 0.50753 0.43447
 H1246 H 0.56539 0.50965 0.39490
 C1247 C 0.01754 -0.01769 0.91940
 C1248 C 0.00200 -0.00754 0.89935
 C1249 C 0.01341 -0.00637 0.87787
 C1250 C 0.03923 -0.01547 0.87856
 C1251 C 0.03760 -0.04083 0.88873
 C1252 C 0.02618 -0.04201 0.91022
 C1253 C 0.03985 -0.00197 0.91958
 C1254 C 0.05125 -0.00080 0.89813
 C1255 C 0.00540 -0.01874 0.94259
 C1256 C -0.00431 -0.01920 0.96181
 C1257 C 0.05167 -0.01396 0.85555
 C1258 C 0.06220 -0.01220 0.83685
 H1259 H -0.01636 -0.00181 0.90180
 H1260 H 0.00483 0.00037 0.86192
 H1261 H 0.04475 -0.05648 0.87983
 H1262 H 0.02355 -0.05866 0.91974
 H1263 H 0.04616 0.00742 0.93520
 H1264 H 0.06732 0.00959 0.89538
 C1265 C -0.02046 0.04844 0.60924
 C1266 C 0.00455 0.05005 0.59810
 C1267 C 0.02240 0.04446 0.61355
 C1268 C 0.01346 0.03781 0.63860
 C1269 C -0.00429 0.01745 0.63473
 C1270 C -0.02212 0.02304 0.61929
 C1271 C -0.01967 0.06467 0.63119
 C1272 C -0.00185 0.05908 0.64662
 C1273 C -0.03978 0.05451 0.59280
 C1274 C -0.05593 0.05964 0.57963
 C1275 C 0.03252 0.03184 0.65540
 C1276 C 0.04788 0.02700 0.66955
 H1277 H 0.00794 0.05512 0.57971
 H1278 H 0.04108 0.04474 0.60840
 H1279 H -0.00295 0.00016 0.64334
 H1280 H -0.03605 0.01053 0.61467
 H1281 H -0.03202 0.07928 0.63434
 H1282 H 0.00106 0.06891 0.66298
 C1283 C 0.47981 0.54813 0.10954
 C1284 C 0.47627 0.55825 0.13470
 C1285 C 0.49413 0.55243 0.15000
 C1286 C 0.51382 0.53706 0.13866
 C1287 C 0.52230 0.55127 0.11680
 C1288 C 0.50441 0.55709 0.10149
 C1289 C 0.48296 0.52118 0.11313
 C1290 C 0.50084 0.51536 0.12844
 C1291 C 0.46044 0.55449 0.09325
 C1292 C 0.44424 0.55993 0.08026
 C1293 C 0.53292 0.53087 0.15533
 C1294 C 0.54831 0.52590 0.16942
 H1295 H 0.46107 0.56904 0.14005
 H1296 H 0.49422 0.55825 0.16844
 H1297 H 0.54071 0.55629 0.11363
 H1298 H 0.50750 0.56710 0.08519
 H1299 H 0.47212 0.50785 0.10440
 H1300 H 0.50532 0.49704 0.13283
 C1301 C 0.50779 -0.05424 0.11059
 C1302 C 0.48267 -0.05806 0.10062
 C1303 C 0.46490 -0.05135 0.11592
 C1304 C 0.47403 -0.04150 0.13967
 C1305 C 0.49087 -0.02110 0.13273
 C1306 C 0.50862 -0.02780 0.11744
 C1307 C 0.50805 -0.06780 0.13436
 C1308 C 0.49032 -0.06111 0.14963
 C1309 C 0.52704 -0.06156 0.09436
 C1310 C 0.54315 -0.06780 0.08145
 C1311 C 0.45512 -0.03438 0.15638
 C1312 C 0.44002 -0.02869 0.17066
 H1313 H 0.47914 -0.06536 0.08310
 H1314 H 0.44616 -0.05291 0.11152
 H1315 H 0.48900 -0.00298 0.13923
 H1316 H 0.52196 -0.01542 0.11084
 H1317 H 0.52103 -0.08148 0.13881
 H1318 H 0.48811 -0.06906 0.16716
 C1319 C 0.97649 0.47902 0.58039
 C1320 C 0.96818 0.45429 0.58865
 C1321 C 0.95637 0.45454 0.60995
 C1322 C 0.95404 0.47950 0.62088
 C1323 C 0.94208 0.49472 0.60157
 C1324 C 0.95387 0.49447 0.58030
 C1325 C 0.99148 0.48862 0.60102
 C1326 C 0.97967 0.48888 0.62232
 C1327 C 0.98903 0.47896 0.55739
 C1328 C 0.99899 0.47926 0.53829
 C1329 C 0.94119 0.48008 0.64370
 C1330 C 0.93032 0.48124 0.66225
 H1331 H 0.97132 0.43802 0.57866
 H1332 H 0.94938 0.43850 0.61823
 H1333 H 0.92576 0.50482 0.60436
 H1334 H 0.94765 0.50435 0.56487
 H1335 H 1.00975 0.49465 0.59909
 H1336 H 0.98783 0.49513 0.63864
 C1337 C 1.01416 0.54174 0.88490
 C1338 C 1.01776 0.54958 0.85892
 C1339 C 0.99936 0.54363 0.84442
 C1340 C 0.97913 0.53041 0.85729
 C1341 C 0.97177 0.54678 0.87796
 C1342 C 0.99020 0.55275 0.89248
 C1343 C 1.00959 0.51482 0.88368
 C1344 C 0.99116 0.50886 0.86916
 C1345 C 1.03410 0.54827 0.90032
 C1346 C 1.05071 0.55389 0.91261
 C1347 C 0.95946 0.52408 0.84144
 C1348 C 0.94365 0.51903 0.82793
 H1349 H 1.03340 0.55899 0.85247
 H1350 H 0.99925 0.54795 0.82555
 H1351 H 0.95369 0.55312 0.88094
 H1352 H 0.98790 0.56419 0.90791
 H1353 H 1.01989 0.50161 0.89338
 H1354 H 0.98568 0.49054 0.86641
 C1355 C 0.51670 0.04076 0.38466
 C1356 C 0.49350 0.03503 0.39811
 C1357 C 0.47518 0.02882 0.38355
 C1358 C 0.48189 0.02897 0.35698
 C1359 C 0.50363 0.01240 0.35494
 C1360 C 0.52194 0.01860 0.36949
 C1361 C 0.50989 0.06026 0.36670
 C1362 C 0.49160 0.05406 0.35217
 C1363 C 0.53650 0.04759 0.40012
 C1364 C 0.55297 0.05348 0.41247
 C1365 C 0.46230 0.02249 0.34111
 C1366 C 0.44643 0.01758 0.32762
 H1367 H 0.49164 0.03576 0.41736
 H1368 H 0.45762 0.02423 0.39032
 H1369 H 0.50456 -0.00287 0.34313
 H1370 H 0.53855 0.00864 0.37015
 H1371 H 0.51865 0.07744 0.36552
 H1372 H 0.48470 0.06594 0.33853
   
