data_POSCAR
  _audit_creation_date              2014-09-24
  _audit_creation_method            'ToBaCCo'
  _symmetry_space_group_name_H-M    'P1'
  _symmetry_Int_Tables_number       1
  _symmetry_cell_setting            triclinic
  loop_
  _symmetry_equiv_pos_as_xyz
 x,y,z
_cell_length_a 57.6529
_cell_length_b 57.8304
_cell_length_c 53.2106
_cell_angle_alpha 90.743600
_cell_angle_beta 90.335300
_cell_angle_gamma 92.288300
loop_
  _atom_site_label
  _atom_site_type_symbol
  _atom_site_fract_x
  _atom_site_fract_y
  _atom_site_fract_z
C1 C 0.35969 -0.00936 0.23964
 C2 C 0.12054 0.00698 0.75803
 C3 C 0.63347 0.49611 0.25071
 C4 C 0.86812 0.50078 0.74021
 C5 C 0.24577 0.39105 0.99924
 C6 C 0.75388 0.11868 0.99877
 C7 C 0.27063 0.62101 0.51446
 C8 C 0.74067 0.89129 0.50622
 C9 C 0.00251 0.25593 0.37442
 C10 C -0.00174 0.75483 0.13032
 C11 C 0.50259 0.24259 0.62528
 C12 C 0.49712 0.74559 0.87390
 C13 C -0.24848 0.61829 0.99821
 C14 C -0.23678 0.38191 0.50099
 C15 C 0.24710 -0.11734 0.00939
 C16 C 0.25132 1.10686 0.49293
 C17 C 0.14192 0.48555 0.25115
 C18 C -0.14372 1.00850 0.24480
 C19 C 0.35518 0.51060 -0.25697
 C20 C 0.63996 -0.00444 -0.25374
 C21 C 0.00503 0.25527 0.87950
 C22 C 0.49977 0.24963 0.11759
 C23 C -0.00289 0.75666 0.62484
 C24 C 0.49794 0.73865 0.38134
 B25 B -0.00451 0.02222 1.03579
 B26 B -0.02153 0.01677 1.01030
 B27 B 0.00222 0.03496 1.00835
 B28 B 0.02342 0.02443 1.02661
 B29 B 0.01259 -0.00045 1.03952
 B30 B -0.01541 -0.00501 1.02968
 B31 B 0.01267 -0.00654 0.98853
 B32 B 0.02952 -0.00162 1.01406
 B33 B 0.00588 -0.01937 1.01595
 B34 B -0.01528 -0.00897 0.99781
 B35 B -0.00431 0.01601 0.98470
 B36 B 0.02367 0.02037 0.99482
 B37 B 0.49995 0.50249 0.53208
 B38 B 0.48517 0.49934 0.50477
 B39 B 0.50853 0.51791 0.50679
 B40 B 0.52852 0.50623 0.52572
 B41 B 0.51735 0.48003 0.53510
 B42 B 0.49030 0.47585 0.52208
 B43 B 0.52141 0.47852 0.48395
 B44 B 0.53627 0.48149 0.51117
 B45 B 0.51292 0.46323 0.50915
 B46 B 0.49287 0.47494 0.49029
 B47 B 0.50427 0.50109 0.48084
 B48 B 0.53130 0.50488 0.49381
 B49 B 0.50418 0.97984 0.52321
 B50 B 0.51566 0.98395 0.49459
 B51 B 0.49328 0.96472 0.49820
 B52 B 0.47515 0.97517 0.52009
 B53 B 0.48659 1.00148 0.52976
 B54 B 0.51186 1.00688 0.51388
 B55 B 0.47641 1.00376 0.47953
 B56 B 0.46498 0.99970 0.50820
 B57 B 0.48736 1.01889 0.50450
 B58 B 0.50546 1.00842 0.48264
 B59 B 0.49404 0.98216 0.47299
 B60 B 0.46875 0.97672 0.48888
 B61 B 0.01027 0.49542 1.02799
 B62 B 0.02388 0.49919 1.00046
 B63 B 0.00169 0.47952 1.00248
 B64 B -0.01825 0.48997 1.02244
 B65 B -0.00809 0.51671 1.03226
 B66 B 0.01813 0.52246 1.01844
 B67 B -0.01450 0.51769 0.98116
 B68 B -0.02792 0.51401 1.00892
 B69 B -0.00583 0.53365 1.00659
 B70 B 0.01417 0.52316 0.98673
 B71 B 0.00406 0.49642 0.97697
 B72 B -0.02228 0.49077 0.99070
 B73 B 0.02781 0.52311 0.47398
 B74 B 0.04113 0.51844 0.50156
 B75 B 0.01923 0.53672 0.50023
 B76 B -0.00089 0.52624 0.47940
 B77 B 0.00899 0.50101 0.46771
 B78 B 0.03522 0.49608 0.48152
 B79 B 0.00248 0.49593 0.51828
 B80 B -0.01095 0.50083 0.49079
 B81 B 0.01098 0.48241 0.49189
 B82 B 0.03097 0.49282 0.51290
 B83 B 0.02130 0.51836 0.52442
 B84 B -0.00489 0.52309 0.51097
 B85 B 0.51197 0.01290 -0.03004
 B86 B 0.52486 0.00940 -0.00202
 B87 B 0.50217 0.02664 -0.00425
 B88 B 0.48308 0.01491 -0.02551
 B89 B 0.49429 -0.01019 -0.03625
 B90 B 0.52040 -0.01357 -0.02166
 B91 B 0.48679 -0.01422 0.01428
 B92 B 0.47386 -0.01073 -0.01369
 B93 B 0.49658 -0.02793 -0.01148
 B94 B 0.51563 -0.01622 0.00976
 B95 B 0.50441 0.00883 0.02053
 B96 B 0.47832 0.01225 0.00594
 B97 B 0.49095 0.48101 -0.03781
 B98 B 0.47781 0.48408 -0.00969
 B99 B 0.49887 0.46472 -0.01361
 B100 B 0.51932 0.47638 -0.03290
 B101 B 0.51070 0.50310 -0.04077
 B102 B 0.48478 0.50765 -0.02674
 B103 B 0.51742 0.50282 0.01006
 B104 B 0.53050 0.50024 -0.01785
 B105 B 0.50941 0.51923 -0.01430
 B106 B 0.48913 0.50770 0.00508
 B107 B 0.49788 0.48083 0.01312
 B108 B 0.52368 0.47640 -0.00122
 B109 B -0.02317 0.99091 0.47749
 B110 B -0.03469 0.99683 0.50574
 B111 B -0.01392 0.97725 0.50327
 B112 B 0.00547 0.98633 0.48146
 B113 B -0.00353 1.01201 0.47050
 B114 B -0.02860 1.01854 0.48550
 B115 B 0.00590 1.01731 0.52082
 B116 B 0.01755 1.01143 0.49268
 B117 B -0.00314 1.03099 0.49489
 B118 B -0.02256 1.02201 0.51674
 B119 B -0.01364 0.99621 0.52775
 B120 B 0.01142 0.98970 0.51272
 B121 B 0.76570 0.24662 0.22371
 B122 B 0.75957 0.23374 0.25111
 B123 B 0.77831 0.25674 0.25059
 B124 B 0.76911 0.27545 0.22894
 B125 B 0.74401 0.26373 0.21624
 B126 B 0.73810 0.23767 0.23002
 B127 B 0.73705 0.27136 0.26650
 B128 B 0.74319 0.28418 0.23903
 B129 B 0.72442 0.26119 0.23967
 B130 B 0.73365 0.24246 0.26127
 B131 B 0.75869 0.25420 0.27395
 B132 B 0.76464 0.28028 0.26016
 B133 B 0.73566 0.75751 0.72770
 B134 B 0.74037 0.77308 0.75448
 B135 B 0.72174 0.74954 0.75405
 B136 B 0.73274 0.72923 0.73487
 B137 B 0.75826 0.74033 0.72358
 B138 B 0.76285 0.76760 0.73542
 B139 B 0.76241 0.73749 0.77461
 B140 B 0.75823 0.72209 0.74786
 B141 B 0.77639 0.74544 0.74814
 B142 B 0.76560 0.76577 0.76734
 B143 B 0.73987 0.75457 0.77883
 B144 B 0.73555 0.72727 0.76667
 B145 B 0.26549 0.26528 0.76698
 B146 B 0.26173 0.27693 0.73853
 B147 B 0.28032 0.25550 0.74212
 B148 B 0.26919 0.23655 0.76321
 B149 B 0.24326 0.24657 0.77259
 B150 B 0.23862 0.27176 0.75730
 B151 B 0.24056 0.23719 0.72202
 B152 B 0.24432 0.22547 0.75039
 B153 B 0.22566 0.24689 0.74719
 B154 B 0.23671 0.26580 0.72591
 B155 B 0.26286 0.25588 0.71648
 B156 B 0.26748 0.23067 0.73178
 B157 B 0.23425 0.72792 0.27889
 B158 B 0.23841 0.71675 0.25002
 B159 B 0.21964 0.73801 0.25400
 B160 B 0.23036 0.75664 0.27632
 B161 B 0.25633 0.74668 0.28594
 B162 B 0.26130 0.72177 0.26958
 B163 B 0.25959 0.75693 0.23599
 B164 B 0.25538 0.76812 0.26482
 B165 B 0.27413 0.74684 0.26087
 B166 B 0.26345 0.72823 0.23852
 B167 B 0.23749 0.73820 0.22887
 B168 B 0.23250 0.76309 0.24524
 B169 B 0.25271 0.75182 0.73493
 B170 B 0.24876 0.73445 0.75988
 B171 B 0.26752 0.75758 0.76188
 B172 B 0.25648 0.77937 0.74531
 B173 B 0.23048 0.76944 0.73331
 B174 B 0.22570 0.74142 0.74236
 B175 B 0.22760 0.76861 0.78455
 B176 B 0.23141 0.78584 0.75957
 B177 B 0.21288 0.76279 0.75764
 B178 B 0.22391 0.74096 0.77427
 B179 B 0.25000 0.75105 0.78634
 B180 B 0.25436 0.77906 0.77724
 B181 B 0.23419 0.25032 0.21802
 B182 B 0.23919 0.26177 0.24710
 B183 B 0.22149 0.23793 0.24316
 B184 B 0.23241 0.22109 0.22025
 B185 B 0.25721 0.23487 0.20995
 B186 B 0.26123 0.26020 0.22635
 B187 B 0.26324 0.22467 0.25958
 B188 B 0.25873 0.21326 0.23064
 B189 B 0.27603 0.23707 0.23441
 B190 B 0.26518 0.25379 0.25734
 B191 B 0.24033 0.24000 0.26763
 B192 B 0.23653 0.21464 0.25095
 B193 B 0.75960 0.76443 0.27508
 B194 B 0.75552 0.77703 0.24718
 B195 B 0.77520 0.75653 0.24982
 B196 B 0.76497 0.73617 0.26990
 B197 B 0.73836 0.74432 0.27950
 B198 B 0.73245 0.76985 0.26541
 B199 B 0.73649 0.73717 0.22851
 B200 B 0.74075 0.72432 0.25625
 B201 B 0.72095 0.74481 0.25394
 B202 B 0.73113 0.76527 0.23380
 B203 B 0.75783 0.75708 0.22411
 B204 B 0.76373 0.73157 0.23816
 B205 B 0.74048 0.23720 0.77022
 B206 B 0.74731 0.22265 0.74376
 B207 B 0.72797 0.24366 0.74268
 B208 B 0.73658 0.26506 0.76291
 B209 B 0.76192 0.25714 0.77637
 B210 B 0.76832 0.23055 0.76479
 B211 B 0.76912 0.26113 0.72597
 B212 B 0.76241 0.27558 0.75233
 B213 B 0.78168 0.25448 0.75346
 B214 B 0.77301 0.23307 0.73324
 B215 B 0.74792 0.24129 0.71959
 B216 B 0.74128 0.26774 0.73150
 C217 C 0.39763 1.00474 0.31045
 C218 C 0.39750 0.98289 0.29865
 C219 C 0.38557 0.97881 0.27608
 C220 C 0.37381 0.99658 0.26401
 C221 C 0.37404 1.01855 0.27610
 C222 C 0.38592 1.02255 0.29884
 C223 C 0.40876 1.00840 0.33550
 C224 C 0.42124 1.02913 0.34176
 C225 C 0.43139 1.03230 0.36565
 C226 C 0.42906 1.01486 0.38370
 C227 C 0.41675 0.99413 0.37724
 C228 C 0.40664 0.99101 0.35358
 C229 C 0.43956 1.01754 0.40918
 C230 C 0.42752 1.00843 0.42985
 C231 C 0.43875 1.00584 0.45273
 C232 C 0.46217 1.01316 0.45610
 C233 C 0.47356 1.02447 0.43610
 C234 C 0.46238 1.02655 0.41278
 H235 H 0.40655 0.96880 0.30697
 H236 H 0.38557 0.96159 0.26781
 H237 H 0.36463 1.03273 0.26870
 H238 H 0.38523 1.03943 0.30779
 H239 H 0.42332 1.04279 0.32813
 H240 H 0.44081 1.04843 0.37009
 H241 H 0.41506 0.98011 0.39048
 H242 H 0.39688 0.97499 0.34956
 H243 H 0.40973 1.00188 0.42788
 H244 H 0.42931 0.99654 0.46717
 H245 H 0.49162 1.03018 0.43780
 H246 H 0.47210 1.03371 0.39716
 C247 C -0.08789 0.51347 0.80791
 C248 C -0.09219 0.49105 0.79815
 C249 C -0.10583 0.48728 0.77666
 C250 C -0.11515 0.50578 0.76322
 C251 C -0.10975 0.52841 0.77276
 C252 C -0.09652 0.53212 0.79468
 C253 C -0.07618 0.51710 0.83280
 C254 C -0.06205 0.53702 0.83827
 C255 C -0.05230 0.54063 0.86231
 C256 C -0.05646 0.52436 0.88133
 C257 C -0.06997 0.50419 0.87552
 C258 C -0.07990 0.50077 0.85182
 C259 C -0.04707 0.52785 0.90730
 C260 C -0.06028 0.51979 0.92765
 C261 C -0.05036 0.51814 0.95134
 C262 C -0.02723 0.52581 0.95606
 C263 C -0.01464 0.53607 0.93620
 C264 C -0.02441 0.53693 0.91198
 H265 H -0.08551 0.47616 0.80748
 H266 H -0.10988 0.46949 0.77116
 H267 H -0.11617 0.54367 0.76421
 H268 H -0.09389 0.54966 0.80179
 H269 H -0.05854 0.54984 0.82400
 H270 H -0.04190 0.55630 0.86613
 H271 H -0.07301 0.49090 0.88939
 H272 H -0.09098 0.48545 0.84868
 H273 H -0.07804 0.51337 0.92498
 H274 H -0.06063 0.50931 0.96546
 H275 H 0.00330 0.54188 0.93888
 H276 H -0.01375 0.54332 0.89670
 C277 C 0.07761 -0.01926 0.81980
 C278 C 0.06819 -0.01863 0.79546
 C279 C 0.08151 -0.00980 0.77556
 C280 C 0.10426 -0.00039 0.77973
 C281 C 0.11360 -0.00181 0.80421
 C282 C 0.10045 -0.01077 0.82390
 C283 C 0.06381 -0.02794 0.84137
 C284 C 0.04137 -0.02018 0.84567
 C285 C 0.03071 -0.02377 0.86895
 C286 C 0.04241 -0.03512 0.88814
 C287 C 0.06372 -0.04495 0.88287
 C288 C 0.07429 -0.04147 0.85966
 C289 C 0.03533 -0.03197 0.91453
 C290 C 0.01261 -0.03720 0.92259
 C291 C 0.00573 -0.03082 0.94688
 C292 C 0.02133 -0.01861 0.96323
 C293 C 0.04410 -0.01372 0.95485
 C294 C 0.05110 -0.02072 0.93113
 H295 H 0.05074 -0.02550 0.79174
 H296 H 0.07409 -0.01098 0.75687
 H297 H 0.13137 0.00389 0.80815
 H298 H 0.10818 -0.01089 0.84250
 H299 H 0.03293 -0.00970 0.83189
 H300 H 0.01436 -0.01584 0.87272
 H301 H 0.07298 -0.05383 0.89741
 H302 H 0.09138 -0.04808 0.85659
 H303 H 0.00008 -0.04559 0.90988
 H304 H -0.01212 -0.03436 0.95228
 H305 H 0.05645 -0.00349 0.96614
 H306 H 0.06854 -0.01594 0.92511
 C307 C 0.59240 0.47415 0.31601
 C308 C 0.58107 0.48038 0.29383
 C309 C 0.59374 0.48821 0.27314
 C310 C 0.61828 0.48896 0.27353
 C311 C 0.62942 0.48372 0.29632
 C312 C 0.61673 0.47638 0.31715
 C313 C 0.57898 0.46658 0.33842
 C314 C 0.55769 0.47646 0.34415
 C315 C 0.54668 0.47172 0.36689
 C316 C 0.55692 0.45736 0.38441
 C317 C 0.57737 0.44637 0.37824
 C318 C 0.58814 0.45068 0.35526
 C319 C 0.54906 0.45804 0.41058
 C320 C 0.52639 0.45092 0.41711
 C321 C 0.51805 0.45573 0.44119
 C322 C 0.53207 0.46834 0.45874
 C323 C 0.55496 0.47490 0.45200
 C324 C 0.56347 0.46938 0.42842
 H325 H 0.56233 0.47919 0.29234
 H326 H 0.58396 0.49371 0.25711
 H327 H 0.64818 0.48492 0.29777
 H328 H 0.62607 0.47273 0.33425
 H329 H 0.55022 0.48899 0.33189
 H330 H 0.53113 0.48070 0.37164
 H331 H 0.58556 0.43537 0.39171
 H332 H 0.60414 0.44225 0.35115
 H333 H 0.51496 0.44244 0.40332
 H334 H 0.50024 0.45070 0.44545
 H335 H 0.56615 0.48524 0.46451
 H336 H 0.58085 0.47545 0.42347
 C337 C 0.59306 0.50686 0.18197
 C338 C 0.59150 0.48583 0.19484
 C339 C 0.60439 0.48278 0.21667
 C340 C 0.61865 0.50091 0.22709
 C341 C 0.62019 0.52201 0.21390
 C342 C 0.60744 0.52495 0.19182
 C343 C 0.58113 0.50916 0.15738
 C344 C 0.57121 0.53000 0.15033
 C345 C 0.56099 0.53208 0.12652
 C346 C 0.56069 0.51339 0.10939
 C347 C 0.57005 0.49245 0.11680
 C348 C 0.58027 0.49042 0.14034
 C349 C 0.55135 0.51528 0.08353
 C350 C 0.56322 0.50507 0.06367
 C351 C 0.55298 0.50254 0.04011
 C352 C 0.53082 0.51095 0.03527
 C353 C 0.51968 0.52297 0.05465
 C354 C 0.52986 0.52507 0.07866
 H355 H 0.58044 0.47155 0.18790
 H356 H 0.60311 0.46610 0.22570
 H357 H 0.63172 0.53621 0.21990
 H358 H 0.60955 0.54113 0.18192
 H359 H 0.57140 0.54468 0.16318
 H360 H 0.55385 0.54838 0.12129
 H361 H 0.56965 0.47757 0.10421
 H362 H 0.58802 0.47424 0.14492
 H363 H 0.58008 0.49791 0.06668
 H364 H 0.56219 0.49290 0.02605
 H365 H 0.50256 0.52954 0.05173
 H366 H 0.52036 0.53310 0.09370
 C367 C 0.08419 1.02602 0.68937
 C368 C 0.10507 1.01449 0.68813
 C369 C 0.11687 1.00895 0.70994
 C370 C 0.10769 1.01391 0.73386
 C371 C 0.08809 1.02783 0.73486
 C372 C 0.07620 1.03348 0.71283
 C373 C 0.07051 1.02862 0.66606
 C374 C 0.06254 1.05013 0.65847
 C375 C 0.05203 1.05230 0.63476
 C376 C 0.04946 1.03296 0.61855
 C377 C 0.05618 1.01131 0.62698
 C378 C 0.06661 1.00918 0.65038
 C379 C 0.04080 1.03472 0.59243
 C380 C 0.05256 1.02335 0.57324
 C381 C 0.04228 1.01969 0.54981
 C382 C 0.02015 1.02794 0.54449
 C383 C 0.00940 1.04147 0.56296
 C384 C 0.01964 1.04479 0.58683
 H385 H 0.11212 1.00943 0.67014
 H386 H 0.13309 1.00036 0.70792
 H387 H 0.08155 1.03371 0.75277
 H388 H 0.06042 1.04295 0.71418
 H389 H 0.06531 1.06533 0.67038
 H390 H 0.04680 1.06913 0.62870
 H391 H 0.05377 0.99599 0.61517
 H392 H 0.07213 0.99232 0.65606
 H393 H 0.06913 1.01581 0.57694
 H394 H 0.05117 1.00893 0.53650
 H395 H -0.00766 1.04804 0.55969
 H396 H 0.01028 1.05372 0.60136
 C397 C -0.09328 0.47870 0.67280
 C398 C -0.08674 0.47176 0.69689
 C399 C -0.09844 0.47920 0.71820
 C400 C -0.11762 0.49362 0.71652
 C401 C -0.12502 0.49909 0.69189
 C402 C -0.11277 0.49236 0.67062
 C403 C -0.07919 0.47271 0.65032
 C404 C -0.08918 0.47108 0.62609
 C405 C -0.07522 0.46895 0.60482
 C406 C -0.05101 0.46787 0.60730
 C407 C -0.04134 0.46721 0.63156
 C408 C -0.05512 0.47003 0.65272
 C409 C -0.03567 0.47090 0.58509
 C410 C -0.01520 0.48472 0.58748
 C411 C -0.00235 0.49094 0.56647
 C412 C -0.00974 0.48401 0.54215
 C413 C -0.02912 0.46850 0.53991
 C414 C -0.04209 0.46217 0.56114
 H415 H -0.07250 0.46039 0.69950
 H416 H -0.09199 0.47309 0.73569
 H417 H -0.14066 0.50837 0.68876
 H418 H -0.11859 0.49819 0.65250
 H419 H -0.10770 0.47220 0.62338
 H420 H -0.08332 0.46949 0.58644
 H421 H -0.02284 0.46569 0.63425
 H422 H -0.04651 0.47130 0.67082
 H423 H -0.00968 0.49203 0.60546
 H424 H 0.01283 0.50223 0.56955
 H425 H -0.03473 0.46168 0.52179
 H426 H -0.05742 0.45092 0.55870
 C427 C 0.40345 -0.02915 0.17597
 C428 C 0.41362 -0.02423 0.19956
 C429 C 0.40014 -0.01753 0.21991
 C430 C 0.37574 -0.01651 0.21768
 C431 C 0.36578 -0.02101 0.19371
 C432 C 0.37935 -0.02722 0.17327
 C433 C 0.41798 -0.03485 0.15386
 C434 C 0.40909 -0.04954 0.13448
 C435 C 0.42133 -0.05212 0.11211
 C436 C 0.44294 -0.04058 0.10895
 C437 C 0.45269 -0.02736 0.12888
 C438 C 0.44027 -0.02436 0.15105
 C439 C 0.45305 -0.03840 0.08371
 C440 C 0.47613 -0.04383 0.07895
 C441 C 0.48646 -0.03787 0.05602
 C442 C 0.47403 -0.02582 0.03784
 C443 C 0.45075 -0.02087 0.04283
 C444 C 0.44029 -0.02753 0.06519
 H445 H 0.43214 -0.02543 0.20240
 H446 H 0.40930 -0.01294 0.23708
 H447 H 0.34725 -0.01979 0.19089
 H448 H 0.37091 -0.03003 0.15521
 H449 H 0.39230 -0.05841 0.13622
 H450 H 0.41350 -0.06230 0.09683
 H451 H 0.46915 -0.01795 0.12657
 H452 H 0.44761 -0.01268 0.16530
 H453 H 0.48633 -0.05194 0.09328
 H454 H 0.50452 -0.04157 0.05321
 H455 H 0.44072 -0.01085 0.02998
 H456 H 0.42263 -0.02270 0.06876
 C457 C 0.30849 0.43560 0.01202
 C458 C 0.29668 0.42601 0.03257
 C459 C 0.27586 0.41307 0.02891
 C460 C 0.26719 0.40789 0.00439
 C461 C 0.27811 0.41991 -0.01560
 C462 C 0.29849 0.43325 -0.01189
 C463 C 0.33201 0.44646 0.01476
 C464 C 0.33768 0.46751 0.00305
 C465 C 0.36078 0.47561 0.00164
 C466 C 0.37871 0.46259 0.01154
 C467 C 0.37280 0.44209 0.02442
 C468 C 0.34966 0.43420 0.02615
 C469 C 0.40347 0.46936 0.00691
 C470 C 0.42066 0.46511 0.02489
 C471 C 0.44408 0.46972 0.01964
 C472 C 0.45099 0.47847 -0.00387
 C473 C 0.43363 0.48409 -0.02117
 C474 C 0.41025 0.47918 -0.01608
 H475 H 0.30364 0.42843 0.05141
 H476 H 0.26687 0.40702 0.04546
 H477 H 0.27143 0.41901 -0.03445
 H478 H 0.30699 0.44097 -0.02803
 H479 H 0.32428 0.47732 -0.00572
 H480 H 0.36462 0.49176 -0.00781
 H481 H 0.38611 0.43144 0.03200
 H482 H 0.34570 0.41775 0.03498
 H483 H 0.41606 0.45817 0.04306
 H484 H 0.45675 0.46596 0.03395
 H485 H 0.43807 0.49205 -0.03889
 H486 H 0.39755 0.48263 -0.03047
 C487 C -0.19870 0.93481 0.52951
 C488 C -0.19776 0.91070 0.52708
 C489 C -0.21750 0.89728 0.52070
 C490 C -0.23888 0.90742 0.51564
 C491 C -0.24029 0.93141 0.52046
 C492 C -0.22031 0.94500 0.52678
 C493 C -0.17672 0.94893 0.53292
 C494 C -0.17253 0.96910 0.51885
 C495 C -0.15015 0.97942 0.51776
 C496 C -0.13169 0.96963 0.53057
 C497 C -0.13617 0.95060 0.54608
 C498 C -0.15852 0.94052 0.54750
 C499 C -0.10747 0.97684 0.52494
 C500 C -0.09334 0.96112 0.51278
 C501 C -0.07058 0.96752 0.50653
 C502 C -0.06103 0.98963 0.51292
 C503 C -0.07540 1.00542 0.52508
 C504 C -0.09850 0.99914 0.53082
 H505 H -0.18148 0.90215 0.52893
 H506 H -0.21578 0.87880 0.51834
 H507 H -0.25659 0.93990 0.51929
 H508 H -0.22172 0.96349 0.52938
 H509 H -0.18610 0.97592 0.50727
 H510 H -0.14694 0.99402 0.50554
 H511 H -0.12212 0.94289 0.55619
 H512 H -0.16127 0.92536 0.55900
 H513 H -0.10015 0.94398 0.50758
 H514 H -0.06077 0.95518 0.49604
 H515 H -0.06897 1.02273 0.53001
 H516 H -0.10929 1.01157 0.54001
 C517 C -0.18205 0.08091 0.99494
 C518 C -0.20274 0.06909 1.00146
 C519 C -0.22359 0.08061 1.00206
 C520 C -0.22439 0.10412 0.99514
 C521 C -0.20333 0.11557 0.98812
 C522 C -0.18249 0.10416 0.98811
 C523 C -0.15972 0.06960 0.99714
 C524 C -0.15535 0.04965 0.98294
 C525 C -0.13386 0.03938 0.98486
 C526 C -0.11681 0.04861 1.00150
 C527 C -0.12141 0.06829 1.01603
 C528 C -0.14263 0.07885 1.01367
 C529 C -0.09388 0.03835 1.00330
 C530 C -0.08509 0.03198 1.02670
 C531 C -0.06258 0.02418 1.02875
 C532 C -0.04797 0.02377 1.00768
 C533 C -0.05746 0.02874 0.98396
 C534 C -0.08018 0.03603 0.98183
 H535 H -0.20256 0.05123 1.00733
 H536 H -0.23864 0.07115 1.00913
 H537 H -0.20297 0.13373 0.98338
 H538 H -0.16659 0.11362 0.98322
 H539 H -0.16840 0.04232 0.97010
 H540 H -0.13057 0.02418 0.97352
 H541 H -0.10838 0.07574 1.02882
 H542 H -0.14580 0.09417 1.02486
 H543 H -0.09566 0.03313 1.04341
 H544 H -0.05660 0.01883 1.04699
 H545 H -0.04714 0.02782 0.96708
 H546 H -0.08676 0.04070 0.96356
 C547 C 0.33167 0.57903 0.50120
 C548 C 0.31113 0.57474 0.48730
 C549 C 0.29203 0.58873 0.49085
 C550 C 0.29253 0.60669 0.50922
 C551 C 0.31431 0.61223 0.52074
 C552 C 0.33327 0.59852 0.51705
 C553 C 0.35150 0.56341 0.49998
 C554 C 0.36363 0.55856 0.52214
 C555 C 0.38355 0.54574 0.52141
 C556 C 0.39178 0.53702 0.49851
 C557 C 0.37920 0.54113 0.47634
 C558 C 0.35920 0.55418 0.47708
 C559 C 0.41406 0.52484 0.49806
 C560 C 0.43011 0.52846 0.47856
 C561 C 0.45225 0.51947 0.48003
 C562 C 0.45908 0.50722 0.50137
 C563 C 0.44246 0.50232 0.51997
 C564 C 0.42027 0.51092 0.51830
 H565 H 0.30960 0.56023 0.47425
 H566 H 0.27647 0.58501 0.47979
 H567 H 0.31736 0.62725 0.53269
 H568 H 0.34936 0.60323 0.52679
 H569 H 0.35792 0.56506 0.54016
 H570 H 0.39290 0.54334 0.53882
 H571 H 0.38491 0.53444 0.45842
 H572 H 0.35021 0.55765 0.45969
 H573 H 0.42599 0.53913 0.46272
 H574 H 0.46440 0.52324 0.46506
 H575 H 0.44661 0.49215 0.53618
 H576 H 0.40809 0.50705 0.53322
 C577 C 0.20631 0.58375 0.53599
 C578 C 0.21050 0.60710 0.54271
 C579 C 0.23162 0.61837 0.53728
 C580 C 0.25008 0.60648 0.52620
 C581 C 0.24694 0.58222 0.52341
 C582 C 0.22523 0.57117 0.52752
 C583 C 0.18200 0.57358 0.53516
 C584 C 0.17721 0.54954 0.53652
 C585 C 0.15465 0.54022 0.53241
 C586 C 0.13619 0.55474 0.52738
 C587 C 0.14077 0.57877 0.52759
 C588 C 0.16327 0.58799 0.53088
 C589 C 0.11246 0.54514 0.52085
 C590 C 0.09839 0.55692 0.50400
 C591 C 0.07599 0.54860 0.49817
 C592 C 0.06710 0.52770 0.50813
 C593 C 0.08125 0.51568 0.52476
 C594 C 0.10358 0.52436 0.53116
 H595 H 0.19703 0.61726 0.55085
 H596 H 0.23285 0.63692 0.54027
 H597 H 0.26051 0.57150 0.51686
 H598 H 0.22314 0.55301 0.52260
 H599 H 0.19088 0.53777 0.54028
 H600 H 0.15190 0.52161 0.53239
 H601 H 0.12701 0.59066 0.52468
 H602 H 0.16586 0.60650 0.52904
 H603 H 0.10465 0.57262 0.49502
 H604 H 0.06571 0.55873 0.48569
 H605 H 0.07504 0.49969 0.53320
 H606 H 0.11368 0.51493 0.54450
 C607 C 0.68901 0.07893 0.01287
 C608 C 0.70314 0.07354 -0.00760
 C609 C 0.72408 0.08592 -0.01147
 C610 C 0.73187 0.10375 0.00531
 C611 C 0.71730 0.10915 0.02567
 C612 C 0.69646 0.09667 0.02958
 C613 C 0.66565 0.06754 0.01549
 C614 C 0.64661 0.08081 0.02185
 C615 C 0.62423 0.07080 0.02202
 C616 C 0.62033 0.04730 0.01574
 C617 C 0.63940 0.03372 0.01046
 C618 C 0.66189 0.04378 0.01027
 C619 C 0.59629 0.03775 0.01243
 C620 C 0.58939 0.01585 0.02147
 C621 C 0.56670 0.00696 0.01735
 C622 C 0.55056 0.01973 0.00388
 C623 C 0.55779 0.04162 -0.00512
 C624 C 0.58022 0.05051 -0.00084
 H625 H 0.69757 0.06038 -0.02124
 H626 H 0.73415 0.08188 -0.02795
 H627 H 0.72125 0.12358 0.03826
 H628 H 0.68587 0.10134 0.04545
 H629 H 0.64884 0.09920 0.02567
 H630 H 0.60983 0.08160 0.02639
 H631 H 0.63684 0.01560 0.00542
 H632 H 0.67627 0.03308 0.00557
 H633 H 0.60151 0.00566 0.03177
 H634 H 0.56195 -0.01000 0.02450
 H635 H 0.54640 0.05184 -0.01625
 H636 H 0.58521 0.06719 -0.00859
 C637 C 0.67728 0.92456 0.48166
 C638 C 0.67609 0.90447 0.49605
 C639 C 0.69617 0.89403 0.50379
 C640 C 0.71845 0.90367 0.49814
 C641 C 0.71946 0.92285 0.48191
 C642 C 0.69916 0.93363 0.47444
 C643 C 0.65540 0.93577 0.47499
 C644 C 0.65251 0.95935 0.48029
 C645 C 0.63034 0.96851 0.47938
 C646 C 0.61083 0.95417 0.47319
 C647 C 0.61410 0.93114 0.46581
 C648 C 0.63613 0.92205 0.46666
 C649 C 0.58697 0.96194 0.47762
 C650 C 0.57169 0.94800 0.49182
 C651 C 0.54941 0.95500 0.49710
 C652 C 0.54141 0.97602 0.48797
 C653 C 0.55682 0.99006 0.47373
 C654 C 0.57945 0.98317 0.46879
 H655 H 0.65946 0.89687 0.50165
 H656 H 0.69395 0.87810 0.51406
 H657 H 0.73602 0.92967 0.47522
 H658 H 0.70051 0.94880 0.46274
 H659 H 0.66708 0.97026 0.48685
 H660 H 0.62824 0.98631 0.48522
 H661 H 0.59938 0.91982 0.46059
 H662 H 0.63794 0.90391 0.46206
 H663 H 0.57720 0.93182 0.49943
 H664 H 0.53866 0.94392 0.50881
 H665 H 0.55154 1.00649 0.46657
 H666 H 0.59101 0.99430 0.45792
 C667 C 0.18343 0.43076 0.98579
 C668 C 0.18601 0.40903 0.97432
 C669 C 0.20575 0.39653 0.97864
 C670 C 0.22445 0.40581 0.99339
 C671 C 0.22180 0.42779 1.00471
 C672 C 0.20166 0.44006 1.00090
 C673 C 0.16095 0.44250 0.98390
 C674 C 0.15995 0.46682 0.98425
 C675 C 0.13850 0.47744 0.98492
 C676 C 0.11773 0.46391 0.98519
 C677 C 0.11878 0.43973 0.98340
 C678 C 0.14003 0.42918 0.98308
 C679 C 0.09499 0.47432 0.98964
 C680 C 0.07955 0.46347 1.00637
 C681 C 0.05749 0.47156 1.00980
 C682 C 0.05005 0.49114 0.99705
 C683 C 0.06584 0.50262 0.98088
 C684 C 0.08817 0.49429 0.97722
 H685 H 0.17249 0.40128 0.96238
 H686 H 0.20608 0.37917 0.97083
 H687 H 0.23493 0.43537 1.01722
 H688 H 0.20004 0.45644 1.01069
 H689 H 0.17572 0.47763 0.98447
 H690 H 0.13818 0.49613 0.98628
 H691 H 0.10305 0.42884 0.98309
 H692 H 0.13990 0.41047 0.98324
 H693 H 0.08440 0.44835 1.01666
 H694 H 0.04609 0.46160 1.02189
 H695 H 0.06084 0.51774 0.97069
 H696 H 0.09981 0.50302 0.96421
 C697 C 0.00390 0.31856 0.42203
 C698 C 0.00929 0.31954 0.39636
 C699 C 0.00830 0.29956 0.38138
 C700 C 0.00275 0.27771 0.39172
 C701 C -0.00456 0.27717 0.41706
 C702 C -0.00367 0.29728 0.43208
 C703 C 0.00624 0.33989 0.43788
 C704 C -0.01107 0.34583 0.45511
 C705 C -0.00986 0.36742 0.46754
 C706 C 0.00865 0.38327 0.46288
 C707 C 0.02663 0.37665 0.44699
 C708 C 0.02547 0.35522 0.43468
 C709 C 0.00789 0.40774 0.47119
 C710 C 0.00975 0.42487 0.45295
 C711 C 0.01020 0.44812 0.45974
 C712 C 0.00858 0.45522 0.48512
 C713 C 0.00684 0.43795 0.50354
 C714 C 0.00610 0.41436 0.49659
 H715 H 0.01421 0.33588 0.38777
 H716 H 0.01248 0.30108 0.36164
 H717 H -0.01107 0.26131 0.42547
 H718 H -0.00856 0.29611 0.45165
 H719 H -0.02609 0.33435 0.45794
 H720 H -0.02400 0.37227 0.47957
 H721 H 0.04117 0.38854 0.44328
 H722 H 0.03934 0.35090 0.42203
 H723 H 0.01105 0.42021 0.43323
 H724 H 0.01214 0.46046 0.44473
 H725 H 0.00665 0.44254 0.52328
 H726 H 0.00492 0.40134 0.51101
 C727 C 0.49581 -0.19198 -0.07853
 C728 C 0.51119 -0.19291 -0.09879
 C729 C 0.51159 -0.21256 -0.11427
 C730 C 0.49727 -0.23235 -0.10929
 C731 C 0.48113 -0.23078 -0.08952
 C732 C 0.48053 -0.21097 -0.07425
 C733 C 0.49491 -0.17064 -0.06293
 C734 C 0.47355 -0.16068 -0.05806
 C735 C 0.47288 -0.13909 -0.04607
 C736 C 0.49351 -0.12723 -0.03842
 C737 C 0.51477 -0.13778 -0.04194
 C738 C 0.51548 -0.15924 -0.05426
 C739 C 0.49307 -0.10279 -0.02996
 C740 C 0.50514 -0.09473 -0.00836
 C741 C 0.50568 -0.07113 -0.00181
 C742 C 0.49452 -0.05519 -0.01704
 C743 C 0.48259 -0.06355 -0.03872
 C744 C 0.48161 -0.08701 -0.04485
 H745 H 0.52249 -0.17810 -0.10311
 H746 H 0.52295 -0.21189 -0.13035
 H747 H 0.46906 -0.24511 -0.08572
 H748 H 0.46820 -0.21053 -0.05899
 H749 H 0.45747 -0.16905 -0.06466
 H750 H 0.45629 -0.13124 -0.04354
 H751 H 0.53091 -0.12885 -0.03640
 H752 H 0.53214 -0.16669 -0.05762
 H753 H 0.51424 -0.10665 0.00331
 H754 H 0.51527 -0.06537 0.01481
 H755 H 0.47398 -0.05196 -0.05120
 H756 H 0.47253 -0.09274 -0.06184
 C757 C 0.00229 -0.18388 1.08190
 C758 C -0.01776 -0.18892 1.09598
 C759 C -0.01933 -0.20839 1.11124
 C760 C -0.00053 -0.22321 1.11373
 C761 C 0.01894 -0.21881 1.09825
 C762 C 0.02048 -0.19933 1.08289
 C763 C 0.00442 -0.16215 1.06708
 C764 C 0.02562 -0.14931 1.06635
 C765 C 0.02709 -0.12767 1.05488
 C766 C 0.00736 -0.11821 1.04396
 C767 C -0.01356 -0.13154 1.04353
 C768 C -0.01501 -0.15326 1.05491
 C769 C 0.00816 -0.09377 1.03528
 C770 C -0.00426 -0.08696 1.01391
 C771 C -0.00455 -0.06356 1.00719
 C772 C 0.00748 -0.04645 1.02176
 C773 C 0.02014 -0.05349 1.04287
 C774 C 0.02052 -0.07671 1.04945
 H775 H -0.03222 -0.17755 1.09562
 H776 H -0.03557 -0.21169 1.12081
 H777 H 0.03324 -0.23040 1.09840
 H778 H 0.03592 -0.19642 1.07171
 H779 H 0.04092 -0.15548 1.07559
 H780 H 0.04359 -0.11805 1.05517
 H781 H -0.02911 -0.12478 1.03539
 H782 H -0.03151 -0.16287 1.05463
 H783 H -0.01387 -0.09972 1.00249
 H784 H -0.01455 -0.05887 0.99091
 H785 H 0.02970 -0.04105 1.05471
 H786 H 0.02991 -0.08116 1.06627
 C787 C 0.50803 0.29954 0.57121
 C788 C 0.48830 0.28452 0.57196
 C789 C 0.48701 0.26634 0.58901
 C790 C 0.50523 0.26269 0.60623
 C791 C 0.52574 0.27667 0.60381
 C792 C 0.52689 0.29504 0.58703
 C793 C 0.50862 0.32045 0.55505
 C794 C 0.52966 0.32917 0.54492
 C795 C 0.53084 0.35062 0.53311
 C796 C 0.51092 0.36356 0.53062
 C797 C 0.48957 0.35425 0.53904
 C798 C 0.48844 0.33298 0.55130
 C799 C 0.51297 0.38798 0.52280
 C800 C 0.49908 0.39649 0.50353
 C801 C 0.49987 0.42019 0.49813
 C802 C 0.51419 0.43581 0.51234
 C803 C 0.52801 0.42697 0.53162
 C804 C 0.52772 0.40337 0.53644
 H805 H 0.47372 0.28688 0.55948
 H806 H 0.47137 0.25533 0.58927
 H807 H 0.54116 0.27370 0.61471
 H808 H 0.54250 0.30607 0.58699
 H809 H 0.54543 0.31976 0.54675
 H810 H 0.54747 0.35751 0.52664
 H811 H 0.47405 0.36412 0.53761
 H812 H 0.47198 0.32706 0.55906
 H813 H 0.48740 0.38486 0.49294
 H814 H 0.48868 0.42630 0.48345
 H815 H 0.53886 0.43831 0.54347
 H816 H 0.53827 0.39723 0.55170
 C817 C 0.49553 1.18160 0.57508
 C818 C 0.47734 1.18705 0.59135
 C819 C 0.47916 1.20643 0.60731
 C820 C 0.49969 1.22058 0.60836
 C821 C 0.51758 1.21535 0.59142
 C822 C 0.51555 1.19625 0.57510
 C823 C 0.49380 1.16039 0.55875
 C824 C 0.51360 1.14765 0.55359
 C825 C 0.51164 1.12661 0.54035
 C826 C 0.48984 1.11769 0.53236
 C827 C 0.47018 1.13065 0.53657
 C828 C 0.47216 1.15193 0.54931
 C829 C 0.48724 1.09355 0.52316
 C830 C 0.47476 1.07744 0.53769
 C831 C 0.47434 1.05403 0.53130
 C832 C 0.48567 1.04612 0.50960
 C833 C 0.49752 1.06251 0.49451
 C834 C 0.49856 1.08602 0.50144
 H835 H 0.46164 1.17619 0.59207
 H836 H 0.46418 1.21015 0.61849
 H837 H 0.53332 1.22620 0.59090
 H838 H 0.52970 1.19310 0.56238
 H839 H 0.53050 1.15331 0.56080
 H840 H 0.52696 1.11663 0.53764
 H841 H 0.45319 1.12397 0.53057
 H842 H 0.45661 1.16147 0.55222
 H843 H 0.46621 1.08289 0.55473
 H844 H 0.46543 1.04208 0.54379
 H845 H 0.50670 1.05713 0.47788
 H846 H 0.50844 1.09827 0.49011
 C847 C -0.00515 0.69748 1.07486
 C848 C 0.01478 0.70149 1.08983
 C849 C 0.01620 0.71979 1.10725
 C850 C -0.00264 0.73436 1.11102
 C851 C -0.02190 0.73122 1.09461
 C852 C -0.02329 0.71291 1.07710
 C853 C -0.00738 0.67656 1.05814
 C854 C -0.02864 0.66387 1.05621
 C855 C -0.03008 0.64250 1.04358
 C856 C -0.01030 0.63317 1.03265
 C857 C 0.01061 0.64652 1.03308
 C858 C 0.01205 0.66798 1.04567
 C859 C -0.01085 0.60858 1.02388
 C860 C 0.00118 0.60138 1.00236
 C861 C 0.00199 0.57775 0.99596
 C862 C -0.00897 0.56087 1.01114
 C863 C -0.02126 0.56836 1.03237
 C864 C -0.02230 0.59174 1.03850
 H865 H 0.02920 0.69012 1.08857
 H866 H 0.03231 0.72233 1.11755
 H867 H -0.03620 0.74276 1.09577
 H868 H -0.03863 0.71081 1.06534
 H869 H -0.04394 0.66980 1.06562
 H870 H -0.04655 0.63280 1.04324
 H871 H 0.02618 0.63982 1.02492
 H872 H 0.02859 0.67752 1.04629
 H873 H 0.01016 0.61400 0.99069
 H874 H 0.01171 0.57270 0.97957
 H875 H -0.02986 0.55613 1.04479
 H876 H -0.03132 0.59654 1.05546
 C877 C 0.50194 0.68098 -0.08425
 C878 C 0.49405 0.68105 -0.10931
 C879 C 0.49283 0.70168 -0.12240
 C880 C 0.49803 0.72321 -0.11053
 C881 C 0.50647 0.72303 -0.08553
 C882 C 0.50824 0.70226 -0.07258
 C883 C 0.50457 0.65869 -0.07094
 C884 C 0.50103 0.65684 -0.04484
 C885 C 0.50370 0.63570 -0.03269
 C886 C 0.50976 0.61592 -0.04643
 C887 C 0.51288 0.61783 -0.07254
 C888 C 0.51073 0.63889 -0.08449
 C889 C 0.51259 0.59312 -0.03424
 C890 C 0.52849 0.57781 -0.04423
 C891 C 0.52821 0.55487 -0.03691
 C892 C 0.51322 0.54663 -0.01792
 C893 C 0.49874 0.56250 -0.00615
 C894 C 0.49825 0.58547 -0.01440
 H895 H 0.48879 0.66511 -0.11900
 H896 H 0.48745 0.70087 -0.14193
 H897 H 0.51243 0.73882 -0.07603
 H898 H 0.51522 0.70288 -0.05365
 H899 H 0.49599 0.67164 -0.03380
 H900 H 0.50118 0.63492 -0.01257
 H901 H 0.51683 0.60295 -0.08404
 H902 H 0.51412 0.63957 -0.10445
 H903 H 0.54045 0.58317 -0.05884
 H904 H 0.53905 0.54340 -0.04735
 H905 H 0.48667 0.55684 0.00824
 H906 H 0.48573 0.59677 -0.00623
 C907 C 0.00228 1.19080 0.41629
 C908 C -0.01235 1.19307 0.39535
 C909 C -0.01217 1.21356 0.38177
 C910 C 0.00190 1.23301 0.38932
 C911 C 0.01756 1.23009 0.40946
 C912 C 0.01742 1.20950 0.42305
 C913 C 0.00240 1.16857 0.43015
 C914 C 0.00451 1.16813 0.45653
 C915 C 0.00457 1.14699 0.46924
 C916 C 0.00271 1.12593 0.45576
 C917 C 0.00031 1.12649 0.42946
 C918 C 0.00028 1.14746 0.41685
 C919 C 0.00377 1.10320 0.46847
 C920 C 0.01602 1.08552 0.45704
 C921 C 0.01465 1.06316 0.46627
 C922 C 0.00153 1.05769 0.48782
 C923 C -0.00961 1.07573 0.50032
 C924 C -0.00850 1.09831 0.49072
 H925 H -0.02404 1.17892 0.38934
 H926 H -0.02300 1.21386 0.36515
 H927 H 0.02981 1.24395 0.41489
 H928 H 0.02954 1.20804 0.43852
 H929 H 0.00593 1.18412 0.46734
 H930 H 0.00648 1.14711 0.48949
 H931 H -0.00158 1.11061 0.41851
 H932 H -0.00106 1.14707 0.39654
 H933 H 0.02613 1.08878 0.44027
 H934 H 0.02335 1.04998 0.45573
 H935 H -0.02002 1.07222 0.51681
 H936 H -0.01814 1.11163 0.49997
 C937 C 0.78071 0.66225 0.93872
 C938 C 0.77490 0.63872 0.93439
 C939 C 0.76597 0.62495 0.95360
 C940 C 0.76161 0.63436 0.97762
 C941 C 0.76918 0.65756 0.98239
 C942 C 0.77823 0.67140 0.96309
 C943 C 0.78765 0.67725 0.91733
 C944 C 0.77869 0.69942 0.91504
 C945 C 0.78087 0.71142 0.89246
 C946 C 0.79188 0.70137 0.87183
 C947 C 0.80262 0.68024 0.87479
 C948 C 0.80073 0.66839 0.89742
 C949 C 0.78773 0.71014 0.84637
 C950 C 0.77511 0.69587 0.82935
 C951 C 0.76779 0.70443 0.80650
 C952 C 0.77371 0.72730 0.79945
 C953 C 0.78703 0.74145 0.81631
 C954 C 0.79375 0.73300 0.83975
 H955 H 0.77650 0.63100 0.91587
 H956 H 0.76174 0.60689 0.94945
 H957 H 0.76832 0.66518 1.00099
 H958 H 0.78329 0.68927 0.96725
 H959 H 0.76841 0.70670 0.92992
 H960 H 0.77221 0.72758 0.89042
 H961 H 0.81120 0.67224 0.85905
 H962 H 0.80840 0.65166 0.89881
 H963 H 0.76980 0.67835 0.83435
 H964 H 0.75689 0.69314 0.79465
 H965 H 0.79143 0.75930 0.81193
 H966 H 0.80319 0.74438 0.85288
 C967 C 0.27089 0.14489 0.42505
 C968 C 0.27051 0.12070 0.42555
 C969 C 0.26480 0.10904 0.44752
 C970 C 0.25928 0.12119 0.46978
 C971 C 0.25955 0.14566 0.46891
 C972 C 0.26568 0.15732 0.44690
 C973 C 0.27399 0.15676 0.40093
 C974 C 0.29184 0.17360 0.39734
 C975 C 0.29463 0.18412 0.37388
 C976 C 0.27936 0.17813 0.35388
 C977 C 0.26110 0.16174 0.35808
 C978 C 0.25865 0.15101 0.38117
 C979 C 0.28145 0.18913 0.32883
 C980 C 0.27456 0.17637 0.30730
 C981 C 0.27049 0.18743 0.28482
 C982 C 0.27480 0.21143 0.28246
 C983 C 0.28440 0.22380 0.30328
 C984 C 0.28745 0.21281 0.32635
 H985 H 0.27419 0.11080 0.40872
 H986 H 0.26436 0.09030 0.44718
 H987 H 0.25423 0.15608 0.48464
 H988 H 0.26524 0.17602 0.44656
 H989 H 0.30380 0.17826 0.41252
 H990 H 0.30881 0.19669 0.37133
 H991 H 0.24836 0.15735 0.34360
 H992 H 0.24450 0.13838 0.38377
 H993 H 0.27059 0.15794 0.30821
 H994 H 0.26220 0.17716 0.26996
 H995 H 0.28767 0.24234 0.30247
 H996 H 0.29286 0.22320 0.34256
 C997 C 0.73449 0.34594 0.43398
 C998 C 0.73088 0.33661 0.45792
 C999 C 0.74030 0.34790 0.47933
 C1000 C 0.75456 0.36825 0.47730
 C1001 C 0.75715 0.37790 0.45318
 C1002 C 0.74757 0.36679 0.43192
 C1003 C 0.72525 0.33398 0.41095
 C1004 C 0.71555 0.34676 0.39150
 C1005 C 0.71056 0.33640 0.36813
 C1006 C 0.71524 0.31305 0.36364
 C1007 C 0.72319 0.29981 0.38370
 C1008 C 0.72812 0.31018 0.40716
 C1009 C 0.71554 0.30368 0.33750
 C1010 C 0.70831 0.28069 0.33178
 C1011 C 0.71291 0.27094 0.30814
 C1012 C 0.72511 0.28388 0.28987
 C1013 C 0.73103 0.30728 0.29535
 C1014 C 0.72610 0.31706 0.31865
 H1015 H 0.72039 0.32082 0.46012
 H1016 H 0.73628 0.34077 0.49757
 H1017 H 0.76637 0.39435 0.45061
 H1018 H 0.75058 0.37450 0.41373
 H1019 H 0.71268 0.36503 0.39408
 H1020 H 0.70409 0.34695 0.35316
 H1021 H 0.72720 0.28184 0.38077
 H1022 H 0.73562 0.29993 0.42179
 H1023 H 0.70005 0.26999 0.34596
 H1024 H 0.70832 0.25281 0.30492
 H1025 H 0.74111 0.31778 0.28239
 H1026 H 0.73231 0.33467 0.32253
 C1027 C 0.21293 0.83836 0.95162
 C1028 C 0.22067 0.86110 0.94647
 C1029 C 0.23145 0.87492 0.96504
 C1030 C 0.23560 0.86632 0.98927
 C1031 C 0.22611 0.84405 0.99486
 C1032 C 0.21543 0.83006 0.97611
 C1033 C 0.20409 0.82315 0.93075
 C1034 C 0.21254 0.80083 0.92755
 C1035 C 0.20957 0.78904 0.90456
 C1036 C 0.19817 0.79947 0.88457
 C1037 C 0.18750 0.82054 0.88869
 C1038 C 0.19029 0.83222 0.91167
 C1039 C 0.20273 0.79187 0.85862
 C1040 C 0.21630 0.80665 0.84357
 C1041 C 0.22368 0.79930 0.82013
 C1042 C 0.21692 0.77723 0.81053
 C1043 C 0.20286 0.76251 0.82551
 C1044 C 0.19604 0.76970 0.84956
 H1045 H 0.21908 0.86806 0.92777
 H1046 H 0.23707 0.89239 0.96025
 H1047 H 0.22672 0.83735 1.01371
 H1048 H 0.20903 0.81279 0.98076
 H1049 H 0.22329 0.79344 0.94189
 H1050 H 0.21817 0.77292 0.90160
 H1051 H 0.17869 0.82885 0.87343
 H1052 H 0.18314 0.84916 0.91384
 H1053 H 0.22211 0.82362 0.85049
 H1054 H 0.23504 0.81097 0.80971
 H1055 H 0.19781 0.74520 0.81909
 H1056 H 0.18589 0.75793 0.86120
 C1057 C 0.27068 0.84524 0.07498
 C1058 C 0.26160 0.86723 0.07780
 C1059 C 0.25504 0.87961 0.05686
 C1060 C 0.25642 0.86990 0.03248
 C1061 C 0.26864 0.84931 0.02969
 C1062 C 0.27526 0.83681 0.05078
 C1063 C 0.27274 0.83057 0.09733
 C1064 C 0.29336 0.81967 0.10348
 C1065 C 0.29501 0.80746 0.12606
 C1066 C 0.27600 0.80602 0.14250
 C1067 C 0.25510 0.81584 0.13539
 C1068 C 0.25354 0.82804 0.11320
 C1069 C 0.27740 0.79521 0.16752
 C1070 C 0.26730 0.80633 0.18801
 C1071 C 0.26321 0.79466 0.21023
 C1072 C 0.27003 0.77174 0.21320
 C1073 C 0.28224 0.76133 0.19346
 C1074 C 0.28583 0.77297 0.17070
 H1075 H 0.25885 0.87451 0.09635
 H1076 H 0.24812 0.89651 0.05999
 H1077 H 0.27199 0.84228 0.01117
 H1078 H 0.28284 0.82013 0.04818
 H1079 H 0.30832 0.82130 0.09133
 H1080 H 0.31124 0.79986 0.13106
 H1081 H 0.23993 0.81436 0.14727
 H1082 H 0.23729 0.83577 0.10851
 H1083 H 0.26106 0.82367 0.18625
 H1084 H 0.25325 0.80332 0.22440
 H1085 H 0.28760 0.74366 0.19489
 H1086 H 0.29374 0.76404 0.15514
 C1087 C 0.78831 0.34029 0.56320
 C1088 C 0.78108 0.36294 0.56714
 C1089 C 0.77317 0.37592 0.54719
 C1090 C 0.77133 0.36649 0.52264
 C1091 C 0.78003 0.34426 0.51850
 C1092 C 0.78797 0.33118 0.53859
 C1093 C 0.79500 0.32617 0.58509
 C1094 C 0.78719 0.30289 0.58691
 C1095 C 0.78940 0.29108 0.60957
 C1096 C 0.79933 0.30240 0.63076
 C1097 C 0.80889 0.32494 0.62833
 C1098 C 0.80692 0.33664 0.60568
 C1099 C 0.79546 0.29277 0.65607
 C1100 C 0.78294 0.30562 0.67340
 C1101 C 0.77561 0.29590 0.69589
 C1102 C 0.78140 0.27329 0.70234
 C1103 C 0.79490 0.26071 0.68536
 C1104 C 0.80161 0.27027 0.66225
 H1105 H 0.78100 0.37057 0.58582
 H1106 H 0.76806 0.39340 0.55109
 H1107 H 0.78091 0.33693 0.49975
 H1108 H 0.79407 0.31402 0.53482
 H1109 H 0.77786 0.29434 0.57147
 H1110 H 0.78166 0.27378 0.61112
 H1111 H 0.81669 0.33397 0.64443
 H1112 H 0.81370 0.35434 0.60469
 H1113 H 0.77748 0.32279 0.66880
 H1114 H 0.76434 0.30591 0.70754
 H1115 H 0.79927 0.24309 0.68929
 H1116 H 0.81106 0.25996 0.64896
 C1117 C 0.23419 0.15029 0.55816
 C1118 C 0.21741 0.13480 0.54772
 C1119 C 0.22259 0.12095 0.52702
 C1120 C 0.24476 0.12238 0.51566
 C1121 C 0.26176 0.13749 0.52696
 C1122 C 0.25646 0.15150 0.54761
 C1123 C 0.22882 0.16410 0.58091
 C1124 C 0.23594 0.18758 0.58302
 C1125 C 0.23236 0.19996 0.60535
 C1126 C 0.22190 0.18895 0.62599
 C1127 C 0.21394 0.16578 0.62352
 C1128 C 0.21726 0.15350 0.60116
 C1129 C 0.22281 0.20022 0.65108
 C1130 C 0.23387 0.18902 0.67065
 C1131 C 0.23825 0.20035 0.69344
 C1132 C 0.23092 0.22302 0.69781
 C1133 C 0.21873 0.23386 0.67851
 C1134 C 0.21497 0.22265 0.65520
 H1135 H 0.20017 0.13332 0.55567
 H1136 H 0.20899 0.10893 0.52051
 H1137 H 0.27921 0.13860 0.51952
 H1138 H 0.26994 0.16289 0.55573
 H1139 H 0.24468 0.19619 0.56757
 H1140 H 0.23893 0.21773 0.60698
 H1141 H 0.20598 0.15692 0.63929
 H1142 H 0.21173 0.13539 0.60014
 H1143 H 0.24047 0.17190 0.66778
 H1144 H 0.24837 0.19151 0.70725
 H1145 H 0.21317 0.25141 0.68092
 H1146 H 0.20650 0.23164 0.64020
 C1147 C 0.72434 0.65453 0.06396
 C1148 C 0.73805 0.63523 0.06699
 C1149 C 0.74690 0.62374 0.04620
 C1150 C 0.74295 0.63157 0.02158
 C1151 C 0.72792 0.65009 0.01867
 C1152 C 0.71919 0.66175 0.03957
 C1153 C 0.71645 0.66737 0.08645
 C1154 C 0.71897 0.69164 0.08781
 C1155 C 0.71623 0.70331 0.11076
 C1156 C 0.71099 0.69083 0.13260
 C1157 C 0.70638 0.66686 0.13071
 C1158 C 0.70900 0.65524 0.10784
 C1159 C 0.71484 0.70174 0.15761
 C1160 C 0.73054 0.69183 0.17406
 C1161 C 0.73680 0.70284 0.19656
 C1162 C 0.72703 0.72385 0.20374
 C1163 C 0.71071 0.73350 0.18755
 C1164 C 0.70487 0.72266 0.16449
 H1165 H 0.74226 0.62915 0.08556
 H1166 H 0.75658 0.60847 0.04967
 H1167 H 0.72312 0.65569 0.00008
 H1168 H 0.70822 0.67627 0.03667
 H1169 H 0.72475 0.70142 0.07163
 H1170 H 0.72007 0.72178 0.11185
 H1171 H 0.70214 0.65693 0.14731
 H1172 H 0.70641 0.63659 0.10718
 H1173 H 0.73879 0.67594 0.16899
 H1174 H 0.74958 0.69484 0.20822
 H1175 H 0.70297 0.74972 0.19231
 H1176 H 0.69284 0.73067 0.15191
 C1177 C 0.18276 0.54835 0.23289
 C1178 C 0.16634 0.53904 0.21562
 C1179 C 0.15420 0.51822 0.22042
 C1180 C 0.15844 0.50566 0.24251
 C1181 C 0.17576 0.51472 0.25920
 C1182 C 0.18783 0.53563 0.25439
 C1183 C 0.19244 0.57237 0.23003
 C1184 C 0.21564 0.57832 0.23646
 C1185 C 0.22373 0.60149 0.23640
 C1186 C 0.20870 0.61910 0.23016
 C1187 C 0.18583 0.61304 0.22276
 C1188 C 0.17780 0.58996 0.22267
 C1189 C 0.21599 0.64382 0.23362
 C1190 C 0.20141 0.65867 0.24651
 C1191 C 0.20832 0.68165 0.25122
 C1192 C 0.22994 0.69068 0.24288
 C1193 C 0.24446 0.67580 0.22965
 C1194 C 0.23761 0.65256 0.22521
 H1195 H 0.16212 0.54841 0.19882
 H1196 H 0.14053 0.51294 0.20735
 H1197 H 0.17911 0.50612 0.27673
 H1198 H 0.20011 0.54252 0.26831
 H1199 H 0.22735 0.56511 0.24204
 H1200 H 0.24141 0.60573 0.24234
 H1201 H 0.17394 0.62627 0.21770
 H1202 H 0.15977 0.58605 0.21794
 H1203 H 0.18488 0.65227 0.25376
 H1204 H 0.19693 0.69201 0.26233
 H1205 H 0.26133 0.68190 0.22311
 H1206 H 0.24919 0.64142 0.21524
 C1207 C 0.68582 0.05570 0.73049
 C1208 C 0.67187 0.04594 0.71109
 C1209 C 0.65817 0.02582 0.71511
 C1210 C 0.65730 0.01557 0.73907
 C1211 C 0.67317 0.02430 0.75756
 C1212 C 0.68706 0.04415 0.75340
 C1213 C 0.69737 0.07888 0.72783
 C1214 C 0.72014 0.08334 0.73663
 C1215 C 0.72986 0.10590 0.73695
 C1216 C 0.71687 0.12453 0.72880
 C1217 C 0.69433 0.11984 0.71927
 C1218 C 0.68476 0.09728 0.71866
 C1219 C 0.72617 0.14885 0.73146
 C1220 C 0.72044 0.16561 0.71381
 C1221 C 0.72741 0.18881 0.71749
 C1222 C 0.74039 0.19592 0.73887
 C1223 C 0.74721 0.17895 0.75581
 C1224 C 0.73993 0.15579 0.75234
 H1225 H 0.67125 0.05415 0.69294
 H1226 H 0.64804 0.01886 0.69945
 H1227 H 0.67369 0.01648 0.77593
 H1228 H 0.69777 0.05121 0.76866
 H1229 H 0.73029 0.06941 0.74362
 H1230 H 0.74743 0.10877 0.74390
 H1231 H 0.68362 0.13373 0.71326
 H1232 H 0.66702 0.09437 0.71218
 H1233 H 0.71043 0.16083 0.69713
 H1234 H 0.72250 0.20111 0.70352
 H1235 H 0.75744 0.18364 0.77237
 H1236 H 0.74449 0.14348 0.76652
 C1237 C 0.81783 0.07057 0.26157
 C1238 C 0.83529 0.06361 0.27797
 C1239 C 0.84715 0.04353 0.27314
 C1240 C 0.84122 0.02898 0.25235
 C1241 C 0.82344 0.03596 0.23611
 C1242 C 0.81180 0.05634 0.24075
 C1243 C 0.80772 0.09366 0.26484
 C1244 C 0.78433 0.09723 0.25889
 C1245 C 0.77569 0.11952 0.25980
 C1246 C 0.79031 0.13862 0.26664
 C1247 C 0.81334 0.13487 0.27370
 C1248 C 0.82197 0.11273 0.27267
 C1249 C 0.78251 0.16261 0.26414
 C1250 C 0.79730 0.17925 0.25295
 C1251 C 0.79018 0.20164 0.24938
 C1252 C 0.76802 0.20825 0.25693
 C1253 C 0.75321 0.19159 0.26839
 C1254 C 0.76036 0.16895 0.27187
 H1255 H 0.84037 0.07410 0.29423
 H1256 H 0.86161 0.04006 0.28535
 H1257 H 0.81907 0.02597 0.21928
 H1258 H 0.79886 0.06149 0.22734
 H1259 H 0.77283 0.08286 0.25308
 H1260 H 0.75789 0.12194 0.25413
 H1261 H 0.82494 0.14923 0.27934
 H1262 H 0.84014 0.11077 0.27704
 H1263 H 0.81423 0.17476 0.24615
 H1264 H 0.80195 0.21342 0.23971
 H1265 H 0.73597 0.19586 0.27435
 H1266 H 0.74861 0.15643 0.28060
 C1267 C 0.31610 0.57360 0.75386
 C1268 C 0.33972 0.57282 0.76029
 C1269 C 0.35162 0.55248 0.75725
 C1270 C 0.34052 0.53212 0.74740
 C1271 C 0.31703 0.53324 0.74001
 C1272 C 0.30491 0.55346 0.74377
 C1273 C 0.30362 0.59561 0.75678
 C1274 C 0.28562 0.60102 0.74016
 C1275 C 0.27489 0.62220 0.74205
 C1276 C 0.28230 0.63895 0.76011
 C1277 C 0.29995 0.63335 0.77707
 C1278 C 0.31019 0.61189 0.77567
 C1279 C 0.27246 0.66245 0.76051
 C1280 C 0.27132 0.67549 0.78298
 C1281 C 0.26362 0.69811 0.78286
 C1282 C 0.25646 0.70821 0.76034
 C1283 C 0.25643 0.69472 0.73820
 C1284 C 0.26475 0.67242 0.73816
 H1285 H 0.34934 0.58806 0.76720
 H1286 H 0.36981 0.55267 0.76244
 H1287 H 0.30784 0.51877 0.73092
 H1288 H 0.28673 0.55321 0.73861
 H1289 H 0.28012 0.58921 0.72516
 H1290 H 0.26093 0.62546 0.72906
 H1291 H 0.30643 0.64573 0.79110
 H1292 H 0.32349 0.60825 0.78933
 H1293 H 0.27641 0.66829 0.80076
 H1294 H 0.26349 0.70768 0.80047
 H1295 H 0.25023 0.70131 0.72066
 H1296 H 0.26555 0.66328 0.72034
 C1297 C 0.31849 0.44489 0.72387
 C1298 C 0.31112 0.45884 0.74381
 C1299 C 0.32217 0.48034 0.74889
 C1300 C 0.34069 0.48889 0.73391
 C1301 C 0.34773 0.47473 0.71369
 C1302 C 0.33656 0.45333 0.70855
 C1303 C 0.30915 0.42070 0.72081
 C1304 C 0.32432 0.40281 0.71575
 C1305 C 0.31627 0.37975 0.71560
 C1306 C 0.29288 0.37398 0.72060
 C1307 C 0.27743 0.39185 0.72453
 C1308 C 0.28551 0.41500 0.72470
 C1309 C 0.28523 0.34943 0.72383
 C1310 C 0.26396 0.34060 0.71400
 C1311 C 0.25670 0.31757 0.71815
 C1312 C 0.27048 0.30293 0.73240
 C1313 C 0.29177 0.31200 0.74209
 C1314 C 0.29905 0.33482 0.73780
 H1315 H 0.29764 0.45261 0.75640
 H1316 H 0.31686 0.49002 0.76529
 H1317 H 0.36272 0.47926 0.70246
 H1318 H 0.34270 0.44295 0.69307
 H1319 H 0.34268 0.40652 0.71299
 H1320 H 0.32851 0.36633 0.71224
 H1321 H 0.25933 0.38788 0.72857
 H1322 H 0.27337 0.42843 0.72839
 H1323 H 0.25298 0.35152 0.70310
 H1324 H 0.24015 0.31141 0.71043
 H1325 H 0.30267 0.30174 0.75376
 H1326 H 0.31527 0.34126 0.74615
 C1327 C 0.81917 0.94288 0.22669
 C1328 C 0.80791 0.96038 0.23989
 C1329 C 0.81904 0.98199 0.24439
 C1330 C 0.84184 0.98683 0.23582
 C1331 C 0.85293 0.96914 0.22261
 C1332 C 0.84154 0.94791 0.21738
 C1333 C 0.80881 0.91884 0.22503
 C1334 C 0.82327 0.89984 0.22604
 C1335 C 0.81390 0.87733 0.22700
 C1336 C 0.78976 0.87305 0.22773
 C1337 C 0.77516 0.89182 0.22563
 C1338 C 0.78459 0.91449 0.22416
 C1339 C 0.78031 0.84925 0.23262
 C1340 C 0.75988 0.84023 0.22095
 C1341 C 0.75171 0.81752 0.22571
 C1342 C 0.76383 0.80340 0.24222
 C1343 C 0.78413 0.81275 0.25390
 C1344 C 0.79205 0.83528 0.24943
 H1345 H 0.79097 0.95704 0.24803
 H1346 H 0.81017 0.99436 0.25590
 H1347 H 0.87080 0.97156 0.21676
 H1348 H 0.85074 0.93514 0.20674
 H1349 H 0.84195 0.90225 0.22719
 H1350 H 0.82568 0.86324 0.22793
 H1351 H 0.75648 0.88911 0.22611
 H1352 H 0.77288 0.92859 0.22289
 H1353 H 0.75046 0.85055 0.20781
 H1354 H 0.73609 0.81100 0.21622
 H1355 H 0.79420 0.80269 0.26664
 H1356 H 0.80746 0.84178 0.25935
 C1357 C 0.68266 0.93659 0.76334
 C1358 C 0.68385 0.94751 0.73999
 C1359 C 0.67081 0.96680 0.73532
 C1360 C 0.65569 0.97554 0.75364
 C1361 C 0.65633 0.96580 0.77784
 C1362 C 0.66929 0.94631 0.78244
 C1363 C 0.69410 0.91432 0.76697
 C1364 C 0.68207 0.89572 0.77847
 C1365 C 0.69143 0.87379 0.77884
 C1366 C 0.71307 0.87000 0.76779
 C1367 C 0.72561 0.88889 0.75743
 C1368 C 0.71621 0.91079 0.75698
 C1369 C 0.72165 0.84616 0.76545
 C1370 C 0.73211 0.83887 0.74309
 C1371 C 0.73844 0.81599 0.73990
 C1372 C 0.73384 0.79953 0.75867
 C1373 C 0.72478 0.80723 0.78171
 C1374 C 0.71848 0.83018 0.78492
 H1375 H 0.69404 0.94052 0.72487
 H1376 H 0.67157 0.97430 0.71678
 H1377 H 0.64682 0.97285 0.79336
 H1378 H 0.66872 0.93869 0.80092
 H1379 H 0.66488 0.89783 0.78604
 H1380 H 0.68119 0.85957 0.78670
 H1381 H 0.74253 0.88664 0.74923
 H1382 H 0.72604 0.92489 0.74835
 H1383 H 0.73479 0.85069 0.72766
 H1384 H 0.74637 0.81111 0.72233
 H1385 H 0.72179 0.79537 0.79703
 H1386 H 0.71096 0.83539 0.80261
 C1387 C 0.17511 0.42099 0.26940
 C1388 C 0.18815 0.43921 0.25841
 C1389 C 0.17819 0.46036 0.25358
 C1390 C 0.15484 0.46407 0.25985
 C1391 C 0.14198 0.44569 0.27104
 C1392 C 0.15202 0.42468 0.27610
 C1393 C 0.18496 0.39772 0.27196
 C1394 C 0.17106 0.37760 0.26700
 C1395 C 0.18062 0.35580 0.26724
 C1396 C 0.20436 0.35357 0.27221
 C1397 C 0.21817 0.37354 0.27791
 C1398 C 0.20856 0.39537 0.27790
 C1399 C 0.21486 0.33070 0.26927
 C1400 C 0.23546 0.32868 0.25565
 C1401 C 0.24368 0.30692 0.24969
 C1402 C 0.23124 0.28658 0.25681
 C1403 C 0.21196 0.28876 0.27262
 C1404 C 0.20357 0.31055 0.27835
 H1405 H 0.20578 0.43676 0.25233
 H1406 H 0.18858 0.47320 0.24365
 H1407 H 0.12380 0.44751 0.27538
 H1408 H 0.14148 0.41113 0.28478
 H1409 H 0.15295 0.37872 0.26187
 H1410 H 0.16965 0.34076 0.26236
 H1411 H 0.23649 0.37227 0.28207
 H1412 H 0.21967 0.41044 0.28223
 H1413 H 0.24462 0.34390 0.24849
 H1414 H 0.25916 0.30616 0.23836
 H1415 H 0.20302 0.27370 0.28029
 H1416 H 0.18806 0.31166 0.28962
 C1417 C 0.06837 0.25277 0.83363
 C1418 C 0.04652 0.24719 0.82282
 C1419 C 0.02627 0.24795 0.83714
 C1420 C 0.02706 0.25459 0.86283
 C1421 C 0.04917 0.25851 0.87389
 C1422 C 0.06933 0.25842 0.85946
 C1423 C 0.09012 0.25178 0.81840
 C1424 C 0.11109 0.24600 0.82987
 C1425 C 0.13143 0.24490 0.81600
 C1426 C 0.13153 0.24861 0.78989
 C1427 C 0.11068 0.25464 0.77829
 C1428 C 0.09027 0.25635 0.79239
 C1429 C 0.15343 0.24579 0.77539
 C1430 C 0.15968 0.25986 0.75484
 C1431 C 0.18189 0.25879 0.74400
 C1432 C 0.19841 0.24394 0.75378
 C1433 C 0.19148 0.22945 0.77372
 C1434 C 0.16928 0.22971 0.78356
 H1435 H 0.04501 0.24167 0.80335
 H1436 H 0.01009 0.24275 0.82795
 H1437 H 0.05076 0.26240 0.89381
 H1438 H 0.08564 0.26300 0.86872
 H1439 H 0.11191 0.24190 0.84961
 H1440 H 0.14719 0.24104 0.82599
 H1441 H 0.11002 0.25770 0.75828
 H1442 H 0.07465 0.26132 0.78286
 H1443 H 0.14795 0.27253 0.74798
 H1444 H 0.18658 0.27064 0.72911
 H1445 H 0.20353 0.21861 0.78311
 H1446 H 0.16502 0.21791 0.79862
 C1447 C 0.56209 0.73753 0.33691
 C1448 C 0.54062 0.73106 0.32572
 C1449 C 0.52013 0.73105 0.33969
 C1450 C 0.52033 0.73791 0.36531
 C1451 C 0.54214 0.74244 0.37683
 C1452 C 0.56252 0.74302 0.36277
 C1453 C 0.58401 0.73790 0.32199
 C1454 C 0.60510 0.73267 0.33353
 C1455 C 0.62571 0.73323 0.32001
 C1456 C 0.62597 0.73818 0.29416
 C1457 C 0.60495 0.74353 0.28247
 C1458 C 0.58424 0.74350 0.29625
 C1459 C 0.64827 0.73749 0.28004
 C1460 C 0.65405 0.75314 0.26072
 C1461 C 0.67656 0.75415 0.25049
 C1462 C 0.69381 0.73983 0.25969
 C1463 C 0.68739 0.72371 0.27830
 C1464 C 0.66495 0.72197 0.28749
 H1465 H 0.53962 0.72561 0.30620
 H1466 H 0.50420 0.72536 0.33027
 H1467 H 0.54330 0.74647 0.39674
 H1468 H 0.57857 0.74815 0.37229
 H1469 H 0.60582 0.72785 0.35309
 H1470 H 0.64154 0.72978 0.33006
 H1471 H 0.60443 0.74745 0.26265
 H1472 H 0.56846 0.74804 0.28672
 H1473 H 0.64165 0.76543 0.25447
 H1474 H 0.68081 0.76714 0.23661
 H1475 H 0.69993 0.71312 0.28724
 H1476 H 0.66111 0.70907 0.30160
 C1477 C 0.56033 0.25443 0.16822
 C1478 C 0.55476 0.23366 0.15515
 C1479 C 0.53534 0.23172 0.13927
 C1480 C 0.52126 0.25080 0.13529
 C1481 C 0.52604 0.27099 0.14992
 C1482 C 0.54539 0.27288 0.16586
 C1483 C 0.58219 0.25720 0.18322
 C1484 C 0.59554 0.27806 0.18247
 C1485 C 0.61717 0.28011 0.19443
 C1486 C 0.62608 0.26134 0.20737
 C1487 C 0.61231 0.24082 0.20914
 C1488 C 0.59061 0.23876 0.19717
 C1489 C 0.65042 0.26254 0.21685
 C1490 C 0.65658 0.25290 0.23998
 C1491 C 0.67989 0.25306 0.24777
 C1492 C 0.69751 0.26268 0.23247
 C1493 C 0.69112 0.27253 0.20950
 C1494 C 0.66798 0.27254 0.20189
 H1495 H 0.56574 0.21898 0.15670
 H1496 H 0.53154 0.21516 0.13021
 H1497 H 0.51496 0.28561 0.14855
 H1498 H 0.54870 0.28889 0.17628
 H1499 H 0.58974 0.29255 0.17176
 H1500 H 0.62722 0.29626 0.19301
 H1501 H 0.61875 0.22601 0.21886
 H1502 H 0.58060 0.22258 0.19847
 H1503 H 0.64338 0.24516 0.25197
 H1504 H 0.68409 0.24524 0.26549
 H1505 H 0.70401 0.28013 0.19706
 H1506 H 0.66392 0.27976 0.18379
 C1507 C 0.05299 0.76097 0.68161
 C1508 C 0.03710 0.77864 0.67929
 C1509 C 0.01975 0.77730 0.66079
 C1510 C 0.01778 0.75839 0.64372
 C1511 C 0.03316 0.74021 0.64707
 C1512 C 0.05067 0.74172 0.66530
 C1513 C 0.07254 0.76290 0.70011
 C1514 C 0.08123 0.74307 0.71136
 C1515 C 0.10177 0.74448 0.72553
 C1516 C 0.11397 0.76581 0.72901
 C1517 C 0.10419 0.78589 0.71963
 C1518 C 0.08386 0.78445 0.70520
 C1519 C 0.13814 0.76675 0.73903
 C1520 C 0.15498 0.78078 0.72706
 C1521 C 0.17823 0.78003 0.73377
 C1522 C 0.18562 0.76538 0.75294
 C1523 C 0.16872 0.75179 0.76558
 C1524 C 0.14519 0.75242 0.75865
 H1525 H 0.03790 0.79347 0.69193
 H1526 H 0.00764 0.79110 0.65980
 H1527 H 0.03168 0.72440 0.63607
 H1528 H 0.06258 0.72776 0.66637
 H1529 H 0.07260 0.72626 0.70851
 H1530 H 0.10879 0.72867 0.73246
 H1531 H 0.11289 0.80268 0.72243
 H1532 H 0.07780 0.80011 0.69690
 H1533 H 0.15039 0.79160 0.71149
 H1534 H 0.19048 0.79070 0.72326
 H1535 H 0.17370 0.74012 0.78021
 H1536 H 0.13260 0.74141 0.76828
 C1537 C 0.93835 0.75055 0.67706
 C1538 C 0.95432 0.73294 0.67475
 C1539 C 0.97269 0.73493 0.65776
 C1540 C 0.97551 0.75438 0.64210
 C1541 C 0.95999 0.77248 0.64555
 C1542 C 0.94156 0.77039 0.66236
 C1543 C 0.91787 0.74797 0.69391
 C1544 C 0.90907 0.76727 0.70654
 C1545 C 0.88803 0.76538 0.71948
 C1546 C 0.87539 0.74414 0.72019
 C1547 C 0.88504 0.72452 0.70915
 C1548 C 0.90594 0.72642 0.69607
 C1549 C 0.85106 0.74296 0.72935
 C1550 C 0.83412 0.73045 0.71522
 C1551 C 0.81085 0.73083 0.72174
 C1552 C 0.80360 0.74356 0.74284
 C1553 C 0.82059 0.75571 0.75745
 C1554 C 0.84411 0.75548 0.75072
 H1555 H 0.95278 0.71766 0.68626
 H1556 H 0.98486 0.72117 0.65680
 H1557 H 0.96208 0.78865 0.63575
 H1558 H 0.92963 0.78434 0.66361
 H1559 H 0.91810 0.78402 0.70580
 H1560 H 0.88106 0.78083 0.72773
 H1561 H 0.87590 0.70780 0.70974
 H1562 H 0.91210 0.71120 0.68658
 H1563 H 0.83871 0.72105 0.69836
 H1564 H 0.79850 0.72131 0.70976
 H1565 H 0.81571 0.76586 0.77366
 H1566 H 0.85681 0.76530 0.76200
 C1567 C 0.44142 0.24488 0.17028
 C1568 C 0.45614 0.22635 0.16675
 C1569 C 0.47486 0.22824 0.15024
 C1570 C 0.47906 0.24842 0.13605
 C1571 C 0.46551 0.26767 0.14156
 C1572 C 0.44674 0.26576 0.15801
 C1573 C 0.41979 0.24199 0.18525
 C1574 C 0.41154 0.26028 0.19998
 C1575 C 0.38963 0.25840 0.21120
 C1576 C 0.37553 0.23822 0.20780
 C1577 C 0.38436 0.21946 0.19437
 C1578 C 0.40618 0.22132 0.18321
 C1579 C 0.35082 0.23752 0.21553
 C1580 C 0.33384 0.22923 0.19836
 C1581 C 0.31045 0.22916 0.20450
 C1582 C 0.30318 0.23714 0.22820
 C1583 C 0.32019 0.24538 0.24555
 C1584 C 0.34381 0.24572 0.23919
 H1585 H 0.45306 0.21027 0.17661
 H1586 H 0.48582 0.21358 0.14798
 H1587 H 0.46921 0.28434 0.13325
 H1588 H 0.43600 0.28053 0.16056
 H1589 H 0.42176 0.27630 0.20227
 H1590 H 0.38323 0.27314 0.22141
 H1591 H 0.37396 0.20360 0.19170
 H1592 H 0.41185 0.20695 0.17188
 H1593 H 0.33864 0.22321 0.17982
 H1594 H 0.29809 0.22262 0.19050
 H1595 H 0.31526 0.25170 0.26391
 H1596 H 0.35660 0.25224 0.25277
 C1597 C 0.43581 0.74271 0.33379
 C1598 C 0.43650 0.72603 0.35268
 C1599 C 0.45605 0.72460 0.36819
 C1600 C 0.47590 0.73928 0.36461
 C1601 C 0.47456 0.75657 0.34619
 C1602 C 0.45496 0.75813 0.33089
 C1603 C 0.41470 0.74477 0.31805
 C1604 C 0.40545 0.76654 0.31409
 C1605 C 0.38447 0.76838 0.30116
 C1606 C 0.37244 0.74852 0.29167
 C1607 C 0.38220 0.72685 0.29454
 C1608 C 0.40308 0.72497 0.30777
 C1609 C 0.34851 0.75012 0.28178
 C1610 C 0.34122 0.73877 0.25941
 C1611 C 0.31789 0.73885 0.25175
 C1612 C 0.30139 0.74987 0.26662
 C1613 C 0.30903 0.76140 0.28885
 C1614 C 0.33226 0.76180 0.29609
 H1615 H 0.42159 0.71449 0.35593
 H1616 H 0.45519 0.71223 0.38323
 H1617 H 0.48898 0.76884 0.34345
 H1618 H 0.45481 0.77135 0.31667
 H1619 H 0.41396 0.78207 0.32192
 H1620 H 0.37726 0.78528 0.29919
 H1621 H 0.37312 0.71127 0.28762
 H1622 H 0.40997 0.70800 0.31035
 H1623 H 0.35351 0.72959 0.24810
 H1624 H 0.31268 0.72956 0.23471
 H1625 H 0.29698 0.76979 0.30115
 H1626 H 0.33733 0.77035 0.31362
 C1627 C 0.94180 0.25769 0.83330
 C1628 C 0.96028 0.27391 0.83039
 C1629 C 0.98024 0.27290 0.84528
 C1630 C 0.98258 0.25541 0.86333
 C1631 C 0.96335 0.23991 0.86697
 C1632 C 0.94348 0.24080 0.85186
 C1633 C 0.92048 0.25879 0.81764
 C1634 C 0.90985 0.23850 0.80729
 C1635 C 0.88904 0.23940 0.79373
 C1636 C 0.87831 0.26055 0.79051
 C1637 C 0.88927 0.28091 0.80028
 C1638 C 0.91019 0.28005 0.81358
 C1639 C 0.85478 0.26107 0.77914
 C1640 C 0.83746 0.27309 0.79149
 C1641 C 0.81463 0.27172 0.78271
 C1642 C 0.80848 0.25867 0.76095
 C1643 C 0.82608 0.24739 0.74797
 C1644 C 0.84897 0.24844 0.75709
 H1645 H 0.95940 0.28728 0.81638
 H1646 H 0.99418 0.28571 0.84249
 H1647 H 0.96321 0.22725 0.88171
 H1648 H 0.92911 0.22859 0.85513
 H1649 H 0.91754 0.22192 0.80992
 H1650 H 0.88086 0.22342 0.78662
 H1651 H 0.88139 0.29745 0.79799
 H1652 H 0.91792 0.29594 0.82145
 H1653 H 0.84136 0.28274 0.80869
 H1654 H 0.80169 0.28056 0.79344
 H1655 H 0.82208 0.23708 0.73127
 H1656 H 0.86207 0.23908 0.74716
 C1657 C 0.59159 0.97507 0.68506
 C1658 C 0.60523 0.95852 0.69622
 C1659 C 0.62034 0.96468 0.71597
 C1660 C 0.62309 0.98794 0.72453
 C1661 C 0.60799 1.00407 0.71427
 C1662 C 0.59265 0.99779 0.69467
 C1663 C 0.57724 0.96889 0.66262
 C1664 C 0.58700 0.95684 0.64245
 C1665 C 0.57460 0.95325 0.62004
 C1666 C 0.55208 0.96132 0.61755
 C1667 C 0.54179 0.97219 0.63817
 C1668 C 0.55435 0.97612 0.66050
 C1669 C 0.54092 0.96180 0.59253
 C1670 C 0.51781 0.95391 0.58870
 C1671 C 0.50661 0.95771 0.56576
 C1672 C 0.51817 0.97001 0.54654
 C1673 C 0.54156 0.97721 0.55045
 C1674 C 0.55286 0.97279 0.57292
 H1675 H 0.60412 0.94069 0.68969
 H1676 H 0.62956 0.95086 0.72443
 H1677 H 0.60851 1.02180 0.72111
 H1678 H 0.58212 1.01089 0.68651
 H1679 H 0.60467 0.95122 0.64356
 H1680 H 0.58289 0.94498 0.60427
 H1681 H 0.52455 0.97883 0.63651
 H1682 H 0.54641 0.98529 0.67588
 H1683 H 0.50827 0.94548 0.60372
 H1684 H 0.48853 0.95219 0.56371
 H1685 H 0.55097 0.98745 0.53672
 H1686 H 0.57056 0.97940 0.57562
 C1687 C 0.10004 0.46146 1.18607
 C1688 C 0.08897 0.46825 1.20833
 C1689 C 0.10190 0.47467 1.22982
 C1690 C 0.12639 0.47596 1.22920
 C1691 C 0.13720 0.46698 1.20767
 C1692 C 0.12428 0.45955 1.18667
 C1693 C 0.08693 0.45892 1.16178
 C1694 C 0.09807 0.46464 1.13909
 C1695 C 0.08546 0.46622 1.11687
 C1696 C 0.06121 0.46294 1.11670
 C1697 C 0.05012 0.45545 1.13874
 C1698 C 0.06289 0.45327 1.16104
 C1699 C 0.04777 0.47035 1.09454
 C1700 C 0.02784 0.45796 1.08560
 C1701 C 0.01564 0.46579 1.06462
 C1702 C 0.02319 0.48611 1.05232
 C1703 C 0.04291 0.49854 1.06180
 C1704 C 0.05487 0.49085 1.08254
 H1705 H 0.07033 0.46961 1.20906
 H1706 H 0.09243 0.47908 1.24653
 H1707 H 0.15593 0.46645 1.20678
 H1708 H 0.13353 0.45307 1.17060
 H1709 H 0.11637 0.46942 1.13850
 H1710 H 0.09461 0.47139 1.10000
 H1711 H 0.03145 0.45260 1.13913
 H1712 H 0.05370 0.44804 1.17782
 H1713 H 0.02189 0.44214 1.09461
 H1714 H 0.00043 0.45592 1.05806
 H1715 H 0.04951 0.51428 1.05319
 H1716 H 0.06969 0.50124 1.08938
 C1717 C -0.09977 0.03956 1.18607
 C1718 C -0.09560 0.04483 1.21159
 C1719 C -0.10969 0.03489 1.23019
 C1720 C -0.12798 0.01883 1.22395
 C1721 C -0.13326 0.01534 1.19819
 C1722 C -0.11909 0.02508 1.17964
 C1723 C -0.08328 0.04765 1.16629
 C1724 C -0.09119 0.05241 1.14190
 C1725 C -0.07552 0.05526 1.12212
 C1726 C -0.05156 0.05363 1.12636
 C1727 C -0.04355 0.05128 1.15117
 C1728 C -0.05922 0.04817 1.17088
 C1729 C -0.03570 0.05013 1.10482
 C1730 C -0.01976 0.03248 1.10600
 C1731 C -0.00849 0.02510 1.08448
 C1732 C -0.01283 0.03505 1.06096
 C1733 C -0.02682 0.05443 1.06034
 C1734 C -0.03842 0.06170 1.08197
 H1735 H -0.08137 0.05658 1.21723
 H1736 H -0.10608 0.03953 1.24963
 H1737 H -0.14833 0.00498 1.19214
 H1738 H -0.12303 0.02070 1.16020
 H1739 H -0.10959 0.05281 1.13781
 H1740 H -0.08231 0.05700 1.10325
 H1741 H -0.02516 0.05039 1.15512
 H1742 H -0.05242 0.04459 1.18937
 H1743 H -0.01728 0.02303 1.12317
 H1744 H 0.00249 0.01048 1.08635
 H1745 H -0.03039 0.06285 1.04289
 H1746 H -0.05035 0.07562 1.08054
 C1747 C 0.40635 0.53279 0.68657
 C1748 C 0.41307 0.53081 0.71183
 C1749 C 0.39693 0.52412 0.73005
 C1750 C 0.37350 0.51882 0.72352
 C1751 C 0.36645 0.52352 0.69871
 C1752 C 0.38268 0.52986 0.68038
 C1753 C 0.42415 0.53545 0.66655
 C1754 C 0.41978 0.54768 0.64440
 C1755 C 0.43490 0.54647 0.62394
 C1756 C 0.45456 0.53299 0.62535
 C1757 C 0.45987 0.52234 0.64809
 C1758 C 0.44484 0.52351 0.66842
 C1759 C 0.46711 0.52645 0.60236
 C1760 C 0.46914 0.50291 0.59686
 C1761 C 0.47981 0.49580 0.57496
 C1762 C 0.48885 0.51200 0.55761
 C1763 C 0.48767 0.53570 0.56367
 C1764 C 0.47645 0.54289 0.58564
 H1765 H 0.43099 0.53404 0.71749
 H1766 H 0.40305 0.52319 0.74922
 H1767 H 0.34837 0.52112 0.69327
 H1768 H 0.37676 0.53142 0.66116
 H1769 H 0.40420 0.55739 0.64251
 H1770 H 0.43043 0.55473 0.60651
 H1771 H 0.47498 0.51188 0.64958
 H1772 H 0.44873 0.51367 0.68499
 H1773 H 0.46195 0.48987 0.60935
 H1774 H 0.48064 0.47736 0.57165
 H1775 H 0.49544 0.54872 0.55173
 H1776 H 0.47531 0.56120 0.58974
 C1777 C 0.38800 0.48608 -0.18820
 C1778 C 0.39364 0.47699 -0.21183
 C1779 C 0.38292 0.48485 -0.23353
 C1780 C 0.36661 0.50244 -0.23236
 C1781 C 0.35984 0.51018 -0.20830
 C1782 C 0.37060 0.50232 -0.18663
 C1783 C 0.40151 0.48014 -0.16553
 C1784 C 0.40913 0.49786 -0.14882
 C1785 C 0.42385 0.49316 -0.12888
 C1786 C 0.43120 0.47065 -0.12506
 C1787 C 0.42291 0.45261 -0.14096
 C1788 C 0.40825 0.45736 -0.16123
 C1789 C 0.44894 0.46710 -0.10560
 C1790 C 0.44393 0.45428 -0.08397
 C1791 C 0.45876 0.45636 -0.06297
 C1792 C 0.47827 0.47181 -0.06318
 C1793 C 0.48462 0.48196 -0.08623
 C1794 C 0.47003 0.47977 -0.10707
 H1795 H 0.40695 0.46439 -0.21366
 H1796 H 0.38784 0.47762 -0.25151
 H1797 H 0.34615 0.52223 -0.20592
 H1798 H 0.36537 0.50908 -0.16854
 H1799 H 0.40453 0.51560 -0.15180
 H1800 H 0.43008 0.50729 -0.11672
 H1801 H 0.42847 0.43514 -0.13827
 H1802 H 0.40247 0.44335 -0.17374
 H1803 H 0.42780 0.44413 -0.08265
 H1804 H 0.45377 0.44746 -0.04603
 H1805 H 0.50004 0.49308 -0.08799
 H1806 H 0.47443 0.48936 -0.12386
 C1807 C -0.10612 0.98485 0.31078
 C1808 C -0.09452 0.98675 0.28778
 C1809 C -0.10640 0.99368 0.26624
 C1810 C -0.13000 0.99941 0.26750
 C1811 C -0.14188 0.99479 0.29013
 C1812 C -0.13004 0.98812 0.31154
 C1813 C -0.09332 0.98199 0.33460
 C1814 C -0.09580 0.99846 0.35379
 C1815 C -0.08483 0.99604 0.37687
 C1816 C -0.07140 0.97677 0.38167
 C1817 C -0.06832 0.96050 0.36216
 C1818 C -0.07914 0.96317 0.33869
 C1819 C -0.06069 0.97445 0.40700
 C1820 C -0.03784 0.96724 0.41014
 C1821 C -0.02656 0.96990 0.43353
 C1822 C -0.03777 0.98020 0.45406
 C1823 C -0.06118 0.98570 0.45106
 C1824 C -0.07260 0.98221 0.42820
 H1825 H -0.07612 0.98381 0.28671
 H1826 H -0.09691 0.99486 0.24881
 H1827 H -0.16030 0.99750 0.29159
 H1828 H -0.13945 0.98619 0.32900
 H1829 H -0.10624 1.01338 0.35084
 H1830 H -0.08684 1.00945 0.39098
 H1831 H -0.05798 0.94556 0.36519
 H1832 H -0.07695 0.95032 0.32401
 H1833 H -0.02816 0.96110 0.39419
 H1834 H -0.00848 0.96565 0.43488
 H1835 H -0.07044 0.99456 0.46561
 H1836 H -0.09045 0.98724 0.42673
 C1837 C 0.10586 0.52094 0.31196
 C1838 C 0.10119 0.52597 0.28683
 C1839 C 0.11269 0.51451 0.26754
 C1840 C 0.12811 0.49670 0.27278
 C1841 C 0.13314 0.49248 0.29830
 C1842 C 0.12207 0.50430 0.31751
 C1843 C 0.09380 0.53252 0.33273
 C1844 C 0.10675 0.54290 0.35254
 C1845 C 0.09585 0.54921 0.37478
 C1846 C 0.07187 0.54483 0.37781
 C1847 C 0.05862 0.53654 0.35707
 C1848 C 0.06954 0.53049 0.33461
 C1849 C 0.06189 0.54411 0.40344
 C1850 C 0.03934 0.55125 0.40857
 C1851 C 0.02899 0.54646 0.43187
 C1852 C 0.04089 0.53412 0.45023
 C1853 C 0.06373 0.52780 0.44508
 C1854 C 0.07413 0.53299 0.42229
 H1855 H 0.08904 0.53909 0.28218
 H1856 H 0.10948 0.51952 0.24834
 H1857 H 0.14615 0.48055 0.30376
 H1858 H 0.12614 0.50037 0.33685
 H1859 H 0.12547 0.54487 0.35130
 H1860 H 0.10642 0.55593 0.39032
 H1861 H 0.04015 0.53281 0.35890
 H1862 H 0.05927 0.52249 0.31951
 H1863 H 0.02946 0.55974 0.39427
 H1864 H 0.01124 0.55122 0.43486
 H1865 H 0.07337 0.51756 0.45807
 H1866 H 0.09126 0.52666 0.41878
 C1867 C 0.59320 0.01708 -0.19359
 C1868 C 0.60783 0.03347 -0.20533
 C1869 C 0.62257 0.02688 -0.22456
 C1870 C 0.62382 0.00340 -0.23221
 C1871 C 0.60769 -0.01262 -0.22155
 C1872 C 0.59284 -0.00596 -0.20228
 C1873 C 0.57941 0.02386 -0.17144
 C1874 C 0.58980 0.03793 -0.15244
 C1875 C 0.57802 0.04224 -0.13015
 C1876 C 0.55554 0.03275 -0.12650
 C1877 C 0.54454 0.01990 -0.14606
 C1878 C 0.55644 0.01536 -0.16832
 C1879 C 0.54543 0.03261 -0.10105
 C1880 C 0.52229 0.03818 -0.09677
 C1881 C 0.51214 0.03419 -0.07325
 C1882 C 0.52481 0.02398 -0.05388
 C1883 C 0.54824 0.01925 -0.05828
 C1884 C 0.55848 0.02392 -0.08132
 H1885 H 0.60782 0.05152 -0.19966
 H1886 H 0.63265 0.04058 -0.23345
 H1887 H 0.60699 -0.03053 -0.22782
 H1888 H 0.58155 -0.01899 -0.19371
 H1889 H 0.60754 0.04458 -0.15423
 H1890 H 0.58686 0.05206 -0.11523
 H1891 H 0.52732 0.01215 -0.14350
 H1892 H 0.54795 0.00470 -0.18280
 H1893 H 0.51188 0.04480 -0.11187
 H1894 H 0.49397 0.03768 -0.07086
 H1895 H 0.55848 0.01044 -0.04459
 H1896 H 0.57621 0.01901 -0.08431
 C1897 C 0.68951 0.57718 -0.02525
 C1898 C 0.69670 0.59663 -0.03913
 C1899 C 0.71627 0.61011 -0.03174
 C1900 C 0.72967 0.60404 -0.01070
 C1901 C 0.72145 0.58523 0.00386
 C1902 C 0.70196 0.57179 -0.00354
 C1903 C 0.66789 0.56372 -0.03184
 C1904 C 0.66644 0.53953 -0.02911
 C1905 C 0.64500 0.52743 -0.03096
 C1906 C 0.62478 0.53942 -0.03545
 C1907 C 0.62648 0.56325 -0.04015
 C1908 C 0.64784 0.57531 -0.03839
 C1909 C 0.60177 0.52833 -0.03089
 C1910 C 0.58739 0.53861 -0.01330
 C1911 C 0.56541 0.52917 -0.00867
 C1912 C 0.55689 0.50921 -0.02170
 C1913 C 0.57165 0.49843 -0.03888
 C1914 C 0.59406 0.50785 -0.04331
 H1915 H 0.68707 0.60154 -0.05562
 H1916 H 0.72055 0.62542 -0.04246
 H1917 H 0.73042 0.58072 0.02092
 H1918 H 0.69625 0.55750 0.00817
 H1919 H 0.68174 0.53015 -0.02443
 H1920 H 0.64399 0.50906 -0.02716
 H1921 H 0.61101 0.57277 -0.04368
 H1922 H 0.64835 0.59392 -0.04045
 H1923 H 0.59317 0.55417 -0.00313
 H1924 H 0.55484 0.53825 0.00460
 H1925 H 0.56582 0.48302 -0.04921
 H1926 H 0.60510 0.49955 -0.05680
 C1927 C 0.18575 1.07032 0.47101
 C1928 C 0.20389 1.05771 0.48125
 C1929 C 0.22567 1.06844 0.48657
 C1930 C 0.22950 1.09250 0.48335
 C1931 C 0.21178 1.10444 0.47122
 C1932 C 0.19074 1.09345 0.46449
 C1933 C 0.16132 1.06046 0.46918
 C1934 C 0.14260 1.07535 0.47059
 C1935 C 0.11979 1.06666 0.47113
 C1936 C 0.11471 1.04274 0.47155
 C1937 C 0.13313 1.02764 0.46916
 C1938 C 0.15616 1.03641 0.46774
 C1939 C 0.09046 1.03412 0.47648
 C1940 C 0.08096 1.01352 0.46557
 C1941 C 0.05794 1.00614 0.47060
 C1942 C 0.04395 1.01928 0.48650
 C1943 C 0.05367 1.03987 0.49715
 C1944 C 0.07652 1.04690 0.49262
 H1945 H 0.20118 1.03973 0.48617
 H1946 H 0.23890 1.05771 0.49389
 H1947 H 0.21390 1.12279 0.46764
 H1948 H 0.17812 1.10360 0.45498
 H1949 H 0.14528 1.09389 0.47239
 H1950 H 0.10608 1.07891 0.47207
 H1951 H 0.12988 1.00908 0.46933
 H1952 H 0.16984 1.02424 0.46604
 H1953 H 0.09116 1.00329 0.45292
 H1954 H 0.05113 0.99025 0.46189
 H1955 H 0.04371 1.05079 0.50927
 H1956 H 0.08327 1.06244 0.50210
 C1957 C 0.18674 -0.07583 1.02445
 C1958 C 0.18971 -0.09689 1.03667
 C1959 C 0.20917 -0.10977 1.03206
 C1960 C 0.22716 -0.10140 1.01635
 C1961 C 0.22415 -0.08012 1.00426
 C1962 C 0.20431 -0.06751 1.00834
 C1963 C 0.16451 -0.06377 1.02669
 C1964 C 0.16382 -0.03951 1.02523
 C1965 C 0.14256 -0.02864 1.02484
 C1966 C 0.12159 -0.04179 1.02613
 C1967 C 0.12238 -0.06587 1.02895
 C1968 C 0.14348 -0.07672 1.02891
 C1969 C 0.09887 -0.03098 1.02289
 C1970 C 0.08130 -0.04272 1.00890
 C1971 C 0.05966 -0.03336 1.00609
 C1972 C 0.05490 -0.01166 1.01669
 C1973 C 0.07267 0.00038 1.03034
 C1974 C 0.09444 -0.00919 1.03343
 H1975 H 0.17670 -0.10384 1.04939
 H1976 H 0.21001 -0.12659 1.04064
 H1977 H 0.23659 -0.07359 0.99069
 H1978 H 0.20230 -0.05177 0.99790
 H1979 H 0.17968 -0.02895 1.02395
 H1980 H 0.14254 -0.01005 1.02262
 H1981 H 0.10657 -0.07647 1.03060
 H1982 H 0.14312 -0.09542 1.02966
 H1983 H 0.08425 -0.05924 0.99991
 H1984 H 0.04669 -0.04338 0.99547
 H1985 H 0.06974 0.01706 1.03895
 H1986 H 0.10763 0.00024 1.04444
 C1987 C 0.69914 0.41778 0.51641
 C1988 C 0.70453 0.39790 0.52978
 C1989 C 0.72523 0.38684 0.52545
 C1990 C 0.74184 0.39582 0.50838
 C1991 C 0.73623 0.41577 0.49495
 C1992 C 0.71535 0.42671 0.49909
 C1993 C 0.67593 0.42795 0.51902
 C1994 C 0.67327 0.45200 0.51773
 C1995 C 0.65114 0.46118 0.51841
 C1996 C 0.63123 0.44648 0.52035
 C1997 C 0.63399 0.42256 0.52254
 C1998 C 0.65600 0.41341 0.52174
 C1999 C 0.60755 0.45562 0.51847
 C2000 C 0.59051 0.44343 0.50416
 C2001 C 0.56821 0.45155 0.50206
 C2002 C 0.56208 0.47224 0.51410
 C2003 C 0.57924 0.48459 0.52836
 C2004 C 0.60175 0.47640 0.53047
 H2005 H 0.69247 0.39050 0.54327
 H2006 H 0.72779 0.37077 0.53506
 H2007 H 0.74775 0.42258 0.48061
 H2008 H 0.71149 0.44158 0.48789
 H2009 H 0.68827 0.46371 0.51593
 H2010 H 0.64956 0.47967 0.51657
 H2011 H 0.61904 0.41079 0.52444
 H2012 H 0.65727 0.39481 0.52244
 H2013 H 0.59449 0.42767 0.49416
 H2014 H 0.55586 0.44150 0.49064
 H2015 H 0.57536 0.50061 0.53789
 H2016 H 0.61452 0.48615 0.54172
 C2017 C -0.17199 0.42273 0.48971
 C2018 C -0.18973 0.43158 0.50460
 C2019 C -0.21074 0.41900 0.50773
 C2020 C -0.21487 0.39733 0.49566
 C2021 C -0.19663 0.38828 0.48148
 C2022 C -0.17581 0.40096 0.47808
 C2023 C -0.14924 0.43564 0.48714
 C2024 C -0.12848 0.42367 0.48603
 C2025 C -0.10708 0.43565 0.48397
 C2026 C -0.10584 0.45992 0.48328
 C2027 C -0.12648 0.47199 0.48440
 C2028 C -0.14797 0.45997 0.48615
 C2029 C -0.08290 0.47244 0.48260
 C2030 C -0.07779 0.49094 0.49930
 C2031 C -0.05531 0.50084 0.50089
 C2032 C -0.03738 0.49240 0.48583
 C2033 C -0.04307 0.47512 0.46776
 C2034 C -0.06549 0.46504 0.46638
 H2035 H -0.18712 0.44792 0.51457
 H2036 H -0.22345 0.42605 0.52026
 H2037 H -0.19844 0.37117 0.47303
 H2038 H -0.16263 0.39354 0.46642
 H2039 H -0.12865 0.40500 0.48736
 H2040 H -0.09140 0.42595 0.48365
 H2041 H -0.12598 0.49071 0.48378
 H2042 H -0.16358 0.46976 0.48658
 H2043 H -0.09089 0.49698 0.51204
 H2044 H -0.05183 0.51430 0.51487
 H2045 H -0.03013 0.46885 0.45509
 H2046 H -0.06914 0.45115 0.45291
 C2047 C 0.31048 -0.08060 -0.01588
 C2048 C 0.30222 -0.10082 -0.02844
 C2049 C 0.28203 -0.11260 -0.02055
 C2050 C 0.26873 -0.10391 -0.00060
 C2051 C 0.27743 -0.08388 0.01224
 C2052 C 0.29783 -0.07230 0.00458
 C2053 C 0.33322 -0.06940 -0.02257
 C2054 C 0.33708 -0.04527 -0.02031
 C2055 C 0.35937 -0.03524 -0.02322
 C2056 C 0.37817 -0.04916 -0.02853
 C2057 C 0.37400 -0.07302 -0.03259
 C2058 C 0.35185 -0.08304 -0.02947
 C2059 C 0.40235 -0.03962 -0.02660
 C2060 C 0.41871 -0.05201 -0.01334
 C2061 C 0.44114 -0.04300 -0.00971
 C2062 C 0.44815 -0.02125 -0.01926
 C2063 C 0.43179 -0.00885 -0.03282
 C2064 C 0.40905 -0.01791 -0.03636
 H2065 H 0.31158 -0.10784 -0.04419
 H2066 H 0.27716 -0.12878 -0.02995
 H2067 H 0.26850 -0.07729 0.02851
 H2068 H 0.30411 -0.05728 0.01533
 H2069 H 0.32300 -0.03421 -0.01551
 H2070 H 0.36210 -0.01681 -0.01993
 H2071 H 0.38813 -0.08412 -0.03708
 H2072 H 0.34967 -0.10167 -0.03116
 H2073 H 0.41395 -0.06847 -0.00492
 H2074 H 0.45271 -0.05303 0.00140
 H2075 H 0.43639 0.00798 -0.04041
 H2076 H 0.39672 -0.00796 -0.04664
 C2077 C 0.30888 1.06691 0.52190
 C2078 C 0.28667 1.06409 0.53224
 C2079 C 0.26836 1.07701 0.52311
 C2080 C 0.27148 1.09200 0.50243
 C2081 C 0.29437 1.09514 0.49315
 C2082 C 0.31253 1.08268 0.50254
 C2083 C 0.32888 1.05404 0.53082
 C2084 C 0.34880 1.06653 0.53936
 C2085 C 0.37008 1.05595 0.54056
 C2086 C 0.37185 1.03271 0.53312
 C2087 C 0.35153 1.01957 0.52696
 C2088 C 0.33010 1.03022 0.52578
 C2089 C 0.39503 1.02383 0.52754
 C2090 C 0.40222 1.00253 0.53653
 C2091 C 0.42436 0.99479 0.53058
 C2092 C 0.43947 1.00803 0.51517
 C2093 C 0.43165 1.02900 0.50575
 C2094 C 0.40994 1.03684 0.51201
 H2095 H 0.28364 1.05234 0.54766
 H2096 H 0.25161 1.07525 0.53214
 H2097 H 0.29893 1.10770 0.47901
 H2098 H 0.32969 1.08545 0.49463
 H2099 H 0.34821 1.08493 0.54325
 H2100 H 0.38550 1.06637 0.54556
 H2101 H 0.35252 1.00166 0.52100
 H2102 H 0.31496 1.02039 0.51885
 H2103 H 0.39087 0.99208 0.54835
 H2104 H 0.42954 0.97844 0.53805
 H2105 H 0.44221 1.03954 0.49330
 H2106 H 0.40459 1.05304 0.50428
 C2107 C -0.18879 0.57581 1.01273
 C2108 C -0.18946 0.59846 1.02235
 C2109 C -0.20864 0.61182 1.01777
 C2110 C -0.22812 0.60261 1.00428
 C2111 C -0.22684 0.58003 0.99402
 C2112 C -0.20765 0.56675 0.99853
 C2113 C -0.16756 0.56252 1.01538
 C2114 C -0.15842 0.55140 0.99424
 C2115 C -0.13700 0.54120 0.99570
 C2116 C -0.12447 0.54172 1.01834
 C2117 C -0.13399 0.55172 1.03987
 C2118 C -0.15542 0.56218 1.03837
 C2119 C -0.10014 0.53521 1.01810
 C2120 C -0.09270 0.51563 1.03059
 C2121 C -0.06970 0.50897 1.02813
 C2122 C -0.05387 0.52199 1.01334
 C2123 C -0.06154 0.54214 1.00182
 C2124 C -0.08437 0.54853 1.00403
 H2125 H -0.17476 0.60616 1.03261
 H2126 H -0.20827 0.62952 1.02470
 H2127 H -0.24030 0.57262 0.98182
 H2128 H -0.20736 0.54947 0.99047
 H2129 H -0.16724 0.55167 0.97623
 H2130 H -0.12966 0.53378 0.97886
 H2131 H -0.12432 0.55250 1.05739
 H2132 H -0.16221 0.57053 1.05495
 H2133 H -0.10480 0.50520 1.04158
 H2134 H -0.06450 0.49347 1.03745
 H2135 H -0.05019 0.55273 0.99023
 H2136 H -0.08988 0.56377 0.99437
 C2137 C 0.00537 0.69800 0.57272
 C2138 C -0.01526 0.69970 0.58645
 C2139 C -0.01851 0.71852 0.60268
 C2140 C -0.00086 0.73592 0.60629
 C2141 C 0.01901 0.73490 0.59094
 C2142 C 0.02220 0.71616 0.57469
 C2143 C 0.00978 0.67693 0.55736
 C2144 C 0.03189 0.66750 0.55739
 C2145 C 0.03569 0.64660 0.54489
 C2146 C 0.01746 0.63454 0.53208
 C2147 C -0.00442 0.64441 0.53116
 C2148 C -0.00822 0.66536 0.54367
 C2149 C 0.02067 0.61083 0.52181
 C2150 C 0.01004 0.60328 0.49913
 C2151 C 0.01087 0.58010 0.49128
 C2152 C 0.02221 0.56392 0.50603
 C2153 C 0.03375 0.57185 0.52808
 C2154 C 0.03305 0.59495 0.53579
 H2155 H -0.02874 0.68615 0.58517
 H2156 H -0.03491 0.71914 0.61231
 H2157 H 0.03252 0.74844 0.59219
 H2158 H 0.03798 0.71580 0.56379
 H2159 H 0.04611 0.67581 0.56790
 H2160 H 0.05281 0.63959 0.54572
 H2161 H -0.01889 0.63547 0.52167
 H2162 H -0.02537 0.67230 0.54296
 H2163 H 0.00060 0.61519 0.48777
 H2164 H 0.00177 0.57474 0.47421
 H2165 H 0.04263 0.56004 0.54008
 H2166 H 0.04122 0.60007 0.55349
 C2167 C 0.50117 0.19093 0.06430
 C2168 C 0.48088 0.19510 0.07786
 C2169 C 0.48002 0.21393 0.09457
 C2170 C 0.49977 0.22870 0.09905
 C2171 C 0.51943 0.22536 0.08390
 C2172 C 0.52020 0.20671 0.06703
 C2173 C 0.50297 0.16953 0.04861
 C2174 C 0.52380 0.15768 0.04830
 C2175 C 0.52499 0.13626 0.03609
 C2176 C 0.50535 0.12596 0.02405
 C2177 C 0.48487 0.13831 0.02307
 C2178 C 0.48369 0.15988 0.03523
 C2179 C 0.50563 0.10145 0.01533
 C2180 C 0.49489 0.09378 -0.00727
 C2181 C 0.49437 0.07021 -0.01416
 C2182 C 0.50435 0.05390 0.00159
 C2183 C 0.51517 0.06185 0.02406
 C2184 C 0.51589 0.08518 0.03072
 H2185 H 0.46575 0.18349 0.07607
 H2186 H 0.46374 0.21670 0.10388
 H2187 H 0.53452 0.23704 0.08556
 H2188 H 0.53584 0.20458 0.05623
 H2189 H 0.53895 0.16438 0.05852
 H2190 H 0.54112 0.12731 0.03687
 H2191 H 0.46944 0.13079 0.01401
 H2192 H 0.46751 0.16873 0.03465
 H2193 H 0.48685 0.10598 -0.01952
 H2194 H 0.48579 0.06475 -0.03151
 H2195 H 0.52305 0.05005 0.03688
 H2196 H 0.52390 0.09038 0.04848
 C2197 C 0.00823 0.19219 0.92463
 C2198 C 0.00558 0.19096 0.89842
 C2199 C 0.00478 0.21117 0.88431
 C2200 C 0.00631 0.23330 0.89595
 C2201 C 0.01080 0.23420 0.92214
 C2202 C 0.01113 0.21398 0.93629
 C2203 C 0.00801 0.17078 0.93978
 C2204 C -0.00628 0.16859 0.96101
 C2205 C -0.00716 0.14808 0.97476
 C2206 C 0.00663 0.12956 0.96786
 C2207 C 0.02125 0.13195 0.94692
 C2208 C 0.02177 0.15226 0.93289
 C2209 C 0.00518 0.10741 0.98168
 C2210 C 0.02540 0.09655 0.98900
 C2211 C 0.02412 0.07448 0.99946
 C2212 C 0.00258 0.06231 1.00235
 C2213 C -0.01766 0.07394 0.99623
 C2214 C -0.01640 0.09623 0.98623
 H2215 H 0.00362 0.17433 0.88889
 H2216 H 0.00243 0.20954 0.86415
 H2217 H 0.01435 0.25039 0.93202
 H2218 H 0.01406 0.21536 0.95639
 H2219 H -0.01715 0.18258 0.96662
 H2220 H -0.01856 0.14667 0.99082
 H2221 H 0.03187 0.11785 0.94106
 H2222 H 0.03301 0.15356 0.91668
 H2223 H 0.04228 0.10495 0.98605
 H2224 H 0.04026 0.06652 1.00406
 H2225 H -0.03460 0.06594 0.99855
 H2226 H -0.03231 0.10428 0.98089
 C2227 C 0.50120 0.67528 0.42594
 C2228 C 0.49703 0.67425 0.39991
 C2229 C 0.49610 0.69453 0.38596
 C2230 C 0.49872 0.71658 0.39762
 C2231 C 0.50442 0.71729 0.42353
 C2232 C 0.50509 0.69701 0.43753
 C2233 C 0.50229 0.65373 0.44078
 C2234 C 0.49143 0.65186 0.46434
 C2235 C 0.49251 0.63146 0.47819
 C2236 C 0.50480 0.61269 0.46894
 C2237 C 0.51567 0.61464 0.44542
 C2238 C 0.51436 0.63486 0.43149
 C2239 C 0.50627 0.59088 0.48328
 C2240 C 0.52739 0.57977 0.48468
 C2241 C 0.52835 0.55760 0.49453
 C2242 C 0.50810 0.54558 0.50289
 C2243 C 0.48749 0.55785 0.50402
 C2244 C 0.48653 0.58019 0.49417
 H2245 H 0.49427 0.65772 0.39035
 H2246 H 0.49298 0.69303 0.36591
 H2247 H 0.50885 0.73341 0.43322
 H2248 H 0.50930 0.69829 0.45737
 H2249 H 0.48187 0.66609 0.47188
 H2250 H 0.48400 0.63045 0.49626
 H2251 H 0.52500 0.60036 0.43763
 H2252 H 0.52307 0.63584 0.41353
 H2253 H 0.54310 0.58795 0.47730
 H2254 H 0.54496 0.54954 0.49426
 H2255 H 0.47190 0.55014 0.51195
 H2256 H 0.47007 0.58858 0.49392
 C2257 C 0.49475 0.80183 0.42791
 C2258 C 0.50998 0.80098 0.40746
 C2259 C 0.51082 0.78120 0.39228
 C2260 C 0.49698 0.76116 0.39750
 C2261 C 0.48014 0.76298 0.41657
 C2262 C 0.47935 0.78282 0.43189
 C2263 C 0.49489 0.82280 0.44444
 C2264 C 0.47410 0.83201 0.45308
 C2265 C 0.47444 0.85327 0.46608
 C2266 C 0.49553 0.86567 0.47052
 C2267 C 0.51634 0.85579 0.46328
 C2268 C 0.51604 0.83456 0.45052
 C2269 C 0.49585 0.89011 0.47916
 C2270 C 0.50722 0.90686 0.46441
 C2271 C 0.50667 0.93018 0.47086
 C2272 C 0.49531 0.93756 0.49275
 C2273 C 0.48419 0.92069 0.50785
 C2274 C 0.48426 0.89715 0.50096
 H2275 H 0.52113 0.81584 0.40292
 H2276 H 0.52226 0.78196 0.37627
 H2277 H 0.46801 0.74864 0.42011
 H2278 H 0.46699 0.78309 0.44711
 H2279 H 0.45752 0.82343 0.44865
 H2280 H 0.45816 0.86069 0.47128
 H2281 H 0.53283 0.86497 0.46669
 H2282 H 0.53239 0.82765 0.44476
 H2283 H 0.51594 0.90192 0.44729
 H2284 H 0.51511 0.94245 0.45835
 H2285 H 0.47498 0.92568 0.52461
 H2286 H 0.47526 0.88446 0.51254
 C2287 C 0.00209 0.31843 0.92629
 C2288 C 0.01797 0.31732 0.90645
 C2289 C 0.01871 0.29763 0.89106
 C2290 C 0.00417 0.27788 0.89558
 C2291 C -0.01316 0.28003 0.91409
 C2292 C -0.01394 0.29981 0.92950
 C2293 C 0.00233 0.33918 0.94316
 C2294 C -0.01841 0.34918 0.95074
 C2295 C -0.01781 0.37003 0.96454
 C2296 C 0.00352 0.38125 0.97100
 C2297 C 0.02417 0.37053 0.96466
 C2298 C 0.02358 0.34978 0.95093
 C2299 C 0.00445 0.40523 0.98147
 C2300 C 0.01949 0.42184 0.97062
 C2301 C 0.01921 0.44495 0.97814
 C2302 C 0.00437 0.45228 0.99737
 C2303 C -0.01044 0.43550 1.00866
 C2304 C -0.01045 0.41222 1.00072
 H2305 H 0.02971 0.33191 0.90258
 H2306 H 0.03062 0.29826 0.87548
 H2307 H -0.02570 0.26592 0.91716
 H2308 H -0.02676 0.30030 0.94426
 H2309 H -0.03506 0.34147 0.94500
 H2310 H -0.03400 0.37800 0.96897
 H2311 H 0.04086 0.37860 0.96971
 H2312 H 0.03984 0.34222 0.94595
 H2313 H 0.03074 0.41718 0.95528
 H2314 H 0.03014 0.45718 0.96796
 H2315 H -0.02271 0.44044 1.02287
 H2316 H -0.02237 0.39976 1.00931
 C2317 C 0.49811 0.30825 0.06586
 C2318 C 0.47811 0.29423 0.07028
 C2319 C 0.47889 0.27540 0.08647
 C2320 C 0.49932 0.27074 0.09995
 C2321 C 0.51965 0.28394 0.09408
 C2322 C 0.51901 0.30236 0.07744
 C2323 C 0.49731 0.32915 0.04970
 C2324 C 0.51193 0.34867 0.05512
 C2325 C 0.51141 0.36834 0.04029
 C2326 C 0.49593 0.36928 0.01995
 C2327 C 0.48100 0.35010 0.01456
 C2328 C 0.48186 0.33010 0.02911
 C2329 C 0.49510 0.39086 0.00541
 C2330 C 0.47447 0.40278 0.00355
 C2331 C 0.47492 0.42563 -0.00492
 C2332 C 0.49598 0.43699 -0.01172
 C2333 C 0.51605 0.42380 -0.01259
 C2334 C 0.51566 0.40117 -0.00382
 H2335 H 0.46167 0.29795 0.06161
 H2336 H 0.46324 0.26472 0.08902
 H2337 H 0.53633 0.27991 0.10191
 H2338 H 0.53511 0.31186 0.07349
 H2339 H 0.52354 0.34904 0.07118
 H2340 H 0.52275 0.38314 0.04512
 H2341 H 0.46889 0.35052 -0.00106
 H2342 H 0.47054 0.31538 0.02406
 H2343 H 0.45831 0.39503 0.01031
 H2344 H 0.45888 0.43441 -0.00492
 H2345 H 0.53262 0.43145 -0.01825
 H2346 H 0.53173 0.39211 -0.00297
 C2347 C -0.00777 0.81627 0.57492
 C2348 C -0.02511 0.79856 0.57522
 C2349 C -0.02306 0.77956 0.59090
 C2350 C -0.00395 0.77794 0.60745
 C2351 C 0.01414 0.79507 0.60578
 C2352 C 0.01211 0.81405 0.58996
 C2353 C -0.01086 0.83743 0.55983
 C2354 C 0.00783 0.84788 0.54673
 C2355 C 0.00522 0.86883 0.53430
 C2356 C -0.01606 0.87985 0.53490
 C2357 C -0.03495 0.86898 0.54720
 C2358 C -0.03240 0.84799 0.55946
 C2359 C -0.01793 0.90362 0.52500
 C2360 C -0.02830 0.92056 0.53977
 C2361 C -0.02799 0.94354 0.53221
 C2362 C -0.01764 0.95030 0.50938
 C2363 C -0.00817 0.93312 0.49401
 C2364 C -0.00816 0.91004 0.50184
 H2365 H -0.04036 0.79943 0.56334
 H2366 H -0.03682 0.76625 0.59066
 H2367 H 0.03002 0.79400 0.61649
 H2368 H 0.02592 0.82730 0.58995
 H2369 H 0.02456 0.84002 0.54643
 H2370 H 0.02013 0.87690 0.52515
 H2371 H -0.05159 0.87701 0.54784
 H2372 H -0.04708 0.84050 0.56951
 H2373 H -0.03573 0.91624 0.55784
 H2374 H -0.03538 0.95613 0.54474
 H2375 H 0.00001 0.93759 0.47637
 H2376 H -0.00016 0.89727 0.49000
 C2377 C 0.22967 0.34572 0.06373
 C2378 C 0.21189 0.35680 0.05122
 C2379 C 0.21683 0.37138 0.03105
 C2380 C 0.23987 0.37548 0.02245
 C2381 C 0.25759 0.36436 0.03565
 C2382 C 0.25261 0.34981 0.05581
 C2383 C 0.22437 0.32994 0.08494
 C2384 C 0.23634 0.30942 0.08754
 C2385 C 0.23231 0.29513 0.10814
 C2386 C 0.21615 0.30095 0.12665
 C2387 C 0.20361 0.32110 0.12364
 C2388 C 0.20767 0.33543 0.10300
 C2389 C 0.21429 0.28719 0.15002
 C2390 C 0.21315 0.29836 0.17353
 C2391 C 0.21666 0.28617 0.19562
 C2392 C 0.22174 0.26259 0.19484
 C2393 C 0.21997 0.25093 0.17141
 C2394 C 0.21639 0.26309 0.14930
 H2395 H 0.19398 0.35388 0.05674
 H2396 H 0.20212 0.37910 0.02243
 H2397 H 0.27556 0.36676 0.03013
 H2398 H 0.26683 0.34185 0.06534
 H2399 H 0.24902 0.30449 0.07375
 H2400 H 0.24256 0.27996 0.11003
 H2401 H 0.19093 0.32599 0.13745
 H2402 H 0.19823 0.35118 0.10160
 H2403 H 0.21121 0.31688 0.17488
 H2404 H 0.21636 0.29573 0.21297
 H2405 H 0.22313 0.23265 0.16979
 H2406 H 0.21655 0.25380 0.13150
 C2407 C 0.72487 0.84867 0.57206
 C2408 C 0.71959 0.87213 0.57151
 C2409 C 0.72529 0.88553 0.55066
 C2410 C 0.73560 0.87573 0.52921
 C2411 C 0.74215 0.85252 0.53057
 C2412 C 0.73660 0.83916 0.55154
 C2413 C 0.71893 0.83433 0.59427
 C2414 C 0.71184 0.81090 0.59126
 C2415 C 0.70829 0.79689 0.61220
 C2416 C 0.71157 0.80606 0.63658
 C2417 C 0.71744 0.82973 0.63965
 C2418 C 0.72116 0.84371 0.61873
 C2419 C 0.71229 0.79062 0.65853
 C2420 C 0.70276 0.79702 0.68169
 C2421 C 0.70799 0.78493 0.70349
 C2422 C 0.72363 0.76690 0.70272
 C2423 C 0.73091 0.75900 0.67896
 C2424 C 0.72535 0.77073 0.65719
 H2425 H 0.71075 0.88012 0.58706
 H2426 H 0.72100 0.90360 0.55090
 H2427 H 0.75189 0.84458 0.51573
 H2428 H 0.74192 0.82142 0.55188
 H2429 H 0.70944 0.80328 0.57269
 H2430 H 0.70362 0.77871 0.60935
 H2431 H 0.72050 0.83716 0.65822
 H2432 H 0.72686 0.86159 0.62176
 H2433 H 0.69217 0.81203 0.68312
 H2434 H 0.70109 0.79094 0.72103
 H2435 H 0.74217 0.74457 0.67704
 H2436 H 0.73281 0.76525 0.63956
 C2437 C 0.28667 0.67477 0.57195
 C2438 C 0.28670 0.65114 0.57755
 C2439 C 0.28180 0.63444 0.55897
 C2440 C 0.27678 0.64066 0.53396
 C2441 C 0.27645 0.66453 0.52861
 C2442 C 0.28173 0.68124 0.54720
 C2443 C 0.28914 0.69237 0.59250
 C2444 C 0.27497 0.71159 0.59266
 C2445 C 0.27344 0.72545 0.61415
 C2446 C 0.28577 0.72022 0.63605
 C2447 C 0.30170 0.70253 0.63520
 C2448 C 0.30344 0.68875 0.61354
 C2449 C 0.27849 0.72992 0.66045
 C2450 C 0.29449 0.73795 0.67891
 C2451 C 0.28668 0.74551 0.70247
 C2452 C 0.26286 0.74427 0.70822
 C2453 C 0.24708 0.73676 0.68918
 C2454 C 0.25477 0.72965 0.66583
 H2455 H 0.28967 0.64543 0.59655
 H2456 H 0.28180 0.61637 0.56410
 H2457 H 0.27165 0.67079 0.51040
 H2458 H 0.28148 0.69932 0.54222
 H2459 H 0.26364 0.71495 0.57695
 H2460 H 0.26124 0.73922 0.61429
 H2461 H 0.31141 0.69818 0.65185
 H2462 H 0.31501 0.67446 0.61377
 H2463 H 0.31292 0.73850 0.67504
 H2464 H 0.29931 0.75240 0.71588
 H2465 H 0.22853 0.73595 0.69225
 H2466 H 0.24203 0.72323 0.65213
 C2467 C 0.77794 0.16442 0.06093
 C2468 C 0.77372 0.14058 0.06423
 C2469 C 0.76594 0.12643 0.04431
 C2470 C 0.76120 0.13562 0.02046
 C2471 C 0.76616 0.15950 0.01701
 C2472 C 0.77424 0.17368 0.03701
 C2473 C 0.78515 0.17945 0.08278
 C2474 C 0.77617 0.20157 0.08589
 C2475 C 0.77970 0.21399 0.10842
 C2476 C 0.79203 0.20440 0.12829
 C2477 C 0.80241 0.18313 0.12461
 C2478 C 0.79925 0.17090 0.10197
 C2479 C 0.79008 0.21423 0.15388
 C2480 C 0.77879 0.20084 0.17217
 C2481 C 0.77237 0.21081 0.19488
 C2482 C 0.77794 0.23426 0.20046
 C2483 C 0.79061 0.24731 0.18261
 C2484 C 0.79633 0.23746 0.15935
 H2485 H 0.77602 0.13277 0.08241
 H2486 H 0.76324 0.10807 0.04757
 H2487 H 0.76445 0.16735 -0.00119
 H2488 H 0.77789 0.19188 0.03362
 H2489 H 0.76511 0.20865 0.07165
 H2490 H 0.77126 0.23025 0.11104
 H2491 H 0.81199 0.17546 0.13974
 H2492 H 0.80703 0.15425 0.09995
 H2493 H 0.77335 0.18302 0.16812
 H2494 H 0.76177 0.20029 0.20734
 H2495 H 0.79482 0.26551 0.18585
 H2496 H 0.80484 0.24813 0.14531
 C2497 C 0.73011 0.15185 0.92991
 C2498 C 0.72017 0.15664 0.95336
 C2499 C 0.72843 0.14652 0.97521
 C2500 C 0.74694 0.13125 0.97446
 C2501 C 0.75625 0.12593 0.95068
 C2502 C 0.74828 0.13637 0.92893
 C2503 C 0.72229 0.16354 0.90667
 C2504 C 0.72315 0.15237 0.88303
 C2505 C 0.71925 0.16451 0.86093
 C2506 C 0.71406 0.18804 0.86194
 C2507 C 0.71108 0.19858 0.88562
 C2508 C 0.71538 0.18658 0.90767
 C2509 C 0.71547 0.20229 0.83883
 C2510 C 0.72655 0.22430 0.84010
 C2511 C 0.73242 0.23610 0.81831
 C2512 C 0.72781 0.22615 0.79439
 C2513 C 0.71424 0.20539 0.79313
 C2514 C 0.70843 0.19338 0.81512
 H2515 H 0.70576 0.16800 0.95489
 H2516 H 0.72013 0.15040 0.99289
 H2517 H 0.76946 0.11335 0.94843
 H2518 H 0.75659 0.13236 0.91131
 H2519 H 0.72766 0.13442 0.88149
 H2520 H 0.72173 0.15581 0.84307
 H2521 H 0.70655 0.21653 0.88712
 H2522 H 0.71449 0.19586 0.92541
 H2523 H 0.73228 0.23187 0.85790
 H2524 H 0.74184 0.25256 0.82055
 H2525 H 0.70880 0.19793 0.77523
 H2526 H 0.69913 0.17678 0.81352
 C2527 C 0.24844 0.65053 0.44286
 C2528 C 0.23300 0.63644 0.45656
 C2529 C 0.23995 0.62659 0.47898
 C2530 C 0.26268 0.63074 0.48881
 C2531 C 0.27852 0.64378 0.47393
 C2532 C 0.27139 0.65390 0.45154
 C2533 C 0.24045 0.66150 0.41952
 C2534 C 0.24579 0.68498 0.41503
 C2535 C 0.23840 0.69519 0.39285
 C2536 C 0.22579 0.68203 0.37465
 C2537 C 0.21999 0.65870 0.37942
 C2538 C 0.22714 0.64856 0.40169
 C2539 C 0.22180 0.69169 0.34945
 C2540 C 0.22936 0.67955 0.32832
 C2541 C 0.23101 0.69032 0.30515
 C2542 C 0.22447 0.71337 0.30221
 C2543 C 0.21467 0.72471 0.32295
 C2544 C 0.21365 0.71406 0.34646
 H2545 H 0.21527 0.63334 0.45015
 H2546 H 0.22704 0.61582 0.48828
 H2547 H 0.29630 0.64682 0.48019
 H2548 H 0.28383 0.66430 0.44095
 H2549 H 0.25577 0.69538 0.42863
 H2550 H 0.24344 0.71311 0.38941
 H2551 H 0.21041 0.64817 0.36559
 H2552 H 0.22284 0.63041 0.40467
 H2553 H 0.23606 0.66241 0.33016
 H2554 H 0.23951 0.68108 0.29028
 H2555 H 0.20962 0.74248 0.32164
 H2556 H 0.20763 0.72372 0.36256
 C2557 C 0.76043 0.85166 0.43909
 C2558 C 0.74039 0.84533 0.45270
 C2559 C 0.73394 0.85827 0.47376
 C2560 C 0.74771 0.87754 0.48239
 C2561 C 0.76683 0.88466 0.46743
 C2562 C 0.77338 0.87165 0.44660
 C2563 C 0.76710 0.83829 0.41634
 C2564 C 0.77581 0.84990 0.39512
 C2565 C 0.78023 0.83774 0.37298
 C2566 C 0.77585 0.81370 0.37135
 C2567 C 0.76841 0.80183 0.39289
 C2568 C 0.76407 0.81402 0.41519
 C2569 C 0.77522 0.80201 0.34639
 C2570 C 0.78421 0.78001 0.34229
 C2571 C 0.78092 0.76853 0.31900
 C2572 C 0.76823 0.77872 0.29965
 C2573 C 0.75967 0.80090 0.30404
 C2574 C 0.76337 0.81242 0.32680
 H2575 H 0.72945 0.83057 0.44684
 H2576 H 0.71833 0.85293 0.48369
 H2577 H 0.77696 0.90038 0.47159
 H2578 H 0.78872 0.87730 0.43638
 H2579 H 0.77818 0.86856 0.39515
 H2580 H 0.78605 0.84731 0.35666
 H2581 H 0.76469 0.78333 0.39208
 H2582 H 0.75780 0.80451 0.43135
 H2583 H 0.79331 0.77156 0.35723
 H2584 H 0.78736 0.75132 0.31658
 H2585 H 0.74909 0.80924 0.29027
 H2586 H 0.75571 0.82906 0.32953
 C2587 C 0.26234 0.34855 0.93248
 C2588 C 0.25340 0.37052 0.93001
 C2589 C 0.24827 0.38370 0.95114
 C2590 C 0.25161 0.37548 0.97586
 C2591 C 0.26100 0.35323 0.97783
 C2592 C 0.26638 0.34011 0.95651
 C2593 C 0.26628 0.33433 0.90977
 C2594 C 0.28746 0.32365 0.90567
 C2595 C 0.29150 0.31222 0.88277
 C2596 C 0.27436 0.31140 0.86388
 C2597 C 0.25278 0.32095 0.86876
 C2598 C 0.24884 0.33235 0.89136
 C2599 C 0.27852 0.30156 0.83859
 C2600 C 0.27088 0.31359 0.81765
 C2601 C 0.26880 0.30266 0.79438
 C2602 C 0.27526 0.27960 0.79096
 C2603 C 0.28543 0.26840 0.81141
 C2604 C 0.28694 0.27929 0.83514
 H2605 H 0.25033 0.37756 0.91157
 H2606 H 0.24133 0.40050 0.94785
 H2607 H 0.26421 0.34519 0.99546
 H2608 H 0.27315 0.32306 0.95883
 H2609 H 0.30111 0.32494 0.91974
 H2610 H 0.30819 0.30483 0.87947
 H2611 H 0.23900 0.31992 0.85481
 H2612 H 0.23219 0.33997 0.89434
 H2613 H 0.26471 0.33096 0.81971
 H2614 H 0.26018 0.31188 0.77974
 H2615 H 0.29043 0.25061 0.80966
 H2616 H 0.29301 0.26971 0.85107
 C2617 C 0.82031 0.44199 0.75683
 C2618 C 0.82902 0.45637 0.77633
 C2619 C 0.84339 0.47567 0.77102
 C2620 C 0.85056 0.48043 0.74611
 C2621 C 0.83995 0.46684 0.72662
 C2622 C 0.82523 0.44784 0.73193
 C2623 C 0.80795 0.41980 0.76224
 C2624 C 0.81827 0.40400 0.77823
 C2625 C 0.80920 0.38135 0.77980
 C2626 C 0.78942 0.37432 0.76579
 C2627 C 0.77813 0.39050 0.75115
 C2628 C 0.78747 0.41307 0.74920
 C2629 C 0.78258 0.34958 0.76371
 C2630 C 0.76008 0.34145 0.76960
 C2631 C 0.75379 0.31796 0.76648
 C2632 C 0.76978 0.30231 0.75692
 C2633 C 0.79216 0.31089 0.75061
 C2634 C 0.79856 0.33413 0.75431
 H2635 H 0.82488 0.45251 0.79569
 H2636 H 0.84913 0.48670 0.78661
 H2637 H 0.84319 0.47037 0.70710
 H2638 H 0.81845 0.43711 0.71652
 H2639 H 0.83421 0.40876 0.78825
 H2640 H 0.81815 0.36901 0.79109
 H2641 H 0.76296 0.38527 0.74005
 H2642 H 0.77926 0.42503 0.73678
 H2643 H 0.74745 0.35326 0.77663
 H2644 H 0.73629 0.31223 0.77124
 H2645 H 0.80471 0.29990 0.74210
 H2646 H 0.81585 0.34025 0.74906
 C2647 C 0.31617 0.93165 0.26535
 C2648 C 0.31448 0.95345 0.27672
 C2649 C 0.32780 0.97239 0.26779
 C2650 C 0.34269 0.97017 0.24684
 C2651 C 0.34389 0.94786 0.23571
 C2652 C 0.33076 0.92909 0.24474
 C2653 C 0.30442 0.91079 0.27559
 C2654 C 0.31792 0.89402 0.28667
 C2655 C 0.30862 0.87173 0.29048
 C2656 C 0.28570 0.86578 0.28309
 C2657 C 0.27157 0.88313 0.27401
 C2658 C 0.28093 0.90556 0.27020
 C2659 C 0.27822 0.84106 0.28067
 C2660 C 0.25646 0.83263 0.28901
 C2661 C 0.24945 0.80936 0.28485
 C2662 C 0.26391 0.79422 0.27185
 C2663 C 0.28559 0.80305 0.26348
 C2664 C 0.29270 0.82595 0.26804
 H2665 H 0.30355 0.95561 0.29299
 H2666 H 0.32698 0.98882 0.27769
 H2667 H 0.35572 0.94409 0.22073
 H2668 H 0.33253 0.91220 0.23603
 H2669 H 0.33612 0.89777 0.29078
 H2670 H 0.31979 0.85869 0.29767
 H2671 H 0.25392 0.87890 0.26797
 H2672 H 0.27038 0.91826 0.26134
 H2673 H 0.24489 0.84406 0.29860
 H2674 H 0.23249 0.80343 0.29131
 H2675 H 0.29692 0.79260 0.25241
 H2676 H 0.30927 0.83214 0.26071
 C2677 C 0.15832 0.94316 0.74982
 C2678 C 0.13676 0.94557 0.73793
 C2679 C 0.12490 0.96597 0.74057
 C2680 C 0.13480 0.98519 0.75392
 C2681 C 0.15623 0.98243 0.76628
 C2682 C 0.16787 0.96182 0.76409
 C2683 C 0.16999 0.92074 0.74883
 C2684 C 0.19436 0.91996 0.74886
 C2685 C 0.20516 0.89877 0.74990
 C2686 C 0.19180 0.87796 0.75069
 C2687 C 0.16749 0.87874 0.74953
 C2688 C 0.15673 0.89984 0.74891
 C2689 C 0.20284 0.85546 0.75382
 C2690 C 0.19217 0.83854 0.76898
 C2691 C 0.20142 0.81687 0.77107
 C2692 C 0.22203 0.81149 0.75864
 C2693 C 0.23317 0.82872 0.74405
 C2694 C 0.22364 0.85047 0.74162
 H2695 H 0.12882 0.93159 0.72677
 H2696 H 0.10784 0.96673 0.73208
 H2697 H 0.16382 0.99592 0.77837
 H2698 H 0.18397 0.96025 0.77437
 H2699 H 0.20511 0.93573 0.74837
 H2700 H 0.22393 0.89874 0.75083
 H2701 H 0.15667 0.86300 0.74948
 H2702 H 0.13796 0.89968 0.74927
 H2703 H 0.17644 0.84195 0.77916
 H2704 H 0.19188 0.80420 0.78209
 H2705 H 0.24895 0.82530 0.73398
 H2706 H 0.23221 0.86313 0.72966
 C2707 C 0.67497 0.43881 0.22424
 C2708 C 0.65854 0.43526 0.24312
 C2709 C 0.64566 0.45340 0.25198
 C2710 C 0.64904 0.47605 0.24253
 C2711 C 0.66492 0.47908 0.22250
 C2712 C 0.67821 0.46082 0.21393
 C2713 C 0.68819 0.41895 0.21574
 C2714 C 0.71184 0.41784 0.22174
 C2715 C 0.72261 0.39656 0.22081
 C2716 C 0.70973 0.37630 0.21393
 C2717 C 0.68675 0.37798 0.20548
 C2718 C 0.67604 0.39913 0.20647
 C2719 C 0.71857 0.35328 0.21952
 C2720 C 0.70467 0.33777 0.23346
 C2721 C 0.71264 0.31628 0.23990
 C2722 C 0.73469 0.30942 0.23232
 C2723 C 0.74877 0.32511 0.21851
 C2724 C 0.74084 0.34694 0.21234
 H2725 H 0.65555 0.41821 0.25100
 H2726 H 0.63254 0.44904 0.26569
 H2727 H 0.66707 0.49573 0.21355
 H2728 H 0.69058 0.46373 0.19895
 H2729 H 0.72137 0.43296 0.22918
 H2730 H 0.74032 0.39563 0.22751
 H2731 H 0.67658 0.36262 0.19981
 H2732 H 0.65775 0.39971 0.20181
 H2733 H 0.68767 0.34249 0.23986
 H2734 H 0.70139 0.30519 0.25106
 H2735 H 0.76590 0.32062 0.21242
 H2736 H 0.75194 0.35876 0.20177
 C2737 C 0.67049 0.56088 0.27410
 C2738 C 0.68316 0.54178 0.26629
 C2739 C 0.67189 0.52057 0.26008
 C2740 C 0.64741 0.51819 0.25981
 C2741 C 0.63502 0.53690 0.26934
 C2742 C 0.64634 0.55756 0.27691
 C2743 C 0.68187 0.58452 0.27713
 C2744 C 0.66884 0.60425 0.27326
 C2745 C 0.67946 0.62623 0.27297
 C2746 C 0.70366 0.62930 0.27528
 C2747 C 0.71675 0.60998 0.28064
 C2748 C 0.70593 0.58784 0.28184
 C2749 C 0.71480 0.65232 0.26987
 C2750 C 0.73428 0.66142 0.28329
 C2751 C 0.74326 0.68390 0.27846
 C2752 C 0.73279 0.69768 0.26028
 C2753 C 0.71361 0.68806 0.24677
 C2754 C 0.70519 0.66573 0.25103
 H2755 H 0.70179 0.54318 0.26411
 H2756 H 0.68270 0.50645 0.25514
 H2757 H 0.61626 0.53562 0.27053
 H2758 H 0.63582 0.57105 0.28439
 H2759 H 0.65046 0.60298 0.26913
 H2760 H 0.66867 0.64082 0.26980
 H2761 H 0.73541 0.61178 0.28282
 H2762 H 0.71662 0.57338 0.28578
 H2763 H 0.74212 0.65150 0.29796
 H2764 H 0.75788 0.69068 0.28949
 H2765 H 0.70402 0.69804 0.23358
 H2766 H 0.69061 0.65919 0.23975
 C2767 C 0.16410 0.06920 0.77416
 C2768 C 0.14352 0.06496 0.78762
 C2769 C 0.12944 0.04523 0.78255
 C2770 C 0.13605 0.02860 0.76460
 C2771 C 0.15631 0.03348 0.75058
 C2772 C 0.17026 0.05327 0.75550
 C2773 C 0.17792 0.09122 0.77761
 C2774 C 0.20227 0.09190 0.77536
 C2775 C 0.21477 0.11311 0.77435
 C2776 C 0.20306 0.13388 0.77555
 C2777 C 0.17904 0.13317 0.77982
 C2778 C 0.16658 0.11208 0.78075
 C2779 C 0.21484 0.15603 0.76877
 C2780 C 0.20446 0.16959 0.75064
 C2781 C 0.21430 0.19095 0.74438
 C2782 C 0.23494 0.19959 0.75601
 C2783 C 0.24587 0.18557 0.77362
 C2784 C 0.23594 0.16385 0.77985
 H2785 H 0.13808 0.07709 0.80188
 H2786 H 0.11324 0.04324 0.79258
 H2787 H 0.16141 0.02188 0.73565
 H2788 H 0.18548 0.05647 0.74404
 H2789 H 0.21153 0.07606 0.77338
 H2790 H 0.23330 0.11329 0.77105
 H2791 H 0.16970 0.14903 0.78106
 H2792 H 0.14787 0.11225 0.78232
 H2793 H 0.18842 0.16374 0.74144
 H2794 H 0.20492 0.20108 0.73109
 H2795 H 0.26175 0.19155 0.78299
 H2796 H 0.24432 0.15349 0.79378
 C2797 C 0.32651 0.05397 0.21486
 C2798 C 0.35033 0.05059 0.21142
 C2799 C 0.36043 0.03050 0.21954
 C2800 C 0.34705 0.01218 0.23017
 C2801 C 0.32280 0.01462 0.23122
 C2802 C 0.31285 0.03537 0.22445
 C2803 C 0.31648 0.07716 0.21015
 C2804 C 0.29238 0.07974 0.20702
 C2805 C 0.28304 0.10176 0.20638
 C2806 C 0.29759 0.12183 0.20802
 C2807 C 0.32171 0.11921 0.20867
 C2808 C 0.33094 0.09741 0.21040
 C2809 C 0.28801 0.14525 0.21165
 C2810 C 0.30021 0.16168 0.22685
 C2811 C 0.29132 0.18319 0.23178
 C2812 C 0.26946 0.18904 0.22249
 C2813 C 0.25724 0.17283 0.20691
 C2814 C 0.26646 0.15120 0.20146
 H2815 H 0.36161 0.06353 0.20280
 H2816 H 0.37906 0.02937 0.21776
 H2817 H 0.31118 0.00095 0.23769
 H2818 H 0.29446 0.03678 0.22751
 H2819 H 0.28046 0.06487 0.20569
 H2820 H 0.26437 0.10295 0.20570
 H2821 H 0.33366 0.13413 0.20887
 H2822 H 0.34948 0.09689 0.21307
 H2823 H 0.31639 0.15774 0.23592
 H2824 H 0.30137 0.19473 0.24412
 H2825 H 0.24045 0.17667 0.19918
 H2826 H 0.25663 0.13914 0.18942
 C2827 C 0.83093 0.56485 0.72817
 C2828 C 0.85309 0.56199 0.71805
 C2829 C 0.86471 0.54160 0.72180
 C2830 C 0.85427 0.52281 0.73491
 C2831 C 0.83177 0.52579 0.74461
 C2832 C 0.82040 0.54641 0.74135
 C2833 C 0.81960 0.58751 0.72678
 C2834 C 0.79526 0.58871 0.72595
 C2835 C 0.78473 0.61006 0.72763
 C2836 C 0.79833 0.63070 0.72983
 C2837 C 0.82263 0.62955 0.72908
 C2838 C 0.83312 0.60828 0.72790
 C2839 C 0.78754 0.65326 0.73453
 C2840 C 0.79850 0.66952 0.75089
 C2841 C 0.78911 0.69093 0.75519
 C2842 C 0.76807 0.69675 0.74381
 C2843 C 0.75677 0.68028 0.72777
 C2844 C 0.76642 0.65878 0.72314
 H2845 H 0.86175 0.57567 0.70754
 H2846 H 0.88228 0.54071 0.71488
 H2847 H 0.82287 0.51260 0.75548
 H2848 H 0.80364 0.54813 0.75008
 H2849 H 0.78427 0.57313 0.72452
 H2850 H 0.76598 0.61031 0.72815
 H2851 H 0.83367 0.64514 0.73004
 H2852 H 0.85186 0.60820 0.72887
 H2853 H 0.81446 0.66572 0.76055
 H2854 H 0.79875 0.70300 0.76733
 H2855 H 0.74067 0.68408 0.71841
 H2856 H 0.75759 0.64669 0.71028
 C2857 C 0.93848 0.75640 0.18136
 C2858 C 0.94141 0.73700 0.16567
 C2859 C 0.96049 0.73597 0.14959
 C2860 C 0.97696 0.75467 0.14812
 C2861 C 0.97468 0.77330 0.16527
 C2862 C 0.95566 0.77429 0.18135
 C2863 C 0.91712 0.75844 0.19679
 C2864 C 0.90636 0.77978 0.19887
 C2865 C 0.88518 0.78145 0.21127
 C2866 C 0.87412 0.76182 0.22188
 C2867 C 0.88536 0.74069 0.22086
 C2868 C 0.90659 0.73901 0.20841
 C2869 C 0.84996 0.76289 0.23144
 C2870 C 0.84264 0.75086 0.25300
 C2871 C 0.81918 0.75010 0.26004
 C2872 C 0.80252 0.76113 0.24548
 C2873 C 0.81020 0.77377 0.22443
 C2874 C 0.83351 0.77477 0.21766
 H2875 H 0.92864 0.72276 0.16537
 H2876 H 0.96214 0.72035 0.13852
 H2877 H 0.98751 0.78751 0.16572
 H2878 H 0.95439 0.78917 0.19376
 H2879 H 0.91382 0.79507 0.19000
 H2880 H 0.87709 0.79803 0.21196
 H2881 H 0.87722 0.72522 0.22868
 H2882 H 0.91457 0.72239 0.20751
 H2883 H 0.85498 0.74165 0.26410
 H2884 H 0.81401 0.74008 0.27626
 H2885 H 0.79807 0.78230 0.21242
 H2886 H 0.83842 0.78390 0.20074
 C2887 C 0.44370 0.25027 0.67671
 C2888 C 0.45753 0.23081 0.67756
 C2889 C 0.47622 0.22865 0.66115
 C2890 C 0.48163 0.24571 0.64309
 C2891 C 0.46861 0.26591 0.64365
 C2892 C 0.44972 0.26787 0.65972
 C2893 C 0.42257 0.25193 0.69264
 C2894 C 0.41506 0.27362 0.70095
 C2895 C 0.39363 0.27548 0.71279
 C2896 C 0.37953 0.25568 0.71723
 C2897 C 0.38753 0.23388 0.71051
 C2898 C 0.40874 0.23202 0.69816
 C2899 C 0.35539 0.25790 0.72578
 C2900 C 0.34701 0.24628 0.74707
 C2901 C 0.32345 0.24675 0.75334
 C2902 C 0.30777 0.25834 0.73802
 C2903 C 0.31650 0.27018 0.71689
 C2904 C 0.34005 0.27028 0.71113
 H2905 H 0.45395 0.21719 0.69091
 H2906 H 0.48637 0.21334 0.66225
 H2907 H 0.47276 0.28053 0.63188
 H2908 H 0.43959 0.28316 0.65838
 H2909 H 0.42547 0.28929 0.69778
 H2910 H 0.38775 0.29246 0.71792
 H2911 H 0.37673 0.21842 0.71349
 H2912 H 0.41368 0.21506 0.69183
 H2913 H 0.35862 0.23654 0.75854
 H2914 H 0.31744 0.23726 0.76961
 H2915 H 0.30507 0.27896 0.70430
 H2916 H 0.34613 0.27912 0.69443
 C2917 C 0.43202 0.74952 0.83079
 C2918 C 0.43324 0.73527 0.85190
 C2919 C 0.45379 0.73403 0.86570
 C2920 C 0.47417 0.74663 0.85862
 C2921 C 0.47215 0.76259 0.83895
 C2922 C 0.45169 0.76350 0.82477
 C2923 C 0.41005 0.75020 0.81583
 C2924 C 0.40326 0.77080 0.80466
 C2925 C 0.38196 0.77170 0.79208
 C2926 C 0.36658 0.75218 0.79075
 C2927 C 0.37373 0.73136 0.80110
 C2928 C 0.39523 0.73034 0.81325
 C2929 C 0.34256 0.75399 0.78047
 C2930 C 0.33076 0.73506 0.76853
 C2931 C 0.30737 0.73627 0.76151
 C2932 C 0.29514 0.75647 0.76611
 C2933 C 0.30754 0.77580 0.77662
 C2934 C 0.33068 0.77450 0.78393
 H2935 H 0.41812 0.72530 0.85817
 H2936 H 0.45342 0.72332 0.88221
 H2937 H 0.48675 0.77398 0.83409
 H2938 H 0.45146 0.77502 0.80891
 H2939 H 0.41401 0.78652 0.80628
 H2940 H 0.37739 0.78792 0.78382
 H2941 H 0.36240 0.71599 0.80069
 H2942 H 0.40006 0.71398 0.82096
 H2943 H 0.33951 0.71917 0.76480
 H2944 H 0.29908 0.72133 0.75243
 H2945 H 0.29925 0.79198 0.78014
 H2946 H 0.33890 0.78942 0.79330
 C2947 C 0.93949 0.26044 0.32849
 C2948 C 0.96103 0.26734 0.31841
 C2949 C 0.98125 0.26661 0.33304
 C2950 C 0.98046 0.25841 0.35799
 C2951 C 0.95836 0.25421 0.36865
 C2952 C 0.93826 0.25457 0.35395
 C2953 C 0.91833 0.25855 0.31258
 C2954 C 0.90435 0.23816 0.31292
 C2955 C 0.88345 0.23657 0.29961
 C2956 C 0.87576 0.25551 0.28596
 C2957 C 0.89033 0.27557 0.28457
 C2958 C 0.91153 0.27702 0.29768
 C2959 C 0.85170 0.25495 0.27561
 C2960 C 0.84627 0.26495 0.25242
 C2961 C 0.82315 0.26500 0.24386
 C2962 C 0.80508 0.25519 0.25840
 C2963 C 0.81080 0.24505 0.28144
 C2964 C 0.83364 0.24495 0.28985
 H2965 H 0.96231 0.27264 0.29900
 H2966 H 0.99745 0.27230 0.32457
 H2967 H 0.95675 0.24960 0.38824
 H2968 H 0.92168 0.25002 0.36242
 H2969 H 0.90950 0.22350 0.32382
 H2970 H 0.87295 0.22066 0.30054
 H2971 H 0.88485 0.29049 0.27435
 H2972 H 0.92212 0.29290 0.29709
 H2973 H 0.85985 0.27274 0.24098
 H2974 H 0.81944 0.27307 0.22612
 H2975 H 0.79760 0.23725 0.29337
 H2976 H 0.83704 0.23754 0.30803
 C2977 C 0.06570 0.25087 0.32913
 C2978 C 0.04535 0.23798 0.32271
 C2979 C 0.02545 0.23939 0.33750
 C2980 C 0.02489 0.25460 0.35848
 C2981 C 0.04590 0.26640 0.36557
 C2982 C 0.06583 0.26482 0.35092
 C2983 C 0.08710 0.24895 0.31389
 C2984 C 0.10861 0.24658 0.32588
 C2985 C 0.12875 0.24423 0.31183
 C2986 C 0.12796 0.24429 0.28542
 C2987 C 0.10658 0.24717 0.27331
 C2988 C 0.08627 0.24929 0.28744
 C2989 C 0.14953 0.24057 0.27106
 C2990 C 0.15673 0.25525 0.25148
 C2991 C 0.17891 0.25349 0.24094
 C2992 C 0.19430 0.23712 0.24994
 C2993 C 0.18601 0.22129 0.26808
 C2994 C 0.16405 0.22303 0.27844
 H2995 H 0.04498 0.22642 0.30653
 H2996 H 0.01023 0.22880 0.33229
 H2997 H 0.04722 0.27676 0.38261
 H2998 H 0.08142 0.27461 0.35667
 H2999 H 0.10980 0.24606 0.34618
 H3000 H 0.14504 0.24231 0.32167
 H3001 H 0.10552 0.24724 0.25299
 H3002 H 0.06993 0.25131 0.27773
 H3003 H 0.14577 0.26890 0.24536
 H3004 H 0.18444 0.26595 0.22707
 H3005 H 0.19684 0.20814 0.27553
 H3006 H 0.15873 0.21111 0.29305
 C3007 C 0.56046 0.74264 0.82868
 C3008 C 0.53873 0.73891 0.81706
 C3009 C 0.51835 0.73922 0.83123
 C3010 C 0.51910 0.74461 0.85724
 C3011 C 0.54121 0.74704 0.86881
 C3012 C 0.56152 0.74624 0.85475
 C3013 C 0.58211 0.74256 0.81384
 C3014 C 0.60050 0.72902 0.82141
 C3015 C 0.62142 0.72976 0.80829
 C3016 C 0.62452 0.74435 0.78756
 C3017 C 0.60607 0.75780 0.77984
 C3018 C 0.58493 0.75671 0.79271
 C3019 C 0.64739 0.74610 0.77499
 C3020 C 0.65864 0.76771 0.77120
 C3021 C 0.68169 0.76916 0.76302
 C3022 C 0.69403 0.74906 0.75824
 C3023 C 0.68183 0.72748 0.76013
 C3024 C 0.65897 0.72603 0.76864
 H3025 H 0.53757 0.73526 0.79706
 H3026 H 0.50218 0.73492 0.82161
 H3027 H 0.54274 0.75001 0.88889
 H3028 H 0.57812 0.74884 0.86422
 H3029 H 0.59870 0.71793 0.83760
 H3030 H 0.63545 0.71941 0.81479
 H3031 H 0.60806 0.76915 0.76390
 H3032 H 0.57101 0.76740 0.78664
 H3033 H 0.65002 0.78350 0.77584
 H3034 H 0.68970 0.78610 0.76125
 H3035 H 0.69023 0.71143 0.75622
 H3036 H 0.65053 0.70913 0.77097
 C3037 C 0.56271 0.24087 0.67629
 C3038 C 0.55555 0.22092 0.66265
 C3039 C 0.53631 0.22108 0.64656
 C3040 C 0.52383 0.24141 0.64326
 C3041 C 0.53003 0.26071 0.65881
 C3042 C 0.54947 0.26062 0.67463
 C3043 C 0.58485 0.24154 0.69069
 C3044 C 0.60103 0.26005 0.68744
 C3045 C 0.62309 0.25957 0.69831
 C3046 C 0.62931 0.24078 0.71297
 C3047 C 0.61286 0.22277 0.71734
 C3048 C 0.59083 0.22305 0.70609
 C3049 C 0.65367 0.23908 0.72118
 C3050 C 0.65996 0.23915 0.74670
 C3051 C 0.68347 0.23981 0.75381
 C3052 C 0.70103 0.23975 0.73549
 C3053 C 0.69432 0.23896 0.70995
 C3054 C 0.67102 0.23868 0.70295
 H3055 H 0.56528 0.20533 0.66383
 H3056 H 0.53143 0.20508 0.63687
 H3057 H 0.52020 0.27625 0.65796
 H3058 H 0.55430 0.27610 0.68541
 H3059 H 0.59700 0.27437 0.67547
 H3060 H 0.63561 0.27358 0.69466
 H3061 H 0.61744 0.20806 0.72846
 H3062 H 0.57862 0.20862 0.70897
 H3063 H 0.64673 0.23969 0.76104
 H3064 H 0.68779 0.24127 0.77356
 H3065 H 0.70702 0.23939 0.69507
 H3066 H 0.66650 0.23862 0.68316
 C3067 C 0.05733 0.74854 0.18228
 C3068 C 0.05477 0.76916 0.16901
 C3069 C 0.03587 0.77173 0.15276
 C3070 C 0.01925 0.75342 0.14864
 C3071 C 0.02114 0.73347 0.16346
 C3072 C 0.03993 0.73097 0.17975
 C3073 C 0.07854 0.74490 0.19769
 C3074 C 0.08879 0.72323 0.19746
 C3075 C 0.10978 0.72013 0.20999
 C3076 C 0.12119 0.73862 0.22301
 C3077 C 0.11049 0.76003 0.22423
 C3078 C 0.08941 0.76314 0.21168
 C3079 C 0.14517 0.73618 0.23291
 C3080 C 0.15256 0.74639 0.25590
 C3081 C 0.17587 0.74574 0.26360
 C3082 C 0.19231 0.73507 0.24833
 C3083 C 0.18456 0.72428 0.22574
 C3084 C 0.16140 0.72471 0.21826
 H3085 H 0.06770 0.78320 0.17070
 H3086 H 0.03451 0.78818 0.14362
 H3087 H 0.00820 0.71942 0.16185
 H3088 H 0.04088 0.71514 0.19029
 H3089 H 0.08108 0.70883 0.18674
 H3090 H 0.11743 0.70334 0.20892
 H3091 H 0.11891 0.77467 0.23395
 H3092 H 0.08183 0.77996 0.21260
 H3093 H 0.14039 0.75523 0.26769
 H3094 H 0.18112 0.75434 0.28103
 H3095 H 0.19654 0.71604 0.21323
 H3096 H 0.15645 0.71697 0.20028
   
