data_POSCAR
  _audit_creation_date              2014-09-24
  _audit_creation_method            'ToBaCCo'
  _symmetry_space_group_name_H-M    'P1'
  _symmetry_Int_Tables_number       1
  _symmetry_cell_setting            triclinic
  loop_
  _symmetry_equiv_pos_as_xyz
 x,y,z
_cell_length_a 65.3472
_cell_length_b 65.3470
_cell_length_c 65.3459
_cell_angle_alpha 90.002200
_cell_angle_beta 89.997100
_cell_angle_gamma 90.003500
loop_
  _atom_site_label
  _atom_site_type_symbol
  _atom_site_fract_x
  _atom_site_fract_y
  _atom_site_fract_z
N1 N 0.34393 0.34452 0.34486
 N2 N 0.34419 0.84441 -0.15478
 N3 N 0.84422 0.34434 -0.15528
 N4 N 0.84390 0.84483 0.34505
 N5 N 0.65593 0.65508 0.34430
 N6 N 0.65523 0.15536 -0.15609
 N7 N 0.15547 0.65500 -0.15578
 N8 N 0.15530 0.15470 0.34385
 N9 N 0.65500 0.34442 0.65530
 N10 N 0.65571 0.84459 1.15527
 N11 N 0.15559 0.34484 1.15566
 N12 N 0.15551 0.84430 0.65562
 N13 N 0.34522 0.65593 0.65574
 N14 N 0.34472 0.15556 1.15562
 N15 N 0.84484 0.65594 1.15533
 N16 N 0.84507 0.15631 0.65521
 N17 N 0.34408 0.34401 0.65481
 N18 N 0.34475 0.84375 0.15524
 N19 N 0.84455 0.34411 0.15486
 N20 N 0.84467 0.84437 0.65529
 N21 N 0.65518 0.65553 0.65606
 N22 N 0.65490 0.15560 0.15569
 N23 N 0.15484 0.65562 0.15615
 N24 N 0.15520 0.15519 0.65585
 N25 N 0.34497 0.65559 0.34471
 N26 N 0.34429 0.15537 0.84475
 N27 N 0.84443 0.65514 0.84435
 N28 N 0.84443 0.15574 0.34436
 N29 N 0.65566 0.34499 0.34428
 N30 N 0.65615 0.84537 0.84442
 N31 N 0.15607 0.34493 0.84462
 N32 N 0.15580 0.84457 0.34476
 O33 O 0.25231 1.01937 0.22302
 O34 O 0.22418 0.97945 0.25115
 O35 O 0.22399 1.01935 0.25098
 O36 O 0.25253 0.97945 0.22322
 O37 O 0.27630 0.97969 0.24732
 O38 O 0.24775 1.01959 0.27507
 O39 O 0.24794 0.97968 0.27525
 O40 O 0.27607 1.01962 0.24711
 Cu41 Cu 0.23586 0.99938 0.23466
 Cu42 Cu 0.26442 0.99967 0.26361
 C43 C 0.26889 1.02630 0.23036
 C44 C 0.23135 0.97277 0.26791
 C45 C 0.23110 1.02626 0.26767
 C46 C 0.26919 0.97277 0.23063
 O47 O 0.24863 0.51994 0.77558
 O48 O 0.27665 0.48003 0.74732
 O49 O 0.27670 0.51996 0.74735
 O50 O 0.24854 0.48004 0.77549
 O51 O 0.22457 0.48012 0.75161
 O52 O 0.25272 0.52002 0.72347
 O53 O 0.25268 0.48010 0.72343
 O54 O 0.22465 0.52002 0.75170
 Cu55 Cu 0.26505 0.49999 0.76384
 Cu56 Cu 0.23624 0.50007 0.73514
 C57 C 0.23195 0.52677 0.76837
 C58 C 0.26935 0.47326 0.73066
 C59 C 0.26941 0.52680 0.73071
 C60 C 0.23184 0.47328 0.76826
 O61 O 0.75129 -0.01964 0.27652
 O62 O 0.72341 0.02025 0.24807
 O63 O 0.72329 -0.01967 0.24824
 O64 O 0.75139 0.02028 0.27638
 O65 O 0.77546 0.02012 0.25257
 O66 O 0.74735 -0.01983 0.22444
 O67 O 0.74747 0.02009 0.22427
 O68 O 0.77535 -0.01980 0.25272
 Cu69 Cu 0.73492 0.00032 0.26471
 Cu70 Cu 0.76383 0.00013 0.23610
 C71 C 0.76798 -0.02651 0.26938
 C72 C 0.73078 0.02696 0.23141
 C73 C 0.73062 -0.02655 0.23164
 C74 C 0.76812 0.02701 0.26918
 O75 O 0.72288 0.51969 0.74873
 O76 O 0.75103 0.47973 0.77680
 O77 O 0.75106 0.51964 0.77683
 O78 O 0.72284 0.47977 0.74870
 O79 O 0.74673 0.47976 0.72473
 O80 O 0.77496 0.51964 0.75286
 O81 O 0.77492 0.47972 0.75284
 O82 O 0.74678 0.51969 0.72476
 Cu83 Cu 0.73454 0.49971 0.76518
 Cu84 Cu 0.76326 0.49970 0.73638
 C85 C 0.73013 0.52650 0.73206
 C86 C 0.76768 0.47292 0.76952
 C87 C 0.76773 0.52643 0.76955
 C88 C 0.73006 0.47298 0.73201
 O89 O 0.22353 0.52036 0.24853
 O90 O 0.25137 0.48041 0.27693
 O91 O 0.25152 0.52033 0.27683
 O92 O 0.22337 0.48045 0.24865
 O93 O 0.24742 0.48028 0.22484
 O94 O 0.27557 0.52018 0.25302
 O95 O 0.27543 0.48026 0.25312
 O96 O 0.24759 0.52020 0.22472
 Cu97 Cu 0.23502 0.50041 0.26514
 Cu98 Cu 0.26393 0.50021 0.23652
 C99 C 0.23090 0.52708 0.23187
 C100 C 0.26805 0.47353 0.26977
 C101 C 0.26825 0.52705 0.26964
 C102 C 0.23069 0.47357 0.23204
 O103 O 0.74899 1.02054 0.77562
 O104 O 0.77718 0.98062 0.74754
 O105 O 0.77700 1.02055 0.74734
 O106 O 0.74915 0.98064 0.77579
 O107 O 0.72512 0.98042 0.75196
 O108 O 0.75296 1.02033 0.72351
 O109 O 0.75315 0.98040 0.72371
 O110 O 0.72495 1.02033 0.75179
 Cu111 Cu 0.76551 1.00061 0.76397
 Cu112 Cu 0.73663 1.00035 0.73534
 C113 C 0.73225 1.02723 0.76841
 C114 C 0.76988 0.97370 0.73094
 C115 C 0.76963 1.02724 0.73067
 C116 C 0.73247 0.97374 0.76863
 O117 O 0.75241 0.51996 0.22325
 O118 O 0.72456 0.48003 0.25168
 O119 O 0.72460 0.51994 0.25172
 O120 O 0.75239 0.48003 0.22322
 O121 O 0.77659 0.47999 0.24688
 O122 O 0.74880 0.51990 0.27538
 O123 O 0.74877 0.47999 0.27534
 O124 O 0.77662 0.51992 0.24691
 Cu125 Cu 0.73605 0.49999 0.23508
 Cu126 Cu 0.76514 0.49995 0.26351
 C127 C 0.76917 0.52674 0.23033
 C128 C 0.73200 0.47322 0.26827
 C129 C 0.73205 0.52671 0.26832
 C130 C 0.76913 0.47320 0.23029
 O131 O 0.22296 0.01973 0.74905
 O132 O 0.25104 -0.02017 0.77726
 O133 O 0.25104 0.01974 0.77724
 O134 O 0.22295 -0.02019 0.74906
 O135 O 0.24693 -0.02020 0.72518
 O136 O 0.27502 0.01974 0.75336
 O137 O 0.27502 -0.02018 0.75337
 O138 O 0.24693 0.01972 0.72516
 Cu139 Cu 0.23458 -0.00022 0.76556
 Cu140 Cu 0.26339 -0.00023 0.73686
 C141 C 0.23025 0.02652 0.73239
 C142 C 0.26773 -0.02697 0.77003
 C143 C 0.26773 0.02654 0.77001
 C144 C 0.23024 -0.02699 0.73241
 O145 O 0.25292 0.22487 0.98030
 O146 O 0.22480 0.25305 1.02021
 O147 O 0.22482 0.25304 0.98028
 O148 O 0.25291 0.22487 1.02022
 O149 O 0.27687 0.24878 1.02022
 O150 O 0.24878 0.27694 0.98029
 O151 O 0.24876 0.27695 1.02021
 O152 O 0.27688 0.24877 0.98030
 Cu153 Cu 0.23644 0.23655 1.00025
 Cu154 Cu 0.26524 0.26527 1.00026
 C155 C 0.26961 0.23211 0.97350
 C156 C 0.23208 0.26971 1.02700
 C157 C 0.23210 0.26970 0.97349
 C158 C 0.26959 0.23211 1.02702
 O159 O 0.24904 0.77688 0.48023
 O160 O 0.27723 0.74881 0.52016
 O161 O 0.27725 0.74881 0.48025
 O162 O 0.24902 0.77689 0.52015
 O163 O 0.22515 0.75290 0.52015
 O164 O 0.25338 0.72482 0.48024
 O165 O 0.25336 0.72482 0.52016
 O166 O 0.22516 0.75289 0.48023
 Cu167 Cu 0.26554 0.76527 0.50020
 Cu168 Cu 0.23685 0.73644 0.50019
 C169 C 0.23238 0.76958 0.47343
 C170 C 0.27001 0.73213 0.52696
 C171 C 0.27003 0.73212 0.47345
 C172 C 0.23237 0.76959 0.52695
 O173 O 0.27528 0.75136 -0.01966
 O174 O 0.24674 0.72360 0.02024
 O175 O 0.24689 0.72346 -0.01969
 O176 O 0.27511 0.75151 0.02025
 O177 O 0.25138 0.77564 0.02007
 O178 O 0.22317 0.74760 -0.01987
 O179 O 0.22301 0.74773 0.02006
 O180 O 0.25155 0.77549 -0.01984
 Cu181 Cu 0.26340 0.73505 0.00030
 Cu182 Cu 0.23488 0.76404 0.00009
 C183 C 0.26820 0.76808 -0.02654
 C184 C 0.23010 0.73103 0.02695
 C185 C 0.23032 0.73084 -0.02659
 C186 C 0.26797 0.76827 0.02695
 O187 O 0.27565 0.25102 0.47987
 O188 O 0.24758 0.22283 0.51979
 O189 O 0.24770 0.22269 0.47986
 O190 O 0.27549 0.25120 0.51977
 O191 O 0.25138 0.27495 0.51960
 O192 O 0.22359 0.24645 0.47969
 O193 O 0.22347 0.24658 0.51962
 O194 O 0.25155 0.27478 0.47969
 Cu195 Cu 0.26403 0.23453 0.49984
 Cu196 Cu 0.23506 0.26308 0.49963
 C197 C 0.26831 0.26762 0.47299
 C198 C 0.23084 0.22999 0.52651
 C199 C 0.23100 0.22981 0.47297
 C200 C 0.26808 0.26785 0.52648
 O201 O 0.72480 0.75280 1.01978
 O202 O 0.75289 0.72459 0.97987
 O203 O 0.75301 0.72473 1.01979
 O204 O 0.72464 0.75263 0.97987
 O205 O 0.74850 0.77664 0.97969
 O206 O 0.77687 0.74873 1.01961
 O207 O 0.77674 0.74860 0.97969
 O208 O 0.74866 0.77680 1.01960
 Cu209 Cu 0.73643 0.73626 0.99984
 Cu210 Cu 0.76510 0.76511 0.99963
 C211 C 0.73203 0.76952 1.02649
 C212 C 0.76951 0.73188 0.97298
 C213 C 0.76969 0.73207 1.02650
 C214 C 0.73182 0.76930 0.97298
 O215 O 0.75259 0.22469 0.47994
 O216 O 0.72441 0.25280 0.51986
 O217 O 0.72425 0.25264 0.47995
 O218 O 0.75273 0.22483 0.51986
 O219 O 0.77650 0.24892 0.51968
 O220 O 0.74802 0.27673 0.47977
 O221 O 0.74818 0.27689 0.51968
 O222 O 0.77636 0.24879 0.47977
 Cu223 Cu 0.73610 0.23631 0.49992
 Cu224 Cu 0.76467 0.26526 0.49971
 C225 C 0.76919 0.23204 0.47306
 C226 C 0.73159 0.26954 0.52657
 C227 C 0.73138 0.26933 0.47306
 C228 C 0.76938 0.23223 0.52657
 O229 O 0.77540 0.25131 -0.02014
 O230 O 0.74690 0.22353 0.01978
 O231 O 0.74690 0.22353 -0.02014
 O232 O 0.77541 0.25130 0.01977
 O233 O 0.75179 0.27554 0.01978
 O234 O 0.72328 0.24777 -0.02014
 O235 O 0.72328 0.24777 0.01979
 O236 O 0.75178 0.27555 -0.02013
 Cu237 Cu 0.76353 0.23497 -0.00018
 Cu238 Cu 0.73514 0.26410 -0.00017
 C239 C 0.76836 0.26808 -0.02693
 C240 C 0.73033 0.23100 0.02659
 C241 C 0.73032 0.23101 -0.02694
 C242 C 0.76837 0.26807 0.02657
 O243 O 0.77559 0.75184 0.48031
 O244 O 0.74755 0.72361 0.52022
 O245 O 0.74750 0.72365 0.48029
 O246 O 0.77557 0.75188 0.52022
 O247 O 0.75156 0.77573 0.52021
 O248 O 0.72350 0.74751 0.48031
 O249 O 0.72354 0.74746 0.52024
 O250 O 0.75159 0.77570 0.48030
 Cu251 Cu 0.76397 0.73534 0.50026
 Cu252 Cu 0.73512 0.76400 0.50027
 C253 C 0.76829 0.76849 0.47351
 C254 C 0.73086 0.73081 0.52703
 C255 C 0.73081 0.73087 0.47349
 C256 C 0.76826 0.76853 0.52701
 O257 O 1.02001 0.27584 0.24749
 O258 O 0.98006 0.24769 0.27559
 O259 O 1.01997 0.24771 0.27565
 O260 O 0.98009 0.27588 0.24750
 O261 O 0.98009 0.25196 0.22355
 O262 O 1.01999 0.22379 0.25171
 O263 O 0.98008 0.22377 0.25164
 O264 O 1.02001 0.25192 0.22355
 Cu265 Cu 1.00003 0.26419 0.26398
 Cu266 Cu 1.00005 0.23545 0.23520
 C267 C 1.02681 0.26859 0.23082
 C268 C 0.97326 0.23102 0.26831
 C269 C 1.02677 0.23104 0.26839
 C270 C 0.97330 0.26863 0.23082
 O271 O 0.47954 0.25107 0.72289
 O272 O 0.51949 0.22297 0.75101
 O273 O 0.47958 0.22295 0.75105
 O274 O 0.51946 0.25110 0.72286
 O275 O 0.51946 0.27505 0.74678
 O276 O 0.47958 0.24690 0.77497
 O277 O 0.51950 0.24692 0.77493
 O278 O 0.47954 0.27502 0.74680
 Cu279 Cu 0.49952 0.23461 0.73454
 Cu280 Cu 0.49952 0.26339 0.76328
 C281 C 0.47274 0.26774 0.73014
 C282 C 0.52631 0.23024 0.76767
 C283 C 0.47279 0.23022 0.76773
 C284 C 0.52625 0.26778 0.73010
 O285 O -0.01964 0.27672 0.75248
 O286 O 0.02026 0.24856 0.72435
 O287 O -0.01965 0.24857 0.72434
 O288 O 0.02029 0.27664 0.75257
 O289 O 0.02021 0.25268 0.77647
 O290 O -0.01970 0.22462 0.74825
 O291 O 0.02021 0.22460 0.74826
 O292 O -0.01971 0.25276 0.77639
 Cu293 Cu 0.00032 0.26504 0.73603
 Cu294 Cu 0.00025 0.23625 0.76475
 C295 C -0.02648 0.26945 0.76913
 C296 C 0.02703 0.23186 0.73159
 C297 C -0.02647 0.23190 0.73158
 C298 C 0.02705 0.26934 0.76924
 O299 O 0.51976 0.25293 0.27644
 O300 O 0.47985 0.22440 0.24868
 O301 O 0.51975 0.22445 0.24864
 O302 O 0.47983 0.25288 0.27649
 O303 O 0.47977 0.27652 0.25228
 O304 O 0.51970 0.24810 0.22443
 O305 O 0.47979 0.24804 0.22447
 O306 O 0.51970 0.27658 0.25223
 Cu307 Cu 0.49980 0.23628 0.26501
 Cu308 Cu 0.49973 0.26470 0.23591
 C309 C 0.52653 0.26952 0.26897
 C310 C 0.47303 0.23145 0.23193
 C311 C 0.52652 0.23152 0.23187
 C312 C 0.47300 0.26945 0.26904
 O313 O 0.98001 0.75105 0.72311
 O314 O 1.01991 0.72284 0.75120
 O315 O 0.97999 0.72285 0.75119
 O316 O 1.01992 0.75101 0.72309
 O317 O 1.01994 0.77491 0.74706
 O318 O 0.98000 0.74674 0.77516
 O319 O 1.01992 0.74674 0.77517
 O320 O 0.98002 0.77494 0.74707
 Cu321 Cu 0.99996 0.73453 0.73473
 Cu322 Cu 0.99997 0.76324 0.76354
 C323 C 0.97322 0.76771 0.73039
 C324 C 1.02671 0.73008 0.76789
 C325 C 0.97320 0.73008 0.76788
 C326 C 1.02673 0.76767 0.73038
 O327 O 0.48053 0.74697 0.27523
 O328 O 0.52041 0.77511 0.24703
 O329 O 0.48048 0.77507 0.24705
 O330 O 0.52045 0.74699 0.27520
 O331 O 0.52045 0.72303 0.25130
 O332 O 0.48050 0.75110 0.22315
 O333 O 0.52041 0.75115 0.22313
 O334 O 0.48053 0.72301 0.25133
 Cu335 Cu 0.50047 0.76345 0.26354
 Cu336 Cu 0.50047 0.73466 0.23482
 C337 C 0.47374 0.73028 0.26800
 C338 C 0.52720 0.76784 0.23036
 C339 C 0.47368 0.76777 0.23039
 C340 C 0.52725 0.73032 0.26796
 O341 O -0.02015 0.77639 0.25302
 O342 O 0.01976 0.74795 0.22519
 O343 O -0.02015 0.74811 0.22502
 O344 O 0.01978 0.77619 0.25323
 O345 O 0.01954 0.75236 0.27726
 O346 O -0.02037 0.72428 0.24905
 O347 O 0.01954 0.72412 0.24922
 O348 O -0.02039 0.75257 0.27705
 Cu349 Cu -0.00017 0.76457 0.23669
 Cu350 Cu -0.00044 0.73593 0.26557
 C351 C -0.02707 0.76924 0.26969
 C352 C 0.02644 0.73128 0.23254
 C353 C -0.02705 0.73149 0.23231
 C354 C 0.02646 0.76896 0.26996
 O355 O 0.48038 0.72490 0.74863
 O356 O 0.52028 0.75343 0.77641
 O357 O 0.48035 0.75323 0.77658
 O358 O 0.52029 0.72510 0.74845
 O359 O 0.52006 0.74887 0.72436
 O360 O 0.48014 0.77700 0.75249
 O361 O 0.52006 0.77720 0.75232
 O362 O 0.48016 0.74867 0.72454
 Cu363 Cu 0.50035 0.73677 0.76495
 Cu364 Cu 0.50008 0.76534 0.73600
 C365 C 0.47348 0.73201 0.73194
 C366 C 0.52698 0.77008 0.76901
 C367 C 0.47344 0.76982 0.76924
 C368 C 0.52697 0.73228 0.73169
 C369 C 0.37975 0.32507 0.30434
 C370 C 0.39589 0.31757 0.31626
 C371 C 0.39507 0.31928 0.33760
 C372 C 0.37810 0.32832 0.34700
 C373 C 0.36175 0.33575 0.33514
 C374 C 0.36278 0.33410 0.31371
 C375 C 0.41302 0.30769 0.30656
 C376 C 0.42714 0.29922 0.29825
 C377 C 0.44340 0.28908 0.28829
 C378 C 0.45705 0.28022 0.27960
 H379 H 0.38019 0.32375 0.28782
 H380 H 0.40747 0.31351 0.34697
 H381 H 0.37767 0.32952 0.36352
 H382 H 0.35029 0.33951 0.30427
 C383 C 0.38003 0.82495 0.80473
 C384 C 0.39621 0.81754 0.81666
 C385 C 0.39540 0.81930 0.83799
 C386 C 0.37840 0.82831 0.84738
 C387 C 0.36202 0.83565 0.83552
 C388 C 0.36304 0.83394 0.81409
 C389 C 0.41338 0.80772 0.80696
 C390 C 0.42752 0.79931 0.79863
 C391 C 0.44381 0.78925 0.78864
 C392 C 0.45748 0.78048 0.77989
 H393 H 0.38046 0.82359 0.78821
 H394 H 0.40782 0.81360 0.84737
 H395 H 0.37798 0.82956 0.86390
 H396 H 0.35052 0.83929 0.80465
 C397 C -0.11986 0.32477 0.80435
 C398 C -0.10371 0.31739 0.81632
 C399 C -0.10455 0.31922 0.83765
 C400 C -0.12156 0.32827 0.84698
 C401 C -0.13792 0.33558 0.83507
 C402 C -0.13686 0.33381 0.81365
 C403 C -0.08654 0.30752 0.80669
 C404 C -0.07239 0.29906 0.79841
 C405 C -0.05610 0.28894 0.78847
 C406 C -0.04244 0.28013 0.77976
 H407 H -0.11940 0.32336 0.78783
 H408 H -0.09215 0.31354 0.84707
 H409 H -0.12201 0.32956 0.86349
 H410 H -0.14936 0.33913 0.80417
 C411 C -0.12028 0.82508 0.30468
 C412 C -0.10415 0.81764 0.31666
 C413 C -0.10499 0.81950 0.33799
 C414 C -0.12195 0.82863 0.34731
 C415 C -0.13828 0.83599 0.33540
 C416 C -0.13724 0.83420 0.31398
 C417 C -0.08703 0.80768 0.30704
 C418 C -0.07291 0.79915 0.29878
 C419 C -0.05666 0.78894 0.28888
 C420 C -0.04301 0.78004 0.28023
 H421 H -0.11983 0.82365 0.28817
 H422 H -0.09260 0.81377 0.34741
 H423 H -0.12239 0.82993 0.36382
 H424 H -0.14972 0.83956 0.30450
 C425 C 0.60485 0.68041 0.33690
 C426 C 0.60420 0.68233 0.31557
 C427 C 0.62045 0.67497 0.30370
 C428 C 0.63734 0.66585 0.31311
 C429 C 0.63820 0.66398 0.33453
 C430 C 0.62175 0.67127 0.34633
 C431 C 0.58712 0.69224 0.30582
 C432 C 0.57303 0.70072 0.29745
 C433 C 0.55681 0.71084 0.28742
 C434 C 0.54318 0.71964 0.27865
 H435 H 0.59237 0.68607 0.34623
 H436 H 0.62014 0.67645 0.28719
 H437 H 0.64991 0.66054 0.30372
 H438 H 0.62205 0.66990 0.36284
 C439 C 0.60404 0.18045 0.83652
 C440 C 0.60338 0.18238 0.81520
 C441 C 0.61965 0.17510 0.80333
 C442 C 0.63659 0.16605 0.81273
 C443 C 0.63746 0.16417 0.83415
 C444 C 0.62098 0.17139 0.84595
 C445 C 0.58626 0.19225 0.80546
 C446 C 0.57215 0.20069 0.79711
 C447 C 0.55589 0.21078 0.78709
 C448 C 0.54225 0.21957 0.77833
 H449 H 0.59153 0.18605 0.84586
 H450 H 0.61933 0.17659 0.78682
 H451 H 0.64918 0.16080 0.80333
 H452 H 0.62129 0.17001 0.86246
 C453 C 1.11995 0.67480 0.80361
 C454 C 1.10369 0.68212 0.81547
 C455 C 1.10433 0.68020 0.83680
 C456 C 1.12125 0.67111 0.84625
 C457 C 1.13772 0.66386 0.83445
 C458 C 1.13687 0.66572 0.81303
 C459 C 1.08659 0.69199 0.80572
 C460 C 1.07249 0.70045 0.79735
 C461 C 1.05626 0.71056 0.78731
 C462 C 1.04263 0.71937 0.77855
 H463 H 1.11965 0.67628 0.78710
 H464 H 1.09184 0.68583 0.84612
 H465 H 1.12155 0.66974 0.86276
 H466 H 1.14946 0.66044 0.80364
 C467 C 1.10431 0.16211 0.31837
 C468 C 1.10359 0.18345 0.31660
 C469 C 1.11975 0.19532 0.32414
 C470 C 1.13664 0.18590 0.33327
 C471 C 1.13757 0.16447 0.33498
 C472 C 1.12120 0.15267 0.32751
 C473 C 1.08654 0.19320 0.30664
 C474 C 1.07248 0.20156 0.29812
 C475 C 1.05628 0.21159 0.28795
 C476 C 1.04268 0.22036 0.27910
 H477 H 1.09190 0.15278 0.31256
 H478 H 1.11939 0.21184 0.32278
 H479 H 1.14915 0.19530 0.33872
 H480 H 1.12155 0.13615 0.32875
 C481 C 0.60387 0.33687 0.68048
 C482 C 0.60319 0.31552 0.68223
 C483 C 0.61943 0.30370 0.67479
 C484 C 0.63635 0.31317 0.66578
 C485 C 0.63724 0.33460 0.66408
 C486 C 0.62079 0.34636 0.67144
 C487 C 0.58610 0.30572 0.69207
 C488 C 0.57201 0.29732 0.70051
 C489 C 0.55579 0.28725 0.71060
 C490 C 0.54217 0.27846 0.71940
 H491 H 0.59139 0.34616 0.68620
 H492 H 0.61911 0.28718 0.67615
 H493 H 0.64892 0.30381 0.66041
 H494 H 0.62111 0.36288 0.67021
 C495 C 0.62028 0.80384 0.17492
 C496 C 0.60403 0.81564 0.18237
 C497 C 0.60466 0.83698 0.18058
 C498 C 0.62155 0.84649 0.17149
 C499 C 0.63800 0.83475 0.16411
 C500 C 0.63716 0.81332 0.16585
 C501 C 0.58697 0.80582 0.19225
 C502 C 0.57291 0.79740 0.20072
 C503 C 0.55671 0.78732 0.21083
 C504 C 0.54310 0.77852 0.21965
 H505 H 0.61998 0.78732 0.17630
 H506 H 0.59218 0.84626 0.18631
 H507 H 0.62183 0.86301 0.17023
 H508 H 0.64973 0.80397 0.16047
 C509 C 1.10449 0.33746 0.18094
 C510 C 1.10378 0.31612 0.18278
 C511 C 1.11999 0.30425 0.17536
 C512 C 1.13691 0.31365 0.16627
 C513 C 1.13782 0.33508 0.16449
 C514 C 1.12141 0.34689 0.17184
 C515 C 1.08669 0.30639 0.19270
 C516 C 1.07260 0.29804 0.20118
 C517 C 1.05637 0.28802 0.21132
 C518 C 1.04274 0.27926 0.22014
 H519 H 1.09204 0.34680 0.18665
 H520 H 1.11964 0.28773 0.17678
 H521 H 1.14946 0.30425 0.16092
 H522 H 1.12175 0.36340 0.17053
 C523 C 1.10436 0.83674 0.68075
 C524 C 1.10370 0.81540 0.68253
 C525 C 1.11995 0.80358 0.67511
 C526 C 1.13687 0.81305 0.66609
 C527 C 1.13775 0.83448 0.66438
 C528 C 1.12129 0.84624 0.67172
 C529 C 1.08661 0.80560 0.69238
 C530 C 1.07252 0.79720 0.70082
 C531 C 1.05629 0.78714 0.71091
 C532 C 1.04266 0.77836 0.71970
 H533 H 1.09188 0.84604 0.68646
 H534 H 1.11963 0.78706 0.67648
 H535 H 1.14945 0.80369 0.66075
 H536 H 1.12160 0.86275 0.67047
 C537 C 0.38063 0.67580 0.69640
 C538 C 0.39681 0.68334 0.68456
 C539 C 0.39615 0.68152 0.66322
 C540 C 0.37930 0.67232 0.65376
 C541 C 0.36292 0.66486 0.66554
 C542 C 0.36379 0.66662 0.68697
 C543 C 0.41382 0.69336 0.69432
 C544 C 0.42785 0.70195 0.70268
 C545 C 0.44401 0.71221 0.71267
 C546 C 0.45759 0.72116 0.72137
 H547 H 0.38095 0.67721 0.71292
 H548 H 0.40858 0.68732 0.65391
 H549 H 0.37899 0.67104 0.63724
 H550 H 0.35126 0.66117 0.69634
 C551 C 0.38016 0.17529 0.19633
 C552 C 0.39633 0.18286 0.18451
 C553 C 0.39567 0.18109 0.16316
 C554 C 0.37881 0.17193 0.15368
 C555 C 0.36242 0.16444 0.16544
 C556 C 0.36330 0.16614 0.18688
 C557 C 0.41335 0.19285 0.19429
 C558 C 0.42738 0.20141 0.20266
 C559 C 0.44355 0.21166 0.21266
 C560 C 0.45714 0.22059 0.22137
 H561 H 0.38048 0.17665 0.21286
 H562 H 0.40809 0.18691 0.15386
 H563 H 0.37850 0.17069 0.13716
 H564 H 0.35078 0.16068 0.19624
 C565 C -0.11989 0.67574 0.19615
 C566 C -0.10367 0.68330 0.18437
 C567 C -0.10426 0.68152 0.16303
 C568 C -0.12108 0.67235 0.15349
 C569 C -0.13751 0.66486 0.16520
 C570 C -0.13670 0.66658 0.18664
 C571 C -0.08668 0.69327 0.19422
 C572 C -0.07266 0.70179 0.20266
 C573 C -0.05651 0.71196 0.21276
 C574 C -0.04293 0.72080 0.22158
 H575 H -0.11962 0.67711 0.21267
 H576 H -0.09180 0.68734 0.15376
 H577 H -0.12134 0.67109 0.13697
 H578 H -0.14926 0.66112 0.19596
 C579 C -0.11943 0.17618 0.69581
 C580 C -0.10328 0.18371 0.68394
 C581 C -0.10398 0.18190 0.66260
 C582 C -0.12085 0.17271 0.65316
 C583 C -0.13721 0.16525 0.66498
 C584 C -0.13630 0.16701 0.68640
 C585 C -0.08623 0.19369 0.69368
 C586 C -0.07217 0.20222 0.70205
 C587 C -0.05598 0.21238 0.71208
 C588 C -0.04237 0.22122 0.72087
 H589 H -0.11908 0.17758 0.71233
 H590 H -0.09156 0.18769 0.65326
 H591 H -0.12119 0.17142 0.63665
 H592 H -0.14881 0.16157 0.69581
 C593 C 0.30340 0.38018 0.32515
 C594 C 0.31530 0.39643 0.31787
 C595 C 0.33662 0.39574 0.31980
 C596 C 0.34603 0.37878 0.32885
 C597 C 0.33420 0.36232 0.33606
 C598 C 0.31278 0.36322 0.33419
 C599 C 0.30559 0.41356 0.30799
 C600 C 0.29727 0.42768 0.29953
 C601 C 0.28731 0.44394 0.28939
 C602 C 0.27862 0.45759 0.28054
 H603 H 0.28689 0.38052 0.32366
 H604 H 0.34598 0.40823 0.31419
 H605 H 0.36254 0.37845 0.33023
 H606 H 0.30336 0.35064 0.33944
 C607 C 0.33669 -0.10448 0.82000
 C608 C 0.31536 -0.10387 0.81808
 C609 C 0.30353 -0.12014 0.82542
 C610 C 0.31297 -0.13704 0.83450
 C611 C 0.33439 -0.13786 0.83637
 C612 C 0.34616 -0.12138 0.82910
 C613 C 0.30559 -0.08679 0.80818
 C614 C 0.29720 -0.07272 0.79970
 C615 C 0.28716 -0.05650 0.78957
 C616 C 0.27839 -0.04289 0.78075
 H617 H 0.34600 -0.09198 0.81435
 H618 H 0.28701 -0.11986 0.82394
 H619 H 0.30359 -0.14964 0.83979
 H620 H 0.36267 -0.12166 0.83047
 C621 C 0.80356 0.37974 0.82483
 C622 C 0.81539 0.39601 0.81747
 C623 C 0.83672 0.39540 0.81939
 C624 C 0.84619 0.37852 0.82852
 C625 C 0.83442 0.36204 0.83582
 C626 C 0.81300 0.36286 0.83394
 C627 C 0.80561 0.41308 0.80757
 C628 C 0.79721 0.42715 0.79910
 C629 C 0.78715 0.44337 0.78899
 C630 C 0.77837 0.45699 0.78019
 H631 H 0.78704 0.38001 0.82335
 H632 H 0.84602 0.40790 0.81374
 H633 H 0.86270 0.37825 0.82989
 H634 H 0.80363 0.35027 0.83925
 C635 C 0.83660 -0.10411 0.31967
 C636 C 0.81527 -0.10342 0.31774
 C637 C 0.80337 -0.11963 0.32512
 C638 C 0.81275 -0.13653 0.33425
 C639 C 0.83417 -0.13743 0.33613
 C640 C 0.84600 -0.12101 0.32882
 C641 C 0.80557 -0.08633 0.30778
 C642 C 0.79724 -0.07225 0.29926
 C643 C 0.78726 -0.05604 0.28907
 C644 C 0.77856 -0.04242 0.28018
 H645 H 0.84595 -0.09165 0.31399
 H646 H 0.78686 -0.11929 0.32363
 H647 H 0.80333 -0.14908 0.33958
 H648 H 0.86251 -0.12134 0.33019
 C649 C 0.33807 0.60478 0.68098
 C650 C 0.31674 0.60395 0.68277
 C651 C 0.30479 0.62010 0.67533
 C652 C 0.31411 0.63707 0.66627
 C653 C 0.33554 0.63811 0.66454
 C654 C 0.34743 0.62176 0.67191
 C655 C 0.30707 0.58680 0.69265
 C656 C 0.29877 0.57267 0.70111
 C657 C 0.28879 0.55640 0.71122
 C658 C 0.28006 0.54274 0.72003
 H659 H 0.34747 0.59238 0.68671
 H660 H 0.28827 0.61965 0.67671
 H661 H 0.30465 0.64956 0.66090
 H662 H 0.36394 0.62220 0.67065
 C663 C 0.30427 1.11969 0.17513
 C664 C 0.31621 1.10352 0.18253
 C665 C 0.33755 1.10434 0.18073
 C666 C 0.34691 1.12134 0.17170
 C667 C 0.33503 1.13771 0.16438
 C668 C 0.31361 1.13668 0.16611
 C669 C 0.30654 1.08635 0.19237
 C670 C 0.29823 1.07221 0.20081
 C671 C 0.28826 1.05592 0.21089
 C672 C 0.27953 1.04226 0.21969
 H673 H 0.28775 1.11925 0.17651
 H674 H 0.34694 1.09192 0.18643
 H675 H 0.36343 1.12177 0.17044
 H676 H 0.30415 1.14920 0.16078
 C677 C 0.83764 0.60475 0.18049
 C678 C 0.81630 0.60391 0.18222
 C679 C 0.80437 0.62005 0.17476
 C680 C 0.81371 0.63704 0.16574
 C681 C 0.83514 0.63809 0.16408
 C682 C 0.84702 0.62174 0.17146
 C683 C 0.80663 0.58676 0.19209
 C684 C 0.79833 0.57262 0.20056
 C685 C 0.78840 0.55635 0.21070
 C686 C 0.77972 0.54269 0.21956
 H687 H 0.84703 0.59235 0.18623
 H688 H 0.78785 0.61960 0.17610
 H689 H 0.80426 0.64953 0.16036
 H690 H 0.86353 0.62219 0.17025
 C691 C 0.80469 1.12048 0.67491
 C692 C 0.81665 1.10435 0.68235
 C693 C 0.83798 1.10518 0.68050
 C694 C 0.84732 1.12215 0.67140
 C695 C 0.83541 1.13849 0.66404
 C696 C 0.81399 1.13745 0.66582
 C697 C 0.80702 1.08721 0.69228
 C698 C 0.79875 1.07309 0.70080
 C699 C 0.78884 1.05683 0.71099
 C700 C 0.78018 1.04318 0.71987
 H701 H 0.78817 1.12004 0.67634
 H702 H 0.84739 1.09278 0.68622
 H703 H 0.86383 1.12259 0.67010
 H704 H 0.80452 1.14994 0.66047
 C705 C 0.66336 0.60413 0.31872
 C706 C 0.68470 0.60344 0.31692
 C707 C 0.69656 0.61960 0.32447
 C708 C 0.68714 0.63647 0.33364
 C709 C 0.66571 0.63737 0.33538
 C710 C 0.65391 0.62099 0.32791
 C711 C 0.69445 0.58642 0.30691
 C712 C 0.70280 0.57238 0.29834
 C713 C 0.71279 0.55620 0.28809
 C714 C 0.72149 0.54261 0.27916
 H715 H 0.65404 0.59172 0.31291
 H716 H 0.71308 0.61927 0.32308
 H717 H 0.69653 0.64898 0.33909
 H718 H 0.63740 0.62133 0.32917
 C719 C 0.69606 1.12010 0.82410
 C720 C 0.68430 1.10387 0.81655
 C721 C 0.66295 1.10446 0.81833
 C722 C 0.65341 1.12127 0.82750
 C723 C 0.66511 1.13771 0.83498
 C724 C 0.68655 1.13692 0.83326
 C725 C 0.69415 1.08687 0.80660
 C726 C 0.70260 1.07286 0.79809
 C727 C 0.71271 1.05670 0.78794
 C728 C 0.72153 1.04312 0.77910
 H729 H 0.71259 1.11984 0.82274
 H730 H 0.65370 1.09199 0.81253
 H731 H 0.63689 1.12152 0.82876
 H732 H 0.69587 1.14948 0.83871
 C733 C 0.16301 0.60407 0.81865
 C734 C 0.18435 0.60343 0.81683
 C735 C 0.19618 0.61962 0.82438
 C736 C 0.18672 0.63645 0.83357
 C737 C 0.16529 0.63731 0.83531
 C738 C 0.15353 0.62091 0.82784
 C739 C 0.19413 0.58643 0.80682
 C740 C 0.20251 0.57241 0.79826
 C741 C 0.21255 0.55624 0.78803
 C742 C 0.22130 0.54266 0.77914
 H743 H 0.15371 0.59164 0.81284
 H744 H 0.21269 0.61931 0.82299
 H745 H 0.19608 0.64899 0.83901
 H746 H 0.13701 0.62121 0.82912
 C747 C 0.17519 1.11928 0.30319
 C748 C 0.18258 1.10304 0.31503
 C749 C 0.18067 1.10366 0.33636
 C750 C 0.17152 1.12053 0.34583
 C751 C 0.16419 1.13698 0.33405
 C752 C 0.16605 1.13615 0.31263
 C753 C 0.19255 1.08599 0.30527
 C754 C 0.20110 1.07195 0.29691
 C755 C 0.21133 1.05576 0.28692
 C756 C 0.22025 1.04216 0.27822
 H757 H 0.17666 1.11899 0.28668
 H758 H 0.18636 1.09118 0.34567
 H759 H 0.17016 1.12081 0.36234
 H760 H 0.16071 1.14873 0.30325
 C761 C 0.68025 0.39551 0.66291
 C762 C 0.68203 0.39615 0.68425
 C763 C 0.67457 0.37990 0.69606
 C764 C 0.66551 0.36301 0.68658
 C765 C 0.66380 0.36216 0.66514
 C766 C 0.67118 0.37861 0.65340
 C767 C 0.69191 0.41321 0.69407
 C768 C 0.70038 0.42727 0.70248
 C769 C 0.71051 0.44347 0.71255
 C770 C 0.71934 0.45708 0.72133
 H771 H 0.68598 0.40799 0.65363
 H772 H 0.67594 0.38020 0.71258
 H773 H 0.66014 0.35043 0.69593
 H774 H 0.66992 0.37832 0.63688
 C775 C 0.68089 -0.10426 0.16271
 C776 C 0.68272 -0.10357 0.18405
 C777 C 0.67533 -0.11981 0.19590
 C778 C 0.66628 -0.13674 0.18648
 C779 C 0.66451 -0.13764 0.16505
 C780 C 0.67183 -0.12119 0.15326
 C781 C 0.69258 -0.08647 0.19380
 C782 C 0.70104 -0.07237 0.20217
 C783 C 0.71114 -0.05613 0.21220
 C784 C 0.71994 -0.04249 0.22097
 H785 H 0.68657 -0.09179 0.15338
 H786 H 0.67674 -0.11947 0.21242
 H787 H 0.66095 -0.14931 0.19587
 H788 H 0.67053 -0.12152 0.13674
 C789 C 0.17525 0.38043 0.19628
 C790 C 0.18269 0.39663 0.18442
 C791 C 0.18088 0.39593 0.16308
 C792 C 0.17179 0.37901 0.15364
 C793 C 0.16442 0.36260 0.16544
 C794 C 0.16617 0.36351 0.18687
 C795 C 0.19258 0.41373 0.19417
 C796 C 0.20105 0.42781 0.20254
 C797 C 0.21118 0.44404 0.21258
 C798 C 0.21999 0.45766 0.22135
 H799 H 0.17664 0.38078 0.21280
 H800 H 0.18661 0.40838 0.15375
 H801 H 0.17052 0.37867 0.13712
 H802 H 0.16080 0.35097 0.19626
 C803 C 0.17500 -0.12018 0.69639
 C804 C 0.18244 -0.10392 0.68459
 C805 C 0.18068 -0.10458 0.66324
 C806 C 0.17165 -0.12148 0.65373
 C807 C 0.16428 -0.13795 0.66547
 C808 C 0.16598 -0.13709 0.68690
 C809 C 0.19228 -0.08684 0.69441
 C810 C 0.20071 -0.07276 0.70283
 C811 C 0.21079 -0.05654 0.71291
 C812 C 0.21957 -0.04291 0.72171
 H813 H 0.17635 -0.11987 0.71291
 H814 H 0.18641 -0.09209 0.65396
 H815 H 0.17042 -0.12179 0.63721
 H816 H 0.16061 -0.14967 0.69625
 C817 C 0.31836 0.33685 0.39577
 C818 C 0.31654 0.31551 0.39635
 C819 C 0.32406 0.30373 0.38012
 C820 C 0.33324 0.31323 0.36331
 C821 C 0.33500 0.33466 0.36252
 C822 C 0.32755 0.34638 0.37896
 C823 C 0.30656 0.30567 0.41335
 C824 C 0.29803 0.29724 0.42736
 C825 C 0.28785 0.28715 0.44352
 C826 C 0.27901 0.27834 0.45710
 H827 H 0.31257 0.34611 0.40824
 H828 H 0.32266 0.28721 0.38038
 H829 H 0.33867 0.30390 0.35074
 H830 H 0.32883 0.36289 0.37871
 C831 C 0.31864 0.83684 -0.10384
 C832 C 0.31686 0.81550 -0.10318
 C833 C 0.32443 0.80368 -0.11936
 C834 C 0.33359 0.81315 -0.13621
 C835 C 0.33530 0.83458 -0.13707
 C836 C 0.32781 0.84634 -0.12068
 C837 C 0.30685 0.80571 -0.08618
 C838 C 0.29827 0.79734 -0.07216
 C839 C 0.28801 0.78735 -0.05600
 C840 C 0.27906 0.77864 -0.04242
 H841 H 0.31281 0.84614 -0.09141
 H842 H 0.32306 0.78716 -0.11905
 H843 H 0.33905 0.80378 -0.14874
 H844 H 0.32905 0.86285 -0.12099
 C845 C 0.81865 0.33684 -0.10434
 C846 C 0.81689 0.31550 -0.10365
 C847 C 0.82447 0.30366 -0.11982
 C848 C 0.83362 0.31310 -0.13667
 C849 C 0.83532 0.33454 -0.13757
 C850 C 0.82782 0.34631 -0.12120
 C851 C 0.80691 0.30572 -0.08663
 C852 C 0.79835 0.29736 -0.07259
 C853 C 0.78812 0.28736 -0.05641
 C854 C 0.77919 0.27865 -0.04282
 H855 H 0.81282 0.34615 -0.09192
 H856 H 0.82312 0.28714 -0.11948
 H857 H 0.83910 0.30373 -0.14919
 H858 H 0.82905 0.36283 -0.12153
 C859 C 0.81830 0.83747 0.39600
 C860 C 0.81647 0.81613 0.39670
 C861 C 0.82399 0.80425 0.38054
 C862 C 0.83318 0.81365 0.36367
 C863 C 0.83495 0.83508 0.36276
 C864 C 0.82750 0.84690 0.37913
 C865 C 0.80649 0.80640 0.41375
 C866 C 0.79796 0.79803 0.42781
 C867 C 0.78780 0.78799 0.44400
 C868 C 0.77897 0.77921 0.45761
 H869 H 0.81252 0.84681 0.40841
 H870 H 0.82259 0.78774 0.38089
 H871 H 0.83861 0.80425 0.35116
 H872 H 0.82879 0.86341 0.37878
 C873 C 0.69570 0.32486 0.61976
 C874 C 0.68387 0.31745 0.60351
 C875 C 0.66253 0.31926 0.60417
 C876 C 0.65305 0.32831 0.62108
 C877 C 0.66481 0.33565 0.63754
 C878 C 0.68624 0.33390 0.63667
 C879 C 0.69366 0.30758 0.58642
 C880 C 0.70206 0.29913 0.57234
 C881 C 0.71211 0.28903 0.55612
 C882 C 0.72089 0.28022 0.54249
 H883 H 0.71222 0.32346 0.61944
 H884 H 0.65323 0.31356 0.59168
 H885 H 0.63653 0.32959 0.62139
 H886 H 0.69561 0.33924 0.64925
 C887 C 0.66315 0.81935 1.10416
 C888 C 0.68449 0.81757 1.10344
 C889 C 0.69635 0.82503 1.11964
 C890 C 0.68693 0.83409 1.13657
 C891 C 0.66549 0.83580 1.13749
 C892 C 0.65370 0.82842 1.12108
 C893 C 0.69424 0.80768 1.08635
 C894 C 0.70261 0.79920 1.07226
 C895 C 0.71263 0.78906 1.05604
 C896 C 0.72138 0.78023 1.04241
 H897 H 0.65382 0.81361 1.09171
 H898 H 0.71287 0.82366 1.11928
 H899 H 0.69632 0.83947 1.14911
 H900 H 0.63718 0.82966 1.12143
 C901 C 0.16308 0.31951 1.10460
 C902 C 0.18441 0.31771 1.10392
 C903 C 0.19626 0.32516 1.12014
 C904 C 0.18682 0.33424 1.13704
 C905 C 0.16539 0.33599 1.13793
 C906 C 0.15361 0.32861 1.12150
 C907 C 0.19419 0.30782 1.08684
 C908 C 0.20258 0.29935 1.07276
 C909 C 0.21263 0.28923 1.05654
 C910 C 0.22140 0.28042 1.04292
 H911 H 0.15376 0.31379 1.09214
 H912 H 0.21277 0.32377 1.11981
 H913 H 0.19620 0.33962 1.14959
 H914 H 0.13709 0.32988 1.12182
 C915 C 0.19629 0.82480 0.62013
 C916 C 0.18450 0.81737 0.60387
 C917 C 0.16315 0.81914 0.60450
 C918 C 0.15363 0.82817 0.62141
 C919 C 0.16536 0.83553 0.63788
 C920 C 0.18680 0.83382 0.63704
 C921 C 0.19432 0.80753 0.58678
 C922 C 0.20275 0.79911 0.57270
 C923 C 0.21284 0.78903 0.55648
 C924 C 0.22165 0.78025 0.54286
 H925 H 0.21281 0.82343 0.61984
 H926 H 0.15388 0.81343 0.59200
 H927 H 0.13711 0.82942 0.62170
 H928 H 0.19614 0.83917 0.64963
 C929 C 0.32538 0.69650 0.62020
 C930 C 0.31803 0.68463 0.60396
 C931 C 0.31996 0.66330 0.60462
 C932 C 0.32907 0.65387 0.62154
 C933 C 0.33634 0.66569 0.63799
 C934 C 0.33447 0.68711 0.63711
 C935 C 0.30814 0.69436 0.58686
 C936 C 0.29966 0.70271 0.57276
 C937 C 0.28954 0.71273 0.55653
 C938 C 0.28072 0.72148 0.54289
 H939 H 0.32390 0.71301 0.61988
 H940 H 0.31431 0.65396 0.59214
 H941 H 0.33044 0.63737 0.62185
 H942 H 0.33977 0.69651 0.64969
 C943 C 0.32489 0.19623 1.12020
 C944 C 0.31754 0.18440 1.10392
 C945 C 0.31945 0.16307 1.10454
 C946 C 0.32856 0.15359 1.12143
 C947 C 0.33585 0.16536 1.13790
 C948 C 0.33398 0.18678 1.13709
 C949 C 0.30765 0.19418 1.08685
 C950 C 0.29918 0.20257 1.07277
 C951 C 0.28907 0.21263 1.05656
 C952 C 0.28027 0.22142 1.04294
 H953 H 0.32341 0.21274 1.11992
 H954 H 0.31380 0.15376 1.09203
 H955 H 0.32993 0.13708 1.12169
 H956 H 0.33929 0.19615 1.14968
 C957 C 0.82508 0.69654 1.11978
 C958 C 0.81779 0.68467 1.10350
 C959 C 0.81973 0.66335 1.10415
 C960 C 0.82880 0.65391 1.12108
 C961 C 0.83601 0.66570 1.13757
 C962 C 0.83413 0.68712 1.13671
 C963 C 0.80791 0.69441 1.08640
 C964 C 0.79944 0.70276 1.07230
 C965 C 0.78930 0.71276 1.05606
 C966 C 0.78045 0.72148 1.04243
 H967 H 0.82358 0.71305 1.11948
 H968 H 0.81412 0.65402 1.09164
 H969 H 0.83018 0.63740 1.12138
 H970 H 0.83938 0.69652 1.14931
 C971 C 0.81971 0.16364 0.60415
 C972 C 0.81777 0.18497 0.60347
 C973 C 0.82515 0.19685 0.61969
 C974 C 0.83429 0.18747 0.63659
 C975 C 0.83616 0.16605 0.63748
 C976 C 0.82886 0.15423 0.62105
 C977 C 0.80782 0.19468 0.58639
 C978 C 0.79929 0.20301 0.57232
 C979 C 0.78909 0.21297 0.55610
 C980 C 0.78019 0.22167 0.54248
 H981 H 0.81403 0.15429 0.59169
 H982 H 0.82366 0.21336 0.61936
 H983 H 0.83961 0.19688 0.64914
 H984 H 0.83023 0.13772 0.62137
 C985 C 0.67554 0.69548 0.38015
 C986 C 0.68295 0.68352 0.39630
 C987 C 0.68113 0.66219 0.39547
 C988 C 0.67207 0.65285 0.37849
 C989 C 0.66473 0.66474 0.36213
 C990 C 0.66649 0.68617 0.36317
 C991 C 0.69283 0.69317 0.41346
 C992 C 0.70128 0.70148 0.42760
 C993 C 0.71137 0.71145 0.44388
 C994 C 0.72016 0.72019 0.45754
 H995 H 0.67694 0.71200 0.38060
 H996 H 0.68683 0.65279 0.40788
 H997 H 0.67078 0.63633 0.37805
 H998 H 0.66114 0.69564 0.35067
 C999 C 0.67466 0.19584 -0.12022
 C1000 C 0.68213 0.18391 -0.10408
 C1001 C 0.68040 0.16257 -0.10492
 C1002 C 0.67137 0.15319 -0.12190
 C1003 C 0.66398 0.16506 -0.13826
 C1004 C 0.66564 0.18649 -0.13721
 C1005 C 0.69200 0.19359 -0.08694
 C1006 C 0.70048 0.20188 -0.07281
 C1007 C 0.71064 0.21181 -0.05654
 C1008 C 0.71952 0.22048 -0.04289
 H1009 H 0.67600 0.21236 -0.11977
 H1010 H 0.68615 0.15319 -0.09252
 H1011 H 0.67016 0.13667 -0.12235
 H1012 H 0.66025 0.19594 -0.14970
 C1013 C 0.18066 0.66220 -0.10460
 C1014 C 0.18242 0.68353 -0.10378
 C1015 C 0.17497 0.69547 -0.11993
 C1016 C 0.16594 0.68612 -0.13691
 C1017 C 0.16425 0.66470 -0.13795
 C1018 C 0.17162 0.65282 -0.12159
 C1019 C 0.19227 0.69322 -0.08662
 C1020 C 0.20071 0.70153 -0.07248
 C1021 C 0.21081 0.71150 -0.05620
 C1022 C 0.21962 0.72022 -0.04254
 H1023 H 0.18639 0.65281 -0.09220
 H1024 H 0.17633 0.71199 -0.11949
 H1025 H 0.16057 0.69558 -0.14941
 H1026 H 0.17038 0.63631 -0.12202
 C1027 C 0.19578 0.17429 0.37963
 C1028 C 0.18386 0.18167 0.39582
 C1029 C 0.16253 0.17985 0.39504
 C1030 C 0.15315 0.17080 0.37806
 C1031 C 0.16501 0.16349 0.36167
 C1032 C 0.18643 0.16525 0.36266
 C1033 C 0.19354 0.19154 0.41297
 C1034 C 0.20185 0.20000 0.42710
 C1035 C 0.21179 0.21015 0.44337
 C1036 C 0.22046 0.21901 0.45702
 H1037 H 0.21230 0.17570 0.38004
 H1038 H 0.15315 0.18553 0.40748
 H1039 H 0.13663 0.16951 0.37766
 H1040 H 0.19588 0.15993 0.35013
 C1041 C 0.32448 0.37987 0.69521
 C1042 C 0.31708 0.39602 0.68325
 C1043 C 0.31888 0.39519 0.66192
 C1044 C 0.32793 0.37819 0.65257
 C1045 C 0.33527 0.36184 0.66447
 C1046 C 0.33353 0.36288 0.68589
 C1047 C 0.30723 0.41319 0.69291
 C1048 C 0.29881 0.42734 0.70122
 C1049 C 0.28874 0.44363 0.71121
 C1050 C 0.27998 0.45730 0.71997
 H1051 H 0.32310 0.38032 0.71173
 H1052 H 0.31318 0.40759 0.65252
 H1053 H 0.32921 0.37775 0.63606
 H1054 H 0.33887 0.35038 0.69537
 C1055 C 0.32513 0.87960 0.19564
 C1056 C 0.31765 0.89572 0.18368
 C1057 C 0.31945 0.89487 0.16234
 C1058 C 0.32855 0.87791 0.15300
 C1059 C 0.33595 0.86158 0.16491
 C1060 C 0.33423 0.86264 0.18633
 C1061 C 0.30770 0.91284 0.19331
 C1062 C 0.29916 0.92695 0.20158
 C1063 C 0.28894 0.94320 0.21147
 C1064 C 0.28002 0.95684 0.22011
 H1065 H 0.32375 0.88006 0.21216
 H1066 H 0.31369 0.90725 0.15293
 H1067 H 0.32981 0.87745 0.13649
 H1068 H 0.33962 0.85016 0.19580
 C1069 C 0.83746 0.39528 0.18009
 C1070 C 0.81614 0.39607 0.18200
 C1071 C 0.80417 0.37989 0.17465
 C1072 C 0.81348 0.36292 0.16556
 C1073 C 0.83490 0.36192 0.16371
 C1074 C 0.84680 0.37831 0.17099
 C1075 C 0.80650 0.41321 0.19192
 C1076 C 0.79823 0.42734 0.20042
 C1077 C 0.78832 0.44361 0.21060
 C1078 C 0.77966 0.45726 0.21948
 H1079 H 0.84687 0.40771 0.18574
 H1080 H 0.78766 0.38031 0.17613
 H1081 H 0.80401 0.35040 0.16027
 H1082 H 0.86330 0.37790 0.16963
 C1083 C 0.81955 0.89560 0.66238
 C1084 C 0.81776 0.89645 0.68372
 C1085 C 0.82516 0.88029 0.69568
 C1086 C 0.83417 0.86329 0.68637
 C1087 C 0.83591 0.86223 0.66495
 C1088 C 0.82859 0.87859 0.65305
 C1089 C 0.80791 0.91362 0.69336
 C1090 C 0.79947 0.92778 0.70165
 C1091 C 0.78937 0.94407 0.71160
 C1092 C 0.78057 0.95774 0.72031
 H1093 H 0.81386 0.90800 0.65298
 H1094 H 0.82377 0.88076 0.71220
 H1095 H 0.83950 0.85079 0.69585
 H1096 H 0.82985 0.87813 0.63653
 C1097 C 0.67494 0.61988 0.69656
 C1098 C 0.68225 0.60364 0.68465
 C1099 C 0.68033 0.60435 0.66332
 C1100 C 0.67126 0.62131 0.65393
 C1101 C 0.66401 0.63775 0.66577
 C1102 C 0.66588 0.63683 0.68719
 C1103 C 0.69212 0.58650 0.69435
 C1104 C 0.70056 0.57238 0.70268
 C1105 C 0.71065 0.55611 0.71268
 C1106 C 0.71945 0.54245 0.72141
 H1107 H 0.67642 0.61952 0.71307
 H1108 H 0.68595 0.59188 0.65396
 H1109 H 0.66989 0.62165 0.63742
 H1110 H 0.66061 0.64939 0.69662
 C1111 C 0.66218 0.10460 0.18120
 C1112 C 0.68352 0.10383 0.18298
 C1113 C 0.69542 0.11996 0.17544
 C1114 C 0.68605 0.13687 0.16630
 C1115 C 0.66462 0.13785 0.16458
 C1116 C 0.65278 0.12151 0.17205
 C1117 C 0.69322 0.08676 0.19295
 C1118 C 0.70154 0.07269 0.20149
 C1119 C 0.71151 0.05648 0.21170
 C1120 C 0.72020 0.04287 0.22061
 H1121 H 0.65281 0.09221 0.18700
 H1122 H 0.71194 0.11957 0.17681
 H1123 H 0.69548 0.14936 0.16086
 H1124 H 0.63626 0.12190 0.17080
 C1125 C 0.16223 0.60464 0.18166
 C1126 C 0.18357 0.60390 0.18342
 C1127 C 0.19545 0.62005 0.17586
 C1128 C 0.18604 0.63693 0.16672
 C1129 C 0.16461 0.63788 0.16502
 C1130 C 0.15280 0.62152 0.17251
 C1131 C 0.19331 0.58685 0.19340
 C1132 C 0.20165 0.57280 0.20194
 C1133 C 0.21163 0.55660 0.21216
 C1134 C 0.22033 0.54299 0.22107
 H1135 H 0.15289 0.59223 0.18748
 H1136 H 0.21197 0.61968 0.17721
 H1137 H 0.19544 0.64943 0.16126
 H1138 H 0.13628 0.62189 0.17127
 C1139 C 0.18043 0.10407 0.66332
 C1140 C 0.18237 0.10346 0.68465
 C1141 C 0.17507 0.11975 0.69649
 C1142 C 0.16598 0.13665 0.68706
 C1143 C 0.16408 0.13746 0.66564
 C1144 C 0.17133 0.12097 0.65386
 C1145 C 0.19225 0.08637 0.69443
 C1146 C 0.20070 0.07229 0.70282
 C1147 C 0.21079 0.05606 0.71289
 C1148 C 0.21958 0.04244 0.72168
 H1149 H 0.18605 0.09156 0.65402
 H1150 H 0.17657 0.11947 0.71300
 H1151 H 0.16071 0.14925 0.69643
 H1152 H 0.16994 0.12124 0.63735
 C1153 C 0.33736 0.60450 0.31947
 C1154 C 0.31602 0.60387 0.31768
 C1155 C 0.30422 0.62012 0.32512
 C1156 C 0.31370 0.63701 0.33418
 C1157 C 0.33513 0.63785 0.33592
 C1158 C 0.34687 0.62139 0.32855
 C1159 C 0.30621 0.58681 0.30778
 C1160 C 0.29780 0.57275 0.29931
 C1161 C 0.28773 0.55655 0.28917
 C1162 C 0.27894 0.54295 0.28035
 H1163 H 0.34665 0.59202 0.31375
 H1164 H 0.28770 0.61982 0.32374
 H1165 H 0.30435 0.64959 0.33955
 H1166 H 0.36339 0.62168 0.32981
 C1167 C 0.33674 0.10421 0.81964
 C1168 C 0.31539 0.10352 0.81790
 C1169 C 0.30357 0.11976 0.82533
 C1170 C 0.31304 0.13669 0.83434
 C1171 C 0.33447 0.13759 0.83601
 C1172 C 0.34623 0.12114 0.82865
 C1173 C 0.30560 0.08643 0.80805
 C1174 C 0.29720 0.07233 0.79962
 C1175 C 0.28715 0.05610 0.78952
 C1176 C 0.27839 0.04247 0.78071
 H1177 H 0.34604 0.09173 0.81392
 H1178 H 0.28705 0.11943 0.82399
 H1179 H 0.30367 0.14926 0.83970
 H1180 H 0.36275 0.12147 0.82988
 C1181 C 0.83687 0.60402 0.81917
 C1182 C 0.81553 0.60336 0.81739
 C1183 C 0.80371 0.61961 0.82480
 C1184 C 0.81318 0.63653 0.83383
 C1185 C 0.83461 0.63739 0.83556
 C1186 C 0.84636 0.62093 0.82822
 C1187 C 0.80573 0.58627 0.80754
 C1188 C 0.79732 0.57218 0.79910
 C1189 C 0.78724 0.55596 0.78902
 C1190 C 0.77844 0.54234 0.78023
 H1191 H 0.84616 0.59153 0.81347
 H1192 H 0.78719 0.61930 0.82342
 H1193 H 0.80381 0.64911 0.83918
 H1194 H 0.86288 0.62124 0.82948
 C1195 C 0.83703 0.10467 0.31902
 C1196 C 0.81570 0.10398 0.31718
 C1197 C 0.80383 0.12019 0.32461
 C1198 C 0.81324 0.13710 0.33371
 C1199 C 0.83467 0.13800 0.33549
 C1200 C 0.84647 0.12158 0.32813
 C1201 C 0.80595 0.08689 0.30728
 C1202 C 0.79758 0.07280 0.29880
 C1203 C 0.78755 0.05657 0.28868
 C1204 C 0.77879 0.04294 0.27987
 H1205 H 0.84636 0.09222 0.31330
 H1206 H 0.78731 0.11984 0.32320
 H1207 H 0.80384 0.14964 0.33907
 H1208 H 0.86299 0.12192 0.32943
 C1209 C 0.66317 0.39592 0.31870
 C1210 C 0.68451 0.39653 0.31679
 C1211 C 0.69634 0.38031 0.32426
 C1212 C 0.68689 0.36348 0.33346
 C1213 C 0.66547 0.36266 0.33531
 C1214 C 0.65370 0.37909 0.32791
 C1215 C 0.69428 0.41354 0.30679
 C1216 C 0.70266 0.42757 0.29822
 C1217 C 0.71267 0.44374 0.28799
 C1218 C 0.72140 0.45733 0.27908
 H1219 H 0.65387 0.40838 0.31295
 H1220 H 0.71285 0.38059 0.32279
 H1221 H 0.69626 0.35092 0.33885
 H1222 H 0.63719 0.37882 0.32926
 C1223 C 0.66367 0.89637 0.81898
 C1224 C 0.68500 0.89698 0.81706
 C1225 C 0.69683 0.88073 0.82447
 C1226 C 0.68738 0.86387 0.83363
 C1227 C 0.66596 0.86306 0.83549
 C1228 C 0.65419 0.87951 0.82815
 C1229 C 0.69477 0.91401 0.80709
 C1230 C 0.70315 0.92806 0.79856
 C1231 C 0.71316 0.94424 0.78835
 C1232 C 0.72189 0.95784 0.77945
 H1233 H 0.65436 0.90885 0.81328
 H1234 H 0.71334 0.88101 0.82300
 H1235 H 0.69675 0.85130 0.83897
 H1236 H 0.63768 0.87924 0.82951
 C1237 C 0.17602 0.38036 0.80401
 C1238 C 0.18353 0.39654 0.81587
 C1239 C 0.18168 0.39587 0.83720
 C1240 C 0.17247 0.37901 0.84665
 C1241 C 0.16503 0.36263 0.83485
 C1242 C 0.16683 0.36351 0.81342
 C1243 C 0.19353 0.41357 0.80612
 C1244 C 0.20207 0.42761 0.79775
 C1245 C 0.21227 0.44379 0.78771
 C1246 C 0.22112 0.45739 0.77894
 H1247 H 0.17745 0.38068 0.78749
 H1248 H 0.18745 0.40830 0.84653
 H1249 H 0.17116 0.37869 0.86316
 H1250 H 0.16140 0.35098 0.80403
 C1251 C 0.18140 0.89548 0.33711
 C1252 C 0.18314 0.89611 0.31576
 C1253 C 0.17556 0.87991 0.30397
 C1254 C 0.16640 0.86308 0.31347
 C1255 C 0.16471 0.86225 0.33491
 C1256 C 0.17223 0.87865 0.34663
 C1257 C 0.19310 0.91311 0.30593
 C1258 C 0.20162 0.92713 0.29750
 C1259 C 0.21179 0.94330 0.28742
 C1260 C 0.22064 0.95688 0.27861
 H1261 H 0.18723 0.90792 0.34638
 H1262 H 0.17690 0.88020 0.28745
 H1263 H 0.16092 0.85055 0.30413
 H1264 H 0.17100 0.87836 0.36315
 C1265 C 0.37956 0.30343 0.67473
 C1266 C 0.39580 0.31530 0.68209
 C1267 C 0.39515 0.33662 0.68014
 C1268 C 0.37826 0.34606 0.67100
 C1269 C 0.36181 0.33425 0.66371
 C1270 C 0.36266 0.31283 0.66561
 C1271 C 0.41288 0.30556 0.69201
 C1272 C 0.42696 0.29720 0.70050
 C1273 C 0.44319 0.28717 0.71063
 C1274 C 0.45681 0.27841 0.71945
 H1275 H 0.37986 0.28692 0.67623
 H1276 H 0.40764 0.34596 0.68579
 H1277 H 0.37796 0.36256 0.66961
 H1278 H 0.35009 0.30343 0.66030
 C1279 C 0.38038 0.80325 0.17507
 C1280 C 0.39661 0.81516 0.18239
 C1281 C 0.39590 0.83648 0.18045
 C1282 C 0.37896 0.84588 0.17135
 C1283 C 0.36253 0.83403 0.16409
 C1284 C 0.36344 0.81261 0.16598
 C1285 C 0.41373 0.80546 0.19229
 C1286 C 0.42784 0.79714 0.20076
 C1287 C 0.44409 0.78715 0.21088
 C1288 C 0.45774 0.77842 0.21970
 H1289 H 0.38073 0.78674 0.17656
 H1290 H 0.40837 0.84585 0.18608
 H1291 H 0.37862 0.86238 0.16997
 H1292 H 0.35088 0.80319 0.16070
 C1293 C 0.88024 0.32436 0.19534
 C1294 C 0.89636 0.31682 0.18341
 C1295 C 0.89556 0.31860 0.16208
 C1296 C 0.87864 0.32775 0.15270
 C1297 C 0.86232 0.33522 0.16456
 C1298 C 0.86332 0.33350 0.18599
 C1299 C 0.91345 0.30686 0.19310
 C1300 C 0.92753 0.29835 0.20142
 C1301 C 0.94376 0.28818 0.21141
 C1302 C 0.95738 0.27934 0.22016
 H1303 H 0.88066 0.32299 0.21186
 H1304 H 0.90794 0.31280 0.15270
 H1305 H 0.87823 0.32901 0.13618
 H1306 H 0.85085 0.33894 0.19544
 C1307 C 0.88005 0.80369 0.67516
 C1308 C 0.89634 0.81551 0.68250
 C1309 C 0.89574 0.83684 0.68057
 C1310 C 0.87886 0.84632 0.67146
 C1311 C 0.86237 0.83456 0.66418
 C1312 C 0.86317 0.81314 0.66607
 C1313 C 0.91341 0.80572 0.69238
 C1314 C 0.92748 0.79731 0.70083
 C1315 C 0.94370 0.78722 0.71093
 C1316 C 0.95731 0.77842 0.71972
 H1317 H 0.88031 0.78718 0.67665
 H1318 H 0.90826 0.84613 0.68621
 H1319 H 0.87860 0.86283 0.67008
 H1320 H 0.85056 0.80378 0.66077
 C1321 C 0.61985 0.32521 0.30393
 C1322 C 0.60367 0.31788 0.31590
 C1323 C 0.60447 0.31981 0.33722
 C1324 C 0.62144 0.32891 0.34655
 C1325 C 0.63783 0.33616 0.33463
 C1326 C 0.63683 0.33429 0.31322
 C1327 C 0.58653 0.30795 0.30628
 C1328 C 0.57240 0.29943 0.29802
 C1329 C 0.55613 0.28924 0.28813
 C1330 C 0.54247 0.28034 0.27949
 H1331 H 0.61943 0.32371 0.28742
 H1332 H 0.59204 0.31417 0.34664
 H1333 H 0.62186 0.33028 0.36305
 H1334 H 0.64935 0.33957 0.30374
 C1335 C 0.62030 0.82572 0.80402
 C1336 C 0.60413 0.81835 0.81598
 C1337 C 0.60494 0.82022 0.83731
 C1338 C 0.62193 0.82929 0.84665
 C1339 C 0.63831 0.83658 0.83475
 C1340 C 0.63729 0.83477 0.81333
 C1341 C 0.58698 0.80845 0.80635
 C1342 C 0.57285 0.79995 0.79808
 C1343 C 0.55657 0.78977 0.78818
 C1344 C 0.54292 0.78089 0.77953
 H1345 H 0.61987 0.82427 0.78751
 H1346 H 0.59252 0.81456 0.84672
 H1347 H 0.62235 0.83061 0.86316
 H1348 H 0.64981 0.84007 0.80386
 C1349 C 0.12025 0.30455 0.82491
 C1350 C 0.10414 0.31652 0.81744
 C1351 C 0.10497 0.33785 0.81926
 C1352 C 0.12193 0.34718 0.82839
 C1353 C 0.13826 0.33527 0.83578
 C1354 C 0.13721 0.31385 0.83403
 C1355 C 0.08701 0.30688 0.80749
 C1356 C 0.07289 0.29860 0.79898
 C1357 C 0.05664 0.28867 0.78881
 C1358 C 0.04299 0.27996 0.77996
 H1359 H 0.11979 0.28803 0.82351
 H1360 H 0.09260 0.34726 0.81351
 H1361 H 0.12238 0.36370 0.82967
 H1362 H 0.14968 0.30437 0.83941
 C1363 C 0.11985 0.80418 0.32531
 C1364 C 0.10370 0.81614 0.31790
 C1365 C 0.10456 0.83748 0.31968
 C1366 C 0.12158 0.84682 0.32870
 C1367 C 0.13793 0.83491 0.33603
 C1368 C 0.13686 0.81349 0.33432
 C1369 C 0.08653 0.80650 0.30804
 C1370 C 0.07238 0.79822 0.29959
 C1371 C 0.05609 0.78828 0.28948
 C1372 C 0.04242 0.77958 0.28066
 H1373 H 0.11938 0.78766 0.32394
 H1374 H 0.09216 0.84689 0.31397
 H1375 H 0.12204 0.86333 0.32995
 H1376 H 0.14935 0.80401 0.33966
 C1377 C 0.61988 0.69628 0.67596
 C1378 C 0.60366 0.68447 0.68348
 C1379 C 0.60426 0.66314 0.68164
 C1380 C 0.62109 0.65363 0.67246
 C1381 C 0.63751 0.66537 0.66501
 C1382 C 0.63670 0.68680 0.66679
 C1383 C 0.58665 0.69429 0.69344
 C1384 C 0.57262 0.70271 0.70197
 C1385 C 0.55645 0.71278 0.71214
 C1386 C 0.54286 0.72158 0.72098
 H1387 H 0.61960 0.71280 0.67737
 H1388 H 0.59180 0.65385 0.68742
 H1389 H 0.62136 0.63711 0.67116
 H1390 H 0.64926 0.69615 0.66136
 C1391 C 0.61950 0.17559 0.19632
 C1392 C 0.60328 0.18303 0.18447
 C1393 C 0.60392 0.18111 0.16314
 C1394 C 0.62078 0.17191 0.15369
 C1395 C 0.63720 0.16455 0.16547
 C1396 C 0.63636 0.16641 0.18690
 C1397 C 0.58625 0.19302 0.19422
 C1398 C 0.57221 0.20158 0.20257
 C1399 C 0.55602 0.21180 0.21257
 C1400 C 0.54242 0.22071 0.22129
 H1401 H 0.61920 0.17706 0.21283
 H1402 H 0.59146 0.18683 0.15381
 H1403 H 0.62107 0.17055 0.13718
 H1404 H 0.64891 0.16104 0.19628
 C1405 C 0.11949 0.67553 0.19685
 C1406 C 0.10323 0.68292 0.18503
 C1407 C 0.10383 0.68102 0.16370
 C1408 C 0.12069 0.67187 0.15421
 C1409 C 0.13715 0.66454 0.16596
 C1410 C 0.13635 0.66639 0.18739
 C1411 C 0.08619 0.69287 0.19482
 C1412 C 0.07214 0.70139 0.20320
 C1413 C 0.05595 0.71158 0.21323
 C1414 C 0.04235 0.72047 0.22196
 H1415 H 0.11922 0.67700 0.21336
 H1416 H 0.09133 0.68670 0.15440
 H1417 H 0.12095 0.67051 0.13770
 H1418 H 0.14893 0.66106 0.19675
 C1419 C 0.11984 0.19592 0.67567
 C1420 C 0.10367 0.18410 0.68326
 C1421 C 0.10431 0.16276 0.68148
 C1422 C 0.12114 0.15326 0.67228
 C1423 C 0.13752 0.16501 0.66477
 C1424 C 0.13667 0.18645 0.66648
 C1425 C 0.08667 0.19390 0.69326
 C1426 C 0.07265 0.20230 0.70181
 C1427 C 0.05649 0.21237 0.71201
 C1428 C 0.04291 0.22116 0.72087
 H1429 H 0.11953 0.21244 0.67703
 H1430 H 0.09188 0.15346 0.68732
 H1431 H 0.12144 0.13674 0.67104
 H1432 H 0.14919 0.19581 0.66100
 C1433 C 0.39612 0.68072 0.33714
 C1434 C 0.39678 0.68250 0.31580
 C1435 C 0.38051 0.67510 0.30399
 C1436 C 0.36359 0.66609 0.31346
 C1437 C 0.36273 0.66436 0.33489
 C1438 C 0.37920 0.67169 0.34664
 C1439 C 0.41388 0.69233 0.30599
 C1440 C 0.42797 0.70075 0.29758
 C1441 C 0.44420 0.71082 0.28750
 C1442 C 0.45782 0.71961 0.27870
 H1443 H 0.40862 0.68641 0.34643
 H1444 H 0.38083 0.67648 0.28747
 H1445 H 0.35101 0.66075 0.30410
 H1446 H 0.37889 0.67043 0.36316
 C1447 C 0.37971 0.17487 0.80391
 C1448 C 0.39598 0.18233 0.81567
 C1449 C 0.39537 0.18059 0.83702
 C1450 C 0.37849 0.17154 0.84657
 C1451 C 0.36201 0.16416 0.83487
 C1452 C 0.36283 0.16584 0.81343
 C1453 C 0.41303 0.19219 0.80582
 C1454 C 0.42709 0.20063 0.79737
 C1455 C 0.44329 0.21072 0.78726
 C1456 C 0.45689 0.21952 0.77844
 H1457 H 0.37998 0.17622 0.78738
 H1458 H 0.40787 0.18633 0.84627
 H1459 H 0.37822 0.17032 0.86309
 H1460 H 0.35023 0.16046 0.80411
 C1461 C 0.89555 0.68034 0.83685
 C1462 C 0.89624 0.68212 0.81551
 C1463 C 0.88001 0.67468 0.80367
 C1464 C 0.86309 0.66564 0.81312
 C1465 C 0.86220 0.66392 0.83455
 C1466 C 0.87863 0.67129 0.84632
 C1467 C 0.91333 0.69199 0.80573
 C1468 C 0.92742 0.70045 0.79735
 C1469 C 0.94364 0.71057 0.78731
 C1470 C 0.95727 0.71938 0.77854
 H1471 H 0.90802 0.68606 0.84616
 H1472 H 0.88035 0.67605 0.78715
 H1473 H 0.85053 0.66028 0.80374
 H1474 H 0.87831 0.67003 0.86284
 C1475 C 0.88009 0.17547 0.30383
 C1476 C 0.89627 0.18290 0.31573
 C1477 C 0.89553 0.18106 0.33706
 C1478 C 0.87861 0.17194 0.34646
 C1479 C 0.86221 0.16458 0.33463
 C1480 C 0.86316 0.16637 0.31320
 C1481 C 0.91337 0.19283 0.30602
 C1482 C 0.92746 0.20133 0.29769
 C1483 C 0.94370 0.21148 0.28770
 C1484 C 0.95733 0.22032 0.27897
 H1485 H 0.88046 0.17689 0.28731
 H1486 H 0.90796 0.18677 0.34642
 H1487 H 0.87824 0.17064 0.36298
 H1488 H 0.85063 0.16101 0.30378
 C1489 C 0.30348 0.32414 0.61932
 C1490 C 0.31536 0.31657 0.60317
 C1491 C 0.33669 0.31839 0.60388
 C1492 C 0.34613 0.32760 0.62073
 C1493 C 0.33432 0.33509 0.63709
 C1494 C 0.31289 0.33334 0.63617
 C1495 C 0.30563 0.30653 0.58616
 C1496 C 0.29730 0.29793 0.57213
 C1497 C 0.28733 0.28765 0.55596
 C1498 C 0.27865 0.27870 0.54237
 H1499 H 0.28696 0.32274 0.61897
 H1500 H 0.34603 0.31257 0.59148
 H1501 H 0.36264 0.32888 0.62108
 H1502 H 0.30349 0.33880 0.64867
 C1503 C 0.33717 0.81816 0.10432
 C1504 C 0.31583 0.81635 0.10370
 C1505 C 0.30402 0.82387 0.11991
 C1506 C 0.31349 0.83303 0.13675
 C1507 C 0.33492 0.83479 0.13757
 C1508 C 0.34667 0.82734 0.12116
 C1509 C 0.30602 0.80640 0.08667
 C1510 C 0.29760 0.79790 0.07263
 C1511 C 0.28750 0.78776 0.05645
 C1512 C 0.27869 0.77895 0.04286
 H1513 H 0.34646 0.81238 0.09187
 H1514 H 0.28750 0.82247 0.11962
 H1515 H 0.30414 0.83847 0.14929
 H1516 H 0.36319 0.82862 0.12144
 C1517 C 0.82451 0.30351 0.11947
 C1518 C 0.81706 0.31537 0.10327
 C1519 C 0.81898 0.33670 0.10391
 C1520 C 0.82821 0.34614 0.12076
 C1521 C 0.83559 0.33434 0.13717
 C1522 C 0.83372 0.31292 0.13632
 C1523 C 0.80702 0.30564 0.08625
 C1524 C 0.79843 0.29730 0.07222
 C1525 C 0.78816 0.28732 0.05605
 C1526 C 0.77922 0.27863 0.04246
 H1527 H 0.82303 0.28700 0.11917
 H1528 H 0.81325 0.34603 0.09147
 H1529 H 0.82957 0.36265 0.12106
 H1530 H 0.83910 0.30353 0.14886
 C1531 C 0.80399 0.82458 0.61984
 C1532 C 0.81584 0.81699 0.60368
 C1533 C 0.83718 0.81877 0.60436
 C1534 C 0.84665 0.82796 0.62121
 C1535 C 0.83486 0.83547 0.63758
 C1536 C 0.81343 0.83376 0.63668
 C1537 C 0.80607 0.80698 0.58667
 C1538 C 0.79770 0.79841 0.57265
 C1539 C 0.78767 0.78818 0.55648
 C1540 C 0.77892 0.77929 0.54290
 H1541 H 0.78747 0.82321 0.61951
 H1542 H 0.84649 0.81293 0.59195
 H1543 H 0.86316 0.82921 0.62154
 H1544 H 0.80405 0.83923 0.64920
 C1545 C 0.31978 0.66313 0.39583
 C1546 C 0.31802 0.68447 0.39652
 C1547 C 0.32547 0.69630 0.38029
 C1548 C 0.33451 0.68684 0.36337
 C1549 C 0.33620 0.66540 0.36248
 C1550 C 0.32882 0.65364 0.37892
 C1551 C 0.30815 0.69426 0.41360
 C1552 C 0.29969 0.70265 0.42768
 C1553 C 0.28957 0.71270 0.44391
 C1554 C 0.28075 0.72146 0.45753
 H1555 H 0.31404 0.65383 0.40830
 H1556 H 0.32412 0.71282 0.38062
 H1557 H 0.33988 0.69621 0.35081
 H1558 H 0.33006 0.63712 0.37859
 C1559 C 0.31921 0.16298 0.89591
 C1560 C 0.31741 0.18432 0.89655
 C1561 C 0.32480 0.19612 0.88027
 C1562 C 0.33380 0.18664 0.86335
 C1563 C 0.33554 0.16521 0.86251
 C1564 C 0.32823 0.15347 0.87899
 C1565 C 0.30758 0.19413 0.91364
 C1566 C 0.29915 0.20254 0.92773
 C1567 C 0.28907 0.21262 0.94396
 C1568 C 0.28028 0.22141 0.95758
 H1569 H 0.31353 0.15369 0.90842
 H1570 H 0.32341 0.21264 0.88057
 H1571 H 0.33913 0.19599 0.85075
 H1572 H 0.32950 0.13695 0.87870
 C1573 C 0.82485 0.69588 0.87985
 C1574 C 0.81741 0.68407 0.89609
 C1575 C 0.81919 0.66273 0.89544
 C1576 C 0.82826 0.65323 0.87855
 C1577 C 0.83563 0.66498 0.86209
 C1578 C 0.83390 0.68641 0.86295
 C1579 C 0.80754 0.69388 0.91317
 C1580 C 0.79908 0.70229 0.92724
 C1581 C 0.78898 0.71237 0.94345
 C1582 C 0.78019 0.72117 0.95707
 H1583 H 0.82348 0.71240 0.88016
 H1584 H 0.81346 0.65344 0.90793
 H1585 H 0.82951 0.63671 0.87825
 H1586 H 0.83927 0.69576 0.85038
 C1587 C 0.82471 0.19635 0.37992
 C1588 C 0.81725 0.18448 0.39612
 C1589 C 0.81907 0.16314 0.39542
 C1590 C 0.82819 0.15370 0.37851
 C1591 C 0.83557 0.16551 0.36210
 C1592 C 0.83381 0.18694 0.36302
 C1593 C 0.80734 0.19422 0.41321
 C1594 C 0.79886 0.20259 0.42729
 C1595 C 0.78872 0.21261 0.44351
 C1596 C 0.77990 0.22137 0.45713
 H1597 H 0.82331 0.21286 0.38028
 H1598 H 0.81334 0.15381 0.40786
 H1599 H 0.82947 0.13719 0.37816
 H1600 H 0.83919 0.19634 0.35048
 C1601 C 0.67537 0.30452 0.38001
 C1602 C 0.68291 0.31646 0.39611
 C1603 C 0.68115 0.33779 0.39531
 C1604 C 0.67200 0.34717 0.37838
 C1605 C 0.66453 0.33529 0.36206
 C1606 C 0.66624 0.31387 0.36308
 C1607 C 0.69289 0.30678 0.41320
 C1608 C 0.70143 0.29848 0.42729
 C1609 C 0.71165 0.28855 0.44351
 C1610 C 0.72056 0.27988 0.45714
 H1611 H 0.67673 0.28800 0.38044
 H1612 H 0.68695 0.34718 0.40768
 H1613 H 0.67076 0.36368 0.37796
 H1614 H 0.66079 0.30442 0.35061
 C1615 C 0.67587 0.80478 0.88000
 C1616 C 0.68342 0.81666 0.89614
 C1617 C 0.68166 0.83800 0.89540
 C1618 C 0.67251 0.84743 0.87851
 C1619 C 0.66503 0.83561 0.86216
 C1620 C 0.66673 0.81418 0.86311
 C1621 C 0.69339 0.80693 0.91320
 C1622 C 0.70193 0.79859 0.92726
 C1623 C 0.71214 0.78861 0.94346
 C1624 C 0.72103 0.77990 0.95707
 H1625 H 0.67722 0.78826 0.88038
 H1626 H 0.68748 0.84735 0.90780
 H1627 H 0.67128 0.86395 0.87813
 H1628 H 0.66127 0.80477 0.85061
 C1629 C 0.16334 0.31963 0.89573
 C1630 C 0.18466 0.31771 0.89644
 C1631 C 0.19657 0.32506 0.88023
 C1632 C 0.18721 0.33417 0.86330
 C1633 C 0.16579 0.33604 0.86238
 C1634 C 0.15395 0.32875 0.87880
 C1635 C 0.19436 0.30781 0.91356
 C1636 C 0.20270 0.29933 0.92766
 C1637 C 0.21270 0.28921 0.94391
 C1638 C 0.22145 0.28040 0.95755
 H1639 H 0.15397 0.31398 0.90819
 H1640 H 0.21308 0.32358 0.88058
 H1641 H 0.19664 0.33947 0.85075
 H1642 H 0.13744 0.33013 0.87846
 C1643 C 0.16331 0.81937 0.39588
 C1644 C 0.18464 0.81744 0.39648
 C1645 C 0.19647 0.82475 0.38019
 C1646 C 0.18702 0.83382 0.36329
 C1647 C 0.16560 0.83571 0.36248
 C1648 C 0.15384 0.82846 0.37898
 C1649 C 0.19442 0.80756 0.41357
 C1650 C 0.20282 0.79912 0.42765
 C1651 C 0.21289 0.78903 0.44388
 C1652 C 0.22168 0.78024 0.45751
 H1653 H 0.15401 0.81375 0.40840
 H1654 H 0.21298 0.82326 0.38046
 H1655 H 0.19639 0.83910 0.35068
 H1656 H 0.13733 0.82985 0.37872
 C1657 C 0.66231 0.68085 0.60494
 C1658 C 0.68365 0.68263 0.60410
 C1659 C 0.69560 0.67513 0.62021
 C1660 C 0.68628 0.66604 0.63718
 C1661 C 0.66485 0.66434 0.63823
 C1662 C 0.65296 0.67175 0.62190
 C1663 C 0.69330 0.69256 0.58698
 C1664 C 0.70159 0.70107 0.57286
 C1665 C 0.71153 0.71124 0.55661
 C1666 C 0.72024 0.72009 0.54297
 H1667 H 0.65291 0.68662 0.59256
 H1668 H 0.71212 0.67649 0.61976
 H1669 H 0.69575 0.66063 0.64965
 H1670 H 0.63644 0.67051 0.62236
 C1671 C 0.68011 0.16269 0.10452
 C1672 C 0.68201 0.18402 0.10372
 C1673 C 0.67464 0.19598 0.11989
 C1674 C 0.66556 0.18668 0.13686
 C1675 C 0.66372 0.16526 0.13787
 C1676 C 0.67101 0.15336 0.12149
 C1677 C 0.69193 0.19365 0.08658
 C1678 C 0.70044 0.20192 0.07245
 C1679 C 0.71063 0.21182 0.05619
 C1680 C 0.71952 0.22047 0.04253
 H1681 H 0.68577 0.15329 0.09210
 H1682 H 0.67611 0.21250 0.11947
 H1683 H 0.66026 0.19615 0.14938
 H1684 H 0.66967 0.13685 0.12191
 C1685 C 0.17446 0.69602 0.12029
 C1686 C 0.18183 0.68406 0.10412
 C1687 C 0.17997 0.66273 0.10493
 C1688 C 0.17091 0.65339 0.12192
 C1689 C 0.16362 0.66528 0.13831
 C1690 C 0.16541 0.68670 0.13728
 C1691 C 0.19173 0.69370 0.08696
 C1692 C 0.20022 0.70196 0.07283
 C1693 C 0.21040 0.71186 0.05655
 C1694 C 0.21929 0.72051 0.04290
 H1695 H 0.17589 0.71253 0.11986
 H1696 H 0.18564 0.65332 0.09251
 H1697 H 0.16960 0.63688 0.12235
 H1698 H 0.16011 0.69617 0.14980
 C1699 C 0.16229 0.18031 0.60463
 C1700 C 0.18363 0.18209 0.60376
 C1701 C 0.19560 0.17467 0.61990
 C1702 C 0.18629 0.16565 0.63691
 C1703 C 0.16486 0.16394 0.63799
 C1704 C 0.15296 0.17128 0.62164
 C1705 C 0.19327 0.19195 0.58659
 C1706 C 0.20155 0.20039 0.57243
 C1707 C 0.21150 0.21049 0.55614
 C1708 C 0.22021 0.21930 0.54247
 H1709 H 0.15288 0.18603 0.59223
 H1710 H 0.21211 0.17604 0.61943
 H1711 H 0.19577 0.16030 0.64940
 H1712 H 0.13644 0.17004 0.62210
   
