data_POSCAR
  _audit_creation_date              2014-09-24
  _audit_creation_method            'ToBaCCo'
  _symmetry_space_group_name_H-M    'P1'
  _symmetry_Int_Tables_number       1
  _symmetry_cell_setting            triclinic
  loop_
  _symmetry_equiv_pos_as_xyz
 x,y,z
_cell_length_a 76.1370
_cell_length_b 76.2164
_cell_length_c 76.4204
_cell_angle_alpha 89.975900
_cell_angle_beta 89.987300
_cell_angle_gamma 89.943300
loop_
  _atom_site_label
  _atom_site_type_symbol
  _atom_site_fract_x
  _atom_site_fract_y
  _atom_site_fract_z
N1 N 0.36472 0.31605 0.32856
 N2 N 0.36472 0.32849 0.31666
 C3 C 0.37844 0.32600 0.30579
 C4 C 0.38757 0.31118 0.31116
 C5 C 0.37840 0.30524 0.32568
 H6 H 0.38152 0.33438 0.29481
 H7 H 0.38140 0.29393 0.33366
 Cu8 Cu 0.34666 0.34656 0.31661
 Cu9 Cu 0.34712 0.31481 0.34704
 Cu10 Cu 0.31485 0.34702 0.34701
 N11 N 0.32855 0.36460 0.31663
 N12 N 0.31609 0.36460 0.32851
 C13 C 0.30526 0.37825 0.32560
 C14 C 0.31122 0.38741 0.31107
 C15 C 0.32606 0.37828 0.30573
 H16 H 0.29394 0.38125 0.33357
 H17 H 0.33446 0.38135 0.29476
 N18 N 0.31590 0.32811 0.36461
 N19 N 0.32817 0.31586 0.36462
 C20 C 0.32549 0.30509 0.37833
 C21 C 0.31083 0.31080 0.38748
 C22 C 0.30511 0.32543 0.37831
 H23 H 0.33372 0.29399 0.38146
 H24 H 0.29399 0.33365 0.38144
 H25 H 0.32734 0.32726 0.33330
 H26 H 0.34133 0.34126 0.34764
 N27 N 0.36481 0.81598 -0.17202
 N28 N 0.36447 0.82806 -0.18429
 C29 C 0.37815 0.82552 -0.19518
 C30 C 0.38770 0.81105 -0.18943
 C31 C 0.37868 0.80537 -0.17466
 H32 H 0.38097 0.83374 -0.20634
 H33 H 0.38193 0.79444 -0.16626
 Cu34 Cu 0.34638 0.84616 -0.18430
 Cu35 Cu 0.34743 0.81500 -0.15330
 Cu36 Cu 0.31515 0.84718 -0.15332
 N37 N 0.32822 0.86419 -0.18432
 N38 N 0.31612 0.86453 -0.17207
 C39 C 0.30547 0.87836 -0.17475
 C40 C 0.31115 0.88736 -0.18953
 C41 C 0.32566 0.87784 -0.19524
 H42 H 0.29451 0.88160 -0.16637
 H43 H 0.33390 0.88064 -0.20640
 N44 N 0.31643 0.82846 -0.13551
 N45 N 0.32870 0.81623 -0.13551
 C46 C 0.32607 0.80548 -0.12178
 C47 C 0.31142 0.81116 -0.11261
 C48 C 0.30567 0.82579 -0.12177
 H49 H 0.33427 0.79434 -0.11869
 H50 H 0.29450 0.83395 -0.11868
 H51 H 0.32742 0.82724 -0.16689
 H52 H 0.34168 0.84152 -0.15308
 N53 N 0.86434 0.31647 -0.17163
 N54 N 0.86429 0.32885 -0.18359
 C55 C 0.87796 0.32631 -0.19450
 C56 C 0.88713 0.31152 -0.18908
 C57 C 0.87800 0.30566 -0.17450
 H58 H 0.88101 0.33465 -0.20552
 H59 H 0.88103 0.29439 -0.16647
 Cu60 Cu 0.84623 0.34694 -0.18359
 Cu61 Cu 0.84683 0.31534 -0.15305
 Cu62 Cu 0.81462 0.34761 -0.15302
 N63 N 0.82817 0.36503 -0.18358
 N64 N 0.81580 0.36513 -0.17160
 C65 C 0.80502 0.37883 -0.17445
 C66 C 0.81090 0.38797 -0.18906
 C67 C 0.82568 0.37869 -0.19449
 H68 H 0.79379 0.38182 -0.16636
 H69 H 0.83408 0.38162 -0.20549
 N70 N 0.81573 0.32874 -0.13536
 N71 N 0.82798 0.31648 -0.13538
 C72 C 0.82533 0.30573 -0.12165
 C73 C 0.81071 0.31146 -0.11246
 C74 C 0.80498 0.32609 -0.12162
 H75 H 0.83356 0.29461 -0.11854
 H76 H 0.79386 0.33431 -0.11848
 H77 H 0.82695 0.32773 -0.16676
 H78 H 0.84106 0.34177 -0.15257
 N79 N 0.86430 0.81621 0.32837
 N80 N 0.86418 0.82850 0.31631
 C81 C 0.87783 0.82593 0.30540
 C82 C 0.88709 0.81124 0.31092
 C83 C 0.87802 0.80543 0.32555
 H84 H 0.88085 0.83423 0.29434
 H85 H 0.88116 0.79428 0.33369
 Cu86 Cu 0.84637 0.84686 0.31634
 Cu87 Cu 0.84687 0.81519 0.34699
 Cu88 Cu 0.81467 0.84736 0.34697
 N89 N 0.82800 0.86464 0.31629
 N90 N 0.81570 0.86478 0.32833
 C91 C 0.80491 0.87848 0.32552
 C92 C 0.81073 0.88759 0.31085
 C93 C 0.82545 0.87828 0.30536
 H94 H 0.79376 0.88155 0.33370
 H95 H 0.83382 0.88120 0.29433
 N96 N 0.81585 0.82861 0.36471
 N97 N 0.82811 0.81637 0.36472
 C98 C 0.82547 0.80562 0.37845
 C99 C 0.81083 0.81133 0.38762
 C100 C 0.80509 0.82595 0.37845
 H101 H 0.83369 0.79449 0.38156
 H102 H 0.79394 0.83415 0.38156
 H103 H 0.82714 0.82764 0.33314
 H104 H 0.84120 0.84170 0.34742
 N105 N 0.63529 0.68393 0.32872
 N106 N 0.63532 0.67151 0.31681
 C107 C 0.62160 0.67397 0.30595
 C108 C 0.61245 0.68877 0.31132
 C109 C 0.62160 0.69471 0.32584
 H110 H 0.61852 0.66558 0.29499
 H111 H 0.61859 0.70602 0.33381
 Cu112 Cu 0.65333 0.65338 0.31681
 Cu113 Cu 0.65287 0.68515 0.34721
 Cu114 Cu 0.68514 0.65294 0.34721
 N115 N 0.67149 0.63542 0.31680
 N116 N 0.68393 0.63539 0.32871
 C117 C 0.69474 0.62173 0.32581
 C118 C 0.68879 0.61259 0.31128
 C119 C 0.67396 0.62173 0.30593
 H120 H 0.70606 0.61871 0.33377
 H121 H 0.66555 0.61865 0.29497
 N122 N 0.68406 0.67185 0.36479
 N123 N 0.67180 0.68409 0.36479
 C124 C 0.67446 0.69487 0.37849
 C125 C 0.68911 0.68917 0.38765
 C126 C 0.69484 0.67453 0.37850
 H127 H 0.66622 0.70597 0.38161
 H128 H 0.70597 0.66632 0.38163
 H129 H 0.67264 0.67269 0.33347
 H130 H 0.65865 0.65870 0.34783
 N131 N 0.63561 0.18374 -0.17155
 N132 N 0.63552 0.17127 -0.18340
 C133 C 0.62149 0.17351 -0.19391
 C134 C 0.61227 0.18822 -0.18838
 C135 C 0.62169 0.19432 -0.17409
 H136 H 0.61835 0.16513 -0.20486
 H137 H 0.61884 0.20573 -0.16620
 Cu138 Cu 0.65398 0.15355 -0.18418
 Cu139 Cu 0.65431 0.18583 -0.15433
 Cu140 Cu 0.68519 0.15250 -0.15290
 N141 N 0.67206 0.13545 -0.18380
 N142 N 0.68416 0.13512 -0.17157
 C143 C 0.69483 0.12131 -0.17428
 C144 C 0.68913 0.11231 -0.18905
 C145 C 0.67459 0.12180 -0.19470
 H146 H 0.70586 0.11812 -0.16598
 H147 H 0.66635 0.11901 -0.20586
 N148 N 0.68399 0.17139 -0.13528
 N149 N 0.67216 0.18403 -0.13577
 C150 C 0.67468 0.19478 -0.12202
 C151 C 0.68887 0.18870 -0.11238
 C152 C 0.69440 0.17382 -0.12125
 H153 H 0.66675 0.20621 -0.11928
 H154 H 0.70523 0.16534 -0.11779
 H155 H 0.67406 0.17203 -0.16739
 H156 H 0.65884 0.15909 -0.15323
 N157 N 0.13578 0.68422 -0.17177
 N158 N 0.13582 0.67187 -0.18376
 C159 C 0.12188 0.67416 -0.19436
 C160 C 0.11255 0.68876 -0.18874
 C161 C 0.12184 0.69477 -0.17432
 H162 H 0.11880 0.66581 -0.20536
 H163 H 0.11883 0.70604 -0.16628
 Cu164 Cu 0.15409 0.65398 -0.18393
 Cu165 Cu 0.15429 0.68613 -0.15426
 Cu166 Cu 0.18516 0.65267 -0.15281
 N167 N 0.17223 0.63598 -0.18408
 N168 N 0.18420 0.63548 -0.17171
 C169 C 0.19476 0.62158 -0.17437
 C170 C 0.18913 0.61277 -0.18922
 C171 C 0.17478 0.62237 -0.19503
 H172 H 0.20562 0.61812 -0.16596
 H173 H 0.16665 0.61958 -0.20627
 N174 N 0.18381 0.67146 -0.13508
 N175 N 0.17202 0.68415 -0.13556
 C176 C 0.17456 0.69486 -0.12179
 C177 C 0.18873 0.68872 -0.11216
 C178 C 0.19422 0.67383 -0.12104
 H179 H 0.16670 0.70634 -0.11906
 H180 H 0.20505 0.66535 -0.11762
 H181 H 0.17409 0.67235 -0.16709
 H182 H 0.15884 0.65943 -0.15298
 N183 N 0.13561 0.18409 0.32836
 N184 N 0.13569 0.17181 0.31632
 C185 C 0.12170 0.17407 0.30578
 C186 C 0.11231 0.18860 0.31148
 C187 C 0.12160 0.19458 0.32590
 H188 H 0.11869 0.16580 0.29470
 H189 H 0.11859 0.20584 0.33395
 Cu190 Cu 0.15421 0.15418 0.31535
 Cu191 Cu 0.15420 0.18607 0.34568
 Cu192 Cu 0.18501 0.15273 0.34709
 N193 N 0.17219 0.13601 0.31592
 N194 N 0.18409 0.13548 0.32834
 C195 C 0.19465 0.12156 0.32573
 C196 C 0.18909 0.11277 0.31085
 C197 C 0.17476 0.12238 0.30499
 H198 H 0.20551 0.11812 0.33415
 H199 H 0.16672 0.11965 0.29368
 N200 N 0.18375 0.17150 0.36478
 N201 N 0.17195 0.18417 0.36430
 C202 C 0.17448 0.19488 0.37808
 C203 C 0.18865 0.18874 0.38772
 C204 C 0.19415 0.17387 0.37882
 H205 H 0.16659 0.20634 0.38082
 H206 H 0.20498 0.16537 0.38225
 H207 H 0.17408 0.17244 0.33266
 H208 H 0.15866 0.15931 0.34645
 N209 N 0.63523 0.31619 0.67152
 N210 N 0.63522 0.32862 0.68342
 C211 C 0.62151 0.32614 0.69428
 C212 C 0.61238 0.31133 0.68891
 C213 C 0.62156 0.30539 0.67439
 H214 H 0.61842 0.33452 0.70526
 H215 H 0.61858 0.29409 0.66642
 Cu216 Cu 0.65329 0.34667 0.68341
 Cu217 Cu 0.65283 0.31493 0.65302
 Cu218 Cu 0.68508 0.34711 0.65302
 N219 N 0.67138 0.36471 0.68342
 N220 N 0.68383 0.36470 0.67152
 C221 C 0.69465 0.37834 0.67440
 C222 C 0.68870 0.38751 0.68893
 C223 C 0.67387 0.37839 0.69429
 H224 H 0.70598 0.38132 0.66643
 H225 H 0.66547 0.38148 0.70526
 N226 N 0.68403 0.32818 0.63543
 N227 N 0.67177 0.31596 0.63544
 C228 C 0.67444 0.30518 0.62173
 C229 C 0.68909 0.31086 0.61256
 C230 C 0.69481 0.32549 0.62171
 H231 H 0.66621 0.29409 0.61861
 H232 H 0.70593 0.33369 0.61857
 H233 H 0.67260 0.32736 0.66676
 H234 H 0.65859 0.34138 0.65241
 N235 N 0.63549 0.81608 1.17175
 N236 N 0.63587 0.82811 1.18405
 C237 C 0.62217 0.82562 1.19492
 C238 C 0.61265 0.81122 1.18914
 C239 C 0.62159 0.80553 1.17438
 H240 H 0.61933 0.83374 1.20614
 H241 H 0.61825 0.79458 1.16605
 Cu242 Cu 0.65412 0.84597 1.18455
 Cu243 Cu 0.65292 0.81503 1.15315
 Cu244 Cu 0.68511 0.84712 1.15317
 N245 N 0.67204 0.86417 1.18407
 N246 N 0.68410 0.86452 1.17177
 C247 C 0.69468 0.87839 1.17440
 C248 C 0.68900 0.88733 1.18916
 C249 C 0.67456 0.87785 1.19493
 H250 H 0.70565 0.88170 1.16607
 H251 H 0.66643 0.88070 1.20616
 N252 N 0.68395 0.82839 1.13545
 N253 N 0.67170 0.81618 1.13544
 C254 C 0.67436 0.80543 1.12172
 C255 C 0.68901 0.81112 1.11256
 C256 C 0.69473 0.82573 1.12173
 H257 H 0.66616 0.79431 1.11861
 H258 H 0.70588 0.83391 1.11864
 H259 H 0.67294 0.82710 1.16682
 H260 H 0.65852 0.84155 1.15327
 N261 N 0.13550 0.31619 1.17163
 N262 N 0.13498 0.32906 1.18305
 C263 C 0.12097 0.32681 1.19357
 C264 C 0.11217 0.31171 1.18848
 C265 C 0.12185 0.30536 1.17446
 H266 H 0.11755 0.33547 1.20423
 H267 H 0.11935 0.29363 1.16693
 Cu268 Cu 0.15289 0.34729 1.18332
 Cu269 Cu 0.15442 0.31392 1.15464
 Cu270 Cu 0.18334 0.34877 1.15158
 N271 N 0.17187 0.36441 1.18376
 N272 N 0.18386 0.36478 1.17141
 C273 C 0.19483 0.37828 1.17434
 C274 C 0.18943 0.38699 1.18935
 C275 C 0.17482 0.37769 1.19499
 H276 H 0.20565 0.38170 1.16585
 H277 H 0.16666 0.38059 1.20619
 N278 N 0.18337 0.32901 1.13497
 N279 N 0.17219 0.31584 1.13598
 C280 C 0.17516 0.30477 1.12257
 C281 C 0.18899 0.31118 1.11264
 C282 C 0.19387 0.32657 1.12100
 H283 H 0.16769 0.29297 1.12021
 H284 H 0.20423 0.33545 1.11719
 H285 H 0.17354 0.32923 1.16691
 H286 H 0.15726 0.34041 1.15243
 N287 N 0.13564 0.81605 0.67160
 N288 N 0.13556 0.82853 0.68345
 C289 C 0.12159 0.82631 0.69403
 C290 C 0.11239 0.81159 0.68856
 C291 C 0.12176 0.80546 0.67423
 H292 H 0.11841 0.83476 0.70492
 H293 H 0.11886 0.79409 0.66632
 Cu294 Cu 0.15379 0.84644 0.68362
 Cu295 Cu 0.15424 0.81404 0.65419
 Cu296 Cu 0.18515 0.84739 0.65276
 N297 N 0.17201 0.86433 0.68380
 N298 N 0.18413 0.86466 0.67156
 C299 C 0.19478 0.87846 0.67429
 C300 C 0.18905 0.88739 0.68904
 C301 C 0.17453 0.87797 0.69472
 H302 H 0.20577 0.88177 0.66599
 H303 H 0.16629 0.88090 0.70585
 N304 N 0.18388 0.82854 0.63509
 N305 N 0.17207 0.81590 0.63555
 C306 C 0.17462 0.80518 0.62178
 C307 C 0.18880 0.81129 0.61216
 C308 C 0.19430 0.82615 0.62106
 H309 H 0.16672 0.79375 0.61901
 H310 H 0.20513 0.83462 0.61764
 H311 H 0.17388 0.82787 0.66709
 H312 H 0.15876 0.84073 0.65275
 N313 N 0.36462 0.68392 0.67155
 N314 N 0.36442 0.67171 0.68369
 C315 C 0.37813 0.67420 0.69454
 C316 C 0.38747 0.68879 0.68894
 C317 C 0.37842 0.69459 0.67428
 H318 H 0.38108 0.66597 0.70567
 H319 H 0.38160 0.70570 0.66609
 Cu320 Cu 0.34624 0.65375 0.68403
 Cu321 Cu 0.34710 0.68505 0.65301
 Cu322 Cu 0.31496 0.65288 0.65298
 N323 N 0.32830 0.63556 0.68365
 N324 N 0.31609 0.63535 0.67151
 C325 C 0.30544 0.62154 0.67421
 C326 C 0.31123 0.61249 0.68886
 C327 C 0.32581 0.62184 0.69449
 H328 H 0.29434 0.61836 0.66601
 H329 H 0.33405 0.61889 0.70562
 N330 N 0.31603 0.67173 0.63534
 N331 N 0.32827 0.68397 0.63535
 C332 C 0.32559 0.69475 0.62164
 C333 C 0.31095 0.68905 0.61247
 C334 C 0.30526 0.67441 0.62162
 H335 H 0.33379 0.70588 0.61854
 H336 H 0.29414 0.66621 0.61850
 H337 H 0.32720 0.67276 0.66670
 H338 H 0.34151 0.65851 0.65284
 N339 N 0.36485 0.18364 1.17135
 N340 N 0.36423 0.17190 1.18393
 C341 C 0.37762 0.17475 1.19508
 C342 C 0.38720 0.18907 1.18920
 C343 C 0.37859 0.19437 1.17408
 H344 H 0.38032 0.16678 1.20646
 H345 H 0.38219 0.20501 1.16545
 Cu346 Cu 0.34632 0.15366 1.18411
 Cu347 Cu 0.34866 0.18322 1.15163
 Cu348 Cu 0.31368 0.15438 1.15465
 N349 N 0.32880 0.13508 1.18317
 N350 N 0.31614 0.13537 1.17151
 C351 C 0.30552 0.12152 1.17408
 C352 C 0.31181 0.11192 1.18819
 C353 C 0.32667 0.12097 1.19358
 H354 H 0.29393 0.11887 1.16638
 H355 H 0.33517 0.11773 1.20442
 N356 N 0.31569 0.17213 1.13599
 N357 N 0.32888 0.18329 1.13498
 C358 C 0.32646 0.19377 1.12100
 C359 C 0.31106 0.18890 1.11263
 C360 C 0.30462 0.17510 1.12257
 H361 H 0.33537 0.20411 1.11718
 H362 H 0.29279 0.16766 1.12021
 H363 H 0.32866 0.17389 1.16667
 H364 H 0.34023 0.15720 1.15301
 N365 N 0.86449 0.68389 1.17173
 N366 N 0.86413 0.67185 1.18402
 C367 C 0.87783 0.67436 1.19488
 C368 C 0.88732 0.68878 1.18911
 C369 C 0.87838 0.69447 1.17435
 H370 H 0.88068 0.66623 1.20611
 H371 H 0.88169 0.70543 1.16603
 Cu372 Cu 0.84590 0.65396 1.18451
 Cu373 Cu 0.84706 0.68494 1.15312
 Cu374 Cu 0.81491 0.65280 1.15313
 N375 N 0.82800 0.63574 1.18402
 N376 N 0.81595 0.63539 1.17173
 C377 C 0.80538 0.62150 1.17435
 C378 C 0.81107 0.61255 1.18910
 C379 C 0.82549 0.62204 1.19488
 H380 H 0.79442 0.61818 1.16602
 H381 H 0.83363 0.61919 1.20610
 N382 N 0.81606 0.67156 1.13542
 N383 N 0.82829 0.68379 1.13542
 C384 C 0.82562 0.69456 1.12170
 C385 C 0.81098 0.68885 1.11254
 C386 C 0.80528 0.67422 1.12170
 H387 H 0.83381 0.70569 1.11860
 H388 H 0.79414 0.66603 1.11861
 H389 H 0.82704 0.67282 1.16679
 H390 H 0.84149 0.65841 1.15323
 N391 N 0.86451 0.18379 0.67149
 N392 N 0.86457 0.17132 0.68336
 C393 C 0.87823 0.17387 0.69427
 C394 C 0.88729 0.18873 0.68894
 C395 C 0.87810 0.19466 0.67442
 H396 H 0.88136 0.16545 0.70520
 H397 H 0.88108 0.20597 0.66644
 Cu398 Cu 0.84695 0.15284 0.68329
 Cu399 Cu 0.84701 0.18490 0.65296
 Cu400 Cu 0.81489 0.15275 0.65297
 N401 N 0.82848 0.13520 0.68336
 N402 N 0.81601 0.13526 0.67149
 C403 C 0.80516 0.12165 0.67438
 C404 C 0.81110 0.11246 0.68889
 C405 C 0.82595 0.12153 0.69425
 H406 H 0.79385 0.11867 0.66640
 H407 H 0.83437 0.11840 0.70518
 N408 N 0.81596 0.17155 0.63532
 N409 N 0.82818 0.18379 0.63531
 C410 C 0.82551 0.19455 0.62158
 C411 C 0.81087 0.18882 0.61243
 C412 C 0.80519 0.17420 0.62160
 H413 H 0.83371 0.20567 0.61846
 H414 H 0.79408 0.16597 0.61849
 H415 H 0.82750 0.17227 0.66695
 H416 H 0.84143 0.15839 0.65233
 N417 N 0.31592 0.36455 0.67147
 N418 N 0.32815 0.36432 0.68359
 C419 C 0.32569 0.37801 0.69445
 C420 C 0.31109 0.38739 0.68885
 C421 C 0.30526 0.37836 0.67421
 H422 H 0.33398 0.38097 0.70552
 H423 H 0.29416 0.38159 0.66602
 Cu424 Cu 0.34621 0.34624 0.68360
 Cu425 Cu 0.31480 0.34710 0.65286
 Cu426 Cu 0.34704 0.31486 0.65288
 N427 N 0.36429 0.32818 0.68361
 N428 N 0.36451 0.31596 0.67150
 C429 C 0.37832 0.30530 0.67424
 C430 C 0.38736 0.31111 0.68889
 C431 C 0.37800 0.32570 0.69448
 H432 H 0.38154 0.29420 0.66606
 H433 H 0.38097 0.33398 0.70555
 N434 N 0.32820 0.31602 0.63520
 N435 N 0.31595 0.32827 0.63519
 C436 C 0.30517 0.32559 0.62149
 C437 C 0.31088 0.31094 0.61235
 C438 C 0.32553 0.30524 0.62151
 H439 H 0.29402 0.33378 0.61838
 H440 H 0.33373 0.29409 0.61842
 H441 H 0.32713 0.32721 0.66645
 H442 H 0.34133 0.34138 0.65246
 N443 N 0.31611 0.86475 0.17127
 N444 N 0.32841 0.86461 0.18332
 C445 C 0.32586 0.87826 0.19421
 C446 C 0.31118 0.88754 0.18868
 C447 C 0.30535 0.87848 0.17406
 H448 H 0.33417 0.88126 0.20526
 H449 H 0.29419 0.88163 0.16591
 Cu450 Cu 0.34677 0.84684 0.18332
 Cu451 Cu 0.31507 0.84731 0.15268
 Cu452 Cu 0.34724 0.81511 0.15275
 N453 N 0.36452 0.82845 0.18340
 N454 N 0.36465 0.81615 0.17138
 C455 C 0.37836 0.80537 0.17422
 C456 C 0.38741 0.81120 0.18885
 C457 C 0.37815 0.82589 0.19434
 H458 H 0.38151 0.79421 0.16610
 H459 H 0.38115 0.83421 0.20537
 N460 N 0.32850 0.81629 0.13502
 N461 N 0.31625 0.82853 0.13499
 C462 C 0.30550 0.82587 0.12126
 C463 C 0.31123 0.81122 0.11214
 C464 C 0.32586 0.80551 0.12132
 H465 H 0.29436 0.83407 0.11814
 H466 H 0.33407 0.79437 0.11825
 H467 H 0.32753 0.82762 0.16658
 H468 H 0.34161 0.84163 0.15226
 N469 N 0.81614 0.36491 0.17128
 N470 N 0.82836 0.36469 0.18340
 C471 C 0.82591 0.37840 0.19424
 C472 C 0.81133 0.38779 0.18862
 C473 C 0.80550 0.37875 0.17398
 H474 H 0.83416 0.38134 0.20534
 H475 H 0.79438 0.38196 0.16581
 Cu476 Cu 0.84630 0.34649 0.18377
 Cu477 Cu 0.81498 0.34740 0.15277
 Cu478 Cu 0.84715 0.31519 0.15280
 N479 N 0.86447 0.32852 0.18344
 N480 N 0.86467 0.31631 0.17132
 C481 C 0.87849 0.30564 0.17405
 C482 C 0.88754 0.31144 0.18869
 C483 C 0.87818 0.32603 0.19429
 H484 H 0.88168 0.29452 0.16588
 H485 H 0.88113 0.33428 0.20539
 N486 N 0.82830 0.31629 0.13516
 N487 N 0.81606 0.32854 0.13515
 C488 C 0.80527 0.32587 0.12145
 C489 C 0.81097 0.31122 0.11231
 C490 C 0.82562 0.30551 0.12147
 H491 H 0.79414 0.33409 0.11833
 H492 H 0.83383 0.29438 0.11837
 H493 H 0.82725 0.32750 0.16650
 H494 H 0.84153 0.34173 0.15260
 N495 N 0.81597 0.86485 0.67159
 N496 N 0.82807 0.86450 0.68384
 C497 C 0.82555 0.87816 0.69473
 C498 C 0.81109 0.88767 0.68900
 C499 C 0.80537 0.87873 0.67426
 H500 H 0.83374 0.88103 0.70591
 H501 H 0.79440 0.88208 0.66594
 Cu502 Cu 0.84617 0.84644 0.68385
 Cu503 Cu 0.81497 0.84747 0.65289
 Cu504 Cu 0.84718 0.81522 0.65292
 N505 N 0.86419 0.82830 0.68388
 N506 N 0.86453 0.81621 0.67164
 C507 C 0.87839 0.80559 0.67432
 C508 C 0.88733 0.81129 0.68907
 C509 C 0.87785 0.82576 0.69479
 H510 H 0.88173 0.79463 0.66600
 H511 H 0.88074 0.83394 0.70596
 N512 N 0.82845 0.81648 0.63515
 N513 N 0.81620 0.82873 0.63513
 C514 C 0.80544 0.82606 0.62141
 C515 C 0.81116 0.81141 0.61227
 C516 C 0.82580 0.80571 0.62144
 H517 H 0.79428 0.83424 0.61831
 H518 H 0.83399 0.79455 0.61837
 H519 H 0.82723 0.82748 0.66650
 H520 H 0.84151 0.84172 0.65265
 N521 N 0.68396 0.63533 0.67167
 N522 N 0.67149 0.63528 0.68355
 C523 C 0.67404 0.62161 0.69443
 C524 C 0.68890 0.61253 0.68908
 C525 C 0.69483 0.62171 0.67457
 H526 H 0.66562 0.61849 0.70537
 H527 H 0.70615 0.61872 0.66658
 Cu528 Cu 0.65300 0.65295 0.68349
 Cu529 Cu 0.68507 0.65284 0.65315
 Cu530 Cu 0.65290 0.68500 0.65318
 N531 N 0.63533 0.67143 0.68357
 N532 N 0.63538 0.68390 0.67170
 C533 C 0.62177 0.69477 0.67461
 C534 C 0.61258 0.68885 0.68913
 C535 C 0.62166 0.67399 0.69447
 H536 H 0.61878 0.70608 0.66662
 H537 H 0.61852 0.66557 0.70540
 N538 N 0.67173 0.68391 0.63552
 N539 N 0.68398 0.67167 0.63551
 C540 C 0.69475 0.67434 0.62179
 C541 C 0.68904 0.68898 0.61264
 C542 C 0.67439 0.69469 0.62181
 H543 H 0.70588 0.66613 0.61866
 H544 H 0.66617 0.70581 0.61870
 H545 H 0.67244 0.67234 0.66714
 H546 H 0.65853 0.65847 0.65252
 N547 N 0.68419 0.13504 0.17147
 N548 N 0.67204 0.13532 0.18368
 C549 C 0.67461 0.12168 0.19460
 C550 C 0.68916 0.11228 0.18894
 C551 C 0.69488 0.12125 0.17420
 H552 H 0.66639 0.11875 0.20574
 H553 H 0.70592 0.11798 0.16595
 Cu554 Cu 0.65371 0.15314 0.18376
 Cu555 Cu 0.68520 0.15237 0.15276
 Cu556 Cu 0.65435 0.18570 0.15424
 N557 N 0.63559 0.17121 0.18339
 N558 N 0.63574 0.18374 0.17159
 C559 C 0.62190 0.19440 0.17423
 C560 C 0.61248 0.18827 0.18851
 C561 C 0.62163 0.17349 0.19397
 H562 H 0.61906 0.20583 0.16635
 H563 H 0.61843 0.16504 0.20486
 N564 N 0.67215 0.18390 0.13562
 N565 N 0.68396 0.17124 0.13512
 C566 C 0.69437 0.17366 0.12109
 C567 C 0.68887 0.18857 0.11223
 C568 C 0.67469 0.19466 0.12188
 H569 H 0.70520 0.16518 0.11764
 H570 H 0.66678 0.20611 0.11916
 H571 H 0.67396 0.17172 0.16738
 H572 H 0.65887 0.15894 0.15291
 N573 N 0.18384 0.63533 0.17125
 N574 N 0.17153 0.63547 0.18329
 C575 C 0.17402 0.62178 0.19416
 C576 C 0.18869 0.61249 0.18864
 C577 C 0.19456 0.62157 0.17403
 H578 H 0.16571 0.61879 0.20522
 H579 H 0.20574 0.61843 0.16592
 Cu580 Cu 0.15340 0.65349 0.18346
 Cu581 Cu 0.18497 0.65284 0.15271
 Cu582 Cu 0.15278 0.68506 0.15274
 N583 N 0.13542 0.67165 0.18334
 N584 N 0.13528 0.68396 0.17131
 C585 C 0.12154 0.69470 0.17413
 C586 C 0.11247 0.68885 0.18875
 C587 C 0.12174 0.67416 0.19424
 H588 H 0.11841 0.70589 0.16603
 H589 H 0.11874 0.66585 0.20529
 N590 N 0.17162 0.68394 0.13507
 N591 N 0.18386 0.67168 0.13506
 C592 C 0.19464 0.67434 0.12134
 C593 C 0.18894 0.68900 0.11219
 C594 C 0.17430 0.69471 0.12136
 H595 H 0.20577 0.66613 0.11822
 H596 H 0.16609 0.70585 0.11826
 H597 H 0.17261 0.67265 0.16652
 H598 H 0.15845 0.65856 0.15237
 N599 N 0.18376 0.13496 0.67151
 N600 N 0.17143 0.13508 0.68353
 C601 C 0.17395 0.12141 0.69443
 C602 C 0.18866 0.11214 0.68894
 C603 C 0.19452 0.12123 0.67432
 H604 H 0.16567 0.11845 0.70552
 H605 H 0.20573 0.11812 0.66623
 Cu606 Cu 0.15340 0.15322 0.68368
 Cu607 Cu 0.18491 0.15251 0.65296
 Cu608 Cu 0.15268 0.18475 0.65299
 N609 N 0.13529 0.17128 0.68358
 N610 N 0.13517 0.18361 0.67157
 C611 C 0.12146 0.19438 0.67440
 C612 C 0.11238 0.18853 0.68902
 C613 C 0.12163 0.17382 0.69450
 H614 H 0.11835 0.20558 0.66631
 H615 H 0.11866 0.16554 0.70558
 N616 N 0.17153 0.18363 0.63532
 N617 N 0.18378 0.17138 0.63530
 C618 C 0.19454 0.17406 0.62157
 C619 C 0.18882 0.18870 0.61242
 C620 C 0.17418 0.19440 0.62160
 H621 H 0.20567 0.16585 0.61843
 H622 H 0.16595 0.20553 0.61850
 H623 H 0.17257 0.17241 0.66670
 H624 H 0.15843 0.15832 0.65259
 N625 N 0.31610 0.63520 0.32848
 N626 N 0.32856 0.63518 0.31659
 C627 C 0.32608 0.62149 0.30572
 C628 C 0.31124 0.61239 0.31109
 C629 C 0.30529 0.62156 0.32560
 H630 H 0.33447 0.61839 0.29476
 H631 H 0.29398 0.61856 0.33359
 Cu632 Cu 0.34668 0.65316 0.31648
 Cu633 Cu 0.31485 0.65277 0.34694
 Cu634 Cu 0.34704 0.68493 0.34693
 N635 N 0.36469 0.67126 0.31659
 N636 N 0.36465 0.68370 0.32848
 C637 C 0.37830 0.69450 0.32560
 C638 C 0.38749 0.68857 0.31109
 C639 C 0.37839 0.67375 0.30572
 H640 H 0.38128 0.70580 0.33359
 H641 H 0.38151 0.66538 0.29475
 N642 N 0.32812 0.68390 0.36450
 N643 N 0.31587 0.67167 0.36451
 C644 C 0.30509 0.67435 0.37822
 C645 C 0.31079 0.68898 0.38736
 C646 C 0.32544 0.69468 0.37820
 H647 H 0.29398 0.66614 0.38136
 H648 H 0.33366 0.70577 0.38132
 H649 H 0.32731 0.67245 0.33310
 H650 H 0.34134 0.65843 0.34748
 N651 N 0.31577 0.13533 0.82840
 N652 N 0.32786 0.13569 0.81614
 C653 C 0.32533 0.12207 0.80521
 C654 C 0.31087 0.11259 0.81094
 C655 C 0.30516 0.12149 0.82571
 H656 H 0.33352 0.11920 0.79403
 H657 H 0.29422 0.11813 0.83405
 Cu658 Cu 0.34597 0.15369 0.81615
 Cu659 Cu 0.31476 0.15263 0.84715
 Cu660 Cu 0.34696 0.18482 0.84714
 N661 N 0.36398 0.17179 0.81614
 N662 N 0.36432 0.18385 0.82840
 C663 C 0.37816 0.19447 0.82572
 C664 C 0.38710 0.18879 0.81095
 C665 C 0.37763 0.17434 0.80522
 H666 H 0.38150 0.20541 0.83406
 H667 H 0.38052 0.16618 0.79403
 N668 N 0.32824 0.18356 0.86494
 N669 N 0.31600 0.17132 0.86494
 C670 C 0.30524 0.17397 0.87868
 C671 C 0.31094 0.18859 0.88783
 C672 C 0.32558 0.19430 0.87867
 H673 H 0.29409 0.16579 0.88177
 H674 H 0.33375 0.20545 0.88175
 H675 H 0.32696 0.17257 0.83355
 H676 H 0.34127 0.15829 0.84736
 N677 N 0.81622 0.63529 0.82861
 N678 N 0.82852 0.63543 0.81656
 C679 C 0.82602 0.62176 0.80567
 C680 C 0.81134 0.61248 0.81120
 C681 C 0.80549 0.62156 0.82582
 H682 H 0.83432 0.61876 0.79460
 H683 H 0.79430 0.61844 0.83393
 Cu684 Cu 0.84657 0.65350 0.81654
 Cu685 Cu 0.81505 0.65277 0.84720
 Cu686 Cu 0.84724 0.68501 0.84716
 N687 N 0.86461 0.67158 0.81652
 N688 N 0.86472 0.68388 0.82855
 C689 C 0.87842 0.69464 0.82573
 C690 C 0.88751 0.68881 0.81111
 C691 C 0.87827 0.67412 0.80560
 H692 H 0.88151 0.70583 0.83382
 H693 H 0.88129 0.66583 0.79454
 N694 N 0.82840 0.68386 0.86485
 N695 N 0.81617 0.67161 0.86487
 C696 C 0.80541 0.67427 0.87860
 C697 C 0.81111 0.68890 0.88775
 C698 C 0.82574 0.69462 0.87857
 H699 H 0.79430 0.66606 0.88173
 H700 H 0.83394 0.70574 0.88167
 H701 H 0.82736 0.67266 0.83348
 H702 H 0.84152 0.65856 0.84761
 N703 N 0.81616 0.13512 0.32843
 N704 N 0.82838 0.13535 0.31631
 C705 C 0.82592 0.12165 0.30545
 C706 C 0.81133 0.11230 0.31106
 C707 C 0.80551 0.12133 0.32571
 H708 H 0.83419 0.11869 0.29434
 H709 H 0.79443 0.11810 0.33393
 Cu710 Cu 0.84641 0.15342 0.31627
 Cu711 Cu 0.81500 0.15256 0.34705
 Cu712 Cu 0.84716 0.18480 0.34700
 N713 N 0.86445 0.17148 0.31626
 N714 N 0.86463 0.18370 0.32838
 C715 C 0.87840 0.19439 0.32562
 C716 C 0.88745 0.18860 0.31096
 C717 C 0.87814 0.17399 0.30538
 H718 H 0.88159 0.20548 0.33382
 H719 H 0.88113 0.16574 0.29428
 N720 N 0.82834 0.18363 0.36470
 N721 N 0.81612 0.17138 0.36471
 C722 C 0.80533 0.17404 0.37842
 C723 C 0.81101 0.18869 0.38756
 C724 C 0.82564 0.19440 0.37840
 H725 H 0.79421 0.16584 0.38154
 H726 H 0.83382 0.20555 0.38149
 H727 H 0.82729 0.17241 0.33341
 H728 H 0.84152 0.15825 0.34741
 N729 N 0.68393 0.36464 0.32844
 N730 N 0.67146 0.36471 0.31657
 C731 C 0.67401 0.37837 0.30568
 C732 C 0.68887 0.38742 0.31104
 C733 C 0.69480 0.37823 0.32555
 H734 H 0.66559 0.38151 0.29475
 H735 H 0.70610 0.38121 0.33354
 Cu736 Cu 0.65298 0.34708 0.31663
 Cu737 Cu 0.68506 0.34715 0.34696
 Cu738 Cu 0.65294 0.31502 0.34693
 N739 N 0.63536 0.32861 0.31654
 N740 N 0.63543 0.31614 0.32841
 C741 C 0.62184 0.30527 0.32550
 C742 C 0.61264 0.31119 0.31099
 C743 C 0.62169 0.32606 0.30565
 H744 H 0.61887 0.29396 0.33348
 H745 H 0.61855 0.33448 0.29471
 N746 N 0.67175 0.31610 0.36458
 N747 N 0.68398 0.32834 0.36459
 C748 C 0.69475 0.32567 0.37831
 C749 C 0.68905 0.31103 0.38746
 C750 C 0.67442 0.30533 0.37829
 H751 H 0.70587 0.33388 0.38143
 H752 H 0.66621 0.29421 0.38140
 H753 H 0.67247 0.32770 0.33295
 H754 H 0.65854 0.34158 0.34758
 N755 N 0.68401 0.86472 0.82852
 N756 N 0.67179 0.86451 0.81638
 C757 C 0.67430 0.87817 0.80549
 C758 C 0.68890 0.88750 0.81109
 C759 C 0.69469 0.87849 0.82576
 H760 H 0.66604 0.88114 0.79439
 H761 H 0.70576 0.88172 0.83399
 Cu762 Cu 0.65364 0.84655 0.81642
 Cu763 Cu 0.68510 0.84732 0.84716
 Cu764 Cu 0.65287 0.81517 0.84720
 N765 N 0.63561 0.82846 0.81644
 N766 N 0.63540 0.81626 0.82859
 C767 C 0.62159 0.80561 0.82587
 C768 C 0.61255 0.81140 0.81120
 C769 C 0.62192 0.82597 0.80557
 H770 H 0.61836 0.79455 0.83410
 H771 H 0.61896 0.83422 0.79445
 N772 N 0.67169 0.81632 0.86489
 N773 N 0.68394 0.82855 0.86488
 C774 C 0.69473 0.82587 0.87858
 C775 C 0.68903 0.81124 0.88774
 C776 C 0.67438 0.80555 0.87861
 H777 H 0.70588 0.83405 0.88166
 H778 H 0.66619 0.79442 0.88172
 H779 H 0.67275 0.82752 0.83355
 H780 H 0.65856 0.84171 0.84757
 N781 N 0.18390 0.36443 0.82837
 N782 N 0.17182 0.36409 0.81610
 C783 C 0.17437 0.37774 0.80519
 C784 C 0.18883 0.38721 0.81092
 C785 C 0.19452 0.37828 0.82569
 H786 H 0.16619 0.38062 0.79400
 H787 H 0.20547 0.38160 0.83402
 Cu788 Cu 0.15370 0.34608 0.81611
 Cu789 Cu 0.18489 0.34709 0.84711
 Cu790 Cu 0.15267 0.31491 0.84712
 N791 N 0.13568 0.32798 0.81611
 N792 N 0.13533 0.31591 0.82838
 C793 C 0.12147 0.30531 0.82571
 C794 C 0.11254 0.31100 0.81094
 C795 C 0.12203 0.32545 0.80520
 H796 H 0.11813 0.29436 0.83405
 H797 H 0.11915 0.33362 0.79401
 N798 N 0.17139 0.31615 0.86491
 N799 N 0.18364 0.32838 0.86491
 C800 C 0.19440 0.32572 0.87864
 C801 C 0.18869 0.31110 0.88781
 C802 C 0.17405 0.30540 0.87865
 H803 H 0.20555 0.33389 0.88172
 H804 H 0.16587 0.29425 0.88174
 H805 H 0.17265 0.32712 0.83353
 H806 H 0.15835 0.34140 0.84733
 N807 N 0.18394 0.86469 0.32823
 N808 N 0.17181 0.86442 0.31601
 C809 C 0.17440 0.87803 0.30507
 C810 C 0.18895 0.88739 0.31073
 C811 C 0.19465 0.87843 0.32548
 H812 H 0.16619 0.88097 0.29393
 H813 H 0.20569 0.88168 0.33374
 Cu814 Cu 0.15348 0.84664 0.31599
 Cu815 Cu 0.18495 0.84742 0.34698
 Cu816 Cu 0.15410 0.81416 0.34558
 N817 N 0.13535 0.82862 0.31639
 N818 N 0.13550 0.81611 0.32822
 C819 C 0.12167 0.80547 0.32560
 C820 C 0.11225 0.81158 0.31130
 C821 C 0.12139 0.82634 0.30582
 H822 H 0.11884 0.79406 0.33349
 H823 H 0.11820 0.83477 0.29491
 N824 N 0.17190 0.81597 0.36420
 N825 N 0.18370 0.82861 0.36466
 C826 C 0.19412 0.82622 0.37869
 C827 C 0.18863 0.81136 0.38760
 C828 C 0.17445 0.80524 0.37798
 H829 H 0.20494 0.83471 0.38210
 H830 H 0.16656 0.79381 0.38074
 H831 H 0.17372 0.82807 0.33240
 H832 H 0.15862 0.84092 0.34684
 O833 O 0.27231 0.98282 0.24836
 O834 O 0.24801 1.01718 0.27208
 O835 O 0.24802 0.98281 0.27205
 O836 O 0.27226 1.01722 0.24838
 O837 O 0.25191 1.01724 0.22773
 O838 O 0.22767 0.98284 0.25140
 O839 O 0.22766 1.01722 0.25143
 O840 O 0.25195 0.98285 0.22771
 Cu841 Cu 0.26220 1.00000 0.26230
 Cu842 Cu 0.23775 1.00003 0.23748
 C843 C 0.26608 0.97684 0.23417
 C844 C 0.23390 1.02321 0.26560
 C845 C 0.23391 0.97682 0.26558
 C846 C 0.26601 1.02324 0.23421
 O847 O 0.25190 0.51718 0.72786
 O848 O 0.22765 0.48271 0.75148
 O849 O 0.22760 0.51710 0.75152
 O850 O 0.25195 0.48277 0.72782
 O851 O 0.27227 0.48274 0.74850
 O852 O 0.24792 0.51708 0.77220
 O853 O 0.24797 0.48269 0.77216
 O854 O 0.27222 0.51716 0.74853
 Cu855 Cu 0.23774 0.49994 0.73758
 Cu856 Cu 0.26215 0.49991 0.76243
 C857 C 0.26600 0.52320 0.73436
 C858 C 0.23387 0.47668 0.76567
 C859 C 0.23380 0.52308 0.76571
 C860 C 0.26606 0.47675 0.73431
 O861 O 0.74829 -0.01746 0.22802
 O862 O 0.77260 0.01688 0.25167
 O863 O 0.77254 -0.01753 0.25171
 O864 O 0.74833 0.01691 0.22798
 O865 O 0.72798 0.01698 0.24864
 O866 O 0.75219 -0.01746 0.27236
 O867 O 0.75225 0.01694 0.27232
 O868 O 0.72793 -0.01740 0.24867
 Cu869 Cu 0.76250 -0.00031 0.23777
 Cu870 Cu 0.73804 -0.00023 0.26259
 C871 C 0.73416 -0.02342 0.23450
 C872 C 0.76637 0.02291 0.26583
 C873 C 0.76628 -0.02353 0.26589
 C874 C 0.73421 0.02294 0.23444
 O875 O 0.77243 0.51711 0.75164
 O876 O 0.74815 0.48267 0.72803
 O877 O 0.74814 0.51709 0.72797
 O878 O 0.77248 0.48270 0.75165
 O879 O 0.75216 0.48272 0.77234
 O880 O 0.72783 0.51711 0.74866
 O881 O 0.72784 0.48269 0.74871
 O882 O 0.75211 0.51713 0.77233
 Cu883 Cu 0.76234 0.49989 0.73774
 Cu884 Cu 0.73794 0.49992 0.76259
 C885 C 0.76621 0.52314 0.76582
 C886 C 0.73406 0.47665 0.73454
 C887 C 0.73404 0.52312 0.73446
 C888 C 0.76625 0.47669 0.76583
 O889 O 0.24802 0.48286 0.22769
 O890 O 0.27229 0.51719 0.25141
 O891 O 0.27227 0.48278 0.25139
 O892 O 0.24799 0.51724 0.22777
 O893 O 0.22765 0.51723 0.24844
 O894 O 0.25193 0.48277 0.27206
 O895 O 0.25196 0.51719 0.27208
 O896 O 0.22768 0.48284 0.24836
 Cu897 Cu 0.26220 0.50002 0.23749
 Cu898 Cu 0.23776 0.50000 0.26233
 C899 C 0.23392 0.47685 0.23417
 C900 C 0.26606 0.52320 0.26559
 C901 C 0.26603 0.47674 0.26555
 C902 C 0.23387 0.52325 0.23426
 O903 O 0.74785 1.01748 0.77237
 O904 O 0.77210 0.98298 0.74874
 O905 O 0.77208 1.01736 0.74865
 O906 O 0.74779 0.98306 0.77241
 O907 O 0.72744 0.98307 0.75176
 O908 O 0.75174 1.01736 0.72800
 O909 O 0.75175 0.98299 0.72809
 O910 O 0.72750 1.01750 0.75173
 Cu911 Cu 0.76200 1.00022 0.76264
 Cu912 Cu 0.73755 1.00023 0.73782
 C913 C 0.73375 1.02353 0.76588
 C914 C 0.76588 0.97698 0.73456
 C915 C 0.76586 1.02335 0.73446
 C916 C 0.73368 0.97706 0.76593
 O917 O 0.75191 0.51720 0.22795
 O918 O 0.72765 0.48284 0.25165
 O919 O 0.72763 0.51725 0.25161
 O920 O 0.75189 0.48283 0.22795
 O921 O 0.77224 0.48280 0.24860
 O922 O 0.74798 0.51723 0.27226
 O923 O 0.74800 0.48283 0.27230
 O924 O 0.77226 0.51718 0.24859
 Cu925 Cu 0.73771 0.50003 0.23771
 Cu926 Cu 0.76217 0.50000 0.26253
 C927 C 0.76602 0.52319 0.23441
 C928 C 0.73389 0.47682 0.26583
 C929 C 0.73388 0.52326 0.26577
 C930 C 0.76601 0.47681 0.23442
 O931 O 0.25237 -0.01764 0.77231
 O932 O 0.22802 0.01693 0.74884
 O933 O 0.22799 -0.01746 0.74873
 O934 O 0.25235 0.01678 0.77247
 O935 O 0.27263 0.01685 0.75175
 O936 O 0.24827 -0.01740 0.72800
 O937 O 0.24830 0.01699 0.72812
 O938 O 0.27265 -0.01758 0.75159
 Cu939 Cu 0.23815 -0.00036 0.76268
 Cu940 Cu 0.26251 -0.00028 0.73778
 C941 C 0.26646 -0.02366 0.76577
 C942 C 0.23419 0.02298 0.73465
 C943 C 0.23417 -0.02341 0.73450
 C944 C 0.26643 0.02282 0.76596
 O945 O 0.24818 0.27215 0.98298
 O946 O 0.27217 0.24808 1.01729
 O947 O 0.27213 0.24807 0.98297
 O948 O 0.24823 0.27219 1.01730
 O949 O 0.22763 0.25176 1.01736
 O950 O 0.25153 0.22763 0.98303
 O951 O 0.25157 0.22765 1.01735
 O952 O 0.22758 0.25171 0.98304
 Cu953 Cu 0.26225 0.26218 1.00013
 Cu954 Cu 0.23750 0.23763 1.00020
 C955 C 0.23399 0.26583 0.97700
 C956 C 0.26577 0.23396 1.02332
 C957 C 0.26570 0.23394 0.97700
 C958 C 0.23405 0.26589 1.02334
 O959 O 0.24826 0.77231 0.48266
 O960 O 0.27227 0.74830 0.51702
 O961 O 0.27225 0.74825 0.48270
 O962 O 0.24828 0.77235 0.51699
 O963 O 0.22772 0.75187 0.51703
 O964 O 0.25168 0.72777 0.48276
 O965 O 0.25171 0.72783 0.51707
 O966 O 0.22770 0.75183 0.48272
 Cu967 Cu 0.26234 0.76237 0.49984
 Cu968 Cu 0.23763 0.73776 0.49990
 C969 C 0.23408 0.76596 0.47668
 C970 C 0.26589 0.73417 0.52306
 C971 C 0.26585 0.73410 0.47674
 C972 C 0.23411 0.76601 0.52301
 O973 O 0.27254 0.75169 -0.01735
 O974 O 0.24846 0.72780 0.01701
 O975 O 0.24845 0.72780 -0.01730
 O976 O 0.27250 0.75176 0.01698
 O977 O 0.25199 0.77233 0.01694
 O978 O 0.22794 0.74837 -0.01733
 O979 O 0.22796 0.74838 0.01698
 O980 O 0.25203 0.77226 -0.01738
 Cu981 Cu 0.26255 0.73769 -0.00016
 Cu982 Cu 0.23792 0.76241 -0.00020
 C983 C 0.26619 0.76585 -0.02338
 C984 C 0.23430 0.73421 0.02300
 C985 C 0.23429 0.73420 -0.02330
 C986 C 0.26614 0.76593 0.02296
 O987 O 0.22755 0.24820 0.48284
 O988 O 0.25157 0.27215 0.51715
 O989 O 0.25159 0.27215 0.48285
 O990 O 0.22756 0.24816 0.51717
 O991 O 0.24810 0.22762 0.51715
 O992 O 0.27213 0.25161 0.48285
 O993 O 0.27211 0.25161 0.51715
 O994 O 0.24809 0.22766 0.48283
 Cu995 Cu 0.23750 0.26223 0.50000
 Cu996 Cu 0.26218 0.23755 0.49999
 C997 C 0.23393 0.23405 0.47683
 C998 C 0.26574 0.26577 0.52314
 C999 C 0.26576 0.26578 0.47686
 C1000 C 0.23394 0.23400 0.52317
 O1001 O 0.74838 0.77234 0.98299
 O1002 O 0.77228 0.74819 1.01729
 O1003 O 0.77233 0.74825 0.98298
 O1004 O 0.74837 0.77231 1.01730
 O1005 O 0.72776 0.75188 1.01727
 O1006 O 0.75172 0.72782 0.98295
 O1007 O 0.75167 0.72776 1.01726
 O1008 O 0.72777 0.75191 0.98297
 Cu1009 Cu 0.76242 0.76233 1.00014
 Cu1010 Cu 0.73765 0.73778 1.00011
 C1011 C 0.73420 0.76604 0.97698
 C1012 C 0.76585 0.73407 1.02328
 C1013 C 0.76591 0.73413 0.97697
 C1014 C 0.73418 0.76599 1.02328
 O1015 O 0.74824 0.27212 0.48279
 O1016 O 0.77215 0.24799 0.51709
 O1017 O 0.77217 0.24801 0.48279
 O1018 O 0.74820 0.27207 0.51711
 O1019 O 0.72760 0.25164 0.51709
 O1020 O 0.75157 0.22758 0.48277
 O1021 O 0.75155 0.22755 0.51707
 O1022 O 0.72764 0.25169 0.48276
 Cu1023 Cu 0.76227 0.26211 0.49995
 Cu1024 Cu 0.73751 0.23755 0.49992
 C1025 C 0.73407 0.26582 0.47678
 C1026 C 0.76573 0.23385 0.52308
 C1027 C 0.76576 0.23389 0.47678
 C1028 C 0.73401 0.26576 0.52310
 O1029 O 0.77208 0.25196 -0.01724
 O1030 O 0.74820 0.22787 0.01710
 O1031 O 0.74813 0.22791 -0.01724
 O1032 O 0.77215 0.25191 0.01707
 O1033 O 0.75155 0.27238 0.01713
 O1034 O 0.72753 0.24839 -0.01718
 O1035 O 0.72759 0.24834 0.01716
 O1036 O 0.75148 0.27244 -0.01718
 Cu1037 Cu 0.76221 0.23785 -0.00009
 Cu1038 Cu 0.73746 0.26244 -0.00001
 C1039 C 0.76566 0.26612 -0.02321
 C1040 C 0.73402 0.23420 0.02315
 C1041 C 0.73394 0.23426 -0.02322
 C1042 C 0.76575 0.26604 0.02309
 O1043 O 0.77217 0.75190 0.48291
 O1044 O 0.74827 0.72786 0.51730
 O1045 O 0.74822 0.72786 0.48299
 O1046 O 0.77225 0.75188 0.51723
 O1047 O 0.75166 0.77237 0.51727
 O1048 O 0.72763 0.74835 0.48302
 O1049 O 0.72768 0.74835 0.51733
 O1050 O 0.75158 0.77239 0.48295
 Cu1051 Cu 0.76230 0.73781 0.50010
 Cu1052 Cu 0.73756 0.76243 0.50015
 C1053 C 0.76575 0.76604 0.47692
 C1054 C 0.73410 0.73421 0.52332
 C1055 C 0.73403 0.73421 0.47701
 C1056 C 0.76585 0.76602 0.52324
 O1057 O 1.01718 0.27236 0.24857
 O1058 O 0.98270 0.24804 0.27211
 O1059 O 1.01713 0.24811 0.27225
 O1060 O 0.98274 0.27239 0.24852
 O1061 O 0.98282 0.25211 0.22783
 O1062 O 1.01723 0.22784 0.25155
 O1063 O 0.98280 0.22776 0.25142
 O1064 O 1.01725 0.25208 0.22788
 Cu1065 Cu 0.99993 0.26227 0.26245
 Cu1066 Cu 1.00003 0.23790 0.23758
 C1067 C 1.02324 0.26616 0.23439
 C1068 C 0.97673 0.23395 0.26559
 C1069 C 1.02319 0.23404 0.26576
 C1070 C 0.97678 0.26619 0.23431
 O1071 O 0.51712 0.27216 0.74867
 O1072 O 0.48269 0.24784 0.77229
 O1073 O 0.51713 0.24792 0.77236
 O1074 O 0.48268 0.27214 0.74864
 O1075 O 0.48276 0.25185 0.72797
 O1076 O 0.51722 0.22762 0.75168
 O1077 O 0.48277 0.22754 0.75161
 O1078 O 0.51719 0.25187 0.72799
 Cu1079 Cu 0.49989 0.26206 0.76257
 Cu1080 Cu 0.49999 0.23767 0.73773
 C1081 C 0.52318 0.26596 0.73450
 C1082 C 0.47671 0.23374 0.76579
 C1083 C 0.52320 0.23385 0.76587
 C1084 C 0.47670 0.26593 0.73445
 O1085 O 0.01701 0.24790 0.72791
 O1086 O -0.01742 0.27232 0.75145
 O1087 O 0.01702 0.27224 0.75150
 O1088 O -0.01742 0.24795 0.72792
 O1089 O -0.01746 0.22772 0.74867
 O1090 O 0.01698 0.25201 0.77226
 O1091 O -0.01746 0.25209 0.77221
 O1092 O 0.01698 0.22767 0.74867
 Cu1093 Cu -0.00019 0.26214 0.73760
 Cu1094 Cu -0.00024 0.23784 0.76255
 C1095 C 0.02300 0.23381 0.73446
 C1096 C -0.02346 0.26617 0.76565
 C1097 C 0.02301 0.26607 0.76572
 C1098 C -0.02346 0.23390 0.73446
 O1099 O 0.48290 0.27209 0.25145
 O1100 O 0.51735 0.24782 0.22780
 O1101 O 0.48293 0.24780 0.22783
 O1102 O 0.51733 0.27210 0.25144
 O1103 O 0.51737 0.25181 0.27214
 O1104 O 0.48296 0.22750 0.24852
 O1105 O 0.51740 0.22753 0.24850
 O1106 O 0.48293 0.25180 0.27215
 Cu1107 Cu 0.50013 0.26200 0.23754
 Cu1108 Cu 0.50017 0.23762 0.26242
 C1109 C 0.47689 0.26588 0.26564
 C1110 C 0.52339 0.23374 0.23430
 C1111 C 0.47693 0.23371 0.23434
 C1112 C 0.52337 0.26590 0.26563
 O1113 O 0.98291 0.75222 0.72787
 O1114 O 1.01727 0.72788 0.75157
 O1115 O 0.98284 0.72791 0.75151
 O1116 O 1.01732 0.75216 0.72792
 O1117 O 1.01730 0.77245 0.74861
 O1118 O 0.98281 0.74819 0.77220
 O1119 O 1.01724 0.74816 0.77226
 O1120 O 0.98287 0.77251 0.74856
 Cu1121 Cu 1.00009 0.73800 0.73763
 Cu1122 Cu 1.00005 0.76237 0.76250
 C1123 C 0.97689 0.76632 0.73435
 C1124 C 1.02326 0.73407 0.76577
 C1125 C 0.97680 0.73411 0.76569
 C1126 C 1.02334 0.76624 0.73443
 O1127 O 0.51716 0.77240 0.24868
 O1128 O 0.48267 0.74806 0.27217
 O1129 O 0.51711 0.74808 0.27228
 O1130 O 0.48274 0.77241 0.24857
 O1131 O 0.48284 0.75215 0.22786
 O1132 O 0.51720 0.72783 0.25156
 O1133 O 0.48276 0.72782 0.25145
 O1134 O 0.51724 0.75215 0.22796
 Cu1135 Cu 0.49991 0.76228 0.26253
 Cu1136 Cu 0.50002 0.73794 0.23762
 C1137 C 0.52321 0.76622 0.23449
 C1138 C 0.47669 0.73399 0.26563
 C1139 C 0.52317 0.73402 0.26576
 C1140 C 0.47680 0.76623 0.23435
 O1141 O 0.01715 0.75206 0.27220
 O1142 O -0.01731 0.72777 0.24865
 O1143 O 0.01713 0.72777 0.24857
 O1144 O -0.01729 0.75212 0.27222
 O1145 O -0.01731 0.77238 0.25150
 O1146 O 0.01709 0.74803 0.22785
 O1147 O -0.01734 0.74803 0.22793
 O1148 O 0.01714 0.77232 0.25147
 Cu1149 Cu -0.00008 0.73789 0.26250
 Cu1150 Cu -0.00011 0.76224 0.23760
 C1151 C 0.02317 0.76613 0.26566
 C1152 C -0.02334 0.73395 0.23446
 C1153 C 0.02311 0.73395 0.23436
 C1154 C -0.02332 0.76620 0.26570
 O1155 O 0.48269 0.77251 0.75167
 O1156 O 0.51712 0.74817 0.72803
 O1157 O 0.48268 0.74820 0.72804
 O1158 O 0.51714 0.77247 0.75165
 O1159 O 0.51714 0.75219 0.77236
 O1160 O 0.48268 0.72792 0.74875
 O1161 O 0.51713 0.72789 0.74874
 O1162 O 0.48269 0.75223 0.77238
 Cu1163 Cu 0.49990 0.76237 0.73776
 Cu1164 Cu 0.49991 0.73802 0.76264
 C1165 C 0.47667 0.76632 0.76587
 C1166 C 0.52315 0.73408 0.73454
 C1167 C 0.47666 0.73412 0.73455
 C1168 C 0.52316 0.76627 0.76584
 C1169 C 0.43442 0.28900 0.28855
 C1170 C 0.42681 0.30398 0.28117
 C1171 C 0.41158 0.31118 0.28847
 C1172 C 0.40370 0.30348 0.30328
 C1173 C 0.41146 0.28834 0.31052
 C1174 C 0.42669 0.28118 0.30320
 C1175 C 0.44982 0.28129 0.28078
 C1176 C 0.46242 0.27449 0.27406
 H1177 H 0.43260 0.31005 0.26972
 H1178 H 0.40603 0.32275 0.28241
 H1179 H 0.40584 0.28192 0.32182
 H1180 H 0.43238 0.26947 0.30893
 C1181 C 0.43421 0.78955 0.78876
 C1182 C 0.42627 0.80415 0.78101
 C1183 C 0.41092 0.81127 0.78817
 C1184 C 0.40319 0.80388 0.80327
 C1185 C 0.41140 0.78911 0.81089
 C1186 C 0.42674 0.78205 0.80369
 C1187 C 0.44963 0.78182 0.78103
 C1188 C 0.46223 0.77499 0.77431
 H1189 H 0.43187 0.80998 0.76935
 H1190 H 0.40522 0.82253 0.78170
 H1191 H 0.40611 0.78282 0.82241
 H1192 H 0.43270 0.77064 0.80973
 C1193 C -0.06596 0.28936 0.78843
 C1194 C -0.07372 0.30418 0.78087
 C1195 C -0.08898 0.31137 0.78811
 C1196 C -0.09674 0.30382 0.80307
 C1197 C -0.08883 0.28884 0.81049
 C1198 C -0.07358 0.28169 0.80321
 C1199 C -0.05055 0.28165 0.78069
 C1200 C -0.03793 0.27482 0.77401
 H1201 H -0.06802 0.31013 0.76931
 H1202 H -0.09464 0.32280 0.78191
 H1203 H -0.09435 0.28254 0.82190
 H1204 H -0.06777 0.27011 0.80908
 C1205 C -0.06580 0.78932 0.28860
 C1206 C -0.07360 0.80410 0.28102
 C1207 C -0.08892 0.81122 0.28822
 C1208 C -0.09669 0.80363 0.30315
 C1209 C -0.08872 0.78871 0.31061
 C1210 C -0.07341 0.78163 0.30338
 C1211 C -0.05038 0.78163 0.28085
 C1212 C -0.03777 0.77484 0.27413
 H1213 H -0.06790 0.81007 0.26947
 H1214 H -0.09461 0.82262 0.28200
 H1215 H -0.09424 0.78239 0.32201
 H1216 H -0.06756 0.77009 0.30927
 C1217 C 0.56560 0.71091 0.28871
 C1218 C 0.57332 0.71874 0.30335
 C1219 C 0.58854 0.71159 0.31067
 C1220 C 0.59632 0.69646 0.30344
 C1221 C 0.58846 0.68875 0.28863
 C1222 C 0.57323 0.69594 0.28133
 C1223 C 0.55021 0.71860 0.28093
 C1224 C 0.53761 0.72540 0.27419
 H1225 H 0.56761 0.73044 0.30906
 H1226 H 0.59415 0.71801 0.32196
 H1227 H 0.59402 0.67719 0.28258
 H1228 H 0.56745 0.68987 0.26988
 C1229 C 0.56555 0.21063 0.78894
 C1230 C 0.57325 0.21837 0.80364
 C1231 C 0.58840 0.21109 0.81103
 C1232 C 0.59612 0.19593 0.80379
 C1233 C 0.58827 0.18831 0.78894
 C1234 C 0.57311 0.19562 0.78158
 C1235 C 0.55022 0.21841 0.78111
 C1236 C 0.53765 0.22523 0.77434
 H1237 H 0.56760 0.23010 0.80935
 H1238 H 0.59400 0.21745 0.82236
 H1239 H 0.59378 0.17674 0.78288
 H1240 H 0.56735 0.18961 0.77009
 C1241 C 1.06557 0.71082 0.78883
 C1242 C 1.07331 0.69598 0.78131
 C1243 C 1.08855 0.68878 0.78859
 C1244 C 1.09630 0.69635 0.80353
 C1245 C 1.08838 0.71131 0.81095
 C1246 C 1.07315 0.71848 0.80363
 C1247 C 1.05022 0.71857 0.78101
 C1248 C 1.03767 0.72541 0.77424
 H1249 H 1.06764 0.69004 0.76975
 H1250 H 1.09421 0.67735 0.78241
 H1251 H 1.09389 0.71761 0.82236
 H1252 H 1.06734 0.73007 0.80947
 C1253 C 1.06551 0.21085 0.28886
 C1254 C 1.07325 0.19601 0.28134
 C1255 C 1.08843 0.18875 0.28868
 C1256 C 1.09612 0.19625 0.30368
 C1257 C 1.08821 0.21123 0.31109
 C1258 C 1.07304 0.21846 0.30372
 C1259 C 1.05017 0.21861 0.28103
 C1260 C 1.03761 0.22542 0.27424
 H1261 H 1.06762 0.19011 0.26973
 H1262 H 1.09409 0.17732 0.28249
 H1263 H 1.09369 0.21749 0.32253
 H1264 H 1.06724 0.23005 0.30955
 C1265 C 0.56558 0.28913 0.71155
 C1266 C 0.57316 0.30410 0.71892
 C1267 C 0.58838 0.31132 0.71161
 C1268 C 0.59626 0.30363 0.69679
 C1269 C 0.58852 0.28850 0.68956
 C1270 C 0.57332 0.28132 0.69689
 C1271 C 0.55021 0.28141 0.71934
 C1272 C 0.53762 0.27459 0.72608
 H1273 H 0.56737 0.31016 0.73037
 H1274 H 0.59390 0.32288 0.71766
 H1275 H 0.59414 0.28209 0.67825
 H1276 H 0.56764 0.26962 0.69117
 C1277 C 0.56559 0.78937 0.21154
 C1278 C 0.57353 0.80400 0.21924
 C1279 C 0.58881 0.81111 0.21199
 C1280 C 0.59641 0.80367 0.19690
 C1281 C 0.58829 0.78892 0.18931
 C1282 C 0.57302 0.78184 0.19659
 C1283 C 0.55022 0.78168 0.21934
 C1284 C 0.53764 0.77488 0.22608
 H1285 H 0.56797 0.80984 0.23092
 H1286 H 0.59462 0.82239 0.21830
 H1287 H 0.59368 0.78272 0.17778
 H1288 H 0.56706 0.77042 0.19061
 C1289 C 1.06559 0.28932 0.21135
 C1290 C 1.07293 0.30454 0.21845
 C1291 C 1.08807 0.31182 0.21105
 C1292 C 1.09611 0.30396 0.19641
 C1293 C 1.08862 0.28858 0.18945
 C1294 C 1.07349 0.28133 0.19687
 C1295 C 1.05025 0.28159 0.21920
 C1296 C 1.03768 0.27479 0.22597
 H1297 H 1.06702 0.31074 0.22977
 H1298 H 1.09341 0.32356 0.21692
 H1299 H 1.09437 0.28204 0.17828
 H1300 H 1.06800 0.26944 0.19137
 C1301 C 1.06564 0.78942 0.71132
 C1302 C 1.07329 0.78164 0.69660
 C1303 C 1.08844 0.78884 0.68918
 C1304 C 1.09621 0.80397 0.69640
 C1305 C 1.08838 0.81166 0.71125
 C1306 C 1.07323 0.80442 0.71864
 C1307 C 1.05033 0.78167 0.71920
 C1308 C 1.03777 0.77486 0.72599
 H1309 H 1.06762 0.76992 0.69092
 H1310 H 1.09402 0.78245 0.67785
 H1311 H 1.09393 0.82321 0.71728
 H1312 H 1.06750 0.81045 0.73014
 C1313 C 0.43432 0.71093 0.71152
 C1314 C 0.42658 0.69609 0.71904
 C1315 C 0.41137 0.68889 0.71173
 C1316 C 0.40363 0.69644 0.69677
 C1317 C 0.41154 0.71141 0.68936
 C1318 C 0.42675 0.71858 0.69669
 C1319 C 0.44967 0.71867 0.71934
 C1320 C 0.46223 0.72549 0.72611
 H1321 H 0.43225 0.69014 0.73061
 H1322 H 0.40573 0.67744 0.71790
 H1323 H 0.40604 0.71771 0.67793
 H1324 H 0.43254 0.73017 0.69085
 C1325 C 0.43444 0.21071 0.21143
 C1326 C 0.42640 0.19618 0.21921
 C1327 C 0.41105 0.18915 0.21203
 C1328 C 0.40347 0.19659 0.19693
 C1329 C 0.41170 0.21123 0.18923
 C1330 C 0.42705 0.21822 0.19644
 C1331 C 0.44987 0.21834 0.21918
 C1332 C 0.46248 0.22510 0.22592
 H1333 H 0.43194 0.19034 0.23091
 H1334 H 0.40518 0.17794 0.21841
 H1335 H 0.40633 0.21742 0.17768
 H1336 H 0.43309 0.22957 0.19038
 C1337 C -0.06567 0.71073 0.21150
 C1338 C -0.07311 0.71825 0.19654
 C1339 C -0.08836 0.71113 0.18926
 C1340 C -0.09645 0.69636 0.19686
 C1341 C -0.08883 0.68893 0.21195
 C1342 C -0.07357 0.69608 0.21920
 C1343 C -0.05032 0.71847 0.21929
 C1344 C -0.03775 0.72530 0.22603
 H1345 H -0.06718 0.72969 0.19056
 H1346 H -0.09376 0.71732 0.17773
 H1347 H -0.09461 0.67763 0.21827
 H1348 H -0.06800 0.69024 0.23088
 C1349 C -0.06585 0.21079 0.71150
 C1350 C -0.07345 0.19582 0.71887
 C1351 C -0.08869 0.18865 0.71159
 C1352 C -0.09658 0.19639 0.69679
 C1353 C -0.08881 0.21150 0.68954
 C1354 C -0.07358 0.21863 0.69685
 C1355 C -0.05048 0.21848 0.71930
 C1356 C -0.03790 0.22527 0.72604
 H1357 H -0.06766 0.18973 0.73031
 H1358 H -0.09423 0.17710 0.71764
 H1359 H -0.09442 0.21793 0.67824
 H1360 H -0.06788 0.23032 0.69112
 C1361 C 0.28907 0.43423 0.28844
 C1362 C 0.28122 0.42650 0.30307
 C1363 C 0.28836 0.41128 0.31039
 C1364 C 0.30352 0.40351 0.30317
 C1365 C 0.31125 0.41137 0.28836
 C1366 C 0.30406 0.42660 0.28107
 C1367 C 0.28140 0.44964 0.28067
 C1368 C 0.27463 0.46226 0.27395
 H1369 H 0.26950 0.43220 0.30878
 H1370 H 0.28192 0.40567 0.32168
 H1371 H 0.32282 0.40582 0.28232
 H1372 H 0.31016 0.43238 0.26962
 C1373 C 0.28961 -0.06623 0.78854
 C1374 C 0.28208 -0.07369 0.80346
 C1375 C 0.28915 -0.08900 0.81070
 C1376 C 0.30395 -0.09720 0.80311
 C1377 C 0.31136 -0.08949 0.78800
 C1378 C 0.30424 -0.07418 0.78082
 C1379 C 0.28192 -0.05079 0.78081
 C1380 C 0.27511 -0.03815 0.77413
 H1381 H 0.27065 -0.06772 0.80947
 H1382 H 0.28284 -0.09428 0.82221
 H1383 H 0.32264 -0.09519 0.78156
 H1384 H 0.31009 -0.06859 0.76916
 C1385 C 0.78927 0.43416 0.78872
 C1386 C 0.80407 0.42636 0.78120
 C1387 C 0.81121 0.41109 0.78847
 C1388 C 0.80364 0.40331 0.80345
 C1389 C 0.78862 0.41133 0.81080
 C1390 C 0.78154 0.42659 0.80349
 C1391 C 0.78162 0.44959 0.78096
 C1392 C 0.77486 0.46221 0.77424
 H1393 H 0.81005 0.43202 0.76964
 H1394 H 0.82263 0.40550 0.78217
 H1395 H 0.78217 0.40596 0.82219
 H1396 H 0.76997 0.43245 0.80932
 C1397 C 0.78922 -0.06608 0.28880
 C1398 C 0.78148 -0.07366 0.30356
 C1399 C 0.78852 -0.08897 0.31082
 C1400 C 0.80350 -0.09702 0.30343
 C1401 C 0.81109 -0.08921 0.28847
 C1402 C 0.80399 -0.07390 0.28126
 C1403 C 0.78159 -0.05063 0.28105
 C1404 C 0.77485 -0.03800 0.27432
 H1405 H 0.76993 -0.06779 0.30942
 H1406 H 0.78206 -0.09435 0.32221
 H1407 H 0.82250 -0.09481 0.28216
 H1408 H 0.80999 -0.06822 0.26971
 C1409 C 0.28915 0.56559 0.71137
 C1410 C 0.28150 0.57316 0.69655
 C1411 C 0.28865 0.58838 0.68924
 C1412 C 0.30360 0.59630 0.69666
 C1413 C 0.31116 0.58856 0.71163
 C1414 C 0.30397 0.57334 0.71891
 C1415 C 0.28143 0.55022 0.71917
 C1416 C 0.27462 0.53764 0.72592
 H1417 H 0.26992 0.56736 0.69068
 H1418 H 0.28235 0.59388 0.67781
 H1419 H 0.32259 0.59422 0.71782
 H1420 H 0.30992 0.56766 0.73048
 C1421 C 0.28926 1.06546 0.21109
 C1422 C 0.28143 1.07322 0.19646
 C1423 C 0.28875 1.08829 0.18900
 C1424 C 0.30405 1.09586 0.19609
 C1425 C 0.31176 1.08795 0.21089
 C1426 C 0.30440 1.07289 0.21832
 C1427 C 0.28146 1.05019 0.21897
 C1428 C 0.27463 1.03766 0.22576
 H1429 H 0.26960 1.06768 0.19085
 H1430 H 0.28233 1.09394 0.17772
 H1431 H 0.32342 1.09337 0.21686
 H1432 H 0.31047 1.06708 0.22977
 C1433 C 0.78919 0.56550 0.21141
 C1434 C 0.80383 0.57341 0.21912
 C1435 C 0.81096 0.58868 0.21190
 C1436 C 0.80351 0.59631 0.19683
 C1437 C 0.78874 0.58822 0.18922
 C1438 C 0.78165 0.57295 0.19647
 C1439 C 0.78147 0.55014 0.21919
 C1440 C 0.77466 0.53758 0.22595
 H1441 H 0.80968 0.56782 0.23080
 H1442 H 0.82225 0.59447 0.21823
 H1443 H 0.78254 0.59363 0.17770
 H1444 H 0.77021 0.56702 0.19048
 C1445 C 0.78905 1.06557 0.71136
 C1446 C 0.78122 1.07330 0.69670
 C1447 C 0.78835 1.08853 0.68942
 C1448 C 0.80345 1.09631 0.69671
 C1449 C 0.81118 1.08841 0.71149
 C1450 C 0.80402 1.07317 0.71875
 C1451 C 0.78133 1.05024 0.71917
 C1452 C 0.77450 1.03771 0.72596
 H1453 H 0.76954 1.06760 0.69096
 H1454 H 0.78192 1.09416 0.67812
 H1455 H 0.82273 1.09395 0.71757
 H1456 H 0.81010 1.06737 0.73019
 C1457 C 0.71089 0.56577 0.28865
 C1458 C 0.71876 0.57348 0.30327
 C1459 C 0.71162 0.58870 0.31059
 C1460 C 0.69647 0.59648 0.30338
 C1461 C 0.68874 0.58864 0.28857
 C1462 C 0.69591 0.57341 0.28128
 C1463 C 0.71854 0.55036 0.28089
 C1464 C 0.72530 0.53774 0.27418
 H1465 H 0.73047 0.56777 0.30898
 H1466 H 0.71807 0.59430 0.32188
 H1467 H 0.67717 0.59420 0.28253
 H1468 H 0.68981 0.56764 0.26984
 C1469 C 0.71076 1.06608 0.78880
 C1470 C 0.71842 1.07360 0.80361
 C1471 C 0.71133 1.08885 0.81093
 C1472 C 0.69637 1.09694 0.80352
 C1473 C 0.68885 1.08919 0.78849
 C1474 C 0.69600 1.07393 0.78124
 C1475 C 0.71841 1.05065 0.78102
 C1476 C 0.72517 1.03803 0.77429
 H1477 H 0.72996 1.06771 0.80949
 H1478 H 0.71774 1.09419 0.82235
 H1479 H 0.67745 1.09480 0.78218
 H1480 H 0.69004 1.06829 0.76966
 C1481 C 0.21066 0.56545 0.78868
 C1482 C 0.21820 0.57284 0.80363
 C1483 C 0.21123 0.58820 0.81081
 C1484 C 0.19657 0.59644 0.80312
 C1485 C 0.18908 0.58885 0.78806
 C1486 C 0.19610 0.57348 0.78091
 C1487 C 0.21833 0.55004 0.78092
 C1488 C 0.22514 0.53747 0.77417
 H1489 H 0.22958 0.56680 0.80967
 H1490 H 0.21745 0.59356 0.82233
 H1491 H 0.17786 0.59474 0.78169
 H1492 H 0.19023 0.56794 0.76923
 C1493 C 0.21087 1.06565 0.28854
 C1494 C 0.21839 1.07303 0.30351
 C1495 C 0.21134 1.08833 0.31076
 C1496 C 0.19663 1.09652 0.30311
 C1497 C 0.18921 1.08898 0.28799
 C1498 C 0.19629 1.07367 0.28078
 C1499 C 0.21852 1.05024 0.28079
 C1500 C 0.22529 1.03764 0.27405
 H1501 H 0.22978 1.06701 0.30954
 H1502 H 0.21753 1.09368 0.32230
 H1503 H 0.17796 1.09484 0.28163
 H1504 H 0.19046 1.06815 0.26908
 C1505 C 0.71094 0.43423 0.71161
 C1506 C 0.71876 0.42651 0.69695
 C1507 C 0.71158 0.41133 0.68961
 C1508 C 0.69641 0.40360 0.69683
 C1509 C 0.68871 0.41146 0.71165
 C1510 C 0.69593 0.42664 0.71897
 C1511 C 0.71865 0.44960 0.71941
 C1512 C 0.72545 0.46219 0.72613
 H1513 H 0.73048 0.43218 0.69124
 H1514 H 0.71800 0.40573 0.67830
 H1515 H 0.67713 0.40594 0.71769
 H1516 H 0.68985 0.43242 0.73042
 C1517 C 0.71094 -0.06569 0.21150
 C1518 C 0.69628 -0.07358 0.21921
 C1519 C 0.68913 -0.08884 0.21198
 C1520 C 0.69658 -0.09646 0.19690
 C1521 C 0.71136 -0.08838 0.18929
 C1522 C 0.71847 -0.07312 0.19655
 C1523 C 0.71867 -0.05034 0.21928
 C1524 C 0.72550 -0.03780 0.22604
 H1525 H 0.69043 -0.06801 0.23088
 H1526 H 0.67783 -0.09462 0.21830
 H1527 H 0.71757 -0.09378 0.17777
 H1528 H 0.72992 -0.06720 0.19056
 C1529 C 0.21096 0.43437 0.21129
 C1530 C 0.19632 0.42645 0.21901
 C1531 C 0.18935 0.41103 0.21195
 C1532 C 0.19695 0.40327 0.19702
 C1533 C 0.21171 0.41138 0.18939
 C1534 C 0.21863 0.42680 0.19648
 C1535 C 0.21856 0.44983 0.21898
 C1536 C 0.22531 0.46243 0.22571
 H1537 H 0.19034 0.43214 0.23056
 H1538 H 0.17804 0.40527 0.21827
 H1539 H 0.21801 0.40588 0.17797
 H1540 H 0.23006 0.43275 0.19047
 C1541 C 0.21088 -0.06558 0.71139
 C1542 C 0.21853 -0.07309 0.69654
 C1543 C 0.21144 -0.08835 0.68927
 C1544 C 0.19657 -0.09637 0.69678
 C1545 C 0.18899 -0.08865 0.71173
 C1546 C 0.19611 -0.07338 0.71897
 C1547 C 0.21863 -0.05027 0.71922
 C1548 C 0.22549 -0.03775 0.72601
 H1549 H 0.23006 -0.06724 0.69064
 H1550 H 0.21774 -0.09381 0.67783
 H1551 H 0.17760 -0.09436 0.71796
 H1552 H 0.19017 -0.06775 0.73057
 C1553 C 0.28879 0.28877 0.43452
 C1554 C 0.28112 0.30356 0.42683
 C1555 C 0.28824 0.31071 0.41155
 C1556 C 0.30318 0.30315 0.40369
 C1557 C 0.31076 0.28823 0.41156
 C1558 C 0.30360 0.28112 0.42684
 C1559 C 0.28108 0.28107 0.44990
 C1560 C 0.27431 0.27431 0.46246
 H1561 H 0.26955 0.30951 0.43258
 H1562 H 0.28193 0.32212 0.40595
 H1563 H 0.32218 0.28194 0.40597
 H1564 H 0.30956 0.26956 0.43260
 C1565 C 0.28920 0.78883 -0.06577
 C1566 C 0.28153 0.80363 -0.07342
 C1567 C 0.28870 0.81089 -0.08864
 C1568 C 0.30370 0.80341 -0.09647
 C1569 C 0.31125 0.78844 -0.08866
 C1570 C 0.30404 0.78123 -0.07345
 C1571 C 0.28149 0.78108 -0.05040
 C1572 C 0.27473 0.77434 -0.03782
 H1573 H 0.26993 0.80954 -0.06768
 H1574 H 0.28240 0.82231 -0.09420
 H1575 H 0.32271 0.78220 -0.09424
 H1576 H 0.31000 0.76965 -0.06772
 C1577 C 0.78864 0.28928 -0.06550
 C1578 C 0.78098 0.30411 -0.07313
 C1579 C 0.78812 0.31132 -0.08838
 C1580 C 0.80306 0.30378 -0.09626
 C1581 C 0.81063 0.28883 -0.08844
 C1582 C 0.80345 0.28165 -0.07319
 C1583 C 0.78092 0.28152 -0.05015
 C1584 C 0.77416 0.27471 -0.03760
 H1585 H 0.76941 0.31004 -0.06736
 H1586 H 0.78184 0.32276 -0.09393
 H1587 H 0.82205 0.28255 -0.09404
 H1588 H 0.80940 0.27007 -0.06747
 C1589 C 0.78869 0.78911 0.43454
 C1590 C 0.80351 0.78149 0.42686
 C1591 C 0.81070 0.78867 0.41162
 C1592 C 0.80315 0.80362 0.40380
 C1593 C 0.78818 0.81114 0.41165
 C1594 C 0.78102 0.80392 0.42689
 C1595 C 0.78098 0.78137 0.44991
 C1596 C 0.77424 0.77459 0.46249
 H1597 H 0.80947 0.76992 0.43259
 H1598 H 0.82214 0.78240 0.40603
 H1599 H 0.78188 0.82256 0.40608
 H1600 H 0.76943 0.80984 0.43264
 C1601 C 0.71108 0.28878 0.56550
 C1602 C 0.71876 0.30356 0.57317
 C1603 C 0.71165 0.31072 0.58846
 C1604 C 0.69672 0.30320 0.59634
 C1605 C 0.68914 0.28828 0.58850
 C1606 C 0.69628 0.28115 0.57322
 C1607 C 0.71876 0.28106 0.55011
 C1608 C 0.72550 0.27430 0.53752
 H1609 H 0.73032 0.30948 0.56739
 H1610 H 0.71796 0.32212 0.59403
 H1611 H 0.67773 0.28201 0.59411
 H1612 H 0.69031 0.26961 0.56747
 C1613 C 0.71120 0.78899 1.06565
 C1614 C 0.69639 0.78136 1.07331
 C1615 C 0.68918 0.78851 1.08856
 C1616 C 0.69672 0.80343 1.09640
 C1617 C 0.71168 0.81095 1.08857
 C1618 C 0.71885 0.80377 1.07333
 C1619 C 0.71892 0.78129 1.05027
 C1620 C 0.72568 0.77453 1.03770
 H1621 H 0.69045 0.76980 1.06756
 H1622 H 0.67775 0.78223 1.09413
 H1623 H 0.71797 0.82236 1.09416
 H1624 H 0.73044 0.80970 1.06759
 C1625 C 0.21110 0.28897 1.06570
 C1626 C 0.21826 0.30423 1.07289
 C1627 C 0.21112 0.31144 1.08814
 C1628 C 0.19667 0.30346 1.09647
 C1629 C 0.18962 0.28806 1.08911
 C1630 C 0.19679 0.28088 1.07386
 C1631 C 0.21881 0.28124 1.05032
 C1632 C 0.22556 0.27446 1.03775
 H1633 H 0.22945 0.31052 1.06677
 H1634 H 0.21704 0.32321 1.09336
 H1635 H 0.17857 0.28145 1.09506
 H1636 H 0.19123 0.26897 1.06849
 C1637 C 0.21102 0.78907 0.56529
 C1638 C 0.19640 0.78126 0.57314
 C1639 C 0.18915 0.78846 0.58835
 C1640 C 0.19647 0.80362 0.59596
 C1641 C 0.21124 0.81132 0.58794
 C1642 C 0.21844 0.80409 0.57274
 C1643 C 0.21879 0.78134 0.54995
 C1644 C 0.22557 0.77456 0.53740
 H1645 H 0.19064 0.76953 0.56757
 H1646 H 0.17788 0.78205 0.59408
 H1647 H 0.21736 0.82289 0.59336
 H1648 H 0.22988 0.81015 0.56686
 C1649 C 0.28887 0.71118 0.56546
 C1650 C 0.30365 0.71882 0.57317
 C1651 C 0.31082 0.71168 0.58844
 C1652 C 0.30328 0.69674 0.59628
 C1653 C 0.28835 0.68920 0.58841
 C1654 C 0.28122 0.69638 0.57313
 C1655 C 0.28116 0.71889 0.55007
 C1656 C 0.27441 0.72565 0.53748
 H1657 H 0.30959 0.73039 0.56743
 H1658 H 0.32223 0.71796 0.59404
 H1659 H 0.28207 0.67778 0.59398
 H1660 H 0.26967 0.69043 0.56737
 C1661 C 0.28884 0.21092 1.06565
 C1662 C 0.30412 0.21808 1.07283
 C1663 C 0.31134 0.21097 1.08809
 C1664 C 0.30335 0.19655 1.09644
 C1665 C 0.28793 0.18949 1.08908
 C1666 C 0.28075 0.19664 1.07382
 C1667 C 0.28109 0.21863 1.05028
 C1668 C 0.27431 0.22540 1.03771
 H1669 H 0.31041 0.22925 1.06669
 H1670 H 0.32312 0.21689 1.09330
 H1671 H 0.28131 0.17846 1.09504
 H1672 H 0.26882 0.19107 1.06845
 C1673 C 0.78878 0.71101 1.06564
 C1674 C 0.80359 0.71866 1.07331
 C1675 C 0.81079 0.71150 1.08855
 C1676 C 0.80327 0.69655 1.09638
 C1677 C 0.78832 0.68902 1.08855
 C1678 C 0.78114 0.69621 1.07331
 C1679 C 0.78107 0.71873 1.05026
 C1680 C 0.77433 0.72550 1.03769
 H1681 H 0.80951 0.73023 1.06756
 H1682 H 0.82221 0.71778 1.09413
 H1683 H 0.78204 0.67760 1.09414
 H1684 H 0.76958 0.69028 1.06757
 C1685 C 0.78872 0.21083 0.56543
 C1686 C 0.78110 0.19604 0.57313
 C1687 C 0.78826 0.18890 0.58839
 C1688 C 0.80319 0.19647 0.59623
 C1689 C 0.81070 0.21140 0.58836
 C1690 C 0.80351 0.21851 0.57310
 C1691 C 0.78099 0.21853 0.55005
 C1692 C 0.77423 0.22529 0.53748
 H1693 H 0.76954 0.19008 0.56738
 H1694 H 0.78199 0.17748 0.59400
 H1695 H 0.82211 0.21771 0.59394
 H1696 H 0.80943 0.23007 0.56733
 C1697 C 0.71107 0.71120 0.43468
 C1698 C 0.71876 0.69642 0.42701
 C1699 C 0.71167 0.68926 0.41173
 C1700 C 0.69673 0.69681 0.40386
 C1701 C 0.68914 0.71173 0.41170
 C1702 C 0.69627 0.71885 0.42698
 C1703 C 0.71875 0.71891 0.45006
 C1704 C 0.72550 0.72567 0.46263
 H1705 H 0.73033 0.69048 0.43279
 H1706 H 0.71799 0.67786 0.40615
 H1707 H 0.67772 0.71801 0.40610
 H1708 H 0.69029 0.73040 0.43273
 C1709 C 0.71093 0.21112 -0.06552
 C1710 C 0.71841 0.19609 -0.07292
 C1711 C 0.71125 0.18879 -0.08811
 C1712 C 0.69647 0.19644 -0.09618
 C1713 C 0.68909 0.21160 -0.08861
 C1714 C 0.69628 0.21887 -0.07342
 C1715 C 0.71864 0.21893 -0.05018
 C1716 C 0.72540 0.22572 -0.03763
 H1717 H 0.72986 0.19007 -0.06700
 H1718 H 0.71743 0.17721 -0.09349
 H1719 H 0.67779 0.21797 -0.09437
 H1720 H 0.69046 0.23061 -0.06789
 C1721 C 0.21110 0.71112 -0.06548
 C1722 C 0.21848 0.69604 -0.07288
 C1723 C 0.21123 0.68875 -0.08801
 C1724 C 0.19644 0.69645 -0.09603
 C1725 C 0.18916 0.71167 -0.08847
 C1726 C 0.19646 0.71893 -0.07333
 C1727 C 0.21890 0.71889 -0.05019
 C1728 C 0.22572 0.72567 -0.03767
 H1729 H 0.22993 0.68998 -0.06700
 H1730 H 0.21732 0.67713 -0.09339
 H1731 H 0.17788 0.71808 -0.09419
 H1732 H 0.19073 0.73071 -0.06780
 C1733 C 0.21084 0.21103 0.43455
 C1734 C 0.19620 0.21883 0.42669
 C1735 C 0.18896 0.21161 0.41150
 C1736 C 0.19629 0.19643 0.40390
 C1737 C 0.21107 0.18873 0.41193
 C1738 C 0.21827 0.19599 0.42712
 C1739 C 0.21860 0.21878 0.44988
 C1740 C 0.22538 0.22554 0.46243
 H1741 H 0.19043 0.23058 0.43224
 H1742 H 0.17767 0.21801 0.40577
 H1743 H 0.21721 0.17715 0.40653
 H1744 H 0.22972 0.18993 0.43300
 C1745 C 0.28919 0.43438 0.71131
 C1746 C 0.28147 0.42683 0.69652
 C1747 C 0.28857 0.41158 0.68922
 C1748 C 0.30352 0.40360 0.69664
 C1749 C 0.31114 0.41132 0.71156
 C1750 C 0.30401 0.42658 0.71883
 C1751 C 0.28150 0.44976 0.71911
 C1752 C 0.27470 0.46233 0.72586
 H1753 H 0.26989 0.43268 0.69068
 H1754 H 0.28223 0.40609 0.67782
 H1755 H 0.32257 0.40563 0.71774
 H1756 H 0.30999 0.43224 0.73038
 C1757 C 0.28928 0.93456 0.21107
 C1758 C 0.28158 0.92701 0.19628
 C1759 C 0.28867 0.91174 0.18901
 C1760 C 0.30360 0.90375 0.19645
 C1761 C 0.31123 0.91149 0.21136
 C1762 C 0.30410 0.92677 0.21860
 C1763 C 0.28156 0.94991 0.21890
 C1764 C 0.27473 0.96245 0.22569
 H1765 H 0.27002 0.93286 0.19041
 H1766 H 0.28235 0.90625 0.17760
 H1767 H 0.32265 0.90580 0.21755
 H1768 H 0.31009 0.93244 0.23015
 C1769 C 0.78928 0.43463 0.21123
 C1770 C 0.80413 0.42686 0.21872
 C1771 C 0.81132 0.41166 0.21139
 C1772 C 0.80373 0.40396 0.19644
 C1773 C 0.78875 0.41192 0.18905
 C1774 C 0.78160 0.42711 0.19641
 C1775 C 0.78152 0.44993 0.21910
 C1776 C 0.77468 0.46244 0.22592
 H1777 H 0.81010 0.43250 0.23029
 H1778 H 0.82278 0.40599 0.21754
 H1779 H 0.78243 0.40645 0.17763
 H1780 H 0.77000 0.43294 0.19059
 C1781 C 0.78922 0.93475 0.71140
 C1782 C 0.80391 0.92683 0.71905
 C1783 C 0.81105 0.91156 0.71179
 C1784 C 0.80357 0.90395 0.69673
 C1785 C 0.78880 0.91209 0.68915
 C1786 C 0.78170 0.92736 0.69644
 C1787 C 0.78144 0.95007 0.71926
 C1788 C 0.77457 0.96260 0.72607
 H1789 H 0.80978 0.93238 0.73071
 H1790 H 0.82237 0.90576 0.71808
 H1791 H 0.78259 0.90672 0.67762
 H1792 H 0.77024 0.93331 0.69046
 C1793 C 0.71095 0.56557 0.71153
 C1794 C 0.71880 0.57331 0.69690
 C1795 C 0.71168 0.58857 0.68963
 C1796 C 0.69656 0.59636 0.69690
 C1797 C 0.68882 0.58847 0.71168
 C1798 C 0.69598 0.57320 0.71892
 C1799 C 0.71864 0.55016 0.71929
 C1800 C 0.72542 0.53756 0.72603
 H1801 H 0.73049 0.56760 0.69115
 H1802 H 0.71812 0.59420 0.67835
 H1803 H 0.67726 0.59402 0.71776
 H1804 H 0.68988 0.56739 0.73035
 C1805 C 0.71102 0.06521 0.21130
 C1806 C 0.69624 0.07304 0.21887
 C1807 C 0.68912 0.08832 0.21163
 C1808 C 0.69671 0.09604 0.19668
 C1809 C 0.71160 0.08802 0.18919
 C1810 C 0.71868 0.07274 0.19646
 C1811 C 0.71875 0.04987 0.21913
 C1812 C 0.72557 0.03733 0.22593
 H1813 H 0.69028 0.06739 0.23045
 H1814 H 0.67772 0.09404 0.21785
 H1815 H 0.71790 0.09349 0.17776
 H1816 H 0.73022 0.06686 0.19056
 C1817 C 0.21067 0.56556 0.21119
 C1818 C 0.21837 0.57310 0.19639
 C1819 C 0.21126 0.58834 0.18907
 C1820 C 0.19629 0.59630 0.19647
 C1821 C 0.18868 0.58858 0.21141
 C1822 C 0.19583 0.57334 0.21870
 C1823 C 0.21839 0.55021 0.21902
 C1824 C 0.22522 0.53765 0.22580
 H1825 H 0.22996 0.56727 0.19055
 H1826 H 0.21759 0.59383 0.17765
 H1827 H 0.17724 0.59427 0.21758
 H1828 H 0.18985 0.56768 0.23026
 C1829 C 0.21082 0.06528 0.71157
 C1830 C 0.19596 0.07303 0.71907
 C1831 C 0.18874 0.08825 0.71175
 C1832 C 0.19632 0.09598 0.69679
 C1833 C 0.21130 0.08804 0.68939
 C1834 C 0.21847 0.07283 0.69674
 C1835 C 0.21861 0.04994 0.71943
 C1836 C 0.22549 0.03740 0.72621
 H1837 H 0.18999 0.06737 0.73064
 H1838 H 0.17729 0.09390 0.71792
 H1839 H 0.21760 0.09351 0.67796
 H1840 H 0.23006 0.06701 0.69089
 C1841 C 0.28913 0.56561 0.28849
 C1842 C 0.30412 0.57321 0.28112
 C1843 C 0.31130 0.58842 0.28842
 C1844 C 0.30356 0.59628 0.30322
 C1845 C 0.28842 0.58853 0.31045
 C1846 C 0.28128 0.57333 0.30313
 C1847 C 0.28145 0.55023 0.28072
 C1848 C 0.27466 0.53764 0.27401
 H1849 H 0.31021 0.56744 0.26968
 H1850 H 0.32286 0.59397 0.28236
 H1851 H 0.28197 0.59415 0.32174
 H1852 H 0.26956 0.56764 0.30885
 C1853 C 0.28936 0.06531 0.78882
 C1854 C 0.28174 0.07276 0.80371
 C1855 C 0.28870 0.08812 0.81089
 C1856 C 0.30341 0.09629 0.80324
 C1857 C 0.31093 0.08867 0.78821
 C1858 C 0.30394 0.07330 0.78107
 C1859 C 0.28176 0.04986 0.78110
 C1860 C 0.27502 0.03725 0.77439
 H1861 H 0.27034 0.06677 0.80973
 H1862 H 0.28244 0.09353 0.82238
 H1863 H 0.32218 0.09451 0.78186
 H1864 H 0.30984 0.06772 0.76943
 C1865 C 0.78934 0.56555 0.78875
 C1866 C 0.78166 0.57313 0.80355
 C1867 C 0.78877 0.58837 0.81082
 C1868 C 0.80372 0.59631 0.80339
 C1869 C 0.81130 0.58858 0.78844
 C1870 C 0.80415 0.57332 0.78119
 C1871 C 0.78164 0.55016 0.78097
 C1872 C 0.77484 0.53758 0.77424
 H1873 H 0.77010 0.56730 0.80943
 H1874 H 0.78245 0.59387 0.82224
 H1875 H 0.82272 0.59425 0.78224
 H1876 H 0.81013 0.56764 0.76964
 C1877 C 0.78949 0.06527 0.28874
 C1878 C 0.78179 0.07285 0.30353
 C1879 C 0.78887 0.08812 0.31078
 C1880 C 0.80379 0.09608 0.30331
 C1881 C 0.81140 0.08832 0.28839
 C1882 C 0.80429 0.07305 0.28117
 C1883 C 0.78180 0.04990 0.28097
 C1884 C 0.77500 0.03733 0.27425
 H1885 H 0.77023 0.06702 0.30940
 H1886 H 0.78253 0.09362 0.32218
 H1887 H 0.82282 0.09401 0.28219
 H1888 H 0.81027 0.06738 0.26961
 C1889 C 0.71086 0.43438 0.28870
 C1890 C 0.69592 0.42678 0.28127
 C1891 C 0.68878 0.41150 0.28847
 C1892 C 0.69651 0.40358 0.30325
 C1893 C 0.71161 0.41135 0.31055
 C1894 C 0.71871 0.42662 0.30332
 C1895 C 0.71853 0.44979 0.28097
 C1896 C 0.72530 0.46239 0.27425
 H1897 H 0.68983 0.43260 0.26984
 H1898 H 0.67724 0.40596 0.28238
 H1899 H 0.71804 0.40570 0.32183
 H1900 H 0.73039 0.43231 0.30908
 C1901 C 0.71069 0.93459 0.78881
 C1902 C 0.71843 0.92698 0.80356
 C1903 C 0.71138 0.91168 0.81079
 C1904 C 0.69645 0.90373 0.80334
 C1905 C 0.68882 0.91150 0.78843
 C1906 C 0.69591 0.92681 0.78123
 C1907 C 0.71833 0.95002 0.78108
 C1908 C 0.72509 0.96263 0.77437
 H1909 H 0.72998 0.93281 0.80944
 H1910 H 0.71773 0.90615 0.82217
 H1911 H 0.67742 0.90582 0.78223
 H1912 H 0.68992 0.93251 0.76969
 C1913 C 0.21066 0.43433 0.78865
 C1914 C 0.19602 0.42642 0.78094
 C1915 C 0.18891 0.41112 0.78814
 C1916 C 0.19636 0.40348 0.80321
 C1917 C 0.21111 0.41160 0.81084
 C1918 C 0.21818 0.42689 0.80360
 C1919 C 0.21839 0.44971 0.78087
 C1920 C 0.22522 0.46227 0.77412
 H1921 H 0.19017 0.43200 0.76927
 H1922 H 0.17762 0.40533 0.78181
 H1923 H 0.21731 0.40619 0.82237
 H1924 H 0.22961 0.43283 0.80962
 C1925 C 0.21079 0.93447 0.28851
 C1926 C 0.19606 0.92666 0.28087
 C1927 C 0.18896 0.91135 0.28805
 C1928 C 0.19652 0.90361 0.30300
 C1929 C 0.21139 0.91160 0.31053
 C1930 C 0.21845 0.92690 0.30332
 C1931 C 0.21848 0.94985 0.28076
 C1932 C 0.22528 0.96242 0.27403
 H1933 H 0.19011 0.93234 0.26930
 H1934 H 0.17759 0.90564 0.28179
 H1935 H 0.21769 0.90609 0.32196
 H1936 H 0.22996 0.93276 0.30925
 C1937 C 0.43434 0.28911 0.71138
 C1938 C 0.42679 0.28144 0.69658
 C1939 C 0.41154 0.28857 0.68926
 C1940 C 0.40358 0.30352 0.69668
 C1941 C 0.41131 0.31110 0.71162
 C1942 C 0.42657 0.30393 0.71890
 C1943 C 0.44971 0.28138 0.71920
 C1944 C 0.46228 0.27456 0.72597
 H1945 H 0.43261 0.26986 0.69073
 H1946 H 0.40605 0.28226 0.67785
 H1947 H 0.40563 0.32253 0.71779
 H1948 H 0.43223 0.30989 0.73046
 C1949 C 0.43447 0.78936 0.21127
 C1950 C 0.42690 0.78163 0.19650
 C1951 C 0.41160 0.78869 0.18923
 C1952 C 0.40362 0.80362 0.19665
 C1953 C 0.41137 0.81126 0.21155
 C1954 C 0.42667 0.80416 0.21879
 C1955 C 0.44985 0.78168 0.21908
 C1956 C 0.46241 0.77488 0.22587
 H1957 H 0.43275 0.77007 0.19066
 H1958 H 0.40610 0.78234 0.17784
 H1959 H 0.40567 0.82268 0.21772
 H1960 H 0.43235 0.81016 0.23032
 C1961 C 0.93445 0.28938 0.21124
 C1962 C 0.92689 0.28170 0.19644
 C1963 C 0.91166 0.28885 0.18912
 C1964 C 0.90372 0.30382 0.19651
 C1965 C 0.91146 0.31140 0.21145
 C1966 C 0.92670 0.30422 0.21874
 C1967 C 0.94981 0.28165 0.21906
 C1968 C 0.96237 0.27483 0.22584
 H1969 H 0.93270 0.27011 0.19062
 H1970 H 0.90616 0.28253 0.17771
 H1971 H 0.90579 0.32285 0.21761
 H1972 H 0.93237 0.31018 0.23030
 C1973 C 0.93455 0.78953 0.71130
 C1974 C 0.92710 0.78198 0.69639
 C1975 C 0.91178 0.78903 0.68916
 C1976 C 0.90363 0.80378 0.69677
 C1977 C 0.91128 0.81126 0.71180
 C1978 C 0.92661 0.80417 0.71900
 C1979 C 0.94994 0.78182 0.71910
 C1980 C 0.96250 0.77499 0.72587
 H1981 H 0.93306 0.77055 0.69040
 H1982 H 0.90636 0.78281 0.67766
 H1983 H 0.90547 0.82255 0.71812
 H1984 H 0.93220 0.81005 0.73064
 C1985 C 0.56576 0.28907 0.28852
 C1986 C 0.57352 0.28125 0.30316
 C1987 C 0.58876 0.28840 0.31044
 C1988 C 0.59650 0.30352 0.30316
 C1989 C 0.58858 0.31123 0.28837
 C1990 C 0.57333 0.30405 0.28113
 C1991 C 0.55038 0.28135 0.28076
 C1992 C 0.53780 0.27453 0.27404
 H1993 H 0.56785 0.26956 0.30891
 H1994 H 0.59440 0.28198 0.32173
 H1995 H 0.59410 0.32279 0.28230
 H1996 H 0.56751 0.31012 0.26969
 C1997 C 0.56554 0.78945 0.78879
 C1998 C 0.57330 0.80426 0.78125
 C1999 C 0.58856 0.81142 0.78850
 C2000 C 0.59632 0.80383 0.80344
 C2001 C 0.58837 0.78891 0.81089
 C2002 C 0.57312 0.78179 0.80361
 C2003 C 0.55017 0.78172 0.78100
 C2004 C 0.53760 0.77490 0.77426
 H2005 H 0.56762 0.81022 0.76968
 H2006 H 0.59422 0.82284 0.78231
 H2007 H 0.59388 0.78260 0.82231
 H2008 H 0.56731 0.77023 0.80948
 C2009 C 0.06537 0.28924 0.78868
 C2010 C 0.07331 0.30387 0.78097
 C2011 C 0.08862 0.31096 0.78817
 C2012 C 0.09626 0.30349 0.80323
 C2013 C 0.08812 0.28876 0.81086
 C2014 C 0.07282 0.28171 0.80363
 C2015 C 0.04999 0.28154 0.78090
 C2016 C 0.03742 0.27472 0.77416
 H2017 H 0.06773 0.30973 0.76930
 H2018 H 0.09443 0.32223 0.78184
 H2019 H 0.09353 0.28255 0.82238
 H2020 H 0.06686 0.27029 0.80964
 C2021 C 0.06549 0.78933 0.28868
 C2022 C 0.07306 0.80432 0.28130
 C2023 C 0.08823 0.81157 0.28864
 C2024 C 0.09609 0.80391 0.30348
 C2025 C 0.08835 0.78878 0.31074
 C2026 C 0.07319 0.78157 0.30338
 C2027 C 0.05016 0.78158 0.28085
 C2028 C 0.03760 0.77476 0.27409
 H2029 H 0.06730 0.81036 0.26982
 H2030 H 0.09376 0.82313 0.28257
 H2031 H 0.09396 0.78240 0.32207
 H2032 H 0.06752 0.76986 0.30910
 C2033 C 0.56561 0.71094 0.71160
 C2034 C 0.57323 0.69597 0.71899
 C2035 C 0.58850 0.68880 0.71174
 C2036 C 0.59641 0.69652 0.69696
 C2037 C 0.58863 0.71164 0.68969
 C2038 C 0.57337 0.71878 0.69697
 C2039 C 0.55020 0.71865 0.71937
 C2040 C 0.53760 0.72545 0.72611
 H2041 H 0.56742 0.68988 0.73042
 H2042 H 0.59404 0.67724 0.71780
 H2043 H 0.59427 0.71807 0.67840
 H2044 H 0.56767 0.73047 0.69122
 C2045 C 0.56569 0.21052 0.21116
 C2046 C 0.57326 0.19550 0.21850
 C2047 C 0.58844 0.18825 0.21116
 C2048 C 0.59631 0.19594 0.19633
 C2049 C 0.58857 0.21110 0.18911
 C2050 C 0.57339 0.21831 0.19649
 C2051 C 0.55036 0.21828 0.21902
 C2052 C 0.53781 0.22510 0.22582
 H2053 H 0.56749 0.18945 0.22997
 H2054 H 0.59397 0.17667 0.21720
 H2055 H 0.59418 0.21750 0.17779
 H2056 H 0.56772 0.23004 0.19079
 C2057 C 0.06549 0.71080 0.21131
 C2058 C 0.07328 0.69597 0.21881
 C2059 C 0.08855 0.68883 0.21152
 C2060 C 0.09628 0.69645 0.19659
 C2061 C 0.08833 0.71142 0.18922
 C2062 C 0.07306 0.71852 0.19653
 C2063 C 0.05011 0.71849 0.21913
 C2064 C 0.03753 0.72529 0.22590
 H2065 H 0.06760 0.68997 0.23036
 H2066 H 0.09423 0.67739 0.21768
 H2067 H 0.09383 0.71777 0.17782
 H2068 H 0.06723 0.73010 0.19071
 C2069 C 0.06539 0.21057 0.71150
 C2070 C 0.07316 0.19574 0.71904
 C2071 C 0.08844 0.18859 0.71179
 C2072 C 0.09620 0.19618 0.69685
 C2073 C 0.08826 0.21114 0.68944
 C2074 C 0.07299 0.21825 0.69672
 C2075 C 0.05000 0.21828 0.71929
 C2076 C 0.03742 0.22512 0.72604
 H2077 H 0.06747 0.18977 0.73059
 H2078 H 0.09411 0.17716 0.71797
 H2079 H 0.09377 0.21746 0.67804
 H2080 H 0.06717 0.22983 0.69086
 C2081 C 0.43427 0.71079 0.28846
 C2082 C 0.42669 0.69580 0.28109
 C2083 C 0.41149 0.68858 0.28840
 C2084 C 0.40361 0.69627 0.30322
 C2085 C 0.41134 0.71141 0.31045
 C2086 C 0.42653 0.71859 0.30312
 C2087 C 0.44964 0.71851 0.28069
 C2088 C 0.46223 0.72534 0.27399
 H2089 H 0.43249 0.68974 0.26964
 H2090 H 0.40597 0.67702 0.28235
 H2091 H 0.40570 0.71783 0.32175
 H2092 H 0.43220 0.73030 0.30883
 C2093 C 0.43428 0.21057 0.78870
 C2094 C 0.42635 0.19596 0.78098
 C2095 C 0.41103 0.18886 0.78817
 C2096 C 0.40338 0.19631 0.80323
 C2097 C 0.41151 0.21104 0.81086
 C2098 C 0.42682 0.21810 0.80363
 C2099 C 0.44969 0.21828 0.78094
 C2100 C 0.46228 0.22509 0.77421
 H2101 H 0.43194 0.19010 0.76931
 H2102 H 0.40523 0.17759 0.78184
 H2103 H 0.40609 0.21724 0.82238
 H2104 H 0.43277 0.22952 0.80964
 C2105 C 0.93442 0.71091 0.78862
 C2106 C 0.92669 0.69610 0.78108
 C2107 C 0.91143 0.68892 0.78833
 C2108 C 0.90366 0.69648 0.80328
 C2109 C 0.91156 0.71144 0.81070
 C2110 C 0.92681 0.71858 0.80342
 C2111 C 0.94980 0.71864 0.78085
 C2112 C 0.96237 0.72547 0.77411
 H2113 H 0.93239 0.69014 0.76953
 H2114 H 0.90579 0.67749 0.78214
 H2115 H 0.90604 0.71774 0.82211
 H2116 H 0.93261 0.73014 0.80928
 C2117 C 0.93438 0.21067 0.28851
 C2118 C 0.92666 0.19585 0.28097
 C2119 C 0.91142 0.18865 0.28824
 C2120 C 0.90364 0.19623 0.30317
 C2121 C 0.91155 0.21117 0.31060
 C2122 C 0.92678 0.21832 0.30331
 C2123 C 0.94974 0.21843 0.28072
 C2124 C 0.96230 0.22529 0.27399
 H2125 H 0.93236 0.18990 0.26941
 H2126 H 0.90579 0.17722 0.28206
 H2127 H 0.90603 0.21747 0.32202
 H2128 H 0.93256 0.22991 0.30917
 C2129 C 0.28876 0.28879 0.56544
 C2130 C 0.30357 0.28114 0.57313
 C2131 C 0.31075 0.28830 0.58837
 C2132 C 0.30319 0.30325 0.59619
 C2133 C 0.28824 0.31079 0.58833
 C2134 C 0.28110 0.30360 0.57309
 C2135 C 0.28105 0.28106 0.55008
 C2136 C 0.27428 0.27429 0.53753
 H2137 H 0.30952 0.26957 0.56740
 H2138 H 0.32217 0.28201 0.59397
 H2139 H 0.28195 0.32222 0.59390
 H2140 H 0.26953 0.30955 0.56732
 C2141 C 0.28910 0.78896 0.06529
 C2142 C 0.28143 0.80378 0.07291
 C2143 C 0.28859 0.81101 0.08813
 C2144 C 0.30354 0.80350 0.09599
 C2145 C 0.31109 0.78852 0.08821
 C2146 C 0.30391 0.78132 0.07299
 C2147 C 0.28140 0.78122 0.04993
 C2148 C 0.27466 0.77445 0.03736
 H2149 H 0.26986 0.80971 0.06714
 H2150 H 0.28230 0.82245 0.09367
 H2151 H 0.32251 0.78225 0.09382
 H2152 H 0.30985 0.76974 0.06729
 C2153 C 0.78882 0.28908 0.06539
 C2154 C 0.78118 0.30390 0.07304
 C2155 C 0.78833 0.31109 0.08828
 C2156 C 0.80328 0.30354 0.09614
 C2157 C 0.81082 0.28858 0.08831
 C2158 C 0.80363 0.28143 0.07307
 C2159 C 0.78108 0.28135 0.05004
 C2160 C 0.77430 0.27458 0.03748
 H2161 H 0.76960 0.30985 0.06729
 H2162 H 0.78205 0.32252 0.09385
 H2163 H 0.82225 0.28230 0.09390
 H2164 H 0.80957 0.26986 0.06734
 C2165 C 0.78890 0.78908 0.56551
 C2166 C 0.78125 0.80391 0.57314
 C2167 C 0.78845 0.81116 0.58833
 C2168 C 0.80343 0.80366 0.59616
 C2169 C 0.81095 0.78867 0.58838
 C2170 C 0.80373 0.78145 0.57318
 C2171 C 0.78116 0.78132 0.55018
 C2172 C 0.77439 0.77455 0.53763
 H2173 H 0.76966 0.80982 0.56739
 H2174 H 0.78217 0.82260 0.59387
 H2175 H 0.82240 0.78241 0.59396
 H2176 H 0.80966 0.76986 0.56748
 C2177 C 0.28878 0.71104 0.43439
 C2178 C 0.30358 0.71868 0.42669
 C2179 C 0.31072 0.71155 0.41141
 C2180 C 0.30315 0.69664 0.40357
 C2181 C 0.28822 0.68910 0.41144
 C2182 C 0.28111 0.69626 0.42673
 C2183 C 0.28110 0.71876 0.44977
 C2184 C 0.27436 0.72554 0.46234
 H2185 H 0.30954 0.73022 0.43244
 H2186 H 0.32213 0.71783 0.40580
 H2187 H 0.28192 0.67770 0.40587
 H2188 H 0.26955 0.69033 0.43250
 C2189 C 0.28866 0.21085 0.93465
 C2190 C 0.28103 0.19604 0.92701
 C2191 C 0.28823 0.18881 0.91179
 C2192 C 0.30320 0.19632 0.90397
 C2193 C 0.31071 0.21128 0.91177
 C2194 C 0.30348 0.21848 0.92698
 C2195 C 0.28093 0.21859 0.95001
 C2196 C 0.27419 0.22538 0.96258
 H2197 H 0.26945 0.19013 0.93275
 H2198 H 0.28196 0.17739 0.90623
 H2199 H 0.32214 0.21755 0.90619
 H2200 H 0.30940 0.23005 0.93270
 C2201 C 0.78895 0.71106 0.93466
 C2202 C 0.78132 0.69625 0.92702
 C2203 C 0.78849 0.68905 0.91179
 C2204 C 0.80343 0.69658 0.90393
 C2205 C 0.81095 0.71154 0.91174
 C2206 C 0.80375 0.71870 0.92698
 C2207 C 0.78121 0.71880 0.95002
 C2208 C 0.77444 0.72558 0.96257
 H2209 H 0.76975 0.69032 0.93278
 H2210 H 0.78222 0.67762 0.90623
 H2211 H 0.82237 0.71781 0.90615
 H2212 H 0.80967 0.73028 0.93270
 C2213 C 0.78881 0.21083 0.43448
 C2214 C 0.78119 0.19601 0.42683
 C2215 C 0.78836 0.18883 0.41158
 C2216 C 0.80330 0.19637 0.40373
 C2217 C 0.81081 0.21133 0.41155
 C2218 C 0.80361 0.21848 0.42679
 C2219 C 0.78107 0.21855 0.44984
 C2220 C 0.77430 0.22533 0.46239
 H2221 H 0.76963 0.19007 0.43259
 H2222 H 0.78210 0.17740 0.40602
 H2223 H 0.82222 0.21762 0.40595
 H2224 H 0.80953 0.23005 0.43252
 C2225 C 0.71115 0.28890 0.43442
 C2226 C 0.71880 0.30370 0.42676
 C2227 C 0.71166 0.31088 0.41150
 C2228 C 0.69673 0.30335 0.40364
 C2229 C 0.68919 0.28841 0.41147
 C2230 C 0.69636 0.28126 0.42673
 C2231 C 0.71885 0.28117 0.44980
 C2232 C 0.72558 0.27439 0.46237
 H2233 H 0.73036 0.30963 0.43252
 H2234 H 0.71795 0.32230 0.40592
 H2235 H 0.67777 0.28213 0.40588
 H2236 H 0.69042 0.26969 0.43247
 C2237 C 0.71122 0.78912 0.93466
 C2238 C 0.69641 0.78148 0.92701
 C2239 C 0.68921 0.78862 0.91176
 C2240 C 0.69675 0.80355 0.90390
 C2241 C 0.71171 0.81108 0.91172
 C2242 C 0.71887 0.80390 0.92697
 C2243 C 0.71894 0.78140 0.95003
 C2244 C 0.72570 0.77462 0.96259
 H2245 H 0.69047 0.76992 0.93277
 H2246 H 0.67779 0.78235 0.90619
 H2247 H 0.71799 0.82249 0.90612
 H2248 H 0.73045 0.80983 0.93271
 C2249 C 0.21097 0.28885 0.93464
 C2250 C 0.21860 0.30366 0.92698
 C2251 C 0.21140 0.31088 0.91176
 C2252 C 0.19642 0.30337 0.90395
 C2253 C 0.18892 0.28841 0.91177
 C2254 C 0.19615 0.28122 0.92699
 C2255 C 0.21871 0.28112 0.95001
 C2256 C 0.22547 0.27436 0.96258
 H2257 H 0.23018 0.30958 0.93270
 H2258 H 0.21766 0.32230 0.90618
 H2259 H 0.17748 0.28214 0.90620
 H2260 H 0.19023 0.26964 0.93273
 C2261 C 0.21092 0.78906 0.43442
 C2262 C 0.19627 0.78126 0.42659
 C2263 C 0.18901 0.78850 0.41140
 C2264 C 0.19631 0.80366 0.40378
 C2265 C 0.21109 0.81135 0.41179
 C2266 C 0.21832 0.80409 0.42697
 C2267 C 0.21871 0.78129 0.44974
 C2268 C 0.22552 0.77450 0.46228
 H2269 H 0.19052 0.76952 0.43216
 H2270 H 0.17772 0.78210 0.40569
 H2271 H 0.21720 0.82294 0.40637
 H2272 H 0.22976 0.81015 0.43283
 C2273 C 0.71114 0.71115 0.56569
 C2274 C 0.71881 0.69634 0.57334
 C2275 C 0.71166 0.68914 0.58859
 C2276 C 0.69671 0.69667 0.59646
 C2277 C 0.68915 0.71163 0.58863
 C2278 C 0.69633 0.71879 0.57338
 C2279 C 0.71885 0.71888 0.55031
 C2280 C 0.72560 0.72566 0.53774
 H2281 H 0.73038 0.69040 0.56758
 H2282 H 0.71796 0.67772 0.59416
 H2283 H 0.67773 0.71790 0.59423
 H2284 H 0.69038 0.73036 0.56764
 C2285 C 0.71106 0.21103 0.06546
 C2286 C 0.71850 0.19597 0.07285
 C2287 C 0.71131 0.18866 0.08802
 C2288 C 0.69652 0.19632 0.09607
 C2289 C 0.68919 0.21152 0.08852
 C2290 C 0.69642 0.21880 0.07334
 C2291 C 0.71879 0.21883 0.05012
 C2292 C 0.72554 0.22563 0.03756
 H2293 H 0.72995 0.18993 0.06694
 H2294 H 0.71745 0.17705 0.09339
 H2295 H 0.67790 0.21790 0.09427
 H2296 H 0.69064 0.23056 0.06782
 C2297 C 0.21118 0.71120 0.06531
 C2298 C 0.21880 0.69637 0.07296
 C2299 C 0.21161 0.68915 0.08818
 C2300 C 0.19665 0.69669 0.09603
 C2301 C 0.18913 0.71167 0.08821
 C2302 C 0.19636 0.71885 0.07299
 C2303 C 0.21894 0.71894 0.04997
 C2304 C 0.22573 0.72570 0.03741
 H2305 H 0.23038 0.69042 0.06722
 H2306 H 0.21787 0.67771 0.09375
 H2307 H 0.17770 0.71795 0.09379
 H2308 H 0.19044 0.73044 0.06726
 C2309 C 0.21094 0.21095 0.56551
 C2310 C 0.21860 0.19612 0.57315
 C2311 C 0.21145 0.18890 0.58838
 C2312 C 0.19649 0.19642 0.59625
 C2313 C 0.18894 0.21138 0.58844
 C2314 C 0.19612 0.21857 0.57321
 C2315 C 0.21865 0.21870 0.55015
 C2316 C 0.22541 0.22547 0.53758
 H2317 H 0.23018 0.19020 0.56739
 H2318 H 0.21774 0.17746 0.59394
 H2319 H 0.17751 0.21765 0.59404
 H2320 H 0.19018 0.23016 0.56749
   
