data_POSCAR
  _audit_creation_date              2014-09-24
  _audit_creation_method            'ToBaCCo'
  _symmetry_space_group_name_H-M    'P1'
  _symmetry_Int_Tables_number       1
  _symmetry_cell_setting            triclinic
  loop_
  _symmetry_equiv_pos_as_xyz
 x,y,z
_cell_length_a 50.9117
_cell_length_b 50.2576
_cell_length_c 52.8601
_cell_angle_alpha 89.552100
_cell_angle_beta 90.613900
_cell_angle_gamma 89.204400
loop_
  _atom_site_label
  _atom_site_type_symbol
  _atom_site_fract_x
  _atom_site_fract_y
  _atom_site_fract_z
C1 C 0.39066 -0.00701 0.24739
 C2 C 0.10859 0.00826 0.75080
 C3 C 0.60720 0.49921 0.25650
 C4 C 0.89292 0.49352 0.74982
 C5 C 0.25925 0.36023 1.00375
 C6 C 0.74110 0.13529 1.00086
 C7 C 0.24444 0.63892 0.50611
 C8 C 0.75556 0.85837 0.50215
 C9 C 0.00331 0.25215 0.36581
 C10 C -0.00626 0.74906 0.12769
 C11 C 0.49933 0.24746 0.62367
 C12 C 0.50158 0.74623 0.86734
 C13 C -0.24689 0.63656 1.00226
 C14 C -0.25010 0.36159 0.49810
 C15 C 0.24554 -0.13880 0.00125
 C16 C 0.25212 1.13823 0.50234
 C17 C 0.10741 0.49951 0.25008
 C18 C -0.10967 0.99702 0.24927
 C19 C 0.39359 0.50287 -0.24687
 C20 C 0.60915 0.00016 -0.25194
 C21 C 0.00288 0.25217 0.87285
 C22 C 0.49949 0.24503 0.12494
 C23 C -0.00223 0.74813 0.62341
 C24 C 0.49726 0.75088 0.36748
 Zr25 Zr 0.01634 -0.01993 1.03369
 O26 O 0.04004 -0.00630 1.06394
 O27 O 0.01430 -0.06056 1.04146
 O28 O -0.00300 -0.02361 1.06906
 O29 O 0.06795 -0.02250 0.99137
 O30 O -0.04408 -0.00717 1.06024
 O31 O 0.05561 -0.03491 1.03109
 O32 O -0.01218 -0.07643 1.01006
 O33 O -0.02240 -0.02906 1.02331
 O34 O 0.01761 -0.03609 0.99737
 O35 O -0.00498 0.01621 1.03531
 O36 O 0.03410 0.00936 1.01099
 Zr37 Zr -0.02629 0.02005 0.96349
 Zr38 Zr -0.04302 0.00717 1.02306
 Zr39 Zr 0.03341 -0.00673 0.97454
 Zr40 Zr -0.02093 -0.04369 0.98650
 O41 O 0.06539 0.01876 0.96781
 O42 O -0.05706 -0.06059 0.99742
 O43 O -0.00458 -0.01597 0.96159
 O44 O -0.04372 -0.00878 0.98661
 O45 O -0.02777 0.03670 0.99970
 O46 O 0.01237 0.02905 0.97428
 C47 C 0.00190 -0.07922 1.03023
 C48 C 0.07256 -0.03343 1.01307
 C49 C -0.02685 -0.01769 1.07533
 O50 O -0.07703 -0.01624 1.02663
 O51 O -0.07504 0.02901 1.00824
 O52 O -0.06505 0.03684 0.96687
 C53 C -0.08031 0.03900 0.98629
 O54 O 0.03627 0.05065 1.04208
 Zr55 Zr 0.01079 0.04431 1.01065
 O56 O -0.02425 0.06034 0.95531
 O57 O -0.05331 0.03831 1.04798
 O58 O -0.00868 0.07113 1.03519
 O59 O 0.04524 0.06368 0.99849
 O60 O -0.00153 0.07755 0.98880
 C61 C -0.01401 0.07956 0.96757
 O62 O -0.05108 0.00654 0.93404
 O63 O 0.04576 -0.03992 0.95307
 O64 O -0.00725 0.02183 0.92764
 O65 O 0.03304 0.00315 0.93617
 O66 O -0.00214 -0.07300 0.96410
 O67 O -0.04270 -0.04971 0.95255
 C68 C 0.01617 0.01431 0.92114
 H69 H 0.02839 -0.05258 0.99641
 H70 H -0.06188 -0.01240 0.98082
 H71 H 0.02077 0.04191 0.96274
 H72 H -0.00487 0.02343 1.05268
 H73 H -0.05630 -0.07974 0.99314
 H74 H -0.08861 -0.00704 1.03882
 H75 H -0.07087 0.03422 1.05481
 H76 H -0.00046 0.08876 1.03311
 H77 H -0.01192 -0.08978 0.96622
 H78 H 0.06316 -0.03555 0.94603
 H79 H 0.07731 0.00935 0.95607
 H80 H 0.04341 0.08274 1.00294
 H81 H -0.04942 -0.06810 0.95233
 H82 H -0.05563 0.02228 0.92335
 H83 H 0.04484 -0.02208 1.07449
 H84 H 0.03873 0.07000 1.04437
 Zr85 Zr 0.52050 0.48230 0.53774
 O86 O 0.54875 0.49359 0.56515
 O87 O 0.51363 0.44296 0.54837
 O88 O 0.50461 0.48444 0.57501
 O89 O 0.56464 0.46689 0.49010
 O90 O 0.46753 0.50998 0.56926
 O91 O 0.55778 0.46293 0.53256
 O92 O 0.48033 0.43046 0.52193
 O93 O 0.47968 0.47968 0.53215
 O94 O 0.51448 0.46356 0.50291
 O95 O 0.50584 0.52166 0.53816
 O96 O 0.53983 0.50577 0.51053
 Zr97 Zr 0.47656 0.52427 0.46875
 Zr98 Zr 0.46548 0.51893 0.53061
 Zr99 Zr 0.53161 0.48766 0.47578
 Zr100 Zr 0.47410 0.46231 0.49678
 O101 O 0.56614 0.50635 0.46316
 O102 O 0.43737 0.45304 0.51297
 O103 O 0.49126 0.48475 0.46789
 O104 O 0.45780 0.50062 0.49597
 O105 O 0.48254 0.54337 0.50345
 O106 O 0.51729 0.52667 0.47459
 C107 C 0.49687 0.42620 0.54005
 C108 C 0.57153 0.45888 0.51240
 C109 C 0.48405 0.49696 0.58330
 O110 O 0.42962 0.50149 0.54125
 O111 O 0.43424 0.54273 0.51668
 O112 O 0.44004 0.54506 0.47398
 C113 C 0.42710 0.55042 0.49435
 O114 O 0.55346 0.54702 0.53747
 Zr115 Zr 0.52313 0.54414 0.50970
 O116 O 0.48301 0.56396 0.45897
 O117 O 0.46327 0.55452 0.55168
 O118 O 0.51275 0.57590 0.53401
 O119 O 0.55847 0.55571 0.49207
 O120 O 0.51416 0.57750 0.48728
 C121 C 0.49815 0.58146 0.46870
 O122 O 0.44745 0.51346 0.44198
 O123 O 0.53548 0.45111 0.45639
 O124 O 0.49144 0.52061 0.43119
 O125 O 0.52728 0.49330 0.43677
 O126 O 0.48507 0.42883 0.47490
 O127 O 0.44706 0.45740 0.46631
 C128 C 0.51099 0.50663 0.42275
 H129 H 0.52239 0.44548 0.50227
 H130 H 0.43871 0.49943 0.49248
 H131 H 0.52604 0.53699 0.46114
 H132 H 0.50939 0.53017 0.55465
 H133 H 0.43444 0.43378 0.51048
 H134 H 0.42109 0.51387 0.55324
 H135 H 0.44644 0.55427 0.56093
 H136 H 0.52411 0.59115 0.52985
 H137 H 0.47343 0.41401 0.47965
 H138 H 0.55228 0.45164 0.44709
 H139 H 0.57452 0.49408 0.45096
 H140 H 0.56091 0.57489 0.49547
 H141 H 0.43798 0.44022 0.46829
 H142 H 0.44419 0.52915 0.43080
 H143 H 0.55229 0.47780 0.57612
 H144 H 0.56004 0.56546 0.53782
 Zr145 Zr 0.48237 1.01883 0.52969
 O146 O 0.45764 1.00542 0.55895
 O147 O 0.48549 1.05911 0.53778
 O148 O 0.50113 1.02114 0.56583
 O149 O 0.43184 1.02461 0.48519
 O150 O 0.54119 1.00188 0.55890
 O151 O 0.44382 1.03515 0.52561
 O152 O 0.51375 1.07469 0.50808
 O153 O 0.52187 1.02608 0.52152
 O154 O 0.48308 1.03620 0.49360
 O155 O 0.50147 0.98154 0.53178
 O156 O 0.46355 0.99171 0.50543
 Zr157 Zr 0.52501 0.97856 0.46119
 Zr158 Zr 0.54037 0.98869 0.52160
 Zr159 Zr 0.46649 1.00873 0.46926
 Zr160 Zr 0.52239 1.04200 0.48500
 O161 O 0.43446 0.98470 0.45864
 O162 O 0.55867 1.05656 0.49881
 O163 O 0.50555 1.01594 0.45894
 O164 O 0.54313 1.00576 0.48555
 O165 O 0.52409 0.96089 0.49716
 O166 O 0.48540 0.97165 0.46938
 C167 C 0.49870 1.07763 0.52724
 C168 C 0.42714 1.03485 0.50698
 C169 C 0.52444 1.01365 0.57310
 O170 O 0.57560 1.00973 0.52750
 O171 O 0.57191 0.96599 0.50795
 O172 O 0.56305 0.96039 0.46597
 C173 C 0.57765 0.95693 0.48600
 O174 O 0.45718 0.95059 0.53542
 Zr175 Zr 0.48463 0.95554 0.50579
 O176 O 0.52180 0.93814 0.45320
 O177 O 0.54777 0.95595 0.54624
 O178 O 0.50041 0.92664 0.53139
 O179 O 0.44986 0.93870 0.49080
 O180 O 0.49630 0.92223 0.48502
 C181 C 0.51037 0.91932 0.46520
 O182 O 0.55147 0.99096 0.43296
 O183 O 0.45530 1.04378 0.44915
 O184 O 0.50763 0.98009 0.42433
 O185 O 0.46940 1.00352 0.43018
 O186 O 0.50610 1.07246 0.46141
 O187 O 0.54632 1.04807 0.45282
 C188 C 0.48646 0.99200 0.41611
 H189 H 0.47304 1.05317 0.49237
 H190 H 0.56165 1.00860 0.48079
 H191 H 0.47707 0.95973 0.45690
 H192 H 0.50037 0.97387 0.54904
 H193 H 0.55905 1.07588 0.49497
 H194 H 0.58616 0.99943 0.54014
 H195 H 0.56525 0.95869 0.55415
 H196 H 0.49071 0.90991 0.52875
 H197 H 0.51629 1.08881 0.46442
 H198 H 0.43810 1.04034 0.44093
 H199 H 0.42354 0.99540 0.44662
 H200 H 0.45019 0.91952 0.49532
 H201 H 0.55388 1.06610 0.45346
 H202 H 0.55541 0.97520 0.42237
 H203 H 0.45315 1.02114 0.56938
 H204 H 0.45255 0.93158 0.53691
 Zr205 Zr -0.01338 0.52389 1.02922
 O206 O -0.03943 0.51109 1.05766
 O207 O -0.01049 0.56439 1.03711
 O208 O 0.00353 0.52484 1.06634
 O209 O -0.06221 0.52970 0.98281
 O210 O 0.04401 0.50570 1.06087
 O211 O -0.05219 0.53958 1.02380
 O212 O 0.01803 0.57992 1.00760
 O213 O 0.02624 0.53187 1.02192
 O214 O -0.01202 0.54078 0.99295
 O215 O 0.00646 0.48690 1.03191
 O216 O -0.03079 0.49584 1.00491
 Zr217 Zr 0.03166 0.48395 0.96194
 Zr218 Zr 0.04551 0.49482 1.02275
 Zr219 Zr -0.02748 0.51262 0.96865
 Zr220 Zr 0.02732 0.54721 0.98503
 O221 O -0.06027 0.48882 0.95986
 O222 O 0.06317 0.56266 0.99898
 O223 O 0.01146 0.52077 0.95858
 O224 O 0.04879 0.51153 0.98655
 O225 O 0.03056 0.46646 0.99805
 O226 O -0.00780 0.47608 0.96983
 C227 C 0.00274 0.58290 1.02653
 C228 C -0.06802 0.53956 1.00446
 C229 C 0.02587 0.51570 1.07476
 O230 O 0.07917 0.51783 1.03007
 O231 O 0.07804 0.47317 1.00949
 O232 O 0.06971 0.46630 0.96755
 C233 C 0.08408 0.46355 0.98780
 O234 O -0.03665 0.45425 1.03523
 Zr235 Zr -0.00884 0.46002 1.00604
 O236 O 0.02943 0.44380 0.95377
 O237 O 0.05420 0.46185 1.04674
 O238 O 0.00787 0.43200 1.03198
 O239 O -0.04300 0.44200 0.99103
 O240 O 0.00397 0.42683 0.98522
 C241 C 0.01795 0.42471 0.96520
 O242 O 0.05783 0.49780 0.93410
 O243 O -0.03684 0.54655 0.94618
 O244 O 0.01422 0.48199 0.92510
 O245 O -0.02566 0.50254 0.93044
 O246 O 0.01102 0.57747 0.96121
 O247 O 0.05156 0.55311 0.95304
 C248 C -0.00866 0.49005 0.91704
 H249 H -0.02221 0.55763 0.99126
 H250 H 0.06734 0.51472 0.98216
 H251 H -0.01595 0.46356 0.95782
 H252 H 0.00491 0.47894 1.04900
 H253 H 0.06332 0.58191 0.99476
 H254 H 0.09001 0.50764 1.04256
 H255 H 0.07135 0.46525 1.05510
 H256 H -0.00093 0.41479 1.02920
 H257 H 0.02127 0.59384 0.96399
 H258 H -0.05399 0.54312 0.93787
 H259 H -0.07097 0.49873 0.94705
 H260 H -0.04203 0.42283 0.99554
 H261 H 0.05888 0.57125 0.95347
 H262 H 0.06273 0.48223 0.92365
 H263 H -0.04425 0.52694 1.06777
 H264 H -0.03996 0.43499 1.03730
 Zr265 Zr -0.02283 0.47750 0.46347
 O266 O -0.04682 0.49008 0.43256
 O267 O -0.01911 0.43675 0.45699
 O268 O -0.00316 0.47410 0.42819
 O269 O -0.07517 0.47605 0.50513
 O270 O 0.03688 0.49198 0.43672
 O271 O -0.06149 0.46219 0.46633
 O272 O 0.00732 0.42164 0.48932
 O273 O 0.01618 0.46898 0.47447
 O274 O -0.02396 0.46203 0.50030
 O275 O -0.00294 0.51384 0.46112
 O276 O -0.04222 0.50672 0.48518
 Zr277 Zr 0.01719 0.51970 0.53274
 Zr278 Zr 0.03539 0.50549 0.47400
 Zr279 Zr -0.04117 0.49154 0.52223
 Zr280 Zr 0.01472 0.45505 0.51172
 O281 O -0.07341 0.51732 0.52943
 O282 O 0.05161 0.43841 0.50161
 O283 O -0.00282 0.48324 0.53537
 O284 O 0.03594 0.49033 0.51096
 O285 O 0.01845 0.53540 0.49597
 O286 O -0.02182 0.52781 0.52171
 C287 C -0.00638 0.41833 0.46906
 C288 C -0.07888 0.46421 0.48393
 C289 C 0.02029 0.48092 0.42179
 O290 O 0.06942 0.48129 0.46990
 O291 O 0.06825 0.52454 0.48953
 O292 O 0.05538 0.53631 0.52919
 C293 C 0.07227 0.53559 0.51104
 O294 O -0.04613 0.54651 0.45276
 Zr295 Zr -0.02055 0.54193 0.48460
 O296 O 0.01392 0.56069 0.53873
 O297 O 0.04526 0.53774 0.45012
 O298 O -0.00299 0.56898 0.45906
 O299 O -0.05598 0.56062 0.49623
 O300 O -0.00997 0.57589 0.50468
 C301 C 0.00311 0.57929 0.52524
 O302 O 0.04255 0.50821 0.56303
 O303 O -0.05362 0.45808 0.54333
 O304 O -0.00137 0.51993 0.56879
 O305 O -0.04009 0.49893 0.56107
 O306 O -0.00339 0.42637 0.53519
 O307 O 0.03651 0.44965 0.54595
 C308 C -0.02317 0.50945 0.57602
 H309 H -0.03412 0.44544 0.50162
 H310 H 0.05407 0.48675 0.51717
 H311 H -0.03058 0.54064 0.53310
 H312 H -0.00316 0.52095 0.44360
 H313 H 0.05151 0.41929 0.50634
 H314 H 0.08092 0.49046 0.45769
 H315 H 0.06274 0.53350 0.44299
 H316 H -0.01267 0.58617 0.46017
 H317 H 0.00670 0.40947 0.53361
 H318 H -0.07109 0.46263 0.55033
 H319 H -0.08492 0.50780 0.54137
 H320 H -0.05533 0.57954 0.49086
 H321 H 0.04370 0.43125 0.54678
 H322 H 0.04615 0.52445 0.57298
 H323 H -0.05096 0.47399 0.42260
 H324 H -0.05051 0.56560 0.45016
 Zr325 Zr 0.47506 -0.02478 -0.04024
 O326 O 0.44970 -0.01284 -0.07035
 O327 O 0.48212 -0.06475 -0.04867
 O328 O 0.49454 -0.02390 -0.07589
 O329 O 0.42558 -0.03618 0.00316
 O330 O 0.53219 -0.00151 -0.06697
 O331 O 0.43739 -0.04317 -0.03785
 O332 O 0.51080 -0.07895 -0.01774
 O333 O 0.51490 -0.03008 -0.03020
 O334 O 0.47638 -0.04247 -0.00424
 O335 O 0.49145 0.01350 -0.04062
 O336 O 0.45373 0.00116 -0.01651
 Zr337 Zr 0.51258 0.01675 0.03110
 Zr338 Zr 0.53060 0.00815 -0.02871
 Zr339 Zr 0.45719 -0.01615 0.01958
 Zr340 Zr 0.51565 -0.04638 0.00629
 O341 O 0.42188 0.00514 0.02652
 O342 O 0.55358 -0.05867 -0.00554
 O343 O 0.49618 -0.02163 0.03205
 O344 O 0.53339 -0.00925 0.00730
 O345 O 0.51160 0.03486 -0.00477
 O346 O 0.47294 0.02184 0.02074
 C347 C 0.49667 -0.08253 -0.03765
 C348 C 0.42153 -0.04576 -0.01897
 C349 C 0.51641 -0.01301 -0.08238
 O350 O 0.56624 -0.01271 -0.03532
 O351 O 0.56206 0.02878 -0.01240
 O352 O 0.54971 0.03588 0.02845
 C353 C 0.56604 0.03795 0.00992
 O354 O 0.44534 0.04251 -0.04642
 Zr355 Zr 0.47202 0.03839 -0.01538
 O356 O 0.50679 0.05709 0.03859
 O357 O 0.53716 0.04315 -0.05010
 O358 O 0.48667 0.06839 -0.03968
 O359 O 0.43537 0.05303 -0.00225
 O360 O 0.47988 0.07203 0.00651
 C361 C 0.49391 0.07541 0.02652
 O362 O 0.53831 0.00498 0.06098
 O363 O 0.44985 -0.05113 0.04082
 O364 O 0.49348 0.01543 0.06695
 O365 O 0.45663 -0.00821 0.05813
 O366 O 0.50086 -0.07810 0.02843
 O367 O 0.53881 -0.05197 0.03966
 C368 C 0.47163 0.00446 0.07337
 H369 H 0.46789 -0.06005 -0.00354
 H370 H 0.55186 -0.01164 0.01299
 H371 H 0.46313 0.03332 0.03260
 H372 H 0.49013 0.02179 -0.05764
 H373 H 0.55540 -0.07800 -0.00198
 H374 H 0.57669 -0.00150 -0.04686
 H375 H 0.55485 0.04126 -0.05760
 H376 H 0.47565 0.08460 -0.03743
 H377 H 0.51237 -0.09386 0.02572
 H378 H 0.43204 -0.04915 0.04803
 H379 H 0.41152 -0.00590 0.03828
 H380 H 0.43426 0.07225 -0.00654
 H381 H 0.54759 -0.06966 0.03926
 H382 H 0.54102 0.02085 0.07170
 H383 H 0.44698 -0.02870 -0.08108
 H384 H 0.43958 0.06134 -0.04811
 Zr385 Zr 0.52756 0.51820 -0.03347
 O386 O 0.55108 0.50468 -0.06366
 O387 O 0.52505 0.55893 -0.04078
 O388 O 0.50763 0.52256 -0.06909
 O389 O 0.57965 0.51904 0.00964
 O390 O 0.46699 0.50618 -0.06079
 O391 O 0.56670 0.53261 -0.02997
 O392 O 0.49866 0.57495 -0.00957
 O393 O 0.48881 0.52783 -0.02334
 O394 O 0.52910 0.53378 0.00311
 O395 O 0.50660 0.48246 -0.03562
 O396 O 0.54609 0.48848 -0.01085
 Zr397 Zr 0.48654 0.47767 0.03576
 Zr398 Zr 0.46853 0.49194 -0.02356
 Zr399 Zr 0.54549 0.50387 0.02590
 Zr400 Zr 0.49064 0.54197 0.01363
 O401 O 0.57764 0.47766 0.03318
 O402 O 0.45409 0.55945 0.00262
 O403 O 0.50753 0.51350 0.03832
 O404 O 0.46841 0.50731 0.01309
 O405 O 0.48472 0.46176 -0.00069
 O406 O 0.52518 0.46823 0.02551
 C407 C 0.51256 0.57771 -0.02955
 C408 C 0.58384 0.53049 -0.01173
 C409 C 0.48375 0.51694 -0.07557
 O410 O 0.43475 0.51661 -0.02812
 O411 O 0.43566 0.47284 -0.00842
 O412 O 0.44851 0.46116 0.03171
 C413 C 0.43179 0.46160 0.01312
 O414 O 0.54875 0.44825 -0.04252
 Zr415 Zr 0.52340 0.45387 -0.01126
 O416 O 0.48868 0.43683 0.04290
 O417 O 0.45799 0.46036 -0.04771
 O418 O 0.50472 0.42740 -0.03657
 O419 O 0.55826 0.43400 0.00124
 O420 O 0.51173 0.42036 0.00955
 C421 C 0.49859 0.41767 0.03002
 O422 O 0.46146 0.49066 0.06501
 O423 O 0.55805 0.53672 0.04753
 O424 O 0.50513 0.47615 0.07204
 O425 O 0.54504 0.49448 0.06445
 O426 O 0.50950 0.57057 0.03657
 O427 O 0.46923 0.54809 0.04744
 C428 C 0.52807 0.48407 0.07923
 H429 H 0.53966 0.55011 0.00438
 H430 H 0.45035 0.51124 0.01889
 H431 H 0.53368 0.45511 0.03714
 H432 H 0.50653 0.47543 -0.05306
 H433 H 0.45469 0.57858 0.00694
 H434 H 0.42301 0.50773 -0.04041
 H435 H 0.44047 0.46497 -0.05499
 H436 H 0.51368 0.40984 -0.03482
 H437 H 0.49966 0.58762 0.03446
 H438 H 0.57545 0.53183 0.05491
 H439 H 0.58938 0.48670 0.04536
 H440 H 0.55684 0.41508 -0.00367
 H441 H 0.46242 0.56663 0.04777
 H442 H 0.45720 0.47476 0.07534
 H443 H 0.55565 0.52059 -0.07384
 H444 H 0.55221 0.42899 -0.04483
 Zr445 Zr 0.02224 1.02150 0.46499
 O446 O 0.04909 1.00770 0.43759
 O447 O 0.01628 1.06097 0.45356
 O448 O 0.00480 1.01940 0.42803
 O449 O 0.06895 1.03453 0.51147
 O450 O -0.03320 0.99706 0.43510
 O451 O 0.06012 1.03919 0.46922
 O452 O -0.01479 1.07655 0.48074
 O453 O -0.01817 1.02720 0.47130
 O454 O 0.01854 1.04116 0.49961
 O455 O 0.00582 0.98327 0.46558
 O456 O 0.04181 0.99709 0.49216
 Zr457 Zr -0.02012 0.98370 0.53535
 Zr458 Zr -0.03406 0.98910 0.47385
 Zr459 Zr 0.03588 1.01628 0.52676
 Zr460 Zr -0.02140 1.04548 0.50647
 O461 O 0.07003 0.99526 0.53909
 O462 O -0.05838 1.05700 0.49077
 O463 O -0.00391 1.02218 0.53529
 O464 O -0.03925 1.00836 0.50837
 O465 O -0.01666 0.96381 0.50086
 O466 O 0.02014 0.97831 0.52891
 C467 C 0.00083 1.07918 0.46199
 C468 C 0.07488 1.04249 0.48909
 C469 C -0.01668 1.00829 0.42042
 O470 O -0.06926 1.00932 0.46321
 O471 O -0.06651 0.96904 0.48875
 O472 O -0.05641 0.96347 0.53066
 C473 C -0.07156 0.96040 0.51110
 O474 O 0.05259 0.95462 0.46579
 Zr475 Zr 0.02353 0.95996 0.49395
 O476 O -0.01469 0.94398 0.54627
 O477 O -0.03896 0.95308 0.45399
 O478 O 0.01126 0.92865 0.47008
 O479 O 0.05881 0.94587 0.51144
 O480 O 0.01334 0.92751 0.51669
 C481 C -0.00163 0.92501 0.53592
 O482 O -0.04831 0.99693 0.56176
 O483 O 0.04243 1.05278 0.54543
 O484 O -0.00402 0.98749 0.57257
 O485 O 0.03270 1.01207 0.56595
 O486 O -0.00804 1.07835 0.52774
 O487 O -0.04685 1.05299 0.53731
 C488 C 0.01625 1.00045 0.58043
 H489 H 0.02714 1.05869 0.49981
 H490 H -0.05806 1.01088 0.51238
 H491 H 0.02895 0.96761 0.54242
 H492 H 0.00826 0.97419 0.44920
 H493 H -0.06034 1.07651 0.49281
 H494 H -0.07887 0.99750 0.45151
 H495 H -0.05607 0.95449 0.44492
 H496 H 0.02216 0.91271 0.47435
 H497 H -0.01910 1.09399 0.52290
 H498 H 0.05950 1.05105 0.55454
 H499 H 0.07939 1.00706 0.55098
 H500 H 0.06004 0.92645 0.50844
 H501 H -0.05534 1.07071 0.53508
 H502 H -0.05175 0.98172 0.57328
 H503 H 0.05272 1.02296 0.42618
 H504 H 0.05886 0.93588 0.46598
 Zr505 Zr 0.72791 0.27006 0.21402
 O506 O 0.73720 0.29430 0.18254
 O507 O 0.68776 0.26470 0.20856
 O508 O 0.72408 0.24921 0.17911
 O509 O 0.72443 0.32297 0.25589
 O510 O 0.74438 0.20936 0.18769
 O511 O 0.71072 0.30889 0.21703
 O512 O 0.67604 0.23701 0.24084
 O513 O 0.72282 0.23034 0.22531
 O514 O 0.71406 0.27073 0.25115
 O515 O 0.76506 0.25161 0.21090
 O516 O 0.75624 0.29099 0.23514
 Zr517 Zr 0.77491 0.23175 0.28270
 Zr518 Zr 0.76017 0.21262 0.22412
 Zr519 Zr 0.74286 0.28944 0.27245
 Zr520 Zr 0.71037 0.23134 0.26277
 O521 O 0.76579 0.32373 0.27825
 O522 O 0.69632 0.19319 0.25303
 O523 O 0.73772 0.25049 0.28608
 O524 O 0.74663 0.21136 0.26132
 O525 O 0.78909 0.23115 0.24562
 O526 O 0.77987 0.27140 0.27120
 C527 C 0.67103 0.25090 0.22080
 C528 C 0.71220 0.32651 0.23473
 C529 C 0.73167 0.22545 0.17290
 O530 O 0.73988 0.17623 0.22196
 O531 O 0.78475 0.18216 0.23846
 O532 O 0.79344 0.19348 0.27940
 C533 C 0.79570 0.17786 0.26015
 O534 O 0.79400 0.29670 0.20206
 Zr535 Zr 0.79247 0.27068 0.23388
 O536 O 0.81535 0.23640 0.28736
 O537 O 0.79054 0.20450 0.19811
 O538 O 0.81913 0.25360 0.20784
 O539 O 0.80895 0.30735 0.24508
 O540 O 0.82754 0.26149 0.25332
 C541 C 0.83249 0.24796 0.27355
 O542 O 0.76611 0.20634 0.31350
 O543 O 0.71014 0.29985 0.29490
 O544 O 0.77629 0.25147 0.31840
 O545 O 0.75379 0.29029 0.31054
 O546 O 0.68150 0.24846 0.28653
 O547 O 0.70802 0.20928 0.29713
 C548 C 0.76658 0.27423 0.32528
 H549 H 0.69709 0.28037 0.25278
 H550 H 0.74484 0.19283 0.26750
 H551 H 0.79248 0.28095 0.28211
 H552 H 0.77117 0.25197 0.19318
 H553 H 0.67769 0.19241 0.25817
 H554 H 0.74933 0.16501 0.20958
 H555 H 0.78776 0.18626 0.19168
 H556 H 0.83552 0.26400 0.20855
 H557 H 0.66563 0.23732 0.28534
 H558 H 0.71335 0.31791 0.30154
 H559 H 0.75612 0.33520 0.29026
 H560 H 0.82743 0.30739 0.23938
 H561 H 0.69045 0.20120 0.29835
 H562 H 0.78267 0.20341 0.32327
 H563 H 0.72058 0.29761 0.17297
 H564 H 0.81247 0.30151 0.19887
 Zr565 Zr 0.77484 0.72718 0.71905
 O566 O 0.76326 0.70149 0.68954
 O567 O 0.81467 0.73145 0.71203
 O568 O 0.77712 0.74608 0.68272
 O569 O 0.78425 0.67857 0.76536
 O570 O 0.75635 0.78602 0.68885
 O571 O 0.79135 0.68819 0.72371
 O572 O 0.82838 0.76159 0.74128
 O573 O 0.78017 0.76766 0.72685
 O574 O 0.79126 0.72944 0.75551
 O575 O 0.73736 0.74502 0.71598
 O576 O 0.74860 0.70753 0.74332
 Zr577 Zr 0.73219 0.76984 0.78634
 Zr578 Zr 0.74252 0.78490 0.72587
 Zr579 Zr 0.76455 0.71208 0.77980
 Zr580 Zr 0.79527 0.76959 0.76360
 O581 O 0.74302 0.67754 0.78852
 O582 O 0.80820 0.80660 0.74920
 O583 O 0.76989 0.75202 0.78976
 O584 O 0.75864 0.78895 0.76217
 O585 O 0.71546 0.76758 0.75004
 O586 O 0.72717 0.72941 0.77839
 C587 C 0.83224 0.74579 0.72263
 C588 C 0.79338 0.67280 0.74342
 C589 C 0.76906 0.76940 0.67512
 O590 O 0.76169 0.82150 0.71997
 O591 O 0.71843 0.81601 0.73893
 O592 O 0.71324 0.80759 0.78103
 C593 C 0.70935 0.82186 0.76083
 O594 O 0.70933 0.69858 0.71251
 Zr595 Zr 0.71206 0.72726 0.74173
 O596 O 0.69211 0.76535 0.79314
 O597 O 0.71038 0.79048 0.70055
 O598 O 0.68344 0.74161 0.71535
 O599 O 0.69639 0.69162 0.75668
 O600 O 0.67827 0.73788 0.76165
 C601 C 0.67430 0.75267 0.78095
 O602 O 0.74307 0.79729 0.81464
 O603 O 0.79853 0.70448 0.80230
 O604 O 0.73272 0.75268 0.82334
 O605 O 0.75552 0.71360 0.81837
 O606 O 0.82561 0.75495 0.78798
 O607 O 0.79983 0.79496 0.79528
 C608 C 0.74302 0.73066 0.83184
 H609 H 0.80841 0.72007 0.75729
 H610 H 0.76059 0.80789 0.76673
 H611 H 0.71537 0.72054 0.79050
 H612 H 0.73019 0.74333 0.69859
 H613 H 0.82720 0.80790 0.75320
 H614 H 0.75120 0.83159 0.70713
 H615 H 0.71233 0.80827 0.69261
 H616 H 0.66735 0.73103 0.71769
 H617 H 0.84134 0.76592 0.78507
 H618 H 0.79630 0.68679 0.81037
 H619 H 0.75362 0.66722 0.80110
 H620 H 0.67766 0.69101 0.75144
 H621 H 0.81730 0.80334 0.79470
 H622 H 0.72722 0.80096 0.82488
 H623 H 0.77918 0.69748 0.67951
 H624 H 0.69077 0.69342 0.71019
 Zr625 Zr 0.23443 0.23338 0.78690
 O626 O 0.24622 0.20680 0.81629
 O627 O 0.19560 0.24154 0.79626
 O628 O 0.23545 0.25209 0.82300
 O629 O 0.22424 0.18307 0.74333
 O630 O 0.25731 0.29053 0.81499
 O631 O 0.21570 0.19577 0.78385
 O632 O 0.18109 0.27072 0.76579
 O633 O 0.22944 0.27388 0.77780
 O634 O 0.21653 0.23536 0.75109
 O635 O 0.27234 0.24947 0.78774
 O636 O 0.25958 0.21197 0.76267
 Zr637 Zr 0.27499 0.27243 0.71638
 Zr638 Zr 0.26729 0.28934 0.77674
 Zr639 Zr 0.24224 0.21616 0.72671
 Zr640 Zr 0.21300 0.27545 0.74142
 O641 O 0.26298 0.18063 0.71808
 O642 O 0.20117 0.31385 0.75364
 O643 O 0.23702 0.25600 0.71511
 O644 O 0.24985 0.29325 0.74085
 O645 O 0.29310 0.27035 0.75217
 O646 O 0.27981 0.23202 0.72587
 C647 C 0.17799 0.25668 0.78593
 C648 C 0.21467 0.17900 0.76540
 C649 C 0.24599 0.27416 0.83002
 O650 O 0.24776 0.32608 0.78301
 O651 O 0.29033 0.31963 0.76146
 O652 O 0.29465 0.30971 0.71963
 C653 C 0.29910 0.32445 0.73920
 O654 O 0.30032 0.20212 0.79211
 Zr655 Zr 0.29644 0.23011 0.76189
 O656 O 0.31468 0.26643 0.70863
 O657 O 0.30125 0.29493 0.79945
 O658 O 0.32626 0.24401 0.78661
 O659 O 0.31073 0.19337 0.74767
 O660 O 0.32953 0.23879 0.74033
 C661 C 0.33281 0.25330 0.72057
 O662 O 0.26309 0.29922 0.68724
 O663 O 0.20706 0.20929 0.70624
 O664 O 0.27354 0.25355 0.68022
 O665 O 0.24997 0.21608 0.68803
 O666 O 0.18116 0.26110 0.71947
 O667 O 0.20771 0.29931 0.70833
 C668 C 0.26280 0.23148 0.67329
 H669 H 0.19913 0.22683 0.75053
 H670 H 0.24791 0.31215 0.73566
 H671 H 0.29107 0.22229 0.71379
 H672 H 0.28051 0.24768 0.80475
 H673 H 0.18211 0.31588 0.75002
 H674 H 0.25898 0.33621 0.79483
 H675 H 0.29973 0.31289 0.80697
 H676 H 0.34213 0.23274 0.78409
 H677 H 0.16584 0.27304 0.72239
 H678 H 0.20879 0.19135 0.69872
 H679 H 0.25164 0.17031 0.70650
 H680 H 0.32972 0.19211 0.75190
 H681 H 0.19024 0.30820 0.70870
 H682 H 0.27858 0.30198 0.67635
 H683 H 0.23068 0.20398 0.82711
 H684 H 0.31888 0.19613 0.79367
 Zr685 Zr 0.25990 0.77202 0.29084
 O686 O 0.24719 0.79807 0.31965
 O687 O 0.29906 0.76530 0.30083
 O688 O 0.25952 0.75277 0.32700
 O689 O 0.27001 0.82290 0.24718
 O690 O 0.23801 0.71418 0.31877
 O691 O 0.27849 0.80962 0.28795
 O692 O 0.31388 0.73667 0.27070
 O693 O 0.26579 0.73173 0.28202
 O694 O 0.27765 0.77083 0.25530
 O695 O 0.22235 0.75515 0.29091
 O696 O 0.23433 0.79336 0.26605
 Zr697 Zr 0.22033 0.73315 0.21953
 Zr698 Zr 0.22826 0.71552 0.28020
 Zr699 Zr 0.25169 0.79004 0.23042
 Zr700 Zr 0.28212 0.73098 0.24593
 O701 O 0.22999 0.82522 0.22176
 O702 O 0.29477 0.69284 0.25893
 O703 O 0.25786 0.75045 0.21908
 O704 O 0.24575 0.71244 0.24466
 O705 O 0.20222 0.73433 0.25496
 O706 O 0.21447 0.77333 0.22872
 C707 C 0.31695 0.75100 0.29049
 C708 C 0.27996 0.82640 0.26934
 C709 C 0.24919 0.73052 0.33392
 O710 O 0.24856 0.67915 0.28720
 O711 O 0.20604 0.68493 0.26431
 O712 O 0.20184 0.69530 0.22231
 C713 C 0.19768 0.68019 0.24178
 O714 O 0.19364 0.80236 0.29411
 Zr715 Zr 0.19789 0.77436 0.26445
 O716 O 0.18049 0.73795 0.21106
 O717 O 0.19427 0.70886 0.30196
 O718 O 0.16854 0.76010 0.28910
 O719 O 0.18228 0.81049 0.24923
 O720 O 0.16490 0.76408 0.24286
 C721 C 0.16193 0.74970 0.22309
 O722 O 0.23291 0.70709 0.19067
 O723 O 0.28647 0.79817 0.21033
 O724 O 0.22165 0.75231 0.18327
 O725 O 0.24415 0.79028 0.19153
 O726 O 0.31370 0.74588 0.22441
 O727 O 0.28786 0.70747 0.21314
 C728 C 0.23207 0.77460 0.17642
 H729 H 0.29491 0.77963 0.25486
 H730 H 0.24815 0.69365 0.23958
 H731 H 0.20297 0.78283 0.21631
 H732 H 0.21416 0.75658 0.30776
 H733 H 0.31390 0.69132 0.25584
 H734 H 0.23744 0.66862 0.29871
 H735 H 0.19622 0.69091 0.30972
 H736 H 0.15245 0.77108 0.28616
 H737 H 0.32918 0.73412 0.22771
 H738 H 0.28420 0.81613 0.20268
 H739 H 0.24094 0.83596 0.21025
 H740 H 0.16327 0.81102 0.25307
 H741 H 0.30527 0.69849 0.21419
 H742 H 0.21750 0.70402 0.17947
 H743 H 0.26258 0.80123 0.33085
 H744 H 0.17505 0.80828 0.29507
 Zr745 Zr 0.22406 0.77333 0.71798
 O746 O 0.23529 0.79877 0.68800
 O747 O 0.18415 0.76860 0.71069
 O748 O 0.22123 0.75422 0.68213
 O749 O 0.21599 0.82275 0.76282
 O750 O 0.24232 0.71444 0.68934
 O751 O 0.20723 0.81230 0.72165
 O752 O 0.17103 0.73882 0.74070
 O753 O 0.21867 0.73298 0.72697
 O754 O 0.20828 0.77166 0.75437
 O755 O 0.26138 0.75507 0.71569
 O756 O 0.25095 0.79319 0.74164
 Zr757 Zr 0.26805 0.73143 0.78672
 Zr758 Zr 0.25610 0.71536 0.72669
 Zr759 Zr 0.23563 0.78924 0.77812
 Zr760 Zr 0.20431 0.73170 0.76374
 O761 O 0.25802 0.82325 0.78656
 O762 O 0.19106 0.69424 0.75098
 O763 O 0.23042 0.74948 0.78919
 O764 O 0.24081 0.71219 0.76313
 O765 O 0.28396 0.73285 0.75034
 O766 O 0.27297 0.77174 0.77767
 C767 C 0.16688 0.75412 0.72144
 C768 C 0.20586 0.82803 0.74092
 C769 C 0.22933 0.73090 0.67514
 O770 O 0.23550 0.67963 0.72056
 O771 O 0.27743 0.68248 0.74121
 O772 O 0.28703 0.69365 0.78202
 C773 C 0.28793 0.67761 0.76299
 O774 O 0.28988 0.80097 0.71062
 Zr775 Zr 0.28733 0.77310 0.74093
 O776 O 0.30822 0.73624 0.79381
 O777 O 0.28873 0.70866 0.70302
 O778 O 0.31555 0.75816 0.71523
 O779 O 0.30314 0.80906 0.75480
 O780 O 0.32141 0.76296 0.76136
 C781 C 0.32575 0.74868 0.78122
 O782 O 0.25829 0.70397 0.81559
 O783 O 0.20188 0.79832 0.79969
 O784 O 0.26680 0.74858 0.82360
 O785 O 0.24332 0.78707 0.81694
 O786 O 0.17451 0.74735 0.78734
 O787 O 0.20003 0.70733 0.79644
 C788 C 0.25490 0.76987 0.83143
 H789 H 0.19115 0.78106 0.75574
 H790 H 0.23862 0.69339 0.76835
 H791 H 0.28483 0.78072 0.78978
 H792 H 0.26835 0.75641 0.69832
 H793 H 0.17213 0.69310 0.75497
 H794 H 0.24555 0.66918 0.70800
 H795 H 0.28613 0.69112 0.69499
 H796 H 0.33170 0.76875 0.71732
 H797 H 0.15855 0.73663 0.78460
 H798 H 0.20470 0.81589 0.80761
 H799 H 0.24777 0.83372 0.79893
 H800 H 0.32181 0.80959 0.74974
 H801 H 0.18237 0.69931 0.79626
 H802 H 0.27446 0.70060 0.82585
 H803 H 0.21922 0.80281 0.67781
 H804 H 0.30837 0.80632 0.70854
 Zr805 Zr 0.28033 0.23125 0.22193
 O806 O 0.27048 0.20646 0.19115
 O807 O 0.32071 0.23495 0.21718
 O808 O 0.28395 0.25066 0.18600
 O809 O 0.28365 0.18013 0.26671
 O810 O 0.26413 0.29104 0.19229
 O811 O 0.29553 0.19163 0.22667
 O812 O 0.33350 0.26333 0.24836
 O813 O 0.28654 0.27125 0.23136
 O814 O 0.29454 0.23160 0.25924
 O815 O 0.24364 0.25061 0.21758
 O816 O 0.25188 0.21173 0.24381
 Zr817 Zr 0.23458 0.27284 0.28799
 Zr818 Zr 0.24958 0.28996 0.22903
 Zr819 Zr 0.26566 0.21442 0.28124
 Zr820 Zr 0.29927 0.27126 0.26902
 O821 O 0.24182 0.18121 0.28890
 O822 O 0.31423 0.30843 0.25714
 O823 O 0.27155 0.25375 0.29275
 O824 O 0.26335 0.29187 0.26634
 O825 O 0.22023 0.27268 0.25074
 O826 O 0.22890 0.23291 0.27854
 C827 C 0.33802 0.24835 0.22927
 C828 C 0.29462 0.17495 0.24549
 C829 C 0.27634 0.27415 0.17844
 O830 O 0.27171 0.32497 0.22437
 O831 O 0.22834 0.32308 0.24246
 O832 O 0.21601 0.31060 0.28215
 C833 C 0.21627 0.32718 0.26333
 O834 O 0.21425 0.20577 0.21025
 Zr835 Zr 0.21613 0.23276 0.24096
 O836 O 0.19411 0.26864 0.29287
 O837 O 0.21814 0.29842 0.20359
 O838 O 0.18937 0.24906 0.21378
 O839 O 0.19896 0.19686 0.25355
 O840 O 0.18148 0.24323 0.25941
 C841 C 0.17676 0.25690 0.27926
 O842 O 0.24392 0.29972 0.31728
 O843 O 0.29849 0.20358 0.30424
 O844 O 0.23351 0.25519 0.32474
 O845 O 0.25677 0.21646 0.31969
 O846 O 0.32732 0.25426 0.29456
 O847 O 0.30277 0.29503 0.30193
 C848 C 0.24470 0.23366 0.33332
 H849 H 0.31124 0.22151 0.26156
 H850 H 0.26571 0.31049 0.27181
 H851 H 0.21632 0.22404 0.28988
 H852 H 0.23722 0.24977 0.19986
 H853 H 0.33299 0.30891 0.26230
 H854 H 0.26245 0.33609 0.21143
 H855 H 0.22155 0.31610 0.19596
 H856 H 0.17293 0.23878 0.21475
 H857 H 0.34372 0.26450 0.29299
 H858 H 0.29471 0.18605 0.31202
 H859 H 0.25128 0.17030 0.30187
 H860 H 0.18052 0.19689 0.24736
 H861 H 0.32067 0.30245 0.30288
 H862 H 0.22747 0.30342 0.32660
 H863 H 0.28703 0.20230 0.18216
 H864 H 0.19575 0.20088 0.20705
 Zr865 Zr 0.72426 0.73121 0.28575
 O866 O 0.73482 0.70561 0.31632
 O867 O 0.68433 0.73776 0.29242
 O868 O 0.72431 0.75045 0.32179
 O869 O 0.71463 0.68107 0.24180
 O870 O 0.74635 0.78885 0.31408
 O871 O 0.70743 0.69262 0.28288
 O872 O 0.67128 0.76687 0.26119
 O873 O 0.71891 0.77156 0.27588
 O874 O 0.70806 0.73247 0.24911
 O875 O 0.76185 0.74802 0.28758
 O876 O 0.75067 0.70983 0.26263
 Zr877 Zr 0.76722 0.76981 0.21626
 Zr878 Zr 0.75656 0.78772 0.27592
 Zr879 Zr 0.73483 0.71323 0.22591
 Zr880 Zr 0.70427 0.77231 0.23873
 O881 O 0.75621 0.67754 0.21956
 O882 O 0.69126 0.81051 0.25043
 O883 O 0.72960 0.75283 0.21367
 O884 O 0.74070 0.79064 0.23931
 O885 O 0.78380 0.76871 0.25272
 O886 O 0.77221 0.72960 0.22636
 C887 C 0.66707 0.75218 0.28061
 C888 C 0.70533 0.67655 0.26395
 C889 C 0.73501 0.77242 0.32900
 O890 O 0.73518 0.82340 0.28231
 O891 O 0.77713 0.81984 0.26050
 O892 O 0.78619 0.80726 0.22004
 C893 C 0.78733 0.82380 0.23869
 O894 O 0.79004 0.70114 0.29380
 Zr895 Zr 0.78725 0.72857 0.26303
 O896 O 0.80723 0.76412 0.20996
 O897 O 0.79052 0.79473 0.29819
 O898 O 0.81596 0.74309 0.28863
 O899 O 0.80270 0.69182 0.24994
 O900 O 0.82109 0.73732 0.24268
 C901 C 0.82498 0.75138 0.22275
 O902 O 0.75652 0.79626 0.18642
 O903 O 0.70109 0.70594 0.20340
 O904 O 0.76699 0.75089 0.18016
 O905 O 0.74455 0.71257 0.18753
 O906 O 0.67382 0.75739 0.21533
 O907 O 0.70004 0.79589 0.20533
 C908 C 0.75712 0.72850 0.17304
 H909 H 0.69086 0.72364 0.24775
 H910 H 0.73842 0.80936 0.23368
 H911 H 0.78407 0.71987 0.21483
 H912 H 0.76958 0.74654 0.30480
 H913 H 0.67233 0.81222 0.24605
 H914 H 0.74585 0.83414 0.29412
 H915 H 0.78821 0.81254 0.30586
 H916 H 0.83199 0.73187 0.28690
 H917 H 0.65822 0.76919 0.21729
 H918 H 0.70329 0.68786 0.19628
 H919 H 0.74578 0.66707 0.20734
 H920 H 0.82147 0.69085 0.25507
 H921 H 0.68261 0.80490 0.20517
 H922 H 0.77251 0.79913 0.17624
 H923 H 0.71876 0.70276 0.32642
 H924 H 0.80856 0.69530 0.29619
 Zr925 Zr 0.76870 0.26700 0.78536
 O926 O 0.75579 0.29323 0.81394
 O927 O 0.80742 0.25934 0.79665
 O928 O 0.76663 0.24781 0.82152
 O929 O 0.77895 0.31818 0.74200
 O930 O 0.74519 0.20938 0.81263
 O931 O 0.78730 0.30474 0.78273
 O932 O 0.82298 0.23082 0.76685
 O933 O 0.77454 0.22667 0.77668
 O934 O 0.78753 0.26573 0.75036
 O935 O 0.73101 0.25035 0.78437
 O936 O 0.74394 0.28834 0.75981
 Zr937 Zr 0.73064 0.22830 0.71323
 Zr938 Zr 0.73698 0.21063 0.77385
 Zr939 Zr 0.76229 0.28486 0.72464
 Zr940 Zr 0.79195 0.22584 0.74108
 O941 O 0.74098 0.31973 0.71406
 O942 O 0.80401 0.18747 0.75400
 O943 O 0.76838 0.24521 0.71365
 O944 O 0.75547 0.20756 0.73883
 O945 O 0.71149 0.22954 0.74809
 O946 O 0.72498 0.26856 0.72204
 C947 C 0.82552 0.24470 0.78700
 C948 C 0.78848 0.32183 0.76430
 C949 C 0.75593 0.22561 0.82813
 O950 O 0.75744 0.17465 0.78225
 O951 O 0.71700 0.17879 0.75738
 O952 O 0.71147 0.19091 0.71591
 C953 C 0.70863 0.17467 0.73477
 O954 O 0.70226 0.29734 0.78716
 Zr955 Zr 0.70739 0.26971 0.75732
 O956 O 0.69123 0.23374 0.70326
 O957 O 0.70181 0.20406 0.79381
 O958 O 0.67698 0.25551 0.78077
 O959 O 0.69302 0.30632 0.74205
 O960 O 0.67511 0.26045 0.73434
 C961 C 0.67257 0.24623 0.71442
 O962 O 0.74366 0.20178 0.68494
 O963 O 0.79812 0.29323 0.70643
 O964 O 0.73319 0.24701 0.67701
 O965 O 0.75724 0.28398 0.68533
 O966 O 0.82410 0.24098 0.72051
 O967 O 0.79863 0.20245 0.70838
 C968 C 0.74541 0.26823 0.67007
 H969 H 0.80483 0.27448 0.75055
 H970 H 0.75805 0.18880 0.73373
 H971 H 0.71406 0.27813 0.70920
 H972 H 0.72226 0.25185 0.80094
 H973 H 0.82321 0.18581 0.75135
 H974 H 0.74602 0.16409 0.79347
 H975 H 0.70347 0.18620 0.80183
 H976 H 0.66108 0.26661 0.77730
 H977 H 0.83956 0.22934 0.72426
 H978 H 0.79606 0.31105 0.69843
 H979 H 0.75245 0.33010 0.70272
 H980 H 0.67388 0.30718 0.74520
 H981 H 0.81622 0.19384 0.70963
 H982 H 0.72850 0.19874 0.67341
 H983 H 0.77100 0.29612 0.82544
 H984 H 0.68370 0.30347 0.78751
 C985 C 0.44318 0.99713 0.31477
 C986 C 0.43910 0.97271 0.30254
 C987 C 0.42344 0.97176 0.28052
 C988 C 0.41038 0.99463 0.27042
 C989 C 0.41714 1.01922 0.28145
 C990 C 0.43285 1.02044 0.30330
 C991 C 0.45790 0.99689 0.33959
 C992 C 0.46084 1.01984 0.35436
 C993 C 0.47184 1.01811 0.37860
 C994 C 0.48063 0.99363 0.38871
 C995 C 0.47943 0.97086 0.37366
 C996 C 0.46769 0.97224 0.34936
 C997 C 0.45025 0.94916 0.31260
 C998 C 0.46432 0.94895 0.33541
 H999 H 0.44751 0.93041 0.30300
 H1000 H 0.47189 0.93010 0.34266
 H1001 H 0.42168 0.95271 0.27181
 H1002 H 0.41036 1.03792 0.27335
 H1003 H 0.47254 1.03593 0.38999
 H1004 H 0.48578 0.95182 0.38155
 H1005 H 0.43656 1.03988 0.31093
 H1006 H 0.45372 1.03910 0.34806
 C1007 C -0.06167 0.48538 0.82105
 C1008 C -0.04827 0.49190 0.79867
 C1009 C -0.06223 0.49418 0.77549
 C1010 C -0.09001 0.49225 0.77457
 C1011 C -0.10295 0.48739 0.79762
 C1012 C -0.08917 0.48380 0.82025
 C1013 C -0.04626 0.48213 0.84515
 C1014 C -0.05747 0.47197 0.86729
 C1015 C -0.04371 0.47253 0.89009
 C1016 C -0.01839 0.48311 0.89154
 C1017 C -0.00578 0.49059 0.86911
 C1018 C -0.01960 0.48976 0.84572
 C1019 C -0.02119 0.49698 0.79988
 C1020 C -0.00739 0.49686 0.82302
 H1021 H -0.01076 0.50227 0.78285
 H1022 H 0.01316 0.50220 0.82309
 H1023 H -0.05115 0.49761 0.75853
 H1024 H -0.12417 0.48619 0.79802
 H1025 H -0.05351 0.46594 0.90708
 H1026 H 0.01396 0.49835 0.87001
 H1027 H -0.10053 0.48045 0.83707
 H1028 H -0.07706 0.46405 0.86749
 C1029 C 0.06302 0.01484 0.82132
 C1030 C 0.09083 0.01422 0.82138
 C1031 C 0.10460 0.01096 0.79880
 C1032 C 0.09158 0.00908 0.77522
 C1033 C 0.06380 0.01072 0.77522
 C1034 C 0.04980 0.01315 0.79786
 C1035 C 0.04917 0.01743 0.84631
 C1036 C 0.02156 0.01628 0.84914
 C1037 C 0.01012 0.01680 0.87332
 C1038 C 0.02600 0.01872 0.89506
 C1039 C 0.05320 0.02159 0.89210
 C1040 C 0.06485 0.02028 0.86833
 C1041 C 0.10497 0.01726 0.84396
 C1042 C 0.09227 0.02059 0.86685
 H1043 H 0.12627 0.01712 0.84394
 H1044 H 0.10419 0.02275 0.88382
 H1045 H 0.12590 0.01030 0.79941
 H1046 H 0.05246 0.01064 0.75786
 H1047 H -0.01090 0.01447 0.87506
 H1048 H 0.06573 0.02353 0.90870
 H1049 H 0.02863 0.01419 0.79661
 H1050 H 0.00865 0.01400 0.83299
 C1051 C 0.55713 0.49883 0.32429
 C1052 C 0.55722 0.52118 0.30799
 C1053 C 0.57231 0.52055 0.28566
 C1054 C 0.58899 0.49856 0.28008
 C1055 C 0.59012 0.47754 0.29800
 C1056 C 0.57415 0.47737 0.31921
 C1057 C 0.54082 0.49983 0.34771
 C1058 C 0.53700 0.47730 0.36302
 C1059 C 0.52495 0.47969 0.38639
 C1060 C 0.51621 0.50452 0.39524
 C1061 C 0.51722 0.52673 0.37887
 C1062 C 0.52926 0.52436 0.35488
 C1063 C 0.54337 0.54436 0.31491
 C1064 C 0.53046 0.54620 0.33821
 H1065 H 0.54356 0.56176 0.30268
 H1066 H 0.52123 0.56497 0.34320
 H1067 H 0.57185 0.53761 0.27300
 H1068 H 0.60375 0.46103 0.29640
 H1069 H 0.52372 0.46211 0.39830
 H1070 H 0.51015 0.54594 0.38529
 H1071 H 0.57634 0.46071 0.33210
 H1072 H 0.54374 0.45775 0.35753
 C1073 C 0.56709 0.49128 0.18270
 C1074 C 0.59466 0.49365 0.18501
 C1075 C 0.60637 0.49784 0.20859
 C1076 C 0.59160 0.49896 0.23098
 C1077 C 0.56409 0.49638 0.22871
 C1078 C 0.55201 0.49289 0.20491
 C1079 C 0.55558 0.48691 0.15665
 C1080 C 0.52832 0.48552 0.15140
 C1081 C 0.51894 0.48308 0.12636
 C1082 C 0.53657 0.48177 0.10615
 C1083 C 0.56361 0.48161 0.11153
 C1084 C 0.57315 0.48469 0.13617
 C1085 C 0.61075 0.49123 0.16388
 C1086 C 0.60026 0.48657 0.14005
 H1087 H 0.63190 0.49283 0.16580
 H1088 H 0.61361 0.48491 0.12428
 H1089 H 0.62758 0.49942 0.20984
 H1090 H 0.55175 0.49623 0.24521
 H1091 H 0.49796 0.48337 0.12273
 H1092 H 0.57752 0.48024 0.09617
 H1093 H 0.53093 0.49087 0.20430
 H1094 H 0.51404 0.48711 0.16627
 C1095 C 0.06091 1.00970 0.68051
 C1096 C 0.06067 0.98746 0.69694
 C1097 C 0.07514 0.98784 0.71983
 C1098 C 0.09113 1.00967 0.72638
 C1099 C 0.09211 1.03102 0.70891
 C1100 C 0.07705 1.03122 0.68673
 C1101 C 0.04555 1.00861 0.65618
 C1102 C 0.04296 1.03065 0.63978
 C1103 C 0.03149 1.02795 0.61597
 C1104 C 0.02195 1.00336 0.60780
 C1105 C 0.02200 0.98180 0.62490
 C1106 C 0.03370 0.98437 0.64917
 C1107 C 0.04694 0.96459 0.68984
 C1108 C 0.03430 0.96285 0.66624
 H1109 H 0.04683 0.94738 0.70232
 H1110 H 0.02493 0.94436 0.66126
 H1111 H 0.07458 0.97072 0.73241
 H1112 H 0.10493 1.04767 0.71163
 H1113 H 0.03107 1.04505 0.60334
 H1114 H 0.01443 0.96280 0.61886
 H1115 H 0.07916 1.04808 0.67419
 H1116 H 0.05019 1.05001 0.64474
 C1117 C -0.06250 0.50097 0.67875
 C1118 C -0.07696 0.47773 0.68395
 C1119 C -0.09052 0.47494 0.70679
 C1120 C -0.08992 0.49478 0.72553
 C1121 C -0.07525 0.51782 0.72016
 C1122 C -0.06172 0.52084 0.69735
 C1123 C -0.04965 0.50359 0.65324
 C1124 C -0.03530 0.52610 0.64538
 C1125 C -0.02540 0.52798 0.62062
 C1126 C -0.02973 0.50749 0.60327
 C1127 C -0.04277 0.48461 0.61145
 C1128 C -0.05281 0.48256 0.63589
 C1129 C -0.07852 0.45744 0.66604
 C1130 C -0.06669 0.45978 0.64260
 H1131 H -0.08944 0.43956 0.67006
 H1132 H -0.06890 0.44365 0.62928
 H1133 H -0.10224 0.45740 0.70914
 H1134 H -0.07463 0.53388 0.73369
 H1135 H -0.01532 0.54579 0.61478
 H1136 H -0.04578 0.46840 0.59834
 H1137 H -0.05113 0.53905 0.69444
 H1138 H -0.03205 0.54263 0.65789
 C1139 C 0.42810 -0.00633 0.17346
 C1140 C 0.44364 -0.00102 0.19501
 C1141 C 0.43246 -0.00271 0.21932
 C1142 C 0.40607 -0.01073 0.22240
 C1143 C 0.39209 -0.01876 0.20062
 C1144 C 0.40288 -0.01670 0.17668
 C1145 C 0.43914 -0.00094 0.14791
 C1146 C 0.42319 -0.00024 0.12618
 C1147 C 0.43410 0.00339 0.10254
 C1148 C 0.46136 0.00612 0.09957
 C1149 C 0.47735 0.00787 0.12140
 C1150 C 0.46614 0.00490 0.14570
 C1151 C 0.47004 0.00610 0.19192
 C1152 C 0.48129 0.00805 0.16782
 H1153 H 0.48230 0.00975 0.20837
 H1154 H 0.50189 0.01292 0.16648
 H1155 H 0.44411 0.00326 0.23549
 H1156 H 0.37185 -0.02494 0.20189
 H1157 H 0.42095 0.00324 0.08629
 H1158 H 0.49828 0.01083 0.11950
 H1159 H 0.39092 -0.02283 0.16085
 H1160 H 0.40215 -0.00235 0.12702
 C1161 C 0.33399 0.40357 0.01104
 C1162 C 0.31051 0.41801 0.00560
 C1163 C 0.28631 0.40468 0.00346
 C1164 C 0.28519 0.37661 0.00490
 C1165 C 0.30917 0.36261 0.00923
 C1166 C 0.33292 0.37571 0.01242
 C1167 C 0.35923 0.41852 0.01404
 C1168 C 0.38300 0.40639 0.02237
 C1169 C 0.40628 0.42089 0.02345
 C1170 C 0.40653 0.44768 0.01598
 C1171 C 0.38277 0.46024 0.00870
 C1172 C 0.35907 0.44606 0.00833
 C1173 C 0.31148 0.44562 0.00171
 C1174 C 0.33529 0.45918 0.00233
 H1175 H 0.29365 0.45682 -0.00269
 H1176 H 0.33503 0.48037 -0.00166
 H1177 H 0.26862 0.41648 0.00067
 H1178 H 0.30941 0.34108 0.01029
 H1179 H 0.42439 0.41081 0.02901
 H1180 H 0.38279 0.48108 0.00319
 H1181 H 0.35034 0.36359 0.01552
 H1182 H 0.38403 0.38571 0.02799
 C1183 C -0.16924 0.90152 0.50823
 C1184 C -0.19273 0.91595 0.50268
 C1185 C -0.21701 0.90266 0.50063
 C1186 C -0.21829 0.87460 0.50239
 C1187 C -0.19431 0.86060 0.50674
 C1188 C -0.17044 0.87366 0.50978
 C1189 C -0.14393 0.91652 0.51132
 C1190 C -0.12007 0.90448 0.51965
 C1191 C -0.09682 0.91915 0.52105
 C1192 C -0.09668 0.94604 0.51386
 C1193 C -0.12051 0.95844 0.50646
 C1194 C -0.14414 0.94410 0.50578
 C1195 C -0.19171 0.94356 0.49880
 C1196 C -0.16792 0.95716 0.49963
 H1197 H -0.20953 0.95476 0.49434
 H1198 H -0.16822 0.97837 0.49573
 H1199 H -0.23468 0.91449 0.49781
 H1200 H -0.19418 0.83908 0.50815
 H1201 H -0.07867 0.90918 0.52673
 H1202 H -0.12056 0.97931 0.50106
 H1203 H -0.15306 0.86154 0.51304
 H1204 H -0.11898 0.88374 0.52505
 C1205 C -0.18305 0.09220 0.99103
 C1206 C -0.18725 0.10833 1.01249
 C1207 C -0.21160 0.12133 1.01615
 C1208 C -0.23301 0.11815 0.99922
 C1209 C -0.22861 0.10170 0.97803
 C1210 C -0.20425 0.08893 0.97403
 C1211 C -0.15615 0.07943 0.98763
 C1212 C -0.14897 0.06393 0.96645
 C1213 C -0.12384 0.05180 0.96498
 C1214 C -0.10542 0.05463 0.98470
 C1215 C -0.11217 0.07080 1.00526
 C1216 C -0.13698 0.08323 1.00680
 C1217 C -0.16702 0.11172 1.03029
 C1218 C -0.14263 0.09923 1.02767
 H1219 H -0.17018 0.12403 1.04675
 H1220 H -0.12786 0.10226 1.04225
 H1221 H -0.21317 0.13467 1.03199
 H1222 H -0.24411 0.09924 0.96408
 H1223 H -0.11921 0.03934 0.94896
 H1224 H -0.09801 0.07339 1.02050
 H1225 H -0.20229 0.07675 0.95740
 H1226 H -0.16263 0.06072 0.95105
 C1227 C 0.32433 0.60266 0.50104
 C1228 C 0.30492 0.59694 0.48262
 C1229 C 0.27910 0.60777 0.48476
 C1230 C 0.27184 0.62406 0.50543
 C1231 C 0.29192 0.62956 0.52334
 C1232 C 0.31725 0.61896 0.52137
 C1233 C 0.35169 0.59117 0.49817
 C1234 C 0.37217 0.59609 0.51557
 C1235 C 0.39675 0.58382 0.51313
 C1236 C 0.40211 0.56639 0.49316
 C1237 C 0.38226 0.56227 0.47484
 C1238 C 0.35704 0.57443 0.47735
 C1239 C 0.31160 0.58062 0.46213
 C1240 C 0.33693 0.56955 0.45964
 H1241 H 0.29692 0.57614 0.44785
 H1242 H 0.34079 0.55685 0.44359
 H1243 H 0.26469 0.60395 0.47004
 H1244 H 0.28889 0.64299 0.53889
 H1245 H 0.41162 0.58752 0.52745
 H1246 H 0.38599 0.54868 0.45943
 H1247 H 0.33113 0.62429 0.53594
 H1248 H 0.36959 0.60894 0.53160
 C1249 C 0.17322 0.58915 0.51172
 C1250 C 0.17220 0.61702 0.51459
 C1251 C 0.19501 0.63208 0.51182
 C1252 C 0.21997 0.62021 0.50733
 C1253 C 0.22103 0.59219 0.50589
 C1254 C 0.19803 0.57698 0.50765
 C1255 C 0.14776 0.57409 0.51338
 C1256 C 0.14574 0.54684 0.50772
 C1257 C 0.12130 0.53427 0.50791
 C1258 C 0.09828 0.54823 0.51448
 C1259 C 0.10013 0.57516 0.52088
 C1260 C 0.12444 0.58829 0.51969
 C1261 C 0.14845 0.62988 0.52053
 C1262 C 0.12527 0.61579 0.52353
 H1263 H 0.14780 0.65125 0.52310
 H1264 H 0.10751 0.62676 0.52821
 H1265 H 0.19345 0.65354 0.51337
 H1266 H 0.23948 0.58171 0.50362
 H1267 H 0.12026 0.51357 0.50248
 H1268 H 0.08236 0.58629 0.52518
 H1269 H 0.20008 0.55564 0.50623
 H1270 H 0.16267 0.53518 0.50222
 C1271 C 0.66764 0.08953 0.00832
 C1272 C 0.66739 0.11763 0.00748
 C1273 C 0.69094 0.13156 0.00419
 C1274 C 0.71554 0.11830 0.00198
 C1275 C 0.71560 0.09025 0.00377
 C1276 C 0.69213 0.07616 0.00657
 C1277 C 0.64177 0.07543 0.01118
 C1278 C 0.63951 0.04752 0.01043
 C1279 C 0.61486 0.03551 0.01151
 C1280 C 0.59178 0.05082 0.01394
 C1281 C 0.59375 0.07857 0.01550
 C1282 C 0.61846 0.09096 0.01377
 C1283 C 0.64366 0.13178 0.01024
 C1284 C 0.61984 0.11878 0.01354
 H1285 H 0.64348 0.15334 0.00986
 H1286 H 0.60212 0.13076 0.01546
 H1287 H 0.69027 0.15313 0.00361
 H1288 H 0.73372 0.07886 0.00365
 H1289 H 0.61371 0.01410 0.00966
 H1290 H 0.57594 0.09058 0.01659
 H1291 H 0.69364 0.05476 0.00781
 H1292 H 0.65645 0.03466 0.00815
 C1293 C 0.68015 0.90277 0.49149
 C1294 C 0.68523 0.88786 0.51387
 C1295 C 0.70947 0.87458 0.51768
 C1296 C 0.73002 0.87616 0.49994
 C1297 C 0.72478 0.89137 0.47777
 C1298 C 0.70046 0.90449 0.47363
 C1299 C 0.65331 0.91587 0.48806
 C1300 C 0.64523 0.93033 0.46615
 C1301 C 0.62018 0.94273 0.46461
 C1302 C 0.60274 0.94122 0.48496
 C1303 C 0.61038 0.92608 0.50633
 C1304 C 0.63511 0.91344 0.50798
 C1305 C 0.66595 0.88589 0.53246
 C1306 C 0.64162 0.89858 0.52970
 H1307 H 0.66980 0.87449 0.54963
 H1308 H 0.62760 0.89663 0.54488
 H1309 H 0.71152 0.86221 0.53439
 H1310 H 0.73949 0.89254 0.46317
 H1311 H 0.61486 0.95431 0.44792
 H1312 H 0.59698 0.92440 0.52206
 H1313 H 0.69778 0.91565 0.45624
 H1314 H 0.65813 0.93249 0.45021
 C1315 C 0.18488 0.40631 0.99339
 C1316 C 0.18952 0.39111 1.01567
 C1317 C 0.21327 0.37684 1.01924
 C1318 C 0.23380 0.37801 1.00146
 C1319 C 0.22897 0.39352 0.97940
 C1320 C 0.20510 0.40742 0.97543
 C1321 C 0.15861 0.42052 0.99019
 C1322 C 0.15087 0.43497 0.96818
 C1323 C 0.12629 0.44824 0.96670
 C1324 C 0.10907 0.44773 0.98726
 C1325 C 0.11640 0.43278 1.00883
 C1326 C 0.14059 0.41909 1.01034
 C1327 C 0.17039 0.39004 1.03447
 C1328 C 0.14668 0.40398 1.03203
 H1329 H 0.17392 0.37846 1.05159
 H1330 H 0.13277 0.40275 1.04736
 H1331 H 0.21504 0.36433 1.03587
 H1332 H 0.24375 0.39450 0.96486
 H1333 H 0.12111 0.45956 0.94981
 H1334 H 0.10307 0.43178 1.02467
 H1335 H 0.20279 0.41885 0.95816
 H1336 H 0.16359 0.43630 0.95202
 C1337 C -0.00393 0.31836 0.41808
 C1338 C -0.02515 0.31271 0.40161
 C1339 C -0.02354 0.29099 0.38534
 C1340 C -0.00012 0.27590 0.38365
 C1341 C 0.02037 0.28112 0.40094
 C1342 C 0.01863 0.30200 0.41775
 C1343 C -0.00571 0.34242 0.43413
 C1344 C 0.01404 0.34908 0.45172
 C1345 C 0.01321 0.37344 0.46385
 C1346 C -0.00734 0.39152 0.45876
 C1347 C -0.02821 0.38422 0.44294
 C1348 C -0.02762 0.35972 0.43071
 C1349 C -0.04741 0.32938 0.40074
 C1350 C -0.04841 0.35275 0.41465
 H1351 H -0.06376 0.32496 0.38823
 H1352 H -0.06547 0.36574 0.41251
 H1353 H -0.04065 0.28622 0.37410
 H1354 H 0.03821 0.26910 0.40098
 H1355 H 0.02925 0.37855 0.47646
 H1356 H -0.04460 0.39788 0.43966
 H1357 H 0.03550 0.30532 0.42973
 H1358 H 0.03055 0.33613 0.45605
 C1359 C 0.49693 -0.18657 -0.08161
 C1360 C 0.47439 -0.19364 -0.09572
 C1361 C 0.47491 -0.21640 -0.11069
 C1362 C 0.49840 -0.23114 -0.11350
 C1363 C 0.51970 -0.22551 -0.09730
 C1364 C 0.51905 -0.20358 -0.08162
 C1365 C 0.49682 -0.16057 -0.06842
 C1366 C 0.51881 -0.15131 -0.05490
 C1367 C 0.51862 -0.12592 -0.04481
 C1368 C 0.49663 -0.10925 -0.04810
 C1369 C 0.47430 -0.11847 -0.06072
 C1370 C 0.47420 -0.14403 -0.07083
 C1371 C 0.45191 -0.17729 -0.09587
 C1372 C 0.45187 -0.15283 -0.08377
 H1373 H 0.43450 -0.18294 -0.10640
 H1374 H 0.43440 -0.14032 -0.08517
 H1375 H 0.45718 -0.22177 -0.12072
 H1376 H 0.53756 -0.23745 -0.09784
 H1377 H 0.53594 -0.11912 -0.03481
 H1378 H 0.45702 -0.10572 -0.06270
 H1379 H 0.53647 -0.19990 -0.07052
 H1380 H 0.53649 -0.16303 -0.05216
 C1381 C 0.00381 -0.18044 1.08082
 C1382 C -0.01938 -0.19543 1.07920
 C1383 C -0.02212 -0.21796 1.09439
 C1384 C -0.00224 -0.22578 1.11169
 C1385 C 0.02182 -0.21230 1.11111
 C1386 C 0.02471 -0.18981 1.09612
 C1387 C 0.00502 -0.15508 1.06637
 C1388 C 0.02582 -0.13717 1.06940
 C1389 C 0.02507 -0.11270 1.05711
 C1390 C 0.00373 -0.10574 1.04143
 C1391 C -0.01662 -0.12371 1.03754
 C1392 C -0.01642 -0.14806 1.05032
 C1393 C -0.03976 -0.18778 1.06263
 C1394 C -0.03813 -0.16470 1.04813
 H1395 H -0.05733 -0.19962 1.06108
 H1396 H -0.05450 -0.15928 1.03578
 H1397 H -0.04006 -0.22930 1.09324
 H1398 H 0.03884 -0.21916 1.12180
 H1399 H 0.04104 -0.09902 1.06016
 H1400 H -0.03332 -0.11817 1.02562
 H1401 H 0.04355 -0.18030 1.09666
 H1402 H 0.04237 -0.14116 1.08180
 C1403 C 0.50012 0.31928 0.57824
 C1404 C 0.52378 0.31032 0.58984
 C1405 C 0.52452 0.28599 0.60271
 C1406 C 0.50138 0.27137 0.60569
 C1407 C 0.47920 0.27860 0.59096
 C1408 C 0.47854 0.30222 0.57738
 C1409 C 0.49874 0.34684 0.56814
 C1410 C 0.47510 0.35840 0.55908
 C1411 C 0.47448 0.38449 0.55052
 C1412 C 0.49728 0.39965 0.55109
 C1413 C 0.52083 0.38864 0.56050
 C1414 C 0.52171 0.36234 0.56910
 C1415 C 0.54617 0.32616 0.58944
 C1416 C 0.54521 0.35166 0.57903
 H1417 H 0.56446 0.31905 0.59792
 H1418 H 0.56284 0.36349 0.57953
 H1419 H 0.54290 0.27927 0.61117
 H1420 H 0.46167 0.26665 0.59130
 H1421 H 0.45608 0.39287 0.54341
 H1422 H 0.53854 0.40040 0.56074
 H1423 H 0.46065 0.30706 0.56717
 H1424 H 0.45680 0.34789 0.55866
 C1425 C 0.49129 1.17993 0.57379
 C1426 C 0.51424 1.19533 0.57360
 C1427 C 0.51602 1.21737 0.58924
 C1428 C 0.49547 1.22407 0.60572
 C1429 C 0.47145 1.21082 0.60310
 C1430 C 0.46944 1.18887 0.58751
 C1431 C 0.49156 1.15433 0.56009
 C1432 C 0.47143 1.13567 0.56279
 C1433 C 0.47372 1.11084 0.55177
 C1434 C 0.49592 1.10425 0.53764
 C1435 C 0.51565 1.12293 0.53404
 C1436 C 0.51395 1.14768 0.54568
 C1437 C 0.53548 1.18826 0.55837
 C1438 C 0.53513 1.16505 0.54426
 H1439 H 0.55282 1.20051 0.55779
 H1440 H 0.55221 1.15998 0.53311
 H1441 H 0.53395 1.22878 0.58955
 H1442 H 0.45400 1.21721 0.61293
 H1443 H 0.45816 1.09666 0.55458
 H1444 H 0.53298 1.11771 0.52329
 H1445 H 0.45069 1.17919 0.58657
 H1446 H 0.45429 1.13936 0.57409
 C1447 C -0.00520 0.68478 1.07331
 C1448 C -0.02874 0.69078 1.08613
 C1449 C -0.02988 0.71248 1.10237
 C1450 C -0.00708 0.72692 1.10795
 C1451 C 0.01558 0.72200 1.09363
 C1452 C 0.01657 0.70129 1.07660
 C1453 C -0.00375 0.65997 1.05837
 C1454 C 0.01888 0.65242 1.04500
 C1455 C 0.02070 0.62744 1.03423
 C1456 C -0.00000 0.60964 1.03651
 C1457 C -0.02335 0.61755 1.04813
 C1458 C -0.02544 0.64269 1.05894
 C1459 C -0.05050 0.67420 1.08387
 C1460 C -0.04873 0.65032 1.07085
 H1461 H -0.06864 0.67900 1.09347
 H1462 H -0.06556 0.63734 1.07068
 H1463 H -0.04839 0.71731 1.11118
 H1464 H 0.03305 0.73371 1.09646
 H1465 H 0.03867 0.62176 1.02476
 H1466 H -0.03972 0.60400 1.04905
 H1467 H 0.03496 0.69801 1.06717
 H1468 H 0.03559 0.66514 1.04298
 C1469 C 0.51272 0.67737 -0.08291
 C1470 C 0.48896 0.69218 -0.08300
 C1471 C 0.48588 0.71407 -0.09915
 C1472 C 0.50596 0.72146 -0.11582
 C1473 C 0.53040 0.70808 -0.11370
 C1474 C 0.53364 0.68623 -0.09774
 C1475 C 0.51447 0.65271 -0.06726
 C1476 C 0.53612 0.63504 -0.06833
 C1477 C 0.53580 0.61100 -0.05529
 C1478 C 0.51408 0.60424 -0.04072
 C1479 C 0.49298 0.62214 -0.03847
 C1480 C 0.49274 0.64604 -0.05209
 C1481 C 0.46837 0.68499 -0.06714
 C1482 C 0.47036 0.66251 -0.05171
 H1483 H 0.45032 0.69669 -0.06692
 H1484 H 0.45377 0.65740 -0.04003
 H1485 H 0.46754 0.72531 -0.09918
 H1486 H 0.54749 0.71460 -0.12380
 H1487 H 0.55237 0.59740 -0.05703
 H1488 H 0.47604 0.61673 -0.02738
 H1489 H 0.55279 0.67681 -0.09714
 H1490 H 0.55303 0.63882 -0.07983
 C1491 C 0.00405 1.18235 0.41478
 C1492 C 0.02721 1.18898 0.40177
 C1493 C 0.02799 1.21233 0.38729
 C1494 C 0.00528 1.22835 0.38415
 C1495 C -0.01670 1.22281 0.39914
 C1496 C -0.01735 1.20025 0.41421
 C1497 C 0.00293 1.15616 0.42788
 C1498 C -0.01980 1.14738 0.44018
 C1499 C -0.02040 1.12227 0.45111
 C1500 C 0.00151 1.10529 0.44987
 C1501 C 0.02434 1.11377 0.43790
 C1502 C 0.02524 1.13911 0.42695
 C1503 C 0.04910 1.17181 0.40252
 C1504 C 0.04811 1.14729 0.41486
 H1505 H 0.06697 1.17704 0.39281
 H1506 H 0.06529 1.13432 0.41445
 H1507 H 0.04612 1.21737 0.37807
 H1508 H -0.03403 1.23555 0.39820
 H1509 H -0.03821 1.11600 0.46035
 H1510 H 0.04148 1.10073 0.43729
 H1511 H -0.03514 1.19697 0.42456
 H1512 H -0.03745 1.15933 0.44146
 C1513 C 0.74588 0.68021 0.92971
 C1514 C 0.76092 0.69132 0.94953
 C1515 C 0.76394 0.67744 0.97291
 C1516 C 0.75177 0.65260 0.97683
 C1517 C 0.74045 0.64052 0.95527
 C1518 C 0.73692 0.65417 0.93256
 C1519 C 0.74186 0.69564 0.90557
 C1520 C 0.72467 0.68724 0.88627
 C1521 C 0.72367 0.70040 0.86298
 C1522 C 0.73929 0.72257 0.85843
 C1523 C 0.75493 0.73256 0.87823
 C1524 C 0.75603 0.71933 0.90198
 C1525 C 0.77332 0.71575 0.94541
 C1526 C 0.77148 0.72908 0.92196
 H1527 H 0.78520 0.72435 0.96029
 H1528 H 0.78217 0.74740 0.91952
 H1529 H 0.77581 0.68589 0.98785
 H1530 H 0.73372 0.62021 0.95587
 H1531 H 0.71154 0.69243 0.84795
 H1532 H 0.76715 0.74966 0.87476
 H1533 H 0.72763 0.64368 0.91722
 H1534 H 0.71225 0.67019 0.88859
 C1535 C 0.25190 0.18797 0.43310
 C1536 C 0.22914 0.18612 0.44795
 C1537 C 0.22985 0.17112 0.47065
 C1538 C 0.25257 0.15631 0.47820
 C1539 C 0.27451 0.15734 0.46209
 C1540 C 0.27432 0.17310 0.44034
 C1541 C 0.25064 0.20393 0.40908
 C1542 C 0.27306 0.20895 0.39465
 C1543 C 0.27069 0.22060 0.37082
 C1544 C 0.24604 0.22795 0.36075
 C1545 C 0.22370 0.22566 0.37597
 C1546 C 0.22596 0.21380 0.40031
 C1547 C 0.20561 0.19821 0.43936
 C1548 C 0.20388 0.21108 0.41574
 H1549 H 0.18798 0.19670 0.45056
 H1550 H 0.18498 0.21899 0.40946
 H1551 H 0.21239 0.17027 0.48216
 H1552 H 0.29214 0.14572 0.46556
 H1553 H 0.28824 0.22280 0.35959
 H1554 H 0.20462 0.23162 0.36843
 H1555 H 0.29171 0.17247 0.42888
 H1556 H 0.29257 0.20348 0.40116
 C1557 C 0.75909 0.31834 0.42627
 C1558 C 0.75613 0.34636 0.42707
 C1559 C 0.75148 0.35923 0.45003
 C1560 C 0.75037 0.34513 0.47316
 C1561 C 0.75374 0.31717 0.47227
 C1562 C 0.75766 0.30400 0.44922
 C1563 C 0.76394 0.30550 0.40097
 C1564 C 0.76587 0.27765 0.39732
 C1565 C 0.76854 0.26698 0.37287
 C1566 C 0.76958 0.28389 0.35166
 C1567 C 0.76934 0.31152 0.35548
 C1568 C 0.76598 0.32234 0.37954
 C1569 C 0.75846 0.36169 0.40505
 C1570 C 0.76353 0.34997 0.38187
 H1571 H 0.75644 0.38317 0.40574
 H1572 H 0.76506 0.36278 0.36537
 H1573 H 0.74963 0.38076 0.45019
 H1574 H 0.75440 0.30519 0.48930
 H1575 H 0.76847 0.24561 0.37045
 H1576 H 0.77041 0.32486 0.33930
 H1577 H 0.76027 0.28266 0.44982
 H1578 H 0.76442 0.26386 0.41297
 C1579 C 0.24491 0.81344 0.93153
 C1580 C 0.26625 0.81162 0.94870
 C1581 C 0.26540 0.82573 0.97169
 C1582 C 0.24425 0.84331 0.97731
 C1583 C 0.22393 0.84592 0.95902
 C1584 C 0.22400 0.83096 0.93694
 C1585 C 0.24639 0.79840 0.90720
 C1586 C 0.22488 0.79683 0.89049
 C1587 C 0.22785 0.78567 0.86672
 C1588 C 0.25223 0.77554 0.85880
 C1589 C 0.27329 0.77446 0.87626
 C1590 C 0.27035 0.78570 0.90063
 C1591 C 0.28880 0.79688 0.94211
 C1592 C 0.29110 0.78488 0.91833
 H1593 H 0.30539 0.79559 0.95510
 H1594 H 0.30937 0.77480 0.91376
 H1595 H 0.28179 0.82392 0.98486
 H1596 H 0.20797 0.86006 0.96096
 H1597 H 0.21106 0.78590 0.85394
 H1598 H 0.29207 0.76623 0.87054
 H1599 H 0.20799 0.83441 0.92373
 H1600 H 0.20569 0.80453 0.89523
 C1601 C 0.23794 0.81825 0.07400
 C1602 C 0.24155 0.84610 0.07265
 C1603 C 0.24509 0.85880 0.04930
 C1604 C 0.24476 0.84472 0.02636
 C1605 C 0.24084 0.81695 0.02773
 C1606 C 0.23775 0.80392 0.05115
 C1607 C 0.23433 0.80562 0.09977
 C1608 C 0.23139 0.77795 0.10398
 C1609 C 0.22939 0.76746 0.12874
 C1610 C 0.23023 0.78437 0.14974
 C1611 C 0.23190 0.81191 0.14543
 C1612 C 0.23433 0.82251 0.12106
 C1613 C 0.24120 0.86147 0.09457
 C1614 C 0.23750 0.84997 0.11819
 H1615 H 0.24378 0.88282 0.09345
 H1616 H 0.23750 0.86281 0.13458
 H1617 H 0.24762 0.88020 0.04877
 H1618 H 0.23943 0.80512 0.01081
 H1619 H 0.22817 0.74614 0.13147
 H1620 H 0.23212 0.82537 0.16137
 H1621 H 0.23474 0.78270 0.05101
 H1622 H 0.23121 0.76414 0.08845
 C1623 C 0.74791 0.31337 0.56836
 C1624 C 0.76915 0.33051 0.56361
 C1625 C 0.77001 0.34553 0.54117
 C1626 C 0.75040 0.34354 0.52223
 C1627 C 0.72932 0.32632 0.52714
 C1628 C 0.72810 0.31144 0.54968
 C1629 C 0.74723 0.29893 0.59350
 C1630 C 0.72657 0.28215 0.60107
 C1631 C 0.72626 0.27087 0.62555
 C1632 C 0.74655 0.27607 0.64293
 C1633 C 0.76772 0.29152 0.63497
 C1634 C 0.76810 0.30311 0.61084
 C1635 C 0.78938 0.33314 0.58149
 C1636 C 0.78894 0.31965 0.60450
 H1637 H 0.80576 0.34611 0.57777
 H1638 H 0.80494 0.32271 0.61781
 H1639 H 0.78590 0.35938 0.53922
 H1640 H 0.71347 0.32463 0.51344
 H1641 H 0.70969 0.25901 0.63119
 H1642 H 0.78378 0.29536 0.64805
 H1643 H 0.71137 0.29878 0.55226
 H1644 H 0.71022 0.27810 0.58859
 C1645 C 0.25814 0.18399 0.57331
 C1646 C 0.25823 0.15582 0.57317
 C1647 C 0.25495 0.14198 0.55046
 C1648 C 0.25189 0.15529 0.52700
 C1649 C 0.25194 0.18345 0.52728
 C1650 C 0.25477 0.19750 0.55002
 C1651 C 0.26170 0.19788 0.59835
 C1652 C 0.26130 0.22590 0.60126
 C1653 C 0.26319 0.23745 0.62545
 C1654 C 0.26558 0.22127 0.64712
 C1655 C 0.26742 0.19358 0.64409
 C1656 C 0.26516 0.18186 0.62028
 C1657 C 0.26201 0.14137 0.59565
 C1658 C 0.26552 0.15408 0.61864
 H1659 H 0.26225 0.11980 0.59548
 H1660 H 0.26818 0.14191 0.63552
 H1661 H 0.25536 0.12039 0.55084
 H1662 H 0.25051 0.19502 0.51004
 H1663 H 0.26159 0.25885 0.62728
 H1664 H 0.26965 0.18086 0.66068
 H1665 H 0.25475 0.21896 0.54895
 H1666 H 0.25884 0.23910 0.58519
 C1667 C 0.75462 0.67782 0.07532
 C1668 C 0.74720 0.69271 0.05352
 C1669 C 0.74516 0.67998 0.02969
 C1670 C 0.75074 0.65241 0.02741
 C1671 C 0.75484 0.63774 0.05004
 C1672 C 0.75704 0.65008 0.07336
 C1673 C 0.75841 0.69194 0.09997
 C1674 C 0.76878 0.67900 0.12163
 C1675 C 0.76990 0.69202 0.14473
 C1676 C 0.76115 0.71844 0.14704
 C1677 C 0.75272 0.73240 0.12514
 C1678 C 0.75150 0.71925 0.10149
 C1679 C 0.74164 0.72004 0.05593
 C1680 C 0.74318 0.73286 0.07943
 H1681 H 0.73559 0.73164 0.03945
 H1682 H 0.73806 0.75383 0.08029
 H1683 H 0.73913 0.69161 0.01332
 H1684 H 0.75774 0.61636 0.04946
 H1685 H 0.77680 0.68098 0.16126
 H1686 H 0.74599 0.75287 0.12670
 H1687 H 0.76071 0.63745 0.08964
 H1688 H 0.77580 0.65866 0.12125
 C1689 C 0.14450 0.57871 0.24607
 C1690 C 0.15059 0.55909 0.22796
 C1691 C 0.13942 0.53343 0.22977
 C1692 C 0.12263 0.52646 0.24995
 C1693 C 0.11699 0.54667 0.26770
 C1694 C 0.12781 0.57189 0.26597
 C1695 C 0.15617 0.60596 0.24344
 C1696 C 0.15038 0.62680 0.26023
 C1697 C 0.16298 0.65113 0.25830
 C1698 C 0.18156 0.65585 0.23947
 C1699 C 0.18646 0.63583 0.22155
 C1700 C 0.17390 0.61084 0.22351
 C1701 C 0.16770 0.56537 0.20817
 C1702 C 0.17927 0.59050 0.20615
 H1703 H 0.17251 0.55050 0.19417
 H1704 H 0.19268 0.59405 0.19074
 H1705 H 0.14340 0.51893 0.21519
 H1706 H 0.10324 0.54390 0.28285
 H1707 H 0.15869 0.66628 0.27221
 H1708 H 0.20088 0.63918 0.20697
 H1709 H 0.12241 0.58587 0.28043
 H1710 H 0.13656 0.62469 0.27538
 C1711 C 0.65569 0.07340 0.73952
 C1712 C 0.62797 0.07431 0.74024
 C1713 C 0.61377 0.05085 0.74420
 C1714 C 0.62639 0.02572 0.74727
 C1715 C 0.65407 0.02507 0.74592
 C1716 C 0.66843 0.04843 0.74241
 C1717 C 0.67012 0.09913 0.73557
 C1718 C 0.69775 0.10071 0.73593
 C1719 C 0.71015 0.12532 0.73394
 C1720 C 0.69547 0.14896 0.73096
 C1721 C 0.66801 0.14765 0.72963
 C1722 C 0.65525 0.12302 0.73223
 C1723 C 0.61447 0.09857 0.73663
 C1724 C 0.62777 0.12231 0.73257
 H1725 H 0.59318 0.09924 0.73697
 H1726 H 0.61632 0.14051 0.73007
 H1727 H 0.59249 0.05196 0.74440
 H1728 H 0.66501 0.00653 0.74672
 H1729 H 0.73135 0.12603 0.73565
 H1730 H 0.65656 0.16597 0.72812
 H1731 H 0.68951 0.04641 0.74146
 H1732 H 0.71013 0.08331 0.73863
 C1733 C 0.85176 0.07647 0.25388
 C1734 C 0.84706 0.05677 0.27245
 C1735 C 0.85871 0.03110 0.27037
 C1736 C 0.87485 0.02423 0.24965
 C1737 C 0.87944 0.04453 0.23160
 C1738 C 0.86801 0.06980 0.23350
 C1739 C 0.83928 0.10367 0.25669
 C1740 C 0.84296 0.12441 0.23906
 C1741 C 0.82975 0.14872 0.24145
 C1742 C 0.81265 0.15352 0.26158
 C1743 C 0.80969 0.13351 0.28008
 C1744 C 0.82278 0.10853 0.27763
 C1745 C 0.83092 0.06298 0.29303
 C1746 C 0.81901 0.08816 0.29550
 H1747 H 0.82726 0.04804 0.30741
 H1748 H 0.80648 0.09168 0.31162
 H1749 H 0.85558 0.01643 0.28514
 H1750 H 0.89275 0.04170 0.21607
 H1751 H 0.83238 0.16380 0.22695
 H1752 H 0.79628 0.13686 0.29556
 H1753 H 0.87264 0.08397 0.21886
 H1754 H 0.85549 0.12218 0.22289
 C1755 C 0.34359 0.57557 0.76021
 C1756 C 0.37118 0.57633 0.76275
 C1757 C 0.38640 0.55311 0.75941
 C1758 C 0.37498 0.52807 0.75434
 C1759 C 0.34728 0.52735 0.75318
 C1760 C 0.33192 0.55068 0.75566
 C1761 C 0.32821 0.60133 0.76280
 C1762 C 0.30099 0.60349 0.75791
 C1763 C 0.28796 0.62819 0.75905
 C1764 C 0.30142 0.65134 0.76573
 C1765 C 0.32836 0.64939 0.77134
 C1766 C 0.34191 0.62477 0.76933
 C1767 C 0.38355 0.60021 0.76900
 C1768 C 0.36923 0.62373 0.77265
 H1769 H 0.40472 0.60069 0.77130
 H1770 H 0.37982 0.64157 0.77751
 H1771 H 0.40759 0.55436 0.76105
 H1772 H 0.33707 0.50887 0.75082
 H1773 H 0.26724 0.62935 0.75418
 H1774 H 0.33905 0.66731 0.77575
 H1775 H 0.31086 0.54876 0.75450
 H1776 H 0.28964 0.58650 0.75233
 C1777 C 0.35598 0.42394 0.74599
 C1778 C 0.35060 0.44427 0.72796
 C1779 C 0.36229 0.46962 0.73054
 C1780 C 0.37874 0.47569 0.75151
 C1781 C 0.38397 0.45471 0.76897
 C1782 C 0.37276 0.42970 0.76642
 C1783 C 0.34340 0.39714 0.74272
 C1784 C 0.34817 0.37570 0.75952
 C1785 C 0.33471 0.35188 0.75697
 C1786 C 0.31618 0.34827 0.73751
 C1787 C 0.31224 0.36894 0.71963
 C1788 C 0.32570 0.39341 0.72221
 C1789 C 0.33352 0.43907 0.70759
 C1790 C 0.32121 0.41438 0.70491
 H1791 H 0.32928 0.45449 0.69364
 H1792 H 0.30785 0.41173 0.68907
 H1793 H 0.35868 0.48474 0.71614
 H1794 H 0.39754 0.45683 0.78463
 H1795 H 0.33827 0.33628 0.77091
 H1796 H 0.29786 0.36652 0.70459
 H1797 H 0.37779 0.41507 0.78074
 H1798 H 0.36183 0.37697 0.77516
 C1799 C 0.84188 0.92470 0.24271
 C1800 C 0.86959 0.92335 0.24276
 C1801 C 0.88433 0.94650 0.24629
 C1802 C 0.87234 0.97193 0.24907
 C1803 C 0.84463 0.97310 0.24817
 C1804 C 0.82970 0.94994 0.24540
 C1805 C 0.82691 0.89916 0.23943
 C1806 C 0.79935 0.89780 0.24122
 C1807 C 0.78658 0.87334 0.23961
 C1808 C 0.80072 0.84962 0.23551
 C1809 C 0.82806 0.85074 0.23292
 C1810 C 0.84125 0.87517 0.23534
 C1811 C 0.88256 0.89896 0.23876
 C1812 C 0.86874 0.87553 0.23481
 H1813 H 0.90384 0.89798 0.23852
 H1814 H 0.87980 0.85727 0.23181
 H1815 H 0.90560 0.94494 0.24624
 H1816 H 0.83412 0.99187 0.24886
 H1817 H 0.76551 0.87281 0.24224
 H1818 H 0.83920 0.83239 0.23059
 H1819 H 0.80861 0.95228 0.24476
 H1820 H 0.78743 0.91526 0.24475
 C1821 C 0.65282 0.92374 0.75735
 C1822 C 0.63711 0.92865 0.73552
 C1823 C 0.62344 0.95297 0.73235
 C1824 C 0.62580 0.97381 0.75002
 C1825 C 0.64166 0.96867 0.77167
 C1826 C 0.65495 0.94423 0.77528
 C1827 C 0.66654 0.89697 0.76008
 C1828 C 0.68148 0.88904 0.78164
 C1829 C 0.69452 0.86414 0.78260
 C1830 C 0.69327 0.84678 0.76197
 C1831 C 0.67773 0.85420 0.74090
 C1832 C 0.66425 0.87875 0.73991
 C1833 C 0.63505 0.90925 0.71676
 C1834 C 0.64860 0.88507 0.71872
 H1835 H 0.62306 0.91298 0.69999
 H1836 H 0.64667 0.87099 0.70340
 H1837 H 0.61051 0.95502 0.71611
 H1838 H 0.64351 0.98373 0.78611
 H1839 H 0.70635 0.85888 0.79909
 H1840 H 0.67625 0.84075 0.72501
 H1841 H 0.66680 0.94173 0.79220
 H1842 H 0.68345 0.90187 0.79780
 C1843 C 0.15443 0.42515 0.25864
 C1844 C 0.16751 0.44926 0.25352
 C1845 C 0.15309 0.47350 0.25101
 C1846 C 0.12531 0.47386 0.25163
 C1847 C 0.11281 0.44914 0.25539
 C1848 C 0.12692 0.42548 0.25905
 C1849 C 0.17036 0.39995 0.26219
 C1850 C 0.15949 0.37579 0.27063
 C1851 C 0.17485 0.35249 0.27226
 C1852 C 0.20127 0.35258 0.26519
 C1853 C 0.21260 0.37679 0.25784
 C1854 C 0.19752 0.40056 0.25701
 C1855 C 0.19483 0.44878 0.25026
 C1856 C 0.20935 0.42489 0.25118
 H1857 H 0.20505 0.46704 0.24608
 H1858 H 0.23025 0.42554 0.24763
 H1859 H 0.16374 0.49173 0.24849
 H1860 H 0.09157 0.44820 0.25565
 H1861 H 0.16575 0.33410 0.27802
 H1862 H 0.23318 0.37707 0.25277
 H1863 H 0.11585 0.40753 0.26167
 H1864 H 0.13916 0.37449 0.27601
 C1865 C 0.07633 0.25446 0.83212
 C1866 C 0.07502 0.24227 0.85624
 C1867 C 0.05110 0.24086 0.86857
 C1868 C 0.02788 0.25079 0.85715
 C1869 C 0.02947 0.26354 0.83345
 C1870 C 0.05323 0.26503 0.82094
 C1871 C 0.10237 0.25608 0.81982
 C1872 C 0.10579 0.26798 0.79589
 C1873 C 0.13050 0.26865 0.78507
 C1874 C 0.15224 0.25744 0.79784
 C1875 C 0.14915 0.24600 0.82182
 C1876 C 0.12448 0.24517 0.83284
 C1877 C 0.09761 0.23196 0.86820
 C1878 C 0.12191 0.23335 0.85669
 H1879 H 0.09650 0.22268 0.88674
 H1880 H 0.13892 0.22504 0.86660
 H1881 H 0.05062 0.23246 0.88750
 H1882 H 0.01246 0.27309 0.82473
 H1883 H 0.13246 0.27756 0.76647
 H1884 H 0.16595 0.23749 0.83194
 H1885 H 0.05302 0.27502 0.80284
 H1886 H 0.08976 0.27665 0.78506
 C1887 C 0.56115 0.74685 0.31476
 C1888 C 0.55429 0.72356 0.32812
 C1889 C 0.53201 0.72370 0.34316
 C1890 C 0.51792 0.74758 0.34691
 C1891 C 0.52234 0.76907 0.33037
 C1892 C 0.54368 0.76873 0.31439
 C1893 C 0.58766 0.74810 0.30359
 C1894 C 0.59742 0.77166 0.29289
 C1895 C 0.62340 0.77296 0.28560
 C1896 C 0.64010 0.75090 0.28895
 C1897 C 0.63052 0.72706 0.29869
 C1898 C 0.60442 0.72550 0.30613
 C1899 C 0.57070 0.70100 0.32795
 C1900 C 0.59539 0.70195 0.31706
 H1901 H 0.56504 0.68291 0.33763
 H1902 H 0.60809 0.68449 0.31842
 H1903 H 0.52690 0.70561 0.35304
 H1904 H 0.51030 0.78697 0.33122
 H1905 H 0.63059 0.79141 0.27771
 H1906 H 0.64344 0.70979 0.30061
 H1907 H 0.54681 0.78632 0.30309
 H1908 H 0.58568 0.78952 0.29055
 C1909 C 0.56981 0.24823 0.17245
 C1910 C 0.56220 0.27075 0.15780
 C1911 C 0.53948 0.27011 0.14283
 C1912 C 0.52484 0.24665 0.14081
 C1913 C 0.53207 0.22477 0.15628
 C1914 C 0.55425 0.22540 0.17167
 C1915 C 0.59466 0.24933 0.18743
 C1916 C 0.60355 0.22818 0.20310
 C1917 C 0.62810 0.22912 0.21476
 C1918 C 0.64416 0.25110 0.21098
 C1919 C 0.63487 0.27296 0.19681
 C1920 C 0.61022 0.27230 0.18514
 C1921 C 0.57760 0.29360 0.15767
 C1922 C 0.60137 0.29422 0.17080
 H1923 H 0.57165 0.31091 0.14656
 H1924 H 0.61315 0.31197 0.16946
 H1925 H 0.53340 0.28812 0.13297
 H1926 H 0.52050 0.20684 0.15614
 H1927 H 0.63491 0.21221 0.22598
 H1928 H 0.64707 0.29032 0.19449
 H1929 H 0.55895 0.20763 0.18242
 H1930 H 0.59219 0.21056 0.20630
 C1931 C 0.06562 0.75667 0.67318
 C1932 C 0.05195 0.73245 0.67232
 C1933 C 0.02990 0.73028 0.65664
 C1934 C 0.02167 0.75164 0.64094
 C1935 C 0.03355 0.77651 0.64444
 C1936 C 0.05529 0.77895 0.66015
 C1937 C 0.09083 0.75742 0.68743
 C1938 C 0.10748 0.77949 0.68628
 C1939 C 0.13199 0.77846 0.69786
 C1940 C 0.14032 0.75555 0.71099
 C1941 C 0.12361 0.73381 0.71316
 C1942 C 0.09914 0.73435 0.70097
 C1943 C 0.06065 0.71048 0.68669
 C1944 C 0.08366 0.71154 0.70107
 H1945 H 0.04982 0.69207 0.68642
 H1946 H 0.09000 0.69392 0.71153
 H1947 H 0.01959 0.71156 0.65582
 H1948 H 0.02609 0.79445 0.63535
 H1949 H 0.14463 0.79556 0.69626
 H1950 H 0.13021 0.71597 0.72316
 H1951 H 0.06362 0.79847 0.66178
 H1952 H 0.10250 0.79737 0.67581
 C1953 C 0.93273 0.73987 0.67529
 C1954 C 0.94697 0.76372 0.67413
 C1955 C 0.96822 0.76565 0.65790
 C1956 C 0.97510 0.74445 0.64189
 C1957 C 0.96280 0.71983 0.64553
 C1958 C 0.94181 0.71761 0.66187
 C1959 C 0.90799 0.73971 0.68987
 C1960 C 0.89073 0.71811 0.68916
 C1961 C 0.86637 0.72002 0.70044
 C1962 C 0.85880 0.74334 0.71285
 C1963 C 0.87629 0.76442 0.71496
 C1964 C 0.90061 0.76301 0.70307
 C1965 C 0.93945 0.78574 0.68853
 C1966 C 0.91681 0.78528 0.70300
 H1967 H 0.95079 0.80383 0.68803
 H1968 H 0.91126 0.80302 0.71330
 H1969 H 0.97882 0.78418 0.65676
 H1970 H 0.96924 0.70205 0.63590
 H1971 H 0.85321 0.70332 0.69905
 H1972 H 0.87035 0.78250 0.72456
 H1973 H 0.93294 0.69833 0.66350
 H1974 H 0.89510 0.69998 0.67921
 C1975 C 0.43813 0.24336 0.18163
 C1976 C 0.44360 0.22023 0.16746
 C1977 C 0.46405 0.22012 0.15010
 C1978 C 0.47810 0.24347 0.14513
 C1979 C 0.47405 0.26550 0.16098
 C1980 C 0.45432 0.26557 0.17884
 C1981 C 0.41427 0.24386 0.19760
 C1982 C 0.40657 0.26636 0.21160
 C1983 C 0.38210 0.26738 0.22296
 C1984 C 0.36500 0.24602 0.22058
 C1985 C 0.37333 0.22267 0.20867
 C1986 C 0.39778 0.22144 0.19713
 C1987 C 0.42785 0.19776 0.16973
 C1988 C 0.40518 0.19844 0.18412
 H1989 H 0.43235 0.17988 0.15920
 H1990 H 0.39278 0.18108 0.18431
 H1991 H 0.46842 0.20187 0.14019
 H1992 H 0.48574 0.28321 0.15881
 H1993 H 0.37605 0.28538 0.23257
 H1994 H 0.36032 0.20578 0.20757
 H1995 H 0.45164 0.28353 0.18956
 H1996 H 0.41864 0.28371 0.21333
 C1997 C 0.42236 0.75706 0.32845
 C1998 C 0.43851 0.73426 0.32573
 C1999 C 0.46305 0.73329 0.33744
 C2000 C 0.47160 0.75448 0.35253
 C2001 C 0.45709 0.77851 0.35185
 C2002 C 0.43262 0.77972 0.34014
 C2003 C 0.39495 0.75602 0.31900
 C2004 C 0.37629 0.77595 0.32456
 C2005 C 0.35067 0.77390 0.31579
 C2006 C 0.34326 0.75198 0.30135
 C2007 C 0.36147 0.73172 0.29620
 C2008 C 0.38714 0.73335 0.30529
 C2009 C 0.42983 0.71237 0.31194
 C2010 C 0.40472 0.71217 0.30140
 H2011 H 0.44250 0.69510 0.30947
 H2012 H 0.39866 0.69482 0.29091
 H2013 H 0.47502 0.71533 0.33616
 H2014 H 0.46428 0.79645 0.36048
 H2015 H 0.33679 0.78977 0.31992
 H2016 H 0.35558 0.71449 0.28540
 H2017 H 0.42204 0.79845 0.34060
 H2018 H 0.38091 0.79303 0.33590
 C2019 C 0.92828 0.24920 0.83279
 C2020 C 0.93078 0.26452 0.85494
 C2021 C 0.95509 0.26631 0.86706
 C2022 C 0.97753 0.25371 0.85714
 C2023 C 0.97472 0.23823 0.83527
 C2024 C 0.95063 0.23632 0.82304
 C2025 C 0.90182 0.24689 0.82097
 C2026 C 0.89722 0.23141 0.79936
 C2027 C 0.87227 0.23023 0.78874
 C2028 C 0.85134 0.24445 0.79939
 C2029 C 0.85553 0.25941 0.82126
 C2030 C 0.88054 0.26072 0.83211
 C2031 C 0.90896 0.27757 0.86521
 C2032 C 0.88431 0.27584 0.85391
 H2033 H 0.91098 0.28932 0.88222
 H2034 H 0.86796 0.28637 0.86242
 H2035 H 0.95629 0.27691 0.88479
 H2036 H 0.99112 0.22696 0.82783
 H2037 H 0.86953 0.21843 0.77188
 H2038 H 0.83940 0.27035 0.82974
 H2039 H 0.95000 0.22423 0.80632
 H2040 H 0.91250 0.22016 0.79018
 C2041 C 0.56716 1.01041 0.67516
 C2042 C 0.59486 1.00824 0.67674
 C2043 C 0.60741 1.00367 0.70006
 C2044 C 0.59324 1.00186 0.72276
 C2045 C 0.56564 1.00500 0.72116
 C2046 C 0.55280 1.00880 0.69775
 C2047 C 0.55461 1.01444 0.64943
 C2048 C 0.52713 1.01496 0.64503
 C2049 C 0.51678 1.01651 0.62025
 C2050 C 0.53363 1.01783 0.59948
 C2051 C 0.56080 1.01917 0.60395
 C2052 C 0.57135 1.01685 0.62837
 C2053 C 0.61015 1.01104 0.65509
 C2054 C 0.59866 1.01558 0.63149
 H2055 H 0.63139 1.00971 0.65641
 H2056 H 0.61140 1.01742 0.61528
 H2057 H 0.62867 1.00203 0.70077
 H2058 H 0.55365 1.00527 0.73788
 H2059 H 0.49575 1.01529 0.61730
 H2060 H 0.57405 1.02052 0.58806
 H2061 H 0.53169 1.01103 0.69775
 H2062 H 0.51344 1.01312 0.66037
 C2063 C 0.06373 0.50254 1.17746
 C2064 C 0.06141 0.52362 1.19478
 C2065 C 0.07401 0.52164 1.21875
 C2066 C 0.09058 0.49960 1.22519
 C2067 C 0.09365 0.47965 1.20670
 C2068 C 0.08019 0.48083 1.18371
 C2069 C 0.05048 0.50511 1.15212
 C2070 C 0.04958 0.48385 1.13509
 C2071 C 0.04013 0.48773 1.11063
 C2072 C 0.03094 0.51276 1.10229
 C2073 C 0.02922 0.53366 1.11981
 C2074 C 0.03886 0.52982 1.14491
 C2075 C 0.04779 0.54699 1.18739
 C2076 C 0.03742 0.55030 1.16279
 H2077 H 0.04610 0.56342 1.20046
 H2078 H 0.02813 0.56916 1.15772
 H2079 H 0.07199 0.53787 1.23199
 H2080 H 0.10715 0.46309 1.20906
 H2081 H 0.04069 0.47105 1.09776
 H2082 H 0.02156 0.55292 1.11372
 H2083 H 0.08410 0.46503 1.17052
 H2084 H 0.05641 0.46408 1.14018
 C2085 C -0.06848 -0.01478 1.17705
 C2086 C -0.09615 -0.01245 1.17833
 C2087 C -0.10839 -0.00767 1.20144
 C2088 C -0.09396 -0.00578 1.22426
 C2089 C -0.06640 -0.00916 1.22303
 C2090 C -0.05386 -0.01321 1.19979
 C2091 C -0.05627 -0.01877 1.15146
 C2092 C -0.02886 -0.01935 1.14731
 C2093 C -0.01883 -0.02078 1.12264
 C2094 C -0.03591 -0.02192 1.10167
 C2095 C -0.06304 -0.02318 1.10592
 C2096 C -0.07328 -0.02099 1.13026
 C2097 C -0.11172 -0.01516 1.15658
 C2098 C -0.10055 -0.01967 1.13313
 H2099 H -0.13294 -0.01373 1.15768
 H2100 H -0.11350 -0.02138 1.11683
 H2101 H -0.12963 -0.00571 1.20189
 H2102 H -0.05425 -0.00923 1.23989
 H2103 H 0.00218 -0.01964 1.11991
 H2104 H -0.07651 -0.02437 1.08994
 H2105 H -0.03275 -0.01553 1.20003
 H2106 H -0.01498 -0.01765 1.16276
 C2107 C 0.44118 0.50420 0.68363
 C2108 C 0.44217 0.48190 0.69999
 C2109 C 0.42813 0.48237 0.72297
 C2110 C 0.41140 0.50412 0.72924
 C2111 C 0.40956 0.52532 0.71153
 C2112 C 0.42446 0.52561 0.68962
 C2113 C 0.45612 0.50325 0.65936
 C2114 C 0.45857 0.52567 0.64362
 C2115 C 0.46952 0.52333 0.61977
 C2116 C 0.47861 0.49869 0.61080
 C2117 C 0.47884 0.47658 0.62736
 C2118 C 0.46780 0.47887 0.65182
 C2119 C 0.45596 0.45888 0.69253
 C2120 C 0.46780 0.45713 0.66868
 H2121 H 0.45663 0.44153 0.70483
 H2122 H 0.47710 0.43850 0.66340
 H2123 H 0.42932 0.46526 0.73555
 H2124 H 0.39608 0.54183 0.71369
 H2125 H 0.46993 0.54088 0.60773
 H2126 H 0.48626 0.45755 0.62086
 H2127 H 0.42158 0.54234 0.67694
 H2128 H 0.45171 0.54515 0.64919
 C2129 C 0.43438 0.51348 -0.17386
 C2130 C 0.44968 0.50961 -0.19568
 C2131 C 0.43724 0.50594 -0.21950
 C2132 C 0.40952 0.50426 -0.22151
 C2133 C 0.39502 0.50592 -0.19893
 C2134 C 0.40705 0.51066 -0.17573
 C2135 C 0.44791 0.51885 -0.14917
 C2136 C 0.43407 0.52697 -0.12767
 C2137 C 0.44675 0.52864 -0.10433
 C2138 C 0.47359 0.52232 -0.10160
 C2139 C 0.48828 0.51705 -0.12349
 C2140 C 0.47552 0.51567 -0.14743
 C2141 C 0.47722 0.50878 -0.19326
 C2142 C 0.48979 0.51080 -0.16956
 H2143 H 0.48920 0.50550 -0.20980
 H2144 H 0.51100 0.50883 -0.16860
 H2145 H 0.44929 0.50447 -0.23614
 H2146 H 0.37384 0.50413 -0.19944
 H2147 H 0.43510 0.53362 -0.08795
 H2148 H 0.50912 0.51263 -0.12175
 H2149 H 0.39460 0.51164 -0.15937
 H2150 H 0.41332 0.53163 -0.12840
 C2151 C -0.06084 1.00193 0.31875
 C2152 C -0.07756 0.98004 0.31482
 C2153 C -0.09301 0.97835 0.29277
 C2154 C -0.09146 0.99745 0.27317
 C2155 C -0.07414 1.01885 0.27699
 C2156 C -0.05919 1.02115 0.29932
 C2157 C -0.04629 1.00376 0.34373
 C2158 C -0.03086 1.02574 0.35104
 C2159 C -0.01971 1.02710 0.37555
 C2160 C -0.02358 1.00646 0.39309
 C2161 C -0.03746 0.98397 0.38527
 C2162 C -0.04924 0.98271 0.36133
 C2163 C -0.07917 0.95985 0.33308
 C2164 C -0.06502 0.96096 0.35562
 H2165 H -0.09170 0.94290 0.32994
 H2166 H -0.06718 0.94488 0.36920
 H2167 H -0.10666 0.96216 0.29159
 H2168 H -0.07249 1.03420 0.26263
 H2169 H -0.00914 1.04470 0.38111
 H2170 H -0.04025 0.96765 0.39849
 H2171 H -0.04656 1.03811 0.30111
 H2172 H -0.02803 1.04240 0.33840
 C2173 C 0.06377 0.48756 0.32093
 C2174 C 0.09146 0.48919 0.32039
 C2175 C 0.10431 0.49455 0.29775
 C2176 C 0.09062 0.49732 0.27452
 C2177 C 0.06300 0.49517 0.27495
 C2178 C 0.04976 0.49070 0.29785
 C2179 C 0.05097 0.48254 0.34615
 C2180 C 0.02347 0.48248 0.34980
 C2181 C 0.01295 0.48001 0.37426
 C2182 C 0.02963 0.47723 0.39548
 C2183 C 0.05681 0.47537 0.39164
 C2184 C 0.06753 0.47866 0.36760
 C2185 C 0.10652 0.48498 0.34236
 C2186 C 0.09484 0.47947 0.36536
 H2187 H 0.12777 0.48590 0.34178
 H2188 H 0.10743 0.47653 0.38185
 H2189 H 0.12557 0.49587 0.29792
 H2190 H 0.05145 0.49637 0.25772
 H2191 H -0.00810 0.48173 0.37669
 H2192 H 0.06995 0.47298 0.40783
 H2193 H 0.02864 0.48921 0.29710
 H2194 H 0.00993 0.48542 0.33415
 C2195 C 0.56116 -0.00580 -0.18306
 C2196 C 0.57762 0.01633 -0.18695
 C2197 C 0.59261 0.01850 -0.20896
 C2198 C 0.59105 -0.00048 -0.22838
 C2199 C 0.57422 -0.02225 -0.22450
 C2200 C 0.55955 -0.02490 -0.20233
 C2201 C 0.54695 -0.00805 -0.15823
 C2202 C 0.53129 -0.02998 -0.15123
 C2203 C 0.52014 -0.03160 -0.12695
 C2204 C 0.52438 -0.01137 -0.10930
 C2205 C 0.53870 0.01099 -0.11676
 C2206 C 0.55026 0.01261 -0.14053
 C2207 C 0.57952 0.03616 -0.16865
 C2208 C 0.56594 0.03449 -0.14610
 H2209 H 0.59190 0.05324 -0.17173
 H2210 H 0.56833 0.05029 -0.13246
 H2211 H 0.60607 0.03486 -0.21018
 H2212 H 0.57278 -0.03761 -0.23868
 H2213 H 0.50910 -0.04902 -0.12170
 H2214 H 0.54165 0.02708 -0.10353
 H2215 H 0.54726 -0.04212 -0.20050
 H2216 H 0.52806 -0.04630 -0.16399
 C2217 C 0.68257 0.58647 -0.00241
 C2218 C 0.68116 0.61438 -0.00559
 C2219 C 0.70359 0.62985 -0.00172
 C2220 C 0.72859 0.61815 0.00312
 C2221 C 0.72955 0.59049 0.00778
 C2222 C 0.70697 0.57490 0.00497
 C2223 C 0.65791 0.57071 -0.00703
 C2224 C 0.65648 0.54303 -0.00284
 C2225 C 0.63265 0.52971 -0.00591
 C2226 C 0.60978 0.54335 -0.01403
 C2227 C 0.61120 0.57067 -0.01930
 C2228 C 0.63481 0.58449 -0.01532
 C2229 C 0.65758 0.62678 -0.01343
 C2230 C 0.63507 0.61216 -0.01849
 H2231 H 0.65660 0.64818 -0.01604
 H2232 H 0.61742 0.62279 -0.02461
 H2233 H 0.70205 0.65125 -0.00429
 H2234 H 0.74767 0.58065 0.01353
 H2235 H 0.63187 0.50872 -0.00120
 H2236 H 0.59343 0.58152 -0.02474
 H2237 H 0.70911 0.55376 0.00825
 H2238 H 0.67329 0.53151 0.00369
 C2239 C 0.17695 1.09508 0.49244
 C2240 C 0.18222 1.10947 0.51479
 C2241 C 0.20630 1.12240 0.51825
 C2242 C 0.22655 1.12112 0.50013
 C2243 C 0.22101 1.10663 0.47787
 C2244 C 0.19685 1.09377 0.47413
 C2245 C 0.15032 1.08215 0.48956
 C2246 C 0.14210 1.06788 0.46792
 C2247 C 0.11721 1.05573 0.46690
 C2248 C 0.10009 1.05733 0.48753
 C2249 C 0.10792 1.07224 0.50862
 C2250 C 0.13247 1.08452 0.50979
 C2251 C 0.16330 1.11129 0.53374
 C2252 C 0.13913 1.09898 0.53138
 H2253 H 0.16729 1.12232 0.55087
 H2254 H 0.12537 1.10086 0.54680
 H2255 H 0.20839 1.13419 0.53508
 H2256 H 0.23535 1.10578 0.46291
 H2257 H 0.11174 1.04440 0.45037
 H2258 H 0.09478 1.07413 0.52454
 H2259 H 0.19397 1.08314 0.45667
 H2260 H 0.15475 1.06571 0.45179
 C2261 C 0.17382 -0.08855 1.00997
 C2262 C 0.17308 -0.11658 1.01146
 C2263 C 0.19598 -0.13187 1.00753
 C2264 C 0.22067 -0.12010 1.00307
 C2265 C 0.22141 -0.09201 1.00319
 C2266 C 0.19839 -0.07656 1.00609
 C2267 C 0.14838 -0.07306 1.01298
 C2268 C 0.14609 -0.04539 1.00865
 C2269 C 0.12160 -0.03234 1.00992
 C2270 C 0.09886 -0.04625 1.01636
 C2271 C 0.10102 -0.07361 1.02153
 C2272 C 0.12534 -0.08718 1.01917
 C2273 C 0.14956 -0.12931 1.01733
 C2274 C 0.12639 -0.11494 1.02160
 H2275 H 0.14908 -0.15082 1.01885
 H2276 H 0.10881 -0.12584 1.02613
 H2277 H 0.19476 -0.15338 1.00834
 H2278 H 0.23969 -0.08158 1.00156
 H2279 H 0.12027 -0.01133 1.00525
 H2280 H 0.08340 -0.08467 1.02561
 H2281 H 0.20028 -0.05519 1.00589
 H2282 H 0.16280 -0.03375 1.00324
 C2283 C 0.67418 0.40507 0.50809
 C2284 C 0.67847 0.38918 0.48650
 C2285 C 0.70269 0.37597 0.48298
 C2286 C 0.72400 0.37869 0.50013
 C2287 C 0.71948 0.39471 0.52158
 C2288 C 0.69518 0.40773 0.52546
 C2289 C 0.64740 0.41819 0.51122
 C2290 C 0.64010 0.43357 0.53243
 C2291 C 0.61506 0.44592 0.53370
 C2292 C 0.59683 0.44346 0.51374
 C2293 C 0.60372 0.42746 0.49310
 C2294 C 0.62844 0.41482 0.49176
 C2295 C 0.65846 0.38626 0.46839
 C2296 C 0.63419 0.39899 0.47081
 H2297 H 0.66171 0.37412 0.45183
 H2298 H 0.61959 0.39630 0.45601
 H2299 H 0.70420 0.36287 0.46696
 H2300 H 0.73481 0.39674 0.53576
 H2301 H 0.61032 0.45816 0.54984
 H2302 H 0.58972 0.42502 0.47770
 H2303 H 0.69311 0.41962 0.54226
 H2304 H 0.65359 0.43647 0.54803
 C2305 C -0.17635 0.40596 0.48830
 C2306 C -0.19976 0.42017 0.49388
 C2307 C -0.22371 0.40654 0.49689
 C2308 C -0.22447 0.37841 0.49636
 C2309 C -0.20042 0.36471 0.49224
 C2310 C -0.17703 0.37808 0.48803
 C2311 C -0.15147 0.42118 0.48418
 C2312 C -0.12809 0.40929 0.47525
 C2313 C -0.10495 0.42394 0.47342
 C2314 C -0.10442 0.45065 0.48078
 C2315 C -0.12797 0.46306 0.48839
 C2316 C -0.15158 0.44872 0.48942
 C2317 C -0.19888 0.44784 0.49707
 C2318 C -0.17521 0.46163 0.49570
 H2319 H -0.21662 0.45890 0.50159
 H2320 H -0.17550 0.48283 0.49929
 H2321 H -0.24146 0.41810 0.49965
 H2322 H -0.19984 0.34316 0.49196
 H2323 H -0.08707 0.41395 0.46751
 H2324 H -0.12780 0.48383 0.49379
 H2325 H -0.15954 0.36618 0.48507
 H2326 H -0.12726 0.38864 0.46981
 C2327 C 0.32318 -0.10153 -0.00897
 C2328 C 0.30196 -0.09477 -0.02532
 C2329 C 0.27701 -0.10633 -0.02166
 C2330 C 0.27219 -0.12367 -0.00097
 C2331 C 0.29385 -0.12988 0.01512
 C2332 C 0.31856 -0.11897 0.01136
 C2333 C 0.34965 -0.08945 -0.01368
 C2334 C 0.37217 -0.09641 0.00071
 C2335 C 0.39575 -0.08319 -0.00278
 C2336 C 0.39795 -0.06279 -0.02084
 C2337 C 0.37616 -0.05675 -0.03658
 C2338 C 0.35202 -0.07011 -0.03315
 C2339 C 0.30582 -0.07638 -0.04505
 C2340 C 0.33009 -0.06401 -0.04859
 H2341 H 0.28965 -0.07101 -0.05765
 H2342 H 0.33171 -0.04946 -0.06370
 H2343 H 0.26123 -0.10193 -0.03504
 H2344 H 0.29247 -0.14412 0.03041
 H2345 H 0.41228 -0.08826 0.00951
 H2346 H 0.37757 -0.04091 -0.05052
 H2347 H 0.33385 -0.12469 0.02466
 H2348 H 0.37194 -0.11165 0.01516
 C2349 C 0.32734 1.09277 0.50918
 C2350 C 0.30451 1.07970 0.50062
 C2351 C 0.28003 1.09347 0.49925
 C2352 C 0.27813 1.12102 0.50445
 C2353 C 0.30162 1.13378 0.51187
 C2354 C 0.32548 1.12002 0.51452
 C2355 C 0.35292 1.07740 0.51085
 C2356 C 0.37592 1.08769 0.52202
 C2357 C 0.39961 1.07318 0.52183
 C2358 C 0.40118 1.04827 0.51016
 C2359 C 0.37811 1.03735 0.49992
 C2360 C 0.35392 1.05141 0.50084
 C2361 C 0.30652 1.05320 0.49256
 C2362 C 0.33076 1.03968 0.49196
 H2363 H 0.28923 1.04305 0.48573
 H2364 H 0.33131 1.01959 0.48468
 H2365 H 0.26291 1.08252 0.49361
 H2366 H 0.30161 1.15497 0.51541
 H2367 H 0.41705 1.08197 0.52994
 H2368 H 0.37901 1.01786 0.49128
 H2369 H 0.34246 1.13131 0.52000
 H2370 H 0.37599 1.10691 0.53097
 C2371 C -0.16899 0.59616 1.00428
 C2372 C -0.18914 0.58665 0.98819
 C2373 C -0.21396 0.59973 0.98708
 C2374 C -0.21940 0.62218 1.00219
 C2375 C -0.19786 0.63306 1.01558
 C2376 C -0.17349 0.62007 1.01713
 C2377 C -0.14324 0.58106 1.00598
 C2378 C -0.12298 0.58737 1.02332
 C2379 C -0.09902 0.57324 1.02355
 C2380 C -0.09447 0.55255 1.00641
 C2381 C -0.11498 0.54551 0.98971
 C2382 C -0.13931 0.55927 0.98966
 C2383 C -0.18420 0.56436 0.97308
 C2384 C -0.15973 0.55131 0.97346
 H2385 H -0.19938 0.55709 0.96049
 H2386 H -0.15685 0.53447 0.96107
 H2387 H -0.22911 0.59223 0.97461
 H2388 H -0.19969 0.65184 1.02531
 H2389 H -0.08371 0.57907 1.03668
 H2390 H -0.11198 0.52927 0.97662
 H2391 H -0.15824 0.62934 1.02817
 H2392 H -0.12529 0.60317 1.03686
 C2393 C 0.00346 0.68147 0.57165
 C2394 C 0.02558 0.68815 0.58652
 C2395 C 0.02453 0.71042 0.60211
 C2396 C 0.00077 0.72467 0.60523
 C2397 C -0.02077 0.71835 0.58962
 C2398 C -0.01952 0.69713 0.57313
 C2399 C 0.00469 0.65681 0.55647
 C2400 C -0.01568 0.64956 0.53984
 C2401 C -0.01552 0.62459 0.52892
 C2402 C 0.00493 0.60649 0.53432
 C2403 C 0.02647 0.61430 0.54900
 C2404 C 0.02666 0.63957 0.55981
 C2405 C 0.04804 0.67172 0.58687
 C2406 C 0.04830 0.64747 0.57431
 H2407 H 0.06506 0.67692 0.59820
 H2408 H 0.06548 0.63461 0.57624
 H2409 H 0.04222 0.71599 0.61210
 H2410 H -0.03901 0.72962 0.59077
 H2411 H -0.03203 0.61906 0.51707
 H2412 H 0.04276 0.60055 0.55238
 H2413 H -0.03715 0.69276 0.56257
 H2414 H -0.03211 0.66259 0.53536
 C2415 C 0.49759 0.17730 0.07410
 C2416 C 0.52141 0.18397 0.08630
 C2417 C 0.52245 0.20629 0.10176
 C2418 C 0.49953 0.22113 0.10704
 C2419 C 0.47640 0.21534 0.09348
 C2420 C 0.47533 0.19369 0.07742
 C2421 C 0.49677 0.15232 0.05925
 C2422 C 0.47409 0.14415 0.04611
 C2423 C 0.47345 0.11933 0.03477
 C2424 C 0.49530 0.10226 0.03646
 C2425 C 0.51847 0.11072 0.04808
 C2426 C 0.51946 0.13572 0.05927
 C2427 C 0.54382 0.16779 0.08387
 C2428 C 0.54275 0.14387 0.07091
 H2429 H 0.56213 0.17309 0.09304
 H2430 H 0.56026 0.13137 0.07039
 H2431 H 0.54123 0.21162 0.10987
 H2432 H 0.45878 0.22732 0.09597
 H2433 H 0.45554 0.11310 0.02542
 H2434 H 0.53564 0.09768 0.04866
 H2435 H 0.45669 0.18985 0.06843
 H2436 H 0.45653 0.15632 0.04466
 C2437 C -0.01008 0.17939 0.91530
 C2438 C 0.00095 0.17858 0.89094
 C2439 C 0.00575 0.20212 0.87801
 C2440 C -0.00081 0.22688 0.88858
 C2441 C -0.01504 0.22722 0.91126
 C2442 C -0.01898 0.20386 0.92486
 C2443 C -0.01250 0.15402 0.92951
 C2444 C -0.01844 0.15308 0.95549
 C2445 C -0.01922 0.12873 0.96820
 C2446 C -0.01477 0.10520 0.95495
 C2447 C -0.00900 0.10590 0.92920
 C2448 C -0.00695 0.13008 0.91661
 C2449 C 0.00663 0.15430 0.87934
 C2450 C 0.00197 0.13041 0.89169
 H2451 H 0.01452 0.15375 0.86038
 H2452 H 0.00643 0.11199 0.88200
 H2453 H 0.01434 0.20109 0.85938
 H2454 H -0.02308 0.24560 0.91862
 H2455 H -0.02325 0.12822 0.98828
 H2456 H -0.00463 0.08755 0.91929
 H2457 H -0.02952 0.20523 0.94243
 H2458 H -0.02161 0.17088 0.96639
 C2459 C 0.49723 0.68308 0.41911
 C2460 C 0.47354 0.69127 0.40708
 C2461 C 0.47310 0.71370 0.39146
 C2462 C 0.49648 0.72705 0.38577
 C2463 C 0.51948 0.71984 0.39927
 C2464 C 0.51996 0.69813 0.41554
 C2465 C 0.49739 0.65801 0.43412
 C2466 C 0.51999 0.64840 0.44694
 C2467 C 0.51995 0.62364 0.45859
 C2468 C 0.49746 0.60802 0.45768
 C2469 C 0.47443 0.61786 0.44620
 C2470 C 0.47417 0.64285 0.43458
 C2471 C 0.45064 0.67648 0.40986
 C2472 C 0.45105 0.65248 0.42307
 H2473 H 0.43244 0.68297 0.40079
 H2474 H 0.43315 0.64107 0.42390
 H2475 H 0.45440 0.72027 0.38360
 H2476 H 0.53747 0.73072 0.39653
 H2477 H 0.53783 0.61638 0.46775
 H2478 H 0.45680 0.60598 0.44618
 H2479 H 0.53853 0.69319 0.42447
 H2480 H 0.53800 0.65937 0.44795
 C2481 C 0.51190 0.81775 0.41707
 C2482 C 0.48879 0.80275 0.41934
 C2483 C 0.48471 0.78119 0.40348
 C2484 C 0.50315 0.77438 0.38489
 C2485 C 0.52752 0.78732 0.38516
 C2486 C 0.53173 0.80889 0.40080
 C2487 C 0.51388 0.84285 0.43148
 C2488 C 0.53399 0.86126 0.42723
 C2489 C 0.53330 0.88592 0.43885
 C2490 C 0.51278 0.89249 0.45513
 C2491 C 0.49346 0.87382 0.46056
 C2492 C 0.49345 0.84938 0.44836
 C2493 C 0.46968 0.80967 0.43700
 C2494 C 0.47221 0.83235 0.45162
 H2495 H 0.45227 0.79771 0.43916
 H2496 H 0.45666 0.83736 0.46467
 H2497 H 0.46668 0.77007 0.40493
 H2498 H 0.54368 0.78091 0.37351
 H2499 H 0.54853 0.90009 0.43465
 H2500 H 0.47740 0.87897 0.47301
 H2501 H 0.55062 0.81827 0.39987
 H2502 H 0.54972 0.85759 0.41417
 C2503 C 0.01626 0.32465 0.91470
 C2504 C 0.00787 0.32559 0.88918
 C2505 C 0.00306 0.30211 0.87642
 C2506 C 0.00702 0.27729 0.88837
 C2507 C 0.01878 0.27659 0.91260
 C2508 C 0.02272 0.29995 0.92589
 C2509 C 0.01835 0.35008 0.92852
 C2510 C 0.02146 0.35110 0.95502
 C2511 C 0.02168 0.37551 0.96725
 C2512 C 0.01946 0.39902 0.95310
 C2513 C 0.01668 0.39826 0.92682
 C2514 C 0.01521 0.37403 0.91453
 C2515 C 0.00467 0.34990 0.87640
 C2516 C 0.00906 0.37372 0.88870
 H2517 H -0.00115 0.35049 0.85661
 H2518 H 0.00646 0.39216 0.87813
 H2519 H -0.00376 0.30312 0.85695
 H2520 H 0.02504 0.25802 0.92137
 H2521 H 0.02345 0.37607 0.98768
 H2522 H 0.01407 0.41664 0.91609
 H2523 H 0.03133 0.29836 0.94460
 H2524 H 0.02274 0.33335 0.96661
 C2525 C 0.49046 0.31421 0.07559
 C2526 C 0.51281 0.29743 0.07386
 C2527 C 0.51498 0.27487 0.08933
 C2528 C 0.49538 0.26896 0.10703
 C2529 C 0.47162 0.28365 0.10575
 C2530 C 0.46930 0.30614 0.09048
 C2531 C 0.49059 0.34020 0.06206
 C2532 C 0.47162 0.36018 0.06656
 C2533 C 0.47403 0.38522 0.05568
 C2534 C 0.49507 0.39070 0.03975
 C2535 C 0.51355 0.37070 0.03435
 C2536 C 0.51191 0.34576 0.04601
 C2537 C 0.53305 0.30361 0.05720
 C2538 C 0.53231 0.32711 0.04308
 H2539 H 0.54989 0.29036 0.05540
 H2540 H 0.54862 0.33136 0.03073
 H2541 H 0.53253 0.26245 0.08853
 H2542 H 0.45463 0.27805 0.11653
 H2543 H 0.45963 0.40050 0.06014
 H2544 H 0.53013 0.37507 0.02236
 H2545 H 0.45085 0.31695 0.09066
 H2546 H 0.45548 0.35733 0.07930
 C2547 C -0.00984 0.81948 0.57724
 C2548 C 0.01281 0.80308 0.57578
 C2549 C 0.01418 0.77944 0.58964
 C2550 C -0.00645 0.77213 0.60565
 C2551 C -0.03042 0.78636 0.60363
 C2552 C -0.03201 0.80995 0.58984
 C2553 C -0.00896 0.84655 0.56592
 C2554 C -0.02859 0.86593 0.57028
 C2555 C -0.02606 0.89158 0.56073
 C2556 C -0.00406 0.89828 0.54652
 C2557 C 0.01551 0.87913 0.54195
 C2558 C 0.01350 0.85354 0.55197
 C2559 C 0.03425 0.81080 0.56128
 C2560 C 0.03435 0.83541 0.54912
 H2561 H 0.05137 0.79788 0.55971
 H2562 H 0.05151 0.84081 0.53836
 H2563 H 0.03208 0.76747 0.58941
 H2564 H -0.04796 0.77974 0.61297
 H2565 H -0.04143 0.90614 0.56435
 H2566 H 0.03277 0.88439 0.53126
 H2567 H -0.05058 0.82056 0.58954
 H2568 H -0.04565 0.86192 0.58154
 C2569 C 0.26952 0.31731 0.07648
 C2570 C 0.26783 0.34540 0.07501
 C2571 C 0.26273 0.35822 0.05182
 C2572 C 0.26005 0.34398 0.02906
 C2573 C 0.26218 0.31593 0.03059
 C2574 C 0.26647 0.30283 0.05392
 C2575 C 0.27469 0.30454 0.10207
 C2576 C 0.27517 0.27670 0.10646
 C2577 C 0.27783 0.26622 0.13119
 C2578 C 0.28038 0.28327 0.15195
 C2579 C 0.28183 0.31077 0.14738
 C2580 C 0.27839 0.32147 0.12303
 C2581 C 0.27185 0.36082 0.09657
 C2582 C 0.27730 0.34914 0.11997
 H2583 H 0.27084 0.38235 0.09534
 H2584 H 0.28009 0.36203 0.13610
 H2585 H 0.26178 0.37979 0.05117
 H2586 H 0.26148 0.30381 0.01384
 H2587 H 0.27636 0.24496 0.13418
 H2588 H 0.28397 0.32418 0.16324
 H2589 H 0.26805 0.28139 0.05384
 H2590 H 0.27241 0.26285 0.09119
 C2591 C 0.76571 0.81846 0.57625
 C2592 C 0.76116 0.80270 0.55467
 C2593 C 0.75750 0.81492 0.53063
 C2594 C 0.75669 0.84302 0.52796
 C2595 C 0.75970 0.85818 0.55016
 C2596 C 0.76419 0.84628 0.57369
 C2597 C 0.77077 0.80493 0.60127
 C2598 C 0.77868 0.81895 0.62288
 C2599 C 0.78032 0.80630 0.64635
 C2600 C 0.77428 0.77928 0.64913
 C2601 C 0.76890 0.76435 0.62730
 C2602 C 0.76739 0.77708 0.60326
 C2603 C 0.75984 0.77491 0.55746
 C2604 C 0.76211 0.76248 0.58129
 H2605 H 0.75614 0.76263 0.54108
 H2606 H 0.75990 0.74110 0.58248
 H2607 H 0.75559 0.80233 0.51427
 H2608 H 0.75906 0.87972 0.54910
 H2609 H 0.78509 0.81813 0.66279
 H2610 H 0.76446 0.74340 0.62915
 H2611 H 0.76613 0.85929 0.58971
 H2612 H 0.78320 0.83985 0.62216
 C2613 C 0.23238 0.68082 0.57799
 C2614 C 0.23615 0.69617 0.55586
 C2615 C 0.24009 0.68340 0.53236
 C2616 C 0.24219 0.65529 0.53101
 C2617 C 0.24044 0.64073 0.55388
 C2618 C 0.23541 0.65309 0.57674
 C2619 C 0.22696 0.69470 0.60236
 C2620 C 0.21918 0.68089 0.62416
 C2621 C 0.21768 0.69380 0.64725
 C2622 C 0.22373 0.72084 0.64938
 C2623 C 0.22864 0.73561 0.62722
 C2624 C 0.22993 0.72261 0.60353
 C2625 C 0.23670 0.72405 0.55769
 C2626 C 0.23459 0.73691 0.58112
 H2627 H 0.23987 0.73606 0.54091
 H2628 H 0.23638 0.75835 0.58165
 H2629 H 0.24152 0.69551 0.51547
 H2630 H 0.24252 0.61924 0.55388
 H2631 H 0.21308 0.68215 0.66394
 H2632 H 0.23290 0.75662 0.62856
 H2633 H 0.23447 0.64054 0.59336
 H2634 H 0.21471 0.65997 0.62387
 C2635 C 0.73262 0.17918 0.07250
 C2636 C 0.73535 0.15112 0.07195
 C2637 C 0.73917 0.13792 0.04898
 C2638 C 0.74002 0.15179 0.02572
 C2639 C 0.73643 0.17974 0.02637
 C2640 C 0.73316 0.19319 0.04933
 C2641 C 0.72919 0.19246 0.09781
 C2642 C 0.72768 0.22038 0.10107
 C2643 C 0.72661 0.23151 0.12542
 C2644 C 0.72682 0.21506 0.14699
 C2645 C 0.72660 0.18734 0.14368
 C2646 C 0.72829 0.17603 0.11962
 C2647 C 0.73393 0.13617 0.09431
 C2648 C 0.73027 0.14832 0.11757
 H2649 H 0.73575 0.11467 0.09385
 H2650 H 0.72956 0.13580 0.13433
 H2651 H 0.74105 0.11639 0.04901
 H2652 H 0.73533 0.19151 0.00921
 H2653 H 0.72699 0.25294 0.12740
 H2654 H 0.72651 0.17432 0.16015
 H2655 H 0.73056 0.21453 0.04853
 H2656 H 0.72827 0.23388 0.08512
 C2657 C 0.74729 0.18241 0.93032
 C2658 C 0.72564 0.16549 0.93417
 C2659 C 0.72321 0.15101 0.95682
 C2660 C 0.74163 0.15333 0.97676
 C2661 C 0.76299 0.17052 0.97283
 C2662 C 0.76576 0.18485 0.95015
 C2663 C 0.74984 0.19610 0.90494
 C2664 C 0.77113 0.21251 0.89823
 C2665 C 0.77307 0.22324 0.87358
 C2666 C 0.75385 0.21775 0.85521
 C2667 C 0.73213 0.20256 0.86226
 C2668 C 0.73012 0.19156 0.88651
 C2669 C 0.70664 0.16249 0.91514
 C2670 C 0.70874 0.17535 0.89193
 H2671 H 0.68996 0.14971 0.91813
 H2672 H 0.69362 0.17204 0.87774
 H2673 H 0.70722 0.13718 0.95813
 H2674 H 0.77797 0.17246 0.98737
 H2675 H 0.78997 0.23499 0.86867
 H2676 H 0.71678 0.19862 0.84846
 H2677 H 0.78266 0.19742 0.94834
 H2678 H 0.78668 0.21677 0.91156
 C2679 C 0.24250 0.68544 0.43474
 C2680 C 0.26375 0.68791 0.45188
 C2681 C 0.26352 0.67409 0.47534
 C2682 C 0.24291 0.65656 0.48162
 C2683 C 0.22276 0.65347 0.46329
 C2684 C 0.22233 0.66783 0.44072
 C2685 C 0.24322 0.70003 0.40992
 C2686 C 0.22175 0.70045 0.39301
 C2687 C 0.22400 0.71158 0.36905
 C2688 C 0.24751 0.72305 0.36109
 C2689 C 0.26846 0.72500 0.37857
 C2690 C 0.26634 0.71356 0.40311
 C2691 C 0.28550 0.70312 0.44485
 C2692 C 0.28703 0.71513 0.42081
 H2693 H 0.30202 0.70498 0.45778
 H2694 H 0.30467 0.72578 0.41603
 H2695 H 0.27990 0.67617 0.48840
 H2696 H 0.20723 0.63930 0.46545
 H2697 H 0.20721 0.71071 0.35632
 H2698 H 0.28655 0.73432 0.37283
 H2699 H 0.20646 0.66384 0.42768
 H2700 H 0.20306 0.69203 0.39778
 C2701 C 0.74653 0.81142 0.43225
 C2702 C 0.76953 0.82628 0.43671
 C2703 C 0.77298 0.84023 0.45936
 C2704 C 0.75421 0.83954 0.47880
 C2705 C 0.73177 0.82381 0.47455
 C2706 C 0.72795 0.81004 0.45177
 C2707 C 0.74287 0.79878 0.40658
 C2708 C 0.72017 0.78472 0.39901
 C2709 C 0.71742 0.77504 0.37410
 C2710 C 0.73722 0.77931 0.35630
 C2711 C 0.76020 0.79210 0.36421
 C2712 C 0.76305 0.80202 0.38868
 C2713 C 0.78888 0.82796 0.41821
 C2714 C 0.78581 0.81595 0.39484
 H2715 H 0.80662 0.83910 0.42170
 H2716 H 0.80127 0.81823 0.38108
 H2717 H 0.79008 0.85259 0.46090
 H2718 H 0.71658 0.82294 0.48871
 H2719 H 0.69956 0.76508 0.36856
 H2720 H 0.77598 0.79497 0.35087
 H2721 H 0.71014 0.79885 0.44955
 H2722 H 0.70419 0.78158 0.41190
 C2723 C 0.25317 0.31421 0.93305
 C2724 C 0.27542 0.32999 0.93804
 C2725 C 0.27780 0.34384 0.96083
 C2726 C 0.25867 0.34214 0.97989
 C2727 C 0.23680 0.32587 0.97496
 C2728 C 0.23407 0.31212 0.95204
 C2729 C 0.25077 0.30141 0.90737
 C2730 C 0.22902 0.28615 0.89943
 C2731 C 0.22739 0.27623 0.87456
 C2732 C 0.24736 0.28146 0.85719
 C2733 C 0.26942 0.29553 0.86543
 C2734 C 0.27119 0.30563 0.88991
 C2735 C 0.29510 0.33264 0.91998
 C2736 C 0.29310 0.32062 0.89653
 H2737 H 0.31225 0.34454 0.92390
 H2738 H 0.30876 0.32366 0.88311
 H2739 H 0.29437 0.35685 0.96281
 H2740 H 0.22133 0.32438 0.98878
 H2741 H 0.21022 0.26528 0.86871
 H2742 H 0.28530 0.29919 0.85240
 H2743 H 0.21671 0.30036 0.94934
 H2744 H 0.21294 0.28217 0.91199
 C2745 C 0.84855 0.41889 0.75899
 C2746 C 0.83482 0.44289 0.75317
 C2747 C 0.84858 0.46691 0.74990
 C2748 C 0.87636 0.46740 0.75073
 C2749 C 0.88964 0.44282 0.75510
 C2750 C 0.87613 0.41920 0.75935
 C2751 C 0.83306 0.39396 0.76350
 C2752 C 0.84449 0.36978 0.77230
 C2753 C 0.82942 0.34672 0.77457
 C2754 C 0.80271 0.34710 0.76785
 C2755 C 0.79088 0.37138 0.76033
 C2756 C 0.80566 0.39484 0.75874
 C2757 C 0.80741 0.44266 0.75025
 C2758 C 0.79328 0.41908 0.75225
 H2759 H 0.79675 0.46089 0.74558
 H2760 H 0.77224 0.41991 0.74896
 H2761 H 0.83728 0.48501 0.74692
 H2762 H 0.91091 0.44207 0.75577
 H2763 H 0.83899 0.32818 0.78023
 H2764 H 0.77020 0.37185 0.75521
 H2765 H 0.88765 0.40130 0.76266
 H2766 H 0.86510 0.36826 0.77720
 C2767 C 0.34336 0.92036 0.26009
 C2768 C 0.33114 0.94564 0.26202
 C2769 C 0.34577 0.96904 0.25795
 C2770 C 0.37266 0.96788 0.25109
 C2771 C 0.38297 0.94215 0.24595
 C2772 C 0.36909 0.91901 0.25104
 C2773 C 0.32767 0.89593 0.26573
 C2774 C 0.33911 0.87028 0.26787
 C2775 C 0.32343 0.84789 0.27121
 C2776 C 0.29604 0.85047 0.27231
 C2777 C 0.28453 0.87605 0.27163
 C2778 C 0.30027 0.89884 0.26910
 C2779 C 0.30414 0.94730 0.26711
 C2780 C 0.28892 0.92443 0.26975
 H2781 H 0.29443 0.96657 0.26825
 H2782 H 0.26800 0.92684 0.27273
 H2783 H 0.33547 0.98777 0.25951
 H2784 H 0.40226 0.93966 0.23783
 H2785 H 0.33264 0.82831 0.27159
 H2786 H 0.26334 0.87815 0.27252
 H2787 H 0.37858 0.90018 0.24704
 H2788 H 0.36008 0.86717 0.26673
 C2789 C 0.15096 0.93101 0.74238
 C2790 C 0.13600 0.93622 0.76425
 C2791 C 0.12268 0.96072 0.76709
 C2792 C 0.12458 0.98145 0.74898
 C2793 C 0.13969 0.97598 0.72726
 C2794 C 0.15264 0.95136 0.72401
 C2795 C 0.16445 0.90409 0.74012
 C2796 C 0.17877 0.89582 0.71867
 C2797 C 0.19151 0.87071 0.71817
 C2798 C 0.19057 0.85350 0.73917
 C2799 C 0.17570 0.86132 0.76013
 C2800 C 0.16256 0.88603 0.76068
 C2801 C 0.13436 0.91696 0.78343
 C2802 C 0.14760 0.89264 0.78185
 H2803 H 0.12295 0.92091 0.80022
 H2804 H 0.14599 0.87868 0.79748
 H2805 H 0.11049 0.96300 0.78352
 H2806 H 0.14129 0.99095 0.71254
 H2807 H 0.20277 0.86513 0.70173
 H2808 H 0.17439 0.84798 0.77629
 H2809 H 0.16390 0.94863 0.70702
 H2810 H 0.18044 0.90855 0.70224
 C2811 C 0.65234 0.42469 0.24407
 C2812 C 0.66603 0.44813 0.25033
 C2813 C 0.65213 0.47222 0.25485
 C2814 C 0.62434 0.47309 0.25485
 C2815 C 0.61125 0.44892 0.25001
 C2816 C 0.62482 0.42540 0.24458
 C2817 C 0.66778 0.39975 0.23823
 C2818 C 0.65617 0.37635 0.22888
 C2819 C 0.67115 0.35301 0.22567
 C2820 C 0.69796 0.35235 0.23192
 C2821 C 0.70999 0.37601 0.23973
 C2822 C 0.69525 0.39976 0.24234
 C2823 C 0.69352 0.44718 0.25243
 C2824 C 0.70770 0.42340 0.24926
 H2825 H 0.70420 0.46493 0.25740
 H2826 H 0.72882 0.42358 0.25203
 H2827 H 0.66322 0.49007 0.25796
 H2828 H 0.58999 0.44845 0.24984
 H2829 H 0.66144 0.33502 0.21972
 H2830 H 0.73079 0.37571 0.24440
 H2831 H 0.61336 0.40789 0.24105
 H2832 H 0.63548 0.37560 0.22432
 C2833 C 0.65016 0.57519 0.26491
 C2834 C 0.63325 0.57094 0.24398
 C2835 C 0.61975 0.54693 0.24148
 C2836 C 0.62344 0.52544 0.25870
 C2837 C 0.64003 0.53003 0.27978
 C2838 C 0.65326 0.55432 0.28280
 C2839 C 0.66387 0.60173 0.26668
 C2840 C 0.68026 0.60920 0.28716
 C2841 C 0.69304 0.63397 0.28714
 C2842 C 0.69007 0.65161 0.26652
 C2843 C 0.67323 0.64459 0.24658
 C2844 C 0.66003 0.62027 0.24661
 C2845 C 0.62976 0.59065 0.22534
 C2846 C 0.64309 0.61455 0.22644
 H2847 H 0.61679 0.58738 0.20930
 H2848 H 0.63999 0.62887 0.21122
 H2849 H 0.60587 0.54568 0.22597
 H2850 H 0.64263 0.51470 0.29413
 H2851 H 0.70592 0.63893 0.30278
 H2852 H 0.67047 0.65825 0.23074
 H2853 H 0.66584 0.55645 0.29921
 H2854 H 0.68355 0.59606 0.30318
 C2855 C 0.15836 0.07932 0.76093
 C2856 C 0.13070 0.08108 0.76214
 C2857 C 0.11537 0.05839 0.75793
 C2858 C 0.12683 0.03310 0.75302
 C2859 C 0.15456 0.03151 0.75303
 C2860 C 0.16997 0.05416 0.75656
 C2861 C 0.17396 0.10438 0.76455
 C2862 C 0.20138 0.10538 0.76131
 C2863 C 0.21467 0.12952 0.76307
 C2864 C 0.20124 0.15324 0.76879
 C2865 C 0.17409 0.15242 0.77295
 C2866 C 0.16032 0.12835 0.77032
 C2867 C 0.11842 0.10541 0.76788
 C2868 C 0.13289 0.12838 0.77221
 H2869 H 0.09720 0.10672 0.76912
 H2870 H 0.12234 0.14665 0.77650
 H2871 H 0.09416 0.06027 0.75876
 H2872 H 0.16484 0.01278 0.75080
 H2873 H 0.23553 0.12984 0.75920
 H2874 H 0.16344 0.17082 0.77652
 H2875 H 0.19101 0.05143 0.75630
 H2876 H 0.21277 0.08793 0.75643
 C2877 C 0.34726 0.07061 0.24220
 C2878 C 0.34633 0.05468 0.26437
 C2879 C 0.35972 0.02985 0.26563
 C2880 C 0.37411 0.01980 0.24492
 C2881 C 0.37480 0.03643 0.22305
 C2882 C 0.36161 0.06095 0.22167
 C2883 C 0.33340 0.09737 0.24180
 C2884 C 0.33363 0.11510 0.22086
 C2885 C 0.32089 0.14006 0.22180
 C2886 C 0.30743 0.14805 0.24355
 C2887 C 0.30690 0.13024 0.26433
 C2888 C 0.31976 0.10530 0.26367
 C2889 C 0.33230 0.06379 0.28532
 C2890 C 0.31928 0.08845 0.28495
 H2891 H 0.33144 0.05171 0.30235
 H2892 H 0.30881 0.09452 0.30174
 H2893 H 0.35948 0.01843 0.28311
 H2894 H 0.38610 0.03144 0.20660
 H2895 H 0.32179 0.15321 0.20551
 H2896 H 0.29670 0.13588 0.28141
 H2897 H 0.36330 0.07225 0.20436
 H2898 H 0.34370 0.11020 0.20364
 C2899 C 0.84762 0.56943 0.74388
 C2900 C 0.86223 0.56307 0.76608
 C2901 C 0.87620 0.53883 0.76824
 C2902 C 0.87537 0.51942 0.74902
 C2903 C 0.86017 0.52578 0.72719
 C2904 C 0.84660 0.55023 0.72461
 C2905 C 0.83392 0.59630 0.74218
 C2906 C 0.82038 0.60590 0.72036
 C2907 C 0.80778 0.63106 0.72019
 C2908 C 0.80803 0.64700 0.74189
 C2909 C 0.82197 0.63778 0.76335
 C2910 C 0.83506 0.61304 0.76357
 C2911 C 0.86300 0.58099 0.78622
 C2912 C 0.84942 0.60518 0.78515
 H2913 H 0.87408 0.57611 0.80330
 H2914 H 0.85042 0.61811 0.80144
 H2915 H 0.88817 0.53586 0.78500
 H2916 H 0.85923 0.51182 0.71172
 H2917 H 0.79727 0.63774 0.70333
 H2918 H 0.82283 0.65012 0.78008
 H2919 H 0.83548 0.55380 0.70739
 H2920 H 0.81935 0.59425 0.70332
 C2921 C 0.92541 0.75147 0.17614
 C2922 C 0.93249 0.77464 0.16269
 C2923 C 0.95471 0.77429 0.14755
 C2924 C 0.96902 0.75048 0.14385
 C2925 C 0.96215 0.72780 0.15793
 C2926 C 0.94065 0.72817 0.17367
 C2927 C 0.90108 0.75223 0.19124
 C2928 C 0.89329 0.73063 0.20636
 C2929 C 0.86875 0.73084 0.21742
 C2930 C 0.85172 0.75258 0.21365
 C2931 C 0.86007 0.77512 0.20052
 C2932 C 0.88479 0.77520 0.18950
 C2933 C 0.91680 0.79771 0.16364
 C2934 C 0.89304 0.79779 0.17635
 H2935 H 0.92234 0.81551 0.15342
 H2936 H 0.88082 0.81562 0.17560
 H2937 H 0.96055 0.79273 0.13873
 H2938 H 0.97345 0.70947 0.15640
 H2939 H 0.86270 0.71352 0.22809
 H2940 H 0.84711 0.79234 0.19847
 H2941 H 0.93603 0.70978 0.18314
 H2942 H 0.90553 0.71323 0.20955
 C2943 C 0.43414 0.25643 0.67523
 C2944 C 0.44813 0.23204 0.67399
 C2945 C 0.46960 0.22973 0.65796
 C2946 C 0.47677 0.25117 0.64234
 C2947 C 0.46507 0.27628 0.64668
 C2948 C 0.44396 0.27885 0.66276
 C2949 C 0.40896 0.25717 0.68896
 C2950 C 0.39157 0.27914 0.68722
 C2951 C 0.36692 0.27793 0.69794
 C2952 C 0.35930 0.25498 0.71082
 C2953 C 0.37674 0.23337 0.71362
 C2954 C 0.40127 0.23402 0.70216
 C2955 C 0.44012 0.21002 0.68816
 C2956 C 0.41732 0.21116 0.70241
 H2957 H 0.45127 0.19150 0.68772
 H2958 H 0.41145 0.19348 0.71265
 H2959 H 0.48004 0.21085 0.65662
 H2960 H 0.47206 0.29423 0.63775
 H2961 H 0.35365 0.29488 0.69589
 H2962 H 0.37060 0.21549 0.72341
 H2963 H 0.43556 0.29850 0.66499
 H2964 H 0.39606 0.29699 0.67679
 C2965 C 0.43143 0.74405 0.81987
 C2966 C 0.43925 0.72094 0.83351
 C2967 C 0.46287 0.72060 0.84720
 C2968 C 0.47771 0.74392 0.84954
 C2969 C 0.47088 0.76591 0.83407
 C2970 C 0.44815 0.76604 0.81949
 C2971 C 0.40496 0.74479 0.80778
 C2972 C 0.39550 0.76706 0.79402
 C2973 C 0.36978 0.76802 0.78529
 C2974 C 0.35292 0.74688 0.79007
 C2975 C 0.36232 0.72406 0.80270
 C2976 C 0.38833 0.72277 0.81140
 C2977 C 0.42279 0.69886 0.83460
 C2978 C 0.39764 0.69989 0.82402
 H2979 H 0.42894 0.68102 0.84482
 H2980 H 0.38510 0.68279 0.82624
 H2981 H 0.46885 0.70235 0.85669
 H2982 H 0.48261 0.78372 0.83433
 H2983 H 0.36288 0.78568 0.77521
 H2984 H 0.34938 0.70740 0.80579
 H2985 H 0.44364 0.78404 0.80905
 H2986 H 0.40738 0.78411 0.78999
 C2987 C 0.93678 0.24340 0.31459
 C2988 C 0.95055 0.26758 0.31520
 C2989 C 0.97269 0.26981 0.33086
 C2990 C 0.98043 0.24864 0.34700
 C2991 C 0.96893 0.22361 0.34307
 C2992 C 0.94738 0.22105 0.32721
 C2993 C 0.91089 0.24284 0.30156
 C2994 C 0.89385 0.22118 0.30412
 C2995 C 0.86850 0.22275 0.29441
 C2996 C 0.85980 0.24572 0.28168
 C2997 C 0.87688 0.26692 0.27785
 C2998 C 0.90217 0.26596 0.28837
 C2999 C 0.94156 0.28950 0.30091
 C3000 C 0.91798 0.28853 0.28734
 H3001 H 0.95249 0.30785 0.30082
 H3002 H 0.91135 0.30618 0.27709
 H3003 H 0.98303 0.28851 0.33172
 H3004 H 0.97635 0.20570 0.35224
 H3005 H 0.85549 0.20612 0.29724
 H3006 H 0.86991 0.28482 0.26818
 H3007 H 0.93918 0.20148 0.32538
 H3008 H 0.89916 0.20335 0.31454
 C3009 C 0.07249 0.25764 0.31855
 C3010 C 0.06476 0.27973 0.33316
 C3011 C 0.04166 0.27878 0.34705
 C3012 C 0.02740 0.25501 0.34887
 C3013 C 0.03448 0.23377 0.33306
 C3014 C 0.05667 0.23496 0.31820
 C3015 C 0.09815 0.25855 0.30556
 C3016 C 0.10692 0.23802 0.28971
 C3017 C 0.13234 0.23802 0.28064
 C3018 C 0.14946 0.25847 0.28716
 C3019 C 0.14042 0.28000 0.30139
 C3020 C 0.11472 0.28037 0.31033
 C3021 C 0.08084 0.30203 0.33504
 C3022 C 0.10568 0.30207 0.32433
 H3023 H 0.07479 0.31905 0.34614
 H3024 H 0.11811 0.31912 0.32738
 H3025 H 0.03554 0.29651 0.35696
 H3026 H 0.02322 0.21565 0.33295
 H3027 H 0.13885 0.22146 0.26919
 H3028 H 0.15349 0.29621 0.30581
 H3029 H 0.06156 0.21746 0.30749
 H3030 H 0.09472 0.22160 0.28435
 C3031 C 0.56970 0.75748 0.82002
 C3032 C 0.55494 0.73397 0.81820
 C3033 C 0.53224 0.73127 0.83250
 C3034 C 0.52461 0.75129 0.84947
 C3035 C 0.53706 0.77611 0.84784
 C3036 C 0.55944 0.77910 0.83349
 C3037 C 0.59605 0.75799 0.80837
 C3038 C 0.61398 0.77848 0.81319
 C3039 C 0.63939 0.77685 0.80404
 C3040 C 0.64730 0.75494 0.78973
 C3041 C 0.62941 0.73482 0.78417
 C3042 C 0.60409 0.73585 0.79390
 C3043 C 0.56346 0.71304 0.80291
 C3044 C 0.58742 0.71420 0.79055
 H3045 H 0.55180 0.69528 0.80100
 H3046 H 0.59358 0.69731 0.77934
 H3047 H 0.52140 0.71285 0.83180
 H3048 H 0.52990 0.79341 0.85778
 H3049 H 0.65294 0.79266 0.80834
 H3050 H 0.63561 0.71765 0.77333
 H3051 H 0.56857 0.79835 0.83348
 H3052 H 0.60916 0.79540 0.82475
 C3053 C 0.56953 0.23979 0.67048
 C3054 C 0.55396 0.26321 0.67102
 C3055 C 0.53103 0.26487 0.65654
 C3056 C 0.52351 0.24372 0.64088
 C3057 C 0.53709 0.21923 0.64349
 C3058 C 0.55999 0.21736 0.65787
 C3059 C 0.59578 0.24010 0.68285
 C3060 C 0.61441 0.21950 0.67956
 C3061 C 0.63945 0.22155 0.68987
 C3062 C 0.64624 0.24402 0.70379
 C3063 C 0.62779 0.26443 0.70758
 C3064 C 0.60283 0.26293 0.69671
 C3065 C 0.56167 0.28501 0.68545
 C3066 C 0.58549 0.28465 0.69853
 H3067 H 0.54935 0.30274 0.68630
 H3068 H 0.59094 0.30209 0.70921
 H3069 H 0.51958 0.28323 0.65638
 H3070 H 0.53033 0.20135 0.63442
 H3071 H 0.65352 0.20552 0.68696
 H3072 H 0.63323 0.28200 0.71810
 H3073 H 0.56993 0.19828 0.65877
 H3074 H 0.61036 0.20207 0.66848
 C3075 C 0.05891 0.73965 0.18040
 C3076 C 0.04279 0.76269 0.18095
 C3077 C 0.02106 0.76472 0.16482
 C3078 C 0.01575 0.74450 0.14729
 C3079 C 0.02934 0.72004 0.14998
 C3080 C 0.05078 0.71768 0.16624
 C3081 C 0.08469 0.74024 0.19361
 C3082 C 0.10405 0.72044 0.18995
 C3083 C 0.12912 0.72349 0.19982
 C3084 C 0.13525 0.74614 0.21377
 C3085 C 0.11588 0.76538 0.21861
 C3086 C 0.09083 0.76295 0.20806
 C3087 C 0.04918 0.78399 0.19663
 C3088 C 0.07263 0.78389 0.21035
 H3089 H 0.03635 0.80134 0.19759
 H3090 H 0.07727 0.80115 0.22164
 H3091 H 0.00926 0.78285 0.16453
 H3092 H 0.02384 0.70265 0.13937
 H3093 H 0.14383 0.70821 0.19632
 H3094 H 0.12072 0.78299 0.22934
 H3095 H 0.06097 0.69872 0.16703
 H3096 H 0.10067 0.70304 0.17863
   
