data_POSCAR
  _audit_creation_date              2014-09-24
  _audit_creation_method            'ToBaCCo'
  _symmetry_space_group_name_H-M    'P1'
  _symmetry_Int_Tables_number       1
  _symmetry_cell_setting            triclinic
  loop_
  _symmetry_equiv_pos_as_xyz
 x,y,z
_cell_length_a 62.1065
_cell_length_b 62.0834
_cell_length_c 62.0511
_cell_angle_alpha 90.006100
_cell_angle_beta 90.001900
_cell_angle_gamma 89.983900
loop_
  _atom_site_label
  _atom_site_type_symbol
  _atom_site_fract_x
  _atom_site_fract_y
  _atom_site_fract_z
C1 C 0.36885 1.35357 0.33722
 C2 C 0.36878 1.33743 0.35304
 C3 C 0.35242 1.33667 0.36807
 C4 C 0.33596 1.35214 0.36763
 C5 C 0.33608 1.36804 0.35214
 C6 C 0.35264 1.36872 0.33677
 C7 C 0.38204 1.35753 0.31989
 N8 N 0.37431 1.37480 0.30861
 C9 C 0.35625 1.38168 0.31917
 C10 C 0.31798 1.38039 0.35526
 N11 N 0.30662 1.37251 0.37241
 C12 C 0.31779 1.35508 0.37993
 C13 C 0.35593 1.31883 0.38073
 N14 N 0.37412 1.30868 0.37385
 C15 C 0.38206 1.32012 0.35688
 H16 H 0.39602 1.34798 0.31591
 H17 H 0.34581 1.39475 0.31441
 H18 H 0.31366 1.39402 0.34535
 H19 H 0.31334 1.34488 0.39330
 H20 H 0.34549 1.31339 0.39357
 H21 H 0.39642 1.31625 0.34782
 C22 C 0.36945 0.85355 0.83797
 C23 C 0.36947 0.83757 0.85393
 C24 C 0.35274 0.83643 0.86855
 C25 C 0.33584 0.85141 0.86757
 C26 C 0.33584 0.86711 0.85188
 C27 C 0.35271 0.86815 0.83689
 C28 C 0.38300 0.85781 0.82096
 N29 N 0.37485 0.87458 0.80939
 C30 C 0.35629 0.88098 0.81918
 C31 C 0.31743 0.87909 0.85454
 N32 N 0.30600 0.87122 0.87164
 C33 C 0.31741 0.85410 0.87954
 C34 C 0.35639 0.81870 0.88134
 N35 N 0.37497 0.80897 0.87488
 C36 C 0.38306 0.82059 0.85812
 H37 H 0.39761 0.84908 0.81729
 H38 H 0.34559 0.89349 0.81349
 H39 H 0.31306 0.89257 0.84446
 H40 H 0.31298 0.84403 0.89301
 H41 H 0.34575 0.81296 0.89388
 H42 H 0.39768 0.81700 0.84936
 C43 C 0.86648 1.35157 0.83562
 C44 C 0.86700 1.33608 0.85208
 C45 C 0.85200 1.33679 0.86848
 C46 C 0.83615 1.35289 0.86858
 C47 C 0.83561 1.36806 0.85238
 C48 C 0.85095 1.36742 0.83578
 C49 C 0.87878 1.35457 0.81746
 N50 N 0.87121 1.37199 0.80630
 C51 C 0.85403 1.37980 0.81767
 C52 C 0.81803 1.38099 0.85609
 N53 N 0.80756 1.37408 0.87420
 C54 C 0.81888 1.35681 0.88186
 C55 C 0.85595 1.31951 0.88177
 N56 N 0.87294 1.30814 0.87381
 C57 C 0.87974 1.31830 0.85558
 H58 H 0.89212 1.34437 0.81294
 H59 H 0.84416 1.39347 0.81342
 H60 H 0.81319 1.39407 0.84569
 H61 H 0.81502 1.34726 0.89587
 H62 H 0.84695 1.31563 0.89617
 H63 H 0.89259 1.31292 0.84512
 C64 C 0.86909 0.85339 0.33668
 C65 C 0.86839 0.83667 0.35188
 C66 C 0.85178 0.83574 0.36663
 C67 C 0.83572 0.85162 0.36656
 C68 C 0.83653 0.86819 0.35175
 C69 C 0.85331 0.86900 0.33662
 C70 C 0.88252 0.85755 0.31959
 N71 N 0.87532 0.87535 0.30879
 C72 C 0.85740 0.88241 0.31948
 C73 C 0.81876 0.88096 0.35520
 N74 N 0.80706 0.87255 0.37175
 C75 C 0.81743 0.85451 0.37870
 C76 C 0.85481 0.81751 0.37884
 N77 N 0.87297 0.80730 0.37199
 C78 C 0.88133 0.81903 0.35543
 H79 H 0.89617 0.84766 0.31531
 H80 H 0.84735 0.89590 0.31506
 H81 H 0.81487 0.89542 0.34629
 H82 H 0.81197 0.84386 0.39135
 H83 H 0.84417 0.81196 0.39146
 H84 H 0.89585 0.81524 0.34659
 C85 C 0.63072 0.64650 0.33739
 C86 C 0.63142 0.66339 0.35241
 C87 C 0.64804 0.66447 0.36714
 C88 C 0.66410 0.64859 0.36723
 C89 C 0.66328 0.63186 0.35260
 C90 C 0.64649 0.63089 0.33749
 C91 C 0.61727 0.64214 0.32035
 N92 N 0.62447 0.62422 0.30975
 C93 C 0.64240 0.61729 0.32051
 C94 C 0.68106 0.61914 0.35617
 N95 N 0.69278 0.62774 0.37262
 C96 C 0.68240 0.64584 0.37938
 C97 C 0.64504 0.68283 0.37916
 N98 N 0.62687 0.69297 0.37222
 C99 C 0.61850 0.68107 0.35579
 H100 H 0.60363 0.65198 0.31595
 H101 H 0.65244 0.60374 0.31625
 H102 H 0.68496 0.60459 0.34741
 H103 H 0.68788 0.65663 0.39192
 H104 H 0.65569 0.68850 0.39171
 H105 H 0.60397 0.68479 0.34692
 C106 C 0.63126 0.14652 0.83735
 C107 C 0.63139 0.16285 0.85298
 C108 C 0.64780 0.16375 0.86796
 C109 C 0.66424 0.14825 0.86765
 C110 C 0.66405 0.13219 0.85233
 C111 C 0.64744 0.13135 0.83701
 C112 C 0.61799 0.14238 0.82011
 N113 N 0.62566 0.12497 0.80900
 C114 C 0.64375 0.11819 0.81957
 C115 C 0.68216 0.11985 0.85552
 N116 N 0.69356 0.12790 0.87257
 C117 C 0.68243 0.14541 0.87994
 C118 C 0.64435 0.18174 0.88042
 N119 N 0.62615 0.19183 0.87348
 C120 C 0.61815 0.18022 0.85666
 H121 H 0.60402 0.15191 0.81607
 H122 H 0.65414 0.10505 0.81492
 H123 H 0.68636 0.10604 0.84582
 H124 H 0.68701 0.15582 0.89311
 H125 H 0.65482 0.18731 0.89318
 H126 H 0.60376 0.18400 0.84760
 C127 C 1.13339 0.64767 0.83676
 C128 C 1.13329 0.66378 0.85260
 C129 C 1.14810 0.66318 0.86918
 C130 C 1.16340 0.64656 0.87004
 C131 C 1.16348 0.63073 0.85447
 C132 C 1.14829 0.63121 0.83774
 C133 C 1.12123 0.64448 0.81853
 N134 N 1.12826 0.62636 0.80836
 C135 C 1.14488 0.61819 0.82012
 C136 C 1.18071 0.61748 0.85864
 N137 N 1.19145 0.62483 0.87641
 C138 C 1.18060 0.64267 0.88345
 C139 C 1.14446 0.68100 0.88187
 N140 N 1.12780 0.69249 0.87339
 C141 C 1.12098 0.68196 0.85539
 H142 H 1.10852 0.65500 0.81295
 H143 H 1.15387 0.60376 0.81636
 H144 H 1.18512 0.60388 0.84873
 H145 H 1.18492 0.65276 0.89694
 H146 H 1.15333 0.68506 0.89631
 H147 H 1.10830 0.68725 0.84469
 C148 C 1.13142 0.14669 0.33684
 C149 C 1.13149 0.16305 0.35243
 C150 C 1.14789 0.16403 0.36743
 C151 C 1.16436 0.14857 0.36717
 C152 C 1.16423 0.13248 0.35188
 C153 C 1.14764 0.13156 0.33655
 C154 C 1.11819 0.14247 0.31959
 N155 N 1.12591 0.12506 0.30853
 C156 C 1.14401 0.11836 0.31915
 C157 C 1.18237 0.12020 0.35511
 N158 N 1.19374 0.12831 0.37214
 C159 C 1.18256 0.14581 0.37948
 C160 C 1.14437 0.18203 0.37986
 N161 N 1.12616 0.19206 0.37287
 C162 C 1.11821 0.18039 0.35607
 H163 H 1.10419 0.15196 0.31552
 H164 H 1.15445 0.10523 0.31454
 H165 H 1.18662 0.10638 0.34543
 H166 H 1.18711 0.15625 0.39263
 H167 H 1.15482 0.18766 0.39261
 H168 H 1.10382 0.18413 0.34699
 C169 C 0.63109 1.35323 0.66283
 C170 C 0.63057 1.33752 0.64659
 C171 C 0.64653 1.33699 0.63111
 C172 C 0.66317 1.35225 0.63155
 C173 C 0.66369 1.36767 0.64758
 C174 C 0.64750 1.36814 0.66335
 C175 C 0.61824 1.35699 0.68047
 N176 N 0.62634 1.37396 0.69194
 C177 C 0.64435 1.38078 0.68127
 C178 C 0.68195 1.37979 0.64444
 N179 N 0.69255 1.37227 0.62675
 C180 C 0.68103 1.35536 0.61883
 C181 C 0.64264 1.31939 0.61823
 N182 N 0.62462 1.30914 0.62543
 C183 C 0.61714 1.32033 0.64277
 H184 H 0.60413 1.34763 0.68440
 H185 H 0.65498 1.39366 0.68611
 H186 H 0.68722 1.39283 0.65471
 H187 H 0.68511 1.34595 0.60474
 H188 H 0.65280 1.31409 0.60511
 H189 H 0.60309 1.31629 0.65222
 C190 C 0.63050 0.85397 1.16278
 C191 C 0.63129 0.83707 1.14779
 C192 C 0.64790 0.83605 1.13304
 C193 C 0.66386 0.85202 1.13290
 C194 C 0.66295 0.86876 1.14752
 C195 C 0.64619 0.86966 1.16264
 C196 C 0.61708 0.85827 1.17987
 N197 N 0.62421 0.87622 1.19045
 C198 C 0.64206 0.88324 1.17964
 C199 C 0.68067 0.88156 1.14395
 N200 N 0.69243 0.87301 1.12751
 C201 C 0.68215 0.85485 1.12075
 C202 C 0.64499 0.81765 1.12106
 N203 N 0.62690 0.80741 1.12805
 C204 C 0.61848 0.81930 1.14446
 H205 H 0.60353 0.84833 1.18433
 H206 H 0.65204 0.89685 1.18385
 H207 H 0.68450 0.89613 1.15270
 H208 H 0.68770 0.84407 1.10823
 H209 H 0.65567 0.81201 1.10850
 H210 H 0.60399 0.81552 1.15336
 C211 C 1.13112 1.35439 1.16171
 C212 C 1.13176 1.33757 1.14663
 C213 C 1.14791 1.33694 1.13136
 C214 C 1.16361 1.35318 1.13085
 C215 C 1.16290 1.36976 1.14559
 C216 C 1.14653 1.37040 1.16115
 C217 C 1.11811 1.35840 1.17919
 N218 N 1.12516 1.37653 1.18933
 C219 C 1.14254 1.38397 1.17820
 C220 C 1.18052 1.38261 1.14188
 N221 N 1.19218 1.37435 1.12511
 C222 C 1.18163 1.35624 1.11835
 C223 C 1.14498 1.31850 1.11942
 N224 N 1.12729 1.30791 1.12693
 C225 C 1.11917 1.31960 1.14363
 H226 H 1.10501 1.34822 1.18450
 H227 H 1.15191 1.39809 1.18221
 H228 H 1.18430 1.39686 1.15111
 H229 H 1.18666 1.34545 1.10567
 H230 H 1.15537 1.31310 1.10653
 H231 H 1.10504 1.31557 1.15297
 C232 C 1.13103 0.85368 0.66274
 C233 C 1.13223 0.83640 0.64821
 C234 C 1.14857 0.83566 0.63314
 C235 C 1.16387 0.85224 0.63225
 C236 C 1.16254 0.86938 0.64637
 C237 C 1.14602 0.87008 0.66177
 C238 C 1.11783 0.85786 0.68003
 N239 N 1.12438 0.87644 0.68969
 C240 C 1.14159 0.88404 0.67840
 C241 C 1.17978 0.88265 0.64225
 N242 N 1.19168 0.87398 0.62598
 C243 C 1.18194 0.85532 0.61982
 C244 C 1.14604 0.81693 0.62158
 N245 N 1.12840 0.80627 0.62908
 C246 C 1.11994 0.81818 0.64547
 H247 H 1.10502 0.84748 0.68563
 H248 H 1.15061 0.89847 0.68209
 H249 H 1.18328 0.89753 0.65060
 H250 H 1.18780 0.84433 0.60764
 H251 H 1.15658 0.81147 0.60883
 H252 H 1.10568 0.81419 0.65464
 C253 C 0.36839 0.64651 0.66265
 C254 C 0.36770 0.66308 0.64729
 C255 C 0.35155 0.66338 0.63200
 C256 C 0.33593 0.64708 0.63175
 C257 C 0.33669 0.63073 0.64673
 C258 C 0.35305 0.63042 0.66233
 C259 C 0.38145 0.64278 0.68016
 N260 N 0.37449 0.62474 0.69054
 C261 C 0.35712 0.61709 0.67954
 C262 C 0.31915 0.61771 0.64314
 N263 N 0.30751 0.62565 0.62621
 C264 C 0.31798 0.64372 0.61924
 C265 C 0.35445 0.68158 0.61971
 N266 N 0.37212 0.69236 0.62700
 C267 C 0.38026 0.68102 0.64394
 H268 H 0.39454 0.65306 0.68529
 H269 H 0.34784 0.60296 0.68371
 H270 H 0.31538 0.60361 0.65260
 H271 H 0.31300 0.65427 0.60633
 H272 H 0.34406 0.68668 0.60669
 H273 H 0.39439 0.68525 0.65319
 C274 C 0.36932 0.14560 1.16193
 C275 C 0.36856 0.16221 1.14663
 C276 C 0.35232 0.16260 1.13144
 C277 C 0.33666 0.14632 1.13125
 C278 C 0.33748 0.12993 1.14619
 C279 C 0.35394 0.12955 1.16168
 C280 C 0.38245 0.14187 1.17937
 N281 N 0.37552 0.12385 1.18980
 C282 C 0.35808 0.11621 1.17888
 C283 C 0.31987 0.11698 1.14271
 N284 N 0.30812 0.12501 1.12588
 C285 C 0.31860 0.14306 1.11888
 C286 C 0.35517 0.18086 1.11923
 N287 N 0.37288 0.19158 1.12648
 C288 C 0.38111 0.18014 1.14330
 H289 H 0.39556 0.15214 1.18444
 H290 H 0.34878 0.10212 1.18313
 H291 H 0.31612 0.10287 1.15216
 H292 H 0.31354 0.15366 1.10605
 H293 H 0.34470 0.18606 1.10631
 H294 H 0.39529 0.18433 1.15250
 C295 C 0.86911 0.64618 1.16229
 C296 C 0.86776 0.66327 1.14755
 C297 C 0.85129 0.66379 1.13262
 C298 C 0.83601 0.64718 1.13208
 C299 C 0.83750 0.63022 1.14639
 C300 C 0.85415 0.62975 1.16165
 C301 C 0.88246 0.64225 1.17954
 N302 N 0.87600 0.62379 1.18949
 C303 C 0.85872 0.61602 1.17843
 C304 C 0.82022 0.61688 1.14262
 N305 N 0.80815 0.62533 1.12636
 C306 C 0.81781 0.64392 1.11987
 C307 C 0.85368 0.68237 1.12080
 N308 N 0.87137 0.69316 1.12801
 C309 C 0.87999 0.68148 1.14447
 H310 H 0.89529 0.65272 1.18491
 H311 H 0.84975 0.60163 1.18236
 H312 H 0.81682 0.60212 1.15121
 H313 H 0.81181 0.65477 1.10763
 H314 H 0.84302 0.68765 1.10808
 H315 H 0.89432 0.68560 1.15346
 C316 C 0.86921 0.14660 0.66313
 C317 C 0.86832 0.16324 0.64785
 C318 C 0.85163 0.16398 0.63318
 C319 C 0.83569 0.14798 0.63342
 C320 C 0.83670 0.13150 0.64832
 C321 C 0.85356 0.13088 0.66337
 C322 C 0.88276 0.14266 0.68018
 N323 N 0.87576 0.12488 0.69113
 C324 C 0.85784 0.11761 0.68058
 C325 C 0.81899 0.11860 0.64504
 N326 N 0.80713 0.12685 0.62851
 C327 C 0.81735 0.14492 0.62141
 C328 C 0.85447 0.18218 0.62087
 N329 N 0.87259 0.19254 0.62759
 C330 C 0.88111 0.18094 0.64416
 H331 H 0.89632 0.15270 0.68434
 H332 H 0.84794 0.10406 0.68512
 H333 H 0.81523 0.10418 0.65406
 H334 H 0.81173 0.15548 0.60874
 H335 H 0.84373 0.18760 0.60826
 H336 H 0.89564 0.18485 0.65291
 C337 C 1.35359 0.36972 0.66201
 C338 C 1.33762 0.36949 0.64603
 C339 C 1.33663 0.35262 0.63155
 C340 C 1.35172 0.33584 0.63270
 C341 C 1.36741 0.33607 0.64839
 C342 C 1.36831 0.35308 0.66324
 C343 C 1.35773 0.38344 0.67892
 N344 N 1.37454 0.37550 0.69057
 C345 C 1.38108 0.35690 0.68094
 C346 C 1.37949 0.31769 0.64586
 N347 N 1.37167 0.30608 0.62885
 C348 C 1.35450 0.31733 0.62088
 C349 C 1.31890 0.35602 0.61871
 N350 N 1.30902 0.37458 0.62498
 C351 C 1.32055 0.38291 0.64169
 H352 H 1.34889 0.39802 0.68245
 H353 H 1.39366 0.34634 0.68673
 H354 H 1.39299 0.31345 0.65597
 H355 H 1.34444 0.31275 0.60745
 H356 H 1.31327 0.34521 0.60626
 H357 H 1.31683 0.39759 0.65031
 C358 C 1.35313 0.86882 1.16322
 C359 C 1.33694 0.86846 1.14746
 C360 C 1.33633 0.85198 1.13253
 C361 C 1.35199 0.83571 1.13302
 C362 C 1.36792 0.83612 1.14846
 C363 C 1.36846 0.85279 1.16372
 C364 C 1.35700 0.88217 1.18046
 N365 N 1.37439 0.87471 1.19172
 C366 C 1.38143 0.85666 1.18125
 C367 C 1.38047 0.81812 1.14541
 N368 N 1.37267 0.80657 1.12835
 C369 C 1.35510 0.81750 1.12082
 C370 C 1.31843 0.85521 1.11988
 N371 N 1.30811 0.87335 1.12666
 C372 C 1.31948 0.88152 1.14356
 H373 H 1.34730 0.89606 1.18440
 H374 H 1.39464 0.84640 1.18602
 H375 H 1.39423 0.81407 1.15525
 H376 H 1.34486 0.81279 1.10757
 H377 H 1.31310 0.84464 1.10710
 H378 H 1.31548 0.89592 1.15252
 C379 C 0.85301 0.36857 1.16300
 C380 C 0.83673 0.36811 1.14735
 C381 C 0.83603 0.35156 1.13251
 C382 C 0.85172 0.33531 1.13300
 C383 C 0.86775 0.33581 1.14834
 C384 C 0.86837 0.35257 1.16352
 C385 C 0.85692 0.38203 1.18013
 N386 N 0.87438 0.37468 1.19136
 C387 C 0.88142 0.35658 1.18096
 C388 C 0.88031 0.31782 1.14531
 N389 N 0.87243 0.30617 1.12836
 C390 C 0.85479 0.31704 1.12087
 C391 C 0.81803 0.35474 1.11997
 N392 N 0.80775 0.37291 1.12675
 C393 C 0.81925 0.38116 1.14352
 H394 H 0.84720 0.39592 1.18400
 H395 H 0.89468 0.34639 1.18576
 H396 H 0.89414 0.31384 1.15508
 H397 H 0.84448 0.31224 1.10771
 H398 H 0.81261 0.34411 1.10727
 H399 H 0.81533 0.39560 1.15243
 C400 C 0.85425 0.86961 0.66209
 C401 C 0.83707 0.86818 0.64748
 C402 C 0.83645 0.85163 0.63263
 C403 C 0.85308 0.83635 0.63204
 C404 C 0.87012 0.83791 0.64624
 C405 C 0.87069 0.85465 0.66142
 C406 C 0.85828 0.88303 0.67926
 N407 N 0.87680 0.87663 0.68912
 C408 C 0.88451 0.85930 0.67809
 C409 C 0.88344 0.82062 0.64248
 N410 N 0.87490 0.80845 0.62635
 C411 C 0.85628 0.81808 0.61991
 C412 C 0.81778 0.85397 0.62095
 N413 N 0.80703 0.87168 0.62818
 C414 C 0.81883 0.88038 0.64451
 H415 H 0.84782 0.89588 0.68464
 H416 H 0.89893 0.85035 0.68197
 H417 H 0.89826 0.81725 0.65099
 H418 H 0.84537 0.81200 0.60776
 H419 H 0.81240 0.84326 0.60831
 H420 H 0.81476 0.89475 0.65348
 C421 C 0.64834 0.63234 0.66281
 C422 C 0.66304 0.63122 0.64568
 C423 C 0.66219 0.64623 0.62928
 C424 C 0.64674 0.66271 0.62984
 C425 C 0.63246 0.66396 0.64685
 C426 C 0.63323 0.64864 0.66342
 C427 C 0.64545 0.62001 0.68101
 N428 N 0.62893 0.62841 0.69275
 C429 C 0.62149 0.64605 0.68203
 C430 C 0.61999 0.68198 0.64367
 N431 N 0.62627 0.69179 0.62508
 C432 C 0.64267 0.67997 0.61655
 C433 C 0.67896 0.64187 0.61548
 N434 N 0.69020 0.62466 0.62316
 C435 C 0.68039 0.61805 0.64164
 H436 H 0.65462 0.60577 0.68507
 H437 H 0.60867 0.65656 0.68736
 H438 H 0.60769 0.68778 0.65457
 H439 H 0.65115 0.68354 0.60175
 H440 H 0.68276 0.65091 0.60108
 H441 H 0.68592 0.60523 0.65206
 C442 C 0.64813 1.13303 1.16396
 C443 C 0.66369 1.13261 1.14758
 C444 C 0.66295 1.14758 1.13115
 C445 C 0.64673 1.16332 1.13095
 C446 C 0.63149 1.16375 1.14708
 C447 C 0.63217 1.14844 1.16370
 C448 C 0.64516 1.12077 1.18216
 N449 N 0.62766 1.12827 1.19323
 C450 C 0.61976 1.14534 1.18178
 C451 C 0.61845 1.18124 1.14333
 N452 N 0.62536 1.19178 1.12526
 C453 C 0.64274 1.18058 1.11767
 C454 C 0.68035 1.14376 1.11797
 N455 N 0.69179 1.12686 1.12603
 C456 C 0.68159 1.12001 1.14421
 H457 H 0.65546 1.10755 1.18679
 H458 H 0.60601 1.15514 1.18594
 H459 H 0.60530 1.18597 1.15369
 H460 H 0.65233 1.18455 1.10371
 H461 H 0.68425 1.15277 1.10359
 H462 H 0.68701 1.10722 1.15472
 C463 C 0.14842 0.63344 1.16383
 C464 C 0.16397 0.63303 1.14744
 C465 C 0.16324 0.64802 1.13103
 C466 C 0.14702 0.66376 1.13085
 C467 C 0.13178 0.66419 1.14698
 C468 C 0.13247 0.64886 1.16360
 C469 C 0.14546 0.62114 1.18199
 N470 N 0.12796 0.62860 1.19309
 C471 C 0.12005 0.64571 1.18167
 C472 C 0.11874 0.68168 1.14323
 N473 N 0.12565 0.69220 1.12515
 C474 C 0.14303 0.68101 1.11756
 C475 C 0.18062 0.64419 1.11783
 N476 N 0.19205 0.62727 1.12587
 C477 C 0.18185 0.62041 1.14405
 H478 H 0.15576 0.60790 1.18658
 H479 H 0.10630 0.65549 1.18587
 H480 H 0.10557 0.68641 1.15356
 H481 H 0.15262 0.68496 1.10360
 H482 H 0.18453 0.65321 1.10345
 H483 H 0.18727 0.60761 1.15454
 C484 C 0.14787 1.13323 0.66398
 C485 C 0.16342 1.13281 0.64759
 C486 C 0.16268 1.14780 0.63118
 C487 C 0.14648 1.16355 0.63101
 C488 C 0.13125 1.16399 0.64715
 C489 C 0.13193 1.14866 0.66376
 C490 C 0.14490 1.12094 0.68216
 N491 N 0.12741 1.12843 0.69326
 C492 C 0.11952 1.14554 0.68183
 C493 C 0.11824 1.18152 0.64341
 N494 N 0.12516 1.19204 0.62534
 C495 C 0.14251 1.18082 0.61773
 C496 C 0.18005 1.14399 0.61797
 N497 N 0.19150 1.12707 0.62599
 C498 C 0.18130 1.12020 0.64417
 H499 H 0.15518 1.10769 0.68675
 H500 H 0.10578 1.15534 0.68602
 H501 H 0.10508 1.18625 0.65375
 H502 H 0.15212 1.18478 0.60378
 H503 H 0.18394 1.15302 0.60359
 H504 H 0.18673 1.10739 0.65465
 C505 C 1.35307 0.63136 0.33704
 C506 C 1.33691 0.63165 0.35282
 C507 C 1.33622 0.64815 0.36773
 C508 C 1.35179 0.66451 0.36718
 C509 C 1.36770 0.66415 0.35172
 C510 C 1.36832 0.64746 0.33648
 C511 C 1.35697 0.61800 0.31981
 N512 N 1.37429 0.62554 0.30850
 C513 C 1.38127 0.64363 0.31894
 C514 C 1.38016 0.68221 0.35471
 N515 N 1.37233 0.69376 0.37176
 C516 C 1.35482 0.68276 0.37934
 C517 C 1.31834 0.64485 0.38039
 N518 N 1.30811 0.62665 0.37363
 C519 C 1.31953 0.61851 0.35674
 H520 H 1.34735 0.60404 0.31592
 H521 H 1.39439 0.65397 0.31410
 H522 H 1.39385 0.68633 0.34481
 H523 H 1.34460 0.68743 0.39262
 H524 H 1.31295 0.65541 0.39315
 H525 H 1.31561 0.60409 0.34780
 C526 C 1.35388 1.13019 0.83846
 C527 C 1.33791 1.13036 0.85443
 C528 C 1.33682 1.14722 0.86890
 C529 C 1.35185 1.16407 0.86776
 C530 C 1.36754 1.16388 0.85207
 C531 C 1.36852 1.14687 0.83722
 C532 C 1.35802 1.11651 0.82153
 N533 N 1.37476 1.12451 0.80985
 C534 C 1.38127 1.14312 0.81949
 C535 C 1.37954 1.18232 0.85456
 N536 N 1.37167 1.19392 0.87156
 C537 C 1.35454 1.18262 0.87955
 C538 C 1.31906 1.14376 0.88169
 N539 N 1.30927 1.12517 0.87537
 C540 C 1.32089 1.11688 0.85870
 H541 H 1.34921 1.10191 0.81799
 H542 H 1.39378 1.15373 0.81366
 H543 H 1.39301 1.18659 0.84444
 H544 H 1.34447 1.18719 0.89297
 H545 H 1.31333 1.15454 0.89412
 H546 H 1.31725 1.10221 0.85005
 C547 C 0.85411 0.62938 0.83856
 C548 C 0.83769 0.63001 0.85406
 C549 C 0.83640 0.64711 0.86822
 C550 C 0.85167 0.66372 0.86729
 C551 C 0.86792 0.66305 0.85213
 C552 C 0.86906 0.64581 0.83754
 C553 C 0.85842 0.61548 0.82186
 N554 N 0.87554 0.62313 0.81047
 C555 C 0.88215 0.64169 0.82013
 C556 C 0.88018 0.68130 0.85485
 N557 N 0.87178 0.69314 0.87132
 C558 C 0.85421 0.68241 0.87888
 C559 C 0.81839 0.64398 0.88072
 N560 N 0.80863 0.62533 0.87456
 C561 C 0.82047 0.61671 0.85822
 H562 H 0.84940 0.60105 0.81819
 H563 H 0.89490 0.65210 0.81445
 H564 H 0.89437 0.68535 0.84560
 H565 H 0.84371 0.68781 0.89169
 H566 H 0.81256 0.65495 0.89294
 H567 H 0.81694 0.60186 0.84982
 C568 C 0.85445 1.12908 0.33875
 C569 C 0.83793 1.12981 0.35414
 C570 C 0.83662 1.14696 0.36826
 C571 C 0.85195 1.16351 0.36738
 C572 C 0.86829 1.16273 0.35232
 C573 C 0.86947 1.14545 0.33780
 C574 C 0.85884 1.11514 0.32209
 N575 N 0.87605 1.12272 0.31081
 C576 C 0.88265 1.14127 0.32049
 C577 C 0.88060 1.18094 0.35502
 N578 N 0.87215 1.19289 0.37137
 C579 C 0.85450 1.18226 0.37890
 C580 C 0.81852 1.14392 0.38066
 N581 N 0.80873 1.12529 0.37448
 C582 C 0.82063 1.11659 0.35823
 H583 H 0.84978 1.10074 0.31836
 H584 H 0.89546 1.15165 0.31489
 H585 H 0.89486 1.18490 0.34583
 H586 H 0.84396 1.18777 0.39163
 H587 H 0.81265 1.15494 0.39282
 H588 H 0.81710 1.10173 0.34986
 C589 C 0.64748 0.36771 0.33656
 C590 C 0.66381 0.36750 0.35218
 C591 C 0.66354 0.35225 0.36837
 C592 C 0.64699 0.33690 0.36913
 C593 C 0.63089 0.33718 0.35379
 C594 C 0.63116 0.35271 0.33738
 C595 C 0.64407 0.38017 0.31857
 N596 N 0.62600 0.37315 0.30814
 C597 C 0.61811 0.35624 0.31984
 C598 C 0.61756 0.31999 0.35794
 N599 N 0.62524 0.30904 0.37534
 C600 C 0.64328 0.31943 0.38225
 C601 C 0.68148 0.35564 0.38092
 N602 N 0.69279 0.37257 0.37272
 C603 C 0.68199 0.37981 0.35504
 H604 H 0.65459 0.39306 0.31351
 H605 H 0.60399 0.34679 0.31615
 H606 H 0.60342 0.31581 0.34868
 H607 H 0.65357 0.31435 0.39536
 H608 H 0.68575 0.34644 0.39508
 H609 H 0.68707 0.39280 0.34461
 C610 C 0.64594 0.86966 0.83786
 C611 C 0.66263 0.86920 0.85309
 C612 C 0.66417 0.85223 0.86739
 C613 C 0.64891 0.83559 0.86686
 C614 C 0.63241 0.83611 0.85196
 C615 C 0.63100 0.85321 0.83724
 C616 C 0.64128 0.88341 0.82112
 N617 N 0.62397 0.87563 0.81011
 C618 C 0.61759 0.85714 0.82005
 C619 C 0.62018 0.81791 0.85505
 N620 N 0.62883 0.80622 0.87149
 C621 C 0.64653 0.81701 0.87868
 C622 C 0.68235 0.85552 0.87959
 N623 N 0.69197 0.87414 0.87312
 C624 C 0.67987 0.88258 0.85687
 H625 H 0.65021 0.89783 0.81718
 H626 H 0.60475 0.84666 0.81472
 H627 H 0.60583 0.81380 0.84609
 H628 H 0.65720 0.81173 0.89140
 H629 H 0.68838 0.84469 0.89184
 H630 H 0.68323 0.89737 0.84830
 C631 C 0.14693 0.36829 0.83671
 C632 C 0.16321 0.36809 0.85239
 C633 C 0.16285 0.35288 0.86861
 C634 C 0.14628 0.33756 0.86934
 C635 C 0.13024 0.33781 0.85395
 C636 C 0.13058 0.35331 0.83751
 C637 C 0.14361 0.38071 0.81868
 N638 N 0.12557 0.37369 0.80820
 C639 C 0.11761 0.35682 0.81990
 C640 C 0.11691 0.32061 0.85809
 N641 N 0.12454 0.30970 0.87554
 C642 C 0.14255 0.32012 0.88248
 C643 C 0.18077 0.35623 0.88119
 N644 N 0.19216 0.37309 0.87299
 C645 C 0.18142 0.38034 0.85528
 H646 H 0.15416 0.39357 0.81364
 H647 H 0.10350 0.34737 0.81617
 H648 H 0.10281 0.31639 0.84879
 H649 H 0.15282 0.31506 0.89561
 H650 H 0.18497 0.34703 0.89538
 H651 H 0.18659 0.39329 0.84483
 C652 C 0.14701 0.86791 0.33640
 C653 C 0.16330 0.86773 0.35205
 C654 C 0.16302 0.85250 0.36825
 C655 C 0.14649 0.83712 0.36898
 C656 C 0.13042 0.83737 0.35360
 C657 C 0.13071 0.85290 0.33718
 C658 C 0.14364 0.88036 0.31840
 N659 N 0.12561 0.87331 0.30792
 C660 C 0.11771 0.85640 0.31960
 C661 C 0.11711 0.82016 0.35773
 N662 N 0.12477 0.80923 0.37516
 C663 C 0.14278 0.81966 0.38211
 C664 C 0.18094 0.85592 0.38082
 N665 N 0.19224 0.87285 0.37263
 C666 C 0.18146 0.88006 0.35493
 H667 H 0.15417 0.89325 0.31336
 H668 H 0.10361 0.84693 0.31587
 H669 H 0.10300 0.81595 0.34844
 H670 H 0.15304 0.81460 0.39524
 H671 H 0.18520 0.84673 0.39500
 H672 H 0.18655 0.89305 0.34449
 O673 O 0.97874 0.92311 0.89195
 O674 O 0.97872 0.89827 0.86654
 C675 C 0.97146 0.91577 0.87429
 C676 C 0.95414 0.92760 0.86291
 C677 C 0.94729 0.92115 0.84233
 H678 H 0.95482 0.90739 0.83471
 O679 O 1.02159 1.07839 0.89306
 O680 O 1.02172 1.10369 0.86812
 C681 C 1.02898 1.08607 0.87559
 C682 C 1.04655 1.07464 0.86419
 C683 C 1.05391 1.08193 0.84407
 H684 H 1.04603 1.09547 0.83639
 O685 O 0.89306 0.97990 0.92165
 O686 O 0.86792 0.98011 0.89656
 C687 C 0.87555 0.97260 0.91402
 C688 C 0.86423 0.95493 0.92541
 C689 C 0.84406 0.94761 0.91823
 H690 H 0.83669 0.95507 0.90429
 O691 O 1.10736 1.02120 0.92224
 O692 O 1.13262 1.02131 0.89726
 C693 C 1.12494 1.02855 0.91482
 C694 C 1.13627 1.04597 0.92658
 C695 C 1.15664 1.05313 0.91983
 H696 H 1.16414 1.04575 0.90592
 O697 O 0.92204 0.89318 0.97824
 O698 O 0.89687 0.86814 0.97803
 C699 C 0.91443 0.87573 0.97076
 C700 C 0.92580 0.86452 0.95301
 C701 C 0.91859 0.84442 0.94555
 H702 H 0.90536 0.83652 0.95372
 O703 O 1.07806 1.10709 0.97991
 O704 O 1.10319 1.13218 0.98008
 C705 C 1.08562 1.12469 0.97273
 C706 C 1.07410 1.13624 0.95532
 C707 C 1.08073 1.15685 0.94874
 H708 H 1.09370 1.16477 0.95729
 O709 O 0.92256 1.02220 0.89262
 O710 O 0.89759 1.02248 0.86735
 C711 C 0.91512 1.02967 0.87508
 C712 C 0.92682 1.04716 0.86384
 C713 C 0.92030 1.05414 0.84332
 H714 H 0.90670 1.04648 0.83552
 O715 O 1.07784 0.97946 0.89245
 O716 O 1.10285 0.97952 0.86723
 C717 C 1.08532 0.97219 0.87485
 C718 C 1.07364 0.95480 0.86341
 C719 C 1.08032 0.94787 0.84291
 H720 H 1.09414 0.95541 0.83541
 O721 O 1.02048 0.89329 0.92147
 O722 O 1.02051 0.86826 0.89626
 C723 C 1.02778 0.87575 0.91387
 C724 C 1.04530 0.86433 0.92539
 C725 C 1.05237 0.84399 0.91842
 H726 H 1.04411 0.83612 0.90523
 O727 O 0.97972 1.10777 0.92292
 O728 O 0.97978 1.13316 0.89807
 C729 C 0.97245 1.12542 0.91555
 C730 C 0.95491 1.13671 0.92715
 C731 C 0.94786 1.15709 0.92031
 H732 H 0.95617 1.16506 0.90721
 O733 O 0.89307 1.07826 0.97934
 O734 O 0.86801 1.10343 0.97946
 C735 C 0.87557 1.08593 0.97201
 C736 C 0.86427 1.07462 0.95427
 C737 C 0.84419 1.08194 0.94682
 H738 H 0.83666 1.09573 0.95440
 O739 O 1.10711 0.92224 0.97835
 O740 O 1.13211 0.89701 0.97822
 C741 C 1.12459 0.91459 0.97094
 C742 C 1.13592 0.92603 0.95332
 C743 C 1.15590 0.91861 0.94572
 H744 H 1.16331 0.90465 0.95312
 O745 O 0.97960 1.07859 0.89305
 O746 O 0.97969 1.10383 0.86804
 C747 C 0.97232 1.08626 0.87553
 C748 C 0.95481 1.07483 0.86406
 C749 C 0.94808 1.08158 0.84353
 H750 H 0.95635 1.09476 0.83564
 O751 O 1.02068 0.92305 0.89215
 O752 O 1.02069 0.89818 0.86676
 C753 C 1.02799 0.91566 0.87452
 C754 C 1.04549 0.92729 0.86321
 C755 C 1.05216 0.92084 0.84258
 H756 H 1.04365 0.90795 0.83448
 O757 O 1.10741 0.97918 0.92184
 O758 O 1.13259 0.97920 0.89678
 C759 C 1.12490 0.97177 0.91424
 C760 C 1.13606 0.95397 0.92557
 C761 C 1.15605 0.94634 0.91821
 H762 H 1.16384 0.95418 0.90471
 O763 O 0.89306 1.02196 0.92211
 O764 O 0.86793 1.02224 0.89700
 C765 C 0.87556 1.02942 0.91460
 C766 C 0.86430 1.04699 0.92619
 C767 C 0.84422 1.05450 0.91900
 H768 H 0.83645 1.04672 0.90545
 O769 O 0.92270 1.10758 0.97953
 O770 O 0.89779 1.13290 0.97966
 C771 C 0.91525 1.12520 0.97226
 C772 C 0.92682 1.13655 0.95473
 C773 C 0.91975 1.15677 0.94741
 H774 H 0.90578 1.16414 0.95480
 O775 O 1.07740 0.89302 0.97817
 O776 O 1.10228 0.86767 0.97808
 C777 C 1.08484 0.87547 0.97073
 C778 C 1.07330 0.86429 0.95307
 C779 C 1.08035 0.84411 0.94566
 H780 H 1.09428 0.83668 0.95306
 O781 O 1.07810 1.02147 0.89254
 O782 O 1.10318 1.02161 0.86738
 C783 C 1.08569 1.02894 0.87505
 C784 C 1.07427 1.04668 0.86389
 C785 C 1.08142 1.05421 0.84377
 H786 H 1.09519 1.04670 0.83613
 O787 O 0.92257 0.98027 0.89216
 O788 O 0.89759 0.98052 0.86689
 C789 C 0.91512 0.97317 0.87447
 C790 C 0.92673 0.95582 0.86293
 C791 C 0.92031 0.94939 0.84221
 H792 H 0.90746 0.95803 0.83418
 O793 O 1.02171 1.10762 0.92280
 O794 O 1.02180 1.13307 0.89800
 C795 C 1.02910 1.12522 0.91545
 C796 C 1.04659 1.13642 0.92718
 C797 C 1.05367 1.15687 0.92059
 H798 H 1.04618 1.16448 0.90679
 O799 O 0.97846 0.89346 0.92124
 O800 O 0.97841 0.86846 0.89598
 C801 C 0.97102 0.87603 0.91352
 C802 C 0.95332 0.86476 0.92487
 C803 C 0.94566 0.84481 0.91741
 H804 H 0.95291 0.83759 0.90328
 O805 O 1.10737 1.07733 0.97974
 O806 O 1.13265 1.10228 0.97991
 C807 C 1.12497 1.08481 0.97249
 C808 C 1.13633 1.07333 0.95491
 C809 C 1.15683 1.08004 0.94815
 H810 H 1.16482 1.09299 0.95667
 O811 O 0.89282 0.92298 0.97838
 O812 O 0.86753 0.89807 0.97818
 C813 C 0.87525 0.91560 0.97097
 C814 C 0.86403 0.92723 0.95340
 C815 C 0.84372 0.92037 0.94622
 H816 H 0.83574 0.90723 0.95444
 Cu817 Cu 0.99960 0.91070 0.90924
 Cu818 Cu 0.99961 0.88076 0.87886
 Cu819 Cu 1.00064 1.09055 0.91044
 Cu820 Cu 1.00074 1.12099 0.88055
 Cu821 Cu 0.91030 1.00105 0.90967
 Cu822 Cu 0.88021 1.00136 0.87944
 Cu823 Cu 1.09017 1.00032 0.90977
 Cu824 Cu 1.12034 1.00042 0.87964
 C825 C 0.94384 0.94501 0.87301
 H826 H 0.94877 0.94980 0.88905
 C827 C 0.93045 0.93203 0.83173
 C828 C 1.05670 1.05688 0.87385
 H829 H 1.05129 1.05136 0.88950
 C830 C 1.07133 1.07183 0.83373
 C831 C 0.87402 0.94469 0.94307
 H832 H 0.88976 0.94996 0.94843
 C833 C 0.83360 0.93037 0.92857
 C834 C 1.12631 1.05611 0.94420
 H835 H 1.11043 1.05095 0.94925
 C836 C 1.16714 1.07011 0.93056
 C837 C 0.94335 0.87441 0.94274
 H838 H 0.94889 0.88998 0.94832
 C839 C 0.92834 0.83443 0.92768
 C840 C 1.05684 1.12630 0.94462
 H841 H 1.05173 1.11036 0.94953
 C842 C 1.07065 1.16733 0.93135
 C843 C 0.94421 1.05748 0.87397
 H844 H 0.94915 1.05236 0.88991
 C845 C 0.93087 1.07130 0.83300
 C846 C 1.05615 0.94447 0.87335
 H847 H 1.05115 0.94944 0.88933
 C848 C 1.06962 0.93096 0.83227
 C849 C 1.05569 0.87420 0.94290
 H850 H 1.05043 0.88996 0.94826
 C851 C 1.06994 0.83373 0.92841
 C852 C 0.94448 1.12672 0.94455
 H853 H 0.94974 1.11093 0.94981
 C854 C 0.93021 1.16725 0.93024
 C855 C 0.87408 1.05702 0.94396
 H856 H 0.88971 1.05149 0.94940
 C857 C 0.83404 1.07198 0.92918
 C858 C 1.12625 0.94383 0.94326
 H859 H 1.11070 0.94944 0.94883
 C860 C 1.16609 0.92866 0.92818
 O861 O 1.02071 0.92160 1.10704
 O862 O 1.02067 0.89635 1.13204
 C863 C 1.02805 0.91389 1.12453
 C864 C 1.04565 0.92525 1.13594
 C865 C 1.05269 0.91818 1.15626
 H866 H 1.04458 0.90484 1.16404
 O867 O 0.97941 1.07702 1.10800
 O868 O 0.97943 1.10186 1.13342
 C869 C 0.97211 1.08439 1.12564
 C870 C 0.95457 1.07278 1.13689
 C871 C 0.94793 1.07914 1.15756
 H872 H 0.95652 1.09192 1.16575
 O873 O 0.89276 1.02078 1.07770
 O874 O 0.86753 1.02075 1.10271
 C875 C 0.87518 1.02809 1.08519
 C876 C 0.86389 1.04569 1.07368
 C877 C 0.84349 1.05269 1.08048
 H878 H 0.83548 1.04430 1.09350
 O879 O 1.10713 0.97808 1.07795
 O880 O 1.13233 0.97777 1.10299
 C881 C 1.12464 0.97059 1.08542
 C882 C 1.13590 0.95311 1.07369
 C883 C 1.15615 0.94576 1.08060
 H884 H 1.16359 0.95305 1.09459
 O885 O 1.07732 0.89280 1.02025
 O886 O 1.10221 0.86747 1.02017
 C887 C 1.08472 0.87516 1.02752
 C888 C 1.07312 0.86377 1.04501
 C889 C 1.08003 0.84340 1.05202
 H890 H 1.09337 0.83557 1.04395
 O891 O 0.92277 1.10725 1.02162
 O892 O 0.89783 1.13255 1.02180
 C893 C 0.91529 1.12476 1.02913
 C894 C 0.92673 1.13584 1.04692
 C895 C 0.91951 1.15590 1.05450
 H896 H 0.90609 1.16377 1.04661
 O897 O 0.92229 0.97886 1.10727
 O898 O 0.89724 0.97881 1.13247
 C899 C 0.91479 0.97153 1.12484
 C900 C 0.92637 0.95402 1.13620
 C901 C 0.91968 0.94714 1.15668
 H902 H 0.90649 0.95534 1.16464
 O903 O 1.07783 1.02001 1.10774
 O904 O 1.10287 1.01977 1.13294
 C905 C 1.08538 1.02720 1.12535
 C906 C 1.07391 1.04472 1.13680
 C907 C 1.08081 1.05164 1.15720
 H908 H 1.09410 1.04349 1.16504
 O909 O 0.97840 0.89263 1.07745
 O910 O 0.97828 0.86729 1.10235
 C911 C 0.97092 0.87512 1.08492
 C912 C 0.95321 0.86401 1.07341
 C913 C 0.94547 0.84404 1.08069
 H914 H 0.95266 0.83669 1.09478
 O915 O 1.02148 1.10668 1.07883
 O916 O 1.02152 1.13170 1.10405
 C917 C 1.02888 1.12413 1.08650
 C918 C 1.04653 1.13543 1.07507
 C919 C 1.05401 1.15552 1.08231
 H920 H 1.04667 1.16286 1.09633
 O921 O 0.89263 0.92259 1.02043
 O922 O 0.86734 0.89767 1.02023
 C923 C 0.87504 0.91510 1.02770
 C924 C 0.86379 0.92646 1.04542
 C925 C 0.84353 0.91941 1.05260
 H926 H 0.83559 0.90631 1.04427
 O927 O 1.10736 1.07717 1.02179
 O928 O 1.13263 1.10212 1.02197
 C929 C 1.12492 1.08459 1.02920
 C930 C 1.13620 1.07295 1.04672
 C931 C 1.15647 1.07988 1.05394
 H932 H 1.16433 1.09328 1.04600
 O933 O 1.02136 1.07700 1.10811
 O934 O 1.02142 1.10187 1.13349
 C935 C 1.02870 1.08437 1.12573
 C936 C 1.04618 1.07268 1.13701
 C937 C 1.05334 1.07940 1.15741
 H938 H 1.04576 1.09309 1.16514
 O939 O 0.97876 0.92194 1.10714
 O940 O 0.97867 0.89675 1.13220
 C941 C 0.97146 0.91438 1.12470
 C942 C 0.95408 0.92606 1.13616
 C943 C 0.94714 0.91936 1.15664
 H944 H 0.95480 0.90569 1.16432
 O945 O 1.10735 1.02009 1.07828
 O946 O 1.13255 1.01985 1.10331
 C947 C 1.12492 1.02733 1.08584
 C948 C 1.13625 1.04495 1.07441
 C949 C 1.15651 1.05214 1.08145
 H950 H 1.16413 1.04448 1.09515
 O951 O 0.89279 0.97877 1.07780
 O952 O 0.86760 0.97867 1.10284
 C953 C 0.87528 0.97136 1.08533
 C954 C 0.86400 0.95380 1.07375
 C955 C 0.84389 0.94631 1.08092
 H956 H 0.83658 0.95355 1.09500
 O957 O 1.07796 1.10678 1.02191
 O958 O 1.10311 1.13185 1.02208
 C959 C 1.08554 1.12427 1.02934
 C960 C 1.07409 1.13554 1.04698
 C961 C 1.08111 1.15580 1.05420
 H962 H 1.09427 1.16371 1.04593
 O963 O 0.92205 0.89301 1.02029
 O964 O 0.89688 0.86796 1.02012
 C965 C 0.91441 0.87547 1.02755
 C966 C 0.92573 0.86409 1.04522
 C967 C 0.91844 0.84394 1.05251
 H968 H 0.90518 0.83616 1.04427
 O969 O 1.07772 0.97803 1.10751
 O970 O 1.10276 0.97772 1.13271
 C971 C 1.08521 0.97054 1.12502
 C972 C 1.07358 0.95298 1.13622
 C973 C 1.08040 0.94568 1.15653
 H974 H 1.09411 0.95322 1.16426
 O975 O 0.92211 1.02083 1.10737
 O976 O 0.89705 1.02082 1.13255
 C977 C 0.91459 1.02813 1.12496
 C978 C 0.92627 1.04546 1.13647
 C979 C 0.91961 1.05228 1.15701
 H980 H 0.90576 1.04475 1.16446
 O981 O 0.97944 1.10675 1.07871
 O982 O 0.97940 1.13175 1.10395
 C983 C 0.97207 1.12424 1.08636
 C984 C 0.95446 1.13561 1.07492
 C985 C 0.94697 1.15567 1.08228
 H986 H 0.95439 1.16309 1.09623
 O987 O 1.02044 0.89246 1.07718
 O988 O 1.02040 0.86705 1.10201
 C989 C 1.02773 0.87481 1.08453
 C990 C 1.04524 0.86355 1.07285
 C991 C 1.05242 0.84318 1.07965
 H992 H 1.04481 0.83546 1.09332
 O993 O 1.10706 0.92210 1.02039
 O994 O 1.13210 0.89691 1.02029
 C995 C 1.12458 0.91445 1.02769
 C996 C 1.13596 0.92581 1.04533
 C997 C 1.15636 0.91889 1.05224
 H998 H 1.16430 0.90587 1.04377
 O999 O 0.89306 1.07800 1.02140
 O1000 O 0.86799 1.10315 1.02156
 C1001 C 0.87555 1.08556 1.02879
 C1002 C 0.86415 1.07393 1.04625
 C1003 C 0.84390 1.08095 1.05351
 H1004 H 0.83655 1.09494 1.04615
 Cu1005 Cu 0.99958 0.90968 1.08970
 Cu1006 Cu 0.99950 0.87930 1.11964
 Cu1007 Cu 1.00042 1.08939 1.09087
 Cu1008 Cu 1.00043 1.11932 1.12126
 Cu1009 Cu 0.90992 0.91043 0.99936
 Cu1010 Cu 0.87962 0.88045 0.99911
 Cu1011 Cu 1.08973 0.91007 0.99931
 Cu1012 Cu 1.11967 0.87972 0.99920
 Cu1013 Cu 0.91040 1.09025 1.00045
 Cu1014 Cu 0.88041 1.12055 1.00064
 Cu1015 Cu 1.09017 1.08959 1.00081
 Cu1016 Cu 1.12044 1.11961 1.00102
 Cu1017 Cu 0.90999 0.99983 1.09002
 Cu1018 Cu 0.87981 0.99977 1.12016
 Cu1019 Cu 1.09000 0.99908 1.09036
 Cu1020 Cu 1.12016 0.99875 1.12051
 C1021 C 1.05607 0.94277 1.12616
 H1022 H 1.05090 0.94813 1.11037
 C1023 C 1.07003 0.92831 1.16669
 C1024 C 0.94383 1.05575 1.12661
 H1025 H 0.94880 1.05085 1.11061
 C1026 C 0.93041 1.06905 1.16778
 C1027 C 0.87394 1.05622 1.05637
 H1028 H 0.88974 1.05100 1.05114
 C1029 C 0.83335 1.07038 1.07057
 C1030 C 1.12601 0.94310 1.05598
 H1031 H 1.11021 0.94842 1.05083
 C1032 C 1.16661 0.92872 1.06992
 C1033 C 1.05559 0.87361 1.05539
 H1034 H 1.05035 0.88944 1.05025
 C1035 C 1.06979 0.83297 1.06932
 C1036 C 0.94435 1.12594 1.05711
 H1037 H 0.94982 1.11033 1.05154
 C1038 C 0.92949 1.16593 1.07218
 C1039 C 0.94371 0.94352 1.12618
 H1040 H 0.94878 0.94858 1.11026
 C1041 C 0.92996 0.92983 1.16705
 C1042 C 1.05645 1.05520 1.12694
 H1043 H 1.05122 1.05012 1.11109
 C1044 C 1.07063 1.06897 1.16765
 C1045 C 0.94329 0.87384 1.05560
 H1046 H 0.94890 0.88944 1.05017
 C1047 C 0.92814 0.83378 1.07030
 C1048 C 1.05661 1.12564 1.05734
 H1049 H 1.05122 1.10995 1.05194
 C1050 C 1.07126 1.16593 1.07192
 C1051 C 0.87375 0.94384 1.05592
 H1052 H 0.88944 0.94925 1.05057
 C1053 C 0.83345 0.92917 1.07041
 C1054 C 1.12633 1.05535 1.05692
 H1055 H 1.11057 1.05010 1.05160
 C1056 C 1.16676 1.06960 1.07130
 O1057 O 0.97893 0.42330 0.39147
 O1058 O 0.97892 0.39848 0.36604
 C1059 C 0.97159 0.41593 0.37386
 C1060 C 0.95401 0.42756 0.36267
 C1061 C 0.94684 0.42086 0.34228
 H1062 H 0.95449 0.40725 0.33448
 O1063 O 1.02181 0.57812 0.39253
 O1064 O 1.02194 0.60340 0.36756
 C1065 C 1.02926 0.58583 0.37509
 C1066 C 1.04694 0.57449 0.36379
 C1067 C 1.05439 0.58182 0.34372
 H1068 H 1.04650 0.59534 0.33600
 O1069 O 0.89298 0.47999 0.42198
 O1070 O 0.86769 0.48020 0.39703
 C1071 C 0.87539 0.47274 0.41449
 C1072 C 0.86415 0.45502 0.42588
 C1073 C 0.84386 0.44787 0.41888
 H1074 H 0.83588 0.45625 0.40582
 O1075 O 1.10748 0.52120 0.42215
 O1076 O 1.13286 0.52130 0.39730
 C1077 C 1.12507 0.52859 0.41479
 C1078 C 1.13626 0.54612 0.42651
 C1079 C 1.15650 0.55351 0.41962
 H1080 H 1.16400 0.54618 0.40568
 O1081 O 0.92269 0.39280 0.47793
 O1082 O 0.89764 0.36764 0.47767
 C1083 C 0.91515 0.37533 0.47041
 C1084 C 0.92654 0.36423 0.45260
 C1085 C 0.91938 0.34413 0.44512
 H1086 H 0.90622 0.33615 0.45333
 O1087 O 1.07761 0.60699 0.47983
 O1088 O 1.10263 0.63218 0.48005
 C1089 C 1.08510 0.62462 0.47267
 C1090 C 1.07358 0.63612 0.45521
 C1091 C 1.08023 0.65671 0.44860
 H1092 H 1.09315 0.66468 0.45718
 O1093 O 0.92251 0.52192 0.39245
 O1094 O 0.89742 0.52218 0.36730
 C1095 C 0.91503 0.52933 0.37490
 C1096 C 0.92683 0.54664 0.36348
 C1097 C 0.92030 0.55355 0.34294
 H1098 H 0.90647 0.54607 0.33539
 O1099 O 1.07816 0.47946 0.39216
 O1100 O 1.10334 0.47949 0.36711
 C1101 C 1.08574 0.47221 0.37459
 C1102 C 1.07408 0.45488 0.36304
 C1103 C 1.08092 0.44792 0.34261
 H1104 H 1.09485 0.45537 0.33524
 O1105 O 1.02088 0.39360 0.42078
 O1106 O 1.02097 0.36861 0.39553
 C1107 C 1.02824 0.37610 0.41315
 C1108 C 1.04567 0.36463 0.42476
 C1109 C 1.05296 0.34442 0.41764
 H1110 H 1.04568 0.33715 0.40355
 O1111 O 0.97952 0.60724 0.42204
 O1112 O 0.97953 0.63256 0.39712
 C1113 C 0.97214 0.62480 0.41457
 C1114 C 0.95455 0.63607 0.42612
 C1115 C 0.94704 0.65616 0.41890
 H1116 H 0.95428 0.66346 0.40480
 O1117 O 0.89346 0.57824 0.47932
 O1118 O 0.86847 0.60349 0.47946
 C1119 C 0.87595 0.58594 0.47205
 C1120 C 0.86454 0.57461 0.45440
 C1121 C 0.84425 0.58171 0.44735
 H1122 H 0.83641 0.59487 0.45570
 O1123 O 1.10674 0.42208 0.47835
 O1124 O 1.13170 0.39681 0.47822
 C1125 C 1.12421 0.41442 0.47095
 C1126 C 1.13563 0.42588 0.45341
 C1127 C 1.15577 0.41860 0.44610
 H1128 H 1.16341 0.40502 0.45396
 O1129 O 0.97985 0.57787 0.39239
 O1130 O 0.97993 0.60304 0.36731
 C1131 C 0.97263 0.58545 0.37481
 C1132 C 0.95518 0.57392 0.36334
 C1133 C 0.94866 0.58039 0.34266
 H1134 H 0.95730 0.59320 0.33460
 O1135 O 1.02090 0.42331 0.39145
 O1136 O 1.02093 0.39848 0.36603
 C1137 C 1.02823 0.41595 0.37381
 C1138 C 1.04578 0.42755 0.36259
 C1139 C 1.05259 0.42106 0.34201
 H1140 H 1.04407 0.40822 0.33385
 O1141 O 1.10747 0.47915 0.42181
 O1142 O 1.13283 0.47916 0.39694
 C1143 C 1.12501 0.47174 0.41434
 C1144 C 1.13608 0.45395 0.42578
 C1145 C 1.15621 0.44642 0.41868
 H1146 H 1.16391 0.45398 0.40497
 O1147 O 0.89311 0.52204 0.42202
 O1148 O 0.86786 0.52233 0.39703
 C1149 C 0.87561 0.52956 0.41455
 C1150 C 0.86446 0.54717 0.42618
 C1151 C 0.84432 0.55470 0.41913
 H1152 H 0.83689 0.54744 0.40512
 O1153 O 0.92319 0.60750 0.47941
 O1154 O 0.89833 0.63287 0.47954
 C1155 C 0.91576 0.62512 0.47212
 C1156 C 0.92719 0.63633 0.45442
 C1157 C 0.92014 0.65658 0.44719
 H1158 H 0.90703 0.66454 0.45549
 O1159 O 1.07696 0.39285 0.47833
 O1160 O 1.10181 0.36747 0.47825
 C1161 C 1.08436 0.37527 0.47093
 C1162 C 1.07289 0.36414 0.45320
 C1163 C 1.07970 0.34378 0.44609
 H1164 H 1.09265 0.33568 0.45452
 O1165 O 1.07842 0.52143 0.39229
 O1166 O 1.10364 0.52155 0.36727
 C1167 C 1.08610 0.52889 0.37484
 C1168 C 1.07473 0.54661 0.36362
 C1169 C 1.08198 0.55418 0.34355
 H1170 H 1.09580 0.54670 0.33597
 O1171 O 0.92222 0.47998 0.39221
 O1172 O 0.89709 0.48019 0.36710
 C1173 C 0.91462 0.47278 0.37462
 C1174 C 0.92610 0.45532 0.36309
 C1175 C 0.91916 0.44842 0.34268
 H1176 H 0.90580 0.45651 0.33492
 O1177 O 1.02153 0.60724 0.42238
 O1178 O 1.02160 0.63267 0.39756
 C1179 C 1.02885 0.62489 0.41507
 C1180 C 1.04623 0.63618 0.42690
 C1181 C 1.05333 0.65661 0.42028
 H1182 H 1.04593 0.66417 0.40641
 O1183 O 0.97888 0.39352 0.42063
 O1184 O 0.97888 0.36854 0.39535
 C1185 C 0.97152 0.37605 0.41292
 C1186 C 0.95392 0.36466 0.42433
 C1187 C 0.94630 0.34471 0.41684
 H1188 H 0.95350 0.33755 0.40266
 O1189 O 1.10714 0.57743 0.47958
 O1190 O 1.13230 0.60249 0.47977
 C1191 C 1.12471 0.58499 0.47233
 C1192 C 1.13613 0.57358 0.45473
 C1193 C 1.15652 0.58051 0.44784
 H1194 H 1.16440 0.59359 0.45627
 O1195 O 0.89328 0.42239 0.47811
 O1196 O 0.86810 0.39735 0.47784
 C1197 C 0.87576 0.41492 0.47065
 C1198 C 0.86443 0.42661 0.45316
 C1199 C 0.84431 0.41948 0.44569
 H1200 H 0.83703 0.40537 0.45289
 Cu1201 Cu 0.99991 0.41092 0.40862
 Cu1202 Cu 0.99995 0.38102 0.37819
 Cu1203 Cu 1.00067 0.59009 0.40982
 Cu1204 Cu 1.00075 0.62047 0.37989
 Cu1205 Cu 0.91021 0.50096 0.40968
 Cu1206 Cu 0.87995 0.50125 0.37963
 Cu1207 Cu 1.09036 0.50030 0.40960
 Cu1208 Cu 1.12073 0.50037 0.37966
 C1209 C 0.94366 0.44492 0.37284
 H1210 H 0.94892 0.44999 0.38869
 C1211 C 0.92945 0.43121 0.33213
 C1212 C 1.05709 0.55676 0.37349
 H1213 H 1.05160 0.55121 0.38910
 C1214 C 1.07190 0.57178 0.33347
 C1215 C 0.87416 0.44446 0.44322
 H1216 H 0.88987 0.44978 0.44861
 C1217 C 0.83380 0.43005 0.42860
 C1218 C 1.12627 0.55620 0.44414
 H1219 H 1.11048 0.55087 0.44928
 C1220 C 1.16685 0.57065 0.43024
 C1221 C 0.94400 0.37422 0.44228
 H1222 H 0.94949 0.38981 0.44788
 C1223 C 0.92905 0.33424 0.42716
 C1224 C 1.05639 0.62614 0.44445
 H1225 H 1.05128 0.61020 0.44938
 C1226 C 1.07026 0.66712 0.43109
 C1227 C 0.94435 0.55686 0.37347
 H1228 H 0.94922 0.55188 0.38948
 C1229 C 0.93120 0.57033 0.33229
 C1230 C 1.05644 0.44466 0.37282
 H1231 H 1.05135 0.44966 0.38876
 C1232 C 1.07021 0.43106 0.33187
 C1233 C 1.05568 0.37430 0.44262
 H1234 H 1.05044 0.39007 0.44793
 C1235 C 1.06993 0.33378 0.42825
 C1236 C 0.94458 0.62635 0.44395
 H1237 H 0.95000 0.61067 0.44935
 C1238 C 0.92988 0.66662 0.42936
 C1239 C 0.87436 0.55716 0.44389
 H1240 H 0.89007 0.55170 0.44915
 C1241 C 0.83399 0.57191 0.42966
 C1242 C 1.12603 0.44368 0.44327
 H1243 H 1.11038 0.44920 0.44864
 C1244 C 1.16618 0.42876 0.42875
 O1245 O 1.02052 0.42185 0.60737
 O1246 O 1.02048 0.39664 0.63240
 C1247 C 1.02785 0.41419 0.62487
 C1248 C 1.04548 0.42555 0.63624
 C1249 C 1.05254 0.41853 0.65657
 H1250 H 1.04439 0.40525 0.66442
 O1251 O 0.97922 0.57642 0.60819
 O1252 O 0.97916 0.60124 0.63362
 C1253 C 0.97185 0.58380 0.62580
 C1254 C 0.95421 0.57224 0.63694
 C1255 C 0.94741 0.57868 0.65753
 H1256 H 0.95596 0.59147 0.66575
 O1257 O 0.89262 0.52064 0.57735
 O1258 O 0.86719 0.52058 0.60216
 C1259 C 0.87500 0.52795 0.58472
 C1260 C 0.86380 0.54557 0.57317
 C1261 C 0.84318 0.55228 0.57957
 H1262 H 0.83498 0.54368 0.59233
 O1263 O 1.10715 0.47802 0.57793
 O1264 O 1.13246 0.47769 0.60286
 C1265 C 1.12469 0.47054 0.58531
 C1266 C 1.13592 0.45310 0.57350
 C1267 C 1.15633 0.44594 0.58013
 H1268 H 1.16390 0.45332 0.59400
 O1269 O 1.07708 0.39271 0.52043
 O1270 O 1.10198 0.36737 0.52033
 C1271 C 1.08453 0.37510 0.52773
 C1272 C 1.07302 0.36377 0.54531
 C1273 C 1.07991 0.34340 0.55233
 H1274 H 1.09318 0.33551 0.54420
 O1275 O 0.92329 0.60723 0.52148
 O1276 O 0.89844 0.63261 0.52164
 C1277 C 0.91590 0.62479 0.52894
 C1278 C 0.92740 0.63588 0.54666
 C1279 C 0.92065 0.65625 0.55379
 H1280 H 0.90770 0.66437 0.54539
 O1281 O 0.92175 0.47846 0.60696
 O1282 O 0.89648 0.47838 0.63193
 C1283 C 0.91405 0.47105 0.62442
 C1284 C 0.92541 0.45339 0.63575
 C1285 C 0.91807 0.44593 0.65581
 H1286 H 0.90452 0.45379 0.66351
 O1287 O 1.07811 0.52004 0.60783
 O1288 O 1.10327 0.51981 0.63291
 C1289 C 1.08577 0.52728 0.62538
 C1290 C 1.07435 0.54483 0.63684
 C1291 C 1.08169 0.55226 0.65692
 H1292 H 1.09579 0.54496 0.66413
 O1293 O 0.97854 0.39260 0.57760
 O1294 O 0.97845 0.36725 0.60249
 C1295 C 0.97116 0.37501 0.58499
 C1296 C 0.95369 0.36373 0.57329
 C1297 C 0.94617 0.34361 0.58039
 H1298 H 0.95336 0.33626 0.59449
 O1299 O 1.02141 0.60605 0.57916
 O1300 O 1.02141 0.63104 0.60442
 C1301 C 1.02880 0.62350 0.58687
 C1302 C 1.04647 0.63482 0.57550
 C1303 C 1.05415 0.65473 0.58302
 H1304 H 1.04696 0.66190 0.59721
 O1305 O 0.89309 0.42192 0.52019
 O1306 O 0.86793 0.39686 0.51996
 C1307 C 0.87555 0.41430 0.52748
 C1308 C 0.86420 0.42566 0.54516
 C1309 C 0.84414 0.41829 0.55263
 H1310 H 0.83691 0.40424 0.54526
 O1311 O 1.10712 0.57709 0.52161
 O1312 O 1.13229 0.60214 0.52180
 C1313 C 1.12467 0.58456 0.52899
 C1314 C 1.13604 0.57292 0.54646
 C1315 C 1.15630 0.57990 0.55366
 H1316 H 1.16409 0.59334 0.54572
 O1317 O 1.02119 0.57641 0.60847
 O1318 O 1.02118 0.60126 0.63386
 C1319 C 1.02851 0.58380 0.62610
 C1320 C 1.04616 0.57229 0.63728
 C1321 C 1.05349 0.57926 0.65752
 H1322 H 1.04526 0.59239 0.66553
 O1323 O 0.97849 0.42188 0.60730
 O1324 O 0.97838 0.39667 0.63233
 C1325 C 0.97105 0.41422 0.62476
 C1326 C 0.95333 0.42562 0.63598
 C1327 C 0.94575 0.41837 0.65604
 H1328 H 0.95322 0.40455 0.66362
 O1329 O 1.10735 0.52002 0.57813
 O1330 O 1.13267 0.51978 0.60305
 C1331 C 1.12495 0.52726 0.58561
 C1332 C 1.13622 0.54488 0.57413
 C1333 C 1.15648 0.55213 0.58113
 H1334 H 1.16414 0.54449 0.59482
 O1335 O 0.89263 0.47865 0.57710
 O1336 O 0.86723 0.47855 0.60193
 C1337 C 0.87502 0.47128 0.58444
 C1338 C 0.86386 0.45367 0.57284
 C1339 C 0.84366 0.44632 0.57982
 H1340 H 0.83568 0.45449 0.59300
 O1341 O 1.07766 0.60663 0.52190
 O1342 O 1.10272 0.63178 0.52211
 C1343 C 1.08523 0.62409 0.52942
 C1344 C 1.07388 0.63519 0.54725
 C1345 C 1.08110 0.65526 0.55477
 H1346 H 1.09430 0.66320 0.54659
 O1347 O 0.92266 0.39252 0.51998
 O1348 O 0.89763 0.36733 0.51974
 C1349 C 0.91511 0.37493 0.52719
 C1350 C 0.92645 0.36358 0.54487
 C1351 C 0.91938 0.34331 0.55198
 H1352 H 0.90631 0.33539 0.54359
 O1353 O 1.07775 0.47807 0.60753
 O1354 O 1.10287 0.47774 0.63264
 C1355 C 1.08526 0.47060 0.62504
 C1356 C 1.07358 0.45313 0.63633
 C1357 C 1.08042 0.44587 0.65665
 H1358 H 1.09419 0.45336 0.66431
 O1359 O 0.92181 0.52045 0.60718
 O1360 O 0.89656 0.52043 0.63216
 C1361 C 0.91418 0.52771 0.62473
 C1362 C 0.92583 0.54500 0.63635
 C1363 C 0.91900 0.55191 0.65681
 H1364 H 0.90506 0.54445 0.66417
 O1365 O 0.97940 0.60627 0.57902
 O1366 O 0.97933 0.63126 0.60428
 C1367 C 0.97207 0.62379 0.58665
 C1368 C 0.95469 0.63532 0.57504
 C1369 C 0.94748 0.65557 0.58215
 H1370 H 0.95481 0.66285 0.59621
 O1371 O 1.02050 0.39261 0.57760
 O1372 O 1.02048 0.36723 0.60246
 C1373 C 1.02781 0.37499 0.58498
 C1374 C 1.04530 0.36369 0.57330
 C1375 C 1.05245 0.34333 0.58011
 H1376 H 1.04488 0.33565 0.59383
 O1377 O 1.10681 0.42201 0.52038
 O1378 O 1.13184 0.39680 0.52024
 C1379 C 1.12436 0.41437 0.52762
 C1380 C 1.13584 0.42578 0.54515
 C1381 C 1.15639 0.41905 0.55179
 H1382 H 1.16433 0.40610 0.54322
 O1383 O 0.89342 0.57810 0.52132
 O1384 O 0.86843 0.60334 0.52148
 C1385 C 0.87590 0.58569 0.52867
 C1386 C 0.86433 0.57398 0.54594
 C1387 C 0.84384 0.58071 0.55279
 H1388 H 0.83646 0.59463 0.54532
 Cu1389 Cu 0.99952 0.40978 0.58999
 Cu1390 Cu 0.99946 0.37941 0.61994
 Cu1391 Cu 1.00030 0.58880 0.59118
 Cu1392 Cu 1.00024 0.61871 0.62159
 Cu1393 Cu 0.91044 0.40992 0.49908
 Cu1394 Cu 0.88030 0.37977 0.49877
 Cu1395 Cu 1.08940 0.40994 0.49939
 Cu1396 Cu 1.11932 0.37956 0.49926
 Cu1397 Cu 0.91084 0.59024 0.50038
 Cu1398 Cu 0.88094 0.62065 0.50056
 Cu1399 Cu 1.08986 0.58953 0.50069
 Cu1400 Cu 1.12000 0.61967 0.50093
 Cu1401 Cu 0.90974 0.49958 0.58966
 Cu1402 Cu 0.87931 0.49949 0.61954
 Cu1403 Cu 1.09007 0.49906 0.59036
 Cu1404 Cu 1.12036 0.49871 0.62038
 C1405 C 1.05597 0.44299 0.62637
 H1406 H 1.05079 0.44831 0.61057
 C1407 C 1.06998 0.42860 0.66691
 C1408 C 0.94351 0.55521 0.62662
 H1409 H 0.94861 0.55026 0.61068
 C1410 C 0.92975 0.56869 0.66762
 C1411 C 0.87411 0.55633 0.55616
 H1412 H 0.89007 0.55130 0.55124
 C1413 C 0.83304 0.56989 0.56953
 C1414 C 1.12588 0.44300 0.55593
 H1415 H 1.10998 0.44818 0.55098
 C1416 C 1.16680 0.42899 0.56931
 C1417 C 1.05558 0.37369 0.55577
 H1418 H 1.05035 0.38952 0.55062
 C1419 C 1.06974 0.33304 0.56971
 C1420 C 0.94461 0.62568 0.55721
 H1421 H 0.94980 0.60989 0.55190
 C1422 C 0.93049 0.66624 0.57159
 C1423 C 0.94317 0.44326 0.62608
 H1424 H 0.94874 0.44875 0.61048
 C1425 C 0.92812 0.42843 0.66609
 C1426 C 1.05652 0.55488 0.62722
 H1427 H 1.05104 0.54953 0.61154
 C1428 C 1.07133 0.56944 0.66747
 C1429 C 0.94379 0.37352 0.55546
 H1430 H 0.94921 0.38923 0.55016
 C1431 C 0.92907 0.33318 0.56979
 C1432 C 1.05638 0.62525 0.55755
 H1433 H 1.05084 0.60969 0.55192
 C1434 C 1.07144 0.66517 0.57273
 C1435 C 0.87386 0.44341 0.55532
 H1436 H 0.88952 0.44891 0.54995
 C1437 C 0.83367 0.42854 0.56993
 C1438 C 1.12624 0.55527 0.55667
 H1439 H 1.11048 0.54998 0.55138
 C1440 C 1.16665 0.56964 0.57099
 O1441 O 0.47891 0.92328 0.39216
 O1442 O 0.47890 0.89837 0.36682
 C1443 C 0.47155 0.91584 0.37458
 C1444 C 0.45395 0.92739 0.36336
 C1445 C 0.44678 0.92051 0.34303
 H1446 H 0.45482 0.90721 0.33510
 O1447 O 0.52150 1.07837 0.39287
 O1448 O 0.52164 1.10366 0.36791
 C1449 C 0.52894 1.08608 0.37543
 C1450 C 0.54660 1.07472 0.36412
 C1451 C 0.55402 1.08202 0.34402
 H1452 H 0.54612 1.09552 0.33629
 O1453 O 0.39259 0.98010 0.42194
 O1454 O 0.36743 0.98034 0.39686
 C1455 C 0.37501 0.97289 0.41436
 C1456 C 0.36369 0.95522 0.42571
 C1457 C 0.34339 0.94813 0.41868
 H1458 H 0.33545 0.95652 0.40561
 O1459 O 0.60726 1.02116 0.42235
 O1460 O 0.63259 1.02125 0.39745
 C1461 C 0.62487 1.02849 0.41499
 C1462 C 0.63620 1.04588 0.42677
 C1463 C 0.65650 1.05313 0.41994
 H1464 H 0.66398 1.04578 0.40599
 O1465 O 0.42222 0.89314 0.47790
 O1466 O 0.39710 0.86805 0.47766
 C1467 C 0.41465 0.87567 0.47042
 C1468 C 0.42613 0.86445 0.45275
 C1469 C 0.41892 0.84437 0.44524
 H1470 H 0.40543 0.83658 0.45309
 O1471 O 0.57776 1.10681 0.47992
 O1472 O 0.60285 1.13193 0.48010
 C1473 C 0.58530 1.12441 0.47273
 C1474 C 0.57379 1.13596 0.45529
 C1475 C 0.58050 1.15652 0.44867
 H1476 H 0.59351 1.16441 0.45719
 O1477 O 0.42236 1.02200 0.39261
 O1478 O 0.39740 1.02225 0.36734
 C1479 C 0.41494 1.02943 0.37504
 C1480 C 0.42671 1.04681 0.36371
 C1481 C 0.42015 1.05378 0.34321
 H1482 H 0.40635 1.04628 0.33564
 O1483 O 0.57767 0.97967 0.39230
 O1484 O 0.60280 0.97972 0.36718
 C1485 C 0.58519 0.97247 0.37468
 C1486 C 0.57353 0.95517 0.36313
 C1487 C 0.58021 0.94843 0.34258
 H1488 H 0.59347 0.95660 0.33473
 O1489 O 0.52100 0.89373 0.42145
 O1490 O 0.52113 0.86869 0.39625
 C1491 C 0.52843 0.87627 0.41383
 C1492 C 0.54598 0.86491 0.42537
 C1493 C 0.55342 0.84481 0.41813
 H1494 H 0.54616 0.83754 0.40402
 O1495 O 0.47933 1.10758 0.42247
 O1496 O 0.47938 1.13294 0.39759
 C1497 C 0.47201 1.12519 0.41505
 C1498 C 0.45451 1.13652 0.42669
 C1499 C 0.44724 1.15679 0.41970
 H1500 H 0.45459 1.16417 0.40571
 O1501 O 0.39310 1.07861 0.47928
 O1502 O 0.36810 1.10385 0.47931
 C1503 C 0.37566 1.08634 0.47186
 C1504 C 0.36439 1.07508 0.45408
 C1505 C 0.34435 1.08247 0.44657
 H1506 H 0.33687 1.09632 0.45411
 O1507 O 0.60697 0.92263 0.47895
 O1508 O 0.63199 0.89742 0.47887
 C1509 C 0.62446 0.91501 0.47158
 C1510 C 0.63579 0.92641 0.45393
 C1511 C 0.65600 0.91928 0.44669
 H1512 H 0.66386 0.90607 0.45493
 O1513 O 0.47954 1.07819 0.39280
 O1514 O 0.47964 1.10339 0.36774
 C1515 C 0.47233 1.08578 0.37522
 C1516 C 0.45491 1.07424 0.36371
 C1517 C 0.44837 1.08077 0.34305
 H1518 H 0.45695 1.09366 0.33504
 O1519 O 0.52088 0.92310 0.39181
 O1520 O 0.52092 0.89822 0.36644
 C1521 C 0.52819 0.91572 0.37417
 C1522 C 0.54563 0.92741 0.36285
 C1523 C 0.55256 0.92086 0.34232
 H1524 H 0.54482 0.90732 0.33450
 O1525 O 0.60708 0.97913 0.42188
 O1526 O 0.63236 0.97914 0.39693
 C1527 C 0.62459 0.97170 0.41435
 C1528 C 0.63576 0.95397 0.42580
 C1529 C 0.65581 0.94639 0.41858
 H1530 H 0.66317 0.95369 0.40455
 O1531 O 0.39292 1.02213 0.42214
 O1532 O 0.36780 1.02244 0.39702
 C1533 C 0.37547 1.02967 0.41458
 C1534 C 0.36433 1.04737 0.42607
 C1535 C 0.34430 1.05497 0.41883
 H1536 H 0.33651 1.04718 0.40529
 O1537 O 0.42290 1.10779 0.47974
 O1538 O 0.39804 1.13317 0.47982
 C1539 C 0.41553 1.12545 0.47250
 C1540 C 0.42711 1.13676 0.45495
 C1541 C 0.42032 1.15717 0.44798
 H1542 H 0.40730 1.16518 0.45638
 O1543 O 0.57732 0.89327 0.47884
 O1544 O 0.60222 0.86794 0.47878
 C1545 C 0.58476 0.87570 0.47143
 C1546 C 0.57333 0.86455 0.45369
 C1547 C 0.58031 0.84429 0.44644
 H1548 H 0.59338 0.83627 0.45475
 O1549 O 0.57809 1.02162 0.39258
 O1550 O 0.60326 1.02174 0.36752
 C1551 C 0.58575 1.02910 0.37514
 C1552 C 0.57439 1.04684 0.36395
 C1553 C 0.58160 1.05437 0.34386
 H1554 H 0.59541 1.04687 0.33626
 O1555 O 0.42211 0.98001 0.39246
 O1556 O 0.39710 0.98021 0.36722
 C1557 C 0.41458 0.97277 0.37485
 C1558 C 0.42607 0.95521 0.36346
 C1559 C 0.41910 0.94806 0.34313
 H1560 H 0.40536 0.95567 0.33554
 O1561 O 0.52135 1.10743 0.42274
 O1562 O 0.52147 1.13287 0.39794
 C1563 C 0.52874 1.12503 0.41541
 C1564 C 0.54625 1.13621 0.42716
 C1565 C 0.55342 1.15662 0.42053
 H1566 H 0.54597 1.16424 0.40672
 O1567 O 0.47899 0.89334 0.42120
 O1568 O 0.47904 0.86828 0.39601
 C1569 C 0.47166 0.87582 0.41356
 C1570 C 0.45403 0.86448 0.42496
 C1571 C 0.44656 0.84440 0.41765
 H1572 H 0.45407 0.83690 0.40379
 O1573 O 0.60725 1.07722 0.47987
 O1574 O 0.63248 1.10221 0.48008
 C1575 C 0.62485 1.08472 0.47265
 C1576 C 0.63624 1.07327 0.45507
 C1577 C 0.65668 1.08008 0.44822
 H1578 H 0.66463 1.09310 0.45667
 O1579 O 0.39270 0.92261 0.47794
 O1580 O 0.36746 0.89764 0.47771
 C1581 C 0.37517 0.91517 0.47049
 C1582 C 0.36388 0.92684 0.45299
 C1583 C 0.34375 0.91975 0.44551
 H1584 H 0.33643 0.90566 0.45272
 Cu1585 Cu 0.49995 0.91085 0.40919
 Cu1586 Cu 0.50001 0.88087 0.37885
 Cu1587 Cu 0.50040 1.09036 0.41021
 Cu1588 Cu 0.50052 1.12077 0.38030
 Cu1589 Cu 0.40999 1.00103 0.40981
 Cu1590 Cu 0.37990 1.00134 0.37959
 Cu1591 Cu 0.59001 1.00039 0.40978
 Cu1592 Cu 0.62031 1.00046 0.37977
 C1593 C 0.44362 0.94488 0.37333
 H1594 H 0.44890 0.95010 0.38913
 C1595 C 0.42936 0.93072 0.33279
 C1596 C 0.55676 1.05701 0.37384
 H1597 H 0.55130 1.05148 0.38946
 C1598 C 0.57150 1.07195 0.33376
 C1599 C 0.37365 0.94465 0.44306
 H1600 H 0.38937 0.94993 0.44846
 C1601 C 0.33327 0.93034 0.42841
 C1602 C 0.62627 1.05598 0.44442
 H1603 H 0.61043 1.05076 0.44952
 C1604 C 0.66697 1.07017 0.43061
 C1605 C 0.44382 0.87426 0.44264
 H1606 H 0.44928 0.88988 0.44816
 C1607 C 0.42901 0.83422 0.42769
 C1608 C 0.55647 1.12608 0.44462
 H1609 H 0.55130 1.11016 0.44957
 C1610 C 0.57047 1.16701 0.43125
 C1611 C 0.44418 1.05707 0.37376
 H1612 H 0.44906 1.05205 0.38975
 C1613 C 0.43096 1.07066 0.33263
 C1614 C 0.55610 0.94470 0.37301
 H1615 H 0.55104 0.94964 0.38898
 C1616 C 0.56982 0.93131 0.33203
 C1617 C 0.55597 0.87459 0.44322
 H1618 H 0.55060 0.89029 0.44863
 C1619 C 0.57054 0.83428 0.42860
 C1620 C 0.44440 1.12670 0.44439
 H1621 H 0.44963 1.11089 0.44960
 C1622 C 0.43019 1.16733 0.43029
 C1623 C 0.37413 1.05740 0.44383
 H1624 H 0.38971 1.05181 0.44933
 C1625 C 0.33419 1.07252 0.42895
 C1626 C 0.62594 0.94394 0.44355
 H1627 H 0.61029 0.94943 0.44895
 C1628 C 0.66615 0.92910 0.42896
 O1629 O 0.51987 0.92191 0.60726
 O1630 O 0.51975 0.89672 0.63231
 C1631 C 0.52708 0.91430 0.62484
 C1632 C 0.54449 0.92581 0.63640
 C1633 C 0.55094 0.91926 0.65708
 H1634 H 0.54232 0.90636 0.66505
 O1635 O 0.47900 1.07708 0.60803
 O1636 O 0.47900 1.10194 0.63342
 C1637 C 0.47164 1.08450 0.62562
 C1638 C 0.45396 1.07300 0.63675
 C1639 C 0.44704 1.07959 0.65725
 H1640 H 0.45554 1.09244 0.66543
 O1641 O 0.39228 1.02093 0.57744
 O1642 O 0.36693 1.02085 0.60232
 C1643 C 0.37465 1.02820 0.58485
 C1644 C 0.36341 1.04581 0.57332
 C1645 C 0.34301 1.05285 0.58010
 H1646 H 0.33495 1.04444 0.59308
 O1647 O 0.60686 0.97826 0.57856
 O1648 O 0.63192 0.97796 0.60373
 C1649 C 0.62434 0.97077 0.58613
 C1650 C 0.63563 0.95324 0.57453
 C1651 C 0.65561 0.94554 0.58182
 H1652 H 0.66287 0.95267 0.59600
 O1653 O 0.57727 0.89320 0.52092
 O1654 O 0.60217 0.86786 0.52087
 C1655 C 0.58469 0.87558 0.52823
 C1656 C 0.57307 0.86422 0.54572
 C1657 C 0.58006 0.84394 0.55293
 H1658 H 0.59401 0.83656 0.54552
 O1659 O 0.42257 1.10748 0.52181
 O1660 O 0.39766 1.13280 0.52191
 C1661 C 0.41507 1.12498 0.52931
 C1662 C 0.42641 1.13602 0.54718
 C1663 C 0.41906 1.15598 0.55488
 H1664 H 0.40558 1.16381 0.54704
 O1665 O 0.42174 0.97910 0.60719
 O1666 O 0.39658 0.97902 0.63227
 C1667 C 0.41417 0.97178 0.62474
 C1668 C 0.42570 0.95427 0.63612
 C1669 C 0.41907 0.94750 0.65667
 H1670 H 0.40613 0.95599 0.66471
 O1671 O 0.57733 1.02010 0.60826
 O1672 O 0.60228 1.01986 0.63356
 C1673 C 0.58481 1.02729 0.62591
 C1674 C 0.57332 1.04481 0.63732
 C1675 C 0.58021 1.05176 0.65772
 H1676 H 0.59346 1.04359 0.66559
 O1677 O 0.47793 0.89267 0.57740
 O1678 O 0.47780 0.86733 0.60230
 C1679 C 0.47052 0.87510 0.58482
 C1680 C 0.45298 0.86388 0.57316
 C1681 C 0.44544 0.84376 0.58025
 H1682 H 0.45265 0.83640 0.59433
 O1683 O 0.52113 1.10663 0.57889
 O1684 O 0.52118 1.13172 0.60405
 C1685 C 0.52851 1.12412 0.58649
 C1686 C 0.54603 1.13546 0.57492
 C1687 C 0.55311 1.15585 0.58173
 H1688 H 0.54560 1.16333 0.59559
 O1689 O 0.39270 0.92257 0.51999
 O1690 O 0.36743 0.89761 0.51978
 C1691 C 0.37510 0.91508 0.52723
 C1692 C 0.36376 0.92651 0.54486
 C1693 C 0.34337 0.91962 0.55180
 H1694 H 0.33543 0.90657 0.54339
 O1695 O 0.60706 1.07702 0.52194
 O1696 O 0.63226 1.10204 0.52215
 C1697 C 0.62458 1.08450 0.52939
 C1698 C 0.63578 1.07297 0.54705
 C1699 C 0.65598 1.08000 0.55439
 H1700 H 0.66391 1.09321 0.54622
 O1701 O 0.52095 1.07716 0.60843
 O1702 O 0.52102 1.10208 0.63376
 C1703 C 0.52827 1.08455 0.62606
 C1704 C 0.54568 1.07284 0.63741
 C1705 C 0.55282 1.07960 0.65781
 H1706 H 0.54528 1.09333 0.66549
 O1707 O 0.47793 0.92201 0.60703
 O1708 O 0.47778 0.89681 0.63208
 C1709 C 0.47053 0.91441 0.62453
 C1710 C 0.45311 0.92605 0.63594
 C1711 C 0.44605 0.91926 0.65635
 H1712 H 0.45352 0.90538 0.66381
 O1713 O 0.60677 1.02030 0.57876
 O1714 O 0.63187 1.02010 0.60390
 C1715 C 0.62427 1.02761 0.58642
 C1716 C 0.63557 1.04530 0.57507
 C1717 C 0.65561 1.05280 0.58242
 H1718 H 0.66289 1.04544 0.59646
 O1719 O 0.39256 0.97891 0.57740
 O1720 O 0.36723 0.97876 0.60231
 C1721 C 0.37501 0.97147 0.58482
 C1722 C 0.36380 0.95392 0.57315
 C1723 C 0.34355 0.94659 0.58006
 H1724 H 0.33609 0.95392 0.59402
 O1725 O 0.57765 1.10665 0.52192
 O1726 O 0.60272 1.13180 0.52209
 C1727 C 0.58515 1.12419 0.52930
 C1728 C 0.57356 1.13555 0.54680
 C1729 C 0.58017 1.15609 0.55358
 H1730 H 0.59313 1.16411 0.54510
 O1731 O 0.42195 0.89279 0.51994
 O1732 O 0.39682 0.86770 0.51973
 C1733 C 0.41433 0.87524 0.52718
 C1734 C 0.42565 0.86385 0.54484
 C1735 C 0.41856 0.84357 0.55193
 H1736 H 0.40545 0.83569 0.54355
 O1737 O 0.57712 0.97814 0.60778
 O1738 O 0.60202 0.97785 0.63313
 C1739 C 0.58450 0.97066 0.62534
 C1740 C 0.57271 0.95322 0.63656
 C1741 C 0.57916 0.94623 0.65710
 H1742 H 0.59292 0.95373 0.66476
 O1743 O 0.42160 1.02106 0.60714
 O1744 O 0.39641 1.02103 0.63218
 C1745 C 0.41398 1.02837 0.62467
 C1746 C 0.42557 1.04576 0.63620
 C1747 C 0.41864 1.05281 0.65658
 H1748 H 0.40466 1.04540 0.66391
 O1749 O 0.47912 1.10693 0.57893
 O1750 O 0.47909 1.13195 0.60416
 C1751 C 0.47175 1.12442 0.58658
 C1752 C 0.45413 1.13579 0.57517
 C1753 C 0.44651 1.15575 0.58265
 H1754 H 0.45388 1.16313 0.59665
 O1755 O 0.51995 0.89277 0.57734
 O1756 O 0.51988 0.86740 0.60222
 C1757 C 0.52725 0.87516 0.58475
 C1758 C 0.54488 0.86393 0.57321
 C1759 C 0.55189 0.84351 0.57996
 H1760 H 0.54353 0.83548 0.59299
 O1761 O 0.60704 0.92242 0.52101
 O1762 O 0.63206 0.89720 0.52094
 C1763 C 0.62452 0.91473 0.52835
 C1764 C 0.63580 0.92598 0.54612
 C1765 C 0.65595 0.91873 0.55342
 H1766 H 0.66383 0.90557 0.54511
 O1767 O 0.39287 1.07822 0.52132
 O1768 O 0.36783 1.10342 0.52140
 C1769 C 0.37532 1.08579 0.52863
 C1770 C 0.36381 1.07414 0.54599
 C1771 C 0.34356 1.08119 0.55322
 H1772 H 0.33626 1.09523 0.54590
 Cu1773 Cu 0.49893 0.90986 0.58976
 Cu1774 Cu 0.49881 0.87950 0.61972
 Cu1775 Cu 0.50007 1.08946 0.59104
 Cu1776 Cu 0.50008 1.11944 0.62138
 Cu1777 Cu 0.40991 0.91028 0.49896
 Cu1778 Cu 0.37968 0.88023 0.49870
 Cu1779 Cu 0.58966 0.91041 0.49994
 Cu1780 Cu 0.61961 0.88007 0.49986
 Cu1781 Cu 0.41035 1.09050 0.50053
 Cu1782 Cu 0.38041 1.12086 0.50061
 Cu1783 Cu 0.58992 1.08941 0.50088
 Cu1784 Cu 0.62012 1.11950 0.50111
 Cu1785 Cu 0.40956 1.00002 0.58979
 Cu1786 Cu 0.37923 0.99991 0.61977
 Cu1787 Cu 0.58954 0.99922 0.59081
 Cu1788 Cu 0.61955 0.99891 0.62111
 C1789 C 0.55529 0.94298 0.62641
 H1790 H 0.55048 0.94802 0.61041
 C1791 C 0.56830 0.92934 0.66760
 C1792 C 0.44330 1.05590 0.62649
 H1793 H 0.44848 1.05083 0.61061
 C1794 C 0.42933 1.06967 0.66731
 C1795 C 0.37352 1.05637 0.55607
 H1796 H 0.38933 1.05112 0.55088
 C1797 C 0.33294 1.07060 0.57023
 C1798 C 0.62593 0.94342 0.55660
 H1799 H 0.61032 0.94898 0.55115
 C1800 C 0.66600 0.92833 0.57134
 C1801 C 0.55540 0.87402 0.55590
 H1802 H 0.55017 0.88984 0.55070
 C1803 C 0.56953 0.83337 0.56999
 C1804 C 0.44408 1.12616 0.55731
 H1805 H 0.44965 1.11062 0.55164
 C1806 C 0.42897 1.16596 0.57262
 C1807 C 0.44291 0.94363 0.62604
 H1808 H 0.44800 0.94869 0.61013
 C1809 C 0.42911 0.92996 0.66694
 C1810 C 0.55592 1.05531 0.62741
 H1811 H 0.55070 1.05020 0.61155
 C1812 C 0.57007 1.06915 0.66810
 C1813 C 0.44305 0.87372 0.55538
 H1814 H 0.44850 0.88943 0.55009
 C1815 C 0.42829 0.83338 0.56970
 C1816 C 0.55630 1.12551 0.55739
 H1817 H 0.55121 1.10962 0.55231
 C1818 C 0.57011 1.16640 0.57109
 C1819 C 0.37371 0.94384 0.55546
 H1820 H 0.38950 0.94914 0.55029
 C1821 C 0.33312 0.92950 0.56945
 C1822 C 0.62586 1.05544 0.55731
 H1823 H 0.61021 1.05003 0.55182
 C1824 C 0.66603 1.07011 0.57215
 O1825 O 0.47916 0.42315 0.89220
 O1826 O 0.47915 0.39830 0.86679
 C1827 C 0.47185 0.41579 0.87456
 C1828 C 0.45430 0.42742 0.86333
 C1829 C 0.44736 0.42081 0.84284
 H1830 H 0.45577 0.40785 0.83473
 O1831 O 0.52143 0.57769 0.89248
 O1832 O 0.52148 0.60286 0.86741
 C1833 C 0.52880 0.58530 0.87497
 C1834 C 0.54651 0.57394 0.86371
 C1835 C 0.55395 0.58117 0.84361
 H1836 H 0.54578 0.59442 0.83573
 O1837 O 0.39267 0.47962 0.92233
 O1838 O 0.36741 0.47980 0.89735
 C1839 C 0.37508 0.47237 0.91483
 C1840 C 0.36379 0.45472 0.92623
 C1841 C 0.34349 0.44763 0.91924
 H1842 H 0.33553 0.45601 0.90617
 O1843 O 0.60739 0.52104 0.92248
 O1844 O 0.63281 0.52110 0.89766
 C1845 C 0.62502 0.52837 0.91515
 C1846 C 0.63627 0.54582 0.92691
 C1847 C 0.65659 0.55305 0.92014
 H1848 H 0.66413 0.54566 0.90624
 O1849 O 0.42241 0.39278 0.97822
 O1850 O 0.39731 0.36766 0.97803
 C1851 C 0.41481 0.37534 0.97070
 C1852 C 0.42615 0.36423 0.95288
 C1853 C 0.41878 0.34428 0.94519
 H1854 H 0.40529 0.33648 0.95303
 O1855 O 0.57758 0.60682 0.97970
 O1856 O 0.60272 0.63189 0.97985
 C1857 C 0.58523 0.62433 0.97239
 C1858 C 0.57398 0.63563 0.95461
 C1859 C 0.58131 0.65574 0.94726
 H1860 H 0.59453 0.66356 0.95552
 O1861 O 0.42218 0.52160 0.89283
 O1862 O 0.39706 0.52181 0.86770
 C1863 C 0.41464 0.52902 0.87530
 C1864 C 0.42631 0.54643 0.86391
 C1865 C 0.41952 0.55353 0.84351
 H1866 H 0.40561 0.54612 0.83606
 O1867 O 0.57808 0.47931 0.89250
 O1868 O 0.60331 0.47929 0.86749
 C1869 C 0.58571 0.47200 0.87497
 C1870 C 0.57418 0.45453 0.86351
 C1871 C 0.58127 0.44728 0.84327
 H1872 H 0.59509 0.45480 0.83575
 O1873 O 0.52096 0.39328 0.92156
 O1874 O 0.52102 0.36824 0.89636
 C1875 C 0.52831 0.37577 0.91396
 C1876 C 0.54576 0.36434 0.92556
 C1877 C 0.55306 0.34412 0.91848
 H1878 H 0.54574 0.33679 0.90445
 O1879 O 0.47950 0.60712 0.92220
 O1880 O 0.47950 0.63243 0.89727
 C1881 C 0.47219 0.62474 0.91478
 C1882 C 0.45477 0.63613 0.92649
 C1883 C 0.44761 0.65648 0.91962
 H1884 H 0.45499 0.66391 0.90567
 O1885 O 0.39342 0.57833 0.97956
 O1886 O 0.36836 0.60350 0.97958
 C1887 C 0.37589 0.58594 0.97224
 C1888 C 0.36443 0.57442 0.95475
 C1889 C 0.34398 0.58124 0.94786
 H1890 H 0.33637 0.59490 0.95561
 O1891 O 0.60677 0.42215 0.97899
 O1892 O 0.63186 0.39700 0.97895
 C1893 C 0.62431 0.41458 0.97166
 C1894 C 0.63576 0.42611 0.95418
 C1895 C 0.65612 0.41915 0.94719
 H1896 H 0.66389 0.40577 0.95525
 O1897 O 0.47946 0.57767 0.89260
 O1898 O 0.47947 0.60281 0.86749
 C1899 C 0.47215 0.58525 0.87506
 C1900 C 0.45459 0.57378 0.86370
 C1901 C 0.44782 0.58043 0.84316
 H1902 H 0.45634 0.59334 0.83511
 O1903 O 0.52115 0.42282 0.89211
 O1904 O 0.52118 0.39791 0.86676
 C1905 C 0.52854 0.41536 0.87453
 C1906 C 0.54621 0.42683 0.86334
 C1907 C 0.55349 0.41983 0.84309
 H1908 H 0.54548 0.40651 0.83517
 O1909 O 0.60734 0.47904 0.92222
 O1910 O 0.63274 0.47904 0.89739
 C1911 C 0.62493 0.47167 0.91483
 C1912 C 0.63609 0.45404 0.92641
 C1913 C 0.65644 0.44684 0.91963
 H1914 H 0.66420 0.45448 0.90600
 O1915 O 0.39298 0.52161 0.92261
 O1916 O 0.36769 0.52184 0.89766
 C1917 C 0.37543 0.52905 0.91520
 C1918 C 0.36422 0.54659 0.92688
 C1919 C 0.34377 0.55359 0.92026
 H1920 H 0.33575 0.54548 0.90705
 O1921 O 0.42328 0.60749 0.97970
 O1922 O 0.39837 0.63282 0.97971
 C1923 C 0.41587 0.62510 0.97239
 C1924 C 0.42742 0.63638 0.95481
 C1925 C 0.42072 0.65686 0.94794
 H1926 H 0.40778 0.66490 0.95641
 O1927 O 0.57711 0.39280 0.97892
 O1928 O 0.60207 0.36753 0.97887
 C1929 C 0.58458 0.37524 0.97154
 C1930 C 0.57311 0.36402 0.95388
 C1931 C 0.57995 0.34365 0.94681
 H1932 H 0.59295 0.33562 0.95521
 O1933 O 0.57830 0.52130 0.89265
 O1934 O 0.60356 0.52138 0.86767
 C1935 C 0.58602 0.52874 0.87522
 C1936 C 0.57465 0.54643 0.86393
 C1937 C 0.58210 0.55412 0.84399
 H1938 H 0.59624 0.54690 0.83677
 O1939 O 0.42212 0.47959 0.89279
 O1940 O 0.39702 0.47975 0.86765
 C1941 C 0.41454 0.47234 0.87521
 C1942 C 0.42610 0.45489 0.86372
 C1943 C 0.41915 0.44781 0.84337
 H1944 H 0.40522 0.45528 0.83600
 O1945 O 0.52153 0.60690 0.92222
 O1946 O 0.52161 0.63220 0.89729
 C1947 C 0.52896 0.62443 0.91475
 C1948 C 0.54662 0.63559 0.92630
 C1949 C 0.55439 0.65553 0.91897
 H1950 H 0.54727 0.66282 0.90481
 O1951 O 0.47896 0.39320 0.92126
 O1952 O 0.47894 0.36820 0.89601
 C1953 C 0.47157 0.37573 0.91356
 C1954 C 0.45389 0.36441 0.92492
 C1955 C 0.44626 0.34445 0.91744
 H1956 H 0.45365 0.33704 0.90346
 O1957 O 0.60710 0.57730 0.97982
 O1958 O 0.63236 0.60226 0.98004
 C1959 C 0.62474 0.58476 0.97264
 C1960 C 0.63619 0.57326 0.95514
 C1961 C 0.65666 0.58006 0.94835
 H1962 H 0.66458 0.59310 0.95680
 O1963 O 0.39288 0.42220 0.97844
 O1964 O 0.36766 0.39720 0.97828
 C1965 C 0.37533 0.41474 0.97104
 C1966 C 0.36400 0.42640 0.95356
 C1967 C 0.34386 0.41929 0.94611
 H1968 H 0.33654 0.40522 0.95334
 Cu1969 Cu 0.50006 0.41060 0.90931
 Cu1970 Cu 0.50007 0.38066 0.87894
 Cu1971 Cu 0.50046 0.58982 0.90988
 Cu1972 Cu 0.50049 0.62012 0.87986
 Cu1973 Cu 0.41001 0.50059 0.91014
 Cu1974 Cu 0.37975 0.50083 0.88008
 Cu1975 Cu 0.59024 0.50016 0.90994
 Cu1976 Cu 0.62066 0.50019 0.88005
 C1977 C 0.44375 0.44465 0.87350
 H1978 H 0.44893 0.44973 0.88937
 C1979 C 0.42973 0.43082 0.83271
 C1980 C 0.55679 0.55638 0.87359
 H1981 H 0.55123 0.55082 0.88917
 C1982 C 0.57182 0.57145 0.83361
 C1983 C 0.37377 0.44419 0.94359
 H1984 H 0.38949 0.44948 0.94896
 C1985 C 0.33338 0.42985 0.92899
 C1986 C 0.62626 0.55595 0.94450
 H1987 H 0.61040 0.55074 0.94955
 C1988 C 0.66701 0.57011 0.93081
 C1989 C 0.44384 0.37406 0.94276
 H1990 H 0.44942 0.38959 0.94842
 C1991 C 0.42870 0.33427 0.92747
 C1992 C 0.55646 0.62584 0.94420
 H1993 H 0.55083 0.61026 0.94968
 C1994 C 0.57169 0.66582 0.92938
 C1995 C 0.44392 0.55659 0.87380
 H1996 H 0.44899 0.55148 0.88970
 C1997 C 0.43025 0.57045 0.83290
 C1998 C 0.55652 0.44432 0.87331
 H1999 H 0.55116 0.44962 0.88905
 C2000 C 0.57101 0.42994 0.83293
 C2001 C 0.55583 0.37409 0.94333
 H2002 H 0.55057 0.38987 0.94861
 C2003 C 0.57011 0.33356 0.92905
 C2004 C 0.44463 0.62628 0.94416
 H2005 H 0.44978 0.61041 0.94929
 C2006 C 0.43063 0.66705 0.93029
 C2007 C 0.37432 0.55697 0.94427
 H2008 H 0.39020 0.55181 0.94930
 C2009 C 0.33350 0.57090 0.93064
 C2010 C 0.62599 0.44369 0.94382
 H2011 H 0.61017 0.44897 0.94896
 C2012 C 0.66660 0.42942 0.92993
 O2013 O 0.52044 0.42148 1.10759
 O2014 O 0.52035 0.39627 1.13263
 C2015 C 0.52775 0.41381 1.12511
 C2016 C 0.54534 0.42519 1.13651
 C2017 C 0.55244 0.41812 1.15680
 H2018 H 0.54438 0.40475 1.16459
 O2019 O 0.47898 0.57712 1.10815
 O2020 O 0.47895 0.60202 1.13350
 C2021 C 0.47157 0.58458 1.12570
 C2022 C 0.45388 0.57310 1.13683
 C2023 C 0.44668 0.57996 1.15715
 H2024 H 0.45476 0.59319 1.16515
 O2025 O 0.39278 0.52075 1.07771
 O2026 O 0.36741 0.52069 1.10258
 C2027 C 0.37517 0.52807 1.08513
 C2028 C 0.36399 0.54575 1.07364
 C2029 C 0.34360 0.55281 1.08040
 H2030 H 0.33552 0.54441 1.09337
 O2031 O 0.60673 0.47820 1.07852
 O2032 O 0.63196 0.47800 1.10352
 C2033 C 0.62428 0.47078 1.08597
 C2034 C 0.63556 0.45329 1.07427
 C2035 C 0.65579 0.44591 1.08121
 H2036 H 0.66323 0.45321 1.09520
 O2037 O 0.57713 0.39266 1.02097
 O2038 O 0.60211 0.36740 1.02092
 C2039 C 0.58460 0.37505 1.02826
 C2040 C 0.57304 0.36364 1.04575
 C2041 C 0.57995 0.34326 1.05273
 H2042 H 0.59329 0.33544 1.04465
 O2043 O 0.42302 0.60751 1.02178
 O2044 O 0.39809 0.63281 1.02181
 C2045 C 0.41552 0.62504 1.02920
 C2046 C 0.42690 0.63617 1.04698
 C2047 C 0.41970 0.65626 1.05448
 H2048 H 0.40632 0.66414 1.04652
 O2049 O 0.42206 0.47868 1.10735
 O2050 O 0.39686 0.47862 1.13238
 C2051 C 0.41444 0.47132 1.12485
 C2052 C 0.42590 0.45377 1.13624
 C2053 C 0.41903 0.44680 1.15663
 H2054 H 0.40577 0.45497 1.16451
 O2055 O 0.57728 0.51999 1.10838
 O2056 O 0.60234 0.51982 1.13356
 C2057 C 0.58481 0.52718 1.12600
 C2058 C 0.57326 0.54462 1.13748
 C2059 C 0.57999 0.55139 1.15800
 H2060 H 0.59319 0.54315 1.16589
 O2061 O 0.47836 0.39236 1.07785
 O2062 O 0.47819 0.36704 1.10277
 C2063 C 0.47093 0.37480 1.08527
 C2064 C 0.45341 0.36356 1.07358
 C2065 C 0.44593 0.34341 1.08062
 H2066 H 0.45313 0.33603 1.09469
 O2067 O 0.52128 0.60652 1.07908
 O2068 O 0.52137 0.63157 1.10429
 C2069 C 0.52871 0.62398 1.08673
 C2070 C 0.54629 0.63529 1.07524
 C2071 C 0.55375 0.65539 1.08245
 H2072 H 0.54648 0.66269 1.09654
 O2073 O 0.39298 0.42204 1.02048
 O2074 O 0.36776 0.39705 1.02035
 C2075 C 0.37542 0.41452 1.02778
 C2076 C 0.36410 0.42600 1.04539
 C2077 C 0.34382 0.41899 1.05257
 H2078 H 0.33621 0.40528 1.04492
 O2079 O 0.60673 0.57705 1.02183
 O2080 O 0.63198 0.60203 1.02203
 C2081 C 0.62428 0.58449 1.02925
 C2082 C 0.63554 0.57289 1.04682
 C2083 C 0.65591 0.57970 1.05387
 H2084 H 0.66388 0.59281 1.04558
 O2085 O 0.52094 0.57703 1.10859
 O2086 O 0.52098 0.60191 1.13397
 C2087 C 0.52821 0.58438 1.12626
 C2088 C 0.54557 0.57260 1.13763
 C2089 C 0.55254 0.57918 1.15814
 H2090 H 0.54491 0.59282 1.16590
 O2091 O 0.47848 0.42172 1.10748
 O2092 O 0.47832 0.39657 1.13258
 C2093 C 0.47109 0.41417 1.12501
 C2094 C 0.45362 0.42580 1.13635
 C2095 C 0.44650 0.41903 1.15674
 H2096 H 0.45409 0.40533 1.16444
 O2097 O 0.60663 0.52024 1.07876
 O2098 O 0.63186 0.52012 1.10376
 C2099 C 0.62416 0.52758 1.08631
 C2100 C 0.63544 0.54521 1.07483
 C2101 C 0.65567 0.55248 1.08188
 H2102 H 0.66311 0.54501 1.09578
 O2103 O 0.39286 0.47872 1.07756
 O2104 O 0.36751 0.47862 1.10245
 C2105 C 0.37528 0.47134 1.08496
 C2106 C 0.36406 0.45377 1.07334
 C2107 C 0.34378 0.44655 1.08025
 H2108 H 0.33588 0.45452 1.09362
 O2109 O 0.57748 0.60682 1.02180
 O2110 O 0.60260 0.63192 1.02196
 C2111 C 0.58505 0.62432 1.02923
 C2112 C 0.57365 0.63556 1.04694
 C2113 C 0.58066 0.65581 1.05416
 H2114 H 0.59376 0.66378 1.04584
 O2115 O 0.42236 0.39241 1.02029
 O2116 O 0.39728 0.36728 1.02013
 C2117 C 0.41480 0.37484 1.02754
 C2118 C 0.42616 0.36348 1.04518
 C2119 C 0.41913 0.34316 1.05222
 H2120 H 0.40608 0.33525 1.04380
 O2121 O 0.57726 0.47802 1.10802
 O2122 O 0.60234 0.47780 1.13319
 C2123 C 0.58480 0.47055 1.12552
 C2124 C 0.57324 0.45296 1.13673
 C2125 C 0.58013 0.44565 1.15702
 H2126 H 0.59385 0.45319 1.16471
 O2127 O 0.42201 0.52068 1.10750
 O2128 O 0.39679 0.52065 1.13252
 C2129 C 0.41437 0.52797 1.12504
 C2130 C 0.42588 0.54543 1.13654
 C2131 C 0.41886 0.55255 1.15686
 H2132 H 0.40506 0.54498 1.16437
 O2133 O 0.47930 0.60694 1.07901
 O2134 O 0.47929 0.63200 1.10420
 C2135 C 0.47200 0.62449 1.08660
 C2136 C 0.45451 0.63593 1.07507
 C2137 C 0.44705 0.65602 1.08237
 H2138 H 0.45444 0.66344 1.09633
 O2139 O 0.52035 0.39227 1.07782
 O2140 O 0.52027 0.36690 1.10268
 C2141 C 0.52763 0.37465 1.08522
 C2142 C 0.54518 0.36339 1.07358
 C2143 C 0.55234 0.34302 1.08036
 H2144 H 0.54471 0.33528 1.09401
 O2145 O 0.60670 0.42212 1.02103
 O2146 O 0.63180 0.39698 1.02098
 C2147 C 0.62424 0.41452 1.02834
 C2148 C 0.63560 0.42593 1.04596
 C2149 C 0.65598 0.41900 1.05290
 H2150 H 0.66390 0.40595 1.04446
 O2151 O 0.39346 0.57811 1.02158
 O2152 O 0.36840 0.60329 1.02162
 C2153 C 0.37593 0.58569 1.02891
 C2154 C 0.36446 0.57409 1.04632
 C2155 C 0.34422 0.58116 1.05354
 H2156 H 0.33694 0.59521 1.04620
 Cu2157 Cu 0.49941 0.40948 1.09019
 Cu2158 Cu 0.49927 0.37915 1.12017
 Cu2159 Cu 0.50013 0.58941 1.09118
 Cu2160 Cu 0.50016 0.61939 1.12153
 Cu2161 Cu 0.41018 0.40986 0.99938
 Cu2162 Cu 0.37999 0.37977 0.99920
 Cu2163 Cu 0.58943 0.40995 0.99999
 Cu2164 Cu 0.61947 0.37969 0.99993
 Cu2165 Cu 0.41079 0.59034 1.00064
 Cu2166 Cu 0.38081 0.62066 1.00066
 Cu2167 Cu 0.58969 0.58951 1.00076
 Cu2168 Cu 0.61993 0.61955 1.00099
 Cu2169 Cu 0.40995 0.49972 1.09004
 Cu2170 Cu 0.37959 0.49963 1.11998
 Cu2171 Cu 0.58947 0.49913 1.09090
 Cu2172 Cu 0.61967 0.49892 1.12102
 C2173 C 0.55571 0.44274 1.12672
 H2174 H 0.55049 0.44811 1.11095
 C2175 C 0.56981 0.42826 1.16719
 C2176 C 0.44351 0.55570 1.12676
 H2177 H 0.44883 0.55050 1.11097
 C2178 C 0.42918 0.56981 1.16729
 C2179 C 0.37414 0.55631 1.05640
 H2180 H 0.38994 0.55103 1.05120
 C2181 C 0.33357 0.57058 1.07053
 C2182 C 0.62567 0.44326 1.05656
 H2183 H 0.60988 0.44858 1.05138
 C2184 C 0.66622 0.42881 1.07058
 C2185 C 0.55552 0.37347 1.05615
 H2186 H 0.55029 0.38931 1.05102
 C2187 C 0.56971 0.33282 1.07002
 C2188 C 0.44445 0.62625 1.05725
 H2189 H 0.44990 0.61062 1.05173
 C2190 C 0.42964 0.66631 1.07218
 C2191 C 0.44334 0.44330 1.12634
 H2192 H 0.44855 0.44843 1.11049
 C2193 C 0.42922 0.42946 1.16703
 C2194 C 0.55591 0.55519 1.12755
 H2195 H 0.55082 0.55022 1.11161
 C2196 C 0.56972 0.56865 1.16848
 C2197 C 0.44349 0.37340 1.05578
 H2198 H 0.44889 0.38914 1.05053
 C2199 C 0.42884 0.33298 1.07000
 C2200 C 0.55627 0.62557 1.05740
 H2201 H 0.55088 0.60988 1.05201
 C2202 C 0.57089 0.66587 1.07197
 C2203 C 0.37399 0.44352 1.05577
 H2204 H 0.38975 0.44882 1.05052
 C2205 C 0.33353 0.42918 1.06998
 C2206 C 0.62556 0.55546 1.05723
 H2207 H 0.60978 0.55022 1.05196
 C2208 C 0.66612 0.56968 1.07145
 C2209 C 1.10130 1.09965 1.25037
 C2210 C 1.11909 1.09009 1.26049
 C2211 C 1.12707 1.09827 1.27989
 C2212 C 1.11756 1.11645 1.28984
 C2213 C 1.09935 1.12564 1.27965
 C2214 C 1.09142 1.11737 1.26027
 C2215 C 1.09337 1.09142 1.22935
 C2216 C 1.07118 1.08995 1.22513
 C2217 C 1.06379 1.08257 1.20517
 C2218 C 1.07842 1.07651 1.18898
 C2219 C 1.10061 1.07792 1.19324
 C2220 C 1.10799 1.08527 1.21319
 H2221 H 1.14075 1.09009 1.28678
 H2222 H 1.09113 1.13947 1.28620
 H2223 H 1.04660 1.08138 1.20247
 H2224 H 1.11229 1.07374 1.18098
 H2225 H 1.07778 1.12522 1.25275
 H2226 H 1.05952 1.09429 1.23736
 H2227 H 1.12682 1.07613 1.25344
 H2228 H 1.12518 1.08658 1.21581
 C2229 C 1.10352 0.60116 0.74919
 C2230 C 1.12374 0.59461 0.75683
 C2231 C 1.13187 0.60285 0.77615
 C2232 C 1.11980 0.61762 0.78846
 C2233 C 1.09934 0.62383 0.78085
 C2234 C 1.09139 0.61582 0.76138
 C2235 C 1.09520 0.59297 0.72840
 C2236 C 1.08675 0.60728 0.71308
 C2237 C 1.07912 0.59967 0.69332
 C2238 C 1.07947 0.57751 0.68856
 C2239 C 1.08782 0.56319 0.70403
 C2240 C 1.09574 0.57086 0.72368
 H2241 H 1.14777 0.59787 0.78115
 H2242 H 1.08930 0.63475 0.78994
 H2243 H 1.07329 0.61124 0.68165
 H2244 H 1.08801 0.54601 0.70109
 H2245 H 1.07562 0.62090 0.75593
 H2246 H 1.08643 0.62444 0.71625
 H2247 H 1.13349 0.58347 0.74758
 H2248 H 1.10200 0.55950 0.73534
 C2249 C 0.60089 1.09976 0.75082
 C2250 C 0.61863 1.09010 0.76091
 C2251 C 0.62666 1.09821 0.78032
 C2252 C 0.61725 1.11643 0.79030
 C2253 C 0.59908 1.12572 0.78013
 C2254 C 0.59110 1.11752 0.76074
 C2255 C 0.59291 1.09159 0.72978
 C2256 C 0.57071 1.09024 0.72555
 C2257 C 0.56328 1.08289 0.70559
 C2258 C 0.57789 1.07674 0.68942
 C2259 C 0.60008 1.07806 0.69367
 C2260 C 0.60750 1.08538 0.71362
 H2261 H 0.64030 1.08996 0.78719
 H2262 H 0.59093 1.13959 0.78669
 H2263 H 0.54609 1.08177 0.70289
 H2264 H 0.61174 1.07381 0.68141
 H2265 H 0.57749 1.12545 0.75324
 H2266 H 0.55907 1.09464 0.73778
 H2267 H 0.62629 1.07611 0.75384
 H2268 H 0.62469 1.08660 0.71624
 C2269 C 0.59971 0.59870 1.25170
 C2270 C 0.61739 0.58904 1.26189
 C2271 C 0.62536 0.59720 1.28130
 C2272 C 0.61597 0.61547 1.29118
 C2273 C 0.59777 0.62469 1.28098
 C2274 C 0.58985 0.61644 1.26159
 C2275 C 0.59193 0.59061 1.23056
 C2276 C 0.56978 0.58925 1.22611
 C2277 C 0.56256 0.58203 1.20603
 C2278 C 0.57733 0.57603 1.18994
 C2279 C 0.59947 0.57733 1.19443
 C2280 C 0.60668 0.58452 1.21450
 H2281 H 0.63903 0.58900 1.28819
 H2282 H 0.58955 0.63851 1.28754
 H2283 H 0.54539 0.58092 1.20316
 H2284 H 0.61126 0.57320 1.18225
 H2285 H 0.57625 0.62434 1.25403
 H2286 H 0.55802 0.59356 1.23826
 H2287 H 0.62509 0.57505 1.25486
 H2288 H 0.62385 0.58575 1.21729
 C2289 C 0.90006 0.90018 1.25044
 C2290 C 0.88244 0.91001 1.26058
 C2291 C 0.87448 0.90208 1.28008
 C2292 C 0.88382 0.88387 1.29012
 C2293 C 0.90196 0.87447 1.27997
 C2294 C 0.90988 0.88250 1.26048
 C2295 C 0.90783 0.90804 1.22921
 C2296 C 0.92998 0.90929 1.22471
 C2297 C 0.93718 0.91640 1.20458
 C2298 C 0.92239 0.92239 1.18851
 C2299 C 0.90025 0.92112 1.19302
 C2300 C 0.89306 0.91405 1.21314
 H2301 H 0.86087 0.91042 1.28693
 H2302 H 0.91013 0.86068 1.28664
 H2303 H 0.95434 0.91748 1.20167
 H2304 H 0.88845 0.92523 1.18086
 H2305 H 0.92342 0.87447 1.25297
 H2306 H 0.94174 0.90503 1.23686
 H2307 H 0.87479 0.92396 1.25343
 H2308 H 0.87590 0.91288 1.21597
 C2309 C 0.89563 0.39633 0.74759
 C2310 C 0.87759 0.40578 0.75735
 C2311 C 0.86953 0.39782 0.77681
 C2312 C 0.87924 0.38000 0.78720
 C2313 C 0.89750 0.37071 0.77720
 C2314 C 0.90551 0.37876 0.75776
 C2315 C 0.90400 0.40468 0.72677
 C2316 C 0.92628 0.40637 0.72313
 C2317 C 0.93411 0.41411 0.70347
 C2318 C 0.91984 0.42033 0.68703
 C2319 C 0.89757 0.41863 0.69068
 C2320 C 0.88974 0.41090 0.71032
 H2321 H 0.85561 0.40585 0.78337
 H2322 H 0.90589 0.35715 0.78408
 H2323 H 0.95135 0.41550 0.70124
 H2324 H 0.88618 0.42292 0.67819
 H2325 H 0.91932 0.37096 0.75049
 H2326 H 0.93766 0.40199 0.73560
 H2327 H 0.86978 0.41956 0.75004
 H2328 H 0.87251 0.40944 0.71249
 C2329 C 0.39951 0.89965 0.75016
 C2330 C 0.38485 0.91166 0.76246
 C2331 C 0.37713 0.90367 0.78204
 C2332 C 0.38363 0.88330 0.78963
 C2333 C 0.39849 0.87141 0.77727
 C2334 C 0.40644 0.87956 0.75785
 C2335 C 0.40719 0.90781 0.72910
 C2336 C 0.42917 0.90726 0.72387
 C2337 C 0.43632 0.91468 0.70384
 C2338 C 0.42159 0.92252 0.68848
 C2339 C 0.39956 0.92298 0.69380
 C2340 C 0.39247 0.91585 0.71394
 H2341 H 0.36610 0.91356 0.79119
 H2342 H 0.40371 0.85557 0.78224
 H2343 H 0.45342 0.91446 0.70048
 H2344 H 0.38770 0.92846 0.68226
 H2345 H 0.41758 0.86990 0.74852
 H2346 H 0.44084 0.90132 0.73540
 H2347 H 0.37948 0.92733 0.75697
 H2348 H 0.37540 0.91615 0.71750
 C2349 C 0.39877 0.39938 1.25005
 C2350 C 0.38110 0.40916 1.26014
 C2351 C 0.37317 0.40126 1.27967
 C2352 C 0.38262 0.38314 1.28978
 C2353 C 0.40072 0.37372 1.27961
 C2354 C 0.40861 0.38171 1.26010
 C2355 C 0.40666 0.40734 1.22890
 C2356 C 0.42884 0.40869 1.22459
 C2357 C 0.43617 0.41592 1.20455
 C2358 C 0.42149 0.42193 1.18839
 C2359 C 0.39932 0.42059 1.19273
 C2360 C 0.39199 0.41340 1.21275
 H2361 H 0.35958 0.40961 1.28654
 H2362 H 0.40888 0.35991 1.28627
 H2363 H 0.45335 0.41705 1.20179
 H2364 H 0.38761 0.42474 1.18049
 H2365 H 0.42216 0.37370 1.25260
 H2366 H 0.44052 0.40440 1.23681
 H2367 H 0.37342 0.42309 1.25297
 H2368 H 0.37481 0.41218 1.21545
 C2369 C 0.90111 1.10070 0.74949
 C2370 C 0.88343 1.09071 0.73963
 C2371 C 0.87523 1.09845 0.72014
 C2372 C 0.88444 1.11657 0.70981
 C2373 C 0.90264 1.12610 0.71968
 C2374 C 0.91075 1.11832 0.73918
 C2375 C 0.90916 1.09309 0.77070
 C2376 C 0.91516 1.10797 0.78668
 C2377 C 0.92230 1.10090 0.80683
 C2378 C 0.92362 1.07878 0.81145
 C2379 C 0.91774 1.06389 0.79543
 C2380 C 0.91058 1.07096 0.77528
 H2381 H 0.86147 1.09012 0.71359
 H2382 H 0.91082 1.13973 0.71271
 H2383 H 0.92636 1.11277 0.81895
 H2384 H 0.91889 1.04674 0.79841
 H2385 H 0.92468 1.12612 0.74620
 H2386 H 0.91390 1.12512 0.78377
 H2387 H 0.87554 1.07716 0.74727
 H2388 H 0.90635 1.05912 0.76319
 C2389 C 0.90151 0.59918 0.24858
 C2390 C 0.88134 0.59232 0.24109
 C2391 C 0.87307 0.60020 0.22170
 C2392 C 0.88492 0.61494 0.20914
 C2393 C 0.90541 0.62132 0.21650
 C2394 C 0.91352 0.61367 0.23607
 C2395 C 0.90970 0.59167 0.26969
 C2396 C 0.91775 0.60651 0.28472
 C2397 C 0.92470 0.59961 0.30499
 C2398 C 0.92405 0.57765 0.31057
 C2399 C 0.91627 0.56278 0.29531
 C2400 C 0.90903 0.56975 0.27516
 H2401 H 0.85715 0.59506 0.21693
 H2402 H 0.91529 0.63224 0.20721
 H2403 H 0.93016 0.61158 0.31644
 H2404 H 0.91592 0.54572 0.29887
 H2405 H 0.92925 0.61898 0.24141
 H2406 H 0.91816 0.62355 0.28098
 H2407 H 0.87168 0.58132 0.25058
 H2408 H 0.90307 0.55798 0.26373
 C2409 C 0.40090 1.09959 0.24910
 C2410 C 0.41299 1.11388 0.23647
 C2411 C 0.40491 1.12144 0.21686
 C2412 C 0.38434 1.11518 0.20958
 C2413 C 0.37238 1.10067 0.22230
 C2414 C 0.38064 1.09286 0.24173
 C2415 C 0.40915 1.09208 0.27017
 C2416 C 0.40856 1.07015 0.27559
 C2417 C 0.41595 1.06316 0.29568
 C2418 C 0.42376 1.07801 0.31094
 C2419 C 0.42432 1.09999 0.30541
 C2420 C 0.41725 1.10692 0.28519
 H2421 H 0.41489 1.13217 0.20746
 H2422 H 0.35642 1.09562 0.21761
 H2423 H 0.41567 1.04608 0.29919
 H2424 H 0.42980 1.11195 0.31685
 H2425 H 0.37093 1.08200 0.25133
 H2426 H 0.40258 1.05840 0.26417
 H2427 H 0.42878 1.11909 0.24172
 H2428 H 0.41761 1.12396 0.28146
 C2429 C 0.39977 0.60014 0.74976
 C2430 C 0.41188 0.61451 0.73723
 C2431 C 0.40382 0.62221 0.71766
 C2432 C 0.38326 0.61601 0.71032
 C2433 C 0.37126 0.60146 0.72296
 C2434 C 0.37950 0.59351 0.74235
 C2435 C 0.40802 0.59244 0.77077
 C2436 C 0.40733 0.57047 0.77605
 C2437 C 0.41480 0.56330 0.79605
 C2438 C 0.42280 0.57799 0.81136
 C2439 C 0.42342 0.60001 0.80598
 C2440 C 0.41627 0.60712 0.78585
 H2441 H 0.41382 0.63298 0.70834
 H2442 H 0.35529 0.59646 0.71823
 H2443 H 0.41445 0.54620 0.79944
 H2444 H 0.42904 0.61186 0.81747
 H2445 H 0.36976 0.58260 0.75186
 H2446 H 0.40122 0.55883 0.76458
 H2447 H 0.42769 0.61965 0.74252
 H2448 H 0.41670 0.62419 0.78225
 C2449 C 1.09932 0.90170 0.74870
 C2450 C 1.08718 0.88717 0.73637
 C2451 C 1.09513 0.87932 0.71682
 C2452 C 1.11560 0.88556 0.70928
 C2453 C 1.12757 0.90038 0.72162
 C2454 C 1.11945 0.90845 0.74101
 C2455 C 1.09130 0.90932 0.76983
 C2456 C 1.09196 0.93127 0.77518
 C2457 C 1.08471 0.93834 0.79531
 C2458 C 1.07695 0.92355 0.81064
 C2459 C 1.07640 0.90154 0.80520
 C2460 C 1.08335 0.89454 0.78497
 H2461 H 1.08516 0.86836 0.70768
 H2462 H 1.14348 0.90542 0.71671
 H2463 H 1.08501 0.95543 0.79877
 H2464 H 1.07099 0.88962 0.81672
 H2465 H 1.12920 0.91950 0.75035
 H2466 H 1.09787 0.94299 0.76368
 H2467 H 1.07147 0.88194 0.74186
 H2468 H 1.08297 0.87749 0.78131
 C2469 C 1.10034 0.40157 0.24855
 C2470 C 1.08803 0.38731 0.23607
 C2471 C 1.09593 0.37950 0.21648
 C2472 C 1.11652 0.38548 0.20907
 C2473 C 1.12870 0.39998 0.22160
 C2474 C 1.12062 0.40803 0.24102
 C2475 C 1.09229 0.40924 0.26964
 C2476 C 1.09312 0.43118 0.27501
 C2477 C 1.08574 0.43831 0.29507
 C2478 C 1.07770 0.42359 0.31032
 C2479 C 1.07702 0.40159 0.30487
 C2480 C 1.08407 0.39453 0.28470
 H2481 H 1.08581 0.36880 0.20722
 H2482 H 1.14469 0.40482 0.21679
 H2483 H 1.08616 0.45540 0.29852
 H2484 H 1.07140 0.38971 0.31634
 H2485 H 1.13050 0.41886 0.25048
 H2486 H 1.09923 0.44284 0.26356
 H2487 H 1.07221 0.38230 0.24145
 H2488 H 1.08357 0.37748 0.28103
 C2489 C 0.59956 0.90153 0.24863
 C2490 C 0.58960 0.88391 0.23863
 C2491 C 0.59749 0.87573 0.21918
 C2492 C 0.61573 0.88491 0.20905
 C2493 C 0.62521 0.90308 0.21904
 C2494 C 0.61728 0.91116 0.23849
 C2495 C 0.59184 0.90952 0.26983
 C2496 C 0.60664 0.91539 0.28592
 C2497 C 0.59949 0.92252 0.30603
 C2498 C 0.57736 0.92397 0.31053
 C2499 C 0.56253 0.91817 0.29442
 C2500 C 0.56970 0.91101 0.27429
 H2501 H 0.58918 0.86202 0.21252
 H2502 H 0.63893 0.91123 0.21222
 H2503 H 0.61131 0.92649 0.31823
 H2504 H 0.54538 0.91940 0.29730
 H2505 H 0.62506 0.92505 0.24562
 H2506 H 0.62380 0.91405 0.28311
 H2507 H 0.57596 0.87604 0.24613
 H2508 H 0.55791 0.90686 0.26212
 C2509 C 0.60215 0.39858 0.75062
 C2510 C 0.59236 0.38084 0.74067
 C2511 C 0.60020 0.37279 0.72116
 C2512 C 0.61824 0.38221 0.71090
 C2513 C 0.62775 0.40031 0.72099
 C2514 C 0.61982 0.40832 0.74049
 C2515 C 0.59410 0.40670 0.77165
 C2516 C 0.59270 0.42894 0.77572
 C2517 C 0.58520 0.43650 0.79557
 C2518 C 0.57894 0.42199 0.81179
 C2519 C 0.58040 0.39976 0.80773
 C2520 C 0.58788 0.39221 0.78789
 H2521 H 0.59197 0.35902 0.71452
 H2522 H 0.64140 0.40856 0.71412
 H2523 H 0.58400 0.45371 0.79814
 H2524 H 0.57608 0.38818 0.82003
 H2525 H 0.62782 0.42195 0.74787
 H2526 H 0.59711 0.44050 0.76342
 H2527 H 0.57848 0.37318 0.74793
 H2528 H 0.58914 0.37500 0.78539
 C2529 C 1.24927 1.10061 1.10202
 C2530 C 1.25951 1.09078 1.11958
 C2531 C 1.27907 1.09870 1.12741
 C2532 C 1.28911 1.11682 1.11789
 C2533 C 1.27874 1.12634 1.09995
 C2534 C 1.25917 1.11838 1.09223
 C2535 C 1.22818 1.09258 1.09410
 C2536 C 1.21192 1.10714 1.08811
 C2537 C 1.19203 1.09967 1.08074
 C2538 C 1.18794 1.07746 1.07915
 C2539 C 1.20418 1.06289 1.08518
 C2540 C 1.22409 1.07036 1.09258
 H2541 H 1.28589 1.09053 1.14114
 H2542 H 1.28548 1.13997 1.09155
 H2543 H 1.17971 1.11131 1.07661
 H2544 H 1.20160 1.04569 1.08387
 H2545 H 1.25185 1.12608 1.07838
 H2546 H 1.21445 1.12434 1.08947
 H2547 H 1.25215 1.07716 1.12763
 H2548 H 1.23640 1.05876 1.09682
 C2549 C 1.24893 0.60099 0.60196
 C2550 C 1.25913 0.59116 0.61954
 C2551 C 1.27860 0.59917 0.62749
 C2552 C 1.28859 0.61737 0.61808
 C2553 C 1.27826 0.62689 0.60011
 C2554 C 1.25878 0.61884 0.59226
 C2555 C 1.22792 0.59287 0.59392
 C2556 C 1.21161 0.60736 0.58791
 C2557 C 1.19177 0.59981 0.58048
 C2558 C 1.18779 0.57759 0.57884
 C2559 C 1.20409 0.56308 0.58486
 C2560 C 1.22394 0.57064 0.59233
 H2561 H 1.28540 0.59099 0.64123
 H2562 H 1.28496 0.64058 0.59180
 H2563 H 1.17941 0.61139 0.57635
 H2564 H 1.20160 0.54587 0.58352
 H2565 H 1.25148 0.62654 0.57841
 H2566 H 1.21405 0.62457 0.58932
 H2567 H 1.25180 0.57748 0.62751
 H2568 H 1.23630 0.55908 0.59658
 C2569 C 0.74776 1.10187 0.60413
 C2570 C 0.75555 1.09522 0.62428
 C2571 C 0.77493 1.10341 0.63230
 C2572 C 0.78715 1.11822 0.62019
 C2573 C 0.77937 1.12454 0.59982
 C2574 C 0.75984 1.11659 0.59198
 C2575 C 0.72694 1.09368 0.59589
 C2576 C 0.71155 1.10800 0.58761
 C2577 C 0.69179 1.10038 0.58003
 C2578 C 0.68710 1.07820 0.58027
 C2579 C 0.70265 1.06388 0.58847
 C2580 C 0.72229 1.07156 0.59634
 H2581 H 0.78005 1.09834 0.64814
 H2582 H 0.78837 1.13550 0.58974
 H2583 H 0.68006 1.11195 0.57432
 H2584 H 0.69977 1.04668 0.58856
 H2585 H 0.75427 1.12175 0.57626
 H2586 H 0.71467 1.12516 0.58736
 H2587 H 0.74639 1.08404 0.63404
 H2588 H 0.73402 1.06019 0.60247
 C2589 C 0.74871 0.60042 1.10213
 C2590 C 0.75675 0.59346 1.12207
 C2591 C 0.77620 0.60155 1.12999
 C2592 C 0.78823 0.61660 1.11800
 C2593 C 0.78025 0.62320 1.09780
 C2594 C 0.76065 0.61532 1.09005
 C2595 C 0.72772 0.59247 1.09412
 C2596 C 0.71232 0.60700 1.08621
 C2597 C 0.69234 0.59962 1.07898
 C2598 C 0.68742 0.57750 1.07920
 C2599 C 0.70298 0.56296 1.08700
 C2600 C 0.72285 0.57040 1.09452
 H2601 H 0.78150 0.59627 1.14572
 H2602 H 0.78914 0.63437 1.08784
 H2603 H 0.68062 0.61134 1.07356
 H2604 H 0.69991 0.54580 1.08707
 H2605 H 0.75490 0.62073 1.07448
 H2606 H 0.71559 0.62413 1.08602
 H2607 H 0.74771 0.58214 1.13178
 H2608 H 0.73457 0.55887 1.10036
 C2609 C 1.24710 0.89548 0.89564
 C2610 C 1.25707 0.87775 0.90544
 C2611 C 1.27653 0.86965 0.89751
 C2612 C 1.28676 0.87909 0.87945
 C2613 C 1.27649 0.89699 0.86976
 C2614 C 1.25703 0.90499 0.87773
 C2615 C 1.22638 0.90402 0.90402
 C2616 C 1.21008 0.91061 0.88975
 C2617 C 1.19058 0.91865 0.89759
 C2618 C 1.18692 0.92030 0.91988
 C2619 C 1.20322 0.91372 0.93416
 C2620 C 1.22272 0.90567 0.92631
 H2621 H 1.28326 0.85595 0.90580
 H2622 H 1.28321 0.90516 0.85598
 H2623 H 1.17820 0.92322 0.88618
 H2624 H 1.20098 0.91507 0.95141
 H2625 H 1.24988 0.91889 0.86998
 H2626 H 1.21226 0.90921 0.87249
 H2627 H 1.24966 0.86988 0.91913
 H2628 H 1.23509 0.90103 0.93771
 C2629 C 1.24785 0.39667 0.39681
 C2630 C 1.25764 0.37860 0.40617
 C2631 C 1.27710 0.37063 0.39819
 C2632 C 1.28751 0.38047 0.38044
 C2633 C 1.27749 0.39877 0.37125
 C2634 C 1.25803 0.40669 0.37932
 C2635 C 1.22701 0.40493 0.40516
 C2636 C 1.22331 0.42720 0.40702
 C2637 C 1.20363 0.43493 0.41474
 C2638 C 1.18720 0.42058 0.42077
 C2639 C 1.19092 0.39832 0.41894
 C2640 C 1.21059 0.39059 0.41124
 H2641 H 1.28370 0.35670 0.40619
 H2642 H 1.28436 0.40723 0.35772
 H2643 H 1.20134 0.45216 0.41625
 H2644 H 1.17845 0.38686 0.42310
 H2645 H 1.25075 0.42053 0.37158
 H2646 H 1.23575 0.43865 0.40277
 H2647 H 1.25032 0.37069 0.41990
 H2648 H 1.21282 0.37336 0.40966
 C2649 C 0.74778 0.89726 0.39672
 C2650 C 0.75996 0.88246 0.40868
 C2651 C 0.77945 0.87458 0.40064
 C2652 C 0.78708 0.88105 0.38026
 C2653 C 0.77473 0.89590 0.36833
 C2654 C 0.75540 0.90402 0.37654
 C2655 C 0.72705 0.90546 0.40518
 C2656 C 0.72242 0.92758 0.40479
 C2657 C 0.70281 0.93528 0.41274
 C2658 C 0.68726 0.92098 0.42095
 C2659 C 0.69196 0.89880 0.42121
 C2660 C 0.71169 0.89115 0.41356
 H2661 H 0.78855 0.86356 0.41058
 H2662 H 0.77972 0.90109 0.35248
 H2663 H 0.69995 0.95248 0.41265
 H2664 H 0.68024 0.88725 0.42696
 H2665 H 0.74616 0.91525 0.36692
 H2666 H 0.73412 0.93894 0.39862
 H2667 H 0.75452 0.87721 0.42441
 H2668 H 0.71480 0.87398 0.41377
 C2669 C 0.74923 0.39864 0.89919
 C2670 C 0.75921 0.38077 0.90872
 C2671 C 0.77864 0.37279 0.90067
 C2672 C 0.78879 0.38240 0.88265
 C2673 C 0.77873 0.40068 0.87347
 C2674 C 0.75930 0.40861 0.88161
 C2675 C 0.72819 0.40660 0.90735
 C2676 C 0.72405 0.42880 0.90897
 C2677 C 0.70412 0.43622 0.91639
 C2678 C 0.68789 0.42160 0.92232
 C2679 C 0.69206 0.39940 0.92072
 C2680 C 0.71197 0.39199 0.91334
 H2681 H 0.78529 0.35890 0.90870
 H2682 H 0.78554 0.40909 0.85988
 H2683 H 0.70149 0.45341 0.91772
 H2684 H 0.67976 0.38773 0.92480
 H2685 H 0.75192 0.42236 0.87381
 H2686 H 0.73632 0.44045 0.90476
 H2687 H 0.75200 0.37293 0.92255
 H2688 H 0.71453 0.37480 0.91191
 C2689 C 0.75170 0.89758 1.10250
 C2690 C 0.74410 0.90436 1.12268
 C2691 C 0.72477 0.89629 1.13090
 C2692 C 0.71240 0.88146 1.11898
 C2693 C 0.72000 0.87496 1.09860
 C2694 C 0.73949 0.88280 1.09055
 C2695 C 0.77245 0.90572 1.09404
 C2696 C 0.78775 0.89138 1.08561
 C2697 C 0.80752 0.89896 1.07800
 C2698 C 0.81230 0.92111 1.07836
 C2699 C 0.79681 0.93546 1.08662
 C2700 C 0.77717 0.92782 1.09452
 H2701 H 0.71979 0.90149 1.14676
 H2702 H 0.71087 0.86395 1.08868
 H2703 H 0.81919 0.88738 1.07220
 H2704 H 0.79976 0.95264 1.08680
 H2705 H 0.74491 0.87753 1.07482
 H2706 H 0.78458 0.87422 1.08533
 H2707 H 0.75338 0.91557 1.13230
 H2708 H 0.76551 0.93922 1.10074
 C2709 C 0.75197 0.39659 0.60176
 C2710 C 0.73977 0.40886 0.61629
 C2711 C 0.72023 0.40104 0.62425
 C2712 C 0.71257 0.38056 0.61815
 C2713 C 0.72494 0.36833 0.60355
 C2714 C 0.74431 0.37633 0.59534
 C2715 C 0.77278 0.40480 0.59355
 C2716 C 0.77746 0.40423 0.57143
 C2717 C 0.79710 0.41209 0.56373
 C2718 C 0.81262 0.42039 0.57803
 C2719 C 0.80789 0.42072 0.60022
 C2720 C 0.78813 0.41318 0.60785
 H2721 H 0.71114 0.41122 0.63505
 H2722 H 0.71995 0.35240 0.59864
 H2723 H 0.80001 0.41190 0.54653
 H2724 H 0.81959 0.42651 0.61178
 H2725 H 0.75358 0.36648 0.58431
 H2726 H 0.76577 0.39801 0.56008
 H2727 H 0.74525 0.42465 0.62128
 H2728 H 0.78498 0.41352 0.62502
 C2729 C 0.25079 0.89867 0.60073
 C2730 C 0.24304 0.90576 0.62075
 C2731 C 0.22370 0.89773 0.62900
 C2732 C 0.21150 0.88261 0.61729
 C2733 C 0.21920 0.87584 0.59703
 C2734 C 0.23869 0.88367 0.58894
 C2735 C 0.27164 0.90663 0.59235
 C2736 C 0.28696 0.89213 0.58422
 C2737 C 0.30687 0.89953 0.57682
 C2738 C 0.31180 0.92165 0.57711
 C2739 C 0.29629 0.93616 0.58503
 C2740 C 0.27649 0.92871 0.59271
 H2741 H 0.21863 0.90312 0.64476
 H2742 H 0.21017 0.86460 0.58728
 H2743 H 0.31855 0.88784 0.57127
 H2744 H 0.29936 0.95333 0.58514
 H2745 H 0.24421 0.87815 0.57333
 H2746 H 0.28369 0.87499 0.58404
 H2747 H 0.25222 0.91715 0.63026
 H2748 H 0.26483 0.94023 0.59870
 C2749 C 0.25102 0.39836 1.10086
 C2750 C 0.24082 0.38082 1.09094
 C2751 C 0.22126 0.37295 1.09882
 C2752 C 0.21119 0.38240 1.11697
 C2753 C 0.22152 0.40030 1.12658
 C2754 C 0.24108 0.40807 1.11866
 C2755 C 0.27209 0.40633 1.09286
 C2756 C 0.28833 0.41232 1.10746
 C2757 C 0.30821 0.41973 1.10003
 C2758 C 0.31234 0.42134 1.07782
 C2759 C 0.29613 0.41533 1.06320
 C2760 C 0.27622 0.40790 1.07064
 H2761 H 0.21430 0.35944 1.09042
 H2762 H 0.21491 0.40844 1.14044
 H2763 H 0.32051 0.42386 1.11169
 H2764 H 0.29874 0.41666 1.04600
 H2765 H 0.24840 0.42185 1.12646
 H2766 H 0.28578 0.41093 1.12467
 H2767 H 0.24817 0.37288 1.07726
 H2768 H 0.26393 0.40367 1.05901
 C2769 C 0.75241 1.10396 0.89699
 C2770 C 0.74213 1.12146 0.90689
 C2771 C 0.72264 1.12938 0.89888
 C2772 C 0.71269 1.12001 0.88062
 C2773 C 0.72319 1.10225 0.87092
 C2774 C 0.74269 1.09442 0.87897
 C2775 C 0.77330 1.09577 0.90531
 C2776 C 0.78972 1.08964 0.89098
 C2777 C 0.80938 1.08194 0.89874
 C2778 C 0.81310 1.08017 0.92101
 C2779 C 0.79671 1.08635 0.93536
 C2780 C 0.77703 1.09406 0.92760
 H2781 H 0.71564 1.14287 0.90729
 H2782 H 0.71670 1.09417 0.85698
 H2783 H 0.82183 1.07770 0.88728
 H2784 H 0.79900 1.08491 0.95260
 H2785 H 0.75009 1.08069 0.87115
 H2786 H 0.78749 1.09113 0.87374
 H2787 H 0.74934 1.12931 0.92071
 H2788 H 0.76459 1.09838 0.93904
 C2789 C 0.75213 0.60338 0.39772
 C2790 C 0.74454 0.59651 0.37756
 C2791 C 0.72519 0.60451 0.36931
 C2792 C 0.71278 0.61936 0.38117
 C2793 C 0.72038 0.62596 0.40152
 C2794 C 0.73989 0.61819 0.40960
 C2795 C 0.77288 0.59529 0.40621
 C2796 C 0.78820 0.60966 0.41456
 C2797 C 0.80799 0.60210 0.42214
 C2798 C 0.81278 0.57994 0.42184
 C2799 C 0.79725 0.56557 0.41372
 C2800 C 0.77759 0.57318 0.40585
 H2801 H 0.72022 0.59924 0.35348
 H2802 H 0.71122 0.63699 0.41140
 H2803 H 0.81969 0.61370 0.42785
 H2804 H 0.80020 0.54838 0.41362
 H2805 H 0.74530 0.62354 0.42531
 H2806 H 0.78502 0.62681 0.41477
 H2807 H 0.75383 0.58527 0.36799
 H2808 H 0.76592 0.56176 0.39971
 C2809 C 0.25263 1.10454 0.39663
 C2810 C 0.24292 1.09492 0.37866
 C2811 C 0.22341 1.10269 0.37058
 C2812 C 0.21289 1.12048 0.38022
 C2813 C 0.22283 1.12994 0.39843
 C2814 C 0.24234 1.12207 0.40647
 C2815 C 0.27352 1.09639 0.40498
 C2816 C 0.27724 1.09474 0.42727
 C2817 C 0.29690 1.08702 0.43507
 C2818 C 0.31328 1.08077 0.42074
 C2819 C 0.30959 1.08250 0.39846
 C2820 C 0.28994 1.09021 0.39068
 H2821 H 0.21692 1.09455 0.35668
 H2822 H 0.21582 1.14346 0.40679
 H2823 H 0.29918 1.08561 0.45231
 H2824 H 0.32203 1.07819 0.38702
 H2825 H 0.24955 1.12998 0.42025
 H2826 H 0.26480 1.09911 0.43870
 H2827 H 0.25032 1.08116 0.37089
 H2828 H 0.28772 1.09164 0.37343
 C2829 C 0.25005 0.60056 0.90104
 C2830 C 0.23988 0.59053 0.88356
 C2831 C 0.22030 0.59828 0.87564
 C2832 C 0.21021 0.61650 0.88489
 C2833 C 0.22038 0.62611 0.90291
 C2834 C 0.23996 0.61825 0.91080
 C2835 C 0.27134 0.59285 0.90875
 C2836 C 0.27594 0.59163 0.93089
 C2837 C 0.29608 0.58449 0.93803
 C2838 C 0.31207 0.57846 0.92316
 C2839 C 0.30747 0.57977 0.90102
 C2840 C 0.28735 0.58685 0.89390
 H2841 H 0.21346 0.58979 0.86212
 H2842 H 0.21366 0.63992 0.91102
 H2843 H 0.29904 0.58340 0.95519
 H2844 H 0.31957 0.57564 0.88916
 H2845 H 0.24748 0.62642 0.92426
 H2846 H 0.26384 0.59590 0.94272
 H2847 H 0.24707 0.57656 0.87596
 H2848 H 0.28444 0.58800 0.87673
 C2849 C 1.10278 1.24806 1.10313
 C2850 C 1.09628 1.25589 1.12331
 C2851 C 1.10434 1.27539 1.13115
 C2852 C 1.11887 1.28773 1.11882
 C2853 C 1.12509 1.27989 1.09843
 C2854 C 1.11727 1.26022 1.09078
 C2855 C 1.09467 1.22715 1.09508
 C2856 C 1.10901 1.21177 1.08682
 C2857 C 1.10145 1.19190 1.07945
 C2858 C 1.07930 1.18709 1.07986
 C2859 C 1.06496 1.20264 1.08803
 C2860 C 1.07258 1.22239 1.09570
 H2861 H 1.09936 1.28052 1.14702
 H2862 H 1.13585 1.28895 1.08819
 H2863 H 1.11303 1.18018 1.07376
 H2864 H 1.04778 1.19968 1.08825
 H2865 H 1.12232 1.25461 1.07504
 H2866 H 1.12615 1.21498 1.08644
 H2867 H 1.08529 1.24666 1.13323
 H2868 H 1.06120 1.23411 1.10182
 C2869 C 1.10388 0.74648 0.60516
 C2870 C 1.09740 0.75425 0.62537
 C2871 C 1.10552 0.77370 0.63329
 C2872 C 1.12010 0.78603 0.62101
 C2873 C 1.12636 0.77820 0.60063
 C2874 C 1.11847 0.75860 0.59290
 C2875 C 1.09555 0.72572 0.59691
 C2876 C 1.10971 0.71033 0.58836
 C2877 C 1.10192 0.69067 0.58066
 C2878 C 1.07972 0.68610 0.58103
 C2879 C 1.06556 0.70165 0.58951
 C2880 C 1.07342 0.72118 0.59751
 H2881 H 1.10052 0.77884 0.64915
 H2882 H 1.13716 0.78726 0.59043
 H2883 H 1.11336 0.67894 0.57472
 H2884 H 1.04836 0.69886 0.58973
 H2885 H 1.12352 0.75304 0.57714
 H2886 H 1.12688 0.71336 0.58798
 H2887 H 1.08632 0.74505 0.63523
 H2888 H 1.06216 0.73291 0.60384
 C2889 C 0.59979 1.24972 0.60095
 C2890 C 0.59324 1.25739 0.62116
 C2891 C 0.60124 1.27686 0.62913
 C2892 C 0.61578 1.28931 0.61692
 C2893 C 0.62188 1.28172 0.59640
 C2894 C 0.61412 1.26207 0.58861
 C2895 C 0.59210 1.22861 0.59298
 C2896 C 0.60678 1.21343 0.58493
 C2897 C 0.59967 1.19327 0.57794
 C2898 C 0.57765 1.18794 0.57852
 C2899 C 0.56296 1.20331 0.58639
 C2900 C 0.57013 1.22336 0.59371
 H2901 H 0.59631 1.28180 0.64508
 H2902 H 0.63262 1.29088 0.58624
 H2903 H 0.61153 1.18172 0.57245
 H2904 H 0.54586 1.19995 0.58671
 H2905 H 0.61920 1.25658 0.57284
 H2906 H 0.62384 1.21702 0.58450
 H2907 H 0.58235 1.24802 0.63106
 H2908 H 0.55849 1.23490 0.59968
 C2909 C 0.60230 0.74787 1.10366
 C2910 C 0.59562 0.75563 1.12382
 C2911 C 0.60368 0.77506 1.13183
 C2912 C 0.61841 0.78737 1.11972
 C2913 C 0.62479 0.77962 1.09936
 C2914 C 0.61696 0.76003 1.09152
 C2915 C 0.59421 0.72701 1.09542
 C2916 C 0.60857 0.71170 1.08705
 C2917 C 0.60104 0.69188 1.07954
 C2918 C 0.57890 0.68704 1.07993
 C2919 C 0.56453 0.70252 1.08818
 C2920 C 0.57213 0.72223 1.09598
 H2921 H 0.59858 0.78016 1.14768
 H2922 H 0.63570 0.78869 1.08930
 H2923 H 0.61263 0.68020 1.07377
 H2924 H 0.54736 0.69953 1.08838
 H2925 H 0.62215 0.75449 1.07580
 H2926 H 0.62571 0.71492 1.08672
 H2927 H 0.58449 0.74640 1.13358
 H2928 H 0.56072 0.73389 1.10216
 C2929 C 0.89844 1.24932 0.89907
 C2930 C 0.87820 1.25680 0.90572
 C2931 C 0.86986 1.27603 0.89751
 C2932 C 0.88172 1.28843 0.88265
 C2933 C 0.90222 1.28101 0.87636
 C2934 C 0.91039 1.26160 0.88434
 C2935 C 0.90688 1.22853 0.90713
 C2936 C 0.91521 1.21326 0.89270
 C2937 C 0.92270 1.19340 0.90018
 C2938 C 0.92235 1.18850 0.92232
 C2939 C 0.91421 1.20397 0.93677
 C2940 C 0.90641 1.22371 0.92923
 H2941 H 0.85393 1.28085 0.90257
 H2942 H 0.91212 1.29016 0.86536
 H2943 H 0.92839 1.18174 0.88852
 H2944 H 0.91404 1.20094 0.95394
 H2945 H 0.92617 1.25627 0.87917
 H2946 H 0.91547 1.21651 0.87555
 H2947 H 0.86858 1.24747 0.91690
 H2948 H 0.90025 1.23534 0.94068
 C2949 C 0.89800 0.74822 0.39708
 C2950 C 0.90465 0.75579 0.37685
 C2951 C 0.89645 0.77507 0.36861
 C2952 C 0.88161 0.78741 0.38055
 C2953 C 0.87525 0.77985 0.40099
 C2954 C 0.88323 0.76041 0.40907
 C2955 C 0.90622 0.72750 0.40554
 C2956 C 0.89194 0.71217 0.41402
 C2957 C 0.89960 0.69244 0.42167
 C2958 C 0.92176 0.68772 0.42132
 C2959 C 0.93604 0.70323 0.41300
 C2960 C 0.92833 0.72284 0.40505
 H2961 H 0.90154 0.78002 0.35271
 H2962 H 0.86425 0.78896 0.41094
 H2963 H 0.88806 0.68074 0.42750
 H2964 H 0.95323 0.70033 0.41282
 H2965 H 0.87805 0.75501 0.42484
 H2966 H 0.87479 0.71529 0.41430
 H2967 H 0.91586 0.74653 0.36721
 H2968 H 0.93967 0.73452 0.39879
 C2969 C 0.39927 1.24967 0.39898
 C2970 C 0.40586 1.25721 0.37873
 C2971 C 0.39769 1.27651 0.37051
 C2972 C 0.38294 1.28891 0.38251
 C2973 C 0.37672 1.28143 0.40302
 C2974 C 0.38466 1.26196 0.41107
 C2975 C 0.40727 1.22881 0.40730
 C2976 C 0.39282 1.21356 0.41562
 C2977 C 0.40024 1.19364 0.42300
 C2978 C 0.42234 1.18863 0.42253
 C2979 C 0.43680 1.20407 0.41438
 C2980 C 0.42932 1.22387 0.40669
 H2981 H 0.40269 1.28138 0.35457
 H2982 H 0.36580 1.29059 0.41301
 H2983 H 0.38857 1.18202 0.42870
 H2984 H 0.45395 1.20095 0.41412
 H2985 H 0.37953 1.25658 0.42686
 H2986 H 0.37571 1.21690 0.41598
 H2987 H 0.41695 1.24788 0.36901
 H2988 H 0.44079 1.23548 0.40052
 C2989 C 0.40015 0.74989 0.89982
 C2990 C 0.40695 0.75765 0.87972
 C2991 C 0.39881 0.77701 0.87160
 C2992 C 0.38387 0.78923 0.88353
 C2993 C 0.37746 0.78155 0.90391
 C2994 C 0.38539 0.76204 0.91186
 C2995 C 0.40806 0.72891 0.90795
 C2996 C 0.39352 0.71364 0.91608
 C2997 C 0.40082 0.69359 0.92323
 C2998 C 0.42290 0.68847 0.92271
 C2999 C 0.43745 0.70391 0.91475
 C3000 C 0.43008 0.72385 0.90731
 H3001 H 0.40396 0.78204 0.85574
 H3002 H 0.36637 0.79059 0.91383
 H3003 H 0.38909 0.68197 0.92879
 H3004 H 0.45458 0.70069 0.91445
 H3005 H 0.38010 0.75649 0.92754
 H3006 H 0.37642 0.71704 0.91645
 H3007 H 0.41816 0.74844 0.87002
 H3008 H 0.44162 0.73546 0.90128
 C3009 C 1.10228 0.75177 0.89753
 C3010 C 1.09048 0.73937 0.88279
 C3011 C 1.09869 0.71987 0.87512
 C3012 C 1.11909 0.71245 0.88174
 C3013 C 1.13085 0.72500 0.89655
 C3014 C 1.12246 0.74435 0.90446
 C3015 C 1.09366 0.77254 0.90548
 C3016 C 1.09385 0.77734 0.92757
 C3017 C 1.08586 0.79702 0.93504
 C3018 C 1.07780 0.81247 0.92053
 C3019 C 1.07766 0.80757 0.89838
 C3020 C 1.08535 0.78776 0.89097
 H3021 H 1.08886 0.71061 0.86414
 H3022 H 1.14670 0.72017 0.90185
 H3023 H 1.08583 0.80003 0.95222
 H3024 H 1.07200 0.81920 0.88669
 H3025 H 1.13196 0.75377 0.91566
 H3026 H 1.09995 0.76573 0.93909
 H3027 H 1.07475 0.74466 0.87741
 H3028 H 1.08527 0.78450 0.87382
 C3029 C 1.10095 0.25135 0.39728
 C3030 C 1.11546 0.23915 0.40957
 C3031 C 1.12343 0.21960 0.40175
 C3032 C 1.11732 0.21193 0.38128
 C3033 C 1.10266 0.22423 0.36907
 C3034 C 1.09447 0.24362 0.37705
 C3035 C 1.09292 0.27230 0.40536
 C3036 C 1.07089 0.27727 0.40456
 C3037 C 1.06339 0.29711 0.41215
 C3038 C 1.07781 0.31252 0.42041
 C3039 C 1.09991 0.30749 0.42102
 C3040 C 1.10734 0.28755 0.41373
 H3041 H 1.13428 0.21051 0.41189
 H3042 H 1.09776 0.21920 0.35314
 H3043 H 1.04625 0.30026 0.41177
 H3044 H 1.11155 0.31910 0.42680
 H3045 H 1.08345 0.25288 0.36718
 H3046 H 1.05944 0.26567 0.39834
 H3047 H 1.12050 0.24467 0.42534
 H3048 H 1.12445 0.28418 0.41423
 C3049 C 0.60203 0.75237 0.39674
 C3050 C 0.61671 0.74021 0.40887
 C3051 C 0.62461 0.72067 0.40098
 C3052 C 0.61827 0.71295 0.38059
 C3053 C 0.60351 0.72524 0.36851
 C3054 C 0.59538 0.74464 0.37657
 C3055 C 0.59391 0.77321 0.40501
 C3056 C 0.57183 0.77798 0.40445
 C3057 C 0.56421 0.79767 0.41230
 C3058 C 0.57856 0.81314 0.42058
 C3059 C 0.60070 0.80831 0.42097
 C3060 C 0.60826 0.78851 0.41341
 H3061 H 0.63555 0.71159 0.41103
 H3062 H 0.59843 0.72016 0.35265
 H3063 H 0.54704 0.80066 0.41209
 H3064 H 0.61229 0.81997 0.42677
 H3065 H 0.58423 0.75386 0.36682
 H3066 H 0.56043 0.76633 0.39824
 H3067 H 0.62187 0.74572 0.42460
 H3068 H 0.62540 0.78529 0.41375
 C3069 C 0.60108 0.25111 0.89805
 C3070 C 0.61564 0.23890 0.91026
 C3071 C 0.62357 0.21935 0.90240
 C3072 C 0.61737 0.21170 0.88194
 C3073 C 0.60266 0.22403 0.86981
 C3074 C 0.59451 0.24341 0.87784
 C3075 C 0.59307 0.27205 0.90619
 C3076 C 0.57102 0.27699 0.90549
 C3077 C 0.56353 0.29683 0.91309
 C3078 C 0.57798 0.31227 0.92126
 C3079 C 0.60008 0.30726 0.92179
 C3080 C 0.60751 0.28731 0.91449
 H3081 H 0.63446 0.21026 0.91248
 H3082 H 0.59769 0.21902 0.85389
 H3083 H 0.54639 0.29996 0.91278
 H3084 H 0.61174 0.31889 0.92750
 H3085 H 0.58345 0.25268 0.86803
 H3086 H 0.55956 0.26538 0.89934
 H3087 H 0.62075 0.24441 0.92602
 H3088 H 0.62462 0.28397 0.91491
 C3089 C 0.89566 0.75263 1.10309
 C3090 C 0.90235 0.74510 1.12332
 C3091 C 0.89429 0.72577 1.13156
 C3092 C 0.87957 0.71330 1.11960
 C3093 C 0.87307 0.72090 1.09921
 C3094 C 0.88090 0.74040 1.09114
 C3095 C 0.90400 0.77325 1.09449
 C3096 C 0.88982 0.78865 1.08596
 C3097 C 0.89763 0.80826 1.07815
 C3098 C 0.91984 0.81278 1.07841
 C3099 C 0.93400 0.79717 1.08676
 C3100 C 0.92615 0.77769 1.09486
 H3101 H 0.89946 0.72082 1.14743
 H3102 H 0.86214 0.71174 1.08924
 H3103 H 0.88618 0.82003 1.07229
 H3104 H 0.95122 0.79990 1.08686
 H3105 H 0.87569 0.74577 1.07538
 H3106 H 0.87264 0.78567 1.08573
 H3107 H 0.91355 0.75440 1.13294
 H3108 H 0.93741 0.76594 1.10115
 C3109 C 0.89727 0.25159 0.60211
 C3110 C 0.88248 0.23930 0.59025
 C3111 C 0.87460 0.21988 0.59845
 C3112 C 0.88106 0.21244 0.61891
 C3113 C 0.89589 0.22490 0.63074
 C3114 C 0.90400 0.24415 0.62236
 C3115 C 0.90547 0.27225 0.59350
 C3116 C 0.92757 0.27692 0.59399
 C3117 C 0.93526 0.29653 0.58604
 C3118 C 0.92097 0.31203 0.57771
 C3119 C 0.89882 0.30728 0.57730
 C3120 C 0.89118 0.28755 0.58496
 H3121 H 0.86358 0.21069 0.58860
 H3122 H 0.90105 0.22005 0.64665
 H3123 H 0.95245 0.29945 0.58625
 H3124 H 0.88728 0.31896 0.57144
 H3125 H 0.91521 0.25349 0.63193
 H3126 H 0.93892 0.26527 0.60029
 H3127 H 0.87724 0.24460 0.57446
 H3128 H 0.87403 0.28441 0.58467
 C3129 C 0.39660 0.75167 0.60186
 C3130 C 0.38207 0.73926 0.58981
 C3131 C 0.37426 0.71977 0.59790
 C3132 C 0.38052 0.71236 0.61844
 C3133 C 0.39508 0.72495 0.63046
 C3134 C 0.40314 0.74428 0.62219
 C3135 C 0.40476 0.77238 0.59333
 C3136 C 0.42684 0.77710 0.59388
 C3137 C 0.43451 0.79673 0.58595
 C3138 C 0.42020 0.81221 0.57759
 C3139 C 0.39806 0.80740 0.57712
 C3140 C 0.39045 0.78764 0.58475
 H3141 H 0.36346 0.71050 0.58788
 H3142 H 0.40010 0.72016 0.64643
 H3143 H 0.45169 0.79967 0.58619
 H3144 H 0.38651 0.81906 0.57125
 H3145 H 0.41416 0.75371 0.63188
 H3146 H 0.43820 0.76547 0.60021
 H3147 H 0.37698 0.74453 0.57396
 H3148 H 0.37331 0.78445 0.58440
 C3149 C 0.39728 0.25105 1.10168
 C3150 C 0.40380 0.24358 1.12198
 C3151 C 0.39576 0.22420 1.13014
 C3152 C 0.38124 0.21165 1.11803
 C3153 C 0.37498 0.21915 1.09753
 C3154 C 0.38278 0.23869 1.08955
 C3155 C 0.40541 0.27183 1.09328
 C3156 C 0.39109 0.28710 1.08477
 C3157 C 0.39866 0.30692 1.07728
 C3158 C 0.42079 0.31178 1.07782
 C3159 C 0.43512 0.29629 1.08612
 C3160 C 0.42748 0.27660 1.09392
 H3161 H 0.40077 0.21934 1.14609
 H3162 H 0.36421 0.20990 1.08746
 H3163 H 0.38709 0.31858 1.07144
 H3164 H 0.45229 0.29928 1.08643
 H3165 H 0.37770 0.24403 1.07372
 H3166 H 0.37395 0.28387 1.08436
 H3167 H 0.41479 0.25297 1.13174
 H3168 H 0.43886 0.26496 1.10021
 C3169 C 1.10315 1.10408 0.75204
 C3170 C 1.12067 1.09415 0.74183
 C3171 C 1.12869 1.10213 0.72236
 C3172 C 1.11941 1.12041 0.71236
 C3173 C 1.10164 1.13016 0.72279
 C3174 C 1.09371 1.12213 0.74227
 C3175 C 1.09487 1.09577 0.77290
 C3176 C 1.08873 1.11008 0.78934
 C3177 C 1.08107 1.10231 0.80903
 C3178 C 1.07935 1.08004 0.81273
 C3179 C 1.08547 1.06572 0.79629
 C3180 C 1.09314 1.07350 0.77659
 H3181 H 1.14219 1.09369 0.71543
 H3182 H 1.09363 1.14411 0.71625
 H3183 H 1.07685 1.11375 0.82151
 H3184 H 1.08405 1.04848 0.79857
 H3185 H 1.07997 1.12998 0.74962
 H3186 H 1.09022 1.12732 0.78713
 H3187 H 1.12846 1.08033 0.74908
 H3188 H 1.09745 1.06207 0.76413
 C3189 C 1.10375 0.60417 0.25185
 C3190 C 1.12131 0.59430 0.24165
 C3191 C 1.12931 0.60231 0.22219
 C3192 C 1.11998 0.62056 0.21219
 C3193 C 1.10216 0.63024 0.22261
 C3194 C 1.09425 0.62218 0.24208
 C3195 C 1.09548 0.59582 0.27270
 C3196 C 1.08929 0.61011 0.28914
 C3197 C 1.08163 0.60230 0.30882
 C3198 C 1.07997 0.58002 0.31250
 C3199 C 1.08617 0.56573 0.29607
 C3200 C 1.09384 0.57354 0.27639
 H3201 H 1.14285 0.59393 0.21528
 H3202 H 1.09410 0.64416 0.21605
 H3203 H 1.07735 0.61372 0.32129
 H3204 H 1.08480 0.54849 0.29834
 H3205 H 1.08047 0.62998 0.24941
 H3206 H 1.09072 0.62735 0.28694
 H3207 H 1.12914 0.58051 0.24891
 H3208 H 1.09820 0.56213 0.26393
 C3209 C 0.60341 1.10405 0.25206
 C3210 C 0.62097 1.09413 0.24191
 C3211 C 0.62899 1.10207 0.22243
 C3212 C 0.61967 1.12029 0.21236
 C3213 C 0.60185 1.13002 0.22273
 C3214 C 0.59392 1.12203 0.24222
 C3215 C 0.59511 1.09578 0.27293
 C3216 C 0.58892 1.11012 0.28932
 C3217 C 0.58124 1.10239 0.30901
 C3218 C 0.57954 1.08013 0.31276
 C3219 C 0.58572 1.06577 0.29637
 C3220 C 0.59342 1.07351 0.27667
 H3221 H 0.64253 1.09366 0.21554
 H3222 H 0.59380 1.14392 0.21613
 H3223 H 0.57697 1.11385 0.32145
 H3224 H 0.58432 1.04854 0.29869
 H3225 H 0.58015 1.12986 0.24952
 H3226 H 0.59038 1.12736 0.28706
 H3227 H 0.62879 1.08036 0.24922
 H3228 H 0.59777 1.06206 0.26424
 C3229 C 0.60450 0.60386 0.75235
 C3230 C 0.62474 0.59733 0.74473
 C3231 C 0.63281 0.60546 0.72534
 C3232 C 0.62067 0.62008 0.71292
 C3233 C 0.60026 0.62637 0.72059
 C3234 C 0.59237 0.61848 0.74014
 C3235 C 0.59609 0.59553 0.77305
 C3236 C 0.58753 0.60972 0.78843
 C3237 C 0.57976 0.60193 0.80807
 C3238 C 0.58007 0.57973 0.81264
 C3239 C 0.58851 0.56554 0.79708
 C3240 C 0.59658 0.57339 0.77758
 H3241 H 0.64869 0.60042 0.72032
 H3242 H 0.59016 0.63721 0.71146
 H3243 H 0.57384 0.61339 0.81981
 H3244 H 0.58867 0.54833 0.79986
 H3245 H 0.57659 0.62356 0.74558
 H3246 H 0.58722 0.62689 0.78540
 H3247 H 0.63449 0.58622 0.75400
 H3248 H 0.60290 0.56212 0.76585
 C3249 C 0.90161 0.90236 0.74803
 C3250 C 0.88705 0.91431 0.73555
 C3251 C 0.87935 0.90615 0.71603
 C3252 C 0.88574 0.88564 0.70869
 C3253 C 0.90057 0.87385 0.72121
 C3254 C 0.90850 0.88219 0.74055
 C3255 C 0.90912 0.91059 0.76912
 C3256 C 0.93105 0.91000 0.77454
 C3257 C 0.93802 0.91725 0.79470
 C3258 C 0.92315 0.92494 0.81000
 C3259 C 0.90118 0.92551 0.80446
 C3260 C 0.89427 0.91856 0.78419
 H3261 H 0.86837 0.91598 0.70676
 H3262 H 0.90573 0.85793 0.71646
 H3263 H 0.95508 0.91696 0.79822
 H3264 H 0.88920 0.93088 0.81594
 H3265 H 0.91956 0.87257 0.75002
 H3266 H 0.94282 0.90410 0.76309
 H3267 H 0.88171 0.93004 0.74088
 H3268 H 0.87724 0.91889 0.78047
 C3269 C 0.89891 0.40029 0.24946
 C3270 C 0.88104 0.40970 0.23938
 C3271 C 0.87309 0.40146 0.22001
 C3272 C 0.88271 0.38336 0.21003
 C3273 C 0.90102 0.37431 0.22017
 C3274 C 0.90893 0.38264 0.23954
 C3275 C 0.90681 0.40859 0.27047
 C3276 C 0.92899 0.41029 0.27464
 C3277 C 0.93634 0.41776 0.29458
 C3278 C 0.92168 0.42367 0.31079
 C3279 C 0.89950 0.42205 0.30658
 C3280 C 0.89216 0.41461 0.28665
 H3281 H 0.85921 0.40943 0.21326
 H3282 H 0.90944 0.36067 0.21349
 H3283 H 0.95352 0.41911 0.29724
 H3284 H 0.88781 0.42612 0.31887
 H3285 H 0.92267 0.37493 0.24700
 H3286 H 0.94066 0.40606 0.26238
 H3287 H 0.87318 0.42357 0.24647
 H3288 H 0.87498 0.41313 0.28406
 C3289 C 0.39887 0.89976 0.25009
 C3290 C 0.40874 0.88208 0.24011
 C3291 C 0.40088 0.87396 0.22064
 C3292 C 0.38270 0.88323 0.21048
 C3293 C 0.37319 0.90137 0.22052
 C3294 C 0.38116 0.90944 0.23998
 C3295 C 0.40679 0.90780 0.27119
 C3296 C 0.40810 0.93002 0.27540
 C3297 C 0.41543 0.93748 0.29536
 C3298 C 0.42159 0.92288 0.31155
 C3299 C 0.42021 0.90068 0.30735
 C3300 C 0.41292 0.89323 0.28741
 H3301 H 0.40930 0.86036 0.21388
 H3302 H 0.35935 0.90942 0.21380
 H3303 H 0.41658 0.95468 0.29802
 H3304 H 0.42443 0.88903 0.31962
 H3305 H 0.37308 0.92302 0.24738
 H3306 H 0.40375 0.94163 0.26313
 H3307 H 0.42271 0.87452 0.24732
 H3308 H 0.41171 0.87603 0.28480
 C3309 C 0.39930 0.40078 0.74969
 C3310 C 0.37920 0.40753 0.74190
 C3311 C 0.37115 0.39939 0.72251
 C3312 C 0.38315 0.38451 0.71027
 C3313 C 0.40355 0.37821 0.71795
 C3314 C 0.41143 0.38612 0.73750
 C3315 C 0.40734 0.40858 0.77074
 C3316 C 0.41542 0.39395 0.78596
 C3317 C 0.42256 0.40114 0.80605
 C3318 C 0.42210 0.42320 0.81127
 C3319 C 0.41415 0.43785 0.79588
 C3320 C 0.40671 0.43058 0.77590
 H3321 H 0.35529 0.40447 0.71746
 H3322 H 0.41353 0.36718 0.70890
 H3323 H 0.42810 0.38934 0.81763
 H3324 H 0.41389 0.45497 0.79918
 H3325 H 0.42712 0.38088 0.74306
 H3326 H 0.41577 0.37686 0.78247
 H3327 H 0.36945 0.41867 0.75113
 H3328 H 0.40071 0.44219 0.76433
 C3329 C 1.10086 0.89736 1.24924
 C3330 C 1.09139 0.87949 1.25926
 C3331 C 1.09941 0.87162 1.27877
 C3332 C 1.11732 0.88136 1.28895
 C3333 C 1.12653 0.89956 1.27878
 C3334 C 1.11842 0.90738 1.25928
 C3335 C 1.09265 0.90534 1.22823
 C3336 C 1.09103 0.92755 1.22414
 C3337 C 1.08361 0.93501 1.20422
 C3338 C 1.07765 0.92043 1.18796
 C3339 C 1.07920 0.89822 1.19208
 C3340 C 1.08661 0.89077 1.21198
 H3341 H 1.09143 0.85773 1.28547
 H3342 H 1.14005 0.90806 1.28559
 H3343 H 1.08230 0.95221 1.20162
 H3344 H 1.07507 0.88659 1.17975
 H3345 H 1.12621 0.92110 1.25185
 H3346 H 1.09527 0.93918 1.23643
 H3347 H 1.07760 0.87159 1.25205
 H3348 H 1.08802 0.87357 1.21451
 C3349 C 1.10089 0.39771 0.74947
 C3350 C 1.09131 0.37993 0.75957
 C3351 C 1.09931 0.37208 0.77909
 C3352 C 1.11731 0.38172 0.78921
 C3353 C 1.12663 0.39983 0.77895
 C3354 C 1.11854 0.40763 0.75944
 C3355 C 1.09268 0.40568 0.72844
 C3356 C 1.09120 0.42788 0.72428
 C3357 C 1.08375 0.43533 0.70437
 C3358 C 1.07763 0.42073 0.68818
 C3359 C 1.07905 0.39853 0.69237
 C3360 C 1.08649 0.39109 0.71227
 H3361 H 1.09124 0.35827 0.78586
 H3362 H 1.14023 0.40824 0.78571
 H3363 H 1.08255 0.45253 0.70172
 H3364 H 1.07481 0.38688 0.68009
 H3365 H 1.12640 0.42128 0.75195
 H3366 H 1.09556 0.43952 0.73653
 H3367 H 1.07746 0.37211 0.75242
 H3368 H 1.08779 0.37389 0.71485
 C3369 C 0.59813 0.90031 0.75119
 C3370 C 0.61829 0.90725 0.75863
 C3371 C 0.62667 0.89935 0.77797
 C3372 C 0.61494 0.88451 0.79052
 C3373 C 0.59445 0.87804 0.78320
 C3374 C 0.58625 0.88572 0.76368
 C3375 C 0.58982 0.90785 0.73014
 C3376 C 0.58184 0.89303 0.71505
 C3377 C 0.57485 0.89998 0.69481
 C3378 C 0.57538 0.92197 0.68932
 C3379 C 0.58304 0.93682 0.70466
 C3380 C 0.59034 0.92981 0.72478
 H3381 H 0.64257 0.90456 0.78270
 H3382 H 0.58467 0.86705 0.79248
 H3383 H 0.56947 0.88803 0.68330
 H3384 H 0.58328 0.95390 0.70119
 H3385 H 0.57053 0.88033 0.75837
 H3386 H 0.58156 0.87598 0.71872
 H3387 H 0.62785 0.91834 0.74915
 H3388 H 0.59623 0.94156 0.73626
 C3389 C 0.60104 0.39724 1.24957
 C3390 C 0.61865 0.40724 1.25955
 C3391 C 0.62683 0.39941 1.27901
 C3392 C 0.61765 0.38121 1.28921
 C3393 C 0.59969 0.37148 1.27909
 C3394 C 0.59160 0.37936 1.25962
 C3395 C 0.59274 0.40524 1.22860
 C3396 C 0.58662 0.39068 1.21237
 C3397 C 0.57910 0.39815 1.19252
 C3398 C 0.57751 0.42035 1.18843
 C3399 C 0.58355 0.43493 1.20467
 C3400 C 0.59109 0.42745 1.22454
 H3401 H 0.64039 0.40789 1.28578
 H3402 H 0.59174 0.35759 1.28581
 H3403 H 0.57493 0.38652 1.18020
 H3404 H 0.58222 0.45213 1.20210
 H3405 H 0.57778 0.37148 1.25246
 H3406 H 0.58805 0.37347 1.21488
 H3407 H 0.62641 0.42097 1.25210
 H3408 H 0.59538 0.43906 1.23683
 C3409 C 0.90095 1.09773 1.25163
 C3410 C 0.88078 1.09103 1.25928
 C3411 C 0.87272 1.09900 1.27873
 C3412 C 0.88479 1.11367 1.29117
 C3413 C 0.90529 1.11983 1.28367
 C3414 C 0.91318 1.11209 1.26406
 C3415 C 0.90890 1.09026 1.23042
 C3416 C 0.91692 1.10512 1.21540
 C3417 C 0.92381 1.09826 1.19511
 C3418 C 0.92314 1.07631 1.18947
 C3419 C 0.91531 1.06142 1.20468
 C3420 C 0.90811 1.06835 1.22488
 H3421 H 0.85679 1.09402 1.28363
 H3422 H 0.91532 1.13067 1.29289
 H3423 H 0.92927 1.11025 1.18369
 H3424 H 0.91492 1.04437 1.20108
 H3425 H 0.92891 1.11728 1.25860
 H3426 H 0.91738 1.12214 1.21921
 H3427 H 0.87096 1.08011 1.24986
 H3428 H 0.90216 1.05657 1.23628
 C3429 C 0.90016 0.59795 0.75124
 C3430 C 0.88003 0.59130 0.75899
 C3431 C 0.87205 0.59936 0.77844
 C3432 C 0.88416 0.61407 0.79078
 C3433 C 0.90462 0.62023 0.78316
 C3434 C 0.91244 0.61240 0.76355
 C3435 C 0.90805 0.59034 0.73005
 C3436 C 0.91614 0.60509 0.71496
 C3437 C 0.92304 0.59809 0.69472
 C3438 C 0.92232 0.57610 0.68921
 C3439 C 0.91438 0.56134 0.70447
 C3440 C 0.90717 0.56841 0.72462
 H3441 H 0.85614 0.59439 0.78342
 H3442 H 0.91468 0.63111 0.79229
 H3443 H 0.92859 0.60999 0.68325
 H3444 H 0.91393 0.54426 0.70095
 H3445 H 0.92815 0.61755 0.75801
 H3446 H 0.91667 0.62213 0.71867
 H3447 H 0.87017 0.58034 0.74967
 H3448 H 0.90116 0.55671 0.73608
 C3449 C 0.39928 1.09947 0.75055
 C3450 C 0.41149 1.11404 0.76276
 C3451 C 0.40368 1.12189 0.78237
 C3452 C 0.38330 1.11559 0.79008
 C3453 C 0.37122 1.10080 0.77781
 C3454 C 0.37919 1.09274 0.75836
 C3455 C 0.40723 1.09173 0.72943
 C3456 C 0.40647 1.06975 0.72418
 C3457 C 0.41380 1.06255 0.70413
 C3458 C 0.42177 1.07723 0.68879
 C3459 C 0.42236 1.09926 0.69411
 C3460 C 0.41532 1.10640 0.71426
 H3461 H 0.41371 1.13285 0.79145
 H3462 H 0.35536 1.09575 0.78288
 H3463 H 0.41345 1.04545 0.70075
 H3464 H 0.42793 1.11109 0.68257
 H3465 H 0.36938 1.08167 0.74910
 H3466 H 0.40046 1.05812 0.73571
 H3467 H 0.42716 1.11926 0.75717
 H3468 H 0.41577 1.12347 0.71783
 C3469 C 0.39873 0.60059 1.25007
 C3470 C 0.40868 0.61818 1.26014
 C3471 C 0.40083 0.62626 1.27962
 C3472 C 0.38259 0.61705 1.28972
 C3473 C 0.37301 0.59900 1.27960
 C3474 C 0.38096 0.59096 1.26012
 C3475 C 0.40663 0.59259 1.22894
 C3476 C 0.40783 0.57039 1.22465
 C3477 C 0.41515 0.56297 1.20467
 C3478 C 0.42139 0.57760 1.18854
 C3479 C 0.42011 0.59979 1.19283
 C3480 C 0.41284 0.60720 1.21279
 H3481 H 0.40931 0.63977 1.28648
 H3482 H 0.35910 0.59102 1.28625
 H3483 H 0.41621 0.54578 1.20194
 H3484 H 0.42441 0.61147 1.18061
 H3485 H 0.37282 0.57747 1.25264
 H3486 H 0.40341 0.55875 1.23686
 H3487 H 0.42269 0.62569 1.25297
 H3488 H 0.41171 0.62440 1.21547
 C3489 C 1.10009 1.25055 0.90105
 C3490 C 1.09335 1.25793 0.88079
 C3491 C 1.10123 1.27731 0.87248
 C3492 C 1.11584 1.28995 0.88440
 C3493 C 1.12214 1.28265 0.90496
 C3494 C 1.11451 1.26310 0.91309
 C3495 C 1.09246 1.22956 0.90937
 C3496 C 1.10720 1.21445 0.91746
 C3497 C 1.10015 1.19431 0.92459
 C3498 C 1.07814 1.18894 0.92409
 C3499 C 1.06338 1.20429 0.91629
 C3500 C 1.07050 1.22431 0.90885
 H3501 H 1.09614 1.28201 0.85652
 H3502 H 1.13295 1.29198 0.91491
 H3503 H 1.11204 1.18279 0.93006
 H3504 H 1.04628 1.20092 0.91606
 H3505 H 1.11974 1.25783 0.92888
 H3506 H 1.12426 1.21805 0.91777
 H3507 H 1.08239 1.24841 0.87112
 H3508 H 1.05881 1.23580 0.90287
 C3509 C 1.10011 0.75016 0.40067
 C3510 C 1.09345 0.75754 0.38038
 C3511 C 1.10142 0.77687 0.37207
 C3512 C 1.11604 0.78949 0.38400
 C3513 C 1.12229 0.78219 0.40458
 C3514 C 1.11456 0.76267 0.41272
 C3515 C 1.09237 0.72921 0.40901
 C3516 C 1.10702 0.71409 0.41723
 C3517 C 1.09987 0.69398 0.42438
 C3518 C 1.07784 0.68868 0.42377
 C3519 C 1.06318 0.70404 0.41582
 C3520 C 1.07039 0.72402 0.40836
 H3521 H 1.09638 0.78157 0.35609
 H3522 H 1.13311 0.79150 0.41453
 H3523 H 1.11169 0.68245 0.42995
 H3524 H 1.04607 0.70071 0.41550
 H3525 H 1.11974 0.75741 0.42853
 H3526 H 1.12409 0.71763 0.41762
 H3527 H 1.08249 0.74804 0.37070
 H3528 H 1.05878 0.73552 0.40228
 C3529 C 0.60052 1.24999 0.40086
 C3530 C 0.59377 1.25743 0.38062
 C3531 C 0.60177 1.27676 0.37231
 C3532 C 0.61649 1.28930 0.38419
 C3533 C 0.62283 1.28193 0.40472
 C3534 C 0.61507 1.26242 0.41285
 C3535 C 0.59273 1.22906 0.40919
 C3536 C 0.60736 1.21385 0.41728
 C3537 C 0.60016 1.19376 0.42442
 C3538 C 0.57811 1.18855 0.42393
 C3539 C 0.56347 1.20400 0.41612
 C3540 C 0.57073 1.22396 0.40867
 H3541 H 0.59665 1.28150 0.35636
 H3542 H 0.63374 1.29117 0.41463
 H3543 H 0.61197 1.18215 0.42989
 H3544 H 0.54635 1.20074 0.41589
 H3545 H 0.62032 1.25710 0.42863
 H3546 H 0.62445 1.21732 0.41758
 H3547 H 0.58272 1.24799 0.37097
 H3548 H 0.55913 1.23554 0.40268
 C3549 C 0.60443 0.74681 0.89645
 C3550 C 0.59782 0.75431 0.87618
 C3551 C 0.60592 0.77361 0.86793
 C3552 C 0.62062 0.78608 0.87991
 C3553 C 0.62707 0.77852 0.90033
 C3554 C 0.61919 0.75905 0.90841
 C3555 C 0.59603 0.72623 0.90507
 C3556 C 0.61014 0.71083 0.91371
 C3557 C 0.60227 0.69126 0.92154
 C3558 C 0.58006 0.68677 0.92121
 C3559 C 0.56595 0.70237 0.91274
 C3560 C 0.57387 0.72182 0.90462
 H3561 H 0.60079 0.77853 0.85204
 H3562 H 0.63799 0.78769 0.91030
 H3563 H 0.61368 0.67949 0.92749
 H3564 H 0.54873 0.69967 0.91258
 H3565 H 0.62435 0.75370 0.92420
 H3566 H 0.62733 0.71378 0.91400
 H3567 H 0.58663 0.74500 0.86655
 H3568 H 0.56266 0.73356 0.89825
 C3569 C 0.89707 1.24741 1.10437
 C3570 C 0.87927 1.25728 1.09459
 C3571 C 0.87115 1.27675 1.10243
 C3572 C 0.88056 1.28707 1.12046
 C3573 C 0.89860 1.27698 1.13007
 C3574 C 0.90668 1.25752 1.12213
 C3575 C 0.90545 1.22656 1.09615
 C3576 C 0.92773 1.22278 1.09474
 C3577 C 0.93555 1.20313 1.08697
 C3578 C 0.92126 1.18683 1.08043
 C3579 C 0.89899 1.19060 1.08192
 C3580 C 0.89118 1.21023 1.08967
 H3581 H 0.85751 1.28346 1.09404
 H3582 H 0.90667 1.28375 1.14389
 H3583 H 0.95278 1.20081 1.08576
 H3584 H 0.88757 1.17822 1.07741
 H3585 H 0.92030 1.25017 1.13019
 H3586 H 0.93912 1.23515 1.09934
 H3587 H 0.87170 1.25004 1.08063
 H3588 H 0.87394 1.21250 1.09092
 C3589 C 0.89977 0.74889 0.60228
 C3590 C 0.90666 0.75694 0.62225
 C3591 C 0.89858 0.77643 0.63011
 C3592 C 0.88360 0.78849 0.61805
 C3593 C 0.87706 0.78049 0.59784
 C3594 C 0.88494 0.76086 0.59014
 C3595 C 0.90772 0.72786 0.59432
 C3596 C 0.89323 0.71254 0.58620
 C3597 C 0.90059 0.69255 0.57897
 C3598 C 0.92269 0.68753 0.57941
 C3599 C 0.93719 0.70297 0.58746
 C3600 C 0.92976 0.72287 0.59496
 H3601 H 0.90380 0.78174 0.64585
 H3602 H 0.86595 0.78940 0.58784
 H3603 H 0.88890 0.68091 0.57335
 H3604 H 0.95433 0.69981 0.58771
 H3605 H 0.87959 0.75511 0.57455
 H3606 H 0.87611 0.71590 0.58583
 H3607 H 0.91792 0.74788 0.63202
 H3608 H 0.94127 0.73451 0.60097
 C3609 C 0.39605 1.24705 0.60525
 C3610 C 0.37818 1.25684 0.59551
 C3611 C 0.37009 1.27635 0.60329
 C3612 C 0.37961 1.28680 0.62118
 C3613 C 0.39763 1.27671 0.63083
 C3614 C 0.40568 1.25721 0.62296
 C3615 C 0.40454 1.22627 0.59697
 C3616 C 0.42684 1.22266 0.59548
 C3617 C 0.43478 1.20311 0.58759
 C3618 C 0.42060 1.18675 0.58101
 C3619 C 0.39831 1.19033 0.58258
 C3620 C 0.39037 1.20986 0.59045
 H3621 H 0.35637 1.28298 0.59496
 H3622 H 0.40579 1.28357 0.64455
 H3623 H 0.45204 1.20092 0.58632
 H3624 H 0.38697 1.17789 0.57802
 H3625 H 0.41934 1.24991 0.63100
 H3626 H 0.43816 1.23509 0.60009
 H3627 H 0.37057 1.24954 0.58162
 H3628 H 0.37312 1.21201 0.59175
 C3629 C 0.39730 0.74784 1.10428
 C3630 C 0.37956 0.75777 1.09447
 C3631 C 0.37144 0.77723 1.10234
 C3632 C 0.38081 0.78749 1.12042
 C3633 C 0.39881 0.77735 1.13006
 C3634 C 0.40688 0.75789 1.12210
 C3635 C 0.40566 0.72699 1.09605
 C3636 C 0.42793 0.72316 1.09470
 C3637 C 0.43573 0.70351 1.08694
 C3638 C 0.42143 0.68724 1.08037
 C3639 C 0.39916 0.69105 1.08178
 C3640 C 0.39138 0.71070 1.08951
 H3641 H 0.35784 0.78398 1.09392
 H3642 H 0.40685 0.78406 1.14392
 H3643 H 0.45297 0.70114 1.08579
 H3644 H 0.38773 0.67870 1.07723
 H3645 H 0.42046 0.75050 1.13018
 H3646 H 0.43934 0.73551 1.09934
 H3647 H 0.37202 0.75057 1.08047
 H3648 H 0.37413 0.71301 1.09071
 C3649 C 0.89615 0.75299 0.89529
 C3650 C 0.90268 0.74523 0.87509
 C3651 C 0.89462 0.72576 0.86716
 C3652 C 0.88005 0.71339 0.87941
 C3653 C 0.87375 0.72121 0.89979
 C3654 C 0.88157 0.74083 0.90753
 C3655 C 0.90441 0.77377 0.90356
 C3656 C 0.89020 0.78915 0.91205
 C3657 C 0.89793 0.80883 0.91975
 C3658 C 0.92011 0.81344 0.91944
 C3659 C 0.93433 0.79790 0.91103
 C3660 C 0.92653 0.77835 0.90303
 H3661 H 0.89966 0.72063 0.85130
 H3662 H 0.86296 0.71213 0.90998
 H3663 H 0.88644 0.82055 0.92564
 H3664 H 0.95153 0.80071 0.91087
 H3665 H 0.87649 0.74637 0.92328
 H3666 H 0.87303 0.78607 0.91238
 H3667 H 0.91375 0.75446 0.86525
 H3668 H 0.93783 0.76662 0.89676
 C3669 C 0.89669 0.25277 0.39504
 C3670 C 0.90313 0.24493 0.37485
 C3671 C 0.89500 0.22545 0.36702
 C3672 C 0.88046 0.21316 0.37937
 C3673 C 0.87423 0.22105 0.39973
 C3674 C 0.88212 0.24069 0.40738
 C3675 C 0.90501 0.27357 0.40319
 C3676 C 0.89084 0.28898 0.41171
 C3677 C 0.89861 0.30867 0.41932
 C3678 C 0.92080 0.31328 0.41890
 C3679 C 0.93496 0.29773 0.41043
 C3680 C 0.92713 0.27816 0.40252
 H3681 H 0.89998 0.22027 0.35116
 H3682 H 0.86345 0.21202 0.40997
 H3683 H 0.88715 0.32041 0.42524
 H3684 H 0.95216 0.30055 0.41018
 H3685 H 0.87710 0.24630 0.42313
 H3686 H 0.87367 0.28592 0.41213
 H3687 H 0.91418 0.25411 0.36494
 H3688 H 0.93839 0.26642 0.39622
 C3689 C 0.39677 0.75261 0.39570
 C3690 C 0.40654 0.74241 0.37807
 C3691 C 0.39852 0.72292 0.37015
 C3692 C 0.38039 0.71289 0.37964
 C3693 C 0.37082 0.72331 0.39753
 C3694 C 0.37888 0.74281 0.40535
 C3695 C 0.40510 0.77349 0.40389
 C3696 C 0.39079 0.78988 0.41017
 C3697 C 0.39856 0.80954 0.41787
 C3698 C 0.42082 0.81328 0.41950
 C3699 C 0.43514 0.79693 0.41318
 C3700 C 0.42737 0.77725 0.40546
 H3701 H 0.40675 0.71606 0.35647
 H3702 H 0.35706 0.71669 0.40580
 H3703 H 0.38712 0.82196 0.42223
 H3704 H 0.45237 0.79923 0.41451
 H3705 H 0.37118 0.75013 0.41920
 H3706 H 0.37356 0.78762 0.40880
 H3707 H 0.42024 0.74970 0.37011
 H3708 H 0.43879 0.76484 0.40102
 C3709 C 0.39587 0.25306 0.89505
 C3710 C 0.40555 0.24287 0.87737
 C3711 C 0.39755 0.22334 0.86954
 C3712 C 0.37953 0.21324 0.87918
 C3713 C 0.36996 0.22373 0.89703
 C3714 C 0.37800 0.24327 0.90477
 C3715 C 0.40433 0.27387 0.90329
 C3716 C 0.39015 0.29029 0.90976
 C3717 C 0.39806 0.30985 0.91757
 C3718 C 0.42035 0.31345 0.91912
 C3719 C 0.43455 0.29707 0.91260
 C3720 C 0.42663 0.27750 0.90477
 H3721 H 0.40575 0.21646 0.85585
 H3722 H 0.35624 0.21710 0.90535
 H3723 H 0.38671 0.32230 0.92209
 H3724 H 0.45180 0.29928 0.91386
 H3725 H 0.37035 0.25060 0.91863
 H3726 H 0.37289 0.28813 0.90846
 H3727 H 0.41920 0.25017 0.86934
 H3728 H 0.43796 0.26506 0.90020
 C3729 C 1.10079 0.75042 1.10011
 C3730 C 1.11865 0.74047 1.09053
 C3731 C 1.12672 0.72107 1.09859
 C3732 C 1.11722 0.71093 1.11667
 C3733 C 1.09894 0.72094 1.12590
 C3734 C 1.09091 0.74034 1.11775
 C3735 C 1.09276 0.77144 1.09198
 C3736 C 1.07055 0.77555 1.09043
 C3737 C 1.06308 0.79547 1.08301
 C3738 C 1.07766 0.81171 1.07699
 C3739 C 1.09985 0.80758 1.07853
 C3740 C 1.10731 0.78768 1.08592
 H3741 H 1.14058 0.71443 1.09051
 H3742 H 1.09061 0.71414 1.13954
 H3743 H 1.04589 0.79808 1.08174
 H3744 H 1.11149 0.81989 1.07440
 H3745 H 1.07718 0.74770 1.12559
 H3746 H 1.05894 0.76326 1.09471
 H3747 H 1.12640 0.74767 1.07666
 H3748 H 1.12451 0.78515 1.08730
 C3749 C 1.10047 0.25036 0.60038
 C3750 C 1.11822 0.24030 0.59071
 C3751 C 1.12622 0.22086 0.59874
 C3752 C 1.11678 0.21079 0.61689
 C3753 C 1.09861 0.22092 0.62621
 C3754 C 1.09064 0.24035 0.61808
 C3755 C 1.09251 0.27141 0.59227
 C3756 C 1.07031 0.27563 0.59084
 C3757 C 1.06291 0.29558 0.58345
 C3758 C 1.07753 0.31175 0.57734
 C3759 C 1.09972 0.30750 0.57877
 C3760 C 1.10711 0.28757 0.58613
 H3761 H 1.13999 0.21413 0.59057
 H3762 H 1.09033 0.21419 0.63992
 H3763 H 1.04572 0.29827 0.58226
 H3764 H 1.11139 0.31975 0.57456
 H3765 H 1.07700 0.24780 0.62600
 H3766 H 1.05867 0.26341 0.59518
 H3767 H 1.12592 0.24745 0.57678
 H3768 H 1.12430 0.28495 0.58742
 C3769 C 0.60100 0.75092 0.60040
 C3770 C 0.62106 0.74324 0.59339
 C3771 C 0.62931 0.72389 0.60139
 C3772 C 0.61756 0.71159 0.61641
 C3773 C 0.59725 0.71921 0.62307
 C3774 C 0.58916 0.73871 0.61528
 C3775 C 0.59263 0.77182 0.59254
 C3776 C 0.58447 0.78704 0.60713
 C3777 C 0.57702 0.80698 0.59983
 C3778 C 0.57728 0.81203 0.57772
 C3779 C 0.58526 0.79662 0.56312
 C3780 C 0.59299 0.77679 0.57048
 H3781 H 0.64511 0.71887 0.59607
 H3782 H 0.58746 0.71010 0.63421
 H3783 H 0.57144 0.81859 0.61159
 H3784 H 0.58535 0.79978 0.54597
 H3785 H 0.57352 0.74418 0.62072
 H3786 H 0.58429 0.78368 0.62425
 H3787 H 0.63059 0.75250 0.58209
 H3788 H 0.59901 0.76521 0.55890
 C3789 C 0.60058 0.25008 1.10041
 C3790 C 0.61845 0.24017 1.09082
 C3791 C 0.62649 0.22073 1.09881
 C3792 C 0.61696 0.21052 1.11683
 C3793 C 0.59865 0.22050 1.12606
 C3794 C 0.59065 0.23993 1.11797
 C3795 C 0.59258 0.27116 1.09237
 C3796 C 0.57038 0.27530 1.09083
 C3797 C 0.56294 0.29527 1.08353
 C3798 C 0.57754 0.31152 1.07762
 C3799 C 0.59973 0.30736 1.07915
 C3800 C 0.60716 0.28741 1.08644
 H3801 H 0.64038 0.21412 1.09074
 H3802 H 0.59028 0.21364 1.13964
 H3803 H 0.54575 0.29790 1.08224
 H3804 H 0.61138 0.31968 1.07510
 H3805 H 0.57691 0.24726 1.12582
 H3806 H 0.55875 0.26300 1.09502
 H3807 H 0.62624 0.24743 1.07701
 H3808 H 0.62435 0.28485 1.08781
 C3809 C 1.25008 1.10038 0.90035
 C3810 C 1.26224 1.11519 0.91233
 C3811 C 1.28179 1.12301 0.90435
 C3812 C 1.28948 1.11643 0.88403
 C3813 C 1.27723 1.10146 0.87216
 C3814 C 1.25785 1.09344 0.88030
 C3815 C 1.22910 1.09254 0.90851
 C3816 C 1.22404 1.07051 0.90793
 C3817 C 1.20407 1.06320 0.91530
 C3818 C 1.18860 1.07780 0.92313
 C3819 C 1.19375 1.09987 0.92363
 C3820 C 1.21382 1.10713 0.91654
 H3821 H 1.29084 1.13413 0.91421
 H3822 H 1.28226 1.09620 0.85635
 H3823 H 1.20083 1.04606 0.91504
 H3824 H 1.18211 1.11165 0.92911
 H3825 H 1.24863 1.08220 0.87065
 H3826 H 1.23565 1.05893 0.90198
 H3827 H 1.25669 1.12060 0.92797
 H3828 H 1.21724 1.12423 0.91687
 C3829 C 1.24909 0.60178 0.39897
 C3830 C 1.26135 0.61652 0.41091
 C3831 C 1.28081 0.62440 0.40279
 C3832 C 1.28831 0.61798 0.38234
 C3833 C 1.27590 0.60313 0.37047
 C3834 C 1.25662 0.59503 0.37876
 C3835 C 1.22829 0.59374 0.40738
 C3836 C 1.22347 0.57166 0.40689
 C3837 C 1.20369 0.56413 0.41457
 C3838 C 1.18817 0.57857 0.42260
 C3839 C 1.19308 0.60070 0.42301
 C3840 C 1.21298 0.60817 0.41564
 H3841 H 1.28995 0.63542 0.41268
 H3842 H 1.28078 0.59799 0.35457
 H3843 H 1.20066 0.54696 0.41437
 H3844 H 1.18139 0.61235 0.42864
 H3845 H 1.24731 0.58384 0.36914
 H3846 H 1.23513 0.56020 0.40079
 H3847 H 1.25597 0.62178 0.42666
 H3848 H 1.21623 0.62531 0.41592
 C3849 C 0.74949 1.10076 0.39958
 C3850 C 0.76161 1.11573 0.41141
 C3851 C 0.78113 1.12350 0.40336
 C3852 C 0.78886 1.11672 0.38312
 C3853 C 0.77664 1.10164 0.37138
 C3854 C 0.75727 1.09366 0.37958
 C3855 C 0.72859 1.09286 0.40791
 C3856 C 0.72368 1.07079 0.40751
 C3857 C 0.70383 1.06340 0.41512
 C3858 C 0.68834 1.07795 0.42302
 C3859 C 0.69334 1.10006 0.42335
 C3860 C 0.71330 1.10740 0.41601
 H3861 H 0.79017 1.13472 0.41313
 H3862 H 0.78174 1.09623 0.35563
 H3863 H 0.70070 1.04625 0.41499
 H3864 H 0.68168 1.11178 0.42888
 H3865 H 0.74808 1.08230 0.37005
 H3866 H 0.73531 1.05924 0.40155
 H3867 H 0.75606 1.12126 0.42700
 H3868 H 0.71662 1.12452 0.41621
 C3869 C 0.74954 0.60067 0.89984
 C3870 C 0.75727 0.59359 0.87982
 C3871 C 0.77661 0.60160 0.87156
 C3872 C 0.78883 0.61670 0.88327
 C3873 C 0.78116 0.62345 0.90354
 C3874 C 0.76167 0.61565 0.91164
 C3875 C 0.72866 0.59277 0.90819
 C3876 C 0.71335 0.60733 0.91623
 C3877 C 0.69339 0.59999 0.92355
 C3878 C 0.68840 0.57788 0.92327
 C3879 C 0.70391 0.56332 0.91546
 C3880 C 0.72377 0.57071 0.90786
 H3881 H 0.78165 0.59621 0.85579
 H3882 H 0.79021 0.63468 0.91329
 H3883 H 0.68171 0.61173 0.92903
 H3884 H 0.70080 0.54616 0.91537
 H3885 H 0.75615 0.62116 0.92725
 H3886 H 0.71666 0.62446 0.91639
 H3887 H 0.74807 0.58222 0.87030
 H3888 H 0.73542 0.55915 0.90193
 C3889 C 1.24896 0.89793 1.10128
 C3890 C 1.25641 0.90467 1.12153
 C3891 C 1.27574 0.89666 1.12983
 C3892 C 1.28826 0.88193 1.11793
 C3893 C 1.28084 0.87553 1.09745
 C3894 C 1.26135 0.88330 1.08932
 C3895 C 1.22813 0.90588 1.09284
 C3896 C 1.21294 0.89139 1.08447
 C3897 C 1.19301 0.89878 1.07706
 C3898 C 1.18796 0.92088 1.07755
 C3899 C 1.20338 0.93537 1.08568
 C3900 C 1.22318 0.92793 1.09339
 H3901 H 1.28055 0.90179 1.14575
 H3902 H 1.29008 0.86460 1.08754
 H3903 H 1.18142 0.88709 1.07134
 H3904 H 1.20024 0.95252 1.08593
 H3905 H 1.25603 0.87806 1.07354
 H3906 H 1.21630 0.87428 1.08413
 H3907 H 1.24701 0.91577 1.13116
 H3908 H 1.23475 0.93943 1.09956
 C3909 C 1.24985 0.39908 0.59963
 C3910 C 1.25749 0.40611 0.61971
 C3911 C 1.27688 0.39819 0.62796
 C3912 C 1.28925 0.38324 0.61619
 C3913 C 1.28168 0.37659 0.59585
 C3914 C 1.26214 0.38429 0.58776
 C3915 C 1.22887 0.40682 0.59135
 C3916 C 1.21368 0.39216 0.58328
 C3917 C 1.19359 0.39933 0.57614
 C3918 C 1.18834 0.42138 0.57662
 C3919 C 1.20375 0.43606 0.58442
 C3920 C 1.22374 0.42883 0.59184
 H3921 H 1.28182 0.40351 0.64378
 H3922 H 1.29084 0.36549 0.58605
 H3923 H 1.18200 0.38751 0.57066
 H3924 H 1.20046 0.45318 0.58464
 H3925 H 1.25669 0.37883 0.57210
 H3926 H 1.21717 0.37507 0.58300
 H3927 H 1.24817 0.41733 0.62928
 H3928 H 1.23529 0.44047 0.59779
 C3929 C 0.74734 0.89591 0.60373
 C3930 C 0.75496 0.90252 0.62395
 C3931 C 0.77436 0.89447 0.63204
 C3932 C 0.78680 0.87984 0.61993
 C3933 C 0.77911 0.87341 0.59956
 C3934 C 0.75955 0.88123 0.59164
 C3935 C 0.72665 0.90423 0.59529
 C3936 C 0.71130 0.89007 0.58667
 C3937 C 0.69164 0.89786 0.57898
 C3938 C 0.68701 0.92005 0.57943
 C3939 C 0.70255 0.93422 0.58790
 C3940 C 0.72208 0.92637 0.59588
 H3941 H 0.77939 0.89959 0.64791
 H3942 H 0.78826 0.86254 0.58950
 H3943 H 0.67992 0.88641 0.57302
 H3944 H 0.69973 0.95142 0.58816
 H3945 H 0.75411 0.87607 0.57588
 H3946 H 0.71435 0.87289 0.58628
 H3947 H 0.74568 0.91365 0.63368
 H3948 H 0.73378 0.93764 0.60224
 C3949 C 0.74852 0.39763 1.10172
 C3950 C 0.76076 0.38291 1.08971
 C3951 C 0.78027 0.37505 1.09774
 C3952 C 0.78785 0.38148 1.11815
 C3953 C 0.77546 0.39629 1.13010
 C3954 C 0.75612 0.40437 1.12190
 C3955 C 0.72768 0.40568 1.09339
 C3956 C 0.72282 0.42776 1.09398
 C3957 C 0.70302 0.43530 1.08635
 C3958 C 0.68752 0.42088 1.07826
 C3959 C 0.69246 0.39875 1.07777
 C3960 C 0.71237 0.39127 1.08510
 H3961 H 0.78940 0.36406 1.08780
 H3962 H 0.78039 0.40143 1.14598
 H3963 H 0.69996 0.45246 1.08661
 H3964 H 0.68079 0.38711 1.07210
 H3965 H 0.74683 0.41553 1.13158
 H3966 H 0.73447 0.43920 1.10011
 H3967 H 0.75532 0.37766 1.07398
 H3968 H 0.71565 0.37414 1.08475
 C3969 C 0.75095 1.10175 1.10122
 C3970 C 0.73861 1.08969 1.11580
 C3971 C 0.71910 1.09773 1.12364
 C3972 C 0.71162 1.11822 1.11733
 C3973 C 0.72407 1.13019 1.10261
 C3974 C 0.74342 1.12198 1.09454
 C3975 C 0.77183 1.09342 1.09329
 C3976 C 0.77683 1.09400 1.07124
 C3977 C 0.79664 1.08629 1.06383
 C3978 C 0.81203 1.07814 1.07836
 C3979 C 0.80695 1.07768 1.10046
 C3980 C 0.78702 1.08508 1.10781
 H3981 H 0.70991 1.08776 1.13454
 H3982 H 0.71920 1.14611 1.09755
 H3983 H 0.79981 1.08653 1.04668
 H3984 H 0.81853 1.07197 1.11219
 H3985 H 0.75278 1.13167 1.08347
 H3986 H 0.76527 1.10016 1.05972
 H3987 H 0.74398 1.07392 1.12099
 H3988 H 0.78363 1.08474 1.12493
 C3989 C 0.74939 0.59967 0.59834
 C3990 C 0.74180 0.61986 0.59164
 C3991 C 0.72236 0.62797 0.59957
 C3992 C 0.70987 0.61592 0.61421
 C3993 C 0.71733 0.59540 0.62042
 C3994 C 0.73693 0.58747 0.61271
 C3995 C 0.77055 0.59164 0.59085
 C3996 C 0.78552 0.58349 0.60569
 C3997 C 0.80577 0.57652 0.59880
 C3998 C 0.81140 0.57724 0.57683
 C3999 C 0.79623 0.58520 0.56197
 C4000 C 0.77609 0.59247 0.56893
 H4001 H 0.71750 0.64391 0.59457
 H4002 H 0.70809 0.58538 0.63124
 H4003 H 0.81715 0.57095 0.61077
 H4004 H 0.79983 0.58563 0.54491
 H4005 H 0.74234 0.57171 0.61790
 H4006 H 0.78173 0.58298 0.62272
 H4007 H 0.75124 0.62967 0.58072
 H4008 H 0.76472 0.59852 0.55716
 C4009 C 0.25060 1.10200 0.60102
 C4010 C 0.23827 1.08990 0.61559
 C4011 C 0.21878 1.09793 0.62348
 C4012 C 0.21131 1.11844 0.61725
 C4013 C 0.22375 1.13045 0.60254
 C4014 C 0.24308 1.12225 0.59443
 C4015 C 0.27148 1.09369 0.59305
 C4016 C 0.27648 1.09435 0.57100
 C4017 C 0.29628 1.08665 0.56356
 C4018 C 0.31165 1.07841 0.57805
 C4019 C 0.30658 1.07788 0.60016
 C4020 C 0.28666 1.08528 0.60754
 H4021 H 0.20960 1.08794 0.63437
 H4022 H 0.21888 1.14639 0.59754
 H4023 H 0.29945 1.08696 0.54641
 H4024 H 0.31815 1.07211 0.61186
 H4025 H 0.25243 1.13198 0.58337
 H4026 H 0.26493 1.10058 0.55951
 H4027 H 0.24364 1.07411 0.62072
 H4028 H 0.28328 1.08488 0.62466
 C4029 C 0.25118 0.60211 1.10106
 C4030 C 0.24370 0.62237 1.09443
 C4031 C 0.22436 0.63060 1.10249
 C4032 C 0.21186 0.61860 1.11716
 C4033 C 0.21929 0.59809 1.12340
 C4034 C 0.23879 0.59003 1.11558
 C4035 C 0.27207 0.59376 1.09316
 C4036 C 0.28719 0.58534 1.10770
 C4037 C 0.30712 0.57789 1.10038
 C4038 C 0.31225 0.57840 1.07829
 C4039 C 0.29694 0.58665 1.06374
 C4040 C 0.27713 0.59440 1.07113
 H4041 H 0.21952 0.64654 1.09747
 H4042 H 0.21005 0.58810 1.13426
 H4043 H 0.31864 0.57210 1.11211
 H4044 H 0.30016 0.58694 1.04660
 H4045 H 0.24412 0.57423 1.12072
 H4046 H 0.28376 0.58495 1.12480
 H4047 H 0.25311 0.63208 1.08340
 H4048 H 0.26562 0.60064 1.05959
 C4049 C 0.75127 0.89928 0.89747
 C4050 C 0.74324 0.90622 0.87752
 C4051 C 0.72384 0.89805 0.86955
 C4052 C 0.71184 0.88295 0.88151
 C4053 C 0.71982 0.87637 0.90172
 C4054 C 0.73937 0.88432 0.90951
 C4055 C 0.77221 0.90732 0.90554
 C4056 C 0.78764 0.89286 0.91352
 C4057 C 0.80755 0.90032 0.92085
 C4058 C 0.81238 0.92247 0.92067
 C4059 C 0.79681 0.93693 0.91277
 C4060 C 0.77700 0.92942 0.90515
 H4061 H 0.71855 0.90332 0.85382
 H4062 H 0.71096 0.86516 0.91166
 H4063 H 0.81929 0.88865 0.92635
 H4064 H 0.79981 0.95411 0.91271
 H4065 H 0.74511 0.87894 0.92509
 H4066 H 0.78444 0.87571 0.91370
 H4067 H 0.75225 0.91759 0.86783
 H4068 H 0.76527 0.94090 0.89925
 C4069 C 0.75209 0.39777 0.39712
 C4070 C 0.74477 0.37742 0.40364
 C4071 C 0.72545 0.36913 0.39561
 C4072 C 0.71279 0.38115 0.38110
 C4073 C 0.72012 0.40170 0.37485
 C4074 C 0.73961 0.40982 0.38264
 C4075 C 0.77281 0.40632 0.40523
 C4076 C 0.78798 0.41495 0.39088
 C4077 C 0.80774 0.42260 0.39843
 C4078 C 0.81264 0.42210 0.42058
 C4079 C 0.79725 0.41368 0.43494
 C4080 C 0.77762 0.40572 0.42732
 H4081 H 0.72071 0.35315 0.40061
 H4082 H 0.71080 0.41171 0.36410
 H4083 H 0.81933 0.42853 0.38684
 H4084 H 0.80026 0.41340 0.45212
 H4085 H 0.74483 0.42567 0.37756
 H4086 H 0.78472 0.41534 0.37373
 H4087 H 0.75425 0.36773 0.41463
 H4088 H 0.76605 0.39934 0.43872
 C4089 C 0.25152 0.89812 0.39700
 C4090 C 0.24421 0.87777 0.40354
 C4091 C 0.22489 0.86946 0.39553
 C4092 C 0.21223 0.88146 0.38101
 C4093 C 0.21955 0.90201 0.37475
 C4094 C 0.23903 0.91015 0.38252
 C4095 C 0.27224 0.90668 0.40509
 C4096 C 0.28741 0.91528 0.39072
 C4097 C 0.30718 0.92293 0.39826
 C4098 C 0.31208 0.92245 0.42040
 C4099 C 0.29669 0.91406 0.43478
 C4100 C 0.27705 0.90611 0.42718
 H4101 H 0.22016 0.85348 0.40055
 H4102 H 0.21021 0.91201 0.36399
 H4103 H 0.31877 0.92883 0.38665
 H4104 H 0.29971 0.91381 0.45196
 H4105 H 0.24424 0.92600 0.37743
 H4106 H 0.28414 0.91565 0.37358
 H4107 H 0.25370 0.86809 0.41454
 H4108 H 0.26548 0.89976 0.43859
 C4109 C 0.25154 0.39798 0.89747
 C4110 C 0.23915 0.41010 0.88297
 C4111 C 0.21963 0.40209 0.87516
 C4112 C 0.21218 0.38157 0.88139
 C4113 C 0.22476 0.36948 0.89592
 C4114 C 0.24411 0.37767 0.90397
 C4115 C 0.27230 0.40640 0.90559
 C4116 C 0.27709 0.40578 0.92769
 C4117 C 0.29676 0.41363 0.93532
 C4118 C 0.31220 0.42196 0.92096
 C4119 C 0.30733 0.42246 0.89881
 C4120 C 0.28754 0.41492 0.89125
 H4121 H 0.21036 0.41214 0.86439
 H4122 H 0.21994 0.35352 0.90090
 H4123 H 0.29976 0.41335 0.95250
 H4124 H 0.31897 0.42830 0.88722
 H4125 H 0.25353 0.36792 0.91496
 H4126 H 0.26548 0.39948 0.93908
 H4127 H 0.24445 0.42593 0.87791
 H4128 H 0.28429 0.41531 0.87410
   
