data_POSCAR
  _audit_creation_date              2014-09-24
  _audit_creation_method            'ToBaCCo'
  _symmetry_space_group_name_H-M    'P1'
  _symmetry_Int_Tables_number       1
  _symmetry_cell_setting            triclinic
  loop_
  _symmetry_equiv_pos_as_xyz
 x,y,z
_cell_length_a 61.7900
_cell_length_b 62.6614
_cell_length_c 62.8900
_cell_angle_alpha 89.845000
_cell_angle_beta 89.180600
_cell_angle_gamma 89.579000
loop_
  _atom_site_label
  _atom_site_type_symbol
  _atom_site_fract_x
  _atom_site_fract_y
  _atom_site_fract_z
N1 N 0.21117 0.22443 0.20506
 N2 N 0.71684 0.71752 0.71247
 N3 N 0.29130 0.77561 0.71463
 N4 N 0.79401 0.28773 0.22161
 N5 N 0.78511 0.70706 0.28905
 N6 N 0.28091 0.21322 -0.21239
 N7 N 0.70301 0.28001 -0.20902
 N8 N 0.20692 0.79768 0.29447
 N9 N 0.45884 0.45883 0.45795
 N10 N -0.03167 -0.03763 0.96600
 N11 N 1.02404 0.53954 0.95909
 N12 N 0.53577 0.03847 0.45778
 N13 N -0.02204 0.01955 0.53138
 N14 N 0.46862 0.53564 0.02717
 N15 N 0.54537 -0.03390 0.04466
 N16 N 1.04072 0.45524 0.54412
 C17 C 0.40481 0.02129 0.22307
 H18 H 0.40487 0.03490 0.23361
 C19 C 0.41989 0.01991 0.20637
 H20 H 0.43165 0.03249 0.20426
 C21 C 0.38970 -0.01190 0.21346
 H22 H 0.37801 -0.02434 0.21634
 C23 C 0.40447 -0.01392 0.19655
 H24 H 0.40369 -0.02778 0.18637
 N25 N 0.38994 0.00564 0.22614
 C26 C 0.33400 0.03478 0.25784
 H27 H 0.33219 0.02422 0.27138
 C28 C 0.31915 0.05136 0.25476
 H29 H 0.30606 0.05365 0.26618
 C30 C 0.35337 0.04459 0.22657
 H31 H 0.36650 0.04170 0.21541
 C32 C 0.33895 0.06142 0.22292
 H33 H 0.34115 0.07132 0.20893
 Zn34 Zn 0.36995 0.00871 0.24907
 N35 N 0.35082 0.03184 0.24395
 C36 C 0.38193 0.03105 0.28635
 N37 N 0.38596 0.01360 0.27404
 C38 C 0.40205 -0.00044 0.27885
 C39 C 0.41459 0.00257 0.29688
 C40 C 0.39400 0.03461 0.30459
 C41 C 0.33841 -0.02027 0.23654
 C42 C 0.32484 -0.03794 0.23812
 C43 C 0.34114 -0.04676 0.27173
 C44 C 0.35434 -0.02886 0.26955
 N45 N 0.35287 -0.01613 0.25207
 H46 H 0.36945 0.04232 0.28203
 H47 H 0.40510 -0.01404 0.26864
 H48 H 0.42714 -0.00895 0.30061
 H49 H 0.39066 0.04865 0.31412
 H50 H 0.33732 -0.00968 0.22298
 H51 H 0.31322 -0.04073 0.22573
 H52 H 0.34283 -0.05686 0.28561
 H53 H 0.36566 -0.02514 0.28190
 C54 C 0.32158 0.06499 0.23715
 C55 C 0.41978 0.00217 0.19277
 C56 C 0.32609 -0.05149 0.25591
 C57 C 0.41058 0.02026 0.31006
 C58 C 0.10100 -0.02258 0.72152
 H59 H 0.10149 -0.03641 0.73185
 C60 C 0.08726 -0.02231 0.70410
 H61 H 0.07719 -0.03602 0.70106
 C62 C 0.11393 0.01186 0.71268
 H63 H 0.12460 0.02501 0.71581
 C64 C 0.10057 0.01274 0.69498
 H65 H 0.10073 0.02682 0.68496
 N66 N 0.11357 -0.00543 0.72581
 C67 C 0.14934 -0.04801 0.75925
 H68 H 0.13850 -0.04805 0.77287
 C69 C 0.16233 -0.06590 0.75505
 H70 H 0.16130 -0.07957 0.76556
 C71 C 0.16290 -0.03069 0.72832
 H72 H 0.16281 -0.01694 0.71789
 C73 C 0.17620 -0.04817 0.72358
 H74 H 0.18662 -0.04757 0.70960
 Zn75 Zn 0.13135 -0.00711 0.75010
 N76 N 0.14991 -0.03087 0.74594
 C77 C 0.12494 -0.01098 0.79403
 N78 N 0.11440 -0.01067 0.77519
 C79 C 0.09251 -0.01250 0.77448
 C80 C 0.08042 -0.01549 0.79316
 C81 C 0.11345 -0.01368 0.81313
 C82 C 0.16962 0.01719 0.75455
 C83 C 0.18156 0.03586 0.75681
 C84 C 0.14815 0.05615 0.75650
 C85 C 0.13681 0.03706 0.75472
 N86 N 0.14767 0.01814 0.75322
 H87 H 0.14233 -0.00915 0.79417
 H88 H 0.08431 -0.01172 0.75947
 H89 H 0.06310 -0.01757 0.79207
 H90 H 0.12217 -0.01363 0.82793
 H91 H 0.17791 0.00197 0.75397
 H92 H 0.19904 0.03494 0.75765
 H93 H 0.13936 0.07115 0.75728
 H94 H 0.11932 0.03731 0.75416
 C95 C 0.17594 -0.06616 0.73695
 C96 C 0.08682 -0.00440 0.69067
 C97 C 0.17080 0.05563 0.75749
 C98 C 0.09086 -0.01615 0.81287
 C99 C 0.58778 0.48776 0.21794
 H100 H 0.58581 0.47469 0.22906
 C101 C 0.57349 0.49011 0.20110
 H102 H 0.56067 0.47861 0.19920
 C103 C 0.60699 0.51857 0.20695
 H104 H 0.61986 0.52981 0.20948
 C105 C 0.59312 0.52148 0.18983
 H106 H 0.59544 0.53501 0.17932
 N107 N 0.60421 0.50179 0.22046
 C108 C 0.65454 0.46810 0.25522
 H109 H 0.65661 0.47875 0.26853
 C110 C 0.66761 0.44992 0.25319
 H111 H 0.67956 0.44651 0.26518
 C112 C 0.63634 0.45962 0.22345
 H113 H 0.62441 0.46361 0.21170
 C114 C 0.64900 0.44124 0.22085
 H115 H 0.64664 0.43127 0.20704
 Zn116 Zn 0.62233 0.49764 0.24412
 N117 N 0.63914 0.47248 0.24057
 C118 C 0.60525 0.47820 0.28164
 N119 N 0.60413 0.49544 0.26851
 C120 C 0.58931 0.51126 0.27195
 C121 C 0.57514 0.51034 0.28941
 C122 C 0.59140 0.47664 0.29931
 C123 C 0.65751 0.52308 0.23187
 C124 C 0.67255 0.53952 0.23346
 C125 C 0.65473 0.55085 0.26601
 C126 C 0.64015 0.53411 0.26388
 N127 N 0.64164 0.52076 0.24689
 H128 H 0.61682 0.46559 0.27845
 H129 H 0.58849 0.52460 0.26102
 H130 H 0.56334 0.52300 0.29175
 H131 H 0.59281 0.46296 0.30977
 H132 H 0.65849 0.51208 0.21866
 H133 H 0.68498 0.54125 0.22128
 H134 H 0.65340 0.56121 0.27972
 H135 H 0.62778 0.53173 0.27593
 C136 C 0.66485 0.43617 0.23585
 C137 C 0.57609 0.50714 0.18676
 C138 C 0.67120 0.55370 0.25068
 C139 C 0.57608 0.49285 0.30340
 C140 C 0.89813 0.50683 0.72154
 H141 H 0.89887 0.52007 0.73241
 C142 C 0.91269 0.50588 0.70438
 H143 H 0.92434 0.51854 0.70220
 C144 C 0.88312 0.47364 0.71192
 H145 H 0.87194 0.46084 0.71508
 C146 C 0.89742 0.47202 0.69458
 H147 H 0.89666 0.45820 0.68432
 N148 N 0.88350 0.49101 0.72488
 C149 C 0.82554 0.51750 0.74404
 H150 H 0.81762 0.50228 0.74296
 C151 C 0.81315 0.53618 0.74261
 H152 H 0.79585 0.53513 0.74030
 C153 C 0.85734 0.53765 0.74895
 H154 H 0.87448 0.53823 0.75192
 C155 C 0.84552 0.55667 0.74802
 H156 H 0.85378 0.57174 0.74973
 Zn157 Zn 0.86451 0.49313 0.74893
 N158 N 0.84732 0.51849 0.74692
 C159 C 0.87697 0.50877 0.78923
 N160 N 0.88186 0.49471 0.77341
 C161 C 0.89982 0.48209 0.77421
 C162 C 0.91414 0.48389 0.79107
 C163 C 0.89092 0.51119 0.80631
 C164 C 0.83331 0.46364 0.73451
 C165 C 0.81991 0.44581 0.73581
 C166 C 0.83399 0.43838 0.77069
 C167 C 0.84709 0.45637 0.76875
 N168 N 0.84653 0.46862 0.75087
 H169 H 0.86243 0.51840 0.78845
 H170 H 0.90321 0.47091 0.76150
 H171 H 0.92841 0.47377 0.79134
 H172 H 0.88713 0.52306 0.81830
 H173 H 0.83313 0.47360 0.72044
 H174 H 0.80927 0.44235 0.72274
 H175 H 0.83492 0.42872 0.78495
 H176 H 0.85769 0.46054 0.78158
 C177 C 0.82316 0.55605 0.74470
 C178 C 0.91243 0.48832 0.69060
 C179 C 0.82010 0.43291 0.75411
 C180 C 0.90999 0.49887 0.80724
 C181 C 0.21811 0.41792 0.00400
 H182 H 0.22905 0.41913 0.01722
 C183 C 0.20068 0.43208 0.00238
 H184 H 0.19811 0.44404 0.01458
 C185 C 0.20836 0.40092 -0.02806
 H186 H 0.21165 0.38900 -0.04008
 C187 C 0.19061 0.41466 -0.03021
 H188 H 0.18034 0.41319 -0.04394
 N189 N 0.22161 0.40273 -0.01108
 C190 C 0.25874 0.35115 0.01761
 H191 H 0.27246 0.35050 0.00675
 C192 C 0.25700 0.33633 0.03414
 H193 H 0.26962 0.32444 0.03609
 C194 C 0.22561 0.36752 0.02819
 H195 H 0.21326 0.37949 0.02562
 C196 C 0.22327 0.35307 0.04499
 H197 H 0.20904 0.35404 0.05520
 Zn198 Zn 0.24654 0.38534 -0.00823
 N199 N 0.24325 0.36643 0.01504
 C200 C 0.28335 0.40114 0.01312
 N201 N 0.27023 0.40369 -0.00390
 C202 C 0.27324 0.41993 -0.01799
 C203 C 0.29028 0.43416 -0.01551
 C204 C 0.30065 0.41494 0.01616
 C205 C 0.23742 0.35238 -0.03668
 C206 C 0.24127 0.33838 -0.05359
 C207 C 0.27371 0.35800 -0.06238
 C208 C 0.26931 0.37152 -0.04524
 N209 N 0.25140 0.36851 -0.03280
 H210 H 0.28040 0.38846 0.02444
 H211 H 0.26239 0.42174 -0.03124
 H212 H 0.29264 0.44679 -0.02708
 H213 H 0.31088 0.41274 0.02984
 H214 H 0.22352 0.35010 -0.02629
 H215 H 0.23026 0.32528 -0.05602
 H216 H 0.28799 0.36077 -0.07214
 H217 H 0.28045 0.38418 -0.04172
 C218 C 0.23909 0.33720 0.04811
 C219 C 0.18669 0.43058 -0.01493
 C220 C 0.25974 0.34099 -0.06662
 C221 C 0.30431 0.43168 0.00170
 C222 C 0.72815 0.09744 0.00151
 H223 H 0.73834 0.09423 -0.01226
 C224 C 0.71042 0.08442 0.00600
 H225 H 0.70711 0.07112 -0.00437
 C226 C 0.72070 0.11822 0.03222
 H227 H 0.72490 0.13122 0.04256
 C228 C 0.70285 0.10558 0.03733
 H229 H 0.69324 0.10928 0.05139
 N230 N 0.73283 0.11408 0.01446
 C231 C 0.76901 0.16068 -0.02321
 H232 H 0.78286 0.16298 -0.01315
 C233 C 0.76666 0.17299 -0.04160
 H234 H 0.77874 0.18486 -0.04547
 C235 C 0.73602 0.14301 -0.02975
 H236 H 0.72396 0.13151 -0.02499
 C237 C 0.73310 0.15486 -0.04833
 H238 H 0.71898 0.15194 -0.05786
 Zn239 Zn 0.75771 0.13043 0.00791
 N240 N 0.75387 0.14595 -0.01771
 C241 C 0.79477 0.11142 -0.01200
 N242 N 0.78136 0.11117 0.00534
 C243 C 0.78386 0.09643 0.02105
 C244 C 0.80042 0.08119 0.01974
 C245 C 0.81169 0.09660 -0.01386
 C246 C 0.74838 0.16683 0.03213
 C247 C 0.75094 0.18178 0.04831
 C248 C 0.78300 0.16268 0.05936
 C249 C 0.77989 0.14817 0.04289
 N250 N 0.76261 0.15031 0.02989
 H251 H 0.79230 0.12298 -0.02451
 H252 H 0.77282 0.09645 0.03457
 H253 H 0.80221 0.06963 0.03243
 H254 H 0.82210 0.09688 -0.02785
 H255 H 0.73487 0.16823 0.02145
 H256 H 0.73920 0.19458 0.05013
 H257 H 0.79682 0.16073 0.06960
 H258 H 0.79124 0.13516 0.04062
 C259 C 0.74850 0.17016 -0.05448
 C260 C 0.69750 0.08842 0.02413
 C261 C 0.76834 0.17968 0.06230
 C262 C 0.81460 0.08117 0.00211
 C263 C 0.21598 0.59308 0.49162
 H264 H 0.22417 0.59153 0.47638
 C265 C 0.19892 0.57947 0.49693
 H266 H 0.19420 0.56737 0.48570
 C267 C 0.21290 0.61020 0.52508
 H268 H 0.21856 0.62197 0.53615
 C269 C 0.19574 0.59698 0.53101
 H270 H 0.18811 0.59909 0.54648
 N271 N 0.22250 0.60818 0.50558
 C272 C 0.25337 0.65884 0.46860
 H273 H 0.26866 0.65990 0.47670
 C274 C 0.24866 0.67299 0.45208
 H275 H 0.26038 0.68504 0.44770
 C276 C 0.21926 0.64229 0.46515
 H277 H 0.20774 0.63047 0.47041
 C278 C 0.21391 0.65607 0.44850
 H279 H 0.19842 0.65436 0.44088
 Zn280 Zn 0.24629 0.62549 0.49752
 N281 N 0.23881 0.64376 0.47468
 C282 C 0.27958 0.60895 0.47025
 N283 N 0.26936 0.60702 0.48945
 C284 C 0.27505 0.59145 0.50344
 C285 C 0.29205 0.57742 0.49862
 C286 C 0.29669 0.59524 0.46477
 C287 C 0.24058 0.65829 0.52739
 C288 C 0.24575 0.67124 0.54460
 C289 C 0.28003 0.65268 0.54709
 C290 C 0.27420 0.64009 0.52984
 N291 N 0.25460 0.64284 0.52060
 H292 H 0.27460 0.62116 0.45917
 H293 H 0.26640 0.59005 0.51846
 H294 H 0.29626 0.56509 0.50996
 H295 H 0.30494 0.59732 0.44961
 H296 H 0.22526 0.66040 0.51951
 H297 H 0.23437 0.68344 0.54977
 H298 H 0.29548 0.64987 0.55455
 H299 H 0.28534 0.62806 0.52398
 C300 C 0.22871 0.67167 0.44172
 C301 C 0.18852 0.58135 0.51687
 C302 C 0.26565 0.66840 0.55481
 C303 C 0.30324 0.57930 0.47911
 C304 C 0.72558 0.91168 0.50632
 H305 H 0.73730 0.91358 0.51877
 C306 C 0.70885 0.92656 0.50409
 H307 H 0.70767 0.93980 0.51508
 C308 C 0.71276 0.89179 0.47712
 H309 H 0.71433 0.87815 0.46672
 C310 C 0.69578 0.90631 0.47431
 H311 H 0.68459 0.90388 0.46146
 N312 N 0.72727 0.89478 0.49287
 C313 C 0.76012 0.84349 0.52703
 H314 H 0.77502 0.84153 0.51797
 C315 C 0.75600 0.83037 0.54459
 H316 H 0.76777 0.81824 0.54875
 C317 C 0.72641 0.86113 0.53200
 H318 H 0.71479 0.87302 0.52700
 C319 C 0.72172 0.84849 0.54975
 H320 H 0.70666 0.85113 0.55840
 Zn321 Zn 0.75080 0.87577 0.49659
 N322 N 0.74535 0.85847 0.52101
 C323 C 0.78901 0.88968 0.51744
 N324 N 0.77594 0.89257 0.50041
 C325 C 0.77986 0.90840 0.48603
 C326 C 0.79764 0.92176 0.48824
 C327 C 0.80706 0.90261 0.52019
 C328 C 0.75409 0.83673 0.47355
 C329 C 0.75742 0.82399 0.45561
 C330 C 0.76003 0.85591 0.43424
 C331 C 0.75704 0.86804 0.45265
 N332 N 0.75434 0.85839 0.47190
 H333 H 0.78538 0.87757 0.52914
 H334 H 0.76888 0.91102 0.47308
 H335 H 0.80052 0.93416 0.47653
 H336 H 0.81715 0.90020 0.53395
 H337 H 0.75140 0.82917 0.48876
 H338 H 0.75788 0.80683 0.45758
 H339 H 0.76171 0.86404 0.41910
 H340 H 0.75651 0.88521 0.45145
 C341 C 0.73655 0.83276 0.55622
 C342 C 0.69371 0.92403 0.48786
 C343 C 0.76050 0.83352 0.43556
 C344 C 0.81154 0.91893 0.50548
 C345 C 0.01703 0.21635 0.41689
 H346 H 0.03013 0.22758 0.41836
 C347 C 0.01553 0.19903 0.43082
 H348 H 0.02773 0.19687 0.44284
 C349 C -0.01470 0.20552 0.39927
 H350 H -0.02663 0.20828 0.38717
 C351 C -0.01677 0.18793 0.41282
 H352 H -0.03036 0.17730 0.41100
 N353 N 0.00217 0.21914 0.40138
 C354 C 0.03399 0.25536 0.35087
 H355 H 0.02272 0.26854 0.34926
 C356 C 0.05199 0.25385 0.33729
 H357 H 0.05465 0.26612 0.32540
 C358 C 0.04414 0.22336 0.36838
 H359 H 0.04083 0.21130 0.38025
 C360 C 0.06239 0.22127 0.35519
 H361 H 0.07296 0.20756 0.35707
 Zn362 Zn 0.00537 0.24323 0.38347
 N363 N 0.03051 0.24034 0.36616
 C364 C 0.02444 0.28102 0.39939
 N365 N 0.00741 0.26748 0.40116
 C366 C -0.00839 0.27050 0.41613
 C367 C -0.00766 0.28794 0.42986
 C368 C 0.02577 0.29872 0.41273
 C369 C -0.02109 0.23095 0.34993
 C370 C -0.03777 0.23283 0.33528
 C371 C -0.04870 0.26592 0.35204
 C372 C -0.03179 0.26343 0.36633
 N373 N -0.01847 0.24608 0.36512
 H374 H 0.03704 0.27817 0.38765
 H375 H -0.02157 0.25927 0.41741
 H376 H -0.02029 0.28992 0.44182
 H377 H 0.03923 0.30954 0.41076
 H378 H -0.01006 0.21747 0.34913
 H379 H -0.03969 0.22055 0.32339
 H380 H -0.05890 0.28002 0.35304
 H381 H -0.02914 0.27557 0.37814
 C382 C 0.06650 0.23665 0.33940
 C383 C -0.00149 0.18450 0.42881
 C384 C -0.05182 0.25054 0.33620
 C385 C 0.00957 0.30238 0.42822
 C386 C -0.00677 0.72216 0.09233
 H387 H -0.02073 0.73250 0.09055
 C388 C -0.00386 0.70466 0.07885
 H389 H -0.01581 0.70152 0.06685
 C390 C 0.02533 0.71337 0.11066
 H391 H 0.03675 0.71685 0.12299
 C392 C 0.02886 0.69570 0.09755
 H393 H 0.04307 0.68581 0.09992
 N394 N 0.00744 0.72587 0.10820
 C395 C -0.02876 0.75561 0.16040
 H396 H -0.01871 0.76927 0.16358
 C397 C -0.04716 0.75180 0.17298
 H398 H -0.05134 0.76273 0.18572
 C399 C -0.03561 0.72487 0.13978
 H400 H -0.03095 0.71418 0.12708
 C401 C -0.05421 0.72055 0.15184
 H402 H -0.06367 0.70657 0.14822
 Zn403 Zn 0.00142 0.74869 0.12720
 N404 N -0.02354 0.74239 0.14395
 C405 C -0.02130 0.78598 0.11420
 N406 N -0.00325 0.77380 0.11092
 C407 C 0.01169 0.77905 0.09572
 C408 C 0.00896 0.79743 0.08337
 C409 C -0.02455 0.80459 0.10237
 C410 C 0.02856 0.73699 0.16066
 C411 C 0.04552 0.73895 0.17494
 C412 C 0.05423 0.77302 0.15905
 C413 C 0.03708 0.77041 0.14508
 N414 N 0.02481 0.75249 0.14596
 H415 H -0.03323 0.78137 0.12600
 H416 H 0.02580 0.76898 0.09329
 H417 H 0.02114 0.80154 0.07154
 H418 H -0.03900 0.81410 0.10521
 H419 H 0.01833 0.72306 0.16124
 H420 H 0.04815 0.72648 0.18660
 H421 H 0.06407 0.78720 0.15780
 H422 H 0.03367 0.78270 0.13351
 C423 C -0.06028 0.73420 0.16858
 C424 C 0.01396 0.69093 0.08163
 C425 C 0.05870 0.75712 0.17420
 C426 C -0.00928 0.81055 0.08677
 C427 C 0.48550 0.22281 0.58742
 H428 H 0.47133 0.23303 0.58705
 C429 C 0.48825 0.20679 0.57224
 H430 H 0.47599 0.20461 0.56032
 C431 C 0.51865 0.21326 0.60354
 H432 H 0.53058 0.21602 0.61559
 C433 C 0.52196 0.19689 0.58875
 H434 H 0.53649 0.18717 0.58953
 N435 N 0.50053 0.22568 0.60272
 C436 C 0.46681 0.25525 0.65650
 H437 H 0.47616 0.26964 0.65839
 C438 C 0.44958 0.25094 0.67044
 H439 H 0.44585 0.26204 0.68315
 C440 C 0.46076 0.22305 0.63791
 H441 H 0.46523 0.21213 0.62532
 C442 C 0.44344 0.21809 0.65150
 H443 H 0.43454 0.20352 0.64895
 Zn444 Zn 0.49534 0.24833 0.62202
 N445 N 0.47187 0.24150 0.64046
 C446 C 0.46995 0.28402 0.60889
 N447 N 0.48863 0.27281 0.60557
 C448 C 0.50266 0.27814 0.58960
 C449 C 0.49828 0.29550 0.57636
 C450 C 0.46498 0.30156 0.59608
 C451 C 0.52559 0.23847 0.65362
 C452 C 0.54275 0.24215 0.66735
 C453 C 0.54792 0.27655 0.65070
 C454 C 0.53062 0.27225 0.63737
 N455 N 0.51988 0.25344 0.63900
 H456 H 0.45878 0.27933 0.62137
 H457 H 0.51720 0.26871 0.58706
 H458 H 0.50951 0.29922 0.56353
 H459 H 0.45018 0.31045 0.59919
 H460 H 0.51653 0.22380 0.65486
 H461 H 0.54670 0.23023 0.67920
 H462 H 0.55634 0.29156 0.64899
 H463 H 0.52566 0.28412 0.62593
 C464 C 0.43758 0.23217 0.66797
 C465 C 0.50665 0.19355 0.57282
 C466 C 0.55411 0.26148 0.66609
 C467 C 0.47921 0.30750 0.57951
 C468 C 0.49919 0.71514 0.88879
 H469 H 0.50157 0.71309 0.87189
 C470 C 0.49694 0.69714 0.90177
 H471 H 0.49751 0.68149 0.89453
 C472 C 0.49759 0.73779 0.91881
 H473 H 0.49849 0.75349 0.92565
 C474 C 0.49492 0.72029 0.93232
 H475 H 0.49304 0.72304 0.94923
 N476 N 0.49950 0.73504 0.89740
 C477 C 0.53372 0.76585 0.84539
 H478 H 0.52203 0.77783 0.84065
 C479 C 0.55188 0.76170 0.83253
 H480 H 0.55400 0.77047 0.81780
 C481 C 0.54467 0.73929 0.86998
 H482 H 0.54183 0.73068 0.88466
 C483 C 0.56297 0.73457 0.85758
 H484 H 0.57414 0.72232 0.86286
 Zn485 Zn 0.50439 0.75905 0.87922
 N486 N 0.53031 0.75445 0.86354
 C487 C 0.52549 0.79550 0.89551
 N488 N 0.50678 0.78419 0.89588
 C489 C 0.48968 0.79033 0.90835
 C490 C 0.49109 0.80824 0.92134
 C491 C 0.52756 0.81364 0.90818
 C492 C 0.47780 0.74657 0.84516
 C493 C 0.46145 0.74878 0.83017
 C494 C 0.45310 0.78358 0.84458
 C495 C 0.46961 0.78073 0.85923
 N496 N 0.48143 0.76232 0.85952
 H497 H 0.53889 0.79041 0.88548
 H498 H 0.47498 0.78105 0.90841
 H499 H 0.47746 0.81244 0.93154
 H500 H 0.54252 0.82251 0.90751
 H501 H 0.48789 0.73245 0.84497
 H502 H 0.45904 0.73618 0.81872
 H503 H 0.44370 0.79823 0.84494
 H504 H 0.47306 0.79346 0.87013
 C505 C 0.56660 0.74562 0.83842
 C506 C 0.49477 0.69955 0.92391
 C507 C 0.44881 0.76749 0.82977
 C508 C 0.51026 0.82015 0.92146
 C509 C 0.15418 0.23388 0.22430
 C510 C 0.15583 0.23083 0.24656
 C511 C 0.17645 0.22532 0.25465
 C512 C 0.19451 0.22333 0.24098
 C513 C 0.19254 0.22653 0.21906
 C514 C 0.17224 0.23175 0.21088
 C515 C 0.17903 0.22183 0.27635
 C516 C 0.16157 0.22352 0.29036
 C517 C 0.14066 0.22897 0.28325
 C518 C 0.13779 0.23294 0.26101
 C519 C 0.11703 0.23904 0.25398
 C520 C 0.09963 0.24099 0.26803
 C521 C 0.10207 0.23687 0.28963
 C522 C 0.12254 0.23070 0.29763
 C523 C 0.12389 0.22643 0.31972
 C524 C 0.10577 0.22837 0.33311
 C525 C 0.08570 0.23464 0.32508
 C526 C 0.08399 0.23887 0.30329
 H527 H 0.13920 0.23775 0.21662
 H528 H 0.21024 0.21938 0.24738
 H529 H 0.17034 0.23403 0.19393
 H530 H 0.19477 0.21765 0.28260
 H531 H 0.16515 0.22059 0.30682
 H532 H 0.11361 0.24263 0.23762
 H533 H 0.08403 0.24576 0.26185
 H534 H 0.13863 0.22145 0.32725
 H535 H 0.10756 0.22516 0.34993
 H536 H 0.06843 0.24339 0.29686
 C537 C 0.68024 0.75048 0.74774
 C538 C 0.66675 0.73489 0.75736
 C539 C 0.67089 0.71321 0.75217
 C540 C 0.68734 0.70765 0.73755
 C541 C 0.70024 0.72333 0.72789
 C542 C 0.69663 0.74473 0.73332
 C543 C 0.65852 0.69712 0.76148
 C544 C 0.64203 0.70193 0.77590
 C545 C 0.63700 0.72323 0.78150
 C546 C 0.64938 0.74002 0.77186
 C547 C 0.64375 0.76135 0.77678
 C548 C 0.62671 0.76619 0.79059
 C549 C 0.61468 0.75006 0.80030
 C550 C 0.61977 0.72834 0.79616
 C551 C 0.60732 0.71264 0.80690
 C552 C 0.59036 0.71836 0.82066
 C553 C 0.58515 0.73983 0.82430
 C554 C 0.59748 0.75561 0.81411
 H555 H 0.67873 0.76727 0.75109
 H556 H 0.68994 0.69103 0.73343
 H557 H 0.70664 0.75712 0.72639
 H558 H 0.66162 0.68052 0.75756
 H559 H 0.63327 0.68846 0.78211
 H560 H 0.65198 0.77484 0.76992
 H561 H 0.62290 0.78282 0.79370
 H562 H 0.61021 0.69578 0.80514
 H563 H 0.58100 0.70583 0.82822
 H564 H 0.59377 0.77228 0.81710
 C565 C 0.33361 0.74737 0.74656
 C566 C 0.34731 0.76432 0.75258
 C567 C 0.34245 0.78499 0.74464
 C568 C 0.32427 0.78847 0.73195
 C569 C 0.31058 0.77165 0.72676
 C570 C 0.31558 0.75106 0.73387
 C571 C 0.35558 0.80219 0.74955
 C572 C 0.37343 0.79953 0.76242
 C573 C 0.37883 0.77943 0.77116
 C574 C 0.36548 0.76154 0.76628
 C575 C 0.37047 0.74160 0.77560
 C576 C 0.38769 0.73920 0.78935
 C577 C 0.40085 0.75641 0.79424
 C578 C 0.39688 0.77672 0.78500
 C579 C 0.41112 0.79348 0.79016
 C580 C 0.42797 0.79032 0.80438
 C581 C 0.43138 0.77040 0.81396
 C582 C 0.41787 0.75343 0.80857
 H583 H 0.33627 0.73107 0.75137
 H584 H 0.32060 0.80437 0.72612
 H585 H 0.30521 0.73784 0.72991
 H586 H 0.35194 0.81800 0.74347
 H587 H 0.38244 0.81379 0.76552
 H588 H 0.36111 0.72747 0.77292
 H589 H 0.39069 0.72363 0.79633
 H590 H 0.40984 0.80926 0.78348
 H591 H 0.43851 0.80358 0.80778
 H592 H 0.42028 0.73795 0.81593
 C593 C -0.17784 0.28290 0.27388
 C594 C -0.15693 0.27551 0.26776
 C595 C -0.15286 0.27202 0.24578
 C596 C -0.16900 0.27606 0.23077
 C597 C -0.18949 0.28349 0.23715
 C598 C -0.19375 0.28679 0.25880
 C599 C -0.13270 0.26457 0.23880
 C600 C -0.11629 0.26048 0.25310
 C601 C -0.11933 0.26379 0.27515
 C602 C -0.13997 0.27151 0.28261
 C603 C -0.14291 0.27513 0.30462
 C604 C -0.12635 0.27148 0.31887
 C605 C -0.10620 0.26400 0.31190
 C606 C -0.10236 0.25985 0.29000
 C607 C -0.08161 0.25198 0.28395
 C608 C -0.06545 0.24879 0.29894
 C609 C -0.06930 0.25327 0.32046
 C610 C -0.08980 0.26074 0.32682
 H611 H -0.18257 0.28580 0.29016
 H612 H -0.16559 0.27361 0.21399
 H613 H -0.20959 0.29231 0.26406
 H614 H -0.12954 0.26187 0.22201
 H615 H -0.10128 0.25485 0.24621
 H616 H -0.15784 0.28099 0.31148
 H617 H -0.12937 0.27464 0.33560
 H618 H -0.07719 0.24818 0.26778
 H619 H -0.04969 0.24318 0.29356
 H620 H -0.09306 0.26392 0.34350
 C621 C -0.15630 0.71614 0.27560
 C622 C -0.15619 0.71639 0.25306
 C623 C -0.17607 0.71250 0.24278
 C624 C -0.19519 0.70933 0.25467
 C625 C -0.19504 0.70969 0.27691
 C626 C -0.17540 0.71283 0.28722
 C627 C -0.17685 0.71191 0.22067
 C628 C -0.15833 0.71502 0.20836
 C629 C -0.13814 0.71918 0.21770
 C630 C -0.13714 0.72028 0.24042
 C631 C -0.11722 0.72561 0.24972
 C632 C -0.09888 0.72951 0.23737
 C633 C -0.09944 0.72802 0.21529
 C634 C -0.11898 0.72260 0.20508
 C635 C -0.11840 0.72074 0.18263
 C636 C -0.09941 0.72445 0.17098
 C637 C -0.08032 0.73017 0.18116
 C638 C -0.08047 0.73192 0.20336
 H639 H -0.14192 0.71823 0.28480
 H640 H -0.21036 0.70685 0.24661
 H641 H -0.17487 0.71272 0.30443
 H642 H -0.19200 0.70897 0.21274
 H643 H -0.16054 0.71444 0.19143
 H644 H -0.11529 0.72731 0.26661
 H645 H -0.08401 0.73369 0.24526
 H646 H -0.13225 0.71626 0.17351
 H647 H -0.09973 0.72307 0.15382
 H648 H -0.06566 0.73600 0.21140
 C649 C 0.31834 0.24313 0.75091
 C650 C 0.33286 0.22695 0.74379
 C651 C 0.32926 0.20588 0.75128
 C652 C 0.31200 0.20144 0.76535
 C653 C 0.29808 0.21773 0.77246
 C654 C 0.30132 0.23852 0.76497
 C655 C 0.34297 0.18930 0.74489
 C656 C 0.36046 0.19307 0.73136
 C657 C 0.36501 0.21375 0.72357
 C658 C 0.35085 0.23094 0.72971
 C659 C 0.35517 0.25155 0.72162
 C660 C 0.37274 0.25534 0.70819
 C661 C 0.38681 0.23887 0.70227
 C662 C 0.38324 0.21782 0.70983
 C663 C 0.39820 0.20178 0.70333
 C664 C 0.41570 0.20651 0.68988
 C665 C 0.41903 0.22731 0.68243
 C666 C 0.40449 0.24342 0.68875
 H667 H 0.31968 0.25956 0.74609
 H668 H 0.30965 0.18532 0.77118
 H669 H 0.29059 0.25131 0.77008
 H670 H 0.34023 0.17315 0.75050
 H671 H 0.37012 0.17928 0.72730
 H672 H 0.34525 0.26526 0.72531
 H673 H 0.37537 0.27145 0.70241
 H674 H 0.39702 0.18541 0.70839
 H675 H 0.42687 0.19380 0.68551
 H676 H 0.40675 0.25954 0.68287
 C677 C 0.66747 0.25002 0.75370
 C678 C 0.65377 0.26631 0.74565
 C679 C 0.65693 0.28738 0.75315
 C680 C 0.67326 0.29178 0.76779
 C681 C 0.68660 0.27546 0.77553
 C682 C 0.68353 0.25460 0.76838
 C683 C 0.64372 0.30399 0.74614
 C684 C 0.62712 0.30024 0.73204
 C685 C 0.62311 0.27958 0.72415
 C686 C 0.63698 0.26241 0.73067
 C687 C 0.63368 0.24199 0.72188
 C688 C 0.61724 0.23831 0.70756
 C689 C 0.60320 0.25468 0.70153
 C690 C 0.60579 0.27553 0.70979
 C691 C 0.59074 0.29140 0.70347
 C692 C 0.57417 0.28675 0.68940
 C693 C 0.57190 0.26620 0.68104
 C694 C 0.58653 0.25023 0.68725
 H695 H 0.66610 0.23352 0.74924
 H696 H 0.67539 0.30793 0.77351
 H697 H 0.69370 0.24176 0.77417
 H698 H 0.64616 0.32014 0.75173
 H699 H 0.61786 0.31406 0.72744
 H700 H 0.64373 0.22841 0.72555
 H701 H 0.61540 0.22236 0.70123
 H702 H 0.59101 0.30752 0.70932
 H703 H 0.56282 0.29932 0.68533
 H704 H 0.58507 0.23428 0.68081
 C705 C 0.15793 0.81071 0.26217
 C706 C 0.15235 0.79060 0.25365
 C707 C 0.16547 0.77280 0.25915
 C708 C 0.18322 0.77521 0.27263
 C709 C 0.18847 0.79524 0.28084
 C710 C 0.17565 0.81290 0.27549
 C711 C 0.16091 0.75265 0.25114
 C712 C 0.14370 0.74964 0.23757
 C713 C 0.13014 0.76677 0.23144
 C714 C 0.13439 0.78756 0.23982
 C715 C 0.12050 0.80458 0.23412
 C716 C 0.10327 0.80157 0.22057
 C717 C 0.09913 0.78156 0.21201
 C718 C 0.11245 0.76383 0.21725
 C719 C 0.10750 0.74392 0.20790
 C720 C 0.09013 0.74185 0.19411
 C721 C 0.07704 0.75943 0.18907
 C722 C 0.08166 0.77925 0.19816
 H723 H 0.14908 0.82516 0.25884
 H724 H 0.19322 0.76151 0.27655
 H725 H 0.17933 0.82851 0.28177
 H726 H 0.17085 0.73899 0.25535
 H727 H 0.14143 0.73353 0.23223
 H728 H 0.12240 0.82058 0.23994
 H729 H 0.09310 0.81516 0.21668
 H730 H 0.11679 0.72962 0.21068
 H731 H 0.08716 0.72641 0.18707
 H732 H 0.07149 0.79293 0.19460
 C733 C 0.26322 0.19346 0.20863
 C734 C 0.25601 0.17263 0.21382
 C735 C 0.23338 0.16952 0.21608
 C736 C 0.21881 0.18650 0.21299
 C737 C 0.22627 0.20695 0.20788
 C738 C 0.24856 0.21024 0.20575
 C739 C 0.22531 0.14950 0.22146
 C740 C 0.23917 0.13237 0.22492
 C741 C 0.26185 0.13451 0.22298
 C742 C 0.27040 0.15490 0.21699
 C743 C 0.29303 0.15683 0.21425
 C744 C 0.30687 0.13963 0.21748
 C745 C 0.29887 0.11982 0.22371
 C746 C 0.27628 0.11691 0.22668
 C747 C 0.26916 0.09648 0.23339
 C748 C 0.28384 0.07981 0.23676
 C749 C 0.30607 0.08279 0.23358
 C750 C 0.31345 0.10288 0.22704
 H751 H 0.28006 0.19749 0.20691
 H752 H 0.20154 0.18384 0.21453
 H753 H 0.25468 0.22599 0.20205
 H754 H 0.20802 0.14703 0.22313
 H755 H 0.23145 0.11753 0.22895
 H756 H 0.30069 0.17146 0.20939
 H757 H 0.32412 0.14192 0.21513
 H758 H 0.25240 0.09278 0.23633
 H759 H 0.27769 0.06439 0.24166
 H760 H 0.33068 0.10545 0.22487
 C761 C 0.73993 0.66382 0.69886
 C762 C 0.75049 0.65788 0.71786
 C763 C 0.75016 0.67272 0.73488
 C764 C 0.73884 0.69215 0.73310
 C765 C 0.72830 0.69752 0.71429
 C766 C 0.72912 0.68336 0.69717
 C767 C 0.76121 0.66818 0.75352
 C768 C 0.77310 0.64941 0.75558
 C769 C 0.77394 0.63408 0.73916
 C770 C 0.76165 0.63796 0.72040
 C771 C 0.76060 0.62166 0.70500
 C772 C 0.77170 0.60250 0.70746
 C773 C 0.78473 0.59897 0.72505
 C774 C 0.78635 0.61480 0.74102
 C775 C 0.80070 0.61080 0.75797
 C776 C 0.81256 0.59179 0.75907
 C777 C 0.81038 0.57606 0.74353
 C778 C 0.79636 0.57969 0.72661
 H779 H 0.74011 0.65397 0.68485
 H780 H 0.73846 0.70334 0.74622
 H781 H 0.72117 0.68744 0.68245
 H782 H 0.76090 0.67939 0.76662
 H783 H 0.78103 0.64714 0.77056
 H784 H 0.75082 0.62298 0.69102
 H785 H 0.77028 0.59040 0.69528
 H786 H 0.80358 0.62223 0.77036
 H787 H 0.82342 0.58931 0.77224
 H788 H 0.79495 0.56768 0.71433
 C789 C 0.73303 0.32979 0.80482
 C790 C 0.74220 0.33603 0.78499
 C791 C 0.73799 0.32302 0.76710
 C792 C 0.72499 0.30479 0.76913
 C793 C 0.71610 0.29894 0.78888
 C794 C 0.72025 0.31159 0.80664
 C795 C 0.74685 0.32816 0.74727
 C796 C 0.76007 0.34582 0.74468
 C797 C 0.76489 0.35930 0.76193
 C798 C 0.75548 0.35454 0.78234
 C799 C 0.75957 0.36850 0.79939
 C800 C 0.77261 0.38626 0.79678
 C801 C 0.78230 0.39085 0.77718
 C802 C 0.77869 0.37747 0.75944
 C803 C 0.78924 0.38284 0.74000
 C804 C 0.80253 0.40072 0.73836
 C805 C 0.80587 0.41392 0.75593
 C806 C 0.79562 0.40884 0.77529
 H807 H 0.73550 0.33843 0.81933
 H808 H 0.72198 0.29491 0.75538
 H809 H 0.71345 0.30738 0.82204
 H810 H 0.74362 0.31832 0.73353
 H811 H 0.76611 0.34855 0.72878
 H812 H 0.75276 0.36631 0.81508
 H813 H 0.77523 0.39650 0.81036
 H814 H 0.78782 0.37346 0.72578
 H815 H 0.81053 0.40401 0.72329
 H816 H 0.79784 0.41907 0.78895
 C817 C 0.24046 -0.15490 0.30843
 C818 C 0.24788 -0.14765 0.28825
 C819 C 0.24146 -0.15931 0.27011
 C820 C 0.22786 -0.17708 0.27225
 C821 C 0.22064 -0.18386 0.29232
 C822 C 0.22711 -0.17269 0.31033
 C823 C 0.24869 -0.15327 0.24991
 C824 C 0.26243 -0.13603 0.24718
 C825 C 0.26936 -0.12384 0.26464
 C826 C 0.26155 -0.12944 0.28547
 C827 C 0.26746 -0.11652 0.30277
 C828 C 0.28081 -0.09900 0.29999
 C829 C 0.28906 -0.09370 0.27995
 C830 C 0.28365 -0.10608 0.26197
 C831 C 0.29295 -0.10018 0.24210
 C832 C 0.30665 -0.08263 0.24025
 C833 C 0.31163 -0.07028 0.25803
 C834 C 0.30274 -0.07599 0.27785
 H835 H 0.24484 -0.14740 0.32312
 H836 H 0.22309 -0.18592 0.25830
 H837 H 0.22169 -0.17774 0.32600
 H838 H 0.24376 -0.16208 0.23599
 H839 H 0.26707 -0.13249 0.23100
 H840 H 0.26179 -0.11929 0.31879
 H841 H 0.28481 -0.08952 0.31377
 H842 H 0.29028 -0.10893 0.22768
 H843 H 0.31363 -0.07890 0.22480
 H844 H 0.30625 -0.06645 0.29172
 C845 C 0.26047 -0.18310 0.74608
 C846 C 0.25132 -0.17014 0.72997
 C847 C 0.25535 -0.17611 0.70853
 C848 C 0.26842 -0.19390 0.70362
 C849 C 0.27755 -0.20631 0.71977
 C850 C 0.27332 -0.20081 0.74099
 C851 C 0.24641 -0.16428 0.69201
 C852 C 0.23337 -0.14664 0.69619
 C853 C 0.22886 -0.13988 0.71721
 C854 C 0.23832 -0.15159 0.73438
 C855 C 0.23473 -0.14419 0.75534
 C856 C 0.22217 -0.12619 0.75947
 C857 C 0.21244 -0.11491 0.74301
 C858 C 0.21545 -0.12164 0.72164
 C859 C 0.20475 -0.10981 0.70564
 C860 C 0.19204 -0.09199 0.71068
 C861 C 0.18946 -0.08522 0.73178
 C862 C 0.19971 -0.09686 0.74787
 H863 H 0.25788 -0.18018 0.76278
 H864 H 0.27172 -0.19801 0.68716
 H865 H 0.27995 -0.21039 0.75372
 H866 H 0.24950 -0.16875 0.67559
 H867 H 0.22733 -0.13842 0.68242
 H868 H 0.24168 -0.15178 0.76904
 H869 H 0.21998 -0.12109 0.77583
 H870 H 0.20555 -0.11400 0.68906
 H871 H 0.18390 -0.08364 0.69795
 H872 H 0.19799 -0.09172 0.76426
 C873 C 0.77744 0.34467 0.23102
 C874 C 0.75478 0.34420 0.22783
 C875 C 0.74555 0.32442 0.22204
 C876 C 0.75850 0.30601 0.21995
 C877 C 0.78080 0.30679 0.22341
 C878 C 0.79012 0.32627 0.22884
 C879 C 0.72342 0.32302 0.21845
 C880 C 0.71006 0.34081 0.22043
 C881 C 0.71830 0.36090 0.22626
 C882 C 0.74102 0.36260 0.23018
 C883 C 0.74919 0.38257 0.23646
 C884 C 0.73579 0.40029 0.23876
 C885 C 0.71371 0.39897 0.23485
 C886 C 0.70458 0.37934 0.22845
 C887 C 0.68206 0.37909 0.22447
 C888 C 0.66934 0.39746 0.22688
 C889 C 0.67848 0.41671 0.23335
 C890 C 0.70072 0.41731 0.23730
 H891 H 0.78598 0.35894 0.23512
 H892 H 0.75121 0.29091 0.21584
 H893 H 0.80739 0.32725 0.23132
 H894 H 0.71630 0.30793 0.21402
 H895 H 0.69320 0.33816 0.21739
 H896 H 0.76597 0.38513 0.23992
 H897 H 0.74284 0.41525 0.24368
 H898 H 0.67367 0.36504 0.21942
 H899 H 0.65215 0.39650 0.22389
 H900 H 0.70802 0.43223 0.24200
 C901 C 0.73250 0.67991 0.27832
 C902 C 0.73921 0.65886 0.27310
 C903 C 0.76178 0.65461 0.27208
 C904 C 0.77675 0.67055 0.27704
 C905 C 0.76972 0.69102 0.28290
 C906 C 0.74753 0.69562 0.28312
 C907 C 0.76936 0.63440 0.26639
 C908 C 0.75508 0.61810 0.26182
 C909 C 0.73244 0.62127 0.26307
 C910 C 0.72437 0.64194 0.26900
 C911 C 0.70176 0.64488 0.27114
 C912 C 0.68750 0.62828 0.26776
 C913 C 0.69506 0.60812 0.26186
 C914 C 0.71758 0.60433 0.25904
 C915 C 0.72421 0.58365 0.25242
 C916 C 0.70916 0.56745 0.24943
 C917 C 0.68704 0.57120 0.25292
 C918 C 0.68011 0.59166 0.25893
 H919 H 0.71578 0.68487 0.27879
 H920 H 0.79394 0.66695 0.27676
 H921 H 0.74181 0.71150 0.28716
 H922 H 0.78660 0.63108 0.26552
 H923 H 0.76242 0.60299 0.25779
 H924 H 0.69443 0.65978 0.27589
 H925 H 0.67030 0.63126 0.26989
 H926 H 0.74087 0.57938 0.24938
 H927 H 0.71492 0.55175 0.24478
 H928 H 0.66296 0.59481 0.26125
 C929 C 0.25720 0.16022 0.80176
 C930 C 0.24566 0.15499 0.78319
 C931 C 0.24558 0.17008 0.76632
 C932 C 0.25757 0.18897 0.76772
 C933 C 0.26901 0.19364 0.78611
 C934 C 0.26854 0.17933 0.80316
 C935 C 0.23343 0.16635 0.74823
 C936 C 0.22087 0.14816 0.74662
 C937 C 0.22051 0.13255 0.76286
 C938 C 0.23392 0.13554 0.78095
 C939 C 0.23556 0.11880 0.79593
 C940 C 0.22408 0.10000 0.79364
 C941 C 0.20999 0.09736 0.77675
 C942 C 0.20758 0.11377 0.76136
 C943 C 0.19203 0.11080 0.74531
 C944 C 0.17999 0.09208 0.74431
 C945 C 0.18319 0.07563 0.75903
 C946 C 0.19820 0.07836 0.77523
 H947 H 0.25731 0.15017 0.81569
 H948 H 0.25769 0.20035 0.75470
 H949 H 0.27717 0.18296 0.81757
 H950 H 0.23340 0.17777 0.73525
 H951 H 0.21210 0.14645 0.73205
 H952 H 0.24619 0.11946 0.80934
 H953 H 0.22607 0.08748 0.80540
 H954 H 0.18842 0.12283 0.73359
 H955 H 0.16828 0.09030 0.73179
 H956 H 0.20038 0.06578 0.78690
 C957 C 0.21374 0.27641 0.17547
 C958 C 0.22005 0.26995 0.15468
 C959 C 0.22388 0.24786 0.15124
 C960 C 0.22106 0.23306 0.16784
 C961 C 0.21454 0.23976 0.18816
 C962 C 0.21105 0.26153 0.19182
 C963 C 0.23041 0.24058 0.13124
 C964 C 0.23326 0.25467 0.11441
 C965 C 0.22953 0.27681 0.11683
 C966 C 0.22265 0.28456 0.13728
 C967 C 0.21838 0.30662 0.13957
 C968 C 0.22078 0.32065 0.12263
 C969 C 0.22762 0.31341 0.10270
 C970 C 0.23226 0.29144 0.09946
 C971 C 0.23946 0.28513 0.07890
 C972 C 0.24170 0.29996 0.06243
 C973 C 0.23685 0.32155 0.06574
 C974 C 0.22985 0.32815 0.08597
 H975 H 0.21082 0.29280 0.17975
 H976 H 0.22368 0.21619 0.16491
 H977 H 0.20626 0.26706 0.20751
 H978 H 0.23336 0.22372 0.12854
 H979 H 0.23824 0.24755 0.09956
 H980 H 0.21292 0.31367 0.15429
 H981 H 0.21721 0.33742 0.12518
 H982 H 0.24357 0.26889 0.07493
 H983 H 0.24698 0.29441 0.04689
 H984 H 0.22638 0.34491 0.08878
 C985 C 0.74788 0.74938 0.67202
 C986 C 0.73122 0.75831 0.65945
 C987 C 0.70955 0.75283 0.66473
 C988 C 0.70494 0.73962 0.68225
 C989 C 0.72163 0.73126 0.69462
 C990 C 0.74308 0.73607 0.68925
 C991 C 0.69256 0.76048 0.65247
 C992 C 0.69650 0.77325 0.63480
 C993 C 0.71773 0.77924 0.62882
 C994 C 0.73531 0.77220 0.64175
 C995 C 0.75632 0.77958 0.63676
 C996 C 0.76017 0.79296 0.61952
 C997 C 0.74338 0.79926 0.60629
 C998 C 0.72195 0.79233 0.61054
 C999 C 0.70569 0.79863 0.59612
 C1000 C 0.71051 0.81159 0.57863
 C1001 C 0.73162 0.81882 0.57482
 C1002 C 0.74798 0.81251 0.58877
 H1003 H 0.76481 0.75205 0.66881
 H1004 H 0.68834 0.73554 0.68619
 H1005 H 0.75618 0.72955 0.69857
 H1006 H 0.67597 0.75643 0.65651
 H1007 H 0.68239 0.77856 0.62639
 H1008 H 0.77022 0.77567 0.64617
 H1009 H 0.77656 0.79831 0.61642
 H1010 H 0.68915 0.79349 0.59758
 H1011 H 0.69763 0.81568 0.56783
 H1012 H 0.76437 0.81809 0.58614
 C1013 C 0.76559 0.72474 0.34308
 C1014 C 0.77136 0.74656 0.34333
 C1015 C 0.78260 0.75479 0.32532
 C1016 C 0.78674 0.74188 0.30748
 C1017 C 0.78064 0.72038 0.30740
 C1018 C 0.77027 0.71194 0.32547
 C1019 C 0.78973 0.77584 0.32519
 C1020 C 0.78646 0.78887 0.34278
 C1021 C 0.77527 0.78151 0.36108
 C1022 C 0.76672 0.76035 0.36094
 C1023 C 0.75342 0.75384 0.37817
 C1024 C 0.74918 0.76725 0.39528
 C1025 C 0.75848 0.78742 0.39625
 C1026 C 0.77195 0.79475 0.37936
 C1027 C 0.78185 0.81490 0.38170
 C1028 C 0.77813 0.82729 0.39982
 C1029 C 0.76427 0.82025 0.41620
 C1030 C 0.75443 0.80026 0.41416
 H1031 H 0.75797 0.71690 0.35646
 H1032 H 0.79479 0.74857 0.29359
 H1033 H 0.76589 0.69524 0.32602
 H1034 H 0.79822 0.78226 0.31141
 H1035 H 0.79237 0.80494 0.34128
 H1036 H 0.74548 0.73860 0.37865
 H1037 H 0.73873 0.76162 0.40807
 H1038 H 0.79310 0.82127 0.37013
 H1039 H 0.78655 0.84230 0.40114
 H1040 H 0.74349 0.79460 0.42652
 C1041 C 0.24930 0.24704 -0.17370
 C1042 C 0.26582 0.25742 -0.16232
 C1043 C 0.28760 0.25216 -0.16766
 C1044 C 0.29241 0.23765 -0.18406
 C1045 C 0.27585 0.22791 -0.19536
 C1046 C 0.25431 0.23256 -0.18989
 C1047 C 0.30452 0.26138 -0.15664
 C1048 C 0.30044 0.27566 -0.14023
 C1049 C 0.27910 0.28155 -0.13426
 C1050 C 0.26151 0.27266 -0.14581
 C1051 C 0.24026 0.27953 -0.14068
 C1052 C 0.23622 0.29428 -0.12466
 C1053 C 0.25309 0.30260 -0.11285
 C1054 C 0.27476 0.29626 -0.11730
 C1055 C 0.29116 0.30482 -0.10440
 C1056 C 0.28620 0.31923 -0.08814
 C1057 C 0.26480 0.32572 -0.08409
 C1058 C 0.24831 0.31727 -0.09655
 H1059 H 0.23233 0.24956 -0.17042
 H1060 H 0.30911 0.23377 -0.18800
 H1061 H 0.24128 0.22509 -0.19839
 H1062 H 0.32119 0.25746 -0.16072
 H1063 H 0.31453 0.28208 -0.13277
 H1064 H 0.22625 0.27408 -0.14902
 H1065 H 0.21963 0.29913 -0.12139
 H1066 H 0.30798 0.30048 -0.10612
 H1067 H 0.29923 0.32502 -0.07843
 H1068 H 0.23169 0.32225 -0.09369
 C1069 C 0.69043 0.24604 -0.16130
 C1070 C 0.71132 0.24014 -0.15417
 C1071 C 0.72940 0.24717 -0.16638
 C1072 C 0.72653 0.26010 -0.18442
 C1073 C 0.70578 0.26611 -0.19090
 C1074 C 0.68781 0.25880 -0.17933
 C1075 C 0.75029 0.24139 -0.16051
 C1076 C 0.75380 0.22867 -0.14278
 C1077 C 0.73645 0.22139 -0.12989
 C1078 C 0.71487 0.22755 -0.13546
 C1079 C 0.69762 0.22125 -0.12193
 C1080 C 0.70119 0.20922 -0.10375
 C1081 C 0.72201 0.20267 -0.09837
 C1082 C 0.73995 0.20842 -0.11142
 C1083 C 0.76065 0.20082 -0.10540
 C1084 C 0.76330 0.18847 -0.08709
 C1085 C 0.74554 0.18320 -0.07406
 C1086 C 0.72491 0.19039 -0.07990
 H1087 H 0.67574 0.24102 -0.15343
 H1088 H 0.74047 0.26553 -0.19354
 H1089 H 0.67163 0.26327 -0.18412
 H1090 H 0.76416 0.24675 -0.16978
 H1091 H 0.77048 0.22517 -0.13939
 H1092 H 0.68103 0.22569 -0.12470
 H1093 H 0.68742 0.20491 -0.09380
 H1094 H 0.77514 0.20384 -0.11459
 H1095 H 0.77938 0.18275 -0.08329
 H1096 H 0.71103 0.18666 -0.06988
 C1097 C 0.23783 0.75968 0.32898
 C1098 C 0.22147 0.75140 0.34264
 C1099 C 0.19999 0.75892 0.33977
 C1100 C 0.19527 0.77380 0.32370
 C1101 C 0.21170 0.78180 0.31045
 C1102 C 0.23295 0.77463 0.31324
 C1103 C 0.18333 0.75174 0.35305
 C1104 C 0.18746 0.73752 0.36948
 C1105 C 0.20854 0.72963 0.37320
 C1106 C 0.22572 0.73622 0.35917
 C1107 C 0.24653 0.72729 0.36206
 C1108 C 0.25062 0.71289 0.37833
 C1109 C 0.23428 0.70693 0.39260
 C1110 C 0.21302 0.71524 0.39037
 C1111 C 0.19722 0.70895 0.40565
 C1112 C 0.20235 0.69490 0.42213
 C1113 C 0.22333 0.68656 0.42407
 C1114 C 0.23920 0.69267 0.40915
 H1115 H 0.25464 0.75528 0.33020
 H1116 H 0.17883 0.77957 0.32174
 H1117 H 0.24586 0.78066 0.30313
 H1118 H 0.16686 0.75734 0.35084
 H1119 H 0.17358 0.73282 0.37887
 H1120 H 0.26012 0.73088 0.35179
 H1121 H 0.26686 0.70647 0.37987
 H1122 H 0.18081 0.71484 0.40562
 H1123 H 0.18986 0.69084 0.43367
 H1124 H 0.25545 0.68618 0.41030
 C1125 C 0.25939 0.74240 0.67696
 C1126 C 0.27528 0.73601 0.66173
 C1127 C 0.29683 0.74290 0.66482
 C1128 C 0.30204 0.75552 0.68243
 C1129 C 0.28604 0.76182 0.69712
 C1130 C 0.26476 0.75508 0.69428
 C1131 C 0.31309 0.73738 0.65025
 C1132 C 0.30850 0.72539 0.63238
 C1133 C 0.28733 0.71825 0.62836
 C1134 C 0.27051 0.72329 0.64350
 C1135 C 0.24952 0.71540 0.63993
 C1136 C 0.24498 0.70329 0.62213
 C1137 C 0.26101 0.69866 0.60702
 C1138 C 0.28241 0.70610 0.60978
 C1139 C 0.29792 0.70114 0.59369
 C1140 C 0.29241 0.68909 0.57596
 C1141 C 0.27131 0.68157 0.57351
 C1142 C 0.25569 0.68650 0.58913
 H1143 H 0.24260 0.73815 0.67590
 H1144 H 0.31851 0.76090 0.68449
 H1145 H 0.25220 0.75975 0.70556
 H1146 H 0.32960 0.74252 0.65261
 H1147 H 0.32210 0.72186 0.62207
 H1148 H 0.23613 0.71811 0.65073
 H1149 H 0.22861 0.69756 0.62014
 H1150 H 0.31443 0.70646 0.59412
 H1151 H 0.30472 0.68585 0.56394
 H1152 H 0.23935 0.68058 0.58754
 C1153 C 0.78940 0.23660 0.19116
 C1154 C 0.78571 0.24386 0.17014
 C1155 C 0.78418 0.26622 0.16681
 C1156 C 0.78687 0.28049 0.18373
 C1157 C 0.79086 0.27298 0.20431
 C1158 C 0.79191 0.25095 0.20785
 C1159 C 0.78006 0.27428 0.14659
 C1160 C 0.77728 0.26070 0.12947
 C1161 C 0.77876 0.23831 0.13181
 C1162 C 0.78341 0.22976 0.15242
 C1163 C 0.78589 0.20744 0.15457
 C1164 C 0.78367 0.19389 0.13735
 C1165 C 0.77869 0.20189 0.11731
 C1166 C 0.77597 0.22417 0.11419
 C1167 C 0.77045 0.23128 0.09353
 C1168 C 0.76800 0.21688 0.07684
 C1169 C 0.77102 0.19495 0.08004
 C1170 C 0.77636 0.18760 0.10036
 H1171 H 0.79024 0.21996 0.19537
 H1172 H 0.78608 0.29755 0.18088
 H1173 H 0.79463 0.24480 0.22371
 H1174 H 0.77891 0.29136 0.14396
 H1175 H 0.77427 0.26838 0.11447
 H1176 H 0.78989 0.19982 0.16936
 H1177 H 0.78582 0.17687 0.13980
 H1178 H 0.76770 0.24781 0.08968
 H1179 H 0.76394 0.22297 0.06125
 H1180 H 0.77834 0.17060 0.10308
 C1181 C 0.48991 0.42090 0.49239
 C1182 C 0.47331 0.40832 0.50172
 C1183 C 0.45166 0.41295 0.49595
 C1184 C 0.44703 0.42968 0.48178
 C1185 C 0.46367 0.44191 0.47281
 C1186 C 0.48509 0.43735 0.47819
 C1187 C 0.43470 0.40082 0.50421
 C1188 C 0.43867 0.38386 0.51788
 C1189 C 0.45989 0.37843 0.52408
 C1190 C 0.47745 0.39121 0.51631
 C1191 C 0.49851 0.38658 0.52353
 C1192 C 0.50243 0.36980 0.53741
 C1193 C 0.48566 0.35675 0.54453
 C1194 C 0.46415 0.36074 0.53794
 C1195 C 0.44786 0.34663 0.54535
 C1196 C 0.45279 0.32957 0.55879
 C1197 C 0.47405 0.32587 0.56540
 C1198 C 0.49038 0.33963 0.55820
 H1199 H 0.50683 0.41832 0.49543
 H1200 H 0.43043 0.43303 0.47740
 H1201 H 0.49817 0.44667 0.47138
 H1202 H 0.41812 0.40438 0.49994
 H1203 H 0.42457 0.37547 0.52353
 H1204 H 0.51244 0.39583 0.51896
 H1205 H 0.51889 0.36691 0.54251
 H1206 H 0.43119 0.34803 0.54079
 H1207 H 0.43990 0.31895 0.56370
 H1208 H 0.50687 0.33710 0.56336
 C1209 C -0.02213 0.90472 -0.02027
 C1210 C -0.02256 0.90490 0.00226
 C1211 C -0.02696 0.92466 0.01247
 C1212 C -0.02989 0.94341 0.00051
 C1213 C -0.02894 0.94297 -0.02175
 C1214 C -0.02531 0.92342 -0.03197
 C1215 C -0.02838 0.92567 0.03457
 C1216 C -0.02577 0.90746 0.04692
 C1217 C -0.02121 0.88740 0.03763
 C1218 C -0.01898 0.88621 0.01496
 C1219 C -0.01287 0.86649 0.00577
 C1220 C -0.00945 0.84845 0.01817
 C1221 C -0.01229 0.84914 0.04017
 C1222 C -0.01848 0.86852 0.05026
 C1223 C -0.02187 0.86807 0.07260
 C1224 C -0.01889 0.84931 0.08426
 C1225 C -0.01236 0.83039 0.07422
 C1226 C -0.00906 0.83044 0.05214
 H1227 H -0.01973 0.89037 -0.02941
 H1228 H -0.03275 0.95848 0.00854
 H1229 H -0.02502 0.92259 -0.04917
 H1230 H -0.03167 0.94074 0.04246
 H1231 H -0.02699 0.90980 0.06384
 H1232 H -0.01011 0.86449 -0.01105
 H1233 H -0.00463 0.83371 0.01038
 H1234 H -0.02713 0.88181 0.08156
 H1235 H -0.02153 0.84968 0.10133
 H1236 H -0.00437 0.81575 0.04420
 C1237 C 0.01448 0.59688 -0.02616
 C1238 C 0.01866 0.59696 -0.00405
 C1239 C 0.02467 0.57729 0.00551
 C1240 C 0.02625 0.55854 -0.00662
 C1241 C 0.02211 0.55884 -0.02845
 C1242 C 0.01621 0.57815 -0.03805
 C1243 C 0.02911 0.57635 0.02714
 C1244 C 0.02781 0.59451 0.03967
 C1245 C 0.02189 0.61453 0.03106
 C1246 C 0.01713 0.61576 0.00885
 C1247 C 0.01091 0.63573 0.00031
 C1248 C 0.00936 0.65383 0.01291
 C1249 C 0.01398 0.65293 0.03451
 C1250 C 0.02043 0.63335 0.04394
 C1251 C 0.02512 0.63349 0.06594
 C1252 C 0.02320 0.65214 0.07791
 C1253 C 0.01659 0.67136 0.06852
 C1254 C 0.01208 0.67161 0.04675
 H1255 H 0.00998 0.61099 -0.03487
 H1256 H 0.03065 0.54358 0.00093
 H1257 H 0.01313 0.57878 -0.05495
 H1258 H 0.03370 0.56135 0.03451
 H1259 H 0.03149 0.59219 0.05618
 H1260 H 0.00697 0.63798 -0.01615
 H1261 H 0.00443 0.66876 0.00562
 H1262 H 0.03026 0.61950 0.07450
 H1263 H 0.02652 0.65140 0.09476
 H1264 H 0.00723 0.68646 0.03925
 C1265 C 0.53078 0.06688 0.51009
 C1266 C 0.52623 0.08818 0.50387
 C1267 C 0.52389 0.09234 0.48183
 C1268 C 0.52684 0.07597 0.46681
 C1269 C 0.53187 0.05513 0.47327
 C1270 C 0.53354 0.05075 0.49503
 C1271 C 0.51877 0.11285 0.47482
 C1272 C 0.51578 0.12944 0.48916
 C1273 C 0.51811 0.12628 0.51126
 C1274 C 0.52386 0.10539 0.51870
 C1275 C 0.52742 0.10249 0.54066
 C1276 C 0.52513 0.11923 0.55493
 C1277 C 0.51896 0.13950 0.54805
 C1278 C 0.51515 0.14335 0.52618
 C1279 C 0.50835 0.16416 0.52023
 C1280 C 0.50571 0.18029 0.53534
 C1281 C 0.50979 0.17639 0.55684
 C1282 C 0.51648 0.15594 0.56306
 H1283 H 0.53214 0.06203 0.52645
 H1284 H 0.52555 0.07949 0.44999
 H1285 H 0.53702 0.03467 0.50041
 H1286 H 0.51700 0.11613 0.45799
 H1287 H 0.51200 0.14474 0.48227
 H1288 H 0.53240 0.08747 0.54741
 H1289 H 0.52814 0.11621 0.57162
 H1290 H 0.50466 0.16851 0.50411
 H1291 H 0.50058 0.19600 0.53012
 H1292 H 0.51934 0.15270 0.57974
 C1293 C -0.02052 0.05245 0.48149
 C1294 C -0.01569 0.07310 0.48920
 C1295 C -0.01254 0.07534 0.51138
 C1296 C -0.01452 0.05771 0.52508
 C1297 C -0.01951 0.03752 0.51715
 C1298 C -0.02239 0.03505 0.49529
 C1299 C -0.00755 0.09517 0.51988
 C1300 C -0.00555 0.11300 0.50691
 C1301 C -0.00860 0.11178 0.48473
 C1302 C -0.01389 0.09151 0.47574
 C1303 C -0.01736 0.09038 0.45362
 C1304 C -0.01568 0.10828 0.44070
 C1305 C -0.01040 0.12805 0.44915
 C1306 C -0.00667 0.13017 0.47125
 C1307 C -0.00112 0.15066 0.47885
 C1308 C 0.00053 0.16812 0.46510
 C1309 C -0.00332 0.16588 0.44335
 C1310 C -0.00878 0.14576 0.43551
 H1311 H -0.02291 0.04907 0.46493
 H1312 H -0.01245 0.05971 0.54204
 H1313 H -0.02609 0.01950 0.48886
 H1314 H -0.00514 0.09695 0.53683
 H1315 H -0.00172 0.12761 0.51493
 H1316 H -0.02158 0.07584 0.44567
 H1317 H -0.01855 0.10658 0.42382
 H1318 H 0.00213 0.15386 0.49530
 H1319 H 0.00458 0.18354 0.47160
 H1320 H -0.01147 0.14380 0.41862
 C1321 C 0.46775 0.56929 0.97765
 C1322 C 0.47509 0.58927 0.98500
 C1323 C 0.48129 0.59069 1.00657
 C1324 C 0.47900 0.57314 1.02030
 C1325 C 0.47125 0.55360 1.01287
 C1326 C 0.46598 0.55181 0.99136
 C1327 C 0.48969 0.60964 1.01440
 C1328 C 0.49248 0.62723 1.00122
 C1329 C 0.48638 0.62675 0.97967
 C1330 C 0.47671 0.60776 0.97167
 C1331 C 0.46846 0.60809 0.95085
 C1332 C 0.46999 0.62615 0.93810
 C1333 C 0.48034 0.64441 0.94529
 C1334 C 0.48911 0.64485 0.96599
 C1335 C 0.50051 0.66332 0.97202
 C1336 C 0.50242 0.68078 0.95833
 C1337 C 0.49293 0.68064 0.93821
 C1338 C 0.48197 0.66226 0.93181
 H1339 H 0.46369 0.56647 0.96130
 H1340 H 0.48313 0.57472 1.03691
 H1341 H 0.46047 0.53675 0.98510
 H1342 H 0.49435 0.61085 1.03090
 H1343 H 0.49886 0.64127 1.00864
 H1344 H 0.46007 0.59477 0.94411
 H1345 H 0.46317 0.62574 0.92232
 H1346 H 0.50868 0.66460 0.98698
 H1347 H 0.51172 0.69434 0.96350
 H1348 H 0.47447 0.66185 0.91635
 C1349 C 0.56054 0.91878 1.01124
 C1350 C 0.54041 0.91275 1.00265
 C1351 C 0.52191 0.92515 1.00831
 C1352 C 0.52359 0.94237 1.02242
 C1353 C 0.54361 0.94796 1.03074
 C1354 C 0.56203 0.93613 1.02499
 C1355 C 0.50184 0.92044 0.99975
 C1356 C 0.49965 0.90388 0.98536
 C1357 C 0.51750 0.89101 0.97916
 C1358 C 0.53807 0.89508 0.98848
 C1359 C 0.55551 0.88117 0.98359
 C1360 C 0.55312 0.86411 0.96982
 C1361 C 0.53343 0.86039 0.96002
 C1362 C 0.51539 0.87393 0.96425
 C1363 C 0.49604 0.86984 0.95322
 C1364 C 0.49457 0.85267 0.93924
 C1365 C 0.51224 0.83893 0.93568
 C1366 C 0.53169 0.84305 0.94606
 H1367 H 0.57554 0.91075 1.00738
 H1368 H 0.50938 0.95178 1.02666
 H1369 H 0.57766 0.94037 1.03124
 H1370 H 0.48763 0.92979 1.00411
 H1371 H 0.48351 0.90129 0.97970
 H1372 H 0.57124 0.88270 0.99053
 H1373 H 0.56693 0.85375 0.96673
 H1374 H 0.48180 0.87976 0.95473
 H1375 H 0.47951 0.85026 0.93101
 H1376 H 0.54547 0.83249 0.94360
 C1377 C 0.05745 0.40835 0.51070
 C1378 C 0.03731 0.40014 0.50410
 C1379 C 0.01825 0.41104 0.51095
 C1380 C 0.01949 0.42900 0.52416
 C1381 C 0.03954 0.43670 0.53062
 C1382 C 0.05845 0.42631 0.52371
 C1383 C -0.00198 0.40404 0.50456
 C1384 C -0.00385 0.38655 0.49125
 C1385 C 0.01455 0.37510 0.48391
 C1386 C 0.03544 0.38171 0.49085
 C1387 C 0.05373 0.36954 0.48450
 C1388 C 0.05182 0.35181 0.47153
 C1389 C 0.03171 0.34556 0.46411
 C1390 C 0.01276 0.35711 0.47003
 C1391 C -0.00716 0.35023 0.46162
 C1392 C -0.00810 0.33257 0.44818
 C1393 C 0.01067 0.32111 0.44261
 C1394 C 0.03053 0.32773 0.45071
 H1395 H 0.07278 0.40149 0.50594
 H1396 H 0.00484 0.43724 0.52929
 H1397 H 0.07410 0.43208 0.52854
 H1398 H -0.01659 0.41226 0.50983
 H1399 H -0.02012 0.38225 0.48725
 H1400 H 0.06988 0.37308 0.48953
 H1401 H 0.06634 0.34296 0.46713
 H1402 H -0.02231 0.35828 0.46477
 H1403 H -0.02361 0.32810 0.44183
 H1404 H 0.04515 0.31886 0.44673
 C1405 C 0.42168 0.49589 0.48804
 C1406 C 0.40709 0.50278 0.47218
 C1407 C 0.41030 0.49471 0.45131
 C1408 C 0.42741 0.48049 0.44671
 C1409 C 0.44156 0.47383 0.46264
 C1410 C 0.43854 0.48169 0.48327
 C1411 C 0.39637 0.50074 0.43511
 C1412 C 0.37907 0.51447 0.43908
 C1413 C 0.37499 0.52291 0.45957
 C1414 C 0.38942 0.51720 0.47634
 C1415 C 0.38571 0.52611 0.49668
 C1416 C 0.36845 0.53986 0.50066
 C1417 C 0.35405 0.54527 0.48465
 C1418 C 0.35702 0.53693 0.46386
 C1419 C 0.34171 0.54293 0.44832
 C1420 C 0.32443 0.55661 0.45329
 C1421 C 0.32168 0.56480 0.47385
 C1422 C 0.33664 0.55905 0.48943
 H1423 H 0.42051 0.50099 0.50434
 H1424 H 0.42956 0.47427 0.43074
 H1425 H 0.44938 0.47683 0.49579
 H1426 H 0.39880 0.49467 0.41911
 H1427 H 0.36922 0.51824 0.42559
 H1428 H 0.39596 0.52290 0.51002
 H1429 H 0.36630 0.54627 0.51655
 H1430 H 0.34242 0.53724 0.43219
 H1431 H 0.31294 0.56053 0.44100
 H1432 H 0.33487 0.56553 0.50534
 C1433 C 0.94185 0.01548 -0.02397
 C1434 C 0.92036 0.00978 -0.01836
 C1435 C 0.91568 -0.01228 -0.01643
 C1436 C 0.93161 -0.02778 -0.02106
 C1437 C 0.95248 -0.02176 -0.02750
 C1438 C 0.95753 -0.00005 -0.02848
 C1439 C 0.89502 -0.01883 -0.01026
 C1440 C 0.87869 -0.00401 -0.00615
 C1441 C 0.88226 0.01813 -0.00839
 C1442 C 0.90340 0.02513 -0.01481
 C1443 C 0.90671 0.04719 -0.01803
 C1444 C 0.89005 0.06192 -0.01522
 C1445 C 0.86946 0.05541 -0.00883
 C1446 C 0.86527 0.03350 -0.00493
 C1447 C 0.84417 0.02797 0.00218
 C1448 C 0.82795 0.04344 0.00467
 C1449 C 0.83209 0.06492 0.00016
 C1450 C 0.85296 0.07079 -0.00644
 H1451 H 0.94717 0.03177 -0.02505
 H1452 H 0.92765 -0.04458 -0.02023
 H1453 H 0.97371 0.00490 -0.03301
 H1454 H 0.89138 -0.03566 -0.00868
 H1455 H 0.86322 -0.01056 -0.00170
 H1456 H 0.92197 0.05369 -0.02324
 H1457 H 0.89334 0.07864 -0.01818
 H1458 H 0.83959 0.01186 0.00605
 H1459 H 0.81194 0.03850 0.00979
 H1460 H 0.85640 0.08746 -0.00958
 C1461 C 0.58178 0.00336 0.01449
 C1462 C 0.59502 0.01169 0.03067
 C1463 C 0.59082 0.00489 0.05186
 C1464 C 0.57425 -0.00973 0.05642
 C1465 C 0.56162 -0.01801 0.04013
 C1466 C 0.56545 -0.01122 0.01922
 C1467 C 0.60334 0.01247 0.06842
 C1468 C 0.62028 0.02643 0.06449
 C1469 C 0.62544 0.03346 0.04368
 C1470 C 0.61238 0.02622 0.02652
 C1471 C 0.61721 0.03366 0.00578
 C1472 C 0.63438 0.04728 0.00178
 C1473 C 0.64753 0.05409 0.01820
 C1474 C 0.64327 0.04742 0.03941
 C1475 C 0.65726 0.05489 0.05540
 C1476 C 0.67463 0.06821 0.05041
 C1477 C 0.67876 0.07459 0.02940
 C1478 C 0.66503 0.06751 0.01339
 H1479 H 0.58367 0.00753 -0.00203
 H1480 H 0.57145 -0.01511 0.07262
 H1481 H 0.55575 -0.01734 0.00643
 H1482 H 0.60012 0.00742 0.08466
 H1483 H 0.62905 0.03139 0.07826
 H1484 H 0.60802 0.02925 -0.00791
 H1485 H 0.63749 0.05244 -0.01444
 H1486 H 0.65546 0.05061 0.07191
 H1487 H 0.68514 0.07323 0.06306
 H1488 H 0.66791 0.07260 -0.00289
 C1489 C 0.07398 0.49424 0.51271
 C1490 C 0.08784 0.50275 0.52827
 C1491 C 0.08527 0.49529 0.54948
 C1492 C 0.06937 0.48015 0.55469
 C1493 C 0.05607 0.47178 0.53900
 C1494 C 0.05847 0.47901 0.51805
 C1495 C 0.09877 0.50270 0.56536
 C1496 C 0.11526 0.51695 0.56065
 C1497 C 0.11879 0.52464 0.53976
 C1498 C 0.10439 0.51798 0.52345
 C1499 C 0.10697 0.52682 0.50290
 C1500 C 0.12344 0.54108 0.49820
 C1501 C 0.13818 0.54698 0.51363
 C1502 C 0.13618 0.53886 0.53463
 C1503 C 0.15194 0.54507 0.54950
 C1504 C 0.16872 0.55881 0.54371
 C1505 C 0.17047 0.56691 0.52298
 C1506 C 0.15503 0.56094 0.50805
 H1507 H 0.07496 0.49860 0.49616
 H1508 H 0.06770 0.47436 0.57089
 H1509 H 0.04829 0.47269 0.50571
 H1510 H 0.09676 0.49719 0.58162
 H1511 H 0.12485 0.52182 0.57392
 H1512 H 0.09634 0.52325 0.49000
 H1513 H 0.12477 0.54740 0.48217
 H1514 H 0.15210 0.53930 0.56563
 H1515 H 0.18065 0.56278 0.55548
 H1516 H 0.15604 0.56726 0.49201
 C1517 C 0.05519 0.48818 -0.03586
 C1518 C 0.07652 0.49529 -0.03212
 C1519 C 0.07980 0.51761 -0.03054
 C1520 C 0.06255 0.53202 -0.03338
 C1521 C 0.04167 0.52467 -0.03746
 C1522 C 0.03817 0.50266 -0.03847
 C1523 C 0.10028 0.52551 -0.02624
 C1524 C 0.11772 0.51179 -0.02329
 C1525 C 0.11545 0.48943 -0.02487
 C1526 C 0.09461 0.48107 -0.02983
 C1527 C 0.09264 0.45882 -0.03270
 C1528 C 0.11025 0.44516 -0.03057
 C1529 C 0.13050 0.45297 -0.02520
 C1530 C 0.13341 0.47516 -0.02200
 C1531 C 0.15422 0.48206 -0.01592
 C1532 C 0.17130 0.46759 -0.01357
 C1533 C 0.16837 0.44579 -0.01721
 C1534 C 0.14789 0.43859 -0.02301
 H1535 H 0.05099 0.47157 -0.03664
 H1536 H 0.06540 0.54905 -0.03265
 H1537 H 0.02208 0.49662 -0.04125
 H1538 H 0.10288 0.54256 -0.02506
 H1539 H 0.13293 0.51934 -0.02020
 H1540 H 0.07771 0.45137 -0.03705
 H1541 H 0.10795 0.42822 -0.03309
 H1542 H 0.15787 0.49849 -0.01263
 H1543 H 0.18701 0.47356 -0.00914
 H1544 H 0.14540 0.42167 -0.02550
 C1545 C 0.56537 0.98616 0.46118
 C1546 C 0.58631 0.99239 0.46756
 C1547 C 0.58998 1.01450 0.47059
 C1548 C 0.57331 1.02948 0.46749
 C1549 C 0.55276 1.02295 0.46123
 C1550 C 0.54897 1.00123 0.45808
 C1551 C 0.61028 1.02163 0.47660
 C1552 C 0.62725 1.00737 0.47955
 C1553 C 0.62460 0.98520 0.47669
 C1554 C 0.60370 0.97754 0.47090
 C1555 C 0.60087 0.95531 0.46874
 C1556 C 0.61781 0.94105 0.47184
 C1557 C 0.63832 0.94824 0.47708
 C1558 C 0.64212 0.97039 0.47954
 C1559 C 0.66339 0.97674 0.48463
 C1560 C 0.67993 0.96172 0.48730
 C1561 C 0.67599 0.93988 0.48500
 C1562 C 0.65509 0.93329 0.47987
 H1563 H 0.56107 0.96982 0.45826
 H1564 H 0.57632 1.04634 0.46970
 H1565 H 0.53314 0.99592 0.45326
 H1566 H 0.61312 1.03850 0.47900
 H1567 H 0.64229 1.01436 0.48426
 H1568 H 0.58562 0.94826 0.46479
 H1569 H 0.61480 0.92413 0.47002
 H1570 H 0.66796 0.99316 0.48645
 H1571 H 0.69602 0.96731 0.49087
 H1572 H 0.65178 0.91640 0.47828
 C1573 C 0.94465 0.96979 0.52892
 C1574 C 0.92372 0.97791 0.52442
 C1575 C 0.92140 1.00033 0.52207
 C1576 C 0.93921 1.01383 0.52449
 C1577 C 0.95971 1.00550 0.52902
 C1578 C 0.96226 0.98340 0.53115
 C1579 C 0.90134 1.00926 0.51732
 C1580 C 0.88339 0.99648 0.51459
 C1581 C 0.88470 0.97406 0.51667
 C1582 C 0.90512 0.96464 0.52203
 C1583 C 0.90620 0.94230 0.52499
 C1584 C 0.88814 0.92956 0.52256
 C1585 C 0.86828 0.93841 0.51691
 C1586 C 0.86623 0.96075 0.51373
 C1587 C 0.84573 0.96877 0.50758
 C1588 C 0.82818 0.95520 0.50494
 C1589 C 0.83031 0.93320 0.50832
 C1590 C 0.85044 0.92493 0.51434
 H1591 H 0.94810 0.95301 0.53061
 H1592 H 0.93713 1.03095 0.52296
 H1593 H 0.97806 0.97664 0.53441
 H1594 H 0.89950 1.02640 0.51560
 H1595 H 0.86859 1.00482 0.51104
 H1596 H 0.92080 0.93407 0.52945
 H1597 H 0.88978 0.91250 0.52506
 H1598 H 0.84264 0.98540 0.50451
 H1599 H 0.81275 0.96202 0.50045
 H1600 H 0.85232 0.90787 0.51669
 C1601 C 0.43627 0.48535 0.02452
 C1602 C 0.41512 0.49309 0.02037
 C1603 C 0.41229 0.51550 0.01836
 C1604 C 0.42984 0.52933 0.02074
 C1605 C 0.45058 0.52133 0.02482
 C1606 C 0.45361 0.49928 0.02670
 C1607 C 0.39197 0.52405 0.01395
 C1608 C 0.37428 0.51090 0.01121
 C1609 C 0.37612 0.48849 0.01297
 C1610 C 0.39680 0.47946 0.01802
 C1611 C 0.39843 0.45712 0.02070
 C1612 C 0.38067 0.44400 0.01826
 C1613 C 0.36057 0.45247 0.01288
 C1614 C 0.35794 0.47480 0.01000
 C1615 C 0.33721 0.48240 0.00410
 C1616 C 0.31997 0.46843 0.00143
 C1617 C 0.32268 0.44646 0.00455
 C1618 C 0.34306 0.43861 0.01028
 H1619 H 0.44011 0.46863 0.02595
 H1620 H 0.42741 0.54644 0.01948
 H1621 H 0.46957 0.49280 0.02969
 H1622 H 0.38972 0.54117 0.01249
 H1623 H 0.35924 0.51895 0.00794
 H1624 H 0.41325 0.44915 0.02495
 H1625 H 0.38273 0.42695 0.02054
 H1626 H 0.33370 0.49900 0.00124
 H1627 H 0.30433 0.47491 -0.00288
 H1628 H 0.34540 0.42157 0.01238
 C1629 C 0.48944 0.44389 0.40823
 C1630 C 0.49731 0.46383 0.40089
 C1631 C 0.49174 0.48221 0.41297
 C1632 C 0.47882 0.48052 0.43145
 C1633 C 0.47139 0.46064 0.43849
 C1634 C 0.47675 0.44242 0.42670
 C1635 C 0.49925 0.50220 0.40670
 C1636 C 0.51256 0.50445 0.38888
 C1637 C 0.51885 0.48669 0.37640
 C1638 C 0.51071 0.46610 0.38224
 C1639 C 0.51622 0.44849 0.36923
 C1640 C 0.52957 0.45072 0.35146
 C1641 C 0.53814 0.47049 0.34592
 C1642 C 0.53296 0.48881 0.35823
 C1643 C 0.54238 0.50843 0.35190
 C1644 C 0.55619 0.50966 0.33417
 C1645 C 0.56117 0.49149 0.32209
 C1646 C 0.55197 0.47197 0.32807
 H1647 H 0.49296 0.42904 0.40031
 H1648 H 0.47486 0.49464 0.44069
 H1649 H 0.47107 0.42691 0.43186
 H1650 H 0.49494 0.51632 0.41580
 H1651 H 0.51754 0.52049 0.38527
 H1652 H 0.51037 0.43261 0.37222
 H1653 H 0.53336 0.43669 0.34202
 H1654 H 0.53972 0.52311 0.36041
 H1655 H 0.56333 0.52491 0.33013
 H1656 H 0.55545 0.45783 0.31868
 C1657 C -0.01642 -0.02112 0.91040
 C1658 C 0.00594 -0.02618 0.90927
 C1659 C 0.01535 -0.03610 0.92724
 C1660 C 0.00301 -0.03968 0.94583
 C1661 C -0.01900 -0.03416 0.94679
 C1662 C -0.02859 -0.02511 0.92881
 C1663 C 0.03703 -0.04238 0.92661
 C1664 C 0.04961 -0.03943 0.90837
 C1665 C 0.04109 -0.02950 0.89008
 C1666 C 0.01915 -0.02202 0.89086
 C1667 C 0.01127 -0.01023 0.87340
 C1668 C 0.02410 -0.00642 0.85553
 C1669 C 0.04511 -0.01456 0.85406
 C1670 C 0.05389 -0.02644 0.87116
 C1671 C 0.07501 -0.03501 0.86840
 C1672 C 0.08687 -0.03162 0.84963
 C1673 C 0.07826 -0.01948 0.83297
 C1674 C 0.05735 -0.01090 0.83544
 H1675 H -0.02515 -0.01449 0.89721
 H1676 H 0.01053 -0.04674 0.95967
 H1677 H -0.04568 -0.02117 0.92900
 H1678 H 0.04435 -0.04988 0.94033
 H1679 H 0.06621 -0.04465 0.90932
 H1680 H -0.00468 -0.00319 0.87324
 H1681 H 0.01736 0.00283 0.84258
 H1682 H 0.08266 -0.04491 0.88018
 H1683 H 0.10273 -0.03895 0.84804
 H1684 H 0.05051 -0.00125 0.82285
 C1685 C 0.02972 0.01753 0.56185
 C1686 C 0.02257 0.01143 0.58249
 C1687 C 0.00021 0.00721 0.58546
 C1688 C -0.01429 0.00982 0.56865
 C1689 C -0.00697 0.01630 0.54849
 C1690 C 0.01516 0.01990 0.54523
 C1691 C -0.00768 0.00055 0.60523
 C1692 C 0.00611 -0.00213 0.62226
 C1693 C 0.02847 0.00209 0.62031
 C1694 C 0.03678 0.00937 0.60020
 C1695 C 0.05890 0.01475 0.59859
 C1696 C 0.07248 0.01304 0.61589
 C1697 C 0.06475 0.00562 0.63545
 C1698 C 0.04275 -0.00031 0.63793
 C1699 C 0.03601 -0.00842 0.65800
 C1700 C 0.05038 -0.00993 0.67488
 C1701 C 0.07189 -0.00345 0.67244
 C1702 C 0.07900 0.00418 0.65261
 H1703 H 0.04644 0.02042 0.55788
 H1704 H -0.03142 0.00708 0.57132
 H1705 H 0.02121 0.02456 0.52967
 H1706 H -0.02476 -0.00268 0.60758
 H1707 H -0.00147 -0.00714 0.63694
 H1708 H 0.06625 0.02082 0.58420
 H1709 H 0.08929 0.01759 0.61392
 H1710 H 0.01982 -0.01386 0.66125
 H1711 H 0.04449 -0.01587 0.69007
 H1712 H 0.09576 0.00885 0.65048
 C1713 C 0.52020 0.53122 0.05767
 C1714 C 0.51266 0.52651 0.07856
 C1715 C 0.48999 0.52448 0.08175
 C1716 C 0.47571 0.52743 0.06483
 C1717 C 0.48348 0.53232 0.04440
 C1718 C 0.50581 0.53405 0.04096
 C1719 C 0.48159 0.51960 0.10183
 C1720 C 0.49513 0.51659 0.11898
 C1721 C 0.51782 0.51850 0.11681
 C1722 C 0.52673 0.52374 0.09630
 C1723 C 0.54937 0.52620 0.09426
 C1724 C 0.56288 0.52355 0.11151
 C1725 C 0.55451 0.51823 0.13150
 C1726 C 0.53190 0.51550 0.13450
 C1727 C 0.52440 0.50980 0.15514
 C1728 C 0.53873 0.50711 0.17190
 C1729 C 0.56099 0.51001 0.16882
 C1730 C 0.56875 0.51559 0.14854
 H1731 H 0.53710 0.53274 0.05359
 H1732 H 0.45840 0.52616 0.06755
 H1733 H 0.51212 0.53757 0.02520
 H1734 H 0.46427 0.51805 0.10433
 H1735 H 0.48715 0.51295 0.13385
 H1736 H 0.55728 0.53039 0.07949
 H1737 H 0.58014 0.52568 0.10914
 H1738 H 0.50760 0.50719 0.15896
 H1739 H 0.53228 0.50299 0.18747
 H1740 H 0.58601 0.51756 0.14592
 C1741 C 0.51167 -0.04833 0.09259
 C1742 C 0.50284 -0.02836 0.09895
 C1743 C 0.50855 -0.01018 0.08666
 C1744 C 0.52258 -0.01208 0.06897
 C1745 C 0.53114 -0.03196 0.06299
 C1746 C 0.52553 -0.05001 0.07495
 C1747 C 0.50019 0.00984 0.09199
 C1748 C 0.48606 0.01233 0.10916
 C1749 C 0.47971 -0.00520 0.12190
 C1750 C 0.48848 -0.02585 0.11689
 C1751 C 0.48265 -0.04327 0.13002
 C1752 C 0.46855 -0.04078 0.14720
 C1753 C 0.45953 -0.02091 0.15204
 C1754 C 0.46492 -0.00279 0.13953
 C1755 C 0.45509 0.01695 0.14518
 C1756 C 0.44066 0.01847 0.16241
 C1757 C 0.43544 0.00049 0.17467
 C1758 C 0.44506 -0.01915 0.16938
 H1759 H 0.50816 -0.06305 0.10075
 H1760 H 0.52667 0.00191 0.05962
 H1761 H 0.53204 -0.06553 0.07067
 H1762 H 0.50457 0.02379 0.08269
 H1763 H 0.48048 0.02839 0.11206
 H1764 H 0.48880 -0.05920 0.12756
 H1765 H 0.46456 -0.05466 0.15677
 H1766 H 0.45794 0.03152 0.13653
 H1767 H 0.43322 0.03379 0.16591
 H1768 H 0.44139 -0.03314 0.17891
 C1769 C 1.00817 0.44040 0.59266
 C1770 C 0.99794 0.45995 0.59827
 C1771 C 1.00281 0.47813 0.58562
 C1772 C 1.01709 0.47655 0.56810
 C1773 C 1.02674 0.45700 0.56265
 C1774 C 1.02226 0.43904 0.57518
 C1775 C 0.99328 0.49779 0.59037
 C1776 C 0.97879 0.49992 0.60730
 C1777 C 0.97315 0.48235 0.62030
 C1778 C 0.98300 0.46205 0.61580
 C1779 C 0.97751 0.44451 0.62892
 C1780 C 0.96287 0.44659 0.64572
 C1781 C 0.95301 0.46615 0.65021
 C1782 C 0.95796 0.48436 0.63766
 C1783 C 0.94738 0.50380 0.64303
 C1784 C 0.93271 0.50497 0.66009
 C1785 C 0.92795 0.48691 0.67239
 C1786 C 0.93820 0.46753 0.66731
 H1787 H 1.00563 0.42577 0.60131
 H1788 H 1.02041 0.49049 0.55837
 H1789 H 1.02973 0.42381 0.57138
 H1790 H 0.99701 0.51174 0.58080
 H1791 H 0.97226 0.51571 0.60971
 H1792 H 0.98424 0.42878 0.62668
 H1793 H 0.95918 0.43264 0.65530
 H1794 H 0.94995 0.51844 0.63440
 H1795 H 0.92482 0.52010 0.66350
 H1796 H 0.93487 0.45350 0.67691
 C1797 C 0.97124 0.53283 0.93129
 C1798 C 0.97793 0.52574 0.91082
 C1799 C 1.00050 0.52395 0.90668
 C1800 C 1.01548 0.52856 0.92256
 C1801 C 1.00851 0.53522 0.94275
 C1802 C 0.98633 0.53746 0.94692
 C1803 C 1.00810 0.51756 0.88672
 C1804 C 0.99384 0.51309 0.87053
 C1805 C 0.97120 0.51464 0.87369
 C1806 C 0.96310 0.52056 0.89432
 C1807 C 0.94047 0.52087 0.89783
 C1808 C 0.92622 0.51606 0.88170
 C1809 C 0.93381 0.51100 0.86135
 C1810 C 0.95638 0.51029 0.85695
 C1811 C 0.96312 0.50554 0.83586
 C1812 C 0.94809 0.50164 0.82000
 C1813 C 0.92583 0.50223 0.82448
 C1814 C 0.91885 0.50681 0.84530
 H1815 H 0.95451 0.53517 0.93577
 H1816 H 1.03269 0.52710 0.91923
 H1817 H 0.98067 0.54264 0.96246
 H1818 H 1.02533 0.51606 0.88353
 H1819 H 1.00119 0.50814 0.85571
 H1820 H 0.93315 0.52452 0.91303
 H1821 H 0.90899 0.51650 0.88519
 H1822 H 0.97985 0.50515 0.83086
 H1823 H 0.95401 0.49865 0.80399
 H1824 H 0.90167 0.50712 0.84906
 C1825 C 0.52097 0.03023 0.40081
 C1826 C 0.49815 0.03271 0.40132
 C1827 C 0.48820 0.03810 0.42108
 C1828 C 0.50063 0.04028 0.43948
 C1829 C 0.52310 0.03725 0.43869
 C1830 C 0.53311 0.03245 0.41918
 C1831 C 0.46587 0.04110 0.42247
 C1832 C 0.45300 0.03877 0.40472
 C1833 C 0.46197 0.03311 0.38471
 C1834 C 0.48492 0.02992 0.38300
 C1835 C 0.49384 0.02377 0.36313
 C1836 C 0.48093 0.02080 0.34554
 C1837 C 0.45862 0.02393 0.34688
 C1838 C 0.44875 0.03030 0.36638
 C1839 C 0.42601 0.03355 0.36662
 C1840 C 0.41379 0.03036 0.34840
 C1841 C 0.42367 0.02380 0.32932
 C1842 C 0.44613 0.02068 0.32870
 H1843 H 0.53004 0.02661 0.38652
 H1844 H 0.49280 0.04394 0.45459
 H1845 H 0.55051 0.03035 0.41817
 H1846 H 0.45819 0.04527 0.43752
 H1847 H 0.43593 0.04129 0.40737
 H1848 H 0.51085 0.02082 0.36057
 H1849 H 0.48855 0.01594 0.33067
 H1850 H 0.41708 0.03859 0.38057
 H1851 H 0.39643 0.03276 0.34935
 H1852 H 0.45399 0.01595 0.31390
   
