data_POSCAR
  _audit_creation_date              2014-09-24
  _audit_creation_method            'ToBaCCo'
  _symmetry_space_group_name_H-M    'P1'
  _symmetry_Int_Tables_number       1
  _symmetry_cell_setting            triclinic
  loop_
  _symmetry_equiv_pos_as_xyz
 x,y,z
_cell_length_a 49.0467
_cell_length_b 49.3188
_cell_length_c 49.3932
_cell_angle_alpha 89.983900
_cell_angle_beta 89.905100
_cell_angle_gamma 90.210600
loop_
  _atom_site_label
  _atom_site_type_symbol
  _atom_site_fract_x
  _atom_site_fract_y
  _atom_site_fract_z
N1 N 0.31000 0.43997 0.93938
 N2 N 0.44137 0.80958 0.43912
 N3 N 0.93986 0.93904 0.81245
 N4 N 0.43380 -0.06397 0.31374
 N5 N 0.81406 0.31405 0.30954
 N6 N -0.18900 0.80993 0.81019
 N7 N 0.94196 0.31346 0.43503
 N8 N 0.43874 0.43831 0.81352
 N9 N 0.80797 0.94280 0.93925
 N10 N 0.30950 0.81160 0.31088
 N11 N 0.81149 0.43793 0.43678
 N12 N 0.93709 0.81079 -0.06267
 N13 N 0.31530 0.31187 0.81137
 N14 N 0.18714 0.56297 0.56243
 N15 N 0.56006 0.68822 0.06266
 N16 N 0.69348 0.18871 0.68534
 N17 N 1.05541 0.05802 0.19092
 N18 N 0.06221 0.18766 1.05867
 N19 N 0.18751 0.68579 0.68703
 N20 N 1.19181 0.18792 0.18730
 N21 N 0.69071 1.06021 0.56165
 N22 N 0.55894 0.56001 0.19171
 N23 N 0.68882 0.69017 0.18768
 N24 N 0.18923 0.06116 1.06166
 N25 N 0.56528 0.18620 0.56238
 N26 N 0.06291 0.56291 0.68811
 N27 N 0.68884 0.56302 0.06282
 N28 N 0.05980 0.68947 0.55989
 N29 N 0.56271 1.06303 0.68687
 N30 N 0.44104 0.31095 0.93879
 N31 N 0.93723 0.43487 0.31362
 N32 N 0.31129 0.94017 0.43835
 O33 O 0.25241 0.46361 0.82031
 O34 O 0.20481 0.46430 0.80942
 O35 O 0.28748 0.42829 0.74897
 O36 O 0.28656 0.43696 0.70410
 O37 O 0.32367 0.49909 0.78378
 O38 O 0.31233 0.54641 0.78312
 O39 O 0.21593 0.50383 0.67844
 O40 O 0.22267 0.45606 0.68429
 O41 O 0.17969 0.53355 0.74616
 O42 O 0.18841 0.52846 0.79649
 O43 O 0.24789 0.57194 0.71703
 O44 O 0.29780 0.56267 0.71888
 O45 O 0.24827 0.53698 0.67945
 O46 O 0.29786 0.53518 0.68882
 O47 O 0.21486 0.56999 0.74934
 O48 O 0.21642 0.55860 0.79769
 O49 O 0.17992 0.50085 0.71371
 O50 O 0.19002 0.45271 0.71529
 O51 O 0.28544 0.49617 0.82116
 O52 O 0.28163 0.54439 0.81305
 O53 O 0.32463 0.46756 0.75014
 O54 O 0.31434 0.47256 0.70218
 O55 O 0.25489 0.42697 0.78185
 O56 O 0.20641 0.43509 0.77835
 Zr57 Zr 0.23678 0.46552 0.78070
 O58 O 0.21023 0.48951 0.75746
 Zr59 Zr 0.28513 0.46811 0.73353
 O60 O 0.26060 0.49217 0.70805
 Zr61 Zr 0.28364 0.51433 0.78261
 O62 O 0.25925 0.54049 0.75936
 Zr63 Zr 0.21928 0.48448 0.71618
 O64 O 0.24374 0.45783 0.73928
 Zr65 Zr 0.21794 0.53065 0.76522
 O66 O 0.24225 0.50659 0.79110
 Zr67 Zr 0.26620 0.53333 0.71796
 O68 O 0.29314 0.50938 0.74134
 O69 O 0.27795 0.47345 0.77459
 O70 O 0.22490 0.52565 0.72395
 C71 C 0.27168 0.47677 0.83209
 C72 C 0.27443 0.41626 0.76818
 C73 C 0.33580 0.48093 0.76953
 C74 C 0.22868 0.52409 0.66793
 C75 C 0.16866 0.52051 0.72645
 C76 C 0.22808 0.58233 0.73058
 H77 H 0.19115 0.48461 0.76168
 H78 H 0.26331 0.55945 0.76445
 H79 H 0.28984 0.46194 0.78591
 H80 H 0.26490 0.48845 0.68885
 H81 H 0.23121 0.43963 0.69203
 H82 H 0.27664 0.44347 0.68795
 H83 H 0.23310 0.56989 0.79680
 H84 H 0.26373 0.54214 0.82209
 H85 H 0.17941 0.45331 0.73231
 H86 H 0.20853 0.42631 0.76044
 H87 H 0.29509 0.57401 0.73517
 H88 H 0.32142 0.54633 0.76521
 H89 H 0.20448 0.48234 0.81818
 H90 H 0.17540 0.51378 0.79197
 H91 H 0.32354 0.49022 0.70507
 H92 H 0.29581 0.51939 0.67664
 O93 O 0.24568 0.06977 0.21542
 O94 O 0.29337 0.05852 0.21687
 O95 O 0.21123 -0.00134 0.17820
 O96 O 0.20979 -0.04586 0.18660
 O97 O 0.17412 0.03387 0.24889
 O98 O 0.18471 0.03119 0.29661
 O99 O 0.27851 -0.07444 0.25218
 O100 O 0.27376 -0.06617 0.20477
 O101 O 0.31818 -0.00545 0.28298
 O102 O 0.30877 0.04398 0.28115
 O103 O 0.24818 -0.03655 0.32139
 O104 O 0.19855 -0.03293 0.31229
 O105 O 0.24653 -0.07298 0.28555
 O106 O 0.19730 -0.06201 0.28374
 O107 O 0.28270 -0.00572 0.31996
 O108 O 0.28067 0.04397 0.31079
 O109 O 0.31627 -0.03934 0.25183
 O110 O 0.30746 -0.03664 0.20375
 O111 O 0.21353 0.07078 0.24870
 O112 O 0.21569 0.06093 0.29601
 O113 O 0.17317 0.00094 0.21662
 O114 O 0.18208 -0.04749 0.22158
 O115 O 0.24448 0.03097 0.17757
 O116 O 0.29215 0.02844 0.18703
 Zr117 Zr 0.26116 0.02991 0.21679
 O118 O 0.28702 0.00556 0.24044
 Zr119 Zr 0.21208 -0.01668 0.21793
 O120 O 0.23578 -0.04307 0.24167
 Zr121 Zr 0.21387 0.03142 0.26503
 O122 O 0.23776 0.00725 0.29094
 Zr123 Zr 0.27733 -0.03561 0.23461
 O124 O 0.25364 -0.01135 0.20830
 Zr125 Zr 0.27928 0.01252 0.28164
 O126 O 0.25554 0.03934 0.25798
 Zr127 Zr 0.22999 -0.03386 0.28288
 O128 O 0.20369 -0.00960 0.25915
 O129 O 0.21983 0.02431 0.22400
 O130 O 0.27157 -0.02863 0.27581
 C131 C 0.22733 0.08192 0.22956
 C132 C 0.22534 0.01715 0.16628
 C133 C 0.16211 0.02026 0.23009
 C134 C 0.26515 -0.08510 0.27195
 C135 C 0.32861 -0.02565 0.27022
 C136 C 0.26893 -0.02453 0.33178
 H137 H 0.30618 0.00965 0.23573
 H138 H 0.23377 0.01190 0.30999
 H139 H 0.20851 0.03607 0.21234
 H140 H 0.23095 -0.06208 0.23744
 H141 H 0.26556 -0.05757 0.18860
 H142 H 0.22006 -0.06199 0.19259
 H143 H 0.26508 0.04149 0.32328
 H144 H 0.23441 0.06848 0.29558
 H145 H 0.31838 -0.01979 0.20485
 H146 H 0.29112 0.01018 0.17878
 H147 H 0.20141 -0.01670 0.32370
 H148 H 0.17508 0.01355 0.29552
 H149 H 0.29275 0.06772 0.23467
 H150 H 0.32023 0.04153 0.26485
 H151 H 0.17229 -0.04427 0.23882
 H152 H 0.19907 -0.07389 0.26771
 O153 O 0.57053 0.71412 0.24703
 O154 O 0.56099 0.71545 0.29459
 O155 O 0.49857 0.67793 0.21422
 O156 O 0.45420 0.68612 0.21297
 O157 O 0.53346 0.75019 0.17820
 O158 O 0.53158 0.79728 0.18981
 O159 O 0.42687 0.75044 0.28531
 O160 O 0.43443 0.70339 0.27897
 O161 O 0.49663 0.78108 0.32255
 O162 O 0.54502 0.78103 0.31277
 O163 O 0.46357 0.82020 0.25369
 O164 O 0.46538 0.81179 0.20498
 O165 O 0.42743 0.78427 0.25403
 O166 O 0.43708 0.78207 0.20388
 O167 O 0.49500 0.81908 0.28744
 O168 O 0.54575 0.80954 0.28361
 O169 O 0.46294 0.74930 0.32109
 O170 O 0.46615 0.70076 0.31051
 O171 O 0.57123 0.74856 0.21634
 O172 O 0.56131 0.79630 0.22038
 O173 O 0.50063 0.71748 0.17701
 O174 O 0.45157 0.72210 0.18751
 O175 O 0.53127 0.67668 0.24684
 O176 O 0.53003 0.68608 0.29468
 Zr177 Zr 0.53103 0.71584 0.26387
 O178 O 0.50719 0.73915 0.29053
 Zr179 Zr 0.48338 0.71765 0.21610
 O180 O 0.45713 0.74045 0.24101
 Zr181 Zr 0.53175 0.76509 0.21808
 O182 O 0.50744 0.79041 0.24247
 Zr183 Zr 0.46569 0.73289 0.28194
 O184 O 0.48947 0.70722 0.25709
 Zr185 Zr 0.51365 0.78071 0.28341
 O186 O 0.54037 0.75731 0.25908
 Zr187 Zr 0.46602 0.78181 0.23565
 O188 O 0.49036 0.75908 0.20855
 O189 O 0.52467 0.72382 0.22311
 O190 O 0.47224 0.77433 0.27668
 C191 C 0.58244 0.72865 0.22884
 C192 C 0.51707 0.66569 0.22788
 C193 C 0.51975 0.73164 0.16600
 C194 C 0.41597 0.77065 0.27312
 C195 C 0.47685 0.76767 0.33329
 C196 C 0.47592 0.83079 0.27398
 H197 H 0.51178 0.73418 0.30935
 H198 H 0.51188 0.80958 0.23858
 H199 H 0.53616 0.71235 0.21130
 H200 H 0.43791 0.73610 0.23680
 H201 H 0.44244 0.68751 0.26966
 H202 H 0.43860 0.69105 0.22465
 H203 H 0.54200 0.82310 0.26934
 H204 H 0.57001 0.79465 0.23837
 H205 H 0.48228 0.70307 0.32228
 H206 H 0.51193 0.67720 0.29356
 H207 H 0.48231 0.82261 0.20660
 H208 H 0.51354 0.79679 0.18086
 H209 H 0.57011 0.73339 0.29404
 H210 H 0.54490 0.76313 0.32178
 H211 H 0.45508 0.73919 0.17755
 H212 H 0.42402 0.76707 0.20709
 O213 O -0.03614 0.82142 0.75199
 O214 O -0.03414 0.81265 0.70462
 O215 O -0.07304 0.74848 0.78319
 O216 O -0.06390 0.70435 0.78421
 O217 O -0.00155 0.78358 0.82146
 O218 O 0.04591 0.78237 0.81096
 O219 O 0.00112 0.67891 0.71378
 O220 O -0.04640 0.68770 0.71795
 O221 O 0.03441 0.74923 0.67782
 O222 O 0.03215 0.79729 0.68742
 O223 O 0.07109 0.71554 0.74575
 O224 O 0.06254 0.71659 0.79428
 O225 O 0.03430 0.67881 0.74589
 O226 O 0.03215 0.68912 0.79583
 O227 O 0.07093 0.74895 0.71403
 O228 O 0.05963 0.79889 0.71785
 O229 O 0.00353 0.71473 0.67832
 O230 O -0.04295 0.71975 0.68329
 O231 O -0.00320 0.82149 0.78440
 O232 O 0.04543 0.81238 0.78041
 O233 O -0.03482 0.75130 0.82106
 O234 O -0.02903 0.70212 0.81021
 O235 O -0.07372 0.78233 0.75188
 O236 O -0.06266 0.78249 0.70274
 Zr237 Zr -0.03415 0.78233 0.73488
 O238 O -0.00976 0.75919 0.70850
 Zr239 Zr -0.03290 0.73416 0.78195
 O240 O -0.00908 0.70871 0.75729
 Zr241 Zr 0.01430 0.78263 0.78193
 O242 O 0.04058 0.75909 0.75782
 Zr243 Zr -0.01560 0.71782 0.71631
 O244 O -0.04262 0.74076 0.74074
 Zr245 Zr 0.03172 0.76606 0.71682
 O246 O 0.00732 0.79194 0.74093
 Zr247 Zr 0.03231 0.71762 0.76377
 O248 O 0.00849 0.74122 0.79069
 O249 O -0.02695 0.77534 0.77566
 O250 O 0.02579 0.72460 0.72274
 C251 C -0.02269 0.83281 0.77121
 C252 C -0.08507 0.76746 0.77016
 C253 C -0.02106 0.77027 0.83269
 C254 C 0.02053 0.66750 0.72680
 C255 C 0.02250 0.72877 0.66693
 C256 C 0.08239 0.72930 0.72667
 H257 H -0.01443 0.76350 0.68951
 H258 H 0.05970 0.76368 0.76220
 H259 H -0.03890 0.78648 0.78733
 H260 H -0.01361 0.68958 0.76132
 H261 H -0.06322 0.69670 0.72439
 H262 H -0.05990 0.69076 0.77007
 H263 H 0.07266 0.79555 0.73273
 H264 H 0.04310 0.82226 0.76312
 H265 H -0.05923 0.72950 0.68979
 H266 H -0.07593 0.76772 0.70618
 H267 H 0.07287 0.73382 0.79337
 H268 H 0.04579 0.76406 0.81918
 H269 H -0.01592 0.82134 0.70517
 H270 H 0.01458 0.79654 0.67766
 H271 H -0.01271 0.70612 0.82131
 H272 H 0.01672 0.67652 0.79284
 O273 O -0.00055 0.07013 0.03777
 O274 O -0.04813 0.05919 0.03579
 O275 O 0.03326 -0.00219 0.07254
 O276 O 0.03443 -0.04639 0.06254
 O277 O 0.07082 0.03584 0.00354
 O278 O 0.06115 0.03455 -0.04407
 O279 O -0.03514 -0.07209 -0.00463
 O280 O -0.03082 -0.06608 0.04267
 O281 O -0.07281 -0.00193 -0.03379
 O282 O -0.06348 0.04696 -0.02987
 O283 O -0.00277 -0.03159 -0.07226
 O284 O 0.04640 -0.02969 -0.06233
 O285 O -0.00278 -0.06993 -0.03757
 O286 O 0.04678 -0.05953 -0.03469
 O287 O -0.03654 -0.00020 -0.07027
 O288 O -0.03421 0.04898 -0.05819
 O289 O -0.07207 -0.03663 -0.00350
 O290 O -0.06313 -0.03545 0.04540
 O291 O 0.03126 0.07251 0.00424
 O292 O 0.03027 0.06383 -0.04345
 O293 O 0.07156 0.00154 0.03435
 O294 O 0.06193 -0.04700 0.02750
 O295 O 0.00025 0.03009 0.07412
 O296 O -0.04755 0.02764 0.06419
 Zr297 Zr -0.01628 0.03044 0.03481
 O298 O -0.04224 0.00736 0.00989
 Zr299 Zr 0.03242 -0.01611 0.03226
 O300 O 0.00834 -0.04151 0.00752
 Zr301 Zr 0.03136 0.03362 -0.01310
 O302 O 0.00759 0.01044 -0.04001
 Zr303 Zr -0.03322 -0.03401 0.01434
 O304 O -0.00922 -0.01111 0.04175
 Zr305 Zr -0.03389 0.01582 -0.03094
 O306 O -0.01020 0.04152 -0.00597
 Zr307 Zr 0.01461 -0.03105 -0.03332
 O308 O 0.04107 -0.00764 -0.00865
 O309 O 0.02506 0.02507 0.02763
 O310 O -0.02695 -0.02563 -0.02656
 C311 C 0.01751 0.08290 0.02380
 C312 C 0.01927 0.01593 0.08503
 C313 C 0.08272 0.02155 0.02180
 C314 C -0.02186 -0.08228 -0.02463
 C315 C -0.08379 -0.02237 -0.02182
 C316 C -0.02270 -0.01837 -0.08271
 H317 H -0.06139 0.01142 0.01453
 H318 H 0.01196 0.01582 -0.05880
 H319 H 0.03637 0.03645 0.03974
 H320 H 0.01276 -0.06071 0.01115
 H321 H -0.02194 -0.05861 0.05906
 H322 H 0.02356 -0.06205 0.05618
 H323 H -0.01876 0.04677 -0.07088
 H324 H 0.01195 0.07214 -0.04248
 H325 H -0.07484 -0.01926 0.04376
 H326 H -0.04647 0.00916 0.07194
 H327 H 0.04466 -0.01250 -0.07250
 H328 H 0.07048 0.01679 -0.04360
 H329 H -0.04765 0.06874 0.01816
 H330 H -0.07475 0.04427 -0.01346
 H331 H 0.07207 -0.04299 0.01061
 H332 H 0.04450 -0.07203 -0.01918
 O333 O 0.00163 0.57434 0.53132
 O334 O -0.04607 0.56364 0.53153
 O335 O 0.03604 0.50479 0.57074
 O336 O 0.03580 0.45985 0.56456
 O337 O 0.07208 0.53620 0.49795
 O338 O 0.06076 0.53217 0.45093
 O339 O -0.03549 0.42973 0.50014
 O340 O -0.02956 0.43895 0.54716
 O341 O -0.07269 0.49752 0.46693
 O342 O -0.06296 0.54680 0.46744
 O343 O -0.00504 0.46358 0.43034
 O344 O 0.04521 0.46724 0.43802
 O345 O -0.00273 0.42884 0.46754
 O346 O 0.04647 0.43939 0.46778
 O347 O -0.03728 0.49657 0.42983
 O348 O -0.03449 0.54632 0.43818
 O349 O -0.07184 0.46554 0.50007
 O350 O -0.06172 0.47007 0.54840
 O351 O 0.03363 0.57362 0.49788
 O352 O 0.03012 0.56197 0.45070
 O353 O 0.07320 0.50443 0.53137
 O354 O 0.06268 0.45586 0.52905
 O355 O 0.00331 0.53740 0.57062
 O356 O -0.04491 0.53434 0.56221
 Zr357 Zr -0.01443 0.53466 0.53190
 O358 O -0.04119 0.51001 0.50938
 Zr359 Zr 0.03371 0.48749 0.53186
 O360 O 0.00887 0.46054 0.50964
 Zr361 Zr 0.03206 0.53375 0.48286
 O362 O 0.00749 0.50883 0.45828
 Zr363 Zr -0.03248 0.46896 0.51671
 O364 O -0.00766 0.49365 0.54181
 Zr365 Zr -0.03370 0.51534 0.46786
 O366 O -0.00922 0.54262 0.49031
 Zr367 Zr 0.01435 0.46795 0.46805
 O368 O 0.04153 0.49284 0.49028
 O369 O 0.02667 0.52826 0.52422
 O370 O -0.02698 0.47430 0.47525
 C371 C 0.02018 0.58566 0.51667
 C372 C 0.02265 0.52413 0.58204
 C373 C 0.08432 0.52307 0.51679
 C374 C -0.02215 0.41783 0.48118
 C375 C -0.08369 0.47827 0.48073
 C376 C -0.02480 0.47642 0.41914
 H377 H -0.06020 0.51459 0.51409
 H378 H 0.01140 0.51265 0.43902
 H379 H 0.03853 0.54033 0.53509
 H380 H 0.01324 0.44162 0.51459
 H381 H -0.02049 0.44758 0.56287
 H382 H 0.02491 0.44371 0.55954
 H383 H -0.01895 0.54341 0.42575
 H384 H 0.01209 0.57083 0.45202
 H385 H -0.07291 0.48654 0.54616
 H386 H -0.04360 0.51656 0.57143
 H387 H 0.04191 0.48245 0.42541
 H388 H 0.06934 0.51406 0.45186
 H389 H -0.04610 0.57173 0.51318
 H390 H -0.07429 0.54500 0.48393
 H391 H 0.07250 0.45832 0.51169
 H392 H 0.04487 0.42832 0.48441
 O393 O 0.49793 -0.03525 0.42788
 O394 O 0.54595 -0.03310 0.43673
 O395 O 0.46676 -0.07290 0.49970
 O396 O 0.46805 -0.06494 0.54445
 O397 O 0.42759 -0.00179 0.46762
 O398 O 0.43840 0.04561 0.46867
 O399 O 0.53824 0.00171 0.56971
 O400 O 0.53339 -0.04545 0.56191
 O401 O 0.57298 0.03428 0.49973
 O402 O 0.56139 0.03140 0.45047
 O403 O 0.50488 0.07083 0.53388
 O404 O 0.45530 0.06103 0.53330
 O405 O 0.50543 0.03415 0.57059
 O406 O 0.45576 0.03226 0.56191
 O407 O 0.53661 0.07059 0.50028
 O408 O 0.53317 0.06078 0.45169
 O409 O 0.57361 0.00214 0.53273
 O410 O 0.56468 -0.04657 0.52999
 O411 O 0.46433 -0.00351 0.42885
 O412 O 0.46823 0.04483 0.43774
 O413 O 0.42851 -0.03477 0.49985
 O414 O 0.44020 -0.03008 0.54789
 O415 O 0.49817 -0.07262 0.46570
 O416 O 0.54643 -0.06295 0.46728
 Zr417 Zr 0.51522 -0.03349 0.46679
 O418 O 0.54213 -0.00943 0.48966
 Zr419 Zr 0.46843 -0.03325 0.51556
 O420 O 0.49349 -0.00932 0.54074
 Zr421 Zr 0.46750 0.01412 0.46761
 O422 O 0.49223 0.04027 0.49077
 Zr423 Zr 0.53468 -0.01569 0.53109
 O424 O 0.50980 -0.04232 0.50820
 Zr425 Zr 0.53349 0.03170 0.48322
 O426 O 0.50871 0.00766 0.45757
 Zr427 Zr 0.48692 0.03194 0.53220
 O428 O 0.45952 0.00801 0.50907
 O429 O 0.47414 -0.02681 0.47445
 O430 O 0.52820 0.02557 0.52468
 C431 C 0.47789 -0.02250 0.41713
 C432 C 0.47950 -0.08421 0.47995
 C433 C 0.41634 -0.02089 0.48147
 C434 C 0.52507 0.02083 0.58145
 C435 C 0.58474 0.02137 0.51900
 C436 C 0.52396 0.08207 0.51990
 H437 H 0.56110 -0.01378 0.48460
 H438 H 0.48770 0.05927 0.48637
 H439 H 0.46209 -0.03850 0.46339
 H440 H 0.48979 -0.01376 0.55992
 H441 H 0.52438 -0.06164 0.55407
 H442 H 0.47908 -0.05889 0.56008
 H443 H 0.51623 0.07145 0.45344
 H444 H 0.48573 0.04293 0.42792
 H445 H 0.57535 -0.04456 0.51311
 H446 H 0.54550 -0.07188 0.48521
 H447 H 0.45706 0.07255 0.51699
 H448 H 0.43025 0.04525 0.48702
 H449 H 0.54505 -0.01512 0.42788
 H450 H 0.57380 0.01584 0.45298
 H451 H 0.43004 -0.01299 0.54518
 H452 H 0.45812 0.01603 0.57342
 O453 O 0.56988 0.53750 0.00254
 O454 O 0.55925 0.53508 -0.04472
 O455 O 0.49754 0.57270 0.03608
 O456 O 0.45307 0.56324 0.03766
 O457 O 0.53420 0.50262 0.07355
 O458 O 0.53328 0.45513 0.06305
 O459 O 0.42616 0.49697 -0.03112
 O460 O 0.43348 0.54413 -0.02729
 O461 O 0.49626 0.46629 -0.06935
 O462 O 0.54573 0.46968 -0.06005
 O463 O 0.46504 0.42854 -0.00033
 O464 O 0.46788 0.43759 0.04869
 O465 O 0.42773 0.46394 0.00097
 O466 O 0.43886 0.46620 0.05013
 O467 O 0.49719 0.42970 -0.03350
 O468 O 0.54676 0.44080 -0.03136
 O469 O 0.46197 0.49719 -0.06830
 O470 O 0.46407 0.54597 -0.05959
 O471 O 0.57118 0.50508 0.03534
 O472 O 0.56303 0.45661 0.03192
 O473 O 0.50070 0.53441 0.07416
 O474 O 0.45178 0.52816 0.06470
 O475 O 0.53028 0.57391 0.00335
 O476 O 0.52769 0.56384 -0.04434
 Zr477 Zr 0.53007 0.53456 -0.01318
 O478 O 0.50647 0.50991 -0.03889
 Zr479 Zr 0.48302 0.53255 0.03535
 O480 O 0.45717 0.50818 0.01151
 Zr481 Zr 0.53244 0.48663 0.03404
 O482 O 0.50864 0.45992 0.01050
 Zr483 Zr 0.46496 0.51502 -0.02975
 O484 O 0.48841 0.54210 -0.00597
 Zr485 Zr 0.51419 0.46886 -0.03073
 O486 O 0.54052 0.49359 -0.00727
 Zr487 Zr 0.46705 0.46718 0.01764
 O488 O 0.49098 0.49151 0.04387
 O489 O 0.52430 0.52745 0.02787
 O490 O 0.47261 0.47393 -0.02364
 C491 C 0.58192 0.52464 0.02171
 C492 C 0.51610 0.58495 0.02229
 C493 C 0.52027 0.52128 0.08532
 C494 C 0.41548 0.47730 -0.01768
 C495 C 0.47597 0.47869 -0.08012
 C496 C 0.47805 0.41781 -0.02018
 H497 H 0.51066 0.51449 -0.05792
 H498 H 0.51364 0.44100 0.01473
 H499 H 0.53562 0.53953 0.03926
 H500 H 0.43796 0.51212 0.01609
 H501 H 0.44140 0.56039 -0.01849
 H502 H 0.43735 0.55724 0.02665
 H503 H 0.54483 0.42883 -0.01540
 H504 H 0.57181 0.45857 0.01397
 H505 H 0.48049 0.54426 -0.07108
 H506 H 0.50938 0.57210 -0.04295
 H507 H 0.48473 0.42687 0.04646
 H508 H 0.51519 0.45509 0.07198
 H509 H 0.56856 0.51731 -0.04419
 H510 H 0.54315 0.48600 -0.07138
 H511 H 0.45569 0.51138 0.07497
 H512 H 0.42636 0.48174 0.04795
 O513 O 0.82632 0.24785 0.46092
 O514 O 0.81560 0.20030 0.46285
 O515 O 0.75462 0.28104 0.42428
 O516 O 0.70953 0.28087 0.43283
 O517 O 0.78944 0.31866 0.49453
 O518 O 0.78779 0.30839 0.54202
 O519 O 0.68254 0.21179 0.49990
 O520 O 0.68970 0.21700 0.45241
 O521 O 0.75106 0.17585 0.53153
 O522 O 0.80130 0.18462 0.52724
 O523 O 0.72123 0.24465 0.56835
 O524 O 0.72290 0.29390 0.55786
 O525 O 0.68362 0.24378 0.53303
 O526 O 0.69294 0.29315 0.53014
 O527 O 0.75362 0.21180 0.56736
 O528 O 0.80266 0.21343 0.55608
 O529 O 0.71822 0.17573 0.49910
 O530 O 0.72070 0.18470 0.45049
 O531 O 0.82704 0.28040 0.49359
 O532 O 0.81776 0.27801 0.54139
 O533 O 0.75653 0.31872 0.46211
 O534 O 0.70779 0.30901 0.46780
 O535 O 0.78743 0.24850 0.42361
 O536 O 0.78476 0.20076 0.43336
 Zr537 Zr 0.78647 0.23178 0.46285
 O538 O 0.76268 0.20572 0.48712
 Zr539 Zr 0.73904 0.27972 0.46402
 O540 O 0.71301 0.25563 0.48823
 Zr541 Zr 0.78778 0.27918 0.51071
 O542 O 0.76400 0.25528 0.53704
 Zr543 Zr 0.72116 0.21443 0.48153
 O544 O 0.74484 0.23840 0.45470
 Zr545 Zr 0.76999 0.21407 0.52813
 O546 O 0.79636 0.23794 0.50388
 Zr547 Zr 0.72241 0.26190 0.52932
 O548 O 0.74632 0.28841 0.50514
 O549 O 0.78033 0.27279 0.46985
 O550 O 0.72846 0.22070 0.52262
 C551 C 0.83828 0.26670 0.47446
 C552 C 0.77359 0.26752 0.41241
 C553 C 0.77589 0.33013 0.47550
 C554 C 0.67183 0.22451 0.51993
 C555 C 0.73115 0.16470 0.51876
 C556 C 0.73481 0.22529 0.57931
 H557 H 0.76693 0.18668 0.48267
 H558 H 0.76893 0.25970 0.55593
 H559 H 0.79195 0.28426 0.45808
 H560 H 0.69375 0.25981 0.48418
 H561 H 0.69775 0.22559 0.43611
 H562 H 0.69327 0.27087 0.43932
 H563 H 0.80113 0.22974 0.56762
 H564 H 0.82678 0.26015 0.53992
 H565 H 0.73731 0.17355 0.45219
 H566 H 0.76649 0.20189 0.42493
 H567 H 0.73939 0.29177 0.56916
 H568 H 0.76985 0.31749 0.54134
 H569 H 0.82430 0.20060 0.48092
 H570 H 0.79763 0.17214 0.51199
 H571 H 0.71096 0.31871 0.48505
 H572 H 0.68108 0.29092 0.51412
 O573 O 0.78028 0.82520 -0.00392
 O574 O 0.77697 0.81694 0.04379
 O575 O 0.82115 0.75430 -0.03242
 O576 O 0.81424 0.70983 -0.03347
 O577 O 0.74895 0.78460 -0.07370
 O578 O 0.70142 0.78163 -0.06424
 O579 O 0.74664 0.68231 0.03675
 O580 O 0.79382 0.69146 0.03275
 O581 O 0.71103 0.75116 0.06972
 O582 O 0.71136 0.79959 0.05868
 O583 O 0.67716 0.71498 0.00096
 O584 O 0.68802 0.71557 -0.04757
 O585 O 0.71488 0.68001 0.00334
 O586 O 0.71863 0.68865 -0.04649
 O587 O 0.67526 0.74854 0.03242
 O588 O 0.68395 0.79831 0.02863
 O589 O 0.74495 0.71991 0.07158
 O590 O 0.79394 0.72404 0.06309
 O591 O 0.74806 0.82362 -0.03699
 O592 O 0.69996 0.81209 -0.03445
 O593 O 0.78332 0.75377 -0.07215
 O594 O 0.77966 0.70504 -0.06035
 O595 O 0.81911 0.78855 -0.00161
 O596 O 0.80772 0.78743 0.04581
 Zr597 Zr 0.77918 0.78646 0.01379
 O598 O 0.75516 0.76273 0.03999
 Zr599 Zr 0.78154 0.73768 -0.03254
 O600 O 0.75812 0.71147 -0.00795
 Zr601 Zr 0.73228 0.78384 -0.03450
 O602 O 0.70638 0.75941 -0.01066
 Zr603 Zr 0.76316 0.72150 0.03305
 O604 O 0.78956 0.74533 0.00874
 Zr605 Zr 0.71374 0.76741 0.03043
 O606 O 0.73763 0.79408 0.00650
 Zr607 Zr 0.71655 0.71830 -0.01557
 O608 O 0.74009 0.74260 -0.04227
 O609 O 0.77362 0.77861 -0.02715
 O610 O 0.72163 0.72618 0.02556
 C611 C 0.76683 0.83588 -0.02352
 C612 C 0.83180 0.77414 -0.01918
 C613 C 0.76878 0.77158 -0.08451
 C614 C 0.72797 0.66982 0.02344
 C615 C 0.72490 0.73295 0.08206
 C616 C 0.66483 0.72843 0.01950
 H617 H 0.75899 0.76808 0.05887
 H618 H 0.68724 0.76298 -0.01569
 H619 H 0.78537 0.79011 -0.03877
 H620 H 0.76338 0.69244 -0.01134
 H621 H 0.80994 0.69959 0.02371
 H622 H 0.80936 0.69468 -0.02125
 H623 H 0.67231 0.79481 0.01266
 H624 H 0.70107 0.82202 -0.01707
 H625 H 0.79094 0.74069 0.07381
 H626 H 0.81748 0.76990 0.04533
 H627 H 0.67627 0.73181 -0.04673
 H628 H 0.70247 0.76323 -0.07216
 H629 H 0.75863 0.82512 0.04225
 H630 H 0.72817 0.79930 0.06971
 H631 H 0.76299 0.70759 -0.07132
 H632 H 0.73459 0.67702 -0.04283
 O633 O 1.00495 0.17916 0.21274
 O634 O 0.95715 0.18812 0.21456
 O635 O 1.03700 0.25041 0.17488
 O636 O 1.03821 0.29480 0.18267
 O637 O 1.07498 0.21723 0.24662
 O638 O 1.06456 0.21974 0.29360
 O639 O 0.96624 0.32190 0.24755
 O640 O 0.97068 0.31350 0.20099
 O641 O 0.93055 0.25269 0.28145
 O642 O 0.94030 0.20430 0.28023
 O643 O 0.99860 0.28760 0.31696
 O644 O 1.04794 0.28588 0.30860
 O645 O 0.99894 0.32293 0.28013
 O646 O 1.04926 0.31302 0.27804
 O647 O 0.96675 0.25399 0.31758
 O648 O 0.97057 0.20382 0.30776
 O649 O 0.93096 0.28608 0.24968
 O650 O 0.93993 0.28069 0.19969
 O651 O 1.03675 0.17916 0.24627
 O652 O 1.03369 0.19008 0.29417
 O653 O 1.07521 0.24905 0.21324
 O654 O 1.06440 0.29818 0.21795
 O655 O 1.00477 0.21708 0.17493
 O656 O 0.95651 0.21874 0.18497
 Zr657 Zr 0.98795 0.21821 0.21418
 O658 O 0.96129 0.24168 0.23789
 Zr659 Zr 1.03579 0.26611 0.21442
 O660 O 1.01080 0.29217 0.23737
 Zr661 Zr 1.03518 0.21875 0.26236
 O662 O 1.01099 0.24301 0.28789
 Zr663 Zr 0.96945 0.28292 0.23099
 O664 O 0.99433 0.25946 0.20499
 Zr665 Zr 0.96973 0.23579 0.27915
 O666 O 0.99389 0.20936 0.25549
 Zr667 Zr 1.01711 0.28426 0.27869
 O668 O 1.04422 0.26001 0.25573
 O669 O 1.02911 0.22511 0.22123
 O670 O 0.97582 0.27704 0.27222
 C671 C 1.02367 0.16768 0.22683
 C672 C 1.02357 0.23122 0.16336
 C673 C 1.08668 0.23034 0.22735
 C674 C 0.97930 0.33370 0.26670
 C675 C 0.91956 0.27269 0.26900
 C676 C 0.97922 0.27420 0.32837
 H677 H 0.94223 0.23686 0.23356
 H678 H 1.01532 0.23896 0.30699
 H679 H 1.04082 0.21358 0.20970
 H680 H 1.01480 0.31124 0.23259
 H681 H 0.98020 0.30566 0.18514
 H682 H 1.02571 0.30978 0.18731
 H683 H 0.98543 0.20762 0.32075
 H684 H 1.01609 0.18037 0.29244
 H685 H 0.92657 0.26634 0.20429
 H686 H 0.95745 0.23668 0.17602
 H687 H 1.04637 0.26930 0.31977
 H688 H 1.07257 0.23819 0.29337
 H689 H 0.95767 0.17966 0.23273
 H690 H 0.93002 0.20489 0.26304
 H691 H 1.07526 0.29465 0.23444
 H692 H 1.04620 0.32529 0.26251
 O693 O 0.75251 0.96918 0.82289
 O694 O 0.70490 0.97064 0.81329
 O695 O 0.78429 0.92740 0.75355
 O696 O 0.78315 0.93253 0.70845
 O697 O 0.82395 0.99880 0.78246
 O698 O 0.81461 1.04633 0.77803
 O699 O 0.71430 0.99870 0.67883
 O700 O 0.71835 0.95189 0.68900
 O701 O 0.67995 1.03556 0.74610
 O702 O 0.69040 1.03517 0.79547
 O703 O 0.74889 1.06886 0.71081
 O704 O 0.79804 1.05899 0.71245
 O705 O 0.74799 1.03042 0.67646
 O706 O 0.79782 1.02814 0.68596
 O707 O 0.71694 1.07104 0.74412
 O708 O 0.72000 1.06344 0.79375
 O709 O 0.67883 1.00138 0.71523
 O710 O 0.68688 0.95263 0.72091
 O711 O 0.78618 1.00103 0.82076
 O712 O 0.78443 1.04836 0.80836
 O713 O 0.82291 0.96482 0.75132
 O714 O 0.81159 0.96693 0.70309
 O715 O 0.75213 0.92910 0.78679
 O716 O 0.70410 0.93948 0.78435
 Zr717 Zr 0.73591 0.96852 0.78362
 O718 O 0.70969 0.99175 0.75923
 Zr719 Zr 0.78315 0.96588 0.73540
 O720 O 0.75875 0.98854 0.70866
 Zr721 Zr 0.78453 1.01564 0.78072
 O722 O 0.76055 1.04077 0.75588
 Zr723 Zr 0.71737 0.98316 0.71828
 O724 O 0.74158 0.95754 0.74277
 Zr725 Zr 0.71907 1.03311 0.76344
 O726 O 0.74308 1.01010 0.79056
 Zr727 Zr 0.76614 1.03007 0.71505
 O728 O 0.79285 1.00725 0.73977
 O729 O 0.77718 0.97446 0.77613
 O730 O 0.72469 1.02459 0.72249
 C731 C 0.77198 0.98313 0.83347
 C732 C 0.77098 0.91691 0.77344
 C733 C 0.83504 0.97910 0.76943
 C734 C 0.72799 1.01700 0.66623
 C735 C 0.66812 1.02171 0.72743
 C736 C 0.72990 1.08112 0.72383
 H737 H 0.69057 0.98793 0.76431
 H738 H 0.76540 1.05994 0.75926
 H739 H 0.78880 0.96335 0.78813
 H740 H 0.76254 0.98302 0.68979
 H741 H 0.72696 0.93601 0.69774
 H742 H 0.77237 0.93777 0.69239
 H743 H 0.73626 1.07492 0.79053
 H744 H 0.76655 1.04783 0.81769
 H745 H 0.67580 0.95597 0.73730
 H746 H 0.70498 0.92967 0.76689
 H747 H 0.79685 1.07084 0.72855
 H748 H 0.82300 1.04460 0.75987
 H749 H 0.70542 0.98932 0.82060
 H750 H 0.67788 1.01950 0.79377
 H751 H 0.82217 0.98396 0.70497
 H752 H 0.79477 1.01178 0.67477
 O753 O 0.74812 0.57319 0.21456
 O754 O 0.79674 0.56392 0.21807
 O755 O 0.71716 0.50111 0.17826
 O756 O 0.71712 0.45643 0.18737
 O757 O 0.67832 0.53621 0.24773
 O758 O 0.68806 0.53396 0.29596
 O759 O 0.78448 0.43033 0.25384
 O760 O 0.78084 0.43917 0.20581
 O761 O 0.82235 0.50061 0.28524
 O762 O 0.81271 0.54970 0.28141
 O763 O 0.75276 0.46941 0.32276
 O764 O 0.70297 0.47132 0.31240
 O765 O 0.75279 0.43185 0.28746
 O766 O 0.70369 0.44106 0.28520
 O767 O 0.78599 0.50166 0.32152
 O768 O 0.78363 0.55070 0.31033
 O769 O 0.82166 0.46621 0.25463
 O770 O 0.81671 0.46926 0.20935
 O771 O 0.71618 0.57399 0.24805
 O772 O 0.71795 0.56486 0.29537
 O773 O 0.67837 0.50255 0.21621
 O774 O 0.68890 0.45443 0.22142
 O775 O 0.74900 0.53478 0.17791
 O776 O 0.79762 0.53456 0.18840
 Zr777 Zr 0.76559 0.53419 0.21717
 O778 O 0.79170 0.51062 0.24138
 Zr779 Zr 0.71791 0.48618 0.21821
 O780 O 0.74178 0.46079 0.24288
 Zr781 Zr 0.71765 0.53490 0.26479
 O782 O 0.74186 0.51189 0.29132
 Zr783 Zr 0.78319 0.46920 0.23633
 O784 O 0.75953 0.49255 0.20904
 Zr785 Zr 0.78334 0.51815 0.28240
 O786 O 0.75913 0.54403 0.25815
 Zr787 Zr 0.73521 0.47047 0.28387
 O788 O 0.70865 0.49355 0.25924
 O789 O 0.72439 0.52736 0.22397
 O790 O 0.77672 0.47668 0.27732
 C791 C 0.72916 0.58493 0.22827
 C792 C 0.73049 0.52027 0.16648
 C793 C 0.66686 0.52208 0.22900
 C794 C 0.77139 0.41973 0.27381
 C795 C 0.83332 0.48029 0.27321
 C796 C 0.77246 0.48287 0.33353
 H797 H 0.81088 0.51461 0.23657
 H798 H 0.73743 0.51687 0.31020
 H799 H 0.71281 0.53854 0.21201
 H800 H 0.73744 0.44163 0.23883
 H801 H 0.77526 0.44845 0.18893
 H802 H 0.72914 0.44149 0.19321
 H803 H 0.76760 0.54858 0.32234
 H804 H 0.73624 0.57339 0.29483
 H805 H 0.81173 0.48139 0.19427
 H806 H 0.79484 0.51880 0.17631
 H807 H 0.70548 0.48755 0.32390
 H808 H 0.67844 0.51635 0.29439
 H809 H 0.79477 0.57373 0.23545
 H810 H 0.82396 0.54724 0.26496
 H811 H 0.67892 0.45726 0.23862
 H812 H 0.70538 0.42961 0.26885
 O813 O 0.50700 0.18054 0.71611
 O814 O 0.45895 0.19085 0.71830
 O815 O 0.54060 0.25085 0.67840
 O816 O 0.54120 0.29573 0.68614
 O817 O 0.57786 0.21701 0.74946
 O818 O 0.56744 0.21993 0.79708
 O819 O 0.47046 0.32319 0.75392
 O820 O 0.47689 0.31663 0.70604
 O821 O 0.43382 0.25524 0.78439
 O822 O 0.44329 0.20622 0.78323
 O823 O 0.50385 0.28763 0.82140
 O824 O 0.55342 0.28463 0.81157
 O825 O 0.50421 0.32359 0.78544
 O826 O 0.55382 0.31341 0.78253
 O827 O 0.46961 0.25644 0.82070
 O828 O 0.47251 0.20619 0.81189
 O829 O 0.43444 0.28772 0.75171
 O830 O 0.44441 0.28531 0.70353
 O831 O 0.53913 0.17981 0.74934
 O832 O 0.53636 0.19013 0.79707
 O833 O 0.57820 0.24900 0.71619
 O834 O 0.56909 0.29802 0.72137
 O835 O 0.50822 0.21764 0.67885
 O836 O 0.45979 0.22127 0.68799
 Zr837 Zr 0.49073 0.21993 0.71771
 O838 O 0.46469 0.24399 0.74143
 Zr839 Zr 0.53935 0.26697 0.71791
 O840 O 0.51528 0.29340 0.74146
 Zr841 Zr 0.53816 0.21927 0.76572
 O842 O 0.51432 0.24364 0.79149
 Zr843 Zr 0.47378 0.28516 0.73499
 O844 O 0.49776 0.26114 0.70862
 Zr845 Zr 0.47284 0.23760 0.78264
 O846 O 0.49660 0.21078 0.75895
 Zr847 Zr 0.52158 0.28475 0.78269
 O848 O 0.54799 0.26035 0.75915
 O849 O 0.53192 0.22611 0.72476
 O850 O 0.48005 0.27868 0.77614
 C851 C 0.52588 0.16877 0.72977
 C852 C 0.52750 0.23114 0.66731
 C853 C 0.58939 0.22980 0.72984
 C854 C 0.48386 0.33442 0.77329
 C855 C 0.42271 0.27458 0.77092
 C856 C 0.48329 0.27554 0.83212
 H857 H 0.44557 0.23956 0.73690
 H858 H 0.51854 0.23930 0.81055
 H859 H 0.54338 0.21432 0.71327
 H860 H 0.51959 0.31249 0.73706
 H861 H 0.48565 0.30869 0.68981
 H862 H 0.53123 0.31203 0.69220
 H863 H 0.48763 0.20956 0.82468
 H864 H 0.51804 0.18172 0.79608
 H865 H 0.43377 0.26829 0.70472
 H866 H 0.46190 0.23882 0.67846
 H867 H 0.55085 0.26857 0.82331
 H868 H 0.57682 0.23770 0.79589
 H869 H 0.45991 0.18172 0.73612
 H870 H 0.43243 0.20769 0.76645
 H871 H 0.57941 0.29449 0.73821
 H872 H 0.55145 0.32526 0.76654
 O873 O 0.25259 0.78398 0.42805
 O874 O 0.20483 0.78203 0.43770
 O875 O 0.28414 0.82345 0.49900
 O876 O 0.28349 0.81636 0.54372
 O877 O 0.32359 0.75271 0.46725
 O878 O 0.31391 0.70514 0.46970
 O879 O 0.21377 0.74864 0.57092
 O880 O 0.21849 0.79600 0.56274
 O881 O 0.17939 0.71480 0.50241
 O882 O 0.18973 0.71650 0.45335
 O883 O 0.24911 0.67990 0.53587
 O884 O 0.29816 0.69098 0.53479
 O885 O 0.24639 0.71599 0.57127
 O886 O 0.29675 0.72038 0.56316
 O887 O 0.21638 0.67914 0.50335
 O888 O 0.21947 0.68861 0.45369
 O889 O 0.17844 0.74770 0.53465
 O890 O 0.18689 0.79658 0.53080
 O891 O 0.28570 0.75177 0.42877
 O892 O 0.28390 0.70425 0.43951
 O893 O 0.32285 0.78565 0.49950
 O894 O 0.31136 0.78175 0.54771
 O895 O 0.25253 0.82252 0.46531
 O896 O 0.20433 0.81221 0.46779
 Zr897 Zr 0.23587 0.78310 0.46732
 O898 O 0.20950 0.75892 0.49093
 Zr899 Zr 0.28303 0.78411 0.51548
 O900 O 0.25851 0.76036 0.54147
 Zr901 Zr 0.28408 0.73594 0.46832
 O902 O 0.26003 0.70985 0.49227
 Zr903 Zr 0.21716 0.76599 0.53218
 O904 O 0.24150 0.79258 0.50855
 Zr905 Zr 0.21859 0.71773 0.48517
 O906 O 0.24269 0.74180 0.45882
 Zr907 Zr 0.26573 0.71915 0.53340
 O908 O 0.29250 0.74295 0.50949
 O909 O 0.27709 0.77696 0.47447
 O910 O 0.22431 0.72479 0.52631
 C911 C 0.27180 0.77027 0.41683
 C912 C 0.27110 0.83449 0.47935
 C913 C 0.33489 0.77183 0.48098
 C914 C 0.22645 0.72888 0.58213
 C915 C 0.16759 0.72788 0.52160
 C916 C 0.22982 0.66818 0.52280
 H917 H 0.19041 0.76291 0.48605
 H918 H 0.26484 0.69086 0.48816
 H919 H 0.28881 0.78851 0.46286
 H920 H 0.26219 0.76508 0.56057
 H921 H 0.22700 0.81230 0.55455
 H922 H 0.27239 0.81063 0.55947
 H923 H 0.23534 0.67669 0.45678
 H924 H 0.26591 0.70484 0.43048
 H925 H 0.17597 0.79400 0.51420
 H926 H 0.20539 0.82147 0.48554
 H927 H 0.29685 0.67943 0.51848
 H928 H 0.32258 0.70636 0.48775
 H929 H 0.20540 0.76370 0.42955
 H930 H 0.17792 0.73262 0.45507
 H931 H 0.32154 0.76461 0.54537
 H932 H 0.29284 0.73565 0.57553
 O933 O 0.28636 0.32120 0.99641
 O934 O 0.28240 0.31191 1.04426
 O935 O 0.32597 0.24977 0.96714
 O936 O 0.31793 0.20485 0.96769
 O937 O 0.25569 0.28150 0.92538
 O938 O 0.20750 0.27970 0.93440
 O939 O 0.24747 0.17881 1.03475
 O940 O 0.29566 0.18616 1.03083
 O941 O 0.21460 0.24795 1.06832
 O942 O 0.21809 0.29768 1.05719
 O943 O 0.18057 0.21378 1.00001
 O944 O 0.19185 0.21643 0.94996
 O945 O 0.21658 0.17790 1.00047
 O946 O 0.22006 0.18670 0.95174
 O947 O 0.17939 0.24769 1.03117
 O948 O 0.18913 0.29644 1.02835
 O949 O 0.24655 0.21467 1.06934
 O950 O 0.29613 0.21812 1.06243
 O951 O 0.25489 0.32048 0.96258
 O952 O 0.20700 0.31067 0.96354
 O953 O 0.28920 0.24976 0.92753
 O954 O 0.28416 0.20175 0.93823
 O955 O 0.32450 0.28329 0.99879
 O956 O 0.31281 0.28220 1.04564
 Zr957 Zr 0.28435 0.28211 1.01356
 O958 O 0.25948 0.25861 1.03926
 Zr959 Zr 0.28606 0.23365 0.96687
 O960 O 0.26106 0.20794 0.99048
 Zr961 Zr 0.23816 0.28118 0.96439
 O962 O 0.21109 0.25779 0.98803
 Zr963 Zr 0.26603 0.21721 1.03162
 O964 O 0.29358 0.24071 1.00828
 Zr965 Zr 0.21845 0.26505 1.02934
 O966 O 0.24321 0.29103 1.00559
 Zr967 Zr 0.21980 0.21646 0.98260
 O968 O 0.24489 0.23984 0.95649
 O969 O 0.27918 0.27477 0.97247
 O970 O 0.22491 0.22372 1.02376
 C971 C 0.27341 0.33233 0.97674
 C972 C 0.33696 0.26913 0.98086
 C973 C 0.27544 0.26792 0.91493
 C974 C 0.22844 0.16726 1.02101
 C975 C 0.22683 0.22809 1.07990
 C976 C 0.16867 0.22748 1.01875
 H977 H 0.26324 0.26343 1.05830
 H978 H 0.19210 0.26210 0.98298
 H979 H 0.29134 0.28614 0.96113
 H980 H 0.26555 0.18876 0.98686
 H981 H 0.31240 0.19420 1.02291
 H982 H 0.31122 0.18882 0.97776
 H983 H 0.17864 0.29453 1.01138
 H984 H 0.20729 0.31975 0.98141
 H985 H 0.29308 0.23434 1.07377
 H986 H 0.32100 0.26389 1.04601
 H987 H 0.17862 0.23120 0.95304
 H988 H 0.20844 0.26143 0.92618
 H989 H 0.26453 0.32096 1.04231
 H990 H 0.23301 0.29478 1.07032
 H991 H 0.26711 0.20420 0.92783
 H992 H 0.23686 0.17588 0.95389
 C993 C 0.30198 0.33430 0.79810
 C994 C 0.28905 0.35370 0.81213
 C995 C 0.27683 0.37829 0.80022
 C996 C 0.28386 0.38905 0.77622
 H997 H 0.28741 0.35199 0.83390
 H998 H 0.26314 0.38936 0.81340
 H999 H 0.30415 0.33617 0.77638
 H1000 H 0.29889 0.37928 0.76352
 C1001 C 0.29885 -0.16262 0.30208
 C1002 C 0.29708 -0.15599 0.27580
 C1003 C 0.28867 -0.12887 0.26639
 C1004 C 0.27169 -0.11292 0.28038
 H1005 H 0.30398 -0.17022 0.26061
 H1006 H 0.29665 -0.12211 0.24706
 H1007 H 0.29264 -0.14824 0.31742
 H1008 H 0.26215 -0.12032 0.29874
 C1009 C 0.79857 0.83341 0.79795
 C1010 C 0.81355 0.85312 0.78646
 C1011 C 0.80241 0.87837 0.77502
 C1012 C 0.77874 0.88960 0.78265
 H1013 H 0.83546 0.85099 0.78520
 H1014 H 0.81580 0.88935 0.76139
 H1015 H 0.77670 0.83566 0.79966
 H1016 H 0.76602 0.87989 0.79775
 C1017 C 0.44589 0.91220 0.30181
 C1018 C 0.46414 0.89666 0.31493
 C1019 C 0.47523 0.87060 0.30465
 C1020 C 0.46662 0.85800 0.28213
 H1021 H 0.47092 0.90258 0.33490
 H1022 H 0.49037 0.86081 0.31721
 H1023 H 0.43866 0.90626 0.28205
 H1024 H 0.45105 0.86692 0.26958
 C1025 C -0.04732 0.91588 0.79993
 C1026 C -0.03547 0.89622 0.81455
 C1027 C -0.02393 0.87104 0.80316
 C1028 C -0.03148 0.86015 0.77943
 H1029 H -0.03423 0.89819 0.83632
 H1030 H -0.01044 0.85980 0.81635
 H1031 H -0.04890 0.91379 0.77819
 H1032 H -0.04642 0.87016 0.76686
 C1033 C -0.05090 -0.16390 -0.05400
 C1034 C -0.05773 -0.15196 -0.03049
 C1035 C -0.04817 -0.12491 -0.02143
 C1036 C -0.02902 -0.10986 -0.03386
 H1037 H -0.07204 -0.16199 -0.01709
 H1038 H -0.05804 -0.11699 -0.00348
 H1039 H -0.03617 -0.15439 -0.06727
 H1040 H -0.01834 -0.11745 -0.05141
 C1041 C -0.05031 0.33955 0.44596
 C1042 C -0.02417 0.34726 0.44804
 C1043 C -0.01569 0.37453 0.45716
 C1044 C -0.03024 0.38986 0.47432
 H1045 H -0.00831 0.33381 0.44091
 H1046 H 0.00365 0.38196 0.44952
 H1047 H -0.06633 0.35306 0.45256
 H1048 H -0.04864 0.38189 0.48354
 C1049 C 0.45468 -0.16748 0.45162
 C1050 C 0.46619 -0.14763 0.43690
 C1051 C 0.47786 -0.12246 0.44821
 C1052 C 0.47083 -0.11177 0.47220
 H1053 H 0.46693 -0.14938 0.41509
 H1054 H 0.49091 -0.11098 0.43466
 H1055 H 0.45355 -0.16562 0.47342
 H1056 H 0.45636 -0.12204 0.48523
 C1057 C 0.45252 0.33471 -0.04845
 C1058 C 0.46977 0.35163 -0.06132
 C1059 C 0.47983 0.37780 -0.05029
 C1060 C 0.46960 0.39025 -0.02834
 H1061 H 0.47657 0.34679 -0.08159
 H1062 H 0.49540 0.38798 -0.06212
 H1063 H 0.44564 0.33950 -0.02822
 H1064 H 0.45337 0.38102 -0.01671
 C1065 C 0.79888 0.41427 0.44868
 C1066 C 0.78759 0.39466 0.43350
 C1067 C 0.77650 0.36897 0.44430
 C1068 C 0.78433 0.35776 0.46776
 H1069 H 0.78650 0.39710 0.41177
 H1070 H 0.76314 0.35772 0.43091
 H1071 H 0.80028 0.41175 0.47039
 H1072 H 0.79919 0.36780 0.48048
 C1073 C 0.79468 0.91950 -0.04870
 C1074 C 0.80845 0.90130 -0.03386
 C1075 C 0.79693 0.87582 -0.02296
 C1076 C 0.77439 0.86349 -0.03231
 H1077 H 0.82986 0.90447 -0.02971
 H1078 H 0.80932 0.86564 -0.00797
 H1079 H 0.77348 0.91573 -0.05328
 H1080 H 0.76251 0.87252 -0.04836
 C1081 C 0.80440 0.30109 0.33395
 C1082 C 0.78014 0.30696 0.34519
 C1083 C 0.77065 0.29647 0.37172
 C1084 C 0.78130 0.27495 0.38447
 H1085 H 0.76695 0.32154 0.33547
 H1086 H 0.75428 0.30765 0.38127
 H1087 H 0.81769 0.28656 0.34359
 H1088 H 0.79701 0.26296 0.37492
 C1089 C 0.79948 0.80077 -0.16450
 C1090 C 0.80603 0.77687 -0.15317
 C1091 C 0.79693 0.76812 -0.12590
 C1092 C 0.77561 0.77876 -0.11268
 H1093 H 0.82005 0.76346 -0.16344
 H1094 H 0.80873 0.75224 -0.11638
 H1095 H 0.78561 0.81428 -0.15417
 H1096 H 0.76288 0.79377 -0.12232
 C1097 C 0.29829 0.45264 0.91574
 C1098 C 0.31399 0.46225 0.89562
 C1099 C 0.30351 0.47406 0.87027
 C1100 C 0.27923 0.46781 0.85949
 H1101 H 0.33595 0.46157 0.89756
 H1102 H 0.31771 0.48647 0.85884
 H1103 H 0.27632 0.45314 0.91394
 H1104 H 0.26570 0.45370 0.86964
 C1105 C 0.29895 -0.04749 0.41482
 C1106 C 0.31401 -0.03909 0.39371
 C1107 C 0.30271 -0.02777 0.36842
 C1108 C 0.27781 -0.03365 0.35881
 H1109 H 0.33601 -0.04031 0.39484
 H1110 H 0.31665 -0.01588 0.35615
 H1111 H 0.27694 -0.04636 0.41390
 H1112 H 0.26444 -0.04723 0.36985
 C1113 C -0.05182 -0.05089 -0.16137
 C1114 C -0.02550 -0.04880 -0.15433
 C1115 C -0.01648 -0.04081 -0.12694
 C1116 C -0.03097 -0.02456 -0.11067
 H1117 H -0.00991 -0.05510 -0.16852
 H1118 H 0.00307 -0.04842 -0.12025
 H1119 H -0.06757 -0.04520 -0.14711
 H1120 H -0.04957 -0.01534 -0.11793
 C1121 C -0.05013 0.44708 0.33699
 C1122 C -0.03876 0.43214 0.35667
 C1123 C -0.02715 0.44344 0.38183
 C1124 C -0.03453 0.46731 0.39248
 H1125 H -0.03778 0.41033 0.35452
 H1126 H -0.01349 0.43036 0.39300
 H1127 H -0.05143 0.46887 0.33913
 H1128 H -0.04965 0.47974 0.38255
 C1129 C 0.44672 -0.05019 0.33616
 C1130 C 0.43209 -0.04003 0.35675
 C1131 C 0.44381 -0.02710 0.38107
 C1132 C 0.46908 -0.03176 0.39019
 H1133 H 0.41007 -0.04126 0.35607
 H1134 H 0.42985 -0.01534 0.39333
 H1135 H 0.46875 -0.04923 0.33660
 H1136 H 0.48259 -0.04522 0.37930
 C1137 C 0.44684 0.44697 -0.15970
 C1138 C 0.47230 0.44422 -0.15014
 C1139 C 0.48059 0.45238 -0.12249
 C1140 C 0.46766 0.47131 -0.10783
 H1141 H 0.48786 0.43485 -0.16245
 H1142 H 0.49868 0.44283 -0.11440
 H1143 H 0.43134 0.45534 -0.14659
 H1144 H 0.45046 0.48208 -0.11625
 C1145 C 0.44918 0.79968 0.41271
 C1146 C 0.47536 0.79767 0.40512
 C1147 C 0.48384 0.78989 0.37749
 C1148 C 0.46892 0.77381 0.36137
 H1149 H 0.49124 0.80387 0.41903
 H1150 H 0.50338 0.79747 0.37052
 H1151 H 0.43316 0.79413 0.39872
 H1152 H 0.45034 0.76458 0.36888
 C1153 C -0.05009 0.79719 0.91478
 C1154 C -0.06466 0.78421 0.89573
 C1155 C -0.05320 0.77204 0.87087
 C1156 C -0.02901 0.77886 0.86013
 H1157 H -0.08657 0.78274 0.89779
 H1158 H -0.06676 0.75883 0.85963
 H1159 H -0.02822 0.79912 0.91263
 H1160 H -0.01593 0.79341 0.87014
 C1161 C 0.33283 0.79929 0.29810
 C1162 C 0.35271 0.81420 0.28671
 C1163 C 0.37805 0.80300 0.27522
 C1164 C 0.38878 0.77911 0.28244
 H1165 H 0.35070 0.83602 0.28577
 H1166 H 0.38943 0.81633 0.26187
 H1167 H 0.33487 0.77749 0.29942
 H1168 H 0.37863 0.76636 0.29719
 C1169 C -0.16321 0.79940 0.80084
 C1170 C -0.15674 0.79819 0.77445
 C1171 C -0.12935 0.79048 0.76476
 C1172 C -0.11345 0.77294 0.77802
 H1173 H -0.17116 0.80531 0.75952
 H1174 H -0.12226 0.79959 0.74607
 H1175 H -0.14851 0.79306 0.81587
 H1176 H -0.12126 0.76235 0.79563
 C1177 C 0.91744 0.30021 0.44430
 C1178 C 0.90688 0.30467 0.46899
 C1179 C 0.88019 0.29412 0.47829
 C1180 C 0.86636 0.27384 0.46640
 H1181 H 0.91732 0.31821 0.48278
 H1182 H 0.87142 0.30426 0.49567
 H1183 H 0.90719 0.28666 0.43040
 H1184 H 0.87514 0.26268 0.44971
 C1185 C 0.91081 0.80245 -0.05233
 C1186 C 0.90413 0.77625 -0.04906
 C1187 C 0.87656 0.76725 -0.04094
 C1188 C 0.86018 0.78198 -0.02503
 H1189 H 0.91866 0.76073 -0.05459
 H1190 H 0.86979 0.74766 -0.04828
 H1191 H 0.89613 0.81805 -0.04748
 H1192 H 0.86758 0.80065 -0.01609
 C1193 C -0.16831 -0.04522 -0.04789
 C1194 C -0.15198 -0.02699 -0.06012
 C1195 C -0.12579 -0.01731 -0.04878
 C1196 C -0.11148 -0.03071 -0.02992
 H1197 H -0.15735 -0.01866 -0.07960
 H1198 H -0.11702 0.00055 -0.05820
 H1199 H -0.16363 -0.05116 -0.02737
 H1200 H -0.11936 -0.04922 -0.02108
 C1201 C -0.16351 0.44724 0.44906
 C1202 C -0.15264 0.47170 0.44367
 C1203 C -0.12571 0.48110 0.45350
 C1204 C -0.11159 0.46953 0.47367
 H1205 H -0.16315 0.48532 0.43009
 H1206 H -0.11713 0.49848 0.44307
 H1207 H -0.15317 0.43356 0.46269
 H1208 H -0.12014 0.45284 0.48509
 C1209 C 0.33721 -0.05091 0.44902
 C1210 C 0.34565 -0.02502 0.44768
 C1211 C 0.37306 -0.01591 0.45641
 C1212 C 0.38795 -0.02864 0.47527
 H1213 H 0.33281 -0.01004 0.43809
 H1214 H 0.38109 0.00213 0.44672
 H1215 H 0.35009 -0.06597 0.45844
 H1216 H 0.37950 -0.04575 0.48618
 C1217 C 0.33582 0.44836 -0.04950
 C1218 C 0.34406 0.47432 -0.04959
 C1219 C 0.37155 0.48311 -0.04104
 C1220 C 0.38740 0.46898 -0.02407
 H1221 H 0.33093 0.48968 -0.05814
 H1222 H 0.37882 0.50220 -0.04919
 H1223 H 0.34879 0.43282 -0.04105
 H1224 H 0.37977 0.45081 -0.01436
 C1225 C 0.41445 0.44931 0.80108
 C1226 C 0.40331 0.47305 0.80854
 C1227 C 0.37673 0.48306 0.79850
 C1228 C 0.36403 0.47358 0.77637
 H1229 H 0.41295 0.48521 0.82404
 H1230 H 0.36691 0.49845 0.81069
 H1231 H 0.40494 0.43779 0.78511
 H1232 H 0.37379 0.45894 0.76333
 C1233 C 0.40778 -0.05558 0.30304
 C1234 C 0.39976 -0.02956 0.30299
 C1235 C 0.37236 -0.02056 0.29441
 C1236 C 0.35645 -0.03436 0.27716
 H1237 H 0.41315 -0.01415 0.31120
 H1238 H 0.36535 -0.00141 0.30255
 H1239 H 0.39450 -0.07110 0.29486
 H1240 H 0.36388 -0.05264 0.26759
 C1241 C 0.08623 0.55041 0.70078
 C1242 C 0.10729 0.56530 0.70979
 C1243 C 0.13213 0.55400 0.72212
 C1244 C 0.14166 0.52913 0.71688
 H1245 H 0.10642 0.58718 0.70838
 H1246 H 0.14428 0.56790 0.73410
 H1247 H 0.08689 0.52852 0.70198
 H1248 H 0.13092 0.51581 0.70310
 C1249 C 0.07858 0.04583 0.20401
 C1250 C 0.09499 0.05966 0.22096
 C1251 C 0.12113 0.04933 0.23184
 C1252 C 0.13425 0.02767 0.22195
 H1253 H 0.08990 0.08023 0.22656
 H1254 H 0.13090 0.06159 0.24724
 H1255 H 0.08351 0.02523 0.19847
 H1256 H 0.12545 0.01579 0.20579
 C1257 C 0.66524 0.70225 0.20024
 C1258 C 0.64941 0.68892 0.21813
 C1259 C 0.62307 0.69905 0.22893
 C1260 C 0.61039 0.72158 0.22039
 H1261 H 0.65509 0.66875 0.22453
 H1262 H 0.61295 0.68608 0.24355
 H1263 H 0.65950 0.72224 0.19344
 H1264 H 0.61961 0.73459 0.20535
 C1265 C 0.16220 0.69753 0.69608
 C1266 C 0.15086 0.69144 0.72011
 C1267 C 0.12385 0.70121 0.72926
 C1268 C 0.11019 0.72191 0.71806
 H1269 H 0.16111 0.67750 0.73357
 H1270 H 0.11489 0.69041 0.74620
 H1271 H 0.15207 0.71148 0.68256
 H1272 H 0.11913 0.73367 0.70182
 C1273 C 0.58906 0.19765 0.54939
 C1274 C 0.60574 0.21538 0.56184
 C1275 C 0.63188 0.22564 0.55055
 C1276 C 0.64439 0.21559 0.52854
 H1277 H 0.60069 0.22248 0.58195
 H1278 H 0.64194 0.24139 0.56216
 H1279 H 0.59409 0.19035 0.52938
 H1280 H 0.63527 0.19928 0.51707
 C1281 C 0.58584 0.69715 0.05167
 C1282 C 0.59458 0.72286 0.05402
 C1283 C 0.62179 0.73228 0.04510
 C1284 C 0.63699 0.71957 0.02645
 H1285 H 0.58193 0.73755 0.06434
 H1286 H 0.62937 0.75072 0.05438
 H1287 H 0.59860 0.68225 0.04185
 H1288 H 0.62911 0.70200 0.01591
 C1289 C 0.16578 0.04872 0.04912
 C1290 C 0.14951 0.06206 0.03181
 C1291 C 0.12329 0.05146 0.02112
 C1292 C 0.11055 0.02910 0.03026
 H1293 H 0.15479 0.08249 0.02572
 H1294 H 0.11326 0.06400 0.00617
 H1295 H 0.16054 0.02838 0.05544
 H1296 H 0.11963 0.01665 0.04578
 C1297 C 0.16142 0.55373 0.55155
 C1298 C 0.15532 0.52733 0.54911
 C1299 C 0.12824 0.51762 0.54034
 C1300 C 0.11256 0.53120 0.52280
 H1301 H 0.16981 0.51228 0.55588
 H1302 H 0.12117 0.49855 0.54872
 H1303 H 0.14668 0.56884 0.54548
 H1304 H 0.12035 0.54926 0.51293
 C1305 C 0.66547 0.05125 0.54961
 C1306 C 0.65384 0.02734 0.55587
 C1307 C 0.62674 0.01826 0.54621
 C1308 C 0.61271 0.02987 0.52601
 H1309 H 0.66392 0.01391 0.56996
 H1310 H 0.61794 0.00110 0.55682
 H1311 H 0.65567 0.06472 0.53540
 H1312 H 0.62139 0.04641 0.51448
 C1313 C 0.66516 0.55081 0.05038
 C1314 C 0.64394 0.54236 0.06538
 C1315 C 0.61898 0.52974 0.05447
 C1316 C 0.60924 0.53427 0.02955
 H1317 H 0.64469 0.54450 0.08717
 H1318 H 0.60681 0.51825 0.06879
 H1319 H 0.66453 0.54870 0.02861
 H1320 H 0.61997 0.54764 0.01575
 C1321 C 0.04717 0.04646 0.16534
 C1322 C 0.02141 0.04776 0.15629
 C1323 C 0.01294 0.03922 0.12882
 C1324 C 0.02665 0.02143 0.11345
 H1325 H 0.00607 0.05753 0.16864
 H1326 H -0.00545 0.04843 0.12100
 H1327 H 0.06266 0.03676 0.15315
 H1328 H 0.04416 0.01089 0.12151
 C1329 C 0.05017 0.55092 0.66466
 C1330 C 0.06303 0.53309 0.64854
 C1331 C 0.05213 0.52261 0.62256
 C1332 C 0.03047 0.53286 0.60952
 H1333 H 0.08322 0.52619 0.65389
 H1334 H 0.06391 0.50674 0.61298
 H1335 H 0.03002 0.55793 0.65938
 H1336 H 0.01892 0.54935 0.61814
 C1337 C 0.55448 0.05288 0.66072
 C1338 C 0.52855 0.05378 0.65211
 C1339 C 0.51986 0.04545 0.62467
 C1340 C 0.53361 0.02783 0.60917
 H1341 H 0.51306 0.06248 0.66506
 H1342 H 0.50096 0.05400 0.61730
 H1343 H 0.57008 0.04426 0.64787
 H1344 H 0.55155 0.01781 0.61693
 C1345 C 0.54660 0.54738 0.16841
 C1346 C 0.56029 0.53047 0.15198
 C1347 C 0.54979 0.51990 0.12586
 C1348 C 0.52771 0.52951 0.11305
 H1349 H 0.58089 0.52463 0.15709
 H1350 H 0.56225 0.50478 0.11592
 H1351 H 0.52603 0.55332 0.16340
 H1352 H 0.51552 0.54535 0.12200
 C1353 C 0.19964 0.55032 0.58564
 C1354 C 0.18486 0.53790 0.60495
 C1355 C 0.19629 0.52616 0.62999
 C1356 C 0.21996 0.53396 0.64115
 H1357 H 0.16300 0.53611 0.60263
 H1358 H 0.18328 0.51198 0.64074
 H1359 H 0.22147 0.55242 0.58803
 H1360 H 0.23230 0.54952 0.63167
 C1361 C 0.19744 0.05014 0.08742
 C1362 C 0.22346 0.05034 0.09579
 C1363 C 0.23193 0.04149 0.12310
 C1364 C 0.21801 0.02344 0.13807
 H1365 H 0.23905 0.05918 0.08297
 H1366 H 0.25051 0.05039 0.13100
 H1367 H 0.18175 0.04146 0.10022
 H1368 H 0.20041 0.01314 0.12974
 C1369 C 0.70370 0.19690 0.65916
 C1370 C 0.70339 0.22279 0.65074
 C1371 C 0.71127 0.23131 0.62310
 C1372 C 0.72851 0.21736 0.60736
 H1373 H 0.69532 0.23834 0.66393
 H1374 H 0.70263 0.25009 0.61574
 H1375 H 0.71166 0.18125 0.64601
 H1376 H 0.73866 0.19955 0.61514
 C1377 C 0.69675 0.70099 0.16171
 C1378 C 0.72280 0.70160 0.15340
 C1379 C 0.73131 0.71005 0.12594
 C1380 C 0.71669 0.72651 0.11002
 H1381 H 0.73856 0.69378 0.16654
 H1382 H 0.75069 0.70236 0.11882
 H1383 H 0.68082 0.70874 0.14874
 H1384 H 0.69819 0.73578 0.11749
 C1385 C 0.55075 0.69951 0.08797
 C1386 C 0.52473 0.69747 0.09619
 C1387 C 0.51522 0.70634 0.12317
 C1388 C 0.52769 0.72555 0.13790
 H1389 H 0.51000 0.68717 0.08350
 H1390 H 0.49720 0.69634 0.13108
 H1391 H 0.56564 0.70921 0.10092
 H1392 H 0.54475 0.73677 0.12958
 C1393 C 0.04738 0.70118 0.58371
 C1394 C 0.03834 0.68561 0.60416
 C1395 C 0.02648 0.69609 0.62956
 C1396 C 0.03203 0.72064 0.63983
 H1397 H 0.03938 0.66377 0.60233
 H1398 H 0.01443 0.68186 0.64131
 H1399 H 0.04652 0.72303 0.58529
 H1400 H 0.04572 0.73432 0.62932
 C1401 C 0.54779 0.58575 0.19994
 C1402 C 0.54826 0.59424 0.22576
 C1403 C 0.54009 0.62177 0.23425
 C1404 C 0.52276 0.63740 0.22031
 H1405 H 0.55703 0.58133 0.24115
 H1406 H 0.54894 0.62932 0.25287
 H1407 H 0.53912 0.59852 0.18439
 H1408 H 0.51242 0.62950 0.20265
 C1409 C 0.05246 0.58878 0.69686
 C1410 C 0.05370 0.59704 0.72274
 C1411 C 0.04552 0.62441 0.73175
 C1412 C 0.02728 0.63965 0.71860
 H1413 H 0.06274 0.58397 0.73784
 H1414 H 0.05477 0.63198 0.75017
 H1415 H 0.04357 0.60181 0.68165
 H1416 H 0.01660 0.63159 0.70120
 C1417 C 0.05148 0.16153 0.05092
 C1418 C 0.04785 0.15470 0.02493
 C1419 C 0.03921 0.12734 0.01642
 C1420 C 0.02346 0.11107 0.03161
 H1421 H 0.05353 0.16894 0.00920
 H1422 H 0.04614 0.12057 -0.00328
 H1423 H 0.04646 0.14722 0.06680
 H1424 H 0.01479 0.11838 0.05041
 C1425 C 0.05049 0.66417 0.54846
 C1426 C 0.02428 0.65625 0.54946
 C1427 C 0.01491 0.62907 0.54090
 C1428 C 0.02780 0.61399 0.52234
 H1429 H 0.00934 0.66922 0.55900
 H1430 H -0.00330 0.62126 0.55064
 H1431 H 0.06555 0.65119 0.53910
 H1432 H 0.04499 0.62226 0.51128
 C1433 C 0.55596 0.16028 0.55232
 C1434 C 0.52979 0.15224 0.55386
 C1435 C 0.52022 0.12498 0.54556
 C1436 C 0.53273 0.10985 0.52676
 H1437 H 0.51486 0.16543 0.56310
 H1438 H 0.50183 0.11744 0.55517
 H1439 H 0.57093 0.14703 0.54321
 H1440 H 0.55008 0.11792 0.51581
 C1441 C 0.54838 0.66306 0.05322
 C1442 C 0.55083 0.65478 0.02745
 C1443 C 0.54180 0.62782 0.01789
 C1444 C 0.52215 0.61318 0.02996
 H1445 H 0.56170 0.66735 0.01304
 H1446 H 0.55216 0.61976 0.00028
 H1447 H 0.53810 0.65025 0.06784
 H1448 H 0.51065 0.62161 0.04665
 C1449 C 0.70431 0.08285 0.54888
 C1450 C 0.71673 0.10239 0.56327
 C1451 C 0.72894 0.12716 0.55150
 C1452 C 0.72155 0.13780 0.52764
 H1453 H 0.71793 0.10064 0.58506
 H1454 H 0.74285 0.13831 0.56442
 H1455 H 0.70282 0.08468 0.52710
 H1456 H 0.70623 0.12793 0.51534
 C1457 C 0.69800 0.58961 0.05422
 C1458 C 0.69447 0.59902 0.02892
 C1459 C 0.70232 0.62668 0.02006
 C1460 C 0.72122 0.64204 0.03239
 H1461 H 0.68446 0.58657 0.01393
 H1462 H 0.69236 0.63426 0.00203
 H1463 H 0.70711 0.60276 0.06919
 H1464 H 0.73237 0.63421 0.04956
 C1465 C 0.19652 0.65997 0.69752
 C1466 C 0.22302 0.65341 0.69892
 C1467 C 0.23278 0.62630 0.70707
 C1468 C 0.21912 0.61005 0.72411
 H1469 H 0.23822 0.66777 0.69191
 H1470 H 0.25222 0.61984 0.69891
 H1471 H 0.18118 0.64548 0.70392
 H1472 H 0.20064 0.61713 0.73378
 C1473 C 0.19986 0.16185 0.19791
 C1474 C 0.22536 0.15224 0.19548
 C1475 C 0.23346 0.12460 0.20391
 C1476 C 0.22047 0.11026 0.22308
 H1477 H 0.24069 0.16431 0.18524
 H1478 H 0.25103 0.11597 0.19382
 H1479 H 0.18443 0.14976 0.20797
 H1480 H 0.20392 0.11930 0.23439
 C1481 C 0.70528 1.16464 0.69697
 C1482 C 0.69181 1.14889 0.71476
 C1483 C 0.70189 1.12262 0.72523
 C1484 C 0.72240 1.10840 0.71421
 H1485 H 0.67190 1.15499 0.72192
 H1486 H 0.69052 1.11398 0.74198
 H1487 H 0.72520 1.15863 0.68981
 H1488 H 0.73336 1.11605 0.69680
 C1489 C 0.70244 0.66721 0.19977
 C1490 C 0.71262 0.64703 0.18459
 C1491 C 0.72531 0.62217 0.19543
 C1492 C 0.72027 0.61222 0.22017
 H1493 H 0.71152 0.64841 0.16275
 H1494 H 0.73716 0.61028 0.18124
 H1495 H 0.70334 0.66603 0.22161
 H1496 H 0.70673 0.62281 0.23385
 C1497 C 0.54972 0.08602 0.69958
 C1498 C 0.54072 0.10708 0.68498
 C1499 C 0.52882 0.13196 0.69654
 C1500 C 0.53432 0.14137 0.72142
 H1501 H 0.54208 0.10635 0.66312
 H1502 H 0.51718 0.14437 0.68267
 H1503 H 0.54857 0.08659 0.72145
 H1504 H 0.54775 0.13029 0.73478
 C1505 C 1.04316 0.08230 0.20179
 C1506 C 1.03558 0.10281 0.18570
 C1507 C 1.02497 0.12893 0.19562
 C1508 C 1.03175 0.13988 0.21955
 H1509 H 1.03712 0.10059 0.16395
 H1510 H 1.01313 0.14065 0.18132
 H1511 H 1.04166 0.08438 0.22355
 H1512 H 1.04539 0.12931 0.23310
 C1513 C 0.19889 0.58824 0.55334
 C1514 C 0.19284 0.59926 0.52918
 C1515 C 0.20229 0.62627 0.51994
 C1516 C 0.22263 0.64043 0.53138
 H1517 H 0.17911 0.58869 0.51565
 H1518 H 0.19158 0.63480 0.50279
 H1519 H 0.21265 0.59862 0.56694
 H1520 H 0.23428 0.63194 0.54785
 C1521 C 0.20235 0.08459 1.04972
 C1522 C 0.21186 0.10506 1.06498
 C1523 C 0.22418 0.13019 1.05412
 C1524 C 0.21871 0.14027 1.02953
 H1525 H 0.21074 0.10354 1.08681
 H1526 H 0.23645 0.14195 1.06809
 H1527 H 0.20334 0.08590 1.02788
 H1528 H 0.20483 0.12975 1.01612
 C1529 C 0.20048 0.69859 0.66409
 C1530 C 0.21198 0.68411 0.64415
 C1531 C 0.22386 0.69589 0.61932
 C1532 C 0.21668 0.71995 0.60891
 H1533 H 0.21285 0.66225 0.64578
 H1534 H 0.23748 0.68286 0.60800
 H1535 H 0.19923 0.72042 0.66241
 H1536 H 0.20158 0.73237 0.61891
 C1537 C 0.20431 0.19959 1.16348
 C1538 C 0.21104 0.18425 1.14214
 C1539 C 0.22263 0.19504 1.11678
 C1540 C 0.21700 0.21970 1.10683
 H1541 H 0.20845 0.16247 1.14326
 H1542 H 0.23448 0.18096 1.10478
 H1543 H 0.20690 0.22138 1.16253
 H1544 H 0.20327 0.23311 1.11754
 C1545 C 0.69987 0.55045 0.08693
 C1546 C 0.72352 0.55807 0.09839
 C1547 C 0.73335 0.54799 0.12492
 C1548 C 0.72282 0.52667 0.13836
 H1549 H 0.73584 0.57369 0.08902
 H1550 H 0.74958 0.55969 0.13417
 H1551 H 0.68839 0.53415 0.09603
 H1552 H 0.70722 0.51407 0.12937
 C1553 C 0.69893 1.04997 0.58778
 C1554 C 0.72524 1.04728 0.59457
 C1555 C 0.73426 1.03915 0.62189
 C1556 C 0.71953 1.02316 0.63832
 H1557 H 0.74088 1.05320 0.58024
 H1558 H 0.75405 1.04646 0.62838
 H1559 H 0.68315 1.04464 0.60219
 H1560 H 0.70066 1.01418 0.63126
 C1561 C 0.55273 0.19948 0.58531
 C1562 C 0.54340 0.18528 0.60657
 C1563 C 0.53133 0.19726 0.63120
 C1564 C 0.53654 0.22242 0.64019
 H1565 H 0.54440 0.16337 0.60611
 H1566 H 0.51955 0.18350 0.64374
 H1567 H 0.55206 0.22140 0.58559
 H1568 H 0.55007 0.23574 0.62903
 C1569 C 1.05311 0.20024 0.08343
 C1570 C 1.02887 0.19430 0.09478
 C1571 C 1.01984 0.20396 0.12169
 C1572 C 1.03137 0.22452 0.13533
 H1573 H 1.01527 0.18020 0.08476
 H1574 H 1.00297 0.19299 0.13074
 H1575 H 1.06680 0.21437 0.09323
 H1576 H 1.04756 0.23641 0.12631
 C1577 C 0.67108 0.20241 0.69850
 C1578 C 0.65007 0.21225 0.68427
 C1579 C 0.62578 0.22517 0.69617
 C1580 C 0.61652 0.22034 0.72128
 H1581 H 0.65042 0.21087 0.66240
 H1582 H 0.61355 0.23708 0.68237
 H1583 H 0.67090 0.20346 0.72038
 H1584 H 0.62731 0.20669 0.73462
 C1585 C 1.16876 0.20079 0.20008
 C1586 C 1.15351 0.21960 0.18752
 C1587 C 1.12754 0.23076 0.19806
 C1588 C 1.11461 0.22189 0.22036
 H1589 H 1.15928 0.22652 0.16753
 H1590 H 1.11777 0.24584 0.18546
 H1591 H 1.16293 0.19358 0.21992
 H1592 H 1.12348 0.20641 0.23300
 C1593 C 0.08368 0.70153 0.54769
 C1594 C 0.10019 0.71866 0.56111
 C1595 C 0.12645 0.72925 0.55051
 C1596 C 0.14000 0.71871 0.52935
 H1597 H 0.09486 0.72505 0.58138
 H1598 H 0.13579 0.74544 0.56209
 H1599 H 0.08892 0.69525 0.52737
 H1600 H 0.13167 0.70178 0.51817
 C1601 C 0.08546 0.19969 1.04524
 C1602 C 0.10450 0.18465 1.03271
 C1603 C 0.12999 0.19549 1.02078
 C1604 C 0.14116 0.21934 1.02764
 H1605 H 0.10188 0.16290 1.03139
 H1606 H 0.14114 0.18192 1.00757
 H1607 H 0.08811 0.22140 1.04687
 H1608 H 0.13118 0.23239 1.04216
 C1609 C 0.58275 0.54846 0.20444
 C1610 C 0.60312 0.56416 0.21367
 C1611 C 0.62863 0.55390 0.22565
 C1612 C 0.63919 0.52948 0.22023
 H1613 H 0.60129 0.58599 0.21251
 H1614 H 0.64039 0.56833 0.23740
 H1615 H 0.58441 0.52662 0.20537
 H1616 H 0.62870 0.51564 0.20678
 C1617 C 0.58607 1.05028 0.69909
 C1618 C 0.60228 1.06313 0.71691
 C1619 C 0.62826 1.05224 0.72764
 C1620 C 0.64066 1.02980 0.71849
 H1621 H 0.59710 1.08338 0.72351
 H1622 H 0.63834 1.06451 0.74284
 H1623 H 0.59125 1.03017 0.69216
 H1624 H 0.63152 1.01756 0.70280
 C1625 C 0.91205 0.44682 0.30453
 C1626 C 0.90106 0.44127 0.28025
 C1627 C 0.87423 0.45135 0.27103
 C1628 C 0.86095 0.47246 0.28196
 H1629 H 0.91140 0.42752 0.26664
 H1630 H 0.86514 0.44056 0.25419
 H1631 H 0.90170 0.46049 0.31820
 H1632 H 0.87013 0.48427 0.29799
 C1633 C 0.91499 0.94862 0.80023
 C1634 C 0.90402 0.97282 0.80638
 C1635 C 0.87711 0.98233 0.79671
 C1636 C 0.86315 0.97110 0.77623
 H1637 H 0.91441 0.98604 0.82051
 H1638 H 0.86831 0.99923 0.80762
 H1639 H 0.90481 0.93531 0.78608
 H1640 H 0.87186 0.95479 0.76449
 C1641 C 0.34107 0.30334 0.80016
 C1642 C 0.35306 0.27990 0.80719
 C1643 C 0.38051 0.27125 0.79811
 C1644 C 0.39471 0.28286 0.77792
 H1645 H 0.34292 0.26646 0.82131
 H1646 H 0.38933 0.25436 0.80899
 H1647 H 0.35097 0.31679 0.78590
 H1648 H 0.38605 0.29917 0.76618
 C1649 C 0.83713 0.30177 0.29616
 C1650 C 0.85698 0.31666 0.28460
 C1651 C 0.88198 0.30543 0.27228
 C1652 C 0.89242 0.28114 0.27851
 H1653 H 0.85528 0.33852 0.28418
 H1654 H 0.89347 0.31903 0.25931
 H1655 H 0.83891 0.27993 0.29696
 H1656 H 0.88222 0.26808 0.29295
 C1657 C 0.41627 0.80048 0.45140
 C1658 C 0.40473 0.77651 0.44526
 C1659 C 0.37746 0.76761 0.45469
 C1660 C 0.36322 0.77956 0.47456
 H1661 H 0.41492 0.76303 0.43126
 H1662 H 0.36862 0.75052 0.44405
 H1663 H 0.40640 0.81401 0.46553
 H1664 H 0.37192 0.79603 0.48613
 C1665 C 0.41557 0.30099 0.94968
 C1666 C 0.40791 0.27486 0.94786
 C1667 C 0.38066 0.26489 0.95619
 C1668 C 0.36540 0.27698 0.97516
 H1669 H 0.42119 0.26044 0.93798
 H1670 H 0.37298 0.24700 0.94598
 H1671 H 0.40223 0.31551 0.95934
 H1672 H 0.37355 0.29393 0.98651
 C1673 C 0.80277 0.44881 0.41105
 C1674 C 0.77636 0.45030 0.40419
 C1675 C 0.76698 0.45890 0.37711
 C1676 C 0.78093 0.47618 0.36132
 H1677 H 0.76101 0.44300 0.41820
 H1678 H 0.74764 0.45080 0.37023
 H1679 H 0.81829 0.45550 0.39693
 H1680 H 0.79930 0.48579 0.36882
 C1681 C 0.79970 0.95110 0.91251
 C1682 C 0.77345 0.95425 0.90572
 C1683 C 0.76481 0.96154 0.87802
 C1684 C 0.77963 0.97762 0.86174
 H1685 H 0.75758 0.95019 0.92042
 H1686 H 0.74529 0.95381 0.87124
 H1687 H 0.81528 0.95417 0.89728
 H1688 H 0.79817 0.98698 0.86921
 C1689 C 0.30058 0.79984 0.33612
 C1690 C 0.27635 0.80573 0.34737
 C1691 C 0.26756 0.79658 0.37457
 C1692 C 0.27948 0.77665 0.38869
 H1693 H 0.26256 0.81925 0.33696
 H1694 H 0.25051 0.80735 0.38339
 H1695 H 0.31445 0.78629 0.34634
 H1696 H 0.29585 0.76493 0.37995
 C1697 C 0.30625 0.30156 0.83729
 C1698 C 0.27974 0.29880 0.84352
 C1699 C 0.27004 0.29062 0.87068
 C1700 C 0.28409 0.27411 0.88703
 H1701 H 0.26447 0.30473 0.82889
 H1702 H 0.25042 0.29833 0.87712
 H1703 H 0.32157 0.29630 0.85212
 H1704 H 0.30276 0.26484 0.87992
 C1705 C 0.45349 0.29925 0.91499
 C1706 C 0.43839 0.29061 0.89406
 C1707 C 0.44960 0.27923 0.86877
 C1708 C 0.47451 0.28492 0.85907
 H1709 H 0.41639 0.29149 0.89544
 H1710 H 0.43560 0.26732 0.85663
 H1711 H 0.47551 0.29859 0.91386
 H1712 H 0.48797 0.29851 0.86994
 C1713 C 0.95509 0.30188 0.41159
 C1714 C 0.96609 0.31727 0.39196
 C1715 C 0.97748 0.30645 0.36645
 C1716 C 0.96993 0.28272 0.35544
 H1717 H 0.96674 0.33908 0.39429
 H1718 H 0.99098 0.31984 0.35528
 H1719 H 0.95429 0.28008 0.40922
 H1720 H 0.95497 0.27000 0.36542
 C1721 C 0.45199 0.41547 0.80086
 C1722 C 0.43756 0.39428 0.79153
 C1723 C 0.44943 0.36999 0.77870
 C1724 C 0.47481 0.36109 0.78322
 H1725 H 0.41557 0.39442 0.79320
 H1726 H 0.43552 0.35761 0.76694
 H1727 H 0.47395 0.41540 0.79926
 H1728 H 0.48827 0.37204 0.79672
 C1729 C 0.94668 0.40953 0.30239
 C1730 C 0.97328 0.40336 0.30102
 C1731 C 0.98340 0.37668 0.29197
 C1732 C 0.97027 0.36120 0.27389
 H1733 H 0.98822 0.41760 0.30870
 H1734 H 1.00259 0.36990 0.30037
 H1735 H 0.93161 0.39509 0.29535
 H1736 H 0.95206 0.36870 0.26409
 C1737 C 0.29906 0.91678 0.45116
 C1738 C 0.28089 0.90068 0.43854
 C1739 C 0.27029 0.87461 0.44936
 C1740 C 0.27934 0.86231 0.47187
 H1741 H 0.27403 0.90592 0.41842
 H1742 H 0.25539 0.86430 0.43684
 H1743 H 0.30624 0.91148 0.47112
 H1744 H 0.29469 0.87171 0.48441
 C1745 C 0.29752 0.41644 0.95153
 C1746 C 0.28113 0.39959 0.93765
 C1747 C 0.27100 0.37323 0.94801
 C1748 C 0.28152 0.36018 0.96943
 H1749 H 0.27538 0.40459 0.91712
 H1750 H 0.25546 0.36333 0.93595
 H1751 H 0.30323 0.41157 0.97208
 H1752 H 0.29783 0.36911 0.98114
 C1753 C 0.80398 0.34044 0.30190
 C1754 C 0.80198 0.34807 0.27591
 C1755 C 0.79405 0.37564 0.26738
 C1756 C 0.77806 0.39190 0.28218
 H1757 H 0.80822 0.33416 0.26014
 H1758 H 0.80131 0.38240 0.24778
 H1759 H 0.79827 0.35435 0.31786
 H1760 H 0.76911 0.38461 0.30088
   
