data_POSCAR
  _audit_creation_date              2014-09-24
  _audit_creation_method            'ToBaCCo'
  _symmetry_space_group_name_H-M    'P1'
  _symmetry_Int_Tables_number       1
  _symmetry_cell_setting            triclinic
  loop_
  _symmetry_equiv_pos_as_xyz
 x,y,z
_cell_length_a 49.0689
_cell_length_b 49.8709
_cell_length_c 49.8115
_cell_angle_alpha 88.823500
_cell_angle_beta 91.271300
_cell_angle_gamma 87.876200
loop_
  _atom_site_label
  _atom_site_type_symbol
  _atom_site_fract_x
  _atom_site_fract_y
  _atom_site_fract_z
C1 C 0.73873 0.60445 1.03659
 C2 C 0.75452 0.61610 1.01677
 C3 C 0.77941 0.62720 1.02375
 C4 C 0.78840 0.62771 1.05083
 C5 C 0.77121 0.61716 1.07059
 C6 C 0.74660 0.60466 1.06400
 C7 C 0.74425 0.61689 0.98866
 C8 C 0.71869 0.62926 0.98253
 C9 C 0.70792 0.62961 0.95623
 C10 C 0.72285 0.61687 0.93605
 C11 C 0.74845 0.60412 0.94188
 C12 C 0.75918 0.60459 0.96831
 H13 H 0.72074 0.59449 1.02984
 H14 H 0.79174 0.63483 1.00778
 H15 H 0.70742 0.63907 0.99828
 H16 H 0.77893 0.59509 0.97320
 H17 H 0.77621 0.62061 1.09138
 H18 H 0.71408 0.61620 0.91594
 C19 C 0.74368 0.37491 0.46538
 C20 C 0.75762 0.36132 0.48681
 C21 C 0.78172 0.34622 0.48204
 C22 C 0.79149 0.34410 0.45583
 C23 C 0.77751 0.35817 0.43470
 C24 C 0.75360 0.37355 0.43923
 C25 C 0.74625 0.36207 0.51399
 C26 C 0.71986 0.35320 0.51836
 C27 C 0.70871 0.35367 0.54414
 C28 C 0.72419 0.36419 0.56534
 C29 C 0.75030 0.37387 0.56105
 C30 C 0.76145 0.37216 0.53540
 H31 H 0.72492 0.38624 0.46908
 H32 H 0.79209 0.33521 0.49849
 H33 H 0.70813 0.34591 0.50153
 H34 H 0.78152 0.37966 0.53179
 H35 H 0.78540 0.35724 0.41458
 H36 H 0.71630 0.36441 0.58546
 C37 C 0.23206 -0.11639 -0.03931
 C38 C 0.24598 -0.12797 -0.01695
 C39 C 0.27230 -0.13938 -0.01976
 C40 C 0.28520 -0.13910 -0.04486
 C41 C 0.27098 -0.12638 -0.06696
 C42 C 0.24445 -0.11531 -0.06434
 C43 C 0.23339 -0.12667 0.00967
 C44 C 0.20784 -0.13763 0.01393
 C45 C 0.19514 -0.13573 0.03911
 C46 C 0.20848 -0.12111 0.05929
 C47 C 0.23416 -0.11048 0.05529
 C48 C 0.24664 -0.11362 0.03053
 H49 H 0.21185 -0.10733 -0.03697
 H50 H 0.28287 -0.14763 -0.00197
 H51 H 0.19895 -0.14874 -0.00225
 H52 H 0.26629 -0.10505 0.02713
 H53 H 0.27960 -0.12645 -0.08677
 H54 H 0.19904 -0.11746 0.07833
 C55 C 0.26666 0.09789 0.52926
 C56 C 0.28135 0.11021 0.50890
 C57 C 0.30716 0.12018 0.51485
 C58 C 0.31827 0.11794 0.54110
 C59 C 0.30347 0.10504 0.56113
 C60 C 0.27776 0.09490 0.55536
 C61 C 0.26978 0.11200 0.48130
 C62 C 0.24443 0.12533 0.47612
 C63 C 0.23311 0.12662 0.44999
 C64 C 0.24690 0.11352 0.42932
 C65 C 0.27215 0.09990 0.43418
 C66 C 0.28365 0.09957 0.46028
 H67 H 0.24690 0.08991 0.52454
 H68 H 0.31845 0.12974 0.49909
 H69 H 0.23391 0.13519 0.49231
 H70 H 0.30322 0.08936 0.46442
 H71 H 0.31154 0.10362 0.58156
 H72 H 0.23750 0.11341 0.40944
 C73 C 0.10871 0.50724 0.23865
 C74 C 0.12198 0.48624 0.25344
 C75 C 0.13493 0.49134 0.27800
 C76 C 0.13494 0.51750 0.28766
 C77 C 0.12185 0.53852 0.27251
 C78 C 0.10832 0.53388 0.24777
 C79 C 0.12185 0.45889 0.24293
 C80 C 0.13361 0.45354 0.21814
 C81 C 0.13215 0.42804 0.20689
 C82 C 0.11821 0.40802 0.22070
 C83 C 0.10639 0.41315 0.24563
 C84 C 0.10860 0.43863 0.25676
 H85 H 0.09768 0.50201 0.22059
 H86 H 0.14500 0.47499 0.28949
 H87 H 0.14426 0.46927 0.20791
 H88 H 0.09909 0.44307 0.27568
 H89 H 0.12370 0.55866 0.27977
 H90 H 0.11653 0.38837 0.21208
 C91 C -0.10697 -0.04874 0.24724
 C92 C -0.11460 -0.02506 0.26011
 C93 C -0.12562 -0.02631 0.28580
 C94 C -0.12999 -0.05123 0.29865
 C95 C -0.12171 -0.07488 0.28535
 C96 C -0.10999 -0.07378 0.25989
 C97 C -0.11181 0.00112 0.24631
 C98 C -0.12487 0.00637 0.22140
 C99 C -0.12301 0.03145 0.20803
 C100 C -0.10652 0.05082 0.22003
 C101 C -0.09337 0.04573 0.24514
 C102 C -0.09645 0.02087 0.25820
 H103 H -0.09858 -0.04758 0.22732
 H104 H -0.13242 -0.00768 0.29470
 H105 H -0.13617 -0.00954 0.21245
 H106 H -0.08698 0.01681 0.27780
 H107 H -0.12301 -0.09429 0.29526
 H108 H -0.10474 0.07039 0.21062
 C109 C 0.38600 0.48103 0.74118
 C110 C 0.37147 0.50306 0.75134
 C111 C 0.35869 0.50069 0.77614
 C112 C 0.36003 0.47619 0.79104
 C113 C 0.37504 0.45427 0.78030
 C114 C 0.38803 0.45663 0.75557
 C115 C 0.37003 0.52868 0.73593
 C116 C 0.35853 0.52987 0.70992
 C117 C 0.35779 0.55395 0.69480
 C118 C 0.36929 0.57681 0.70575
 C119 C 0.38082 0.57595 0.73188
 C120 C 0.38079 0.55176 0.74694
 H121 H 0.39577 0.48294 0.72196
 H122 H 0.34832 0.51834 0.78387
 H123 H 0.35000 0.51206 0.70151
 H124 H 0.38927 0.55075 0.76722
 H125 H 0.37606 0.43489 0.79051
 H126 H 0.36895 0.59534 0.69399
 C127 C 0.61898 1.03839 0.75401
 C128 C 0.63130 1.01661 0.76832
 C129 C 0.64189 1.02014 0.79432
 C130 C 0.64022 1.04547 0.80644
 C131 C 0.62715 1.06705 0.79176
 C132 C 0.61678 1.06376 0.76555
 C133 C 0.63375 0.99019 0.75572
 C134 C 0.64920 0.98712 0.73252
 C135 C 0.65273 0.96181 0.72114
 C136 C 0.63976 0.93984 0.73247
 C137 C 0.62387 0.94265 0.75539
 C138 C 0.62115 0.96796 0.76711
 H139 H 0.61082 1.03540 0.73394
 H140 H 0.65103 1.00285 0.80507
 H141 H 0.65925 1.00419 0.72396
 H142 H 0.60939 0.97041 0.78511
 H143 H 0.62675 1.08707 0.79976
 H144 H 0.64179 0.92048 0.72307
 C145 C -0.03529 0.24352 -0.11144
 C146 C -0.01642 0.25845 -0.12547
 C147 C -0.02429 0.28383 -0.13647
 C148 C -0.05139 0.29416 -0.13430
 C149 C -0.06963 0.27900 -0.11911
 C150 C -0.06180 0.25383 -0.10783
 C151 C 0.01142 0.24695 -0.12893
 C152 C 0.01525 0.22181 -0.14084
 C153 C 0.04163 0.20994 -0.14345
 C154 C 0.06390 0.22357 -0.13251
 C155 C 0.06022 0.24849 -0.12032
 C156 C 0.03399 0.26041 -0.11917
 H157 H -0.02910 0.22404 -0.10285
 H158 H -0.00962 0.29435 -0.14825
 H159 H -0.00250 0.21238 -0.14909
 H160 H 0.03098 0.27952 -0.10947
 H161 H -0.09014 0.28668 -0.11570
 H162 H 0.08430 0.21456 -0.13247
 C163 C 0.53209 0.25490 0.11519
 C164 C 0.50799 0.26620 0.12541
 C165 C 0.50836 0.29130 0.13770
 C166 C 0.53294 0.30465 0.14038
 C167 C 0.55679 0.29338 0.12944
 C168 C 0.55647 0.26859 0.11673
 C169 C 0.48257 0.25148 0.12311
 C170 C 0.48136 0.22547 0.13415
 C171 C 0.45782 0.21065 0.13077
 C172 C 0.43556 0.22201 0.11568
 C173 C 0.43651 0.24808 0.10453
 C174 C 0.46006 0.26280 0.10861
 H175 H 0.53165 0.23573 0.10535
 H176 H 0.48985 0.29986 0.14605
 H177 H 0.49888 0.21674 0.14523
 H178 H 0.46132 0.28270 0.09968
 H179 H 0.57574 0.30377 0.13115
 H180 H 0.41716 0.21086 0.11328
 C181 C 1.03463 0.74939 0.61510
 C182 C 1.01498 0.76081 0.63176
 C183 C 1.02154 0.78235 0.64807
 C184 C 1.04845 0.79127 0.64948
 C185 C 1.06826 0.77845 0.63349
 C186 C 1.06146 0.75830 0.61543
 C187 C 0.98780 0.74934 0.63268
 C188 C 0.98501 0.72345 0.64362
 C189 C 0.95940 0.71185 0.64388
 C190 C 0.93660 0.72643 0.63300
 C191 C 0.93916 0.75233 0.62196
 C192 C 0.96490 0.76375 0.62195
 H193 H 1.02856 0.73385 0.60160
 H194 H 1.00598 0.79090 0.66077
 H195 H 1.00282 0.71230 0.65170
 H196 H 0.96716 0.78373 0.61354
 H197 H 1.08897 0.78504 0.63417
 H198 H 0.91676 0.71758 0.63310
 C199 C 0.46473 0.74554 0.39818
 C200 C 0.48763 0.75802 0.38828
 C201 C 0.48455 0.78317 0.37527
 C202 C 0.45856 0.79549 0.37135
 C203 C 0.43565 0.78282 0.38137
 C204 C 0.43866 0.75807 0.39541
 C205 C 0.51496 0.74513 0.39227
 C206 C 0.52152 0.72060 0.38021
 C207 C 0.54792 0.70881 0.38328
 C208 C 0.56719 0.72131 0.39967
 C209 C 0.56085 0.74589 0.41168
 C210 C 0.53470 0.75778 0.40771
 H211 H 0.46734 0.72621 0.40845
 H212 H 0.50232 0.79283 0.36764
 H213 H 0.50646 0.71146 0.36745
 H214 H 0.52956 0.77679 0.41687
 H215 H 0.41569 0.79272 0.37907
 H216 H 0.58754 0.71235 0.40240
 C217 C 0.40829 -0.02956 0.27656
 H218 H 0.40126 -0.01225 0.28754
 C219 C 0.41827 -0.05253 0.29067
 H220 H 0.41880 -0.05268 0.31242
 C221 C 0.41406 -0.05125 0.23511
 H222 H 0.41170 -0.05110 0.21354
 C223 C 0.42390 -0.07466 0.24840
 H224 H 0.42929 -0.09216 0.23683
 N225 N 0.40525 -0.02971 0.24932
 C226 C 0.38356 0.03706 0.19415
 H227 H 0.36232 0.03234 0.19185
 C228 C 0.39377 0.05806 0.17914
 H229 H 0.38019 0.06944 0.16536
 C230 C 0.42654 0.02863 0.21602
 H231 H 0.43899 0.01717 0.23067
 C232 C 0.43758 0.04996 0.20157
 H233 H 0.45868 0.05478 0.20501
 Zn234 Zn 0.38144 -0.00347 0.23186
 N235 N 0.39987 0.02285 0.21216
 C236 C 0.36177 0.04122 0.26027
 N237 N 0.36022 0.01416 0.25820
 C238 C 0.34551 -0.00032 0.27583
 C239 C 0.33185 0.01244 0.29665
 C240 C 0.34839 0.05474 0.28065
 C241 C 0.37132 -0.02731 0.18312
 C242 C 0.35727 -0.04073 0.16324
 C243 C 0.31796 -0.04086 0.19156
 C244 C 0.33284 -0.02730 0.21101
 N245 N 0.35920 -0.02119 0.20663
 H246 H 0.37398 0.05242 0.24655
 H247 H 0.34502 -0.02188 0.27416
 H248 H 0.32034 0.00061 0.31056
 H249 H 0.35050 0.07619 0.28226
 H250 H 0.39205 -0.02164 0.17977
 H251 H 0.36737 -0.04518 0.14465
 H252 H 0.29720 -0.04610 0.19556
 H253 H 0.32336 -0.02192 0.22959
 C254 C 0.42101 0.06491 0.18285
 C255 C 0.42495 -0.07585 0.27657
 C256 C 0.33033 -0.04798 0.16740
 C257 C 0.33333 0.04035 0.29932
 C258 C 0.09565 1.03296 0.77514
 H259 H 0.09461 1.01359 0.78518
 C260 C 0.08603 1.05615 0.78787
 H261 H 0.07744 1.05451 0.80764
 C262 C 0.11035 1.05906 0.73829
 H263 H 0.12052 1.06043 0.71937
 C264 C 0.10112 1.08258 0.75023
 H265 H 0.10396 1.10167 0.74011
 N266 N 0.10814 1.03490 0.75108
 C267 C 0.11737 0.96115 0.70680
 H268 H 0.13781 0.96476 0.70027
 C269 C 0.10449 0.93833 0.69847
 H270 H 0.11491 0.92489 0.68494
 C271 C 0.07955 0.97391 0.73310
 H272 H 0.07030 0.98758 0.74712
 C273 C 0.06581 0.95106 0.72524
 H274 H 0.04593 0.94727 0.73321
 Zn275 Zn 0.12784 1.00499 0.73727
 N276 N 0.10506 0.97819 0.72410
 C277 C 0.14916 0.96263 0.77060
 N278 N 0.15041 0.98943 0.76531
 C279 C 0.16656 1.00510 0.78047
 C280 C 0.18245 0.99380 0.80179
 C281 C 0.16457 0.95059 0.79168
 C282 C 0.13591 1.02241 0.68449
 C283 C 0.14984 1.03281 0.66275
 C284 C 0.19096 1.03172 0.69039
 C285 C 0.17628 1.02104 0.71155
 N286 N 0.14915 1.01703 0.70838
 H287 H 0.13606 0.95046 0.75864
 H288 H 0.16683 1.02645 0.77618
 H289 H 0.19491 1.00659 0.81390
 H290 H 0.16339 0.92919 0.79537
 H291 H 0.11433 1.01895 0.68248
 H292 H 0.13885 1.03679 0.64393
 H293 H 0.21230 1.03568 0.69368
 H294 H 0.18648 1.01658 0.73062
 C295 C 0.07871 0.93260 0.70826
 C296 C 0.08964 1.08139 0.77571
 C297 C 0.17768 1.03801 0.66562
 C298 C 0.18138 0.96620 0.80771
 C299 C 0.58108 0.52709 0.29348
 H300 H 0.57909 0.50645 0.30003
 C301 C 0.56853 0.54787 0.30781
 H302 H 0.55686 0.54303 0.32534
 C303 C 0.60088 0.55861 0.26431
 H304 H 0.61450 0.56309 0.24832
 C305 C 0.58848 0.57981 0.27772
 H306 H 0.59203 0.60016 0.27102
 N307 N 0.59736 0.53280 0.27250
 C308 C 0.61719 0.46045 0.22821
 H309 H 0.63874 0.46409 0.22725
 C310 C 0.60719 0.43724 0.21743
 H311 H 0.62112 0.42327 0.20783
 C312 C 0.57317 0.47391 0.24280
 H313 H 0.56024 0.48810 0.25322
 C314 C 0.56217 0.45072 0.23205
 H315 H 0.54071 0.44707 0.23421
 Zn316 Zn 0.61986 0.50508 0.25806
 N317 N 0.60041 0.47787 0.24120
 C318 C 0.63721 0.46293 0.29374
 N319 N 0.64069 0.48915 0.28708
 C320 C 0.65786 0.50432 0.30164
 C321 C 0.67297 0.49292 0.32342
 C322 C 0.65182 0.45078 0.31528
 C323 C 0.63097 0.53234 0.21010
 C324 C 0.64678 0.54350 0.19014
 C325 C 0.68710 0.52502 0.21341
 C326 C 0.67052 0.51512 0.23350
 N327 N 0.64300 0.51924 0.23169
 H328 H 0.62280 0.45137 0.28261
 H329 H 0.65991 0.52525 0.29621
 H330 H 0.68693 0.50513 0.33449
 H331 H 0.64847 0.42997 0.32036
 H332 H 0.60897 0.53471 0.20877
 H333 H 0.63646 0.55514 0.17417
 H334 H 0.70883 0.52067 0.21506
 H335 H 0.67965 0.50366 0.25023
 C336 C 0.57957 0.43175 0.21990
 C337 C 0.57291 0.57469 0.30042
 C338 C 0.67538 0.53989 0.19142
 C339 C 0.67015 0.46572 0.33035
 C340 C 0.90790 0.47999 0.77986
 H341 H 0.90971 0.50036 0.78654
 C342 C 0.92162 0.45875 0.79404
 H343 H 0.93405 0.46287 0.81160
 C344 C 0.88789 0.44946 0.75013
 H345 H 0.87424 0.44559 0.73353
 C346 C 0.90109 0.42783 0.76364
 H347 H 0.89770 0.40768 0.75691
 N348 N 0.89099 0.47493 0.75865
 C349 C 0.87031 0.54495 0.70742
 H350 H 0.84862 0.54187 0.70616
 C351 C 0.88127 0.56579 0.69273
 H352 H 0.86777 0.57879 0.68035
 C353 C 0.91387 0.53217 0.72603
 H354 H 0.92637 0.51898 0.73912
 C355 C 0.92574 0.55311 0.71175
 H356 H 0.94746 0.55586 0.71381
 Zn357 Zn 0.86754 0.50236 0.74286
 N358 N 0.88653 0.52875 0.72378
 C359 C 0.84877 0.54636 0.77298
 N360 N 0.84763 0.51929 0.77057
 C361 C 0.83348 0.50434 0.78824
 C362 C 0.81918 0.51672 0.80894
 C363 C 0.83479 0.55950 0.79324
 C364 C 0.85530 0.47970 0.69382
 C365 C 0.84019 0.46674 0.67430
 C366 C 0.80159 0.46830 0.70355
 C367 C 0.81743 0.48150 0.72249
 N368 N 0.84392 0.48653 0.71748
 H369 H 0.86071 0.55793 0.75934
 H370 H 0.83332 0.48278 0.78628
 H371 H 0.80767 0.50457 0.82256
 H372 H 0.83622 0.58102 0.79485
 H373 H 0.87637 0.48405 0.69028
 H374 H 0.84972 0.46174 0.65557
 H375 H 0.78081 0.46374 0.70824
 H376 H 0.80868 0.48721 0.74133
 C377 C 0.90929 0.57021 0.69483
 C378 C 0.91754 0.43222 0.78635
 C379 C 0.81304 0.46048 0.67914
 C380 C 0.81959 0.54472 0.81149
 C381 C 0.28757 0.41298 -0.02772
 H382 H 0.29655 0.40602 -0.00869
 C383 C 0.30384 0.42517 -0.04678
 H384 H 0.32520 0.42787 -0.04207
 C385 C 0.24934 0.41640 -0.05763
 H386 H 0.22842 0.41207 -0.06230
 C387 C 0.26481 0.42878 -0.07718
 H388 H 0.25546 0.43374 -0.09663
 N389 N 0.26106 0.40807 -0.03373
 C390 C 0.20448 0.38374 0.02747
 H391 H 0.20184 0.36376 0.02002
 C392 C 0.19075 0.39186 0.05017
 H393 H 0.17710 0.37822 0.05973
 C394 C 0.22640 0.42526 0.02450
 H395 H 0.24094 0.43776 0.01474
 C396 C 0.21296 0.43427 0.04738
 H397 H 0.21715 0.45384 0.05516
 Zn398 Zn 0.24294 0.38336 -0.01145
 N399 N 0.22229 0.40014 0.01545
 C400 C 0.27166 0.36076 0.03339
 N401 N 0.26987 0.36029 0.00609
 C402 C 0.28859 0.34609 -0.00822
 C403 C 0.31041 0.33204 0.00499
 C404 C 0.29311 0.34726 0.04727
 C405 C 0.19431 0.37777 -0.03956
 C406 C 0.17393 0.36536 -0.05405
 C407 C 0.20265 0.32497 -0.05432
 C408 C 0.22251 0.33817 -0.03956
 N409 N 0.21806 0.36418 -0.03266
 H410 H 0.25707 0.37244 0.04457
 H411 H 0.28719 0.34653 -0.02993
 H412 H 0.32563 0.32149 -0.00664
 H413 H 0.29439 0.34835 0.06896
 H414 H 0.19102 0.39826 -0.03331
 H415 H 0.15497 0.37646 -0.05863
 H416 H 0.20665 0.30436 -0.05991
 H417 H 0.24132 0.32757 -0.03355
 C418 C 0.19547 0.41708 0.06087
 C419 C 0.29270 0.43238 -0.07225
 C420 C 0.17789 0.33859 -0.06168
 C421 C 0.31310 0.33310 0.03307
 C422 C 0.79532 0.10510 1.02871
 H423 H 0.80273 0.10961 1.00889
 C424 C 0.81262 0.09194 1.04784
 H425 H 0.83320 0.08594 1.04250
 C426 C 0.76018 0.10911 1.06042
 H427 H 0.74018 0.11674 1.06568
 C428 C 0.77659 0.09567 1.07997
 H429 H 0.76890 0.09304 1.10003
 N430 N 0.76988 0.11397 1.03549
 C431 C 0.71650 0.13831 0.96763
 H432 H 0.71626 0.15966 0.97111
 C433 C 0.70097 0.12845 0.94661
 H434 H 0.68930 0.14254 0.93369
 C435 C 0.73284 0.09441 0.98015
 H436 H 0.74518 0.08135 0.99353
 C437 C 0.71730 0.08356 0.95934
 H438 H 0.71772 0.06204 0.95690
 Zn439 Zn 0.75076 0.13851 1.01178
 N440 N 0.73216 0.12139 0.98374
 C441 C 0.78094 0.16117 0.97008
 N442 N 0.77679 0.16146 0.99699
 C443 C 0.79268 0.17596 1.01360
 C444 C 0.81341 0.19131 1.00315
 C445 C 0.80152 0.17598 0.95887
 C446 C 0.70106 0.14383 1.03638
 C447 C 0.67955 0.15587 1.05002
 C448 C 0.70459 0.19662 1.05177
 C449 C 0.72560 0.18382 1.03778
 N450 N 0.72361 0.15774 1.03074
 H451 H 0.76883 0.14888 0.95724
 H452 H 0.78964 0.17513 1.03504
 H453 H 0.82612 0.20250 1.01662
 H454 H 0.80451 0.17545 0.93741
 H455 H 0.69980 0.12325 1.03015
 H456 H 0.66166 0.14443 1.05382
 H457 H 0.70679 0.21719 1.05774
 H458 H 0.74342 0.19474 1.03270
 C459 C 0.70098 0.10072 0.94229
 C460 C 0.80343 0.08762 1.07400
 C461 C 0.68118 0.18256 1.05815
 C462 C 0.81816 0.19116 0.97547
 C463 C 0.28380 0.60055 0.50361
 H464 H 0.28962 0.59878 0.48288
 C465 C 0.30057 0.58893 0.52420
 H466 H 0.31919 0.57797 0.51928
 C467 C 0.25335 0.61823 0.53558
 H468 H 0.23587 0.63079 0.54034
 C469 C 0.26907 0.60656 0.55657
 H470 H 0.26309 0.60995 0.57707
 N471 N 0.26068 0.61492 0.50963
 C472 C 0.20701 0.62499 0.43907
 H473 H 0.20399 0.64651 0.44049
 C474 C 0.19244 0.61126 0.41988
 H475 H 0.17849 0.62242 0.40628
 C476 C 0.22898 0.58450 0.45529
 H477 H 0.24293 0.57426 0.46951
 C478 C 0.21484 0.56985 0.43607
 H479 H 0.21804 0.54828 0.43546
 Zn480 Zn 0.24003 0.63403 0.48219
 N481 N 0.22475 0.61159 0.45634
 C482 C 0.26845 0.65632 0.43870
 N483 N 0.26342 0.65824 0.46536
 C484 C 0.27660 0.67598 0.48091
 C485 C 0.29602 0.69244 0.46977
 C486 C 0.28757 0.67249 0.42673
 C487 C 0.19213 0.63637 0.51032
 C488 C 0.16996 0.64769 0.52352
 C489 C 0.18280 0.69138 0.50751
 C490 C 0.20543 0.67922 0.49543
 N491 N 0.20990 0.65220 0.49754
 H492 H 0.25830 0.64167 0.42679
 H493 H 0.27244 0.67686 0.50212
 H494 H 0.30654 0.70625 0.48249
 H495 H 0.29187 0.67008 0.40567
 H496 H 0.19590 0.61485 0.51116
 H497 H 0.15746 0.63449 0.53503
 H498 H 0.17949 0.71285 0.50508
 H499 H 0.21930 0.69133 0.48431
 C500 C 0.19600 0.58332 0.41835
 C501 C 0.29311 0.59192 0.55106
 C502 C 0.16495 0.67566 0.52246
 C503 C 0.30192 0.69058 0.44238
 C504 C 0.78465 0.91714 0.47755
 H505 H 0.79567 0.91750 0.49658
 C506 C 0.79760 0.92435 0.45384
 H507 H 0.81852 0.93051 0.45479
 C508 C 0.74508 0.90576 0.45276
 H509 H 0.72506 0.89755 0.45215
 C510 C 0.75719 0.91273 0.42873
 H511 H 0.74609 0.91025 0.40996
 N512 N 0.75923 0.90712 0.47645
 C513 C 0.72019 0.89565 0.55310
 H514 H 0.71781 0.87430 0.55109
 C515 C 0.71062 0.90843 0.57568
 H516 H 0.70055 0.89684 0.59091
 C517 C 0.73643 0.93650 0.53554
 H518 H 0.74676 0.94712 0.51984
 C519 C 0.72690 0.95028 0.55799
 H520 H 0.72996 0.97158 0.55961
 Zn521 Zn 0.74660 0.88766 0.50636
 N522 N 0.73329 0.90957 0.53389
 C523 C 0.78388 0.86772 0.54661
 N524 N 0.77629 0.86578 0.52030
 C525 C 0.79083 0.84987 0.50348
 C526 C 0.81367 0.83472 0.51313
 C527 C 0.80640 0.85288 0.55708
 C528 C 0.69269 0.87991 0.49149
 C529 C 0.67029 0.86674 0.48129
 C530 C 0.69868 0.82628 0.47875
 C531 C 0.72056 0.84023 0.48924
 N532 N 0.71731 0.86671 0.49484
 H533 H 0.77284 0.88114 0.55955
 H534 H 0.78487 0.84923 0.48246
 H535 H 0.82491 0.82201 0.49954
 H536 H 0.81224 0.85502 0.57800
 H537 H 0.69063 0.90095 0.49623
 H538 H 0.65093 0.87772 0.47871
 H539 H 0.70193 0.80549 0.47341
 H540 H 0.74021 0.83003 0.49222
 C541 C 0.71438 0.93594 0.57862
 C542 C 0.78419 0.92098 0.42901
 C543 C 0.67322 0.83969 0.47426
 C544 C 0.82161 0.83608 0.54032
 C545 C -0.01896 0.26483 0.41996
 H546 H 0.00027 0.27466 0.41870
 C547 C -0.04080 0.27732 0.43303
 H548 H -0.03816 0.29681 0.44170
 C549 C -0.04640 0.22864 0.40806
 H550 H -0.04883 0.21004 0.39774
 C551 C -0.06861 0.24025 0.42108
 H552 H -0.08773 0.23007 0.42100
 N553 N -0.02234 0.24128 0.40720
 C554 C 0.05104 0.19554 0.38635
 H555 H 0.04664 0.19473 0.36502
 C556 C 0.07491 0.18331 0.39702
 H557 H 0.08856 0.17264 0.38380
 C558 C 0.03876 0.21115 0.42924
 H559 H 0.02480 0.22258 0.44148
 C560 C 0.06259 0.19909 0.44084
 H561 H 0.06690 0.20128 0.46208
 Zn562 Zn 0.00506 0.22878 0.38380
 N563 N 0.03383 0.20958 0.40234
 C564 C 0.04698 0.26308 0.36957
 N565 N 0.01983 0.25904 0.36634
 C566 C 0.00334 0.27674 0.35181
 C567 C 0.01430 0.29888 0.33882
 C568 C 0.05866 0.28509 0.35733
 C569 C -0.01501 0.17992 0.36738
 C570 C -0.02635 0.16142 0.35016
 C571 C -0.02757 0.19517 0.31464
 C572 C -0.01583 0.21296 0.33247
 N573 N -0.01022 0.20523 0.35845
 H574 H 0.05974 0.24934 0.38173
 H575 H -0.01833 0.27361 0.35023
 H576 H 0.00104 0.31268 0.32707
 H577 H 0.08037 0.28774 0.35983
 H578 H -0.01014 0.17417 0.38804
 H579 H -0.03040 0.14149 0.35776
 H580 H -0.03212 0.20165 0.29410
 H581 H -0.01140 0.23288 0.32547
 C582 C 0.08132 0.18557 0.42445
 C583 C -0.06632 0.26539 0.43296
 C584 C -0.03298 0.16906 0.32348
 C585 C 0.04233 0.30318 0.34155
 C586 C 1.02280 0.77236 0.09145
 H587 H 1.00245 0.77634 0.08326
 C588 C 1.04443 0.78750 0.08229
 H589 H 1.04053 0.80301 0.06703
 C590 C 1.05241 0.74900 0.12280
 H591 H 1.05548 0.73523 0.13964
 C592 C 1.07442 0.76333 0.11415
 H593 H 1.09423 0.75929 0.12371
 N594 N 1.02712 0.75363 0.11154
 C595 C 0.96840 0.69625 0.10484
 H596 H 0.98220 0.68308 0.11648
 C597 C 0.94650 0.68522 0.09138
 H598 H 0.94433 0.66370 0.09246
 C599 C 0.95408 0.73994 0.08978
 H600 H 0.95666 0.76137 0.08994
 C601 C 0.93140 0.72972 0.07636
 H602 H 0.91677 0.74348 0.06627
 Zn603 Zn 0.99788 0.73684 0.12900
 N604 N 0.97145 0.72325 0.10458
 C605 C 0.95445 0.76909 0.15101
 N606 N 0.98172 0.76301 0.15127
 C607 C 0.99935 0.77669 0.16680
 C608 C 0.98998 0.79821 0.18191
 C609 C 0.94417 0.79058 0.16582
 C610 C 1.03021 0.69003 0.13968
 C611 C 1.04209 0.66886 0.15500
 C612 C 1.01615 0.68384 0.19290
 C613 C 1.00522 0.70517 0.17695
 N614 N 1.01247 0.70790 0.15088
 H615 H 0.94066 0.75766 0.13899
 H616 H 1.02089 0.77124 0.16692
 H617 H 1.00445 0.80902 0.19387
 H618 H 0.92255 0.79578 0.16459
 H619 H 1.03551 0.69257 0.11884
 H620 H 1.05697 0.65566 0.14576
 H621 H 1.00961 0.68175 0.21341
 H622 H 0.99075 0.71938 0.18533
 C623 C 0.92689 0.70206 0.07794
 C624 C 1.07052 0.78343 0.09423
 C625 C 1.03505 0.66538 0.18203
 C626 C 0.96213 0.80582 0.18108
 C627 C 0.52318 0.30483 0.62177
 H628 H 0.50774 0.31580 0.63262
 C629 C 0.54395 0.31878 0.60968
 H630 H 0.54376 0.34040 0.61116
 C631 C 0.54128 0.26369 0.60586
 H632 H 0.54011 0.24214 0.60446
 C633 C 0.56295 0.27673 0.59417
 H634 H 0.57850 0.26471 0.58447
 N635 N 0.52288 0.27761 0.62071
 C636 C 0.45569 0.22328 0.63233
 H637 H 0.45521 0.22204 0.65391
 C638 C 0.43749 0.20852 0.61736
 H639 H 0.42332 0.19602 0.62772
 C640 C 0.47364 0.24193 0.59266
 H641 H 0.48766 0.25515 0.58314
 C642 C 0.45538 0.22772 0.57682
 H643 H 0.45561 0.22992 0.55516
 Zn644 Zn 0.49764 0.25889 0.64213
 N645 N 0.47350 0.23945 0.61995
 C646 C 0.45025 0.28890 0.65707
 N647 N 0.47731 0.28397 0.66235
 C648 C 0.49074 0.29721 0.68189
 C649 C 0.47707 0.31688 0.69656
 C650 C 0.43572 0.30824 0.67146
 C651 C 0.54358 0.22813 0.66456
 C652 C 0.55630 0.20838 0.68124
 C653 C 0.51391 0.20369 0.70419
 C654 C 0.50201 0.22357 0.68707
 N655 N 0.51654 0.23459 0.66694
 H656 H 0.44001 0.27827 0.64133
 H657 H 0.51224 0.29279 0.68572
 H658 H 0.48813 0.32747 0.71185
 H659 H 0.41434 0.31240 0.66660
 H660 H 0.55545 0.23789 0.64962
 H661 H 0.57769 0.20322 0.67864
 H662 H 0.50159 0.19440 0.71928
 H663 H 0.48104 0.23006 0.68982
 C664 C 0.43717 0.21059 0.58926
 C665 C 0.56507 0.30465 0.59674
 C666 C 0.54124 0.19535 0.70090
 C667 C 0.44925 0.32273 0.69125
 C668 C 0.47441 0.79723 0.89383
 H669 H 0.49265 0.80721 0.88807
 C670 C 0.45309 0.81202 0.90531
 H671 H 0.45524 0.83324 0.90861
 C672 C 0.44863 0.75801 0.89482
 H673 H 0.44640 0.73728 0.88969
 C674 C 0.42694 0.77198 0.90664
 H675 H 0.40831 0.76172 0.91053
 N676 N 0.47151 0.77094 0.88800
 C677 C 0.54170 0.72174 0.86359
 H678 H 0.53551 0.72117 0.84264
 C679 C 0.56593 0.70874 0.87225
 H680 H 0.57804 0.69777 0.85792
 C681 C 0.53345 0.73731 0.90744
 H682 H 0.52087 0.74895 0.92082
 C683 C 0.55776 0.72440 0.91707
 H684 H 0.56384 0.72614 0.93797
 Zn685 Zn 0.49658 0.75525 0.86378
 N686 N 0.52630 0.73611 0.88095
 C687 C 0.53810 0.78806 0.84629
 N688 N 0.51108 0.78356 0.84293
 C689 C 0.49460 0.80049 0.82749
 C690 C 0.50535 0.82277 0.81446
 C691 C 0.54957 0.81004 0.83388
 C692 C 0.47461 0.70603 0.85484
 C693 C 0.46408 0.68483 0.84069
 C694 C 0.46174 0.71312 0.80069
 C695 C 0.47269 0.73383 0.81562
 N696 N 0.47881 0.72992 0.84225
 H697 H 0.55081 0.77523 0.85944
 H698 H 0.47300 0.79705 0.82579
 H699 H 0.49198 0.83594 0.80215
 H700 H 0.57094 0.81352 0.83772
 H701 H 0.48017 0.70324 0.87587
 H702 H 0.46109 0.66591 0.85109
 H703 H 0.45730 0.71628 0.77944
 H704 H 0.47676 0.75271 0.80579
 C705 C 0.57460 0.71044 0.89913
 C706 C 0.42864 0.79958 0.91104
 C707 C 0.45773 0.68814 0.81322
 C708 C 0.53324 0.82782 0.81768
 C709 C 0.47067 -0.15654 0.36451
 C710 C 0.45542 -0.17846 0.35665
 C711 C 0.43758 -0.17566 0.33428
 C712 C 0.43509 -0.15126 0.31974
 C713 C 0.45011 -0.12909 0.32805
 C714 C 0.46785 -0.13197 0.35049
 C715 C 0.44708 -0.10448 0.31379
 C716 C 0.42966 -0.10197 0.29101
 C717 C 0.41530 -0.12434 0.28269
 C718 C 0.41787 -0.14870 0.29697
 H719 H 0.42605 -0.19265 0.32795
 H720 H 0.47962 -0.11527 0.35711
 H721 H 0.45830 -0.08735 0.32029
 H722 H 0.40627 -0.16548 0.29029
 H723 H 0.48454 -0.15840 0.38173
 H724 H 0.40144 -0.12276 0.26545
 C725 C 0.91174 0.32187 0.84365
 C726 C 0.93938 0.31833 0.85211
 C727 C 0.95727 0.33918 0.84602
 C728 C 0.94771 0.36269 0.83211
 C729 C 0.92006 0.36536 0.82376
 C730 C 0.90230 0.34496 0.82971
 C731 C 0.91052 0.38828 0.80928
 C732 C 0.92814 0.40890 0.80292
 C733 C 0.95548 0.40664 0.81193
 C734 C 0.96523 0.38363 0.82632
 H735 H 0.97841 0.33773 0.85277
 H736 H 0.88107 0.34666 0.82321
 H737 H 0.88924 0.39011 0.80290
 H738 H 0.98650 0.38212 0.83269
 H739 H 0.89729 0.30626 0.84644
 H740 H 0.96939 0.42235 0.80729
 C741 C 0.02558 1.16575 0.84236
 C742 C 0.04586 1.18517 0.84329
 C743 C 0.07067 1.17933 0.83038
 C744 C 0.07519 1.15507 0.81723
 C745 C 0.05486 1.13577 0.81684
 C746 C 0.03012 1.14135 0.82947
 C747 C 0.05959 1.11141 0.80361
 C748 C 0.08423 1.10655 0.79033
 C749 C 0.10422 1.12601 0.79089
 C750 C 0.09979 1.14998 0.80424
 H751 H 0.08627 1.19408 0.82931
 H752 H 0.01427 1.12679 0.82947
 H753 H 0.04403 1.09655 0.80316
 H754 H 0.11562 1.16456 0.80435
 H755 H 0.00648 1.16870 0.85251
 H756 H 0.12351 1.12252 0.78114
 C757 C 0.58203 0.68366 0.35596
 C758 C 0.55626 0.68483 0.36777
 C759 C 0.53865 0.66344 0.36404
 C760 C 0.54682 0.64123 0.34876
 C761 C 0.57286 0.64046 0.33720
 C762 C 0.59030 0.66168 0.34097
 C763 C 0.58111 0.61858 0.32185
 C764 C 0.56365 0.59732 0.31735
 C765 C 0.53787 0.59799 0.32915
 C766 C 0.52951 0.61978 0.34472
 H767 H 0.51878 0.66400 0.37312
 H768 H 0.61026 0.66143 0.33208
 H769 H 0.60134 0.61803 0.31352
 H770 H 0.50947 0.61995 0.35343
 H771 H 0.59575 0.70007 0.35788
 H772 H 0.52403 0.58188 0.32598
 C773 C 0.51735 0.35217 0.14930
 C774 C 0.53452 0.32968 0.15566
 C775 C 0.55462 0.33143 0.17593
 C776 C 0.55864 0.35569 0.18877
 C777 C 0.54221 0.37872 0.18148
 C778 C 0.52120 0.37658 0.16209
 C779 C 0.54789 0.40357 0.19291
 C780 C 0.57009 0.40547 0.21104
 C781 C 0.58528 0.38211 0.21904
 C782 C 0.57958 0.35745 0.20808
 H783 H 0.56765 0.31397 0.18117
 H784 H 0.50829 0.39392 0.15630
 H785 H 0.53613 0.42153 0.18665
 H786 H 0.59215 0.33992 0.21406
 H787 H 0.50167 0.35111 0.13376
 H788 H 0.60219 0.38314 0.23330
 C789 C 0.08226 0.81404 0.67702
 C790 C 0.05567 0.81304 0.66574
 C791 C 0.03729 0.83512 0.66952
 C792 C 0.04623 0.85854 0.68174
 C793 C 0.07340 0.85943 0.69151
 C794 C 0.09091 0.83683 0.68989
 C795 C 0.08314 0.88328 0.70166
 C796 C 0.06647 0.90680 0.70140
 C797 C 0.03908 0.90560 0.69283
 C798 C 0.02899 0.88160 0.68316
 H799 H 0.01680 0.83520 0.66094
 H800 H 0.11166 0.83706 0.69777
 H801 H 0.10414 0.88384 0.70883
 H802 H 0.00804 0.88135 0.67585
 H803 H 0.09659 0.79707 0.67613
 H804 H 0.02583 0.92347 0.69255
 C805 C 0.96732 0.67767 0.68117
 C806 C 0.95616 0.68463 0.65564
 C807 C 0.94060 0.66598 0.64190
 C808 C 0.93515 0.64116 0.65396
 C809 C 0.94551 0.63472 0.68012
 C810 C 0.96201 0.65292 0.69334
 C811 C 0.93830 0.61069 0.69293
 C812 C 0.92055 0.59328 0.68002
 C813 C 0.91149 0.59938 0.65354
 C814 C 0.91875 0.62306 0.64062
 H815 H 0.93225 0.67105 0.62203
 H816 H 0.97022 0.64832 0.71335
 H817 H 0.94529 0.60628 0.71340
 H818 H 0.91088 0.62756 0.62046
 H819 H 0.97934 0.69179 0.69212
 H820 H 0.89820 0.58606 0.64302
 C821 C 0.46494 0.17894 0.17025
 C822 C 0.45621 0.18357 0.14342
 C823 C 0.44505 0.16248 0.12905
 C824 C 0.44168 0.13740 0.14158
 C825 C 0.44971 0.13320 0.16884
 C826 C 0.46172 0.15398 0.18285
 C827 C 0.44457 0.10870 0.18188
 C828 C 0.43102 0.08858 0.16811
 C829 C 0.42424 0.09259 0.14071
 C830 C 0.42961 0.11672 0.12753
 H831 H 0.43862 0.16573 0.10824
 H832 H 0.46802 0.15115 0.20374
 H833 H 0.44966 0.10588 0.20307
 H834 H 0.42354 0.11950 0.10658
 H835 H 0.47348 0.19492 0.18176
 H836 H 0.41404 0.07723 0.12966
 C837 C 0.32224 0.48886 -0.17921
 C838 C 0.34629 0.47344 -0.18423
 C839 C 0.35584 0.45470 -0.16417
 C840 C 0.34137 0.45075 -0.14051
 C841 C 0.31683 0.46561 -0.13645
 C842 C 0.30768 0.48488 -0.15573
 C843 C 0.30151 0.46047 -0.11352
 C844 C 0.31046 0.44059 -0.09453
 C845 C 0.33551 0.42670 -0.09830
 C846 C 0.35082 0.43174 -0.12103
 H847 H 0.37490 0.44342 -0.16647
 H848 H 0.28889 0.49650 -0.15297
 H849 H 0.28239 0.47152 -0.11071
 H850 H 0.36969 0.42023 -0.12373
 H851 H 0.31350 0.50305 -0.19400
 H852 H 0.34274 0.41105 -0.08422
 C853 C 0.85887 0.96844 0.34243
 C854 C 0.85704 0.94748 0.32384
 C855 C 0.84122 0.92539 0.33073
 C856 C 0.82740 0.92442 0.35502
 C857 C 0.82959 0.94549 0.37337
 C858 C 0.84549 0.96733 0.36692
 C859 C 0.81563 0.94441 0.39771
 C860 C 0.79905 0.92274 0.40352
 C861 C 0.79700 0.90198 0.38500
 C862 C 0.81108 0.90276 0.36104
 H863 H 0.83826 0.90941 0.31668
 H864 H 0.84755 0.98364 0.38078
 H865 H 0.81725 0.96052 0.41187
 H866 H 0.80917 0.88641 0.34720
 H867 H 0.87141 0.98544 0.33868
 H868 H 0.78474 0.88485 0.38927
 C869 C 0.83673 0.02508 1.17873
 C870 C 0.86189 0.03722 1.18377
 C871 C 0.87104 0.05567 1.16432
 C872 C 0.85535 0.06212 1.14098
 C873 C 0.82989 0.05035 1.13692
 C874 C 0.82095 0.03167 1.15574
 C875 C 0.81347 0.05792 1.11442
 C876 C 0.82221 0.07706 1.09575
 C877 C 0.84807 0.08783 1.09932
 C878 C 0.86449 0.08047 1.12176
 H879 H 0.89069 0.06462 1.16680
 H880 H 0.80144 0.02249 1.15296
 H881 H 0.79365 0.04932 1.11167
 H882 H 0.88404 0.08960 1.12441
 H883 H 0.82815 0.01152 1.19322
 H884 H 0.85513 0.10280 1.08530
 C885 C 0.31710 0.54643 0.66539
 C886 C 0.34370 0.55561 0.66820
 C887 C 0.35610 0.56744 0.64593
 C888 C 0.34168 0.57086 0.62134
 C889 C 0.31449 0.56257 0.61913
 C890 C 0.30257 0.54994 0.64110
 C891 C 0.29928 0.56800 0.59537
 C892 C 0.31079 0.58170 0.57374
 C893 C 0.33827 0.58855 0.57549
 C894 C 0.35361 0.58321 0.59915
 H895 H 0.37674 0.57430 0.64791
 H896 H 0.28180 0.54337 0.63970
 H897 H 0.27812 0.56252 0.59403
 H898 H 0.37448 0.58953 0.60040
 H899 H 0.30718 0.53736 0.68235
 H900 H 0.34742 0.59929 0.55909
 C901 C 0.17617 0.51430 0.31844
 C902 C 0.14907 0.52340 0.31332
 C903 C 0.13593 0.53973 0.33204
 C904 C 0.15004 0.54812 0.35493
 C905 C 0.17771 0.53993 0.35940
 C906 C 0.19041 0.52252 0.34131
 C907 C 0.19242 0.55020 0.38119
 C908 C 0.17985 0.56890 0.39816
 C909 C 0.15198 0.57576 0.39423
 C910 C 0.13719 0.56544 0.37285
 H911 H 0.11490 0.54652 0.32835
 H912 H 0.21155 0.51592 0.34443
 H913 H 0.21393 0.54486 0.38404
 H914 H 0.11593 0.57168 0.36986
 H915 H 0.18665 0.50170 0.30420
 H916 H 0.14177 0.58975 0.40736
 C917 C 0.67620 0.03484 0.84083
 C918 C 0.65240 0.04962 0.83207
 C919 C 0.64173 0.06954 0.84908
 C920 C 0.65512 0.07548 0.87327
 C921 C 0.67975 0.06158 0.88089
 C922 C 0.68981 0.04094 0.86478
 C923 C 0.69425 0.06907 0.90404
 C924 C 0.68430 0.09029 0.91974
 C925 C 0.65887 0.10281 0.91273
 C926 C 0.64451 0.09559 0.88969
 H927 H 0.62274 0.08034 0.84380
 H928 H 0.70861 0.02992 0.87035
 H929 H 0.71378 0.05919 0.90911
 H930 H 0.62537 0.10613 0.88442
 H931 H 0.68557 0.01966 0.82845
 H932 H 0.65022 0.11861 0.92486
 C933 C 0.68989 0.93627 0.69868
 C934 C 0.67042 0.95764 0.69785
 C935 C 0.66671 0.97340 0.67422
 C936 C 0.68101 0.96658 0.65101
 C937 C 0.69965 0.94425 0.65188
 C938 C 0.70452 0.92974 0.67596
 C939 C 0.71202 0.93579 0.62836
 C940 C 0.70551 0.94875 0.60364
 C941 C 0.68820 0.97182 0.60301
 C942 C 0.67607 0.98075 0.62660
 H943 H 0.65166 0.98989 0.67349
 H944 H 0.71889 0.91269 0.67694
 H945 H 0.72570 0.91819 0.62899
 H946 H 0.66197 0.99800 0.62554
 H947 H 0.69329 0.92419 0.71685
 H948 H 0.68296 0.98206 0.58412
 C949 C 0.15897 0.39728 0.17731
 C950 C 0.14548 0.42225 0.18101
 C951 C 0.14522 0.44170 0.16004
 C952 C 0.15818 0.43622 0.13578
 C953 C 0.17134 0.41090 0.13234
 C954 C 0.17170 0.39163 0.15321
 C955 C 0.18382 0.40514 0.10802
 C956 C 0.18335 0.42428 0.08687
 C957 C 0.17076 0.44964 0.09060
 C958 C 0.15817 0.45553 0.11485
 H959 H 0.13467 0.46095 0.16243
 H960 H 0.18187 0.37218 0.15091
 H961 H 0.19395 0.38569 0.10552
 H962 H 0.14826 0.47510 0.11716
 H963 H 0.16003 0.38215 0.19324
 H964 H 0.17013 0.46464 0.07455
 C965 C -0.18570 0.30962 0.42751
 C966 C -0.18458 0.32630 0.44988
 C967 C -0.16045 0.32631 0.46573
 C968 C -0.13744 0.31052 0.45864
 C969 C -0.13880 0.29433 0.43573
 C970 C -0.16308 0.29379 0.42050
 C971 C -0.11572 0.27929 0.42799
 C972 C -0.09099 0.28012 0.44271
 C973 C -0.08985 0.29604 0.46567
 C974 C -0.11289 0.31104 0.47362
 H975 H -0.15934 0.33917 0.48297
 H976 H -0.16449 0.28136 0.40297
 H977 H -0.11683 0.26764 0.40990
 H978 H -0.11142 0.32328 0.49128
 H979 H -0.20420 0.30888 0.41530
 H980 H -0.07112 0.29690 0.47747
 C981 C 0.32003 0.82572 0.96812
 C982 C 0.31139 0.84828 0.95202
 C983 C 0.32932 0.85743 0.93227
 C984 C 0.35457 0.84410 0.92825
 C985 C 0.36224 0.82096 0.94383
 C986 C 0.34497 0.81216 0.96391
 C987 C 0.38684 0.80679 0.93874
 C988 C 0.40406 0.81574 0.91850
 C989 C 0.39667 0.83938 0.90383
 C990 C 0.37214 0.85338 0.90860
 H991 H 0.32415 0.87538 0.92036
 H992 H 0.35052 0.79447 0.97610
 H993 H 0.39247 0.78869 0.95030
 H994 H 0.36668 0.87119 0.89654
 H995 H 0.30695 0.81737 0.98309
 H996 H 0.40942 0.84651 0.88792
 C997 C 1.15207 0.84420 0.02348
 C998 C 1.17030 0.85129 0.04439
 C999 C 1.16341 0.84429 0.07100
 C1000 C 1.13965 0.83070 0.07651
 C1001 C 1.12211 0.82327 0.05534
 C1002 C 1.12842 0.83034 0.02890
 C1003 C 1.09895 0.80846 0.06101
 C1004 C 1.09343 0.80091 0.08768
 C1005 C 1.11063 0.80938 0.10856
 C1006 C 1.13354 0.82397 0.10305
 H1007 H 1.17708 0.84788 0.08775
 H1008 H 1.11506 0.82514 0.01235
 H1009 H 1.08585 0.80209 0.04474
 H1010 H 1.14663 0.82978 0.11958
 H1011 H 1.15540 0.84983 0.00278
 H1012 H 1.10645 0.80454 0.12933
 C1013 C 0.67217 0.32058 0.53484
 C1014 C 0.68124 0.34284 0.54904
 C1015 C 0.66421 0.35413 0.56856
 C1016 C 0.63922 0.34283 0.57450
 C1017 C 0.63042 0.32049 0.56015
 C1018 C 0.64692 0.30974 0.54012
 C1019 C 0.60565 0.30886 0.56653
 C1020 C 0.58991 0.31860 0.58785
 C1021 C 0.59907 0.34096 0.60190
 C1022 C 0.62319 0.35313 0.59506
 H1023 H 0.67042 0.37161 0.57936
 H1024 H 0.64062 0.29248 0.52900
 H1025 H 0.59893 0.29203 0.55505
 H1026 H 0.62973 0.37013 0.60644
 H1027 H 0.68486 0.31103 0.52004
 H1028 H 0.58812 0.34869 0.61886
 C1029 C 0.36313 0.11613 0.56620
 C1030 C 0.34470 0.12987 0.54828
 C1031 C 0.35061 0.15589 0.53919
 C1032 C 0.37368 0.16863 0.54925
 C1033 C 0.39122 0.15502 0.56833
 C1034 C 0.38617 0.12856 0.57611
 C1035 C 0.41284 0.16845 0.58019
 C1036 C 0.41711 0.19546 0.57351
 C1037 C 0.40047 0.20845 0.55354
 C1038 C 0.37890 0.19514 0.54150
 H1039 H 0.33650 0.16677 0.52548
 H1040 H 0.39959 0.11775 0.59049
 H1041 H 0.42583 0.15819 0.59534
 H1042 H 0.36578 0.20587 0.52681
 H1043 H 0.35934 0.09589 0.57307
 H1044 H 0.40337 0.22928 0.54816
 C1045 C 0.82772 0.62940 0.08227
 C1046 C 0.81388 0.63851 0.05838
 C1047 C 0.82627 0.65844 0.04256
 C1048 C 0.85116 0.66924 0.05077
 C1049 C 0.86409 0.65998 0.07495
 C1050 C 0.85231 0.64003 0.09042
 C1051 C 0.88863 0.67082 0.08346
 C1052 C 0.90091 0.69083 0.06809
 C1053 C 0.88789 0.70011 0.04405
 C1054 C 0.86324 0.68938 0.03545
 H1055 H 0.81621 0.66661 0.02448
 H1056 H 0.86224 0.63245 0.10885
 H1057 H 0.89793 0.66395 0.10243
 H1058 H 0.85365 0.69683 0.01682
 H1059 H 0.82022 0.61322 0.09450
 H1060 H 0.89690 0.71545 0.03178
 C1061 C 0.65895 0.64043 0.96694
 C1062 C 0.68115 0.64340 0.94987
 C1063 C 0.67781 0.65992 0.92677
 C1064 C 0.65266 0.67315 0.92066
 C1065 C 0.63035 0.66988 0.93779
 C1066 C 0.63377 0.65352 0.96094
 C1067 C 0.60499 0.68273 0.93125
 C1068 C 0.60165 0.69850 0.90760
 C1069 C 0.62419 0.70201 0.89110
 C1070 C 0.64943 0.68950 0.89755
 H1071 H 0.69489 0.66267 0.91369
 H1072 H 0.61695 0.65070 0.97431
 H1073 H 0.58771 0.67981 0.94404
 H1074 H 0.66635 0.69239 0.88431
 H1075 H 0.66098 0.62765 0.98477
 H1076 H 0.62223 0.71442 0.87301
 C1077 C 0.20479 0.15830 0.42061
 C1078 C 0.20705 0.14173 0.44378
 C1079 C 0.18416 0.13895 0.46003
 C1080 C 0.15899 0.15166 0.45247
 C1081 C 0.15693 0.16759 0.42866
 C1082 C 0.18001 0.17115 0.41315
 C1083 C 0.13169 0.17921 0.42030
 C1084 C 0.10814 0.17495 0.43511
 C1085 C 0.11042 0.15985 0.45924
 C1086 C 0.13566 0.14826 0.46785
 H1087 H 0.18568 0.12614 0.47789
 H1088 H 0.17878 0.18347 0.39496
 H1089 H 0.13026 0.19132 0.40195
 H1090 H 0.13682 0.13620 0.48621
 H1091 H 0.22225 0.16112 0.40808
 H1092 H 0.09253 0.15633 0.47097
 C1093 C 0.61033 0.09040 0.72247
 C1094 C 0.60464 0.08708 0.74987
 C1095 C 0.58759 0.10628 0.76220
 C1096 C 0.57637 0.12843 0.74738
 C1097 C 0.58221 0.13143 0.71985
 C1098 C 0.59919 0.11232 0.70760
 C1099 C 0.57089 0.15342 0.70496
 C1100 C 0.55373 0.17260 0.71714
 C1101 C 0.54811 0.16947 0.74456
 C1102 C 0.55934 0.14760 0.75955
 H1103 H 0.58279 0.10382 0.78322
 H1104 H 0.60394 0.11438 0.68654
 H1105 H 0.57502 0.15530 0.68373
 H1106 H 0.55469 0.14566 0.78065
 H1107 H 0.62376 0.07620 0.71258
 H1108 H 0.53517 0.18408 0.75449
 C1109 C 1.08970 0.55293 0.20457
 C1110 C 1.09485 0.55520 0.23251
 C1111 C 1.08613 0.57940 0.24468
 C1112 C 1.07314 0.60042 0.22953
 C1113 C 1.06794 0.59733 0.20186
 C1114 C 1.07621 0.57353 0.18962
 C1115 C 1.05482 0.61821 0.18672
 C1116 C 1.04755 0.64274 0.19862
 C1117 C 1.05294 0.64562 0.22628
 C1118 C 1.06534 0.62458 0.24161
 H1119 H 1.08844 0.58196 0.26610
 H1120 H 1.07276 0.57100 0.16827
 H1121 H 1.05030 0.61522 0.16563
 H1122 H 1.06929 0.62741 0.26284
 H1123 H 1.09691 0.53574 0.19356
 H1124 H 1.04810 0.66432 0.23605
 C1125 C 0.88405 0.87818 0.24729
 C1126 C 0.89962 0.90129 0.24668
 C1127 C 0.92460 0.90054 0.23337
 C1128 C 0.93383 0.87719 0.22069
 C1129 C 0.91799 0.85409 0.22129
 C1130 C 0.89315 0.85479 0.23470
 C1131 C 0.92728 0.83075 0.20846
 C1132 C 0.95225 0.83022 0.19507
 C1133 C 0.96775 0.85338 0.19467
 C1134 C 0.95867 0.87661 0.20739
 H1135 H 0.93702 0.91807 0.23313
 H1136 H 0.88070 0.83730 0.23535
 H1137 H 0.91524 0.81297 0.20913
 H1138 H 0.97101 0.89417 0.20666
 H1139 H 0.86463 0.87832 0.25720
 H1140 H 0.98679 0.85371 0.18411
 C1141 C 0.42992 0.43704 0.73473
 C1142 C 0.40360 0.43356 0.74446
 C1143 C 0.39197 0.40830 0.74270
 C1144 C 0.40624 0.38689 0.73077
 C1145 C 0.43269 0.39067 0.72097
 C1146 C 0.44441 0.41574 0.72323
 C1147 C 0.44680 0.36946 0.70864
 C1148 C 0.43469 0.34458 0.70550
 C1149 C 0.40841 0.34100 0.71531
 C1150 C 0.39436 0.36192 0.72799
 H1151 H 0.37154 0.40558 0.74990
 H1152 H 0.46465 0.41898 0.71582
 H1153 H 0.46690 0.37254 0.70078
 H1154 H 0.37411 0.35866 0.73535
 H1155 H 0.43929 0.45631 0.73607
 H1156 H 0.39878 0.32194 0.71326
 C1157 C 0.37993 0.62569 0.73959
 C1158 C 0.39276 0.60018 0.74361
 C1159 C 0.41684 0.59778 0.75944
 C1160 C 0.42754 0.62027 0.77170
 C1161 C 0.41433 0.64578 0.76779
 C1162 C 0.39066 0.64830 0.75149
 C1163 C 0.42471 0.66817 0.78071
 C1164 C 0.44780 0.66518 0.79787
 C1165 C 0.46095 0.63978 0.80125
 C1166 C 0.45101 0.61756 0.78818
 H1167 H 0.42724 0.57834 0.76233
 H1168 H 0.38020 0.66765 0.74832
 H1169 H 0.41436 0.68767 0.77815
 H1170 H 0.46145 0.59818 0.79130
 H1171 H 0.36122 0.62810 0.72772
 H1172 H 0.47896 0.63712 0.81413
 C1173 C -0.05291 0.05916 0.27269
 C1174 C -0.07725 0.06653 0.25851
 C1175 C -0.08677 0.09351 0.25850
 C1176 C -0.07274 0.11258 0.27326
 C1177 C -0.04888 0.10462 0.28821
 C1178 C -0.03890 0.07799 0.28744
 C1179 C -0.03567 0.12330 0.30412
 C1180 C -0.04591 0.14992 0.30523
 C1181 C -0.06914 0.15788 0.28965
 C1182 C -0.08251 0.13935 0.27386
 H1183 H -0.10562 0.09947 0.24789
 H1184 H -0.02048 0.07161 0.29856
 H1185 H -0.01754 0.11709 0.31583
 H1186 H -0.10073 0.14585 0.26247
 H1187 H -0.04483 0.03866 0.27262
 H1188 H -0.07742 0.17829 0.29031
 C1189 C 0.07297 0.37631 0.24582
 C1190 C 0.09145 0.39206 0.25988
 C1191 C 0.09557 0.38762 0.28765
 C1192 C 0.08169 0.36752 0.30118
 C1193 C 0.06314 0.35178 0.28686
 C1194 C 0.05885 0.35642 0.25921
 C1195 C 0.04959 0.33137 0.30034
 C1196 C 0.05481 0.32612 0.32783
 C1197 C 0.07315 0.34199 0.34189
 C1198 C 0.08635 0.36262 0.32873
 H1199 H 0.11000 0.39947 0.29861
 H1200 H 0.04472 0.34457 0.24791
 H1201 H 0.03571 0.31898 0.28931
 H1202 H 0.10047 0.37450 0.34002
 H1203 H 0.06922 0.37961 0.22448
 H1204 H 0.07730 0.33834 0.36312
 C1205 C 0.62467 0.89390 0.76839
 C1206 C 0.61050 0.91894 0.76689
 C1207 C 0.58337 0.92086 0.77550
 C1208 C 0.57051 0.89797 0.78515
 C1209 C 0.58497 0.87292 0.78621
 C1210 C 0.61201 0.87111 0.77786
 C1211 C 0.57229 0.85006 0.79586
 C1212 C 0.54543 0.85178 0.80516
 C1213 C 0.53108 0.87674 0.80374
 C1214 C 0.54347 0.89960 0.79373
 H1215 H 0.57216 0.94000 0.77421
 H1216 H 0.62343 0.85208 0.77873
 H1217 H 0.58348 0.83090 0.79627
 H1218 H 0.53205 0.91863 0.79309
 H1219 H 0.64568 0.89195 0.76228
 H1220 H 0.51051 0.87878 0.81105
 C1221 C 0.70256 0.58723 0.07920
 C1222 C 0.73031 0.59281 0.08425
 C1223 C 0.74131 0.58597 0.11020
 C1224 C 0.72527 0.57459 0.13012
 C1225 C 0.69803 0.56856 0.12414
 C1226 C 0.68692 0.57491 0.09864
 C1227 C 0.68220 0.55655 0.14382
 C1228 C 0.69273 0.55157 0.17011
 C1229 C 0.71986 0.55831 0.17591
 C1230 C 0.73605 0.56923 0.15604
 H1231 H 0.76259 0.58851 0.11516
 H1232 H 0.66582 0.57089 0.09385
 H1233 H 0.66172 0.55103 0.13839
 H1234 H 0.75688 0.57401 0.16114
 H1235 H 0.69208 0.59299 0.06058
 H1236 H 0.72865 0.55561 0.19592
 C1237 C 0.27587 1.06172 0.59359
 C1238 C 0.26258 1.08124 0.57671
 C1239 C 0.23488 1.08787 0.58050
 C1240 C 0.22068 1.07539 0.60115
 C1241 C 0.23420 1.05572 0.61799
 C1242 C 0.26177 1.04895 0.61395
 C1243 C 0.22002 1.04331 0.63869
 C1244 C 0.19253 1.05056 0.64317
 C1245 C 0.17938 1.07027 0.62632
 C1246 C 0.19326 1.08245 0.60545
 H1247 H 0.22457 1.10312 0.56774
 H1248 H 0.27247 1.03392 0.62665
 H1249 H 0.23039 1.02792 0.65122
 H1250 H 0.18262 1.09761 0.59286
 H1251 H 0.29716 1.05619 0.59084
 H1252 H 0.15841 1.07670 0.62955
 C1253 C 0.20206 0.89115 0.90713
 C1254 C 0.22939 0.89727 0.91225
 C1255 C 0.24191 0.91590 0.89540
 C1256 C 0.22715 0.92854 0.87388
 C1257 C 0.19969 0.92216 0.86896
 C1258 C 0.18737 0.90340 0.88564
 C1259 C 0.18491 0.93468 0.84749
 C1260 C 0.19711 0.95363 0.83076
 C1261 C 0.22433 0.96010 0.83598
 C1262 C 0.23926 0.94760 0.85731
 H1263 H 0.26290 0.92094 0.89939
 H1264 H 0.16634 0.89828 0.88212
 H1265 H 0.16379 0.92987 0.84396
 H1266 H 0.26027 0.95278 0.86079
 H1267 H 0.19210 0.87670 0.91974
 H1268 H 0.23421 0.97448 0.82325
 C1269 C 0.73505 0.37425 0.39201
 C1270 C 0.73868 0.38746 0.41641
 C1271 C 0.72819 0.41393 0.41878
 C1272 C 0.71435 0.42705 0.39698
 C1273 C 0.71085 0.41348 0.37258
 C1274 C 0.72128 0.38713 0.37030
 C1275 C 0.69684 0.42641 0.35087
 C1276 C 0.68604 0.45276 0.35312
 C1277 C 0.68991 0.46622 0.37736
 C1278 C 0.70394 0.45348 0.39910
 H1279 H 0.73112 0.42439 0.43743
 H1280 H 0.71869 0.37642 0.35176
 H1281 H 0.69443 0.41595 0.33215
 H1282 H 0.70644 0.46421 0.41764
 H1283 H 0.74262 0.35375 0.38980
 H1284 H 0.68157 0.48642 0.37969
 C1285 C 0.79339 0.38014 0.58782
 C1286 C 0.76555 0.38655 0.58315
 C1287 C 0.75243 0.40578 0.59916
 C1288 C 0.76704 0.41882 0.61927
 C1289 C 0.79504 0.41227 0.62376
 C1290 C 0.80798 0.39276 0.60807
 C1291 C 0.80974 0.42554 0.64362
 C1292 C 0.79702 0.44574 0.65885
 C1293 C 0.76909 0.45198 0.65425
 C1294 C 0.75423 0.43859 0.63473
 H1295 H 0.73103 0.41109 0.59546
 H1296 H 0.82944 0.38748 0.61125
 H1297 H 0.83111 0.42009 0.64722
 H1298 H 0.73279 0.44394 0.63148
 H1299 H 0.80384 0.36526 0.57584
 H1300 H 0.75880 0.46763 0.66537
 C1301 C 0.23402 -0.07648 0.09170
 C1302 C 0.24809 -0.09629 0.07721
 C1303 C 0.27550 -0.10285 0.08393
 C1304 C 0.28875 -0.08982 0.10490
 C1305 C 0.27452 -0.06975 0.11926
 C1306 C 0.24715 -0.06324 0.11249
 C1307 C 0.28798 -0.05641 0.13996
 C1308 C 0.31552 -0.06287 0.14648
 C1309 C 0.32924 -0.08322 0.13233
 C1310 C 0.31601 -0.09653 0.11172
 H1311 H 0.28638 -0.11835 0.07305
 H1312 H 0.23591 -0.04791 0.12324
 H1313 H 0.27724 -0.04062 0.15054
 H1314 H 0.32715 -0.11200 0.10107
 H1315 H 0.21292 -0.07102 0.08670
 H1316 H 0.35029 -0.08892 0.13726
 C1317 C 0.29904 0.06031 0.41663
 C1318 C 0.28593 0.08561 0.41202
 C1319 C 0.28511 0.09678 0.38583
 C1320 C 0.29663 0.08275 0.36451
 C1321 C 0.30959 0.05728 0.36934
 C1322 C 0.31082 0.04631 0.39551
 C1323 C 0.32115 0.04328 0.34795
 C1324 C 0.31999 0.05447 0.32176
 C1325 C 0.30684 0.07974 0.31723
 C1326 C 0.29530 0.09376 0.33839
 H1327 H 0.27551 0.11646 0.38200
 H1328 H 0.32064 0.02679 0.39960
 H1329 H 0.33154 0.02397 0.35178
 H1330 H 0.28533 0.11321 0.33432
 H1331 H 0.29966 0.05104 0.43649
 H1332 H 0.30538 0.08866 0.29722
 C1333 C 0.77730 0.56499 0.92620
 C1334 C 0.76350 0.58977 0.92052
 C1335 C 0.76360 0.60044 0.89415
 C1336 C 0.77704 0.58656 0.87377
 C1337 C 0.79079 0.56166 0.87971
 C1338 C 0.79084 0.55110 0.90602
 C1339 C 0.80434 0.54785 0.85929
 C1340 C 0.80444 0.55868 0.83298
 C1341 C 0.79048 0.58337 0.82734
 C1342 C 0.77694 0.59717 0.84752
 H1343 H 0.75340 0.61969 0.88951
 H1344 H 0.80121 0.53202 0.91096
 H1345 H 0.81526 0.52898 0.86400
 H1346 H 0.76640 0.61617 0.84257
 H1347 H 0.77721 0.55606 0.94619
 H1348 H 0.78990 0.59198 0.80720
 C1349 C 0.10378 0.76276 0.58798
 C1350 C 0.08233 0.74699 0.59688
 C1351 C 0.08103 0.72047 0.58778
 C1352 C 0.10076 0.70997 0.57050
 C1353 C 0.12288 0.72558 0.56308
 C1354 C 0.12409 0.75202 0.57177
 C1355 C 0.14356 0.71449 0.54727
 C1356 C 0.14202 0.68816 0.53773
 C1357 C 0.11888 0.67347 0.54398
 C1358 C 0.09878 0.68405 0.56057
 H1359 H 0.06504 0.70768 0.59438
 H1360 H 0.14061 0.76451 0.56579
 H1361 H 0.16112 0.72628 0.54316
 H1362 H 0.08162 0.67197 0.56554
 H1363 H 0.10499 0.78360 0.59331
 H1364 H 0.11616 0.65364 0.53622
 C1365 C 0.59705 0.27257 1.08758
 C1366 C 0.58154 0.25701 1.10492
 C1367 C 0.58968 0.23015 1.11046
 C1368 C 0.61285 0.21878 1.09850
 C1369 C 0.62796 0.23436 1.08052
 C1370 C 0.62000 0.26131 1.07535
 C1371 C 0.65050 0.22264 1.06773
 C1372 C 0.65831 0.19553 1.07280
 C1373 C 0.64357 0.18055 1.09140
 C1374 C 0.62100 0.19201 1.10402
 H1375 H 0.57795 0.21815 1.12408
 H1376 H 0.63137 0.27359 1.06170
 H1377 H 0.66144 0.23442 1.05329
 H1378 H 0.60984 0.17987 1.11798
 H1379 H 0.59100 0.29330 1.08301
 H1380 H 0.64946 0.15984 1.09623
 C1381 C 0.91504 0.21083 0.90113
 C1382 C 0.91824 0.23798 0.90698
 C1383 C 0.90170 0.25011 0.92636
 C1384 C 0.88182 0.23543 0.93936
 C1385 C 0.87834 0.20830 0.93281
 C1386 C 0.89522 0.19612 0.91388
 C1387 C 0.85781 0.19390 0.94502
 C1388 C 0.84069 0.20617 0.96381
 C1389 C 0.84477 0.23290 0.97076
 C1390 C 0.86512 0.24746 0.95856
 H1391 H 0.90430 0.27096 0.93123
 H1392 H 0.89286 0.17533 0.90869
 H1393 H 0.85509 0.17314 0.93988
 H1394 H 0.86757 0.26820 0.96390
 H1395 H 0.92744 0.20116 0.88613
 H1396 H 0.83174 0.24273 0.98512
 C1397 C 0.41780 0.73444 0.43423
 C1398 C 0.41497 0.74570 0.40815
 C1399 C 0.38961 0.74493 0.39451
 C1400 C 0.36757 0.73253 0.40655
 C1401 C 0.37083 0.72103 0.43267
 C1402 C 0.39596 0.72226 0.44637
 C1403 C 0.34909 0.70808 0.44449
 C1404 C 0.32408 0.70610 0.43049
 C1405 C 0.32093 0.71783 0.40464
 C1406 C 0.34243 0.73102 0.39281
 H1407 H 0.38724 0.75339 0.37433
 H1408 H 0.39879 0.71364 0.46644
 H1409 H 0.35193 0.69874 0.46425
 H1410 H 0.33950 0.73975 0.37281
 H1411 H 0.43696 0.73521 0.44535
 H1412 H 0.30178 0.71676 0.39354
 C1413 C 0.59906 0.74570 0.44596
 C1414 C 0.58207 0.75981 0.42702
 C1415 C 0.58609 0.78717 0.42195
 C1416 C 0.60711 0.80021 0.43527
 C1417 C 0.62419 0.78585 0.45421
 C1418 C 0.61986 0.75864 0.45957
 C1419 C 0.64550 0.79886 0.46721
 C1420 C 0.65016 0.82600 0.46129
 C1421 C 0.63297 0.83999 0.44238
 C1422 C 0.61160 0.82727 0.42959
 H1423 H 0.57334 0.79811 0.40708
 H1424 H 0.63272 0.74731 0.47404
 H1425 H 0.65838 0.78788 0.48193
 H1426 H 0.59879 0.83852 0.41500
 H1427 H 0.59618 0.72463 0.45026
 H1428 H 0.63637 0.86073 0.43702
 C1429 C 0.10091 0.24679 -0.08927
 C1430 C 0.08377 0.26140 -0.10769
 C1431 C 0.08919 0.28822 -0.11392
 C1432 C 0.11159 0.30037 -0.10186
 C1433 C 0.12849 0.28563 -0.08302
 C1434 C 0.12301 0.25884 -0.07692
 C1435 C 0.15040 0.29801 -0.07037
 C1436 C 0.15583 0.32494 -0.07638
 C1437 C 0.13929 0.33914 -0.09571
 C1438 C 0.11733 0.32701 -0.10824
 H1439 H 0.07613 0.29948 -0.12830
 H1440 H 0.13575 0.24723 -0.06255
 H1441 H 0.16271 0.28686 -0.05531
 H1442 H 0.10477 0.33853 -0.12283
 H1443 H 0.09692 0.22612 -0.08413
 H1444 H 0.14328 0.35973 -0.10114
 C1445 C 0.39930 0.24480 0.06942
 C1446 C 0.41299 0.25998 0.08861
 C1447 C 0.40427 0.28675 0.09244
 C1448 C 0.38218 0.29822 0.07740
 C1449 C 0.36861 0.28288 0.05801
 C1450 C 0.37737 0.25617 0.05418
 C1451 C 0.34637 0.29444 0.04305
 C1452 C 0.33728 0.32097 0.04767
 C1453 C 0.35104 0.33600 0.06693
 C1454 C 0.37332 0.32478 0.08159
 H1455 H 0.41444 0.29853 0.10744
 H1456 H 0.36724 0.24407 0.03944
 H1457 H 0.33575 0.28268 0.02835
 H1458 H 0.38352 0.33684 0.09631
 H1459 H 0.40584 0.22421 0.06594
 H1460 H 0.34456 0.35658 0.07058
 C1461 C 0.89037 0.76823 0.62432
 C1462 C 0.91490 0.76721 0.61030
 C1463 C 0.91596 0.77988 0.58489
 C1464 C 0.89268 0.79326 0.57351
 C1465 C 0.86815 0.79426 0.58788
 C1466 C 0.86722 0.78171 0.61325
 C1467 C 0.84497 0.80787 0.57671
 C1468 C 0.84585 0.82056 0.55130
 C1469 C 0.87020 0.81910 0.53697
 C1470 C 0.89344 0.80561 0.54800
 H1471 H 0.93473 0.77888 0.57381
 H1472 H 0.84858 0.78230 0.62453
 H1473 H 0.82618 0.80853 0.58777
 H1474 H 0.91204 0.80501 0.53667
 H1475 H 0.88920 0.75875 0.64399
 H1476 H 0.87144 0.82894 0.51747
   
