data_POSCAR
  _audit_creation_date              2014-09-24
  _audit_creation_method            'ToBaCCo'
  _symmetry_space_group_name_H-M    'P1'
  _symmetry_Int_Tables_number       1
  _symmetry_cell_setting            triclinic
  loop_
  _symmetry_equiv_pos_as_xyz
 x,y,z
_cell_length_a 62.0145
_cell_length_b 58.8361
_cell_length_c 61.0099
_cell_angle_alpha 89.813200
_cell_angle_beta 89.797900
_cell_angle_gamma 89.965400
loop_
  _atom_site_label
  _atom_site_type_symbol
  _atom_site_fract_x
  _atom_site_fract_y
  _atom_site_fract_z
N1 N 0.34931 0.33958 0.34604
 N2 N 0.34324 0.84342 -0.15352
 N3 N 0.84737 0.34890 -0.15232
 N4 N 0.84684 0.84001 0.34631
 N5 N 0.65203 0.65977 0.34762
 N6 N 0.65496 0.15911 -0.15354
 N7 N 0.15508 0.65525 -0.15760
 N8 N 0.15539 0.15977 0.34115
 N9 N 0.65402 0.33916 0.65518
 N10 N 0.65678 0.84203 1.15362
 N11 N 0.15402 0.34502 1.15479
 N12 N 0.15364 0.84510 0.65242
 N13 N 0.34461 0.66210 0.65415
 N14 N 0.34699 0.16143 1.15209
 N15 N 0.84803 0.65565 1.15687
 N16 N 0.84484 0.15496 0.65607
 N17 N 0.34625 0.34012 0.65212
 N18 N 0.34455 0.84205 0.15269
 N19 N 0.84373 0.34516 0.15623
 N20 N 0.84473 0.84191 0.65673
 N21 N 0.64868 0.65645 0.65351
 N22 N 0.65646 0.15469 0.15441
 N23 N 0.15448 0.65223 0.15621
 N24 N 0.15075 0.15837 0.65527
 N25 N 0.34711 0.65850 0.34326
 N26 N 0.34559 0.15489 0.84657
 N27 N 0.84473 0.65749 0.84111
 N28 N 0.84753 0.15657 0.34479
 N29 N 0.65269 0.34244 0.34730
 N30 N 0.65433 0.83938 0.84801
 N31 N 0.15477 0.34154 0.83929
 N32 N 0.15457 0.84633 0.34190
 O33 O 0.25007 1.02342 0.27550
 O34 O 0.28054 0.98105 0.24396
 O35 O 0.27974 1.02548 0.24576
 O36 O 0.25004 0.97932 0.27347
 O37 O 0.22481 0.98128 0.24813
 O38 O 0.25585 1.02532 0.21900
 O39 O 0.25523 0.98094 0.21864
 O40 O 0.22582 1.02540 0.24919
 Cu41 Cu 0.26763 1.00214 0.26222
 Cu42 Cu 0.23798 1.00335 0.23110
 C43 C 0.23287 1.03187 0.26770
 C44 C 0.27300 0.97347 0.22610
 C45 C 0.27284 1.03325 0.22764
 C46 C 0.23215 0.97266 0.26570
 O47 O 0.25014 0.52115 0.77480
 O48 O 0.28126 0.47846 0.74420
 O49 O 0.28001 0.52252 0.74455
 O50 O 0.25131 0.47689 0.77386
 O51 O 0.22603 0.47705 0.74851
 O52 O 0.25520 0.52228 0.71873
 O53 O 0.25613 0.47781 0.71871
 O54 O 0.22540 0.52145 0.74891
 Cu55 Cu 0.26815 0.49985 0.76194
 Cu56 Cu 0.23819 0.49966 0.73113
 C57 C 0.23252 0.52870 0.76710
 C58 C 0.27394 0.47065 0.72634
 C59 C 0.27260 0.53015 0.72659
 C60 C 0.23382 0.46906 0.76616
 O61 O 0.75670 -0.02393 0.27731
 O62 O 0.72625 0.01948 0.24711
 O63 O 0.72754 -0.02477 0.24685
 O64 O 0.75654 0.02045 0.27658
 O65 O 0.78174 0.02042 0.25096
 O66 O 0.75250 -0.02383 0.22101
 O67 O 0.75148 0.02052 0.22156
 O68 O 0.78179 -0.02364 0.25158
 Cu69 Cu 0.73925 -0.00221 0.26454
 Cu70 Cu 0.76936 -0.00161 0.23368
 C71 C 0.77441 -0.03129 0.26962
 C72 C 0.73361 0.02753 0.22927
 C73 C 0.73513 -0.03200 0.22878
 C74 C 0.77419 0.02808 0.26883
 O75 O 0.74588 0.47628 0.72073
 O76 O 0.77418 0.52354 0.74817
 O77 O 0.77625 0.47949 0.74994
 O78 O 0.74444 0.52061 0.71826
 O79 O 0.71947 0.52091 0.74408
 O80 O 0.75142 0.47945 0.77593
 O81 O 0.74914 0.52367 0.77394
 O82 O 0.72116 0.47664 0.74680
 Cu83 Cu 0.76263 0.49996 0.73163
 Cu84 Cu 0.73280 0.50019 0.76277
 C85 C 0.72872 0.46827 0.72924
 C86 C 0.76641 0.53168 0.76579
 C87 C 0.76932 0.47238 0.76832
 C88 C 0.72664 0.52797 0.72574
 O89 O 0.25637 0.47594 0.28111
 O90 O 0.22564 0.52025 0.25180
 O91 O 0.22524 0.47599 0.25273
 O92 O 0.25624 0.52012 0.28119
 O93 O 0.27943 0.52128 0.25367
 O94 O 0.24996 0.47468 0.22668
 O95 O 0.24911 0.51873 0.22457
 O96 O 0.28116 0.47693 0.25510
 Cu97 Cu 0.23845 0.49815 0.26939
 Cu98 Cu 0.26738 0.49786 0.23737
 C99 C 0.27414 0.46900 0.27314
 C100 C 0.23201 0.52681 0.23298
 C101 C 0.23237 0.46758 0.23498
 C102 C 0.27295 0.52844 0.27218
 O103 O 0.75241 1.02072 0.72640
 O104 O 0.72171 0.97715 0.75696
 O105 O 0.72257 1.02162 0.75638
 O106 O 0.75090 0.97640 0.72641
 O107 O 0.77626 0.97561 0.75168
 O108 O 0.74778 1.02094 0.78178
 O109 O 0.74698 0.97668 0.78232
 O110 O 0.77770 1.01976 0.75173
 Cu111 Cu 0.73436 0.99906 0.73900
 Cu112 Cu 0.76469 0.99819 0.76943
 C113 C 0.77033 1.02768 0.73388
 C114 C 0.72921 0.96938 0.77484
 C115 C 0.73036 1.02911 0.77417
 C116 C 0.76834 0.96818 0.73390
 O117 O 0.77525 0.47915 0.25179
 O118 O 0.74517 0.52334 0.28127
 O119 O 0.74437 0.47901 0.28063
 O120 O 0.77562 0.52311 0.25165
 O121 O 0.75139 0.52369 0.22527
 O122 O 0.71974 0.48025 0.25465
 O123 O 0.72106 0.52459 0.25480
 O124 O 0.75073 0.47934 0.22567
 Cu125 Cu 0.76249 0.50113 0.26901
 Cu126 Cu 0.73327 0.50202 0.23747
 C127 C 0.76816 0.47163 0.23373
 C128 C 0.72809 0.53166 0.27310
 C129 C 0.72671 0.47205 0.27256
 C130 C 0.76893 0.53083 0.23342
 O131 O 0.24610 -0.02041 0.72075
 O132 O 0.27681 0.02294 0.75092
 O133 O 0.27625 -0.02153 0.75021
 O134 O 0.24704 0.02385 0.72141
 O135 O 0.22244 0.02423 0.74762
 O136 O 0.25132 -0.02207 0.77609
 O137 O 0.25255 0.02201 0.77750
 O138 O 0.22110 -0.02000 0.74657
 Cu139 Cu 0.26405 0.00119 0.73323
 Cu140 Cu 0.23435 0.00105 0.76455
 C141 C 0.22828 -0.02755 0.72847
 C142 C 0.26992 0.02979 0.76939
 C143 C 0.26877 -0.02969 0.76797
 C144 C 0.22984 0.03194 0.72961
 O145 O 0.24295 0.28039 0.97524
 O146 O 0.27582 0.25376 1.01845
 O147 O 0.27449 0.25119 0.97560
 O148 O 0.24436 0.28294 1.01776
 O149 O 0.22100 0.25479 1.02037
 O150 O 0.25109 0.22310 0.97828
 O151 O 0.25245 0.22562 1.02091
 O152 O 0.21956 0.25227 0.97776
 Cu153 Cu 0.26179 0.26985 0.99650
 Cu154 Cu 0.23369 0.23612 0.99957
 C155 C 0.22563 0.27086 0.96909
 C156 C 0.26967 0.23524 1.02722
 C157 C 0.26785 0.23175 0.96962
 C158 C 0.22756 0.27426 1.02634
 O159 O 0.25552 0.72529 0.47625
 O160 O 0.22371 0.75439 0.51901
 O161 O 0.22340 0.75354 0.47618
 O162 O 0.25599 0.72608 0.51907
 O163 O 0.27850 0.75509 0.51838
 O164 O 0.24613 0.78236 0.47519
 O165 O 0.24627 0.78334 0.51772
 O166 O 0.27821 0.75414 0.47545
 Cu167 Cu 0.23739 0.73692 0.49775
 Cu168 Cu 0.26461 0.77157 0.49663
 C169 C 0.27218 0.73490 0.46834
 C170 C 0.22957 0.77388 0.52566
 C171 C 0.22928 0.77254 0.46820
 C172 C 0.27271 0.73601 0.52624
 O173 O 0.24389 0.71698 0.02061
 O174 O 0.27557 0.74789 -0.02103
 O175 O 0.27499 0.74633 0.02160
 O176 O 0.24447 0.71824 -0.02223
 O177 O 0.22034 0.74580 -0.02137
 O178 O 0.25149 0.77449 0.02182
 O179 O 0.25140 0.77543 -0.02102
 O180 O 0.22020 0.74496 0.02123
 Cu181 Cu 0.26210 0.72955 -0.00035
 Cu182 Cu 0.23349 0.76299 0.00022
 C183 C 0.22672 0.72578 0.02819
 C184 C 0.26881 0.76686 -0.02828
 C185 C 0.26847 0.76518 0.02926
 C186 C 0.22718 0.72719 -0.02931
 O187 O 0.27501 0.24823 0.47839
 O188 O 0.24109 0.22110 0.52047
 O189 O 0.24257 0.22086 0.47752
 O190 O 0.27340 0.24936 0.52103
 O191 O 0.25136 0.27873 0.51906
 O192 O 0.21924 0.24925 0.47730
 O193 O 0.21910 0.25057 0.51995
 O194 O 0.25214 0.27691 0.47647
 Cu195 Cu 0.26023 0.23193 0.49954
 Cu196 Cu 0.23319 0.26677 0.49806
 C197 C 0.26926 0.26706 0.47001
 C198 C 0.22447 0.23130 0.52765
 C199 C 0.22568 0.23024 0.46998
 C200 C 0.26774 0.26905 0.52735
 O201 O 0.74611 0.77387 0.97893
 O202 O 0.77968 0.74683 1.02119
 O203 O 0.77854 0.74563 0.97822
 O204 O 0.74684 0.77439 1.02137
 O205 O 0.72485 0.74491 1.02283
 O206 O 0.75637 0.71636 0.97989
 O207 O 0.75752 0.71753 1.02239
 O208 O 0.72413 0.74435 0.97965
 Cu209 Cu 0.76508 0.76307 0.99979
 Cu210 Cu 0.73841 0.72792 1.00130
 C211 C 0.72952 0.76363 0.97194
 C212 C 0.77426 0.72770 1.02921
 C213 C 0.77277 0.72608 0.97161
 C214 C 0.73056 0.76438 1.02960
 O215 O 0.74683 0.27645 0.47918
 O216 O 0.77713 0.24580 0.52180
 O217 O 0.77752 0.24629 0.47885
 O218 O 0.74635 0.27600 0.52162
 O219 O 0.72268 0.24796 0.52198
 O220 O 0.75320 0.21894 0.47846
 O221 O 0.75327 0.21802 0.52098
 O222 O 0.72248 0.24913 0.47901
 Cu223 Cu 0.76443 0.26385 0.50040
 Cu224 Cu 0.73544 0.23079 0.50003
 C225 C 0.72944 0.26806 0.47184
 C226 C 0.77037 0.22669 0.52873
 C227 C 0.77060 0.22759 0.47124
 C228 C 0.72930 0.26692 0.52922
 O229 O 0.77692 0.25502 -0.02080
 O230 O 0.74560 0.22466 0.02161
 O231 O 0.74625 0.22453 -0.02089
 O232 O 0.77610 0.25490 0.02211
 O233 O 0.75153 0.28203 0.02186
 O234 O 0.72266 0.25264 -0.02233
 O235 O 0.72101 0.25175 0.02051
 O236 O 0.75299 0.28278 -0.02055
 Cu237 Cu 0.76371 0.23705 0.00051
 Cu238 Cu 0.73456 0.27000 -0.00016
 C239 C 0.77035 0.27416 -0.02784
 C240 C 0.72789 0.23305 0.02828
 C241 C 0.72948 0.23353 -0.02905
 C242 C 0.76880 0.27357 0.02948
 O243 O 0.72192 0.75053 0.47921
 O244 O 0.75199 0.77981 0.52260
 O245 O 0.75395 0.77849 0.48003
 O246 O 0.71941 0.75146 0.52194
 O247 O 0.74317 0.72369 0.52538
 O248 O 0.77577 0.74888 0.48108
 O249 O 0.77534 0.75154 0.52379
 O250 O 0.74331 0.72071 0.48269
 Cu251 Cu 0.73451 0.76797 0.50085
 Cu252 Cu 0.76167 0.73329 0.50340
 C253 C 0.72745 0.73060 0.47360
 C254 C 0.76894 0.77084 0.53047
 C255 C 0.77054 0.76807 0.47307
 C256 C 0.72564 0.73318 0.53107
 O257 O 1.01993 0.28021 0.24254
 O258 O 0.97985 0.24941 0.27583
 O259 O 1.02193 0.24967 0.27353
 O260 O 0.97795 0.27903 0.24419
 O261 O 0.97838 0.25215 0.21906
 O262 O 1.02065 0.22183 0.24943
 O263 O 0.97845 0.22245 0.25083
 O264 O 1.02054 0.25199 0.21875
 Cu265 Cu 0.99997 0.26732 0.26150
 Cu266 Cu 0.99936 0.23434 0.23208
 C267 C 1.02740 0.27116 0.22523
 C268 C 0.97200 0.23087 0.26887
 C269 C 1.02890 0.23076 0.26635
 C270 C 0.97073 0.27061 0.22651
 O271 O 0.47837 0.24742 0.77884
 O272 O 0.51876 0.27808 0.74591
 O273 O 0.47677 0.27574 0.74615
 O274 O 0.52030 0.24908 0.77811
 O275 O 0.52108 0.22034 0.75500
 O276 O 0.47840 0.24768 0.72231
 O277 O 0.52045 0.24942 0.72275
 O278 O 0.47892 0.21922 0.75512
 Cu279 Cu 0.49845 0.26542 0.76458
 Cu280 Cu 0.49981 0.23130 0.73646
 C281 C 0.47155 0.22819 0.77254
 C282 C 0.52669 0.26897 0.72884
 C283 C 0.47014 0.26628 0.72874
 C284 C 0.52816 0.23015 0.77203
 O285 O -0.02335 0.28023 0.75408
 O286 O 0.01770 0.24959 0.72191
 O287 O -0.02415 0.25068 0.72249
 O288 O 0.01874 0.27992 0.75292
 O289 O 0.01969 0.25156 0.77671
 O290 O -0.02477 0.22349 0.74748
 O291 O 0.01723 0.22166 0.74615
 O292 O -0.02247 0.25312 0.77913
 Cu293 Cu -0.00279 0.26791 0.73543
 Cu294 Cu -0.00268 0.23473 0.76489
 C295 C -0.02992 0.27189 0.77214
 C296 C 0.02451 0.23039 0.72857
 C297 C -0.03189 0.23217 0.72982
 C298 C 0.02690 0.27044 0.76968
 O299 O 0.48115 0.27528 0.25285
 O300 O 0.52497 0.24730 0.22226
 O301 O 0.48283 0.24684 0.22018
 O302 O 0.52317 0.27591 0.25407
 O303 O 0.52307 0.24705 0.27727
 O304 O 0.48141 0.21874 0.24416
 O305 O 0.52342 0.21806 0.24501
 O306 O 0.48116 0.24710 0.27680
 Cu307 Cu 0.50301 0.26418 0.23494
 Cu308 Cu 0.50218 0.22984 0.26315
 C309 C 0.47381 0.26607 0.27020
 C310 C 0.53172 0.22796 0.22850
 C311 C 0.47502 0.22795 0.22647
 C312 C 0.53026 0.26633 0.27129
 O313 O 0.98036 0.75135 0.72056
 O314 O 1.02225 0.72138 0.75223
 O315 O 0.97997 0.72106 0.75172
 O316 O 1.02243 0.75183 0.72120
 O317 O 1.02135 0.77914 0.74587
 O318 O 0.97990 0.74796 0.77684
 O319 O 1.02185 0.74893 0.77667
 O320 O 0.97918 0.77817 0.74572
 Cu321 Cu 1.00130 0.73365 0.73396
 Cu322 Cu 1.00046 0.76629 0.76373
 C323 C 0.97243 0.76975 0.72787
 C324 C 1.02947 0.73025 0.76969
 C325 C 0.97265 0.72931 0.76949
 C326 C 1.02927 0.77071 0.72847
 O327 O 0.47984 0.75336 0.22038
 O328 O 0.52220 0.72540 0.25309
 O329 O 0.48017 0.72400 0.25242
 O330 O 0.52193 0.75474 0.22108
 O331 O 0.52017 0.78304 0.24463
 O332 O 0.47932 0.75180 0.27659
 O333 O 0.52117 0.75376 0.27663
 O334 O 0.47810 0.78105 0.24461
 Cu335 Cu 0.50116 0.73658 0.23432
 Cu336 Cu 0.49956 0.77025 0.26297
 C337 C 0.47155 0.77187 0.22704
 C338 C 0.52902 0.73489 0.27042
 C339 C 0.47265 0.73263 0.26992
 C340 C 0.52825 0.77414 0.22753
 O341 O 0.02251 0.75204 0.27853
 O342 O -0.01848 0.71978 0.24854
 O343 O 0.02367 0.72098 0.24818
 O344 O -0.01940 0.75102 0.27835
 O345 O -0.01996 0.77734 0.25251
 O346 O 0.02305 0.74769 0.22274
 O347 O -0.01899 0.74609 0.22270
 O348 O 0.02210 0.77859 0.25291
 Cu349 Cu 0.00218 0.73326 0.26595
 Cu350 Cu 0.00151 0.76508 0.23514
 C351 C 0.02937 0.77079 0.27088
 C352 C -0.02597 0.72750 0.23066
 C353 C 0.03084 0.72937 0.23036
 C354 C -0.02719 0.76924 0.27040
 O355 O 0.51903 0.75091 0.78135
 O356 O 0.47654 0.72244 0.75016
 O357 O 0.51870 0.72163 0.74962
 O358 O 0.47704 0.75233 0.78124
 O359 O 0.47810 0.78024 0.75703
 O360 O 0.51879 0.74926 0.72508
 O361 O 0.47677 0.75025 0.72582
 O362 O 0.52009 0.77862 0.75693
 Cu363 Cu 0.49779 0.73403 0.76801
 Cu364 Cu 0.49852 0.76737 0.73876
 C365 C 0.52696 0.76952 0.77451
 C366 C 0.46916 0.73152 0.73284
 C367 C 0.52587 0.73027 0.73191
 C368 C 0.47043 0.77155 0.77446
 C369 C 0.40453 0.30952 0.31693
 C370 C 0.40281 0.31041 0.33988
 C371 C 0.38480 0.32061 0.34946
 C372 C 0.36849 0.32988 0.33630
 C373 C 0.37104 0.32903 0.31344
 N374 N 0.38875 0.31906 0.30447
 C375 C 0.42297 0.29847 0.30583
 N376 N 0.42874 0.30564 0.28540
 C377 C 0.44507 0.29584 0.27389
 C378 C 0.45646 0.27738 0.28278
 C379 C 0.45069 0.26961 0.30377
 C380 C 0.43403 0.28012 0.31535
 H381 H 0.38353 0.32126 0.36715
 H382 H 0.35878 0.33592 0.30273
 H383 H 0.44890 0.30228 0.25770
 H384 H 0.45899 0.25535 0.31120
 H385 H 0.41530 0.30358 0.35035
 H386 H 0.42955 0.27348 0.33128
 C387 C 0.40067 0.81636 0.81921
 C388 C 0.39822 0.84004 0.82094
 C389 C 0.37949 0.84893 0.83031
 C390 C 0.36328 0.83436 0.83806
 C391 C 0.36663 0.81082 0.83667
 N392 N 0.38496 0.80254 0.82738
 C393 C 0.41959 0.80595 0.80832
 N394 N 0.42528 0.78428 0.81370
 C395 C 0.44178 0.77319 0.80360
 C396 C 0.45339 0.78383 0.78664
 C397 C 0.44783 0.80617 0.78087
 C398 C 0.43101 0.81727 0.79164
 H399 H 0.37754 0.86718 0.83142
 H400 H 0.35445 0.79907 0.84245
 H401 H 0.44546 0.75593 0.80849
 H402 H 0.45627 0.81499 0.76780
 H403 H 0.41057 0.85162 0.81524
 H404 H 0.42662 0.83422 0.78636
 C405 C -0.09800 0.31722 0.81897
 C406 C -0.09930 0.31924 0.84187
 C407 C -0.11716 0.32987 0.85132
 C408 C -0.13374 0.33844 0.83806
 C409 C -0.13168 0.33632 0.81524
 N410 N -0.11410 0.32599 0.80641
 C411 C -0.07967 0.30587 0.80798
 N412 N -0.07449 0.31211 0.78712
 C413 C -0.05840 0.30191 0.77561
 C414 C -0.04667 0.28393 0.78494
 C415 C -0.05174 0.27717 0.80642
 C416 C -0.06816 0.28812 0.81801
 H417 H -0.11804 0.33150 0.86897
 H418 H -0.14416 0.34259 0.80445
 H419 H -0.05512 0.30757 0.75903
 H420 H -0.04317 0.26330 0.81420
 H421 H -0.08657 0.31301 0.85239
 H422 H -0.07216 0.28223 0.83435
 C423 C -0.09964 0.81126 0.31308
 C424 C -0.11698 0.82003 0.30098
 C425 C -0.13465 0.82925 0.31193
 C426 C -0.13512 0.82987 0.33490
 C427 C -0.11765 0.82056 0.34643
 N428 N -0.10060 0.81153 0.33538
 C429 C -0.08060 0.80133 0.30208
 N430 N -0.06971 0.78405 0.31199
 C431 C -0.05243 0.77377 0.30242
 C432 C -0.04516 0.78093 0.28168
 C433 C -0.05583 0.79913 0.27150
 C434 C -0.07350 0.80935 0.28161
 H435 H -0.14803 0.83584 0.30248
 H436 H -0.11750 0.82070 0.36416
 H437 H -0.04455 0.75993 0.31093
 H438 H -0.05070 0.80532 0.25558
 H439 H -0.11714 0.81943 0.28325
 H440 H -0.08136 0.82348 0.27351
 C441 C 0.59857 0.69311 0.31819
 C442 C 0.61369 0.70583 0.33004
 C443 C 0.63111 0.69489 0.33986
 C444 C 0.63376 0.67126 0.33784
 C445 C 0.61814 0.65914 0.32602
 N446 N 0.60132 0.67022 0.31650
 C447 C 0.58023 0.70404 0.30678
 N448 N 0.57165 0.69370 0.28888
 C449 C 0.55521 0.70303 0.27720
 C450 C 0.54639 0.72406 0.28337
 C451 C 0.55467 0.73476 0.30206
 C452 C 0.57148 0.72483 0.31381
 H453 H 0.64270 0.70507 0.34865
 H454 H 0.61932 0.64089 0.32433
 H455 H 0.54920 0.69408 0.26301
 H456 H 0.54822 0.75088 0.30758
 H457 H 0.61253 0.72412 0.33128
 H458 H 0.57734 0.73330 0.32832
 C459 C 0.59995 0.19048 0.81798
 C460 C 0.61535 0.20387 0.82871
 C461 C 0.63334 0.19358 0.83810
 C462 C 0.63627 0.16993 0.83678
 C463 C 0.62042 0.15714 0.82597
 N464 N 0.60303 0.16758 0.81685
 C465 C 0.58092 0.20074 0.80716
 N466 N 0.57187 0.18989 0.78979
 C467 C 0.55486 0.19871 0.77859
 C468 C 0.54594 0.21971 0.78472
 C469 C 0.55466 0.23088 0.80293
 C470 C 0.57205 0.22146 0.81420
 H471 H 0.64510 0.20426 0.84607
 H472 H 0.62183 0.13885 0.82484
 H473 H 0.54851 0.18941 0.76477
 H474 H 0.54817 0.24699 0.80840
 H475 H 0.61393 0.22217 0.82942
 H476 H 0.57830 0.23030 0.82834
 C477 C 1.10164 0.68832 0.81298
 C478 C 1.11844 0.70132 0.82186
 C479 C 1.13608 0.69044 0.83132
 C480 C 1.13709 0.66663 0.83205
 C481 C 1.12016 0.65423 0.82265
 N482 N 1.10313 0.66522 0.81342
 C483 C 1.08263 0.69917 0.80273
 N484 N 1.07230 0.68833 0.78610
 C485 C 1.05511 0.69766 0.77559
 C486 C 1.04730 0.71914 0.78175
 C487 C 1.05736 0.73029 0.79926
 C488 C 1.07497 0.72040 0.80976
 H489 H 1.14903 0.70060 0.83797
 H490 H 1.12038 0.63584 0.82288
 H491 H 1.04772 0.68839 0.76229
 H492 H 1.05181 0.74680 0.80468
 H493 H 1.11821 0.71970 0.82119
 H494 H 1.08233 0.72925 0.82332
 C495 C 1.10210 0.18901 0.30791
 C496 C 1.11942 0.18014 0.29576
 C497 C 1.13703 0.17074 0.30668
 C498 C 1.13738 0.16985 0.32967
 C499 C 1.11997 0.17944 0.34120
 N500 N 1.10303 0.18865 0.33020
 C501 C 1.08305 0.19906 0.29706
 N502 N 1.07222 0.21634 0.30704
 C503 C 1.05477 0.22654 0.29776
 C504 C 1.04716 0.21924 0.27731
 C505 C 1.05779 0.20109 0.26702
 C506 C 1.07571 0.19101 0.27678
 H507 H 1.15045 0.16428 0.29716
 H508 H 1.11968 0.17934 0.35892
 H509 H 1.04695 0.24037 0.30633
 H510 H 1.05245 0.19485 0.25127
 H511 H 1.11960 0.18083 0.27804
 H512 H 1.08354 0.17692 0.26863
 C513 C 0.59589 0.31329 0.68227
 C514 C 0.59929 0.33690 0.68146
 C515 C 0.61815 0.34540 0.67197
 C516 C 0.63364 0.33056 0.66323
 C517 C 0.62909 0.30717 0.66332
 N518 N 0.61070 0.29926 0.67284
 C519 C 0.57705 0.30309 0.69364
 N520 N 0.57091 0.28158 0.68832
 C521 C 0.55459 0.27059 0.69888
 C522 C 0.54360 0.28115 0.71625
 C523 C 0.54961 0.30334 0.72196
 C524 C 0.56626 0.31434 0.71075
 H525 H 0.62082 0.36358 0.67169
 H526 H 0.64043 0.29511 0.65657
 H527 H 0.55055 0.25346 0.69398
 H528 H 0.54168 0.31211 0.73532
 H529 H 0.58763 0.34875 0.68803
 H530 H 0.57101 0.33112 0.71605
 C531 C 0.59864 0.81757 0.18215
 C532 C 0.60263 0.84107 0.18146
 C533 C 0.62154 0.84913 0.17167
 C534 C 0.63656 0.83392 0.16262
 C535 C 0.63148 0.81064 0.16284
 N536 N 0.61302 0.80320 0.17254
 C537 C 0.57952 0.80775 0.19329
 N538 N 0.57298 0.78647 0.18763
 C539 C 0.55636 0.77571 0.19788
 C540 C 0.54543 0.78625 0.21529
 C541 C 0.55181 0.80823 0.22135
 C542 C 0.56879 0.81902 0.21043
 H543 H 0.62452 0.86725 0.17126
 H544 H 0.64236 0.79825 0.15586
 H545 H 0.55205 0.75874 0.19270
 H546 H 0.54392 0.81695 0.23477
 H547 H 0.59131 0.85318 0.18821
 H548 H 0.57382 0.83563 0.21594
 C549 C 1.09803 0.31493 0.18157
 C550 C 1.09593 0.33270 0.16632
 C551 C 1.11444 0.34236 0.15710
 C552 C 1.13483 0.33468 0.16352
 C553 C 1.13627 0.31702 0.17887
 N554 N 1.11805 0.30748 0.18724
 C555 C 1.07900 0.30418 0.19167
 N556 N 1.07818 0.28113 0.19340
 C557 C 1.06143 0.27025 0.20332
 C558 C 1.04464 0.28278 0.21290
 C559 C 1.04523 0.30655 0.21144
 C560 C 1.06225 0.31732 0.20053
 H561 H 1.11297 0.35601 0.14526
 H562 H 1.15187 0.31078 0.18403
 H563 H 1.06161 0.25188 0.20437
 H564 H 1.03256 0.31674 0.21872
 H565 H 1.08018 0.33881 0.16143
 H566 H 1.06269 0.33570 0.19965
 C567 C 1.10112 0.81394 0.68553
 C568 C 1.11838 0.82276 0.69765
 C569 C 1.13579 0.83261 0.68674
 C570 C 1.13611 0.83385 0.66377
 C571 C 1.11879 0.82432 0.65221
 N572 N 1.10197 0.81469 0.66323
 C573 C 1.08221 0.80366 0.69655
 N574 N 1.07166 0.78612 0.68680
 C575 C 1.05452 0.77558 0.69644
 C576 C 1.04701 0.78274 0.71705
 C577 C 1.05731 0.80121 0.72705
 C578 C 1.07487 0.81166 0.71690
 H579 H 1.14906 0.83930 0.69623
 H580 H 1.11848 0.82490 0.63449
 H581 H 1.04692 0.76153 0.68807
 H582 H 1.05202 0.80739 0.74288
 H583 H 1.11860 0.82182 0.71536
 H584 H 1.08248 0.82596 0.72486
 C585 C 0.39731 0.69058 0.68859
 C586 C 0.37992 0.68121 0.70031
 C587 C 0.36254 0.67204 0.68897
 C588 C 0.36239 0.67209 0.66598
 C589 C 0.37991 0.68196 0.65486
 N590 N 0.39668 0.69091 0.66627
 C591 C 0.41610 0.70038 0.70001
 N592 N 0.42692 0.71814 0.69075
 C593 C 0.44402 0.72821 0.70071
 C594 C 0.45123 0.72029 0.72116
 C595 C 0.44062 0.70164 0.73068
 C596 C 0.42311 0.69168 0.72020
 H597 H 0.34912 0.66500 0.69813
 H598 H 0.38034 0.68232 0.63713
 H599 H 0.45187 0.74243 0.69271
 H600 H 0.44568 0.69486 0.74637
 H601 H 0.37952 0.68127 0.71804
 H602 H 0.41531 0.67718 0.72778
 C603 C 0.40519 0.18685 0.17916
 C604 C 0.40191 0.18811 0.15642
 C605 C 0.38299 0.17929 0.14746
 C606 C 0.36724 0.16936 0.16104
 C607 C 0.37165 0.16760 0.18358
 N608 N 0.39014 0.17634 0.19190
 C609 C 0.42428 0.19689 0.18993
 N610 N 0.43030 0.18876 0.20992
 C611 C 0.44678 0.19795 0.22153
 C612 C 0.45805 0.21683 0.21331
 C613 C 0.45222 0.22544 0.19268
 C614 C 0.43540 0.21553 0.18094
 H615 H 0.38059 0.18035 0.12992
 H616 H 0.36024 0.15985 0.19474
 H617 H 0.45068 0.19079 0.23740
 H618 H 0.46042 0.24006 0.18576
 H619 H 0.41378 0.19565 0.14560
 H620 H 0.43077 0.22296 0.16542
 C621 C -0.09756 0.68347 0.18901
 C622 C -0.11485 0.67496 0.20147
 C623 C -0.13275 0.66593 0.19090
 C624 C -0.13349 0.66519 0.16793
 C625 C -0.11596 0.67404 0.15605
 N626 N -0.09872 0.68296 0.16673
 C627 C -0.07849 0.69364 0.19959
 N628 N -0.06796 0.71105 0.18943
 C629 C -0.05087 0.72178 0.19873
 C630 C -0.04344 0.71502 0.21948
 C631 C -0.05366 0.69663 0.22989
 C632 C -0.07115 0.68594 0.22004
 H633 H -0.14614 0.65973 0.20064
 H634 H -0.11597 0.67377 0.13832
 H635 H -0.04332 0.73575 0.19005
 H636 H -0.04841 0.69075 0.24584
 H637 H -0.11482 0.67574 0.21919
 H638 H -0.07875 0.67176 0.22834
 C639 C -0.10120 0.18773 0.68452
 C640 C -0.10238 0.18560 0.66162
 C641 C -0.12005 0.17468 0.65227
 C642 C -0.13657 0.16594 0.66560
 C643 C -0.13465 0.16822 0.68841
 N644 N -0.11725 0.17882 0.69716
 C645 C -0.08292 0.19920 0.69536
 N646 N -0.07750 0.19285 0.71611
 C647 C -0.06117 0.20290 0.72729
 C648 C -0.04940 0.22074 0.71771
 C649 C -0.05485 0.22769 0.69641
 C650 C -0.07153 0.21696 0.68518
 H651 H -0.12079 0.17291 0.63463
 H652 H -0.14710 0.16180 0.69925
 H653 H -0.05761 0.19711 0.74374
 H654 H -0.04626 0.24145 0.68843
 H655 H -0.08967 0.19190 0.65105
 H656 H -0.07572 0.22292 0.66895
 C657 C 0.32044 0.39745 0.31675
 C658 C 0.34295 0.39661 0.31912
 C659 C 0.35244 0.37770 0.32902
 C660 C 0.33961 0.35963 0.33651
 C661 C 0.31716 0.36133 0.33416
 N662 N 0.30827 0.37993 0.32453
 C663 C 0.30950 0.41673 0.30591
 N664 N 0.28880 0.42170 0.31166
 C665 C 0.27739 0.43859 0.30181
 C666 C 0.28668 0.45135 0.28475
 C667 C 0.30798 0.44647 0.27851
 C668 C 0.31945 0.42926 0.28907
 H669 H 0.36979 0.37713 0.33086
 H670 H 0.30672 0.34770 0.33965
 H671 H 0.26096 0.44170 0.30704
 H672 H 0.31573 0.45583 0.26536
 H673 H 0.35312 0.41046 0.31366
 H674 H 0.33566 0.42541 0.28361
 C675 C 0.31240 -0.10338 0.81148
 C676 C 0.32208 -0.12134 0.79995
 C677 C 0.33204 -0.13889 0.81148
 C678 C 0.33245 -0.13868 0.83446
 C679 C 0.32231 -0.12062 0.84540
 N680 N 0.31262 -0.10370 0.83380
 C681 C 0.30169 -0.08434 0.79994
 N682 N 0.28496 -0.07341 0.80985
 C683 C 0.27427 -0.05593 0.80007
 C684 C 0.28043 -0.04838 0.77910
 C685 C 0.29791 -0.05914 0.76879
 C686 C 0.30855 -0.07707 0.77911
 H687 H 0.33933 -0.15275 0.80246
 H688 H 0.32232 -0.11988 0.86312
 H689 H 0.26099 -0.04798 0.80869
 H690 H 0.30332 -0.05379 0.75268
 H691 H 0.32166 -0.12209 0.78224
 H692 H 0.32218 -0.08488 0.77095
 C693 C 0.81720 0.40431 0.81540
 C694 C 0.83979 0.40378 0.81712
 C695 C 0.84972 0.38569 0.82796
 C696 C 0.83726 0.36813 0.83706
 C697 C 0.81472 0.36954 0.83535
 N698 N 0.80541 0.38733 0.82475
 C699 C 0.80579 0.42268 0.80358
 N700 N 0.78511 0.42776 0.80937
 C701 C 0.77333 0.44383 0.79871
 C702 C 0.78219 0.45559 0.78077
 C703 C 0.80345 0.45057 0.77448
 C704 C 0.81530 0.43421 0.78583
 H705 H 0.86712 0.38536 0.82929
 H706 H 0.80456 0.35631 0.84212
 H707 H 0.75695 0.44707 0.80402
 H708 H 0.81089 0.45916 0.76067
 H709 H 0.84970 0.41727 0.81044
 H710 H 0.83145 0.43023 0.78030
 C711 C 0.81885 -0.10193 0.31666
 C712 C 0.84132 -0.10305 0.31918
 C713 C 0.85047 -0.12181 0.32963
 C714 C 0.83735 -0.13945 0.33757
 C715 C 0.81492 -0.13729 0.33542
 N716 N 0.80636 -0.11886 0.32514
 C717 C 0.80833 -0.08305 0.30474
 N718 N 0.78767 -0.07741 0.30998
 C719 C 0.77670 -0.06080 0.29923
 C720 C 0.78641 -0.04900 0.28176
 C721 C 0.80765 -0.05465 0.27595
 C722 C 0.81867 -0.07159 0.28741
 H723 H 0.86783 -0.12279 0.33126
 H724 H 0.80428 -0.15058 0.34126
 H725 H 0.76029 -0.05708 0.30416
 H726 H 0.81571 -0.04605 0.26251
 H727 H 0.85174 -0.08964 0.31321
 H728 H 0.83486 -0.07603 0.28231
 C729 C 0.31654 0.60281 0.68161
 C730 C 0.33906 0.60425 0.67945
 C731 C 0.34825 0.62346 0.66979
 C732 C 0.33512 0.64124 0.66224
 C733 C 0.31267 0.63878 0.66395
 N734 N 0.30406 0.61991 0.67350
 C735 C 0.30604 0.58345 0.69291
 N736 N 0.28558 0.57752 0.68727
 C737 C 0.27473 0.56041 0.69751
 C738 C 0.28436 0.54838 0.71483
 C739 C 0.30537 0.55434 0.72101
 C740 C 0.31626 0.57178 0.71010
 H741 H 0.36562 0.62465 0.66845
 H742 H 0.30203 0.65215 0.65834
 H743 H 0.25849 0.55646 0.69231
 H744 H 0.31338 0.54560 0.73434
 H745 H 0.34950 0.59074 0.68512
 H746 H 0.33225 0.57641 0.71553
 C747 C 0.31509 1.10759 0.18445
 C748 C 0.31029 1.13009 0.19024
 C749 C 0.32040 1.14790 0.17912
 C750 C 0.33563 1.14321 0.16277
 C751 C 0.33996 1.12055 0.15738
 N752 N 0.32954 1.10343 0.16808
 C753 C 0.30471 1.08844 0.19588
 N754 N 0.29549 1.07147 0.18405
 C755 C 0.28527 1.05366 0.19383
 C756 C 0.28441 1.05204 0.21677
 C757 C 0.29427 1.06906 0.22924
 C758 C 0.30420 1.08745 0.21884
 H759 H 0.31679 1.16531 0.18350
 H760 H 0.35159 1.11655 0.14470
 H761 H 0.27795 1.04072 0.18372
 H762 H 0.29384 1.06840 0.24698
 H763 H 0.29870 1.13379 0.20306
 H764 H 0.31159 1.10067 0.22859
 C765 C 0.81692 0.59961 0.18715
 C766 C 0.83947 0.59961 0.18499
 C767 C 0.84966 0.61774 0.17445
 C768 C 0.83749 0.63588 0.16608
 C769 C 0.81495 0.63489 0.16796
 N770 N 0.80536 0.61704 0.17830
 C771 C 0.80534 0.58134 0.19900
 N772 N 0.78466 0.57643 0.19330
 C773 C 0.77285 0.56029 0.20386
 C774 C 0.78168 0.54823 0.22160
 C775 C 0.80289 0.55319 0.22790
 C776 C 0.81478 0.56965 0.21665
 H777 H 0.86707 0.61780 0.17302
 H778 H 0.80502 0.64859 0.16176
 H779 H 0.75650 0.55711 0.19855
 H780 H 0.81030 0.54435 0.24154
 H781 H 0.84916 0.58576 0.19126
 H782 H 0.83094 0.57351 0.22209
 C783 C 0.81624 1.09847 0.68825
 C784 C 0.83881 1.09975 0.68645
 C785 C 0.84822 1.11823 0.67570
 C786 C 0.83527 1.13544 0.66676
 C787 C 0.81279 1.13333 0.66857
 N788 N 0.80398 1.11516 0.67908
 C789 C 0.80533 1.07955 0.69980
 N790 N 0.78479 1.07403 0.69405
 C791 C 0.77348 1.05733 0.70437
 C792 C 0.78269 1.04529 0.72190
 C793 C 0.80381 1.05078 0.72817
 C794 C 0.81517 1.06782 0.71718
 H795 H 0.86561 1.11911 0.67428
 H796 H 0.80227 1.14627 0.66191
 H797 H 0.75719 1.05375 0.69909
 H798 H 0.81151 1.04201 0.74167
 H799 H 0.84911 1.08653 0.69296
 H800 H 0.83121 1.07212 0.72269
 C801 C 0.68300 0.60327 0.31812
 C802 C 0.68021 0.60379 0.34096
 C803 C 0.66972 0.62219 0.35060
 C804 C 0.66185 0.64006 0.33762
 C805 C 0.66464 0.63872 0.31480
 N806 N 0.67494 0.62060 0.30575
 C807 C 0.69458 0.58444 0.30718
 N808 N 0.68948 0.57902 0.28614
 C809 C 0.69973 0.56213 0.27503
 C810 C 0.71642 0.54977 0.28503
 C811 C 0.72207 0.55527 0.30661
 C812 C 0.71122 0.57251 0.31773
 H813 H 0.66771 0.62242 0.36822
 H814 H 0.65902 0.65227 0.30424
 H815 H 0.69497 0.55857 0.25834
 H816 H 0.73493 0.54628 0.31492
 H817 H 0.68584 0.59007 0.35131
 H818 H 0.71620 0.57674 0.33419
 C819 C 0.68639 1.10213 0.81826
 C820 C 0.68450 1.10371 0.84114
 C821 C 0.67386 1.12225 0.85036
 C822 C 0.66494 1.13923 0.83694
 C823 C 0.66691 1.13684 0.81412
 N824 N 0.67736 1.11859 0.80549
 C825 C 0.69784 1.08300 0.80765
 N826 N 0.69200 1.07666 0.78708
 C827 C 0.70195 1.05943 0.77622
 C828 C 0.71912 1.04760 0.78599
 C829 C 0.72557 1.05403 0.80709
 C830 C 0.71499 1.07165 0.81797
 H831 H 0.67254 1.12326 0.86802
 H832 H 0.66052 1.14968 0.80320
 H833 H 0.69657 1.05517 0.75989
 H834 H 0.73883 1.04548 0.81518
 H835 H 0.69091 1.09069 0.85184
 H836 H 0.72055 1.07659 0.83405
 C837 C 0.18582 0.59856 0.81298
 C838 C 0.18294 0.59905 0.83582
 C839 C 0.17241 0.61746 0.84545
 C840 C 0.16474 0.63542 0.83244
 C841 C 0.16740 0.63397 0.80962
 N842 N 0.17772 0.61585 0.80060
 C843 C 0.19762 0.57990 0.80200
 N844 N 0.19274 0.57470 0.78086
 C845 C 0.20337 0.55823 0.76954
 C846 C 0.22033 0.54616 0.77939
 C847 C 0.22573 0.55137 0.80111
 C848 C 0.21442 0.56814 0.81247
 H849 H 0.17033 0.61780 0.86307
 H850 H 0.16175 0.64748 0.79903
 H851 H 0.19878 0.55487 0.75276
 H852 H 0.23876 0.54256 0.80931
 H853 H 0.18860 0.58533 0.84617
 H854 H 0.21922 0.57222 0.82903
 C855 C 0.18886 1.10337 0.31397
 C856 C 0.20028 1.11979 0.32587
 C857 C 0.18928 1.13809 0.33507
 C858 C 0.16687 1.14031 0.33241
 C859 C 0.15600 1.12324 0.32076
 N860 N 0.16713 1.10562 0.31176
 C861 C 0.20007 1.08430 0.30301
 N862 N 0.19166 1.07552 0.28426
 C863 C 0.20161 1.05863 0.27287
 C864 C 0.22125 1.04957 0.28027
 C865 C 0.22988 1.05799 0.29986
 C866 C 0.21937 1.07526 0.31126
 H867 H 0.19849 1.15074 0.34378
 H868 H 0.13870 1.12401 0.31865
 H869 H 0.19426 1.05248 0.25795
 H870 H 0.24487 1.05137 0.30633
 H871 H 0.21762 1.11899 0.32752
 H872 H 0.22627 1.08130 0.32643
 C873 C 0.68611 0.39232 0.68878
 C874 C 0.67505 0.37554 0.70078
 C875 C 0.66475 0.35793 0.68973
 C876 C 0.66534 0.35692 0.66676
 C877 C 0.67720 0.37360 0.65542
 N878 N 0.68709 0.39064 0.66655
 C879 C 0.69677 0.41174 0.69967
 N880 N 0.71379 0.42210 0.68960
 C881 C 0.72422 0.44012 0.69861
 C882 C 0.71748 0.44890 0.71889
 C883 C 0.69976 0.43868 0.72936
 C884 C 0.68938 0.42019 0.71984
 H885 H 0.65635 0.34503 0.69913
 H886 H 0.67828 0.37339 0.63774
 H887 H 0.73773 0.44757 0.68991
 H888 H 0.69388 0.44495 0.74494
 H889 H 0.67453 0.37574 0.71850
 H890 H 0.67550 0.41297 0.72807
 C891 C 0.69074 -0.10338 0.18294
 C892 C 0.69046 -0.10542 0.16000
 C893 C 0.67927 -0.12334 0.15037
 C894 C 0.66818 -0.13917 0.16344
 C895 C 0.66877 -0.13646 0.18630
 N896 N 0.67978 -0.11886 0.19532
 C897 C 0.70238 -0.08474 0.19406
 N898 N 0.69577 -0.07811 0.21437
 C899 C 0.70579 -0.06127 0.22567
 C900 C 0.72378 -0.05014 0.21664
 C901 C 0.73100 -0.05688 0.19582
 C902 C 0.72040 -0.07412 0.18452
 H903 H 0.67907 -0.12464 0.13269
 H904 H 0.66066 -0.14846 0.19697
 H905 H 0.69976 -0.05674 0.24174
 H906 H 0.74492 -0.04891 0.18827
 H907 H 0.69842 -0.09316 0.14951
 H908 H 0.72662 -0.07931 0.16872
 C909 C 0.18502 0.39729 0.19072
 C910 C 0.16240 0.39617 0.19046
 C911 C 0.15221 0.37897 0.17871
 C912 C 0.16442 0.36290 0.16707
 C913 C 0.18701 0.36459 0.16782
 N914 N 0.19657 0.38155 0.17932
 C915 C 0.19668 0.41540 0.20258
 N916 N 0.21670 0.42160 0.19554
 C917 C 0.22836 0.43814 0.20554
 C918 C 0.21999 0.44944 0.22394
 C919 C 0.19952 0.44307 0.23168
 C920 C 0.18784 0.42611 0.22109
 H921 H 0.13478 0.37848 0.17846
 H922 H 0.19705 0.35237 0.15938
 H923 H 0.24415 0.44238 0.19912
 H924 H 0.19249 0.45121 0.24591
 H925 H 0.15259 0.40868 0.19878
 H926 H 0.17227 0.42126 0.22763
 C927 C 0.18226 -0.09760 0.68261
 C928 C 0.15968 -0.09908 0.68132
 C929 C 0.15027 -0.11770 0.67098
 C930 C 0.16323 -0.13483 0.66192
 C931 C 0.18571 -0.13238 0.66298
 N932 N 0.19453 -0.11411 0.67317
 C933 C 0.19315 -0.07878 0.69417
 N934 N 0.21361 -0.07303 0.68817
 C935 C 0.22494 -0.05651 0.69856
 C936 C 0.21585 -0.04493 0.71644
 C937 C 0.19481 -0.05065 0.72296
 C938 C 0.18342 -0.06749 0.71188
 H939 H 0.13287 -0.11886 0.67014
 H940 H 0.19623 -0.14526 0.65619
 H941 H 0.24117 -0.05274 0.69307
 H942 H 0.18721 -0.04224 0.73673
 H943 H 0.14936 -0.08600 0.68805
 H944 H 0.16745 -0.07200 0.71760
 C945 C 0.31807 0.30685 0.39939
 C946 C 0.32710 0.29372 0.38250
 C947 C 0.33747 0.30447 0.36502
 C948 C 0.33897 0.32825 0.36431
 C949 C 0.32973 0.34076 0.38151
 N950 N 0.31953 0.32992 0.39830
 C951 C 0.30627 0.29631 0.41789
 N952 N 0.29001 0.30811 0.42769
 C953 C 0.27814 0.29928 0.44445
 C954 C 0.28249 0.27732 0.45237
 C955 C 0.29951 0.26508 0.44282
 C956 C 0.31141 0.27448 0.42562
 H957 H 0.34401 0.29426 0.35185
 H958 H 0.33060 0.35913 0.38153
 H959 H 0.26529 0.30938 0.45147
 H960 H 0.30352 0.24814 0.44850
 H961 H 0.32568 0.27539 0.38241
 H962 H 0.32459 0.26481 0.41867
 C963 C 0.31445 0.81262 -0.09770
 C964 C 0.33691 0.81554 -0.09845
 C965 C 0.34634 0.82605 -0.11663
 C966 C 0.33351 0.83358 -0.13412
 C967 C 0.31108 0.83071 -0.13252
 N968 N 0.30225 0.82051 -0.11460
 C969 C 0.30363 0.80113 -0.07911
 N970 N 0.28299 0.80700 -0.07399
 C971 C 0.27177 0.79665 -0.05759
 C972 C 0.28118 0.77891 -0.04550
 C973 C 0.30241 0.77249 -0.05059
 C974 C 0.31370 0.78359 -0.06729
 H975 H 0.36366 0.82827 -0.11709
 H976 H 0.30062 0.83616 -0.14569
 H977 H 0.25538 0.80201 -0.05432
 H978 H 0.31024 0.75882 -0.04173
 H979 H 0.34708 0.81003 -0.08507
 H980 H 0.32988 0.77803 -0.07126
 C981 C 0.81707 0.32017 -0.09639
 C982 C 0.81940 0.34388 -0.09795
 C983 C 0.82969 0.35331 -0.11619
 C984 C 0.83771 0.33924 -0.13283
 C985 C 0.83558 0.31562 -0.13037
 N986 N 0.82545 0.30681 -0.11248
 C987 C 0.80544 0.30928 -0.07795
 N988 N 0.81037 0.28745 -0.07238
 C989 C 0.79976 0.27605 -0.05620
 C990 C 0.78277 0.28654 -0.04480
 C991 C 0.77740 0.30901 -0.05032
 C992 C 0.78867 0.32042 -0.06681
 H993 H 0.83136 0.37159 -0.11739
 H994 H 0.84154 0.30423 -0.14290
 H995 H 0.80434 0.25870 -0.05255
 H996 H 0.76434 0.31773 -0.04203
 H997 H 0.81352 0.35506 -0.08521
 H998 H 0.78379 0.33750 -0.07116
 C999 C 0.81791 0.80735 0.40110
 C1000 C 0.82639 0.79418 0.38395
 C1001 C 0.83602 0.80490 0.36600
 C1002 C 0.83731 0.82870 0.36506
 C1003 C 0.82866 0.84124 0.38255
 N1004 N 0.81919 0.83042 0.39979
 C1005 C 0.80668 0.79689 0.42004
 N1006 N 0.79101 0.80896 0.43049
 C1007 C 0.77953 0.80028 0.44759
 C1008 C 0.78363 0.77815 0.45520
 C1009 C 0.80010 0.76561 0.44503
 C1010 C 0.81164 0.77489 0.42748
 H1011 H 0.84208 0.79463 0.35265
 H1012 H 0.82939 0.85961 0.38245
 H1013 H 0.76712 0.81063 0.45508
 H1014 H 0.80391 0.74853 0.45045
 H1015 H 0.82508 0.77585 0.38400
 H1016 H 0.82437 0.76497 0.42001
 C1017 C 0.68403 0.30997 0.59985
 C1018 C 0.66940 0.32792 0.59693
 C1019 C 0.65910 0.33728 0.61519
 C1020 C 0.66384 0.32910 0.63619
 C1021 C 0.67863 0.31128 0.63846
 N1022 N 0.68808 0.30205 0.62042
 C1023 C 0.69510 0.29944 0.58107
 N1024 N 0.69662 0.27639 0.58006
 C1025 C 0.70702 0.26568 0.56337
 C1026 C 0.71722 0.27838 0.54683
 C1027 C 0.71608 0.30215 0.54770
 C1028 C 0.70476 0.31275 0.56465
 H1029 H 0.64772 0.35106 0.61308
 H1030 H 0.68251 0.30468 0.65454
 H1031 H 0.70777 0.24730 0.56332
 H1032 H 0.72379 0.31248 0.53521
 H1033 H 0.66577 0.33437 0.58071
 H1034 H 0.70402 0.33113 0.56525
 C1035 C 0.68681 0.80734 1.10132
 C1036 C 0.69169 0.80117 1.12298
 C1037 C 0.68192 0.81279 1.14026
 C1038 C 0.66693 0.82999 1.13591
 C1039 C 0.66232 0.83555 1.11410
 N1040 N 0.67247 0.82442 1.09748
 C1041 C 0.69736 0.79590 1.08273
 N1042 N 0.70605 0.80856 1.06620
 C1043 C 0.71662 0.79889 1.04901
 C1044 C 0.71847 0.77517 1.04764
 C1045 C 0.70915 0.76182 1.06422
 C1046 C 0.69881 0.77214 1.08193
 H1047 H 0.68583 0.80833 1.15702
 H1048 H 0.65092 0.84893 1.11036
 H1049 H 0.72349 0.80970 1.03641
 H1050 H 0.71033 0.74346 1.06375
 H1051 H 0.70326 0.78786 1.12646
 H1052 H 0.69188 0.76170 1.09480
 C1053 C 0.18304 0.31934 1.09683
 C1054 C 0.18290 0.34289 1.10063
 C1055 C 0.17298 0.35136 1.11949
 C1056 C 0.16323 0.33652 1.13461
 C1057 C 0.16298 0.31321 1.12973
 N1058 N 0.17282 0.30535 1.11132
 C1059 C 0.19415 0.30905 1.07775
 N1060 N 0.18823 0.28782 1.07132
 C1061 C 0.19830 0.27665 1.05471
 C1062 C 0.21574 0.28674 1.04366
 C1063 C 0.22211 0.30865 1.04995
 C1064 C 0.21139 0.31984 1.06694
 H1065 H 0.17299 0.36951 1.12237
 H1066 H 0.15550 0.30114 1.14076
 H1067 H 0.19287 0.25976 1.05047
 H1068 H 0.23557 0.31702 1.04196
 H1069 H 0.19017 0.35472 1.08920
 H1070 H 0.21710 0.33640 1.07190
 C1071 C 0.18265 0.81753 0.59538
 C1072 C 0.17928 0.84109 0.59683
 C1073 C 0.16928 0.85009 0.61538
 C1074 C 0.16254 0.83574 0.63247
 C1075 C 0.16552 0.81223 0.63007
 N1076 N 0.17540 0.80384 0.61187
 C1077 C 0.19427 0.80719 0.57666
 N1078 N 0.19025 0.78513 0.57136
 C1079 C 0.20093 0.77430 0.55491
 C1080 C 0.21706 0.78565 0.54294
 C1081 C 0.22152 0.80836 0.54819
 C1082 C 0.21019 0.81918 0.56496
 H1083 H 0.16693 0.86829 0.61651
 H1084 H 0.16056 0.80062 0.64291
 H1085 H 0.19708 0.75673 0.55150
 H1086 H 0.23390 0.81774 0.53948
 H1087 H 0.18421 0.85250 0.58381
 H1088 H 0.21437 0.83649 0.56907
 C1089 C 0.31737 0.69545 0.59902
 C1090 C 0.32516 0.70839 0.61659
 C1091 C 0.33414 0.69744 0.63469
 C1092 C 0.33552 0.67364 0.63535
 C1093 C 0.32752 0.66132 0.61746
 N1094 N 0.31866 0.67236 0.60008
 C1095 C 0.30691 0.70617 0.57984
 N1096 N 0.29148 0.69438 0.56886
 C1097 C 0.28067 0.70337 0.55152
 C1098 C 0.28524 0.72552 0.54423
 C1099 C 0.30150 0.73774 0.55494
 C1100 C 0.31234 0.72816 0.57272
 H1101 H 0.33970 0.70754 0.64835
 H1102 H 0.32833 0.64296 0.61733
 H1103 H 0.26839 0.69326 0.54362
 H1104 H 0.30564 0.75483 0.54978
 H1105 H 0.32380 0.72672 0.61672
 H1106 H 0.32491 0.73785 0.58063
 C1107 C 0.31637 0.19513 1.09902
 C1108 C 0.32709 0.20795 1.11502
 C1109 C 0.33712 0.19689 1.13249
 C1110 C 0.33667 0.17309 1.13406
 C1111 C 0.32545 0.16094 1.11795
 N1112 N 0.31572 0.17209 1.10113
 C1113 C 0.30509 0.20592 1.08033
 N1114 N 0.28834 0.19472 1.07088
 C1115 C 0.27701 0.20358 1.05384
 C1116 C 0.28243 0.22498 1.04519
 C1117 C 0.29994 0.23663 1.05436
 C1118 C 0.31129 0.22719 1.07189
 H1119 H 0.34503 0.20692 1.14495
 H1120 H 0.32458 0.14259 1.11862
 H1121 H 0.26373 0.19393 1.04718
 H1122 H 0.30477 0.25312 1.04812
 H1123 H 0.32734 0.22633 1.11442
 H1124 H 0.32490 0.23637 1.07848
 C1125 C 0.82063 0.68816 1.10138
 C1126 C 0.82920 0.70138 1.11838
 C1127 C 0.83834 0.69071 1.13655
 C1128 C 0.83909 0.66691 1.13785
 C1129 C 0.83040 0.65431 1.12050
 N1130 N 0.82139 0.66508 1.10304
 C1131 C 0.80979 0.69858 1.08227
 N1132 N 0.79396 0.68673 1.07196
 C1133 C 0.78273 0.69546 1.05479
 C1134 C 0.78724 0.71743 1.04698
 C1135 C 0.80391 0.72972 1.05697
 C1136 C 0.81520 0.72038 1.07457
 H1137 H 0.84446 0.70103 1.14980
 H1138 H 0.83070 0.63592 1.12089
 H1139 H 0.77015 0.68531 1.04745
 H1140 H 0.80803 0.74666 1.05138
 H1141 H 0.82828 0.71974 1.11806
 H1142 H 0.82807 0.73011 1.08192
 C1143 C 0.81496 0.18213 0.59933
 C1144 C 0.81743 0.15849 0.60144
 C1145 C 0.82751 0.14956 0.61998
 C1146 C 0.83516 0.16407 0.63640
 C1147 C 0.83279 0.18761 0.63345
 N1148 N 0.82292 0.19592 0.61526
 C1149 C 0.80385 0.19257 0.58039
 N1150 N 0.80889 0.21428 0.57454
 C1151 C 0.79880 0.22531 0.55785
 C1152 C 0.78226 0.21454 0.54618
 C1153 C 0.77676 0.19217 0.55196
 C1154 C 0.78751 0.18113 0.56899
 H1155 H 0.82937 0.13133 0.62155
 H1156 H 0.83844 0.19934 0.64578
 H1157 H 0.80346 0.24260 0.55403
 H1158 H 0.76401 0.18327 0.54347
 H1159 H 0.81189 0.14698 0.58888
 H1160 H 0.78257 0.16412 0.57352
 C1161 C 0.68269 0.68763 0.40301
 C1162 C 0.66562 0.67227 0.40603
 C1163 C 0.65519 0.66333 0.38773
 C1164 C 0.66220 0.66925 0.36665
 C1165 C 0.67947 0.68438 0.36430
 N1166 N 0.68900 0.69336 0.38232
 C1167 C 0.69365 0.69812 0.42176
 N1168 N 0.69750 0.72087 0.42142
 C1169 C 0.70784 0.73158 0.43804
 C1170 C 0.71555 0.71910 0.45600
 C1171 C 0.71203 0.69556 0.45657
 C1172 C 0.70078 0.68504 0.43959
 H1173 H 0.64186 0.65166 0.38990
 H1174 H 0.68511 0.68922 0.34815
 H1175 H 0.71048 0.74974 0.43698
 H1176 H 0.71780 0.68543 0.47019
 H1177 H 0.66018 0.66765 0.42233
 H1178 H 0.69812 0.66686 0.44010
 C1179 C 0.68529 0.18906 -0.09904
 C1180 C 0.66845 0.17353 -0.09556
 C1181 C 0.65813 0.16390 -0.11358
 C1182 C 0.66505 0.16929 -0.13482
 C1183 C 0.68208 0.18465 -0.13762
 N1184 N 0.69150 0.19431 -0.11987
 C1185 C 0.69621 0.20002 -0.08055
 N1186 N 0.69891 0.22297 -0.08073
 C1187 C 0.70912 0.23403 -0.06422
 C1188 C 0.71786 0.22175 -0.04664
 C1189 C 0.71554 0.19806 -0.04629
 C1190 C 0.70441 0.18714 -0.06309
 H1191 H 0.64498 0.15207 -0.11107
 H1192 H 0.68763 0.18910 -0.15391
 H1193 H 0.71081 0.25233 -0.06508
 H1194 H 0.72210 0.18808 -0.03293
 H1195 H 0.66314 0.16926 -0.07913
 H1196 H 0.70264 0.16883 -0.06274
 C1197 C 0.18253 0.68452 -0.10070
 C1198 C 0.16000 0.68305 -0.10254
 C1199 C 0.15096 0.67310 -0.12110
 C1200 C 0.16427 0.66465 -0.13784
 C1201 C 0.18670 0.66606 -0.13517
 N1202 N 0.19513 0.67577 -0.11693
 C1203 C 0.19304 0.69531 -0.08166
 N1204 N 0.21326 0.68853 -0.07597
 C1205 C 0.22425 0.69813 -0.05913
 C1206 C 0.21504 0.71600 -0.04710
 C1207 C 0.19425 0.72334 -0.05275
 C1208 C 0.18319 0.71303 -0.06994
 H1209 H 0.13359 0.67200 -0.12245
 H1210 H 0.19750 0.65982 -0.14776
 H1211 H 0.24031 0.69204 -0.05543
 H1212 H 0.18658 0.73715 -0.04397
 H1213 H 0.14943 0.68925 -0.08973
 H1214 H 0.16739 0.71935 -0.07432
 C1215 C 0.18120 0.19021 0.39774
 C1216 C 0.16570 0.17302 0.40009
 C1217 C 0.15699 0.16301 0.38137
 C1218 C 0.16330 0.17066 0.36057
 C1219 C 0.17826 0.18839 0.35894
 N1220 N 0.18708 0.19735 0.37734
 C1221 C 0.19202 0.19992 0.41693
 N1222 N 0.21394 0.19982 0.41773
 C1223 C 0.22493 0.20880 0.43486
 C1224 C 0.21376 0.21925 0.45212
 C1225 C 0.19116 0.21976 0.45152
 C1226 C 0.18019 0.20974 0.43407
 H1227 H 0.14550 0.14925 0.38300
 H1228 H 0.18344 0.19449 0.34302
 H1229 H 0.24238 0.20835 0.43471
 H1230 H 0.18206 0.22776 0.46458
 H1231 H 0.16096 0.16695 0.41618
 H1232 H 0.16274 0.21013 0.43367
 C1233 C 0.31881 0.39818 0.68244
 C1234 C 0.34134 0.39635 0.68066
 C1235 C 0.35039 0.37734 0.67054
 C1236 C 0.33709 0.36015 0.66222
 C1237 C 0.31466 0.36282 0.66401
 N1238 N 0.30621 0.38150 0.67389
 C1239 C 0.30826 0.41768 0.69338
 N1240 N 0.28780 0.42344 0.68751
 C1241 C 0.27675 0.44057 0.69738
 C1242 C 0.28616 0.45280 0.71460
 C1243 C 0.30722 0.44713 0.72094
 C1244 C 0.31833 0.42966 0.71038
 H1245 H 0.36775 0.37604 0.66910
 H1246 H 0.30387 0.34991 0.65782
 H1247 H 0.26049 0.44428 0.69206
 H1248 H 0.31506 0.45604 0.73422
 H1249 H 0.35190 0.40953 0.68669
 H1250 H 0.33432 0.42521 0.71598
 C1251 C 0.31695 0.90092 0.18138
 C1252 C 0.33939 0.89971 0.17834
 C1253 C 0.34843 0.88053 0.16854
 C1254 C 0.33524 0.86252 0.16178
 C1255 C 0.31284 0.86464 0.16464
 N1256 N 0.30440 0.88350 0.17421
 C1257 C 0.30656 0.92044 0.19243
 N1258 N 0.28583 0.92587 0.18731
 C1259 C 0.27499 0.94302 0.19742
 C1260 C 0.28492 0.95557 0.21411
 C1261 C 0.30626 0.95021 0.21969
 C1262 C 0.31714 0.93275 0.20887
 H1263 H 0.36573 0.87968 0.16628
 H1264 H 0.30213 0.85110 0.15970
 H1265 H 0.25850 0.94648 0.19272
 H1266 H 0.31451 0.95939 0.23253
 H1267 H 0.34986 0.91346 0.18329
 H1268 H 0.33340 0.92856 0.21386
 C1269 C 0.81430 0.40073 0.18884
 C1270 C 0.83686 0.39997 0.18680
 C1271 C 0.84655 0.38176 0.17596
 C1272 C 0.83387 0.36430 0.16720
 C1273 C 0.81137 0.36586 0.16935
 N1274 N 0.80228 0.38380 0.17989
 C1275 C 0.80317 0.41947 0.20035
 N1276 N 0.78269 0.42507 0.19438
 C1277 C 0.77131 0.44178 0.20455
 C1278 C 0.78041 0.45374 0.22211
 C1279 C 0.80142 0.44809 0.22865
 C1280 C 0.81285 0.43105 0.21782
 H1281 H 0.86394 0.38133 0.17428
 H1282 H 0.80105 0.35271 0.16284
 H1283 H 0.75510 0.44549 0.19907
 H1284 H 0.80904 0.45680 0.24218
 H1285 H 0.84694 0.41341 0.19315
 H1286 H 0.82884 0.42668 0.22347
 C1287 C 0.81086 0.89473 0.68914
 C1288 C 0.79939 0.87649 0.68008
 C1289 C 0.81056 0.85902 0.66968
 C1290 C 0.83314 0.85961 0.66820
 C1291 C 0.84405 0.87792 0.67782
 N1292 N 0.83280 0.89477 0.68796
 C1293 C 0.79964 0.91374 0.70013
 N1294 N 0.80959 0.92482 0.71684
 C1295 C 0.80002 0.94226 0.72779
 C1296 C 0.77927 0.94962 0.72191
 C1297 C 0.76894 0.93872 0.70443
 C1298 C 0.77902 0.92082 0.69354
 H1299 H 0.80160 0.84496 0.66282
 H1300 H 0.86145 0.87896 0.67699
 H1301 H 0.80863 0.95033 0.74105
 H1302 H 0.75299 0.94391 0.69924
 H1303 H 0.78200 0.87549 0.68127
 H1304 H 0.77084 0.91287 0.67994
 C1305 C 0.68188 0.59954 0.68027
 C1306 C 0.69332 0.61590 0.66817
 C1307 C 0.68243 0.63442 0.65925
 C1308 C 0.66008 0.63697 0.66239
 C1309 C 0.64919 0.62000 0.67437
 N1310 N 0.66022 0.60212 0.68306
 C1311 C 0.69303 0.58015 0.69084
 N1312 N 0.68488 0.57127 0.70977
 C1313 C 0.69497 0.55427 0.72092
 C1314 C 0.71453 0.54528 0.71311
 C1315 C 0.72280 0.55371 0.69325
 C1316 C 0.71211 0.57103 0.68207
 H1317 H 0.69170 0.64692 0.65025
 H1318 H 0.63194 0.62095 0.67686
 H1319 H 0.68790 0.54811 0.73606
 H1320 H 0.73769 0.54713 0.68646
 H1321 H 0.71062 0.61486 0.66609
 H1322 H 0.71877 0.57712 0.66673
 C1323 C 0.68695 0.09821 0.18447
 C1324 C 0.66439 0.09869 0.18267
 C1325 C 0.65441 0.11710 0.17245
 C1326 C 0.66679 0.13498 0.16384
 C1327 C 0.68932 0.13367 0.16561
 N1328 N 0.69871 0.11556 0.17569
 C1329 C 0.69827 0.07948 0.19587
 N1330 N 0.71886 0.07422 0.18991
 C1331 C 0.73034 0.05755 0.20006
 C1332 C 0.72123 0.04528 0.21756
 C1333 C 0.70010 0.05057 0.22406
 C1334 C 0.68858 0.06758 0.21329
 H1335 H 0.63700 0.11738 0.17124
 H1336 H 0.69941 0.14726 0.15942
 H1337 H 0.74665 0.05413 0.19463
 H1338 H 0.69247 0.04164 0.23756
 H1339 H 0.65450 0.08496 0.18890
 H1340 H 0.67251 0.07169 0.21897
 C1341 C 0.18482 0.59579 0.18647
 C1342 C 0.18142 0.59570 0.16372
 C1343 C 0.17107 0.61408 0.15382
 C1344 C 0.16407 0.63253 0.16648
 C1345 C 0.16721 0.63167 0.18924
 N1346 N 0.17737 0.61359 0.19853
 C1347 C 0.19661 0.57729 0.19768
 N1348 N 0.19233 0.57288 0.21919
 C1349 C 0.20311 0.55666 0.23070
 C1350 C 0.21958 0.54403 0.22064
 C1351 C 0.22433 0.54841 0.19852
 C1352 C 0.21290 0.56494 0.18700
 H1353 H 0.16860 0.61400 0.13626
 H1354 H 0.16206 0.64559 0.19955
 H1355 H 0.19902 0.55391 0.24777
 H1356 H 0.23697 0.53914 0.19012
 H1357 H 0.18655 0.58158 0.15365
 H1358 H 0.21725 0.56839 0.17013
 C1359 C 0.18589 0.10534 0.68608
 C1360 C 0.19695 0.12408 0.67724
 C1361 C 0.18539 0.14154 0.66721
 C1362 C 0.16284 0.14041 0.66584
 C1363 C 0.15235 0.12151 0.67511
 N1364 N 0.16396 0.10473 0.68494
 C1365 C 0.19751 0.08644 0.69685
 N1366 N 0.18782 0.07490 0.71357
 C1367 C 0.19775 0.05749 0.72428
 C1368 C 0.21859 0.05064 0.71810
 C1369 C 0.22867 0.06207 0.70063
 C1370 C 0.21824 0.07994 0.69002
 H1371 H 0.19404 0.15605 0.66070
 H1372 H 0.13498 0.12005 0.67439
 H1373 H 0.18932 0.04900 0.73754
 H1374 H 0.24469 0.05728 0.69523
 H1375 H 0.21430 0.12551 0.67841
 H1376 H 0.22623 0.08830 0.67642
 C1377 C 0.31718 0.60150 0.31467
 C1378 C 0.33216 0.59822 0.33158
 C1379 C 0.34228 0.61705 0.34088
 C1380 C 0.33703 0.63895 0.33368
 C1381 C 0.32183 0.64156 0.31695
 N1382 N 0.31257 0.62298 0.30774
 C1383 C 0.30638 0.58212 0.30417
 N1384 N 0.30458 0.58163 0.28195
 C1385 C 0.29445 0.56438 0.27136
 C1386 C 0.28482 0.54669 0.28336
 C1387 C 0.28628 0.54701 0.30629
 C1388 C 0.29731 0.56455 0.31675
 H1389 H 0.35403 0.61466 0.35376
 H1390 H 0.31760 0.65835 0.31107
 H1391 H 0.29345 0.56477 0.25366
 H1392 H 0.27902 0.53364 0.31606
 H1393 H 0.33624 0.58130 0.33723
 H1394 H 0.29828 0.56471 0.33447
 C1395 C 0.31524 0.09977 0.81519
 C1396 C 0.33069 0.09543 0.83143
 C1397 C 0.34102 0.11364 0.84157
 C1398 C 0.33548 0.13595 0.83593
 C1399 C 0.31985 0.13960 0.81980
 N1400 N 0.31039 0.12163 0.80972
 C1401 C 0.30421 0.08110 0.80384
 N1402 N 0.30253 0.08167 0.78161
 C1403 C 0.29213 0.06515 0.77026
 C1404 C 0.28209 0.04717 0.78146
 C1405 C 0.28341 0.04639 0.80438
 C1406 C 0.29475 0.06317 0.81563
 H1407 H 0.35312 0.11044 0.85396
 H1408 H 0.31539 0.15672 0.81512
 H1409 H 0.29124 0.06637 0.75258
 H1410 H 0.27582 0.03274 0.81352
 H1411 H 0.33492 0.07817 0.83591
 H1412 H 0.29566 0.06251 0.83334
 C1413 C 0.80974 0.60561 0.80877
 C1414 C 0.79863 0.62386 0.81839
 C1415 C 0.81016 0.64102 0.82879
 C1416 C 0.83274 0.64013 0.82967
 C1417 C 0.84329 0.62185 0.81949
 N1418 N 0.83170 0.60530 0.80940
 C1419 C 0.79815 0.58677 0.79794
 N1420 N 0.80786 0.57539 0.78119
 C1421 C 0.79809 0.55788 0.77061
 C1422 C 0.77739 0.55071 0.77698
 C1423 C 0.76725 0.56201 0.79443
 C1424 C 0.77753 0.57999 0.80490
 H1425 H 0.80147 0.65505 0.83611
 H1426 H 0.86069 0.62058 0.81986
 H1427 H 0.80656 0.54952 0.75736
 H1428 H 0.75135 0.55698 0.79999
 H1429 H 0.78124 0.62510 0.81766
 H1430 H 0.76952 0.58814 0.81856
 C1431 C 0.81906 0.09980 0.31349
 C1432 C 0.84160 0.10098 0.31544
 C1433 C 0.85097 0.11956 0.32588
 C1434 C 0.83799 0.13697 0.33438
 C1435 C 0.81552 0.13496 0.33244
 N1436 N 0.80675 0.11668 0.32223
 C1437 C 0.80828 0.08077 0.30216
 N1438 N 0.78777 0.07503 0.30802
 C1439 C 0.77669 0.05811 0.29792
 C1440 C 0.78614 0.04607 0.28053
 C1441 C 0.80721 0.05183 0.27413
 C1442 C 0.81832 0.06908 0.28488
 H1443 H 0.86834 0.12034 0.32743
 H1444 H 0.80498 0.14806 0.33878
 H1445 H 0.76042 0.05433 0.30328
 H1446 H 0.81510 0.04307 0.26073
 H1447 H 0.85192 0.08760 0.30927
 H1448 H 0.83434 0.07353 0.27929
 C1449 C 0.68088 0.39979 0.31612
 C1450 C 0.65833 0.39830 0.31788
 C1451 C 0.64904 0.37954 0.32832
 C1452 C 0.66211 0.36225 0.33695
 C1453 C 0.68457 0.36455 0.33511
 N1454 N 0.69325 0.38300 0.32496
 C1455 C 0.69171 0.41909 0.30506
 N1456 N 0.71213 0.42465 0.31114
 C1457 C 0.72341 0.44168 0.30131
 C1458 C 0.71429 0.45407 0.28396
 C1459 C 0.69328 0.44856 0.27734
 C1460 C 0.68193 0.43116 0.28786
 H1461 H 0.63166 0.37852 0.32974
 H1462 H 0.69520 0.35154 0.34149
 H1463 H 0.73962 0.44525 0.30685
 H1464 H 0.68566 0.45760 0.26396
 H1465 H 0.64795 0.41158 0.31160
 H1466 H 0.66596 0.42687 0.28213
 C1467 C 0.68480 0.89699 0.81972
 C1468 C 0.68317 0.89514 0.84263
 C1469 C 0.67293 0.87631 0.85190
 C1470 C 0.66415 0.85938 0.83849
 C1471 C 0.66588 0.86201 0.81567
 N1472 N 0.67594 0.88050 0.80699
 C1473 C 0.69600 0.91629 0.80904
 N1474 N 0.69011 0.92263 0.78842
 C1475 C 0.70012 0.93979 0.77738
 C1476 C 0.71742 0.95144 0.78698
 C1477 C 0.72380 0.94510 0.80818
 C1478 C 0.71315 0.92762 0.81925
 H1479 H 0.67178 0.87504 0.86956
 H1480 H 0.65956 0.84918 0.80478
 H1481 H 0.69479 0.94400 0.76099
 H1482 H 0.73715 0.95352 0.81616
 H1483 H 0.68948 0.90815 0.85332
 H1484 H 0.71876 0.92268 0.83535
 C1485 C 0.19028 0.39473 0.80901
 C1486 C 0.20131 0.37671 0.81915
 C1487 C 0.18965 0.35912 0.82893
 C1488 C 0.16702 0.35944 0.82882
 C1489 C 0.15662 0.37744 0.81798
 N1490 N 0.16833 0.39438 0.80850
 C1491 C 0.20189 0.41388 0.79852
 N1492 N 0.19242 0.42517 0.78157
 C1493 C 0.20219 0.44285 0.77110
 C1494 C 0.22267 0.45026 0.77772
 C1495 C 0.23253 0.43914 0.79544
 C1496 C 0.22223 0.42099 0.80585
 H1497 H 0.19829 0.34516 0.83648
 H1498 H 0.13921 0.37820 0.81733
 H1499 H 0.19394 0.45104 0.75762
 H1500 H 0.24826 0.44436 0.80119
 H1501 H 0.21874 0.37591 0.81922
 H1502 H 0.23003 0.41292 0.81967
 C1503 C 0.18506 0.90217 0.31049
 C1504 C 0.16254 0.90214 0.31309
 C1505 C 0.15255 0.88394 0.32372
 C1506 C 0.16487 0.86575 0.33176
 C1507 C 0.18737 0.86666 0.32922
 N1508 N 0.19675 0.88459 0.31884
 C1509 C 0.19646 0.92076 0.29895
 N1510 N 0.21725 0.92546 0.30443
 C1511 C 0.22887 0.94201 0.29422
 C1512 C 0.21969 0.95476 0.27715
 C1513 C 0.19836 0.95002 0.27107
 C1514 C 0.18670 0.93311 0.28193
 H1515 H 0.13519 0.88401 0.32569
 H1516 H 0.19742 0.85293 0.33512
 H1517 H 0.24532 0.94501 0.29933
 H1518 H 0.19067 0.95937 0.25792
 H1519 H 0.15274 0.91610 0.30724
 H1520 H 0.17043 0.92945 0.27666
 C1521 C 0.40009 0.30763 0.68148
 C1522 C 0.39861 0.30864 0.65852
 C1523 C 0.38091 0.31934 0.64884
 C1524 C 0.36466 0.32896 0.66193
 C1525 C 0.36679 0.32759 0.68480
 N1526 N 0.38423 0.31724 0.69384
 C1527 C 0.41858 0.29686 0.69273
 N1528 N 0.42395 0.30418 0.71314
 C1529 C 0.44046 0.29492 0.72474
 C1530 C 0.45253 0.27690 0.71598
 C1531 C 0.44717 0.26893 0.69503
 C1532 C 0.43028 0.27888 0.68334
 H1533 H 0.38000 0.32035 0.63115
 H1534 H 0.35456 0.33465 0.69547
 H1535 H 0.44392 0.30148 0.74090
 H1536 H 0.45598 0.25498 0.68771
 H1537 H 0.41114 0.30175 0.64811
 H1538 H 0.42617 0.27217 0.66741
 C1539 C 0.40072 0.81302 0.18082
 C1540 C 0.39845 0.81344 0.15791
 C1541 C 0.38011 0.82326 0.14864
 C1542 C 0.36401 0.83262 0.16207
 C1543 C 0.36706 0.83218 0.18486
 N1544 N 0.38508 0.82258 0.19351
 C1545 C 0.41961 0.80255 0.19167
 N1546 N 0.42534 0.80998 0.21193
 C1547 C 0.44204 0.80077 0.22328
 C1548 C 0.45393 0.78265 0.21442
 C1549 C 0.44826 0.77464 0.19357
 C1550 C 0.43117 0.78455 0.18214
 H1551 H 0.37845 0.82358 0.13098
 H1552 H 0.35497 0.83914 0.19577
 H1553 H 0.44576 0.80739 0.23936
 H1554 H 0.45690 0.76062 0.18617
 H1555 H 0.41077 0.80659 0.14721
 H1556 H 0.42678 0.77771 0.16634
 C1557 C 0.89963 0.31413 0.18291
 C1558 C 0.89768 0.31640 0.16007
 C1559 C 0.87936 0.32672 0.15129
 C1560 C 0.86295 0.33474 0.16515
 C1561 C 0.86564 0.33234 0.18788
 N1562 N 0.88367 0.32233 0.19606
 C1563 C 0.91857 0.30318 0.19316
 N1564 N 0.92432 0.30940 0.21381
 C1565 C 0.94113 0.29963 0.22456
 C1566 C 0.95306 0.28216 0.21464
 C1567 C 0.94736 0.27541 0.19339
 C1568 C 0.93021 0.28589 0.18259
 H1569 H 0.87803 0.32860 0.13369
 H1570 H 0.85332 0.33821 0.19912
 H1571 H 0.94487 0.30524 0.24099
 H1572 H 0.95606 0.26193 0.18516
 H1573 H 0.91027 0.31066 0.14908
 H1574 H 0.92580 0.28003 0.16642
 C1575 C 0.90134 0.81259 0.68365
 C1576 C 0.89958 0.81515 0.66083
 C1577 C 0.88108 0.82504 0.65199
 C1578 C 0.86428 0.83234 0.66576
 C1579 C 0.86683 0.82973 0.68850
 N1580 N 0.88503 0.82014 0.69673
 C1581 C 0.92040 0.80193 0.69397
 N1582 N 0.92576 0.80800 0.71477
 C1583 C 0.94256 0.79839 0.72565
 C1584 C 0.95489 0.78122 0.71572
 C1585 C 0.94962 0.77465 0.69431
 C1586 C 0.93247 0.78499 0.68336
 H1587 H 0.87987 0.82707 0.63439
 H1588 H 0.85423 0.83499 0.69969
 H1589 H 0.94596 0.80386 0.74220
 H1590 H 0.95863 0.76138 0.68609
 H1591 H 0.91243 0.80990 0.64992
 H1592 H 0.92837 0.77926 0.66707
 C1593 C 0.59881 0.30985 0.31848
 C1594 C 0.60022 0.31119 0.34141
 C1595 C 0.61785 0.32208 0.35091
 C1596 C 0.63412 0.33152 0.33767
 C1597 C 0.63199 0.32992 0.31482
 N1598 N 0.61462 0.31939 0.30595
 C1599 C 0.58052 0.29868 0.30740
 N1600 N 0.57498 0.30584 0.28694
 C1601 C 0.55878 0.29607 0.27538
 C1602 C 0.54728 0.27763 0.28420
 C1603 C 0.55278 0.26985 0.30522
 C1604 C 0.56931 0.28037 0.31691
 H1605 H 0.61877 0.32326 0.36858
 H1606 H 0.64424 0.33684 0.30404
 H1607 H 0.55520 0.30250 0.25916
 H1608 H 0.54439 0.25559 0.31258
 H1609 H 0.58771 0.30432 0.35190
 H1610 H 0.57360 0.27382 0.33290
 C1611 C 0.59862 0.80927 0.82001
 C1612 C 0.61383 0.79553 0.83071
 C1613 C 0.63200 0.80540 0.84000
 C1614 C 0.63531 0.82900 0.83864
 C1615 C 0.61958 0.84217 0.82793
 N1616 N 0.60200 0.83211 0.81886
 C1617 C 0.57947 0.79932 0.80933
 N1618 N 0.57101 0.80967 0.79130
 C1619 C 0.55402 0.80080 0.78015
 C1620 C 0.54459 0.78027 0.78703
 C1621 C 0.55269 0.76972 0.80595
 C1622 C 0.57001 0.77918 0.81714
 H1623 H 0.64360 0.79441 0.84791
 H1624 H 0.62124 0.86043 0.82680
 H1625 H 0.54814 0.80962 0.76576
 H1626 H 0.54578 0.75401 0.81203
 H1627 H 0.61209 0.77725 0.83143
 H1628 H 0.57582 0.77080 0.83178
 C1629 C 0.10076 0.31223 0.80864
 C1630 C 0.12156 0.30559 0.80217
 C1631 C 0.13942 0.31589 0.81175
 C1632 C 0.13649 0.33226 0.82807
 C1633 C 0.11550 0.33864 0.83394
 N1634 N 0.09829 0.32870 0.82407
 C1635 C 0.08164 0.30124 0.79923
 N1636 N 0.06543 0.31419 0.79086
 C1637 C 0.04769 0.30476 0.78149
 C1638 C 0.04544 0.28105 0.78066
 C1639 C 0.06172 0.26745 0.78972
 C1640 C 0.07998 0.27749 0.79877
 H1641 H 0.15552 0.31072 0.80698
 H1642 H 0.11289 0.35135 0.84645
 H1643 H 0.03536 0.31575 0.77476
 H1644 H 0.06058 0.24909 0.78925
 H1645 H 0.12389 0.29263 0.78982
 H1646 H 0.09262 0.26686 0.80549
 C1647 C 0.09807 0.81740 0.31490
 C1648 C 0.09988 0.81959 0.33774
 C1649 C 0.11828 0.82953 0.34661
 C1650 C 0.13487 0.83731 0.33283
 C1651 C 0.13217 0.83540 0.31008
 N1652 N 0.11411 0.82562 0.30181
 C1653 C 0.07946 0.80599 0.30461
 N1654 N 0.07387 0.81177 0.28376
 C1655 C 0.05761 0.80123 0.27290
 C1656 C 0.04620 0.78338 0.28290
 C1657 C 0.05171 0.77715 0.30438
 C1658 C 0.06825 0.78841 0.31529
 H1659 H 0.11968 0.83105 0.36423
 H1660 H 0.14464 0.84117 0.29893
 H1661 H 0.05397 0.80648 0.25630
 H1662 H 0.04339 0.76340 0.31268
 H1663 H 0.08722 0.81383 0.34867
 H1664 H 0.07260 0.78284 0.33161
 C1665 C 0.59405 0.68576 0.68440
 C1666 C 0.59459 0.68376 0.66148
 C1667 C 0.61241 0.67379 0.65137
 C1668 C 0.62968 0.66568 0.66396
 C1669 C 0.62837 0.66771 0.68686
 N1670 N 0.61082 0.67749 0.69637
 C1671 C 0.57585 0.69691 0.69585
 N1672 N 0.57081 0.69044 0.71670
 C1673 C 0.55467 0.70044 0.72835
 C1674 C 0.54277 0.71840 0.71918
 C1675 C 0.54780 0.72541 0.69776
 C1676 C 0.56423 0.71471 0.68605
 H1677 H 0.61269 0.67238 0.63369
 H1678 H 0.64148 0.66193 0.69713
 H1679 H 0.55143 0.69464 0.74489
 H1680 H 0.53912 0.73927 0.69008
 H1681 H 0.58135 0.68961 0.65143
 H1682 H 0.56814 0.72080 0.66976
 C1683 C 0.60369 0.18521 0.18656
 C1684 C 0.62469 0.18999 0.19362
 C1685 C 0.64210 0.17932 0.18345
 C1686 C 0.63852 0.16447 0.16598
 C1687 C 0.61733 0.15999 0.15947
 N1688 N 0.60054 0.17021 0.16993
 C1689 C 0.58508 0.19651 0.19675
 N1690 N 0.56840 0.18383 0.20463
 C1691 C 0.55111 0.19350 0.21473
 C1692 C 0.54983 0.21721 0.21684
 C1693 C 0.56661 0.23056 0.20832
 C1694 C 0.58441 0.22023 0.19851
 H1695 H 0.65837 0.18300 0.18872
 H1696 H 0.61422 0.14848 0.14605
 H1697 H 0.53835 0.18272 0.22101
 H1698 H 0.56620 0.24890 0.20978
 H1699 H 0.62753 0.20177 0.20691
 H1700 H 0.59746 0.23063 0.19222
 C1701 C 0.10219 0.68635 0.18662
 C1702 C 0.11899 0.69903 0.17712
 C1703 C 0.13624 0.68781 0.16726
 C1704 C 0.13682 0.66399 0.16675
 C1705 C 0.11991 0.65191 0.17675
 N1706 N 0.10327 0.66324 0.18637
 C1707 C 0.08357 0.69756 0.19722
 N1708 N 0.07345 0.68708 0.21432
 C1709 C 0.05648 0.69671 0.22502
 C1710 C 0.04869 0.71809 0.21850
 C1711 C 0.05860 0.72891 0.20057
 C1712 C 0.07598 0.71874 0.18993
 H1713 H 0.14922 0.69770 0.16016
 H1714 H 0.11985 0.63352 0.17672
 H1715 H 0.04919 0.68770 0.23865
 H1716 H 0.05305 0.74535 0.19487
 H1717 H 0.11907 0.71741 0.17763
 H1718 H 0.08319 0.72730 0.17600
 C1719 C 0.09366 0.18555 0.68313
 C1720 C 0.09521 0.18312 0.66030
 C1721 C 0.11375 0.17357 0.65117
 C1722 C 0.13078 0.16651 0.66468
 C1723 C 0.12831 0.16865 0.68746
 N1724 N 0.11008 0.17797 0.69598
 C1725 C 0.07488 0.19650 0.69367
 N1726 N 0.06945 0.19034 0.71448
 C1727 C 0.05307 0.20046 0.72564
 C1728 C 0.04138 0.21831 0.71602
 C1729 C 0.04671 0.22496 0.69458
 C1730 C 0.06336 0.21405 0.68332
 H1731 H 0.11496 0.17189 0.63354
 H1732 H 0.14110 0.16351 0.69843
 H1733 H 0.04959 0.19492 0.74221
 H1734 H 0.03816 0.23873 0.68660
 H1735 H 0.08226 0.18842 0.64960
 H1736 H 0.06759 0.21985 0.66701
 C1737 C 0.40426 0.68663 0.31602
 C1738 C 0.40104 0.68713 0.33882
 C1739 C 0.38254 0.67731 0.34781
 C1740 C 0.36715 0.66703 0.33423
 C1741 C 0.37155 0.66590 0.31165
 N1742 N 0.38963 0.67569 0.30325
 C1743 C 0.42279 0.69806 0.30534
 N1744 N 0.42948 0.69073 0.28528
 C1745 C 0.44562 0.70113 0.27394
 C1746 C 0.45581 0.72043 0.28254
 C1747 C 0.44918 0.72828 0.30319
 C1748 C 0.43274 0.71717 0.31463
 H1749 H 0.38008 0.67793 0.36537
 H1750 H 0.36035 0.65792 0.30054
 H1751 H 0.45016 0.69455 0.25803
 H1752 H 0.45652 0.74317 0.31040
 H1753 H 0.41262 0.69495 0.34964
 H1754 H 0.42750 0.72401 0.33019
 C1755 C 0.40228 0.18429 0.81926
 C1756 C 0.39866 0.18551 0.84197
 C1757 C 0.38019 0.17558 0.85098
 C1758 C 0.36519 0.16453 0.83750
 C1759 C 0.36988 0.16303 0.81497
 N1760 N 0.38794 0.17284 0.80659
 C1761 C 0.42106 0.19521 0.80850
 N1762 N 0.42783 0.18725 0.78869
 C1763 C 0.44422 0.19707 0.77723
 C1764 C 0.45461 0.21643 0.78543
 C1765 C 0.44794 0.22490 0.80584
 C1766 C 0.43125 0.21437 0.81742
 H1767 H 0.37762 0.17651 0.86852
 H1768 H 0.35905 0.15448 0.80388
 H1769 H 0.44876 0.19002 0.76151
 H1770 H 0.45543 0.23987 0.81275
 H1771 H 0.41000 0.19377 0.85275
 H1772 H 0.42600 0.22169 0.83277
 C1773 C 0.90168 0.68586 0.81369
 C1774 C 0.90010 0.68287 0.83648
 C1775 C 0.88148 0.67331 0.84548
 C1776 C 0.86438 0.66674 0.83188
 C1777 C 0.86676 0.66970 0.80915
 N1778 N 0.88509 0.67899 0.80075
 C1779 C 0.92079 0.69647 0.80331
 N1780 N 0.92613 0.69068 0.78238
 C1781 C 0.94295 0.70041 0.77151
 C1782 C 0.95525 0.71744 0.78157
 C1783 C 0.95001 0.72368 0.80313
 C1784 C 0.93288 0.71320 0.81406
 H1785 H 0.88041 0.67096 0.86306
 H1786 H 0.85393 0.66498 0.79810
 H1787 H 0.94634 0.69523 0.75485
 H1788 H 0.95901 0.73681 0.81147
 H1789 H 0.91317 0.68758 0.84726
 H1790 H 0.92880 0.71872 0.83046
 C1791 C 0.90243 0.18786 0.31592
 C1792 C 0.90090 0.18622 0.33886
 C1793 C 0.88285 0.17593 0.34838
 C1794 C 0.86632 0.16729 0.33516
 C1795 C 0.86856 0.16915 0.31231
 N1796 N 0.88631 0.17914 0.30341
 C1797 C 0.92111 0.19862 0.30483
 N1798 N 0.92626 0.19205 0.28408
 C1799 C 0.94272 0.20165 0.27254
 C1800 C 0.95489 0.21932 0.28171
 C1801 C 0.94984 0.22638 0.30307
 C1802 C 0.93304 0.21607 0.31469
 H1803 H 0.88187 0.17448 0.36605
 H1804 H 0.85613 0.16281 0.30154
 H1805 H 0.94595 0.19579 0.25605
 H1806 H 0.95873 0.24003 0.31074
 H1807 H 0.91361 0.19240 0.34937
 H1808 H 0.92911 0.22221 0.33091
 C1809 C 0.31501 0.31271 0.59645
 C1810 C 0.31849 0.33626 0.59775
 C1811 C 0.32911 0.34522 0.61588
 C1812 C 0.33633 0.33085 0.63271
 C1813 C 0.33308 0.30736 0.63051
 N1814 N 0.32264 0.29901 0.61271
 C1815 C 0.30310 0.30234 0.57803
 N1816 N 0.30702 0.28024 0.57278
 C1817 C 0.29623 0.26939 0.55651
 C1818 C 0.28014 0.28079 0.54462
 C1819 C 0.27576 0.30354 0.54985
 C1820 C 0.28717 0.31436 0.56648
 H1821 H 0.33166 0.36340 0.61687
 H1822 H 0.33840 0.29574 0.64317
 H1823 H 0.30004 0.25179 0.55311
 H1824 H 0.26340 0.31295 0.54121
 H1825 H 0.31328 0.34768 0.58489
 H1826 H 0.28308 0.33171 0.57056
 C1827 C 0.31353 0.80762 0.10057
 C1828 C 0.32248 0.79506 0.11792
 C1829 C 0.33257 0.80639 0.13509
 C1830 C 0.33385 0.83020 0.13507
 C1831 C 0.32447 0.84215 0.11758
 N1832 N 0.31461 0.83074 0.10105
 C1833 C 0.30255 0.79637 0.08205
 N1834 N 0.28640 0.80752 0.07143
 C1835 C 0.27542 0.79805 0.05449
 C1836 C 0.28063 0.77609 0.04721
 C1837 C 0.29754 0.76451 0.05764
 C1838 C 0.30850 0.77454 0.07501
 H1839 H 0.33922 0.79660 0.14851
 H1840 H 0.32514 0.86052 0.11699
 H1841 H 0.26262 0.80767 0.04680
 H1842 H 0.30221 0.74761 0.05249
 H1843 H 0.32135 0.77672 0.11852
 H1844 H 0.32164 0.76537 0.08260
 C1845 C 0.81319 0.31784 0.10012
 C1846 C 0.81516 0.34151 0.10227
 C1847 C 0.82549 0.35049 0.12057
 C1848 C 0.83386 0.33600 0.13674
 C1849 C 0.83199 0.31244 0.13374
 N1850 N 0.82187 0.30408 0.11577
 C1851 C 0.80190 0.30737 0.08138
 N1852 N 0.80742 0.28593 0.07516
 C1853 C 0.79736 0.27496 0.05850
 C1854 C 0.78038 0.28551 0.04720
 C1855 C 0.77433 0.30756 0.05343
 C1856 C 0.78503 0.31854 0.07044
 H1857 H 0.82695 0.36874 0.12217
 H1858 H 0.83822 0.30073 0.14588
 H1859 H 0.80245 0.25792 0.05433
 H1860 H 0.76124 0.31629 0.04524
 H1861 H 0.80906 0.35302 0.08989
 H1862 H 0.77971 0.33530 0.07528
 C1863 C 0.81533 0.81504 0.59985
 C1864 C 0.81718 0.83871 0.60224
 C1865 C 0.82735 0.84753 0.62070
 C1866 C 0.83578 0.83291 0.63672
 C1867 C 0.83427 0.80939 0.63336
 N1868 N 0.82419 0.80117 0.61530
 C1869 C 0.80370 0.80470 0.58123
 N1870 N 0.80869 0.78307 0.57517
 C1871 C 0.79814 0.77211 0.55882
 C1872 C 0.78115 0.78286 0.54769
 C1873 C 0.77568 0.80513 0.55371
 C1874 C 0.78687 0.81609 0.57041
 H1875 H 0.82850 0.86577 0.62265
 H1876 H 0.84055 0.79760 0.64540
 H1877 H 0.80282 0.75490 0.55480
 H1878 H 0.76260 0.81402 0.54567
 H1879 H 0.81096 0.85034 0.59004
 H1880 H 0.78190 0.83301 0.57514
 C1881 C 0.31622 0.69286 0.39577
 C1882 C 0.32612 0.70547 0.37894
 C1883 C 0.33602 0.69417 0.36155
 C1884 C 0.33622 0.67033 0.36084
 C1885 C 0.32557 0.65836 0.37764
 N1886 N 0.31601 0.66976 0.39443
 C1887 C 0.30563 0.70399 0.41470
 N1888 N 0.28934 0.69297 0.42533
 C1889 C 0.27869 0.70227 0.44266
 C1890 C 0.28435 0.72394 0.45032
 C1891 C 0.30145 0.73536 0.43993
 C1892 C 0.31211 0.72547 0.42219
 H1893 H 0.34349 0.70403 0.34859
 H1894 H 0.32517 0.64000 0.37766
 H1895 H 0.26571 0.69280 0.45027
 H1896 H 0.30647 0.75203 0.44536
 H1897 H 0.32596 0.72385 0.37892
 H1898 H 0.32541 0.73451 0.41467
 C1899 C 0.31281 0.18474 0.90048
 C1900 C 0.31454 0.16098 0.89916
 C1901 C 0.32543 0.15119 0.88151
 C1902 C 0.33480 0.16492 0.86523
 C1903 C 0.33289 0.18861 0.86726
 N1904 N 0.32218 0.19778 0.88461
 C1905 C 0.30121 0.19604 0.91872
 N1906 N 0.30666 0.21772 0.92417
 C1907 C 0.29650 0.22930 0.94048
 C1908 C 0.27954 0.21915 0.95227
 C1909 C 0.27356 0.19689 0.94681
 C1910 C 0.28430 0.18531 0.93011
 H1911 H 0.32671 0.13288 0.88072
 H1912 H 0.33967 0.19978 0.85492
 H1913 H 0.30154 0.24651 0.94402
 H1914 H 0.26046 0.18845 0.95534
 H1915 H 0.30790 0.14999 0.91171
 H1916 H 0.27900 0.16837 0.92589
 C1917 C 0.81749 0.68345 0.89975
 C1918 C 0.81918 0.65982 0.89682
 C1919 C 0.82851 0.65130 0.87771
 C1920 C 0.83635 0.66618 0.86158
 C1921 C 0.83510 0.68964 0.86543
 N1922 N 0.82577 0.69758 0.88411
 C1923 C 0.80651 0.69345 0.91907
 N1924 N 0.81139 0.71510 0.92516
 C1925 C 0.80127 0.72569 0.94213
 C1926 C 0.78488 0.71452 0.95389
 C1927 C 0.77961 0.69221 0.94787
 C1928 C 0.79031 0.68166 0.93054
 H1929 H 0.82953 0.63309 0.87539
 H1930 H 0.84101 0.70162 0.85333
 H1931 H 0.80577 0.74295 0.94613
 H1932 H 0.76698 0.68297 0.95635
 H1933 H 0.81346 0.64795 0.90910
 H1934 H 0.78537 0.66474 0.92586
 C1935 C 0.81682 0.18388 0.40107
 C1936 C 0.81932 0.16023 0.39916
 C1937 C 0.82977 0.15129 0.38083
 C1938 C 0.83776 0.16577 0.36441
 C1939 C 0.83546 0.18932 0.36722
 N1940 N 0.82519 0.19766 0.38521
 C1941 C 0.80515 0.19424 0.41974
 N1942 N 0.81018 0.21582 0.42591
 C1943 C 0.79968 0.22664 0.44248
 C1944 C 0.78273 0.21581 0.45369
 C1945 C 0.77719 0.19363 0.44750
 C1946 C 0.78834 0.18279 0.43061
 H1947 H 0.83157 0.13305 0.37940
 H1948 H 0.84139 0.20103 0.35489
 H1949 H 0.80438 0.24380 0.44663
 H1950 H 0.76415 0.18467 0.45561
 H1951 H 0.81347 0.14873 0.41170
 H1952 H 0.78340 0.16591 0.42579
 C1953 C 0.68360 0.31387 0.40281
 C1954 C 0.68089 0.33754 0.40142
 C1955 C 0.67043 0.34692 0.38331
 C1956 C 0.66266 0.33283 0.36660
 C1957 C 0.66529 0.30924 0.36885
 N1958 N 0.67552 0.30048 0.38665
 C1959 C 0.69513 0.30302 0.42127
 N1960 N 0.69018 0.28121 0.42685
 C1961 C 0.70059 0.26988 0.44314
 C1962 C 0.71737 0.28042 0.45466
 C1963 C 0.72281 0.30286 0.44910
 C1964 C 0.71173 0.31422 0.43249
 H1965 H 0.66839 0.36516 0.38228
 H1966 H 0.65958 0.29783 0.35628
 H1967 H 0.69597 0.25253 0.44680
 H1968 H 0.73572 0.31161 0.45749
 H1969 H 0.68654 0.34872 0.41421
 H1970 H 0.71659 0.33131 0.42815
 C1971 C 0.68505 0.80599 0.90062
 C1972 C 0.69150 0.80121 0.87907
 C1973 C 0.68172 0.81268 0.86171
 C1974 C 0.66520 0.82831 0.86587
 C1975 C 0.65915 0.83260 0.88759
 N1976 N 0.66930 0.82166 0.90432
 C1977 C 0.69546 0.79460 0.91928
 N1978 N 0.70354 0.80730 0.93593
 C1979 C 0.71418 0.79772 0.95309
 C1980 C 0.71677 0.77406 0.95425
 C1981 C 0.70799 0.76062 0.93760
 C1982 C 0.69755 0.77087 0.91990
 H1983 H 0.68665 0.80915 0.84502
 H1984 H 0.64647 0.84469 0.89118
 H1985 H 0.72065 0.80857 0.96576
 H1986 H 0.70981 0.74231 0.93793
 H1987 H 0.70417 0.78900 0.87577
 H1988 H 0.69115 0.76044 0.90686
 C1989 C 0.17887 0.31066 0.89728
 C1990 C 0.16779 0.29737 0.88191
 C1991 C 0.15941 0.30757 0.86312
 C1992 C 0.16209 0.33099 0.85942
 C1993 C 0.17270 0.34376 0.87553
 N1994 N 0.18093 0.33339 0.89361
 C1995 C 0.18965 0.30041 0.91653
 N1996 N 0.20716 0.31108 0.92511
 C1997 C 0.21859 0.30223 0.94208
 C1998 C 0.21262 0.28132 0.95143
 C1999 C 0.19426 0.27033 0.94326
 C2000 C 0.18273 0.27981 0.92589
 H2001 H 0.15145 0.29693 0.85122
 H2002 H 0.17477 0.36191 0.87355
 H2003 H 0.23251 0.31142 0.94800
 H2004 H 0.18893 0.25428 0.95013
 H2005 H 0.16628 0.27916 0.88383
 H2006 H 0.16855 0.27108 0.92000
 C2007 C 0.18376 0.81321 0.39605
 C2008 C 0.17455 0.80020 0.37926
 C2009 C 0.16502 0.81110 0.36143
 C2010 C 0.16458 0.83491 0.36026
 C2011 C 0.17412 0.84731 0.37727
 N2012 N 0.18343 0.83631 0.39444
 C2013 C 0.19454 0.80248 0.41504
 N2014 N 0.21075 0.81388 0.42522
 C2015 C 0.22179 0.80485 0.44238
 C2016 C 0.21666 0.78308 0.45032
 C2017 C 0.19963 0.77128 0.44043
 C2018 C 0.18855 0.78089 0.42284
 H2019 H 0.15819 0.80096 0.34841
 H2020 H 0.17406 0.86569 0.37694
 H2021 H 0.23467 0.81464 0.44964
 H2022 H 0.19502 0.75451 0.44612
 H2023 H 0.17510 0.78183 0.37952
 H2024 H 0.17535 0.77156 0.41562
 C2025 C 0.67708 0.69125 0.60019
 C2026 C 0.66216 0.67388 0.59606
 C2027 C 0.65268 0.66235 0.61367
 C2028 C 0.65764 0.66866 0.63517
 C2029 C 0.67209 0.68655 0.63861
 N2030 N 0.68169 0.69701 0.62125
 C2031 C 0.68890 0.70236 0.58219
 N2032 N 0.71076 0.70381 0.58335
 C2033 C 0.72273 0.71346 0.56712
 C2034 C 0.71263 0.72286 0.54868
 C2035 C 0.69008 0.72202 0.54735
 C2036 C 0.67815 0.71143 0.56396
 H2037 H 0.64163 0.64849 0.61065
 H2038 H 0.67623 0.69162 0.65510
 H2039 H 0.74010 0.71403 0.56875
 H2040 H 0.68180 0.72911 0.53330
 H2041 H 0.65849 0.66879 0.57944
 H2042 H 0.66075 0.71058 0.56277
 C2043 C 0.68272 0.18852 0.09877
 C2044 C 0.67135 0.20101 0.11458
 C2045 C 0.66260 0.18991 0.13271
 C2046 C 0.66519 0.16632 0.13538
 C2047 C 0.67647 0.15441 0.11901
 N2048 N 0.68500 0.16566 0.10150
 C2049 C 0.69319 0.19979 0.07982
 N2050 N 0.71128 0.19036 0.07098
 C2051 C 0.72234 0.20037 0.05427
 C2052 C 0.71533 0.22120 0.04551
 C2053 C 0.69636 0.23086 0.05395
 C2054 C 0.68524 0.22022 0.07101
 H2055 H 0.65419 0.19997 0.14482
 H2056 H 0.67854 0.13619 0.12016
 H2057 H 0.73676 0.19220 0.04810
 H2058 H 0.69022 0.24677 0.04753
 H2059 H 0.66972 0.21928 0.11340
 H2060 H 0.67057 0.22792 0.07711
 C2061 C 0.18175 0.68104 0.09867
 C2062 C 0.15922 0.67987 0.10088
 C2063 C 0.15024 0.66997 0.11960
 C2064 C 0.16360 0.66127 0.13615
 C2065 C 0.18602 0.66226 0.13305
 N2066 N 0.19440 0.67197 0.11466
 C2067 C 0.19222 0.69213 0.07964
 N2068 N 0.21236 0.68532 0.07358
 C2069 C 0.22341 0.69540 0.05691
 C2070 C 0.21438 0.71383 0.04551
 C2071 C 0.19365 0.72115 0.05148
 C2072 C 0.18250 0.71033 0.06846
 H2073 H 0.13287 0.66918 0.12129
 H2074 H 0.19685 0.65580 0.14546
 H2075 H 0.23942 0.68930 0.05292
 H2076 H 0.18612 0.73537 0.04319
 H2077 H 0.14863 0.68634 0.08826
 H2078 H 0.16678 0.71667 0.07317
 C2079 C 0.17801 0.19113 0.59973
 C2080 C 0.16849 0.20424 0.61636
 C2081 C 0.15937 0.19345 0.63453
 C2082 C 0.15963 0.16967 0.63620
 C2083 C 0.16925 0.15719 0.61923
 N2084 N 0.17820 0.16807 0.60175
 C2085 C 0.18888 0.20171 0.58064
 N2086 N 0.20515 0.19020 0.57057
 C2087 C 0.21643 0.19908 0.55343
 C2088 C 0.21152 0.22088 0.54544
 C2089 C 0.19442 0.23281 0.55519
 C2090 C 0.18306 0.22331 0.57274
 H2091 H 0.15246 0.20366 0.64752
 H2092 H 0.16974 0.13882 0.61997
 H2093 H 0.22936 0.18920 0.54627
 H2094 H 0.18996 0.24959 0.54944
 H2095 H 0.16863 0.22261 0.61579
 H2096 H 0.16982 0.23275 0.57985
   
