data_POSCAR
  _audit_creation_date              2014-09-24
  _audit_creation_method            'ToBaCCo'
  _symmetry_space_group_name_H-M    'P1'
  _symmetry_Int_Tables_number       1
  _symmetry_cell_setting            triclinic
  loop_
  _symmetry_equiv_pos_as_xyz
 x,y,z
_cell_length_a 53.0348
_cell_length_b 53.0670
_cell_length_c 53.0207
_cell_angle_alpha 89.969900
_cell_angle_beta 90.018400
_cell_angle_gamma 89.998900
loop_
  _atom_site_label
  _atom_site_type_symbol
  _atom_site_fract_x
  _atom_site_fract_y
  _atom_site_fract_z
C1 C 0.26464 0.98641 0.07562
 C2 C 0.26511 1.01222 0.07592
 C3 C 0.25512 1.02025 0.05307
 N4 N 0.24906 1.00014 0.03864
 C5 C 0.25487 0.97948 0.05243
 C6 C 0.25102 1.04574 0.04606
 C7 C 0.24607 1.05265 0.02062
 C8 C 0.23529 1.07525 0.01308
 C9 C 0.23559 1.07554 -0.01279
 C10 C 0.24588 1.05276 -0.02060
 N11 N 0.25223 1.03894 -0.00002
 C12 C 0.25171 1.04635 -0.04596
 C13 C 0.25705 1.02130 -0.05352
 C14 C 0.26428 1.01389 -0.07759
 C15 C 0.26440 0.98806 -0.07771
 C16 C 0.25693 0.98045 -0.05388
 N17 N 0.25239 1.00075 -0.03918
 C18 C 0.25241 0.95524 -0.04665
 C19 C 0.24707 0.94806 -0.02155
 C20 C 0.23718 0.92493 -0.01444
 C21 C 0.23639 0.92474 0.01149
 C22 C 0.24586 0.94775 0.01946
 N23 N 0.25229 0.96186 -0.00077
 C24 C 0.25024 0.95444 0.04484
 H25 H 0.27105 0.97413 0.09061
 H26 H 0.27220 1.02371 0.09121
 H27 H 0.26243 0.97863 -0.00029
 H28 H 0.22823 1.09024 0.02497
 H29 H 0.22931 1.09113 -0.02430
 H30 H 0.26830 1.02571 -0.09371
 H31 H 0.26886 0.97625 -0.09374
 H32 H 0.22990 0.90929 0.02313
 H33 H 0.26300 1.02256 0.00001
 H34 H 0.23134 0.90966 -0.02664
 C35 C 0.73916 0.48655 0.57681
 C36 C 0.73935 0.51240 0.57686
 C37 C 0.74687 0.51985 0.55296
 N38 N 0.75136 0.49947 0.53837
 C39 C 0.74659 0.47909 0.55289
 C40 C 0.75093 0.54505 0.54542
 C41 C 0.75514 0.55218 0.52007
 C42 C 0.76423 0.57549 0.51248
 C43 C 0.76401 0.57556 0.48655
 C44 C 0.75482 0.55229 0.47900
 N45 N 0.74941 0.53817 0.49955
 C46 C 0.75028 0.54527 0.45369
 C47 C 0.74651 0.52005 0.44607
 C48 C 0.73905 0.51259 0.42216
 C49 C 0.73923 0.48674 0.42211
 C50 C 0.74677 0.47928 0.44601
 N51 N 0.75129 0.49966 0.46059
 C52 C 0.75081 0.45408 0.45355
 C53 C 0.75507 0.44694 0.47890
 C54 C 0.76416 0.42363 0.48648
 C55 C 0.76400 0.42356 0.51241
 C56 C 0.75484 0.44684 0.51997
 N57 N 0.74939 0.46096 0.49943
 C58 C 0.75038 0.45387 0.54529
 H59 H 0.73423 0.47462 0.59263
 H60 H 0.73459 0.52432 0.59271
 H61 H 0.73964 0.47795 0.49942
 H62 H 0.77023 0.59093 0.52439
 H63 H 0.76982 0.59106 0.47462
 H64 H 0.73410 0.52452 0.40635
 H65 H 0.73444 0.47482 0.40626
 H66 H 0.76982 0.40805 0.52433
 H67 H 0.73964 0.52119 0.49957
 H68 H 0.77012 0.40818 0.47457
 C69 C 0.73577 0.92358 0.98614
 C70 C 0.73471 0.92350 1.01196
 C71 C 0.74441 0.94644 1.01997
 N72 N 0.75090 0.96070 0.99984
 C73 C 0.74564 0.94671 0.97918
 C74 C 0.74791 0.95372 1.04547
 C75 C 0.75220 0.97930 1.05208
 C76 C 0.76311 0.98738 1.07448
 C77 C 0.76263 1.01325 1.07417
 C78 C 0.75179 1.02033 1.05147
 N79 N 0.74557 0.99956 1.03802
 C80 C 0.74673 1.04551 1.04442
 C81 C 0.74226 1.05291 1.01925
 C82 C 0.73490 1.07680 1.01179
 C83 C 0.73534 1.07693 0.98593
 C84 C 0.74266 1.05295 0.97836
 N85 N 0.74707 1.03843 0.99887
 C86 C 0.74817 1.04561 0.95321
 C87 C 0.75452 1.02041 0.94666
 C88 C 0.76377 1.01264 0.92338
 C89 C 0.76467 0.98677 0.92380
 C90 C 0.75558 0.97929 0.94710
 N91 N 0.74949 0.99982 0.96091
 C92 C 0.75079 0.95405 0.95413
 H93 H 0.72971 0.90845 0.97388
 H94 H 0.72742 0.90832 1.02347
 H95 H 0.73930 0.99952 0.97764
 H96 H 0.77073 0.97586 1.08950
 H97 H 0.76959 1.02546 1.08896
 H98 H 0.73033 1.09270 1.02371
 H99 H 0.73150 1.09318 0.97425
 H100 H 0.77055 0.97483 0.90834
 H101 H 0.73497 0.99921 1.02149
 H102 H 0.76861 1.02414 0.90726
 C103 C 0.26071 0.42239 0.48736
 C104 C 0.26039 0.42250 0.51323
 C105 C 0.25284 0.44643 0.52048
 N106 N 0.24845 0.46088 0.49996
 C107 C 0.25332 0.44624 0.47969
 C108 C 0.24868 0.45413 0.54563
 C109 C 0.24445 0.47950 0.55257
 C110 C 0.23528 0.48724 0.57580
 C111 C 0.23551 0.51314 0.57569
 C112 C 0.24479 0.52053 0.55239
 N113 N 0.25024 0.49992 0.53842
 C114 C 0.24936 0.54578 0.54519
 C115 C 0.25325 0.55321 0.51991
 C116 C 0.26075 0.57706 0.51230
 C117 C 0.26065 0.57694 0.48643
 C118 C 0.25312 0.55303 0.47911
 N119 N 0.24853 0.53858 0.49960
 C120 C 0.24913 0.54535 0.45393
 C121 C 0.24495 0.51998 0.44694
 C122 C 0.23597 0.51226 0.42362
 C123 C 0.23616 0.48635 0.42373
 C124 C 0.24522 0.47895 0.44712
 N125 N 0.25059 0.49955 0.46114
 C126 C 0.24968 0.45369 0.45437
 H127 H 0.26569 0.40651 0.47557
 H128 H 0.26509 0.40674 0.52531
 H129 H 0.26027 0.49967 0.47819
 H130 H 0.22921 0.47544 0.59132
 H131 H 0.22964 0.52517 0.59110
 H132 H 0.26566 0.59292 0.52414
 H133 H 0.26548 0.59270 0.47440
 H134 H 0.23041 0.47434 0.40827
 H135 H 0.26008 0.49978 0.52147
 H136 H 0.23005 0.52407 0.40805
 C137 C 0.98753 0.26511 0.07689
 C138 C 1.01339 0.26497 0.07691
 C139 C 1.02092 0.25701 0.05311
 N140 N 1.00044 0.25201 0.03879
 C141 C 0.98008 0.25698 0.05323
 C142 C 1.04593 0.25109 0.04589
 C143 C 1.05219 0.24418 0.02079
 C144 C 1.07461 0.23289 0.01329
 C145 C 1.07430 0.23192 -0.01258
 C146 C 1.05212 0.24336 -0.02039
 N147 N 1.03859 0.25042 0.00005
 C148 C 1.04557 0.24862 -0.04582
 C149 C 1.02029 0.25387 -0.05274
 C150 C 1.01293 0.26602 -0.07470
 C151 C 0.98713 0.26648 -0.07464
 C152 C 0.97949 0.25458 -0.05265
 N153 N 0.99980 0.24715 -0.03908
 C154 C 0.95410 0.25016 -0.04559
 C155 C 0.94767 0.24531 -0.02009
 C156 C 0.92562 0.23376 -0.01197
 C157 C 0.92584 0.23450 0.01393
 C158 C 0.94818 0.24609 0.02095
 N159 N 0.96150 0.25245 0.00013
 C160 C 0.95501 0.25182 0.04603
 H161 H 0.97560 0.26994 0.09272
 H162 H 1.02514 0.26935 0.09299
 H163 H 0.97771 0.26353 -0.00035
 H164 H 1.09000 0.22643 0.02497
 H165 H 1.08909 0.22416 -0.02429
 H166 H 1.02492 0.27413 -0.08909
 H167 H 0.97535 0.27500 -0.08897
 H168 H 0.91121 0.22730 0.02621
 H169 H 1.02257 0.26176 -0.00032
 H170 H 0.91083 0.22572 -0.02349
 C171 C 0.48691 0.76288 0.57783
 C172 C 0.51278 0.76308 0.57780
 C173 C 0.52025 0.75576 0.55385
 N174 N 0.49987 0.75104 0.53930
 C175 C 0.47947 0.75546 0.55390
 C176 C 0.54549 0.75202 0.54623
 C177 C 0.55255 0.74761 0.52091
 C178 C 0.57585 0.73846 0.51335
 C179 C 0.57581 0.73837 0.48742
 C180 C 0.55249 0.74749 0.47984
 N181 N 0.53844 0.75312 0.50037
 C182 C 0.54538 0.75180 0.45450
 C183 C 0.52017 0.75584 0.44696
 C184 C 0.51271 0.76339 0.42307
 C185 C 0.48684 0.76352 0.42311
 C186 C 0.47938 0.75602 0.44701
 N187 N 0.49977 0.75127 0.46154
 C188 C 0.45415 0.75215 0.45459
 C189 C 0.44709 0.74762 0.47990
 C190 C 0.42380 0.73839 0.48742
 C191 C 0.42384 0.73816 0.51335
 C192 C 0.44714 0.74727 0.52097
 N193 N 0.46118 0.75303 0.50047
 C194 C 0.45425 0.75142 0.54634
 H195 H 0.47497 0.76757 0.59370
 H196 H 0.52470 0.76795 0.59363
 H197 H 0.47816 0.76280 0.50051
 H198 H 0.59134 0.73258 0.52527
 H199 H 0.59127 0.73242 0.47551
 H200 H 0.52464 0.76820 0.40723
 H201 H 0.47491 0.76845 0.40729
 H202 H 0.40839 0.73212 0.52523
 H203 H 0.52146 0.76288 0.50038
 H204 H 0.40832 0.73256 0.47547
 C205 C 0.07457 0.73267 0.01417
 C206 C 0.07491 0.73199 -0.01168
 C207 C 0.05270 0.74325 -0.01979
 N208 N 0.03858 0.75019 0.00024
 C209 C 0.05200 0.74385 0.02095
 C210 C 0.04608 0.74827 -0.04518
 C211 C 0.02086 0.75433 -0.05170
 C212 C 0.01364 0.76775 -0.07298
 C213 C -0.01224 0.76836 -0.07306
 C214 C -0.02019 0.75525 -0.05185
 N215 N 0.00011 0.74721 -0.03862
 C216 C -0.04565 0.74988 -0.04573
 C217 C -0.05271 0.74467 -0.02051
 C218 C -0.07450 0.73223 -0.01317
 C219 C -0.07479 0.73245 0.01266
 C220 C -0.05318 0.74502 0.02030
 N221 N -0.03948 0.75217 -0.00002
 C222 C -0.04658 0.75041 0.04563
 C223 C -0.02128 0.75611 0.05214
 C224 C -0.01358 0.76846 0.07391
 C225 C 0.01235 0.76817 0.07397
 C226 C 0.01973 0.75603 0.05207
 N227 N -0.00082 0.74898 0.03872
 C228 C 0.04482 0.74989 0.04578
 H229 H 0.08922 0.72571 0.02657
 H230 H 0.08983 0.72414 -0.02315
 H231 H -0.00087 0.73741 0.02284
 H232 H 0.02577 0.77635 -0.08695
 H233 H -0.02389 0.77747 -0.08713
 H234 H -0.08857 0.72362 -0.02518
 H235 H -0.08913 0.72399 0.02446
 H236 H 0.02438 0.77586 0.08855
 H237 H -0.00026 0.73528 -0.02298
 H238 H -0.02538 0.77665 0.08839
 C239 C 0.48743 0.26128 0.42266
 C240 C 0.51330 0.26104 0.42282
 C241 C 0.52055 0.25360 0.44681
 N242 N 0.50003 0.24920 0.46126
 C243 C 0.47976 0.25396 0.44655
 C244 C 0.54570 0.24952 0.45457
 C245 C 0.55263 0.24536 0.47999
 C246 C 0.57587 0.23625 0.48778
 C247 C 0.57575 0.23654 0.51371
 C248 C 0.55243 0.24580 0.52106
 N249 N 0.53847 0.25118 0.50039
 C250 C 0.54522 0.25041 0.54630
 C251 C 0.51994 0.25426 0.55370
 C252 C 0.51230 0.26178 0.57754
 C253 C 0.48643 0.26164 0.57738
 C254 C 0.47915 0.25407 0.55344
 N255 N 0.49965 0.24949 0.53903
 C256 C 0.45398 0.25005 0.54572
 C257 C 0.44702 0.24576 0.52034
 C258 C 0.42373 0.23671 0.51261
 C259 C 0.42385 0.23682 0.48668
 C260 C 0.44721 0.24590 0.47926
 N261 N 0.46121 0.25136 0.49989
 C262 C 0.45446 0.25027 0.45397
 H263 H 0.47564 0.26618 0.40673
 H264 H 0.52538 0.26572 0.40705
 H265 H 0.47823 0.26106 0.49999
 H266 H 0.59140 0.23018 0.47602
 H267 H 0.59116 0.23073 0.52578
 H268 H 0.52411 0.26673 0.59343
 H269 H 0.47438 0.26648 0.59312
 H270 H 0.40841 0.23099 0.47467
 H271 H 0.52150 0.26098 0.50020
 H272 H 0.40817 0.23081 0.52443
 C273 C 0.98776 0.07717 0.23824
 C274 C 1.01360 0.07747 0.23897
 C275 C 1.02126 0.05357 0.24648
 N276 N 1.00081 0.03896 0.25079
 C277 C 0.98038 0.05328 0.24570
 C278 C 1.04641 0.04635 0.25213
 C279 C 1.05311 0.02110 0.25820
 C280 C 1.07653 0.01332 0.26713
 C281 C 1.07627 -0.01256 0.26766
 C282 C 1.05290 -0.02004 0.25875
 N283 N 1.03892 0.00050 0.25308
 C284 C 1.04595 -0.04523 0.25372
 C285 C 1.02083 -0.05270 0.24916
 C286 C 1.01375 -0.07588 0.23947
 C287 C 0.98792 -0.07611 0.23907
 C288 C 0.98003 -0.05318 0.24890
 N289 N 1.00023 -0.03881 0.25489
 C290 C 0.95459 -0.04597 0.25283
 C291 C 0.94794 -0.02035 0.25681
 C292 C 0.92561 -0.01215 0.26775
 C293 C 0.92577 0.01370 0.26673
 C294 C 0.94835 0.02067 0.25561
 N295 N 0.96186 -0.00015 0.24971
 C296 C 0.95523 0.04576 0.25001
 H297 H 0.97579 0.09298 0.23344
 H298 H 1.02520 0.09378 0.23513
 H299 H 0.97828 -0.00059 0.23897
 H300 H 1.09263 0.02484 0.27192
 H301 H 1.09186 -0.02451 0.27319
 H302 H 1.02594 -0.09095 0.23312
 H303 H 0.97632 -0.09135 0.23208
 H304 H 0.91097 0.02599 0.27353
 H305 H 1.02208 0.00021 0.24305
 H306 H 0.91070 -0.02358 0.27569
 C307 C 0.48691 0.57932 0.75112
 C308 C 0.51269 0.57938 0.75279
 C309 C 0.52022 0.55437 0.75379
 N310 N 0.49983 0.53913 0.75303
 C311 C 0.47942 0.55429 0.75144
 C312 C 0.54563 0.54627 0.75475
 C313 C 0.55356 0.52074 0.75450
 C314 C 0.57842 0.51320 0.75140
 C315 C 0.57849 0.48736 0.75111
 C316 C 0.55368 0.47961 0.75406
 N317 N 0.53865 0.50011 0.75656
 C318 C 0.54592 0.45402 0.75386
 C319 C 0.52053 0.44583 0.75325
 C320 C 0.51308 0.42079 0.75233
 C321 C 0.48727 0.42076 0.75119
 C322 C 0.47970 0.44577 0.75166
 N323 N 0.50007 0.46099 0.75289
 C324 C 0.45428 0.45387 0.75174
 C325 C 0.44647 0.47942 0.75246
 C326 C 0.42180 0.48702 0.75666
 C327 C 0.42172 0.51287 0.75642
 C328 C 0.44635 0.52053 0.75212
 N329 N 0.46128 0.50000 0.74933
 C330 C 0.45403 0.54610 0.75109
 H331 H 0.47507 0.59589 0.74996
 H332 H 0.52451 0.59600 0.75306
 H333 H 0.47997 0.50002 0.74366
 H334 H 0.59483 0.52508 0.74903
 H335 H 0.59498 0.47563 0.74849
 H336 H 0.52496 0.40422 0.75237
 H337 H 0.47546 0.40415 0.75024
 H338 H 0.40536 0.52466 0.75954
 H339 H 0.51965 0.50004 0.76098
 H340 H 0.40551 0.47519 0.75997
 C341 C 0.92354 0.98710 0.76051
 C342 C 0.92367 1.01296 0.76093
 C343 C 0.94741 1.02039 0.75296
 N344 N 0.96173 1.00005 0.74761
 C345 C 0.94720 0.97968 0.75225
 C346 C 0.95500 1.04550 0.74886
 C347 C 0.98035 1.05224 0.74426
 C348 C 0.98792 1.07483 0.73358
 C349 C 1.01380 1.07479 0.73365
 C350 C 1.02141 1.05231 0.74474
 N351 N 1.00084 1.03853 0.75092
 C352 C 1.04684 1.04544 0.74963
 C353 C 1.05397 1.01994 0.75358
 C354 C 1.07703 1.01197 0.76301
 C355 C 1.07695 0.98619 0.76211
 C356 C 1.05352 0.97903 0.75293
 N357 N 1.03959 0.99975 0.74758
 C358 C 1.04615 0.95399 0.74715
 C359 C 1.02084 0.94743 0.74140
 C360 C 1.01285 0.92414 0.73242
 C361 C 0.98694 0.92435 0.73273
 C362 C 0.97970 0.94759 0.74212
 N363 N 1.00041 0.96154 0.74732
 C364 C 0.95456 0.95456 0.74757
 H365 H 0.90777 0.97516 0.76552
 H366 H 0.90803 1.02490 0.76631
 H367 H 1.00061 0.97825 0.75751
 H368 H 0.97601 1.08976 0.72639
 H369 H 1.02567 1.08967 0.72630
 H370 H 1.09246 1.02348 0.76974
 H371 H 1.09260 0.97427 0.76744
 H372 H 0.97485 0.90884 0.72732
 H373 H 1.00075 1.02204 0.76156
 H374 H 1.02430 0.90817 0.72706
 C375 C 0.42096 0.48734 0.24745
 C376 C 0.42104 0.51313 0.24860
 C377 C 0.44611 0.52056 0.24861
 N378 N 0.46126 0.50012 0.24766
 C379 C 0.44598 0.47976 0.24700
 C380 C 0.45435 0.54592 0.24877
 C381 C 0.47995 0.55364 0.24841
 C382 C 0.48769 0.57833 0.24465
 C383 C 0.51355 0.57828 0.24499
 C384 C 0.52109 0.55356 0.24893
 N385 N 0.50046 0.53870 0.25141
 C386 C 0.54664 0.54572 0.24980
 C387 C 0.55471 0.52031 0.24921
 C388 C 0.57973 0.51272 0.24919
 C389 C 0.57966 0.48696 0.24744
 C390 C 0.55459 0.47955 0.24675
 N391 N 0.53944 0.49999 0.24777
 C392 C 0.54637 0.45419 0.24591
 C393 C 0.52078 0.44642 0.24636
 C394 C 0.51312 0.42166 0.24982
 C395 C 0.48726 0.42171 0.25007
 C396 C 0.47963 0.44650 0.24671
 N397 N 0.50022 0.46140 0.24404
 C398 C 0.45407 0.45435 0.24661
 H399 H 0.40431 0.47554 0.24709
 H400 H 0.40447 0.52501 0.24925
 H401 H 0.50025 0.48030 0.23922
 H402 H 0.47594 0.59472 0.24153
 H403 H 0.52544 0.59462 0.24216
 H404 H 0.59637 0.52448 0.25016
 H405 H 0.59623 0.47509 0.24693
 H406 H 0.47544 0.40533 0.25290
 H407 H 0.50036 0.51990 0.25668
 H408 H 0.52493 0.40523 0.25245
 O409 O 0.25036 0.18458 0.21453
 O410 O 0.27780 0.17743 0.24965
 O411 O 0.18446 0.21520 0.25068
 O412 O 0.17504 0.24800 0.27511
 O413 O 0.21522 0.24996 0.18348
 O414 O 0.24842 0.27949 0.17802
 O415 O 0.25079 0.28448 0.31491
 O416 O 0.22138 0.25156 0.32162
 O417 O 0.31514 0.25055 0.28428
 O418 O 0.32211 0.22145 0.24787
 O419 O 0.28484 0.31495 0.25043
 O420 O 0.24928 0.32325 0.22227
 O421 O 0.25079 0.31485 0.28458
 O422 O 0.22175 0.32235 0.24822
 O423 O 0.31519 0.28462 0.25047
 O424 O 0.32252 0.25260 0.22148
 O425 O 0.28485 0.25081 0.31470
 O426 O 0.25010 0.22177 0.32241
 O427 O 0.25040 0.21490 0.18410
 O428 O 0.27914 0.25034 0.17768
 O429 O 0.18489 0.25025 0.21395
 O430 O 0.17900 0.27976 0.24927
 O431 O 0.21478 0.18478 0.24999
 O432 O 0.24992 0.17758 0.27757
 Zr433 Zr 0.24896 0.20492 0.24857
 O434 O 0.27258 0.22640 0.27209
 Zr435 Zr 0.20471 0.24922 0.24847
 O436 O 0.22636 0.27251 0.27236
 Zr437 Zr 0.24909 0.24920 0.20410
 O438 O 0.27258 0.27260 0.22595
 Zr439 Zr 0.25066 0.25050 0.29456
 O440 O 0.22668 0.22691 0.27304
 Zr441 Zr 0.29489 0.25062 0.25012
 O442 O 0.27344 0.22686 0.22620
 Zr443 Zr 0.25061 0.29486 0.25030
 O444 O 0.22690 0.27345 0.22632
 O445 O 0.22562 0.22585 0.22510
 O446 O 0.27426 0.27418 0.27388
 C447 C 0.25099 0.19185 0.19144
 C448 C 0.19173 0.19211 0.25102
 C449 C 0.19216 0.25064 0.19083
 C450 C 0.25084 0.30754 0.30765
 C451 C 0.30790 0.25068 0.30737
 C452 C 0.30791 0.30768 0.25049
 H453 H 0.28304 0.21491 0.28235
 H454 H 0.28323 0.28286 0.21458
 H455 H 0.21483 0.21497 0.21445
 H456 H 0.21505 0.28279 0.28301
 H457 H 0.20846 0.23926 0.31608
 H458 H 0.18062 0.25756 0.29011
 H459 H 0.31540 0.24380 0.20666
 H460 H 0.27254 0.24568 0.16079
 H461 H 0.26323 0.20924 0.31821
 H462 H 0.23830 0.18355 0.29090
 H463 H 0.26198 0.31900 0.20929
 H464 H 0.23602 0.29193 0.18431
 H465 H 0.29122 0.18336 0.23811
 H466 H 0.31934 0.20981 0.26217
 H467 H 0.18412 0.29157 0.23576
 H468 H 0.20988 0.31924 0.26227
 O469 O 0.74950 0.81637 0.21569
 O470 O 0.72213 0.82333 0.25085
 O471 O 0.81552 0.78573 0.25165
 O472 O 0.82508 0.75285 0.27595
 O473 O 0.78469 0.75116 0.18439
 O474 O 0.75154 0.72161 0.17888
 O475 O 0.74943 0.71609 0.31578
 O476 O 0.77880 0.74901 0.32255
 O477 O 0.68498 0.75004 0.28530
 O478 O 0.67786 0.77920 0.24898
 O479 O 0.71535 0.68578 0.25129
 O480 O 0.75084 0.67765 0.22305
 O481 O 0.74946 0.68583 0.28538
 O482 O 0.77846 0.67854 0.24894
 O483 O 0.68493 0.71604 0.25147
 O484 O 0.67750 0.74812 0.22250
 O485 O 0.71532 0.74972 0.31569
 O486 O 0.75007 0.77878 0.32342
 O487 O 0.74944 0.78617 0.18518
 O488 O 0.72076 0.75068 0.17869
 O489 O 0.81509 0.75080 0.21481
 O490 O 0.82109 0.72117 0.25006
 O491 O 0.78515 0.81609 0.25109
 O492 O 0.75004 0.82310 0.27876
 Zr493 Zr 0.75101 0.79589 0.24966
 O494 O 0.72746 0.77428 0.27313
 Zr495 Zr 0.79534 0.75167 0.24936
 O496 O 0.77378 0.72826 0.27323
 Zr497 Zr 0.75086 0.75178 0.20506
 O498 O 0.72748 0.72824 0.22688
 Zr499 Zr 0.74948 0.75013 0.29552
 O500 O 0.77338 0.77385 0.27403
 Zr501 Zr 0.70516 0.75009 0.25113
 O502 O 0.72652 0.77400 0.22726
 Zr503 Zr 0.74954 0.70594 0.25114
 O504 O 0.77315 0.72749 0.22718
 O505 O 0.77434 0.77510 0.22609
 O506 O 0.72588 0.72649 0.27480
 C507 C 0.74882 0.80919 0.19259
 C508 C 0.80822 0.80879 0.25207
 C509 C 0.80776 0.75048 0.19170
 C510 C 0.74941 0.69306 0.30847
 C511 C 0.69226 0.74985 0.30839
 C512 C 0.69226 0.69300 0.25144
 H513 H 0.71700 0.78571 0.28344
 H514 H 0.71682 0.71800 0.21550
 H515 H 0.78508 0.78604 0.21545
 H516 H 0.78513 0.71797 0.28385
 H517 H 0.79170 0.76133 0.31703
 H518 H 0.81953 0.74325 0.29095
 H519 H 0.68455 0.75706 0.20772
 H520 H 0.72730 0.75546 0.16180
 H521 H 0.73687 0.79128 0.31929
 H522 H 0.76173 0.81711 0.29203
 H523 H 0.73813 0.68192 0.21009
 H524 H 0.76394 0.70915 0.18513
 H525 H 0.70869 0.81742 0.23932
 H526 H 0.68067 0.79084 0.26327
 H527 H 0.81599 0.70941 0.23650
 H528 H 0.79032 0.68159 0.26301
 O529 O 0.75000 0.18434 0.78495
 O530 O 0.72287 0.17693 0.74985
 O531 O 0.81588 0.21526 0.74925
 O532 O 0.82559 0.24815 0.72527
 O533 O 0.78433 0.24991 0.81643
 O534 O 0.75137 0.27812 0.82263
 O535 O 0.74963 0.28429 0.68462
 O536 O 0.77874 0.25147 0.67786
 O537 O 0.68511 0.25063 0.71540
 O538 O 0.67531 0.22453 0.74896
 O539 O 0.71575 0.31517 0.74903
 O540 O 0.75133 0.32345 0.77701
 O541 O 0.74966 0.31474 0.71483
 O542 O 0.77898 0.32203 0.75133
 O543 O 0.68536 0.28492 0.74962
 O544 O 0.68029 0.24644 0.78023
 O545 O 0.71541 0.25088 0.68499
 O546 O 0.75025 0.22145 0.67752
 O547 O 0.74963 0.21459 0.81541
 O548 O 0.71913 0.24960 0.81995
 O549 O 0.81491 0.25024 0.78618
 O550 O 0.82101 0.27986 0.75054
 O551 O 0.78570 0.18472 0.74960
 O552 O 0.75043 0.17776 0.72157
 Zr553 Zr 0.75142 0.20472 0.75090
 O554 O 0.72767 0.22631 0.72762
 Zr555 Zr 0.79548 0.24918 0.75141
 O556 O 0.77398 0.27238 0.72728
 Zr557 Zr 0.75074 0.24893 0.79541
 O558 O 0.72765 0.27284 0.77359
 Zr559 Zr 0.74963 0.25040 0.70510
 O560 O 0.77373 0.22689 0.72663
 Zr561 Zr 0.70541 0.25066 0.74948
 O562 O 0.72675 0.22651 0.77306
 Zr563 Zr 0.74981 0.29486 0.74922
 O564 O 0.77312 0.27331 0.77345
 O565 O 0.77447 0.22569 0.77456
 O566 O 0.72609 0.27420 0.72572
 C567 C 0.74921 0.19156 0.80804
 C568 C 0.80872 0.19216 0.74877
 C569 C 0.80744 0.25063 0.80925
 C570 C 0.74961 0.30737 0.69179
 C571 C 0.69235 0.25081 0.69231
 C572 C 0.69268 0.30796 0.74932
 H573 H 0.71705 0.21488 0.71743
 H574 H 0.71727 0.28331 0.78498
 H575 H 0.78525 0.21486 0.78527
 H576 H 0.78536 0.28256 0.71659
 H577 H 0.79182 0.23939 0.68349
 H578 H 0.81979 0.25684 0.70982
 H579 H 0.68007 0.26252 0.78966
 H580 H 0.72471 0.24462 0.83711
 H581 H 0.73665 0.20932 0.68140
 H582 H 0.76249 0.18359 0.70856
 H583 H 0.73872 0.31929 0.79011
 H584 H 0.76227 0.29164 0.81580
 H585 H 0.70941 0.18270 0.76142
 H586 H 0.68163 0.20908 0.74070
 H587 H 0.81611 0.29144 0.76433
 H588 H 0.79051 0.31920 0.73694
 O589 O 0.24935 0.81530 0.78454
 O590 O 0.27665 0.82259 0.74953
 O591 O 0.18353 0.78450 0.74860
 O592 O 0.17393 0.75165 0.72452
 O593 O 0.21469 0.74980 0.81595
 O594 O 0.24759 0.72156 0.82240
 O595 O 0.24994 0.71517 0.68446
 O596 O 0.22085 0.74807 0.67750
 O597 O 0.31437 0.74889 0.71543
 O598 O 0.32404 0.77500 0.74905
 O599 O 0.28350 0.68438 0.74903
 O600 O 0.24776 0.67627 0.77700
 O601 O 0.24969 0.68479 0.71477
 O602 O 0.22028 0.67758 0.75110
 O603 O 0.31392 0.71460 0.74965
 O604 O 0.31896 0.75303 0.78026
 O605 O 0.28418 0.74861 0.68488
 O606 O 0.24946 0.77797 0.67710
 O607 O 0.24948 0.78508 0.81508
 O608 O 0.27989 0.75002 0.81984
 O609 O 0.18425 0.74952 0.78554
 O610 O 0.17822 0.71993 0.74998
 O611 O 0.21380 0.81497 0.74904
 O612 O 0.24915 0.82184 0.72116
 Zr613 Zr 0.24801 0.79489 0.75053
 O614 O 0.27179 0.77322 0.72739
 Zr615 Zr 0.20385 0.75053 0.75089
 O616 O 0.22541 0.72723 0.72695
 Zr617 Zr 0.24840 0.75073 0.79513
 O618 O 0.27156 0.72677 0.77349
 Zr619 Zr 0.24989 0.74912 0.70483
 O620 O 0.22577 0.77274 0.72618
 Zr621 Zr 0.29393 0.74887 0.74942
 O622 O 0.27253 0.77308 0.77285
 Zr623 Zr 0.24946 0.70474 0.74907
 O624 O 0.22606 0.72638 0.77311
 O625 O 0.22481 0.77400 0.77411
 O626 O 0.27331 0.72533 0.72563
 C627 C 0.25002 0.80811 0.80766
 C628 C 0.19076 0.80759 0.74812
 C629 C 0.19161 0.74911 0.80865
 C630 C 0.24986 0.69211 0.69171
 C631 C 0.30721 0.74870 0.69231
 C632 C 0.30658 0.69157 0.74935
 H633 H 0.28246 0.78462 0.71723
 H634 H 0.28188 0.71629 0.78494
 H635 H 0.21400 0.78486 0.78475
 H636 H 0.21406 0.71704 0.71624
 H637 H 0.20781 0.76024 0.68301
 H638 H 0.17973 0.74276 0.70920
 H639 H 0.31910 0.73696 0.78973
 H640 H 0.27424 0.75502 0.83696
 H641 H 0.26292 0.79021 0.68114
 H642 H 0.23716 0.81601 0.70809
 H643 H 0.26047 0.68032 0.79003
 H644 H 0.23672 0.70805 0.81553
 H645 H 0.29003 0.81682 0.76121
 H646 H 0.31782 0.79039 0.74059
 H647 H 0.18311 0.70830 0.76375
 H648 H 0.20874 0.68048 0.73673
 O649 O 0.24887 0.31542 0.71581
 O650 O 0.22155 0.32240 0.75103
 O651 O 0.31493 0.28475 0.75163
 O652 O 0.32456 0.25188 0.77589
 O653 O 0.28391 0.25018 0.68445
 O654 O 0.25074 0.22065 0.67903
 O655 O 0.24901 0.21520 0.81597
 O656 O 0.27837 0.24814 0.82265
 O657 O 0.18447 0.24912 0.78561
 O658 O 0.17729 0.27832 0.74932
 O659 O 0.21473 0.18489 0.75157
 O660 O 0.25013 0.17668 0.72328
 O661 O 0.24893 0.18492 0.78559
 O662 O 0.27785 0.17761 0.74906
 O663 O 0.18433 0.21516 0.75176
 O664 O 0.17684 0.24724 0.72283
 O665 O 0.21487 0.24878 0.81593
 O666 O 0.24965 0.27791 0.82355
 O667 O 0.24872 0.28521 0.68531
 O668 O 0.21997 0.24973 0.67893
 O669 O 0.31439 0.24981 0.71479
 O670 O 0.32047 0.22019 0.75007
 O671 O 0.28458 0.31513 0.75113
 O672 O 0.24954 0.32219 0.77886
 Zr673 Zr 0.25042 0.29496 0.74978
 O674 O 0.22693 0.27337 0.77334
 Zr675 Zr 0.29473 0.25071 0.74940
 O676 O 0.27323 0.22733 0.77335
 Zr677 Zr 0.25015 0.25083 0.70521
 O678 O 0.22682 0.22731 0.72710
 Zr679 Zr 0.24899 0.24923 0.79569
 O680 O 0.27284 0.27291 0.77411
 Zr681 Zr 0.20457 0.24919 0.75139
 O682 O 0.22587 0.27307 0.72745
 Zr683 Zr 0.24893 0.20502 0.75134
 O684 O 0.27248 0.22653 0.72729
 O685 O 0.27369 0.27414 0.72617
 O686 O 0.22534 0.22559 0.77503
 C687 C 0.24815 0.30823 0.69271
 C688 C 0.30764 0.30782 0.75205
 C689 C 0.30700 0.24949 0.69170
 C690 C 0.24897 0.19216 0.80868
 C691 C 0.19179 0.24890 0.80867
 C692 C 0.19165 0.19213 0.75173
 H693 H 0.21650 0.28481 0.78366
 H694 H 0.21613 0.21707 0.71576
 H695 H 0.28441 0.28506 0.71551
 H696 H 0.28461 0.21704 0.78394
 H697 H 0.29126 0.26044 0.81708
 H698 H 0.31903 0.24235 0.79093
 H699 H 0.18384 0.25619 0.70804
 H700 H 0.22646 0.25450 0.66203
 H701 H 0.23638 0.29036 0.81950
 H702 H 0.26122 0.31618 0.79214
 H703 H 0.23743 0.18098 0.71032
 H704 H 0.26314 0.20818 0.68527
 H705 H 0.20809 0.31650 0.73952
 H706 H 0.18012 0.28994 0.76362
 H707 H 0.31534 0.20844 0.73650
 H708 H 0.28973 0.18064 0.76312
 O709 O 0.75118 0.68406 0.71509
 O710 O 0.77867 0.67672 0.74999
 O711 O 0.68559 0.71488 0.75136
 O712 O 0.67605 0.74775 0.77539
 O713 O 0.71654 0.74965 0.68388
 O714 O 0.74945 0.77786 0.67739
 O715 O 0.75224 0.78406 0.81534
 O716 O 0.72319 0.75115 0.82234
 O717 O 0.81657 0.75036 0.78411
 O718 O 0.82608 0.72422 0.75046
 O719 O 0.78561 0.81487 0.75069
 O720 O 0.74979 0.82309 0.72286
 O721 O 0.75193 0.81448 0.78506
 O722 O 0.72240 0.82175 0.74882
 O723 O 0.81601 0.78463 0.74990
 O724 O 0.82091 0.74622 0.71927
 O725 O 0.78649 0.75066 0.81474
 O726 O 0.75179 0.72124 0.82260
 O727 O 0.75124 0.71434 0.68461
 O728 O 0.78170 0.74934 0.67982
 O729 O 0.68620 0.74990 0.71438
 O730 O 0.68033 0.77946 0.75001
 O731 O 0.71582 0.68438 0.75078
 O732 O 0.75129 0.67742 0.77846
 Zr733 Zr 0.75004 0.70442 0.74915
 O734 O 0.77392 0.72603 0.77226
 Zr735 Zr 0.70592 0.74883 0.74898
 O736 O 0.72758 0.77207 0.77290
 Zr737 Zr 0.75030 0.74865 0.70462
 O738 O 0.77356 0.77255 0.72622
 Zr739 Zr 0.75212 0.75013 0.79492
 O740 O 0.72791 0.72657 0.77360
 Zr741 Zr 0.79599 0.75038 0.75019
 O742 O 0.77449 0.72624 0.72678
 Zr743 Zr 0.75156 0.79456 0.75073
 O744 O 0.72806 0.77299 0.72673
 O745 O 0.72677 0.72538 0.72567
 O746 O 0.77548 0.77393 0.77407
 C747 C 0.75175 0.69130 0.69199
 C748 C 0.69280 0.69179 0.75182
 C749 C 0.69348 0.75034 0.69125
 C750 C 0.75216 0.80714 0.80811
 C751 C 0.80950 0.75058 0.80725
 C752 C 0.80869 0.80766 0.75026
 H753 H 0.78462 0.71462 0.78238
 H754 H 0.78385 0.78303 0.71475
 H755 H 0.71590 0.71454 0.71506
 H756 H 0.71627 0.78226 0.78365
 H757 H 0.71012 0.73901 0.81685
 H758 H 0.68194 0.75651 0.79075
 H759 H 0.82100 0.76228 0.70980
 H760 H 0.77598 0.74438 0.66270
 H761 H 0.76529 0.70905 0.81856
 H762 H 0.73943 0.68328 0.79162
 H763 H 0.76244 0.81904 0.70977
 H764 H 0.73859 0.79137 0.68430
 H765 H 0.79198 0.68248 0.73824
 H766 H 0.81986 0.70882 0.75891
 H767 H 0.68515 0.79109 0.73623
 H768 H 0.71091 0.81885 0.76322
 O769 O 0.24964 0.68467 0.28437
 O770 O 0.22230 0.67734 0.24943
 O771 O 0.31537 0.71551 0.24836
 O772 O 0.32500 0.74835 0.22430
 O773 O 0.28426 0.75021 0.31569
 O774 O 0.25139 0.77842 0.32212
 O775 O 0.24886 0.78468 0.18409
 O776 O 0.27785 0.75180 0.17713
 O777 O 0.18446 0.75111 0.21529
 O778 O 0.17482 0.72504 0.24887
 O779 O 0.21546 0.81559 0.24872
 O780 O 0.25121 0.82380 0.27648
 O781 O 0.24915 0.81511 0.21432
 O782 O 0.27872 0.82231 0.25065
 O783 O 0.18502 0.78539 0.24949
 O784 O 0.18006 0.74691 0.28014
 O785 O 0.21456 0.75133 0.18469
 O786 O 0.24933 0.72182 0.17698
 O787 O 0.24953 0.71491 0.31486
 O788 O 0.21909 0.74999 0.31958
 O789 O 0.31468 0.75051 0.28528
 O790 O 0.32063 0.78009 0.24957
 O791 O 0.28513 0.68502 0.24886
 O792 O 0.24971 0.67814 0.22099
 Zr793 Zr 0.25090 0.70508 0.25034
 O794 O 0.22705 0.72672 0.22721
 Zr795 Zr 0.29505 0.74946 0.25061
 O796 O 0.27346 0.77270 0.22660
 Zr797 Zr 0.25056 0.74926 0.29487
 O798 O 0.22741 0.77323 0.27320
 Zr799 Zr 0.24892 0.75078 0.20457
 O800 O 0.27311 0.72722 0.22595
 Zr801 Zr 0.20498 0.75110 0.24923
 O802 O 0.22641 0.72689 0.27266
 Zr803 Zr 0.24947 0.79522 0.24870
 O804 O 0.27287 0.77362 0.27280
 O805 O 0.27413 0.72600 0.27388
 O806 O 0.22556 0.77461 0.22535
 C807 C 0.24901 0.69188 0.30747
 C808 C 0.30816 0.69242 0.24792
 C809 C 0.30733 0.75091 0.30839
 C810 C 0.24894 0.80775 0.19127
 C811 C 0.19155 0.75129 0.19216
 C812 C 0.19238 0.80841 0.24915
 H813 H 0.21635 0.71532 0.21709
 H814 H 0.21712 0.78372 0.28465
 H815 H 0.28495 0.71515 0.28453
 H816 H 0.28480 0.78286 0.21585
 H817 H 0.29096 0.73972 0.18269
 H818 H 0.31913 0.75703 0.20888
 H819 H 0.17988 0.76300 0.28955
 H820 H 0.22474 0.74495 0.33670
 H821 H 0.23571 0.70973 0.18093
 H822 H 0.26171 0.68395 0.20793
 H823 H 0.23867 0.81967 0.28965
 H824 H 0.26223 0.79195 0.31522
 H825 H 0.20892 0.68312 0.26110
 H826 H 0.18107 0.70957 0.24060
 H827 H 0.31584 0.79168 0.26339
 H828 H 0.29013 0.81950 0.23617
 O829 O 0.75028 0.31446 0.28446
 O830 O 0.77751 0.32180 0.24937
 O831 O 0.68441 0.28366 0.24867
 O832 O 0.67464 0.25079 0.22475
 O833 O 0.71590 0.24890 0.31593
 O834 O 0.74885 0.22065 0.32216
 O835 O 0.75051 0.21450 0.18418
 O836 O 0.72142 0.24741 0.17740
 O837 O 0.81509 0.24821 0.21494
 O838 O 0.82490 0.27425 0.24855
 O839 O 0.78439 0.18363 0.24855
 O840 O 0.74883 0.17540 0.27662
 O841 O 0.75040 0.18406 0.21444
 O842 O 0.72117 0.17681 0.25094
 O843 O 0.81480 0.21386 0.24910
 O844 O 0.81997 0.25223 0.27975
 O845 O 0.78478 0.24795 0.18452
 O846 O 0.74999 0.27733 0.17696
 O847 O 0.75061 0.28418 0.31494
 O848 O 0.78111 0.24915 0.31948
 O849 O 0.68531 0.24868 0.28567
 O850 O 0.67915 0.21907 0.25007
 O851 O 0.71465 0.31415 0.24903
 O852 O 0.74991 0.32111 0.22110
 Zr853 Zr 0.74888 0.29410 0.25041
 O854 O 0.77256 0.27249 0.22712
 Zr855 Zr 0.70474 0.24971 0.25091
 O856 O 0.72619 0.22647 0.22681
 Zr857 Zr 0.74949 0.24987 0.29493
 O858 O 0.77255 0.22595 0.27314
 Zr859 Zr 0.75057 0.24841 0.20462
 O860 O 0.72654 0.27197 0.22613
 Zr861 Zr 0.79480 0.24812 0.24902
 O862 O 0.77351 0.27227 0.27259
 Zr863 Zr 0.75034 0.20396 0.24878
 O864 O 0.72706 0.22553 0.27298
 O865 O 0.72579 0.27315 0.27406
 O866 O 0.77409 0.22459 0.22527
 C867 C 0.75105 0.30722 0.30756
 C868 C 0.69162 0.30675 0.24816
 C869 C 0.69279 0.24824 0.30874
 C870 C 0.75046 0.19142 0.19138
 C871 C 0.80784 0.24805 0.19185
 C872 C 0.80747 0.19083 0.24880
 H873 H 0.78318 0.28391 0.21693
 H874 H 0.78293 0.21546 0.28452
 H875 H 0.71502 0.28400 0.28475
 H876 H 0.71479 0.21630 0.21614
 H877 H 0.70838 0.25953 0.18302
 H878 H 0.68041 0.24206 0.20932
 H879 H 0.82016 0.23614 0.28918
 H880 H 0.77554 0.25412 0.33664
 H881 H 0.76352 0.28952 0.18092
 H882 H 0.73791 0.31528 0.20804
 H883 H 0.76152 0.17948 0.28966
 H884 H 0.73793 0.20715 0.31533
 H885 H 0.79090 0.31605 0.26104
 H886 H 0.81861 0.28968 0.24021
 H887 H 0.68405 0.20748 0.26386
 H888 H 0.70958 0.17970 0.23660
 C889 C 0.26479 0.10620 0.07964
 C890 C 0.25193 0.10252 0.10237
 C891 C 0.23870 0.08009 0.10646
 C892 C 0.23836 0.06137 0.08794
 C893 C 0.25132 0.06473 0.06493
 C894 C 0.26449 0.08752 0.06107
 C895 C 0.25216 0.12178 0.12146
 C896 C 0.25222 0.13787 0.13749
 C897 C 0.25207 0.15668 0.15629
 C898 C 0.25173 0.17274 0.17235
 H899 H 0.27514 0.12349 0.07631
 H900 H 0.22852 0.07712 0.12392
 H901 H 0.22745 0.04446 0.09139
 H902 H 0.27505 0.09067 0.04386
 C903 C 0.77052 0.58329 0.60252
 C904 C 0.75229 0.60238 0.60249
 C905 C 0.73370 0.60280 0.58372
 C906 C 0.73329 0.58415 0.56511
 C907 C 0.75147 0.56492 0.56512
 C908 C 0.77014 0.56465 0.58391
 C909 C 0.75256 0.62146 0.62176
 C910 C 0.75265 0.63743 0.63791
 C911 C 0.75258 0.65615 0.65681
 C912 C 0.75233 0.67217 0.67291
 H913 H 0.78499 0.58281 0.61694
 H914 H 0.71951 0.61748 0.58353
 H915 H 0.71876 0.58462 0.55075
 H916 H 0.78435 0.55000 0.58411
 C917 C 0.76065 0.89381 0.08055
 C918 C 0.74746 0.89806 0.10297
 C919 C 0.73452 0.92075 0.10644
 C920 C 0.73468 0.93912 0.08753
 C921 C 0.74778 0.93507 0.06472
 C922 C 0.76085 0.91211 0.06160
 C923 C 0.74732 0.87914 0.12243
 C924 C 0.74734 0.86320 0.13863
 C925 C 0.74758 0.84445 0.15750
 C926 C 0.74800 0.82838 0.17356
 H927 H 0.77091 0.87637 0.07775
 H928 H 0.72419 0.92421 0.12373
 H929 H 0.72404 0.95628 0.09052
 H930 H 0.77177 0.90853 0.04472
 C931 C 0.22901 0.39736 0.58435
 C932 C 0.24718 0.39756 0.60352
 C933 C 0.26576 0.41631 0.60383
 C934 C 0.26622 0.43476 0.58500
 C935 C 0.24811 0.43458 0.56569
 C936 C 0.22945 0.41580 0.56552
 C937 C 0.24690 0.37842 0.62276
 C938 C 0.24683 0.36236 0.63885
 C939 C 0.24698 0.34353 0.65764
 C940 C 0.24735 0.32742 0.67367
 H941 H 0.21456 0.38294 0.58394
 H942 H 0.27991 0.41663 0.61857
 H943 H 0.28073 0.44911 0.58539
 H944 H 0.21528 0.41548 0.55080
 C945 C 0.72533 0.09491 0.90874
 C946 C 0.74783 0.10186 0.89684
 C947 C 0.77046 0.09007 0.90361
 C948 C 0.77060 0.07139 0.92221
 C949 C 0.74806 0.06422 0.93422
 C950 C 0.72542 0.07624 0.92734
 C951 C 0.74776 0.12115 0.87776
 C952 C 0.74782 0.13731 0.86178
 C953 C 0.74807 0.15624 0.84307
 C954 C 0.74846 0.17238 0.82708
 H955 H 0.70772 0.10393 0.90365
 H956 H 0.78800 0.09539 0.89459
 H957 H 0.78835 0.06274 0.92746
 H958 H 0.70781 0.07101 0.93628
 C959 C 0.22968 0.60225 0.41530
 C960 C 0.24800 0.60216 0.39628
 C961 C 0.26658 0.58341 0.39601
 C962 C 0.26690 0.56486 0.41474
 C963 C 0.24865 0.56493 0.43391
 C964 C 0.22998 0.58370 0.43402
 C965 C 0.24785 0.62142 0.37715
 C966 C 0.24785 0.63758 0.36117
 C967 C 0.24802 0.65652 0.34248
 C968 C 0.24835 0.67268 0.32651
 H969 H 0.21522 0.61667 0.41567
 H970 H 0.28084 0.58317 0.38138
 H971 H 0.28143 0.55051 0.41440
 H972 H 0.21572 0.58396 0.44863
 C973 C 0.27027 0.89738 0.91551
 C974 C 0.25205 0.89778 0.89640
 C975 C 0.23392 0.91697 0.89590
 C976 C 0.23403 0.93571 0.91443
 C977 C 0.25232 0.93543 0.93358
 C978 C 0.27041 0.91612 0.93404
 C979 C 0.25188 0.87848 0.87734
 C980 C 0.25166 0.86233 0.86137
 C981 C 0.25128 0.84342 0.84266
 C982 C 0.25080 0.82729 0.82668
 H983 H 0.28436 0.88260 0.91609
 H984 H 0.21971 0.91743 0.88122
 H985 H 0.21986 0.95040 0.91390
 H986 H 0.28460 0.91563 0.94872
 C987 C 0.77018 0.41562 0.39652
 C988 C 0.75194 0.39653 0.39668
 C989 C 0.73339 0.39623 0.41547
 C990 C 0.73303 0.41496 0.43399
 C991 C 0.75123 0.43417 0.43388
 C992 C 0.76985 0.43435 0.41505
 C993 C 0.75217 0.37734 0.37751
 C994 C 0.75222 0.36127 0.36146
 C995 C 0.75208 0.34245 0.34266
 C996 C 0.75175 0.32637 0.32662
 H997 H 0.78463 0.41602 0.38208
 H998 H 0.71918 0.38156 0.41576
 H999 H 0.71854 0.41457 0.44838
 H1000 H 0.78409 0.44898 0.41476
 C1001 C 0.09129 0.27407 0.09425
 C1002 C 0.10249 0.25145 0.10195
 C1003 C 0.09483 0.22867 0.09107
 C1004 C 0.07612 0.22848 0.07250
 C1005 C 0.06493 0.25115 0.06448
 C1006 C 0.07258 0.27394 0.07568
 C1007 C 0.12178 0.25159 0.12104
 C1008 C 0.13794 0.25160 0.13702
 C1009 C 0.15686 0.25147 0.15575
 C1010 C 0.17300 0.25120 0.17175
 H1011 H 0.09704 0.29180 0.10258
 H1012 H 0.10327 0.21104 0.09701
 H1013 H 0.07017 0.21064 0.06456
 H1014 H 0.06419 0.29163 0.06985
 C1015 C 0.60344 0.77033 0.58383
 C1016 C 0.60350 0.75186 0.60271
 C1017 C 0.58461 0.73342 0.60312
 C1018 C 0.56571 0.73345 0.58474
 C1019 C 0.56552 0.75197 0.56581
 C1020 C 0.58453 0.77038 0.56544
 C1021 C 0.62294 0.75181 0.62165
 C1022 C 0.63918 0.75168 0.63755
 C1023 C 0.65816 0.75140 0.65621
 C1024 C 0.67432 0.75102 0.67218
 H1025 H 0.61797 0.78466 0.58333
 H1026 H 0.58451 0.71904 0.61762
 H1027 H 0.55125 0.71905 0.58520
 H1028 H 0.58465 0.78478 0.55096
 C1029 C 0.07879 0.73722 0.89325
 C1030 C 0.10235 0.74811 0.89788
 C1031 C 0.10727 0.75921 0.92128
 C1032 C 0.08878 0.75933 0.94004
 C1033 C 0.06496 0.74825 0.93578
 C1034 C 0.06024 0.73732 0.91197
 C1035 C 0.12147 0.74801 0.87863
 C1036 C 0.13754 0.74802 0.86257
 C1037 C 0.15640 0.74819 0.84380
 C1038 C 0.17250 0.74850 0.82776
 H1039 H 0.07479 0.72854 0.87520
 H1040 H 0.12538 0.76792 0.92498
 H1041 H 0.09294 0.76873 0.95769
 H1042 H 0.04237 0.72825 0.90802
 C1043 C 0.60387 0.26657 0.41675
 C1044 C 0.60363 0.24793 0.39807
 C1045 C 0.58450 0.22973 0.39791
 C1046 C 0.56565 0.23020 0.41633
 C1047 C 0.56576 0.24892 0.43504
 C1048 C 0.58502 0.26707 0.43517
 C1049 C 0.62289 0.24759 0.37896
 C1050 C 0.63898 0.24744 0.36292
 C1051 C 0.65777 0.24747 0.34408
 C1052 C 0.67378 0.24769 0.32796
 H1053 H 0.61857 0.28074 0.41704
 H1054 H 0.58414 0.21523 0.38354
 H1055 H 0.55097 0.21601 0.41604
 H1056 H 0.58536 0.28163 0.44948
 C1057 C 0.92054 0.73909 0.10711
 C1058 C 0.89694 0.74983 0.10236
 C1059 C 0.89201 0.76079 0.07889
 C1060 C 0.91057 0.76100 0.06019
 C1061 C 0.93451 0.75024 0.06464
 C1062 C 0.93917 0.73927 0.08846
 C1063 C 0.87780 0.74969 0.12160
 C1064 C 0.86175 0.74967 0.13769
 C1065 C 0.84294 0.74976 0.15651
 C1066 C 0.82687 0.74999 0.17258
 H1067 H 0.92452 0.73044 0.12519
 H1068 H 0.87383 0.76931 0.07507
 H1069 H 0.90638 0.77021 0.04244
 H1070 H 0.95703 0.73022 0.09249
 C1071 C 0.39593 0.26749 0.58354
 C1072 C 0.39615 0.24895 0.60235
 C1073 C 0.41522 0.23069 0.60258
 C1074 C 0.43402 0.23099 0.58411
 C1075 C 0.43394 0.24961 0.56528
 C1076 C 0.41474 0.26782 0.56507
 C1077 C 0.37693 0.24876 0.62150
 C1078 C 0.36086 0.24870 0.63757
 C1079 C 0.34208 0.24878 0.65642
 C1080 C 0.32606 0.24900 0.67253
 H1081 H 0.38127 0.28171 0.58320
 H1082 H 0.41556 0.21625 0.61703
 H1083 H 0.44865 0.21675 0.58446
 H1084 H 0.41442 0.28231 0.55068
 C1085 C 0.89269 0.26262 0.92177
 C1086 C 0.89683 0.25109 0.89843
 C1087 C 0.91986 0.23921 0.89361
 C1088 C 0.93871 0.23886 0.91201
 C1089 C 0.93489 0.25043 0.93568
 C1090 C 0.91150 0.26230 0.94024
 C1091 C 0.87746 0.25138 0.87941
 C1092 C 0.86131 0.25150 0.86341
 C1093 C 0.84247 0.25145 0.84460
 C1094 C 0.82645 0.25121 0.82849
 H1095 H 0.87496 0.27198 0.92565
 H1096 H 0.92320 0.23008 0.87564
 H1097 H 0.95610 0.22897 0.90792
 H1098 H 0.90797 0.27196 0.95788
 C1099 C 0.39637 0.77043 0.41671
 C1100 C 0.39651 0.75207 0.39775
 C1101 C 0.41542 0.73365 0.39744
 C1102 C 0.43416 0.73362 0.41598
 C1103 C 0.43417 0.75206 0.43497
 C1104 C 0.41511 0.77043 0.43526
 C1105 C 0.37729 0.75212 0.37859
 C1106 C 0.36123 0.75207 0.36250
 C1107 C 0.34245 0.75187 0.34364
 C1108 C 0.32642 0.75154 0.32753
 H1109 H 0.38181 0.78475 0.41714
 H1110 H 0.41568 0.71934 0.38288
 H1111 H 0.44867 0.71926 0.41557
 H1112 H 0.41487 0.78477 0.44979
 C1113 C 0.09082 0.09603 0.23003
 C1114 C 0.10265 0.10272 0.25267
 C1115 C 0.09582 0.09066 0.27513
 C1116 C 0.07725 0.07196 0.27499
 C1117 C 0.06530 0.06506 0.25232
 C1118 C 0.07224 0.07734 0.22984
 C1119 C 0.12177 0.12197 0.25280
 C1120 C 0.13779 0.13809 0.25275
 C1121 C 0.15655 0.15695 0.25246
 C1122 C 0.17260 0.17303 0.25197
 H1123 H 0.09597 0.10523 0.21254
 H1124 H 0.10480 0.09576 0.29277
 H1125 H 0.07198 0.06306 0.29262
 H1126 H 0.06341 0.07229 0.21212
 C1127 C 0.59045 0.59702 0.73214
 C1128 C 0.60321 0.60300 0.75449
 C1129 C 0.59717 0.59038 0.77690
 C1130 C 0.57839 0.57189 0.77698
 C1131 C 0.56552 0.56593 0.75465
 C1132 C 0.57168 0.57853 0.73220
 C1133 C 0.62250 0.62207 0.75438
 C1134 C 0.63864 0.63806 0.75413
 C1135 C 0.65751 0.65679 0.75362
 C1136 C 0.67363 0.67278 0.75295
 H1137 H 0.59501 0.60664 0.71470
 H1138 H 0.60695 0.59485 0.79427
 H1139 H 0.57384 0.56224 0.79440
 H1140 H 0.56194 0.57402 0.71483
 C1141 C 0.91787 0.10431 0.76520
 C1142 C 0.89839 0.10336 0.74739
 C1143 C 0.89751 0.08359 0.72992
 C1144 C 0.91597 0.06479 0.73033
 C1145 C 0.93545 0.06556 0.74827
 C1146 C 0.93634 0.08551 0.76564
 C1147 C 0.87918 0.12252 0.74720
 C1148 C 0.86305 0.13853 0.74720
 C1149 C 0.84412 0.15723 0.74743
 C1150 C 0.82795 0.17318 0.74788
 H1151 H 0.91873 0.11951 0.77880
 H1152 H 0.88253 0.08268 0.71605
 H1153 H 0.91510 0.04962 0.71669
 H1154 H 0.95124 0.08639 0.77958
 C1155 C 0.41094 0.59864 0.26940
 C1156 C 0.39770 0.60357 0.24708
 C1157 C 0.40308 0.58973 0.22524
 C1158 C 0.42159 0.57098 0.22575
 C1159 C 0.43479 0.56590 0.24813
 C1160 C 0.42944 0.57988 0.26993
 C1161 C 0.37849 0.62271 0.24666
 C1162 C 0.36237 0.63872 0.24651
 C1163 C 0.34348 0.65743 0.24662
 C1164 C 0.32734 0.67341 0.24702
 H1165 H 0.40692 0.60924 0.28639
 H1166 H 0.39296 0.59341 0.20788
 H1167 H 0.42561 0.56037 0.20878
 H1168 H 0.43954 0.57617 0.28730
 C1169 C 0.09459 0.90827 0.76930
 C1170 C 0.10173 0.89703 0.74652
 C1171 C 0.09036 0.90467 0.72395
 C1172 C 0.07193 0.92351 0.72413
 C1173 C 0.06467 0.93494 0.74694
 C1174 C 0.07617 0.92711 0.76954
 C1175 C 0.12078 0.87770 0.74634
 C1176 C 0.13677 0.86156 0.74637
 C1177 C 0.15553 0.84270 0.74664
 C1178 C 0.17160 0.82664 0.74714
 H1179 H 0.10324 0.90247 0.78689
 H1180 H 0.09578 0.89612 0.70621
 H1181 H 0.06348 0.92936 0.70646
 H1182 H 0.07073 0.93547 0.78737
 C1183 C 0.58980 0.40213 0.22371
 C1184 C 0.60276 0.39627 0.24599
 C1185 C 0.59724 0.40934 0.26826
 C1186 C 0.57886 0.42823 0.26826
 C1187 C 0.56593 0.43421 0.24595
 C1188 C 0.57142 0.42102 0.22370
 C1189 C 0.62174 0.37690 0.24601
 C1190 C 0.63769 0.36073 0.24618
 C1191 C 0.65642 0.34185 0.24659
 C1192 C 0.67247 0.32579 0.24716
 H1193 H 0.59391 0.39211 0.20640
 H1194 H 0.60713 0.40494 0.28559
 H1195 H 0.57471 0.43821 0.28558
 H1196 H 0.56150 0.42541 0.20639
 C1197 C 0.92014 0.89402 0.26681
 C1198 C 0.89747 0.89800 0.25395
 C1199 C 0.89362 0.92055 0.24085
 C1200 C 0.91238 0.93904 0.24052
 C1201 C 0.93545 0.93528 0.25328
 C1202 C 0.93896 0.91245 0.26651
 C1203 C 0.87823 0.87886 0.25403
 C1204 C 0.86216 0.86280 0.25393
 C1205 C 0.84336 0.84398 0.25359
 C1206 C 0.82731 0.82790 0.25306
 H1207 H 0.92327 0.87667 0.27713
 H1208 H 0.87616 0.92378 0.23073
 H1209 H 0.90910 0.95606 0.22971
 H1210 H 0.95608 0.90907 0.27714
 C1211 C 0.41094 0.40204 0.77485
 C1212 C 0.39674 0.39710 0.75312
 C1213 C 0.40130 0.41081 0.73100
 C1214 C 0.42004 0.42933 0.73057
 C1215 C 0.43437 0.43424 0.75226
 C1216 C 0.42968 0.42056 0.77444
 C1217 C 0.37758 0.37792 0.75345
 C1218 C 0.36154 0.36183 0.75354
 C1219 C 0.34277 0.34299 0.75337
 C1220 C 0.32674 0.32691 0.75295
 H1221 H 0.40755 0.39155 0.79205
 H1222 H 0.39041 0.40715 0.71411
 H1223 H 0.42344 0.43980 0.71337
 H1224 H 0.44056 0.42425 0.79133
 C1225 C 0.07924 0.23693 0.89323
 C1226 C 0.10242 0.24860 0.89783
 C1227 C 0.10682 0.26030 0.92104
 C1228 C 0.08814 0.26033 0.93962
 C1229 C 0.06463 0.24860 0.93532
 C1230 C 0.06050 0.23693 0.91176
 C1231 C 0.12168 0.24861 0.87871
 C1232 C 0.13779 0.24864 0.86267
 C1233 C 0.15663 0.24869 0.84388
 C1234 C 0.17270 0.24877 0.82781
 H1235 H 0.07567 0.22772 0.87535
 H1236 H 0.12467 0.26953 0.92474
 H1237 H 0.09187 0.27009 0.95717
 H1238 H 0.04295 0.22723 0.90786
 C1239 C 0.60330 0.76910 0.41640
 C1240 C 0.60296 0.75056 0.39761
 C1241 C 0.58382 0.73238 0.39746
 C1242 C 0.56508 0.73274 0.41599
 C1243 C 0.56530 0.75135 0.43482
 C1244 C 0.58456 0.76950 0.43493
 C1245 C 0.62218 0.75025 0.37846
 C1246 C 0.63826 0.75004 0.36239
 C1247 C 0.65707 0.74988 0.34358
 C1248 C 0.67313 0.74982 0.32750
 H1249 H 0.61802 0.78326 0.41669
 H1250 H 0.58339 0.71794 0.38303
 H1251 H 0.55041 0.71855 0.41571
 H1252 H 0.58499 0.78397 0.44932
 C1253 C 0.89345 0.76121 0.92025
 C1254 C 0.89865 0.75062 0.89669
 C1255 C 0.92227 0.73986 0.89211
 C1256 C 0.94064 0.73963 0.91102
 C1257 C 0.93570 0.75016 0.93498
 C1258 C 0.91176 0.76102 0.93922
 C1259 C 0.87968 0.75070 0.87727
 C1260 C 0.86371 0.75074 0.86109
 C1261 C 0.84491 0.75074 0.84224
 C1262 C 0.82878 0.75069 0.82622
 H1263 H 0.87526 0.76974 0.92396
 H1264 H 0.92645 0.73148 0.87396
 H1265 H 0.95851 0.73058 0.90709
 H1266 H 0.90736 0.76998 0.95703
 C1267 C 0.39694 0.26875 0.41577
 C1268 C 0.39706 0.25036 0.39683
 C1269 C 0.41590 0.23186 0.39664
 C1270 C 0.43456 0.23177 0.41526
 C1271 C 0.43458 0.25024 0.43422
 C1272 C 0.41560 0.26870 0.43439
 C1273 C 0.37791 0.25048 0.37759
 C1274 C 0.36188 0.25058 0.36146
 C1275 C 0.34310 0.25066 0.34259
 C1276 C 0.32705 0.25069 0.32649
 H1277 H 0.38245 0.28314 0.41610
 H1278 H 0.41615 0.21752 0.38210
 H1279 H 0.44900 0.21734 0.41494
 H1280 H 0.41535 0.28306 0.44890
 C1281 C 0.10402 0.76659 0.08225
 C1282 C 0.10164 0.75111 0.10351
 C1283 C 0.08059 0.73537 0.10600
 C1284 C 0.06205 0.73502 0.08726
 C1285 C 0.06439 0.75042 0.06583
 C1286 C 0.08548 0.76627 0.06351
 C1287 C 0.12087 0.75128 0.12266
 C1288 C 0.13705 0.75137 0.13863
 C1289 C 0.15604 0.75142 0.15729
 C1290 C 0.17226 0.75140 0.17321
 H1291 H 0.12021 0.77886 0.08014
 H1292 H 0.07858 0.72331 0.12237
 H1293 H 0.04594 0.72264 0.08934
 H1294 H 0.08754 0.77837 0.04718
 C1295 C 0.60294 0.26891 0.58417
 C1296 C 0.60281 0.25065 0.60325
 C1297 C 0.58387 0.23226 0.60368
 C1298 C 0.56512 0.23215 0.58514
 C1299 C 0.56512 0.25048 0.56603
 C1300 C 0.58419 0.26883 0.56563
 C1301 C 0.62209 0.25077 0.62236
 C1302 C 0.63822 0.25085 0.63839
 C1303 C 0.65709 0.25089 0.65717
 C1304 C 0.67319 0.25088 0.67321
 H1305 H 0.61752 0.28321 0.58364
 H1306 H 0.58361 0.21803 0.61833
 H1307 H 0.55061 0.21779 0.58564
 H1308 H 0.58446 0.28309 0.55100
 C1309 C 0.91761 0.23279 0.10395
 C1310 C 0.89737 0.24971 0.10286
 C1311 C 0.89597 0.26727 0.08318
 C1312 C 0.91475 0.26797 0.06470
 C1313 C 0.93514 0.25112 0.06577
 C1314 C 0.93639 0.23346 0.08547
 C1315 C 0.87809 0.24911 0.12195
 C1316 C 0.86197 0.24869 0.13796
 C1317 C 0.84310 0.24832 0.15673
 C1318 C 0.82699 0.24812 0.17276
 H1319 H 0.91886 0.21910 0.11906
 H1320 H 0.88038 0.28043 0.08215
 H1321 H 0.91347 0.28166 0.04960
 H1322 H 0.95190 0.22020 0.08646
 C1323 C 0.39631 0.76841 0.58455
 C1324 C 0.39670 0.74977 0.60325
 C1325 C 0.41586 0.73161 0.60331
 C1326 C 0.43459 0.73211 0.58477
 C1327 C 0.43434 0.75082 0.56602
 C1328 C 0.41504 0.76894 0.56601
 C1329 C 0.37748 0.74933 0.62241
 C1330 C 0.36139 0.74903 0.63846
 C1331 C 0.34254 0.74879 0.65725
 C1332 C 0.32643 0.74868 0.67328
 H1333 H 0.38157 0.78255 0.58433
 H1334 H 0.41632 0.71709 0.61768
 H1335 H 0.44928 0.71794 0.58498
 H1336 H 0.41459 0.78350 0.55168
 C1337 C 0.22790 0.09525 0.90959
 C1338 C 0.25033 0.10281 0.89791
 C1339 C 0.27319 0.09160 0.90488
 C1340 C 0.27365 0.07295 0.92351
 C1341 C 0.25123 0.06536 0.93546
 C1342 C 0.22831 0.07660 0.92821
 C1343 C 0.24989 0.12201 0.87872
 C1344 C 0.24957 0.13810 0.86266
 C1345 C 0.24926 0.15693 0.84385
 C1346 C 0.24908 0.17302 0.82779
 H1347 H 0.21009 0.10371 0.90424
 H1348 H 0.29065 0.09729 0.89594
 H1349 H 0.29152 0.06454 0.92875
 H1350 H 0.21073 0.07074 0.93681
 C1351 C 0.73161 0.60317 0.41622
 C1352 C 0.74993 0.60325 0.39719
 C1353 C 0.76841 0.58440 0.39667
 C1354 C 0.76857 0.56553 0.41507
 C1355 C 0.75018 0.56531 0.43413
 C1356 C 0.73174 0.58429 0.43462
 C1357 C 0.74974 0.62263 0.37820
 C1358 C 0.74960 0.63883 0.36225
 C1359 C 0.74948 0.65776 0.34355
 C1360 C 0.74942 0.67390 0.32755
 H1361 H 0.71724 0.61766 0.41680
 H1362 H 0.78268 0.58431 0.38205
 H1363 H 0.78299 0.55109 0.41450
 H1364 H 0.71745 0.58439 0.44920
 C1365 C 0.76643 0.10278 0.08237
 C1366 C 0.74875 0.10236 0.10199
 C1367 C 0.73048 0.08332 0.10282
 C1368 C 0.72982 0.06481 0.08407
 C1369 C 0.74742 0.06522 0.06429
 C1370 C 0.76580 0.08427 0.06363
 C1371 C 0.74931 0.12150 0.12121
 C1372 C 0.74972 0.13754 0.13729
 C1373 C 0.75009 0.15633 0.15612
 C1374 C 0.75032 0.17237 0.17221
 H1375 H 0.78067 0.11739 0.08157
 H1376 H 0.71673 0.08281 0.11792
 H1377 H 0.71558 0.05021 0.08488
 H1378 H 0.77962 0.08475 0.04860
 C1379 C 0.26781 0.58375 0.60281
 C1380 C 0.24951 0.60278 0.60260
 C1381 C 0.23107 0.60311 0.58368
 C1382 C 0.23096 0.58452 0.56501
 C1383 C 0.24935 0.56547 0.56508
 C1384 C 0.26773 0.56516 0.58414
 C1385 C 0.24967 0.62199 0.62175
 C1386 C 0.24978 0.63809 0.63777
 C1387 C 0.24987 0.65694 0.65653
 C1388 C 0.24990 0.67302 0.67258
 H1389 H 0.28214 0.58332 0.61737
 H1390 H 0.21681 0.61772 0.58337
 H1391 H 0.21659 0.58494 0.55050
 H1392 H 0.28202 0.55059 0.58445
 C1393 C 0.76925 0.89600 0.91680
 C1394 C 0.75177 0.89672 0.89700
 C1395 C 0.73402 0.91623 0.89583
 C1396 C 0.73372 0.93493 0.91439
 C1397 C 0.75120 0.93429 0.93428
 C1398 C 0.76897 0.91470 0.93535
 C1399 C 0.75199 0.87740 0.87795
 C1400 C 0.75214 0.86123 0.86199
 C1401 C 0.75224 0.84232 0.84328
 C1402 C 0.75225 0.82622 0.82726
 H1403 H 0.78305 0.88099 0.91789
 H1404 H 0.72040 0.91695 0.88061
 H1405 H 0.71983 0.94986 0.91334
 H1406 H 0.78260 0.91395 0.95056
 C1407 C 0.26854 0.41573 0.39687
 C1408 C 0.25020 0.39674 0.39689
 C1409 C 0.23161 0.39643 0.41565
 C1410 C 0.23139 0.41499 0.43435
 C1411 C 0.24981 0.43400 0.43447
 C1412 C 0.26835 0.43429 0.41557
 C1413 C 0.25045 0.37758 0.37770
 C1414 C 0.25063 0.36151 0.36164
 C1415 C 0.25079 0.34269 0.34284
 C1416 C 0.25085 0.32663 0.32679
 H1417 H 0.28299 0.41616 0.38244
 H1418 H 0.21731 0.38185 0.41582
 H1419 H 0.21689 0.41458 0.44873
 H1420 H 0.28267 0.44884 0.41541
 C1421 C 0.26674 0.89554 0.08189
 C1422 C 0.24924 0.89670 0.10164
 C1423 C 0.23198 0.91664 0.10273
 C1424 C 0.23225 0.93539 0.08420
 C1425 C 0.24981 0.93436 0.06439
 C1426 C 0.26704 0.91429 0.06335
 C1427 C 0.24907 0.87751 0.12084
 C1428 C 0.24896 0.86150 0.13697
 C1429 C 0.24888 0.84277 0.15589
 C1430 C 0.24887 0.82679 0.17205
 H1431 H 0.28018 0.88021 0.08088
 H1432 H 0.21837 0.91772 0.11792
 H1433 H 0.21880 0.95071 0.08526
 H1434 H 0.28075 0.91326 0.04826
 C1435 C 0.73185 0.39617 0.58313
 C1436 C 0.75020 0.39624 0.60213
 C1437 C 0.76872 0.41505 0.60246
 C1438 C 0.76885 0.43377 0.58390
 C1439 C 0.75041 0.43387 0.56489
 C1440 C 0.73196 0.41490 0.56457
 C1441 C 0.74999 0.37707 0.62134
 C1442 C 0.74983 0.36107 0.63748
 C1443 C 0.74969 0.34236 0.65640
 C1444 C 0.74962 0.32639 0.67257
 H1445 H 0.71745 0.38170 0.58269
 H1446 H 0.78302 0.41525 0.61705
 H1447 H 0.78328 0.44821 0.58434
 H1448 H 0.71761 0.41472 0.55003
 C1449 C 0.08009 0.10604 0.76356
 C1450 C 0.10278 0.10259 0.75059
 C1451 C 0.10693 0.08030 0.73716
 C1452 C 0.08853 0.06146 0.73677
 C1453 C 0.06560 0.06456 0.74990
 C1454 C 0.06163 0.08725 0.76320
 C1455 C 0.12180 0.12191 0.75103
 C1456 C 0.13779 0.13805 0.75135
 C1457 C 0.15654 0.15691 0.75162
 C1458 C 0.17257 0.17299 0.75174
 H1459 H 0.07670 0.12322 0.77406
 H1460 H 0.12437 0.07752 0.72689
 H1461 H 0.09202 0.04467 0.72570
 H1462 H 0.04444 0.09021 0.77383
 C1463 C 0.58955 0.59803 0.27253
 C1464 C 0.60333 0.60341 0.25065
 C1465 C 0.59852 0.58994 0.22844
 C1466 C 0.58004 0.57114 0.22813
 C1467 C 0.56629 0.56563 0.25006
 C1468 C 0.57108 0.57923 0.27224
 C1469 C 0.62240 0.62271 0.25097
 C1470 C 0.63840 0.63885 0.25120
 C1471 C 0.65715 0.65773 0.25139
 C1472 C 0.67318 0.67384 0.25147
 H1473 H 0.59310 0.60835 0.28980
 H1474 H 0.60904 0.59397 0.21139
 H1475 H 0.57645 0.56086 0.21086
 H1476 H 0.56054 0.57521 0.28927
 C1477 C 0.08435 0.89674 0.26995
 C1478 C 0.10351 0.89793 0.25183
 C1479 C 0.10396 0.91779 0.23443
 C1480 C 0.08528 0.93635 0.23510
 C1481 C 0.06599 0.93521 0.25320
 C1482 C 0.06566 0.91530 0.27065
 C1483 C 0.12266 0.87874 0.25106
 C1484 C 0.13866 0.86262 0.25046
 C1485 C 0.15737 0.84374 0.24986
 C1486 C 0.17335 0.82760 0.24946
 H1487 H 0.08384 0.88146 0.28351
 H1488 H 0.11870 0.91887 0.22033
 H1489 H 0.08574 0.95155 0.22146
 H1490 H 0.05093 0.91417 0.28475
 C1491 C 0.59029 0.40364 0.72957
 C1492 C 0.60357 0.39735 0.75153
 C1493 C 0.59805 0.40970 0.77422
 C1494 C 0.57929 0.42820 0.77497
 C1495 C 0.56589 0.43445 0.75303
 C1496 C 0.57153 0.42214 0.73030
 C1497 C 0.62276 0.37818 0.75082
 C1498 C 0.63881 0.36209 0.75030
 C1499 C 0.65757 0.34323 0.74981
 C1500 C 0.67360 0.32712 0.74951
 H1501 H 0.59441 0.39422 0.71192
 H1502 H 0.60822 0.40500 0.79132
 H1503 H 0.57514 0.43760 0.79261
 H1504 H 0.56136 0.42686 0.71321
 C1505 C 0.91636 0.10305 0.26767
 C1506 C 0.89709 0.10203 0.24964
 C1507 C 0.89677 0.08256 0.23182
 C1508 C 0.91571 0.06423 0.23197
 C1509 C 0.93515 0.06527 0.24991
 C1510 C 0.93529 0.08473 0.26785
 C1511 C 0.87770 0.12099 0.24937
 C1512 C 0.86151 0.13693 0.24916
 C1513 C 0.84262 0.15565 0.24896
 C1514 C 0.82654 0.17169 0.24884
 H1515 H 0.91675 0.11801 0.28157
 H1516 H 0.88193 0.08157 0.21781
 H1517 H 0.91530 0.04929 0.21807
 H1518 H 0.95006 0.08568 0.28194
 C1519 C 0.40993 0.59805 0.77248
 C1520 C 0.39606 0.60252 0.75043
 C1521 C 0.40112 0.58847 0.72865
 C1522 C 0.42000 0.57008 0.72888
 C1523 C 0.43400 0.56564 0.75090
 C1524 C 0.42880 0.57966 0.77274
 C1525 C 0.37673 0.62156 0.75013
 C1526 C 0.36058 0.63755 0.74989
 C1527 C 0.34172 0.65633 0.74964
 C1528 C 0.32566 0.67240 0.74948
 H1529 H 0.40615 0.60879 0.78943
 H1530 H 0.39050 0.59175 0.71150
 H1531 H 0.42377 0.55934 0.71194
 H1532 H 0.43940 0.57634 0.78988
 C1533 C 0.89689 0.91606 0.73033
 C1534 C 0.89774 0.89700 0.74858
 C1535 C 0.91722 0.89669 0.76642
 C1536 C 0.93575 0.91542 0.76605
 C1537 C 0.93493 0.93462 0.74784
 C1538 C 0.91542 0.93479 0.72994
 C1539 C 0.87861 0.87778 0.74903
 C1540 C 0.86258 0.86170 0.74939
 C1541 C 0.84380 0.84288 0.74977
 C1542 C 0.82776 0.82680 0.75004
 H1543 H 0.88192 0.91646 0.71643
 H1544 H 0.91806 0.88202 0.78061
 H1545 H 0.95068 0.91504 0.77999
 H1546 H 0.91459 0.94943 0.71572
 C1547 C 0.41003 0.40202 0.22619
 C1548 C 0.39722 0.39686 0.24872
 C1549 C 0.40307 0.41047 0.27058
 C1550 C 0.42161 0.42919 0.26992
 C1551 C 0.43440 0.43447 0.24736
 C1552 C 0.42857 0.42075 0.22551
 C1553 C 0.37805 0.37767 0.24936
 C1554 C 0.36197 0.36162 0.24981
 C1555 C 0.34313 0.34283 0.25022
 C1556 C 0.32704 0.32679 0.25043
 H1557 H 0.40567 0.39160 0.20918
 H1558 H 0.39329 0.40662 0.28811
 H1559 H 0.42600 0.43960 0.28693
 H1560 H 0.43835 0.42460 0.20800
   
