data_POSCAR
  _audit_creation_date              2014-09-24
  _audit_creation_method            'ToBaCCo'
  _symmetry_space_group_name_H-M    'P1'
  _symmetry_Int_Tables_number       1
  _symmetry_cell_setting            triclinic
  loop_
  _symmetry_equiv_pos_as_xyz
 x,y,z
_cell_length_a 59.6161
_cell_length_b 59.7832
_cell_length_c 59.5155
_cell_angle_alpha 89.424500
_cell_angle_beta 89.259600
_cell_angle_gamma 89.401800
loop_
  _atom_site_label
  _atom_site_type_symbol
  _atom_site_fract_x
  _atom_site_fract_y
  _atom_site_fract_z
C1 C 0.11444 -0.00142 0.22805
 C2 C 0.12895 0.01945 0.22900
 C3 C 0.14231 0.02007 0.24733
 C4 C 0.14009 -0.00031 0.26316
 C5 C 0.13092 -0.02116 0.22950
 C6 C 0.14430 -0.02060 0.24789
 C7 C 0.10134 -0.00185 0.25040
 C8 C 0.11484 -0.00129 0.26875
 H9 H 0.12805 0.03302 0.21673
 H10 H 0.15110 0.00020 0.27807
 H11 H 0.13117 -0.03494 0.21773
 H12 H 0.08317 -0.00276 0.25161
 C13 C 0.38706 -0.00101 0.73097
 C14 C 0.37076 -0.02058 0.73220
 C15 C 0.35743 -0.02053 0.75096
 C16 C 0.36161 -0.00075 0.76682
 C17 C 0.37223 0.01999 0.73284
 C18 C 0.35894 0.02020 0.75167
 C19 C 0.39963 -0.00210 0.75173
 C20 C 0.38556 -0.00192 0.77144
 H21 H 0.37054 -0.03389 0.71990
 H22 H 0.35059 -0.00071 0.78204
 H23 H 0.37340 0.03413 0.72127
 H24 H 0.41784 -0.00179 0.75235
 C25 C 0.88457 0.49916 0.23038
 C26 C 0.86880 0.47926 0.23211
 C27 C 0.85565 0.47923 0.25094
 C28 C 0.85933 0.49932 0.26648
 C29 C 0.86941 0.51986 0.23224
 C30 C 0.85630 0.52005 0.25117
 C31 C 0.89796 0.49858 0.25222
 C32 C 0.88469 0.49872 0.27111
 H33 H 0.86881 0.46575 0.22000
 H34 H 0.84847 0.49933 0.28180
 H35 H 0.87040 0.53400 0.22066
 H36 H 0.91617 0.49894 0.25270
 C37 C 0.61515 0.49831 0.73026
 C38 C 0.62961 0.51922 0.73100
 C39 C 0.64320 0.51990 0.74916
 C40 C 0.64123 0.49951 0.76504
 C41 C 0.63169 0.47861 0.73151
 C42 C 0.64529 0.47921 0.74973
 C43 C 0.60232 0.49786 0.75275
 C44 C 0.61604 0.49847 0.77094
 H45 H 0.62853 0.53277 0.71873
 H46 H 0.65241 0.50006 0.77981
 H47 H 0.63179 0.46480 0.71977
 H48 H 0.58417 0.49687 0.75418
 C49 C 0.22730 0.11260 0.99926
 C50 C 0.22801 0.12740 1.02000
 C51 C 0.24624 0.14086 1.02051
 C52 C 0.26223 0.13842 1.00018
 C53 C 0.22884 0.12874 0.97919
 C54 C 0.24715 0.14221 0.97967
 C55 C 0.24965 0.09967 0.99914
 C56 C 0.26790 0.11326 0.99960
 H57 H 0.21558 0.12674 1.03352
 H58 H 0.27708 0.14949 1.00061
 H59 H 0.21714 0.12880 0.96534
 H60 H 0.25093 0.08155 0.99845
 C61 C 0.73037 0.38400 0.99930
 C62 C 0.73174 0.36860 0.98057
 C63 C 0.75152 0.35485 0.98075
 C64 C 0.76627 0.35907 0.99977
 C65 C 0.73209 0.37017 1.01949
 C66 C 0.75194 0.35644 1.01982
 C67 C 0.75101 0.39694 0.99821
 C68 C 0.77088 0.38308 0.99848
 H69 H 0.71989 0.36856 0.96682
 H70 H 0.78158 0.34822 0.99991
 H71 H 0.72076 0.37163 1.03389
 H72 H 0.75148 0.41512 0.99823
 C73 C 0.23278 0.88883 0.49959
 C74 C 0.23485 0.87292 0.47976
 C75 C 0.25372 0.85995 0.48001
 C76 C 0.26898 0.86396 0.50029
 C77 C 0.23451 0.87391 0.52054
 C78 C 0.25347 0.86099 0.52102
 C79 C 0.25453 0.90238 0.49908
 C80 C 0.27348 0.88929 0.49950
 H81 H 0.22286 0.87258 0.46617
 H82 H 0.28432 0.85325 0.50053
 H83 H 0.22272 0.87484 0.53460
 H84 H 0.25491 0.92054 0.49933
 C85 C 0.72966 0.61398 0.49791
 C86 C 0.73032 0.62831 0.51898
 C87 C 0.74864 0.64161 0.51992
 C88 C 0.76477 0.63948 0.49966
 C89 C 0.73147 0.63054 0.47821
 C90 C 0.74986 0.64384 0.47913
 C91 C 0.75190 0.60088 0.49768
 C92 C 0.77025 0.61430 0.49857
 H93 H 0.71773 0.62753 0.53234
 H94 H 0.77970 0.65042 0.50045
 H95 H 0.71986 0.63100 0.46428
 H96 H 0.75305 0.58277 0.49661
 C97 C -0.00169 0.22680 0.11357
 C98 C 0.01848 0.22779 0.12908
 C99 C 0.01882 0.24645 0.14195
 C100 C -0.00114 0.26254 0.13828
 C101 C -0.02226 0.22916 0.12903
 C102 C -0.02198 0.24789 0.14192
 C103 C -0.00097 0.24861 0.09981
 C104 C -0.00071 0.26729 0.11282
 H105 H 0.03195 0.21538 0.12905
 H106 H -0.00087 0.27772 0.14889
 H107 H -0.03626 0.21765 0.12904
 H108 H -0.00096 0.24925 0.08156
 C109 C -0.00258 0.73021 0.38523
 C110 C -0.02110 0.73208 0.36984
 C111 C -0.02065 0.75187 0.35631
 C112 C -0.00165 0.76638 0.36053
 C113 C 0.01870 0.73217 0.37065
 C114 C 0.01928 0.75118 0.35778
 C115 C -0.00329 0.75181 0.39906
 C116 C -0.00273 0.77080 0.38603
 H117 H -0.03484 0.72025 0.36948
 H118 H -0.00128 0.78176 0.34987
 H119 H 0.03280 0.72055 0.37179
 H120 H -0.00298 0.75205 0.41731
 C121 C 0.49888 0.23001 0.88639
 C122 C 0.47904 0.23252 0.87059
 C123 C 0.47954 0.25149 0.85781
 C124 C 0.50000 0.26639 0.86190
 C125 C 0.51976 0.23166 0.87128
 C126 C 0.52044 0.25074 0.85856
 C127 C 0.49876 0.25149 0.90030
 C128 C 0.49940 0.27053 0.88740
 H129 H 0.46531 0.22071 0.87015
 H130 H 0.50041 0.28184 0.85136
 H131 H 0.53367 0.21978 0.87201
 H132 H 0.49920 0.25162 0.91854
 C133 C 0.49828 0.73236 0.61327
 C134 C 0.51876 0.73284 0.62841
 C135 C 0.51951 0.75119 0.64168
 C136 C 0.49961 0.76753 0.63875
 C137 C 0.47804 0.73455 0.62918
 C138 C 0.47871 0.75297 0.64247
 C139 C 0.49891 0.75445 0.59999
 C140 C 0.49958 0.77284 0.61339
 H141 H 0.53205 0.72025 0.62795
 H142 H 0.50021 0.78247 0.64968
 H143 H 0.46393 0.72318 0.62918
 H144 H 0.49859 0.75548 0.58176
 C145 C 0.88567 1.00178 0.77211
 C146 C 0.87021 1.02058 0.77037
 C147 C 0.85605 1.01958 0.75121
 C148 C 0.85984 0.99993 0.73727
 C149 C 0.87109 0.98087 0.77182
 C150 C 0.85759 0.97984 0.75359
 C151 C 0.89874 1.00137 0.74970
 C152 C 0.88512 1.00040 0.73142
 H153 H 0.87049 1.03492 0.78147
 H154 H 0.84874 0.99906 0.72244
 H155 H 0.87205 0.96760 0.78441
 H156 H 0.91692 1.00194 0.74839
 C157 C 0.38655 0.50038 0.27440
 C158 C 0.37075 0.52057 0.27196
 C159 C 0.35755 0.51969 0.25346
 C160 C 0.36124 0.49866 0.23909
 C161 C 0.37137 0.47996 0.27415
 C162 C 0.35818 0.47902 0.25572
 C163 C 0.39989 0.49947 0.25222
 C164 C 0.38657 0.49859 0.23376
 H165 H 0.37077 0.53477 0.28321
 H166 H 0.35037 0.49790 0.22409
 H167 H 0.37176 0.46683 0.28692
 H168 H 0.41809 0.49982 0.25118
 C169 C 0.61378 1.00196 0.26765
 C170 C 0.62820 0.98071 0.26528
 C171 C 0.64131 0.98059 0.24630
 C172 C 0.63892 1.00188 0.23157
 C173 C 0.62931 1.02037 0.26647
 C174 C 0.64308 1.02039 0.24673
 C175 C 0.60029 1.00333 0.24585
 C176 C 0.61353 1.00321 0.22690
 H177 H 0.62691 0.96641 0.27663
 H178 H 0.64976 1.00187 0.21622
 H179 H 0.62954 1.03378 0.27868
 H180 H 0.58208 1.00310 0.24540
 C181 C 0.11398 0.50130 0.76821
 C182 C 0.12861 0.48022 0.76614
 C183 C 0.14173 0.47992 0.74721
 C184 C 0.13922 0.50087 0.73212
 C185 C 0.13028 0.52079 0.76669
 C186 C 0.14344 0.52065 0.74787
 C187 C 0.10061 0.50246 0.74637
 C188 C 0.11389 0.50217 0.72748
 H189 H 0.12741 0.46606 0.77767
 H190 H 0.15008 0.50075 0.71679
 H191 H 0.13069 0.53411 0.77898
 H192 H 0.08240 0.50240 0.74587
 C193 C 0.77064 0.88742 0.00175
 C194 C 0.76820 0.87137 0.02181
 C195 C 0.75000 0.85783 0.02050
 C196 C 0.73592 0.86147 -0.00074
 C197 C 0.77099 0.87252 -0.01895
 C198 C 0.75288 0.85899 -0.02028
 C199 C 0.74828 0.90026 0.00073
 C200 C 0.73014 0.88661 -0.00056
 H201 H 0.77926 0.87138 0.03618
 H202 H 0.72116 0.85035 -0.00183
 H203 H 0.78399 0.87324 -0.03192
 H204 H 0.74689 0.91838 0.00134
 C205 C 0.27321 0.38784 0.50101
 C206 C 0.27073 0.37212 0.52132
 C207 C 0.25229 0.35886 0.52042
 C208 C 0.23803 0.36243 0.49929
 C209 C 0.27309 0.37265 0.48053
 C210 C 0.25473 0.35940 0.47960
 C211 C 0.25105 0.40103 0.50005
 C212 C 0.23266 0.38766 0.49917
 H213 H 0.28196 0.37215 0.53557
 H214 H 0.22308 0.35153 0.49852
 H215 H 0.28592 0.37303 0.46739
 H216 H 0.24996 0.41917 0.50042
 C217 C 0.26818 0.60862 0.00127
 C218 C 0.26661 0.62431 -0.01913
 C219 C 0.24799 0.63774 -0.01892
 C220 C 0.23264 0.63445 0.00187
 C221 C 0.26677 0.62386 0.02167
 C222 C 0.24826 0.63734 0.02209
 C223 C 0.24609 0.59567 0.00156
 C224 C 0.22748 0.60923 0.00182
 H225 H 0.27824 0.62361 -0.03333
 H226 H 0.21757 0.64554 0.00220
 H227 H 0.27907 0.62358 0.03500
 H228 H 0.24523 0.57756 0.00058
 C229 C 0.77054 0.11326 0.50037
 C230 C 0.76896 0.12773 0.48061
 C231 C 0.74955 0.14209 0.48099
 C232 C 0.73544 0.13931 0.50119
 C233 C 0.76995 0.12812 0.51956
 C234 C 0.75062 0.14249 0.52008
 C235 C 0.74952 0.10097 0.50140
 C236 C 0.73009 0.11543 0.50184
 H237 H 0.78001 0.12632 0.46598
 H238 H 0.72047 0.15061 0.50162
 H239 H 0.78216 0.12755 0.53300
 H240 H 0.74846 0.08285 0.50063
 C241 C 1.00017 0.77042 0.88868
 C242 C 1.02013 0.76846 0.87237
 C243 C 1.01912 0.75031 0.85873
 C244 C 0.99821 0.73579 0.86254
 C245 C 0.97942 0.77034 0.87391
 C246 C 0.97835 0.75228 0.86029
 C247 C 0.99968 0.74808 0.90154
 C248 C 0.99868 0.72997 0.88779
 H249 H 1.03430 0.77975 0.87235
 H250 H 0.99733 0.72107 0.85134
 H251 H 0.96628 0.78308 0.87473
 H252 H 1.00044 0.74668 0.91973
 C253 C 0.49889 0.27597 0.38838
 C254 C 0.51902 0.27385 0.37228
 C255 C 0.51827 0.25542 0.35900
 C256 C 0.49745 0.24081 0.36291
 C257 C 0.47828 0.27543 0.37342
 C258 C 0.47749 0.25709 0.36015
 C259 C 0.49845 0.25387 0.40165
 C260 C 0.49772 0.23549 0.38826
 H261 H 0.53308 0.28528 0.37214
 H262 H 0.49679 0.22586 0.35199
 H263 H 0.46499 0.28802 0.37393
 H264 H 0.49903 0.25282 0.41987
 C265 C 1.00096 0.26849 0.61065
 C266 C 0.98028 0.26608 0.62593
 C267 C 0.98064 0.24722 0.63899
 C268 C 1.00180 0.23253 0.63578
 C269 C 1.02098 0.26727 0.62636
 C270 C 1.02150 0.24853 0.63947
 C271 C 1.00209 0.24678 0.59714
 C272 C 1.00247 0.22796 0.61036
 H273 H 0.96585 0.27732 0.62518
 H274 H 1.00223 0.21726 0.64658
 H275 H 1.03408 0.27979 0.62652
 H276 H 1.00148 0.24630 0.57892
 C277 C 0.50023 0.76829 0.11185
 C278 C 0.47959 0.76582 0.12717
 C279 C 0.48009 0.74704 0.14034
 C280 C 0.50136 0.73249 0.13719
 C281 C 0.52028 0.76732 0.12753
 C282 C 0.52095 0.74865 0.14075
 C283 C 0.50150 0.74650 0.09847
 C284 C 0.50203 0.72776 0.11180
 H285 H 0.46506 0.77693 0.12634
 H286 H 0.50191 0.71729 0.14809
 H287 H 0.53330 0.77991 0.12757
 H288 H 0.50084 0.74590 0.08025
 O289 O -0.01118 0.98487 0.93686
 O290 O 0.02580 0.99529 0.93595
 O291 O -0.01403 0.93569 0.99066
 O292 O -0.00785 0.93401 1.02721
 O293 O -0.06415 0.98945 0.98708
 O294 O -0.06382 1.02772 0.99641
 O295 O 0.04279 0.99432 1.04953
 O296 O 0.04519 0.95946 1.03424
 O297 O 0.04968 1.04065 0.99634
 O298 O 0.03169 1.04659 0.96039
 O299 O -0.00348 1.04856 1.04282
 O300 O -0.03913 1.03120 1.04926
 O301 O 0.01184 1.01282 1.06292
 O302 O -0.02904 1.00260 1.06352
 O303 O 0.01439 1.06158 1.01140
 O304 O 0.00352 1.06154 0.97098
 O305 O 0.06250 1.00965 1.01483
 O306 O 0.06151 0.97140 0.99913
 O307 O -0.04186 1.00405 0.94994
 O308 O -0.04653 1.03960 0.96837
 O309 O -0.05150 0.95818 1.00520
 O310 O -0.03246 0.95486 1.04195
 O311 O 0.00330 0.94848 0.95879
 O312 O 0.04042 0.96656 0.95641
 Zr313 Zr 0.00952 0.98243 0.96509
 O314 O 0.03083 1.00260 0.98397
 Zr315 Zr -0.01734 0.96415 1.01090
 O316 O 0.00351 0.98286 1.03166
 Zr317 Zr -0.03562 1.00965 0.98418
 O318 O -0.01623 1.03049 1.00437
 Zr319 Zr 0.03476 0.98824 1.01598
 O320 O 0.01500 0.96679 0.99647
 Zr321 Zr 0.01585 1.03394 0.98984
 O322 O -0.00433 1.01483 0.96846
 Zr323 Zr -0.01036 1.01501 1.03566
 O324 O -0.03253 0.99554 1.01656
 O325 O -0.02230 0.97782 0.97912
 O326 O 0.02138 1.02015 1.02162
 C327 C -0.03032 0.99453 0.93429
 C328 C -0.00537 0.93296 0.97103
 C329 C -0.06700 0.97017 0.99623
 C330 C 0.03143 1.00399 1.06518
 C331 C 0.06509 1.02913 1.00606
 C332 C 0.00599 1.06403 1.03116
 H333 H 0.04542 1.00391 0.97600
 H334 H -0.02407 1.04504 1.00598
 H335 H -0.03190 0.96838 0.96971
 H336 H 0.00530 0.97485 1.04615
 H337 H 0.04156 0.94639 1.02493
 H338 H 0.00626 0.93705 1.03511
 H339 H -0.01014 1.06727 0.97869
 H340 H -0.03452 1.04399 0.95763
 H341 H 0.07490 0.97180 1.00884
 H342 H 0.03839 0.95771 0.94258
 H343 H -0.04468 1.04191 1.03780
 H344 H -0.06625 1.02271 1.01215
 H345 H 0.02113 1.01117 0.93448
 H346 H 0.04302 1.03542 0.95544
 H347 H -0.04447 0.96600 1.04510
 H348 H -0.02120 0.98910 1.06930
 O349 O 0.49610 0.55315 0.54498
 O350 O 0.46142 0.53701 0.54922
 O351 O 0.54225 0.49745 0.55263
 O352 O 0.55002 0.46534 0.53585
 O353 O 0.55059 0.54486 0.49698
 O354 O 0.53231 0.55001 0.46229
 O355 O 0.48508 0.44001 0.49298
 O356 O 0.49736 0.43924 0.52917
 O357 O 0.43733 0.49226 0.48846
 O358 O 0.43656 0.53160 0.49794
 O359 O 0.48905 0.48811 0.43980
 O360 O 0.52818 0.49706 0.43838
 O361 O 0.50307 0.45275 0.46141
 O362 O 0.54056 0.47130 0.45593
 O363 O 0.45808 0.50666 0.45278
 O364 O 0.45363 0.54378 0.47160
 O365 O 0.45038 0.46097 0.50627
 O366 O 0.46695 0.46115 0.54434
 O367 O 0.51355 0.56613 0.51317
 O368 O 0.50357 0.56603 0.47406
 O369 O 0.56373 0.51389 0.51529
 O370 O 0.56247 0.47423 0.50374
 O371 O 0.51170 0.51661 0.56585
 O372 O 0.47237 0.50396 0.56494
 Zr373 Zr 0.49037 0.51933 0.53801
 O374 O 0.46886 0.49970 0.51879
 Zr375 Zr 0.53576 0.49286 0.51840
 O376 O 0.51602 0.47158 0.49911
 Zr377 Zr 0.51650 0.53816 0.49202
 O378 O 0.49651 0.51881 0.47095
 Zr379 Zr 0.48390 0.46829 0.51353
 O380 O 0.50469 0.48713 0.53460
 Zr381 Zr 0.46516 0.51355 0.48651
 O382 O 0.48444 0.53482 0.50664
 Zr383 Zr 0.51043 0.48654 0.46758
 O384 O 0.53215 0.50700 0.48613
 O385 O 0.52200 0.52444 0.52372
 O386 O 0.47857 0.48163 0.48145
 C387 C 0.50482 0.56874 0.53283
 C388 C 0.53081 0.50691 0.56834
 C389 C 0.56628 0.53313 0.50594
 C390 C 0.49352 0.43740 0.47324
 C391 C 0.43488 0.47259 0.49685
 C392 C 0.46952 0.49686 0.43731
 H393 H 0.45430 0.49825 0.52680
 H394 H 0.49512 0.52658 0.45629
 H395 H 0.53160 0.53386 0.53314
 H396 H 0.52364 0.45687 0.49790
 H397 H 0.50433 0.44416 0.54327
 H398 H 0.54001 0.45252 0.53353
 H399 H 0.46343 0.54708 0.45847
 H400 H 0.48840 0.56909 0.48033
 H401 H 0.45943 0.44652 0.54290
 H402 H 0.47431 0.51289 0.57874
 H403 H 0.52295 0.51238 0.43463
 H404 H 0.54199 0.53763 0.45675
 H405 H 0.45594 0.54591 0.53625
 H406 H 0.43239 0.52565 0.51297
 H407 H 0.56662 0.48191 0.48950
 H408 H 0.54368 0.45814 0.46564
 O409 O 0.51247 0.01624 0.43568
 O410 O 0.47644 0.00268 0.43575
 O411 O 0.51038 0.06746 0.48614
 O412 O 0.50193 0.06997 0.52262
 O413 O 0.56456 0.01859 0.48574
 O414 O 0.56735 -0.01938 0.49746
 O415 O 0.45701 0.00582 0.54916
 O416 O 0.45182 0.03992 0.53207
 O417 O 0.45541 -0.04256 0.49833
 O418 O 0.47523 -0.04792 0.46260
 O419 O 0.50768 -0.04395 0.54536
 O420 O 0.54205 -0.02329 0.55001
 O421 O 0.48929 -0.00911 0.56330
 O422 O 0.52888 0.00465 0.56313
 O423 O 0.49157 -0.05953 0.51490
 O424 O 0.50396 -0.06034 0.47453
 O425 O 0.43947 -0.01226 0.51531
 O426 O 0.43747 0.02552 0.49768
 O427 O 0.54451 0.00048 0.44957
 O428 O 0.55210 -0.03367 0.46995
 O429 O 0.54872 0.04917 0.50230
 O430 O 0.52848 0.05213 0.53873
 O431 O 0.49489 0.05201 0.45523
 O432 O 0.45920 0.03111 0.45473
 Zr433 Zr 0.49107 0.01799 0.46389
 O434 O 0.47119 -0.00337 0.48399
 Zr435 Zr 0.51505 0.04028 0.50836
 O436 O 0.49551 0.02040 0.53030
 Zr437 Zr 0.53805 -0.00437 0.48420
 O438 O 0.52005 -0.02625 0.50560
 Zr439 Zr 0.46521 0.01165 0.51522
 O440 O 0.48342 0.03418 0.49438
 Zr441 Zr 0.48875 -0.03305 0.49151
 O442 O 0.50770 -0.01291 0.46901
 Zr443 Zr 0.51213 -0.01024 0.53601
 O444 O 0.53286 0.01057 0.51574
 O445 O 0.52200 0.02589 0.47742
 O446 O 0.48130 -0.01868 0.52250
 C447 C 0.53247 0.00833 0.43349
 C448 C 0.50227 0.06866 0.46629
 C449 C 0.56547 0.03840 0.49380
 C450 C 0.46889 -0.00223 0.56522
 C451 C 0.43878 -0.03219 0.50754
 C452 C 0.49944 -0.06051 0.53484
 H453 H 0.45698 -0.00624 0.47618
 H454 H 0.52903 -0.04003 0.50803
 H455 H 0.53102 0.03571 0.46741
 H456 H 0.49267 0.02867 0.54437
 H457 H 0.45451 0.05300 0.52208
 H458 H 0.48861 0.06568 0.53165
 H459 H 0.51773 -0.06463 0.48269
 H460 H 0.54056 -0.03985 0.46002
 H461 H 0.42396 0.02420 0.50749
 H462 H 0.46076 0.03944 0.44030
 H463 H 0.54830 -0.03446 0.53945
 H464 H 0.56889 -0.01353 0.51285
 H465 H 0.48271 -0.01269 0.43496
 H466 H 0.46275 -0.03825 0.45735
 H467 H 0.54119 0.04209 0.54262
 H468 H 0.51990 0.01777 0.56801
 O469 O -0.04841 0.45149 0.99598
 O470 O -0.03036 0.44779 0.96156
 O471 O 0.00541 0.44995 1.04360
 O472 O 0.03659 0.46892 1.04987
 O473 O -0.04609 0.50138 1.04823
 O474 O -0.05350 0.53482 1.02807
 O475 O 0.06079 0.51250 0.98359
 O476 O 0.06404 0.47685 0.99764
 O477 O 0.00983 0.51111 0.93490
 O478 O -0.02871 0.49838 0.93442
 O479 O 0.00862 0.56108 0.98395
 O480 O -0.00250 0.56295 1.02306
 O481 O 0.04484 0.54316 1.00003
 O482 O 0.02417 0.54808 1.03683
 O483 O -0.00780 0.54588 0.95345
 O484 O -0.04342 0.52433 0.94990
 O485 O 0.04218 0.49664 0.94917
 O486 O 0.04463 0.45928 0.96764
 O487 O -0.06467 0.48235 1.01181
 O488 O -0.06737 0.52101 0.99957
 O489 O -0.01406 0.48626 1.06259
 O490 O 0.02456 0.50069 1.06120
 O491 O -0.01129 0.43445 1.01337
 O492 O 0.00343 0.43517 0.97416
 Zr493 Zr -0.01499 0.46117 0.99029
 O494 O 0.00386 0.48135 0.96800
 Zr495 Zr 0.00815 0.48401 1.03495
 O496 O 0.02854 0.50448 1.01445
 Zr497 Zr -0.03860 0.50592 1.01386
 O498 O -0.02022 0.52796 0.99298
 Zr499 Zr 0.03427 0.48963 0.98306
 O500 O 0.01638 0.46762 1.00473
 Zr501 Zr -0.01252 0.51211 0.96248
 O502 O -0.03283 0.49083 0.98256
 Zr503 Zr 0.01124 0.53437 1.00706
 O504 O -0.00850 0.51477 1.02950
 O505 O -0.02244 0.47583 1.02111
 O506 O 0.01845 0.52015 0.97596
 C507 C -0.06533 0.46233 1.00409
 C508 C -0.00260 0.43332 1.03298
 C509 C -0.03417 0.49388 1.06450
 C510 C 0.06154 0.53251 0.99119
 C511 C 0.03029 0.50451 0.93305
 C512 C 0.00062 0.56229 0.96407
 H513 H 0.00651 0.47313 0.95386
 H514 H -0.02905 0.54185 0.99070
 H515 H -0.03151 0.46605 1.03112
 H516 H 0.04283 0.50713 1.02219
 H517 H 0.05999 0.46264 1.00529
 H518 H 0.04969 0.47301 1.04041
 H519 H -0.04803 0.53742 0.95895
 H520 H -0.06932 0.51404 0.98471
 H521 H 0.05940 0.46178 0.96022
 H522 H -0.00448 0.42083 0.97671
 H523 H -0.01771 0.56550 1.01706
 H524 H -0.04182 0.54180 1.03728
 H525 H -0.04038 0.45962 0.95549
 H526 H -0.02127 0.48393 0.93097
 H527 H 0.01573 0.51442 1.06442
 H528 H 0.03790 0.53954 1.04075
 O529 O 0.01277 0.43562 0.50938
 O530 O -0.00076 0.43566 0.47324
 O531 O 0.06442 0.48544 0.50731
 O532 O 0.06727 0.52165 0.49858
 O533 O 0.01531 0.48569 0.56145
 O534 O -0.02265 0.49752 0.56431
 O535 O 0.00316 0.54842 0.45365
 O536 O 0.03726 0.53113 0.44844
 O537 O -0.04570 0.49815 0.45227
 O538 O -0.05141 0.46279 0.47211
 O539 O -0.04675 0.54527 0.50442
 O540 O -0.02611 0.54990 0.53886
 O541 O -0.01173 0.56275 0.48599
 O542 O 0.00206 0.56262 0.52566
 O543 O -0.06261 0.51500 0.48837
 O544 O -0.06372 0.47483 0.50099
 O545 O -0.01520 0.51478 0.43622
 O546 O 0.02257 0.49696 0.43414
 O547 O -0.00296 0.44969 0.54148
 O548 O -0.03720 0.47028 0.54898
 O549 O 0.04611 0.50192 0.54554
 O550 O 0.04946 0.53802 0.52517
 O551 O 0.04878 0.45471 0.49182
 O552 O 0.02795 0.45428 0.45599
 Zr553 Zr 0.01475 0.46360 0.48789
 O554 O -0.00652 0.48368 0.46799
 Zr555 Zr 0.03734 0.50782 0.51182
 O556 O 0.01763 0.52973 0.49223
 Zr557 Zr -0.00765 0.48417 0.53492
 O558 O -0.02939 0.50560 0.51693
 Zr559 Zr 0.00878 0.51464 0.46193
 O560 O 0.03121 0.49379 0.48016
 Zr561 Zr -0.03624 0.49146 0.48562
 O562 O -0.01624 0.46897 0.50457
 Zr563 Zr -0.01307 0.53570 0.50891
 O564 O 0.00759 0.51544 0.52968
 O565 O 0.02268 0.47716 0.51884
 O566 O -0.02160 0.52217 0.47808
 C567 C 0.00484 0.43358 0.52944
 C568 C 0.06551 0.46561 0.49928
 C569 C 0.03521 0.49361 0.56232
 C570 C -0.00482 0.56452 0.46553
 C571 C -0.03523 0.50717 0.43559
 C572 C -0.06342 0.53491 0.49618
 H573 H -0.00944 0.47586 0.45378
 H574 H -0.04320 0.50818 0.52593
 H575 H 0.03243 0.46718 0.52791
 H576 H 0.02603 0.54366 0.48935
 H577 H 0.05030 0.52110 0.45113
 H578 H 0.06304 0.53067 0.48526
 H579 H -0.06808 0.48315 0.51467
 H580 H -0.04334 0.46027 0.53748
 H581 H 0.02131 0.50667 0.42060
 H582 H 0.03621 0.43987 0.45758
 H583 H -0.03744 0.53953 0.54513
 H584 H -0.01681 0.51287 0.56576
 H585 H -0.01617 0.43496 0.47957
 H586 H -0.04166 0.45734 0.45971
 H587 H 0.03940 0.54206 0.53789
 H588 H 0.01520 0.56742 0.51659
 O589 O 0.51031 0.93507 0.00989
 O590 O 0.49658 0.93512 -0.02622
 O591 O 0.56226 0.98448 0.00758
 O592 O 0.56533 1.02065 -0.00130
 O593 O 0.51326 0.98531 0.06183
 O594 O 0.47533 0.99734 0.06468
 O595 O 0.50142 1.04781 -0.04608
 O596 O 0.53534 1.03025 -0.05132
 O597 O 0.45216 0.99785 -0.04735
 O598 O 0.44623 0.96256 -0.02736
 O599 O 0.45145 1.04508 0.00476
 O600 O 0.47221 1.04965 0.03914
 O601 O 0.48665 1.06231 -0.01377
 O602 O 0.50041 1.06216 0.02589
 O603 O 0.43537 1.01488 -0.01119
 O604 O 0.43398 0.97480 0.00142
 O605 O 0.48276 1.01426 -0.06344
 O606 O 0.52037 0.99616 -0.06552
 O607 O 0.49477 0.94932 0.04200
 O608 O 0.46064 0.97009 0.04947
 O609 O 0.54415 1.00123 0.04578
 O610 O 0.54773 1.03721 0.02535
 O611 O 0.54634 0.95386 -0.00784
 O612 O 0.52543 0.95345 -0.04359
 Zr613 Zr 0.51237 0.96297 -0.01169
 O614 O 0.49124 0.98317 -0.03161
 Zr615 Zr 0.53535 1.00708 0.01207
 O616 O 0.51574 1.02909 -0.00750
 Zr617 Zr 0.49023 0.98380 0.03534
 O618 O 0.46860 1.00532 0.01731
 Zr619 Zr 0.50675 1.01400 -0.03776
 O620 O 0.52904 0.99302 -0.01953
 Zr621 Zr 0.46159 0.99119 -0.01396
 O622 O 0.48146 0.96860 0.00504
 Zr623 Zr 0.48509 1.03531 0.00920
 O624 O 0.50567 1.01495 0.02998
 O625 O 0.52047 0.97655 0.01921
 O626 O 0.47643 1.02178 -0.02159
 C627 C 0.50246 0.93314 0.02999
 C628 C 0.56317 0.96463 -0.00043
 C629 C 0.53323 0.99308 0.06262
 C630 C 0.49360 1.06400 -0.03422
 C631 C 0.46269 1.00675 -0.06406
 C632 C 0.43469 1.03480 -0.00340
 H633 H 0.48825 0.97534 -0.04580
 H634 H 0.45482 1.00801 0.02633
 H635 H 0.53018 0.96653 0.02829
 H636 H 0.52424 1.04295 -0.01041
 H637 H 0.54831 1.02012 -0.04863
 H638 H 0.56112 1.02979 -0.01455
 H639 H 0.42981 0.98306 0.01520
 H640 H 0.45441 0.96011 0.03800
 H641 H 0.51919 1.00587 -0.07908
 H642 H 0.53355 0.93896 -0.04198
 H643 H 0.46081 1.03936 0.04545
 H644 H 0.48130 1.01264 0.06611
 H645 H 0.48122 0.93450 -0.01976
 H646 H 0.45592 0.95703 -0.03977
 H647 H 0.53769 1.04137 0.03805
 H648 H 0.51361 1.06682 0.01682
 O649 O 0.43616 0.50810 0.01339
 O650 O 0.43677 0.47194 0.00020
 O651 O 0.48558 0.50737 0.06552
 O652 O 0.52194 0.49920 0.06876
 O653 O 0.48584 0.56054 0.01555
 O654 O 0.49791 0.56289 -0.02241
 O655 O 0.55002 0.45368 0.00536
 O656 O 0.53236 0.44889 0.03946
 O657 O 0.50027 0.45099 -0.04399
 O658 O 0.46466 0.47017 -0.05029
 O659 O 0.54684 0.50348 -0.04535
 O660 O 0.55090 0.53809 -0.02499
 O661 O 0.56422 0.48576 -0.00989
 O662 O 0.56348 0.52549 0.00347
 O663 O 0.51684 0.48695 -0.06128
 O664 O 0.47643 0.49894 -0.06282
 O665 O 0.51672 0.43568 -0.01307
 O666 O 0.49843 0.43402 0.02462
 O667 O 0.45007 0.53997 -0.00265
 O668 O 0.47099 0.54701 -0.03697
 O669 O 0.50191 0.54540 0.04676
 O670 O 0.53825 0.52554 0.05071
 O671 O 0.45516 0.49129 0.04979
 O672 O 0.45531 0.45535 0.02929
 Zr673 Zr 0.46445 0.48703 0.01580
 O674 O 0.48508 0.46711 -0.00506
 Zr675 Zr 0.50826 0.51172 0.03850
 O676 O 0.53068 0.49214 0.01920
 Zr677 Zr 0.48477 0.53372 -0.00707
 O678 O 0.50674 0.51570 -0.02840
 Zr679 Zr 0.51600 0.46166 0.01061
 O680 O 0.49463 0.47995 0.03264
 Zr681 Zr 0.49302 0.48427 -0.03500
 O682 O 0.47000 0.50319 -0.01541
 Zr683 Zr 0.53685 0.50831 -0.01172
 O684 O 0.51602 0.52909 0.00851
 O685 O 0.47760 0.51813 0.02347
 O686 O 0.52372 0.47733 -0.01998
 C687 C 0.43396 0.52794 0.00522
 C688 C 0.46581 0.49909 0.06655
 C689 C 0.49357 0.56184 0.03552
 C690 C 0.56614 0.46551 -0.00268
 C691 C 0.50937 0.43466 -0.03320
 C692 C 0.53671 0.49496 -0.06205
 H693 H 0.47744 0.45282 -0.00787
 H694 H 0.50938 0.52448 -0.04232
 H695 H 0.46739 0.52721 0.03305
 H696 H 0.54459 0.48956 0.02776
 H697 H 0.52211 0.45166 0.05239
 H698 H 0.53115 0.48595 0.06479
 H699 H 0.48460 0.51263 -0.06726
 H700 H 0.46104 0.53539 -0.04296
 H701 H 0.50835 0.42063 0.02364
 H702 H 0.44075 0.45689 0.03742
 H703 H 0.54055 0.54405 -0.03651
 H704 H 0.51326 0.56458 -0.01655
 H705 H 0.43619 0.47800 -0.01532
 H706 H 0.45917 0.45799 -0.04034
 H707 H 0.54229 0.53806 0.04047
 H708 H 0.56827 0.51668 0.01675
 O709 O -0.01574 0.00912 0.56337
 O710 O 0.02117 -0.00322 0.56532
 O711 O -0.01429 0.06128 0.51319
 O712 O -0.00542 0.06519 0.47707
 O713 O -0.06477 0.00884 0.51075
 O714 O -0.06376 -0.02886 0.49889
 O715 O 0.04666 0.00459 0.45298
 O716 O 0.04768 0.03867 0.47036
 O717 O 0.04955 -0.04484 0.50303
 O718 O 0.02913 -0.05272 0.53759
 O719 O -0.00068 -0.04827 0.45386
 O720 O -0.03573 -0.02914 0.44717
 O721 O 0.01666 -0.01218 0.43708
 O722 O -0.02400 -0.00021 0.43506
 O723 O 0.01512 -0.06380 0.48500
 O724 O 0.00147 -0.06603 0.52496
 O725 O 0.06365 -0.01295 0.48743
 O726 O 0.06151 0.02423 0.50548
 O727 O -0.04554 -0.00825 0.54773
 O728 O -0.04847 -0.04283 0.52716
 O729 O -0.05079 0.04094 0.49548
 O730 O -0.02922 0.04601 0.45983
 O731 O 0.00091 0.04593 0.54477
 O732 O 0.03755 0.02651 0.54768
 Zr733 Zr 0.00725 0.01227 0.53644
 O734 O 0.02980 -0.00718 0.51716
 Zr735 Zr -0.01625 0.03434 0.49080
 O736 O 0.00597 0.01641 0.46972
 Zr737 Zr -0.03654 -0.01230 0.51360
 O738 O -0.01579 -0.03232 0.49290
 Zr739 Zr 0.03603 0.00913 0.48637
 O740 O 0.01500 0.02978 0.50644
 Zr741 Zr 0.01524 -0.03767 0.50851
 O742 O -0.00641 -0.01944 0.53027
 Zr743 Zr -0.00770 -0.01501 0.46298
 O744 O -0.03110 0.00381 0.48239
 O745 O -0.02346 0.01873 0.52130
 O746 O 0.02299 -0.02195 0.47804
 C747 C -0.03527 0.00026 0.56442
 C748 C -0.00695 0.06248 0.53332
 C749 C -0.06693 0.02882 0.50299
 C750 C 0.03654 -0.00406 0.43631
 C751 C 0.06564 -0.03306 0.49484
 C752 C 0.00799 -0.06474 0.46478
 H753 H 0.04382 -0.00941 0.52564
 H754 H -0.02357 -0.04649 0.48996
 H755 H -0.03365 0.02788 0.53082
 H756 H 0.00887 0.02521 0.45586
 H757 H 0.04348 0.05124 0.48034
 H758 H 0.00896 0.06216 0.46919
 H759 H -0.01172 -0.07076 0.51636
 H760 H -0.03729 -0.04800 0.53827
 H761 H 0.07554 0.02418 0.49635
 H762 H 0.03457 0.03428 0.56209
 H763 H -0.04197 -0.04061 0.45751
 H764 H -0.06522 -0.02260 0.48351
 H765 H 0.01577 -0.01882 0.56573
 H766 H 0.03961 -0.04192 0.54412
 H767 H -0.04089 0.03532 0.45537
 H768 H -0.01553 0.01326 0.43049
 O769 O 0.73893 0.18512 0.26180
 O770 O 0.77684 0.18646 0.25528
 O771 O 0.72810 0.23657 0.31225
 O772 O 0.73247 0.27324 0.31501
 O773 O 0.68439 0.23245 0.25431
 O774 O 0.68829 0.24430 0.21633
 O775 O 0.78811 0.30038 0.26040
 O776 O 0.78762 0.28315 0.29482
 O777 O 0.80260 0.25003 0.21288
 O778 O 0.78715 0.21319 0.20509
 O779 O 0.74896 0.29382 0.20116
 O780 O 0.71164 0.29818 0.21503
 O781 O 0.75895 0.31311 0.23922
 O782 O 0.71689 0.31091 0.24541
 O783 O 0.76934 0.26373 0.18924
 O784 O 0.76041 0.22313 0.18765
 O785 O 0.81108 0.26791 0.24522
 O786 O 0.80705 0.24993 0.28293
 O787 O 0.71001 0.19763 0.24014
 O788 O 0.70804 0.21776 0.20494
 O789 O 0.69279 0.24984 0.28694
 O790 O 0.70933 0.28740 0.29231
 O791 O 0.74792 0.20603 0.30042
 O792 O 0.78709 0.20632 0.28566
 Zr793 Zr 0.75779 0.21413 0.26712
 O794 O 0.78037 0.23479 0.24921
 Zr795 Zr 0.72702 0.25770 0.28384
 O796 O 0.74886 0.28012 0.26737
 Zr797 Zr 0.71502 0.23234 0.23627
 O798 O 0.73575 0.25418 0.21755
 Zr799 Zr 0.78125 0.26623 0.26450
 O800 O 0.76012 0.24496 0.28379
 Zr801 Zr 0.76867 0.24132 0.21669
 O802 O 0.74743 0.21836 0.23358
 Zr803 Zr 0.73852 0.28497 0.23404
 O804 O 0.71516 0.26411 0.25122
 O805 O 0.72505 0.22644 0.26913
 O806 O 0.77124 0.27262 0.23153
 C807 C 0.72119 0.18210 0.25022
 C808 C 0.73708 0.21722 0.31543
 C809 C 0.67911 0.24039 0.27365
 C810 C 0.77719 0.31592 0.25012
 C811 C 0.81613 0.26031 0.22569
 C812 C 0.76058 0.28320 0.18632
 H813 H 0.79542 0.22767 0.24899
 H814 H 0.72954 0.25606 0.20232
 H815 H 0.71500 0.21612 0.27747
 H816 H 0.74900 0.29424 0.27586
 H817 H 0.78307 0.27294 0.30722
 H818 H 0.74649 0.28181 0.31332
 H819 H 0.74714 0.23041 0.18082
 H820 H 0.72099 0.20793 0.20118
 H821 H 0.81987 0.26030 0.28388
 H822 H 0.78468 0.19215 0.29415
 H823 H 0.70694 0.28639 0.20461
 H824 H 0.68443 0.25944 0.22189
 H825 H 0.77453 0.18580 0.23887
 H826 H 0.79801 0.20888 0.21684
 H827 H 0.69831 0.29024 0.28029
 H828 H 0.72291 0.31655 0.25966
 O829 O 0.75399 0.70773 0.69988
 O830 O 0.78827 0.70346 0.71625
 O831 O 0.70734 0.70050 0.75600
 O832 O 0.69907 0.71774 0.78771
 O833 O 0.69941 0.75587 0.70764
 O834 O 0.71802 0.79009 0.70214
 O835 O 0.76414 0.76023 0.81326
 O836 O 0.75194 0.72444 0.81426
 O837 O 0.81258 0.76403 0.76080
 O838 O 0.81347 0.75470 0.72143
 O839 O 0.76082 0.81304 0.76414
 O840 O 0.72191 0.81438 0.75541
 O841 O 0.74635 0.79159 0.80019
 O842 O 0.70922 0.79712 0.78115
 O843 O 0.79188 0.79993 0.74577
 O844 O 0.79663 0.78067 0.70893
 O845 O 0.79927 0.74646 0.79227
 O846 O 0.78215 0.70888 0.79237
 O847 O 0.73685 0.73934 0.68648
 O848 O 0.74670 0.77823 0.68637
 O849 O 0.68596 0.73790 0.73880
 O850 O 0.68714 0.74953 0.77861
 O851 O 0.73795 0.68718 0.73695
 O852 O 0.77720 0.68824 0.74956
 Zr853 Zr 0.75931 0.71490 0.73385
 O854 O 0.78079 0.73415 0.75348
 Zr855 Zr 0.71382 0.73471 0.76003
 O856 O 0.73357 0.75402 0.78132
 Zr857 Zr 0.73354 0.76055 0.71444
 O858 O 0.75351 0.78163 0.73382
 Zr859 Zr 0.76562 0.73967 0.78495
 O860 O 0.74481 0.71862 0.76609
 Zr861 Zr 0.78479 0.76619 0.73939
 O862 O 0.76553 0.74600 0.71812
 Zr863 Zr 0.73944 0.78532 0.76617
 O864 O 0.71776 0.76674 0.74564
 O865 O 0.72774 0.72908 0.72838
 O866 O 0.77126 0.77155 0.77141
 C867 C 0.74566 0.71980 0.68403
 C868 C 0.71888 0.68472 0.74685
 C869 C 0.68353 0.74725 0.71948
 C870 C 0.75556 0.77982 0.81579
 C871 C 0.81496 0.75551 0.78050
 C872 C 0.78033 0.81551 0.75519
 H873 H 0.79528 0.72611 0.75500
 H874 H 0.75498 0.79614 0.72587
 H875 H 0.71816 0.71964 0.71896
 H876 H 0.72582 0.75532 0.79605
 H877 H 0.74479 0.71043 0.80944
 H878 H 0.70926 0.71964 0.80050
 H879 H 0.78681 0.79362 0.70532
 H880 H 0.76191 0.77203 0.68345
 H881 H 0.78963 0.71031 0.80707
 H882 H 0.77524 0.67439 0.74076
 H883 H 0.72695 0.81780 0.73987
 H884 H 0.70833 0.79580 0.71449
 H885 H 0.79402 0.71633 0.70740
 H886 H 0.81740 0.73965 0.72734
 H887 H 0.68307 0.76366 0.77077
 H888 H 0.70586 0.78749 0.79436
 O889 O 0.29476 0.20106 0.74999
 O890 O 0.29683 0.21334 0.71329
 O891 O 0.30185 0.26204 0.78806
 O892 O 0.28346 0.29411 0.79287
 O893 O 0.24934 0.21399 0.80496
 O894 O 0.21367 0.20675 0.78941
 O895 O 0.23748 0.31130 0.72700
 O896 O 0.27412 0.31387 0.73735
 O897 O 0.23257 0.25438 0.68634
 O898 O 0.24435 0.21552 0.68978
 O899 O 0.18638 0.26248 0.73934
 O900 O 0.18691 0.25825 0.77911
 O901 O 0.20710 0.29999 0.74765
 O902 O 0.20408 0.28531 0.78766
 O903 O 0.19894 0.24082 0.71049
 O904 O 0.21974 0.20418 0.70981
 O905 O 0.24955 0.28714 0.69463
 O906 O 0.28855 0.28921 0.70899
 O907 O 0.26422 0.18948 0.77028
 O908 O 0.22475 0.18780 0.76221
 O909 O 0.26682 0.24646 0.81336
 O910 O 0.25252 0.28543 0.80781
 O911 O 0.31464 0.23981 0.75970
 O912 O 0.31138 0.24772 0.71895
 Zr913 Zr 0.28605 0.23394 0.74017
 O914 O 0.26505 0.25073 0.71715
 Zr915 Zr 0.26712 0.26470 0.78284
 O916 O 0.24607 0.28328 0.76135
 Zr917 Zr 0.24209 0.21718 0.77062
 O918 O 0.21936 0.23377 0.74922
 Zr919 Zr 0.25899 0.28339 0.72837
 O920 O 0.28171 0.26737 0.75048
 Zr921 Zr 0.23331 0.23594 0.71668
 O922 O 0.25517 0.21732 0.73766
 Zr923 Zr 0.21501 0.26726 0.75905
 O924 O 0.23537 0.24965 0.78246
 O925 O 0.27334 0.23203 0.77285
 O926 O 0.22735 0.26896 0.72619
 C927 C 0.28365 0.18629 0.76121
 C928 C 0.31752 0.25174 0.77724
 C929 C 0.25881 0.22724 0.81865
 C930 C 0.21796 0.31448 0.73579
 C931 C 0.23972 0.27396 0.68115
 C932 C 0.18346 0.25139 0.72128
 H933 H 0.27229 0.25084 0.70210
 H934 H 0.20506 0.22555 0.74953
 H935 H 0.28368 0.22393 0.78305
 H936 H 0.24453 0.29869 0.76710
 H937 H 0.28870 0.30989 0.74421
 H938 H 0.28038 0.30558 0.78121
 H939 H 0.20720 0.20158 0.72054
 H940 H 0.23061 0.18309 0.74734
 H941 H 0.28608 0.30288 0.69974
 H942 H 0.32567 0.23946 0.72146
 H943 H 0.18436 0.24211 0.77688
 H944 H 0.20848 0.21987 0.79814
 H945 H 0.28392 0.20395 0.70934
 H946 H 0.25887 0.22138 0.68423
 H947 H 0.23908 0.27762 0.81371
 H948 H 0.21328 0.29894 0.78860
 O949 O 0.20163 0.75043 0.29565
 O950 O 0.21384 0.71393 0.29816
 O951 O 0.26297 0.78823 0.30213
 O952 O 0.29519 0.79245 0.28353
 O953 O 0.21480 0.80457 0.24962
 O954 O 0.20746 0.78868 0.21404
 O955 O 0.31198 0.72626 0.23805
 O956 O 0.31467 0.73701 0.27462
 O957 O 0.25467 0.68601 0.23381
 O958 O 0.21571 0.68983 0.24579
 O959 O 0.26295 0.73808 0.18695
 O960 O 0.25889 0.77775 0.18711
 O961 O 0.30067 0.74647 0.20747
 O962 O 0.28616 0.78629 0.20401
 O963 O 0.24110 0.70966 0.19993
 O964 O 0.20440 0.70949 0.22097
 O965 O 0.28760 0.69430 0.25058
 O966 O 0.28983 0.70909 0.28947
 O967 O 0.19006 0.77029 0.26492
 O968 O 0.18829 0.76188 0.22549
 O969 O 0.24746 0.81297 0.26685
 O970 O 0.28648 0.80705 0.25241
 O971 O 0.24056 0.76030 0.31534
 O972 O 0.24840 0.71962 0.31245
 Zr973 Zr 0.23457 0.74044 0.28693
 O974 O 0.25123 0.71714 0.26605
 Zr975 Zr 0.26560 0.78249 0.26738
 O976 O 0.28405 0.76070 0.24642
 Zr977 Zr 0.21783 0.77027 0.24266
 O978 O 0.23428 0.74855 0.22003
 Zr979 Zr 0.28403 0.72805 0.25970
 O980 O 0.26814 0.75045 0.28232
 Zr981 Zr 0.23632 0.71633 0.23432
 O982 O 0.21784 0.73762 0.25610
 Zr983 Zr 0.26791 0.75808 0.21540
 O984 O 0.25045 0.78177 0.23565
 O985 O 0.23279 0.77282 0.27386
 O986 O 0.26947 0.72553 0.22810
 C987 C 0.18684 0.76149 0.28445
 C988 C 0.25259 0.77776 0.31799
 C989 C 0.22818 0.81825 0.25891
 C990 C 0.31518 0.73475 0.21841
 C991 C 0.27429 0.68082 0.24092
 C992 C 0.25173 0.72011 0.18425
 H993 H 0.25128 0.70226 0.27346
 H994 H 0.22601 0.74871 0.20574
 H995 H 0.22472 0.78313 0.28415
 H996 H 0.29952 0.76632 0.24473
 H997 H 0.31076 0.74404 0.28917
 H998 H 0.30665 0.78079 0.28039
 H999 H 0.20183 0.72000 0.20829
 H1000 H 0.18352 0.74713 0.23146
 H1001 H 0.30350 0.69979 0.28703
 H1002 H 0.24018 0.72237 0.32678
 H1003 H 0.24270 0.77554 0.18463
 H1004 H 0.22065 0.79725 0.20873
 H1005 H 0.20445 0.70978 0.28529
 H1006 H 0.22166 0.68439 0.26031
 H1007 H 0.27866 0.81275 0.23890
 H1008 H 0.29979 0.78734 0.21324
 O1009 O 0.18589 0.73158 0.75479
 O1010 O 0.18905 0.74495 0.71833
 O1011 O 0.24163 0.68576 0.76149
 O1012 O 0.27873 0.68650 0.75961
 O1013 O 0.22824 0.73653 0.81285
 O1014 O 0.23512 0.77535 0.81454
 O1015 O 0.30364 0.75142 0.71333
 O1016 O 0.29136 0.71551 0.70862
 O1017 O 0.24949 0.79462 0.70209
 O1018 O 0.21132 0.79774 0.71609
 O1019 O 0.28764 0.80212 0.76086
 O1020 O 0.29028 0.78247 0.79638
 O1021 O 0.31174 0.76893 0.74605
 O1022 O 0.30805 0.75585 0.78624
 O1023 O 0.25832 0.81444 0.73984
 O1024 O 0.21679 0.81136 0.74598
 O1025 O 0.27108 0.76520 0.69048
 O1026 O 0.25787 0.72608 0.68885
 O1027 O 0.19366 0.74974 0.78726
 O1028 O 0.20873 0.78637 0.79456
 O1029 O 0.24957 0.70689 0.80137
 O1030 O 0.28873 0.70680 0.78635
 O1031 O 0.21179 0.69784 0.74099
 O1032 O 0.21290 0.71818 0.70473
 Zr1033 Zr 0.21660 0.73250 0.73697
 O1034 O 0.23690 0.75488 0.71850
 Zr1035 Zr 0.25948 0.71513 0.76814
 O1036 O 0.28165 0.73620 0.75026
 Zr1037 Zr 0.22788 0.75807 0.78472
 O1038 O 0.24916 0.78112 0.76830
 Zr1039 Zr 0.26995 0.74252 0.71768
 O1040 O 0.24933 0.71892 0.73450
 Zr1041 Zr 0.23889 0.78569 0.73491
 O1042 O 0.21619 0.76425 0.75206
 Zr1043 Zr 0.28184 0.76774 0.76546
 O1044 O 0.26117 0.74595 0.78476
 O1045 O 0.22660 0.72677 0.76995
 O1046 O 0.27184 0.77393 0.73254
 C1047 C 0.18032 0.73968 0.77400
 C1048 C 0.22361 0.68245 0.75046
 C1049 C 0.23793 0.71756 0.81617
 C1050 C 0.31698 0.76164 0.72641
 C1051 C 0.26174 0.78439 0.68745
 C1052 C 0.27651 0.81751 0.75063
 H1053 H 0.23090 0.75657 0.70315
 H1054 H 0.24881 0.79526 0.77677
 H1055 H 0.21670 0.71619 0.77814
 H1056 H 0.29674 0.72919 0.74974
 H1057 H 0.28253 0.70169 0.71076
 H1058 H 0.28832 0.69081 0.74665
 H1059 H 0.22215 0.81661 0.76066
 H1060 H 0.19927 0.79058 0.78161
 H1061 H 0.26924 0.72765 0.67664
 H1062 H 0.19936 0.70865 0.70491
 H1063 H 0.27780 0.79261 0.80073
 H1064 H 0.25060 0.77095 0.81867
 H1065 H 0.18582 0.76026 0.72376
 H1066 H 0.20813 0.78653 0.70448
 H1067 H 0.28962 0.71755 0.79884
 H1068 H 0.31553 0.74315 0.77855
 O1069 O 0.25326 0.20790 0.19992
 O1070 O 0.28764 0.20381 0.21620
 O1071 O 0.20682 0.20026 0.25614
 O1072 O 0.19858 0.21734 0.28796
 O1073 O 0.19841 0.25563 0.20795
 O1074 O 0.21675 0.29003 0.20251
 O1075 O 0.26342 0.26020 0.31340
 O1076 O 0.25144 0.22429 0.31434
 O1077 O 0.31164 0.26447 0.26080
 O1078 O 0.31247 0.25515 0.22138
 O1079 O 0.25965 0.31307 0.26449
 O1080 O 0.22071 0.31425 0.25582
 O1081 O 0.24538 0.29149 0.30046
 O1082 O 0.20814 0.29679 0.28152
 O1083 O 0.29071 0.30018 0.24597
 O1084 O 0.29545 0.28112 0.20904
 O1085 O 0.29854 0.24678 0.29229
 O1086 O 0.28174 0.20904 0.29234
 O1087 O 0.23586 0.23943 0.18665
 O1088 O 0.24548 0.27840 0.18661
 O1089 O 0.18518 0.23751 0.23913
 O1090 O 0.18638 0.24909 0.27895
 O1091 O 0.23744 0.18718 0.23695
 O1092 O 0.27672 0.18842 0.24948
 Zr1093 Zr 0.25864 0.21502 0.23389
 O1094 O 0.28005 0.23436 0.25351
 Zr1095 Zr 0.21311 0.23449 0.26027
 O1096 O 0.23279 0.25387 0.28155
 Zr1097 Zr 0.23252 0.26056 0.21467
 O1098 O 0.25241 0.28172 0.23404
 Zr1099 Zr 0.26494 0.23971 0.28504
 O1100 O 0.24421 0.21857 0.26619
 Zr1101 Zr 0.28379 0.26645 0.23948
 O1102 O 0.26460 0.24620 0.21821
 Zr1103 Zr 0.23841 0.28524 0.26644
 O1104 O 0.21679 0.26657 0.24593
 O1105 O 0.22697 0.22903 0.22857
 O1106 O 0.27032 0.27164 0.27154
 C1107 C 0.24478 0.21994 0.18413
 C1108 C 0.21840 0.18459 0.24688
 C1109 C 0.18264 0.24685 0.21982
 C1110 C 0.25474 0.27975 0.31600
 C1111 C 0.31413 0.25598 0.28050
 C1112 C 0.27912 0.31566 0.25552
 H1113 H 0.29460 0.22642 0.25498
 H1114 H 0.25377 0.29626 0.22613
 H1115 H 0.21743 0.21954 0.21914
 H1116 H 0.22508 0.25509 0.29630
 H1117 H 0.24439 0.21025 0.30948
 H1118 H 0.20876 0.21933 0.30073
 H1119 H 0.28554 0.29402 0.20550
 H1120 H 0.26072 0.27229 0.18362
 H1121 H 0.28924 0.21050 0.30703
 H1122 H 0.27482 0.17458 0.24065
 H1123 H 0.22567 0.31771 0.24026
 H1124 H 0.20705 0.29563 0.21490
 H1125 H 0.29326 0.21673 0.20734
 H1126 H 0.31657 0.24016 0.22732
 H1127 H 0.18219 0.26320 0.27114
 H1128 H 0.20491 0.28714 0.29474
 O1129 O 0.75056 0.71554 0.30548
 O1130 O 0.71478 0.70973 0.29206
 O1131 O 0.79403 0.70162 0.24938
 O1132 O 0.79981 0.71425 0.21461
 O1133 O 0.80243 0.76291 0.28791
 O1134 O 0.78268 0.79743 0.28919
 O1135 O 0.73145 0.75346 0.18650
 O1136 O 0.74585 0.71789 0.18979
 O1137 O 0.68636 0.76325 0.23996
 O1138 O 0.68779 0.75911 0.28044
 O1139 O 0.73652 0.81163 0.22661
 O1140 O 0.77623 0.81397 0.23349
 O1141 O 0.74902 0.78621 0.19390
 O1142 O 0.78740 0.79387 0.20914
 O1143 O 0.70660 0.80084 0.24804
 O1144 O 0.70429 0.78688 0.28780
 O1145 O 0.69871 0.74163 0.21097
 O1146 O 0.71735 0.70461 0.21548
 O1147 O 0.76754 0.74856 0.31319
 O1148 O 0.75515 0.78694 0.30834
 O1149 O 0.81495 0.74100 0.25921
 O1150 O 0.81142 0.74728 0.21813
 O1151 O 0.76454 0.69079 0.27147
 O1152 O 0.72474 0.68992 0.26089
 Zr1153 Zr 0.74253 0.71853 0.27132
 O1154 O 0.71949 0.73486 0.25010
 Zr1155 Zr 0.78614 0.73486 0.24008
 O1156 O 0.76472 0.75115 0.21712
 Zr1157 Zr 0.76780 0.76633 0.28234
 O1158 O 0.74619 0.78457 0.26105
 Zr1159 Zr 0.73296 0.73629 0.21739
 O1160 O 0.75534 0.71801 0.23814
 Zr1161 Zr 0.71513 0.76839 0.25944
 O1162 O 0.73609 0.75131 0.28257
 Zr1163 Zr 0.75862 0.78403 0.22783
 O1164 O 0.78188 0.76842 0.24976
 O1165 O 0.77388 0.73346 0.27283
 O1166 O 0.72704 0.76953 0.22640
 C1167 C 0.75996 0.72922 0.31883
 C1168 C 0.78339 0.68719 0.26146
 C1169 C 0.81799 0.75273 0.27685
 C1170 C 0.73881 0.77284 0.18082
 C1171 C 0.68331 0.75220 0.22188
 C1172 C 0.71722 0.81506 0.23572
 H1173 H 0.70521 0.72659 0.25054
 H1174 H 0.74463 0.79999 0.26674
 H1175 H 0.78433 0.72540 0.28295
 H1176 H 0.77154 0.75066 0.20190
 H1177 H 0.75367 0.70463 0.19616
 H1178 H 0.78934 0.71509 0.20189
 H1179 H 0.71408 0.80007 0.28899
 H1180 H 0.74047 0.78071 0.31301
 H1181 H 0.70917 0.70403 0.20109
 H1182 H 0.72735 0.67753 0.27181
 H1183 H 0.77104 0.81993 0.24812
 H1184 H 0.79169 0.80149 0.27569
 H1185 H 0.70979 0.72349 0.29986
 H1186 H 0.68429 0.74333 0.27726
 H1187 H 0.81519 0.76243 0.22340
 H1188 H 0.79011 0.78271 0.19723
 O1189 O 0.70233 0.24948 0.79503
 O1190 O 0.71456 0.21295 0.79707
 O1191 O 0.76355 0.28727 0.80219
 O1192 O 0.79588 0.29160 0.78379
 O1193 O 0.71559 0.30427 0.74976
 O1194 O 0.70833 0.28884 0.71395
 O1195 O 0.81278 0.22610 0.73733
 O1196 O 0.81543 0.23637 0.77405
 O1197 O 0.75552 0.18592 0.73243
 O1198 O 0.71653 0.18959 0.74435
 O1199 O 0.76386 0.23866 0.68628
 O1200 O 0.75977 0.27840 0.68708
 O1201 O 0.80152 0.24672 0.70700
 O1202 O 0.78710 0.28655 0.70405
 O1203 O 0.74202 0.21004 0.69881
 O1204 O 0.70528 0.20958 0.71977
 O1205 O 0.78840 0.19398 0.74942
 O1206 O 0.79055 0.20827 0.78849
 O1207 O 0.69082 0.26978 0.76455
 O1208 O 0.68912 0.26191 0.72501
 O1209 O 0.74822 0.31244 0.76717
 O1210 O 0.78727 0.30670 0.75282
 O1211 O 0.74114 0.25913 0.81495
 O1212 O 0.74909 0.21849 0.81153
 Zr1213 Zr 0.73529 0.23963 0.78625
 O1214 O 0.75199 0.21662 0.76508
 Zr1215 Zr 0.76634 0.28194 0.76738
 O1216 O 0.78484 0.26045 0.74614
 Zr1217 Zr 0.71863 0.27005 0.74235
 O1218 O 0.73514 0.24865 0.71945
 Zr1219 Zr 0.78481 0.22761 0.75896
 O1220 O 0.76887 0.24970 0.78186
 Zr1221 Zr 0.73716 0.21624 0.73330
 O1222 O 0.71863 0.23723 0.75533
 Zr1223 Zr 0.76877 0.25825 0.71504
 O1224 O 0.75127 0.28165 0.73559
 O1225 O 0.73352 0.27218 0.77362
 O1226 O 0.77032 0.22553 0.72728
 C1227 C 0.68757 0.26070 0.78396
 C1228 C 0.75311 0.27658 0.81788
 C1229 C 0.72896 0.31782 0.75924
 C1230 C 0.81601 0.23485 0.71780
 C1231 C 0.77512 0.18063 0.73955
 C1232 C 0.75267 0.22073 0.68329
 H1233 H 0.75203 0.20165 0.77228
 H1234 H 0.72689 0.24901 0.70515
 H1235 H 0.72542 0.28236 0.78402
 H1236 H 0.80032 0.26608 0.74456
 H1237 H 0.81149 0.24321 0.78868
 H1238 H 0.80739 0.28007 0.78039
 H1239 H 0.70272 0.22027 0.70724
 H1240 H 0.68436 0.24707 0.73075
 H1241 H 0.80423 0.19901 0.78597
 H1242 H 0.74083 0.22104 0.82588
 H1243 H 0.74363 0.27608 0.68441
 H1244 H 0.72154 0.29748 0.70878
 H1245 H 0.70519 0.20898 0.78412
 H1246 H 0.72245 0.18396 0.75881
 H1247 H 0.77953 0.31253 0.73932
 H1248 H 0.80067 0.28751 0.71338
 C1249 C 0.10052 0.99839 1.20798
 C1250 C 0.08996 0.99888 1.19088
 C1251 C 0.07831 1.00000 1.16993
 C1252 C 0.07436 0.98043 1.15795
 C1253 C 0.06446 0.98170 1.13681
 C1254 C 0.05854 1.00255 1.12758
 C1255 C 0.06224 1.02212 1.13967
 C1256 C 0.07213 1.02084 1.16082
 C1257 C 0.04901 1.00379 1.10556
 C1258 C 0.04106 1.00428 1.08707
 H1259 H 0.07924 0.96425 1.16479
 H1260 H 0.06168 0.96648 1.12757
 H1261 H 0.05772 1.03832 1.13266
 H1262 H 0.07528 1.03608 1.16989
 C1263 C 0.60091 0.49809 0.71041
 C1264 C 0.59001 0.49865 0.69353
 C1265 C 0.57790 0.49995 0.67286
 C1266 C 0.57594 0.48096 0.65948
 C1267 C 0.56572 0.48266 0.63853
 C1268 C 0.55747 0.50337 0.63089
 C1269 C 0.55912 0.52230 0.64441
 C1270 C 0.56934 0.52059 0.66537
 C1271 C 0.54787 0.50521 0.60893
 C1272 C 0.54004 0.50633 0.59041
 H1273 H 0.58267 0.46497 0.66506
 H1274 H 0.56455 0.46793 0.62816
 H1275 H 0.55283 0.53838 0.63862
 H1276 H 0.57094 0.53541 0.67553
 C1277 C 0.40085 -0.00132 0.71043
 C1278 C 0.41115 -0.00177 0.69290
 C1279 C 0.42240 -0.00241 0.67143
 C1280 C 0.42391 -0.02254 0.65963
 C1281 C 0.43346 -0.02291 0.63806
 C1282 C 0.44149 -0.00312 0.62822
 C1283 C 0.44021 0.01696 0.64013
 C1284 C 0.43066 0.01732 0.66169
 C1285 C 0.45086 -0.00330 0.60587
 C1286 C 0.45889 -0.00307 0.58720
 H1287 H 0.41741 -0.03786 0.66697
 H1288 H 0.43438 -0.03852 0.62899
 H1289 H 0.44638 0.03234 0.63265
 H1290 H 0.42941 0.03300 0.67061
 C1291 C -0.10180 0.49887 1.20976
 C1292 C -0.09155 0.49832 1.19221
 C1293 C -0.08030 0.49743 1.17076
 C1294 C -0.07496 0.47669 1.16121
 C1295 C -0.06543 0.47574 1.13966
 C1296 C -0.06126 0.49553 1.12759
 C1297 C -0.06637 0.51627 1.13724
 C1298 C -0.07590 0.51722 1.15879
 C1299 C -0.05191 0.49460 1.10526
 C1300 C -0.04397 0.49409 1.08657
 H1301 H -0.07847 0.46129 1.17028
 H1302 H -0.06152 0.45962 1.13233
 H1303 H -0.06319 0.53167 1.12804
 H1304 H -0.08013 0.53333 1.16597
 C1305 C -0.10608 0.50015 0.29332
 C1306 C -0.09793 0.50148 0.31170
 C1307 C -0.08772 0.50301 0.33342
 C1308 C -0.09027 0.52248 0.34619
 C1309 C -0.07983 0.52406 0.36705
 C1310 C -0.06677 0.50619 0.37520
 C1311 C -0.06430 0.48672 0.36245
 C1312 C -0.07473 0.48513 0.34163
 C1313 C -0.05588 0.50760 0.39660
 C1314 C -0.04654 0.50795 0.41445
 H1315 H -0.10022 0.53643 0.33998
 H1316 H -0.08187 0.53919 0.37676
 H1317 H -0.05427 0.47279 0.36858
 H1318 H -0.07258 0.47003 0.33189
 C1319 C 0.39412 0.99959 -0.20747
 C1320 C 0.40200 1.00099 -0.18898
 C1321 C 0.41181 1.00254 -0.16706
 C1322 C 0.40873 1.02188 -0.15420
 C1323 C 0.41871 1.02346 -0.13311
 C1324 C 0.43183 1.00570 -0.12482
 C1325 C 0.43483 0.98635 -0.13766
 C1326 C 0.42486 0.98478 -0.15871
 C1327 C 0.44235 1.00713 -0.10322
 C1328 C 0.45147 1.00750 -0.08525
 H1329 H 0.39871 1.03574 -0.16051
 H1330 H 0.41627 1.03849 -0.12333
 H1331 H 0.44493 0.97251 -0.13143
 H1332 H 0.42741 0.96977 -0.16852
 C1333 C 0.60740 0.49764 -0.20636
 C1334 C 0.59971 0.49689 -0.18754
 C1335 C 0.59000 0.49602 -0.16529
 C1336 C 0.57937 0.47653 -0.15763
 C1337 C 0.56907 0.47596 -0.13638
 C1338 C 0.56936 0.49489 -0.12270
 C1339 C 0.58018 0.51431 -0.13027
 C1340 C 0.59048 0.51487 -0.15152
 C1341 C 0.55806 0.49462 -0.10118
 C1342 C 0.54840 0.49463 -0.08326
 H1343 H 0.57883 0.46188 -0.16817
 H1344 H 0.56071 0.46088 -0.13072
 H1345 H 0.58046 0.52906 -0.11985
 H1346 H 0.59857 0.53005 -0.15730
 C1347 C 0.10601 -0.00203 0.29139
 C1348 C 0.09832 -0.00267 0.31021
 C1349 C 0.08875 -0.00343 0.33254
 C1350 C 0.07752 -0.02260 0.34011
 C1351 C 0.06752 -0.02307 0.36150
 C1352 C 0.06872 -0.00436 0.37541
 C1353 C 0.08013 0.01474 0.36792
 C1354 C 0.09013 0.01520 0.34652
 C1355 C 0.05770 -0.00451 0.39708
 C1356 C 0.04818 -0.00443 0.41507
 H1357 H 0.07631 -0.03709 0.32941
 H1358 H 0.05869 -0.03790 0.36710
 H1359 H 0.08110 0.02932 0.37851
 H1360 H 0.09872 0.03014 0.34082
 C1361 C 0.20737 1.09854 0.99923
 C1362 C 0.19040 1.08782 0.99996
 C1363 C 0.16964 1.07595 1.00145
 C1364 C 0.15844 1.07008 0.98187
 C1365 C 0.13743 1.06001 0.98339
 C1366 C 0.12755 1.05582 1.00448
 C1367 C 0.13888 1.06140 1.02407
 C1368 C 0.15990 1.07147 1.02255
 C1369 C 0.10555 1.04634 1.00588
 C1370 C 0.08705 1.03850 1.00642
 H1371 H 0.16577 1.07363 0.96548
 H1372 H 0.12876 1.05578 0.96815
 H1373 H 0.13135 1.05826 1.04045
 H1374 H 0.16838 1.07611 1.03779
 C1375 C 0.70963 0.60011 0.49739
 C1376 C 0.69255 0.58957 0.49774
 C1377 C 0.67162 0.57797 0.49888
 C1378 C 0.65781 0.57747 0.48005
 C1379 C 0.63660 0.56783 0.48173
 C1380 C 0.62915 0.55873 0.50225
 C1381 C 0.64309 0.55892 0.52099
 C1382 C 0.66431 0.56856 0.51931
 C1383 C 0.60702 0.54964 0.50410
 C1384 C 0.58840 0.54213 0.50527
 H1385 H 0.66326 0.58488 0.46424
 H1386 H 0.62590 0.56776 0.46715
 H1387 H 0.63745 0.55193 0.53692
 H1388 H 0.67482 0.56905 0.53401
 C1389 C 0.71083 0.39691 -0.00105
 C1390 C 0.69335 0.40723 -0.00151
 C1391 C 0.67197 0.41857 -0.00215
 C1392 C 0.66186 0.42616 0.01778
 C1393 C 0.64043 0.43588 0.01734
 C1394 C 0.62900 0.43801 -0.00301
 C1395 C 0.63921 0.43064 -0.02298
 C1396 C 0.66065 0.42092 -0.02254
 C1397 C 0.60674 0.44753 -0.00330
 C1398 C 0.58813 0.45559 -0.00323
 H1399 H 0.67040 0.42428 0.03366
 H1400 H 0.63268 0.44152 0.03288
 H1401 H 0.63052 0.43220 -0.03880
 H1402 H 0.66825 0.41496 -0.03802
 C1403 C 0.21199 -0.09785 0.49901
 C1404 C 0.19425 -0.08803 0.49828
 C1405 C 0.17254 -0.07739 0.49725
 C1406 C 0.16152 -0.07074 0.51705
 C1407 C 0.13979 -0.06177 0.51618
 C1408 C 0.12895 -0.05948 0.49552
 C1409 C 0.14004 -0.06594 0.47569
 C1410 C 0.16178 -0.07490 0.47656
 C1411 C 0.10646 -0.05055 0.49476
 C1412 C 0.08771 -0.04282 0.49452
 H1413 H 0.16961 -0.07275 0.53316
 H1414 H 0.13137 -0.05681 0.53162
 H1415 H 0.13182 -0.06421 0.45962
 H1416 H 0.17008 -0.08016 0.46117
 C1417 C 0.29565 -0.10141 0.50115
 C1418 C 0.31408 -0.09344 0.50271
 C1419 C 0.33600 -0.08368 0.50460
 C1420 C 0.34030 -0.06853 0.52182
 C1421 C 0.36139 -0.05859 0.52331
 C1422 C 0.37832 -0.06376 0.50759
 C1423 C 0.37408 -0.07905 0.49048
 C1424 C 0.35300 -0.08898 0.48900
 C1425 C 0.39976 -0.05284 0.50843
 C1426 C 0.41763 -0.04351 0.50848
 H1427 H 0.32729 -0.06427 0.53397
 H1428 H 0.36442 -0.04674 0.53655
 H1429 H 0.38699 -0.08312 0.47817
 H1430 H 0.34989 -0.10064 0.47559
 C1431 C -0.20808 0.39185 0.99952
 C1432 C -0.18964 0.39994 1.00050
 C1433 C -0.16780 0.41000 1.00164
 C1434 C -0.16030 0.41878 1.02194
 C1435 C -0.13938 0.42914 1.02288
 C1436 C -0.12583 0.43080 1.00353
 C1437 C -0.13327 0.42190 0.98327
 C1438 C -0.15419 0.41154 0.98233
 C1439 C -0.10447 0.44188 1.00428
 C1440 C -0.08660 0.45122 1.00448
 H1441 H -0.17069 0.41775 1.03698
 H1442 H -0.13384 0.43598 1.03864
 H1443 H -0.12298 0.42309 0.96818
 H1444 H -0.15980 0.40488 0.96652
 C1445 C -0.20722 0.60543 0.49797
 C1446 C -0.18853 0.59759 0.49740
 C1447 C -0.16641 0.58777 0.49672
 C1448 C -0.15268 0.58865 0.51561
 C1449 C -0.13151 0.57835 0.51521
 C1450 C -0.12400 0.56714 0.49592
 C1451 C -0.13765 0.56642 0.47697
 C1452 C -0.15882 0.57672 0.47737
 C1453 C -0.10253 0.55594 0.49579
 C1454 C -0.08463 0.54640 0.49585
 H1455 H -0.15842 0.59710 0.53068
 H1456 H -0.12110 0.57896 0.52997
 H1457 H -0.13202 0.55775 0.46199
 H1458 H -0.16934 0.57588 0.46269
 C1459 C 0.29050 1.10456 -0.00103
 C1460 C 0.30928 1.09690 -0.00160
 C1461 C 0.33150 1.08730 -0.00228
 C1462 C 0.34033 1.07894 -0.02249
 C1463 C 0.36158 1.06882 -0.02298
 C1464 C 0.37408 1.06701 -0.00326
 C1465 C 0.36534 1.07555 0.01690
 C1466 C 0.34409 1.08568 0.01739
 C1467 C 0.39560 1.05589 -0.00356
 C1468 C 0.41351 1.04636 -0.00362
 H1469 H 0.33070 1.08005 -0.03778
 H1470 H 0.36816 1.06222 -0.03865
 H1471 H 0.37484 1.07419 0.03226
 H1472 H 0.33739 1.09202 0.03312
 C1473 C -0.00145 1.20644 1.10011
 C1474 C -0.00041 1.18922 1.08983
 C1475 C 0.00154 1.16823 1.07842
 C1476 C -0.01632 1.16027 1.06584
 C1477 C -0.01468 1.13930 1.05574
 C1478 C 0.00481 1.12625 1.05822
 C1479 C 0.02277 1.13433 1.07058
 C1480 C 0.02113 1.15529 1.08067
 C1481 C 0.00604 1.10432 1.04863
 C1482 C 0.00646 1.08589 1.04068
 H1483 H -0.03157 1.17013 1.06409
 H1484 H -0.02868 1.13315 1.04625
 H1485 H 0.03788 1.12433 1.07264
 H1486 H 0.03500 1.16128 1.09046
 C1487 C 0.49800 0.71225 0.59946
 C1488 C 0.49853 0.69512 0.58901
 C1489 C 0.49983 0.67412 0.57754
 C1490 C 0.48020 0.66289 0.57199
 C1491 C 0.48156 0.64167 0.56238
 C1492 C 0.50255 0.63163 0.55835
 C1493 C 0.52219 0.64300 0.56361
 C1494 C 0.52082 0.66421 0.57321
 C1495 C 0.50387 0.60947 0.54932
 C1496 C 0.50460 0.59084 0.54184
 H1497 H 0.46389 0.67035 0.57543
 H1498 H 0.46628 0.63298 0.55839
 H1499 H 0.53849 0.63535 0.56059
 H1500 H 0.53609 0.67271 0.57761
 C1501 C -0.00321 0.70948 0.39856
 C1502 C -0.00391 0.69185 0.40849
 C1503 C -0.00485 0.67031 0.41935
 C1504 C -0.02345 0.65660 0.41621
 C1505 C -0.02386 0.63509 0.42562
 C1506 C -0.00565 0.62720 0.43815
 C1507 C 0.01286 0.64099 0.44147
 C1508 C 0.01327 0.66250 0.43207
 C1509 C -0.00579 0.60494 0.44745
 C1510 C -0.00557 0.58636 0.45547
 H1511 H -0.03748 0.66244 0.40628
 H1512 H -0.03825 0.62455 0.42295
 H1513 H 0.02703 0.63504 0.45115
 H1514 H 0.02780 0.67292 0.43446
 C1515 C 0.49804 1.20920 -0.10045
 C1516 C 0.49705 1.19151 -0.09067
 C1517 C 0.49567 1.16990 -0.07999
 C1518 C 0.47693 1.15649 -0.08352
 C1519 C 0.47605 1.13494 -0.07424
 C1520 C 0.49393 1.12674 -0.06143
 C1521 C 0.51258 1.14023 -0.05773
 C1522 C 0.51346 1.16178 -0.06701
 C1523 C 0.49331 1.10445 -0.05222
 C1524 C 0.49318 1.08586 -0.04425
 H1525 H 0.46315 1.16258 -0.09366
 H1526 H 0.46156 1.12463 -0.07720
 H1527 H 0.52649 1.13403 -0.04783
 H1528 H 0.52808 1.17198 -0.06431
 C1529 C 0.50166 0.29242 -0.10297
 C1530 C 0.50374 0.31060 -0.09468
 C1531 C 0.50626 0.33218 -0.08451
 C1532 C 0.51301 0.33363 -0.06211
 C1533 C 0.51492 0.35454 -0.05200
 C1534 C 0.51012 0.37411 -0.06425
 C1535 C 0.50360 0.37267 -0.08673
 C1536 C 0.50169 0.35175 -0.09684
 C1537 C 0.51082 0.39556 -0.05346
 C1538 C 0.51066 0.41345 -0.04427
 H1539 H 0.51658 0.31861 -0.05241
 H1540 H 0.51985 0.35544 -0.03458
 H1541 H 0.49972 0.38768 -0.09633
 H1542 H 0.49645 0.35083 -0.11417
 C1543 C -0.00059 -0.20724 0.39552
 C1544 C 0.00145 -0.18902 0.40373
 C1545 C 0.00398 -0.16740 0.41384
 C1546 C 0.01088 -0.16589 0.43619
 C1547 C 0.01289 -0.14496 0.44623
 C1548 C 0.00804 -0.12541 0.43396
 C1549 C 0.00134 -0.12691 0.41154
 C1550 C -0.00067 -0.14785 0.40150
 C1551 C 0.00894 -0.10393 0.44467
 C1552 C 0.00899 -0.08600 0.45379
 H1553 H 0.01452 -0.18089 0.44590
 H1554 H 0.01797 -0.14402 0.46361
 H1555 H -0.00257 -0.11192 0.40192
 H1556 H -0.00602 -0.14881 0.38421
 C1557 C 0.49974 -0.20474 0.60431
 C1558 C 0.49983 -0.18615 0.59628
 C1559 C 0.49994 -0.16417 0.58618
 C1560 C 0.48929 -0.14618 0.59700
 C1561 C 0.48911 -0.12494 0.58688
 C1562 C 0.49958 -0.12164 0.56590
 C1563 C 0.51028 -0.13962 0.55514
 C1564 C 0.51046 -0.16083 0.56525
 C1565 C 0.49931 -0.09990 0.55529
 C1566 C 0.49926 -0.08183 0.54610
 H1567 H 0.48107 -0.14858 0.61317
 H1568 H 0.48079 -0.11115 0.59535
 H1569 H 0.51842 -0.13727 0.53891
 H1570 H 0.51870 -0.17463 0.55671
 C1571 C -0.00056 0.28952 1.10327
 C1572 C -0.00050 0.30797 1.09493
 C1573 C -0.00049 0.32982 1.08457
 C1574 C 0.00880 0.33273 1.06301
 C1575 C 0.00848 0.35385 1.05270
 C1576 C -0.00113 0.37215 1.06390
 C1577 C -0.01036 0.36927 1.08550
 C1578 C -0.01004 0.34814 1.09582
 C1579 C -0.00166 0.39381 1.05314
 C1580 C -0.00209 0.41188 1.04398
 H1581 H 0.01619 0.31867 1.05415
 H1582 H 0.01565 0.35588 1.03600
 H1583 H -0.01785 0.38332 1.09431
 H1584 H -0.01731 0.34606 1.11248
 C1585 C 0.75826 0.34581 0.03921
 C1586 C 0.76240 0.33718 0.05713
 C1587 C 0.76568 0.32765 0.07923
 C1588 C 0.76973 0.34169 0.09745
 C1589 C 0.77019 0.33293 0.11935
 C1590 C 0.76657 0.31008 0.12317
 C1591 C 0.76306 0.29595 0.10490
 C1592 C 0.76258 0.30471 0.08300
 C1593 C 0.76519 0.30125 0.14579
 C1594 C 0.76338 0.29340 0.16450
 H1595 H 0.77189 0.35950 0.09479
 H1596 H 0.77282 0.34404 0.13332
 H1597 H 0.76013 0.27827 0.10763
 H1598 H 0.75917 0.29373 0.06912
 C1599 C 0.25962 0.84906 0.54126
 C1600 C 0.26345 0.84000 0.55903
 C1601 C 0.26658 0.83002 0.58093
 C1602 C 0.27183 0.84355 0.59921
 C1603 C 0.27236 0.83447 0.62097
 C1604 C 0.26762 0.81180 0.62457
 C1605 C 0.26289 0.79816 0.60624
 C1606 C 0.26235 0.80724 0.58448
 C1607 C 0.26634 0.80274 0.64709
 C1608 C 0.26458 0.79473 0.66572
 H1609 H 0.27489 0.86124 0.59671
 H1610 H 0.27592 0.84521 0.63500
 H1611 H 0.25909 0.78063 0.60882
 H1612 H 0.25804 0.79666 0.57054
 C1613 C 0.75251 0.65505 0.53935
 C1614 C 0.75413 0.66540 0.55649
 C1615 C 0.75442 0.67667 0.57768
 C1616 C 0.73930 0.69429 0.58183
 C1617 C 0.73753 0.70344 0.60331
 C1618 C 0.75081 0.69493 0.62072
 C1619 C 0.76626 0.67763 0.61646
 C1620 C 0.76803 0.66847 0.59498
 C1621 C 0.74840 0.70368 0.64303
 C1622 C 0.74675 0.71096 0.66178
 H1623 H 0.72849 0.70054 0.56864
 H1624 H 0.72555 0.71684 0.60644
 H1625 H 0.77663 0.67095 0.62981
 H1626 H 0.77956 0.65465 0.59202
 C1627 C 0.25028 0.15456 0.03972
 C1628 C 0.25207 0.16508 0.05673
 C1629 C 0.25259 0.17654 0.07782
 C1630 C 0.23715 0.19383 0.08219
 C1631 C 0.23562 0.20309 0.10364
 C1632 C 0.24948 0.19503 0.12079
 C1633 C 0.26525 0.17807 0.11630
 C1634 C 0.26678 0.16880 0.09485
 C1635 C 0.24728 0.20382 0.14311
 C1636 C 0.24577 0.21111 0.16186
 H1637 H 0.22589 0.19971 0.06921
 H1638 H 0.22338 0.21621 0.10695
 H1639 H 0.27605 0.17173 0.12946
 H1640 H 0.27856 0.15524 0.09173
 C1641 C 0.25264 0.15691 0.96114
 C1642 C 0.25636 0.16853 0.94489
 C1643 C 0.25975 0.18154 0.92470
 C1644 C 0.27574 0.17466 0.90868
 C1645 C 0.27705 0.18552 0.88779
 C1646 C 0.26237 0.20329 0.88283
 C1647 C 0.24684 0.21062 0.89910
 C1648 C 0.24553 0.19976 0.92000
 C1649 C 0.26186 0.21263 0.86047
 C1650 C 0.26079 0.21970 0.84148
 H1651 H 0.28665 0.16045 0.91205
 H1652 H 0.28899 0.17959 0.87526
 H1653 H 0.23528 0.22421 0.89538
 H1654 H 0.23295 0.20506 0.93217
 C1655 C 0.75554 0.65890 0.46098
 C1656 C 0.75932 0.67081 0.44495
 C1657 C 0.76266 0.68410 0.42495
 C1658 C 0.77863 0.67744 0.40882
 C1659 C 0.77969 0.68837 0.38795
 C1660 C 0.76477 0.70599 0.38315
 C1661 C 0.74931 0.71314 0.39956
 C1662 C 0.74825 0.70221 0.42042
 C1663 C 0.76383 0.71518 0.36076
 C1664 C 0.76237 0.72204 0.34172
 H1665 H 0.78968 0.66329 0.41204
 H1666 H 0.79156 0.68258 0.37531
 H1667 H 0.73755 0.72660 0.39594
 H1668 H 0.73567 0.70732 0.43267
 C1669 C 0.25893 0.84552 0.46131
 C1670 C 0.26133 0.83445 0.44459
 C1671 C 0.26232 0.82233 0.42375
 C1672 C 0.27550 0.83028 0.40577
 C1673 C 0.27407 0.82044 0.38459
 C1674 C 0.25938 0.80266 0.38124
 C1675 C 0.24660 0.79435 0.39935
 C1676 C 0.24804 0.80418 0.42053
 C1677 C 0.25680 0.79357 0.35906
 C1678 C 0.25469 0.78626 0.34037
 H1679 H 0.28636 0.84449 0.40794
 H1680 H 0.28400 0.82705 0.37072
 H1681 H 0.23514 0.78065 0.39697
 H1682 H 0.23751 0.79809 0.43420
 C1683 C 0.75684 0.34190 0.96261
 C1684 C 0.75971 0.33132 0.94561
 C1685 C 0.76122 0.31974 0.92448
 C1686 C 0.74821 0.30071 0.92101
 C1687 C 0.74717 0.29123 0.89963
 C1688 C 0.75908 0.30078 0.88154
 C1689 C 0.77252 0.31948 0.88512
 C1690 C 0.77356 0.32896 0.90650
 C1691 C 0.75687 0.29196 0.85919
 C1692 C 0.75500 0.28486 0.84038
 H1693 H 0.73833 0.29361 0.93467
 H1694 H 0.73668 0.27681 0.89709
 H1695 H 0.78178 0.32706 0.87128
 H1696 H 0.78342 0.34385 0.90886
 C1697 C 0.84167 0.46025 0.25603
 C1698 C 0.83106 0.44329 0.25832
 C1699 C 0.81960 0.42219 0.25914
 C1700 C 0.80160 0.41845 0.24476
 C1701 C 0.79245 0.39707 0.24316
 C1702 C 0.80130 0.37928 0.25587
 C1703 C 0.81895 0.38312 0.27063
 C1704 C 0.82811 0.40450 0.27222
 C1705 C 0.79270 0.35700 0.25340
 C1706 C 0.78564 0.33827 0.25157
 H1707 H 0.79509 0.43190 0.23430
 H1708 H 0.77881 0.39431 0.23169
 H1709 H 0.82594 0.36951 0.28054
 H1710 H 0.84223 0.40709 0.28314
 C1711 C 0.34293 0.96083 0.75577
 C1712 C 0.33185 0.94417 0.75795
 C1713 C 0.31982 0.92340 0.75877
 C1714 C 0.32675 0.90616 0.77330
 C1715 C 0.31717 0.88495 0.77191
 C1716 C 0.30069 0.88085 0.75592
 C1717 C 0.29338 0.89823 0.74175
 C1718 C 0.30295 0.91944 0.74315
 C1719 C 0.29188 0.85865 0.75362
 C1720 C 0.28479 0.83992 0.75194
 H1721 H 0.34000 0.90891 0.78521
 H1722 H 0.32298 0.87164 0.78293
 H1723 H 0.28067 0.89526 0.72931
 H1724 H 0.29769 0.93254 0.73160
 C1725 C 0.15898 0.96092 0.25341
 C1726 C 0.17051 0.94464 0.25704
 C1727 C 0.18336 0.92437 0.26025
 C1728 C 0.20139 0.91942 0.24574
 C1729 C 0.21201 0.89847 0.24685
 C1730 C 0.20463 0.88238 0.26247
 C1731 C 0.18704 0.88758 0.27744
 C1732 C 0.17642 0.90853 0.27632
 C1733 C 0.21377 0.86002 0.26188
 C1734 C 0.22072 0.84104 0.26079
 H1735 H 0.20673 0.93145 0.23308
 H1736 H 0.22547 0.89458 0.23508
 H1737 H 0.18108 0.87520 0.28946
 H1738 H 0.16233 0.91208 0.28745
 C1739 C 0.65999 0.46070 0.75512
 C1740 C 0.67150 0.44437 0.75863
 C1741 C 0.68430 0.42403 0.76167
 C1742 C 0.70245 0.41924 0.74725
 C1743 C 0.71301 0.39825 0.74816
 C1744 C 0.70546 0.38196 0.76348
 C1745 C 0.68775 0.38698 0.77836
 C1746 C 0.67718 0.40797 0.77745
 C1747 C 0.71457 0.35958 0.76266
 C1748 C 0.72151 0.34061 0.76137
 H1749 H 0.70793 0.43143 0.73481
 H1750 H 0.72657 0.39449 0.73646
 H1751 H 0.68165 0.37446 0.79015
 H1752 H 0.66300 0.41140 0.78850
 C1753 C 0.65631 0.53946 0.75337
 C1754 C 0.66626 0.55676 0.75522
 C1755 C 0.67702 0.57817 0.75578
 C1756 C 0.69561 0.58237 0.74177
 C1757 C 0.70435 0.60395 0.74010
 C1758 C 0.69448 0.62143 0.75236
 C1759 C 0.67618 0.61714 0.76671
 C1760 C 0.66744 0.59556 0.76838
 C1761 C 0.70290 0.64380 0.74999
 C1762 C 0.71003 0.66254 0.74825
 H1763 H 0.70296 0.56911 0.73172
 H1764 H 0.71853 0.60708 0.72897
 H1765 H 0.66843 0.63054 0.77628
 H1766 H 0.65287 0.59257 0.77902
 C1767 C 0.15545 0.03955 0.25174
 C1768 C 0.16548 0.05678 0.25382
 C1769 C 0.17635 0.07809 0.25466
 C1770 C 0.16693 0.09533 0.26759
 C1771 C 0.17577 0.11688 0.26621
 C1772 C 0.19402 0.12128 0.25182
 C1773 C 0.20374 0.10395 0.23924
 C1774 C 0.19489 0.08240 0.24062
 C1775 C 0.20249 0.14365 0.24969
 C1776 C 0.20962 0.16239 0.24811
 H1777 H 0.15240 0.09225 0.27826
 H1778 H 0.16814 0.13017 0.27602
 H1779 H 0.21786 0.10718 0.22807
 H1780 H 0.20211 0.06926 0.23032
 C1781 C 0.34682 0.04020 0.75800
 C1782 C 0.33763 0.05781 0.76196
 C1783 C 0.32758 0.07955 0.76523
 C1784 C 0.30532 0.08358 0.75900
 C1785 C 0.29643 0.10531 0.75957
 C1786 C 0.30977 0.12314 0.76632
 C1787 C 0.33188 0.11904 0.77307
 C1788 C 0.34076 0.09730 0.77250
 C1789 C 0.30108 0.14568 0.76518
 C1790 C 0.29345 0.16439 0.76363
 H1791 H 0.29505 0.07004 0.75309
 H1792 H 0.27934 0.10830 0.75424
 H1793 H 0.34238 0.13270 0.77823
 H1794 H 0.35809 0.09443 0.77711
 C1795 C 0.84439 0.54014 0.25761
 C1796 C 0.83546 0.55787 0.26164
 C1797 C 0.82576 0.57977 0.26496
 C1798 C 0.80361 0.58422 0.25860
 C1799 C 0.79510 0.60611 0.25923
 C1800 C 0.80871 0.62367 0.26616
 C1801 C 0.83070 0.61914 0.27303
 C1802 C 0.83921 0.59725 0.27241
 C1803 C 0.80038 0.64636 0.26515
 C1804 C 0.79299 0.66517 0.26371
 H1805 H 0.79314 0.57091 0.25256
 H1806 H 0.77809 0.60942 0.25381
 H1807 H 0.84140 0.63258 0.27834
 H1808 H 0.85645 0.59405 0.27712
 C1809 C 0.95907 0.25409 0.15587
 C1810 C 0.94250 0.25834 0.16690
 C1811 C 0.92198 0.26225 0.17932
 C1812 C 0.91814 0.25104 0.19978
 C1813 C 0.89713 0.25254 0.21043
 C1814 C 0.87987 0.26524 0.20067
 C1815 C 0.88392 0.27700 0.18056
 C1816 C 0.90493 0.27551 0.16991
 C1817 C 0.85755 0.26456 0.21015
 C1818 C 0.83869 0.26309 0.21754
 H1819 H 0.93112 0.24056 0.20708
 H1820 H 0.89413 0.24321 0.22586
 H1821 H 0.87064 0.28672 0.17276
 H1822 H 0.90763 0.28406 0.15399
 C1823 C 0.46000 0.75897 0.65681
 C1824 C 0.44351 0.76291 0.66809
 C1825 C 0.42301 0.76631 0.68069
 C1826 C 0.41919 0.75421 0.70063
 C1827 C 0.39812 0.75506 0.71123
 C1828 C 0.38078 0.76801 0.70192
 C1829 C 0.38482 0.78067 0.68237
 C1830 C 0.40589 0.77982 0.67177
 C1831 C 0.35843 0.76671 0.71123
 C1832 C 0.33955 0.76480 0.71845
 H1833 H 0.43222 0.74350 0.70753
 H1834 H 0.39514 0.74505 0.72623
 H1835 H 0.37149 0.79058 0.67492
 H1836 H 0.40857 0.78904 0.65622
 C1837 C 0.46098 0.25709 0.84345
 C1838 C 0.44434 0.25982 0.83241
 C1839 C 0.42355 0.26115 0.82038
 C1840 C 0.40578 0.27432 0.82867
 C1841 C 0.38454 0.27303 0.81905
 C1842 C 0.38095 0.25849 0.80115
 C1843 C 0.39887 0.24578 0.79246
 C1844 C 0.42010 0.24707 0.80207
 C1845 C 0.35871 0.25595 0.79240
 C1846 C 0.33995 0.25384 0.78539
 H1847 H 0.40814 0.28500 0.84303
 H1848 H 0.37080 0.28290 0.82595
 H1849 H 0.39628 0.23444 0.77866
 H1850 H 0.43362 0.23655 0.79573
 C1851 C 0.96160 0.75719 0.34295
 C1852 C 0.94492 0.76007 0.33199
 C1853 C 0.92412 0.76153 0.31999
 C1854 C 0.92067 0.74770 0.30149
 C1855 C 0.89943 0.74652 0.29185
 C1856 C 0.88150 0.75911 0.30071
 C1857 C 0.88509 0.77340 0.31881
 C1858 C 0.90633 0.77458 0.32846
 C1859 C 0.85926 0.75667 0.29192
 C1860 C 0.84048 0.75467 0.28492
 H1861 H 0.93420 0.73728 0.29501
 H1862 H 0.89686 0.73537 0.27790
 H1863 H 0.87134 0.78317 0.32584
 H1864 H 0.90868 0.78507 0.34296
 C1865 C 0.03960 0.75763 0.34617
 C1866 C 0.05744 0.76172 0.33738
 C1867 C 0.07943 0.76516 0.32774
 C1868 C 0.09720 0.77117 0.34158
 C1869 C 0.11911 0.77190 0.33292
 C1870 C 0.12336 0.76660 0.31038
 C1871 C 0.10552 0.76112 0.29641
 C1872 C 0.08361 0.76038 0.30507
 C1873 C 0.14604 0.76552 0.30182
 C1874 C 0.16485 0.76397 0.29425
 H1875 H 0.09420 0.77465 0.35920
 H1876 H 0.13277 0.77605 0.34390
 H1877 H 0.10862 0.75689 0.27897
 H1878 H 0.07005 0.75547 0.29428
 C1879 C 0.54069 0.25692 0.84668
 C1880 C 0.55845 0.26087 0.83766
 C1881 C 0.58035 0.26419 0.82778
 C1882 C 0.59812 0.27090 0.84128
 C1883 C 0.61997 0.27161 0.83245
 C1884 C 0.62415 0.26558 0.81009
 C1885 C 0.60630 0.25939 0.79644
 C1886 C 0.58445 0.25867 0.80528
 C1887 C 0.64679 0.26457 0.80141
 C1888 C 0.66557 0.26309 0.79377
 H1889 H 0.59518 0.27497 0.85878
 H1890 H 0.63365 0.27633 0.84318
 H1891 H 0.60935 0.25460 0.77915
 H1892 H 0.57090 0.25322 0.79476
 C1893 C 0.53885 0.75518 0.65523
 C1894 C 0.55599 0.75680 0.66556
 C1895 C 0.57722 0.75704 0.67675
 C1896 C 0.58119 0.74227 0.69474
 C1897 C 0.60267 0.74033 0.70377
 C1898 C 0.62028 0.75308 0.69479
 C1899 C 0.61620 0.76819 0.67712
 C1900 C 0.59472 0.77012 0.66808
 C1901 C 0.64258 0.75047 0.70343
 C1902 C 0.66131 0.74862 0.71065
 H1903 H 0.56785 0.73184 0.70136
 H1904 H 0.60564 0.72862 0.71745
 H1905 H 0.62969 0.77814 0.67006
 H1906 H 0.59191 0.78136 0.65398
 C1907 C 0.03800 0.25110 0.15549
 C1908 C 0.05505 0.25331 0.16583
 C1909 C 0.07622 0.25426 0.17705
 C1910 C 0.09350 0.26743 0.16804
 C1911 C 0.11499 0.26609 0.17711
 C1912 C 0.11930 0.25152 0.19516
 C1913 C 0.10191 0.23872 0.20449
 C1914 C 0.08042 0.24005 0.19542
 C1915 C 0.14165 0.24942 0.20380
 C1916 C 0.16040 0.24791 0.21100
 H1917 H 0.09051 0.27823 0.15364
 H1918 H 0.12833 0.27607 0.16979
 H1919 H 0.10507 0.22740 0.21846
 H1920 H 0.06725 0.22957 0.20231
 C1921 C -0.10020 1.00233 0.79204
 C1922 C -0.08937 1.00198 0.80897
 C1923 C -0.07732 1.00085 0.82969
 C1924 C -0.07588 1.01980 0.84319
 C1925 C -0.06569 1.01823 0.86417
 C1926 C -0.05694 0.99768 0.87171
 C1927 C -0.05808 0.97879 0.85806
 C1928 C -0.06828 0.98037 0.83708
 C1929 C -0.04735 0.99595 0.89367
 C1930 C -0.03952 0.99495 0.91220
 H1931 H -0.08298 1.03566 0.83769
 H1932 H -0.06491 1.03292 0.87463
 H1933 H -0.05140 0.96283 0.86377
 H1934 H -0.06947 0.96558 0.82681
 C1935 C 0.40034 0.50090 0.29455
 C1936 C 0.41087 0.50064 0.31167
 C1937 C 0.42256 0.49976 0.33260
 C1938 C 0.42634 0.51944 0.34445
 C1939 C 0.43632 0.51839 0.36556
 C1940 C 0.44251 0.49765 0.37487
 C1941 C 0.43899 0.47798 0.36290
 C1942 C 0.42901 0.47903 0.34179
 C1943 C 0.45208 0.49663 0.39688
 C1944 C 0.46001 0.49633 0.41538
 H1945 H 0.42126 0.53553 0.33755
 H1946 H 0.43897 0.53369 0.37471
 H1947 H 0.44370 0.46186 0.36998
 H1948 H 0.42600 0.46370 0.33280
 C1949 C 0.60012 0.00223 0.28829
 C1950 C 0.58981 0.00286 0.30580
 C1951 C 0.57845 0.00394 0.32719
 C1952 C 0.57424 -0.01571 0.33945
 C1953 C 0.56460 -0.01454 0.36095
 C1954 C 0.55921 0.00630 0.37025
 C1955 C 0.56318 0.02594 0.35789
 C1956 C 0.57281 0.02477 0.33639
 C1957 C 0.54988 0.00746 0.39259
 C1958 C 0.54204 0.00810 0.41131
 H1959 H 0.57870 -0.03188 0.33255
 H1960 H 0.56159 -0.02982 0.37039
 H1961 H 0.55906 0.04213 0.36495
 H1962 H 0.57617 0.04007 0.32709
 C1963 C 0.10030 0.50177 0.78881
 C1964 C 0.08991 0.50248 0.80627
 C1965 C 0.07840 0.50352 0.82759
 C1966 C 0.06895 0.48420 0.83703
 C1967 C 0.05895 0.48494 0.85838
 C1968 C 0.05841 0.50500 0.87037
 C1969 C 0.06765 0.52438 0.86083
 C1970 C 0.07765 0.52364 0.83947
 C1971 C 0.04867 0.50549 0.89256
 C1972 C 0.04041 0.50539 0.91113
 H1973 H 0.06957 0.46853 0.82803
 H1974 H 0.05185 0.46986 0.86564
 H1975 H 0.06733 0.53996 0.86997
 H1976 H 0.08505 0.53864 0.83235
 C1977 C 0.10466 0.50080 0.70528
 C1978 C 0.09661 0.49941 0.68687
 C1979 C 0.08664 0.49763 0.66506
 C1980 C 0.07196 0.48008 0.66067
 C1981 C 0.06180 0.47863 0.63968
 C1982 C 0.06628 0.49471 0.62298
 C1983 C 0.08108 0.51217 0.62732
 C1984 C 0.09124 0.51362 0.64831
 C1985 C 0.05534 0.49368 0.60158
 C1986 C 0.04614 0.49330 0.58366
 H1987 H 0.06825 0.46764 0.67351
 H1988 H 0.05034 0.46509 0.63653
 H1989 H 0.08463 0.52473 0.61455
 H1990 H 0.10252 0.52728 0.65152
 C1991 C 0.60424 1.00165 0.20474
 C1992 C 0.59602 1.00007 0.18641
 C1993 C 0.58578 0.99802 0.16475
 C1994 C 0.57119 0.98032 0.16070
 C1995 C 0.56072 0.97863 0.13988
 C1996 C 0.56481 0.99465 0.12301
 C1997 C 0.57953 1.01226 0.12701
 C1998 C 0.58999 1.01394 0.14783
 C1999 C 0.55359 0.99337 0.10177
 C2000 C 0.54423 0.99285 0.08394
 H2001 H 0.56777 0.96793 0.17367
 H2002 H 0.54934 0.96497 0.13699
 H2003 H 0.58278 1.02477 0.11411
 H2004 H 0.60120 1.02772 0.15078
 C2005 C 0.39569 0.49830 0.21123
 C2006 C 0.40368 0.49814 0.19253
 C2007 C 0.41364 0.49804 0.17037
 C2008 C 0.42538 0.47908 0.16281
 C2009 C 0.43568 0.47921 0.14156
 C2010 C 0.43429 0.49831 0.12778
 C2011 C 0.42242 0.51723 0.13529
 C2012 C 0.41212 0.51709 0.15655
 C2013 C 0.44529 0.49860 0.10612
 C2014 C 0.45462 0.49883 0.08803
 H2015 H 0.42672 0.46429 0.17339
 H2016 H 0.44483 0.46451 0.13593
 H2017 H 0.42126 0.53209 0.12479
 H2018 H 0.40314 0.53187 0.16226
 C2019 C -0.10609 0.00017 0.70877
 C2020 C -0.09824 0.00003 0.69000
 C2021 C -0.08834 -0.00009 0.66781
 C2022 C -0.07956 -0.02001 0.65895
 C2023 C -0.06913 -0.01997 0.63776
 C2024 C -0.06742 -0.00001 0.62534
 C2025 C -0.07635 0.01988 0.63413
 C2026 C -0.08678 0.01985 0.65533
 C2027 C -0.05619 0.00011 0.60378
 C2028 C -0.04667 0.00019 0.58579
 H2029 H -0.08059 -0.03550 0.66849
 H2030 H -0.06226 -0.03545 0.63114
 H2031 H -0.07510 0.03542 0.62469
 H2032 H -0.09344 0.03536 0.66206
 C2033 C -0.20956 0.90159 1.00267
 C2034 C -0.19270 0.91246 1.00261
 C2035 C -0.17202 0.92451 1.00180
 C2036 C -0.15863 0.92550 1.02092
 C2037 C -0.13760 0.93554 1.01957
 C2038 C -0.12989 0.94456 0.99910
 C2039 C -0.14343 0.94390 0.98008
 C2040 C -0.16447 0.93386 0.98143
 C2041 C -0.10782 0.95383 0.99754
 C2042 C -0.08919 0.96136 0.99662
 H2043 H -0.16425 0.91814 1.03669
 H2044 H -0.12720 0.93595 1.03436
 H2045 H -0.13758 0.95079 0.96418
 H2046 H -0.17465 0.93299 0.96652
 C2047 C 0.29324 0.40175 0.50150
 C2048 C 0.31020 0.41249 0.50113
 C2049 C 0.33090 0.42450 0.50006
 C2050 C 0.34207 0.42975 0.51984
 C2051 C 0.36295 0.44012 0.51866
 C2052 C 0.37273 0.44520 0.49772
 C2053 C 0.36143 0.44021 0.47795
 C2054 C 0.34054 0.42985 0.47912
 C2055 C 0.39459 0.45501 0.49663
 C2056 C 0.41300 0.46306 0.49630
 H2057 H 0.33481 0.42554 0.53610
 H2058 H 0.37161 0.44389 0.53405
 H2059 H 0.36888 0.44405 0.46168
 H2060 H 0.33207 0.42571 0.46373
 C2061 C 0.28858 0.59472 0.00114
 C2062 C 0.30602 0.58435 0.00137
 C2063 C 0.32743 0.57305 0.00194
 C2064 C 0.33640 0.56612 0.02254
 C2065 C 0.35794 0.55667 0.02331
 C2066 C 0.37061 0.55418 0.00349
 C2067 C 0.36153 0.56085 -0.01714
 C2068 C 0.33999 0.57030 -0.01792
 C2069 C 0.39301 0.54505 0.00433
 C2070 C 0.41176 0.53736 0.00487
 H2071 H 0.32689 0.56834 0.03801
 H2072 H 0.36480 0.55156 0.03936
 H2073 H 0.37119 0.55900 -0.03257
 H2074 H 0.33329 0.57578 -0.03391
 C2075 C -0.21036 0.09971 0.50010
 C2076 C -0.19324 0.08878 0.50017
 C2077 C -0.17227 0.07669 0.50056
 C2078 C -0.16333 0.06953 0.52110
 C2079 C -0.14216 0.05926 0.52169
 C2080 C -0.12983 0.05616 0.50175
 C2081 C -0.13891 0.06305 0.48118
 C2082 C -0.16008 0.07332 0.48059
 C2083 C -0.10769 0.04642 0.50241
 C2084 C -0.08907 0.03839 0.50281
 H2085 H -0.17256 0.07221 0.53667
 H2086 H -0.13528 0.05403 0.53769
 H2087 H -0.12950 0.06076 0.46566
 H2088 H -0.16676 0.07895 0.46464
 C2089 C 0.70881 0.10732 0.50040
 C2090 C 0.69022 0.09967 0.49902
 C2091 C 0.66824 0.08999 0.49738
 C2092 C 0.65333 0.09066 0.51576
 C2093 C 0.63233 0.08051 0.51446
 C2094 C 0.62611 0.06962 0.49477
 C2095 C 0.64094 0.06911 0.47632
 C2096 C 0.66195 0.07927 0.47762
 C2097 C 0.60471 0.05864 0.49377
 C2098 C 0.58681 0.04939 0.49344
 H2099 H 0.65801 0.09882 0.53116
 H2100 H 0.62104 0.08099 0.52886
 H2101 H 0.63636 0.06072 0.46102
 H2102 H 0.67335 0.07857 0.46332
 C2103 C 0.20510 0.60051 0.99987
 C2104 C 0.18655 0.59286 0.99803
 C2105 C 0.16456 0.58335 0.99576
 C2106 C 0.16021 0.56883 0.97801
 C2107 C 0.13910 0.55901 0.97619
 C2108 C 0.12220 0.56365 0.99211
 C2109 C 0.12649 0.57833 1.00974
 C2110 C 0.14760 0.58815 1.01156
 C2111 C 0.10074 0.55282 0.99090
 C2112 C 0.08281 0.54361 0.99057
 H2113 H 0.17320 0.56495 0.96571
 H2114 H 0.13603 0.54763 0.96254
 H2115 H 0.11361 0.58199 1.02220
 H2116 H 0.15076 0.59929 1.02538
 C2117 C 0.21018 0.39668 0.49896
 C2118 C 0.19157 0.40472 0.49893
 C2119 C 0.16958 0.41485 0.49906
 C2120 C 0.16623 0.43575 0.50908
 C2121 C 0.14498 0.44584 0.50906
 C2122 C 0.12697 0.43508 0.49901
 C2123 C 0.13029 0.41416 0.48903
 C2124 C 0.15157 0.40405 0.48905
 C2125 C 0.10517 0.44562 0.49895
 C2126 C 0.08701 0.45466 0.49902
 H2127 H 0.18005 0.44425 0.51684
 H2128 H 0.14260 0.46202 0.51683
 H2129 H 0.11647 0.40570 0.48121
 H2130 H 0.15399 0.38790 0.48123
 C2131 C 0.70753 0.89526 -0.00090
 C2132 C 0.68878 0.90295 -0.00105
 C2133 C 0.66659 0.91263 -0.00109
 C2134 C 0.65525 0.91653 0.01928
 C2135 C 0.63404 0.92675 0.01933
 C2136 C 0.62411 0.93311 -0.00099
 C2137 C 0.63538 0.92904 -0.02138
 C2138 C 0.65659 0.91882 -0.02142
 C2139 C 0.60256 0.94413 -0.00089
 C2140 C 0.58455 0.95348 -0.00072
 H2141 H 0.66287 0.91187 0.03510
 H2142 H 0.62548 0.92984 0.03518
 H2143 H 0.62785 0.93392 -0.03718
 H2144 H 0.66526 0.91595 -0.03726
 C2145 C 0.00083 0.79023 0.90291
 C2146 C 0.00064 0.80714 0.91372
 C2147 C -0.00024 0.82789 0.92563
 C2148 C 0.01907 0.84087 0.92733
 C2149 C 0.01777 0.86195 0.93723
 C2150 C -0.00285 0.87012 0.94540
 C2151 C -0.02209 0.85700 0.94402
 C2152 C -0.02079 0.83591 0.93413
 C2153 C -0.00428 0.89220 0.95462
 C2154 C -0.00510 0.91081 0.96214
 H2155 H 0.03499 0.83488 0.92063
 H2156 H 0.03274 0.87200 0.93819
 H2157 H -0.03811 0.86320 0.95027
 H2158 H -0.03585 0.82607 0.93271
 C2159 C 0.49918 0.29598 0.40232
 C2160 C 0.49859 0.31291 0.41310
 C2161 C 0.49722 0.33356 0.42516
 C2162 C 0.51679 0.34400 0.43221
 C2163 C 0.51544 0.36481 0.44266
 C2164 C 0.49452 0.37523 0.44605
 C2165 C 0.47493 0.36466 0.43927
 C2166 C 0.47628 0.34385 0.42883
 C2167 C 0.49334 0.39707 0.45585
 C2168 C 0.49297 0.41548 0.46385
 H2169 H 0.53306 0.33623 0.42933
 H2170 H 0.53069 0.37290 0.44781
 H2171 H 0.45869 0.37262 0.44177
 H2172 H 0.46106 0.33595 0.42330
 C2173 C 0.00073 0.28903 0.59705
 C2174 C 0.00092 0.30649 0.58680
 C2175 C 0.00148 0.32783 0.57552
 C2176 C -0.01810 0.34088 0.57401
 C2177 C -0.01725 0.36229 0.56441
 C2178 C 0.00319 0.37074 0.55636
 C2179 C 0.02273 0.35760 0.55765
 C2180 C 0.02188 0.33618 0.56724
 C2181 C 0.00410 0.39296 0.54699
 C2182 C 0.00462 0.41157 0.53910
 H2183 H -0.03392 0.33463 0.58052
 H2184 H -0.03245 0.37233 0.56349
 H2185 H 0.03861 0.36399 0.55146
 H2186 H 0.03714 0.32628 0.56850
 C2187 C 0.49980 0.78877 0.09814
 C2188 C 0.49978 0.80619 0.08781
 C2189 C 0.50005 0.82750 0.07646
 C2190 C 0.48040 0.84049 0.07532
 C2191 C 0.48099 0.86188 0.06566
 C2192 C 0.50124 0.87037 0.05716
 C2193 C 0.52084 0.85729 0.05807
 C2194 C 0.52025 0.83589 0.06773
 C2195 C 0.50191 0.89257 0.04772
 C2196 C 0.50230 0.91116 0.03975
 H2197 H 0.46474 0.83421 0.08218
 H2198 H 0.46574 0.87188 0.06503
 H2199 H 0.53658 0.86371 0.05154
 H2200 H 0.53557 0.82603 0.06869
 C2201 C 0.50069 0.70558 0.10265
 C2202 C 0.49929 0.68720 0.09464
 C2203 C 0.49746 0.66545 0.08468
 C2204 C 0.49513 0.66360 0.06137
 C2205 C 0.49351 0.64252 0.05157
 C2206 C 0.49417 0.62317 0.06502
 C2207 C 0.49637 0.62500 0.08835
 C2208 C 0.49800 0.64610 0.09816
 C2209 C 0.49329 0.60146 0.05478
 C2210 C 0.49307 0.58334 0.04605
 H2211 H 0.49468 0.67844 0.05078
 H2212 H 0.49189 0.64131 0.03351
 H2213 H 0.49699 0.61015 0.09891
 H2214 H 0.49977 0.64732 0.11620
 C2215 C 0.00103 0.20585 0.60107
 C2216 C -0.00045 0.18754 0.59293
 C2217 C -0.00238 0.16587 0.58282
 C2218 C -0.00399 0.16414 0.55944
 C2219 C -0.00573 0.14314 0.54950
 C2220 C -0.00590 0.12374 0.56291
 C2221 C -0.00439 0.12546 0.58631
 C2222 C -0.00266 0.14648 0.59625
 C2223 C -0.00691 0.10209 0.55258
 C2224 C -0.00727 0.08399 0.54381
 H2225 H -0.00381 0.17902 0.54889
 H2226 H -0.00680 0.14201 0.53139
 H2227 H -0.00442 0.11056 0.59684
 H2228 H -0.00144 0.14761 0.61435
 C2229 C 0.49794 0.21308 0.39736
 C2230 C 0.49823 0.19452 0.40546
 C2231 C 0.49865 0.17259 0.41565
 C2232 C 0.50666 0.15414 0.40350
 C2233 C 0.50739 0.13293 0.41365
 C2234 C 0.50013 0.13012 0.43599
 C2235 C 0.49207 0.14856 0.44809
 C2236 C 0.49134 0.16975 0.43795
 C2237 C 0.50098 0.10837 0.44654
 C2238 C 0.50162 0.09021 0.45552
 H2239 H 0.51239 0.15616 0.38626
 H2240 H 0.51365 0.11878 0.40414
 H2241 H 0.48642 0.14658 0.46537
 H2242 H 0.48516 0.18391 0.44751
 C2243 C -0.00115 0.70738 0.89646
 C2244 C -0.00093 0.68868 0.90423
 C2245 C -0.00063 0.66661 0.91412
 C2246 C 0.00565 0.64802 0.90124
 C2247 C 0.00612 0.62665 0.91108
 C2248 C 0.00032 0.62382 0.93382
 C2249 C -0.00597 0.64242 0.94666
 C2250 C -0.00644 0.66375 0.93684
 C2251 C 0.00071 0.60191 0.94407
 C2252 C 0.00082 0.58373 0.95302
 H2253 H 0.01021 0.65005 0.88366
 H2254 H 0.01100 0.61238 0.90099
 H2255 H -0.01050 0.64043 0.96425
 H2256 H -0.01129 0.67802 0.94696
 C2257 C 0.24197 0.65064 0.96141
 C2258 C 0.23818 0.66050 0.94405
 C2259 C 0.23501 0.67136 0.92258
 C2260 C 0.22585 0.65946 0.90477
 C2261 C 0.22513 0.66901 0.88321
 C2262 C 0.23360 0.69050 0.87934
 C2263 C 0.24228 0.70260 0.89726
 C2264 C 0.24301 0.69305 0.91881
 C2265 C 0.23444 0.69975 0.85688
 C2266 C 0.23575 0.70767 0.83818
 H2267 H 0.21984 0.64259 0.90741
 H2268 H 0.21846 0.65945 0.86949
 H2269 H 0.24896 0.71920 0.89446
 H2270 H 0.25036 0.70233 0.93237
 C2271 C 0.74318 0.15342 0.46202
 C2272 C 0.73887 0.16263 0.44443
 C2273 C 0.73524 0.17281 0.42268
 C2274 C 0.72773 0.15979 0.40487
 C2275 C 0.72673 0.16886 0.38311
 C2276 C 0.73327 0.19099 0.37903
 C2277 C 0.74028 0.20417 0.39694
 C2278 C 0.74129 0.19510 0.41869
 C2279 C 0.73393 0.19988 0.35640
 C2280 C 0.73509 0.20755 0.33758
 H2281 H 0.72325 0.14246 0.40768
 H2282 H 0.72138 0.15847 0.36941
 H2283 H 0.74547 0.22128 0.39400
 H2284 H 0.74737 0.20527 0.43225
 C2285 C 0.25098 0.34575 0.46029
 C2286 C 0.24940 0.33526 0.44323
 C2287 C 0.24900 0.32383 0.42212
 C2288 C 0.23387 0.33065 0.40554
 C2289 C 0.23522 0.32135 0.38410
 C2290 C 0.25178 0.30527 0.37915
 C2291 C 0.26665 0.29815 0.39584
 C2292 C 0.26529 0.30744 0.41728
 C2293 C 0.25356 0.29630 0.35688
 C2294 C 0.25457 0.28883 0.33817
 H2295 H 0.22140 0.34351 0.40902
 H2296 H 0.22362 0.32695 0.37131
 H2297 H 0.27949 0.28570 0.39218
 H2298 H 0.27726 0.30226 0.42991
 C2299 C 0.74965 0.84541 0.96025
 C2300 C 0.74847 0.83501 0.94310
 C2301 C 0.74853 0.82369 0.92192
 C2302 C 0.73345 0.83031 0.90523
 C2303 C 0.73516 0.82109 0.88377
 C2304 C 0.75203 0.80531 0.87892
 C2305 C 0.76687 0.79840 0.89572
 C2306 C 0.76515 0.80761 0.91718
 C2307 C 0.75410 0.79637 0.85666
 C2308 C 0.75527 0.78891 0.83796
 H2309 H 0.72072 0.84293 0.90864
 H2310 H 0.72357 0.82652 0.87089
 H2311 H 0.77994 0.78617 0.89214
 H2312 H 0.77708 0.80259 0.92991
 C2313 C 0.74381 0.84308 0.03876
 C2314 C 0.73958 0.83142 0.05486
 C2315 C 0.73572 0.81836 0.07494
 C2316 C 0.72097 0.82633 0.09161
 C2317 C 0.71963 0.81543 0.11248
 C2318 C 0.73306 0.79652 0.11675
 C2319 C 0.74723 0.78810 0.09981
 C2320 C 0.74856 0.79900 0.07894
 C2321 C 0.73404 0.78724 0.13911
 C2322 C 0.73576 0.78025 0.15808
 H2323 H 0.71115 0.84143 0.08878
 H2324 H 0.70879 0.82221 0.12553
 H2325 H 0.75785 0.77363 0.10301
 H2326 H 0.76022 0.79285 0.06627
 C2327 C 0.24604 0.34447 0.53896
 C2328 C 0.24173 0.33307 0.55523
 C2329 C 0.23774 0.32026 0.57546
 C2330 C 0.22356 0.32883 0.59232
 C2331 C 0.22202 0.31797 0.61320
 C2332 C 0.23466 0.29849 0.61730
 C2333 C 0.24826 0.28952 0.60019
 C2334 C 0.24981 0.30038 0.57931
 C2335 C 0.23537 0.28902 0.63960
 C2336 C 0.23688 0.28178 0.65850
 H2337 H 0.21434 0.34432 0.58961
 H2338 H 0.21161 0.32518 0.62637
 H2339 H 0.25827 0.27459 0.60324
 H2340 H 0.26100 0.29374 0.56648
 C2341 C 0.74628 0.15547 0.53843
 C2342 C 0.74427 0.16602 0.55556
 C2343 C 0.74372 0.17751 0.57677
 C2344 C 0.75824 0.19541 0.58034
 C2345 C 0.75990 0.20475 0.60174
 C2346 C 0.74712 0.19619 0.61973
 C2347 C 0.73227 0.17861 0.61606
 C2348 C 0.73061 0.16927 0.59466
 C2349 C 0.74957 0.20505 0.64203
 C2350 C 0.75133 0.21225 0.66082
 H2351 H 0.76871 0.20173 0.56674
 H2352 H 0.77146 0.21832 0.60434
 H2353 H 0.72230 0.17183 0.62982
 H2354 H 0.71956 0.15525 0.59223
 C2355 C 0.24398 0.65172 0.04104
 C2356 C 0.24232 0.66275 0.05788
 C2357 C 0.24212 0.67482 0.07875
 C2358 C 0.25767 0.69188 0.08210
 C2359 C 0.25952 0.70171 0.10324
 C2360 C 0.24588 0.69449 0.12119
 C2361 C 0.23001 0.67776 0.11772
 C2362 C 0.22817 0.66793 0.09658
 C2363 C 0.24848 0.70377 0.14329
 C2364 C 0.25034 0.71130 0.16192
 H2365 H 0.26877 0.69715 0.06854
 H2366 H 0.27186 0.71460 0.10570
 H2367 H 0.21938 0.67202 0.13147
 H2368 H 0.21630 0.65456 0.09432
 C2369 C 0.15813 0.53913 0.74302
 C2370 C 0.16939 0.55567 0.74084
 C2371 C 0.18161 0.57632 0.74010
 C2372 C 0.19838 0.58013 0.75588
 C2373 C 0.20797 0.60131 0.75751
 C2374 C 0.20081 0.61879 0.74340
 C2375 C 0.18449 0.61482 0.72721
 C2376 C 0.17489 0.59365 0.72559
 C2377 C 0.20935 0.64104 0.74619
 C2378 C 0.21604 0.65986 0.74839
 H2379 H 0.20347 0.56696 0.76743
 H2380 H 0.22052 0.60419 0.77014
 H2381 H 0.17877 0.62824 0.71625
 H2382 H 0.16172 0.59102 0.71356
 C2383 C 0.65639 0.03830 0.24194
 C2384 C 0.66725 0.05511 0.23964
 C2385 C 0.67904 0.07603 0.23893
 C2386 C 0.69710 0.07937 0.25332
 C2387 C 0.70647 0.10064 0.25522
 C2388 C 0.69776 0.11868 0.24279
 C2389 C 0.68008 0.11522 0.22796
 C2390 C 0.67071 0.09396 0.22607
 C2391 C 0.70634 0.14089 0.24579
 C2392 C 0.71321 0.15964 0.24812
 H2393 H 0.70346 0.06573 0.26362
 H2394 H 0.72010 0.10311 0.26676
 H2395 H 0.67317 0.12905 0.21829
 H2396 H 0.65653 0.09168 0.21515
 C2397 C 0.84295 0.03743 0.74513
 C2398 C 0.83201 0.05396 0.74076
 C2399 C 0.81977 0.07448 0.73683
 C2400 C 0.79942 0.07848 0.74821
 C2401 C 0.78905 0.09955 0.74686
 C2402 C 0.79900 0.11672 0.73414
 C2403 C 0.81898 0.11251 0.72219
 C2404 C 0.82934 0.09144 0.72354
 C2405 C 0.78986 0.13910 0.73502
 C2406 C 0.78281 0.15800 0.73663
 H2407 H 0.79199 0.06558 0.75874
 H2408 H 0.77371 0.10266 0.75633
 H2409 H 0.82693 0.12571 0.71246
 H2410 H 0.84520 0.08863 0.71487
 C2411 C 0.34331 0.53827 0.24716
 C2412 C 0.33210 0.55462 0.24288
 C2413 C 0.31955 0.57496 0.23898
 C2414 C 0.32838 0.59161 0.22479
 C2415 C 0.31780 0.61256 0.22334
 C2416 C 0.29835 0.61696 0.23608
 C2417 C 0.28913 0.60008 0.24973
 C2418 C 0.29971 0.57913 0.25119
 C2419 C 0.28911 0.63929 0.23679
 C2420 C 0.28200 0.65819 0.23823
 H2421 H 0.34384 0.58866 0.21547
 H2422 H 0.32519 0.62555 0.21288
 H2423 H 0.27422 0.60336 0.25982
 H2424 H 0.29288 0.56648 0.26241
 C2425 C 0.34467 0.45967 0.25181
 C2426 C 0.33434 0.44258 0.25012
 C2427 C 0.32308 0.42145 0.24964
 C2428 C 0.33085 0.40461 0.23522
 C2429 C 0.32164 0.38322 0.23658
 C2430 C 0.30470 0.37856 0.25243
 C2431 C 0.29665 0.39550 0.26659
 C2432 C 0.30586 0.41689 0.26522
 C2433 C 0.29575 0.35636 0.25422
 C2434 C 0.28826 0.33773 0.25527
 H2435 H 0.34435 0.40787 0.22331
 H2436 H 0.32795 0.37024 0.22553
 H2437 H 0.28354 0.39207 0.27888
 H2438 H 0.29994 0.42972 0.27665
 C2439 C 0.84439 0.96027 0.74974
 C2440 C 0.83434 0.94298 0.74819
 C2441 C 0.82345 0.92164 0.74795
 C2442 C 0.83209 0.90444 0.73445
 C2443 C 0.82318 0.88294 0.73614
 C2444 C 0.80565 0.87851 0.75141
 C2445 C 0.79675 0.89579 0.76463
 C2446 C 0.80566 0.91730 0.76295
 C2447 C 0.79689 0.85624 0.75348
 C2448 C 0.78948 0.83759 0.75473
 H2449 H 0.84604 0.90753 0.72303
 H2450 H 0.83015 0.86971 0.72580
 H2451 H 0.78316 0.89256 0.77645
 H2452 H 0.79905 0.93040 0.77368
 C2453 C 0.65318 0.96057 0.23956
 C2454 C 0.66224 0.94299 0.23520
 C2455 C 0.67225 0.92129 0.23145
 C2456 C 0.65868 0.90324 0.22573
 C2457 C 0.66775 0.88158 0.22479
 C2458 C 0.69044 0.87786 0.22961
 C2459 C 0.70413 0.89598 0.23475
 C2460 C 0.69506 0.91764 0.23569
 C2461 C 0.69938 0.85540 0.23079
 C2462 C 0.70721 0.83680 0.23262
 H2463 H 0.64096 0.90582 0.22266
 H2464 H 0.65697 0.86770 0.22093
 H2465 H 0.72166 0.89329 0.23863
 H2466 H 0.70565 0.93140 0.24038
 C2467 C 0.15364 0.45986 0.74068
 C2468 C 0.16273 0.44228 0.73637
 C2469 C 0.17277 0.42062 0.73257
 C2470 C 0.15926 0.40260 0.72666
 C2471 C 0.16839 0.38098 0.72554
 C2472 C 0.19107 0.37727 0.73033
 C2473 C 0.20472 0.39537 0.73567
 C2474 C 0.19559 0.41699 0.73681
 C2475 C 0.20008 0.35484 0.73128
 C2476 C 0.20795 0.33623 0.73291
 H2477 H 0.14154 0.40517 0.72357
 H2478 H 0.15765 0.36710 0.72153
 H2479 H 0.22225 0.39269 0.73954
 H2480 H 0.20614 0.43074 0.74162
 C2481 C 0.03754 0.74448 0.84396
 C2482 C 0.05380 0.74061 0.83234
 C2483 C 0.07407 0.73718 0.81938
 C2484 C 0.09041 0.72197 0.82695
 C2485 C 0.11139 0.72084 0.81619
 C2486 C 0.11612 0.73494 0.79783
 C2487 C 0.09954 0.74964 0.78981
 C2488 C 0.07856 0.75077 0.80057
 C2489 C 0.13853 0.73579 0.78857
 C2490 C 0.15752 0.73721 0.78154
 H2491 H 0.08723 0.71157 0.84164
 H2492 H 0.12415 0.70955 0.82266
 H2493 H 0.10307 0.76076 0.77574
 H2494 H 0.06615 0.76277 0.79472
 C2495 C 0.53679 0.24940 0.34441
 C2496 C 0.55303 0.24522 0.33286
 C2497 C 0.57319 0.24126 0.31987
 C2498 C 0.58911 0.22557 0.32738
 C2499 C 0.60995 0.22374 0.31643
 C2500 C 0.61496 0.23758 0.29794
 C2501 C 0.59878 0.25279 0.29002
 C2502 C 0.57794 0.25463 0.30097
 C2503 C 0.63730 0.23766 0.28847
 C2504 C 0.65628 0.23850 0.28128
 H2505 H 0.58571 0.21532 0.34212
 H2506 H 0.62240 0.21206 0.32283
 H2507 H 0.60254 0.26372 0.27587
 H2508 H 0.56586 0.26697 0.29516
 C2509 C 0.53987 0.74447 0.15510
 C2510 C 0.55667 0.74285 0.16611
 C2511 C 0.57751 0.74268 0.17811
 C2512 C 0.58123 0.75875 0.19461
 C2513 C 0.60242 0.76062 0.20423
 C2514 C 0.62003 0.74647 0.19733
 C2515 C 0.61618 0.73008 0.18119
 C2516 C 0.59499 0.72822 0.17157
 C2517 C 0.64218 0.74909 0.20628
 C2518 C 0.66089 0.75092 0.21349
 H2519 H 0.56793 0.77024 0.19958
 H2520 H 0.60519 0.77336 0.21667
 H2521 H 0.62966 0.71905 0.17570
 H2522 H 0.59242 0.71594 0.15861
 C2523 C 0.04033 0.24415 0.65387
 C2524 C 0.05707 0.24236 0.66493
 C2525 C 0.07786 0.24202 0.67701
 C2526 C 0.08143 0.25772 0.69391
 C2527 C 0.10258 0.25950 0.70362
 C2528 C 0.12030 0.24565 0.69642
 C2529 C 0.11660 0.22961 0.67988
 C2530 C 0.09545 0.22783 0.67017
 C2531 C 0.14242 0.24823 0.70547
 C2532 C 0.16109 0.25006 0.71276
 H2533 H 0.06805 0.26900 0.69911
 H2534 H 0.10524 0.27198 0.71637
 H2535 H 0.13018 0.21882 0.67417
 H2536 H 0.09300 0.21586 0.65691
 C2537 C 0.96092 0.24037 0.65140
 C2538 C 0.94355 0.23582 0.66091
 C2539 C 0.92206 0.23177 0.67141
 C2540 C 0.90398 0.22507 0.65833
 C2541 C 0.88242 0.22382 0.66780
 C2542 C 0.87884 0.22930 0.69040
 C2543 C 0.89702 0.23541 0.70364
 C2544 C 0.91858 0.23667 0.69417
 C2545 C 0.85641 0.23022 0.69966
 C2546 C 0.83780 0.23188 0.70768
 H2547 H 0.90643 0.22148 0.64065
 H2548 H 0.86848 0.21922 0.65737
 H2549 H 0.89443 0.23981 0.72111
 H2550 H 0.93237 0.24211 0.70439
 C2551 C 0.46038 0.74009 0.15271
 C2552 C 0.44298 0.73550 0.16215
 C2553 C 0.42144 0.73143 0.17254
 C2554 C 0.41783 0.73632 0.19528
 C2555 C 0.39622 0.73509 0.20462
 C2556 C 0.37811 0.72901 0.19128
 C2557 C 0.38181 0.72353 0.16870
 C2558 C 0.40343 0.72474 0.15935
 C2559 C 0.35563 0.72999 0.20040
 C2560 C 0.33698 0.73170 0.20834
 H2561 H 0.43157 0.74175 0.20557
 H2562 H 0.39353 0.73951 0.22207
 H2563 H 0.36793 0.71895 0.15818
 H2564 H 0.40598 0.72116 0.14169
 C2565 C 0.45817 0.25308 0.34658
 C2566 C 0.44110 0.25132 0.33617
 C2567 C 0.41998 0.25074 0.32483
 C2568 C 0.40310 0.23636 0.33257
 C2569 C 0.38170 0.23762 0.32328
 C2570 C 0.37707 0.25333 0.30629
 C2571 C 0.39405 0.26744 0.29827
 C2572 C 0.41545 0.26618 0.30756
 C2573 C 0.35485 0.25500 0.29725
 C2574 C 0.33621 0.25592 0.28970
 H2575 H 0.40633 0.22456 0.34611
 H2576 H 0.36868 0.22660 0.32957
 H2577 H 0.39065 0.27962 0.28511
 H2578 H 0.42831 0.27758 0.30166
 C2579 C 0.95897 0.74887 0.84662
 C2580 C 0.94186 0.74765 0.83617
 C2581 C 0.92073 0.74775 0.82480
 C2582 C 0.91645 0.76377 0.80800
 C2583 C 0.89507 0.76565 0.79872
 C2584 C 0.87786 0.75157 0.80629
 C2585 C 0.88224 0.73530 0.82282
 C2586 C 0.90362 0.73342 0.83209
 C2587 C 0.85569 0.75380 0.79725
 C2588 C 0.83706 0.75511 0.78969
 H2589 H 0.92949 0.77513 0.80245
 H2590 H 0.89187 0.77825 0.78592
 H2591 H 0.86906 0.72430 0.82876
 H2592 H 0.90665 0.72118 0.84528
   
