data_POSCAR
  _audit_creation_date              2014-09-24
  _audit_creation_method            'ToBaCCo'
  _symmetry_space_group_name_H-M    'P1'
  _symmetry_Int_Tables_number       1
  _symmetry_cell_setting            triclinic
  loop_
  _symmetry_equiv_pos_as_xyz
 x,y,z
_cell_length_a 62.0336
_cell_length_b 63.1212
_cell_length_c 63.3910
_cell_angle_alpha 90.064500
_cell_angle_beta 90.008200
_cell_angle_gamma 90.010800
loop_
  _atom_site_label
  _atom_site_type_symbol
  _atom_site_fract_x
  _atom_site_fract_y
  _atom_site_fract_z
O1 O 0.34819 0.37608 0.01944
 O2 O 0.37784 0.34842 -0.02263
 O3 O 0.34782 0.37731 -0.02155
 O4 O 0.37803 0.34694 0.01838
 O5 O 0.35312 0.32202 0.01749
 O6 O 0.32286 0.35248 -0.02216
 O7 O 0.35277 0.32365 -0.02345
 O8 O 0.32327 0.35116 0.01887
 Cu9 Cu 0.36547 0.36468 -0.00150
 Cu10 Cu 0.33550 0.33485 -0.00235
 C11 C 0.33060 0.36842 0.02630
 C12 C 0.37041 0.33128 -0.03023
 C13 C 0.33010 0.37013 -0.02870
 C14 C 0.37081 0.32919 0.02465
 O15 O 0.65128 0.62285 0.02074
 O16 O 0.62127 0.65237 -0.01986
 O17 O 0.65109 0.62351 -0.02046
 O18 O 0.62140 0.65198 0.02123
 O19 O 0.64659 0.67663 0.02169
 O20 O 0.67610 0.64830 -0.02007
 O21 O 0.64619 0.67731 -0.01934
 O22 O 0.67641 0.64758 0.02076
 Cu23 Cu 0.63375 0.63518 0.00043
 Cu24 Cu 0.66380 0.66496 0.00079
 C25 C 0.66907 0.63010 0.02758
 C26 C 0.62860 0.66992 -0.02653
 C27 C 0.66872 0.63102 -0.02744
 C28 C 0.62889 0.66922 0.02856
 O29 O 0.65368 0.37801 0.97864
 O30 O 0.62597 0.34730 1.01990
 O31 O 0.65505 0.37697 1.01970
 O32 O 0.62446 0.34809 0.97895
 O33 O 0.65061 0.32448 0.97678
 O34 O 0.68039 0.35253 1.01857
 O35 O 0.65119 0.32275 1.01786
 O36 O 0.67962 0.35414 0.97771
 Cu37 Cu 0.63723 0.36503 0.99941
 Cu38 Cu 0.66800 0.33603 0.99761
 C39 C 0.67152 0.37144 0.97127
 C40 C 0.63377 0.32968 1.02582
 C41 C 0.67298 0.36970 1.02619
 C42 C 0.63236 0.33139 0.97085
 O43 O 0.34846 0.62058 0.98043
 O44 O 0.37785 0.65026 1.02139
 O45 O 0.34891 0.62015 1.02171
 O46 O 0.37718 0.65067 0.98054
 O47 O 0.35148 0.67479 0.98152
 O48 O 0.32272 0.64372 1.02173
 O49 O 0.35147 0.67369 1.02264
 O50 O 0.32273 0.64469 0.98089
 Cu51 Cu 0.36567 0.63297 1.00098
 Cu52 Cu 0.33452 0.66163 1.00175
 C53 C 0.33059 0.62761 0.97360
 C54 C 0.36967 0.66705 1.02900
 C55 C 0.33085 0.62662 1.02870
 C56 C 0.36924 0.66806 0.97411
 O57 O 0.01936 0.34877 0.38021
 O58 O -0.02187 0.37815 0.35049
 O59 O -0.02262 0.34902 0.37955
 O60 O 0.02015 0.37774 0.35092
 O61 O 0.01968 0.35320 0.32613
 O62 O -0.02184 0.32388 0.35542
 O63 O -0.02223 0.35300 0.32631
 O64 O 0.01995 0.32425 0.35540
 Cu65 Cu -0.00125 0.36592 0.36774
 Cu66 Cu -0.00110 0.33612 0.33835
 C67 C 0.02673 0.33148 0.37289
 C68 C -0.02917 0.37058 0.33334
 C69 C -0.02942 0.33136 0.37250
 C70 C 0.02711 0.37043 0.33351
 O71 O 0.02218 0.65193 0.62087
 O72 O -0.02018 0.62335 0.64988
 O73 O -0.01974 0.65228 0.62057
 O74 O 0.02176 0.62308 0.65034
 O75 O 0.02144 0.64793 0.67482
 O76 O -0.01942 0.67742 0.64471
 O77 O -0.02044 0.64851 0.67405
 O78 O 0.02238 0.67674 0.64539
 Cu79 Cu 0.00102 0.63515 0.63298
 Cu80 Cu 0.00099 0.66514 0.66219
 C81 C 0.02947 0.66928 0.62811
 C82 C -0.02755 0.63102 0.66695
 C83 C -0.02659 0.66999 0.62743
 C84 C 0.02859 0.63044 0.66777
 O85 O 1.02289 0.62149 0.34846
 O86 O 0.98045 0.64972 0.37789
 O87 O 0.98115 0.62061 0.34852
 O88 O 1.02267 0.65039 0.37772
 O89 O 1.02215 0.67519 0.35329
 O90 O 0.97996 0.64596 0.32459
 O91 O 0.98035 0.67485 0.35375
 O92 O 1.02193 0.64617 0.32388
 Cu93 Cu 1.00182 0.63310 0.36565
 Cu94 Cu 1.00108 0.66303 0.33644
 C95 C 1.02952 0.62891 0.33101
 C96 C 0.97319 0.66717 0.37087
 C97 C 0.97348 0.62820 0.33154
 C98 C 1.02963 0.66789 0.37049
 O99 O 0.97738 0.34865 0.62185
 O100 O 1.01852 0.37865 0.65141
 O101 O 1.01942 0.34927 0.62265
 O102 O 0.97645 0.37842 0.65043
 O103 O 0.97638 0.35417 0.67546
 O104 O 1.01878 0.32472 0.64732
 O105 O 1.01818 0.35416 0.67621
 O106 O 0.97700 0.32444 0.64690
 Cu107 Cu 0.99795 0.36620 0.63409
 Cu108 Cu 0.99755 0.33694 0.66396
 C109 C 0.97021 0.33135 0.62930
 C110 C 1.02538 0.37150 0.66890
 C111 C 1.02642 0.33191 0.63015
 C112 C 0.96915 0.37134 0.66778
 O113 O 0.37796 0.02307 0.34669
 O114 O 0.34798 -0.01753 0.37632
 O115 O 0.37685 -0.01807 0.34654
 O116 O 0.34901 0.02378 0.37665
 O117 O 0.32275 0.02382 0.35319
 O118 O 0.35150 -0.01657 0.32217
 O119 O 0.32254 -0.01723 0.35202
 O120 O 0.35152 0.02468 0.32344
 Cu121 Cu 0.36554 0.00276 0.36397
 Cu122 Cu 0.33451 0.00373 0.33529
 C123 C 0.36979 0.03088 0.33005
 C124 C 0.33015 -0.02440 0.36919
 C125 C 0.36904 -0.02432 0.32907
 C126 C 0.33098 0.03079 0.37018
 O127 O 0.62220 0.01845 0.65310
 O128 O 0.65125 -0.02252 0.62301
 O129 O 0.62192 -0.02282 0.65256
 O130 O 0.65148 0.01857 0.62352
 O131 O 0.67723 0.01774 0.64750
 O132 O 0.64703 -0.02259 0.67721
 O133 O 0.67621 -0.02362 0.64781
 O134 O 0.64802 0.01843 0.67702
 Cu135 Cu 0.63414 -0.00204 0.63562
 Cu136 Cu 0.66472 -0.00254 0.66478
 C137 C 0.63015 0.02546 0.67022
 C138 C 0.66864 -0.03014 0.63036
 C139 C 0.62932 -0.02963 0.66998
 C140 C 0.66951 0.02512 0.63045
 O141 O 0.34880 1.02104 0.62365
 O142 O 0.37760 0.97988 0.65365
 O143 O 0.34870 0.97978 0.62379
 O144 O 0.37792 1.02116 0.65327
 O145 O 0.35249 1.02098 0.67760
 O146 O 0.32271 0.98052 0.64753
 O147 O 0.35160 0.97984 0.67738
 O148 O 0.32339 1.02166 0.64799
 Cu149 Cu 0.36584 1.00043 0.63618
 Cu150 Cu 0.33498 1.00077 0.66503
 C151 C 0.33117 1.02843 0.63073
 C152 C 0.36951 0.97280 0.67066
 C153 C 0.33061 0.97319 0.63053
 C154 C 0.37027 1.02805 0.67056
 O155 O 0.64969 1.02000 0.37747
 O156 O 0.62051 0.97885 0.34768
 O157 O 0.64940 0.97866 0.37765
 O158 O 0.62087 1.02003 0.34760
 O159 O 0.64693 1.01995 0.32394
 O160 O 0.67501 0.97805 0.35354
 O161 O 0.64627 0.97875 0.32370
 O162 O 0.67577 1.01920 0.35390
 Cu163 Cu 0.63254 0.99940 0.36501
 Cu164 Cu 0.66358 0.99898 0.33639
 C165 C 0.66783 1.02660 0.37086
 C166 C 0.62833 0.97186 0.33050
 C167 C 0.66708 0.97123 0.37071
 C168 C 0.62901 1.02706 0.33060
 C169 C 0.81949 0.79161 0.48690
 C170 C 0.82105 0.79230 0.50918
 C171 C 0.80779 0.80618 0.52056
 C172 C 0.79332 0.81969 0.51025
 C173 C 0.79192 0.81932 0.48800
 C174 C 0.80487 0.80510 0.47662
 H175 H 0.80381 0.80480 0.45955
 H176 H 0.80899 0.80672 0.53763
 C177 C 0.18035 0.20939 0.49186
 C178 C 0.18090 0.20930 0.51420
 C179 C 0.19521 0.19556 0.52455
 C180 C 0.20864 0.18173 0.51324
 C181 C 0.20834 0.18211 0.49091
 C182 C 0.19430 0.19607 0.48056
 H183 H 0.19385 0.19622 0.46346
 H184 H 0.19554 0.19525 0.54165
 C185 C 0.18056 0.79389 0.50873
 C186 C 0.18128 0.79370 0.48639
 C187 C 0.19514 0.80782 0.47595
 C188 C 0.20801 0.82222 0.48718
 C189 C 0.20759 0.82212 0.50950
 C190 C 0.19394 0.80785 0.51995
 H191 H 0.19341 0.80788 0.53704
 H192 H 0.19560 0.80791 0.45885
 C193 C 0.81897 0.20568 0.51090
 C194 C 0.81893 0.20568 0.48857
 C195 C 0.80507 0.19181 0.47781
 C196 C 0.79154 0.17772 0.48868
 C197 C 0.79166 0.17774 0.51104
 C198 C 0.80504 0.19204 0.52181
 H199 H 0.80548 0.19176 0.53892
 H200 H 0.80478 0.19201 0.46071
 C201 C 0.48644 0.82197 0.79653
 C202 C 0.50927 0.82192 0.79637
 C203 C 0.52037 0.80816 0.80991
 C204 C 0.50934 0.79458 0.82370
 C205 C 0.48651 0.79467 0.82387
 C206 C 0.47538 0.80809 0.81000
 H207 H 0.45791 0.80846 0.81041
 H208 H 0.53784 0.80789 0.80959
 C209 C 0.49009 0.17625 0.20059
 C210 C 0.51285 0.17604 0.20145
 C211 C 0.52457 0.18951 0.18811
 C212 C 0.51411 0.20289 0.17368
 C213 C 0.49129 0.20286 0.17268
 C214 C 0.47959 0.18963 0.18627
 H215 H 0.46212 0.18957 0.18554
 H216 H 0.54203 0.18936 0.18878
 C217 C 0.51334 0.17712 0.79564
 C218 C 0.49054 0.17836 0.79497
 C219 C 0.47991 0.19304 0.80798
 C220 C 0.49141 0.20629 0.82173
 C221 C 0.51415 0.20513 0.82223
 C222 C 0.52484 0.19063 0.80917
 H223 H 0.54229 0.18966 0.80976
 H224 H 0.46245 0.19392 0.80766
 C225 C 0.50880 0.82415 0.20287
 C226 C 0.48598 0.82513 0.20204
 C227 C 0.47487 0.81178 0.18806
 C228 C 0.48590 0.79739 0.17515
 C229 C 0.50863 0.79628 0.17606
 C230 C 0.51979 0.80951 0.19010
 H231 H 0.53726 0.80902 0.19046
 H232 H 0.45740 0.81229 0.18748
 C233 C 0.79065 0.49321 0.81898
 C234 C 0.79096 0.51564 0.81854
 C235 C 0.80470 0.52596 0.80427
 C236 C 0.81827 0.51452 0.79069
 C237 C 0.81758 0.49209 0.79081
 C238 C 0.80364 0.48178 0.80489
 H239 H 0.80324 0.46461 0.80523
 H240 H 0.80521 0.54313 0.80405
 C241 C 0.20749 0.48575 0.17936
 C242 C 0.20792 0.50819 0.17969
 C243 C 0.19449 0.51906 0.19386
 C244 C 0.18052 0.50817 0.20746
 C245 C 0.18048 0.48574 0.20751
 C246 C 0.19409 0.47486 0.19351
 H247 H 0.19392 0.45769 0.19330
 H248 H 0.19452 0.53624 0.19398
 C249 C 0.79743 0.51123 0.17506
 C250 C 0.79659 0.48882 0.17612
 C251 C 0.80928 0.47815 0.19104
 C252 C 0.82339 0.48923 0.20438
 C253 C 0.82445 0.51155 0.20309
 C254 C 0.81149 0.52227 0.18850
 H255 H 0.81211 0.53943 0.18788
 H256 H 0.80891 0.46099 0.19163
 C257 C 0.20704 0.51112 0.82021
 C258 C 0.20682 0.48869 0.82075
 C259 C 0.19324 0.47757 0.80693
 C260 C 0.17935 0.48823 0.79304
 C261 C 0.17931 0.51066 0.79278
 C262 C 0.19339 0.52177 0.80610
 H263 H 0.19333 0.53895 0.80584
 H264 H 0.19312 0.46040 0.80733
 C265 C 0.29459 0.40237 0.07353
 C266 C 0.28749 0.38251 0.06631
 C267 C 0.29927 0.37138 0.05112
 C268 C 0.31845 0.37985 0.04287
 C269 C 0.32569 0.39960 0.05030
 C270 C 0.31388 0.41075 0.06544
 C271 C 0.28179 0.41447 0.08922
 C272 C 0.27882 0.43641 0.08688
 C273 C 0.26661 0.44781 0.10151
 C274 C 0.25716 0.43753 0.11884
 C275 C 0.26020 0.41560 0.12124
 C276 C 0.27234 0.40418 0.10655
 C277 C 0.24418 0.44967 0.13435
 C278 C 0.24634 0.44583 0.15609
 C279 C 0.23433 0.45749 0.17069
 C280 C 0.21999 0.47322 0.16382
 C281 C 0.21750 0.47682 0.14212
 C282 C 0.22958 0.46524 0.12752
 H283 H 0.27257 0.37576 0.07210
 H284 H 0.29324 0.35622 0.04570
 H285 H 0.34043 0.40655 0.04432
 H286 H 0.31990 0.42589 0.07091
 H287 H 0.28572 0.44473 0.07356
 H288 H 0.26472 0.46473 0.09937
 H289 H 0.25295 0.40723 0.13435
 H290 H 0.27451 0.38732 0.10886
 H291 H 0.25761 0.43406 0.16182
 H292 H 0.23645 0.45447 0.18738
 H293 H 0.20621 0.48861 0.13648
 H294 H 0.22730 0.46829 0.11086
 C295 C 0.70559 0.59491 0.07346
 C296 C 0.68405 0.58948 0.06908
 C297 C 0.67216 0.60088 0.05418
 C298 C 0.68148 0.61808 0.04348
 C299 C 0.70294 0.62359 0.04795
 C300 C 0.71488 0.61208 0.06267
 C301 C 0.71843 0.58264 0.08905
 C302 C 0.73348 0.59291 0.10216
 C303 C 0.74608 0.58133 0.11630
 C304 C 0.74376 0.55927 0.11785
 C305 C 0.72850 0.54900 0.10507
 C306 C 0.71604 0.56054 0.09074
 C307 C 0.75741 0.54701 0.13258
 C308 C 0.74829 0.53145 0.14565
 C309 C 0.76122 0.51998 0.15961
 C310 C 0.78356 0.52354 0.16044
 C311 C 0.79266 0.53914 0.14742
 C312 C 0.77970 0.55081 0.13366
 H313 H 0.67628 0.57656 0.07733
 H314 H 0.65561 0.59633 0.05116
 H315 H 0.71064 0.63665 0.03984
 H316 H 0.73154 0.61645 0.06532
 H317 H 0.73543 0.60994 0.10161
 H318 H 0.75751 0.58966 0.12621
 H319 H 0.72658 0.53196 0.10581
 H320 H 0.70488 0.55207 0.08067
 H321 H 0.73111 0.52843 0.14530
 H322 H 0.75376 0.50836 0.16983
 H323 H 0.80985 0.54213 0.14774
 H324 H 0.78714 0.56259 0.12361
 C325 C 0.70587 0.40857 0.92533
 C326 C 0.71486 0.38985 0.93343
 C327 C 0.70361 0.37772 0.94818
 C328 C 0.68312 0.38408 0.95523
 C329 C 0.67405 0.40274 0.94703
 C330 C 0.68529 0.41483 0.93219
 C331 C 0.71803 0.42155 0.90989
 C332 C 0.70764 0.43026 0.89222
 C333 C 0.71925 0.44217 0.87751
 C334 C 0.74144 0.44572 0.88026
 C335 C 0.75177 0.43716 0.89804
 C336 C 0.74020 0.42517 0.91267
 C337 C 0.75386 0.45811 0.86455
 C338 C 0.76934 0.47298 0.87116
 C339 C 0.78128 0.48439 0.85635
 C340 C 0.77791 0.48121 0.83469
 C341 C 0.76258 0.46630 0.82804
 C342 C 0.75057 0.45492 0.84284
 H343 H 0.73056 0.38448 0.92822
 H344 H 0.71104 0.36340 0.95414
 H345 H 0.65831 0.40808 0.95216
 H346 H 0.67805 0.42929 0.92635
 H347 H 0.69061 0.42759 0.88960
 H348 H 0.71084 0.44874 0.86405
 H349 H 0.76889 0.43947 0.90047
 H350 H 0.74857 0.41884 0.92627
 H351 H 0.77209 0.47589 0.88778
 H352 H 0.79320 0.49570 0.86178
 H353 H 0.75984 0.46358 0.81138
 H354 H 0.73896 0.44337 0.83730
 C355 C 0.29556 0.59293 0.92624
 C356 C 0.28587 0.60992 0.93696
 C357 C 0.29734 0.62129 0.95217
 C358 C 0.31869 0.61579 0.95713
 C359 C 0.32843 0.59883 0.94635
 C360 C 0.31700 0.58758 0.93096
 C361 C 0.28317 0.58074 0.91036
 C362 C 0.29236 0.57547 0.89080
 C363 C 0.28036 0.56442 0.87568
 C364 C 0.25899 0.55828 0.87990
 C365 C 0.25000 0.56329 0.89965
 C366 C 0.26191 0.57447 0.91466
 C367 C 0.24602 0.54678 0.86383
 C368 C 0.22388 0.55103 0.86160
 C369 C 0.21140 0.53966 0.84719
 C370 C 0.22077 0.52386 0.83461
 C371 C 0.24301 0.52005 0.83625
 C372 C 0.25549 0.53129 0.85083
 H373 H 0.26944 0.61451 0.93345
 H374 H 0.28938 0.63427 0.96019
 H375 H 0.34488 0.59425 0.94980
 H376 H 0.32479 0.57445 0.92302
 H377 H 0.30866 0.58030 0.88704
 H378 H 0.28769 0.56106 0.86055
 H379 H 0.23378 0.55837 0.90363
 H380 H 0.25458 0.57802 0.92976
 H381 H 0.21615 0.56317 0.87102
 H382 H 0.19429 0.54292 0.84615
 H383 H 0.25064 0.50813 0.82648
 H384 H 0.27245 0.52750 0.85224
 C385 C 0.07386 0.29629 0.40831
 C386 C 0.06705 0.28917 0.38839
 C387 C 0.05186 0.30066 0.37684
 C388 C 0.04318 0.31956 0.38493
 C389 C 0.05012 0.32677 0.40479
 C390 C 0.06527 0.31524 0.41637
 C391 C 0.08971 0.28388 0.42072
 C392 C 0.08693 0.28105 0.44254
 C393 C 0.10167 0.26908 0.45417
 C394 C 0.11956 0.25975 0.44424
 C395 C 0.12242 0.26268 0.42245
 C396 C 0.10763 0.27459 0.41081
 C397 C 0.13514 0.24690 0.45654
 C398 C 0.15741 0.24876 0.45288
 C399 C 0.17206 0.23657 0.46438
 C400 C 0.16473 0.22236 0.47980
 C401 C 0.14249 0.22030 0.48334
 C402 C 0.12783 0.23254 0.47191
 H403 H 0.07319 0.27450 0.38188
 H404 H 0.04682 0.29465 0.36161
 H405 H 0.04377 0.34129 0.41146
 H406 H 0.07041 0.32126 0.43156
 H407 H 0.07316 0.28784 0.45058
 H408 H 0.09918 0.26726 0.47098
 H409 H 0.13594 0.25551 0.41433
 H410 H 0.11031 0.27666 0.39406
 H411 H 0.16351 0.25983 0.44130
 H412 H 0.18916 0.23836 0.46142
 H413 H 0.13650 0.20914 0.49491
 H414 H 0.11076 0.23052 0.47483
 C415 C 0.07673 0.70440 0.59278
 C416 C 0.06855 0.68517 0.58497
 C417 C 0.05342 0.67361 0.59656
 C418 C 0.04611 0.68107 0.61620
 C419 C 0.05446 0.70020 0.62410
 C420 C 0.06961 0.71172 0.61253
 C421 C 0.09236 0.71697 0.58025
 C422 C 0.10993 0.72695 0.59012
 C423 C 0.12438 0.73917 0.57840
 C424 C 0.12154 0.74173 0.55656
 C425 C 0.10404 0.73166 0.54666
 C426 C 0.08962 0.71939 0.55838
 C427 C 0.13667 0.75502 0.54418
 C428 C 0.12890 0.76889 0.52860
 C429 C 0.14313 0.78158 0.51712
 C430 C 0.16540 0.78047 0.52086
 C431 C 0.17319 0.76675 0.53649
 C432 C 0.15897 0.75410 0.54802
 H433 H 0.07394 0.67900 0.56992
 H434 H 0.04734 0.65892 0.59004
 H435 H 0.04913 0.70641 0.63915
 H436 H 0.07543 0.72661 0.61885
 H437 H 0.11257 0.72521 0.60692
 H438 H 0.13759 0.74690 0.58649
 H439 H 0.10157 0.73317 0.52982
 H440 H 0.07612 0.71207 0.55037
 H441 H 0.11178 0.77019 0.52553
 H442 H 0.13677 0.79235 0.50537
 H443 H 0.19033 0.76568 0.53959
 H444 H 0.16544 0.74342 0.55977
 C445 C 0.92390 0.70107 0.40482
 C446 C 0.93472 0.71052 0.38777
 C447 C 0.95063 0.69946 0.37676
 C448 C 0.95628 0.67874 0.38264
 C449 C 0.94559 0.66929 0.39975
 C450 C 0.92952 0.68031 0.41069
 C451 C 0.90702 0.71302 0.41650
 C452 C 0.90520 0.71128 0.43855
 C453 C 0.88992 0.72324 0.44957
 C454 C 0.87627 0.73729 0.43881
 C455 C 0.87780 0.73879 0.41677
 C456 C 0.89293 0.72671 0.40573
 C457 C 0.86097 0.75090 0.45058
 C458 C 0.85930 0.77257 0.44581
 C459 C 0.84559 0.78567 0.45744
 C460 C 0.83321 0.77734 0.47400
 C461 C 0.83438 0.75556 0.47839
 C462 C 0.84830 0.74249 0.46692
 H463 H 0.93113 0.72663 0.38308
 H464 H 0.95867 0.70726 0.36374
 H465 H 0.94951 0.65329 0.40459
 H466 H 0.92132 0.67247 0.42357
 H467 H 0.91598 0.70113 0.44738
 H468 H 0.88922 0.72198 0.46660
 H469 H 0.86724 0.74928 0.40806
 H470 H 0.89356 0.72809 0.38872
 H471 H 0.86904 0.77949 0.43343
 H472 H 0.84500 0.80242 0.45382
 H473 H 0.82465 0.74871 0.49082
 H474 H 0.84908 0.72579 0.47072
 C475 C 0.92389 0.29471 0.59424
 C476 C 0.93015 0.31488 0.58715
 C477 C 0.94511 0.32686 0.59856
 C478 C 0.95401 0.31897 0.61737
 C479 C 0.94751 0.29890 0.62457
 C480 C 0.93267 0.28689 0.61311
 C481 C 0.90844 0.28171 0.58191
 C482 C 0.91213 0.25994 0.57898
 C483 C 0.89761 0.24762 0.56744
 C484 C 0.87902 0.25677 0.55867
 C485 C 0.87530 0.27854 0.56162
 C486 C 0.88991 0.29090 0.57306
 C487 C 0.86360 0.24363 0.54648
 C488 C 0.84126 0.24592 0.54945
 C489 C 0.82676 0.23343 0.53802
 C490 C 0.83434 0.21864 0.52327
 C491 C 0.85663 0.21618 0.52040
 C492 C 0.87113 0.22858 0.53187
 H493 H 0.92378 0.32121 0.57255
 H494 H 0.94979 0.34226 0.59259
 H495 H 0.95403 0.29236 0.63902
 H496 H 0.92793 0.27152 0.61909
 H497 H 0.92639 0.25247 0.58544
 H498 H 0.90079 0.23085 0.56557
 H499 H 0.86120 0.28604 0.55487
 H500 H 0.88658 0.30760 0.57521
 H501 H 0.83502 0.25720 0.56079
 H502 H 0.80960 0.23546 0.54050
 H503 H 0.86277 0.20469 0.50921
 H504 H 0.88824 0.22659 0.52914
 C505 C 0.40459 0.07734 0.29396
 C506 C 0.41559 0.06309 0.30722
 C507 C 0.40425 0.04832 0.31931
 C508 C 0.38170 0.04716 0.31810
 C509 C 0.37064 0.06138 0.30500
 C510 C 0.38192 0.07645 0.29325
 C511 C 0.41669 0.09272 0.28061
 C512 C 0.40895 0.09840 0.26054
 C513 C 0.42039 0.11256 0.24786
 C514 C 0.44012 0.12114 0.25469
 C515 C 0.44787 0.11547 0.27476
 C516 C 0.43622 0.10161 0.28762
 C517 C 0.45267 0.13564 0.24080
 C518 C 0.46506 0.15224 0.24942
 C519 C 0.47718 0.16550 0.23636
 C520 C 0.47689 0.16264 0.21444
 C521 C 0.46432 0.14642 0.20570
 C522 C 0.45252 0.13291 0.21875
 H523 H 0.43302 0.06296 0.30792
 H524 H 0.41318 0.03740 0.32917
 H525 H 0.35321 0.06097 0.30396
 H526 H 0.37281 0.08746 0.28367
 H527 H 0.39419 0.09168 0.25438
 H528 H 0.41366 0.11681 0.23269
 H529 H 0.46313 0.12147 0.28049
 H530 H 0.44256 0.09793 0.30309
 H531 H 0.46528 0.15513 0.26625
 H532 H 0.48675 0.17806 0.24331
 H533 H 0.46410 0.14392 0.18880
 H534 H 0.44361 0.12007 0.21152
 C535 C 0.59560 0.07198 0.70664
 C536 C 0.58688 0.06408 0.68773
 C537 C 0.59818 0.04914 0.67577
 C538 C 0.61841 0.04174 0.68250
 C539 C 0.62718 0.04975 0.70134
 C540 C 0.61590 0.06471 0.71326
 C541 C 0.58349 0.08759 0.71954
 C542 C 0.59422 0.10470 0.72910
 C543 C 0.58290 0.11922 0.74152
 C544 C 0.56060 0.11692 0.74469
 C545 C 0.54985 0.09984 0.73509
 C546 C 0.56117 0.08535 0.72262
 C547 C 0.54861 0.13230 0.75795
 C548 C 0.53272 0.12530 0.77215
 C549 C 0.52140 0.13981 0.78458
 C550 C 0.52560 0.16159 0.78288
 C551 C 0.54162 0.16860 0.76892
 C552 C 0.55299 0.15410 0.75654
 H553 H 0.57139 0.06959 0.68209
 H554 H 0.59100 0.04331 0.66131
 H555 H 0.64270 0.04434 0.70700
 H556 H 0.62291 0.07030 0.72789
 H557 H 0.61137 0.10696 0.72685
 H558 H 0.59165 0.13210 0.74886
 H559 H 0.53264 0.09779 0.73706
 H560 H 0.55250 0.07220 0.71564
 H561 H 0.52924 0.10857 0.77383
 H562 H 0.50933 0.13407 0.79552
 H563 H 0.54507 0.18535 0.76739
 H564 H 0.56497 0.15998 0.74559
 C565 C 0.40360 0.92581 0.70679
 C566 C 0.41254 0.93395 0.68810
 C567 C 0.40139 0.94905 0.67625
 C568 C 0.38109 0.95638 0.68286
 C569 C 0.37209 0.94810 0.70145
 C570 C 0.38321 0.93297 0.71327
 C571 C 0.41565 0.91017 0.71968
 C572 C 0.40495 0.89289 0.72892
 C573 C 0.41624 0.87842 0.74142
 C574 C 0.43844 0.88099 0.74500
 C575 C 0.44915 0.89820 0.73565
 C576 C 0.43789 0.91262 0.72311
 C577 C 0.45039 0.86585 0.75854
 C578 C 0.46581 0.87322 0.77305
 C579 C 0.47728 0.85899 0.78561
 C580 C 0.47374 0.83711 0.78373
 C581 C 0.45809 0.82971 0.76956
 C582 C 0.44653 0.84395 0.75704
 H583 H 0.42811 0.92853 0.68258
 H584 H 0.40874 0.95507 0.66197
 H585 H 0.35649 0.95343 0.70700
 H586 H 0.37603 0.92718 0.72773
 H587 H 0.38786 0.89048 0.72639
 H588 H 0.40752 0.86541 0.74855
 H589 H 0.46631 0.90044 0.73794
 H590 H 0.44653 0.92589 0.71637
 H591 H 0.46884 0.89002 0.77483
 H592 H 0.48902 0.86504 0.79675
 H593 H 0.45512 0.81288 0.76792
 H594 H 0.43488 0.83780 0.74588
 C595 C 0.59324 0.92571 0.29408
 C596 C 0.61385 0.93237 0.28773
 C597 C 0.62529 0.94723 0.29963
 C598 C 0.61640 0.95573 0.31820
 C599 C 0.59588 0.94890 0.32468
 C600 C 0.58440 0.93408 0.31273
 C601 C 0.58088 0.91037 0.28109
 C602 C 0.55875 0.91342 0.27743
 C603 C 0.54721 0.89930 0.26475
 C604 C 0.55753 0.88177 0.25551
 C605 C 0.57960 0.87859 0.25934
 C606 C 0.59116 0.89277 0.27196
 C607 C 0.54532 0.86698 0.24178
 C608 C 0.54844 0.84498 0.24334
 C609 C 0.53671 0.83108 0.23056
 C610 C 0.52163 0.83893 0.21604
 C611 C 0.51882 0.86091 0.21414
 C612 C 0.53045 0.87480 0.22697
 H613 H 0.62096 0.92639 0.27330
 H614 H 0.64105 0.95218 0.29419
 H615 H 0.58859 0.95510 0.33893
 H616 H 0.56866 0.92905 0.31814
 H617 H 0.55043 0.92694 0.28409
 H618 H 0.53016 0.90201 0.26226
 H619 H 0.58801 0.86532 0.25230
 H620 H 0.60815 0.88990 0.27467
 H621 H 0.55966 0.83850 0.25471
 H622 H 0.53911 0.81417 0.23224
 H623 H 0.50757 0.86730 0.20275
 H624 H 0.52800 0.89168 0.22515
 C625 C 0.40627 0.29763 0.92225
 C626 C 0.41455 0.31629 0.93123
 C627 C 0.40279 0.32738 0.94645
 C628 C 0.38252 0.31999 0.95308
 C629 C 0.37412 0.30146 0.94391
 C630 C 0.38586 0.29042 0.92864
 C631 C 0.41909 0.28539 0.90670
 C632 C 0.40919 0.27642 0.88886
 C633 C 0.42116 0.26424 0.87464
 C634 C 0.44325 0.26068 0.87804
 C635 C 0.45320 0.26988 0.89574
 C636 C 0.44126 0.28213 0.90989
 C637 C 0.45575 0.24697 0.86351
 C638 C 0.47038 0.23204 0.87159
 C639 C 0.48191 0.21881 0.85802
 C640 C 0.47925 0.22043 0.83610
 C641 C 0.46457 0.23522 0.82796
 C642 C 0.45292 0.24840 0.84155
 H643 H 0.43013 0.32235 0.92643
 H644 H 0.40968 0.34163 0.95317
 H645 H 0.35856 0.29534 0.94868
 H646 H 0.37917 0.27595 0.92217
 H647 H 0.39217 0.27883 0.88590
 H648 H 0.41303 0.25721 0.86124
 H649 H 0.47024 0.26759 0.89863
 H650 H 0.44928 0.28868 0.92360
 H651 H 0.47258 0.23029 0.88845
 H652 H 0.49274 0.20713 0.86464
 H653 H 0.46226 0.23665 0.81109
 H654 H 0.44187 0.25986 0.83489
 C655 C 0.59359 0.70487 0.92630
 C656 C 0.58786 0.68387 0.93115
 C657 C 0.59918 0.67254 0.94650
 C658 C 0.61657 0.68188 0.95724
 C659 C 0.62237 0.70282 0.95234
 C660 C 0.61095 0.71421 0.93713
 C661 C 0.58143 0.71708 0.91016
 C662 C 0.59220 0.73129 0.89671
 C663 C 0.58072 0.74335 0.88207
 C664 C 0.55825 0.74135 0.88040
 C665 C 0.54748 0.72688 0.89350
 C666 C 0.55894 0.71493 0.90829
 C667 C 0.54603 0.75475 0.86544
 C668 C 0.52981 0.74596 0.85266
 C669 C 0.51813 0.75877 0.83879
 C670 C 0.52217 0.78065 0.83777
 C671 C 0.53852 0.78937 0.85039
 C672 C 0.55037 0.77654 0.86406
 H673 H 0.57479 0.67609 0.92289
 H674 H 0.59441 0.65638 0.94984
 H675 H 0.63560 0.71052 0.96044
 H676 H 0.61555 0.73047 0.93409
 H677 H 0.60955 0.73301 0.89741
 H678 H 0.58943 0.75419 0.87194
 H679 H 0.53012 0.72522 0.89269
 H680 H 0.55009 0.70440 0.91861
 H681 H 0.52634 0.72916 0.85326
 H682 H 0.50587 0.75164 0.82891
 H683 H 0.54187 0.80620 0.84993
 H684 H 0.56264 0.78373 0.87389
 C685 C 0.40444 0.70342 0.07500
 C686 C 0.41550 0.69005 0.06100
 C687 C 0.40413 0.67782 0.04636
 C688 C 0.38156 0.67915 0.04517
 C689 C 0.37052 0.69254 0.05921
 C690 C 0.38186 0.70440 0.07417
 C691 C 0.41648 0.71676 0.09007
 C692 C 0.41163 0.71615 0.11169
 C693 C 0.42295 0.72895 0.12589
 C694 C 0.43891 0.74288 0.11857
 C695 C 0.44367 0.74358 0.09695
 C696 C 0.43270 0.73045 0.08282
 C697 C 0.45049 0.75684 0.13342
 C698 C 0.45076 0.77883 0.13016
 C699 C 0.46186 0.79207 0.14408
 C700 C 0.47327 0.78344 0.16112
 C701 C 0.47299 0.76147 0.16444
 C702 C 0.46149 0.74826 0.15077
 H703 H 0.43292 0.68905 0.06146
 H704 H 0.41303 0.66770 0.03565
 H705 H 0.35311 0.69379 0.05865
 H706 H 0.37307 0.71471 0.08478
 H707 H 0.39920 0.70564 0.11757
 H708 H 0.41903 0.72826 0.14253
 H709 H 0.45601 0.75418 0.09105
 H710 H 0.43658 0.73122 0.06618
 H711 H 0.44228 0.78572 0.11690
 H712 H 0.46199 0.80901 0.14133
 H713 H 0.48173 0.75461 0.17755
 H714 H 0.46151 0.73132 0.15347
 C715 C 0.59994 0.29261 0.07212
 C716 C 0.59394 0.31370 0.06824
 C717 C 0.60496 0.32577 0.05325
 C718 C 0.62236 0.31705 0.04198
 C719 C 0.62854 0.29604 0.04610
 C720 C 0.61737 0.28391 0.06094
 C721 C 0.58782 0.27959 0.08752
 C722 C 0.58181 0.25875 0.08246
 C723 C 0.57015 0.24651 0.09681
 C724 C 0.56439 0.25477 0.11665
 C725 C 0.57051 0.27562 0.12172
 C726 C 0.58202 0.28793 0.10727
 C727 C 0.55196 0.24168 0.13187
 C728 C 0.53580 0.25082 0.14451
 C729 C 0.52377 0.23835 0.15841
 C730 C 0.52743 0.21645 0.15971
 C731 C 0.54381 0.20735 0.14742
 C732 C 0.55597 0.21982 0.13368
 H733 H 0.58043 0.32072 0.07651
 H734 H 0.59983 0.34192 0.05045
 H735 H 0.64187 0.28887 0.03768
 H736 H 0.62246 0.26775 0.06379
 H737 H 0.58578 0.25206 0.06721
 H738 H 0.56533 0.23069 0.09221
 H739 H 0.56664 0.28236 0.13697
 H740 H 0.58667 0.30388 0.11164
 H741 H 0.53214 0.26755 0.14339
 H742 H 0.51144 0.24577 0.16799
 H743 H 0.54697 0.19049 0.14824
 H744 H 0.56856 0.21233 0.12451
 C745 C 0.29668 0.07591 0.59561
 C746 C 0.28916 0.06915 0.61539
 C747 C 0.30041 0.05382 0.62682
 C748 C 0.31948 0.04494 0.61874
 C749 C 0.32710 0.05182 0.59902
 C750 C 0.31579 0.06711 0.58756
 C751 C 0.28443 0.09188 0.58334
 C752 C 0.28146 0.08936 0.56150
 C753 C 0.26941 0.10410 0.55004
 C754 C 0.26016 0.12171 0.56017
 C755 C 0.26335 0.12435 0.58196
 C756 C 0.27532 0.10958 0.59342
 C757 C 0.24701 0.13711 0.54809
 C758 C 0.24903 0.15899 0.55181
 C759 C 0.23653 0.17347 0.54050
 C760 C 0.22185 0.16634 0.52523
 C761 C 0.21959 0.14450 0.52167
 C762 C 0.23215 0.13003 0.53290
 H763 H 0.27433 0.07544 0.62188
 H764 H 0.29409 0.04884 0.64194
 H765 H 0.34176 0.04531 0.59238
 H766 H 0.32210 0.07219 0.57246
 H767 H 0.28812 0.07579 0.55333
 H768 H 0.26741 0.10177 0.53323
 H769 H 0.25626 0.13766 0.59021
 H770 H 0.27753 0.11204 0.61019
 H771 H 0.26049 0.16491 0.56328
 H772 H 0.23847 0.19026 0.54348
 H773 H 0.20805 0.13867 0.51023
 H774 H 0.22997 0.11326 0.52996
 C775 C 0.70260 0.07244 0.40585
 C776 C 0.68179 0.06644 0.41212
 C777 C 0.67028 0.05128 0.40062
 C778 C 0.67923 0.04202 0.38236
 C779 C 0.69999 0.04841 0.37597
 C780 C 0.71157 0.06332 0.38767
 C781 C 0.71511 0.08801 0.41833
 C782 C 0.73664 0.08380 0.42366
 C783 C 0.74863 0.09852 0.43519
 C784 C 0.73946 0.11794 0.44141
 C785 C 0.71782 0.12205 0.43613
 C786 C 0.70574 0.10717 0.42482
 C787 C 0.75253 0.13380 0.45319
 C788 C 0.74319 0.14643 0.46906
 C789 C 0.75568 0.16103 0.48030
 C790 C 0.77784 0.16301 0.47621
 C791 C 0.78710 0.15070 0.46016
 C792 C 0.77459 0.13634 0.44872
 H793 H 0.67460 0.07319 0.42617
 H794 H 0.65435 0.04687 0.40607
 H795 H 0.70749 0.04174 0.36203
 H796 H 0.72753 0.06786 0.38241
 H797 H 0.74412 0.06898 0.41910
 H798 H 0.76505 0.09456 0.43940
 H799 H 0.71032 0.13694 0.44038
 H800 H 0.68920 0.11083 0.42073
 H801 H 0.72632 0.14480 0.47307
 H802 H 0.74809 0.17062 0.49237
 H803 H 0.80414 0.15199 0.45665
 H804 H 0.78224 0.12727 0.43630
 C805 C 0.70361 0.92257 0.59544
 C806 C 0.70532 0.92377 0.61756
 C807 C 0.69399 0.93916 0.62888
 C808 C 0.68031 0.95339 0.61842
 C809 C 0.67814 0.95196 0.59644
 C810 C 0.68983 0.93688 0.58504
 C811 C 0.71644 0.90676 0.58327
 C812 C 0.70829 0.89775 0.56459
 C813 C 0.72064 0.88343 0.55288
 C814 C 0.74131 0.87740 0.55973
 C815 C 0.74928 0.88611 0.57861
 C816 C 0.73712 0.90074 0.59009
 C817 C 0.75463 0.86234 0.54715
 C818 C 0.77723 0.86446 0.54648
 C819 C 0.78976 0.85033 0.53478
 C820 C 0.77997 0.83411 0.52313
 C821 C 0.75750 0.83191 0.52359
 C822 C 0.74494 0.84578 0.53562
 H823 H 0.71531 0.91275 0.62622
 H824 H 0.69575 0.93979 0.64587
 H825 H 0.66782 0.96288 0.58798
 H826 H 0.68838 0.93679 0.56803
 H827 H 0.69231 0.90167 0.55897
 H828 H 0.71403 0.87733 0.53828
 H829 H 0.76493 0.88161 0.58466
 H830 H 0.74416 0.90753 0.60418
 H831 H 0.78528 0.87725 0.55469
 H832 H 0.80710 0.85232 0.53442
 H833 H 0.74973 0.81936 0.51474
 H834 H 0.72768 0.84336 0.53604
 C835 C 0.29444 0.92883 0.40411
 C836 C 0.31495 0.93533 0.41096
 C837 C 0.32661 0.95043 0.39958
 C838 C 0.31804 0.95929 0.38105
 C839 C 0.29762 0.95262 0.37410
 C840 C 0.28594 0.93759 0.38552
 C841 C 0.28184 0.91313 0.41640
 C842 C 0.25963 0.91605 0.41965
 C843 C 0.24773 0.90132 0.43124
 C844 C 0.25776 0.88331 0.43978
 C845 C 0.27997 0.88037 0.43652
 C846 C 0.29190 0.89516 0.42500
 C847 C 0.24507 0.86764 0.45200
 C848 C 0.24827 0.84579 0.44897
 C849 C 0.23616 0.83105 0.46035
 C850 C 0.22080 0.83788 0.47510
 C851 C 0.21748 0.85966 0.47808
 C852 C 0.22953 0.87441 0.46667
 H853 H 0.32181 0.92901 0.42535
 H854 H 0.34229 0.95524 0.40537
 H855 H 0.29057 0.95910 0.35987
 H856 H 0.27029 0.93268 0.37972
 H857 H 0.25149 0.92986 0.41340
 H858 H 0.23061 0.90390 0.43333
 H859 H 0.28816 0.86673 0.44307
 H860 H 0.30896 0.89242 0.42260
 H861 H 0.25992 0.84012 0.43757
 H862 H 0.23886 0.81429 0.45778
 H863 H 0.20554 0.86523 0.48925
 H864 H 0.22685 0.89113 0.46947
 C865 C 0.07262 0.40645 0.70441
 C866 C 0.06149 0.38944 0.71362
 C867 C 0.04631 0.37800 0.70201
 C868 C 0.04177 0.38346 0.68099
 C869 C 0.05292 0.40047 0.67175
 C870 C 0.06831 0.41178 0.68332
 C871 C 0.08855 0.41864 0.71690
 C872 C 0.10879 0.42376 0.70841
 C873 C 0.12397 0.43479 0.72049
 C874 C 0.11912 0.44110 0.74125
 C875 C 0.09869 0.43623 0.74955
 C876 C 0.08363 0.42503 0.73756
 C877 C 0.13524 0.45266 0.75427
 C878 C 0.13689 0.44869 0.77605
 C879 C 0.15141 0.46006 0.78849
 C880 C 0.16471 0.47557 0.77946
 C881 C 0.16362 0.47912 0.75762
 C882 C 0.14892 0.46790 0.74517
 H883 H 0.06468 0.38487 0.72979
 H884 H 0.03799 0.36498 0.70958
 H885 H 0.04980 0.40502 0.65557
 H886 H 0.07658 0.42492 0.67591
 H887 H 0.11304 0.41881 0.69258
 H888 H 0.13964 0.43801 0.71370
 H889 H 0.09421 0.44126 0.76529
 H890 H 0.06801 0.42157 0.74436
 H891 H 0.12695 0.43676 0.78351
 H892 H 0.15202 0.45700 0.80529
 H893 H 0.17396 0.49078 0.75024
 H894 H 0.14797 0.47149 0.72850
 C895 C 0.07642 0.59413 0.29485
 C896 C 0.06713 0.61271 0.28673
 C897 C 0.05212 0.62416 0.29858
 C898 C 0.04599 0.61721 0.31877
 C899 C 0.05544 0.59872 0.32696
 C900 C 0.07053 0.58733 0.31514
 C901 C 0.09193 0.58168 0.28205
 C902 C 0.11058 0.57312 0.29130
 C903 C 0.12506 0.56124 0.27924
 C904 C 0.12112 0.55757 0.25771
 C905 C 0.10248 0.56613 0.24847
 C906 C 0.08806 0.57810 0.26050
 C907 C 0.13638 0.54482 0.24492
 C908 C 0.12865 0.52975 0.23042
 C909 C 0.14300 0.51783 0.21828
 C910 C 0.16532 0.52070 0.22045
 C911 C 0.17309 0.53583 0.23478
 C912 C 0.15875 0.54772 0.24700
 H913 H 0.07156 0.61846 0.27124
 H914 H 0.04517 0.63835 0.29183
 H915 H 0.05106 0.59293 0.34245
 H916 H 0.07726 0.57295 0.32171
 H917 H 0.11406 0.57577 0.30783
 H918 H 0.13921 0.55469 0.28681
 H919 H 0.09914 0.56373 0.23187
 H920 H 0.07372 0.58432 0.25300
 H921 H 0.11151 0.52705 0.22863
 H922 H 0.13670 0.50637 0.20714
 H923 H 0.19027 0.53833 0.23658
 H924 H 0.16514 0.55939 0.25785
 C925 C 0.92361 0.40557 0.29787
 C926 C 0.93020 0.38535 0.29120
 C927 C 0.94540 0.37391 0.30280
 C928 C 0.95428 0.38242 0.32137
 C929 C 0.94745 0.40253 0.32820
 C930 C 0.93231 0.41399 0.31655
 C931 C 0.90813 0.41805 0.28509
 C932 C 0.91159 0.43977 0.28163
 C933 C 0.89748 0.45141 0.26898
 C934 C 0.87955 0.44160 0.25958
 C935 C 0.87588 0.41996 0.26331
 C936 C 0.89006 0.40829 0.27589
 C937 C 0.86505 0.45382 0.24553
 C938 C 0.84256 0.45124 0.24662
 C939 C 0.82901 0.46276 0.23325
 C940 C 0.83770 0.47706 0.21861
 C941 C 0.86016 0.47940 0.21729
 C942 C 0.87369 0.46801 0.23070
 H943 H 0.92395 0.37857 0.27674
 H944 H 0.95032 0.35847 0.29711
 H945 H 0.95394 0.40951 0.34246
 H946 H 0.92734 0.42943 0.32220
 H947 H 0.92549 0.44768 0.28835
 H948 H 0.90058 0.46811 0.26656
 H949 H 0.86228 0.41195 0.25614
 H950 H 0.88687 0.39162 0.27846
 H951 H 0.83546 0.44052 0.25799
 H952 H 0.81172 0.46069 0.23445
 H953 H 0.86723 0.48993 0.20573
 H954 H 0.89097 0.47000 0.22921
 C955 C 0.92443 0.59662 0.70203
 C956 C 0.93171 0.61649 0.70908
 C957 C 0.94715 0.62774 0.69760
 C958 C 0.95564 0.61938 0.67879
 C959 C 0.94819 0.59961 0.67163
 C960 C 0.93277 0.58834 0.68313
 C961 C 0.90845 0.58445 0.71453
 C962 C 0.91085 0.56249 0.71730
 C963 C 0.89608 0.55109 0.72945
 C964 C 0.87855 0.56139 0.73906
 C965 C 0.87604 0.58331 0.73613
 C966 C 0.89085 0.59473 0.72403
 C967 C 0.86307 0.54934 0.75225
 C968 C 0.84082 0.55339 0.75096
 C969 C 0.82629 0.54208 0.76346
 C970 C 0.83372 0.52648 0.77743
 C971 C 0.85594 0.52257 0.77894
 C972 C 0.87047 0.53381 0.76639
 H973 H 0.92577 0.62316 0.72371
 H974 H 0.95258 0.64291 0.70358
 H975 H 0.95436 0.59275 0.65717
 H976 H 0.92727 0.57320 0.67717
 H977 H 0.92436 0.55416 0.71035
 H978 H 0.89830 0.53417 0.73124
 H979 H 0.86281 0.59172 0.74349
 H980 H 0.88846 0.61160 0.72201
 H981 H 0.83464 0.56511 0.74007
 H982 H 0.80920 0.54532 0.76209
 H983 H 0.86202 0.51087 0.78991
 H984 H 0.88754 0.53060 0.76800
 C985 C 0.70355 0.59807 0.92531
 C986 C 0.68319 0.59086 0.93175
 C987 C 0.67169 0.60167 0.94739
 C988 C 0.68017 0.62017 0.95673
 C989 C 0.70048 0.62749 0.94993
 C990 C 0.71208 0.61647 0.93454
 C991 C 0.71604 0.58631 0.90920
 C992 C 0.73782 0.58146 0.91272
 C993 C 0.74966 0.57029 0.89763
 C994 C 0.74010 0.56398 0.87849
 C995 C 0.71826 0.56895 0.87499
 C996 C 0.70633 0.57986 0.89025
 C997 C 0.75285 0.55216 0.86239
 C998 C 0.74321 0.53625 0.84999
 C999 C 0.75539 0.52480 0.83534
 C1000 C 0.77757 0.52864 0.83309
 C1001 C 0.78713 0.54479 0.84511
 C1002 C 0.77491 0.55648 0.85950
 H1003 H 0.67635 0.57662 0.92494
 H1004 H 0.65612 0.59549 0.95210
 H1005 H 0.70761 0.64164 0.95664
 H1006 H 0.72769 0.62242 0.92970
 H1007 H 0.74558 0.58601 0.92735
 H1008 H 0.76625 0.56633 0.90115
 H1009 H 0.71043 0.56470 0.86033
 H1010 H 0.68960 0.58361 0.88710
 H1011 H 0.72634 0.53231 0.85187
 H1012 H 0.74753 0.51269 0.82597
 H1013 H 0.80419 0.54813 0.84361
 H1014 H 0.78281 0.56892 0.86837
 C1015 C 0.29466 0.40521 0.92604
 C1016 C 0.28721 0.38544 0.93308
 C1017 C 0.29889 0.37387 0.94798
 C1018 C 0.31843 0.38174 0.95619
 C1019 C 0.32591 0.40155 0.94901
 C1020 C 0.31413 0.41314 0.93417
 C1021 C 0.28208 0.41755 0.91035
 C1022 C 0.27943 0.43954 0.91271
 C1023 C 0.26727 0.45109 0.89814
 C1024 C 0.25759 0.44091 0.88082
 C1025 C 0.26037 0.41895 0.87838
 C1026 C 0.27244 0.40740 0.89301
 C1027 C 0.24452 0.45313 0.86543
 C1028 C 0.24631 0.44914 0.84367
 C1029 C 0.23401 0.46066 0.82920
 C1030 C 0.21974 0.47641 0.83619
 C1031 C 0.21768 0.48022 0.85792
 C1032 C 0.23006 0.46879 0.87240
 H1033 H 0.27212 0.37904 0.92729
 H1034 H 0.29250 0.35874 0.95307
 H1035 H 0.34086 0.40820 0.95486
 H1036 H 0.32040 0.42823 0.92885
 H1037 H 0.28649 0.44778 0.92601
 H1038 H 0.26558 0.46802 0.90031
 H1039 H 0.25295 0.41064 0.86531
 H1040 H 0.27438 0.39051 0.89066
 H1041 H 0.25746 0.43731 0.83783
 H1042 H 0.23582 0.45747 0.81250
 H1043 H 0.20646 0.49202 0.86368
 H1044 H 0.22806 0.47197 0.88907
 C1045 C 0.29671 0.59091 0.07435
 C1046 C 0.31744 0.58467 0.06801
 C1047 C 0.32876 0.59640 0.05291
 C1048 C 0.31970 0.61485 0.04405
 C1049 C 0.29903 0.62119 0.05079
 C1050 C 0.28765 0.60928 0.06562
 C1051 C 0.28434 0.57824 0.08986
 C1052 C 0.26270 0.57310 0.08592
 C1053 C 0.25077 0.56161 0.10066
 C1054 C 0.26009 0.55524 0.11988
 C1055 C 0.28186 0.56026 0.12371
 C1056 C 0.29389 0.57153 0.10879
 C1057 C 0.24703 0.54359 0.13582
 C1058 C 0.25629 0.52758 0.14833
 C1059 C 0.24379 0.51642 0.16295
 C1060 C 0.22168 0.52072 0.16508
 C1061 C 0.21251 0.53694 0.15292
 C1062 C 0.22503 0.54830 0.13855
 H1063 H 0.32471 0.57049 0.07446
 H1064 H 0.34462 0.59098 0.04822
 H1065 H 0.29144 0.63527 0.04446
 H1066 H 0.27176 0.61453 0.07043
 H1067 H 0.25507 0.57782 0.07129
 H1068 H 0.23425 0.55759 0.09689
 H1069 H 0.28950 0.55589 0.13842
 H1070 H 0.31051 0.57546 0.11226
 H1071 H 0.27311 0.52338 0.14658
 H1072 H 0.25133 0.50421 0.17240
 H1073 H 0.19551 0.54063 0.15432
 H1074 H 0.21743 0.56084 0.12960
 C1075 C 0.70886 0.40347 0.07217
 C1076 C 0.68861 0.41087 0.06553
 C1077 C 0.67671 0.39969 0.05046
 C1078 C 0.68472 0.38073 0.04169
 C1079 C 0.70491 0.37323 0.04862
 C1080 C 0.71683 0.38449 0.06361
 C1081 C 0.72177 0.41566 0.08772
 C1082 C 0.74404 0.41842 0.08477
 C1083 C 0.75619 0.43016 0.09921
 C1084 C 0.74635 0.43931 0.11698
 C1085 C 0.72410 0.43644 0.12003
 C1086 C 0.71192 0.42480 0.10551
 C1087 C 0.75925 0.45195 0.13219
 C1088 C 0.75618 0.44961 0.15405
 C1089 C 0.76841 0.46149 0.16833
 C1090 C 0.78374 0.47608 0.16101
 C1091 C 0.78693 0.47835 0.13921
 C1092 C 0.77479 0.46642 0.12494
 H1093 H 0.68216 0.42556 0.07170
 H1094 H 0.66127 0.40605 0.04560
 H1095 H 0.71167 0.35869 0.04238
 H1096 H 0.73226 0.37827 0.06862
 H1097 H 0.75204 0.41174 0.07112
 H1098 H 0.77334 0.43194 0.09656
 H1099 H 0.71605 0.44346 0.13348
 H1100 H 0.69482 0.42279 0.10828
 H1101 H 0.74450 0.43840 0.16009
 H1102 H 0.76578 0.45946 0.18510
 H1103 H 0.79884 0.48937 0.13325
 H1104 H 0.77737 0.46870 0.10820
 C1105 C 0.92794 0.70520 0.59196
 C1106 C 0.93458 0.68506 0.58513
 C1107 C 0.94953 0.67338 0.59684
 C1108 C 0.95806 0.68150 0.61581
 C1109 C 0.95109 0.70159 0.62273
 C1110 C 0.93631 0.71331 0.61090
 C1111 C 0.91242 0.71780 0.57934
 C1112 C 0.91595 0.73951 0.57592
 C1113 C 0.90129 0.75145 0.56415
 C1114 C 0.88270 0.74197 0.55572
 C1115 C 0.87917 0.72024 0.55912
 C1116 C 0.89394 0.70825 0.57072
 C1117 C 0.86692 0.75476 0.54363
 C1118 C 0.84470 0.75259 0.54739
 C1119 C 0.82983 0.76489 0.53627
 C1120 C 0.83689 0.77937 0.52099
 C1121 C 0.85906 0.78161 0.51720
 C1122 C 0.87396 0.76942 0.52843
 H1123 H 0.92850 0.67851 0.57049
 H1124 H 0.95442 0.65801 0.59092
 H1125 H 0.95717 0.70844 0.63724
 H1126 H 0.93126 0.72868 0.61666
 H1127 H 0.93016 0.74723 0.58222
 H1128 H 0.90432 0.76820 0.56192
 H1129 H 0.86506 0.71250 0.55265
 H1130 H 0.89076 0.69158 0.57324
 H1131 H 0.83885 0.74159 0.55918
 H1132 H 0.81278 0.76301 0.53944
 H1133 H 0.86481 0.79282 0.50556
 H1134 H 0.89097 0.77131 0.52512
 C1135 C 0.92399 0.29627 0.40659
 C1136 C 0.92993 0.31664 0.41330
 C1137 C 0.94530 0.32830 0.40207
 C1138 C 0.95482 0.31993 0.38366
 C1139 C 0.94840 0.29964 0.37680
 C1140 C 0.93331 0.28792 0.38822
 C1141 C 0.90836 0.28352 0.41885
 C1142 C 0.91302 0.26236 0.42385
 C1143 C 0.89827 0.25013 0.43517
 C1144 C 0.87833 0.25866 0.44150
 C1145 C 0.87375 0.27993 0.43653
 C1146 C 0.88868 0.29226 0.42545
 C1147 C 0.86246 0.24536 0.45313
 C1148 C 0.84933 0.25413 0.46900
 C1149 C 0.83481 0.24143 0.48017
 C1150 C 0.83343 0.21960 0.47605
 C1151 C 0.84621 0.21089 0.45997
 C1152 C 0.86046 0.22362 0.44858
 H1153 H 0.92302 0.32336 0.42750
 H1154 H 0.94972 0.34385 0.40788
 H1155 H 0.95524 0.29259 0.36272
 H1156 H 0.92881 0.27231 0.38263
 H1157 H 0.92824 0.25536 0.41920
 H1158 H 0.90264 0.23402 0.43915
 H1159 H 0.85846 0.28697 0.44084
 H1160 H 0.88466 0.30851 0.42162
 H1161 H 0.85051 0.27074 0.47309
 H1162 H 0.82483 0.24862 0.49222
 H1163 H 0.84538 0.19413 0.45641
 H1164 H 0.86989 0.21637 0.43615
 C1165 C 0.07422 0.29722 0.59718
 C1166 C 0.06788 0.31733 0.59009
 C1167 C 0.05210 0.32881 0.60094
 C1168 C 0.04253 0.32055 0.61936
 C1169 C 0.04929 0.30052 0.62660
 C1170 C 0.06481 0.28894 0.61553
 C1171 C 0.09033 0.28470 0.58526
 C1172 C 0.08626 0.26339 0.58036
 C1173 C 0.10132 0.25151 0.56903
 C1174 C 0.12099 0.26056 0.56261
 C1175 C 0.12503 0.28194 0.56760
 C1176 C 0.10979 0.29391 0.57868
 C1177 C 0.13709 0.24772 0.55072
 C1178 C 0.14984 0.25692 0.53480
 C1179 C 0.16448 0.24464 0.52331
 C1180 C 0.16638 0.22281 0.52715
 C1181 C 0.15402 0.21369 0.54331
 C1182 C 0.13964 0.22600 0.55502
 H1183 H 0.07483 0.32398 0.57589
 H1184 H 0.04743 0.34416 0.59484
 H1185 H 0.04240 0.29357 0.64069
 H1186 H 0.06958 0.27353 0.62139
 H1187 H 0.07122 0.25602 0.58500
 H1188 H 0.09737 0.23529 0.56506
 H1189 H 0.14011 0.28937 0.56324
 H1190 H 0.11336 0.31028 0.58244
 H1191 H 0.14821 0.27353 0.53089
 H1192 H 0.17412 0.25214 0.51119
 H1193 H 0.15523 0.19691 0.54665
 H1194 H 0.13053 0.21844 0.56748
 C1195 C 0.07755 0.70233 0.40385
 C1196 C 0.06800 0.71073 0.38556
 C1197 C 0.05239 0.69930 0.37446
 C1198 C 0.04559 0.67923 0.38152
 C1199 C 0.05509 0.67086 0.39989
 C1200 C 0.07095 0.68220 0.41081
 C1201 C 0.09410 0.71466 0.41571
 C1202 C 0.09515 0.71372 0.43788
 C1203 C 0.11029 0.72577 0.44899
 C1204 C 0.12453 0.73924 0.43823
 C1205 C 0.12369 0.74009 0.41613
 C1206 C 0.10877 0.72783 0.40498
 C1207 C 0.13975 0.75288 0.45006
 C1208 C 0.14126 0.77456 0.44539
 C1209 C 0.15490 0.78770 0.45708
 C1210 C 0.16747 0.77938 0.47353
 C1211 C 0.16648 0.75754 0.47776
 C1212 C 0.15253 0.74446 0.46631
 H1213 H 0.07231 0.72635 0.37994
 H1214 H 0.04544 0.70642 0.36048
 H1215 H 0.05046 0.65543 0.40582
 H1216 H 0.07818 0.67504 0.42461
 H1217 H 0.08391 0.70409 0.44673
 H1218 H 0.11048 0.72503 0.46606
 H1219 H 0.13468 0.75019 0.40747
 H1220 H 0.10882 0.72862 0.38793
 H1221 H 0.13145 0.78145 0.43304
 H1222 H 0.15532 0.80448 0.45355
 H1223 H 0.17636 0.75065 0.49005
 H1224 H 0.15181 0.72773 0.47003
 C1225 C 0.59340 0.92455 0.70591
 C1226 C 0.58781 0.92883 0.68486
 C1227 C 0.59949 0.94368 0.67313
 C1228 C 0.61715 0.95433 0.68214
 C1229 C 0.62291 0.94976 0.70309
 C1230 C 0.61110 0.93512 0.71487
 C1231 C 0.58071 0.90932 0.71865
 C1232 C 0.57467 0.91445 0.73937
 C1233 C 0.56302 0.90006 0.75160
 C1234 C 0.55732 0.88008 0.74347
 C1235 C 0.56325 0.87503 0.72263
 C1236 C 0.57473 0.88955 0.71032
 C1237 C 0.54538 0.86461 0.75678
 C1238 C 0.52941 0.85143 0.74802
 C1239 C 0.51796 0.83725 0.76073
 C1240 C 0.52200 0.83619 0.78250
 C1241 C 0.53819 0.84903 0.79120
 C1242 C 0.54979 0.86303 0.77850
 H1243 H 0.57415 0.92099 0.67763
 H1244 H 0.59468 0.94683 0.65701
 H1245 H 0.63642 0.95770 0.71050
 H1246 H 0.61589 0.93194 0.73099
 H1247 H 0.57876 0.92973 0.74605
 H1248 H 0.55830 0.90469 0.76738
 H1249 H 0.55939 0.85970 0.71596
 H1250 H 0.57937 0.88514 0.69444
 H1251 H 0.52547 0.85234 0.73141
 H1252 H 0.50578 0.82726 0.75359
 H1253 H 0.54165 0.84843 0.80794
 H1254 H 0.56228 0.87258 0.78571
 C1255 C 0.40291 0.92868 0.29250
 C1256 C 0.40864 0.93263 0.31362
 C1257 C 0.39765 0.94786 0.32549
 C1258 C 0.38053 0.95937 0.31660
 C1259 C 0.37463 0.95530 0.29558
 C1260 C 0.38576 0.94023 0.28365
 C1261 C 0.41487 0.91276 0.27969
 C1262 C 0.40404 0.90012 0.26478
 C1263 C 0.41535 0.88554 0.25240
 C1264 C 0.43771 0.88310 0.25480
 C1265 C 0.44854 0.89549 0.26985
 C1266 C 0.43728 0.91023 0.28209
 C1267 C 0.44975 0.86790 0.24142
 C1268 C 0.46523 0.85435 0.25034
 C1269 C 0.47674 0.84019 0.23765
 C1270 C 0.47331 0.83963 0.21574
 C1271 C 0.45766 0.85300 0.20687
 C1272 C 0.44596 0.86696 0.21959
 H1273 H 0.42151 0.92380 0.32107
 H1274 H 0.40249 0.95053 0.34169
 H1275 H 0.36161 0.96401 0.28823
 H1276 H 0.38113 0.93790 0.26734
 H1277 H 0.38675 0.90133 0.26280
 H1278 H 0.40657 0.87598 0.24110
 H1279 H 0.46583 0.89410 0.27181
 H1280 H 0.44623 0.91994 0.29312
 H1281 H 0.46825 0.85455 0.26716
 H1282 H 0.48838 0.82971 0.24492
 H1283 H 0.45476 0.85288 0.19002
 H1284 H 0.43424 0.87736 0.21230
 C1285 C 0.59477 0.07399 0.29437
 C1286 C 0.58584 0.06577 0.31302
 C1287 C 0.59705 0.05072 0.32490
 C1288 C 0.61742 0.04350 0.31836
 C1289 C 0.62643 0.05186 0.29980
 C1290 C 0.61524 0.06696 0.28796
 C1291 C 0.58260 0.08954 0.28142
 C1292 C 0.59315 0.10688 0.27211
 C1293 C 0.58175 0.12121 0.25953
 C1294 C 0.55958 0.11846 0.25590
 C1295 C 0.54900 0.10121 0.26534
 C1296 C 0.56037 0.08694 0.27798
 C1297 C 0.54758 0.13329 0.24202
 C1298 C 0.53242 0.12553 0.22744
 C1299 C 0.52124 0.13940 0.21423
 C1300 C 0.52478 0.16132 0.21547
 C1301 C 0.54003 0.16913 0.22987
 C1302 C 0.55131 0.15525 0.24305
 H1303 H 0.57022 0.07108 0.31851
 H1304 H 0.58968 0.04465 0.33914
 H1305 H 0.64208 0.04662 0.29430
 H1306 H 0.62244 0.07280 0.27353
 H1307 H 0.61022 0.10942 0.27464
 H1308 H 0.59039 0.13424 0.25232
 H1309 H 0.53188 0.09880 0.26302
 H1310 H 0.55182 0.07363 0.28476
 H1311 H 0.52949 0.10868 0.22599
 H1312 H 0.50993 0.13298 0.20288
 H1313 H 0.54302 0.18599 0.23105
 H1314 H 0.56276 0.16171 0.25423
 C1315 C 0.40546 0.07470 0.70629
 C1316 C 0.38763 0.06426 0.71516
 C1317 C 0.37607 0.04930 0.70347
 C1318 C 0.38222 0.04430 0.68271
 C1319 C 0.40002 0.05479 0.67382
 C1320 C 0.41145 0.06993 0.68545
 C1321 C 0.41789 0.09029 0.71889
 C1322 C 0.42421 0.10975 0.71011
 C1323 C 0.43568 0.12451 0.72217
 C1324 C 0.44125 0.12006 0.74322
 C1325 C 0.43511 0.10044 0.75186
 C1326 C 0.42349 0.08579 0.73987
 C1327 C 0.45338 0.13571 0.75619
 C1328 C 0.44883 0.13808 0.77781
 C1329 C 0.46073 0.15214 0.79023
 C1330 C 0.47737 0.16424 0.78133
 C1331 C 0.48151 0.16246 0.75962
 C1332 C 0.46976 0.14822 0.74720
 H1333 H 0.38253 0.06780 0.73112
 H1334 H 0.36244 0.04151 0.71078
 H1335 H 0.40514 0.05131 0.65785
 H1336 H 0.42523 0.07762 0.67830
 H1337 H 0.41991 0.11370 0.69403
 H1338 H 0.43987 0.13957 0.71510
 H1339 H 0.43953 0.09625 0.76784
 H1340 H 0.41913 0.07077 0.74693
 H1341 H 0.43604 0.12907 0.78517
 H1342 H 0.45717 0.15331 0.80692
 H1343 H 0.49406 0.17187 0.75234
 H1344 H 0.47382 0.14671 0.73066
 C1345 C 0.59337 0.70393 0.07571
 C1346 C 0.58483 0.68530 0.06687
 C1347 C 0.59645 0.67388 0.05176
 C1348 C 0.61685 0.68090 0.04508
 C1349 C 0.62547 0.69942 0.05407
 C1350 C 0.61389 0.71078 0.06924
 C1351 C 0.58075 0.71649 0.09122
 C1352 C 0.59082 0.72554 0.10893
 C1353 C 0.57905 0.73798 0.12311
 C1354 C 0.55698 0.74173 0.11981
 C1355 C 0.54685 0.73245 0.10224
 C1356 C 0.55859 0.71994 0.08813
 C1357 C 0.54464 0.75566 0.13433
 C1358 C 0.52996 0.77054 0.12624
 C1359 C 0.51843 0.78380 0.13978
 C1360 C 0.52110 0.78230 0.16172
 C1361 C 0.53592 0.76764 0.16987
 C1362 C 0.54758 0.75442 0.15630
 H1363 H 0.56917 0.67950 0.07172
 H1364 H 0.58937 0.65965 0.04519
 H1365 H 0.64113 0.70527 0.04927
 H1366 H 0.62079 0.72521 0.07556
 H1367 H 0.60783 0.72299 0.11184
 H1368 H 0.58733 0.74504 0.13641
 H1369 H 0.52981 0.73487 0.09941
 H1370 H 0.55042 0.71334 0.07453
 H1371 H 0.52767 0.77218 0.10938
 H1372 H 0.50751 0.79539 0.13312
 H1373 H 0.53826 0.76628 0.18674
 H1374 H 0.55868 0.74302 0.16299
 C1375 C 0.40729 0.29211 0.06917
 C1376 C 0.41396 0.31269 0.06378
 C1377 C 0.40207 0.32478 0.04942
 C1378 C 0.38319 0.31661 0.04023
 C1379 C 0.37643 0.29610 0.04579
 C1380 C 0.38837 0.28398 0.06005
 C1381 C 0.42004 0.27912 0.08419
 C1382 C 0.42366 0.25749 0.08022
 C1383 C 0.43552 0.24520 0.09441
 C1384 C 0.44391 0.25422 0.11295
 C1385 C 0.44034 0.27585 0.11689
 C1386 C 0.42859 0.28818 0.10263
 C1387 C 0.45614 0.24105 0.12822
 C1388 C 0.45250 0.24314 0.15002
 C1389 C 0.46385 0.23063 0.16440
 C1390 C 0.47920 0.21595 0.15730
 C1391 C 0.48280 0.21372 0.13555
 C1392 C 0.47139 0.22617 0.12114
 H1393 H 0.42858 0.31930 0.07040
 H1394 H 0.40774 0.34051 0.04545
 H1395 H 0.36195 0.28933 0.03902
 H1396 H 0.38268 0.26828 0.06411
 H1397 H 0.41747 0.25011 0.06603
 H1398 H 0.43784 0.22853 0.09103
 H1399 H 0.44678 0.28329 0.13095
 H1400 H 0.42593 0.30476 0.10619
 H1401 H 0.44066 0.25426 0.15592
 H1402 H 0.46080 0.23252 0.18113
 H1403 H 0.49445 0.20234 0.12975
 H1404 H 0.47465 0.22432 0.10446
 C1405 C 0.59672 0.29643 0.92427
 C1406 C 0.61930 0.29528 0.92486
 C1407 C 0.63090 0.30664 0.94003
 C1408 C 0.62013 0.31973 0.95455
 C1409 C 0.59755 0.32123 0.95363
 C1410 C 0.58593 0.30947 0.93877
 C1411 C 0.58443 0.28362 0.90887
 C1412 C 0.56807 0.26993 0.91580
 C1413 C 0.55695 0.25722 0.90138
 C1414 C 0.56170 0.25834 0.87976
 C1415 C 0.57777 0.27232 0.87277
 C1416 C 0.58924 0.28469 0.88725
 C1417 C 0.55004 0.24473 0.86461
 C1418 C 0.53921 0.25367 0.84732
 C1419 C 0.52761 0.24078 0.83341
 C1420 C 0.52707 0.21876 0.83638
 C1421 C 0.53833 0.20977 0.85334
 C1422 C 0.54952 0.22269 0.86751
 H1423 H 0.62792 0.28522 0.91387
 H1424 H 0.64830 0.30527 0.94035
 H1425 H 0.58886 0.33112 0.96470
 H1426 H 0.56851 0.31061 0.93852
 H1427 H 0.56420 0.26880 0.93242
 H1428 H 0.54453 0.24659 0.90706
 H1429 H 0.58170 0.27335 0.85615
 H1430 H 0.60177 0.29520 0.88160
 H1431 H 0.53937 0.27065 0.84488
 H1432 H 0.51896 0.24793 0.82039
 H1433 H 0.53799 0.19280 0.85586
 H1434 H 0.55786 0.21550 0.88069
 C1435 C 0.40343 0.70517 0.92793
 C1436 C 0.38312 0.71168 0.93530
 C1437 C 0.37197 0.69958 0.95020
 C1438 C 0.38085 0.68066 0.95801
 C1439 C 0.40109 0.67406 0.95049
 C1440 C 0.41226 0.68619 0.93565
 C1441 C 0.41548 0.71825 0.91243
 C1442 C 0.43779 0.72140 0.91467
 C1443 C 0.44911 0.73392 0.90026
 C1444 C 0.43838 0.74353 0.88325
 C1445 C 0.41609 0.74028 0.88093
 C1446 C 0.40475 0.72782 0.89539
 C1447 C 0.45042 0.75693 0.86803
 C1448 C 0.44629 0.75550 0.84626
 C1449 C 0.45789 0.76789 0.83195
 C1450 C 0.47387 0.78189 0.83912
 C1451 C 0.47770 0.78368 0.86088
 C1452 C 0.46619 0.77123 0.87518
 H1453 H 0.37601 0.72634 0.92983
 H1454 H 0.35643 0.70514 0.95568
 H1455 H 0.40837 0.65955 0.95615
 H1456 H 0.42776 0.68063 0.93007
 H1457 H 0.44647 0.71441 0.92775
 H1458 H 0.46631 0.73595 0.90233
 H1459 H 0.40735 0.74762 0.86808
 H1460 H 0.38761 0.72552 0.89314
 H1461 H 0.43437 0.74450 0.84027
 H1462 H 0.45468 0.76630 0.81522
 H1463 H 0.48966 0.79470 0.86678
 H1464 H 0.46946 0.77297 0.89188
 C1465 C 0.70116 0.92343 0.40594
 C1466 C 0.70853 0.92985 0.38599
 C1467 C 0.69742 0.94529 0.37454
 C1468 C 0.67861 0.95461 0.38274
 C1469 C 0.67112 0.94804 0.40262
 C1470 C 0.68231 0.93266 0.41411
 C1471 C 0.71337 0.90745 0.41831
 C1472 C 0.71674 0.91028 0.44005
 C1473 C 0.72893 0.89567 0.45154
 C1474 C 0.73793 0.87785 0.44157
 C1475 C 0.73425 0.87482 0.41990
 C1476 C 0.72215 0.88949 0.40838
 C1477 C 0.75155 0.86276 0.45362
 C1478 C 0.74966 0.84078 0.45044
 C1479 C 0.76273 0.82666 0.46165
 C1480 C 0.77790 0.83426 0.47624
 C1481 C 0.77998 0.85620 0.47924
 C1482 C 0.76685 0.87030 0.46816
 H1483 H 0.72316 0.92323 0.37939
 H1484 H 0.70364 0.95000 0.35929
 H1485 H 0.65667 0.95488 0.40937
 H1486 H 0.67612 0.92787 0.42935
 H1487 H 0.71034 0.92404 0.44811
 H1488 H 0.73131 0.89830 0.46826
 H1489 H 0.74112 0.86134 0.41174
 H1490 H 0.71964 0.88677 0.39169
 H1491 H 0.73792 0.83450 0.43945
 H1492 H 0.76091 0.80979 0.45906
 H1493 H 0.79195 0.86245 0.49002
 H1494 H 0.76897 0.88715 0.47064
 C1495 C 0.29510 0.92681 0.59477
 C1496 C 0.31669 0.93127 0.58981
 C1497 C 0.32826 0.94631 0.60143
 C1498 C 0.31853 0.95701 0.61840
 C1499 C 0.29701 0.95232 0.62352
 C1500 C 0.28539 0.93745 0.61177
 C1501 C 0.28261 0.91127 0.58215
 C1502 C 0.26146 0.91593 0.57576
 C1503 C 0.24959 0.90132 0.56396
 C1504 C 0.25850 0.88158 0.55843
 C1505 C 0.27972 0.87697 0.56480
 C1506 C 0.29167 0.89169 0.57645
 C1507 C 0.24564 0.86592 0.54616
 C1508 C 0.25542 0.85317 0.53066
 C1509 C 0.24320 0.83870 0.51898
 C1510 C 0.22089 0.83689 0.52232
 C1511 C 0.21116 0.84938 0.53798
 C1512 C 0.22338 0.86369 0.54979
 H1513 H 0.32451 0.92341 0.57668
 H1514 H 0.34483 0.94955 0.59711
 H1515 H 0.28904 0.96029 0.63649
 H1516 H 0.26884 0.93415 0.61607
 H1517 H 0.25421 0.93105 0.57965
 H1518 H 0.23349 0.90561 0.55895
 H1519 H 0.28697 0.86182 0.56111
 H1520 H 0.30786 0.88760 0.58137
 H1521 H 0.27247 0.85459 0.52730
 H1522 H 0.25113 0.82900 0.50720
 H1523 H 0.19399 0.84823 0.54089
 H1524 H 0.21539 0.87293 0.56187
 C1525 C 0.29642 0.07735 0.40654
 C1526 C 0.31803 0.07267 0.41128
 C1527 C 0.32932 0.05755 0.39948
 C1528 C 0.31928 0.04702 0.38256
 C1529 C 0.29776 0.05197 0.37768
 C1530 C 0.28644 0.06688 0.38959
 C1531 C 0.28415 0.09291 0.41931
 C1532 C 0.26306 0.08829 0.42586
 C1533 C 0.25121 0.10303 0.43748
 C1534 C 0.26008 0.12288 0.44266
 C1535 C 0.28131 0.12742 0.43626
 C1536 C 0.29325 0.11254 0.42478
 C1537 C 0.24711 0.13874 0.45455
 C1538 C 0.25672 0.15180 0.46991
 C1539 C 0.24429 0.16625 0.48140
 C1540 C 0.22197 0.16772 0.47800
 C1541 C 0.21244 0.15504 0.46238
 C1542 C 0.22486 0.14076 0.45075
 H1543 H 0.32605 0.08042 0.42435
 H1544 H 0.34589 0.05411 0.40361
 H1545 H 0.28956 0.04414 0.36475
 H1546 H 0.26987 0.07037 0.38546
 H1547 H 0.25579 0.07313 0.42216
 H1548 H 0.23512 0.09879 0.44258
 H1549 H 0.28855 0.14263 0.43974
 H1550 H 0.30942 0.11657 0.41976
 H1551 H 0.27376 0.15056 0.47336
 H1552 H 0.25205 0.17610 0.49316
 H1553 H 0.19527 0.15593 0.45942
 H1554 H 0.21700 0.13131 0.43874
 C1555 C 0.70530 0.07177 0.59533
 C1556 C 0.71270 0.06475 0.61507
 C1557 C 0.70106 0.04967 0.62651
 C1558 C 0.68169 0.04135 0.61850
 C1559 C 0.67420 0.04851 0.59882
 C1560 C 0.68590 0.06352 0.58735
 C1561 C 0.71787 0.08751 0.58301
 C1562 C 0.72055 0.08504 0.56113
 C1563 C 0.73258 0.09971 0.54956
 C1564 C 0.74211 0.11723 0.55959
 C1565 C 0.73933 0.11977 0.58145
 C1566 C 0.72739 0.10504 0.59305
 C1567 C 0.75497 0.13274 0.54729
 C1568 C 0.75289 0.15461 0.55106
 C1569 C 0.76487 0.16920 0.53932
 C1570 C 0.77910 0.16221 0.52358
 C1571 C 0.78149 0.14037 0.52005
 C1572 C 0.76944 0.12579 0.53169
 H1573 H 0.72772 0.07064 0.62152
 H1574 H 0.70729 0.04447 0.64160
 H1575 H 0.65932 0.04244 0.59221
 H1576 H 0.67965 0.06881 0.57230
 H1577 H 0.71358 0.07159 0.55299
 H1578 H 0.73426 0.09745 0.53270
 H1579 H 0.74664 0.13301 0.58965
 H1580 H 0.72544 0.10746 0.60985
 H1581 H 0.74174 0.16044 0.56285
 H1582 H 0.76283 0.18597 0.54231
 H1583 H 0.79272 0.13462 0.50828
 H1584 H 0.77166 0.10904 0.52869
 C1585 C 0.92674 0.59302 0.29582
 C1586 C 0.92752 0.61519 0.29442
 C1587 C 0.94273 0.62665 0.30604
 C1588 C 0.95708 0.61616 0.31963
 C1589 C 0.95595 0.59399 0.32137
 C1590 C 0.94107 0.58250 0.30937
 C1591 C 0.91135 0.58085 0.28276
 C1592 C 0.91878 0.56461 0.26949
 C1593 C 0.90438 0.55355 0.25657
 C1594 C 0.88228 0.55826 0.25709
 C1595 C 0.87478 0.57424 0.27064
 C1596 C 0.88925 0.58563 0.28321
 C1597 C 0.86714 0.54668 0.24328
 C1598 C 0.84926 0.53613 0.25186
 C1599 C 0.83529 0.52470 0.23879
 C1600 C 0.83881 0.52406 0.21693
 C1601 C 0.85639 0.53499 0.20829
 C1602 C 0.87062 0.54601 0.22141
 H1603 H 0.91667 0.62358 0.28397
 H1604 H 0.94323 0.64373 0.30447
 H1605 H 0.96689 0.58551 0.33165
 H1606 H 0.94067 0.56540 0.31071
 H1607 H 0.93579 0.56076 0.26884
 H1608 H 0.91045 0.54122 0.24627
 H1609 H 0.85778 0.57814 0.27119
 H1610 H 0.88321 0.59808 0.29339
 H1611 H 0.84636 0.53641 0.26871
 H1612 H 0.82177 0.51633 0.24566
 H1613 H 0.85933 0.53459 0.19145
 H1614 H 0.88427 0.55414 0.21449
 C1615 C 0.92046 0.40636 0.70157
 C1616 C 0.93122 0.38925 0.71111
 C1617 C 0.94684 0.37779 0.70006
 C1618 C 0.95225 0.38326 0.67925
 C1619 C 0.94153 0.40033 0.66966
 C1620 C 0.92576 0.41170 0.68066
 C1621 C 0.90404 0.41869 0.71352
 C1622 C 0.90239 0.44079 0.71109
 C1623 C 0.88748 0.45243 0.72292
 C1624 C 0.87403 0.44226 0.73756
 C1625 C 0.87542 0.42018 0.73981
 C1626 C 0.89017 0.40851 0.72785
 C1627 C 0.85906 0.45470 0.75095
 C1628 C 0.85778 0.45071 0.77271
 C1629 C 0.84419 0.46277 0.78553
 C1630 C 0.83150 0.47900 0.77686
 C1631 C 0.83239 0.48268 0.75502
 C1632 C 0.84621 0.47079 0.74221
 H1633 H 0.92788 0.38493 0.72731
 H1634 H 0.95490 0.36481 0.70796
 H1635 H 0.94526 0.40486 0.65360
 H1636 H 0.91759 0.42456 0.67270
 H1637 H 0.91302 0.44920 0.70046
 H1638 H 0.88690 0.46948 0.72106
 H1639 H 0.86501 0.41192 0.75077
 H1640 H 0.89064 0.39149 0.72981
 H1641 H 0.86767 0.43856 0.77988
 H1642 H 0.84387 0.45969 0.80233
 H1643 H 0.82246 0.49484 0.74790
 H1644 H 0.84672 0.47401 0.72544
 C1645 C 0.07479 0.59507 0.70427
 C1646 C 0.06875 0.58816 0.68403
 C1647 C 0.05386 0.59970 0.67211
 C1648 C 0.04478 0.61846 0.68012
 C1649 C 0.05104 0.62549 0.70026
 C1650 C 0.06583 0.61390 0.71221
 C1651 C 0.09019 0.58258 0.71717
 C1652 C 0.08643 0.57944 0.73881
 C1653 C 0.10086 0.56766 0.75099
 C1654 C 0.11944 0.55883 0.74184
 C1655 C 0.12323 0.56199 0.72021
 C1656 C 0.10872 0.57368 0.70799
 C1657 C 0.13480 0.54642 0.75485
 C1658 C 0.15716 0.54923 0.75253
 C1659 C 0.17161 0.53767 0.76493
 C1660 C 0.16397 0.52295 0.77971
 C1661 C 0.14166 0.52019 0.78215
 C1662 C 0.12721 0.53179 0.76982
 H1663 H 0.07523 0.57360 0.67758
 H1664 H 0.04936 0.59384 0.65666
 H1665 H 0.04439 0.63989 0.70690
 H1666 H 0.07040 0.61976 0.72764
 H1667 H 0.07218 0.58592 0.74628
 H1668 H 0.09761 0.56566 0.76766
 H1669 H 0.13731 0.55522 0.71269
 H1670 H 0.11213 0.57597 0.69140
 H1671 H 0.16347 0.56058 0.74132
 H1672 H 0.18877 0.54008 0.76291
 H1673 H 0.13545 0.50904 0.79362
 H1674 H 0.11008 0.52916 0.77183
 C1675 C 0.07576 0.40427 0.29856
 C1676 C 0.06453 0.38724 0.28937
 C1677 C 0.04888 0.37622 0.30078
 C1678 C 0.04389 0.38206 0.32161
 C1679 C 0.05501 0.39913 0.33082
 C1680 C 0.07083 0.41005 0.31945
 C1681 C 0.09235 0.41600 0.28625
 C1682 C 0.09459 0.43810 0.28833
 C1683 C 0.10968 0.44916 0.27620
 C1684 C 0.12273 0.43841 0.26159
 C1685 C 0.12073 0.41633 0.25968
 C1686 C 0.10581 0.40525 0.27194
 C1687 C 0.13797 0.45022 0.24796
 C1688 C 0.13907 0.44583 0.22625
 C1689 C 0.15298 0.45729 0.21322
 C1690 C 0.16617 0.47328 0.22163
 C1691 C 0.16544 0.47736 0.24342
 C1692 C 0.15132 0.46608 0.25643
 H1693 H 0.06756 0.38260 0.27320
 H1694 H 0.04049 0.36325 0.29316
 H1695 H 0.05161 0.40394 0.34688
 H1696 H 0.07936 0.42288 0.32713
 H1697 H 0.08429 0.44695 0.29894
 H1698 H 0.11074 0.46621 0.27781
 H1699 H 0.13083 0.40762 0.24876
 H1700 H 0.10489 0.38820 0.27026
 H1701 H 0.12881 0.43384 0.21928
 H1702 H 0.15317 0.45391 0.19646
 H1703 H 0.17576 0.48933 0.25035
 H1704 H 0.15097 0.46959 0.27315
   
