data_POSCAR
  _audit_creation_date              2014-09-24
  _audit_creation_method            'ToBaCCo'
  _symmetry_space_group_name_H-M    'P1'
  _symmetry_Int_Tables_number       1
  _symmetry_cell_setting            triclinic
  loop_
  _symmetry_equiv_pos_as_xyz
 x,y,z
_cell_length_a 53.4929
_cell_length_b 35.8569
_cell_length_c 37.5040
_cell_angle_alpha 89.936600
_cell_angle_beta 89.951000
_cell_angle_gamma 89.996500
loop_
  _atom_site_label
  _atom_site_type_symbol
  _atom_site_fract_x
  _atom_site_fract_y
  _atom_site_fract_z
C1 C 0.00272 -0.00119 0.11404
 C2 C -0.00112 0.00076 -0.11969
 C3 C -0.05662 -0.06179 0.05381
 C4 C -0.05639 0.06042 0.05443
 C5 C -0.05850 -0.06110 -0.05524
 C6 C 0.05717 -0.05795 -0.06259
 C7 C 0.05700 0.05769 -0.06201
 C8 C 0.05874 -0.05827 0.05295
 C9 C -0.05839 0.06113 -0.05438
 C10 C 0.05887 0.05623 0.05367
 O11 O -0.03573 -0.06916 -0.06421
 O12 O -0.06469 -0.03588 -0.03230
 O13 O -0.03561 0.06935 -0.06298
 O14 O -0.06468 0.03542 -0.03195
 O15 O 0.03613 0.06477 0.06213
 O16 O 0.06503 0.03295 0.02892
 O17 O -0.00149 0.03211 -0.10290
 O18 O -0.00094 -0.03127 -0.10390
 O19 O 0.00240 0.03056 0.09796
 O20 O 0.00194 -0.03301 0.09809
 O21 O 0.03408 -0.06645 -0.06949
 O22 O 0.06379 -0.03403 -0.03864
 O23 O -0.03351 -0.06964 0.06078
 O24 O -0.06384 -0.03644 0.03155
 O25 O 0.03599 -0.06671 0.06148
 O26 O 0.06494 -0.03467 0.02844
 O27 O 0.03383 0.06575 -0.06860
 O28 O 0.06400 0.03380 -0.03816
 O29 O 0.00243 0.10369 0.05158
 O30 O 0.00012 0.10428 -0.05672
 O31 O -0.00003 -0.10459 -0.05815
 O32 O 0.00224 -0.10545 0.05041
 O33 O -0.02137 -0.04959 -0.00219
 O34 O -0.02143 0.04866 -0.00149
 O35 O 0.02139 -0.04935 -0.00374
 O36 O -0.02175 -0.00078 0.04574
 O37 O -0.06371 0.03535 0.03197
 O38 O -0.03326 0.06794 0.06149
 O39 O 0.02385 -0.00087 0.04423
 O40 O 0.02221 -0.00012 -0.05135
 O41 O 0.02149 0.04843 -0.00315
 O42 O -0.02345 -0.00019 -0.04928
 Zr43 Zr 0.00105 0.04545 0.04385
 Zr44 Zr -0.00060 -0.04649 -0.04947
 Zr45 Zr -0.04263 -0.00047 -0.00093
 Zr46 Zr 0.00093 -0.04709 0.04346
 Zr47 Zr -0.00069 0.04608 -0.04857
 Zr48 Zr 0.04278 -0.00047 -0.00423
 H49 H 0.03156 -0.07240 -0.00413
 H50 H -0.03257 -0.00087 0.06716
 H51 H 0.03166 0.07149 -0.00331
 H52 H -0.03496 0.00004 -0.06992
 H53 H -0.00320 0.11476 0.02880
 H54 H 0.00088 0.11536 -0.03262
 H55 H -0.00337 -0.11611 0.02745
 H56 H 0.00064 -0.11595 -0.03414
 C57 C 0.24965 0.24985 0.13133
 C58 C 0.25056 0.24942 0.36511
 C59 C 0.19067 0.30848 0.19446
 C60 C 0.19298 0.18616 0.19389
 C61 C 0.19137 0.30805 0.30392
 C62 C 0.30675 0.30903 0.30520
 C63 C 0.30846 0.19335 0.30523
 C64 C 0.30599 0.30929 0.19045
 C65 C 0.19320 0.18607 0.30333
 C66 C 0.30826 0.19316 0.19079
 O67 O 0.21430 0.31654 0.31121
 O68 O 0.18461 0.28277 0.28126
 O69 O 0.21634 0.17920 0.31101
 O70 O 0.18579 0.21099 0.28080
 O71 O 0.28546 0.18418 0.18298
 O72 O 0.31447 0.21747 0.21454
 O73 O 0.25089 0.21751 0.34927
 O74 O 0.24975 0.28102 0.34883
 O75 O 0.25037 0.21798 0.14735
 O76 O 0.24858 0.28129 0.14790
 O77 O 0.28377 0.31653 0.31338
 O78 O 0.31352 0.28553 0.28101
 O79 O 0.21346 0.31748 0.18657
 O80 O 0.18445 0.28265 0.21684
 O81 O 0.28288 0.31632 0.18282
 O82 O 0.31330 0.28595 0.21452
 O83 O 0.28573 0.18431 0.31329
 O84 O 0.31460 0.21746 0.28115
 O85 O 0.25202 0.14512 0.19347
 O86 O 0.25259 0.14484 0.30242
 O87 O 0.24942 0.35373 0.30206
 O88 O 0.24852 0.35377 0.19395
 O89 O 0.22713 0.29754 0.24866
 O90 O 0.22893 0.19947 0.24845
 O91 O 0.27010 0.29886 0.24809
 O92 O 0.22659 0.24847 0.20106
 O93 O 0.18560 0.21100 0.21661
 O94 O 0.21609 0.17928 0.18618
 O95 O 0.27236 0.25033 0.20019
 O96 O 0.27281 0.25004 0.29592
 O97 O 0.27169 0.20126 0.24811
 O98 O 0.22706 0.24840 0.29596
 Zr99 Zr 0.25034 0.20322 0.20186
 Zr100 Zr 0.24918 0.29543 0.29457
 Zr101 Zr 0.20664 0.24765 0.24874
 Zr102 Zr 0.24852 0.29556 0.20216
 Zr103 Zr 0.25060 0.20304 0.29470
 Zr104 Zr 0.29232 0.25081 0.24787
 H105 H 0.27979 0.32236 0.24805
 H106 H 0.21539 0.24816 0.18008
 H107 H 0.28214 0.17848 0.24807
 H108 H 0.21602 0.24792 0.31714
 H109 H 0.25135 0.13383 0.21752
 H110 H 0.24841 0.13372 0.27905
 H111 H 0.24841 0.36490 0.21805
 H112 H 0.24368 0.36448 0.27919
 C113 C 0.50057 -0.00159 0.11545
 C114 C 0.49753 -0.00174 -0.11748
 C115 C 0.55899 0.05816 0.05262
 C116 C 0.55913 -0.06244 0.05235
 C117 C 0.55730 0.05919 -0.05786
 C118 C 0.44172 0.05623 -0.05636
 C119 C 0.44175 -0.05967 -0.05649
 C120 C 0.44367 0.05640 0.05833
 C121 C 0.55752 -0.06215 -0.05819
 C122 C 0.44341 -0.06062 0.05821
 O123 O 0.53408 0.06717 -0.06435
 O124 O 0.56433 0.03379 -0.03542
 O125 O 0.53442 -0.07041 -0.06531
 O126 O 0.56414 -0.03705 -0.03532
 O127 O 0.46661 -0.06854 0.06483
 O128 O 0.43641 -0.03627 0.03475
 O129 O 0.49844 -0.03370 -0.10180
 O130 O 0.49799 0.02986 -0.10126
 O131 O 0.50117 -0.03354 0.09975
 O132 O 0.50090 0.03003 0.09924
 O133 O 0.46450 0.06461 -0.06480
 O134 O 0.43549 0.03219 -0.03224
 O135 O 0.53619 0.06639 0.06128
 O136 O 0.56520 0.03348 0.02915
 O137 O 0.46677 0.06420 0.06534
 O138 O 0.43646 0.03263 0.03456
 O139 O 0.46453 -0.06795 -0.06521
 O140 O 0.43557 -0.03597 -0.03212
 O141 O 0.50086 -0.10641 0.05366
 O142 O 0.49861 -0.10659 -0.05444
 O143 O 0.49875 0.10261 -0.05559
 O144 O 0.50042 0.10283 0.05210
 O145 O 0.52204 0.04747 -0.00178
 O146 O 0.52207 -0.05106 -0.00175
 O147 O 0.47903 0.04695 -0.00023
 O148 O 0.52384 -0.00189 0.04568
 O149 O 0.56518 -0.03724 0.02913
 O150 O 0.53623 -0.07070 0.06066
 O151 O 0.47830 -0.00191 0.04757
 O152 O 0.47673 -0.00193 -0.04782
 O153 O 0.47918 -0.05072 -0.00030
 O154 O 0.52232 -0.00177 -0.04925
 Zr155 Zr 0.50118 -0.04823 0.04533
 Zr156 Zr 0.49957 0.04445 -0.04716
 Zr157 Zr 0.54311 -0.00176 -0.00246
 Zr158 Zr 0.50117 0.04445 0.04514
 Zr159 Zr 0.49974 -0.04824 -0.04741
 Zr160 Zr 0.45760 -0.00192 0.00063
 H161 H 0.46896 0.07010 0.00012
 H162 H 0.53517 -0.00198 0.06651
 H163 H 0.46910 -0.07386 -0.00002
 H164 H 0.53309 -0.00159 -0.07071
 H165 H 0.49966 -0.11756 0.02962
 H166 H 0.50491 -0.11728 -0.03184
 H167 H 0.50631 0.11344 0.02923
 H168 H 0.49803 0.11383 -0.03154
 C169 C 0.75071 0.24922 0.13290
 C170 C 0.75120 0.24884 0.36586
 C171 C 0.69110 0.30695 0.19438
 C172 C 0.69345 0.18590 0.19448
 C173 C 0.69180 0.30714 0.30499
 C174 C 0.80716 0.30814 0.30663
 C175 C 0.80925 0.19315 0.30677
 C176 C 0.80643 0.30825 0.19070
 C177 C 0.69383 0.18601 0.30500
 C178 C 0.80872 0.19328 0.19123
 O179 O 0.71472 0.31596 0.31208
 O180 O 0.68508 0.28193 0.28226
 O181 O 0.71697 0.17910 0.31259
 O182 O 0.68638 0.21048 0.28204
 O183 O 0.78594 0.18399 0.18371
 O184 O 0.81498 0.21730 0.21524
 O185 O 0.75163 0.21692 0.35011
 O186 O 0.75025 0.28043 0.34959
 O187 O 0.75087 0.21729 0.14868
 O188 O 0.74974 0.28084 0.14904
 O189 O 0.78417 0.31592 0.31447
 O190 O 0.81401 0.28489 0.28226
 O191 O 0.71387 0.31597 0.18637
 O192 O 0.68494 0.28170 0.21743
 O193 O 0.78330 0.31536 0.18325
 O194 O 0.81380 0.28538 0.21518
 O195 O 0.78643 0.18399 0.31451
 O196 O 0.81516 0.21725 0.28245
 O197 O 0.75247 0.14436 0.19500
 O198 O 0.75330 0.14417 0.30283
 O199 O 0.74938 0.35318 0.30337
 O200 O 0.74916 0.35351 0.19657
 O201 O 0.72750 0.29700 0.24958
 O202 O 0.72941 0.19875 0.24955
 O203 O 0.77066 0.29843 0.24903
 O204 O 0.72719 0.24783 0.20217
 O205 O 0.68609 0.21048 0.21743
 O206 O 0.71659 0.17884 0.18695
 O207 O 0.77276 0.24975 0.20145
 O208 O 0.77330 0.24959 0.29682
 O209 O 0.77238 0.20069 0.24915
 O210 O 0.72766 0.24782 0.29682
 Zr211 Zr 0.75086 0.20253 0.20306
 Zr212 Zr 0.74963 0.29495 0.29541
 Zr213 Zr 0.70714 0.24699 0.24969
 Zr214 Zr 0.74900 0.29507 0.20321
 Zr215 Zr 0.75124 0.20246 0.29564
 Zr216 Zr 0.79288 0.25037 0.24888
 H217 H 0.78042 0.32188 0.24889
 H218 H 0.71609 0.24741 0.18109
 H219 H 0.78293 0.17802 0.24912
 H220 H 0.71667 0.24743 0.31804
 H221 H 0.75385 0.13332 0.21909
 H222 H 0.74740 0.13322 0.28015
 H223 H 0.74214 0.36376 0.21892
 H224 H 0.75104 0.36430 0.27935
 C225 C 0.00065 0.49997 0.11510
 C226 C -0.00114 0.50037 -0.11866
 C227 C -0.05875 0.44063 0.05394
 C228 C -0.05681 0.56281 0.05388
 C229 C -0.05966 0.44043 -0.05470
 C230 C 0.05583 0.44106 -0.06062
 C231 C 0.05691 0.55551 -0.06112
 C232 C 0.05661 0.44097 0.05577
 C233 C -0.05831 0.56212 -0.05499
 C234 C 0.05845 0.55596 0.05495
 O235 O -0.03692 0.43162 -0.06314
 O236 O -0.06571 0.46609 -0.03212
 O237 O -0.03541 0.56961 -0.06375
 O238 O -0.06485 0.53712 -0.03205
 O239 O 0.03572 0.56500 0.06302
 O240 O 0.06454 0.53205 0.03070
 O241 O -0.00084 0.53185 -0.10208
 O242 O -0.00188 0.46846 -0.10265
 O243 O 0.00084 0.53158 0.09879
 O244 O -0.00015 0.46805 0.09934
 O245 O 0.03279 0.43308 -0.06793
 O246 O 0.06288 0.46435 -0.03642
 O247 O -0.03590 0.43187 0.06168
 O248 O -0.06515 0.46626 0.03156
 O249 O 0.03359 0.43376 0.06373
 O250 O 0.06365 0.46378 0.03097
 O251 O 0.03396 0.56401 -0.06824
 O252 O 0.06385 0.53236 -0.03657
 O253 O 0.00228 0.60432 0.05277
 O254 O 0.00125 0.60444 -0.05497
 O255 O -0.00146 0.39540 -0.05621
 O256 O -0.00024 0.39533 0.05211
 O257 O -0.02287 0.45137 -0.00121
 O258 O -0.02165 0.54972 -0.00112
 O259 O 0.01996 0.45050 -0.00198
 O260 O -0.02296 0.50067 0.04639
 O261 O -0.06425 0.53763 0.03164
 O262 O -0.03366 0.57007 0.06102
 O263 O 0.02267 0.49920 0.04572
 O264 O 0.02169 0.49931 -0.04969
 O265 O 0.02130 0.54813 -0.00217
 O266 O -0.02393 0.50047 -0.04868
 Zr267 Zr 0.00051 0.54618 0.04456
 Zr268 Zr -0.00168 0.45360 -0.04809
 Zr269 Zr -0.04335 0.50114 -0.00067
 Zr270 Zr -0.00097 0.45367 0.04481
 Zr271 Zr -0.00071 0.54614 -0.04784
 Zr272 Zr 0.04214 0.49869 -0.00238
 H273 H 0.02983 0.42715 -0.00207
 H274 H -0.03400 0.50101 0.06758
 H275 H 0.03173 0.57092 -0.00249
 H276 H -0.03530 0.50078 -0.06949
 H277 H 0.00305 0.61547 0.02867
 H278 H -0.00452 0.61534 -0.03219
 H279 H -0.00609 0.38464 0.02929
 H280 H -0.00144 0.38428 -0.03208
 C281 C 0.25167 0.74990 0.13209
 C282 C 0.24994 0.75108 0.36511
 C283 C 0.19268 0.81038 0.19248
 C284 C 0.19316 0.68826 0.19299
 C285 C 0.19169 0.81077 0.30230
 C286 C 0.30700 0.80905 0.30646
 C287 C 0.30800 0.69362 0.30663
 C288 C 0.30812 0.80925 0.19213
 C289 C 0.19266 0.68825 0.30308
 C290 C 0.30849 0.69318 0.19208
 O291 O 0.21463 0.81898 0.30984
 O292 O 0.18490 0.78532 0.27987
 O293 O 0.21572 0.68103 0.31081
 O294 O 0.18549 0.71327 0.28033
 O295 O 0.28571 0.68447 0.18398
 O296 O 0.31474 0.71725 0.21604
 O297 O 0.25017 0.71911 0.34948
 O298 O 0.24938 0.78261 0.34872
 O299 O 0.25118 0.71806 0.14800
 O300 O 0.25129 0.78161 0.14810
 O301 O 0.28402 0.81727 0.31389
 O302 O 0.31384 0.78517 0.28266
 O303 O 0.21573 0.81820 0.18519
 O304 O 0.18552 0.78535 0.21523
 O305 O 0.28523 0.81672 0.18333
 O306 O 0.31451 0.78566 0.21649
 O307 O 0.28513 0.68490 0.31438
 O308 O 0.31444 0.71749 0.28257
 O309 O 0.25214 0.64556 0.19552
 O310 O 0.25131 0.64617 0.30368
 O311 O 0.24979 0.85496 0.30240
 O312 O 0.25101 0.85463 0.19429
 O313 O 0.22810 0.79897 0.24797
 O314 O 0.22875 0.70094 0.24858
 O315 O 0.27112 0.79956 0.24860
 O316 O 0.22763 0.74985 0.20096
 O317 O 0.18582 0.71328 0.21556
 O318 O 0.21630 0.68095 0.18570
 O319 O 0.27338 0.75041 0.20099
 O320 O 0.27270 0.75090 0.29665
 O321 O 0.27167 0.70180 0.24903
 O322 O 0.22694 0.75015 0.29565
 Zr323 Zr 0.25067 0.70390 0.20250
 Zr324 Zr 0.24947 0.79673 0.29446
 Zr325 Zr 0.20689 0.74961 0.24802
 Zr326 Zr 0.25030 0.79637 0.20214
 Zr327 Zr 0.25018 0.70431 0.29512
 Zr328 Zr 0.29270 0.75097 0.24905
 H329 H 0.28104 0.82285 0.24864
 H330 H 0.21671 0.74962 0.17968
 H331 H 0.28194 0.67884 0.24922
 H332 H 0.21570 0.75005 0.31662
 H333 H 0.24655 0.63478 0.21848
 H334 H 0.25210 0.63491 0.27966
 H335 H 0.24545 0.86558 0.21715
 H336 H 0.25005 0.86603 0.27825
 C337 C 0.49922 0.50030 0.11542
 C338 C 0.49797 0.49900 -0.11758
 C339 C 0.55852 0.55839 0.05298
 C340 C 0.55671 0.43726 0.05363
 C341 C 0.55713 0.55838 -0.05747
 C342 C 0.44176 0.55835 -0.05758
 C343 C 0.44068 0.44279 -0.05718
 C344 C 0.44325 0.55904 0.05733
 C345 C 0.55610 0.43736 -0.05691
 C346 C 0.44145 0.44341 0.05730
 O347 O 0.53414 0.56689 -0.06438
 O348 O 0.56412 0.53337 -0.03465
 O349 O 0.53305 0.42963 -0.06451
 O350 O 0.56312 0.46216 -0.03409
 O351 O 0.46426 0.43436 0.06488
 O352 O 0.43507 0.46749 0.03343
 O353 O 0.49791 0.46711 -0.10171
 O354 O 0.49869 0.53065 -0.10148
 O355 O 0.49924 0.46831 0.09981
 O356 O 0.50001 0.53186 0.09911
 O357 O 0.46467 0.56619 -0.06594
 O358 O 0.43526 0.53483 -0.03326
 O359 O 0.53575 0.56724 0.06119
 O360 O 0.56466 0.53316 0.03002
 O361 O 0.46636 0.56638 0.06462
 O362 O 0.43592 0.53565 0.03332
 O363 O 0.46341 0.43387 -0.06546
 O364 O 0.43460 0.46693 -0.03314
 O365 O 0.49794 0.39526 0.05405
 O366 O 0.49689 0.39445 -0.05389
 O367 O 0.49936 0.60357 -0.05602
 O368 O 0.50041 0.60437 0.05151
 O369 O 0.52181 0.54798 -0.00177
 O370 O 0.52055 0.44965 -0.00113
 O371 O 0.47878 0.54892 -0.00083
 O372 O 0.52264 0.49895 0.04604
 O373 O 0.56386 0.46196 0.03055
 O374 O 0.53364 0.43006 0.06138
 O375 O 0.47708 0.50038 0.04708
 O376 O 0.47618 0.49969 -0.04845
 O377 O 0.47766 0.45115 -0.00050
 O378 O 0.52180 0.49861 -0.04872
 Zr379 Zr 0.49922 0.45338 0.04549
 Zr380 Zr 0.49948 0.54542 -0.04742
 Zr381 Zr 0.54241 0.49823 -0.00169
 Zr382 Zr 0.50062 0.54595 0.04486
 Zr383 Zr 0.49864 0.45281 -0.04721
 Zr384 Zr 0.45688 0.50062 -0.00028
 H385 H 0.46895 0.57230 -0.00076
 H386 H 0.53384 0.49870 0.06702
 H387 H 0.46727 0.42832 -0.00023
 H388 H 0.53271 0.49831 -0.07002
 H389 H 0.49674 0.38403 0.03005
 H390 H 0.50295 0.38374 -0.03117
 H391 H 0.50664 0.61472 0.02871
 H392 H 0.49863 0.61489 -0.03201
 C393 C 0.75120 0.74994 0.13219
 C394 C 0.74989 0.75071 0.36514
 C395 C 0.69207 0.80933 0.19191
 C396 C 0.69290 0.68807 0.19317
 C397 C 0.69148 0.80996 0.30304
 C398 C 0.80676 0.80837 0.30681
 C399 C 0.80780 0.69386 0.30709
 C400 C 0.80749 0.80786 0.19098
 C401 C 0.69247 0.68861 0.30399
 C402 C 0.80822 0.69350 0.19159
 O403 O 0.71442 0.81835 0.31039
 O404 O 0.68466 0.78484 0.28031
 O405 O 0.71553 0.68138 0.31168
 O406 O 0.68527 0.71317 0.28081
 O407 O 0.78544 0.68455 0.18370
 O408 O 0.81446 0.71720 0.21586
 O409 O 0.75011 0.71871 0.34953
 O410 O 0.74928 0.78225 0.34875
 O411 O 0.75077 0.71808 0.14810
 O412 O 0.75079 0.78165 0.14822
 O413 O 0.78379 0.81675 0.31417
 O414 O 0.81357 0.78484 0.28267
 O415 O 0.71511 0.81734 0.18463
 O416 O 0.68503 0.78476 0.21520
 O417 O 0.78460 0.81612 0.18295
 O418 O 0.81398 0.78461 0.21558
 O419 O 0.78495 0.68504 0.31485
 O420 O 0.81419 0.71738 0.28267
 O421 O 0.75158 0.64541 0.19483
 O422 O 0.75150 0.64568 0.30253
 O423 O 0.74943 0.85478 0.30216
 O424 O 0.75043 0.85461 0.19544
 O425 O 0.72766 0.79879 0.24816
 O426 O 0.72846 0.70063 0.24870
 O427 O 0.77085 0.79933 0.24858
 O428 O 0.72727 0.74954 0.20115
 O429 O 0.68553 0.71301 0.21578
 O430 O 0.71602 0.68054 0.18607
 O431 O 0.77288 0.75025 0.20113
 O432 O 0.77244 0.75064 0.29657
 O433 O 0.77147 0.70144 0.24904
 O434 O 0.72681 0.74986 0.29567
 Zr435 Zr 0.75037 0.70364 0.20258
 Zr436 Zr 0.74925 0.79650 0.29448
 Zr437 Zr 0.70657 0.74932 0.24821
 Zr438 Zr 0.74977 0.79620 0.20229
 Zr439 Zr 0.75001 0.70398 0.29514
 Zr440 Zr 0.79238 0.75069 0.24901
 H441 H 0.78089 0.82251 0.24853
 H442 H 0.71636 0.74918 0.17987
 H443 H 0.78182 0.67856 0.24925
 H444 H 0.71567 0.74980 0.31674
 H445 H 0.75255 0.63446 0.21899
 H446 H 0.74557 0.63476 0.27985
 H447 H 0.74325 0.86507 0.21760
 H448 H 0.75180 0.86572 0.27818
 C449 C -0.00029 -0.00011 0.38179
 C450 C 0.00067 0.00084 0.61526
 C451 C -0.05776 0.06211 0.44372
 C452 C -0.05863 -0.06004 0.44431
 C453 C -0.05733 0.06233 0.55378
 C454 C 0.05793 0.05664 0.55567
 C455 C 0.05728 -0.05755 0.55595
 C456 C 0.05754 0.05628 0.44011
 C457 C -0.05809 -0.06004 0.55399
 C458 C 0.05670 -0.05801 0.44019
 O459 O -0.03423 0.06959 0.56121
 O460 O -0.06465 0.03733 0.53121
 O461 O -0.03508 -0.06808 0.56124
 O462 O -0.06514 -0.03475 0.53149
 O463 O 0.03374 -0.06630 0.43265
 O464 O 0.06341 -0.03459 0.46447
 O465 O -0.00018 -0.03110 0.59956
 O466 O 0.00074 0.03244 0.59890
 O467 O -0.00060 -0.03196 0.39776
 O468 O -0.00039 0.03158 0.39791
 O469 O 0.03515 0.06564 0.56357
 O470 O 0.06417 0.03300 0.53131
 O471 O -0.03469 0.06949 0.43614
 O472 O -0.06496 0.03717 0.46654
 O473 O 0.03471 0.06524 0.43245
 O474 O 0.06393 0.03278 0.46449
 O475 O 0.03440 -0.06574 0.56410
 O476 O 0.06377 -0.03434 0.53134
 O477 O -0.00015 -0.10453 0.44543
 O478 O 0.00012 -0.10398 0.55346
 O479 O 0.00172 0.10498 0.55146
 O480 O 0.00097 0.10448 0.44371
 O481 O -0.02177 0.04962 0.49850
 O482 O -0.02234 -0.04840 0.49892
 O483 O 0.02125 0.04882 0.49812
 O484 O -0.02341 0.00044 0.45133
 O485 O -0.06545 -0.03484 0.46699
 O486 O -0.03568 -0.06799 0.43648
 O487 O 0.02227 -0.00025 0.45050
 O488 O 0.02266 0.00008 0.54610
 O489 O 0.02055 -0.04904 0.49852
 O490 O -0.02304 0.00075 0.54609
 Zr491 Zr -0.00085 -0.04615 0.45235
 Zr492 Zr 0.00012 0.04664 0.54453
 Zr493 Zr -0.04358 0.00091 0.49888
 Zr494 Zr -0.00024 0.04633 0.45210
 Zr495 Zr -0.00046 -0.04580 0.54507
 Zr496 Zr 0.04212 -0.00046 0.49811
 H497 H 0.03160 0.07170 0.49798
 H498 H -0.03458 0.00058 0.43032
 H499 H 0.03060 -0.07222 0.49848
 H500 H -0.03405 0.00096 0.56730
 H501 H -0.00584 -0.11513 0.46841
 H502 H 0.00057 -0.11519 0.52940
 H503 H 0.00222 0.11565 0.46773
 H504 H -0.00418 0.11578 0.52869
 C505 C 0.24956 0.24816 0.86650
 C506 C 0.25100 0.24897 0.63311
 C507 C 0.19186 0.18545 0.80322
 C508 C 0.19067 0.30771 0.80369
 C509 C 0.19302 0.18572 0.69438
 C510 C 0.30834 0.19220 0.69333
 C511 C 0.30642 0.30802 0.69256
 C512 C 0.30714 0.19194 0.80855
 C513 C 0.19103 0.30766 0.69463
 C514 C 0.30586 0.30813 0.80806
 O515 O 0.21618 0.17856 0.68708
 O516 O 0.18557 0.21075 0.71680
 O517 O 0.21390 0.31637 0.68677
 O518 O 0.18465 0.28208 0.71711
 O519 O 0.28272 0.31522 0.81540
 O520 O 0.31326 0.28474 0.78408
 O521 O 0.25004 0.28055 0.64935
 O522 O 0.25090 0.21703 0.64893
 O523 O 0.24906 0.27976 0.85019
 O524 O 0.24919 0.21623 0.85077
 O525 O 0.28559 0.18337 0.68516
 O526 O 0.31451 0.21622 0.71738
 O527 O 0.21477 0.17851 0.81224
 O528 O 0.18513 0.21042 0.78035
 O529 O 0.28418 0.18367 0.81593
 O530 O 0.31402 0.21561 0.78437
 O531 O 0.28337 0.31513 0.68476
 O532 O 0.31358 0.28483 0.71697
 O533 O 0.24836 0.35249 0.80442
 O534 O 0.24933 0.35310 0.69660
 O535 O 0.25203 0.14422 0.69517
 O536 O 0.25130 0.14368 0.80301
 O537 O 0.22838 0.19866 0.74943
 O538 O 0.22700 0.29681 0.74960
 O539 O 0.27125 0.20036 0.75020
 O540 O 0.22611 0.24762 0.79704
 O541 O 0.18410 0.28227 0.78112
 O542 O 0.21354 0.31605 0.81150
 O543 O 0.27191 0.24883 0.79787
 O544 O 0.27262 0.24929 0.70248
 O545 O 0.27002 0.29777 0.75005
 O546 O 0.22685 0.24777 0.70200
 Zr547 Zr 0.24847 0.29433 0.79596
 Zr548 Zr 0.25039 0.20235 0.70345
 Zr549 Zr 0.20644 0.24708 0.74924
 Zr550 Zr 0.24941 0.20203 0.79620
 Zr551 Zr 0.24888 0.29471 0.70364
 Zr552 Zr 0.29231 0.24971 0.75049
 H553 H 0.28162 0.17750 0.75040
 H554 H 0.21485 0.24730 0.81799
 H555 H 0.27976 0.32125 0.75015
 H556 H 0.21589 0.24749 0.68076
 H557 H 0.24931 0.36380 0.78040
 H558 H 0.24318 0.36362 0.71935
 H559 H 0.24558 0.13294 0.78014
 H560 H 0.25290 0.13304 0.71925
 C561 C 0.49903 0.00008 0.38239
 C562 C 0.49924 -0.00008 0.61541
 C563 C 0.55681 -0.06161 0.44348
 C564 C 0.55801 0.05901 0.44392
 C565 C 0.55722 -0.06143 0.55353
 C566 C 0.44197 -0.05695 0.55724
 C567 C 0.44288 0.05870 0.55706
 C568 C 0.44150 -0.05682 0.44156
 C569 C 0.55820 0.05870 0.55349
 C570 C 0.44266 0.05899 0.44146
 O571 O 0.53432 -0.06935 0.56189
 O572 O 0.56376 -0.03673 0.53031
 O573 O 0.53541 0.06758 0.56159
 O574 O 0.56439 0.03362 0.53046
 O575 O 0.46570 0.06633 0.43378
 O576 O 0.43549 0.03558 0.46567
 O577 O 0.49994 0.03157 0.59921
 O578 O 0.49922 -0.03199 0.59964
 O579 O 0.49969 0.03169 0.39857
 O580 O 0.49889 -0.03184 0.39818
 O581 O 0.46490 -0.06513 0.56471
 O582 O 0.43507 -0.03347 0.53295
 O583 O 0.53384 -0.06967 0.43577
 O584 O 0.56354 -0.03672 0.46639
 O585 O 0.46439 -0.06501 0.43374
 O586 O 0.43478 -0.03334 0.46588
 O587 O 0.46595 0.06603 0.56457
 O588 O 0.43565 0.03545 0.53284
 O589 O 0.49984 0.10437 0.44462
 O590 O 0.49969 0.10441 0.55218
 O591 O 0.49795 -0.10484 0.55238
 O592 O 0.49785 -0.10463 0.44469
 O593 O 0.52099 -0.04999 0.49874
 O594 O 0.52193 0.04868 0.49875
 O595 O 0.47807 -0.04854 0.49905
 O596 O 0.52238 -0.00060 0.45124
 O597 O 0.56426 0.03366 0.46664
 O598 O 0.53519 0.06809 0.43619
 O599 O 0.47680 0.00034 0.45137
 O600 O 0.47706 0.00021 0.54661
 O601 O 0.47887 0.04898 0.49900
 O602 O 0.52260 -0.00067 0.54621
 Zr603 Zr 0.50020 0.04615 0.45273
 Zr604 Zr 0.49961 -0.04652 0.54521
 Zr605 Zr 0.54231 -0.00110 0.49860
 Zr606 Zr 0.49932 -0.04643 0.45258
 Zr607 Zr 0.50037 0.04606 0.54502
 Zr608 Zr 0.45679 0.00062 0.49915
 H609 H 0.46780 -0.07150 0.49916
 H610 H 0.53350 -0.00077 0.43014
 H611 H 0.46902 0.07235 0.49910
 H612 H 0.53376 -0.00090 0.56723
 H613 H 0.49929 0.11544 0.46874
 H614 H 0.50611 0.11508 0.52962
 H615 H 0.49777 -0.11566 0.46885
 H616 H 0.50419 -0.11570 0.52983
 C617 C 0.74878 0.24869 0.86599
 C618 C 0.75100 0.24873 0.63312
 C619 C 0.69170 0.18577 0.80395
 C620 C 0.69025 0.30699 0.80379
 C621 C 0.69301 0.18562 0.69392
 C622 C 0.80823 0.19305 0.69275
 C623 C 0.80602 0.30800 0.69181
 C624 C 0.80697 0.19345 0.80899
 C625 C 0.69061 0.30650 0.69353
 C626 C 0.80542 0.30820 0.80823
 O627 O 0.71620 0.17851 0.68674
 O628 O 0.68546 0.21035 0.71654
 O629 O 0.71344 0.31556 0.68581
 O630 O 0.68430 0.28132 0.71647
 O631 O 0.78224 0.31519 0.81548
 O632 O 0.81289 0.28525 0.78391
 O633 O 0.74987 0.28037 0.64920
 O634 O 0.75091 0.21683 0.64899
 O635 O 0.74806 0.28024 0.84964
 O636 O 0.74915 0.21671 0.85038
 O637 O 0.78553 0.18376 0.68488
 O638 O 0.81435 0.21698 0.71693
 O639 O 0.71468 0.17894 0.81281
 O640 O 0.68493 0.21024 0.78056
 O641 O 0.78407 0.18480 0.81626
 O642 O 0.81382 0.21665 0.78440
 O643 O 0.78294 0.31506 0.68407
 O644 O 0.81323 0.28518 0.71650
 O645 O 0.74788 0.35286 0.80341
 O646 O 0.74873 0.35317 0.69661
 O647 O 0.75207 0.14407 0.69564
 O648 O 0.75146 0.14385 0.80240
 O649 O 0.72820 0.19849 0.74932
 O650 O 0.72648 0.29679 0.74918
 O651 O 0.77125 0.20059 0.75012
 O652 O 0.72591 0.24769 0.79661
 O653 O 0.68371 0.28175 0.78100
 O654 O 0.71308 0.31586 0.81121
 O655 O 0.77156 0.24926 0.79747
 O656 O 0.77231 0.24943 0.70236
 O657 O 0.76969 0.29814 0.74966
 O658 O 0.72668 0.24755 0.70189
 Zr659 Zr 0.74805 0.29463 0.79544
 Zr660 Zr 0.75031 0.20227 0.70346
 Zr661 Zr 0.70615 0.24681 0.74900
 Zr662 Zr 0.74928 0.20223 0.79598
 Zr663 Zr 0.74849 0.29474 0.70334
 Zr664 Zr 0.79205 0.25018 0.75022
 H665 H 0.78177 0.17788 0.75041
 H666 H 0.71465 0.24733 0.81755
 H667 H 0.77940 0.32163 0.74973
 H668 H 0.71581 0.24707 0.68056
 H669 H 0.74948 0.36397 0.77938
 H670 H 0.74141 0.36346 0.71874
 H671 H 0.74455 0.13317 0.78018
 H672 H 0.75393 0.13316 0.71971
 C673 C 0.00139 0.49993 0.38282
 C674 C -0.00114 0.49957 0.61625
 C675 C -0.05669 0.56257 0.44381
 C676 C -0.05840 0.44049 0.44396
 C677 C -0.05727 0.56283 0.55329
 C678 C 0.05793 0.55499 0.55777
 C679 C 0.05595 0.44021 0.55828
 C680 C 0.05857 0.55528 0.44225
 C681 C -0.05950 0.44060 0.55342
 C682 C 0.05695 0.44020 0.44233
 O683 O -0.03418 0.56991 0.56095
 O684 O -0.06455 0.53780 0.53074
 O685 O -0.03674 0.43188 0.56177
 O686 O -0.06562 0.46612 0.53065
 O687 O 0.03399 0.43247 0.43435
 O688 O 0.06369 0.46347 0.46674
 O689 O -0.00153 0.46765 0.60047
 O690 O -0.00069 0.53119 0.59994
 O691 O 0.00020 0.46804 0.39864
 O692 O 0.00154 0.53156 0.39903
 O693 O 0.03512 0.56419 0.56526
 O694 O 0.06430 0.53107 0.53373
 O695 O -0.03351 0.56943 0.43625
 O696 O -0.06415 0.53774 0.46646
 O697 O 0.03585 0.56454 0.43442
 O698 O 0.06469 0.53128 0.46648
 O699 O 0.03281 0.43323 0.56586
 O700 O 0.06331 0.46299 0.53370
 O701 O -0.00062 0.39524 0.44504
 O702 O -0.00117 0.39497 0.55296
 O703 O 0.00193 0.60386 0.55396
 O704 O 0.00273 0.60422 0.44618
 O705 O -0.02122 0.54946 0.49917
 O706 O -0.02275 0.45135 0.49912
 O707 O 0.02180 0.54762 0.49973
 O708 O -0.02276 0.50046 0.45167
 O709 O -0.06524 0.46595 0.46636
 O710 O -0.03545 0.43197 0.43677
 O711 O 0.02293 0.49889 0.45204
 O712 O 0.02217 0.49868 0.54755
 O713 O 0.02014 0.44997 0.49986
 O714 O -0.02355 0.50044 0.54652
 Zr715 Zr -0.00063 0.45345 0.45313
 Zr716 Zr 0.00012 0.54574 0.54565
 Zr717 Zr -0.04336 0.50115 0.49879
 Zr718 Zr 0.00072 0.54591 0.45327
 Zr719 Zr -0.00155 0.45335 0.54588
 Zr720 Zr 0.04238 0.49798 0.50004
 H721 H 0.03231 0.57034 0.49983
 H722 H -0.03370 0.50084 0.43041
 H723 H 0.02992 0.42654 0.50003
 H724 H -0.03488 0.50086 0.56738
 H725 H -0.00054 0.38410 0.46917
 H726 H -0.00710 0.38444 0.53012
 H727 H -0.00315 0.61511 0.46891
 H728 H 0.00336 0.61501 0.52993
 C729 C 0.24816 0.74984 0.86527
 C730 C 0.25194 0.75089 0.63234
 C731 C 0.19086 0.68873 0.80128
 C732 C 0.19082 0.81050 0.80246
 C733 C 0.19275 0.68898 0.69257
 C734 C 0.30812 0.69262 0.69300
 C735 C 0.30796 0.80847 0.69353
 C736 C 0.30618 0.69199 0.80801
 C737 C 0.19266 0.81164 0.69274
 C738 C 0.30606 0.80774 0.80854
 O739 O 0.21588 0.68130 0.68560
 O740 O 0.18539 0.71437 0.71468
 O741 O 0.21579 0.81944 0.68582
 O742 O 0.18534 0.78625 0.71489
 O743 O 0.28296 0.81541 0.81566
 O744 O 0.31332 0.78440 0.78443
 O745 O 0.25157 0.78244 0.64864
 O746 O 0.25119 0.71893 0.64801
 O747 O 0.24800 0.78152 0.84916
 O748 O 0.24817 0.71797 0.84943
 O749 O 0.28534 0.68440 0.68446
 O750 O 0.31435 0.71629 0.71736
 O751 O 0.21366 0.68079 0.81001
 O752 O 0.18449 0.71420 0.77863
 O753 O 0.28308 0.68418 0.81514
 O754 O 0.31339 0.71559 0.78408
 O755 O 0.28518 0.81679 0.68514
 O756 O 0.31426 0.78445 0.71759
 O757 O 0.24962 0.85439 0.80240
 O758 O 0.25100 0.85485 0.69485
 O759 O 0.25130 0.64609 0.69395
 O760 O 0.24967 0.64534 0.80223
 O761 O 0.22778 0.70118 0.74792
 O762 O 0.22768 0.79933 0.74827
 O763 O 0.27071 0.70134 0.74940
 O764 O 0.22578 0.74988 0.79544
 O765 O 0.18417 0.78585 0.77914
 O766 O 0.21372 0.81812 0.81082
 O767 O 0.27149 0.74988 0.79730
 O768 O 0.27317 0.75044 0.70187
 O769 O 0.27074 0.79893 0.74972
 O770 O 0.22737 0.75042 0.70064
 Zr771 Zr 0.24860 0.79608 0.79506
 Zr772 Zr 0.25023 0.70422 0.70239
 Zr773 Zr 0.20638 0.75025 0.74742
 Zr774 Zr 0.24860 0.70367 0.79496
 Zr775 Zr 0.25017 0.79662 0.70286
 Zr776 Zr 0.29223 0.75014 0.75031
 H777 H 0.28079 0.67820 0.74966
 H778 H 0.21434 0.74969 0.81618
 H779 H 0.28079 0.82210 0.75023
 H780 H 0.21656 0.75051 0.67924
 H781 H 0.24377 0.86524 0.77962
 H782 H 0.25184 0.86588 0.71897
 H783 H 0.24483 0.63456 0.77897
 H784 H 0.25091 0.63478 0.71799
 C785 C 0.49977 0.50001 0.38245
 C786 C 0.49749 0.49878 0.61538
 C787 C 0.55677 0.43712 0.44413
 C788 C 0.55855 0.55804 0.44514
 C789 C 0.55566 0.43593 0.55443
 C790 C 0.44041 0.44271 0.55530
 C791 C 0.44257 0.55871 0.55642
 C792 C 0.44144 0.44383 0.44005
 C793 C 0.55792 0.55712 0.55492
 C794 C 0.44319 0.55955 0.44108
 O795 O 0.53248 0.42883 0.56169
 O796 O 0.56315 0.46077 0.53181
 O797 O 0.53509 0.56608 0.56266
 O798 O 0.56425 0.53186 0.53211
 O799 O 0.46634 0.56658 0.43364
 O800 O 0.43577 0.53609 0.46501
 O801 O 0.49863 0.53048 0.59937
 O802 O 0.49762 0.46694 0.59949
 O803 O 0.50055 0.53150 0.39884
 O804 O 0.49934 0.46798 0.39803
 O805 O 0.46314 0.43363 0.56328
 O806 O 0.43429 0.46707 0.53144
 O807 O 0.53380 0.42978 0.43572
 O808 O 0.56351 0.46153 0.46752
 O809 O 0.46435 0.43539 0.43252
 O810 O 0.43469 0.46725 0.46442
 O811 O 0.46564 0.56570 0.56426
 O812 O 0.43539 0.53568 0.53196
 O813 O 0.50084 0.60394 0.44520
 O814 O 0.49987 0.60346 0.55259
 O815 O 0.49665 0.39440 0.55282
 O816 O 0.49716 0.39489 0.44522
 O817 O 0.52033 0.44907 0.49906
 O818 O 0.52210 0.54746 0.49949
 O819 O 0.47741 0.45119 0.49832
 O820 O 0.52265 0.49862 0.45190
 O821 O 0.56465 0.53236 0.46774
 O822 O 0.53580 0.56733 0.43734
 O823 O 0.47702 0.50027 0.45098
 O824 O 0.47626 0.49978 0.54628
 O825 O 0.47900 0.54872 0.49894
 O826 O 0.52189 0.49793 0.54675
 Zr827 Zr 0.50066 0.54568 0.45307
 Zr828 Zr 0.49832 0.45262 0.54501
 Zr829 Zr 0.54232 0.49742 0.49961
 Zr830 Zr 0.49923 0.45316 0.45239
 Zr831 Zr 0.50007 0.54512 0.54530
 Zr832 Zr 0.45660 0.50073 0.49837
 H833 H 0.46695 0.42842 0.49799
 H834 H 0.53391 0.49844 0.43095
 H835 H 0.46932 0.57224 0.49898
 H836 H 0.53280 0.49740 0.56804
 H837 H 0.49967 0.61493 0.46931
 H838 H 0.50656 0.61406 0.53017
 H839 H 0.50328 0.38389 0.46778
 H840 H 0.49562 0.38351 0.52866
 C841 C 0.74822 0.74971 0.86528
 C842 C 0.75189 0.75060 0.63240
 C843 C 0.69096 0.68880 0.80191
 C844 C 0.69082 0.80998 0.80289
 C845 C 0.69268 0.68931 0.69199
 C846 C 0.80804 0.69321 0.69227
 C847 C 0.80779 0.80780 0.69268
 C848 C 0.80626 0.69264 0.80832
 C849 C 0.69253 0.81054 0.69218
 C850 C 0.80607 0.80735 0.80863
 O851 O 0.71581 0.68171 0.68488
 O852 O 0.68534 0.71415 0.71468
 O853 O 0.71563 0.81837 0.68509
 O854 O 0.68525 0.78573 0.71494
 O855 O 0.78297 0.81512 0.81566
 O856 O 0.81334 0.78427 0.78431
 O857 O 0.75150 0.78219 0.64867
 O858 O 0.75117 0.71863 0.64809
 O859 O 0.74804 0.78137 0.84913
 O860 O 0.74825 0.71784 0.84946
 O861 O 0.78527 0.68471 0.68391
 O862 O 0.81426 0.71652 0.71695
 O863 O 0.71379 0.68056 0.81027
 O864 O 0.68456 0.71409 0.77910
 O865 O 0.78320 0.68458 0.81536
 O866 O 0.81345 0.71585 0.78404
 O867 O 0.78500 0.81627 0.68447
 O868 O 0.81412 0.78417 0.71709
 O869 O 0.74916 0.85417 0.80307
 O870 O 0.75120 0.85484 0.69605
 O871 O 0.75162 0.64562 0.69536
 O872 O 0.74952 0.64523 0.80270
 O873 O 0.72774 0.70087 0.74804
 O874 O 0.72757 0.79914 0.74831
 O875 O 0.77079 0.70119 0.74941
 O876 O 0.72584 0.74969 0.79552
 O877 O 0.68414 0.78535 0.77957
 O878 O 0.71374 0.81802 0.81077
 O879 O 0.77148 0.74980 0.79722
 O880 O 0.77302 0.75027 0.70196
 O881 O 0.77073 0.79889 0.74964
 O882 O 0.72737 0.75015 0.70088
 Zr883 Zr 0.74858 0.79595 0.79502
 Zr884 Zr 0.75020 0.70394 0.70249
 Zr885 Zr 0.70635 0.74995 0.74758
 Zr886 Zr 0.74865 0.70351 0.79499
 Zr887 Zr 0.75007 0.79645 0.70288
 Zr888 Zr 0.79220 0.75009 0.75020
 H889 H 0.78097 0.67814 0.74958
 H890 H 0.71445 0.74951 0.81631
 H891 H 0.78083 0.82201 0.75000
 H892 H 0.71663 0.75018 0.67943
 H893 H 0.75109 0.86525 0.77908
 H894 H 0.74420 0.86543 0.71827
 H895 H 0.75110 0.63437 0.77859
 H896 H 0.74487 0.63479 0.71765
 C897 C 0.00297 0.00177 0.22813
 C898 C 0.00909 0.03394 0.20859
 C899 C 0.00921 0.03272 0.17149
 C900 C 0.00360 -0.00054 0.15351
 C901 C -0.00156 -0.03248 0.17397
 N902 N -0.00182 -0.03051 0.21023
 C903 C 0.00174 0.00208 0.26765
 N904 N 0.00444 -0.03052 0.28595
 C905 C 0.00365 -0.03211 0.32221
 C906 C -0.00001 0.00052 0.34228
 C907 C -0.00332 0.03425 0.32386
 C908 C -0.00262 0.03513 0.28676
 H909 H 0.01378 0.05791 0.15691
 H910 H -0.00584 -0.05878 0.16123
 H911 H 0.00614 -0.05879 0.33527
 H912 H -0.00662 0.06007 0.33807
 H913 H 0.01403 0.05982 0.22154
 H914 H -0.00587 0.06144 0.27346
 C915 C 0.25070 0.25225 1.02018
 C916 C 0.24866 0.28563 1.03947
 C917 C 0.24843 0.28477 1.07656
 C918 C 0.24984 0.25064 1.09518
 C919 C 0.25134 0.21770 1.07466
 N920 N 0.25173 0.21941 1.03839
 C921 C 0.25120 0.25181 0.98059
 N922 N 0.24521 0.21979 0.96298
 C923 C 0.24484 0.21763 0.92673
 C924 C 0.25053 0.24913 0.90595
 C925 C 0.25727 0.28212 0.92356
 C926 C 0.25784 0.28351 0.96064
 H927 H 0.24692 0.31116 1.09047
 H928 H 0.25232 0.19055 1.08725
 H929 H 0.23972 0.19153 0.91424
 H930 H 0.26236 0.30689 0.90868
 H931 H 0.24678 0.31234 1.02637
 H932 H 0.26376 0.30914 0.97319
 C933 C 0.11793 0.10718 0.11338
 C934 C 0.12308 0.07650 0.09121
 C935 C 0.10388 0.06031 0.07149
 C936 C 0.07938 0.07401 0.07402
 C937 C 0.07485 0.10412 0.09710
 N938 N 0.09395 0.11975 0.11580
 C939 C 0.13775 0.12622 0.13425
 N940 N 0.13112 0.14860 0.16208
 C941 C 0.14824 0.16755 0.18190
 C942 C 0.17385 0.16466 0.17401
 C943 C 0.18103 0.14181 0.14539
 C944 C 0.16318 0.12286 0.12544
 H945 H 0.10821 0.03665 0.05464
 H946 H 0.05621 0.11541 0.10015
 H947 H 0.14180 0.18498 0.20359
 H948 H 0.20048 0.13909 0.13781
 H949 H 0.14154 0.06447 0.08931
 H950 H 0.16945 0.10666 0.10287
 C951 C 0.36197 0.36863 0.13208
 C952 C 0.33693 0.37015 0.12095
 C953 C 0.31873 0.35088 0.14008
 C954 C 0.32533 0.32966 0.17007
 C955 C 0.35065 0.32814 0.17989
 N956 N 0.36806 0.34741 0.16093
 C957 C 0.38201 0.38888 0.11293
 N958 N 0.40610 0.37710 0.11639
 C959 C 0.42542 0.39413 0.09930
 C960 C 0.42096 0.42491 0.07703
 C961 C 0.39632 0.43792 0.07371
 C962 C 0.37691 0.42022 0.09169
 H963 H 0.29952 0.35236 0.13109
 H964 H 0.35661 0.31193 0.20270
 H965 H 0.44415 0.38332 0.10285
 H966 H 0.39200 0.46199 0.05736
 H967 H 0.33130 0.38541 0.09742
 H968 H 0.35826 0.43154 0.08922
 C969 C 0.36777 0.13683 0.13622
 C970 C 0.37310 0.16742 0.15836
 C971 C 0.35371 0.18568 0.17600
 C972 C 0.32885 0.17406 0.17151
 C973 C 0.32421 0.14395 0.14848
 N974 N 0.34349 0.12638 0.13173
 C975 C 0.38775 0.11605 0.11714
 N976 N 0.38162 0.09505 0.08817
 C977 C 0.39894 0.07553 0.06920
 C978 C 0.42427 0.07655 0.07904
 C979 C 0.43091 0.09744 0.10921
 C980 C 0.41281 0.11694 0.12837
 H981 H 0.35823 0.20911 0.19302
 H982 H 0.30535 0.13413 0.14399
 H983 H 0.39292 0.05962 0.04625
 H984 H 0.45012 0.09856 0.11826
 H985 H 0.39192 0.17777 0.16180
 H986 H 0.41855 0.13195 0.15195
 C987 C 0.13178 0.36486 0.13872
 C988 C 0.12606 0.33564 0.16240
 C989 C 0.14521 0.31778 0.18093
 C990 C 0.17019 0.32845 0.17581
 C991 C 0.17518 0.35754 0.15165
 N992 N 0.15616 0.37467 0.13397
 C993 C 0.11210 0.38465 0.11818
 N994 N 0.11846 0.40345 0.08787
 C995 C 0.10130 0.42178 0.06752
 C996 C 0.07594 0.42167 0.07728
 C997 C 0.06912 0.40305 0.10878
 C998 C 0.08703 0.38484 0.12930
 H999 H 0.14040 0.29519 0.19886
 H1000 H 0.19417 0.36657 0.14662
 H1001 H 0.10745 0.43607 0.04364
 H1002 H 0.04991 0.40285 0.11793
 H1003 H 0.10715 0.32583 0.16619
 H1004 H 0.08113 0.37168 0.15385
 C1005 C 0.36749 0.13859 0.36185
 C1006 C 0.37298 0.16895 0.33942
 C1007 C 0.35376 0.18667 0.32093
 C1008 C 0.32895 0.17467 0.32490
 C1009 C 0.32414 0.14479 0.34822
 N1010 N 0.34324 0.12776 0.36577
 C1011 C 0.38725 0.11828 0.38166
 N1012 N 0.38087 0.09784 0.41096
 C1013 C 0.39803 0.07852 0.43041
 C1014 C 0.42338 0.07918 0.42067
 C1015 C 0.43024 0.09958 0.39021
 C1016 C 0.41233 0.11888 0.37062
 H1017 H 0.35835 0.21000 0.30376
 H1018 H 0.30528 0.13474 0.35234
 H1019 H 0.39186 0.06300 0.45357
 H1020 H 0.44947 0.10039 0.38120
 H1021 H 0.39178 0.17954 0.33643
 H1022 H 0.41822 0.13343 0.34680
 C1023 C 0.13524 0.36645 0.36338
 C1024 C 0.16041 0.36827 0.37381
 C1025 C 0.17851 0.34952 0.35413
 C1026 C 0.17181 0.32832 0.32418
 C1027 C 0.14638 0.32642 0.31499
 N1028 N 0.12899 0.34530 0.33452
 C1029 C 0.11539 0.38633 0.38352
 N1030 N 0.09125 0.37440 0.38115
 C1031 C 0.07227 0.39103 0.39944
 C1032 C 0.07713 0.42149 0.42197
 C1033 C 0.10179 0.43458 0.42424
 C1034 C 0.12082 0.41741 0.40497
 H1035 H 0.19777 0.35125 0.36284
 H1036 H 0.14034 0.31018 0.29227
 H1037 H 0.05349 0.38022 0.39660
 H1038 H 0.10641 0.45848 0.44060
 H1039 H 0.16625 0.38331 0.39733
 H1040 H 0.13944 0.42896 0.40664
 C1041 C 0.13718 0.12598 0.36110
 C1042 C 0.16244 0.12261 0.37086
 C1043 C 0.18065 0.14164 0.35156
 C1044 C 0.17392 0.16449 0.32274
 C1045 C 0.14847 0.16736 0.31393
 N1046 N 0.13101 0.14838 0.33310
 C1047 C 0.11703 0.10690 0.38117
 N1048 N 0.09320 0.12015 0.37887
 C1049 C 0.07386 0.10450 0.39711
 C1050 C 0.07803 0.07374 0.41952
 C1051 C 0.10236 0.05926 0.42170
 C1052 C 0.12177 0.07546 0.40247
 H1053 H 0.19998 0.13898 0.35975
 H1054 H 0.14240 0.18478 0.29200
 H1055 H 0.05535 0.11637 0.39437
 H1056 H 0.10643 0.03509 0.43804
 H1057 H 0.16826 0.10634 0.39366
 H1058 H 0.14011 0.06294 0.40410
 C1059 C 0.36530 0.36605 0.36081
 C1060 C 0.37103 0.33588 0.33837
 C1061 C 0.35193 0.31751 0.32034
 C1062 C 0.32696 0.32860 0.32473
 C1063 C 0.32189 0.35827 0.34811
 N1064 N 0.34091 0.37601 0.36527
 C1065 C 0.38511 0.38677 0.38013
 N1066 N 0.37918 0.40590 0.41037
 C1067 C 0.39661 0.42479 0.42971
 C1068 C 0.42178 0.42487 0.41896
 C1069 C 0.42811 0.40610 0.38741
 C1070 C 0.40993 0.38735 0.36789
 H1071 H 0.35679 0.29435 0.30316
 H1072 H 0.30290 0.36759 0.35255
 H1073 H 0.39084 0.43915 0.45373
 H1074 H 0.44716 0.40604 0.37759
 H1075 H 0.38996 0.32591 0.33506
 H1076 H 0.41540 0.37394 0.34329
 C1077 C 0.49828 0.00193 0.22915
 C1078 C 0.49238 0.03394 0.20931
 C1079 C 0.49315 0.03261 0.17230
 C1080 C 0.49944 -0.00063 0.15476
 C1081 C 0.50441 -0.03241 0.17546
 N1082 N 0.50380 -0.03033 0.21166
 C1083 C 0.49850 0.00235 0.26854
 N1084 N 0.49538 -0.03024 0.28669
 C1085 C 0.49546 -0.03180 0.32292
 C1086 C 0.49887 0.00085 0.34301
 C1087 C 0.50245 0.03460 0.32475
 C1088 C 0.50244 0.03544 0.28771
 H1089 H 0.48860 0.05762 0.15744
 H1090 H 0.50913 -0.05870 0.16298
 H1091 H 0.49275 -0.05847 0.33590
 H1092 H 0.50554 0.06041 0.33905
 H1093 H 0.48687 0.05975 0.22197
 H1094 H 0.50598 0.06173 0.27449
 C1095 C 0.75115 0.25201 1.01913
 C1096 C 0.75643 0.28457 1.03847
 C1097 C 0.75637 0.28350 1.07553
 C1098 C 0.75141 0.25001 1.09356
 C1099 C 0.74703 0.21776 1.07331
 N1100 N 0.74694 0.21958 1.03709
 C1101 C 0.75022 0.25200 0.97976
 N1102 N 0.75407 0.21946 0.96187
 C1103 C 0.75353 0.21751 0.92567
 C1104 C 0.74890 0.24969 0.90535
 C1105 C 0.74446 0.28333 0.92334
 C1106 C 0.74494 0.28456 0.96038
 H1107 H 0.76037 0.30891 1.09003
 H1108 H 0.74329 0.19130 1.08615
 H1109 H 0.75695 0.19094 0.91289
 H1110 H 0.74039 0.30876 0.90885
 H1111 H 0.76088 0.31061 1.02537
 H1112 H 0.74079 0.31071 0.97343
 C1113 C 0.61824 0.11035 0.11113
 C1114 C 0.62346 0.08035 0.08820
 C1115 C 0.60423 0.06407 0.06863
 C1116 C 0.57959 0.07702 0.07199
 C1117 C 0.57503 0.10676 0.09549
 N1118 N 0.59417 0.12242 0.11415
 C1119 C 0.63808 0.12882 0.13251
 N1120 N 0.63149 0.14996 0.16122
 C1121 C 0.64867 0.16794 0.18180
 C1122 C 0.67428 0.16521 0.17386
 C1123 C 0.68141 0.14368 0.14430
 C1124 C 0.66351 0.12579 0.12355
 H1125 H 0.60866 0.04075 0.05142
 H1126 H 0.55629 0.11749 0.09918
 H1127 H 0.64227 0.18446 0.20415
 H1128 H 0.70086 0.14125 0.13660
 H1129 H 0.64201 0.06869 0.08574
 H1130 H 0.66976 0.11061 0.10033
 C1131 C -0.13789 0.36444 0.12875
 C1132 C -0.16292 0.36449 0.11743
 C1133 C -0.18099 0.34638 0.13781
 C1134 C -0.17431 0.32766 0.16925
 C1135 C -0.14900 0.32735 0.17919
 N1136 N -0.13170 0.34557 0.15903
 C1137 C -0.11802 0.38415 0.10859
 N1138 N -0.09369 0.37424 0.11371
 C1139 C -0.07448 0.39145 0.09649
 C1140 C -0.07926 0.42070 0.07249
 C1141 C -0.10420 0.43147 0.06705
 C1142 C -0.12351 0.41355 0.08509
 H1143 H -0.20019 0.34671 0.12862
 H1144 H -0.14296 0.31297 0.20307
 H1145 H -0.05555 0.38233 0.10169
 H1146 H -0.10887 0.45418 0.04919
 H1147 H -0.16866 0.37777 0.09289
 H1148 H -0.14238 0.42344 0.08107
 C1149 C 0.88796 0.12078 0.11309
 C1150 C 0.91329 0.12381 0.12253
 C1151 C 0.93131 0.10450 0.10310
 C1152 C 0.92435 0.08163 0.07441
 C1153 C 0.89882 0.07891 0.06605
 N1154 N 0.88155 0.09823 0.08532
 C1155 C 0.86800 0.14054 0.13313
 N1156 N 0.84399 0.12811 0.13068
 C1157 C 0.82478 0.14445 0.14868
 C1158 C 0.82923 0.17520 0.17099
 C1159 C 0.85376 0.18883 0.17340
 C1160 C 0.87306 0.17187 0.15444
 H1161 H 0.95070 0.10707 0.11101
 H1162 H 0.89255 0.06150 0.04425
 H1163 H 0.80614 0.13314 0.14577
 H1164 H 0.85806 0.21291 0.18970
 H1165 H 0.91934 0.14015 0.14513
 H1166 H 0.89157 0.18377 0.15627
 C1167 C 0.63200 0.35996 0.13588
 C1168 C 0.62672 0.32939 0.15819
 C1169 C 0.64589 0.31272 0.17768
 C1170 C 0.67053 0.32583 0.17483
 C1171 C 0.67514 0.35609 0.15186
 N1172 N 0.65607 0.37212 0.13331
 C1173 C 0.61219 0.37902 0.11479
 N1174 N 0.61878 0.40086 0.08649
 C1175 C 0.60161 0.41935 0.06624
 C1176 C 0.57599 0.41643 0.07406
 C1177 C 0.56887 0.39424 0.10324
 C1178 C 0.58676 0.37584 0.12367
 H1179 H 0.64142 0.28906 0.19449
 H1180 H 0.69387 0.36700 0.14858
 H1181 H 0.60802 0.43637 0.04420
 H1182 H 0.54943 0.39158 0.11088
 H1183 H 0.60818 0.31766 0.16027
 H1184 H 0.58049 0.36012 0.14658
 C1185 C -0.13301 0.14178 0.36342
 C1186 C -0.12750 0.16956 0.33814
 C1187 C -0.14676 0.18648 0.31904
 C1188 C -0.17192 0.17659 0.32517
 C1189 C -0.17661 0.14923 0.35149
 N1190 N -0.15740 0.13283 0.36942
 C1191 C -0.11314 0.12202 0.38386
 N1192 N -0.11951 0.10204 0.41351
 C1193 C -0.10237 0.08289 0.43325
 C1194 C -0.07700 0.08320 0.42350
 C1195 C -0.07012 0.10338 0.39292
 C1196 C -0.08799 0.12245 0.37303
 H1197 H -0.14174 0.20768 0.29969
 H1198 H -0.19549 0.14051 0.35779
 H1199 H -0.10857 0.06756 0.45651
 H1200 H -0.05090 0.10392 0.38383
 H1201 H -0.10862 0.17887 0.33317
 H1202 H -0.08192 0.13652 0.34907
 C1203 C 0.63544 0.36289 0.36625
 C1204 C 0.66056 0.36408 0.37706
 C1205 C 0.67875 0.34632 0.35672
 C1206 C 0.67219 0.32667 0.32578
 C1207 C 0.64680 0.32523 0.31627
 N1208 N 0.62933 0.34320 0.33641
 C1209 C 0.61553 0.38223 0.38678
 N1210 N 0.59128 0.37112 0.38326
 C1211 C 0.57221 0.38776 0.40139
 C1212 C 0.57708 0.41747 0.42480
 C1213 C 0.60191 0.42951 0.42847
 C1214 C 0.62102 0.41230 0.40945
 H1215 H 0.69797 0.34750 0.36571
 H1216 H 0.64086 0.31008 0.29281
 H1217 H 0.55333 0.37776 0.39745
 H1218 H 0.60661 0.45278 0.44557
 H1219 H 0.66630 0.37790 0.40130
 H1220 H 0.63975 0.42325 0.41211
 C1221 C 0.63785 0.12921 0.36571
 C1222 C 0.66310 0.12652 0.37569
 C1223 C 0.68130 0.14432 0.35536
 C1224 C 0.67457 0.16535 0.32531
 C1225 C 0.64912 0.16771 0.31636
 N1226 N 0.63166 0.14986 0.33652
 C1227 C 0.61775 0.11086 0.38648
 N1228 N 0.59381 0.12344 0.38331
 C1229 C 0.57443 0.10782 0.40153
 C1230 C 0.57867 0.07764 0.42463
 C1231 C 0.60319 0.06411 0.42799
 C1232 C 0.62263 0.08035 0.40890
 H1233 H 0.70063 0.14225 0.36373
 H1234 H 0.64305 0.18381 0.29353
 H1235 H 0.55580 0.11895 0.39786
 H1236 H 0.60738 0.04042 0.44490
 H1237 H 0.66891 0.11169 0.39937
 H1238 H 0.64108 0.06834 0.41130
 C1239 C -0.13445 0.36173 0.36539
 C1240 C -0.12916 0.33005 0.34470
 C1241 C -0.14819 0.31293 0.32549
 C1242 C -0.17271 0.32670 0.32709
 C1243 C -0.17746 0.35771 0.34895
 N1244 N -0.15847 0.37428 0.36719
 C1245 C -0.11456 0.38162 0.38531
 N1246 N -0.12080 0.40342 0.41373
 C1247 C -0.10338 0.42241 0.43301
 C1248 C -0.07793 0.41998 0.42399
 C1249 C -0.07123 0.39805 0.39451
 C1250 C -0.08936 0.37917 0.37509
 H1251 H -0.14370 0.28855 0.30970
 H1252 H -0.19615 0.36903 0.35126
 H1253 H -0.10943 0.43921 0.45537
 H1254 H -0.05193 0.39587 0.38599
 H1255 H -0.11065 0.31802 0.34357
 H1256 H -0.08353 0.36355 0.35189
 C1257 C 0.00203 0.50288 0.22921
 C1258 C -0.00191 0.53587 0.20978
 C1259 C -0.00227 0.53476 0.17269
 C1260 C 0.00096 0.50086 0.15459
 C1261 C 0.00433 0.46832 0.17494
 N1262 N 0.00478 0.47014 0.21121
 C1263 C 0.00270 0.50276 0.26874
 N1264 N -0.00243 0.47058 0.28667
 C1265 C -0.00265 0.46873 0.32293
 C1266 C 0.00236 0.50069 0.34336
 C1267 C 0.00822 0.53388 0.32537
 C1268 C 0.00859 0.53499 0.28827
 H1269 H -0.00535 0.56052 0.15824
 H1270 H 0.00679 0.44154 0.16213
 H1271 H -0.00710 0.44246 0.33568
 H1272 H 0.01269 0.55907 0.33994
 H1273 H -0.00517 0.56230 0.22280
 H1274 H 0.01376 0.56081 0.27532
 C1275 C 0.25129 0.75245 1.01834
 C1276 C 0.25709 0.78491 1.03753
 C1277 C 0.25740 0.78387 1.07457
 C1278 C 0.25229 0.75052 1.09274
 C1279 C 0.24743 0.71833 1.07261
 N1280 N 0.24699 0.72011 1.03640
 C1281 C 0.24993 0.75251 0.97901
 N1282 N 0.25359 0.72002 0.96096
 C1283 C 0.25281 0.71824 0.92476
 C1284 C 0.24817 0.75054 0.90463
 C1285 C 0.24381 0.78410 0.92281
 C1286 C 0.24452 0.78516 0.95983
 H1287 H 0.26173 0.80924 1.08896
 H1288 H 0.24355 0.69196 1.08556
 H1289 H 0.25616 0.69173 0.91182
 H1290 H 0.23972 0.80961 0.90846
 H1291 H 0.26162 0.81085 1.02430
 H1292 H 0.24049 0.81125 0.97306
 C1293 C 0.11781 0.60852 0.11319
 C1294 C 0.12297 0.57783 0.09104
 C1295 C 0.10368 0.56102 0.07192
 C1296 C 0.07905 0.57414 0.07497
 C1297 C 0.07454 0.60434 0.09798
 N1298 N 0.09372 0.62052 0.11613
 C1299 C 0.13772 0.62808 0.13361
 N1300 N 0.13119 0.65043 0.16152
 C1301 C 0.14837 0.66960 0.18110
 C1302 C 0.17395 0.66695 0.17293
 C1303 C 0.18103 0.64425 0.14415
 C1304 C 0.16311 0.62508 0.12442
 H1305 H 0.10805 0.53739 0.05505
 H1306 H 0.05583 0.61526 0.10142
 H1307 H 0.14199 0.68689 0.20292
 H1308 H 0.20045 0.64172 0.13635
 H1309 H 0.14154 0.56624 0.08869
 H1310 H 0.16931 0.60891 0.10179
 C1311 C 0.38832 0.88353 0.11665
 C1312 C 0.41366 0.87480 0.12186
 C1313 C 0.43202 0.89350 0.10241
 C1314 C 0.42554 0.92090 0.07701
 C1315 C 0.39979 0.92815 0.07212
 N1316 N 0.38226 0.90966 0.09172
 C1317 C 0.36800 0.86470 0.13709
 N1318 N 0.34410 0.86587 0.12447
 C1319 C 0.32465 0.84895 0.14157
 C1320 C 0.32870 0.82910 0.17338
 C1321 C 0.35309 0.82811 0.18713
 C1322 C 0.37262 0.84597 0.16938
 H1323 H 0.45135 0.88608 0.10733
 H1324 H 0.39346 0.94866 0.05293
 H1325 H 0.30614 0.85059 0.13001
 H1326 H 0.35713 0.81374 0.21189
 H1327 H 0.41953 0.85335 0.14029
 H1328 H 0.39097 0.84533 0.18138
 C1329 C 0.36779 0.63797 0.13664
 C1330 C 0.37315 0.66842 0.15890
 C1331 C 0.35382 0.68625 0.17697
 C1332 C 0.32902 0.67428 0.17274
 C1333 C 0.32434 0.64429 0.14962
 N1334 N 0.34357 0.62714 0.13245
 C1335 C 0.38767 0.61774 0.11708
 N1336 N 0.38141 0.59735 0.08778
 C1337 C 0.39867 0.57824 0.06839
 C1338 C 0.42400 0.57910 0.07817
 C1339 C 0.43076 0.59941 0.10864
 C1340 C 0.41273 0.61848 0.12821
 H1341 H 0.35833 0.70966 0.19402
 H1342 H 0.30550 0.63427 0.14535
 H1343 H 0.39258 0.56273 0.04523
 H1344 H 0.44998 0.60030 0.11765
 H1345 H 0.39193 0.67901 0.16205
 H1346 H 0.41851 0.63301 0.15206
 C1347 C 0.11761 0.88902 0.11165
 C1348 C 0.12294 0.91976 0.08959
 C1349 C 0.10381 0.93655 0.07019
 C1350 C 0.07920 0.92335 0.07294
 C1351 C 0.07450 0.89312 0.09586
 N1352 N 0.09354 0.87693 0.11428
 C1353 C 0.13736 0.86954 0.13228
 N1354 N 0.13077 0.84787 0.16068
 C1355 C 0.14791 0.82890 0.18052
 C1356 C 0.17345 0.83116 0.17210
 C1357 C 0.18055 0.85309 0.14274
 C1358 C 0.16269 0.87199 0.12275
 H1359 H 0.10827 0.96025 0.05342
 H1360 H 0.05577 0.88219 0.09905
 H1361 H 0.14155 0.81217 0.20279
 H1362 H 0.19995 0.85522 0.13470
 H1363 H 0.14152 0.93140 0.08759
 H1364 H 0.16887 0.88755 0.09968
 C1365 C 0.36735 0.63916 0.36279
 C1366 C 0.37252 0.67025 0.34119
 C1367 C 0.35315 0.68785 0.32301
 C1368 C 0.32846 0.67504 0.32644
 C1369 C 0.32393 0.64451 0.34904
 N1370 N 0.34321 0.62757 0.36632
 C1371 C 0.38736 0.61899 0.38221
 N1372 N 0.38117 0.59772 0.41101
 C1373 C 0.39852 0.57849 0.43015
 C1374 C 0.42390 0.58006 0.42060
 C1375 C 0.43062 0.60139 0.39069
 C1376 C 0.41249 0.62062 0.37139
 H1377 H 0.35755 0.71173 0.30645
 H1378 H 0.30517 0.63386 0.35271
 H1379 H 0.39244 0.56224 0.45289
 H1380 H 0.44988 0.60294 0.38190
 H1381 H 0.39119 0.68146 0.33860
 H1382 H 0.41826 0.63592 0.34794
 C1383 C 0.13533 -0.13014 0.36067
 C1384 C 0.16054 -0.12744 0.37076
 C1385 C 0.17873 -0.14628 0.35135
 C1386 C 0.17210 -0.16844 0.32201
 C1387 C 0.14665 -0.17103 0.31304
 N1388 N 0.12917 -0.15209 0.33233
 C1389 C 0.11534 -0.11051 0.38074
 N1390 N 0.09135 -0.12319 0.37883
 C1391 C 0.07229 -0.10695 0.39726
 C1392 C 0.07691 -0.07618 0.41948
 C1393 C 0.10140 -0.06230 0.42122
 C1394 C 0.12050 -0.07904 0.40178
 H1395 H 0.19801 -0.14394 0.35984
 H1396 H 0.14065 -0.18799 0.29079
 H1397 H 0.05364 -0.11836 0.39481
 H1398 H 0.10583 -0.03815 0.43734
 H1399 H 0.16635 -0.11171 0.39388
 H1400 H 0.13897 -0.06690 0.40306
 C1401 C 0.13731 0.62728 0.36218
 C1402 C 0.16273 0.62392 0.37093
 C1403 C 0.18056 0.64335 0.35126
 C1404 C 0.17341 0.66668 0.32293
 C1405 C 0.14779 0.66964 0.31515
 N1406 N 0.13067 0.65021 0.33470
 C1407 C 0.11751 0.60759 0.38277
 N1408 N 0.09349 0.62004 0.38071
 C1409 C 0.07445 0.60390 0.39926
 C1410 C 0.07906 0.57332 0.42183
 C1411 C 0.10360 0.55968 0.42394
 C1412 C 0.12274 0.57643 0.40437
 H1413 H 0.20001 0.64050 0.35878
 H1414 H 0.14135 0.68741 0.29370
 H1415 H 0.05579 0.61520 0.39653
 H1416 H 0.10800 0.53572 0.44039
 H1417 H 0.16901 0.60731 0.39324
 H1418 H 0.14124 0.56448 0.40598
 C1419 C 0.36538 -0.13485 0.36294
 C1420 C 0.37106 -0.16553 0.34113
 C1421 C 0.35200 -0.18364 0.32283
 C1422 C 0.32713 -0.17177 0.32637
 C1423 C 0.32208 -0.14166 0.34922
 N1424 N 0.34107 -0.12417 0.36664
 C1425 C 0.38518 -0.11426 0.38225
 N1426 N 0.37924 -0.09488 0.41233
 C1427 C 0.39669 -0.07595 0.43157
 C1428 C 0.42185 -0.07606 0.42081
 C1429 C 0.42818 -0.09514 0.38943
 C1430 C 0.40999 -0.11396 0.37005
 H1431 H 0.35681 -0.20718 0.30609
 H1432 H 0.30315 -0.13177 0.35301
 H1433 H 0.39094 -0.06134 0.45545
 H1434 H 0.44723 -0.09535 0.37959
 H1435 H 0.38992 -0.17601 0.33848
 H1436 H 0.41543 -0.12760 0.34554
 C1437 C 0.49818 0.50340 0.22921
 C1438 C 0.49286 0.53586 0.20964
 C1439 C 0.49317 0.53469 0.17259
 C1440 C 0.49842 0.50122 0.15476
 C1441 C 0.50287 0.46909 0.17522
 N1442 N 0.50271 0.47099 0.21143
 C1443 C 0.49879 0.50344 0.26861
 N1444 N 0.49522 0.47080 0.28651
 C1445 C 0.49555 0.46884 0.32273
 C1446 C 0.49968 0.50111 0.34307
 C1447 C 0.50377 0.53489 0.32507
 C1448 C 0.50349 0.53614 0.28802
 H1449 H 0.48911 0.56002 0.15793
 H1450 H 0.50683 0.44263 0.16254
 H1451 H 0.49241 0.44216 0.33549
 H1452 H 0.50741 0.56043 0.33957
 H1453 H 0.48816 0.56187 0.22256
 H1454 H 0.50740 0.56242 0.27499
 C1455 C 0.75094 0.75249 1.01840
 C1456 C 0.75641 0.78506 1.03762
 C1457 C 0.75665 0.78403 1.07467
 C1458 C 0.75181 0.75058 1.09283
 C1459 C 0.74725 0.71831 1.07268
 N1460 N 0.74687 0.72008 1.03646
 C1461 C 0.74971 0.75250 0.97905
 N1462 N 0.75363 0.72005 0.96103
 C1463 C 0.75297 0.71823 0.92482
 C1464 C 0.74818 0.75046 0.90465
 C1465 C 0.74358 0.78396 0.92278
 C1466 C 0.74416 0.78506 0.95981
 H1467 H 0.76073 0.80948 1.08906
 H1468 H 0.74358 0.69187 1.08561
 H1469 H 0.75651 0.69177 0.91192
 H1470 H 0.73937 0.80940 0.90838
 H1471 H 0.76075 0.81108 1.02441
 H1472 H 0.73992 0.81111 0.97299
 C1473 C 0.61777 0.61149 0.11065
 C1474 C 0.62305 0.58133 0.08794
 C1475 C 0.60381 0.56467 0.06868
 C1476 C 0.57912 0.57741 0.07217
 C1477 C 0.57453 0.60733 0.09545
 N1478 N 0.59367 0.62333 0.11380
 C1479 C 0.63759 0.63036 0.13170
 N1480 N 0.63101 0.65151 0.16041
 C1481 C 0.64816 0.66980 0.18075
 C1482 C 0.67374 0.66737 0.17258
 C1483 C 0.68087 0.64590 0.14298
 C1484 C 0.66299 0.62768 0.12246
 H1485 H 0.60827 0.54127 0.05157
 H1486 H 0.55577 0.61793 0.09921
 H1487 H 0.64177 0.68624 0.20316
 H1488 H 0.70030 0.64372 0.13511
 H1489 H 0.64164 0.56987 0.08540
 H1490 H 0.66920 0.61251 0.09922
 C1491 C 0.88713 0.87911 0.11250
 C1492 C 0.91239 0.87602 0.12238
 C1493 C 0.93063 0.89482 0.10287
 C1494 C 0.92396 0.91724 0.07371
 C1495 C 0.89849 0.92004 0.06491
 N1496 N 0.88100 0.90121 0.08425
 C1497 C 0.86697 0.85978 0.13256
 N1498 N 0.84298 0.87231 0.12975
 C1499 C 0.82366 0.85629 0.14782
 C1500 C 0.82798 0.82584 0.17060
 C1501 C 0.85248 0.81211 0.17332
 C1502 C 0.87187 0.82868 0.15427
 H1503 H 0.94995 0.89228 0.11113
 H1504 H 0.89245 0.93716 0.04274
 H1505 H 0.80503 0.86759 0.14463
 H1506 H 0.85671 0.78820 0.18992
 H1507 H 0.91821 0.86006 0.14537
 H1508 H 0.89033 0.81664 0.15635
 C1509 C 0.88759 0.62286 0.11261
 C1510 C 0.91293 0.62614 0.12193
 C1511 C 0.93097 0.60709 0.10234
 C1512 C 0.92400 0.58428 0.07363
 C1513 C 0.89848 0.58144 0.06529
 N1514 N 0.88119 0.60047 0.08473
 C1515 C 0.86759 0.64208 0.13293
 N1516 N 0.84367 0.62927 0.13052
 C1517 C 0.82442 0.64511 0.14879
 C1518 C 0.82876 0.67568 0.17133
 C1519 C 0.85320 0.68966 0.17375
 C1520 C 0.87254 0.67323 0.15450
 H1521 H 0.95036 0.60970 0.11022
 H1522 H 0.89222 0.56404 0.04348
 H1523 H 0.80583 0.63359 0.14587
 H1524 H 0.85739 0.71364 0.19022
 H1525 H 0.91897 0.64237 0.14460
 H1526 H 0.89096 0.68542 0.15630
 C1527 C 0.61670 0.88419 0.10766
 C1528 C 0.62234 0.91155 0.08202
 C1529 C 0.60314 0.92873 0.06302
 C1530 C 0.57791 0.91956 0.06960
 C1531 C 0.57313 0.89202 0.09572
 N1532 N 0.59228 0.87549 0.11370
 C1533 C 0.63651 0.86512 0.12883
 N1534 N 0.63014 0.84654 0.15929
 C1535 C 0.64732 0.82863 0.18002
 C1536 C 0.67274 0.82897 0.17056
 C1537 C 0.67961 0.84759 0.13909
 C1538 C 0.66170 0.86530 0.11815
 H1539 H 0.60827 0.94984 0.04364
 H1540 H 0.55420 0.88368 0.10220
 H1541 H 0.64113 0.81438 0.20390
 H1542 H 0.69887 0.84797 0.13016
 H1543 H 0.64126 0.92058 0.07691
 H1544 H 0.66777 0.87823 0.09361
 C1545 C -0.13270 0.64224 0.36556
 C1546 C -0.12779 0.67334 0.34384
 C1547 C -0.14719 0.68988 0.32480
 C1548 C -0.17168 0.67609 0.32753
 C1549 C -0.17599 0.64563 0.35030
 N1550 N -0.15667 0.62965 0.36836
 C1551 C -0.11258 0.62285 0.38561
 N1552 N -0.11883 0.60049 0.41363
 C1553 C -0.10145 0.58138 0.43286
 C1554 C -0.07595 0.58408 0.42414
 C1555 C -0.06913 0.60685 0.39527
 C1556 C -0.08728 0.62599 0.37590
 H1557 H -0.14298 0.71376 0.30814
 H1558 H -0.19460 0.63425 0.35349
 H1559 H -0.10761 0.56405 0.45481
 H1560 H -0.04978 0.60940 0.38713
 H1561 H -0.10934 0.68538 0.34172
 H1562 H -0.08135 0.64221 0.35311
 C1563 C 0.63529 -0.13418 0.36426
 C1564 C 0.66048 -0.13231 0.37460
 C1565 C 0.67863 -0.14998 0.35418
 C1566 C 0.67195 -0.17020 0.32362
 C1567 C 0.64652 -0.17217 0.31450
 N1568 N 0.62907 -0.15431 0.33474
 C1569 C 0.61542 -0.11521 0.38504
 N1570 N 0.59133 -0.12731 0.38252
 C1571 C 0.57231 -0.11111 0.40105
 C1572 C 0.57708 -0.08085 0.42384
 C1573 C 0.60174 -0.06779 0.42645
 C1574 C 0.62080 -0.08456 0.40703
 H1575 H 0.69790 -0.14836 0.36287
 H1576 H 0.64051 -0.18775 0.29134
 H1577 H 0.55353 -0.12186 0.39793
 H1578 H 0.60633 -0.04403 0.44301
 H1579 H 0.66629 -0.11809 0.39860
 H1580 H 0.63938 -0.07287 0.40883
 C1581 C 0.63721 0.63052 0.36559
 C1582 C 0.66262 0.62759 0.37449
 C1583 C 0.68044 0.64599 0.35395
 C1584 C 0.67325 0.66792 0.32463
 C1585 C 0.64763 0.67060 0.31680
 N1586 N 0.63053 0.65212 0.33719
 C1587 C 0.61749 0.61144 0.38677
 N1588 N 0.59345 0.62375 0.38454
 C1589 C 0.57444 0.60765 0.40317
 C1590 C 0.57910 0.57715 0.42581
 C1591 C 0.60372 0.56390 0.42832
 C1592 C 0.62283 0.58067 0.40878
 H1593 H 0.69989 0.64352 0.36158
 H1594 H 0.64119 0.68738 0.29464
 H1595 H 0.55572 0.61864 0.40014
 H1596 H 0.60820 0.54002 0.44484
 H1597 H 0.66890 0.61207 0.39750
 H1598 H 0.64137 0.56886 0.41053
 C1599 C -0.13483 -0.13903 0.36630
 C1600 C -0.12967 -0.17091 0.34583
 C1601 C -0.14871 -0.18772 0.32639
 C1602 C -0.17311 -0.17345 0.32756
 C1603 C -0.17776 -0.14228 0.34926
 N1604 N -0.15875 -0.12600 0.36770
 C1605 C -0.11490 -0.11932 0.38627
 N1606 N -0.12111 -0.09714 0.41442
 C1607 C -0.10364 -0.07812 0.43360
 C1608 C -0.07819 -0.08085 0.42467
 C1609 C -0.07152 -0.10326 0.39551
 C1610 C -0.08968 -0.12220 0.37622
 H1611 H -0.14431 -0.21220 0.31071
 H1612 H -0.19636 -0.13058 0.35125
 H1613 H -0.10967 -0.06097 0.45572
 H1614 H -0.05222 -0.10575 0.38709
 H1615 H -0.11126 -0.18330 0.34501
 H1616 H -0.08386 -0.13814 0.35323
 C1617 C 0.00033 0.00414 0.76911
 C1618 C -0.00133 0.03739 0.78867
 C1619 C -0.00179 0.03619 0.82577
 C1620 C -0.00099 0.00185 0.84414
 C1621 C 0.00006 -0.03093 0.82334
 N1622 N 0.00071 -0.02889 0.78707
 C1623 C 0.00118 0.00400 0.72948
 N1624 N -0.00481 -0.02783 0.71158
 C1625 C -0.00480 -0.02981 0.67531
 C1626 C 0.00133 0.00169 0.65476
 C1627 C 0.00803 0.03452 0.67268
 C1628 C 0.00819 0.03573 0.70980
 H1629 H -0.00295 0.06249 0.83989
 H1630 H 0.00057 -0.05822 0.83570
 H1631 H -0.00996 -0.05578 0.66262
 H1632 H 0.01338 0.05931 0.65801
 H1633 H -0.00269 0.06429 0.77580
 H1634 H 0.01409 0.06123 0.72258
 C1635 C 0.25165 0.25223 0.47936
 C1636 C 0.24715 0.28506 0.45992
 C1637 C 0.24686 0.28398 0.42282
 C1638 C 0.25074 0.25026 0.40466
 C1639 C 0.25463 0.21785 0.42501
 N1640 N 0.25499 0.21964 0.46129
 C1641 C 0.25229 0.25207 0.51893
 N1642 N 0.24793 0.21962 0.53683
 C1643 C 0.24774 0.21768 0.57310
 C1644 C 0.25198 0.24984 0.59362
 C1645 C 0.25708 0.28335 0.57567
 C1646 C 0.25742 0.28455 0.53856
 H1647 H 0.24336 0.30964 0.40839
 H1648 H 0.25756 0.19118 0.41218
 H1649 H 0.24390 0.19117 0.58581
 H1650 H 0.26096 0.30872 0.59030
 H1651 H 0.24340 0.31135 0.47296
 H1652 H 0.26199 0.31065 0.52567
 C1653 C 0.11734 0.10729 0.61480
 C1654 C 0.12228 0.07648 0.59276
 C1655 C 0.10293 0.06034 0.57335
 C1656 C 0.07848 0.07424 0.57606
 C1657 C 0.07415 0.10444 0.59907
 N1658 N 0.09341 0.12002 0.61749
 C1659 C 0.13737 0.12623 0.63531
 N1660 N 0.13099 0.14837 0.66339
 C1661 C 0.14829 0.16718 0.68297
 C1662 C 0.17382 0.16437 0.67456
 C1663 C 0.18076 0.14179 0.64566
 C1664 C 0.16271 0.12296 0.62594
 H1665 H 0.10714 0.03663 0.55652
 H1666 H 0.05556 0.11587 0.60226
 H1667 H 0.14204 0.18440 0.70492
 H1668 H 0.20016 0.13920 0.63773
 H1669 H 0.14071 0.06433 0.59071
 H1670 H 0.16875 0.10693 0.60313
 C1671 C 0.36173 0.36705 0.63200
 C1672 C 0.33666 0.36718 0.62094
 C1673 C 0.31881 0.34799 0.64078
 C1674 C 0.32568 0.32814 0.67155
 C1675 C 0.35103 0.32789 0.68130
 N1676 N 0.36814 0.34710 0.66160
 C1677 C 0.38144 0.38738 0.61196
 N1678 N 0.40577 0.37716 0.61628
 C1679 C 0.42482 0.39430 0.59866
 C1680 C 0.41991 0.42374 0.57487
 C1681 C 0.39500 0.43508 0.57042
 C1682 C 0.37582 0.41723 0.58896
 H1683 H 0.29959 0.34845 0.63171
 H1684 H 0.35722 0.31275 0.70467
 H1685 H 0.44375 0.38474 0.60317
 H1686 H 0.39029 0.45800 0.55283
 H1687 H 0.33074 0.38129 0.59691
 H1688 H 0.35694 0.42737 0.58558
 C1689 C 0.36754 0.13731 0.63718
 C1690 C 0.37300 0.16729 0.65999
 C1691 C 0.35372 0.18500 0.67833
 C1692 C 0.32887 0.17339 0.67384
 C1693 C 0.32411 0.14384 0.65021
 N1694 N 0.34327 0.12682 0.63278
 C1695 C 0.38736 0.11717 0.61734
 N1696 N 0.38108 0.09724 0.58775
 C1697 C 0.39829 0.07820 0.56816
 C1698 C 0.42360 0.07864 0.57804
 C1699 C 0.43038 0.09850 0.60879
 C1700 C 0.41241 0.11750 0.62854
 H1701 H 0.35830 0.20804 0.69579
 H1702 H 0.30523 0.13409 0.64570
 H1703 H 0.39219 0.06308 0.54477
 H1704 H 0.44958 0.09908 0.61790
 H1705 H 0.39183 0.17763 0.66338
 H1706 H 0.41822 0.13164 0.65258
 C1707 C 0.13165 0.36406 0.64005
 C1708 C 0.12621 0.33464 0.66358
 C1709 C 0.14555 0.31675 0.68158
 C1710 C 0.17048 0.32757 0.67609
 C1711 C 0.17522 0.35683 0.65206
 N1712 N 0.15598 0.37401 0.63488
 C1713 C 0.11173 0.38380 0.61997
 N1714 N 0.11790 0.40297 0.58983
 C1715 C 0.10058 0.42125 0.56977
 C1716 C 0.07524 0.42073 0.57966
 C1717 C 0.06856 0.40167 0.61095
 C1718 C 0.08666 0.38349 0.63121
 H1719 H 0.14090 0.29404 0.69945
 H1720 H 0.19414 0.36599 0.64681
 H1721 H 0.10663 0.43586 0.54602
 H1722 H 0.04935 0.40113 0.62009
 H1723 H 0.10735 0.32470 0.66766
 H1724 H 0.08090 0.36997 0.65564
 C1725 C 0.38274 0.11284 0.88821
 C1726 C 0.37710 0.08294 0.91115
 C1727 C 0.39629 0.06469 0.92925
 C1728 C 0.42125 0.07564 0.92441
 C1729 C 0.42619 0.10509 0.90064
 N1730 N 0.40712 0.12267 0.88346
 C1731 C 0.36296 0.13354 0.86864
 N1732 N 0.36916 0.15337 0.83886
 C1733 C 0.35191 0.17262 0.81943
 C1734 C 0.32664 0.17244 0.82963
 C1735 C 0.32000 0.15284 0.86067
 C1736 C 0.33800 0.13369 0.88025
 H1737 H 0.39154 0.04173 0.94679
 H1738 H 0.44515 0.11434 0.89582
 H1739 H 0.35792 0.18754 0.79583
 H1740 H 0.30085 0.15247 0.87007
 H1741 H 0.35818 0.07308 0.91482
 H1742 H 0.33225 0.11971 0.90445
 C1743 C 0.11401 0.38744 0.88021
 C1744 C 0.11917 0.41987 0.89984
 C1745 C 0.10018 0.43708 0.91907
 C1746 C 0.07581 0.42264 0.91851
 C1747 C 0.07113 0.39097 0.89752
 N1748 N 0.09011 0.37429 0.87928
 C1749 C 0.13399 0.36729 0.86073
 N1750 N 0.12796 0.34489 0.83267
 C1751 C 0.14554 0.32565 0.81387
 C1752 C 0.17094 0.32842 0.82310
 C1753 C 0.17741 0.35095 0.85224
 C1754 C 0.15912 0.37009 0.87114
 H1755 H 0.10458 0.46199 0.93413
 H1756 H 0.05255 0.37915 0.89602
 H1757 H 0.13968 0.30838 0.79176
 H1758 H 0.19664 0.35346 0.86091
 H1759 H 0.13757 0.43232 0.90019
 H1760 H 0.16477 0.38619 0.89412
 C1761 C 0.11209 0.11037 0.87748
 C1762 C 0.08684 0.11944 0.87216
 C1763 C 0.06844 0.10189 0.89242
 C1764 C 0.07486 0.07531 0.91861
 C1765 C 0.10054 0.06764 0.92348
 N1766 N 0.11810 0.08507 0.90316
 C1767 C 0.13243 0.12836 0.85673
 N1768 N 0.15611 0.12826 0.87011
 C1769 C 0.17554 0.14523 0.85314
 C1770 C 0.17161 0.16412 0.82082
 C1771 C 0.14752 0.16361 0.80605
 C1772 C 0.12801 0.14561 0.82366
 H1773 H 0.04914 0.10948 0.88744
 H1774 H 0.10681 0.04766 0.94322
 H1775 H 0.19385 0.14477 0.86540
 H1776 H 0.14370 0.17720 0.78082
 H1777 H 0.08111 0.14036 0.85308
 H1778 H 0.10982 0.14520 0.81116
 C1779 C 0.38118 0.38785 0.88731
 C1780 C 0.37585 0.41808 0.90991
 C1781 C 0.39523 0.43583 0.92801
 C1782 C 0.42004 0.42400 0.92352
 C1783 C 0.42467 0.39421 0.90011
 N1784 N 0.40542 0.37716 0.88292
 C1785 C 0.36129 0.36761 0.86768
 N1786 N 0.36762 0.34694 0.83856
 C1787 C 0.35043 0.32765 0.81920
 C1788 C 0.32505 0.32854 0.82882
 C1789 C 0.31819 0.34921 0.85905
 C1790 C 0.33616 0.36851 0.87858
 H1791 H 0.39074 0.45908 0.94529
 H1792 H 0.44351 0.38427 0.89560
 H1793 H 0.35662 0.31193 0.79621
 H1794 H 0.29893 0.35022 0.86793
 H1795 H 0.35706 0.42857 0.91332
 H1796 H 0.33026 0.38330 0.90223
 C1797 C 0.49599 0.00180 0.76871
 C1798 C 0.48990 0.03383 0.78840
 C1799 C 0.49024 0.03246 0.82546
 C1800 C 0.49626 -0.00082 0.84318
 C1801 C 0.50134 -0.03262 0.82260
 N1802 N 0.50117 -0.03050 0.78638
 C1803 C 0.49689 0.00224 0.72930
 N1804 N 0.49422 -0.03038 0.71112
 C1805 C 0.49499 -0.03198 0.67490
 C1806 C 0.49868 0.00066 0.65482
 C1807 C 0.50183 0.03445 0.67311
 C1808 C 0.50110 0.03534 0.71017
 H1809 H 0.48569 0.05751 0.84022
 H1810 H 0.50590 -0.05893 0.83518
 H1811 H 0.49256 -0.05867 0.66192
 H1812 H 0.50507 0.06028 0.65885
 H1813 H 0.48468 0.05970 0.77559
 H1814 H 0.50430 0.06166 0.72342
 C1815 C 0.75230 0.25171 0.47981
 C1816 C 0.74761 0.28450 0.46044
 C1817 C 0.74733 0.28342 0.42338
 C1818 C 0.75140 0.24972 0.40529
 C1819 C 0.75549 0.21735 0.42559
 N1820 N 0.75582 0.21914 0.46183
 C1821 C 0.75287 0.25157 0.51926
 N1822 N 0.74814 0.21922 0.53710
 C1823 C 0.74779 0.21735 0.57334
 C1824 C 0.75222 0.24948 0.59376
 C1825 C 0.75773 0.28286 0.57587
 C1826 C 0.75825 0.28397 0.53880
 H1827 H 0.74366 0.30902 0.40895
 H1828 H 0.75857 0.19072 0.41276
 H1829 H 0.74364 0.19096 0.58606
 H1830 H 0.76180 0.30817 0.59049
 H1831 H 0.74371 0.31072 0.47351
 H1832 H 0.76312 0.30994 0.52587
 C1833 C 0.61766 0.11026 0.61151
 C1834 C 0.62269 0.07990 0.58900
 C1835 C 0.60336 0.06376 0.56964
 C1836 C 0.57883 0.07725 0.57284
 C1837 C 0.57445 0.10731 0.59598
 N1838 N 0.59371 0.12283 0.61445
 C1839 C 0.63759 0.12856 0.63260
 N1840 N 0.63112 0.14948 0.66148
 C1841 C 0.64838 0.16741 0.68185
 C1842 C 0.67392 0.16486 0.67347
 C1843 C 0.68094 0.14354 0.64376
 C1844 C 0.66294 0.12565 0.62322
 H1845 H 0.60762 0.04015 0.55269
 H1846 H 0.55581 0.11843 0.59952
 H1847 H 0.64208 0.18374 0.70439
 H1848 H 0.70035 0.14131 0.63580
 H1849 H 0.64115 0.06791 0.58673
 H1850 H 0.66902 0.11061 0.59981
 C1851 C -0.13851 0.36462 0.62934
 C1852 C -0.16362 0.36465 0.61839
 C1853 C -0.18155 0.34638 0.63893
 C1854 C -0.17471 0.32749 0.67025
 C1855 C -0.14933 0.32723 0.67986
 N1856 N -0.13216 0.34560 0.65952
 C1857 C -0.11874 0.38435 0.60881
 N1858 N -0.09437 0.37468 0.61390
 C1859 C -0.07524 0.39178 0.59636
 C1860 C -0.08010 0.42070 0.57197
 C1861 C -0.10507 0.43121 0.56647
 C1862 C -0.12433 0.41338 0.58486
 H1863 H -0.20078 0.34674 0.62994
 H1864 H -0.14315 0.31276 0.70361
 H1865 H -0.05628 0.38283 0.60166
 H1866 H -0.10979 0.45365 0.54834
 H1867 H -0.16955 0.37802 0.59399
 H1868 H -0.14324 0.42308 0.58075
 C1869 C 0.88728 0.12232 0.61307
 C1870 C 0.91266 0.12569 0.62204
 C1871 C 0.93058 0.10661 0.60228
 C1872 C 0.92348 0.08366 0.57372
 C1873 C 0.89791 0.08072 0.56572
 N1874 N 0.88072 0.09979 0.58535
 C1875 C 0.86741 0.14158 0.63365
 N1876 N 0.84349 0.12873 0.63157
 C1877 C 0.82435 0.14457 0.65005
 C1878 C 0.82877 0.17522 0.67248
 C1879 C 0.85321 0.18924 0.67461
 C1880 C 0.87245 0.17278 0.65514
 H1881 H 0.95001 0.10937 0.60992
 H1882 H 0.89155 0.06322 0.54405
 H1883 H 0.80576 0.13299 0.64735
 H1884 H 0.85745 0.21330 0.69097
 H1885 H 0.91883 0.14203 0.64457
 H1886 H 0.89088 0.18499 0.65670
 C1887 C 0.63120 0.35894 0.63567
 C1888 C 0.62615 0.32826 0.65785
 C1889 C 0.64547 0.31174 0.67702
 C1890 C 0.67004 0.32515 0.67397
 C1891 C 0.67445 0.35549 0.65109
 N1892 N 0.65520 0.37138 0.63282
 C1893 C 0.61124 0.37777 0.61492
 N1894 N 0.61766 0.39931 0.58639
 C1895 C 0.60038 0.41767 0.56635
 C1896 C 0.57483 0.41492 0.57467
 C1897 C 0.56785 0.39301 0.60406
 C1898 C 0.58588 0.37470 0.62429
 H1899 H 0.64115 0.28798 0.69378
 H1900 H 0.69311 0.36658 0.64768
 H1901 H 0.60665 0.43446 0.54407
 H1902 H 0.54844 0.39057 0.61199
 H1903 H 0.60766 0.31635 0.66006
 H1904 H 0.57981 0.35917 0.64743
 C1905 C 0.88262 0.11935 0.89216
 C1906 C 0.87689 0.09084 0.91657
 C1907 C 0.89610 0.07243 0.93440
 C1908 C 0.92114 0.08188 0.92785
 C1909 C 0.92613 0.11039 0.90310
 N1910 N 0.90704 0.12804 0.88608
 C1911 C 0.86289 0.13925 0.87194
 N1912 N 0.86896 0.15667 0.84077
 C1913 C 0.85166 0.17459 0.82038
 C1914 C 0.82648 0.17532 0.83094
 C1915 C 0.81998 0.15832 0.86338
 C1916 C 0.83805 0.14061 0.88398
 H1917 H 0.89127 0.05033 0.95287
 H1918 H 0.94516 0.11849 0.89702
 H1919 H 0.85752 0.18764 0.79571
 H1920 H 0.80090 0.15894 0.87308
 H1921 H 0.85789 0.08190 0.92139
 H1922 H 0.83245 0.12859 0.90920
 C1923 C 0.61414 0.38209 0.88510
 C1924 C 0.61986 0.41251 0.90718
 C1925 C 0.60096 0.42987 0.92640
 C1926 C 0.57614 0.41764 0.92346
 C1927 C 0.57103 0.38762 0.90053
 N1928 N 0.58990 0.37080 0.88220
 C1929 C 0.63389 0.36254 0.86469
 N1930 N 0.62782 0.34348 0.83446
 C1931 C 0.64531 0.32550 0.81439
 C1932 C 0.67060 0.32637 0.82441
 C1933 C 0.67706 0.34528 0.85580
 C1934 C 0.65888 0.36300 0.87605
 H1935 H 0.60583 0.45339 0.94311
 H1936 H 0.55211 0.37750 0.89717
 H1937 H 0.63948 0.31087 0.79058
 H1938 H 0.69620 0.34590 0.86520
 H1939 H 0.63861 0.42353 0.90923
 H1940 H 0.66448 0.37628 0.90064
 C1941 C 0.61223 0.11356 0.88233
 C1942 C 0.58700 0.12352 0.87826
 C1943 C 0.56869 0.10571 0.89857
 C1944 C 0.57517 0.07792 0.92358
 C1945 C 0.60087 0.06981 0.92766
 N1946 N 0.61832 0.08744 0.90722
 C1947 C 0.63242 0.13111 0.86070
 N1948 N 0.65647 0.12975 0.87265
 C1949 C 0.67579 0.14589 0.85464
 C1950 C 0.67143 0.16519 0.82260
 C1951 C 0.64690 0.16602 0.80933
 C1952 C 0.62749 0.14891 0.82803
 H1953 H 0.54941 0.11384 0.89436
 H1954 H 0.60720 0.04905 0.94659
 H1955 H 0.69440 0.14441 0.86585
 H1956 H 0.64265 0.18000 0.78445
 H1957 H 0.58122 0.14513 0.85993
 H1958 H 0.60896 0.14954 0.81660
 C1959 C 0.88068 0.38446 0.89086
 C1960 C 0.87530 0.41360 0.91472
 C1961 C 0.89470 0.43129 0.93282
 C1962 C 0.91962 0.42053 0.92713
 C1963 C 0.92427 0.39146 0.90289
 N1964 N 0.90500 0.37452 0.88562
 C1965 C 0.86080 0.36496 0.87045
 N1966 N 0.86718 0.34544 0.84063
 C1967 C 0.85000 0.32714 0.82037
 C1968 C 0.82457 0.32792 0.82971
 C1969 C 0.81765 0.34743 0.86061
 C1970 C 0.83560 0.36568 0.88108
 H1971 H 0.89014 0.45386 0.95086
 H1972 H 0.94317 0.38232 0.89746
 H1973 H 0.85625 0.31224 0.79691
 H1974 H 0.79834 0.34826 0.86932
 H1975 H 0.85646 0.42351 0.91897
 H1976 H 0.82961 0.37954 0.90519
 C1977 C -0.00126 0.50312 0.77011
 C1978 C 0.00074 0.53640 0.78955
 C1979 C 0.00070 0.53541 0.82665
 C1980 C -0.00090 0.50121 0.84517
 C1981 C -0.00215 0.46835 0.82450
 N1982 N -0.00235 0.47020 0.78821
 C1983 C -0.00181 0.50289 0.73047
 N1984 N 0.00388 0.47086 0.71264
 C1985 C 0.00400 0.46884 0.67636
 C1986 C -0.00170 0.50047 0.65575
 C1987 C -0.00804 0.53351 0.67360
 C1988 C -0.00834 0.53477 0.71070
 H1989 H 0.00216 0.56174 0.84065
 H1990 H -0.00319 0.44116 0.83699
 H1991 H 0.00888 0.44272 0.66370
 H1992 H -0.01307 0.55841 0.65888
 H1993 H 0.00271 0.56317 0.77659
 H1994 H -0.01402 0.56044 0.72340
 C1995 C 0.25153 0.75423 0.47903
 C1996 C 0.24676 0.78700 0.45965
 C1997 C 0.24622 0.78582 0.42259
 C1998 C 0.25010 0.75206 0.40453
 C1999 C 0.25420 0.71971 0.42484
 N2000 N 0.25481 0.72160 0.46106
 C2001 C 0.25250 0.75411 0.51845
 N2002 N 0.24814 0.72167 0.53633
 C2003 C 0.24825 0.71970 0.57255
 C2004 C 0.25282 0.75180 0.59296
 C2005 C 0.25795 0.78529 0.57501
 C2006 C 0.25797 0.78652 0.53793
 H2007 H 0.24257 0.81141 0.40813
 H2008 H 0.25715 0.69303 0.41204
 H2009 H 0.24436 0.69322 0.58529
 H2010 H 0.26204 0.81062 0.58960
 H2011 H 0.24305 0.81328 0.47272
 H2012 H 0.26254 0.81258 0.52494
 C2013 C 0.11710 0.60789 0.61550
 C2014 C 0.12211 0.57611 0.59480
 C2015 C 0.10282 0.55903 0.57602
 C2016 C 0.07836 0.57303 0.57804
 C2017 C 0.07394 0.60418 0.59983
 N2018 N 0.09315 0.62063 0.61764
 C2019 C 0.13707 0.62785 0.63514
 N2020 N 0.13071 0.65067 0.66273
 C2021 C 0.14801 0.67024 0.68162
 C2022 C 0.17350 0.66750 0.67299
 C2023 C 0.18041 0.64436 0.64448
 C2024 C 0.16236 0.62477 0.62545
 H2025 H 0.10707 0.53461 0.56015
 H2026 H 0.05534 0.61574 0.60241
 H2027 H 0.14179 0.68786 0.70330
 H2028 H 0.19978 0.64179 0.63640
 H2029 H 0.14058 0.56399 0.59331
 H2030 H 0.16833 0.60821 0.60294
 C2031 C 0.38633 0.88534 0.61790
 C2032 C 0.41119 0.88621 0.62983
 C2033 C 0.42914 0.90515 0.61002
 C2034 C 0.42253 0.92377 0.57846
 C2035 C 0.39735 0.92330 0.56795
 N2036 N 0.38014 0.90427 0.58762
 C2037 C 0.36667 0.86482 0.63767
 N2038 N 0.34230 0.87460 0.63295
 C2039 C 0.32329 0.85711 0.65034
 C2040 C 0.32834 0.82783 0.67423
 C2041 C 0.35330 0.81695 0.67903
 C2042 C 0.37242 0.83512 0.66074
 H2043 H 0.44822 0.90540 0.61966
 H2044 H 0.39140 0.93750 0.54394
 H2045 H 0.30431 0.86627 0.64556
 H2046 H 0.35810 0.79411 0.69666
 H2047 H 0.41685 0.87296 0.65444
 H2048 H 0.39137 0.82535 0.66433
 C2049 C 0.36722 0.63742 0.63671
 C2050 C 0.37275 0.66725 0.65969
 C2051 C 0.35351 0.68501 0.67810
 C2052 C 0.32862 0.67362 0.67354
 C2053 C 0.32379 0.64422 0.64976
 N2054 N 0.34291 0.62713 0.63226
 C2055 C 0.38702 0.61724 0.61679
 N2056 N 0.38075 0.59746 0.58709
 C2057 C 0.39795 0.57843 0.56744
 C2058 C 0.42327 0.57872 0.57736
 C2059 C 0.43002 0.59840 0.60823
 C2060 C 0.41206 0.61740 0.62803
 H2061 H 0.35816 0.70796 0.69564
 H2062 H 0.30488 0.63465 0.64518
 H2063 H 0.39185 0.56341 0.54399
 H2064 H 0.44921 0.59887 0.61741
 H2065 H 0.39161 0.67744 0.66314
 H2066 H 0.41788 0.63138 0.65214
 C2067 C 0.11660 0.89047 0.61421
 C2068 C 0.12153 0.92177 0.59278
 C2069 C 0.10219 0.93837 0.57375
 C2070 C 0.07773 0.92445 0.57624
 C2071 C 0.07337 0.89378 0.59872
 N2072 N 0.09266 0.87774 0.61678
 C2073 C 0.13669 0.87112 0.63424
 N2074 N 0.13045 0.84889 0.66237
 C2075 C 0.14787 0.82995 0.68166
 C2076 C 0.17335 0.83276 0.67292
 C2077 C 0.18013 0.85533 0.64390
 C2078 C 0.16196 0.87425 0.62445
 H2079 H 0.10640 0.96245 0.55736
 H2080 H 0.05477 0.88233 0.60169
 H2081 H 0.14176 0.81273 0.70373
 H2082 H 0.19948 0.85789 0.63572
 H2083 H 0.13997 0.93394 0.59093
 H2084 H 0.16785 0.89033 0.60154
 C2085 C 0.38239 0.61384 0.88706
 C2086 C 0.37712 0.58324 0.90924
 C2087 C 0.39649 0.56539 0.92720
 C2088 C 0.42129 0.57744 0.92299
 C2089 C 0.42591 0.60754 0.89990
 N2090 N 0.40662 0.62474 0.88282
 C2091 C 0.36235 0.63405 0.86766
 N2092 N 0.36839 0.65456 0.83828
 C2093 C 0.35095 0.67345 0.81898
 C2094 C 0.32562 0.67222 0.82889
 C2095 C 0.31908 0.65181 0.85943
 C2096 C 0.33729 0.63299 0.87894
 H2097 H 0.39199 0.54186 0.94415
 H2098 H 0.44475 0.61761 0.89562
 H2099 H 0.35689 0.68904 0.79574
 H2100 H 0.29987 0.65062 0.86854
 H2101 H 0.35837 0.57252 0.91241
 H2102 H 0.33165 0.61836 0.90284
 C2103 C 0.11425 0.88912 0.88083
 C2104 C 0.11997 0.91733 0.90540
 C2105 C 0.10091 0.93474 0.92434
 C2106 C 0.07566 0.92502 0.91870
 C2107 C 0.07070 0.89739 0.89283
 N2108 N 0.08980 0.88039 0.87504
 C2109 C 0.13421 0.86889 0.86108
 N2110 N 0.12856 0.85067 0.83021
 C2111 C 0.14611 0.83183 0.81090
 C2112 C 0.17111 0.83080 0.82240
 C2113 C 0.17716 0.84889 0.85439
 C2114 C 0.15889 0.86753 0.87384
 H2115 H 0.10620 0.95621 0.94320
 H2116 H 0.05173 0.88889 0.88691
 H2117 H 0.14057 0.81798 0.78653
 H2118 H 0.19602 0.84813 0.86487
 H2119 H 0.13894 0.92656 0.90990
 H2120 H 0.16420 0.87999 0.89893
 C2121 C 0.11250 0.61014 0.87553
 C2122 C 0.08761 0.60872 0.86373
 C2123 C 0.06966 0.59086 0.88447
 C2124 C 0.07631 0.57378 0.91679
 C2125 C 0.10153 0.57455 0.92709
 N2126 N 0.11871 0.59262 0.90657
 C2127 C 0.13212 0.63019 0.85517
 N2128 N 0.15658 0.62171 0.86115
 C2129 C 0.17559 0.63949 0.84400
 C2130 C 0.17047 0.66792 0.81923
 C2131 C 0.14538 0.67714 0.81277
 C2132 C 0.12626 0.65861 0.83072
 H2133 H 0.05055 0.59020 0.87496
 H2134 H 0.10751 0.56142 0.95164
 H2135 H 0.19465 0.63154 0.85000
 H2136 H 0.14046 0.69915 0.79426
 H2137 H 0.08189 0.62079 0.83862
 H2138 H 0.10723 0.66738 0.82596
 C2139 C 0.38204 0.88541 0.88840
 C2140 C 0.37683 0.91561 0.91108
 C2141 C 0.39629 0.93327 0.92905
 C2142 C 0.42109 0.92142 0.92436
 C2143 C 0.42560 0.89165 0.90088
 N2144 N 0.40626 0.87467 0.88380
 C2145 C 0.36201 0.86543 0.86878
 N2146 N 0.36816 0.84496 0.83947
 C2147 C 0.35081 0.82615 0.81998
 C2148 C 0.32543 0.82740 0.82963
 C2149 C 0.31876 0.84782 0.86009
 C2150 C 0.33690 0.86658 0.87978
 H2151 H 0.39187 0.95652 0.94637
 H2152 H 0.44443 0.88171 0.89623
 H2153 H 0.35685 0.81059 0.79681
 H2154 H 0.29951 0.84907 0.86899
 H2155 H 0.35808 0.92619 0.91463
 H2156 H 0.33114 0.88120 0.90359
 C2157 C 0.49634 0.50164 0.76855
 C2158 C 0.50096 0.53451 0.78774
 C2159 C 0.50142 0.53350 0.82478
 C2160 C 0.49759 0.49979 0.84302
 C2161 C 0.49357 0.46733 0.82290
 N2162 N 0.49306 0.46906 0.78666
 C2163 C 0.49562 0.50144 0.72915
 N2164 N 0.50065 0.46919 0.71136
 C2165 C 0.50096 0.46736 0.67514
 C2166 C 0.49620 0.49941 0.65470
 C2167 C 0.49033 0.53264 0.67254
 C2168 C 0.48984 0.53372 0.70958
 H2169 H 0.50503 0.55917 0.83908
 H2170 H 0.49067 0.44070 0.83586
 H2171 H 0.50538 0.44108 0.66243
 H2172 H 0.48599 0.55786 0.65788
 H2173 H 0.50467 0.56075 0.77452
 H2174 H 0.48472 0.55956 0.72251
 C2175 C 0.75150 0.75387 0.47907
 C2176 C 0.74670 0.78662 0.45969
 C2177 C 0.74616 0.78545 0.42263
 C2178 C 0.75008 0.75169 0.40457
 C2179 C 0.75422 0.71935 0.42488
 N2180 N 0.75482 0.72124 0.46110
 C2181 C 0.75247 0.75376 0.51850
 N2182 N 0.74810 0.72133 0.53639
 C2183 C 0.74821 0.71937 0.57262
 C2184 C 0.75278 0.75149 0.59301
 C2185 C 0.75790 0.78497 0.57505
 C2186 C 0.75793 0.78618 0.53797
 H2187 H 0.74247 0.81102 0.40817
 H2188 H 0.75719 0.69268 0.41208
 H2189 H 0.74432 0.69291 0.58537
 H2190 H 0.76199 0.81030 0.58962
 H2191 H 0.74296 0.81289 0.47276
 H2192 H 0.76249 0.81223 0.52497
 C2193 C 0.61716 0.61136 0.61157
 C2194 C 0.62242 0.58069 0.58951
 C2195 C 0.60315 0.56350 0.57080
 C2196 C 0.57845 0.57623 0.57417
 C2197 C 0.57385 0.60656 0.59695
 N2198 N 0.59304 0.62310 0.61478
 C2199 C 0.63707 0.63086 0.63186
 N2200 N 0.63068 0.65203 0.66062
 C2201 C 0.64795 0.67072 0.68039
 C2202 C 0.67344 0.66866 0.67156
 C2203 C 0.68036 0.64729 0.64182
 C2204 C 0.66234 0.62866 0.62186
 H2205 H 0.60762 0.53980 0.55408
 H2206 H 0.55508 0.61717 0.60060
 H2207 H 0.64173 0.68706 0.70297
 H2208 H 0.69971 0.64540 0.63348
 H2209 H 0.64105 0.56933 0.58706
 H2210 H 0.66834 0.61349 0.59850
 C2211 C 0.88636 0.88039 0.61346
 C2212 C 0.91163 0.87813 0.62330
 C2213 C 0.92956 0.89718 0.60356
 C2214 C 0.92259 0.91907 0.57413
 C2215 C 0.89710 0.92117 0.56540
 N2216 N 0.87989 0.90206 0.58501
 C2217 C 0.86657 0.86071 0.63385
 N2218 N 0.84249 0.87280 0.63132
 C2219 C 0.82346 0.85649 0.64970
 C2220 C 0.82818 0.82616 0.67250
 C2221 C 0.85278 0.81291 0.67505
 C2222 C 0.87190 0.82981 0.65566
 H2223 H 0.94891 0.89521 0.61185
 H2224 H 0.89086 0.93788 0.54307
 H2225 H 0.80472 0.86743 0.64665
 H2226 H 0.85727 0.78912 0.69167
 H2227 H 0.91768 0.86261 0.64645
 H2228 H 0.89049 0.81815 0.65753
 C2229 C 0.88717 0.62279 0.61236
 C2230 C 0.91252 0.62594 0.62160
 C2231 C 0.93049 0.60696 0.60185
 C2232 C 0.92350 0.58432 0.57302
 C2233 C 0.89795 0.58160 0.56474
 N2234 N 0.88071 0.60057 0.58436
 C2235 C 0.86724 0.64195 0.63296
 N2236 N 0.84327 0.62932 0.63054
 C2237 C 0.82411 0.64508 0.64907
 C2238 C 0.82856 0.67538 0.67193
 C2239 C 0.85304 0.68915 0.67441
 C2240 C 0.87230 0.67282 0.65488
 H2241 H 0.94989 0.60950 0.60975
 H2242 H 0.89166 0.56431 0.54287
 H2243 H 0.80548 0.63372 0.64608
 H2244 H 0.85732 0.71294 0.69109
 H2245 H 0.91862 0.64199 0.64435
 H2246 H 0.89076 0.68489 0.65673
 C2247 C 0.61652 0.88525 0.61045
 C2248 C 0.62167 0.91556 0.58791
 C2249 C 0.60236 0.93227 0.56900
 C2250 C 0.57770 0.91941 0.57267
 C2251 C 0.57319 0.88942 0.59590
 N2252 N 0.59245 0.87332 0.61395
 C2253 C 0.63653 0.86653 0.63105
 N2254 N 0.63035 0.84653 0.66068
 C2255 C 0.64780 0.82874 0.68086
 C2256 C 0.67321 0.83061 0.67155
 C2257 C 0.67991 0.85080 0.64096
 C2258 C 0.66171 0.86846 0.62057
 H2259 H 0.60677 0.95581 0.55200
 H2260 H 0.55444 0.87882 0.59979
 H2261 H 0.64178 0.81324 0.70412
 H2262 H 0.69919 0.85237 0.63226
 H2263 H 0.64025 0.92709 0.58530
 H2264 H 0.66749 0.88269 0.59652
 C2265 C 0.88234 0.61909 0.89115
 C2266 C 0.87686 0.59069 0.91575
 C2267 C 0.89622 0.57278 0.93361
 C2268 C 0.92121 0.58253 0.92692
 C2269 C 0.92598 0.61087 0.90193
 N2270 N 0.90671 0.62810 0.88488
 C2271 C 0.86238 0.63848 0.87093
 N2272 N 0.86832 0.65617 0.83989
 C2273 C 0.85088 0.67379 0.81953
 C2274 C 0.82567 0.67398 0.83001
 C2275 C 0.81923 0.65652 0.86221
 C2276 C 0.83745 0.63909 0.88281
 H2277 H 0.89152 0.55077 0.95225
 H2278 H 0.94495 0.61916 0.89575
 H2279 H 0.85671 0.68720 0.79503
 H2280 H 0.80012 0.65671 0.87180
 H2281 H 0.85795 0.58144 0.92073
 H2282 H 0.83190 0.62682 0.90792
 C2283 C 0.61453 0.88452 0.88538
 C2284 C 0.62032 0.91231 0.91037
 C2285 C 0.60130 0.92950 0.92958
 C2286 C 0.57603 0.92001 0.92383
 C2287 C 0.57102 0.89228 0.89805
 N2288 N 0.59007 0.87561 0.87986
 C2289 C 0.63440 0.86523 0.86461
 N2290 N 0.62851 0.84773 0.83344
 C2291 C 0.64599 0.82999 0.81308
 C2292 C 0.67118 0.82947 0.82370
 C2293 C 0.67750 0.84685 0.85596
 C2294 C 0.65930 0.86430 0.87651
 H2295 H 0.60664 0.95083 0.94856
 H2296 H 0.55204 0.88382 0.89216
 H2297 H 0.64024 0.81658 0.78858
 H2298 H 0.69652 0.84635 0.86583
 H2299 H 0.63927 0.92158 0.91482
 H2300 H 0.66486 0.87619 0.90174
 C2301 C 0.61258 0.61440 0.87996
 C2302 C 0.58736 0.61549 0.86971
 C2303 C 0.56946 0.59765 0.89050
 C2304 C 0.57643 0.57804 0.92134
 C2305 C 0.60190 0.57675 0.93031
 N2306 N 0.61908 0.59479 0.90973
 C2307 C 0.63225 0.63363 0.85895
 N2308 N 0.65652 0.62276 0.86262
 C2309 C 0.67551 0.63938 0.84438
 C2310 C 0.67056 0.66894 0.82076
 C2311 C 0.64569 0.68063 0.81674
 C2312 C 0.62662 0.66336 0.83586
 H2313 H 0.55014 0.59872 0.88193
 H2314 H 0.60813 0.56165 0.95367
 H2315 H 0.69442 0.62960 0.84855
 H2316 H 0.64095 0.70370 0.79936
 H2317 H 0.58131 0.62927 0.84557
 H2318 H 0.60784 0.67405 0.83299
 C2319 C 0.88183 0.88216 0.89126
 C2320 C 0.87644 0.91084 0.91559
 C2321 C 0.89587 0.92874 0.93337
 C2322 C 0.92083 0.91867 0.92688
 C2323 C 0.92548 0.89003 0.90221
 N2324 N 0.90617 0.87286 0.88524
 C2325 C 0.86188 0.86264 0.87106
 N2326 N 0.86803 0.84395 0.84067
 C2327 C 0.85071 0.82596 0.82042
 C2328 C 0.82538 0.82633 0.83032
 C2329 C 0.81872 0.84487 0.86185
 C2330 C 0.83681 0.86273 0.88235
 H2331 H 0.89128 0.95097 0.95179
 H2332 H 0.94441 0.88143 0.89618
 H2333 H 0.85674 0.81177 0.79645
 H2334 H 0.79950 0.84527 0.87099
 H2335 H 0.85756 0.92028 0.92044
 H2336 H 0.83104 0.87587 0.90692
   
