data_POSCAR
  _audit_creation_date              2014-09-24
  _audit_creation_method            'ToBaCCo'
  _symmetry_space_group_name_H-M    'P1'
  _symmetry_Int_Tables_number       1
  _symmetry_cell_setting            triclinic
  loop_
  _symmetry_equiv_pos_as_xyz
 x,y,z
_cell_length_a 87.0834
_cell_length_b 87.0924
_cell_length_c 87.6785
_cell_angle_alpha 89.969500
_cell_angle_beta 89.944700
_cell_angle_gamma 89.916800
loop_
  _atom_site_label
  _atom_site_type_symbol
  _atom_site_fract_x
  _atom_site_fract_y
  _atom_site_fract_z
N1 N 0.36067 0.31753 0.32724
 N2 N 0.36036 0.32828 0.31673
 C3 C 0.37213 0.32603 0.30699
 C4 C 0.38029 0.31315 0.31163
 C5 C 0.37262 0.30810 0.32457
 H6 H 0.37456 0.33325 0.29727
 H7 H 0.37543 0.29828 0.33155
 Cu8 Cu 0.34453 0.34407 0.31685
 Cu9 Cu 0.34557 0.31652 0.34361
 Cu10 Cu 0.31725 0.34464 0.34392
 N11 N 0.32865 0.35980 0.31709
 N12 N 0.31800 0.35993 0.32769
 C13 C 0.30849 0.37188 0.32526
 C14 C 0.31341 0.37973 0.31237
 C15 C 0.32627 0.37167 0.30752
 H16 H 0.29872 0.37457 0.33236
 H17 H 0.33340 0.37425 0.29777
 N18 N 0.31850 0.32815 0.35933
 N19 N 0.32926 0.31748 0.35921
 C20 C 0.32701 0.30795 0.37110
 C21 C 0.31418 0.31281 0.37916
 C22 C 0.30912 0.32567 0.37130
 H23 H 0.33421 0.29818 0.37368
 H24 H 0.29931 0.33274 0.37406
 H25 H 0.32800 0.32729 0.33191
 H26 H 0.34045 0.33969 0.34403
 N27 N 0.36043 0.81790 -0.17258
 N28 N 0.36007 0.82843 -0.18329
 C29 C 0.37185 0.82607 -0.19298
 C30 C 0.38010 0.81330 -0.18811
 C31 C 0.37242 0.80847 -0.17506
 H32 H 0.37414 0.83314 -0.20283
 H33 H 0.37521 0.79881 -0.16785
 Cu34 Cu 0.34414 0.84410 -0.18362
 Cu35 Cu 0.34526 0.81707 -0.15626
 Cu36 Cu 0.31705 0.84519 -0.15630
 N37 N 0.32843 0.86000 -0.18331
 N38 N 0.31787 0.86034 -0.17262
 C39 C 0.30846 0.87235 -0.17509
 C40 C 0.31335 0.88007 -0.18810
 C41 C 0.32612 0.87181 -0.19296
 H42 H 0.29880 0.87514 -0.16787
 H43 H 0.33324 0.87414 -0.20277
 N44 N 0.31817 0.82886 -0.14076
 N45 N 0.32892 0.81817 -0.14074
 C46 C 0.32656 0.80872 -0.12881
 C47 C 0.31368 0.81364 -0.12088
 C48 C 0.30869 0.82647 -0.12885
 H49 H 0.33370 0.79893 -0.12615
 H50 H 0.29886 0.83356 -0.12622
 H51 H 0.32770 0.82765 -0.16815
 H52 H 0.34028 0.84030 -0.15636
 N53 N 0.85948 0.31809 -0.17278
 N54 N 0.85910 0.32872 -0.18340
 C55 C 0.87085 0.32644 -0.19314
 C56 C 0.87908 0.31364 -0.18840
 C57 C 0.87146 0.30868 -0.17541
 H58 H 0.87322 0.33358 -0.20294
 H59 H 0.87434 0.29894 -0.16833
 Cu60 Cu 0.84321 0.34446 -0.18346
 Cu61 Cu 0.84441 0.31715 -0.15637
 Cu62 Cu 0.81630 0.34541 -0.15598
 N63 N 0.82751 0.36039 -0.18299
 N64 N 0.81704 0.36067 -0.17222
 C65 C 0.80758 0.37266 -0.17458
 C66 C 0.81233 0.38044 -0.18760
 C67 C 0.82509 0.37222 -0.19259
 H68 H 0.79796 0.37540 -0.16729
 H69 H 0.83211 0.37458 -0.20247
 N70 N 0.81748 0.32896 -0.14057
 N71 N 0.82815 0.31820 -0.14073
 C72 C 0.82579 0.30864 -0.12887
 C73 C 0.81300 0.31360 -0.12082
 C74 C 0.80807 0.32654 -0.12862
 H75 H 0.83287 0.29878 -0.12634
 H76 H 0.79832 0.33369 -0.12586
 H77 H 0.82681 0.32791 -0.16802
 H78 H 0.83952 0.34037 -0.15620
 N79 N 0.86037 0.81823 0.32826
 N80 N 0.85996 0.82876 0.31754
 C81 C 0.87159 0.82630 0.30772
 C82 C 0.87979 0.81352 0.31252
 C83 C 0.87227 0.80873 0.32564
 H84 H 0.87385 0.83327 0.29778
 H85 H 0.87510 0.79899 0.33274
 Cu86 Cu 0.84429 0.84467 0.31755
 Cu87 Cu 0.84512 0.81722 0.34451
 Cu88 Cu 0.81446 0.84255 0.34167
 N89 N 0.82812 0.86009 0.31748
 N90 N 0.81650 0.85922 0.32699
 C91 C 0.80685 0.87102 0.32439
 C92 C 0.81272 0.87989 0.31255
 C93 C 0.82630 0.87251 0.30851
 H94 H 0.79633 0.87283 0.33067
 H95 H 0.83426 0.87578 0.29964
 N96 N 0.81649 0.82744 0.35830
 N97 N 0.82829 0.81801 0.35954
 C98 C 0.82645 0.80932 0.37211
 C99 C 0.81282 0.81346 0.37919
 C100 C 0.80686 0.82504 0.37009
 H101 H 0.83448 0.80062 0.37582
 H102 H 0.79627 0.83126 0.37185
 H103 H 0.82827 0.82607 0.33098
 H104 H 0.83786 0.83999 0.34409
 N105 N 0.64019 0.68278 0.32911
 N106 N 0.64048 0.67227 0.31838
 C107 C 0.62863 0.67464 0.30882
 C108 C 0.62042 0.68735 0.31379
 C109 C 0.62816 0.69219 0.32674
 H110 H 0.62621 0.66764 0.29895
 H111 H 0.62531 0.70184 0.33396
 Cu112 Cu 0.65634 0.65655 0.31790
 Cu113 Cu 0.65548 0.68354 0.34529
 Cu114 Cu 0.68364 0.65533 0.34494
 N115 N 0.67201 0.64062 0.31800
 N116 N 0.68266 0.64021 0.32859
 C117 C 0.69199 0.62816 0.32600
 C118 C 0.68695 0.62053 0.31305
 C119 C 0.67420 0.62883 0.30832
 H120 H 0.70170 0.62522 0.33308
 H121 H 0.66704 0.62649 0.29855
 N122 N 0.68267 0.67164 0.36051
 N123 N 0.67195 0.68235 0.36065
 C124 C 0.67445 0.69180 0.37253
 C125 C 0.68740 0.68685 0.38031
 C126 C 0.69227 0.67401 0.37230
 H127 H 0.66736 0.70161 0.37526
 H128 H 0.70213 0.66691 0.37480
 H129 H 0.67291 0.67297 0.33323
 H130 H 0.66040 0.66033 0.34513
 N131 N 0.64041 0.18258 -0.17110
 N132 N 0.64016 0.17165 -0.18140
 C133 C 0.62833 0.17415 -0.19097
 C134 C 0.62069 0.18737 -0.18642
 C135 C 0.62875 0.19238 -0.17373
 H136 H 0.62550 0.16685 -0.20051
 H137 H 0.62639 0.20242 -0.16689
 Cu138 Cu 0.65534 0.15522 -0.18144
 Cu139 Cu 0.65578 0.18334 -0.15504
 Cu140 Cu 0.68364 0.15494 -0.15527
 N141 N 0.67149 0.13973 -0.18168
 N142 N 0.68250 0.13970 -0.17146
 C143 C 0.69206 0.12789 -0.17425
 C144 C 0.68683 0.11997 -0.18698
 C145 C 0.67369 0.12793 -0.19135
 H146 H 0.70207 0.12535 -0.16743
 H147 H 0.66624 0.12540 -0.20086
 N148 N 0.68288 0.17134 -0.13983
 N149 N 0.67226 0.18215 -0.13975
 C150 C 0.67483 0.19164 -0.12792
 C151 C 0.68772 0.18660 -0.12010
 C152 C 0.69248 0.17366 -0.12803
 H153 H 0.66781 0.20150 -0.12523
 H154 H 0.70224 0.16646 -0.12545
 H155 H 0.67259 0.17208 -0.16742
 H156 H 0.66045 0.16007 -0.15451
 N157 N 0.14020 0.68349 -0.17055
 N158 N 0.14054 0.67298 -0.18128
 C159 C 0.12871 0.67536 -0.19088
 C160 C 0.12049 0.68809 -0.18592
 C161 C 0.12819 0.69291 -0.17295
 H162 H 0.12632 0.66836 -0.20076
 H163 H 0.12533 0.70254 -0.16573
 Cu164 Cu 0.15648 0.65726 -0.18166
 Cu165 Cu 0.15540 0.68434 -0.15432
 Cu166 Cu 0.18346 0.65612 -0.15420
 N167 N 0.17211 0.64124 -0.18116
 N168 N 0.18258 0.64088 -0.17039
 C169 C 0.19192 0.62879 -0.17272
 C170 C 0.18710 0.62107 -0.18568
 C171 C 0.17445 0.62935 -0.19071
 H172 H 0.20150 0.62589 -0.16545
 H173 H 0.16747 0.62697 -0.20060
 N174 N 0.18242 0.67256 -0.13880
 N175 N 0.17174 0.68330 -0.13885
 C176 C 0.17418 0.69287 -0.12706
 C177 C 0.18706 0.68797 -0.11914
 C178 C 0.19195 0.67502 -0.12696
 H179 H 0.16712 0.70274 -0.12450
 H180 H 0.20176 0.66792 -0.12431
 H181 H 0.17296 0.67365 -0.16618
 H182 H 0.16025 0.66107 -0.15439
 N183 N 0.13979 0.18293 0.32874
 N184 N 0.13992 0.17187 0.31856
 C185 C 0.12814 0.17400 0.30883
 C186 C 0.12016 0.18711 0.31314
 C187 C 0.12796 0.19244 0.32585
 H188 H 0.12561 0.16655 0.29932
 H189 H 0.12533 0.20252 0.33254
 Cu190 Cu 0.15552 0.15583 0.31894
 Cu191 Cu 0.15500 0.18431 0.34492
 Cu192 Cu 0.18350 0.15652 0.34540
 N193 N 0.17190 0.14058 0.31917
 N194 N 0.18279 0.14094 0.32951
 C195 C 0.19259 0.12924 0.32706
 C196 C 0.18762 0.12102 0.31445
 C197 C 0.17442 0.12862 0.30976
 H198 H 0.20259 0.12695 0.33397
 H199 H 0.16716 0.12568 0.30023
 N200 N 0.18227 0.17319 0.36053
 N201 N 0.17140 0.18376 0.36037
 C202 C 0.17367 0.19348 0.37209
 C203 C 0.18662 0.18885 0.38007
 C204 C 0.19173 0.17592 0.37236
 H205 H 0.16641 0.20322 0.37459
 H206 H 0.20163 0.16898 0.37510
 H207 H 0.17223 0.17327 0.33295
 H208 H 0.16021 0.16117 0.34587
 N209 N 0.64034 0.31741 0.67103
 N210 N 0.63995 0.32831 0.68138
 C211 C 0.62804 0.32575 0.69084
 C212 C 0.62050 0.31252 0.68618
 C213 C 0.62870 0.30758 0.67354
 H214 H 0.62511 0.33299 0.70041
 H215 H 0.62644 0.29759 0.66662
 Cu216 Cu 0.65510 0.34473 0.68156
 Cu217 Cu 0.65585 0.31675 0.65508
 Cu218 Cu 0.68359 0.34519 0.65553
 N219 N 0.67116 0.36027 0.68193
 N220 N 0.68223 0.36035 0.67175
 C221 C 0.69173 0.37216 0.67463
 C222 C 0.68638 0.37999 0.68734
 C223 C 0.67327 0.37204 0.69166
 H224 H 0.70179 0.37480 0.66792
 H225 H 0.66580 0.37460 0.70117
 N226 N 0.68302 0.32884 0.64004
 N227 N 0.67246 0.31801 0.63988
 C228 C 0.67516 0.30858 0.62802
 C229 C 0.68806 0.31368 0.62028
 C230 C 0.69271 0.32658 0.62828
 H231 H 0.66821 0.29871 0.62527
 H232 H 0.70245 0.33383 0.62576
 H233 H 0.67259 0.32800 0.66756
 H234 H 0.66047 0.34003 0.65464
 N235 N 0.64011 0.81750 1.17150
 N236 N 0.63983 0.82840 1.18184
 C237 C 0.62796 0.82593 1.19138
 C238 C 0.62032 0.81275 1.18679
 C239 C 0.62842 0.80774 1.17409
 H240 H 0.62514 0.83320 1.20095
 H241 H 0.62609 0.79771 1.16724
 Cu242 Cu 0.65507 0.84473 1.18203
 Cu243 Cu 0.65566 0.81671 1.15555
 Cu244 Cu 0.68366 0.84491 1.15611
 N245 N 0.67124 0.86013 1.18241
 N246 N 0.68238 0.86012 1.17230
 C247 C 0.69195 0.87186 1.17524
 C248 C 0.68658 0.87971 1.18794
 C249 C 0.67338 0.87188 1.19215
 H250 H 0.70210 0.87440 1.16861
 H251 H 0.66586 0.87451 1.20160
 N252 N 0.68301 0.82856 1.14061
 N253 N 0.67233 0.81784 1.14038
 C254 C 0.67497 0.80843 1.12847
 C255 C 0.68796 0.81344 1.12078
 C256 C 0.69271 0.82625 1.12887
 H257 H 0.66792 0.79866 1.12564
 H258 H 0.70251 0.83342 1.12640
 H259 H 0.67242 0.82779 1.16810
 H260 H 0.66048 0.83993 1.15513
 N261 N 0.14029 0.31766 1.17140
 N262 N 0.14044 0.32814 1.18217
 C263 C 0.12856 0.32569 1.19169
 C264 C 0.12046 0.31296 1.18665
 C265 C 0.12831 0.30819 1.17371
 H266 H 0.12603 0.33267 1.20155
 H267 H 0.12558 0.29855 1.16646
 Cu268 Cu 0.15622 0.34390 1.18273
 Cu269 Cu 0.15567 0.31703 1.15526
 Cu270 Cu 0.18371 0.34528 1.15584
 N271 N 0.17183 0.35985 1.18279
 N272 N 0.18256 0.36030 1.17225
 C273 C 0.19185 0.37232 1.17494
 C274 C 0.18671 0.37989 1.18790
 C275 C 0.17395 0.37159 1.19254
 H276 H 0.20161 0.37527 1.16793
 H277 H 0.16671 0.37390 1.20228
 N278 N 0.18289 0.32908 1.14018
 N279 N 0.17222 0.31834 1.13995
 C280 C 0.17481 0.30900 1.12798
 C281 C 0.18775 0.31406 1.12025
 C282 C 0.19254 0.32684 1.12837
 H283 H 0.16777 0.29922 1.12516
 H284 H 0.20234 0.33400 1.12591
 H285 H 0.17300 0.32760 1.16743
 H286 H 0.16052 0.34026 1.15551
 N287 N 0.14129 0.81620 0.67225
 N288 N 0.14009 0.82780 0.68174
 C289 C 0.12754 0.82581 0.69049
 C290 C 0.12050 0.81217 0.68630
 C291 C 0.12960 0.80641 0.67464
 H292 H 0.12386 0.83368 0.69929
 H293 H 0.12804 0.79579 0.66846
 Cu294 Cu 0.15531 0.84410 0.68187
 Cu295 Cu 0.15828 0.81428 0.65794
 Cu296 Cu 0.18300 0.84540 0.65517
 N297 N 0.17094 0.86000 0.68209
 N298 N 0.18153 0.86060 0.67143
 C299 C 0.19081 0.87262 0.67414
 C300 C 0.18583 0.88001 0.68726
 C301 C 0.17313 0.87163 0.69195
 H302 H 0.20057 0.87560 0.66711
 H303 H 0.16605 0.87376 0.70185
 N304 N 0.18265 0.82852 0.64020
 N305 N 0.17348 0.81655 0.64145
 C306 C 0.17609 0.80696 0.62969
 C307 C 0.18755 0.81312 0.62059
 C308 C 0.19141 0.82682 0.62764
 H309 H 0.17007 0.79628 0.62793
 H310 H 0.19993 0.83501 0.62391
 H311 H 0.17441 0.82845 0.66863
 H312 H 0.16038 0.83773 0.65539
 N313 N 0.35940 0.68187 0.67179
 N314 N 0.35928 0.67084 0.68201
 C315 C 0.37100 0.67299 0.69178
 C316 C 0.37895 0.68609 0.68748
 C317 C 0.37119 0.69139 0.67470
 H318 H 0.37353 0.66555 0.70131
 H319 H 0.37385 0.70145 0.66798
 Cu320 Cu 0.34380 0.65475 0.68167
 Cu321 Cu 0.34428 0.68310 0.65550
 Cu322 Cu 0.31595 0.65523 0.65506
 N323 N 0.32743 0.63955 0.68150
 N324 N 0.31660 0.63981 0.67109
 C325 C 0.30678 0.62818 0.67366
 C326 C 0.31167 0.62012 0.68641
 C327 C 0.32485 0.62773 0.69106
 H328 H 0.29680 0.62584 0.66673
 H329 H 0.33204 0.62492 0.70069
 N330 N 0.31721 0.67176 0.63979
 N331 N 0.32798 0.68239 0.63994
 C332 C 0.32571 0.69200 0.62812
 C333 C 0.31286 0.68723 0.62008
 C334 C 0.30781 0.67434 0.62787
 H335 H 0.33290 0.70177 0.62558
 H336 H 0.29800 0.66731 0.62511
 H337 H 0.32705 0.67208 0.66752
 H338 H 0.33922 0.65995 0.65471
 N339 N 0.35938 0.18184 1.17161
 N340 N 0.35910 0.17107 1.18209
 C341 C 0.37088 0.17327 1.19179
 C342 C 0.37902 0.18614 1.18716
 C343 C 0.37131 0.19125 1.17427
 H344 H 0.37331 0.16603 1.20149
 H345 H 0.37412 0.20108 1.16729
 Cu346 Cu 0.34327 0.15531 1.18201
 Cu347 Cu 0.34425 0.18291 1.15528
 Cu348 Cu 0.31599 0.15483 1.15502
 N349 N 0.32738 0.13962 1.18179
 N350 N 0.31674 0.13954 1.17119
 C351 C 0.30715 0.12770 1.17366
 C352 C 0.31199 0.11985 1.18655
 C353 C 0.32490 0.12779 1.19139
 H354 H 0.29737 0.12508 1.16656
 H355 H 0.33196 0.12523 1.20118
 N356 N 0.31719 0.17128 1.13963
 N357 N 0.32791 0.18197 1.13972
 C358 C 0.32555 0.19152 1.12786
 C359 C 0.31270 0.18665 1.11988
 C360 C 0.30775 0.17376 1.12773
 H361 H 0.33266 0.20133 1.12527
 H362 H 0.29797 0.16667 1.12502
 H363 H 0.32675 0.17215 1.16702
 H364 H 0.33920 0.15977 1.15483
 N365 N 0.85982 0.68173 1.17228
 N366 N 0.85972 0.67106 1.18287
 C367 C 0.87160 0.67342 1.19240
 C368 C 0.87963 0.68627 1.18755
 C369 C 0.87175 0.69122 1.17470
 H370 H 0.87421 0.66628 1.20213
 H371 H 0.87443 0.70099 1.16760
 Cu372 Cu 0.84400 0.65522 1.18311
 Cu373 Cu 0.84450 0.68252 1.15611
 Cu374 Cu 0.81643 0.65424 1.15641
 N375 N 0.82823 0.63942 1.18325
 N376 N 0.81749 0.63912 1.17276
 C377 C 0.80807 0.62719 1.17544
 C378 C 0.81315 0.61952 1.18836
 C379 C 0.82601 0.62766 1.19298
 H380 H 0.79825 0.62439 1.16847
 H381 H 0.83322 0.62522 1.20268
 N382 N 0.81735 0.67058 1.14083
 N383 N 0.82801 0.68134 1.14073
 C384 C 0.82549 0.69077 1.12881
 C385 C 0.81262 0.68576 1.12097
 C386 C 0.80780 0.67290 1.12897
 H387 H 0.83254 0.70058 1.12608
 H388 H 0.79804 0.66573 1.12640
 H389 H 0.82714 0.67175 1.16811
 H390 H 0.83956 0.65931 1.15594
 N391 N 0.85931 0.18114 0.67214
 N392 N 0.85917 0.17044 0.68269
 C393 C 0.87099 0.17278 0.69230
 C394 C 0.87900 0.18568 0.68754
 C395 C 0.87119 0.19065 0.67466
 H396 H 0.87353 0.16563 0.70204
 H397 H 0.87389 0.20045 0.66761
 Cu398 Cu 0.84349 0.15455 0.68284
 Cu399 Cu 0.84406 0.18203 0.65590
 Cu400 Cu 0.81604 0.15379 0.65592
 N401 N 0.82769 0.13879 0.68274
 N402 N 0.81702 0.13858 0.67217
 C403 C 0.80754 0.12667 0.67475
 C404 C 0.81248 0.11894 0.68767
 C405 C 0.82534 0.12701 0.69242
 H406 H 0.79775 0.12394 0.66771
 H407 H 0.83244 0.12456 0.70221
 N408 N 0.81701 0.17019 0.64047
 N409 N 0.82764 0.18095 0.64047
 C410 C 0.82517 0.19045 0.62859
 C411 C 0.81233 0.18546 0.62068
 C412 C 0.80749 0.17255 0.62860
 H413 H 0.83221 0.20029 0.62595
 H414 H 0.79775 0.16538 0.62595
 H415 H 0.82672 0.17118 0.66789
 H416 H 0.83921 0.15880 0.65568
 N417 N 0.31759 0.36054 0.67206
 N418 N 0.32863 0.36055 0.68225
 C419 C 0.32636 0.37231 0.69197
 C420 C 0.31318 0.38013 0.68766
 C421 C 0.30794 0.37227 0.67493
 H422 H 0.33378 0.37493 0.70148
 H423 H 0.29784 0.37479 0.66825
 Cu424 Cu 0.34485 0.34516 0.68199
 Cu425 Cu 0.31650 0.34531 0.65587
 Cu426 Cu 0.34455 0.31709 0.65555
 N427 N 0.36013 0.32884 0.68191
 N428 N 0.35997 0.31791 0.67160
 C429 C 0.37168 0.30817 0.67427
 C430 C 0.37967 0.31322 0.68699
 C431 C 0.37194 0.32640 0.69151
 H432 H 0.37410 0.29812 0.66745
 H433 H 0.37468 0.33370 0.70108
 N434 N 0.32800 0.31820 0.64026
 N435 N 0.31731 0.32894 0.64040
 C436 C 0.30774 0.32665 0.62856
 C437 C 0.31259 0.31383 0.62052
 C438 C 0.32550 0.30880 0.62833
 H439 H 0.29797 0.33385 0.62599
 H440 H 0.33262 0.29903 0.62553
 H441 H 0.32768 0.32820 0.66798
 H442 H 0.33972 0.34032 0.65506
 N443 N 0.31794 0.86032 0.17180
 N444 N 0.32894 0.86036 0.18203
 C445 C 0.32658 0.87206 0.19179
 C446 C 0.31337 0.87983 0.18746
 C447 C 0.30823 0.87199 0.17468
 H448 H 0.33395 0.87468 0.20134
 H449 H 0.29816 0.87451 0.16794
 Cu450 Cu 0.34528 0.84510 0.18176
 Cu451 Cu 0.31701 0.84516 0.15552
 Cu452 Cu 0.34528 0.81715 0.15522
 N453 N 0.36068 0.82890 0.18167
 N454 N 0.36060 0.81802 0.17131
 C455 C 0.37235 0.80833 0.17394
 C456 C 0.38029 0.81336 0.18670
 C457 C 0.37249 0.82648 0.19128
 H458 H 0.37485 0.79836 0.16706
 H459 H 0.37515 0.83372 0.20091
 N460 N 0.32881 0.81819 0.13989
 N461 N 0.31804 0.82884 0.13998
 C462 C 0.30853 0.82646 0.12812
 C463 C 0.31352 0.81366 0.12011
 C464 C 0.32644 0.80875 0.12797
 H465 H 0.29868 0.83355 0.12553
 H466 H 0.33362 0.79901 0.12524
 H467 H 0.32824 0.82810 0.16761
 H468 H 0.34023 0.84035 0.15479
 N469 N 0.81719 0.35974 0.17055
 N470 N 0.82809 0.35994 0.18088
 C471 C 0.82553 0.37170 0.19052
 C472 C 0.81230 0.37934 0.18599
 C473 C 0.80736 0.37136 0.17323
 H474 H 0.83278 0.37445 0.20013
 H475 H 0.79735 0.37375 0.16636
 Cu476 Cu 0.84452 0.34475 0.18082
 Cu477 Cu 0.81648 0.34446 0.15441
 Cu478 Cu 0.84489 0.31663 0.15443
 N479 N 0.86003 0.32863 0.18094
 N480 N 0.86011 0.31770 0.17062
 C481 C 0.87190 0.30811 0.17338
 C482 C 0.87971 0.31325 0.18617
 C483 C 0.87179 0.32633 0.19064
 H484 H 0.87452 0.29813 0.16655
 H485 H 0.87433 0.33363 0.20026
 N486 N 0.82848 0.31747 0.13900
 N487 N 0.81766 0.32808 0.13901
 C488 C 0.80819 0.32560 0.12715
 C489 C 0.81324 0.31278 0.11923
 C490 C 0.82617 0.30796 0.12712
 H491 H 0.79833 0.33265 0.12451
 H492 H 0.83339 0.29824 0.12445
 H493 H 0.82776 0.32750 0.16668
 H494 H 0.83976 0.33976 0.15387
 N495 N 0.81695 0.86019 0.67124
 N496 N 0.82743 0.85983 0.68200
 C497 C 0.82494 0.87154 0.69171
 C498 C 0.81219 0.87973 0.68681
 C499 C 0.80745 0.87212 0.67373
 H500 H 0.83188 0.87386 0.70164
 H501 H 0.79780 0.87498 0.66654
 Cu502 Cu 0.84320 0.84400 0.68230
 Cu503 Cu 0.81630 0.84504 0.65490
 Cu504 Cu 0.84449 0.81683 0.65514
 N505 N 0.85911 0.82831 0.68221
 N506 N 0.85954 0.81770 0.67157
 C507 C 0.87152 0.80830 0.67420
 C508 C 0.87909 0.81325 0.68723
 C509 C 0.87082 0.82602 0.69196
 H510 H 0.87446 0.79858 0.66711
 H511 H 0.87312 0.83312 0.70178
 N512 N 0.82825 0.81795 0.63950
 N513 N 0.81757 0.82870 0.63940
 C514 C 0.80818 0.82633 0.62744
 C515 C 0.81314 0.81343 0.61958
 C516 C 0.82593 0.80845 0.62761
 H517 H 0.79842 0.83347 0.62472
 H518 H 0.83302 0.79860 0.62505
 H519 H 0.82684 0.82748 0.66686
 H520 H 0.83951 0.84002 0.65505
 N521 N 0.68283 0.64051 0.67092
 N522 N 0.67224 0.64099 0.68158
 C523 C 0.67447 0.62923 0.69131
 C524 C 0.68717 0.62089 0.68652
 C525 C 0.69215 0.62846 0.67350
 H526 H 0.66737 0.62696 0.70117
 H527 H 0.70182 0.62548 0.66637
 Cu528 Cu 0.65661 0.65700 0.68172
 Cu529 Cu 0.68386 0.65560 0.65455
 Cu530 Cu 0.65586 0.68395 0.65426
 N531 N 0.64077 0.67277 0.68121
 N532 N 0.64056 0.68327 0.67045
 C533 C 0.62856 0.69273 0.67277
 C534 C 0.62075 0.68795 0.68572
 C535 C 0.62889 0.67521 0.69074
 H536 H 0.62577 0.70236 0.66551
 H537 H 0.62640 0.66822 0.70061
 N538 N 0.67232 0.68269 0.63887
 N539 N 0.68296 0.67189 0.63896
 C540 C 0.69254 0.67419 0.62712
 C541 C 0.68775 0.68708 0.61913
 C542 C 0.67486 0.69213 0.62697
 H543 H 0.70232 0.66700 0.62456
 H544 H 0.66785 0.70199 0.62427
 H545 H 0.67328 0.67328 0.66628
 H546 H 0.66066 0.66071 0.65446
 N547 N 0.68288 0.13965 0.16972
 N548 N 0.67313 0.14062 0.18111
 C549 C 0.67566 0.12889 0.19080
 C550 C 0.68772 0.12009 0.18523
 C551 C 0.69196 0.12732 0.17178
 H552 H 0.66929 0.12704 0.20122
 H553 H 0.70110 0.12402 0.16411
 Cu554 Cu 0.65806 0.15708 0.18229
 Cu555 Cu 0.68379 0.15490 0.15354
 Cu556 Cu 0.65932 0.18611 0.15695
 N557 N 0.64202 0.17264 0.18134
 N558 N 0.64258 0.18392 0.17142
 C559 C 0.63044 0.19323 0.17352
 C560 C 0.62167 0.18749 0.18543
 C561 C 0.62941 0.17436 0.19008
 H562 H 0.62834 0.20352 0.16696
 H563 H 0.62619 0.16664 0.19919
 N564 N 0.67401 0.18378 0.14007
 N565 N 0.68306 0.17172 0.13855
 C566 C 0.69164 0.17348 0.12588
 C567 C 0.68781 0.18732 0.11904
 C568 C 0.67653 0.19349 0.12838
 H569 H 0.70010 0.16529 0.12198
 H570 H 0.67065 0.20432 0.12689
 H571 H 0.67617 0.17230 0.16709
 H572 H 0.66120 0.16260 0.15529
 N573 N 0.18319 0.64075 0.17021
 N574 N 0.17266 0.64106 0.18094
 C575 C 0.17505 0.62922 0.19055
 C576 C 0.18779 0.62102 0.18560
 C577 C 0.19261 0.62874 0.17261
 H578 H 0.16805 0.62682 0.20044
 H579 H 0.20226 0.62590 0.16539
 Cu580 Cu 0.15696 0.65702 0.18136
 Cu581 Cu 0.18404 0.65598 0.15397
 Cu582 Cu 0.15584 0.68408 0.15400
 N583 N 0.14100 0.67270 0.18100
 N584 N 0.14065 0.68321 0.17025
 C585 C 0.12864 0.69262 0.17266
 C586 C 0.12096 0.68782 0.18567
 C587 C 0.12918 0.67510 0.19064
 H588 H 0.12577 0.70225 0.16544
 H589 H 0.12681 0.66813 0.20055
 N590 N 0.17221 0.68305 0.13852
 N591 N 0.18296 0.67238 0.13851
 C592 C 0.19250 0.67487 0.12667
 C593 C 0.18755 0.68777 0.11880
 C594 C 0.17462 0.69261 0.12669
 H595 H 0.20237 0.66783 0.12405
 H596 H 0.16750 0.70242 0.12408
 H597 H 0.17341 0.67350 0.16589
 H598 H 0.16081 0.66086 0.15409
 N599 N 0.18280 0.14018 0.67074
 N600 N 0.17222 0.14056 0.68142
 C601 C 0.17450 0.12871 0.69104
 C602 C 0.18723 0.12044 0.68615
 C603 C 0.19215 0.12813 0.67319
 H604 H 0.16745 0.12634 0.70090
 H605 H 0.20182 0.12524 0.66601
 Cu606 Cu 0.15660 0.15660 0.68172
 Cu607 Cu 0.18385 0.15538 0.65452
 Cu608 Cu 0.15583 0.18363 0.65425
 N609 N 0.14068 0.17233 0.68112
 N610 N 0.14046 0.18282 0.67037
 C611 C 0.12842 0.19225 0.67264
 C612 C 0.12058 0.18746 0.68556
 C613 C 0.12874 0.17473 0.69062
 H614 H 0.12565 0.20188 0.66538
 H615 H 0.12624 0.16775 0.70049
 N616 N 0.17236 0.18251 0.63893
 N617 N 0.18302 0.17174 0.63903
 C618 C 0.19265 0.17408 0.62724
 C619 C 0.18787 0.18696 0.61926
 C620 C 0.17494 0.19198 0.62705
 H621 H 0.20245 0.16690 0.62470
 H622 H 0.16790 0.20183 0.62434
 H623 H 0.17320 0.17300 0.66632
 H624 H 0.16061 0.16040 0.65447
 N625 N 0.31705 0.64060 0.32908
 N626 N 0.32769 0.64068 0.31845
 C627 C 0.32524 0.62884 0.30889
 C628 C 0.31233 0.62089 0.31377
 C629 C 0.30747 0.62876 0.32664
 H630 H 0.33232 0.62624 0.29911
 H631 H 0.29770 0.62613 0.33377
 Cu632 Cu 0.34362 0.65633 0.31823
 Cu633 Cu 0.31629 0.65586 0.34527
 Cu634 Cu 0.34465 0.68380 0.34510
 N635 N 0.35947 0.67208 0.31819
 N636 N 0.35979 0.68275 0.32876
 C637 C 0.37173 0.69218 0.32613
 C638 C 0.37940 0.68719 0.31317
 C639 C 0.37124 0.67436 0.30846
 H640 H 0.37454 0.70195 0.33317
 H641 H 0.37363 0.66723 0.29868
 N642 N 0.32829 0.68289 0.36066
 N643 N 0.31749 0.67228 0.36069
 C644 C 0.30803 0.67478 0.37259
 C645 C 0.31306 0.68761 0.38049
 C646 C 0.32596 0.69241 0.37254
 H647 H 0.29817 0.66777 0.37526
 H648 H 0.33315 0.70215 0.37517
 H649 H 0.32714 0.67318 0.33331
 H650 H 0.33951 0.66067 0.34544
 N651 N 0.31683 0.14030 0.82913
 N652 N 0.32723 0.14036 0.81827
 C653 C 0.32462 0.12848 0.80881
 C654 C 0.31186 0.12049 0.81399
 C655 C 0.30726 0.12839 0.82695
 H656 H 0.33149 0.12589 0.79888
 H657 H 0.29766 0.12573 0.83431
 Cu658 Cu 0.34312 0.15603 0.81751
 Cu659 Cu 0.31640 0.15571 0.84523
 Cu660 Cu 0.34487 0.18349 0.84437
 N661 N 0.35921 0.17151 0.81733
 N662 N 0.35980 0.18221 0.82786
 C663 C 0.37188 0.19142 0.82509
 C664 C 0.37935 0.18625 0.81209
 C665 C 0.37093 0.17356 0.80750
 H666 H 0.37494 0.20114 0.83209
 H667 H 0.37312 0.16634 0.79772
 N668 N 0.32874 0.18285 0.86014
 N669 N 0.31793 0.17227 0.86048
 C670 C 0.30865 0.17497 0.87248
 C671 C 0.31383 0.18790 0.88012
 C672 C 0.32663 0.19255 0.87192
 H673 H 0.29881 0.16802 0.87538
 H674 H 0.33387 0.20231 0.87429
 H675 H 0.32701 0.17292 0.83292
 H676 H 0.33965 0.16033 0.84476
 N677 N 0.81724 0.64005 0.82905
 N678 N 0.82774 0.64023 0.81828
 C679 C 0.82526 0.62841 0.80871
 C680 C 0.81249 0.62034 0.81371
 C681 C 0.80773 0.62812 0.82669
 H682 H 0.83223 0.62593 0.79882
 H683 H 0.79805 0.62539 0.83391
 Cu684 Cu 0.84352 0.65600 0.81779
 Cu685 Cu 0.81659 0.65536 0.84525
 Cu686 Cu 0.84484 0.68340 0.84470
 N687 N 0.85945 0.67163 0.81771
 N688 N 0.85986 0.68232 0.82826
 C689 C 0.87186 0.69165 0.82558
 C690 C 0.87946 0.68658 0.81262
 C691 C 0.87120 0.67381 0.80795
 H692 H 0.87476 0.70141 0.83260
 H693 H 0.87354 0.66661 0.79820
 N694 N 0.82863 0.68253 0.86038
 N695 N 0.81789 0.67186 0.86061
 C696 C 0.80856 0.67440 0.87261
 C697 C 0.81362 0.68732 0.88035
 C698 C 0.82640 0.69213 0.87222
 H699 H 0.79878 0.66735 0.87544
 H700 H 0.83357 0.70192 0.87468
 H701 H 0.82715 0.67272 0.83311
 H702 H 0.83979 0.66021 0.84502
 N703 N 0.81752 0.14040 0.32917
 N704 N 0.82815 0.14037 0.31852
 C705 C 0.82561 0.12850 0.30902
 C706 C 0.81268 0.12063 0.31395
 C707 C 0.80789 0.12858 0.32681
 H708 H 0.83266 0.12584 0.29923
 H709 H 0.79812 0.12603 0.33397
 Cu710 Cu 0.84415 0.15595 0.31810
 Cu711 Cu 0.81687 0.15579 0.34526
 Cu712 Cu 0.84529 0.18363 0.34478
 N713 N 0.86003 0.17167 0.31794
 N714 N 0.86038 0.18244 0.32842
 C715 C 0.87234 0.19181 0.32571
 C716 C 0.87998 0.18670 0.31278
 C717 C 0.87178 0.17386 0.30818
 H718 H 0.87518 0.20163 0.33267
 H719 H 0.87415 0.16663 0.29845
 N720 N 0.82901 0.18290 0.36038
 N721 N 0.81819 0.17232 0.36055
 C722 C 0.80881 0.17493 0.37249
 C723 C 0.81394 0.18779 0.38027
 C724 C 0.82680 0.19250 0.37221
 H725 H 0.79896 0.16795 0.37528
 H726 H 0.83405 0.20222 0.37473
 H727 H 0.82772 0.17293 0.33305
 H728 H 0.84012 0.16047 0.34526
 N729 N 0.68222 0.35863 0.32942
 N730 N 0.67161 0.35857 0.31878
 C731 C 0.67404 0.37049 0.30928
 C732 C 0.68690 0.37848 0.31421
 C733 C 0.69174 0.37055 0.32706
 H734 H 0.66698 0.37311 0.29950
 H735 H 0.70146 0.37320 0.33424
 Cu736 Cu 0.65571 0.34284 0.31845
 Cu737 Cu 0.68301 0.34327 0.34554
 Cu738 Cu 0.65481 0.31522 0.34520
 N739 N 0.63994 0.32699 0.31837
 N740 N 0.63969 0.31626 0.32890
 C741 C 0.62781 0.30678 0.32627
 C742 C 0.62011 0.31176 0.31335
 C743 C 0.62819 0.32466 0.30866
 H744 H 0.62506 0.29697 0.33330
 H745 H 0.62575 0.33182 0.29889
 N746 N 0.67112 0.31608 0.36075
 N747 N 0.68186 0.32674 0.36087
 C748 C 0.69129 0.32419 0.37277
 C749 C 0.68628 0.31128 0.38058
 C750 C 0.67343 0.30648 0.37257
 H751 H 0.70110 0.33123 0.37550
 H752 H 0.66627 0.29670 0.37512
 H753 H 0.67233 0.32601 0.33342
 H754 H 0.65984 0.33840 0.34561
 N755 N 0.68168 0.85896 0.82948
 N756 N 0.67116 0.85858 0.81877
 C757 C 0.67338 0.87046 0.80919
 C758 C 0.68602 0.87877 0.81414
 C759 C 0.69095 0.87107 0.82709
 H760 H 0.66636 0.87282 0.79932
 H761 H 0.70057 0.87400 0.83429
 Cu762 Cu 0.65563 0.84253 0.81831
 Cu763 Cu 0.68269 0.84371 0.84569
 Cu764 Cu 0.65473 0.81546 0.84568
 N765 N 0.63976 0.82679 0.81876
 N766 N 0.63948 0.81629 0.82950
 C767 C 0.62751 0.80685 0.82713
 C768 C 0.61978 0.81165 0.81416
 C769 C 0.62792 0.82439 0.80917
 H770 H 0.62470 0.79721 0.83437
 H771 H 0.62550 0.83136 0.79927
 N772 N 0.67111 0.81652 0.86110
 N773 N 0.68178 0.82725 0.86112
 C774 C 0.69130 0.82481 0.87298
 C775 C 0.68641 0.81189 0.88086
 C776 C 0.67356 0.80698 0.87295
 H777 H 0.70107 0.83193 0.87564
 H778 H 0.66647 0.79717 0.87557
 H779 H 0.67222 0.82619 0.83379
 H780 H 0.65950 0.83877 0.84559
 N781 N 0.18145 0.35953 0.82848
 N782 N 0.17042 0.35955 0.81828
 C783 C 0.17264 0.37134 0.80859
 C784 C 0.18577 0.37919 0.81294
 C785 C 0.19103 0.37130 0.82566
 H786 H 0.16520 0.37400 0.79909
 H787 H 0.20109 0.37384 0.83238
 Cu788 Cu 0.15425 0.34415 0.81850
 Cu789 Cu 0.18258 0.34427 0.84468
 Cu790 Cu 0.15456 0.31609 0.84493
 N791 N 0.13899 0.32785 0.81856
 N792 N 0.13918 0.31694 0.82890
 C793 C 0.12752 0.30719 0.82627
 C794 C 0.11950 0.31221 0.81356
 C795 C 0.12717 0.32539 0.80898
 H796 H 0.12514 0.29717 0.83314
 H797 H 0.12440 0.33266 0.79939
 N798 N 0.17106 0.31713 0.86021
 N799 N 0.18175 0.32784 0.86013
 C800 C 0.19131 0.32543 0.87196
 C801 C 0.18642 0.31257 0.87993
 C802 C 0.17352 0.30765 0.87209
 H803 H 0.20110 0.33256 0.87456
 H804 H 0.16640 0.29788 0.87481
 H805 H 0.17150 0.32723 0.83256
 H806 H 0.15941 0.33935 0.84544
 N807 N 0.18127 0.86001 0.32901
 N808 N 0.17140 0.85883 0.31776
 C809 C 0.17362 0.87052 0.30795
 C810 C 0.18559 0.87952 0.31329
 C811 C 0.19013 0.87244 0.32673
 H812 H 0.16710 0.87222 0.29762
 H813 H 0.19928 0.87594 0.33427
 Cu814 Cu 0.15653 0.84221 0.31689
 Cu815 Cu 0.18252 0.84490 0.34531
 Cu816 Cu 0.15832 0.81348 0.34252
 N817 N 0.14077 0.82643 0.31807
 N818 N 0.14152 0.81525 0.32808
 C819 C 0.12951 0.80576 0.32607
 C820 C 0.12065 0.81129 0.31412
 C821 C 0.12820 0.82448 0.30937
 H822 H 0.12757 0.79549 0.33272
 H823 H 0.12488 0.83207 0.30020
 N824 N 0.17315 0.81611 0.35920
 N825 N 0.18213 0.82822 0.36048
 C826 C 0.19086 0.82664 0.37305
 C827 C 0.18719 0.81287 0.38009
 C828 C 0.17587 0.80654 0.37096
 H829 H 0.19932 0.83489 0.37675
 H830 H 0.17009 0.79570 0.37264
 H831 H 0.17495 0.82730 0.33204
 H832 H 0.16000 0.83704 0.34392
 C833 C 0.24386 0.99994 0.25639
 C834 C 0.25490 0.99983 0.24537
 C835 C 0.26101 1.01425 0.23871
 C836 C 0.26146 0.98531 0.23931
 C837 C 0.23696 0.98553 0.26230
 C838 C 0.23800 1.01448 0.26311
 C839 C 0.25122 1.02500 0.23173
 C840 C 0.25723 1.03841 0.22532
 C841 C 0.27308 1.04112 0.22571
 C842 C 0.28289 1.03038 0.23251
 C843 C 0.27690 1.01699 0.23893
 C844 C 0.26123 0.98255 0.22354
 C845 C 0.26761 0.96910 0.21758
 C846 C 0.27439 0.95831 0.22731
 C847 C 0.27478 0.96103 0.24305
 C848 C 0.26840 0.97450 0.24903
 C849 C 0.23711 0.98259 0.27804
 C850 C 0.23057 0.96916 0.28383
 C851 C 0.22371 0.95858 0.27396
 C852 C 0.22336 0.96150 0.25825
 C853 C 0.22989 0.97496 0.25244
 C854 C 0.24797 1.02506 0.27004
 C855 C 0.24219 1.03862 0.27641
 C856 C 0.22640 1.04167 0.27601
 C857 C 0.21641 1.03109 0.26926
 C858 C 0.22217 1.01755 0.26290
 H859 H 0.23897 1.02294 0.23119
 H860 H 0.24955 1.04662 0.22001
 H861 H 0.29516 1.03235 0.23282
 H862 H 0.28463 1.00879 0.24416
 H863 H 0.25603 0.99079 0.21585
 H864 H 0.26728 0.96714 0.20538
 H865 H 0.26895 0.97655 0.26120
 H866 H 0.24240 0.99065 0.28583
 H867 H 0.23085 0.96704 0.29600
 H868 H 0.21799 0.95343 0.25052
 H869 H 0.22938 0.97718 0.24030
 H870 H 0.26019 1.02276 0.27059
 H871 H 0.25001 1.04669 0.28169
 H872 H 0.20417 1.03330 0.26893
 H873 H 0.21429 1.00950 0.25769
 H874 H 0.28008 0.95279 0.25067
 C875 C 0.24322 0.50007 0.75608
 C876 C 0.25434 0.50011 0.74514
 C877 C 0.26038 0.51460 0.73852
 C878 C 0.26112 0.48565 0.73916
 C879 C 0.23653 0.48557 0.76202
 C880 C 0.23716 0.51454 0.76276
 C881 C 0.25054 0.52533 0.73157
 C882 C 0.25650 0.53880 0.72522
 C883 C 0.27233 0.54160 0.72565
 C884 C 0.28218 0.53088 0.73243
 C885 C 0.27625 0.51743 0.73878
 C886 C 0.26098 0.48284 0.72339
 C887 C 0.26747 0.46941 0.71753
 C888 C 0.27425 0.45869 0.72734
 C889 C 0.27458 0.46149 0.74307
 C890 C 0.26810 0.47494 0.74896
 C891 C 0.23668 0.48269 0.77777
 C892 C 0.23037 0.46917 0.78360
 C893 C 0.22376 0.45841 0.77375
 C894 C 0.22340 0.46127 0.75803
 C895 C 0.22969 0.47483 0.75218
 C896 C 0.24700 0.52523 0.76971
 C897 C 0.24106 0.53873 0.77603
 C898 C 0.22523 0.54160 0.77560
 C899 C 0.21537 0.53090 0.76885
 C900 C 0.22129 0.51742 0.76252
 H901 H 0.23831 0.52321 0.73099
 H902 H 0.24879 0.54698 0.71992
 H903 H 0.29445 0.53291 0.73278
 H904 H 0.28402 0.50925 0.74400
 H905 H 0.25575 0.49101 0.71565
 H906 H 0.26723 0.46740 0.70534
 H907 H 0.26860 0.47706 0.76112
 H908 H 0.24180 0.49087 0.78554
 H909 H 0.23065 0.46710 0.79578
 H910 H 0.21822 0.45307 0.75031
 H911 H 0.22919 0.47698 0.74003
 H912 H 0.25924 0.52308 0.77028
 H913 H 0.24878 0.54689 0.78131
 H914 H 0.20311 0.53297 0.76850
 H915 H 0.21352 0.50927 0.75731
 H916 H 0.27990 0.45331 0.75075
 C917 C 0.74446 0.00016 0.24497
 C918 C 0.75551 0.00023 0.25596
 C919 C 0.76213 -0.01423 0.26212
 C920 C 0.76158 0.01474 0.26248
 C921 C 0.73847 0.01460 0.23816
 C922 C 0.73774 -0.01434 0.23911
 C923 C 0.76179 -0.01695 0.27790
 C924 C 0.76806 -0.03041 0.28393
 C925 C 0.77483 -0.04126 0.27425
 C926 C 0.77537 -0.03856 0.25851
 C927 C 0.76911 -0.02507 0.25246
 C928 C 0.75174 0.02555 0.26931
 C929 C 0.75771 0.03905 0.27558
 C930 C 0.77355 0.04179 0.27521
 C931 C 0.78340 0.03099 0.26854
 C932 C 0.77746 0.01752 0.26226
 C933 C 0.74834 0.02519 0.23109
 C934 C 0.74242 0.03861 0.22456
 C935 C 0.72660 0.04149 0.22494
 C936 C 0.71671 0.03090 0.23184
 C937 C 0.72261 0.01750 0.23837
 C938 C 0.73803 -0.01735 0.22338
 C939 C 0.73163 -0.03084 0.21762
 C940 C 0.72477 -0.04144 0.22750
 C941 C 0.72429 -0.03846 0.24319
 C942 C 0.73069 -0.02494 0.24898
 H943 H 0.75656 -0.00868 0.28554
 H944 H 0.76764 -0.03236 0.29613
 H945 H 0.78068 -0.04684 0.25093
 H946 H 0.76975 -0.02305 0.24029
 H947 H 0.73950 0.02348 0.26985
 H948 H 0.74999 0.04730 0.28078
 H949 H 0.78523 0.00928 0.25714
 H950 H 0.76058 0.02301 0.23055
 H951 H 0.75016 0.04669 0.21916
 H952 H 0.70445 0.03298 0.23215
 H953 H 0.71481 0.00943 0.24368
 H954 H 0.74333 -0.00928 0.21558
 H955 H 0.73201 -0.03300 0.20546
 H956 H 0.71892 -0.04654 0.25093
 H957 H 0.73009 -0.02269 0.26111
 H958 H 0.79568 0.03297 0.26823
 C959 C 0.74321 0.50033 0.74540
 C960 C 0.75516 0.50034 0.75528
 C961 C 0.76148 0.48585 0.76140
 C962 C 0.76143 0.51481 0.76151
 C963 C 0.73699 0.51480 0.73911
 C964 C 0.73682 0.48583 0.73938
 C965 C 0.75370 0.47806 0.77309
 C966 C 0.75981 0.46454 0.77919
 C967 C 0.77374 0.45872 0.77365
 C968 C 0.78146 0.46639 0.76188
 C969 C 0.77535 0.47991 0.75577
 C970 C 0.75279 0.52346 0.77195
 C971 C 0.75887 0.53688 0.77825
 C972 C 0.77363 0.54175 0.77416
 C973 C 0.78224 0.53321 0.76365
 C974 C 0.77617 0.51977 0.75737
 C975 C 0.74527 0.52288 0.72798
 C976 C 0.73926 0.53637 0.72169
 C977 C 0.72494 0.54187 0.72651
 C978 C 0.71670 0.53390 0.73772
 C979 C 0.72270 0.52040 0.74400
 C980 C 0.74504 0.47738 0.72845
 C981 C 0.73887 0.46387 0.72244
 C982 C 0.72445 0.45871 0.72729
 C983 C 0.71627 0.46705 0.73828
 C984 C 0.72243 0.48056 0.74431
 H985 H 0.74297 0.48253 0.77752
 H986 H 0.75374 0.45869 0.78829
 H987 H 0.79222 0.46196 0.75750
 H988 H 0.78141 0.48570 0.74665
 H989 H 0.74142 0.51972 0.77531
 H990 H 0.75212 0.54339 0.78638
 H991 H 0.78295 0.51330 0.74925
 H992 H 0.75631 0.51866 0.72409
 H993 H 0.74572 0.54244 0.71302
 H994 H 0.70563 0.53808 0.74156
 H995 H 0.71624 0.51440 0.75270
 H996 H 0.75615 0.48134 0.72451
 H997 H 0.74529 0.45751 0.71393
 H998 H 0.70511 0.46315 0.74213
 H999 H 0.71600 0.48686 0.75283
 H1000 H 0.79366 0.53689 0.76038
 C1001 C 0.24413 0.50057 0.24479
 C1002 C 0.25524 0.50054 0.25572
 C1003 C 0.26187 0.48605 0.26179
 C1004 C 0.26135 0.51501 0.26228
 C1005 C 0.23814 0.51506 0.23809
 C1006 C 0.23734 0.48612 0.23889
 C1007 C 0.26167 0.48330 0.27758
 C1008 C 0.26797 0.46982 0.28352
 C1009 C 0.27466 0.45898 0.27377
 C1010 C 0.27506 0.46171 0.25803
 C1011 C 0.26876 0.47522 0.25206
 C1012 C 0.25156 0.52578 0.26924
 C1013 C 0.25758 0.53924 0.27554
 C1014 C 0.27342 0.54198 0.27505
 C1015 C 0.28322 0.53122 0.26826
 C1016 C 0.27723 0.51778 0.26196
 C1017 C 0.24801 0.52565 0.23101
 C1018 C 0.24211 0.53913 0.22458
 C1019 C 0.22629 0.54207 0.22507
 C1020 C 0.21641 0.53148 0.23198
 C1021 C 0.22229 0.51803 0.23840
 C1022 C 0.23748 0.48323 0.22314
 C1023 C 0.23103 0.46977 0.21735
 C1024 C 0.22428 0.45911 0.22722
 C1025 C 0.22391 0.46199 0.24293
 C1026 C 0.23035 0.47547 0.24875
 H1027 H 0.25652 0.49156 0.28527
 H1028 H 0.26766 0.46785 0.29572
 H1029 H 0.28030 0.45344 0.25040
 H1030 H 0.26931 0.47727 0.23989
 H1031 H 0.23932 0.52371 0.26985
 H1032 H 0.24990 0.54745 0.28085
 H1033 H 0.28496 0.50957 0.25672
 H1034 H 0.26024 0.52343 0.23038
 H1035 H 0.24984 0.54721 0.21918
 H1036 H 0.20416 0.53361 0.23238
 H1037 H 0.21450 0.50995 0.24372
 H1038 H 0.24270 0.49135 0.21535
 H1039 H 0.23132 0.46769 0.20517
 H1040 H 0.21862 0.45385 0.25066
 H1041 H 0.22985 0.47765 0.26090
 H1042 H 0.29549 0.53320 0.26787
 C1043 C 0.74266 0.99932 0.75602
 C1044 C 0.75463 0.99927 0.74615
 C1045 C 0.76101 1.01371 0.74001
 C1046 C 0.76086 0.98478 0.73991
 C1047 C 0.73634 0.98487 0.76226
 C1048 C 0.73637 1.01386 0.76208
 C1049 C 0.75280 1.02208 0.72903
 C1050 C 0.75901 1.03550 0.72284
 C1051 C 0.77347 1.04063 0.72758
 C1052 C 0.78164 1.03238 0.73863
 C1053 C 0.77543 1.01896 0.74484
 C1054 C 0.75269 0.97678 0.72866
 C1055 C 0.75879 0.96336 0.72232
 C1056 C 0.77309 0.95786 0.72719
 C1057 C 0.78119 0.96573 0.73854
 C1058 C 0.77511 0.97915 0.74487
 C1059 C 0.74498 0.97614 0.77263
 C1060 C 0.73893 0.96263 0.77880
 C1061 C 0.72419 0.95776 0.77464
 C1062 C 0.71559 0.96638 0.76421
 C1063 C 0.72163 0.97990 0.75805
 C1064 C 0.74425 1.02176 0.77360
 C1065 C 0.73825 1.03540 0.77955
 C1066 C 0.72433 1.04124 0.77402
 C1067 C 0.71651 1.03346 0.76242
 C1068 C 0.72251 1.01982 0.75646
 H1069 H 0.74168 1.01812 0.72518
 H1070 H 0.75261 1.04179 0.71428
 H1071 H 0.79283 1.03626 0.74238
 H1072 H 0.78185 1.01272 0.75340
 H1073 H 0.74169 0.98102 0.72471
 H1074 H 0.75244 0.95737 0.71353
 H1075 H 0.78148 0.98511 0.75365
 H1076 H 0.75634 0.97987 0.77602
 H1077 H 0.74568 0.95605 0.78687
 H1078 H 0.70419 0.96269 0.76090
 H1079 H 0.71486 0.98641 0.74996
 H1080 H 0.75499 1.01730 0.77801
 H1081 H 0.74441 1.04134 0.78851
 H1082 H 0.70576 1.03790 0.75803
 H1083 H 0.71640 1.01397 0.74743
 H1084 H 0.79225 0.96155 0.74241
 C1085 C 0.74380 0.49916 0.25627
 C1086 C 0.75493 0.49913 0.24533
 C1087 C 0.76170 0.51357 0.23937
 C1088 C 0.76096 0.48464 0.23868
 C1089 C 0.73772 0.48470 0.26290
 C1090 C 0.73713 0.51367 0.26226
 C1091 C 0.76155 0.51641 0.22360
 C1092 C 0.76802 0.52984 0.21774
 C1093 C 0.77480 0.54052 0.22756
 C1094 C 0.77514 0.53770 0.24329
 C1095 C 0.76867 0.52425 0.24917
 C1096 C 0.75113 0.47403 0.23159
 C1097 C 0.75709 0.46060 0.22513
 C1098 C 0.77291 0.45772 0.22558
 C1099 C 0.78275 0.46832 0.23251
 C1100 C 0.77682 0.48172 0.23898
 C1101 C 0.74754 0.47392 0.26980
 C1102 C 0.74156 0.46042 0.27607
 C1103 C 0.72573 0.45764 0.27564
 C1104 C 0.71589 0.46843 0.26896
 C1105 C 0.72184 0.48191 0.26267
 C1106 C 0.73740 0.51654 0.27801
 C1107 C 0.73111 0.53007 0.28388
 C1108 C 0.72438 0.54083 0.27409
 C1109 C 0.72390 0.53798 0.25837
 C1110 C 0.73019 0.52443 0.25247
 H1111 H 0.75633 0.50827 0.21586
 H1112 H 0.76775 0.53188 0.20556
 H1113 H 0.78044 0.54586 0.25097
 H1114 H 0.76917 0.52211 0.26133
 H1115 H 0.73890 0.47622 0.23099
 H1116 H 0.74938 0.45252 0.21971
 H1117 H 0.78459 0.48981 0.24430
 H1118 H 0.75978 0.47601 0.27037
 H1119 H 0.74927 0.45219 0.28131
 H1120 H 0.70362 0.46644 0.26862
 H1121 H 0.71408 0.49014 0.25751
 H1122 H 0.74261 0.50835 0.28574
 H1123 H 0.73150 0.53213 0.29606
 H1124 H 0.71863 0.54619 0.25070
 H1125 H 0.72960 0.52229 0.24032
 H1126 H 0.79502 0.46623 0.23288
 C1127 C 0.24395 -0.00003 0.74489
 C1128 C 0.25511 0.00003 0.75578
 C1129 C 0.26193 -0.01441 0.76172
 C1130 C 0.26109 0.01453 0.76240
 C1131 C 0.23780 0.01442 0.73825
 C1132 C 0.23729 -0.01454 0.73898
 C1133 C 0.26180 -0.01728 0.77748
 C1134 C 0.26825 -0.03075 0.78330
 C1135 C 0.27499 -0.04145 0.77345
 C1136 C 0.27532 -0.03860 0.75772
 C1137 C 0.26888 -0.02510 0.75188
 C1138 C 0.25123 0.02517 0.76944
 C1139 C 0.25714 0.03862 0.77585
 C1140 C 0.27296 0.04149 0.77539
 C1141 C 0.28283 0.03086 0.76850
 C1142 C 0.27695 0.01743 0.76209
 C1143 C 0.24757 0.02514 0.73123
 C1144 C 0.24155 0.03860 0.72489
 C1145 C 0.22571 0.04139 0.72539
 C1146 C 0.21592 0.03066 0.73222
 C1147 C 0.22192 0.01722 0.73857
 C1148 C 0.23744 -0.01742 0.72322
 C1149 C 0.23113 -0.03094 0.71743
 C1150 C 0.22450 -0.04169 0.72731
 C1151 C 0.22418 -0.03884 0.74303
 C1152 C 0.23049 -0.02530 0.74884
 H1153 H 0.25660 -0.00912 0.78525
 H1154 H 0.26798 -0.03281 0.79548
 H1155 H 0.28059 -0.04677 0.75001
 H1156 H 0.26937 -0.02295 0.73972
 H1157 H 0.23900 0.02300 0.77005
 H1158 H 0.24940 0.04674 0.78122
 H1159 H 0.28474 0.00932 0.75680
 H1160 H 0.25982 0.02304 0.73060
 H1161 H 0.24921 0.04678 0.71954
 H1162 H 0.20364 0.03267 0.73262
 H1163 H 0.21420 0.00904 0.74383
 H1164 H 0.24255 -0.00922 0.71543
 H1165 H 0.23139 -0.03300 0.70525
 H1166 H 0.21900 -0.04705 0.75076
 H1167 H 0.23000 -0.02316 0.76100
 H1168 H 0.29509 0.03295 0.76811
 C1169 C 0.25605 0.24541 1.00008
 C1170 C 0.24491 0.25641 1.00009
 C1171 C 0.23882 0.26308 1.01447
 C1172 C 0.23818 0.26242 0.98571
 C1173 C 0.26280 0.23940 0.98570
 C1174 C 0.26212 0.23874 1.01446
 C1175 C 0.22295 0.26282 1.01730
 C1176 C 0.21700 0.26917 1.03069
 C1177 C 0.22683 0.27595 1.04135
 C1178 C 0.24266 0.27642 1.03853
 C1179 C 0.24863 0.27007 1.02512
 C1180 C 0.23124 0.25255 0.97509
 C1181 C 0.22485 0.25846 0.96168
 C1182 C 0.22524 0.27429 0.95884
 C1183 C 0.23200 0.28417 0.96946
 C1184 C 0.23838 0.27828 0.98285
 C1185 C 0.26969 0.24929 0.97502
 C1186 C 0.27610 0.24338 0.96161
 C1187 C 0.27581 0.22755 0.95882
 C1188 C 0.26912 0.21765 0.96950
 C1189 C 0.26270 0.22353 0.98289
 C1190 C 0.27798 0.23910 1.01731
 C1191 C 0.28393 0.23277 1.03070
 C1192 C 0.27411 0.22591 1.04134
 C1193 C 0.25829 0.22537 1.03852
 C1194 C 0.25232 0.23170 1.02511
 H1195 H 0.21519 0.25759 1.00918
 H1196 H 0.20473 0.26880 1.03272
 H1197 H 0.25036 0.28172 1.04666
 H1198 H 0.26087 0.27067 1.02301
 H1199 H 0.23071 0.24031 0.97723
 H1200 H 0.21957 0.25072 0.95357
 H1201 H 0.24360 0.28607 0.99095
 H1202 H 0.27015 0.26153 0.97713
 H1203 H 0.28133 0.25114 0.95346
 H1204 H 0.26887 0.20538 0.96749
 H1205 H 0.25754 0.21572 0.99102
 H1206 H 0.28573 0.24439 1.00919
 H1207 H 0.29619 0.23320 1.03274
 H1208 H 0.25060 0.22000 1.04664
 H1209 H 0.24008 0.23106 1.02299
 H1210 H 0.23232 0.29644 0.96741
 C1211 C 0.25522 0.74484 0.50034
 C1212 C 0.24510 0.75665 0.50030
 C1213 C 0.23882 0.76294 0.51465
 C1214 C 0.23885 0.76290 0.48591
 C1215 C 0.26151 0.73859 0.48597
 C1216 C 0.26147 0.73859 0.51473
 C1217 C 0.22724 0.75498 0.52247
 C1218 C 0.22093 0.76109 0.53583
 C1219 C 0.22617 0.77519 0.54145
 C1220 C 0.23782 0.78310 0.53373
 C1221 C 0.24413 0.77699 0.52037
 C1222 C 0.22814 0.75438 0.47748
 C1223 C 0.22188 0.76044 0.46408
 C1224 C 0.22628 0.77505 0.45903
 C1225 C 0.23703 0.78353 0.46737
 C1226 C 0.24329 0.77749 0.48077
 C1227 C 0.27295 0.74667 0.47807
 C1228 C 0.27919 0.74065 0.46464
 C1229 C 0.27403 0.72652 0.45902
 C1230 C 0.26252 0.71849 0.46683
 C1231 C 0.25628 0.72449 0.48026
 C1232 C 0.27227 0.74705 0.52310
 C1233 C 0.27852 0.74100 0.53651
 C1234 C 0.27400 0.72646 0.54165
 C1235 C 0.26316 0.71803 0.53337
 C1236 C 0.25692 0.72406 0.51995
 H1237 H 0.22304 0.74412 0.51815
 H1238 H 0.21192 0.75488 0.54170
 H1239 H 0.24197 0.79400 0.53799
 H1240 H 0.25316 0.78320 0.51455
 H1241 H 0.22455 0.74314 0.48137
 H1242 H 0.21355 0.75379 0.45773
 H1243 H 0.25162 0.78416 0.48707
 H1244 H 0.27708 0.75756 0.48237
 H1245 H 0.28809 0.74696 0.45870
 H1246 H 0.25842 0.70757 0.46256
 H1247 H 0.24735 0.71820 0.48614
 H1248 H 0.27595 0.75824 0.51914
 H1249 H 0.28693 0.74761 0.54280
 H1250 H 0.25958 0.70677 0.53725
 H1251 H 0.24853 0.71743 0.51370
 H1252 H 0.24052 0.79484 0.46355
 C1253 C 0.24515 0.74664 -0.00034
 C1254 C 0.25707 0.75661 -0.00032
 C1255 C 0.26337 0.76283 -0.01470
 C1256 C 0.26333 0.76278 0.01409
 C1257 C 0.23887 0.74039 0.01403
 C1258 C 0.23882 0.74047 -0.01471
 C1259 C 0.27756 0.75767 -0.02029
 C1260 C 0.28357 0.76378 -0.03378
 C1261 C 0.27544 0.77510 -0.04177
 C1262 C 0.26122 0.78021 -0.03627
 C1263 C 0.25520 0.77409 -0.02279
 C1264 C 0.27771 0.75792 0.01945
 C1265 C 0.28368 0.76401 0.03295
 C1266 C 0.27533 0.77499 0.04117
 C1267 C 0.26092 0.77978 0.03591
 C1268 C 0.25493 0.77370 0.02241
 C1269 C 0.22485 0.74578 0.01984
 C1270 C 0.21876 0.73948 0.03320
 C1271 C 0.22665 0.72776 0.04086
 C1272 C 0.24073 0.72246 0.03518
 C1273 C 0.24682 0.72876 0.02181
 C1274 C 0.22423 0.74502 -0.01977
 C1275 C 0.21808 0.73878 -0.03311
 C1276 C 0.22645 0.72792 -0.04147
 C1277 C 0.24108 0.72345 -0.03653
 C1278 C 0.24725 0.72970 -0.02320
 H1279 H 0.28393 0.74887 -0.01428
 H1280 H 0.29457 0.75972 -0.03795
 H1281 H 0.25483 0.78896 -0.04236
 H1282 H 0.24422 0.77817 -0.01860
 H1283 H 0.28425 0.74939 0.01325
 H1284 H 0.29482 0.76020 0.03694
 H1285 H 0.24382 0.77756 0.01839
 H1286 H 0.21866 0.75486 0.01406
 H1287 H 0.20788 0.74369 0.03752
 H1288 H 0.24692 0.71340 0.04101
 H1289 H 0.25766 0.72451 0.01745
 H1290 H 0.21763 0.75341 -0.01343
 H1291 H 0.20676 0.74234 -0.03685
 H1292 H 0.24765 0.71504 -0.04291
 H1293 H 0.25851 0.72605 -0.01939
 H1294 H 0.25436 0.78827 0.04218
 C1295 C 0.24524 0.24567 0.49974
 C1296 C 0.25640 0.25663 0.49977
 C1297 C 0.26317 0.26261 0.48539
 C1298 C 0.26242 0.26327 0.51419
 C1299 C 0.23917 0.23894 0.51410
 C1300 C 0.23847 0.23976 0.48535
 C1301 C 0.27005 0.25270 0.47473
 C1302 C 0.27642 0.25857 0.46128
 C1303 C 0.27608 0.27440 0.45843
 C1304 C 0.26940 0.28433 0.46910
 C1305 C 0.26304 0.27848 0.48253
 C1306 C 0.27828 0.26293 0.51709
 C1307 C 0.28415 0.26920 0.53053
 C1308 C 0.27427 0.27598 0.54118
 C1309 C 0.25846 0.27653 0.53829
 C1310 C 0.25256 0.27026 0.52483
 C1311 C 0.22330 0.23925 0.51694
 C1312 C 0.21733 0.23276 0.53025
 C1313 C 0.22715 0.22578 0.54082
 C1314 C 0.24298 0.22528 0.53801
 C1315 C 0.24897 0.23177 0.52467
 C1316 C 0.23156 0.24971 0.47475
 C1317 C 0.22504 0.24388 0.46138
 C1318 C 0.22525 0.22805 0.45855
 C1319 C 0.23198 0.21808 0.46915
 C1320 C 0.23850 0.22389 0.48250
 H1321 H 0.27052 0.24046 0.47686
 H1322 H 0.28163 0.25079 0.45315
 H1323 H 0.26911 0.29659 0.46704
 H1324 H 0.25786 0.28631 0.49064
 H1325 H 0.28608 0.25769 0.50898
 H1326 H 0.29641 0.26876 0.53262
 H1327 H 0.24033 0.27092 0.52266
 H1328 H 0.21555 0.24462 0.50887
 H1329 H 0.20506 0.23317 0.53229
 H1330 H 0.25066 0.21981 0.54607
 H1331 H 0.26120 0.23114 0.52254
 H1332 H 0.23114 0.26195 0.47689
 H1333 H 0.21978 0.25168 0.45329
 H1334 H 0.23218 0.20581 0.46711
 H1335 H 0.24368 0.21603 0.49058
 H1336 H 0.25071 0.28184 0.54640
 C1337 C 0.75608 0.74414 1.00081
 C1338 C 0.74502 0.75523 1.00081
 C1339 C 0.73900 0.76198 1.01518
 C1340 C 0.73833 0.76127 0.98642
 C1341 C 0.76280 0.73810 0.98642
 C1342 C 0.76209 0.73742 1.01521
 C1343 C 0.72312 0.76186 1.01802
 C1344 C 0.71723 0.76831 1.03139
 C1345 C 0.72712 0.77505 1.04202
 C1346 C 0.74295 0.77536 1.03920
 C1347 C 0.74887 0.76892 1.02581
 C1348 C 0.73131 0.75144 0.97580
 C1349 C 0.72488 0.75740 0.96242
 C1350 C 0.72531 0.77322 0.95960
 C1351 C 0.73218 0.78306 0.97019
 C1352 C 0.73861 0.77713 0.98355
 C1353 C 0.76975 0.74795 0.97575
 C1354 C 0.77607 0.74203 0.96230
 C1355 C 0.77564 0.72620 0.95947
 C1356 C 0.76890 0.71633 0.97015
 C1357 C 0.76257 0.72224 0.98357
 C1358 C 0.77795 0.73762 1.01807
 C1359 C 0.78384 0.73123 1.03147
 C1360 C 0.77395 0.72447 1.04212
 C1361 C 0.75812 0.72408 1.03928
 C1362 C 0.75222 0.73047 1.02586
 H1363 H 0.71532 0.75667 1.00992
 H1364 H 0.70496 0.76805 1.03343
 H1365 H 0.75070 0.78063 1.04731
 H1366 H 0.76111 0.76940 1.02369
 H1367 H 0.73074 0.73920 0.97793
 H1368 H 0.71952 0.74968 0.95434
 H1369 H 0.74390 0.78490 0.99162
 H1370 H 0.77031 0.76019 0.97787
 H1371 H 0.78133 0.74976 0.95416
 H1372 H 0.76854 0.70407 0.96810
 H1373 H 0.75737 0.71445 0.99170
 H1374 H 0.78576 0.74283 1.00996
 H1375 H 0.79610 0.73156 1.03352
 H1376 H 0.75037 0.71880 1.04740
 H1377 H 0.73998 0.72994 1.02373
 H1378 H 0.73255 0.79533 0.96814
 C1379 C 0.75605 0.24403 0.50061
 C1380 C 0.74491 0.25504 0.50060
 C1381 C 0.73896 0.26183 0.51497
 C1382 C 0.73809 0.26095 0.48622
 C1383 C 0.76285 0.23810 0.48624
 C1384 C 0.76205 0.23730 0.51500
 C1385 C 0.72311 0.26168 0.51790
 C1386 C 0.71729 0.26817 0.53127
 C1387 C 0.72723 0.27498 0.54180
 C1388 C 0.74304 0.27531 0.53891
 C1389 C 0.74889 0.26882 0.52551
 C1390 C 0.73116 0.25098 0.47567
 C1391 C 0.72465 0.25680 0.46227
 C1392 C 0.72489 0.27262 0.45939
 C1393 C 0.73163 0.28259 0.46994
 C1394 C 0.73814 0.27680 0.48331
 C1395 C 0.76970 0.24806 0.47561
 C1396 C 0.77615 0.24224 0.46219
 C1397 C 0.77591 0.22642 0.45934
 C1398 C 0.76927 0.21644 0.46997
 C1399 C 0.76282 0.22224 0.48337
 C1400 C 0.77791 0.23749 0.51786
 C1401 C 0.78378 0.23107 0.53124
 C1402 C 0.77388 0.22429 0.54186
 C1403 C 0.75806 0.22391 0.53902
 C1404 C 0.75216 0.23033 0.52562
 H1405 H 0.71527 0.25643 0.50987
 H1406 H 0.70503 0.26790 0.53338
 H1407 H 0.75083 0.28062 0.54696
 H1408 H 0.76112 0.26931 0.52332
 H1409 H 0.73074 0.23875 0.47785
 H1410 H 0.71938 0.24899 0.45422
 H1411 H 0.74333 0.28467 0.49135
 H1412 H 0.77011 0.26030 0.47775
 H1413 H 0.78134 0.25005 0.45407
 H1414 H 0.76907 0.20418 0.46790
 H1415 H 0.75768 0.21438 0.49147
 H1416 H 0.78573 0.24273 0.50977
 H1417 H 0.79604 0.23138 0.53331
 H1418 H 0.75031 0.21860 0.54712
 H1419 H 0.73993 0.22980 0.52348
 H1420 H 0.73184 0.29485 0.46784
 C1421 C 0.74577 0.24421 -0.00085
 C1422 C 0.75576 0.25610 -0.00079
 C1423 C 0.76200 0.26246 -0.01514
 C1424 C 0.76194 0.26229 0.01363
 C1425 C 0.73939 0.23798 0.01349
 C1426 C 0.73972 0.23786 -0.01525
 C1427 C 0.77331 0.25436 -0.02323
 C1428 C 0.77943 0.26045 -0.03668
 C1429 C 0.77427 0.27467 -0.04214
 C1430 C 0.76288 0.28271 -0.03415
 C1431 C 0.75677 0.27663 -0.02070
 C1432 C 0.77279 0.25381 0.02196
 C1433 C 0.77895 0.25977 0.03543
 C1434 C 0.77431 0.27424 0.04066
 C1435 C 0.76339 0.28268 0.03244
 C1436 C 0.75723 0.27673 0.01897
 C1437 C 0.72769 0.24595 0.02115
 C1438 C 0.72131 0.23991 0.03450
 C1439 C 0.72659 0.22587 0.04028
 C1440 C 0.73837 0.21797 0.03273
 C1441 C 0.74475 0.22400 0.01938
 C1442 C 0.72907 0.24630 -0.02386
 C1443 C 0.72296 0.24012 -0.03725
 C1444 C 0.72746 0.22548 -0.04212
 C1445 C 0.73819 0.21709 -0.03363
 C1446 C 0.74430 0.22325 -0.02024
 H1447 H 0.77744 0.24340 -0.01906
 H1448 H 0.78823 0.25413 -0.04277
 H1449 H 0.75877 0.29369 -0.03830
 H1450 H 0.74791 0.28293 -0.01469
 H1451 H 0.77654 0.24266 0.01794
 H1452 H 0.78739 0.25315 0.04169
 H1453 H 0.74876 0.28335 0.01277
 H1454 H 0.72344 0.25676 0.01670
 H1455 H 0.71220 0.24613 0.04025
 H1456 H 0.74258 0.20712 0.03713
 H1457 H 0.75388 0.21779 0.01369
 H1458 H 0.72540 0.25758 -0.02012
 H1459 H 0.71465 0.24670 -0.04374
 H1460 H 0.74176 0.20576 -0.03731
 H1461 H 0.75262 0.21666 -0.01381
 H1462 H 0.75971 0.29387 0.03640
 C1463 C 0.74594 0.74443 0.49949
 C1464 C 0.75579 0.75646 0.49957
 C1465 C 0.76195 0.76292 0.48523
 C1466 C 0.76194 0.76269 0.51400
 C1467 C 0.73974 0.73803 0.51384
 C1468 C 0.73982 0.73815 0.48506
 C1469 C 0.77353 0.75509 0.47726
 C1470 C 0.77967 0.76133 0.46389
 C1471 C 0.77427 0.77544 0.45838
 C1472 C 0.76263 0.78323 0.46625
 C1473 C 0.75648 0.77700 0.47963
 C1474 C 0.77269 0.75419 0.52243
 C1475 C 0.77882 0.76018 0.53590
 C1476 C 0.77425 0.77472 0.54102
 C1477 C 0.76343 0.78318 0.53269
 C1478 C 0.75731 0.77719 0.51922
 C1479 C 0.72828 0.74601 0.52185
 C1480 C 0.72212 0.73986 0.53525
 C1481 C 0.72739 0.72570 0.54075
 C1482 C 0.73894 0.71778 0.53287
 C1483 C 0.74509 0.72392 0.51946
 C1484 C 0.72896 0.74652 0.47665
 C1485 C 0.72278 0.74040 0.46326
 C1486 C 0.72740 0.72586 0.45820
 C1487 C 0.73834 0.71754 0.46649
 C1488 C 0.74453 0.72365 0.47988
 H1489 H 0.77786 0.74422 0.48148
 H1490 H 0.78868 0.75521 0.45790
 H1491 H 0.75835 0.79414 0.46208
 H1492 H 0.74745 0.78312 0.48556
 H1493 H 0.77640 0.74299 0.51850
 H1494 H 0.78718 0.75355 0.54225
 H1495 H 0.74892 0.78384 0.51294
 H1496 H 0.72407 0.75692 0.51764
 H1497 H 0.71320 0.74609 0.54126
 H1498 H 0.74313 0.70684 0.53705
 H1499 H 0.75406 0.71771 0.51352
 H1500 H 0.72519 0.75771 0.48056
 H1501 H 0.71431 0.74694 0.45695
 H1502 H 0.74202 0.70629 0.46265
 H1503 H 0.75300 0.71709 0.48614
 H1504 H 0.75980 0.79442 0.53657
 C1505 C 0.99991 0.25585 0.24435
 C1506 C 1.00003 0.24381 0.25413
 C1507 C 1.01457 0.23753 0.26022
 C1508 C 0.98560 0.23741 0.26031
 C1509 C 0.98536 0.26217 0.23833
 C1510 C 1.01433 0.26220 0.23808
 C1511 C 1.01968 0.22290 0.25583
 C1512 C 1.03321 0.21684 0.26196
 C1513 C 1.04171 0.22534 0.27255
 C1514 C 1.03670 0.23999 0.27689
 C1515 C 1.02318 0.24607 0.27075
 C1516 C 0.97983 0.22344 0.25481
 C1517 C 0.96638 0.21726 0.26098
 C1518 C 0.95861 0.22501 0.27267
 C1519 C 0.96426 0.23903 0.27807
 C1520 C 0.97771 0.24522 0.27191
 C1521 C 0.98005 0.27659 0.24316
 C1522 C 0.96652 0.28272 0.23709
 C1523 C 0.95821 0.27448 0.22616
 C1524 C 0.96341 0.26002 0.22141
 C1525 C 0.97694 0.25389 0.22747
 C1526 C 1.01992 0.27640 0.24316
 C1527 C 1.03340 0.28247 0.23695
 C1528 C 1.04138 0.27439 0.22563
 C1529 C 1.03588 0.26016 0.22061
 C1530 C 1.02241 0.25408 0.22682
 H1531 H 1.01326 0.21621 0.24764
 H1532 H 1.03699 0.20550 0.25853
 H1533 H 1.04316 0.24665 0.28510
 H1534 H 1.01932 0.25735 0.27430
 H1535 H 0.98569 0.21737 0.24574
 H1536 H 0.96208 0.20642 0.25669
 H1537 H 0.98204 0.25602 0.27623
 H1538 H 0.98632 0.28307 0.25163
 H1539 H 0.96260 0.29390 0.24085
 H1540 H 0.95707 0.25355 0.21295
 H1541 H 0.98093 0.24276 0.22361
 H1542 H 1.01392 0.28272 0.25197
 H1543 H 1.03758 0.29347 0.24094
 H1544 H 1.04196 0.25382 0.21185
 H1545 H 1.01820 0.24311 0.22279
 H1546 H 0.95833 0.24513 0.28710
 C1547 C 0.50010 0.25483 0.74401
 C1548 C 0.50013 0.24372 0.75496
 C1549 C 0.51462 0.23778 0.76165
 C1550 C 0.48567 0.23689 0.76088
 C1551 C 0.48561 0.26144 0.73797
 C1552 C 0.51458 0.26098 0.73744
 C1553 C 0.51767 0.22195 0.76128
 C1554 C 0.53117 0.21612 0.76763
 C1555 C 0.54172 0.22603 0.77451
 C1556 C 0.53870 0.24182 0.77506
 C1557 C 0.52518 0.24768 0.76872
 C1558 C 0.47506 0.22987 0.75103
 C1559 C 0.46159 0.22336 0.75686
 C1560 C 0.45869 0.22369 0.77258
 C1561 C 0.46932 0.23050 0.78244
 C1562 C 0.48276 0.23701 0.77663
 C1563 C 0.47477 0.26831 0.74772
 C1564 C 0.46125 0.27460 0.74178
 C1565 C 0.45851 0.27420 0.72604
 C1566 C 0.46936 0.26755 0.71627
 C1567 C 0.48285 0.26124 0.72219
 C1568 C 0.51734 0.27686 0.73779
 C1569 C 0.53080 0.28288 0.73153
 C1570 C 0.54160 0.27312 0.72474
 C1571 C 0.53886 0.25728 0.72420
 C1572 C 0.52538 0.25123 0.73047
 H1573 H 0.50962 0.21413 0.75596
 H1574 H 0.53337 0.20388 0.76718
 H1575 H 0.54676 0.24958 0.78045
 H1576 H 0.52289 0.25988 0.76937
 H1577 H 0.47724 0.22939 0.73888
 H1578 H 0.45348 0.21804 0.74914
 H1579 H 0.49084 0.24228 0.78441
 H1580 H 0.47684 0.26885 0.75989
 H1581 H 0.45299 0.27984 0.74942
 H1582 H 0.46740 0.26726 0.70407
 H1583 H 0.49111 0.25610 0.71449
 H1584 H 0.50910 0.28456 0.74302
 H1585 H 0.53277 0.29515 0.73195
 H1586 H 0.54710 0.24963 0.71889
 H1587 H 0.52332 0.23899 0.72982
 H1588 H 0.46722 0.23078 0.79462
 C1589 C -0.00035 0.24406 0.74369
 C1590 C -0.00040 0.25518 0.75461
 C1591 C -0.01489 0.26191 0.76058
 C1592 C 0.01406 0.26123 0.76125
 C1593 C 0.01417 0.23801 0.73707
 C1594 C -0.01480 0.23730 0.73774
 C1595 C -0.02565 0.26879 0.75075
 C1596 C -0.03913 0.27525 0.75663
 C1597 C -0.04191 0.27501 0.77237
 C1598 C -0.03116 0.26832 0.78220
 C1599 C -0.01771 0.26186 0.77635
 C1600 C 0.01693 0.27708 0.76089
 C1601 C 0.03036 0.28302 0.76726
 C1602 C 0.04101 0.27318 0.77416
 C1603 C 0.03817 0.25736 0.77468
 C1604 C 0.02472 0.25140 0.76831
 C1605 C 0.01709 0.22215 0.73741
 C1606 C 0.03058 0.21623 0.73109
 C1607 C 0.04127 0.22608 0.72428
 C1608 C 0.03838 0.24190 0.72377
 C1609 C 0.02486 0.24784 0.73008
 C1610 C -0.02552 0.23040 0.74758
 C1611 C -0.03901 0.22400 0.74173
 C1612 C -0.04183 0.22433 0.72601
 C1613 C -0.03111 0.23104 0.71616
 C1614 C -0.01764 0.23744 0.72198
 H1615 H -0.02355 0.26922 0.73859
 H1616 H -0.04734 0.28047 0.74893
 H1617 H -0.03318 0.26811 0.79440
 H1618 H -0.00951 0.25670 0.78411
 H1619 H 0.00880 0.28484 0.75558
 H1620 H 0.03242 0.29528 0.76683
 H1621 H 0.02258 0.23918 0.76896
 H1622 H 0.00894 0.21439 0.74266
 H1623 H 0.03267 0.20397 0.73151
 H1624 H 0.04653 0.24961 0.71844
 H1625 H 0.02268 0.26007 0.72944
 H1626 H -0.02339 0.22991 0.75974
 H1627 H -0.04720 0.21877 0.74945
 H1628 H -0.03316 0.23131 0.70398
 H1629 H -0.00947 0.24261 0.71421
 H1630 H 0.04631 0.24966 0.78007
 C1631 C 0.50032 0.24342 0.24312
 C1632 C 0.50040 0.25457 0.25402
 C1633 C 0.48596 0.26129 0.26011
 C1634 C 0.51491 0.26068 0.26050
 C1635 C 0.51476 0.23736 0.23637
 C1636 C 0.48581 0.23671 0.23727
 C1637 C 0.47517 0.26826 0.25040
 C1638 C 0.46177 0.27475 0.25640
 C1639 C 0.45910 0.27445 0.27216
 C1640 C 0.46989 0.26766 0.28188
 C1641 C 0.48327 0.26117 0.27590
 C1642 C 0.51766 0.27656 0.26018
 C1643 C 0.53108 0.28258 0.26651
 C1644 C 0.54184 0.27280 0.27332
 C1645 C 0.53913 0.25695 0.27379
 C1646 C 0.52569 0.25092 0.26746
 C1647 C 0.51764 0.22149 0.23663
 C1648 C 0.53106 0.21556 0.23018
 C1649 C 0.54171 0.22541 0.22332
 C1650 C 0.53885 0.24124 0.22287
 C1651 C 0.52540 0.24719 0.22930
 C1652 C 0.47513 0.22982 0.24717
 C1653 C 0.46158 0.22348 0.24140
 C1654 C 0.45864 0.22385 0.22569
 C1655 C 0.46932 0.23053 0.21578
 C1656 C 0.48285 0.23688 0.22153
 H1657 H 0.47718 0.26874 0.23822
 H1658 H 0.45353 0.28006 0.24879
 H1659 H 0.46797 0.26741 0.29409
 H1660 H 0.49151 0.25594 0.28357
 H1661 H 0.50944 0.28429 0.25496
 H1662 H 0.53302 0.29486 0.26615
 H1663 H 0.52362 0.23867 0.26809
 H1664 H 0.50952 0.21372 0.24192
 H1665 H 0.53314 0.20330 0.23055
 H1666 H 0.54698 0.24895 0.21750
 H1667 H 0.52323 0.25942 0.22871
 H1668 H 0.47734 0.22931 0.25931
 H1669 H 0.45342 0.21826 0.24916
 H1670 H 0.46720 0.23084 0.20361
 H1671 H 0.49099 0.24204 0.21371
 H1672 H 0.54733 0.24930 0.27913
 C1673 C 0.99985 0.75551 0.74431
 C1674 C 0.99991 0.74446 0.75532
 C1675 C 1.01442 0.73847 0.76195
 C1676 C 0.98547 0.73772 0.76134
 C1677 C 0.98534 0.76220 0.73835
 C1678 C 1.01431 0.76147 0.73755
 C1679 C 1.01735 0.72261 0.76171
 C1680 C 1.03086 0.71674 0.76802
 C1681 C 1.04154 0.72663 0.77475
 C1682 C 1.03864 0.74246 0.77514
 C1683 C 1.02511 0.74835 0.76883
 C1684 C 0.97477 0.73071 0.75158
 C1685 C 0.96132 0.72428 0.75751
 C1686 C 0.95851 0.72468 0.77324
 C1687 C 0.96921 0.73149 0.78301
 C1688 C 0.98264 0.73793 0.77711
 C1689 C 0.97460 0.76914 0.74816
 C1690 C 0.96107 0.77549 0.74228
 C1691 C 0.95824 0.77509 0.72656
 C1692 C 0.96899 0.76836 0.71674
 C1693 C 0.98248 0.76200 0.72259
 C1694 C 1.01721 0.77732 0.73773
 C1695 C 1.03069 0.78315 0.73134
 C1696 C 1.04138 0.77321 0.72462
 C1697 C 1.03849 0.75740 0.72424
 C1698 C 1.02498 0.75155 0.73062
 H1699 H 1.00921 0.71480 0.75653
 H1700 H 1.03296 0.70448 0.76770
 H1701 H 1.04679 0.75021 0.78039
 H1702 H 1.02293 0.76058 0.76938
 H1703 H 0.97689 0.73017 0.73942
 H1704 H 0.95315 0.71895 0.74985
 H1705 H 0.99079 0.74318 0.78482
 H1706 H 0.97673 0.76968 0.76031
 H1707 H 0.95287 0.78076 0.74997
 H1708 H 0.96694 0.76803 0.70456
 H1709 H 0.99067 0.75680 0.71485
 H1710 H 1.00908 0.78515 0.74292
 H1711 H 1.03279 0.79540 0.73164
 H1712 H 1.04663 0.74962 0.71897
 H1713 H 1.02280 0.73932 0.73010
 H1714 H 0.96717 0.73182 0.79520
 C1715 C 0.50009 0.75542 0.24496
 C1716 C 0.50005 0.74358 0.25497
 C1717 C 0.51449 0.73738 0.26133
 C1718 C 0.48553 0.73737 0.26115
 C1719 C 0.48564 0.76177 0.23879
 C1720 C 0.51460 0.76163 0.23875
 C1721 C 0.51968 0.72272 0.25715
 C1722 C 0.53316 0.71677 0.26350
 C1723 C 0.54152 0.72543 0.27407
 C1724 C 0.53642 0.74011 0.27820
 C1725 C 0.52295 0.74606 0.27185
 C1726 C 0.47977 0.72330 0.25592
 C1727 C 0.46625 0.71729 0.26211
 C1728 C 0.45840 0.72532 0.27356
 C1729 C 0.46405 0.73945 0.27870
 C1730 C 0.47757 0.74545 0.27252
 C1731 C 0.48033 0.77620 0.24356
 C1732 C 0.46686 0.78234 0.23739
 C1733 C 0.45860 0.77409 0.22643
 C1734 C 0.46378 0.75961 0.22175
 C1735 C 0.47726 0.75346 0.22791
 C1736 C 0.52018 0.77587 0.24371
 C1737 C 0.53369 0.78188 0.23750
 C1738 C 0.54171 0.77369 0.22628
 C1739 C 0.53625 0.75940 0.22140
 C1740 C 0.52274 0.75338 0.22762
 H1741 H 0.51337 0.71592 0.24896
 H1742 H 0.53703 0.70542 0.26021
 H1743 H 0.54279 0.74690 0.28638
 H1744 H 0.51902 0.75737 0.27523
 H1745 H 0.48569 0.71701 0.24704
 H1746 H 0.46196 0.70638 0.25803
 H1747 H 0.48191 0.75633 0.27666
 H1748 H 0.48656 0.78268 0.25206
 H1749 H 0.46293 0.79354 0.24111
 H1750 H 0.45748 0.75314 0.21327
 H1751 H 0.48124 0.74231 0.22412
 H1752 H 0.51413 0.78230 0.25241
 H1753 H 0.53784 0.79292 0.24139
 H1754 H 0.54236 0.75297 0.21273
 H1755 H 0.51855 0.74237 0.22369
 H1756 H 0.45806 0.74575 0.28755
 C1757 C 0.00027 0.74418 0.24429
 C1758 C 0.00015 0.75512 0.25539
 C1759 C -0.01439 0.76175 0.26134
 C1760 C 0.01455 0.76107 0.26227
 C1761 C 0.01480 0.73818 0.23771
 C1762 C -0.01416 0.73755 0.23813
 C1763 C -0.02502 0.76885 0.25154
 C1764 C -0.03857 0.77518 0.25741
 C1765 C -0.04152 0.77459 0.27310
 C1766 C -0.03088 0.76769 0.28291
 C1767 C -0.01737 0.76135 0.27707
 C1768 C 0.01734 0.77694 0.26234
 C1769 C 0.03066 0.78279 0.26901
 C1770 C 0.04129 0.77284 0.27579
 C1771 C 0.03854 0.75700 0.27589
 C1772 C 0.02519 0.75113 0.26922
 C1773 C 0.01760 0.72230 0.23773
 C1774 C 0.03109 0.71641 0.23139
 C1775 C 0.04189 0.72632 0.22487
 C1776 C 0.03914 0.74217 0.22467
 C1777 C 0.02562 0.74809 0.23101
 C1778 C -0.02492 0.73045 0.24777
 C1779 C -0.03837 0.72417 0.24172
 C1780 C -0.04111 0.72480 0.22600
 C1781 C -0.03034 0.73169 0.21633
 C1782 C -0.01691 0.73799 0.22235
 H1783 H -0.02278 0.76955 0.23941
 H1784 H -0.04668 0.78060 0.24973
 H1785 H -0.03302 0.76724 0.29508
 H1786 H -0.00926 0.75603 0.28481
 H1787 H 0.00922 0.78479 0.25714
 H1788 H 0.03266 0.79506 0.26890
 H1789 H 0.02310 0.73888 0.26955
 H1790 H 0.00935 0.71448 0.24275
 H1791 H 0.03308 0.70413 0.23155
 H1792 H 0.04738 0.74993 0.21957
 H1793 H 0.02353 0.76034 0.23062
 H1794 H -0.02286 0.72973 0.25992
 H1795 H -0.04659 0.71876 0.24929
 H1796 H -0.03231 0.73218 0.20414
 H1797 H -0.00869 0.74331 0.21473
 H1798 H 0.04666 0.74921 0.28117
 C1799 C 0.49971 0.74359 0.74432
 C1800 C 0.49972 0.75467 0.75528
 C1801 C 0.48525 0.76140 0.76129
 C1802 C 0.51420 0.76073 0.76188
 C1803 C 0.51419 0.73766 0.73756
 C1804 C 0.48523 0.73682 0.73843
 C1805 C 0.47453 0.76838 0.75150
 C1806 C 0.46108 0.77486 0.75741
 C1807 C 0.45829 0.77453 0.77315
 C1808 C 0.46901 0.76773 0.78294
 C1809 C 0.48243 0.76125 0.77706
 C1810 C 0.51701 0.77660 0.76163
 C1811 C 0.53043 0.78255 0.76800
 C1812 C 0.54115 0.77272 0.77480
 C1813 C 0.53839 0.75688 0.77520
 C1814 C 0.52495 0.75090 0.76882
 C1815 C 0.51724 0.72183 0.73784
 C1816 C 0.53073 0.71604 0.73141
 C1817 C 0.54128 0.72599 0.72454
 C1818 C 0.53825 0.74179 0.72408
 C1819 C 0.52474 0.74760 0.73050
 C1820 C 0.47454 0.72992 0.74831
 C1821 C 0.46102 0.72353 0.74252
 C1822 C 0.45813 0.72386 0.72681
 C1823 C 0.46884 0.73053 0.71691
 C1824 C 0.48233 0.73693 0.72268
 H1825 H 0.47664 0.76889 0.73934
 H1826 H 0.45290 0.78018 0.74974
 H1827 H 0.46699 0.76747 0.79514
 H1828 H 0.49061 0.75602 0.78479
 H1829 H 0.50882 0.78437 0.75641
 H1830 H 0.53242 0.79482 0.76767
 H1831 H 0.52286 0.73866 0.76939
 H1832 H 0.50920 0.71399 0.74314
 H1833 H 0.53294 0.70380 0.73180
 H1834 H 0.54630 0.74958 0.71871
 H1835 H 0.52246 0.75982 0.72992
 H1836 H 0.47671 0.72943 0.76046
 H1837 H 0.45286 0.71830 0.75027
 H1838 H 0.46675 0.73079 0.70474
 H1839 H 0.49047 0.74210 0.71488
 H1840 H 0.54658 0.74918 0.78051
 C1841 C 0.42044 0.29328 0.29076
 C1842 C 0.41439 0.28692 0.30412
 C1843 C 0.40135 0.29336 0.31089
 C1844 C 0.39414 0.30628 0.30439
 C1845 C 0.40033 0.31255 0.29090
 C1846 C 0.41338 0.30609 0.28416
 C1847 C 0.43397 0.28671 0.28394
 C1848 C 0.44538 0.28115 0.27844
 H1849 H 0.41978 0.27701 0.30934
 H1850 H 0.39702 0.28816 0.32123
 H1851 H 0.39516 0.32244 0.28549
 H1852 H 0.41798 0.31110 0.27381
 C1853 C 0.41961 0.79351 0.79154
 C1854 C 0.41332 0.78705 0.80472
 C1855 C 0.40028 0.79354 0.81145
 C1856 C 0.39326 0.80670 0.80509
 C1857 C 0.39977 0.81306 0.79175
 C1858 C 0.41282 0.80651 0.78507
 C1859 C 0.43314 0.78688 0.78479
 C1860 C 0.44455 0.78127 0.77934
 H1861 H 0.41851 0.77698 0.80985
 H1862 H 0.39584 0.78814 0.82163
 H1863 H 0.39493 0.82311 0.78635
 H1864 H 0.41762 0.81163 0.77487
 C1865 C -0.08072 0.29379 0.79076
 C1866 C -0.08767 0.30671 0.78426
 C1867 C -0.10074 0.31316 0.79099
 C1868 C -0.10706 0.30678 0.80437
 C1869 C -0.09995 0.29374 0.81077
 C1870 C -0.08689 0.28732 0.80401
 C1871 C -0.06715 0.28725 0.78398
 C1872 C -0.05570 0.28170 0.77853
 H1873 H -0.08297 0.31183 0.77401
 H1874 H -0.10580 0.32316 0.78567
 H1875 H -0.10437 0.28846 0.82103
 H1876 H -0.08158 0.27733 0.80917
 C1877 C -0.08035 0.79328 0.29148
 C1878 C -0.08668 0.78669 0.30460
 C1879 C -0.09965 0.79322 0.31141
 C1880 C -0.10649 0.80648 0.30520
 C1881 C -0.10004 0.81296 0.29194
 C1882 C -0.08707 0.80640 0.28515
 C1883 C -0.06680 0.78671 0.28470
 C1884 C -0.05534 0.78120 0.27926
 H1885 H -0.08155 0.77653 0.30960
 H1886 H -0.10421 0.78783 0.32155
 H1887 H -0.10490 0.82313 0.28677
 H1888 H -0.08224 0.81161 0.27499
 C1889 C 0.58010 0.70724 0.29337
 C1890 C 0.58664 0.69397 0.28718
 C1891 C 0.59972 0.68750 0.29381
 C1892 C 0.60649 0.69424 0.30676
 C1893 C 0.59979 0.70761 0.31289
 C1894 C 0.58669 0.71405 0.30623
 C1895 C 0.56657 0.71379 0.28657
 C1896 C 0.55518 0.71915 0.28085
 H1897 H 0.58160 0.68858 0.27724
 H1898 H 0.60443 0.67722 0.28873
 H1899 H 0.60460 0.71318 0.32281
 H1900 H 0.58170 0.72433 0.31113
 C1901 C 0.58061 0.20788 0.79327
 C1902 C 0.58739 0.19496 0.78660
 C1903 C 0.60044 0.18833 0.79314
 C1904 C 0.60691 0.19452 0.80651
 C1905 C 0.60000 0.20757 0.81308
 C1906 C 0.58695 0.21418 0.80650
 C1907 C 0.56701 0.21451 0.78666
 C1908 C 0.55554 0.21989 0.78113
 H1909 H 0.58255 0.18997 0.77636
 H1910 H 0.60538 0.17835 0.78767
 H1911 H 0.60455 0.21270 0.82334
 H1912 H 0.58176 0.22417 0.81179
 C1913 C 1.08031 0.70838 0.79369
 C1914 C 1.08700 0.71511 0.80654
 C1915 C 1.10004 0.70853 0.81317
 C1916 C 1.10661 0.69508 0.80704
 C1917 C 1.09975 0.68842 0.79409
 C1918 C 1.08671 0.69503 0.78749
 C1919 C 1.06676 0.71504 0.78699
 C1920 C 1.05533 0.72045 0.78140
 H1921 H 1.08211 0.72543 0.81146
 H1922 H 1.10490 0.71406 0.82308
 H1923 H 1.10436 0.67808 0.78903
 H1924 H 1.08159 0.68969 0.77756
 C1925 C 1.08021 0.20694 0.29189
 C1926 C 1.08704 0.19381 0.28567
 C1927 C 1.10002 0.18736 0.29255
 C1928 C 1.10638 0.19396 0.30578
 C1929 C 1.09938 0.20719 0.31191
 C1930 C 1.08641 0.21361 0.30500
 C1931 C 1.06673 0.21347 0.28493
 C1932 C 1.05537 0.21891 0.27921
 H1933 H 1.08232 0.18854 0.27552
 H1934 H 1.10500 0.17722 0.28744
 H1935 H 1.10382 0.21264 0.32206
 H1936 H 1.08119 0.22377 0.30993
 C1937 C 0.58039 0.29172 0.70618
 C1938 C 0.58664 0.30503 0.71256
 C1939 C 0.59968 0.31177 0.70611
 C1940 C 0.60669 0.30529 0.69313
 C1941 C 0.60031 0.29185 0.68685
 C1942 C 0.58727 0.28514 0.69333
 C1943 C 0.56683 0.28494 0.71272
 C1944 C 0.55538 0.27944 0.71820
 H1945 H 0.58139 0.31024 0.72251
 H1946 H 0.60418 0.32206 0.71133
 H1947 H 0.60530 0.28647 0.67690
 H1948 H 0.58251 0.27484 0.68827
 C1949 C 0.58033 0.79221 0.20730
 C1950 C 0.58675 0.78583 0.19412
 C1951 C 0.59976 0.79245 0.18747
 C1952 C 0.60656 0.80561 0.19391
 C1953 C 0.60000 0.81189 0.20722
 C1954 C 0.58699 0.80524 0.21384
 C1955 C 0.56680 0.78554 0.21402
 C1956 C 0.55541 0.78008 0.21963
 H1957 H 0.58168 0.77575 0.18894
 H1958 H 0.60438 0.78725 0.17726
 H1959 H 0.60483 0.82195 0.21259
 H1960 H 0.58211 0.81029 0.22404
 C1961 C 1.08010 0.29284 0.20680
 C1962 C 1.08687 0.30575 0.21344
 C1963 C 1.09998 0.31228 0.20692
 C1964 C 1.10654 0.30598 0.19362
 C1965 C 1.09961 0.29295 0.18706
 C1966 C 1.08650 0.28645 0.19361
 C1967 C 1.06652 0.28624 0.21347
 C1968 C 1.05509 0.28079 0.21903
 H1969 H 1.08200 0.31081 0.22365
 H1970 H 1.10489 0.32227 0.21235
 H1971 H 1.10424 0.28773 0.17686
 H1972 H 1.08133 0.27645 0.18837
 C1973 C 1.08028 0.79148 0.70606
 C1974 C 1.08701 0.80428 0.71296
 C1975 C 1.10004 0.81105 0.70652
 C1976 C 1.10657 0.80507 0.69307
 C1977 C 1.09969 0.79217 0.68623
 C1978 C 1.08665 0.78543 0.69270
 C1979 C 1.06669 0.78475 0.71256
 C1980 C 1.05521 0.77934 0.71804
 H1981 H 1.08217 0.80906 0.72331
 H1982 H 1.10500 0.82088 0.71219
 H1983 H 1.10425 0.78730 0.67584
 H1984 H 1.08150 0.77554 0.68723
 C1985 C 0.41912 0.70556 0.70854
 C1986 C 0.41294 0.71224 0.69540
 C1987 C 0.39987 0.70597 0.68860
 C1988 C 0.39276 0.69287 0.69483
 C1989 C 0.39906 0.68629 0.70812
 C1990 C 0.41214 0.69259 0.71490
 C1991 C 0.43275 0.71191 0.71532
 C1992 C 0.44427 0.71731 0.72072
 H1993 H 0.41826 0.72228 0.69037
 H1994 H 0.39545 0.71141 0.67842
 H1995 H 0.39397 0.67626 0.71333
 H1996 H 0.41684 0.68732 0.72507
 C1997 C 0.41951 0.20554 0.20768
 C1998 C 0.41312 0.21227 0.19467
 C1999 C 0.39994 0.20602 0.18804
 C2000 C 0.39295 0.19288 0.19432
 C2001 C 0.39947 0.18624 0.20747
 C2002 C 0.41266 0.19253 0.21408
 C2003 C 0.43321 0.21191 0.21432
 C2004 C 0.44475 0.21731 0.21965
 H2005 H 0.41835 0.22235 0.18961
 H2006 H 0.39535 0.21153 0.17798
 H2007 H 0.39449 0.17617 0.21270
 H2008 H 0.41753 0.18720 0.22415
 C2009 C -0.07997 0.70625 0.20768
 C2010 C -0.08619 0.71251 0.19436
 C2011 C -0.09932 0.70605 0.18782
 C2012 C -0.10644 0.69319 0.19453
 C2013 C -0.10007 0.68702 0.20797
 C2014 C -0.08694 0.69351 0.21448
 C2015 C -0.06636 0.71281 0.21429
 C2016 C -0.05489 0.71828 0.21971
 H2017 H -0.08087 0.72237 0.18898
 H2018 H -0.10377 0.71116 0.17750
 H2019 H -0.10514 0.67718 0.21353
 H2020 H -0.08221 0.68856 0.22480
 C2021 C -0.08073 0.20565 0.70792
 C2022 C -0.08748 0.19264 0.71443
 C2023 C -0.10057 0.18617 0.70784
 C2024 C -0.10713 0.19262 0.69462
 C2025 C -0.10024 0.20575 0.68821
 C2026 C -0.08715 0.21220 0.69482
 C2027 C -0.06712 0.21220 0.71454
 C2028 C -0.05564 0.21771 0.71990
 H2029 H -0.08259 0.18746 0.72456
 H2030 H -0.10547 0.17610 0.71316
 H2031 H -0.10485 0.21109 0.67807
 H2032 H -0.08199 0.22227 0.68967
 C2033 C 0.29331 0.42008 0.29209
 C2034 C 0.28710 0.41391 0.30546
 C2035 C 0.29360 0.40081 0.31205
 C2036 C 0.30646 0.39365 0.30535
 C2037 C 0.31260 0.39998 0.29187
 C2038 C 0.30606 0.41308 0.28530
 C2039 C 0.28672 0.43369 0.28544
 C2040 C 0.28122 0.44516 0.28001
 H2041 H 0.27724 0.41926 0.31083
 H2042 H 0.28853 0.39640 0.32242
 H2043 H 0.32244 0.39487 0.28631
 H2044 H 0.31098 0.41777 0.27495
 C2045 C 0.29374 -0.08030 0.79167
 C2046 C 0.28723 -0.08661 0.80483
 C2047 C 0.29367 -0.09968 0.81152
 C2048 C 0.30681 -0.10672 0.80515
 C2049 C 0.31322 -0.10019 0.79184
 C2050 C 0.30673 -0.08711 0.78520
 C2051 C 0.28718 -0.06672 0.78497
 C2052 C 0.28164 -0.05525 0.77957
 H2053 H 0.27717 -0.08139 0.80995
 H2054 H 0.28824 -0.10412 0.82169
 H2055 H 0.32328 -0.10504 0.78645
 H2056 H 0.31189 -0.08229 0.77502
 C2057 C 0.79240 0.42007 0.79244
 C2058 C 0.80539 0.41334 0.78587
 C2059 C 0.81198 0.40026 0.79242
 C2060 C 0.80568 0.39364 0.80573
 C2061 C 0.79253 0.40060 0.81220
 C2062 C 0.78599 0.41367 0.80560
 C2063 C 0.78574 0.43361 0.78575
 C2064 C 0.78022 0.44502 0.78020
 H2065 H 0.81046 0.41823 0.77568
 H2066 H 0.82202 0.39548 0.78694
 H2067 H 0.78718 0.39607 0.82237
 H2068 H 0.77593 0.41881 0.81080
 C2069 C 0.79334 -0.08015 0.29272
 C2070 C 0.80732 -0.08590 0.28735
 C2071 C 0.81374 -0.09906 0.29388
 C2072 C 0.80628 -0.10676 0.30598
 C2073 C 0.79217 -0.10076 0.31127
 C2074 C 0.78579 -0.08760 0.30469
 C2075 C 0.78681 -0.06653 0.28605
 C2076 C 0.78135 -0.05506 0.28057
 H2077 H 0.81328 -0.08019 0.27810
 H2078 H 0.82457 -0.10306 0.28935
 H2079 H 0.78592 -0.10613 0.32049
 H2080 H 0.77496 -0.08321 0.30896
 C2081 C 0.29080 0.58028 0.70680
 C2082 C 0.28444 0.58680 0.69367
 C2083 C 0.29118 0.59977 0.68706
 C2084 C 0.30441 0.60641 0.69350
 C2085 C 0.31066 0.59975 0.70677
 C2086 C 0.30390 0.58679 0.71334
 C2087 C 0.28404 0.56677 0.71345
 C2088 C 0.27857 0.55535 0.71900
 H2089 H 0.27431 0.58183 0.68849
 H2090 H 0.28599 0.60446 0.67688
 H2091 H 0.32078 0.60446 0.71212
 H2092 H 0.30893 0.58181 0.72351
 C2093 C 0.29155 1.07973 0.20680
 C2094 C 0.28498 1.08639 0.19384
 C2095 C 0.29159 1.09943 0.18728
 C2096 C 0.30491 1.10602 0.19359
 C2097 C 0.31141 1.09920 0.20665
 C2098 C 0.30477 1.08616 0.21319
 C2099 C 0.28484 1.06621 0.21345
 C2100 C 0.27936 1.05482 0.21903
 H2101 H 0.27476 1.08147 0.18878
 H2102 H 0.28620 1.10426 0.17727
 H2103 H 0.32163 1.10385 0.21188
 H2104 H 0.30997 1.08105 0.22321
 C2105 C 0.79345 0.57931 0.20918
 C2106 C 0.80627 0.58634 0.21575
 C2107 C 0.81266 0.59942 0.20902
 C2108 C 0.80633 0.60566 0.19559
 C2109 C 0.79341 0.59847 0.18913
 C2110 C 0.78704 0.58540 0.19587
 C2111 C 0.78696 0.56574 0.21595
 C2112 C 0.78146 0.55429 0.22139
 H2113 H 0.81134 0.58169 0.22605
 H2114 H 0.82256 0.60455 0.21440
 H2115 H 0.78817 0.60283 0.17883
 H2116 H 0.77712 0.58003 0.19067
 C2117 C 0.79230 1.07895 0.70842
 C2118 C 0.80549 1.08554 0.71471
 C2119 C 0.81205 1.09853 0.70799
 C2120 C 0.80551 1.10514 0.69485
 C2121 C 0.79221 1.09839 0.68863
 C2122 C 0.78568 1.08540 0.69538
 C2123 C 0.78562 1.06552 0.71526
 C2124 C 0.78005 1.05421 0.72093
 H2125 H 0.81072 1.08062 0.72481
 H2126 H 0.82224 1.10330 0.71315
 H2127 H 0.78678 1.10306 0.67857
 H2128 H 0.77547 1.08038 0.69041
 C2129 C 0.70624 0.57998 0.29241
 C2130 C 0.69314 0.58682 0.28617
 C2131 C 0.68689 0.60001 0.29283
 C2132 C 0.69365 0.60657 0.30588
 C2133 C 0.70688 0.59958 0.31202
 C2134 C 0.71310 0.58640 0.30534
 C2135 C 0.71257 0.56628 0.28569
 C2136 C 0.71792 0.55473 0.28026
 H2137 H 0.68772 0.58193 0.27617
 H2138 H 0.67674 0.60496 0.28771
 H2139 H 0.71247 0.60422 0.32200
 H2140 H 0.72324 0.58118 0.31028
 C2141 C 0.70616 1.08024 0.79265
 C2142 C 0.71314 1.08690 0.80536
 C2143 C 0.70682 1.10003 0.81207
 C2144 C 0.69332 1.10679 0.80616
 C2145 C 0.68647 1.09994 0.79325
 C2146 C 0.69284 1.08680 0.78660
 C2147 C 0.71259 1.06658 0.78593
 C2148 C 0.71796 1.05507 0.78043
 H2149 H 0.72347 1.08191 0.81015
 H2150 H 0.71262 1.10474 0.82189
 H2151 H 0.67614 1.10458 0.78820
 H2152 H 0.68732 1.08173 0.77675
 C2153 C 0.20707 0.58056 0.79426
 C2154 C 0.21385 0.58731 0.80704
 C2155 C 0.20739 0.60047 0.81355
 C2156 C 0.19400 0.60709 0.80737
 C2157 C 0.18729 0.60018 0.79447
 C2158 C 0.19378 0.58702 0.78799
 C2159 C 0.21364 0.56691 0.78767
 C2160 C 0.21902 0.55542 0.78217
 H2161 H 0.22414 0.58239 0.81200
 H2162 H 0.21297 0.60539 0.82341
 H2163 H 0.17700 0.60484 0.78936
 H2164 H 0.18841 0.58186 0.77810
 C2165 C 0.20829 1.08073 0.29459
 C2166 C 0.21464 1.08732 0.30769
 C2167 C 0.20798 1.10043 0.31412
 C2168 C 0.19482 1.10715 0.30756
 C2169 C 0.18858 1.10042 0.29434
 C2170 C 0.19527 1.08732 0.28794
 C2171 C 0.21497 1.06707 0.28809
 C2172 C 0.22033 1.05555 0.28261
 H2173 H 0.22472 1.08230 0.31296
 H2174 H 0.21315 1.10518 0.32428
 H2175 H 0.17852 1.10519 0.28889
 H2176 H 0.19024 1.08230 0.27780
 C2177 C 0.70600 0.42010 0.70835
 C2178 C 0.71296 0.41357 0.69553
 C2179 C 0.70662 0.40053 0.68872
 C2180 C 0.69317 0.39381 0.69464
 C2181 C 0.68629 0.40048 0.70759
 C2182 C 0.69266 0.41353 0.71438
 C2183 C 0.71248 0.43363 0.71521
 C2184 C 0.71794 0.44502 0.72080
 H2185 H 0.72329 0.41858 0.69075
 H2186 H 0.71231 0.39583 0.67880
 H2187 H 0.67597 0.39572 0.71253
 H2188 H 0.68716 0.41851 0.72430
 C2189 C 0.70626 -0.08031 0.20915
 C2190 C 0.71293 -0.08650 0.19600
 C2191 C 0.70659 -0.09951 0.18914
 C2192 C 0.69342 -0.10654 0.19533
 C2193 C 0.68686 -0.10023 0.20862
 C2194 C 0.69323 -0.08721 0.21546
 C2195 C 0.71269 -0.06674 0.21597
 C2196 C 0.71815 -0.05527 0.22141
 H2197 H 0.72302 -0.08123 0.19100
 H2198 H 0.71201 -0.10393 0.17896
 H2199 H 0.67678 -0.10527 0.21380
 H2200 H 0.68796 -0.08250 0.22564
 C2201 C 0.20598 0.42017 0.20888
 C2202 C 0.19309 0.41310 0.21530
 C2203 C 0.18683 0.40000 0.20852
 C2204 C 0.19338 0.39377 0.19518
 C2205 C 0.20638 0.40099 0.18886
 C2206 C 0.21261 0.41408 0.19567
 C2207 C 0.21231 0.43378 0.21568
 C2208 C 0.21771 0.44528 0.22111
 H2209 H 0.18785 0.41773 0.22552
 H2210 H 0.17686 0.39484 0.21377
 H2211 H 0.21179 0.39663 0.17864
 H2212 H 0.22258 0.41948 0.19059
 C2213 C 0.20590 -0.08044 0.70888
 C2214 C 0.21237 -0.08643 0.69555
 C2215 C 0.20585 -0.09925 0.68852
 C2216 C 0.19274 -0.10633 0.69475
 C2217 C 0.18636 -0.10023 0.70823
 C2218 C 0.19291 -0.08739 0.71523
 C2219 C 0.21241 -0.06695 0.71576
 C2220 C 0.21791 -0.05551 0.72120
 H2221 H 0.22242 -0.08113 0.69052
 H2222 H 0.21114 -0.10351 0.67820
 H2223 H 0.17630 -0.10529 0.71342
 H2224 H 0.18780 -0.08284 0.72556
 C2225 C 0.29451 0.29251 0.41952
 C2226 C 0.28790 0.30566 0.41310
 C2227 C 0.29427 0.31225 0.40000
 C2228 C 0.30737 0.30578 0.39308
 C2229 C 0.31390 0.29252 0.39965
 C2230 C 0.30750 0.28596 0.41276
 C2231 C 0.28805 0.28590 0.43314
 C2232 C 0.28262 0.28053 0.44463
 H2233 H 0.27784 0.31085 0.41825
 H2234 H 0.28887 0.32242 0.39538
 H2235 H 0.32395 0.28715 0.39475
 H2236 H 0.31273 0.27578 0.41764
 C2237 C 0.29375 0.79366 -0.08051
 C2238 C 0.28714 0.80672 -0.08709
 C2239 C 0.29358 0.81321 -0.10021
 C2240 C 0.30677 0.80672 -0.10696
 C2241 C 0.31329 0.79355 -0.10022
 C2242 C 0.30682 0.78709 -0.08711
 C2243 C 0.28720 0.78708 -0.06692
 C2244 C 0.28179 0.78159 -0.05549
 H2245 H 0.27702 0.81192 -0.08207
 H2246 H 0.28818 0.82331 -0.10497
 H2247 H 0.32340 0.78817 -0.10499
 H2248 H 0.31205 0.77699 -0.08209
 C2249 C 0.79295 0.29330 -0.08066
 C2250 C 0.78636 0.30641 -0.08716
 C2251 C 0.79285 0.31300 -0.10020
 C2252 C 0.80606 0.30657 -0.10696
 C2253 C 0.81256 0.29335 -0.10030
 C2254 C 0.80605 0.28679 -0.08725
 C2255 C 0.78632 0.28663 -0.06715
 C2256 C 0.78080 0.28112 -0.05579
 H2257 H 0.77622 0.31156 -0.08213
 H2258 H 0.78744 0.32312 -0.10490
 H2259 H 0.82269 0.28801 -0.10507
 H2260 H 0.81125 0.27664 -0.08230
 C2261 C 0.79298 0.79403 0.41984
 C2262 C 0.78658 0.80723 0.41331
 C2263 C 0.79304 0.81358 0.40014
 C2264 C 0.80602 0.80681 0.39328
 C2265 C 0.81237 0.79355 0.39999
 C2266 C 0.80589 0.78722 0.41316
 C2267 C 0.78632 0.78748 0.43339
 C2268 C 0.78079 0.78198 0.44477
 H2269 H 0.77659 0.81261 0.41841
 H2270 H 0.78786 0.82382 0.39543
 H2271 H 0.82227 0.78792 0.39507
 H2272 H 0.81093 0.77700 0.41812
 C2273 C 0.70890 0.29383 0.58033
 C2274 C 0.71532 0.30689 0.58703
 C2275 C 0.70858 0.31335 0.60002
 C2276 C 0.69528 0.30683 0.60649
 C2277 C 0.68895 0.29366 0.59962
 C2278 C 0.69571 0.28724 0.58665
 C2279 C 0.71567 0.28727 0.56686
 C2280 C 0.72110 0.28170 0.55549
 H2281 H 0.72551 0.31210 0.58220
 H2282 H 0.71383 0.32345 0.60489
 H2283 H 0.67875 0.28827 0.60415
 H2284 H 0.69062 0.27714 0.58151
 C2285 C 0.70874 0.79370 1.08070
 C2286 C 0.71514 0.80676 1.08743
 C2287 C 0.70842 0.81317 1.10045
 C2288 C 0.69516 0.80661 1.10696
 C2289 C 0.68885 0.79344 1.10007
 C2290 C 0.69559 0.78706 1.08706
 C2291 C 0.71549 0.78720 1.06716
 C2292 C 0.72093 0.78170 1.05575
 H2293 H 0.72531 0.81201 1.08259
 H2294 H 0.71367 0.82328 1.10533
 H2295 H 0.67868 0.78801 1.10464
 H2296 H 0.69051 0.77696 1.08192
 C2297 C 0.20841 0.29441 1.08008
 C2298 C 0.19529 0.28775 1.08646
 C2299 C 0.18858 0.29410 1.09950
 C2300 C 0.19491 0.30726 1.10640
 C2301 C 0.20815 0.31384 1.09987
 C2302 C 0.21483 0.30745 1.08682
 C2303 C 0.21514 0.28795 1.06652
 C2304 C 0.22059 0.28250 1.05509
 H2305 H 0.19020 0.27765 1.08132
 H2306 H 0.17843 0.28866 1.10409
 H2307 H 0.21341 0.32394 1.10475
 H2308 H 0.22498 0.31272 1.08196
 C2309 C 0.20726 0.79362 0.57994
 C2310 C 0.19406 0.78716 0.58636
 C2311 C 0.18761 0.79351 0.59953
 C2312 C 0.19429 0.80645 0.60650
 C2313 C 0.20755 0.81288 0.59989
 C2314 C 0.21398 0.80650 0.58672
 C2315 C 0.21392 0.78707 0.56640
 C2316 C 0.21951 0.78162 0.55504
 H2317 H 0.18874 0.77720 0.58118
 H2318 H 0.17735 0.78829 0.60415
 H2319 H 0.21311 0.82274 0.60491
 H2320 H 0.22422 0.81159 0.58184
 C2321 C 0.29286 0.70783 0.58007
 C2322 C 0.30596 0.71427 0.58669
 C2323 C 0.31248 0.70760 0.59968
 C2324 C 0.30598 0.69435 0.60625
 C2325 C 0.29279 0.68798 0.59946
 C2326 C 0.28630 0.69468 0.58649
 C2327 C 0.28623 0.71457 0.56661
 C2328 C 0.28065 0.72007 0.55527
 H2329 H 0.31115 0.72445 0.58180
 H2330 H 0.32261 0.71287 0.60448
 H2331 H 0.28741 0.67782 0.60408
 H2332 H 0.27617 0.68957 0.58144
 C2333 C 0.29245 0.20705 1.07990
 C2334 C 0.30569 0.21341 1.08630
 C2335 C 0.31229 0.20681 1.09929
 C2336 C 0.30572 0.19371 1.10608
 C2337 C 0.29236 0.18743 1.09951
 C2338 C 0.28580 0.19406 1.08654
 C2339 C 0.28580 0.21373 1.06642
 C2340 C 0.28036 0.21929 1.05504
 H2341 H 0.31096 0.22346 1.08124
 H2342 H 0.32254 0.21201 1.10391
 H2343 H 0.28691 0.17739 1.10432
 H2344 H 0.27555 0.18902 1.08166
 C2345 C 0.79218 0.70574 1.08083
 C2346 C 0.80534 0.71227 1.08724
 C2347 C 0.81197 0.70581 1.10027
 C2348 C 0.80554 0.69266 1.10712
 C2349 C 0.79227 0.68621 1.10056
 C2350 C 0.78566 0.69270 1.08753
 C2351 C 0.78552 0.71231 1.06728
 C2352 C 0.78013 0.71784 1.05586
 H2353 H 0.81051 0.72235 1.08215
 H2354 H 0.82215 0.71116 1.10488
 H2355 H 0.78692 0.67613 1.10541
 H2356 H 0.77548 0.68753 1.08264
 C2357 C 0.79204 0.20552 0.58054
 C2358 C 0.80523 0.21199 0.58695
 C2359 C 0.81181 0.20551 0.59999
 C2360 C 0.80530 0.19241 0.60684
 C2361 C 0.79199 0.18602 0.60028
 C2362 C 0.78543 0.19254 0.58724
 C2363 C 0.78542 0.21210 0.56700
 C2364 C 0.78004 0.21764 0.55559
 H2365 H 0.81045 0.22204 0.58184
 H2366 H 0.82202 0.21080 0.60460
 H2367 H 0.78658 0.17599 0.60514
 H2368 H 0.77522 0.18742 0.58236
 C2369 C 0.70813 0.70709 0.42009
 C2370 C 0.71443 0.69383 0.41363
 C2371 C 0.70771 0.68724 0.40073
 C2372 C 0.69454 0.69383 0.39407
 C2373 C 0.68829 0.70718 0.40071
 C2374 C 0.69504 0.71374 0.41361
 C2375 C 0.71500 0.71380 0.43343
 C2376 C 0.72070 0.71935 0.44468
 H2377 H 0.72455 0.68856 0.41858
 H2378 H 0.71289 0.67698 0.39606
 H2379 H 0.67819 0.71264 0.39601
 H2380 H 0.69004 0.72400 0.41855
 C2381 C 0.70837 0.20674 -0.08028
 C2382 C 0.71475 0.19354 -0.08679
 C2383 C 0.70806 0.18698 -0.09972
 C2384 C 0.69486 0.19355 -0.10635
 C2385 C 0.68856 0.20685 -0.09966
 C2386 C 0.69528 0.21338 -0.08673
 C2387 C 0.71519 0.21340 -0.06690
 C2388 C 0.72084 0.21894 -0.05565
 H2389 H 0.72488 0.18829 -0.08186
 H2390 H 0.71329 0.17678 -0.10445
 H2391 H 0.67845 0.21230 -0.10433
 H2392 H 0.69023 0.22360 -0.08175
 C2393 C 0.20752 0.70862 -0.07946
 C2394 C 0.21406 0.69548 -0.08593
 C2395 C 0.20743 0.68875 -0.09880
 C2396 C 0.19411 0.69508 -0.10542
 C2397 C 0.18763 0.70832 -0.09877
 C2398 C 0.19430 0.71502 -0.08590
 C2399 C 0.21430 0.71547 -0.06615
 C2400 C 0.21990 0.72118 -0.05495
 H2401 H 0.22429 0.69041 -0.08100
 H2402 H 0.21280 0.67860 -0.10349
 H2403 H 0.17741 0.71357 -0.10343
 H2404 H 0.18911 0.72519 -0.08096
 C2405 C 0.20641 0.20972 0.42001
 C2406 C 0.19335 0.21614 0.41327
 C2407 C 0.18691 0.20940 0.40029
 C2408 C 0.19347 0.19610 0.39384
 C2409 C 0.20664 0.18976 0.40075
 C2410 C 0.21303 0.19653 0.41372
 C2411 C 0.21295 0.21650 0.43350
 C2412 C 0.21851 0.22192 0.44487
 H2413 H 0.18810 0.22634 0.41807
 H2414 H 0.17681 0.21466 0.39539
 H2415 H 0.21205 0.17956 0.39623
 H2416 H 0.22313 0.19143 0.41887
 C2417 C 0.29311 0.42003 0.70880
 C2418 C 0.30609 0.41311 0.71522
 C2419 C 0.31261 0.40014 0.70839
 C2420 C 0.30623 0.39388 0.69500
 C2421 C 0.29313 0.40094 0.68869
 C2422 C 0.28665 0.41391 0.69555
 C2423 C 0.28653 0.43353 0.71566
 C2424 C 0.28097 0.44494 0.72115
 H2425 H 0.31120 0.41777 0.72548
 H2426 H 0.32263 0.39508 0.71366
 H2427 H 0.28787 0.39657 0.67842
 H2428 H 0.27661 0.41919 0.69046
 C2429 C 0.29317 0.91966 0.20862
 C2430 C 0.30640 0.91301 0.21480
 C2431 C 0.31294 0.90005 0.20798
 C2432 C 0.30635 0.89354 0.19481
 C2433 C 0.29300 0.90034 0.18873
 C2434 C 0.28649 0.91329 0.19558
 C2435 C 0.28658 0.93316 0.21548
 C2436 C 0.28104 0.94456 0.22102
 H2437 H 0.31169 0.91787 0.22488
 H2438 H 0.32317 0.89522 0.21305
 H2439 H 0.28756 0.89576 0.17864
 H2440 H 0.27627 0.91838 0.19066
 C2441 C 0.79144 0.41915 0.20652
 C2442 C 0.78485 0.41245 0.19361
 C2443 C 0.79158 0.39949 0.18696
 C2444 C 0.80506 0.39304 0.19314
 C2445 C 0.81155 0.39987 0.20618
 C2446 C 0.80479 0.41283 0.21279
 C2447 C 0.78465 0.43263 0.21321
 C2448 C 0.77916 0.44401 0.21884
 H2449 H 0.77453 0.41727 0.18863
 H2450 H 0.78619 0.39465 0.17697
 H2451 H 0.82188 0.39532 0.21131
 H2452 H 0.81001 0.41795 0.22278
 C2453 C 0.79182 0.91961 0.70769
 C2454 C 0.80511 0.91308 0.71388
 C2455 C 0.81173 0.90014 0.70712
 C2456 C 0.80515 0.89350 0.69401
 C2457 C 0.79177 0.90019 0.68789
 C2458 C 0.78517 0.91314 0.69469
 C2459 C 0.78511 0.93301 0.71461
 C2460 C 0.77957 0.94429 0.72038
 H2461 H 0.81037 0.91802 0.72394
 H2462 H 0.82202 0.89543 0.71220
 H2463 H 0.78631 0.89548 0.67786
 H2464 H 0.77489 0.91812 0.68979
 C2465 C 0.70676 0.58056 0.70730
 C2466 C 0.69354 0.58726 0.71347
 C2467 C 0.68718 0.60036 0.70675
 C2468 C 0.69395 0.60698 0.69372
 C2469 C 0.70729 0.60013 0.68764
 C2470 C 0.71362 0.58702 0.69438
 C2471 C 0.71322 0.56699 0.71414
 C2472 C 0.71859 0.55557 0.71982
 H2473 H 0.68812 0.58233 0.72346
 H2474 H 0.67694 0.60521 0.71180
 H2475 H 0.71290 0.60482 0.67768
 H2476 H 0.72386 0.58192 0.68950
 C2477 C 0.70821 0.08005 0.20568
 C2478 C 0.69502 0.08659 0.21208
 C2479 C 0.68834 0.09958 0.20545
 C2480 C 0.69477 0.10624 0.19228
 C2481 C 0.70807 0.09955 0.18595
 C2482 C 0.71472 0.08656 0.19261
 C2483 C 0.71494 0.06657 0.21244
 C2484 C 0.72039 0.05519 0.21812
 H2485 H 0.68986 0.08162 0.22219
 H2486 H 0.67811 0.10429 0.21066
 H2487 H 0.71344 0.10432 0.17589
 H2488 H 0.72494 0.08159 0.18755
 C2489 C 0.20806 0.58082 0.20602
 C2490 C 0.19473 0.58726 0.21225
 C2491 C 0.18815 0.60031 0.20564
 C2492 C 0.19479 0.60715 0.19266
 C2493 C 0.20823 0.60055 0.18651
 C2494 C 0.21479 0.58750 0.19314
 C2495 C 0.21470 0.56727 0.21273
 C2496 C 0.22010 0.55583 0.21835
 H2497 H 0.18940 0.58216 0.22221
 H2498 H 0.17783 0.60495 0.21074
 H2499 H 0.21375 0.60541 0.17658
 H2500 H 0.22510 0.58260 0.18820
 C2501 C 0.20735 0.08018 0.70657
 C2502 C 0.19404 0.08664 0.71280
 C2503 C 0.18748 0.09972 0.70619
 C2504 C 0.19417 0.10654 0.69322
 C2505 C 0.20760 0.09993 0.68709
 C2506 C 0.21412 0.08686 0.69372
 C2507 C 0.21397 0.06660 0.71325
 C2508 C 0.21942 0.05516 0.71879
 H2509 H 0.18869 0.08154 0.72274
 H2510 H 0.17717 0.10438 0.71127
 H2511 H 0.21315 0.10477 0.67717
 H2512 H 0.22443 0.08195 0.68879
 C2513 C 0.29190 0.58070 0.29370
 C2514 C 0.28560 0.58711 0.30692
 C2515 C 0.29221 0.60017 0.31342
 C2516 C 0.30526 0.60703 0.30680
 C2517 C 0.31147 0.60046 0.29347
 C2518 C 0.30484 0.58739 0.28699
 C2519 C 0.28519 0.56715 0.28712
 C2520 C 0.27971 0.55572 0.28162
 H2521 H 0.27560 0.58199 0.31223
 H2522 H 0.28705 0.60479 0.32365
 H2523 H 0.32146 0.60533 0.28799
 H2524 H 0.30983 0.58249 0.27677
 C2525 C 0.29128 0.08023 0.79420
 C2526 C 0.28471 0.08703 0.80710
 C2527 C 0.29137 0.10012 0.81353
 C2528 C 0.30473 0.10660 0.80715
 C2529 C 0.31120 0.09963 0.79414
 C2530 C 0.30452 0.08656 0.78774
 C2531 C 0.28456 0.06666 0.78764
 C2532 C 0.27914 0.05523 0.78209
 H2533 H 0.27447 0.08220 0.81221
 H2534 H 0.28599 0.10508 0.82350
 H2535 H 0.32145 0.10417 0.78887
 H2536 H 0.30972 0.08136 0.77776
 C2537 C 0.79221 0.58020 0.79335
 C2538 C 0.80519 0.58693 0.78677
 C2539 C 0.81177 0.59997 0.79336
 C2540 C 0.80546 0.60649 0.80668
 C2541 C 0.79237 0.59959 0.81318
 C2542 C 0.78581 0.58655 0.80656
 C2543 C 0.78554 0.56671 0.78659
 C2544 C 0.78005 0.55537 0.78091
 H2545 H 0.81025 0.58210 0.77655
 H2546 H 0.82180 0.60485 0.78796
 H2547 H 0.78714 0.60419 0.82339
 H2548 H 0.77577 0.58141 0.81177
 C2549 C 0.79200 0.08054 0.29389
 C2550 C 0.78554 0.08719 0.30691
 C2551 C 0.79222 0.10022 0.31342
 C2552 C 0.80551 0.10681 0.30700
 C2553 C 0.81188 0.10000 0.29386
 C2554 C 0.80517 0.08697 0.28738
 C2555 C 0.78526 0.06699 0.28731
 C2556 C 0.77980 0.05556 0.28180
 H2557 H 0.77535 0.08229 0.31207
 H2558 H 0.78693 0.10505 0.32350
 H2559 H 0.82207 0.10464 0.28854
 H2560 H 0.81030 0.08189 0.27731
 C2561 C 0.70736 0.41874 0.29418
 C2562 C 0.71411 0.41182 0.30691
 C2563 C 0.70748 0.39875 0.31342
 C2564 C 0.69397 0.39237 0.30728
 C2565 C 0.68731 0.39945 0.29443
 C2566 C 0.69397 0.41252 0.28795
 C2567 C 0.71404 0.43234 0.28763
 C2568 C 0.71949 0.44382 0.28217
 H2569 H 0.72448 0.41655 0.31184
 H2570 H 0.71301 0.39371 0.32326
 H2571 H 0.67693 0.39499 0.28935
 H2572 H 0.68863 0.41780 0.27809
 C2573 C 0.70580 0.91912 0.79366
 C2574 C 0.71276 0.91236 0.80637
 C2575 C 0.70634 0.89926 0.81303
 C2576 C 0.69283 0.89272 0.80707
 C2577 C 0.68593 0.89966 0.79428
 C2578 C 0.69238 0.91276 0.78764
 C2579 C 0.71236 0.93266 0.78688
 C2580 C 0.71780 0.94406 0.78126
 H2581 H 0.72315 0.91721 0.81114
 H2582 H 0.71205 0.89432 0.82281
 H2583 H 0.67553 0.89508 0.78935
 H2584 H 0.68688 0.91793 0.77782
 C2585 C 0.20546 0.41937 0.79204
 C2586 C 0.19255 0.41242 0.78559
 C2587 C 0.18617 0.39934 0.79233
 C2588 C 0.19263 0.39301 0.80566
 C2589 C 0.20567 0.40010 0.81200
 C2590 C 0.21202 0.41317 0.80523
 C2591 C 0.21187 0.43301 0.78530
 C2592 C 0.21726 0.44453 0.77988
 H2593 H 0.18737 0.41713 0.77537
 H2594 H 0.17619 0.39426 0.78703
 H2595 H 0.21100 0.39567 0.82223
 H2596 H 0.22201 0.41849 0.81035
 C2597 C 0.20506 0.91976 0.29232
 C2598 C 0.19180 0.91311 0.28626
 C2599 C 0.18545 0.90004 0.29306
 C2600 C 0.19229 0.89343 0.30606
 C2601 C 0.20565 0.90024 0.31204
 C2602 C 0.21196 0.91330 0.30521
 C2603 C 0.21151 0.93333 0.28550
 C2604 C 0.21702 0.94478 0.28006
 H2605 H 0.18633 0.91804 0.27630
 H2606 H 0.17514 0.89524 0.28814
 H2607 H 0.21133 0.89553 0.32195
 H2608 H 0.22224 0.91837 0.31001
 C2609 C 0.41967 0.29288 0.70766
 C2610 C 0.41278 0.30577 0.71427
 C2611 C 0.39977 0.31236 0.70760
 C2612 C 0.39343 0.30614 0.69418
 C2613 C 0.40046 0.29311 0.68767
 C2614 C 0.41347 0.28655 0.69437
 C2615 C 0.43324 0.28627 0.71437
 C2616 C 0.44470 0.28077 0.71981
 H2617 H 0.41750 0.31076 0.72457
 H2618 H 0.39475 0.32231 0.71303
 H2619 H 0.39602 0.28797 0.67737
 H2620 H 0.41873 0.27657 0.68914
 C2621 C 0.42022 0.79291 0.20734
 C2622 C 0.41365 0.78625 0.19440
 C2623 C 0.40067 0.79287 0.18769
 C2624 C 0.39406 0.80628 0.19385
 C2625 C 0.40079 0.81285 0.20690
 C2626 C 0.41376 0.80621 0.21358
 C2627 C 0.43366 0.78618 0.21414
 C2628 C 0.44499 0.78062 0.21978
 H2629 H 0.41858 0.77596 0.18946
 H2630 H 0.39591 0.78742 0.17768
 H2631 H 0.39611 0.82313 0.21202
 H2632 H 0.41878 0.81147 0.22360
 C2633 C 0.91967 0.29311 0.20713
 C2634 C 0.91314 0.28632 0.19423
 C2635 C 0.90016 0.29283 0.18744
 C2636 C 0.89348 0.30628 0.19345
 C2637 C 0.90016 0.31299 0.20647
 C2638 C 0.91314 0.30644 0.21324
 C2639 C 0.93316 0.28649 0.21397
 C2640 C 0.94453 0.28098 0.21959
 H2641 H 0.91812 0.27601 0.18939
 H2642 H 0.89545 0.28729 0.17747
 H2643 H 0.89544 0.32331 0.21148
 H2644 H 0.91813 0.31182 0.22322
 C2645 C 0.91929 0.79355 0.70816
 C2646 C 0.91294 0.78681 0.69514
 C2647 C 0.89987 0.79316 0.68836
 C2648 C 0.89293 0.80641 0.69450
 C2649 C 0.89942 0.81307 0.70765
 C2650 C 0.91249 0.80668 0.71440
 C2651 C 0.93290 0.78710 0.71494
 C2652 C 0.94439 0.78166 0.72039
 H2653 H 0.91812 0.77664 0.69019
 H2654 H 0.89529 0.78765 0.67831
 H2655 H 0.89450 0.82323 0.71276
 H2656 H 0.91733 0.81201 0.72447
 C2657 C 0.58030 0.29133 0.29249
 C2658 C 0.58654 0.30484 0.28649
 C2659 C 0.59947 0.31150 0.29324
 C2660 C 0.60636 0.30472 0.30613
 C2661 C 0.59995 0.29111 0.31205
 C2662 C 0.58703 0.28449 0.30527
 C2663 C 0.56686 0.28462 0.28568
 C2664 C 0.55552 0.27912 0.28003
 H2665 H 0.58139 0.31026 0.27661
 H2666 H 0.60395 0.32196 0.28834
 H2667 H 0.60484 0.28549 0.32190
 H2668 H 0.58228 0.27404 0.31003
 C2669 C 0.57970 0.79122 0.79383
 C2670 C 0.58589 0.80471 0.78773
 C2671 C 0.59890 0.81136 0.79431
 C2672 C 0.60594 0.80461 0.80713
 C2673 C 0.59959 0.79102 0.81315
 C2674 C 0.58658 0.78440 0.80655
 C2675 C 0.56622 0.78448 0.78712
 C2676 C 0.55485 0.77899 0.78151
 H2677 H 0.58062 0.81012 0.77790
 H2678 H 0.60334 0.82181 0.78933
 H2679 H 0.60461 0.78541 0.82295
 H2680 H 0.58187 0.77397 0.81139
 C2681 C 0.07964 0.29156 0.79308
 C2682 C 0.08623 0.30464 0.78656
 C2683 C 0.09919 0.31134 0.79317
 C2684 C 0.10577 0.30504 0.80644
 C2685 C 0.09904 0.29184 0.81288
 C2686 C 0.08607 0.28517 0.80624
 C2687 C 0.06613 0.28486 0.78641
 C2688 C 0.05473 0.27942 0.78082
 H2689 H 0.08131 0.30971 0.77638
 H2690 H 0.10397 0.32145 0.78782
 H2691 H 0.10366 0.28662 0.82307
 H2692 H 0.08104 0.27505 0.81140
 C2693 C 0.07992 0.79112 0.29487
 C2694 C 0.08653 0.78478 0.30797
 C2695 C 0.09972 0.79135 0.31429
 C2696 C 0.10651 0.80438 0.30757
 C2697 C 0.09969 0.81068 0.29441
 C2698 C 0.08652 0.80409 0.28813
 C2699 C 0.06636 0.78440 0.28830
 C2700 C 0.05497 0.77899 0.28266
 H2701 H 0.08150 0.77475 0.31331
 H2702 H 0.10452 0.78618 0.32444
 H2703 H 0.10452 0.82064 0.28884
 H2704 H 0.08148 0.80911 0.27799
 C2705 C 0.58029 0.70806 0.70575
 C2706 C 0.58703 0.71478 0.69291
 C2707 C 0.60019 0.70829 0.68641
 C2708 C 0.60681 0.69492 0.69266
 C2709 C 0.59991 0.68829 0.70562
 C2710 C 0.58676 0.69481 0.71210
 C2711 C 0.56663 0.71461 0.71234
 C2712 C 0.55512 0.71992 0.71788
 H2713 H 0.58210 0.72504 0.68789
 H2714 H 0.60510 0.71379 0.67649
 H2715 H 0.60457 0.67803 0.71080
 H2716 H 0.58161 0.68949 0.72203
 C2717 C 0.58066 0.20720 0.20470
 C2718 C 0.58761 0.19452 0.21166
 C2719 C 0.60089 0.18806 0.20538
 C2720 C 0.60743 0.19420 0.19201
 C2721 C 0.60027 0.20693 0.18508
 C2722 C 0.58700 0.21337 0.19138
 C2723 C 0.56699 0.21380 0.21119
 C2724 C 0.55550 0.21920 0.21669
 H2725 H 0.58278 0.18965 0.22198
 H2726 H 0.60603 0.17834 0.21112
 H2727 H 0.60484 0.21195 0.17475
 H2728 H 0.58168 0.22316 0.18587
 C2729 C 0.08074 0.70810 0.20604
 C2730 C 0.08744 0.71482 0.19317
 C2731 C 0.10050 0.70826 0.18656
 C2732 C 0.10709 0.69483 0.19273
 C2733 C 0.10024 0.68820 0.20572
 C2734 C 0.08718 0.69479 0.21230
 C2735 C 0.06716 0.71473 0.21270
 C2736 C 0.05570 0.72013 0.21825
 H2737 H 0.08254 0.72511 0.18822
 H2738 H 0.10537 0.71377 0.17663
 H2739 H 0.10487 0.67789 0.21082
 H2740 H 0.08206 0.68947 0.22226
 C2741 C 0.08019 0.20777 0.70559
 C2742 C 0.08660 0.19449 0.71194
 C2743 C 0.09971 0.18788 0.70545
 C2744 C 0.10663 0.19447 0.69248
 C2745 C 0.10006 0.20785 0.68621
 C2746 C 0.08695 0.21443 0.69273
 C2747 C 0.06657 0.21443 0.71218
 C2748 C 0.05509 0.21985 0.71769
 H2749 H 0.08144 0.18921 0.72189
 H2750 H 0.10432 0.17760 0.71063
 H2751 H 0.10498 0.21332 0.67628
 H2752 H 0.08207 0.22471 0.68770
 C2753 C 0.41969 0.70699 0.29253
 C2754 C 0.41273 0.69413 0.28596
 C2755 C 0.39962 0.68771 0.29261
 C2756 C 0.39327 0.69406 0.30599
 C2757 C 0.40038 0.70703 0.31246
 C2758 C 0.41348 0.71342 0.30579
 C2759 C 0.43326 0.71351 0.28577
 C2760 C 0.44468 0.71894 0.28017
 H2761 H 0.41746 0.68905 0.27570
 H2762 H 0.39455 0.67779 0.28723
 H2763 H 0.39593 0.71230 0.32271
 H2764 H 0.41879 0.72337 0.31099
 C2765 C 0.41975 0.20532 0.79101
 C2766 C 0.41288 0.19219 0.78488
 C2767 C 0.39974 0.18600 0.79168
 C2768 C 0.39327 0.19285 0.80475
 C2769 C 0.40029 0.20608 0.81078
 C2770 C 0.41342 0.21224 0.80396
 C2771 C 0.43338 0.21164 0.78416
 C2772 C 0.44487 0.21706 0.77871
 H2773 H 0.41770 0.18672 0.77486
 H2774 H 0.39474 0.17583 0.78666
 H2775 H 0.39573 0.21175 0.82077
 H2776 H 0.41866 0.22239 0.80882
 C2777 C 0.91971 0.70613 0.79173
 C2778 C 0.91268 0.69328 0.78523
 C2779 C 0.89959 0.68692 0.79198
 C2780 C 0.89334 0.69334 0.80537
 C2781 C 0.90053 0.70629 0.81178
 C2782 C 0.91361 0.71262 0.80500
 C2783 C 0.93328 0.71258 0.78492
 C2784 C 0.94473 0.71806 0.77945
 H2785 H 0.91733 0.68814 0.77496
 H2786 H 0.89445 0.67699 0.78666
 H2787 H 0.89616 0.71160 0.82205
 H2788 H 0.91898 0.72255 0.81016
 C2789 C 0.92011 0.20642 0.29180
 C2790 C 0.91378 0.21312 0.30486
 C2791 C 0.90074 0.20674 0.31166
 C2792 C 0.89383 0.19351 0.30551
 C2793 C 0.90032 0.18688 0.29234
 C2794 C 0.91336 0.19329 0.28556
 C2795 C 0.93361 0.21296 0.28492
 C2796 C 0.94497 0.21846 0.27927
 H2797 H 0.91893 0.22329 0.30980
 H2798 H 0.89618 0.21223 0.32175
 H2799 H 0.89541 0.17672 0.28722
 H2800 H 0.91820 0.18799 0.27545
 C2801 C 0.29239 0.29429 0.58010
 C2802 C 0.30552 0.28766 0.58652
 C2803 C 0.31207 0.29397 0.59966
 C2804 C 0.30558 0.30705 0.60659
 C2805 C 0.29233 0.31359 0.60002
 C2806 C 0.28581 0.30725 0.58689
 C2807 C 0.28580 0.28787 0.56647
 C2808 C 0.28043 0.28247 0.55498
 H2809 H 0.31073 0.27762 0.58136
 H2810 H 0.32222 0.28855 0.60428
 H2811 H 0.28694 0.32362 0.60494
 H2812 H 0.27565 0.31250 0.58200
 C2813 C 0.29359 0.79364 0.07982
 C2814 C 0.30668 0.78709 0.08640
 C2815 C 0.31315 0.79357 0.09948
 C2816 C 0.30662 0.80674 0.10621
 C2817 C 0.29343 0.81322 0.09947
 C2818 C 0.28699 0.80671 0.08638
 C2819 C 0.28705 0.78702 0.06628
 C2820 C 0.28165 0.78151 0.05487
 H2821 H 0.31192 0.77698 0.08139
 H2822 H 0.32327 0.78821 0.10422
 H2823 H 0.28803 0.82333 0.10422
 H2824 H 0.27686 0.81189 0.08137
 C2825 C 0.79313 0.29258 0.07916
 C2826 C 0.80621 0.28600 0.08572
 C2827 C 0.81276 0.29253 0.09875
 C2828 C 0.80630 0.30578 0.10540
 C2829 C 0.79312 0.31227 0.09866
 C2830 C 0.78661 0.30571 0.08565
 C2831 C 0.78648 0.28596 0.06567
 C2832 C 0.78091 0.28055 0.05431
 H2833 H 0.81137 0.27583 0.08077
 H2834 H 0.82286 0.28716 0.10352
 H2835 H 0.78777 0.32243 0.10335
 H2836 H 0.77648 0.31091 0.08064
 C2837 C 0.79304 0.79321 0.57949
 C2838 C 0.78649 0.80632 0.58600
 C2839 C 0.79300 0.81290 0.59901
 C2840 C 0.80621 0.80645 0.60572
 C2841 C 0.81270 0.79323 0.59904
 C2842 C 0.80616 0.78668 0.58603
 C2843 C 0.78639 0.78655 0.56601
 C2844 C 0.78083 0.78109 0.55466
 H2845 H 0.77634 0.81148 0.58101
 H2846 H 0.78761 0.82303 0.60372
 H2847 H 0.82284 0.78789 0.60378
 H2848 H 0.81135 0.77654 0.58105
 C2849 C 0.29292 0.70800 0.42055
 C2850 C 0.30603 0.71448 0.41398
 C2851 C 0.31259 0.70788 0.40097
 C2852 C 0.30611 0.69466 0.39432
 C2853 C 0.29289 0.68827 0.40106
 C2854 C 0.28636 0.69490 0.41406
 C2855 C 0.28625 0.71468 0.43403
 C2856 C 0.28067 0.72015 0.44539
 H2857 H 0.31122 0.72463 0.41892
 H2858 H 0.32273 0.71318 0.39620
 H2859 H 0.28751 0.67814 0.39639
 H2860 H 0.27621 0.68978 0.41908
 C2861 C 0.29434 0.20899 0.92016
 C2862 C 0.28761 0.19584 0.91393
 C2863 C 0.29393 0.18899 0.90093
 C2864 C 0.30711 0.19519 0.89395
 C2865 C 0.31377 0.20845 0.90034
 C2866 C 0.30742 0.21527 0.91334
 C2867 C 0.28790 0.21585 0.93368
 C2868 C 0.28243 0.22134 0.94508
 H2869 H 0.27749 0.19085 0.91913
 H2870 H 0.28843 0.17884 0.89646
 H2871 H 0.32389 0.21361 0.89539
 H2872 H 0.31275 0.22544 0.91809
 C2873 C 0.79403 0.70788 0.92063
 C2874 C 0.80706 0.71432 0.91385
 C2875 C 0.81342 0.70768 0.90076
 C2876 C 0.80684 0.69445 0.89425
 C2877 C 0.79370 0.68810 0.90118
 C2878 C 0.78737 0.69477 0.91426
 C2879 C 0.78760 0.71458 0.93423
 C2880 C 0.78217 0.72001 0.94569
 H2881 H 0.81234 0.72447 0.91870
 H2882 H 0.82350 0.71295 0.89585
 H2883 H 0.78824 0.67796 0.89660
 H2884 H 0.77729 0.68967 0.91944
 C2885 C 0.79440 0.20831 0.42053
 C2886 C 0.80739 0.21479 0.41373
 C2887 C 0.81373 0.20817 0.40063
 C2888 C 0.80717 0.19492 0.39414
 C2889 C 0.79406 0.18853 0.40110
 C2890 C 0.78775 0.19518 0.41419
 C2891 C 0.78797 0.21497 0.43412
 C2892 C 0.78251 0.22033 0.44557
 H2893 H 0.81264 0.22495 0.41857
 H2894 H 0.82378 0.21348 0.39569
 H2895 H 0.78864 0.17837 0.39655
 H2896 H 0.77770 0.19004 0.41939
 C2897 C 0.70605 0.29082 0.42076
 C2898 C 0.71261 0.30399 0.41438
 C2899 C 0.70623 0.31063 0.40133
 C2900 C 0.69312 0.30419 0.39443
 C2901 C 0.68663 0.29091 0.40098
 C2902 C 0.69305 0.28430 0.41404
 C2903 C 0.71260 0.28412 0.43428
 C2904 C 0.71816 0.27873 0.44568
 H2905 H 0.72267 0.30916 0.41952
 H2906 H 0.71160 0.32080 0.39673
 H2907 H 0.67659 0.28556 0.39609
 H2908 H 0.68786 0.27412 0.41891
 C2909 C 0.70645 0.79157 0.92101
 C2910 C 0.71296 0.80473 0.91456
 C2911 C 0.70649 0.81133 0.90152
 C2912 C 0.69337 0.80486 0.89471
 C2913 C 0.68694 0.79158 0.90131
 C2914 C 0.69344 0.78501 0.91435
 C2915 C 0.71306 0.78489 0.93453
 C2916 C 0.71862 0.77946 0.94591
 H2917 H 0.72303 0.80993 0.91964
 H2918 H 0.71182 0.82151 0.89686
 H2919 H 0.67689 0.78619 0.89648
 H2920 H 0.68829 0.77482 0.91926
 C2921 C 0.20651 0.29247 0.92014
 C2922 C 0.21296 0.30565 0.91367
 C2923 C 0.20647 0.31218 0.90060
 C2924 C 0.19339 0.30561 0.89379
 C2925 C 0.18703 0.29232 0.90042
 C2926 C 0.19354 0.28582 0.91349
 C2927 C 0.21311 0.28587 0.93369
 C2928 C 0.21863 0.28048 0.94511
 H2929 H 0.22299 0.31092 0.91874
 H2930 H 0.21174 0.32238 0.89592
 H2931 H 0.17701 0.28686 0.89560
 H2932 H 0.18844 0.27562 0.91842
 C2933 C 0.20727 0.79340 0.42057
 C2934 C 0.21381 0.80639 0.41382
 C2935 C 0.20727 0.81276 0.40070
 C2936 C 0.19406 0.80621 0.39413
 C2937 C 0.18756 0.79316 0.40107
 C2938 C 0.19412 0.78682 0.41419
 C2939 C 0.21400 0.78687 0.43407
 C2940 C 0.21962 0.78143 0.44542
 H2941 H 0.22399 0.81159 0.41868
 H2942 H 0.21269 0.82273 0.39569
 H2943 H 0.17735 0.78784 0.39648
 H2944 H 0.18893 0.77678 0.41936
 C2945 C 0.70836 0.70710 0.57913
 C2946 C 0.71480 0.69398 0.58575
 C2947 C 0.70813 0.68747 0.59874
 C2948 C 0.69488 0.69400 0.60532
 C2949 C 0.68852 0.70722 0.59853
 C2950 C 0.69522 0.71370 0.58554
 C2951 C 0.71516 0.71371 0.56567
 C2952 C 0.72079 0.71920 0.55435
 H2953 H 0.72498 0.68876 0.58086
 H2954 H 0.71342 0.67733 0.60355
 H2955 H 0.67836 0.71263 0.60317
 H2956 H 0.69012 0.72385 0.58049
 C2957 C 0.70752 0.20731 0.07863
 C2958 C 0.71425 0.19434 0.08527
 C2959 C 0.70782 0.18781 0.09836
 C2960 C 0.69455 0.19417 0.10503
 C2961 C 0.68786 0.20722 0.09823
 C2962 C 0.69431 0.21372 0.08512
 C2963 C 0.71419 0.21399 0.06515
 C2964 C 0.71983 0.21948 0.05384
 H2965 H 0.72449 0.18928 0.08034
 H2966 H 0.71340 0.17787 0.10328
 H2967 H 0.67761 0.21240 0.10292
 H2968 H 0.68899 0.22375 0.08005
 C2969 C 0.20794 0.70845 0.07902
 C2970 C 0.21448 0.69529 0.08545
 C2971 C 0.20788 0.68855 0.09836
 C2972 C 0.19460 0.69490 0.10506
 C2973 C 0.18813 0.70818 0.09846
 C2974 C 0.19476 0.71488 0.08555
 C2975 C 0.21464 0.71530 0.06565
 C2976 C 0.22017 0.72101 0.05439
 H2977 H 0.22468 0.69020 0.08047
 H2978 H 0.21324 0.67838 0.10302
 H2979 H 0.17795 0.71346 0.10318
 H2980 H 0.18958 0.72507 0.08065
 C2981 C 0.20857 0.20691 0.57927
 C2982 C 0.21504 0.19385 0.58597
 C2983 C 0.20835 0.18737 0.59896
 C2984 C 0.19503 0.19386 0.60546
 C2985 C 0.18864 0.20702 0.59859
 C2986 C 0.19536 0.21347 0.58560
 C2987 C 0.21536 0.21350 0.56581
 C2988 C 0.22087 0.21907 0.55447
 H2989 H 0.22526 0.18865 0.58114
 H2990 H 0.21366 0.17727 0.60383
 H2991 H 0.17842 0.21239 0.60315
 H2992 H 0.19023 0.22357 0.58048
   
