data_POSCAR
  _audit_creation_date              2014-09-24
  _audit_creation_method            'ToBaCCo'
  _symmetry_space_group_name_H-M    'P1'
  _symmetry_Int_Tables_number       1
  _symmetry_cell_setting            triclinic
  loop_
  _symmetry_equiv_pos_as_xyz
 x,y,z
_cell_length_a 64.5587
_cell_length_b 63.8931
_cell_length_c 60.8713
_cell_angle_alpha 89.621300
_cell_angle_beta 92.336600
_cell_angle_gamma 91.266400
loop_
  _atom_site_label
  _atom_site_type_symbol
  _atom_site_fract_x
  _atom_site_fract_y
  _atom_site_fract_z
C1 C 0.32241 0.44952 0.92603
 C2 C 0.31474 0.45740 0.90579
 C3 C 0.29696 0.44847 0.89517
 C4 C 0.28677 0.43137 0.90520
 C5 C 0.29426 0.42332 0.92546
 C6 C 0.31217 0.43241 0.93587
 C7 C 0.34049 0.45818 0.93627
 C8 C 0.34873 0.44975 0.95626
 C9 C 0.33825 0.43270 0.96585
 C10 C 0.32009 0.42411 0.95592
 C11 C 0.31005 0.40694 0.96552
 C12 C 0.29246 0.39753 0.95517
 C13 C 0.28444 0.40596 0.93522
 H14 H 0.32278 0.47042 0.89810
 H15 H 0.27343 0.42377 0.89713
 H16 H 0.34827 0.47090 0.92795
 H17 H 0.34433 0.42595 0.98114
 H18 H 0.31631 0.40045 0.98084
 H19 H 0.27061 0.39914 0.92726
 C20 C 0.42960 0.83094 0.42197
 C21 C 0.44328 0.84653 0.43063
 C22 C 0.43787 0.85876 0.44862
 C23 C 0.41785 0.85607 0.45685
 C24 C 0.40391 0.84098 0.44805
 C25 C 0.40984 0.82812 0.43076
 C26 C 0.43545 0.81791 0.40492
 C27 C 0.42187 0.80200 0.39663
 C28 C 0.40207 0.79961 0.40516
 C29 C 0.39603 0.81240 0.42234
 C30 C 0.37657 0.80952 0.43158
 C31 C 0.37071 0.82245 0.44876
 C32 C 0.38420 0.83835 0.45660
 H33 H 0.45848 0.84862 0.42385
 H34 H 0.41260 0.86601 0.46972
 H35 H 0.45053 0.82028 0.39800
 H36 H 0.39155 0.78748 0.39871
 H37 H 0.36599 0.79726 0.42551
 H38 H 0.37959 0.84815 0.46996
 C39 C 0.98914 0.95527 0.80342
 C40 C 0.99841 0.93781 0.79444
 C41 C 0.98953 0.92778 0.77573
 C42 C 0.97186 0.93666 0.76513
 C43 C 0.96239 0.95399 0.77407
 C44 C 0.97086 0.96319 0.79345
 C45 C 0.99728 0.96412 0.82295
 C46 C 0.98706 0.98030 0.83336
 C47 C 0.96893 0.98847 0.82299
 C48 C 0.96074 0.97991 0.80319
 C49 C 0.94210 0.98718 0.79346
 C50 C 0.93330 0.97765 0.77433
 C51 C 0.94388 0.96149 0.76449
 H52 H 1.01209 0.93141 0.80272
 H53 H 0.96466 0.93001 0.75041
 H54 H 1.01118 0.95760 0.83065
 H55 H 0.96079 1.00114 0.83022
 H56 H 0.93447 1.00006 0.80100
 H57 H 0.93718 0.95409 0.74978
 C58 C 0.43526 -0.09407 0.35464
 C59 C 0.44577 -0.10919 0.34315
 C60 C 0.43773 -0.11681 0.32284
 C61 C 0.41877 -0.10903 0.31432
 C62 C 0.40807 -0.09380 0.32571
 C63 C 0.41643 -0.08620 0.34593
 C64 C 0.44345 -0.08669 0.37480
 C65 C 0.43337 -0.07130 0.38637
 C66 C 0.41452 -0.06340 0.37769
 C67 C 0.40596 -0.07081 0.35749
 C68 C 0.38711 -0.06314 0.34871
 C69 C 0.37863 -0.07057 0.32842
 C70 C 0.38922 -0.08602 0.31719
 H71 H 0.46021 -0.11475 0.35031
 H72 H 0.41232 -0.11483 0.29874
 H73 H 0.45793 -0.09286 0.38149
 H74 H 0.40633 -0.05184 0.38670
 H75 H 0.37911 -0.05161 0.35792
 H76 H 0.38279 -0.09193 0.30165
 C77 C 0.85054 0.30864 0.33341
 C78 C 0.84210 0.29998 0.35234
 C79 C 0.82359 0.30744 0.36036
 C80 C 0.81374 0.32423 0.34939
 C81 C 0.82200 0.33304 0.33035
 C82 C 0.84045 0.32517 0.32227
 C83 C 0.86886 0.30084 0.32540
 C84 C 0.87723 0.30907 0.30619
 C85 C 0.86727 0.32585 0.29523
 C86 C 0.84888 0.33391 0.30316
 C87 C 0.83876 0.35051 0.29230
 C88 C 0.82021 0.35837 0.30008
 C89 C 0.81209 0.34963 0.31931
 H90 H 0.84989 0.28718 0.36079
 H91 H 0.79979 0.33068 0.35556
 H92 H 0.87653 0.28807 0.33402
 H93 H 0.87380 0.33287 0.28076
 H94 H 0.84526 0.35730 0.27766
 H95 H 0.79825 0.35579 0.32606
 C96 C -0.17751 0.84234 0.84411
 C97 C -0.18710 0.86066 0.83645
 C98 C -0.18016 0.87150 0.81776
 C99 C -0.16327 0.86330 0.80664
 C100 C -0.15348 0.84500 0.81414
 C101 C -0.16056 0.83459 0.83300
 C102 C -0.18450 0.83172 0.86285
 C103 C -0.17464 0.81347 0.87062
 C104 C -0.15753 0.80620 0.85965
 C105 C -0.15053 0.81650 0.84090
 C106 C -0.13358 0.80892 0.82999
 C107 C -0.12655 0.81889 0.81100
 C108 C -0.13654 0.83706 0.80318
 H109 H -0.20003 0.86658 0.84522
 H110 H -0.15732 0.87089 0.79225
 H111 H -0.19729 0.83798 0.87147
 H112 H -0.14972 0.79231 0.86568
 H113 H -0.12587 0.79505 0.83622
 H114 H -0.13096 0.84530 0.78892
 C115 C 0.91991 0.31461 0.43505
 C116 C 0.93102 0.33103 0.44587
 C117 C 0.94953 0.33938 0.43726
 C118 C 0.95675 0.33075 0.41787
 C119 C 0.94578 0.31460 0.40684
 C120 C 0.92730 0.30650 0.41538
 C121 C 0.90135 0.30638 0.44334
 C122 C 0.89009 0.29028 0.43208
 C123 C 0.89757 0.28260 0.41240
 C124 C 0.91606 0.29049 0.40402
 C125 C 0.92337 0.28276 0.38429
 C126 C 0.94187 0.29068 0.37574
 C127 C 0.95293 0.30675 0.38713
 H128 H 0.92507 0.33707 0.46085
 H129 H 0.97090 0.33690 0.41099
 H130 H 0.89554 0.31292 0.45818
 H131 H 0.88890 0.27038 0.40353
 H132 H 0.91460 0.27054 0.37551
 H133 H 0.96681 0.31369 0.38055
 C134 C 0.41662 0.46221 0.81298
 C135 C 0.42803 0.47156 0.83053
 C136 C 0.44799 0.46458 0.83674
 C137 C 0.45637 0.44807 0.82503
 C138 C 0.44508 0.43847 0.80752
 C139 C 0.42515 0.44561 0.80142
 C140 C 0.39653 0.46879 0.80723
 C141 C 0.38476 0.45897 0.79020
 C142 C 0.39364 0.44286 0.77827
 C143 C 0.41360 0.43595 0.78399
 C144 C 0.42192 0.41912 0.77292
 C145 C 0.44143 0.41140 0.77934
 C146 C 0.45317 0.42149 0.79638
 H147 H 0.42089 0.48379 0.83957
 H148 H 0.47161 0.44241 0.82987
 H149 H 0.38982 0.48132 0.81634
 H150 H 0.38518 0.43557 0.76454
 H151 H 0.41288 0.41148 0.75974
 H152 H 0.46855 0.41621 0.80107
 C153 C 0.82269 0.92396 0.96159
 C154 C 0.81110 0.90794 0.97154
 C155 C 0.79216 0.90047 0.96166
 C156 C 0.78487 0.90988 0.94194
 C157 C 0.79624 0.92598 0.93194
 C158 C 0.81524 0.93305 0.94175
 C159 C 0.84200 0.93052 0.97085
 C160 C 0.85408 0.94615 0.96071
 C161 C 0.84627 0.95529 0.94090
 C162 C 0.82706 0.94876 0.93138
 C163 C 0.81982 0.95724 0.91122
 C164 C 0.80085 0.95020 0.90130
 C165 C 0.78919 0.93462 0.91186
 H166 H 0.81751 0.90105 0.98649
 H167 H 0.77044 0.90434 0.93401
 H168 H 0.84774 0.92323 0.98599
 H169 H 0.85514 0.96696 0.93219
 H170 H 0.82941 0.96874 0.90307
 H171 H 0.77469 0.92895 0.90420
 C172 C 0.35672 0.85020 0.33046
 C173 C 0.34555 0.86664 0.32102
 C174 C 0.32439 0.86881 0.32479
 C175 C 0.31479 0.85488 0.33967
 C176 C 0.32610 0.83867 0.34993
 C177 C 0.34704 0.83613 0.34497
 C178 C 0.37713 0.84696 0.32458
 C179 C 0.38756 0.82924 0.33217
 C180 C 0.37836 0.81573 0.34742
 C181 C 0.35823 0.81923 0.35410
 C182 C 0.34884 0.80566 0.36907
 C183 C 0.32816 0.80824 0.37455
 C184 C 0.31678 0.82475 0.36481
 H185 H 0.35321 0.87725 0.30977
 H186 H 0.29873 0.85654 0.34358
 H187 H 0.38433 0.85727 0.31275
 H188 H 0.38659 0.80210 0.35336
 H189 H 0.35755 0.79285 0.37630
 H190 H 0.30088 0.82708 0.36907
 C191 C 0.81854 0.42408 0.45864
 C192 C 0.80653 0.40723 0.46641
 C193 C 0.78750 0.40150 0.45568
 C194 C 0.78053 0.41314 0.43727
 C195 C 0.79237 0.43001 0.42933
 C196 C 0.81149 0.43546 0.43999
 C197 C 0.83791 0.42913 0.46874
 C198 C 0.85070 0.44516 0.46032
 C199 C 0.84321 0.45674 0.44185
 C200 C 0.82384 0.45188 0.43163
 C201 C 0.81692 0.46280 0.41270
 C202 C 0.79792 0.45745 0.40186
 C203 C 0.78571 0.44096 0.41036
 H204 H 0.81259 0.39826 0.48025
 H205 H 0.76601 0.40872 0.42877
 H206 H 0.84331 0.42007 0.48290
 H207 H 0.85217 0.46949 0.43502
 H208 H 0.82656 0.47525 0.40609
 H209 H 0.77141 0.43593 0.40195
 C210 C 0.94277 0.83722 -0.09623
 C211 C 0.95157 0.85487 -0.08522
 C212 C 0.94375 0.86148 -0.06509
 C213 C 0.92731 0.85006 -0.05606
 C214 C 0.91842 0.83257 -0.06674
 C215 C 0.92603 0.82618 -0.08695
 C216 C 0.95033 0.83045 -0.11636
 C217 C 0.94112 0.81291 -0.12744
 C218 C 0.92419 0.80248 -0.11799
 C219 C 0.91675 0.80880 -0.09789
 C220 C 0.90013 0.79791 -0.08854
 C221 C 0.89277 0.80394 -0.06820
 C222 C 0.90188 0.82150 -0.05751
 H223 H 0.96439 0.86325 -0.09240
 H224 H 0.92123 0.85494 -0.04059
 H225 H 0.96314 0.83909 -0.12323
 H226 H 0.91682 0.78909 -0.12623
 H227 H 0.89298 0.78456 -0.09704
 H228 H 0.89592 0.82695 -0.04225
 C229 C 0.31512 0.30187 0.77410
 C230 C 0.30618 0.31912 0.76319
 C231 C 0.28731 0.32723 0.76983
 C232 C 0.27708 0.31726 0.78718
 C233 C 0.28595 0.30024 0.79839
 C234 C 0.30500 0.29249 0.79187
 C235 C 0.33433 0.29423 0.76802
 C236 C 0.34359 0.27747 0.77971
 C237 C 0.33312 0.26802 0.79703
 C238 C 0.31410 0.27557 0.80340
 C239 C 0.30445 0.26696 0.82168
 C240 C 0.28593 0.27530 0.82883
 C241 C 0.27642 0.29141 0.81666
 H242 H 0.31419 0.32661 0.74983
 H243 H 0.26237 0.32268 0.79246
 H244 H 0.34194 0.30139 0.75425
 H245 H 0.34019 0.25517 0.80609
 H246 H 0.31157 0.25402 0.83047
 H247 H 0.26205 0.29774 0.82207
 C248 C 0.18797 0.52725 0.54554
 C249 C 0.17194 0.51501 0.53570
 C250 C 0.16086 0.52230 0.51695
 C251 C 0.16705 0.54123 0.50709
 C252 C 0.18317 0.55358 0.51667
 C253 C 0.19348 0.54673 0.53619
 C254 C 0.19783 0.52072 0.56519
 C255 C 0.21246 0.53386 0.57640
 C256 C 0.21845 0.55294 0.56663
 C257 C 0.20898 0.55952 0.54662
 C258 C 0.21410 0.57903 0.53732
 C259 C 0.20356 0.58614 0.51800
 C260 C 0.18843 0.57310 0.50761
 H261 H 0.16777 0.50011 0.54306
 H262 H 0.15861 0.54684 0.49252
 H263 H 0.19370 0.50554 0.57190
 H264 H 0.22989 0.56302 0.57507
 H265 H 0.22624 0.58858 0.54525
 H266 H 0.18025 0.57850 0.49279
 C267 C 0.58837 0.70389 0.09747
 C268 C 0.60809 0.71266 0.09364
 C269 C 0.61971 0.70566 0.07616
 C270 C 0.61149 0.68934 0.06275
 C271 C 0.59182 0.68057 0.06624
 C272 C 0.58020 0.68784 0.08362
 C273 C 0.57683 0.71067 0.11510
 C274 C 0.55716 0.70158 0.11899
 C275 C 0.54928 0.68563 0.10505
 C276 C 0.56059 0.67872 0.08743
 C277 C 0.55271 0.66251 0.07384
 C278 C 0.56417 0.65527 0.05628
 C279 C 0.58375 0.66438 0.05275
 H280 H 0.61443 0.72499 0.10426
 H281 H 0.62044 0.68296 0.04983
 H282 H 0.58352 0.72256 0.12595
 H283 H 0.53427 0.67844 0.10805
 H284 H 0.53789 0.65540 0.07749
 H285 H 0.59279 0.65876 0.03945
 C286 C 0.68856 0.17230 0.67357
 C287 C 0.69555 0.18250 0.65463
 C288 C 0.68437 0.19914 0.64491
 C289 C 0.66651 0.20599 0.65501
 C290 C 0.65935 0.19599 0.67397
 C291 C 0.67022 0.17884 0.68301
 C292 C 0.69962 0.15563 0.68320
 C293 C 0.69228 0.14507 0.70197
 C294 C 0.67356 0.15132 0.71060
 C295 C 0.66272 0.16820 0.70153
 C296 C 0.64455 0.17468 0.71094
 C297 C 0.63412 0.19218 0.70266
 C298 C 0.64146 0.20276 0.68404
 H299 H 0.70980 0.17749 0.64777
 H300 H 0.65800 0.21900 0.64791
 H301 H 0.71357 0.15086 0.67558
 H302 H 0.66756 0.14329 0.72485
 H303 H 0.63875 0.16644 0.72515
 H304 H 0.63306 0.21594 0.67719
 C305 C 1.06626 0.04435 0.18861
 C306 C 1.08332 0.03514 0.19988
 C307 C 1.09255 0.04473 0.21881
 C308 C 1.08455 0.06344 0.22638
 C309 C 1.06790 0.07294 0.21522
 C310 C 1.05860 0.06336 0.19639
 C311 C 1.05687 0.03507 0.16961
 C312 C 1.03984 0.04462 0.15839
 C313 C 1.03239 0.06340 0.16671
 C314 C 1.04171 0.07292 0.18532
 C315 C 1.03457 0.09213 0.19274
 C316 C 1.04440 0.10216 0.21100
 C317 C 1.06073 0.09215 0.22241
 H318 H 1.08915 0.02050 0.19407
 H319 H 1.09165 0.07091 0.24085
 H320 H 1.06300 0.02060 0.16381
 H321 H 1.01941 0.07102 0.15833
 H322 H 1.02147 0.09912 0.18410
 H323 H 1.06826 0.09964 0.23664
 C324 C 0.08384 0.15913 1.09182
 C325 C 0.07311 0.14101 1.08418
 C326 C 0.08297 0.12651 1.07081
 C327 C 0.10370 0.13040 1.06549
 C328 C 0.11441 0.14841 1.07273
 C329 C 0.10465 0.16267 1.08627
 C330 C 0.07398 0.17415 1.10432
 C331 C 0.08486 0.19240 1.11146
 C332 C 0.10574 0.19528 1.10658
 C333 C 0.11555 0.18084 1.09365
 C334 C 0.13569 0.18495 1.08682
 C335 C 0.14460 0.17167 1.07184
 C336 C 0.13433 0.15299 1.06552
 H337 H 0.05714 0.13866 1.08846
 H338 H 0.11146 0.11962 1.05500
 H339 H 0.05798 0.17157 1.10856
 H340 H 0.11412 0.20929 1.11215
 H341 H 0.14376 0.19936 1.09172
 H342 H 0.14147 0.14256 1.05421
 C343 C 0.14876 0.65334 0.69181
 C344 C 0.13213 0.66481 0.69914
 C345 C 0.12692 0.68412 0.68940
 C346 C 0.13851 0.69175 0.67177
 C347 C 0.15521 0.68043 0.66421
 C348 C 0.16037 0.66120 0.67432
 C349 C 0.15392 0.63410 0.70165
 C350 C 0.17066 0.62266 0.69441
 C351 C 0.18192 0.63046 0.67666
 C352 C 0.17696 0.64965 0.66671
 C353 C 0.18829 0.65735 0.64911
 C354 C 0.18344 0.67649 0.63893
 C355 C 0.16670 0.68792 0.64654
 H356 H 0.12319 0.65870 0.71255
 H357 H 0.13451 0.70626 0.66358
 H358 H 0.14497 0.62804 0.71508
 H359 H 0.19429 0.62153 0.67013
 H360 H 0.20100 0.64836 0.64328
 H361 H 0.16219 0.70242 0.63866
 C362 C 1.19779 0.15523 0.16538
 C363 C 1.20763 0.13892 0.17688
 C364 C 1.19926 0.13022 0.19594
 C365 C 1.18034 0.13800 0.20306
 C366 C 1.17026 0.15421 0.19154
 C367 C 1.17907 0.16302 0.17270
 C368 C 1.20655 0.16389 0.14669
 C369 C 1.19713 0.18045 0.13513
 C370 C 1.17820 0.18812 0.14233
 C371 C 1.16911 0.17949 0.16114
 C372 C 1.15029 0.18696 0.16864
 C373 C 1.14142 0.17813 0.18751
 C374 C 1.15145 0.16168 0.19862
 H375 H 1.22205 0.13308 0.17099
 H376 H 1.17298 0.13150 0.21726
 H377 H 1.22101 0.15780 0.14120
 H378 H 1.17042 0.20058 0.13342
 H379 H 1.14245 0.19933 0.15958
 H380 H 1.14464 0.15483 0.21308
 C381 C 0.67661 1.07571 0.53997
 C382 C 0.65622 1.07066 0.53251
 C383 C 0.64504 1.05409 0.54211
 C384 C 0.65445 1.04264 0.55956
 C385 C 0.67475 1.04746 0.56716
 C386 C 0.68587 1.06404 0.55735
 C387 C 0.68764 1.09264 0.53079
 C388 C 0.70781 1.09827 0.53906
 C389 C 0.71678 1.08628 0.55624
 C390 C 0.70602 1.06936 0.56543
 C391 C 0.71492 1.05822 0.58317
 C392 C 0.70396 1.04163 0.59312
 C393 C 0.68387 1.03638 0.58492
 H394 H 0.64893 1.07974 0.51933
 H395 H 0.64582 1.03044 0.56785
 H396 H 0.68003 1.10154 0.51779
 H397 H 0.73219 1.09038 0.56286
 H398 H 0.73006 1.06324 0.58959
 H399 H 0.67517 1.02384 0.59268
 C400 C 0.53720 0.57551 0.18964
 C401 C 0.52738 0.57067 0.16928
 C402 C 0.53476 0.55479 0.15596
 C403 C 0.55217 0.54338 0.16361
 C404 C 0.56215 0.54799 0.18402
 C405 C 0.55460 0.56411 0.19706
 C406 C 0.53022 0.59195 0.20245
 C407 C 0.54069 0.59739 0.22246
 C408 C 0.55753 0.58548 0.23000
 C409 C 0.56463 0.56906 0.21740
 C410 C 0.58208 0.55799 0.22459
 C411 C 0.59007 0.54221 0.21167
 C412 C 0.57985 0.53707 0.19142
 H413 H 0.51411 0.57961 0.16356
 H414 H 0.55833 0.53113 0.15382
 H415 H 0.51674 0.60046 0.19665
 H416 H 0.56559 0.58949 0.24544
 H417 H 0.58986 0.56209 0.24016
 H418 H 0.58554 0.52475 0.18133
 C419 C 0.67293 0.70091 0.18461
 C420 C 0.65810 0.71254 0.19504
 C421 C 0.64698 0.70391 0.21233
 C422 C 0.65114 0.68329 0.21939
 C423 C 0.66608 0.67150 0.20913
 C424 C 0.67698 0.68030 0.19159
 C425 C 0.68329 0.70947 0.16686
 C426 C 0.69766 0.69781 0.15570
 C427 C 0.70184 0.67719 0.16274
 C428 C 0.69153 0.66836 0.18068
 C429 C 0.69513 0.64765 0.18756
 C430 C 0.68444 0.63878 0.20529
 C431 C 0.66991 0.65086 0.21582
 H432 H 0.65488 0.72831 0.18934
 H433 H 0.64248 0.67600 0.23231
 H434 H 0.67989 0.72528 0.16144
 H435 H 0.71256 0.66780 0.15407
 H436 H 0.70591 0.63852 0.17869
 H437 H 0.66146 0.64411 0.22928
 C438 C 0.16531 0.06292 1.09465
 C439 C 0.14784 0.05751 1.08136
 C440 C 0.14155 0.07015 1.06327
 C441 C 0.15287 0.08884 1.05932
 C442 C 0.17062 0.09430 1.07239
 C443 C 0.17684 0.08128 1.09017
 C444 C 0.17145 0.04999 1.11230
 C445 C 0.18934 0.05471 1.12542
 C446 C 0.20076 0.07332 1.12095
 C447 C 0.19456 0.08660 1.10349
 C448 C 0.20597 0.10499 1.09894
 C449 C 0.20034 0.11761 1.08082
 C450 C 0.18250 0.11235 1.06777
 H451 H 0.13904 0.04366 1.08580
 H452 H 0.14818 0.09891 1.04567
 H453 H 0.16240 0.03588 1.11557
 H454 H 0.21423 0.07795 1.13101
 H455 H 0.21966 0.10915 1.10903
 H456 H 0.17792 0.12232 1.05401
 C457 C 0.58127 0.17119 0.55394
 C458 C 0.60004 0.18056 0.54760
 C459 C 0.60664 0.20009 0.55628
 C460 C 0.59437 0.21021 0.57116
 C461 C 0.57549 0.20130 0.57728
 C462 C 0.56890 0.18169 0.56877
 C463 C 0.57489 0.15133 0.54615
 C464 C 0.55649 0.14171 0.55321
 C465 C 0.54396 0.15264 0.56749
 C466 C 0.55012 0.17247 0.57541
 C467 C 0.53803 0.18304 0.59027
 C468 C 0.54455 0.20259 0.59888
 C469 C 0.56338 0.21159 0.59220
 H470 H 0.60974 0.17237 0.53652
 H471 H 0.59956 0.22518 0.57795
 H472 H 0.58448 0.14309 0.53498
 H473 H 0.52935 0.14584 0.57243
 H474 H 0.52368 0.17582 0.59552
 H475 H 0.56914 0.22635 0.59878
 C476 C 0.07528 0.56877 0.66493
 C477 C 0.09212 0.55839 0.67507
 C478 C 0.10280 0.56699 0.69366
 C479 C 0.09671 0.58638 0.70165
 C480 C 0.07990 0.59691 0.69171
 C481 C 0.06906 0.58805 0.67333
 C482 C 0.06483 0.56027 0.64628
 C483 C 0.04800 0.57064 0.63593
 C484 C 0.04195 0.58992 0.64440
 C485 C 0.05227 0.59866 0.66311
 C486 C 0.04628 0.61796 0.67160
 C487 C 0.05699 0.62680 0.69010
 C488 C 0.07389 0.61624 0.69982
 H489 H 0.09705 0.54388 0.66808
 H490 H 0.10506 0.59326 0.71575
 H491 H 0.07028 0.54583 0.63959
 H492 H 0.02918 0.59813 0.63638
 H493 H 0.03366 0.62622 0.66344
 H494 H 0.08235 0.62308 0.71387
 C495 C 0.67423 0.57362 0.03817
 C496 C 0.65486 0.56420 0.03292
 C497 C 0.64839 0.54576 0.04379
 C498 C 0.66158 0.53696 0.06008
 C499 C 0.68093 0.54630 0.06559
 C500 C 0.68732 0.56467 0.05459
 C501 C 0.68035 0.59230 0.02781
 C502 C 0.69940 0.60218 0.03359
 C503 C 0.71235 0.59321 0.05014
 C504 C 0.70642 0.57456 0.06065
 C505 C 0.71889 0.56615 0.07779
 C506 C 0.71259 0.54795 0.08892
 C507 C 0.69357 0.53804 0.08261
 H508 H 0.64471 0.57185 0.02097
 H509 H 0.65656 0.52299 0.06876
 H510 H 0.67015 0.59935 0.01539
 H511 H 0.72665 0.60105 0.05561
 H512 H 0.73334 0.57404 0.08284
 H513 H 0.68796 0.52451 0.09156
 C514 C 0.03911 0.66104 0.56439
 C515 C 0.02557 0.67098 0.57817
 C516 C 0.02953 0.69159 0.58500
 C517 C 0.04734 0.70233 0.57785
 C518 C 0.06100 0.69254 0.56405
 C519 C 0.05691 0.67179 0.55723
 C520 C 0.03539 0.64027 0.55831
 C521 C 0.04908 0.62984 0.54509
 C522 C 0.06686 0.64057 0.53774
 C523 C 0.07092 0.66157 0.54386
 C524 C 0.08900 0.67234 0.53752
 C525 C 0.09319 0.69312 0.54448
 C526 C 0.07906 0.70298 0.55767
 H527 H 0.01209 0.66250 0.58398
 H528 H 0.05122 0.71795 0.58370
 H529 H 0.02176 0.63204 0.56410
 H530 H 0.07778 0.63255 0.52791
 H531 H 0.10000 0.66425 0.52785
 H532 H 0.08229 0.71887 0.56322
 C533 C 0.56719 1.08994 0.69156
 C534 C 0.55452 1.07712 0.67790
 C535 C 0.56170 1.05819 0.66970
 C536 C 0.58194 1.05189 0.67612
 C537 C 0.59480 1.06455 0.69007
 C538 C 0.58743 1.08375 0.69763
 C539 C 0.55979 1.10894 0.69909
 C540 C 0.57250 1.12232 0.71235
 C541 C 0.59270 1.11596 0.71851
 C542 C 0.60023 1.09674 0.71129
 C543 C 0.62032 1.09030 0.71750
 C544 C 0.62788 1.07106 0.71034
 C545 C 0.61493 1.05832 0.69649
 H546 H 0.53901 1.08220 0.67326
 H547 H 0.58797 1.03736 0.67040
 H548 H 0.54397 1.11296 0.69471
 H549 H 0.60258 1.12601 0.72893
 H550 H 0.63013 1.10030 0.72805
 H551 H 0.62024 1.04353 0.69060
 C552 C 0.41819 0.33626 0.94891
 C553 C 0.42243 0.35641 0.95738
 C554 C 0.43853 0.36919 0.94924
 C555 C 0.45075 0.36104 0.93268
 C556 C 0.44671 0.34102 0.92412
 C557 C 0.43039 0.32857 0.93217
 C558 C 0.40174 0.32381 0.95666
 C559 C 0.39735 0.30371 0.94785
 C560 C 0.40986 0.29623 0.93134
 C561 C 0.42625 0.30848 0.92339
 C562 C 0.43835 0.30107 0.90652
 C563 C 0.45444 0.31366 0.89811
 C564 C 0.45867 0.33342 0.90732
 H565 H 0.41292 0.36228 0.97018
 H566 H 0.46368 0.36981 0.92632
 H567 H 0.39237 0.33011 0.96923
 H568 H 0.40662 0.28086 0.92439
 H569 H 0.43516 0.28551 0.90014
 H570 H 0.47108 0.34316 0.90100
 C571 C 0.90568 0.42735 0.32521
 C572 C 0.91595 0.43775 0.34274
 C573 C 0.93648 0.43303 0.34923
 C574 C 0.94694 0.41788 0.33720
 C575 C 0.93687 0.40749 0.31933
 C576 C 0.91606 0.41206 0.31357
 C577 C 0.88517 0.43214 0.31904
 C578 C 0.87494 0.42181 0.30124
 C579 C 0.88506 0.40611 0.29024
 C580 C 0.90561 0.40140 0.29606
 C581 C 0.91595 0.38651 0.28426
 C582 C 0.93681 0.38228 0.28929
 C583 C 0.94721 0.39264 0.30706
 H584 H 0.90771 0.44944 0.35161
 H585 H 0.96291 0.41420 0.34123
 H586 H 0.87723 0.44382 0.32815
 H587 H 0.87712 0.39804 0.27660
 H588 H 0.90783 0.37842 0.27074
 H589 H 0.96313 0.38903 0.31158
 C590 C 0.30868 0.96270 0.46247
 C591 C 0.29728 0.97284 0.44558
 C592 C 0.27896 0.96370 0.43640
 C593 C 0.27147 0.94470 0.44516
 C594 C 0.28287 0.93425 0.46179
 C595 C 0.30161 0.94319 0.47044
 C596 C 0.32740 0.97146 0.47090
 C597 C 0.33945 0.96111 0.48726
 C598 C 0.33215 0.94150 0.49520
 C599 C 0.31341 0.93246 0.48675
 C600 C 0.30657 0.91255 0.49381
 C601 C 0.28819 0.90327 0.48475
 C602 C 0.27609 0.91462 0.46928
 H603 H 0.30308 0.98756 0.43901
 H604 H 0.25703 0.93771 0.43889
 H605 H 0.33276 0.98641 0.46443
 H606 H 0.34102 0.93278 0.50744
 H607 H 0.31582 0.90400 0.50597
 H608 H 0.26146 0.90824 0.46278
 O609 O 0.28529 0.47166 0.76571
 O610 O 0.28117 0.50842 0.76454
 O611 O 0.22865 0.45196 0.79741
 O612 O 0.19466 0.45355 0.79011
 O613 O 0.25022 0.41898 0.74102
 O614 O 0.24751 0.42596 0.70227
 O615 O 0.17861 0.50879 0.73399
 O616 O 0.18508 0.50468 0.77311
 O617 O 0.23295 0.53098 0.70839
 O618 O 0.26947 0.52042 0.71098
 O619 O 0.20188 0.47944 0.67994
 O620 O 0.19949 0.44155 0.68913
 O621 O 0.17499 0.48283 0.70867
 O622 O 0.17810 0.44433 0.71205
 O623 O 0.22938 0.50230 0.67949
 O624 O 0.26694 0.49739 0.68857
 O625 O 0.20813 0.53349 0.73365
 O626 O 0.21260 0.52935 0.77119
 O627 O 0.28169 0.44579 0.74023
 O628 O 0.27279 0.44732 0.70158
 O629 O 0.22622 0.42157 0.76717
 O630 O 0.18965 0.43290 0.76256
 O631 O 0.25726 0.47337 0.79683
 O632 O 0.25941 0.51114 0.78761
 Zr633 Zr 0.25634 0.48630 0.76479
 O634 O 0.23983 0.50756 0.74452
 Zr635 Zr 0.21628 0.45283 0.76496
 O636 O 0.19788 0.47282 0.74494
 Zr637 Zr 0.25143 0.44905 0.72689
 O638 O 0.23463 0.46861 0.70509
 Zr639 Zr 0.20794 0.50403 0.74918
 O640 O 0.22457 0.48442 0.77166
 Zr641 Zr 0.24320 0.50001 0.71132
 O642 O 0.26179 0.48026 0.73155
 Zr643 Zr 0.20295 0.46651 0.71178
 O644 O 0.21954 0.44486 0.73182
 O645 O 0.24790 0.45509 0.76001
 O646 O 0.21146 0.49787 0.71604
 C647 C 0.29224 0.45628 0.75487
 C648 C 0.24487 0.46065 0.80660
 C649 C 0.23950 0.41130 0.75660
 C650 C 0.16860 0.49916 0.71829
 C651 C 0.21895 0.54100 0.71807
 C652 C 0.21336 0.49310 0.67041
 H653 H 0.24466 0.52201 0.74796
 H654 H 0.23723 0.46457 0.68983
 H655 H 0.25616 0.44570 0.76975
 H656 H 0.18312 0.47108 0.74844
 H657 H 0.19166 0.49947 0.78701
 H658 H 0.18466 0.46455 0.78605
 H659 H 0.26337 0.48531 0.67895
 H660 H 0.28113 0.46051 0.70214
 H661 H 0.21939 0.52363 0.78469
 H662 H 0.24824 0.50929 0.79816
 H663 H 0.21172 0.44191 0.67985
 H664 H 0.23320 0.42023 0.70327
 H665 H 0.28690 0.50781 0.74972
 H666 H 0.26912 0.52961 0.72397
 H667 H 0.19093 0.42427 0.74925
 H668 H 0.16987 0.44718 0.72501
 O669 O 0.28543 -0.00677 0.31718
 O670 O 0.27420 0.02978 0.31637
 O671 O 0.22847 -0.04015 0.32795
 O672 O 0.19652 -0.04253 0.31116
 O673 O 0.26914 -0.05913 0.27846
 O674 O 0.27397 -0.04687 0.24063
 O675 O 0.18243 0.01335 0.25881
 O676 O 0.18076 0.00514 0.29760
 O677 O 0.23521 0.05026 0.25199
 O678 O 0.27299 0.04652 0.26738
 O679 O 0.22388 0.00171 0.21204
 O680 O 0.23062 -0.03815 0.21586
 O681 O 0.19137 -0.00774 0.23092
 O682 O 0.20252 -0.04317 0.22952
 O683 O 0.24727 0.02734 0.22217
 O684 O 0.28031 0.02974 0.24062
 O685 O 0.20565 0.04413 0.27031
 O686 O 0.19958 0.03301 0.30702
 O687 O 0.29360 -0.02808 0.28912
 O688 O 0.29469 -0.02207 0.25035
 O689 O 0.23937 -0.06518 0.29649
 O690 O 0.20405 -0.06149 0.28192
 O691 O 0.25005 -0.01281 0.33774
 O692 O 0.24751 0.02381 0.33381
 Zr693 Zr 0.25512 0.00338 0.30834
 O694 O 0.23906 0.02382 0.28678
 Zr695 Zr 0.22374 -0.03668 0.29363
 O696 O 0.20681 -0.01807 0.27083
 Zr697 Zr 0.26737 -0.02781 0.26763
 O698 O 0.25265 -0.00827 0.24407
 Zr699 Zr 0.20819 0.01314 0.28132
 O700 O 0.22345 -0.00571 0.30538
 Zr701 Zr 0.25218 0.02253 0.25593
 O702 O 0.26968 0.00357 0.27805
 Zr703 Zr 0.22128 -0.01741 0.24040
 O704 O 0.23655 -0.03849 0.26239
 O705 O 0.25464 -0.02757 0.29839
 O706 O 0.22115 0.01358 0.25057
 C707 C 0.29775 -0.01915 0.30768
 C708 C 0.23930 -0.02934 0.34221
 C709 C 0.25707 -0.07073 0.28995
 C710 C 0.17878 0.00437 0.24012
 C711 C 0.21742 0.05565 0.25859
 C712 C 0.23480 0.01835 0.20815
 H713 H 0.23983 0.03817 0.29275
 H714 H 0.25982 -0.00902 0.23007
 H715 H 0.26204 -0.03648 0.30934
 H716 H 0.19234 -0.02340 0.26936
 H717 H 0.18506 -0.00187 0.31156
 H718 H 0.18476 -0.03634 0.30266
 H719 H 0.28410 0.01719 0.23238
 H720 H 0.29990 -0.00796 0.25476
 H721 H 0.21183 0.04169 0.31165
 H722 H 0.23246 0.02174 0.33585
 H723 H 0.24215 -0.03134 0.20808
 H724 H 0.26151 -0.05585 0.23759
 H725 H 0.28479 0.03078 0.30507
 H726 H 0.26546 0.05578 0.27711
 H727 H 0.21015 -0.06689 0.26847
 H728 H 0.19268 -0.04638 0.24117
 O729 O 0.55544 0.71400 0.27334
 O730 O 0.54232 0.70832 0.30819
 O731 O 0.50133 0.70190 0.23071
 O732 O 0.47039 0.71532 0.22378
 O733 O 0.54188 0.75616 0.21965
 O734 O 0.54591 0.78913 0.23612
 O735 O 0.44884 0.75369 0.28709
 O736 O 0.45031 0.71872 0.28014
 O737 O 0.50114 0.76432 0.33250
 O738 O 0.53762 0.75929 0.33149
 O739 O 0.48889 0.80699 0.28056
 O740 O 0.49451 0.80782 0.24184
 O741 O 0.45853 0.78510 0.27246
 O742 O 0.47052 0.78766 0.23164
 O743 O 0.50780 0.79709 0.31105
 O744 O 0.54577 0.78384 0.31198
 O745 O 0.47064 0.74895 0.32066
 O746 O 0.47182 0.70975 0.30737
 O747 O 0.56437 0.74338 0.25423
 O748 O 0.56255 0.78053 0.26498
 O749 O 0.51405 0.73579 0.20867
 O750 O 0.47626 0.74580 0.21125
 O751 O 0.52169 0.69155 0.26004
 O752 O 0.51484 0.69218 0.29948
 Zr753 Zr 0.52428 0.71824 0.28045
 O754 O 0.50692 0.73553 0.30229
 Zr755 Zr 0.49576 0.73342 0.23672
 O756 O 0.47608 0.75003 0.25678
 Zr757 Zr 0.53738 0.76149 0.25307
 O758 O 0.51943 0.78054 0.27269
 Zr759 Zr 0.47660 0.73762 0.28891
 O760 O 0.49347 0.71881 0.26781
 Zr761 Zr 0.51806 0.76671 0.30395
 O762 O 0.53751 0.74851 0.28492
 Zr763 Zr 0.48841 0.78051 0.26054
 O764 O 0.50725 0.76439 0.23885
 O765 O 0.52604 0.73099 0.24909
 O766 O 0.48751 0.76829 0.29214
 C767 C 0.56840 0.72539 0.26288
 C768 C 0.51190 0.68821 0.24148
 C769 C 0.53137 0.74542 0.20519
 C770 C 0.44560 0.77284 0.28209
 C771 C 0.48226 0.75864 0.33519
 C772 C 0.49631 0.81007 0.30016
 H773 H 0.50728 0.72875 0.31694
 H774 H 0.52552 0.79486 0.27335
 H775 H 0.53455 0.72244 0.23958
 H776 H 0.46186 0.74986 0.25009
 H777 H 0.45510 0.70775 0.27025
 H778 H 0.45942 0.71601 0.23459
 H779 H 0.54503 0.79758 0.30442
 H780 H 0.56760 0.77423 0.27904
 H781 H 0.47697 0.71216 0.32269
 H782 H 0.50099 0.68765 0.29348
 H783 H 0.50883 0.81260 0.24587
 H784 H 0.53333 0.79359 0.22766
 H785 H 0.55055 0.72073 0.31333
 H786 H 0.53466 0.74451 0.33539
 H787 H 0.48335 0.75851 0.20560
 H788 H 0.45680 0.78058 0.23265
 O789 O 0.05102 0.74313 0.71993
 O790 O 0.04691 0.74729 0.75920
 O791 O -0.00752 0.71700 0.69877
 O792 O -0.04064 0.72520 0.69933
 O793 O 0.01940 0.76887 0.66255
 O794 O 0.02364 0.80495 0.66836
 O795 O -0.05158 0.78242 0.75385
 O796 O -0.04969 0.74542 0.75290
 O797 O 0.00453 0.80666 0.77682
 O798 O 0.03835 0.79904 0.77082
 O799 O -0.02254 0.83076 0.71935
 O800 O -0.02606 0.81995 0.68107
 O801 O -0.05222 0.80542 0.72518
 O802 O -0.04924 0.79857 0.68451
 O803 O 0.00426 0.83140 0.74483
 O804 O 0.04037 0.82079 0.73832
 O805 O -0.02189 0.78287 0.78056
 O806 O -0.02267 0.74382 0.77655
 O807 O 0.05124 0.76669 0.69174
 O808 O 0.04719 0.80496 0.69254
 O809 O -0.00680 0.74472 0.66571
 O810 O -0.04304 0.75133 0.67634
 O811 O 0.02028 0.71686 0.72302
 O812 O 0.02128 0.72716 0.76194
 Zr813 Zr 0.02265 0.74790 0.73480
 O814 O 0.00836 0.76949 0.75507
 Zr815 Zr -0.01678 0.74833 0.69805
 O816 O -0.03334 0.76897 0.71736
 Zr817 Zr 0.02287 0.78230 0.69380
 O818 O 0.00755 0.80473 0.71184
 Zr819 Zr -0.02392 0.76623 0.75069
 O820 O -0.00974 0.74315 0.73180
 Zr821 Zr 0.01507 0.80043 0.74536
 O822 O 0.03214 0.77889 0.72718
 Zr823 Zr -0.02476 0.79973 0.70875
 O824 O -0.00951 0.77911 0.68809
 O825 O 0.01524 0.75149 0.70152
 O826 O -0.01703 0.79706 0.74212
 C827 C 0.05935 0.75176 0.70320
 C828 C 0.00758 0.70786 0.70900
 C829 C 0.00726 0.75433 0.65483
 C830 C -0.05978 0.79745 0.74265
 C831 C -0.01026 0.79826 0.78757
 C832 C -0.01043 0.84015 0.73344
 H833 H 0.01313 0.76727 0.77053
 H834 H 0.01192 0.81883 0.70676
 H835 H 0.02228 0.74142 0.69223
 H836 H -0.04843 0.76627 0.71532
 H837 H -0.04567 0.73206 0.74630
 H838 H -0.05077 0.73019 0.70975
 H839 H 0.04152 0.83160 0.74994
 H840 H 0.05629 0.80284 0.70581
 H841 H -0.00984 0.74645 0.78563
 H842 H 0.00726 0.72054 0.76125
 H843 H -0.01265 0.82771 0.68074
 H844 H 0.00920 0.80616 0.66245
 H845 H 0.05642 0.75919 0.75608
 H846 H 0.05055 0.79274 0.76437
 H847 H -0.04006 0.76318 0.66632
 H848 H -0.05989 0.78840 0.68944
 O849 O -0.05110 0.00794 -0.02894
 O850 O -0.04435 0.04229 -0.01482
 O851 O 0.00358 -0.00305 -0.06433
 O852 O 0.03763 -0.00477 -0.05737
 O853 O -0.02072 -0.05064 -0.02091
 O854 O -0.01891 -0.05516 0.01819
 O855 O 0.05774 0.03121 0.01291
 O856 O 0.05177 0.03889 -0.02486
 O857 O 0.00468 0.04641 0.04506
 O858 O -0.03244 0.03745 0.03980
 O859 O 0.03252 -0.01145 0.05589
 O860 O 0.03106 -0.04518 0.03620
 O861 O 0.05894 -0.00099 0.02901
 O862 O 0.05208 -0.03725 0.01358
 O863 O 0.00740 0.01154 0.06330
 O864 O -0.03134 0.00867 0.05404
 O865 O 0.02985 0.05494 0.02131
 O866 O 0.02652 0.06097 -0.01921
 O867 O -0.05061 -0.02389 -0.01191
 O868 O -0.04212 -0.03419 0.02547
 O869 O 0.00356 -0.04108 -0.04535
 O870 O 0.04059 -0.03299 -0.03741
 O871 O -0.02252 0.01889 -0.05697
 O872 O -0.02129 0.05112 -0.03665
 Zr873 Zr -0.02129 0.02083 -0.02246
 O874 O -0.00337 0.03467 0.00340
 Zr875 Zr 0.01584 -0.01233 -0.03337
 O876 O 0.03567 0.00036 -0.00825
 Zr877 Zr -0.02019 -0.02588 0.00190
 O878 O -0.00184 -0.01415 0.02877
 Zr879 Zr 0.02819 0.03163 -0.00275
 O880 O 0.01026 0.01985 -0.02993
 Zr881 Zr -0.00763 0.01782 0.03269
 O882 O -0.02770 0.00553 0.00734
 Zr883 Zr 0.02971 -0.01508 0.02152
 O884 O 0.01142 -0.02937 -0.00415
 O885 O -0.01560 -0.01059 -0.02778
 O886 O 0.02385 0.01627 0.02699
 C887 C -0.05971 -0.00948 -0.02333
 C888 C -0.01140 0.00896 -0.07028
 C889 C -0.01035 -0.05378 -0.03818
 C890 C 0.06680 0.01718 0.02480
 C891 C 0.01975 0.05809 0.03869
 C892 C 0.02292 0.00017 0.06907
 H893 H -0.00725 0.04945 0.00486
 H894 H -0.00479 -0.02227 0.04219
 H895 H -0.02439 -0.01644 -0.04005
 H896 H 0.05031 -0.00072 -0.01223
 H897 H 0.04577 0.03623 -0.03984
 H898 H 0.04931 0.00292 -0.04986
 H899 H -0.02761 -0.00493 0.06079
 H900 H -0.04880 -0.02106 0.02957
 H901 H 0.01475 0.06869 -0.01359
 H902 H -0.00763 0.05324 -0.04325
 H903 H 0.01865 -0.04716 0.04505
 H904 H -0.00477 -0.06039 0.01635
 H905 H -0.05081 0.03691 -0.00137
 H906 H -0.03167 0.04981 0.02998
 H907 H 0.03847 -0.04494 -0.02725
 H908 H 0.06153 -0.03055 0.00311
 O909 O 0.06674 0.49309 0.50020
 O910 O 0.06096 0.48635 0.46216
 O911 O 0.02069 0.53824 0.51223
 O912 O -0.01637 0.53856 0.50701
 O913 O 0.02981 0.48758 0.55705
 O914 O 0.01995 0.45148 0.55672
 O915 O -0.04432 0.48490 0.46092
 O916 O -0.02811 0.51859 0.45512
 O917 O 0.00274 0.44275 0.44571
 O918 O 0.03810 0.43736 0.45955
 O919 O -0.03283 0.43323 0.50143
 O920 O -0.03157 0.44753 0.53850
 O921 O -0.05231 0.46628 0.49151
 O922 O -0.04583 0.47474 0.53169
 O923 O -0.00747 0.42260 0.47949
 O924 O 0.03132 0.42179 0.48717
 O925 O -0.01610 0.47148 0.43695
 O926 O -0.00434 0.50974 0.43730
 O927 O 0.05958 0.47480 0.53130
 O928 O 0.04255 0.44090 0.53593
 O929 O 0.01239 0.51725 0.54810
 O930 O -0.02336 0.52099 0.53523
 O931 O 0.04622 0.52793 0.49027
 O932 O 0.04388 0.51286 0.45394
 Zr933 Zr 0.03807 0.49639 0.48337
 O934 O 0.01712 0.47806 0.46393
 Zr935 Zr 0.00109 0.51189 0.51554
 O936 O -0.02172 0.49477 0.49710
 Zr937 Zr 0.02723 0.46913 0.52846
 O938 O 0.00529 0.44994 0.51107
 Zr939 Zr -0.01238 0.49107 0.46467
 O940 O 0.00906 0.51078 0.48234
 Zr941 Zr 0.01354 0.44819 0.47815
 O942 O 0.03671 0.46561 0.49602
 Zr943 Zr -0.02383 0.46414 0.50966
 O944 O -0.00249 0.48196 0.52972
 O945 O 0.03045 0.49929 0.51602
 O946 O -0.01601 0.46078 0.47700
 C947 C 0.07215 0.48423 0.51847
 C948 C 0.03746 0.54162 0.50195
 C949 C 0.02323 0.50586 0.56155
 C950 C -0.05714 0.47498 0.47293
 C951 C -0.00894 0.45341 0.43256
 C952 C -0.02469 0.41971 0.48910
 H953 H 0.02215 0.47734 0.44884
 H954 H 0.00462 0.43596 0.51806
 H955 H 0.04088 0.50778 0.52460
 H956 H -0.03504 0.50206 0.49759
 H957 H -0.03599 0.52310 0.46779
 H958 H -0.01329 0.54209 0.49160
 H959 H 0.02528 0.41525 0.50029
 H960 H 0.05015 0.43728 0.52273
 H961 H 0.00627 0.50231 0.42927
 H962 H 0.03243 0.52278 0.45159
 H963 H -0.02090 0.43688 0.54138
 H964 H 0.00601 0.45584 0.56082
 H965 H 0.06389 0.47166 0.46625
 H966 H 0.04104 0.44811 0.44826
 H967 H -0.02585 0.50931 0.54562
 H968 H -0.05191 0.48766 0.52544
 O969 O 0.47726 -0.03054 0.47412
 O970 O 0.51451 -0.02879 0.47294
 O971 O 0.46737 -0.06665 0.53188
 O972 O 0.47723 -0.06496 0.56780
 O973 O 0.43387 -0.01098 0.51930
 O974 O 0.44271 0.02591 0.52461
 O975 O 0.53576 -0.01404 0.58180
 O976 O 0.52871 -0.04990 0.57334
 O977 O 0.54805 0.01729 0.52504
 O978 O 0.53020 0.01946 0.48761
 O979 O 0.50393 0.04096 0.56619
 O980 O 0.46790 0.03204 0.57376
 O981 O 0.51236 0.01018 0.59090
 O982 O 0.47353 0.00710 0.59323
 O983 O 0.52155 0.04464 0.53476
 O984 O 0.51015 0.04139 0.49598
 O985 O 0.55399 -0.01150 0.54638
 O986 O 0.54522 -0.04838 0.54213
 O987 O 0.45396 -0.00602 0.48285
 O988 O 0.45860 0.02956 0.49495
 O989 O 0.44014 -0.03856 0.54233
 O990 O 0.45786 -0.03892 0.57864
 O991 O 0.48395 -0.06280 0.49973
 O992 O 0.52007 -0.05470 0.49390
 Zr993 Zr 0.49766 -0.03262 0.50180
 O994 O 0.52229 -0.01585 0.51763
 Zr995 Zr 0.47252 -0.03790 0.54813
 O996 O 0.49624 -0.02151 0.56614
 Zr997 Zr 0.46351 0.00287 0.51504
 O998 O 0.48672 0.02115 0.53162
 Zr999 Zr 0.52452 -0.02478 0.55090
 O1000 O 0.50137 -0.04348 0.53447
 Zr1001 Zr 0.51567 0.01619 0.51805
 O1002 O 0.49196 -0.00030 0.49969
 Zr1003 Zr 0.49048 0.01072 0.56433
 O1004 O 0.46541 -0.00590 0.54845
 O1005 O 0.46903 -0.02896 0.51538
 O1006 O 0.51937 0.00733 0.55092
 C1007 C 0.46113 -0.01954 0.46979
 C1008 C 0.47260 -0.07323 0.51301
 C1009 C 0.42796 -0.02709 0.53046
 C1010 C 0.52909 -0.00005 0.59462
 C1011 C 0.56008 0.00498 0.53619
 C1012 C 0.51555 0.05141 0.55325
 H1013 H 0.53519 -0.01847 0.51000
 H1014 H 0.48283 0.03601 0.53075
 H1015 H 0.45791 -0.03704 0.50737
 H1016 H 0.49723 -0.02665 0.58149
 H1017 H 0.52029 -0.06187 0.56739
 H1018 H 0.48795 -0.06140 0.57932
 H1019 H 0.49829 0.04920 0.50127
 H1020 H 0.46999 0.03006 0.48453
 H1021 H 0.54937 -0.04562 0.52691
 H1022 H 0.52215 -0.06375 0.50703
 H1023 H 0.46508 0.04154 0.56115
 H1024 H 0.43923 0.02259 0.53995
 H1025 H 0.51250 -0.01418 0.46794
 H1026 H 0.53957 0.00755 0.48614
 H1027 H 0.45048 -0.02560 0.57997
 H1028 H 0.47851 -0.00552 0.60111
 O1029 O 0.52636 0.51093 0.04594
 O1030 O 0.52511 0.47706 0.03068
 O1031 O 0.54779 0.54773 -0.00945
 O1032 O 0.53658 0.55861 -0.04160
 O1033 O 0.49575 0.56846 0.03001
 O1034 O 0.46045 0.55830 0.03057
 O1035 O 0.48556 0.50322 -0.07076
 O1036 O 0.52170 0.50821 -0.06733
 O1037 O 0.46793 0.46412 -0.02008
 O1038 O 0.47219 0.46377 0.01905
 O1039 O 0.43646 0.52052 -0.03337
 O1040 O 0.44271 0.55668 -0.02522
 O1041 O 0.46067 0.52667 -0.06399
 O1042 O 0.46436 0.56365 -0.04756
 O1043 O 0.43960 0.49031 -0.01368
 O1044 O 0.45177 0.48587 0.02683
 O1045 O 0.48977 0.47085 -0.04777
 O1046 O 0.52728 0.48041 -0.04656
 O1047 O 0.50114 0.53375 0.05375
 O1048 O 0.46345 0.53011 0.04792
 O1049 O 0.51872 0.57503 0.00331
 O1050 O 0.50904 0.57472 -0.03767
 O1051 O 0.55152 0.51923 0.01288
 O1052 O 0.54389 0.48272 0.00414
 Zr1053 Zr 0.52167 0.50496 0.01217
 O1054 O 0.50141 0.48776 -0.00919
 Zr1055 Zr 0.51600 0.54857 -0.01735
 O1056 O 0.49649 0.53293 -0.04080
 Zr1057 Zr 0.48461 0.53795 0.02340
 O1058 O 0.46299 0.52290 0.00156
 Zr1059 Zr 0.50257 0.50078 -0.04087
 O1060 O 0.52433 0.51692 -0.01995
 Zr1061 Zr 0.47044 0.49118 -0.00056
 O1062 O 0.49106 0.50584 0.02292
 Zr1063 Zr 0.46594 0.53465 -0.03059
 O1064 O 0.48529 0.55194 -0.00803
 O1065 O 0.51530 0.53657 0.01443
 O1066 O 0.47173 0.50278 -0.03252
 C1067 C 0.51685 0.52250 0.05925
 C1068 C 0.55870 0.53542 0.00276
 C1069 C 0.50924 0.58011 0.02063
 C1070 C 0.46960 0.51387 -0.07656
 C1071 C 0.47667 0.45914 -0.03784
 C1072 C 0.42928 0.50309 -0.02612
 H1073 H 0.50540 0.47293 -0.00880
 H1074 H 0.44884 0.52472 0.00676
 H1075 H 0.52525 0.54392 0.02467
 H1076 H 0.49823 0.53915 -0.05554
 H1077 H 0.53429 0.51533 -0.06090
 H1078 H 0.53369 0.54960 -0.05455
 H1079 H 0.44069 0.49633 0.02631
 H1080 H 0.46640 0.51558 0.05263
 H1081 H 0.52657 0.46863 -0.03599
 H1082 H 0.54952 0.48725 -0.01005
 H1083 H 0.43696 0.55348 -0.01073
 H1084 H 0.45833 0.56737 0.01747
 H1085 H 0.51201 0.47479 0.03835
 H1086 H 0.48599 0.45779 0.01715
 H1087 H 0.49794 0.58242 -0.03067
 H1088 H 0.47337 0.56297 -0.06029
 O1089 O 0.80355 0.25647 0.47310
 O1090 O 0.79515 0.22059 0.46507
 O1091 O 0.75062 0.28848 0.44669
 O1092 O 0.71661 0.28862 0.45133
 O1093 O 0.77607 0.30272 0.51202
 O1094 O 0.77328 0.28558 0.54703
 O1095 O 0.69278 0.22305 0.48686
 O1096 O 0.69996 0.23641 0.45167
 O1097 O 0.74252 0.18933 0.50944
 O1098 O 0.78123 0.19605 0.51155
 O1099 O 0.71994 0.23433 0.55061
 O1100 O 0.72150 0.27191 0.55249
 O1101 O 0.69322 0.23957 0.51986
 O1102 O 0.70138 0.27865 0.52716
 O1103 O 0.74373 0.20932 0.54537
 O1104 O 0.78130 0.21148 0.54024
 O1105 O 0.71886 0.19624 0.48177
 O1106 O 0.72375 0.21278 0.44543
 O1107 O 0.80405 0.27427 0.50538
 O1108 O 0.79539 0.26235 0.54198
 O1109 O 0.75218 0.30957 0.48452
 O1110 O 0.71443 0.30150 0.48425
 O1111 O 0.77543 0.26426 0.44219
 O1112 O 0.77228 0.22640 0.44018
 Zr1113 Zr 0.77317 0.24409 0.46945
 O1114 O 0.75385 0.22014 0.48166
 Zr1115 Zr 0.73800 0.28035 0.47702
 O1116 O 0.71691 0.25787 0.48917
 Zr1117 Zr 0.77361 0.27005 0.51649
 O1118 O 0.75393 0.24746 0.53074
 Zr1119 Zr 0.72279 0.22842 0.47602
 O1120 O 0.74206 0.25136 0.46157
 Zr1121 Zr 0.75790 0.21823 0.51602
 O1122 O 0.77939 0.24040 0.50347
 Zr1123 Zr 0.72271 0.25437 0.52323
 O1124 O 0.74243 0.27858 0.51146
 O1125 O 0.76902 0.27345 0.48274
 O1126 O 0.72680 0.22490 0.51002
 C1127 C 0.81266 0.26802 0.48796
 C1128 C 0.76534 0.28057 0.43606
 C1129 C 0.76663 0.31521 0.49856
 C1130 C 0.68443 0.22802 0.50477
 C1131 C 0.72761 0.18391 0.49581
 C1132 C 0.72934 0.21749 0.55628
 H1133 H 0.75693 0.20675 0.47462
 H1134 H 0.75698 0.24704 0.54677
 H1135 H 0.77831 0.28424 0.47644
 H1136 H 0.70250 0.26199 0.48556
 H1137 H 0.70676 0.24604 0.44122
 H1138 H 0.70432 0.27922 0.45243
 H1139 H 0.78063 0.22209 0.55193
 H1140 H 0.80214 0.24941 0.53739
 H1141 H 0.73518 0.20272 0.44631
 H1142 H 0.75901 0.22957 0.43226
 H1143 H 0.73471 0.26983 0.56095
 H1144 H 0.75987 0.29278 0.54728
 H1145 H 0.80092 0.21705 0.47992
 H1146 H 0.77882 0.18977 0.49684
 H1147 H 0.71698 0.30595 0.49969
 H1148 H 0.69078 0.27773 0.51497
 O1149 O 0.75947 0.78809 -0.03866
 O1150 O 0.72411 0.78302 -0.02963
 O1151 O 0.78806 0.80644 0.02365
 O1152 O 0.79248 0.79330 0.05718
 O1153 O 0.81590 0.76053 -0.01699
 O1154 O 0.80954 0.72392 -0.02271
 O1155 O 0.74082 0.73516 0.06925
 O1156 O 0.74337 0.77225 0.07146
 O1157 O 0.70989 0.72091 0.01040
 O1158 O 0.71422 0.72891 -0.02778
 O1159 O 0.76654 0.69107 0.02828
 O1160 O 0.80259 0.70106 0.02833
 O1161 O 0.76627 0.71209 0.06332
 O1162 O 0.80408 0.71981 0.05497
 O1163 O 0.73843 0.69463 0.00492
 O1164 O 0.73801 0.71027 -0.03383
 O1165 O 0.71123 0.73990 0.04192
 O1166 O 0.71752 0.77751 0.04736
 O1167 O 0.78503 0.76519 -0.04505
 O1168 O 0.78381 0.72692 -0.04510
 O1169 O 0.81784 0.77992 0.01429
 O1170 O 0.81300 0.76727 0.05289
 O1171 O 0.76186 0.81029 -0.00217
 O1172 O 0.72540 0.80003 -0.00009
 Zr1173 Zr 0.74966 0.77973 -0.00713
 O1174 O 0.73176 0.75642 0.00826
 Zr1175 Zr 0.78919 0.77401 0.02909
 O1176 O 0.77257 0.75104 0.04665
 Zr1177 Zr 0.78649 0.74596 -0.01681
 O1178 O 0.77063 0.72134 -0.00110
 Zr1179 Zr 0.74051 0.75513 0.04183
 O1180 O 0.75710 0.78002 0.02691
 Zr1181 Zr 0.73865 0.72670 -0.00370
 O1182 O 0.75441 0.75037 -0.02148
 Zr1183 Zr 0.77797 0.72170 0.03289
 O1184 O 0.79620 0.74449 0.01662
 O1185 O 0.78139 0.77544 -0.00429
 O1186 O 0.74596 0.72536 0.02989
 C1187 C 0.77364 0.78082 -0.05052
 C1188 C 0.77675 0.81756 0.01048
 C1189 C 0.82529 0.77343 -0.00367
 C1190 C 0.75160 0.71913 0.07466
 C1191 C 0.70205 0.72726 0.02815
 C1192 C 0.75066 0.68370 0.01739
 H1193 H 0.71693 0.75955 0.00577
 H1194 H 0.77421 0.70793 -0.00784
 H1195 H 0.78917 0.78669 -0.01184
 H1196 H 0.77669 0.75157 0.06246
 H1197 H 0.74958 0.78607 0.06775
 H1198 H 0.78425 0.78664 0.06877
 H1199 H 0.74949 0.70026 -0.03319
 H1200 H 0.76981 0.72915 -0.05182
 H1201 H 0.70802 0.77799 0.03423
 H1202 H 0.72786 0.80453 0.01535
 H1203 H 0.80182 0.69676 0.01274
 H1204 H 0.81778 0.72235 -0.00874
 H1205 H 0.72424 0.77085 -0.03961
 H1206 H 0.70679 0.74192 -0.02493
 H1207 H 0.82160 0.75633 0.04662
 H1208 H 0.80126 0.72801 0.06821
 O1209 O 0.99919 0.20516 0.19727
 O1210 O 0.96455 0.21809 0.19871
 O1211 O 1.03221 0.25615 0.16865
 O1212 O 1.03414 0.29171 0.17483
 O1213 O 1.05840 0.22642 0.22303
 O1214 O 1.05299 0.22827 0.26255
 O1215 O 0.98790 0.31617 0.23276
 O1216 O 0.99120 0.31290 0.19313
 O1217 O 0.95555 0.26769 0.25557
 O1218 O 0.95686 0.22821 0.25100
 O1219 O 1.01192 0.28348 0.28561
 O1220 O 1.04905 0.27721 0.27659
 O1221 O 1.01437 0.31252 0.25822
 O1222 O 1.05047 0.30150 0.25505
 O1223 O 0.98325 0.26214 0.28418
 O1224 O 0.97931 0.22451 0.27486
 O1225 O 0.95732 0.29248 0.22867
 O1226 O 0.96291 0.29208 0.19032
 O1227 O 1.02476 0.20101 0.22374
 O1228 O 1.02743 0.20750 0.26210
 O1229 O 1.06121 0.25373 0.19899
 O1230 O 1.05829 0.29076 0.20293
 O1231 O 1.00377 0.23434 0.16752
 O1232 O 0.96811 0.24185 0.17467
 Zr1233 Zr 0.99184 0.23701 0.19903
 O1234 O 0.97543 0.25686 0.21921
 Zr1235 Zr 1.03298 0.26913 0.20038
 O1236 O 1.01851 0.29048 0.22079
 Zr1237 Zr 1.02947 0.23092 0.23756
 O1238 O 1.01453 0.25037 0.25952
 Zr1239 Zr 0.98628 0.28785 0.21535
 O1240 O 1.00083 0.26836 0.19286
 Zr1241 Zr 0.98234 0.24968 0.25235
 O1242 O 0.99702 0.22811 0.23218
 Zr1243 Zr 1.02377 0.28162 0.25391
 O1244 O 1.04046 0.26188 0.23354
 O1245 O 1.02377 0.23805 0.20474
 O1246 O 0.99172 0.28071 0.24845
 C1247 C 1.01231 0.19401 0.20832
 C1248 C 1.02017 0.24228 0.15921
 C1249 C 1.06815 0.23719 0.20851
 C1250 C 0.99938 0.32271 0.24918
 C1251 C 0.94845 0.28363 0.24486
 C1252 C 0.99575 0.27520 0.29408
 H1253 H 0.96043 0.25537 0.21554
 H1254 H 1.01790 0.24585 0.27478
 H1255 H 1.03095 0.22811 0.19545
 H1256 H 1.02349 0.30495 0.21792
 H1257 H 0.99546 0.30664 0.17922
 H1258 H 1.03016 0.30528 0.18095
 H1259 H 0.99198 0.22442 0.28456
 H1260 H 1.01261 0.20323 0.26241
 H1261 H 0.95444 0.27902 0.18929
 H1262 H 0.97157 0.25521 0.16718
 H1263 H 1.04559 0.26509 0.28604
 H1264 H 1.06213 0.24084 0.26132
 H1265 H 0.96440 0.21094 0.21318
 H1266 H 0.94680 0.23306 0.23948
 H1267 H 1.06535 0.28836 0.21744
 H1268 H 1.04930 0.31138 0.24250
 O1269 O 0.72006 1.03506 0.73864
 O1270 O 0.72640 1.03506 0.77729
 O1271 O 0.77209 1.06903 0.71448
 O1272 O 0.80617 1.06739 0.71612
 O1273 O 0.75194 1.01086 0.68486
 O1274 O 0.75663 0.97512 0.69439
 O1275 O 0.83052 1.02093 0.77766
 O1276 O 0.82119 1.05584 0.77206
 O1277 O 0.78024 0.98949 0.80349
 O1278 O 0.74424 0.98488 0.79400
 O1279 O 0.80983 0.96393 0.75014
 O1280 O 0.80983 0.96953 0.71184
 O1281 O 0.83443 0.99599 0.75176
 O1282 O 0.82662 0.99641 0.71003
 O1283 O 0.78470 0.96084 0.77512
 O1284 O 0.74534 0.96414 0.76907
 O1285 O 0.80232 1.01772 0.80446
 O1286 O 0.79559 1.05480 0.79504
 O1287 O 0.72258 1.00888 0.71379
 O1288 O 0.73425 0.97259 0.71854
 O1289 O 0.77497 1.03837 0.68509
 O1290 O 0.81240 1.04002 0.69696
 O1291 O 0.74619 1.06671 0.73873
 O1292 O 0.74833 1.06018 0.77867
 Zr1293 Zr 0.74976 1.03718 0.75399
 O1294 O 0.76888 1.02120 0.77705
 Zr1295 Zr 0.78691 1.04026 0.71779
 O1296 O 0.80804 1.02559 0.73981
 Zr1297 Zr 0.75387 0.99948 0.71734
 O1298 O 0.77424 0.98241 0.73831
 Zr1299 Zr 0.79984 1.03026 0.77244
 O1300 O 0.78058 1.04777 0.75056
 Zr1301 Zr 0.76780 0.98878 0.77107
 O1302 O 0.74605 1.00450 0.75007
 Zr1303 Zr 0.80507 0.99313 0.73520
 O1304 O 0.78503 1.00791 0.71173
 O1305 O 0.75603 1.03165 0.72140
 O1306 O 0.79874 0.99790 0.76803
 C1307 C 0.71239 1.02315 0.72330
 C1308 C 0.75627 1.07630 0.72370
 C1309 C 0.76149 1.02610 0.67544
 C1310 C 0.84127 1.00747 0.76791
 C1311 C 0.79357 1.00176 0.81338
 C1312 C 0.80058 0.95406 0.76543
 H1313 H 0.76453 1.02433 0.79203
 H1314 H 0.77264 0.96734 0.73495
 H1315 H 0.74664 1.03921 0.71101
 H1316 H 0.82226 1.03096 0.73740
 H1317 H 0.81429 1.06722 0.76363
 H1318 H 0.81756 1.06574 0.72731
 H1319 H 0.74982 0.95395 0.75815
 H1320 H 0.72609 0.97387 0.73187
 H1321 H 0.78361 1.05106 0.80402
 H1322 H 0.76066 1.06950 0.77724
 H1323 H 0.79661 0.96155 0.70977
 H1324 H 0.77052 0.97693 0.68824
 H1325 H 0.72122 1.02036 0.77707
 H1326 H 0.74156 0.99885 0.80004
 H1327 H 0.81093 1.02718 0.68796
 H1328 H 0.83601 1.00843 0.71378
 O1329 O 0.73995 0.54101 0.21148
 O1330 O 0.77542 0.53510 0.21847
 O1331 O 0.71946 0.48195 0.18241
 O1332 O 0.71767 0.44859 0.19211
 O1333 O 0.68339 0.51101 0.23203
 O1334 O 0.68684 0.51384 0.27065
 O1335 O 0.76721 0.43522 0.25571
 O1336 O 0.76732 0.43754 0.21730
 O1337 O 0.78960 0.49167 0.28108
 O1338 O 0.78136 0.52841 0.27519
 O1339 O 0.73395 0.46558 0.30387
 O1340 O 0.69847 0.46312 0.29005
 O1341 O 0.73994 0.43563 0.27817
 O1342 O 0.70131 0.44040 0.26746
 O1343 O 0.75928 0.49089 0.30543
 O1344 O 0.75590 0.52902 0.29358
 O1345 O 0.79251 0.46400 0.25818
 O1346 O 0.79010 0.46410 0.21670
 O1347 O 0.71223 0.54218 0.23335
 O1348 O 0.70992 0.53701 0.27284
 O1349 O 0.68660 0.48436 0.20789
 O1350 O 0.69513 0.44744 0.21741
 O1351 O 0.74272 0.50926 0.18384
 O1352 O 0.77862 0.50930 0.19806
 Zr1353 Zr 0.75219 0.51126 0.21730
 O1354 O 0.77026 0.49589 0.24169
 Zr1355 Zr 0.71651 0.47293 0.21537
 O1356 O 0.73355 0.45528 0.23898
 Zr1357 Zr 0.71204 0.51278 0.24960
 O1358 O 0.72800 0.49657 0.27513
 Zr1359 Zr 0.76516 0.46351 0.23838
 O1360 O 0.74859 0.47877 0.21252
 Zr1361 Zr 0.75992 0.50289 0.27307
 O1362 O 0.74378 0.52073 0.24877
 Zr1363 Zr 0.72479 0.46400 0.27044
 O1364 O 0.70627 0.48030 0.24671
 O1365 O 0.72047 0.50522 0.21813
 O1366 O 0.75643 0.47058 0.26997
 C1367 C 0.72454 0.55035 0.21934
 C1368 C 0.73004 0.49668 0.17341
 C1369 C 0.67630 0.49899 0.21649
 C1370 C 0.75636 0.42734 0.27103
 C1371 C 0.79922 0.47592 0.27394
 C1372 C 0.74808 0.47647 0.31422
 H1373 H 0.78500 0.49997 0.24028
 H1374 H 0.72277 0.50082 0.28942
 H1375 H 0.71255 0.51300 0.20659
 H1376 H 0.73134 0.44013 0.23633
 H1377 H 0.76159 0.44195 0.20269
 H1378 H 0.72716 0.43799 0.19842
 H1379 H 0.74393 0.52594 0.30281
 H1380 H 0.72340 0.54472 0.27316
 H1381 H 0.79957 0.47595 0.22076
 H1382 H 0.77817 0.49516 0.19147
 H1383 H 0.69725 0.47718 0.29650
 H1384 H 0.68086 0.49945 0.27118
 H1385 H 0.77413 0.54239 0.23264
 H1386 H 0.79111 0.52694 0.26321
 H1387 H 0.68534 0.45093 0.22887
 H1388 H 0.70644 0.42910 0.25822
 O1389 O 0.55501 0.23730 0.74727
 O1390 O 0.54318 0.23532 0.78555
 O1391 O 0.50428 0.21254 0.70985
 O1392 O 0.46951 0.21862 0.70636
 O1393 O 0.53288 0.27054 0.69121
 O1394 O 0.53035 0.30644 0.70479
 O1395 O 0.44282 0.26287 0.76173
 O1396 O 0.45020 0.22615 0.75441
 O1397 O 0.49213 0.28254 0.80460
 O1398 O 0.53119 0.27996 0.80273
 O1399 O 0.47593 0.31911 0.75025
 O1400 O 0.48277 0.31626 0.70949
 O1401 O 0.44740 0.29218 0.74093
 O1402 O 0.45852 0.29636 0.70397
 O1403 O 0.49740 0.31444 0.78035
 O1404 O 0.53377 0.30650 0.78471
 O1405 O 0.46637 0.25882 0.79591
 O1406 O 0.46875 0.22506 0.78723
 O1407 O 0.55840 0.26646 0.72586
 O1408 O 0.55166 0.30217 0.73150
 O1409 O 0.50774 0.24570 0.68400
 O1410 O 0.47075 0.24757 0.68616
 O1411 O 0.52674 0.20922 0.73940
 O1412 O 0.52139 0.21134 0.77839
 Zr1413 Zr 0.52386 0.23724 0.75675
 O1414 O 0.50311 0.25244 0.77686
 Zr1415 Zr 0.49183 0.24270 0.71318
 O1416 O 0.47025 0.25915 0.73109
 Zr1417 Zr 0.52862 0.27895 0.72423
 O1418 O 0.50904 0.29634 0.74360
 Zr1419 Zr 0.47248 0.24946 0.76400
 O1420 O 0.49280 0.23126 0.74575
 Zr1421 Zr 0.50967 0.28473 0.77607
 O1422 O 0.53175 0.26936 0.75742
 Zr1423 Zr 0.47832 0.29130 0.73198
 O1424 O 0.49811 0.27524 0.71126
 O1425 O 0.52241 0.24696 0.72416
 O1426 O 0.47887 0.28155 0.76470
 C1427 C 0.56548 0.24981 0.73501
 C1428 C 0.51793 0.20242 0.72146
 C1429 C 0.52331 0.25715 0.67851
 C1430 C 0.43626 0.27972 0.75231
 C1431 C 0.47566 0.27186 0.80905
 C1432 C 0.48450 0.32517 0.76867
 H1433 H 0.50423 0.24658 0.79193
 H1434 H 0.51329 0.31128 0.74296
 H1435 H 0.53200 0.23931 0.71500
 H1436 H 0.45614 0.25655 0.72461
 H1437 H 0.45793 0.21381 0.74978
 H1438 H 0.45643 0.22273 0.71289
 H1439 H 0.53533 0.31617 0.77210
 H1440 H 0.55631 0.29991 0.74702
 H1441 H 0.47990 0.21513 0.78480
 H1442 H 0.50935 0.20269 0.77302
 H1443 H 0.49376 0.32571 0.71581
 H1444 H 0.51828 0.30591 0.69423
 H1445 H 0.55160 0.24846 0.78633
 H1446 H 0.52686 0.26711 0.81063
 H1447 H 0.47304 0.26217 0.68111
 H1448 H 0.45077 0.28312 0.70088
 O1449 O 0.29683 0.75358 0.48159
 O1450 O 0.29313 0.71751 0.48063
 O1451 O 0.24464 0.77090 0.43724
 O1452 O 0.21052 0.76765 0.43639
 O1453 O 0.25777 0.80554 0.49731
 O1454 O 0.25251 0.79908 0.53460
 O1455 O 0.18911 0.71017 0.48841
 O1456 O 0.19977 0.71253 0.45297
 O1457 O 0.23982 0.69341 0.52839
 O1458 O 0.27473 0.70627 0.53506
 O1459 O 0.20361 0.74398 0.54719
 O1460 O 0.19957 0.77901 0.53646
 O1461 O 0.18161 0.73544 0.51282
 O1462 O 0.18440 0.77582 0.50678
 O1463 O 0.23015 0.72180 0.55425
 O1464 O 0.26919 0.73114 0.55415
 O1465 O 0.22018 0.68760 0.49705
 O1466 O 0.22850 0.69487 0.45738
 O1467 O 0.28969 0.78118 0.50333
 O1468 O 0.27653 0.77779 0.54118
 O1469 O 0.23750 0.80121 0.46615
 O1470 O 0.20067 0.78641 0.46282
 O1471 O 0.27358 0.75198 0.44488
 O1472 O 0.27253 0.71363 0.45359
 Zr1473 Zr 0.26825 0.73822 0.47595
 O1474 O 0.25054 0.71624 0.49345
 Zr1475 Zr 0.22826 0.76917 0.46631
 O1476 O 0.20829 0.74758 0.48180
 Zr1477 Zr 0.25843 0.77561 0.51150
 O1478 O 0.23884 0.75575 0.52951
 Zr1479 Zr 0.21985 0.71706 0.48092
 O1480 O 0.23789 0.73809 0.46208
 Zr1481 Zr 0.24891 0.72496 0.52663
 O1482 O 0.26961 0.74503 0.50989
 Zr1483 Zr 0.20852 0.75497 0.51534
 O1484 O 0.22735 0.77765 0.49957
 O1485 O 0.25882 0.76896 0.47825
 O1486 O 0.21840 0.72422 0.51418
 C1487 C 0.30195 0.77045 0.49183
 C1488 C 0.26248 0.76415 0.43245
 C1489 C 0.24886 0.81247 0.47958
 C1490 C 0.17698 0.71883 0.50160
 C1491 C 0.22873 0.68161 0.51545
 C1492 C 0.21328 0.73064 0.55934
 H1493 H 0.25659 0.70226 0.49204
 H1494 H 0.23907 0.76043 0.54497
 H1495 H 0.26785 0.77900 0.47045
 H1496 H 0.19422 0.74804 0.47480
 H1497 H 0.20561 0.72107 0.44098
 H1498 H 0.20102 0.75538 0.43752
 H1499 H 0.26262 0.74149 0.56349
 H1500 H 0.28655 0.76628 0.54109
 H1501 H 0.24030 0.68689 0.46368
 H1502 H 0.26141 0.71467 0.44197
 H1503 H 0.21193 0.78297 0.54576
 H1504 H 0.23802 0.80335 0.53154
 H1505 H 0.29620 0.71691 0.49668
 H1506 H 0.27770 0.69789 0.52201
 H1507 H 0.20087 0.79656 0.47506
 H1508 H 0.17540 0.76920 0.49513
 O1509 O 0.31129 0.25681 0.97977
 O1510 O 0.31222 0.22068 0.98952
 O1511 O 0.26244 0.25789 0.92978
 O1512 O 0.22887 0.25203 0.92607
 O1513 O 0.26524 0.30322 0.98336
 O1514 O 0.25572 0.30104 1.02114
 O1515 O 0.20825 0.20054 0.98485
 O1516 O 0.22200 0.20180 0.94902
 O1517 O 0.25221 0.19532 1.03141
 O1518 O 0.28889 0.21173 1.03746
 O1519 O 0.21286 0.24413 1.03783
 O1520 O 0.20682 0.27697 1.01984
 O1521 O 0.19703 0.22701 1.00590
 O1522 O 0.19405 0.26567 0.99022
 O1523 O 0.24063 0.22584 1.05089
 O1524 O 0.27804 0.23678 1.05434
 O1525 O 0.23939 0.18356 0.99825
 O1526 O 0.25134 0.18594 0.96011
 O1527 O 0.29896 0.28419 0.99868
 O1528 O 0.28215 0.28558 1.03325
 O1529 O 0.24959 0.29193 0.95129
 O1530 O 0.21496 0.27391 0.94737
 O1531 O 0.29192 0.24270 0.94333
 O1532 O 0.29684 0.20896 0.96098
 Zr1533 Zr 0.28569 0.23582 0.97635
 O1534 O 0.26787 0.21419 0.99439
 Zr1535 Zr 0.24343 0.25987 0.95676
 O1536 O 0.22376 0.23900 0.97347
 Zr1537 Zr 0.26758 0.27613 1.00309
 O1538 O 0.24866 0.25650 1.02212
 Zr1539 Zr 0.23860 0.21038 0.97837
 O1540 O 0.25710 0.23021 0.95910
 Zr1541 Zr 0.26177 0.22670 1.02529
 O1542 O 0.28204 0.24723 1.00835
 Zr1543 Zr 0.22007 0.25079 1.00518
 O1544 O 0.23797 0.27285 0.98762
 O1545 O 0.27257 0.26501 0.97180
 O1546 O 0.23318 0.22166 1.00954
 C1547 C 0.31343 0.27488 0.98894
 C1548 C 0.28074 0.25081 0.92768
 C1549 C 0.25788 0.30627 0.96366
 C1550 C 0.19537 0.20852 0.99769
 C1551 C 0.24374 0.18113 1.01881
 C1552 C 0.22240 0.23329 1.05271
 H1553 H 0.27518 0.20081 0.99591
 H1554 H 0.24686 0.26314 1.03652
 H1555 H 0.28132 0.27450 0.96298
 H1556 H 0.21032 0.23697 0.96530
 H1557 H 0.22978 0.20786 0.93672
 H1558 H 0.21922 0.24012 0.92866
 H1559 H 0.27147 0.24969 1.05925
 H1560 H 0.29156 0.27420 1.03789
 H1561 H 0.26362 0.18065 0.96847
 H1562 H 0.28616 0.20469 0.94967
 H1563 H 0.21721 0.28258 1.03077
 H1564 H 0.24181 0.30392 1.01452
 H1565 H 0.31308 0.22393 1.00541
 H1566 H 0.29026 0.19861 1.02917
 H1567 H 0.21246 0.28482 0.95836
 H1568 H 0.18571 0.25505 0.98181
 C1569 C 0.27942 0.34658 0.75882
 C1570 C 0.26363 0.35774 0.76585
 C1571 C 0.25833 0.37809 0.75579
 C1572 C 0.24332 0.38961 0.76384
 H1573 H 0.25506 0.35276 0.77988
 H1574 H 0.26751 0.38415 0.74255
 H1575 H 0.28776 0.35256 0.74492
 H1576 H 0.23438 0.38343 0.77722
 C1577 C 0.31398 -0.11514 0.31323
 C1578 C 0.29342 -0.11268 0.31182
 C1579 C 0.28498 -0.09473 0.29938
 C1580 C 0.26470 -0.09099 0.29808
 H1581 H 0.28280 -0.12344 0.31960
 H1582 H 0.29579 -0.08351 0.29245
 H1583 H 0.32341 -0.10414 0.30405
 H1584 H 0.25391 -0.10176 0.30571
 C1585 C 0.80966 0.89014 0.81129
 C1586 C 0.81439 0.90218 0.79394
 C1587 C 0.80350 0.92188 0.78872
 C1588 C 0.80941 0.93367 0.77174
 H1589 H 0.82655 0.89802 0.78326
 H1590 H 0.79114 0.92688 0.79887
 H1591 H 0.79715 0.89527 0.82120
 H1592 H 0.82202 0.92839 0.76207
 C1593 C 0.44838 0.86706 0.31009
 C1594 C 0.46607 0.85775 0.31665
 C1595 C 0.47450 0.84081 0.30362
 C1596 C 0.49032 0.82927 0.31139
 H1597 H 0.47415 0.86173 0.33197
 H1598 H 0.46672 0.83687 0.28802
 H1599 H 0.44089 0.86214 0.29464
 H1600 H 0.49763 0.83283 0.32732
 C1601 C -0.00223 0.90851 0.76951
 C1602 C -0.01022 0.89641 0.75328
 C1603 C -0.00353 0.87478 0.75043
 C1604 C -0.01427 0.86246 0.73629
 H1605 H -0.02287 0.90151 0.74259
 H1606 H 0.00920 0.86869 0.76054
 H1607 H 0.01064 0.90239 0.77944
 H1608 H -0.02710 0.86890 0.72655
 C1609 C -0.04825 -0.11990 -0.05255
 C1610 C -0.03423 -0.10578 -0.05929
 C1611 C -0.02891 -0.08737 -0.04541
 C1612 C -0.01498 -0.07282 -0.05131
 H1613 H -0.02709 -0.10727 -0.07494
 H1614 H -0.03686 -0.08553 -0.03021
 H1615 H -0.05492 -0.11733 -0.03674
 H1616 H -0.00694 -0.07472 -0.06644
 C1617 C -0.03882 0.35626 0.44663
 C1618 C -0.04387 0.36772 0.46393
 C1619 C -0.03072 0.38607 0.47029
 C1620 C -0.03641 0.39989 0.48519
 H1621 H -0.05783 0.36457 0.47270
 H1622 H -0.01660 0.38897 0.46159
 H1623 H -0.02471 0.36090 0.43859
 H1624 H -0.05074 0.39728 0.49358
 C1625 C 0.45232 -0.12636 0.45748
 C1626 C 0.45105 -0.11801 0.47756
 C1627 C 0.46475 -0.10061 0.48525
 C1628 C 0.46345 -0.09345 0.50577
 H1629 H 0.43958 -0.12374 0.48872
 H1630 H 0.47452 -0.09261 0.47365
 H1631 H 0.46548 -0.12182 0.44784
 H1632 H 0.45347 -0.10163 0.51705
 C1633 C 0.44190 0.38948 -0.04191
 C1634 C 0.45520 0.40394 -0.04970
 C1635 C 0.45849 0.42458 -0.03926
 C1636 C 0.47176 0.43856 -0.04772
 H1637 H 0.46390 0.40110 -0.06410
 H1638 H 0.45037 0.42818 -0.02456
 H1639 H 0.43291 0.39383 -0.02804
 H1640 H 0.47971 0.43465 -0.06246
 C1641 C 0.77529 0.38248 0.46171
 C1642 C 0.77875 0.37100 0.47993
 C1643 C 0.76811 0.35055 0.48246
 C1644 C 0.77395 0.33721 0.49843
 H1645 H 0.79014 0.37586 0.49248
 H1646 H 0.75659 0.34568 0.46995
 H1647 H 0.76332 0.37708 0.44992
 H1648 H 0.78589 0.34197 0.51054
 C1649 C 0.78084 0.88310 -0.03032
 C1650 C 0.78559 0.87248 -0.01178
 C1651 C 0.77540 0.85212 -0.00742
 C1652 C 0.78249 0.83990 0.00898
 H1653 H 0.79788 0.87765 -0.00041
 H1654 H 0.76356 0.84619 -0.01906
 H1655 H 0.76774 0.87727 -0.04043
 H1656 H 0.79475 0.84579 0.02016
 C1657 C 0.81543 0.29723 0.38029
 C1658 C 0.79624 0.29948 0.38736
 C1659 C 0.78967 0.28800 0.40700
 C1660 C 0.77144 0.29142 0.41585
 H1661 H 0.78521 0.30939 0.37874
 H1662 H 0.80020 0.27687 0.41466
 H1663 H 0.82568 0.28673 0.38936
 H1664 H 0.76125 0.30314 0.40873
 C1665 C 0.81893 0.80173 -0.10958
 C1666 C 0.80022 0.80271 -0.10099
 C1667 C 0.79545 0.79005 -0.08142
 C1668 C 0.77762 0.79196 -0.07126
 H1669 H 0.78837 0.81258 -0.10829
 H1670 H 0.80711 0.77955 -0.07474
 H1671 H 0.83008 0.79112 -0.10206
 H1672 H 0.76632 0.80308 -0.07744
 C1673 C 0.29044 0.45676 0.87312
 C1674 C 0.27199 0.45273 0.86300
 C1675 C 0.26732 0.46045 0.84048
 C1676 C 0.24959 0.45488 0.82972
 H1677 H 0.26022 0.44350 0.87101
 H1678 H 0.27879 0.47007 0.83237
 H1679 H 0.30150 0.46666 0.86473
 H1680 H 0.23844 0.44490 0.83788
 C1681 C 0.26892 -0.02612 0.41689
 C1682 C 0.25638 -0.03626 0.40225
 C1683 C 0.25089 -0.02647 0.38095
 C1684 C 0.24051 -0.03716 0.36502
 H1685 H 0.25182 -0.05246 0.40474
 H1686 H 0.25702 -0.01087 0.37764
 H1687 H 0.27379 -0.01017 0.41319
 H1688 H 0.23424 -0.05268 0.36839
 C1689 C -0.00509 -0.01352 -0.14569
 C1690 C -0.01433 -0.00064 -0.13200
 C1691 C -0.00640 0.00105 -0.10905
 C1692 C -0.01702 0.01074 -0.09389
 H1693 H -0.02853 0.00716 -0.13665
 H1694 H 0.00754 -0.00724 -0.10415
 H1695 H 0.00893 -0.02097 -0.13943
 H1696 H -0.03098 0.01901 -0.09876
 C1697 C -0.05463 0.44374 0.36759
 C1698 C -0.03643 0.43946 0.37780
 C1699 C -0.02980 0.45086 0.39793
 C1700 C -0.01450 0.44378 0.41117
 H1701 H -0.02690 0.42691 0.37248
 H1702 H -0.03829 0.46449 0.40258
 H1703 H -0.06369 0.45592 0.37469
 H1704 H -0.00661 0.42967 0.40683
 C1705 C 0.44310 -0.06458 0.40765
 C1706 C 0.44013 -0.04619 0.41726
 C1707 C 0.45210 -0.04105 0.43767
 C1708 C 0.44949 -0.02343 0.44884
 H1709 H 0.42961 -0.03488 0.40999
 H1710 H 0.46320 -0.05234 0.44397
 H1711 H 0.45431 -0.07505 0.41530
 H1712 H 0.43788 -0.01241 0.44320
 C1713 C 0.46002 0.47290 -0.14375
 C1714 C 0.45526 0.49008 -0.13263
 C1715 C 0.46664 0.49543 -0.11190
 C1716 C 0.46035 0.51064 -0.09886
 H1717 H 0.44259 0.49985 -0.13809
 H1718 H 0.47956 0.48582 -0.10656
 H1719 H 0.47323 0.46397 -0.13781
 H1720 H 0.44712 0.51989 -0.10401
 C1721 C 0.42790 0.78809 0.37867
 C1722 C 0.44732 0.78160 0.37700
 C1723 C 0.45371 0.76972 0.35780
 C1724 C 0.47362 0.76490 0.35607
 H1725 H 0.45898 0.78585 0.38959
 H1726 H 0.44267 0.76685 0.34418
 H1727 H 0.41603 0.78279 0.36676
 H1728 H 0.48459 0.76885 0.36945
 C1729 C -0.05226 0.80510 0.85241
 C1730 C -0.03569 0.81180 0.84149
 C1731 C -0.03095 0.80178 0.82049
 C1732 C -0.01434 0.80741 0.80919
 H1733 H -0.02553 0.82426 0.84770
 H1734 H -0.04153 0.78972 0.81397
 H1735 H -0.06128 0.79217 0.84514
 H1736 H -0.00389 0.81965 0.81553
 C1737 C 0.40673 0.82356 0.32177
 C1738 C 0.40743 0.80554 0.31095
 C1739 C 0.42569 0.79976 0.29900
 C1740 C 0.42612 0.78120 0.28917
 H1741 H 0.39414 0.79483 0.31088
 H1742 H 0.43936 0.80993 0.29969
 H1743 H 0.41931 0.83499 0.32097
 H1744 H 0.41283 0.77056 0.28985
 C1745 C -0.10834 0.81001 0.80055
 C1746 C -0.10328 0.81340 0.77968
 C1747 C -0.08506 0.80313 0.77104
 C1748 C -0.07882 0.80669 0.75062
 H1749 H -0.11254 0.82333 0.76889
 H1750 H -0.07625 0.79280 0.78191
 H1751 H -0.09893 0.79938 0.81049
 H1752 H -0.08721 0.81753 0.73997
 C1753 C 0.86998 0.28154 0.43940
 C1754 C 0.86293 0.28305 0.45973
 C1755 C 0.84246 0.27375 0.46459
 C1756 C 0.83404 0.27560 0.48422
 H1757 H 0.87197 0.29096 0.47266
 H1758 H 0.83374 0.26580 0.45139
 H1759 H 0.86052 0.27290 0.42725
 H1760 H 0.84245 0.28402 0.49729
 C1761 C 0.87500 0.79208 -0.05919
 C1762 C 0.87038 0.79204 -0.03793
 C1763 C 0.85176 0.78074 -0.03062
 C1764 C 0.84540 0.78241 -0.01006
 H1765 H 0.88001 0.80048 -0.02587
 H1766 H 0.84249 0.77183 -0.04269
 H1767 H 0.86538 0.78277 -0.07062
 H1768 H 0.85430 0.79193 0.00177
 C1769 C -0.12623 -0.04869 -0.02958
 C1770 C -0.11372 -0.03301 -0.03615
 C1771 C -0.09279 -0.02975 -0.02599
 C1772 C -0.08125 -0.01307 -0.03152
 H1773 H -0.11856 -0.02227 -0.04904
 H1774 H -0.08667 -0.04120 -0.01436
 H1775 H -0.12075 -0.05808 -0.01569
 H1776 H -0.08775 -0.00159 -0.04290
 C1777 C -0.12938 0.44838 0.47041
 C1778 C -0.11466 0.46143 0.46297
 C1779 C -0.09372 0.46255 0.47359
 C1780 C -0.07873 0.47380 0.46425
 H1781 H -0.11730 0.47086 0.44839
 H1782 H -0.09043 0.45374 0.48856
 H1783 H -0.12533 0.43899 0.48482
 H1784 H -0.08228 0.48219 0.44906
 C1785 C 0.35863 -0.02942 0.49407
 C1786 C 0.37178 -0.03659 0.50989
 C1787 C 0.39242 -0.02647 0.51373
 C1788 C 0.40600 -0.03407 0.52876
 H1789 H 0.36799 -0.05020 0.51967
 H1790 H 0.39702 -0.01359 0.50318
 H1791 H 0.36336 -0.01523 0.48554
 H1792 H 0.40136 -0.04722 0.53893
 C1793 C 0.36742 0.45697 -0.03330
 C1794 C 0.37798 0.47431 -0.03899
 C1795 C 0.39834 0.47964 -0.02844
 C1796 C 0.40792 0.49762 -0.03353
 H1797 H 0.37198 0.48484 -0.05153
 H1798 H 0.40581 0.46854 -0.01732
 H1799 H 0.37375 0.44788 -0.01958
 H1800 H 0.40012 0.50852 -0.04464
 C1801 C 0.36326 0.46589 0.78546
 C1802 C 0.34865 0.45381 0.77538
 C1803 C 0.32739 0.46115 0.77153
 C1804 C 0.31363 0.44971 0.75951
 H1805 H 0.35208 0.43815 0.77018
 H1806 H 0.32307 0.47602 0.77827
 H1807 H 0.35907 0.48116 0.79130
 H1808 H 0.31836 0.43517 0.75233
 C1809 C 0.35871 -0.06307 0.31833
 C1810 C 0.34854 -0.04617 0.32470
 C1811 C 0.32907 -0.04021 0.31292
 C1812 C 0.31765 -0.02418 0.31925
 H1813 H 0.35442 -0.03655 0.33820
 H1814 H 0.32378 -0.04951 0.29887
 H1815 H 0.35223 -0.07185 0.30438
 H1816 H 0.32253 -0.01522 0.33368
 C1817 C 0.12088 0.55671 0.70465
 C1818 C 0.12468 0.53626 0.70313
 C1819 C 0.14342 0.52736 0.71382
 C1820 C 0.14869 0.50761 0.71005
 H1821 H 0.11415 0.52592 0.69386
 H1822 H 0.15356 0.53742 0.72396
 H1823 H 0.13141 0.56643 0.71474
 H1824 H 0.13892 0.49792 0.69915
 C1825 C 0.11055 0.03610 0.23147
 C1826 C 0.12495 0.02423 0.22294
 C1827 C 0.14384 0.01918 0.23623
 C1828 C 0.15902 0.00824 0.22789
 H1829 H 0.12354 0.01936 0.20593
 H1830 H 0.14562 0.02509 0.25288
 H1831 H 0.11302 0.04134 0.24832
 H1832 H 0.15707 0.00219 0.21131
 C1833 C 0.63020 0.71652 0.22115
 C1834 C 0.61991 0.71166 0.23916
 C1835 C 0.60159 0.72356 0.24469
 C1836 C 0.58881 0.71635 0.25982
 H1837 H 0.62413 0.69836 0.24933
 H1838 H 0.59758 0.73731 0.23501
 H1839 H 0.62557 0.73028 0.21179
 H1840 H 0.59255 0.70211 0.26880
 C1841 C 0.10890 0.69526 0.69788
 C1842 C 0.10411 0.71516 0.69315
 C1843 C 0.08557 0.72443 0.70223
 C1844 C 0.07902 0.74336 0.69586
 H1845 H 0.11358 0.72471 0.68261
 H1846 H 0.07663 0.71519 0.71363
 H1847 H 0.09906 0.68655 0.70890
 H1848 H 0.08749 0.75222 0.68377
 C1849 C 0.62671 0.21009 0.55118
 C1850 C 0.63527 0.20866 0.53169
 C1851 C 0.65509 0.21960 0.52786
 C1852 C 0.66364 0.21907 0.50830
 H1853 H 0.62759 0.19975 0.51852
 H1854 H 0.66307 0.22768 0.54146
 H1855 H 0.63420 0.22001 0.56368
 H1856 H 0.65577 0.21064 0.49488
 C1857 C 0.64063 0.71516 0.07282
 C1858 C 0.65023 0.71408 0.05376
 C1859 C 0.67131 0.72283 0.05105
 C1860 C 0.68099 0.71938 0.03243
 H1861 H 0.64255 0.70669 0.03963
 H1862 H 0.67897 0.73171 0.06428
 H1863 H 0.64827 0.72351 0.08643
 H1864 H 0.67317 0.71004 0.01964
 C1865 C 0.12420 0.06489 0.04932
 C1866 C 0.11493 0.04583 0.04869
 C1867 C 0.09590 0.04144 0.03518
 C1868 C 0.08730 0.02216 0.03513
 H1869 H 0.12125 0.03291 0.05811
 H1870 H 0.08838 0.05413 0.02631
 H1871 H 0.11828 0.07677 0.03805
 H1872 H 0.09493 0.00977 0.04440
 C1873 C 0.14188 0.51144 0.50814
 C1874 C 0.12919 0.50029 0.52083
 C1875 C 0.10831 0.49420 0.51244
 C1876 C 0.09416 0.48599 0.52567
 H1877 H 0.13317 0.49759 0.53805
 H1878 H 0.10395 0.49813 0.49555
 H1879 H 0.13683 0.51491 0.49131
 H1880 H 0.09853 0.48184 0.54249
 C1881 C 0.62313 0.04992 0.53465
 C1882 C 0.61378 0.03118 0.53695
 C1883 C 0.59140 0.02774 0.53214
 C1884 C 0.58252 0.00954 0.53792
 H1885 H 0.62262 0.01806 0.54320
 H1886 H 0.58213 0.04026 0.52515
 H1887 H 0.61442 0.06269 0.52734
 H1888 H 0.59211 -0.00244 0.54554
 C1889 C 0.62744 0.53613 0.03984
 C1890 C 0.61537 0.54016 0.02204
 C1891 C 0.59376 0.53241 0.02011
 C1892 C 0.58090 0.54078 0.00494
 H1893 H 0.62102 0.54993 0.00891
 H1894 H 0.58815 0.52087 0.03170
 H1895 H 0.62154 0.52568 0.05235
 H1896 H 0.58670 0.55293 -0.00587
 C1897 C 0.03000 0.03686 0.13886
 C1898 C 0.03545 0.02012 0.12737
 C1899 C 0.02468 0.01579 0.10592
 C1900 C 0.03112 0.00134 0.09208
 H1901 H 0.04822 0.01042 0.13272
 H1902 H 0.01205 0.02582 0.10066
 H1903 H 0.01713 0.04578 0.13199
 H1904 H 0.04404 -0.00841 0.09704
 C1905 C 0.03728 0.56230 0.61559
 C1906 C 0.03685 0.54194 0.61026
 C1907 C 0.02784 0.53436 0.58898
 C1908 C 0.02949 0.51422 0.58344
 H1909 H 0.04361 0.53056 0.62151
 H1910 H 0.02088 0.54541 0.57745
 H1911 H 0.02954 0.57332 0.60460
 H1912 H 0.03704 0.50356 0.59499
 C1913 C 0.54827 0.04699 0.65493
 C1914 C 0.55260 0.02936 0.64436
 C1915 C 0.53771 0.02122 0.62730
 C1916 C 0.54218 0.00529 0.61431
 H1917 H 0.56718 0.02157 0.64700
 H1918 H 0.52337 0.02948 0.62428
 H1919 H 0.53323 0.05371 0.65110
 H1920 H 0.55663 -0.00284 0.61709
 C1921 C 0.52412 0.55144 0.13401
 C1922 C 0.52946 0.53729 0.11923
 C1923 C 0.51893 0.53627 0.09724
 C1924 C 0.52537 0.52310 0.08209
 H1925 H 0.54195 0.52667 0.12279
 H1926 H 0.50642 0.54684 0.09319
 H1927 H 0.51143 0.56167 0.12951
 H1928 H 0.53813 0.51287 0.08631
 C1929 C 0.22099 0.52834 0.59865
 C1930 C 0.21036 0.51625 0.61251
 C1931 C 0.21822 0.51136 0.63494
 C1932 C 0.20722 0.49842 0.64757
 H1933 H 0.19508 0.51022 0.60762
 H1934 H 0.23276 0.51833 0.64109
 H1935 H 0.23574 0.53529 0.60421
 H1936 H 0.19288 0.49139 0.64091
 C1937 C 0.19466 0.04067 0.14264
 C1938 C 0.21238 0.04139 0.15488
 C1939 C 0.21563 0.02694 0.17363
 C1940 C 0.23270 0.02879 0.18663
 H1941 H 0.22454 0.05275 0.15166
 H1942 H 0.20334 0.01597 0.17786
 H1943 H 0.18364 0.02813 0.14615
 H1944 H 0.24446 0.04046 0.18269
 C1945 C 0.69091 0.21007 0.62452
 C1946 C 0.70420 0.20233 0.61041
 C1947 C 0.70958 0.21396 0.59026
 C1948 C 0.72345 0.20654 0.57665
 H1949 H 0.71098 0.18719 0.61328
 H1950 H 0.70218 0.22871 0.58660
 H1951 H 0.68391 0.22497 0.62058
 H1952 H 0.73091 0.19188 0.58062
 C1953 C 0.70672 0.70774 0.13611
 C1954 C 0.72337 0.70128 0.12590
 C1955 C 0.73005 0.71298 0.10637
 C1956 C 0.74641 0.70771 0.09496
 H1957 H 0.73195 0.68783 0.13169
 H1958 H 0.72087 0.72619 0.10090
 H1959 H 0.69916 0.72169 0.12981
 H1960 H 0.75558 0.69440 0.10011
 C1961 C 0.54473 0.70723 0.13803
 C1962 C 0.54778 0.72456 0.15008
 C1963 C 0.53563 0.72793 0.16972
 C1964 C 0.54072 0.74347 0.18364
 H1965 H 0.55954 0.73608 0.14598
 H1966 H 0.52338 0.71679 0.17361
 H1967 H 0.53238 0.69640 0.14243
 H1968 H 0.55360 0.75396 0.18007
 C1969 C 0.01608 0.70053 0.60149
 C1970 C 0.01487 0.72104 0.60503
 C1971 C 0.00567 0.72872 0.62502
 C1972 C 0.01082 0.74784 0.63229
 H1973 H 0.02241 0.73222 0.59437
 H1974 H -0.00291 0.71791 0.63524
 H1975 H 0.00783 0.68970 0.61199
 H1976 H 0.02049 0.75803 0.62248
 C1977 C 0.53523 0.61578 0.23563
 C1978 C 0.52527 0.63225 0.22713
 C1979 C 0.52295 0.65145 0.23999
 C1980 C 0.51311 0.66769 0.23090
 H1981 H 0.51988 0.63232 0.21007
 H1982 H 0.52994 0.65258 0.25645
 H1983 H 0.54119 0.61660 0.25253
 H1984 H 0.50606 0.66613 0.21449
 C1985 C 0.05175 0.64743 0.69925
 C1986 C 0.03295 0.65582 0.69726
 C1987 C 0.02919 0.67669 0.70641
 C1988 C 0.01090 0.68588 0.70306
 H1989 H 0.02026 0.64745 0.68878
 H1990 H 0.04188 0.68508 0.71490
 H1991 H 0.06389 0.65586 0.70859
 H1992 H -0.00144 0.67768 0.69379
 C1993 C 0.07308 0.10868 0.06147
 C1994 C 0.05326 0.10255 0.06358
 C1995 C 0.04536 0.08452 0.05062
 C1996 C 0.02637 0.07611 0.05244
 H1997 H 0.04286 0.11066 0.07389
 H1998 H 0.05568 0.07780 0.03906
 H1999 H 0.08233 0.09920 0.05100
 H2000 H 0.01611 0.08191 0.06455
 C2001 C 0.04424 0.60752 0.54060
 C2002 C 0.05095 0.59645 0.52384
 C2003 C 0.04250 0.57502 0.52074
 C2004 C 0.04753 0.56250 0.50435
 H2005 H 0.06144 0.60323 0.51218
 H2006 H 0.03134 0.56935 0.53235
 H2007 H 0.03327 0.59997 0.55134
 H2008 H 0.05919 0.56746 0.49299
 C2009 C 0.55071 0.12033 0.54528
 C2010 C 0.53913 0.10684 0.55675
 C2011 C 0.53369 0.08566 0.54855
 C2012 C 0.52209 0.07260 0.56047
 H2013 H 0.53377 0.11123 0.57267
 H2014 H 0.53898 0.08085 0.53272
 H2015 H 0.55690 0.11524 0.52996
 H2016 H 0.51690 0.07775 0.57624
 C2017 C 0.55690 0.63762 0.04192
 C2018 C 0.53758 0.62952 0.04128
 C2019 C 0.53211 0.61083 0.02807
 C2020 C 0.51438 0.60027 0.03123
 H2021 H 0.52570 0.63610 0.05097
 H2022 H 0.54316 0.60494 0.01680
 H2023 H 0.56816 0.63072 0.03154
 H2024 H 0.50396 0.60576 0.04337
 C2025 C 0.71916 0.11599 0.53195
 C2026 C 0.71329 0.12905 0.51567
 C2027 C 0.72509 0.14872 0.51224
 C2028 C 0.71897 0.16243 0.49681
 H2029 H 0.69946 0.12611 0.50547
 H2030 H 0.73799 0.15269 0.52352
 H2031 H 0.73367 0.11977 0.54084
 H2032 H 0.70595 0.15841 0.48570
 C2033 C 0.70446 0.62271 0.02340
 C2034 C 0.72377 0.63058 0.02274
 C2035 C 0.72780 0.65233 0.01577
 C2036 C 0.74642 0.66119 0.02008
 H2037 H 0.73680 0.62137 0.02848
 H2038 H 0.71517 0.66157 0.00896
 H2039 H 0.69173 0.63192 0.01675
 H2040 H 0.75857 0.65195 0.02791
 C2041 C 0.17546 0.60230 0.70519
 C2042 C 0.19395 0.59328 0.70441
 C2043 C 0.19771 0.57254 0.71429
 C2044 C 0.21508 0.56245 0.71027
 H2045 H 0.20658 0.60103 0.69623
 H2046 H 0.18587 0.56513 0.72400
 H2047 H 0.16337 0.59454 0.71428
 H2048 H 0.22636 0.56969 0.69972
 C2049 C 0.21003 0.11383 0.20665
 C2050 C 0.20488 0.10484 0.22568
 C2051 C 0.21610 0.08656 0.23439
 C2052 C 0.20921 0.07603 0.25175
 H2053 H 0.19208 0.11023 0.23484
 H2054 H 0.22908 0.08079 0.22562
 H2055 H 0.22353 0.10791 0.19883
 H2056 H 0.19567 0.08146 0.25983
 C2057 C 0.70251 1.12827 0.71247
 C2058 C 0.72151 1.12184 0.70817
 C2059 C 0.73000 1.10338 0.71964
 C2060 C 0.74874 1.09648 0.71529
 H2061 H 0.73094 1.12977 0.69630
 H2062 H 0.72035 1.09469 0.73084
 H2063 H 0.69448 1.12003 0.72538
 H2064 H 0.75812 1.10498 0.70368
 C2065 C 0.68735 0.61687 0.21309
 C2066 C 0.70335 0.60505 0.20814
 C2067 C 0.70534 0.58354 0.21688
 C2068 C 0.72113 0.57183 0.21121
 H2069 H 0.71541 0.61120 0.19795
 H2070 H 0.69393 0.57732 0.22791
 H2071 H 0.67596 0.61030 0.22396
 H2072 H 0.73226 0.57830 0.19998
 C2073 C 0.56497 0.14262 0.72061
 C2074 C 0.54813 0.15238 0.71225
 C2075 C 0.54121 0.17221 0.72157
 C2076 C 0.52452 0.18206 0.71307
 H2077 H 0.53935 0.14609 0.69822
 H2078 H 0.55009 0.17894 0.73539
 H2079 H 0.57386 0.14998 0.73406
 H2080 H 0.51597 0.17544 0.69898
 C2081 C 1.03869 0.12324 0.21849
 C2082 C 1.02749 0.13675 0.20634
 C2083 C 1.02490 0.15829 0.21398
 C2084 C 1.01350 0.17185 0.20219
 H2085 H 1.02111 0.13257 0.19023
 H2086 H 1.03297 0.16328 0.22909
 H2087 H 1.04523 0.12846 0.23428
 H2088 H 1.00512 0.16667 0.18733
 C2089 C 0.20747 0.60723 0.50842
 C2090 C 0.21472 0.62347 0.52038
 C2091 C 0.21718 0.64457 0.51078
 C2092 C 0.22581 0.65990 0.52306
 H2093 H 0.21834 0.62151 0.53778
 H2094 H 0.21200 0.64756 0.49390
 H2095 H 0.20304 0.60978 0.49125
 H2096 H 0.23132 0.65635 0.53972
 C2097 C 0.21342 0.13609 1.07547
 C2098 C 0.21919 0.13969 1.05493
 C2099 C 0.23132 0.15853 1.04880
 C2100 C 0.23720 0.16086 1.02811
 H2101 H 0.21442 0.12864 1.04214
 H2102 H 0.23371 0.17115 1.06050
 H2103 H 0.21914 0.14621 1.08867
 H2104 H 0.23393 0.14824 1.01655
 C2105 C 0.19585 0.68335 0.61997
 C2106 C 0.19545 0.70252 0.61100
 C2107 C 0.20736 0.70769 0.59142
 C2108 C 0.20385 0.72546 0.58035
 H2109 H 0.18604 0.71455 0.61764
 H2110 H 0.21810 0.69648 0.58536
 H2111 H 0.20587 0.67194 0.61301
 H2112 H 0.19229 0.73599 0.58604
 C2113 C 0.20796 0.18874 1.11573
 C2114 C 0.20357 0.20642 1.10478
 C2115 C 0.21627 0.21277 1.08614
 C2116 C 0.21115 0.22871 1.07286
 H2117 H 0.19091 0.21611 1.10928
 H2118 H 0.22965 0.20357 1.08264
 H2119 H 0.22099 0.17986 1.11045
 H2120 H 0.19729 0.23740 1.07576
 C2121 C 0.72495 0.54110 0.10861
 C2122 C 0.72362 0.52177 0.11704
 C2123 C 0.73215 0.51721 0.13926
 C2124 C 0.72626 0.49974 0.14966
 H2125 H 0.71477 0.50959 0.10838
 H2126 H 0.74135 0.52916 0.14796
 H2127 H 0.73458 0.55280 0.11720
 H2128 H 0.71638 0.48830 0.14100
 C2129 C 0.71218 1.03071 0.61316
 C2130 C 0.73198 1.03210 0.62056
 C2131 C 0.73830 1.02406 0.64245
 C2132 C 0.75614 1.03069 0.65225
 H2133 H 0.74357 1.04023 0.61121
 H2134 H 0.72755 1.01422 0.65133
 H2135 H 0.70119 1.02191 0.62281
 H2136 H 0.76623 1.04146 0.64363
 C2137 C 0.53202 0.21219 0.61592
 C2138 C 0.53602 0.23102 0.62497
 C2139 C 0.52490 0.23743 0.64429
 C2140 C 0.53163 0.25361 0.65672
 H2141 H 0.54821 0.24129 0.61932
 H2142 H 0.51212 0.22755 0.64952
 H2143 H 0.51938 0.20273 0.62220
 H2144 H 0.54480 0.26311 0.65180
 C2145 C 1.07529 0.20871 0.12449
 C2146 C 1.05532 0.21376 0.12240
 C2147 C 1.04741 0.22984 0.13685
 C2148 C 1.02713 0.23241 0.13914
 H2149 H 1.04483 0.20567 0.11081
 H2150 H 1.05847 0.23782 0.14799
 H2151 H 1.08548 0.21757 0.13579
 H2152 H 1.01598 0.22343 0.12905
 C2153 C 0.61534 0.19860 0.71364
 C2154 C 0.61082 0.21863 0.71665
 C2155 C 0.59183 0.22420 0.72762
 C2156 C 0.58649 0.24417 0.72929
 H2157 H 0.62103 0.23096 0.71076
 H2158 H 0.58129 0.21180 0.73271
 H2159 H 0.60556 0.18643 0.72057
 H2160 H 0.59661 0.25642 0.72309
 C2161 C 1.12151 0.18512 0.19605
 C2162 C 1.11467 0.20465 0.19392
 C2163 C 1.09514 0.21081 0.20373
 C2164 C 1.08839 0.23031 0.20122
 H2165 H 1.12366 0.21635 0.18526
 H2166 H 1.08598 0.19923 0.21239
 H2167 H 1.11269 0.17398 0.20566
 H2168 H 1.09744 0.24147 0.19187
 C2169 C 0.11258 0.70486 0.53965
 C2170 C 0.12471 0.70063 0.52305
 C2171 C 0.14395 0.71301 0.51998
 C2172 C 0.15665 0.70833 0.50405
 H2173 H 0.12061 0.68810 0.51170
 H2174 H 0.14813 0.72555 0.53136
 H2175 H 0.11688 0.71804 0.55016
 H2176 H 0.15253 0.69545 0.49309
 C2177 C 0.16315 0.17914 1.06081
 C2178 C 0.16375 0.17908 1.03888
 C2179 C 0.17933 0.19198 1.02808
 C2180 C 0.17931 0.19471 1.00631
 H2181 H 0.15153 0.17139 1.02896
 H2182 H 0.19096 0.20016 1.03839
 H2183 H 0.17469 0.18814 1.07039
 H2184 H 0.16883 0.18589 0.99533
 C2185 C 0.60944 0.53234 0.22005
 C2186 C 0.62176 0.52057 0.20829
 C2187 C 0.64213 0.51470 0.21794
 C2188 C 0.65516 0.50268 0.20740
 H2189 H 0.61769 0.51636 0.19147
 H2190 H 0.64687 0.52101 0.23391
 H2191 H 0.61463 0.53622 0.23675
 H2192 H 0.65037 0.49576 0.19175
 C2193 C 0.64928 1.06512 0.71794
 C2194 C 0.65888 1.04748 0.71261
 C2195 C 0.68017 1.04343 0.72132
 C2196 C 0.69070 1.02658 0.71544
 H2197 H 0.65141 1.03599 0.70185
 H2198 H 0.68753 1.05477 0.73247
 H2199 H 0.65772 1.07608 0.72871
 H2200 H 0.68354 1.01552 0.70387
 C2201 C 0.85395 0.42739 0.29318
 C2202 C 0.84675 0.44673 0.29453
 C2203 C 0.82686 0.45187 0.28366
 C2204 C 0.81914 0.47099 0.28492
 H2205 H 0.85590 0.45907 0.30259
 H2206 H 0.81840 0.43976 0.27440
 H2207 H 0.84484 0.41565 0.28404
 H2208 H 0.82713 0.48288 0.29490
 C2209 C 0.91276 0.98329 0.76445
 C2210 C 0.89799 0.99235 0.77560
 C2211 C 0.87702 0.99499 0.76564
 C2212 C 0.86275 1.00513 0.77642
 H2213 H 0.90086 0.99695 0.79254
 H2214 H 0.87316 0.98839 0.74958
 H2215 H 0.90902 0.97824 0.74775
 H2216 H 0.86700 1.01221 0.79216
 C2217 C 0.36437 0.26963 0.77490
 C2218 C 0.37910 0.28147 0.76588
 C2219 C 0.40023 0.27368 0.76369
 C2220 C 0.41460 0.28582 0.75449
 H2221 H 0.37598 0.29744 0.76096
 H2222 H 0.40410 0.25823 0.76982
 H2223 H 0.36823 0.25401 0.78059
 H2224 H 0.41032 0.30109 0.74814
 C2225 C 0.89649 0.29967 0.29851
 C2226 C 0.90277 0.30095 0.27786
 C2227 C 0.92160 0.29021 0.27148
 C2228 C 0.92896 0.29288 0.25143
 H2229 H 0.89394 0.30952 0.26544
 H2230 H 0.92984 0.28052 0.28348
 H2231 H 0.90546 0.29037 0.31029
 H2232 H 0.92114 0.30334 0.23988
 C2233 C 0.35086 0.81895 0.45936
 C2234 C 0.34698 0.80102 0.46988
 C2235 C 0.32699 0.79675 0.47998
 C2236 C 0.32318 0.77798 0.48881
 H2237 H 0.35859 0.78898 0.47038
 H2238 H 0.31467 0.80797 0.47802
 H2239 H 0.33993 0.83158 0.45955
 H2240 H 0.33521 0.76638 0.48921
 C2241 C 0.37948 0.29018 0.95442
 C2242 C 0.36626 0.29469 0.97007
 C2243 C 0.34794 0.28098 0.97366
 C2244 C 0.33335 0.28650 0.98739
 H2245 H 0.36825 0.30873 0.97978
 H2246 H 0.34578 0.26686 0.96399
 H2247 H 0.37671 0.27579 0.94531
 H2248 H 0.33536 0.30096 0.99652
 C2249 C 0.79226 0.46830 0.38082
 C2250 C 0.77326 0.46759 0.37114
 C2251 C 0.76935 0.47616 0.34884
 C2252 C 0.75163 0.47139 0.33767
 H2253 H 0.76050 0.45988 0.37912
 H2254 H 0.78156 0.48496 0.34094
 H2255 H 0.80450 0.47676 0.37261
 H2256 H 0.74000 0.46169 0.34544
 C2257 C 0.79326 0.95754 0.87931
 C2258 C 0.79992 0.97509 0.86950
 C2259 C 0.79242 0.98028 0.84701
 C2260 C 0.79965 0.99717 0.83647
 H2261 H 0.81100 0.98561 0.87776
 H2262 H 0.78133 0.96972 0.83872
 H2263 H 0.78155 0.94789 0.87071
 H2264 H 0.81089 1.00756 0.84477
 C2265 C 0.31936 0.79388 0.39118
 C2266 C 0.29919 0.78876 0.39186
 C2267 C 0.29136 0.77560 0.40988
 C2268 C 0.27100 0.77247 0.41201
 H2269 H 0.28828 0.79475 0.37951
 H2270 H 0.30221 0.77006 0.42258
 H2271 H 0.33008 0.78697 0.40319
 H2272 H 0.26023 0.77905 0.39984
 C2273 C 0.27662 0.26837 0.84949
 C2274 C 0.28793 0.26142 0.86682
 C2275 C 0.27841 0.25803 0.88808
 C2276 C 0.28975 0.25243 0.90593
 H2277 H 0.30451 0.25965 0.86592
 H2278 H 0.26200 0.26089 0.88927
 H2279 H 0.26025 0.27109 0.85130
 H2280 H 0.30608 0.24924 0.90461
 C2281 C 0.46703 0.30717 0.87951
 C2282 C 0.46093 0.29252 0.86491
 C2283 C 0.47292 0.28875 0.84525
 C2284 C 0.46602 0.27480 0.83029
 H2285 H 0.44638 0.28404 0.86653
 H2286 H 0.48685 0.29805 0.84255
 H2287 H 0.48129 0.31593 0.87681
 H2288 H 0.45199 0.26573 0.83324
 C2289 C 0.94854 0.28242 0.35445
 C2290 C 0.96768 0.28501 0.34697
 C2291 C 0.97273 0.27714 0.32519
 C2292 C 0.99109 0.28152 0.31655
 H2293 H 0.97978 0.29301 0.35667
 H2294 H 0.96094 0.26830 0.31578
 H2295 H 0.93710 0.27367 0.34446
 H2296 H 1.00256 0.29094 0.32575
 C2297 C 0.44868 0.39247 0.76820
 C2298 C 0.46171 0.37894 0.77789
 C2299 C 0.46682 0.35919 0.76718
 C2300 C 0.47937 0.34569 0.77759
 H2301 H 0.46796 0.38181 0.79439
 H2302 H 0.46000 0.35551 0.75105
 H2303 H 0.44180 0.38869 0.75212
 H2304 H 0.48610 0.34973 0.79367
 C2305 C 0.94657 0.36652 0.27565
 C2306 C 0.96696 0.36477 0.27343
 C2307 C 0.97428 0.34834 0.25905
 C2308 C 0.99398 0.34241 0.25963
 H2309 H 0.97806 0.37494 0.28216
 H2310 H 0.96279 0.33954 0.24916
 H2311 H 0.93617 0.35609 0.26621
 H2312 H 1.00534 0.35020 0.27054
 C2313 C 0.28217 0.88166 0.49153
 C2314 C 0.26958 0.86901 0.47924
 C2315 C 0.26492 0.84735 0.48617
 C2316 C 0.25252 0.83465 0.47376
 H2317 H 0.26318 0.87417 0.46348
 H2318 H 0.27211 0.84162 0.50138
 H2319 H 0.28915 0.87558 0.50670
 H2320 H 0.24541 0.84050 0.45855
 C2321 C 0.28349 0.37861 0.96559
 C2322 C 0.27315 0.36348 0.95442
 C2323 C 0.26821 0.34349 0.96533
 C2324 C 0.25993 0.32734 0.95397
 H2325 H 0.26989 0.36500 0.93690
 H2326 H 0.27259 0.34157 0.98260
 H2327 H 0.28736 0.37604 0.98290
 H2328 H 0.25553 0.32934 0.93671
 C2329 C 0.81028 0.37610 0.28803
 C2330 C 0.79069 0.38208 0.29044
 C2331 C 0.78251 0.40037 0.27826
 C2332 C 0.76363 0.40782 0.28167
 H2333 H 0.78056 0.37374 0.30135
 H2334 H 0.79251 0.40836 0.26687
 H2335 H 0.81958 0.38456 0.27631
 H2336 H 0.75386 0.40015 0.29349
   
