data_POSCAR
  _audit_creation_date              2014-09-24
  _audit_creation_method            'ToBaCCo'
  _symmetry_space_group_name_H-M    'P1'
  _symmetry_Int_Tables_number       1
  _symmetry_cell_setting            triclinic
  loop_
  _symmetry_equiv_pos_as_xyz
 x,y,z
_cell_length_a 59.8656
_cell_length_b 57.3375
_cell_length_c 62.5851
_cell_angle_alpha 90.876500
_cell_angle_beta 93.794600
_cell_angle_gamma 90.558200
loop_
  _atom_site_label
  _atom_site_type_symbol
  _atom_site_fract_x
  _atom_site_fract_y
  _atom_site_fract_z
C1 C 0.20824 0.22691 0.21784
 N2 N 0.21028 0.24423 0.20357
 C3 C 0.22412 0.24190 0.18741
 N4 N 0.23614 0.22207 0.18560
 C5 C 0.23426 0.20462 0.19983
 N6 N 0.22023 0.20707 0.21593
 C7 C 0.66977 0.70816 0.71442
 N8 N 0.68292 0.69024 0.72144
 C9 C 0.70073 0.68375 0.71047
 N10 N 0.70534 0.69529 0.69247
 C11 C 0.69231 0.71310 0.68534
 N12 N 0.67450 0.71950 0.69635
 C13 C 0.29025 0.79071 0.69557
 N14 N 0.27544 0.80814 0.69791
 C15 C 0.25697 0.80994 0.68429
 N16 N 0.25346 0.79411 0.66807
 C17 C 0.26823 0.77661 0.66543
 N18 N 0.28668 0.77487 0.67926
 C19 C 0.82812 0.27678 0.25750
 N20 N 0.81313 0.29366 0.26132
 C21 C 0.79509 0.29708 0.24748
 N22 N 0.79193 0.28333 0.22958
 C23 C 0.80685 0.26624 0.22568
 N24 N 0.82488 0.26312 0.23964
 C25 C 0.80656 0.74139 0.27359
 N26 N 0.79471 0.72146 0.26884
 C27 C 0.77925 0.71376 0.28209
 N28 N 0.77555 0.72619 0.30020
 C29 C 0.78735 0.74620 0.30500
 N30 N 0.80287 0.75360 0.29171
 C31 C 0.32147 0.23540 -0.21073
 N32 N 0.31908 0.25203 -0.19541
 C33 C 0.30134 0.25159 -0.18310
 N34 N 0.28586 0.23424 -0.18607
 C35 C 0.28794 0.21742 -0.20130
 N36 N 0.30581 0.21801 -0.21372
 C37 C 0.70255 0.27599 -0.20058
 N38 N 0.70678 0.26505 -0.18165
 C39 C 0.72561 0.27026 -0.16913
 N40 N 0.74023 0.28639 -0.17568
 C41 C 0.73624 0.29750 -0.19450
 N42 N 0.71731 0.29228 -0.20700
 C43 C 0.18676 0.77300 0.26915
 N44 N 0.20495 0.78689 0.26750
 C45 C 0.22340 0.78481 0.28108
 N46 N 0.22353 0.76849 0.29658
 C47 C 0.20539 0.75429 0.29841
 N48 N 0.18696 0.75661 0.28465
 C49 C 0.48057 0.42247 0.47039
 N50 N 0.46242 0.43657 0.47049
 C51 C 0.45878 0.45255 0.45477
 N52 N 0.47334 0.45432 0.43908
 C53 C 0.49144 0.44025 0.43898
 N54 N 0.49492 0.42442 0.45463
 C55 C -0.01951 -0.02179 0.96914
 N56 N -0.03725 -0.00821 0.97334
 C57 C -0.04273 0.01034 0.96087
 N58 N -0.03030 0.01526 0.94412
 C59 C -0.01258 0.00184 0.93971
 N60 N -0.00721 -0.01673 0.95226
 C61 C 1.02448 0.57587 0.97153
 N62 N 1.00952 0.57467 0.95419
 C63 C 1.01083 0.55735 0.93930
 N64 N 1.02723 0.54122 0.94177
 C65 C 1.04225 0.54230 0.95895
 N66 N 1.04080 0.55964 0.97381
 C67 C 0.51489 0.06488 0.46553
 N68 N 0.53296 0.05063 0.46699
 C69 C 0.53631 0.03498 0.45097
 N70 N 0.52155 0.03375 0.43358
 C71 C 0.50352 0.04791 0.43201
 N72 N 0.50023 0.06340 0.44805
 C73 C -0.03426 0.03262 0.52381
 N74 N -0.05351 0.02038 0.51940
 C75 C -0.06261 0.00751 0.53466
 N76 N -0.05216 0.00678 0.55460
 C77 C -0.03279 0.01897 0.55921
 N78 N -0.02390 0.03195 0.54376
 C79 C 0.47313 0.58336 0.03921
 N80 N 0.45534 0.56838 0.03773
 C81 C 0.45341 0.55158 0.05260
 N82 N 0.46938 0.54979 0.06888
 C83 C 0.48721 0.56467 0.07046
 N84 N 0.48899 0.58146 0.05561
 C85 C 0.52953 -0.06234 0.01509
 N86 N 0.54755 -0.04791 0.01880
 C87 C 0.54894 -0.03315 0.03604
 N88 N 0.53220 -0.03291 0.04963
 C89 C 0.51415 -0.04732 0.04615
 N90 N 0.51286 -0.06198 0.02886
 C91 C 1.03728 0.42462 0.53197
 N92 N 1.02172 0.42872 0.54628
 C93 C 1.02271 0.44831 0.55869
 N94 N 1.03951 0.46413 0.55672
 C95 C 1.05518 0.46027 0.54230
 N96 N 1.05401 0.44046 0.52999
 C97 C 0.39955 0.00279 0.20351
 H98 H 0.39918 0.01786 0.21409
 C99 C 0.41436 0.00229 0.18723
 H100 H 0.42533 0.01713 0.18529
 C101 C 0.38604 -0.03509 0.19360
 H102 H 0.37532 -0.04982 0.19646
 C103 C 0.40060 -0.03632 0.17706
 H104 H 0.40086 -0.05218 0.16754
 N105 N 0.38565 -0.01564 0.20630
 C106 C 0.33079 0.01354 0.24024
 H107 H 0.33097 0.00211 0.25385
 C108 C 0.31537 0.03162 0.23843
 H109 H 0.30370 0.03405 0.25077
 C110 C 0.34587 0.02423 0.20770
 H111 H 0.35758 0.02110 0.19560
 C112 C 0.33069 0.04250 0.20521
 H113 H 0.33099 0.05296 0.19103
 Zn114 Zn 0.36711 -0.01359 0.22957
 N115 N 0.34599 0.01054 0.22526
 C116 C 0.38309 0.01215 0.26677
 N117 N 0.38602 -0.00716 0.25444
 C118 C 0.40310 -0.02205 0.25912
 C119 C 0.41768 -0.01817 0.27718
 C120 C 0.39722 0.01670 0.28503
 C121 C 0.33552 -0.04811 0.21676
 C122 C 0.32222 -0.06800 0.21869
 C123 C 0.34091 -0.07445 0.25347
 C124 C 0.35381 -0.05439 0.25085
 N125 N 0.35098 -0.04174 0.23269
 H126 H 0.36987 0.02419 0.26245
 H127 H 0.40531 -0.03705 0.24880
 H128 H 0.43104 -0.03044 0.28064
 H129 H 0.39418 0.03226 0.29425
 H130 H 0.33335 -0.03752 0.20263
 H131 H 0.30990 -0.07258 0.20580
 H132 H 0.34360 -0.08373 0.26827
 H133 H 0.36579 -0.04875 0.26358
 C134 C 0.31545 0.04668 0.22098
 C135 C 0.41497 -0.01736 0.17367
 C136 C 0.32465 -0.08150 0.23726
 C137 C 0.41482 0.00130 0.29062
 C138 C 0.09151 0.00872 0.72417
 H139 H 0.09054 -0.00675 0.73377
 C140 C 0.07635 0.01168 0.70649
 H141 H 0.06401 -0.00187 0.70265
 C142 C 0.10964 0.04449 0.71736
 H143 H 0.12259 0.05727 0.72163
 C144 C 0.09483 0.04816 0.69958
 H145 H 0.09666 0.06374 0.69024
 N146 N 0.10805 0.02475 0.72896
 C147 C 0.16310 -0.01399 0.75969
 H148 H 0.16622 -0.00376 0.77427
 C149 C 0.17664 -0.03299 0.75557
 H150 H 0.19014 -0.03737 0.76716
 C151 C 0.14204 -0.02028 0.72668
 H152 H 0.12891 -0.01493 0.71520
 C153 C 0.15522 -0.03939 0.72189
 H154 H 0.15183 -0.04832 0.70668
 Zn155 Zn 0.12929 0.01856 0.75192
 N156 N 0.14602 -0.00818 0.74544
 C157 C 0.11565 -0.00681 0.78752
 N158 N 0.11370 0.01371 0.77699
 C159 C 0.10004 0.03076 0.78367
 C160 C 0.08801 0.02773 0.80187
 C161 C 0.10403 -0.01058 0.80579
 C162 C 0.16421 0.04688 0.73990
 C163 C 0.18062 0.06437 0.74177
 C164 C 0.16810 0.07466 0.77655
 C165 C 0.15196 0.05686 0.77401
 N166 N 0.15017 0.04356 0.75580
 H167 H 0.12609 -0.02045 0.78172
 H168 H 0.09850 0.04679 0.77482
 H169 H 0.07754 0.04186 0.80660
 H170 H 0.10598 -0.02709 0.81388
 H171 H 0.16267 0.03579 0.72572
 H172 H 0.19154 0.06662 0.72880
 H173 H 0.16892 0.08462 0.79136
 H174 H 0.14103 0.05359 0.78671
 C175 C 0.17275 -0.04606 0.73654
 C176 C 0.07805 0.03158 0.69378
 C177 C 0.18279 0.07872 0.76022
 C178 C 0.08992 0.00674 0.81333
 C179 C 0.60206 0.48761 0.23087
 H180 H 0.60144 0.47153 0.23965
 C181 C 0.58659 0.49143 0.21367
 H182 H 0.57413 0.47811 0.20918
 C183 C 0.61873 0.52473 0.22651
 H184 H 0.63088 0.53793 0.23192
 C185 C 0.60353 0.52931 0.20921
 H186 H 0.60437 0.54609 0.20168
 N187 N 0.61786 0.50405 0.23681
 C188 C 0.67033 0.46454 0.27142
 H189 H 0.67192 0.47402 0.28653
 C190 C 0.68388 0.44526 0.26810
 H191 H 0.69586 0.44041 0.28087
 C192 C 0.65310 0.46029 0.23641
 H193 H 0.64139 0.46638 0.22393
 C194 C 0.66626 0.44094 0.23242
 H195 H 0.66430 0.43222 0.21692
 Zn196 Zn 0.63708 0.49770 0.26118
 N197 N 0.65509 0.47146 0.25579
 C198 C 0.61898 0.47188 0.29493
 N199 N 0.61819 0.49195 0.28364
 C200 C 0.60280 0.50857 0.28724
 C201 C 0.58761 0.50555 0.30294
 C202 C 0.60411 0.46812 0.31088
 C203 C 0.67080 0.53058 0.25398
 C204 C 0.68423 0.55044 0.25804
 C205 C 0.66787 0.55514 0.29208
 C206 C 0.65476 0.53525 0.28732
 N207 N 0.65606 0.52371 0.26831
 H208 H 0.63098 0.45863 0.29147
 H209 H 0.60231 0.52421 0.27777
 H210 H 0.57554 0.51912 0.30546
 H211 H 0.60532 0.45188 0.31934
 H212 H 0.67176 0.52084 0.23913
 H213 H 0.69538 0.55536 0.24599
 H214 H 0.66621 0.56422 0.30720
 H215 H 0.64338 0.52922 0.29878
 C216 C 0.68176 0.43299 0.24838
 C217 C 0.58724 0.51242 0.20252
 C218 C 0.68265 0.56334 0.27727
 C219 C 0.58805 0.48516 0.31514
 C220 C 0.90761 0.51112 0.71244
 H221 H 0.90722 0.52628 0.72291
 C222 C 0.92307 0.51010 0.69674
 H223 H 0.93452 0.52462 0.69513
 C224 C 0.89337 0.47362 0.70218
 H225 H 0.88205 0.45927 0.70466
 C226 C 0.90860 0.47184 0.68624
 H227 H 0.90877 0.45590 0.67683
 N228 N 0.89302 0.49315 0.71473
 C229 C 0.83717 0.52459 0.74554
 H230 H 0.83662 0.51398 0.75965
 C231 C 0.82171 0.54245 0.74201
 H232 H 0.80955 0.54536 0.75372
 C233 C 0.85400 0.53322 0.71334
 H234 H 0.86637 0.52941 0.70203
 C235 C 0.83889 0.55120 0.70916
 H236 H 0.83999 0.56120 0.69471
 Zn237 Zn 0.87346 0.49609 0.73713
 N238 N 0.85308 0.52055 0.73143
 C239 C 0.88865 0.52197 0.77471
 N240 N 0.89163 0.50260 0.76246
 C241 C 0.90844 0.48750 0.76748
 C242 C 0.92271 0.49123 0.78575
 C243 C 0.90253 0.52641 0.79319
 C244 C 0.84108 0.46178 0.72427
 C245 C 0.82712 0.44244 0.72675
 C246 C 0.84513 0.43708 0.76198
 C247 C 0.85860 0.45655 0.75885
 N248 N 0.85646 0.46842 0.74021
 H249 H 0.87558 0.53411 0.77016
 H250 H 0.91067 0.47244 0.75724
 H251 H 0.93588 0.47879 0.78944
 H252 H 0.89947 0.54197 0.80240
 H253 H 0.83941 0.47178 0.70974
 H254 H 0.81486 0.43763 0.71388
 H255 H 0.84731 0.42870 0.77727
 H256 H 0.87041 0.46244 0.77161
 C257 C 0.82251 0.55611 0.72357
 C258 C 0.92363 0.49039 0.68326
 C259 C 0.82891 0.42971 0.74582
 C260 C 0.91989 0.51081 0.79905
 C261 C 0.21936 0.43463 0.01816
 H262 H 0.23091 0.43522 0.03221
 C263 C 0.20049 0.44879 0.01718
 H264 H 0.19753 0.46020 0.03063
 C265 C 0.20954 0.41942 -0.01664
 H266 H 0.21342 0.40840 -0.03001
 C267 C 0.19051 0.43333 -0.01833
 H268 H 0.18019 0.43272 -0.03316
 N269 N 0.22337 0.42013 0.00149
 C270 C 0.26655 0.36577 0.02850
 H271 H 0.27997 0.36667 0.01777
 C272 C 0.26701 0.34904 0.04447
 H273 H 0.28093 0.33713 0.04606
 C274 C 0.23183 0.37991 0.03910
 H275 H 0.21789 0.39158 0.03661
 C276 C 0.23163 0.36346 0.05531
 H277 H 0.21733 0.36273 0.06496
 Zn278 Zn 0.24977 0.40226 0.00356
 N279 N 0.24927 0.38094 0.02627
 C280 C 0.28868 0.42167 0.02566
 N281 N 0.27421 0.42326 0.00809
 C282 C 0.27647 0.44035 -0.00644
 C283 C 0.29425 0.45628 -0.00394
 C284 C 0.30672 0.43722 0.02882
 C285 C 0.23679 0.36746 -0.02645
 C286 C 0.23847 0.35279 -0.04424
 C287 C 0.27258 0.37300 -0.05186
 C288 C 0.27020 0.38728 -0.03391
 N289 N 0.25247 0.38436 -0.02170
 H290 H 0.28626 0.40836 0.03733
 H291 H 0.26448 0.44145 -0.02009
 H292 H 0.29580 0.46959 -0.01589
 H293 H 0.31773 0.43511 0.04299
 H294 H 0.22305 0.36527 -0.01624
 H295 H 0.22577 0.33939 -0.04762
 H296 H 0.28702 0.37596 -0.06093
 H297 H 0.28279 0.40043 -0.02957
 C298 C 0.24953 0.34787 0.05826
 C299 C 0.18569 0.44815 -0.00115
 C300 C 0.25659 0.35526 -0.05725
 C301 C 0.30987 0.45485 0.01377
 C302 C 0.72503 0.08425 0.01284
 H303 H 0.73572 0.08547 -0.00039
 C304 C 0.70879 0.06665 0.01284
 H305 H 0.70705 0.05436 -0.00050
 C306 C 0.71433 0.09896 0.04619
 H307 H 0.71673 0.11145 0.05925
 C308 C 0.69781 0.08160 0.04684
 H309 H 0.68788 0.08100 0.06062
 N310 N 0.72720 0.10023 0.02912
 C311 C 0.75335 0.16233 -0.00019
 H312 H 0.76821 0.16593 0.01018
 C313 C 0.74805 0.17664 -0.01764
 H314 H 0.75887 0.19139 -0.02020
 C315 C 0.72103 0.13900 -0.00872
 H316 H 0.71037 0.12450 -0.00511
 C317 C 0.71510 0.15284 -0.02630
 H318 H 0.70002 0.14863 -0.03619
 Zn319 Zn 0.74906 0.12393 0.02668
 N320 N 0.74019 0.14359 0.00361
 C321 C 0.78708 0.11355 0.00339
 N322 N 0.77628 0.10889 0.02130
 C323 C 0.78403 0.09250 0.03531
 C324 C 0.80362 0.08040 0.03179
 C325 C 0.80676 0.10193 -0.00076
 C326 C 0.73523 0.15602 0.05757
 C327 C 0.73752 0.17069 0.07565
 C328 C 0.77568 0.15788 0.08174
 C329 C 0.77264 0.14352 0.06353
 N330 N 0.75261 0.14267 0.05196
 H331 H 0.78038 0.12613 -0.00791
 H332 H 0.77489 0.08880 0.04924
 H333 H 0.80944 0.06746 0.04325
 H334 H 0.81457 0.10623 -0.01526
 H335 H 0.71958 0.15536 0.04787
 H336 H 0.72339 0.18113 0.07976
 H337 H 0.79198 0.15794 0.09018
 H338 H 0.78647 0.13329 0.05855
 C339 C 0.72890 0.17161 -0.03126
 C340 C 0.69463 0.06539 0.02976
 C341 C 0.75793 0.17183 0.08815
 C342 C 0.81543 0.08501 0.01360
 C343 C 0.22529 0.56428 0.47607
 H344 H 0.23468 0.56243 0.46196
 C345 C 0.20685 0.54971 0.47870
 H346 H 0.20205 0.53673 0.46645
 C347 C 0.22053 0.58302 0.50941
 H348 H 0.22623 0.59558 0.52164
 C349 C 0.20202 0.56881 0.51271
 H350 H 0.19395 0.57079 0.52756
 N351 N 0.23162 0.58070 0.49122
 C352 C 0.26992 0.63317 0.45869
 H353 H 0.28494 0.63386 0.46929
 C354 C 0.26772 0.64808 0.44126
 H355 H 0.28123 0.66015 0.43853
 C356 C 0.23397 0.61688 0.44972
 H357 H 0.22070 0.60493 0.45324
 C358 C 0.23105 0.63151 0.43207
 H359 H 0.21560 0.63011 0.42220
 Zn360 Zn 0.25748 0.59914 0.48724
 N361 N 0.25325 0.61784 0.46251
 C362 C 0.29421 0.57872 0.46730
 N363 N 0.28180 0.57851 0.48471
 C364 C 0.28607 0.56311 0.50072
 C365 C 0.30382 0.54757 0.49991
 C366 C 0.31217 0.56350 0.46580
 C367 C 0.24787 0.63643 0.51422
 C368 C 0.25088 0.65214 0.53146
 C369 C 0.28606 0.63370 0.54145
 C370 C 0.28232 0.61834 0.52400
 N371 N 0.26330 0.61975 0.51099
 H372 H 0.29024 0.59068 0.45447
 H373 H 0.27572 0.56305 0.51425
 H374 H 0.30697 0.53564 0.51301
 H375 H 0.32152 0.56446 0.45168
 H376 H 0.23305 0.63740 0.50340
 H377 H 0.23802 0.66491 0.53331
 H378 H 0.30129 0.63209 0.55166
 H379 H 0.29468 0.60533 0.52091
 C380 C 0.24809 0.64750 0.42769
 C381 C 0.19485 0.55194 0.49712
 C382 C 0.27021 0.65086 0.54558
 C383 C 0.31737 0.54763 0.48239
 C384 C 0.69983 0.91129 0.51355
 H385 H 0.70940 0.90953 0.52871
 C386 C 0.68419 0.92906 0.51091
 H387 H 0.68171 0.94088 0.52418
 C388 C 0.69168 0.89804 0.47782
 H389 H 0.69494 0.88614 0.46488
 C390 C 0.67589 0.91563 0.47444
 H391 H 0.66738 0.91691 0.45875
 N392 N 0.70300 0.89599 0.49725
 C393 C 0.72860 0.83391 0.52927
 H394 H 0.74382 0.83122 0.52120
 C395 C 0.72283 0.81869 0.54527
 H396 H 0.73378 0.80428 0.54905
 C397 C 0.69578 0.85584 0.53330
 H398 H 0.68510 0.87012 0.52841
 C399 C 0.68939 0.84111 0.54940
 H400 H 0.67392 0.84443 0.55692
 Zn401 Zn 0.72463 0.87263 0.50266
 N402 N 0.71534 0.85231 0.52392
 C403 C 0.76265 0.88368 0.53124
 N404 N 0.75159 0.88819 0.51210
 C405 C 0.75913 0.90474 0.49898
 C406 C 0.77899 0.91694 0.50448
 C407 C 0.78260 0.89552 0.53745
 C408 C 0.71174 0.84127 0.46874
 C409 C 0.71468 0.82733 0.45062
 C410 C 0.75313 0.84063 0.45142
 C411 C 0.74945 0.85417 0.46953
 N412 N 0.72895 0.85455 0.47765
 H413 H 0.75609 0.87090 0.54173
 H414 H 0.74971 0.90831 0.48405
 H415 H 0.78414 0.92985 0.49341
 H416 H 0.79125 0.89145 0.55268
 H417 H 0.69571 0.84148 0.47576
 H418 H 0.70067 0.81699 0.44376
 H419 H 0.76981 0.84083 0.44590
 H420 H 0.76318 0.86415 0.47723
 C421 C 0.70311 0.82247 0.55585
 C422 C 0.67176 0.93126 0.49128
 C423 C 0.73554 0.82698 0.44148
 C424 C 0.79130 0.91223 0.52393
 C425 C 0.05412 0.19073 0.41675
 H426 H 0.06891 0.20179 0.41766
 C427 C 0.05211 0.17288 0.43148
 H428 H 0.06551 0.17013 0.44364
 C429 C 0.01826 0.18150 0.40032
 H430 H 0.00481 0.18534 0.38860
 C431 C 0.01559 0.16344 0.41465
 H432 H -0.00007 0.15381 0.41371
 N433 N 0.03734 0.19463 0.40154
 C434 C 0.06636 0.23276 0.35030
 H435 H 0.05513 0.24743 0.34926
 C436 C 0.08319 0.23067 0.33604
 H437 H 0.08440 0.24376 0.32392
 C438 C 0.07719 0.19732 0.36679
 H439 H 0.07455 0.18419 0.37858
 C440 C 0.09429 0.19455 0.35285
 H441 H 0.10484 0.17933 0.35415
 Zn442 Zn 0.04016 0.22055 0.38354
 N443 N 0.06383 0.21637 0.36542
 C444 C 0.06326 0.26167 0.39961
 N445 N 0.04554 0.24704 0.40155
 C446 C 0.03089 0.25064 0.41689
 C447 C 0.03322 0.27002 0.43061
 C448 C 0.06627 0.28134 0.41299
 C449 C 0.00764 0.20810 0.35071
 C450 C -0.01174 0.21061 0.33725
 C451 C -0.01840 0.24736 0.35496
 C452 C 0.00113 0.24416 0.36799
 N453 N 0.01353 0.22463 0.36589
 H454 H 0.07503 0.25825 0.38762
 H455 H 0.01713 0.23849 0.41827
 H456 H 0.02092 0.27208 0.44230
 H457 H 0.08036 0.29292 0.41095
 H458 H 0.01802 0.19292 0.34910
 H459 H -0.01613 0.19711 0.32536
 H460 H -0.02749 0.26325 0.35725
 H461 H 0.00639 0.25747 0.37967
 C462 C 0.09763 0.21146 0.33738
 C463 C 0.03272 0.15890 0.43048
 C464 C -0.02527 0.23033 0.33932
 C465 C 0.05105 0.28598 0.42867
 C466 C -0.03005 0.75120 0.08029
 H467 H -0.04394 0.76316 0.07951
 C468 C -0.02856 0.73399 0.06442
 H469 H -0.04145 0.73272 0.05146
 C470 C 0.00374 0.73853 0.09804
 H471 H 0.01655 0.74065 0.11092
 C472 C 0.00596 0.72117 0.08248
 H473 H 0.02065 0.71038 0.08375
 N474 N -0.01425 0.75286 0.09688
 C475 C -0.04757 0.78638 0.14886
 H476 H -0.03626 0.80092 0.15260
 C477 C -0.06594 0.78279 0.16110
 H478 H -0.06863 0.79509 0.17388
 C479 C -0.05728 0.75289 0.12751
 H480 H -0.05360 0.74093 0.11476
 C481 C -0.07579 0.74859 0.13937
 H482 H -0.08633 0.73347 0.13539
 Zn483 Zn -0.01720 0.77646 0.11794
 N484 N -0.04363 0.77158 0.13239
 C485 C -0.03580 0.81979 0.10476
 N486 N -0.01794 0.80546 0.10370
 C487 C -0.00097 0.81060 0.09109
 C488 C -0.00157 0.83078 0.07880
 C489 C -0.03704 0.84020 0.09289
 C490 C 0.00771 0.75586 0.15140
 C491 C 0.02488 0.75324 0.16733
 C492 C 0.04013 0.79049 0.15766
 C493 C 0.02257 0.79239 0.14191
 N494 N 0.00699 0.77506 0.13892
 H495 H -0.04940 0.81521 0.11445
 H496 H 0.01289 0.79872 0.09029
 H497 H 0.01226 0.83403 0.06899
 H498 H -0.05157 0.85118 0.09391
 H499 H -0.00508 0.74246 0.14885
 H500 H 0.02510 0.73765 0.17692
 H501 H 0.05211 0.80469 0.15938
 H502 H 0.02143 0.80772 0.13208
 C503 C -0.08022 0.76344 0.15657
 C504 C -0.01056 0.71848 0.06553
 C505 C 0.04159 0.77054 0.17065
 C506 C -0.01999 0.84590 0.07939
 C507 C 0.49489 0.21277 0.60711
 H508 H 0.47973 0.22291 0.60586
 C509 C 0.49792 0.19472 0.59242
 H510 H 0.48490 0.19156 0.57992
 C511 C 0.53051 0.20598 0.62453
 H512 H 0.54335 0.21072 0.63682
 C513 C 0.53421 0.18769 0.61021
 H514 H 0.54986 0.17834 0.61176
 N515 N 0.51100 0.21796 0.62283
 C516 C 0.47556 0.25325 0.67244
 H517 H 0.48471 0.26963 0.67382
 C518 C 0.45766 0.24929 0.68518
 H519 H 0.45307 0.26306 0.69597
 C520 C 0.47026 0.21599 0.65592
 H521 H 0.47530 0.20297 0.64461
 C522 C 0.45226 0.21128 0.66836
 H523 H 0.44351 0.19468 0.66640
 Zn524 Zn 0.50544 0.24374 0.64091
 N525 N 0.48132 0.23683 0.65798
 C526 C 0.47854 0.28068 0.62332
 N527 N 0.49821 0.26909 0.62272
 C528 C 0.51318 0.27444 0.60812
 C529 C 0.50892 0.29233 0.59361
 C530 C 0.47355 0.29874 0.60909
 C531 C 0.53794 0.23542 0.67440
 C532 C 0.55672 0.24009 0.68836
 C533 C 0.56082 0.27728 0.67137
 C534 C 0.54192 0.27192 0.65785
 N535 N 0.53107 0.25114 0.65938
 H536 H 0.46656 0.27582 0.63467
 H537 H 0.52852 0.26465 0.60774
 H538 H 0.52146 0.29576 0.58244
 H539 H 0.45776 0.30770 0.60989
 H540 H 0.52883 0.21913 0.67545
 H541 H 0.56165 0.22690 0.69980
 H542 H 0.56923 0.29391 0.66968
 H543 H 0.53597 0.28447 0.64618
 C544 C 0.44577 0.22797 0.68327
 C545 C 0.51779 0.18175 0.59392
 C546 C 0.56860 0.26134 0.68694
 C547 C 0.48876 0.30490 0.59388
 C548 C 0.49008 0.71997 0.89188
 H549 H 0.50489 0.73101 0.89295
 C550 C 0.48700 0.70351 0.90759
 H551 H 0.49995 0.70179 0.92031
 C552 C 0.45574 0.70883 0.87336
 H553 H 0.44347 0.71122 0.86015
 C554 C 0.45191 0.69217 0.88883
 H555 H 0.43674 0.68166 0.88729
 N556 N 0.47466 0.72223 0.87514
 C557 C 0.51394 0.75525 0.82761
 H558 H 0.50456 0.77105 0.82469
 C559 C 0.53299 0.75088 0.81650
 H560 H 0.53827 0.76377 0.80542
 C561 C 0.51830 0.71957 0.84595
 H562 H 0.51230 0.70716 0.85709
 C563 C 0.53741 0.71451 0.83522
 H564 H 0.54609 0.69832 0.83844
 Zn565 Zn 0.48049 0.74613 0.85577
 N566 N 0.50707 0.73975 0.84209
 C567 C 0.50276 0.78665 0.87431
 N568 N 0.48340 0.77397 0.87242
 C569 C 0.46582 0.77951 0.88410
 C570 C 0.46728 0.79841 0.89843
 C571 C 0.50500 0.80573 0.88852
 C572 C 0.45284 0.72975 0.82071
 C573 C 0.43621 0.73084 0.80403
 C574 C 0.42873 0.77040 0.81504
 C575 C 0.44548 0.76849 0.83151
 N576 N 0.45701 0.74835 0.83415
 H577 H 0.51675 0.78162 0.86528
 H578 H 0.45076 0.76887 0.88258
 H579 H 0.45307 0.80222 0.90772
 H580 H 0.52079 0.81506 0.88970
 H581 H 0.46255 0.71405 0.82295
 H582 H 0.43318 0.71573 0.79358
 H583 H 0.42013 0.78680 0.81374
 H584 H 0.44942 0.78329 0.84202
 C585 C 0.54488 0.73011 0.82014
 C586 C 0.46751 0.68953 0.90636
 C587 C 0.42380 0.75135 0.80088
 C588 C 0.48713 0.81173 0.90111
 C589 C 0.19295 0.23007 0.23504
 C590 C 0.18802 0.21245 0.24913
 C591 C 0.17186 0.21607 0.26556
 N592 N 0.16540 0.19797 0.27752
 N593 N 0.15037 0.20105 0.29209
 C594 C 0.14135 0.22238 0.29526
 N595 N 0.14794 0.24048 0.28341
 N596 N 0.16289 0.23739 0.26883
 C597 C 0.12436 0.22617 0.31082
 C598 C 0.11568 0.20810 0.32257
 H599 H 0.19561 0.19547 0.24771
 H600 H 0.11859 0.24382 0.31285
 H601 H 0.18485 0.24680 0.23622
 H602 H 0.12265 0.19082 0.32116
 C603 C 0.65047 0.71558 0.72610
 C604 C 0.64506 0.70546 0.74522
 C605 C 0.62575 0.71313 0.75678
 N606 N 0.62133 0.70303 0.77553
 N607 N 0.60384 0.70973 0.78612
 C608 C 0.59011 0.72679 0.77834
 N609 N 0.59455 0.73690 0.75962
 N610 N 0.61204 0.73022 0.74903
 C611 C 0.57055 0.73420 0.78967
 C612 C 0.56502 0.72404 0.80877
 H613 H 0.65527 0.69157 0.75200
 H614 H 0.56002 0.74742 0.78226
 H615 H 0.64033 0.72960 0.71946
 H616 H 0.57538 0.71009 0.81523
 C617 C 0.30984 0.78976 0.71094
 C618 C 0.32470 0.77120 0.71242
 C619 C 0.34312 0.77115 0.72929
 N620 N 0.35614 0.75206 0.73232
 N621 N 0.37241 0.75188 0.74797
 C622 C 0.37623 0.77081 0.76111
 N623 N 0.36332 0.78988 0.75795
 N624 N 0.34709 0.79004 0.74238
 C625 C 0.39375 0.77114 0.77876
 C626 C 0.40719 0.75191 0.78382
 H627 H 0.32236 0.75629 0.70164
 H628 H 0.39550 0.78721 0.78793
 H629 H 0.31207 0.80422 0.72225
 H630 H 0.40457 0.73632 0.77390
 C631 C -0.15334 0.27400 0.27190
 C632 C -0.13706 0.25710 0.26925
 C633 C -0.11727 0.25514 0.28437
 N634 N -0.10214 0.23805 0.28161
 N635 N -0.08406 0.23626 0.29508
 C636 C -0.08043 0.25154 0.31179
 N637 N -0.09554 0.26862 0.31451
 N638 N -0.11363 0.27038 0.30108
 C639 C -0.06048 0.25015 0.32676
 C640 C -0.04480 0.23227 0.32561
 H641 H -0.13868 0.24503 0.25573
 H642 H -0.05872 0.26358 0.33903
 H643 H -0.15157 0.28571 0.28568
 H644 H -0.04813 0.21878 0.31346
 C645 C -0.17638 0.74979 0.25959
 C646 C -0.17232 0.73871 0.24027
 C647 C -0.15465 0.74680 0.22679
 N648 N -0.15170 0.73589 0.20782
 N649 N -0.13551 0.74277 0.19563
 C650 C -0.12166 0.76083 0.20201
 N651 N -0.12463 0.77176 0.22096
 N652 N -0.14084 0.76490 0.23313
 C653 C -0.10328 0.76831 0.18908
 C654 C -0.09950 0.75780 0.16938
 H655 H -0.18224 0.72359 0.23488
 H656 H -0.09224 0.78189 0.19584
 H657 H -0.16669 0.76515 0.26477
 H658 H -0.11074 0.74390 0.16342
 C659 C 0.34015 0.23676 0.77719
 C660 C 0.34468 0.22127 0.76064
 C661 C 0.36499 0.22432 0.74878
 N662 N 0.36835 0.21087 0.73125
 N663 N 0.38654 0.21398 0.72036
 C664 C 0.40206 0.23061 0.72666
 N665 N 0.39874 0.24390 0.74423
 N666 N 0.38058 0.24083 0.75505
 C667 C 0.42205 0.23489 0.71477
 C668 C 0.42626 0.22285 0.69595
 H669 H 0.33316 0.20709 0.75609
 H670 H 0.43372 0.24808 0.72128
 H671 H 0.35177 0.25106 0.78101
 H672 H 0.41502 0.20877 0.69042
 C673 C 0.68211 0.26965 0.78616
 C674 C 0.67552 0.28089 0.76720
 C675 C 0.65504 0.27390 0.75421
 N676 N 0.64813 0.28641 0.73680
 N677 N 0.62964 0.28022 0.72493
 C678 C 0.61740 0.26123 0.73000
 N679 N 0.62438 0.24869 0.74735
 N680 N 0.64281 0.25492 0.75924
 C681 C 0.59699 0.25396 0.71703
 C682 C 0.58785 0.26736 0.70017
 H683 H 0.68545 0.29528 0.76183
 H684 H 0.58911 0.23789 0.72145
 H685 H 0.67180 0.25565 0.79170
 H686 H 0.59614 0.28378 0.69720
 C687 C 0.16727 0.77661 0.25408
 C688 C 0.14782 0.76298 0.25303
 C689 C 0.12915 0.76797 0.23721
 N690 N 0.11107 0.75346 0.23478
 N691 N 0.09438 0.75784 0.22025
 C692 C 0.09513 0.77693 0.20767
 N693 N 0.11313 0.79147 0.21022
 N694 N 0.12980 0.78706 0.22468
 C695 C 0.07713 0.78208 0.19127
 C696 C 0.05888 0.76700 0.18665
 H697 H 0.14641 0.74835 0.26362
 H698 H 0.07904 0.79795 0.18249
 H699 H 0.16855 0.79084 0.24302
 H700 H 0.05824 0.75118 0.19588
 C701 C 0.24766 0.18345 0.19771
 C702 C 0.24588 0.16447 0.21118
 C703 C 0.26002 0.14375 0.20958
 N704 N 0.25729 0.12550 0.22274
 N705 N 0.27028 0.10682 0.22177
 C706 C 0.28651 0.10573 0.20762
 N707 N 0.28920 0.12396 0.19443
 N708 N 0.27619 0.14262 0.19538
 C709 C 0.30148 0.08557 0.20675
 C710 C 0.29954 0.06637 0.21999
 H711 H 0.23392 0.16483 0.22344
 H712 H 0.31480 0.08659 0.19596
 H713 H 0.25936 0.18290 0.18523
 H714 H 0.28640 0.06634 0.23110
 C715 C 0.71484 0.66424 0.71798
 C716 C 0.73324 0.65733 0.70697
 C717 C 0.74757 0.63771 0.71350
 N718 N 0.76505 0.63218 0.70176
 N719 N 0.77826 0.61441 0.70719
 C720 C 0.77449 0.60146 0.72459
 N721 N 0.75700 0.60699 0.73639
 N722 N 0.74375 0.62480 0.73094
 C723 C 0.78902 0.58173 0.73065
 C724 C 0.80699 0.57558 0.71865
 H725 H 0.73736 0.66657 0.69277
 H726 H 0.78519 0.57208 0.74466
 H727 H 0.71063 0.65516 0.73224
 H728 H 0.80989 0.58564 0.70455
 C729 C 0.75182 0.31404 0.79968
 C730 C 0.74979 0.32702 0.78095
 C731 C 0.76692 0.34467 0.77649
 N732 N 0.76455 0.35805 0.75877
 N733 N 0.77987 0.37432 0.75506
 C734 C 0.79810 0.37774 0.76894
 N735 N 0.80046 0.36430 0.78655
 N736 N 0.78520 0.34810 0.79025
 C737 C 0.81495 0.39602 0.76587
 C738 C 0.81410 0.41076 0.74821
 H739 H 0.73543 0.32456 0.76965
 H740 H 0.82828 0.39754 0.77829
 H741 H 0.76635 0.31699 0.81070
 H742 H 0.80110 0.40740 0.73561
 C743 C 0.24192 -0.20048 0.27933
 C744 C 0.24243 -0.18402 0.26310
 C745 C 0.26081 -0.16716 0.26128
 N746 N 0.26004 -0.15249 0.24446
 N747 N 0.27600 -0.13646 0.24270
 C748 C 0.29336 -0.13444 0.25772
 N749 N 0.29419 -0.14918 0.27454
 N750 N 0.27821 -0.16528 0.27629
 C751 C 0.31059 -0.11609 0.25633
 C752 C 0.31029 -0.10088 0.23899
 H753 H 0.22857 -0.18308 0.25111
 H754 H 0.32317 -0.11461 0.26947
 H755 H 0.25612 -0.20188 0.29090
 H756 H 0.29773 -0.10409 0.22597
 C757 C 0.24164 -0.17221 0.68684
 C758 C 0.24458 -0.15547 0.70327
 C759 C 0.22860 -0.13661 0.70634
 N760 N 0.23284 -0.12083 0.72249
 N761 N 0.21863 -0.10359 0.72564
 C762 C 0.19962 -0.10149 0.71276
 N763 N 0.19537 -0.11729 0.69659
 N764 N 0.20960 -0.13455 0.69343
 C765 C 0.18383 -0.08246 0.71607
 C766 C 0.18775 -0.06582 0.73247
 H767 H 0.25917 -0.15604 0.71446
 H768 H 0.16888 -0.08193 0.70545
 H769 H 0.22705 -0.17143 0.67567
 H770 H 0.20256 -0.06752 0.74323
 C771 C 0.77951 0.31580 0.25236
 C772 C 0.76247 0.32345 0.23798
 C773 C 0.74829 0.34330 0.24340
 N774 N 0.73369 0.35245 0.22833
 N775 N 0.72121 0.37073 0.23305
 C776 C 0.72284 0.38050 0.25304
 N777 N 0.73731 0.37125 0.26810
 N778 N 0.74981 0.35304 0.26338
 C779 C 0.70943 0.40085 0.25863
 C780 C 0.69541 0.41228 0.24354
 H781 H 0.76001 0.31535 0.22224
 H782 H 0.71092 0.40675 0.27513
 H783 H 0.78227 0.32456 0.26778
 H784 H 0.69410 0.40550 0.22724
 C785 C 0.76714 0.69180 0.27665
 C786 C 0.75230 0.68152 0.29005
 C787 C 0.74117 0.65900 0.28452
 N788 N 0.72719 0.64924 0.29815
 N789 N 0.71711 0.62882 0.29333
 C790 C 0.72066 0.61739 0.27470
 N791 N 0.73463 0.62715 0.26108
 N792 N 0.74471 0.64755 0.26590
 C793 C 0.70949 0.59494 0.26891
 C794 C 0.69480 0.58412 0.28226
 H795 H 0.74899 0.68996 0.30510
 H796 H 0.71294 0.58738 0.25359
 H797 H 0.77052 0.68316 0.26171
 H798 H 0.69223 0.59268 0.29745
 C799 C 0.27162 0.19989 0.79649
 C800 C 0.27148 0.18169 0.78140
 C801 C 0.25374 0.16359 0.78048
 N802 N 0.25257 0.14705 0.76468
 N803 N 0.23649 0.13071 0.76382
 C804 C 0.22103 0.13030 0.77879
 N805 N 0.22228 0.14676 0.79461
 N806 N 0.23829 0.16309 0.79542
 C807 C 0.20311 0.11247 0.77832
 C808 C 0.19961 0.09618 0.76152
 H809 H 0.28436 0.18073 0.77006
 H810 H 0.19237 0.11292 0.79149
 H811 H 0.25823 0.20066 0.80730
 H812 H 0.21052 0.09730 0.74841
 C813 C 0.22552 0.26086 0.17202
 C814 C 0.23847 0.25952 0.15435
 C815 C 0.23862 0.27830 0.13861
 N816 N 0.25088 0.27613 0.12123
 N817 N 0.25082 0.29288 0.10670
 C818 C 0.23849 0.31241 0.10903
 N819 N 0.22628 0.31460 0.12642
 N820 N 0.22634 0.29786 0.14094
 C821 C 0.23789 0.33094 0.09302
 C822 C 0.25020 0.32975 0.07488
 H823 H 0.24840 0.24417 0.15174
 H824 H 0.22765 0.34595 0.09591
 H825 H 0.21556 0.27622 0.17450
 H826 H 0.26139 0.31521 0.07305
 C827 C 0.69798 0.72527 0.66591
 C828 C 0.68476 0.74281 0.65673
 C829 C 0.69115 0.75510 0.63757
 N830 N 0.67737 0.77131 0.62843
 N831 N 0.68315 0.78275 0.61123
 C832 C 0.70294 0.77841 0.60257
 N833 N 0.71670 0.76221 0.61171
 N834 N 0.71091 0.75074 0.62887
 C835 C 0.70992 0.79127 0.58394
 C836 C 0.69622 0.80775 0.57359
 H837 H 0.66937 0.74769 0.66373
 H838 H 0.72651 0.78793 0.57891
 H839 H 0.71311 0.72013 0.65858
 H840 H 0.67983 0.81078 0.57942
 C841 C 0.78399 0.76000 0.32449
 C842 C 0.76685 0.75566 0.33798
 C843 C 0.76422 0.77032 0.35719
 N844 N 0.74605 0.76768 0.36886
 N845 N 0.74359 0.78107 0.38616
 C846 C 0.75926 0.79754 0.39241
 N847 N 0.77744 0.80006 0.38081
 N848 N 0.77985 0.78675 0.36352
 C849 C 0.75719 0.81255 0.41146
 C850 C 0.73801 0.81291 0.42311
 H851 H 0.75494 0.74162 0.33421
 H852 H 0.77123 0.82403 0.41563
 H853 H 0.79535 0.77458 0.32804
 H854 H 0.72396 0.80197 0.41730
 C855 C 0.29927 0.26988 -0.16668
 C856 C 0.28143 0.27054 -0.15349
 C857 C 0.27973 0.28874 -0.13689
 N858 N 0.26232 0.28841 -0.12407
 N859 N 0.26073 0.30464 -0.10880
 C860 C 0.27648 0.32181 -0.10581
 N861 N 0.29384 0.32216 -0.11868
 N862 N 0.29544 0.30594 -0.13394
 C863 C 0.27530 0.33960 -0.08875
 C864 C 0.25810 0.33965 -0.07467
 H865 H 0.26840 0.25727 -0.15520
 H866 H 0.28866 0.35241 -0.08740
 H867 H 0.31228 0.28317 -0.16493
 H868 H 0.24511 0.32639 -0.07718
 C869 C 0.73063 0.25874 -0.14857
 C870 C 0.71582 0.24335 -0.13964
 C871 C 0.72142 0.23222 -0.11895
 N872 N 0.70620 0.21825 -0.11014
 N873 N 0.71119 0.20798 -0.09148
 C874 C 0.73160 0.21131 -0.08096
 N875 N 0.74679 0.22528 -0.08978
 N876 N 0.74179 0.23556 -0.10840
 C877 C 0.73768 0.19971 -0.06061
 C878 C 0.72275 0.18523 -0.05069
 H879 H 0.69969 0.23949 -0.14789
 H880 H 0.75467 0.20209 -0.05391
 H881 H 0.74654 0.26287 -0.14003
 H882 H 0.70610 0.18257 -0.05827
 C883 C 0.20550 0.73653 0.31524
 C884 C 0.22418 0.73308 0.32936
 C885 C 0.22471 0.71567 0.34645
 N886 N 0.24366 0.71315 0.35930
 N887 N 0.24453 0.69764 0.37497
 C888 C 0.22645 0.68405 0.37841
 N889 N 0.20748 0.68656 0.36554
 N890 N 0.20661 0.70207 0.34985
 C891 C 0.22711 0.66697 0.39585
 C892 C 0.24633 0.66384 0.40944
 H893 H 0.23914 0.74357 0.32791
 H894 H 0.21198 0.65711 0.39798
 H895 H 0.19056 0.72596 0.31650
 H896 H 0.26099 0.67438 0.40683
 C897 C 0.26387 0.76008 0.64740
 C898 C 0.27852 0.74237 0.64236
 C899 C 0.27370 0.72684 0.62359
 N900 N 0.28845 0.71009 0.61860
 N901 N 0.28424 0.69616 0.60151
 C902 C 0.26511 0.69849 0.58880
 N903 N 0.25039 0.71519 0.59383
 N904 N 0.25459 0.72910 0.61087
 C905 C 0.26000 0.68343 0.56979
 C906 C 0.27438 0.66585 0.56353
 H907 H 0.29393 0.74003 0.65212
 H908 H 0.24433 0.68664 0.56086
 H909 H 0.24858 0.76236 0.63744
 H910 H 0.28981 0.66352 0.57331
 C911 C 0.80410 0.25095 0.20658
 C912 C 0.78556 0.25136 0.19188
 C913 C 0.78367 0.23528 0.17320
 N914 N 0.76498 0.23498 0.15965
 N915 N 0.76322 0.22037 0.14281
 C916 C 0.78011 0.20554 0.13890
 N917 N 0.79877 0.20591 0.15241
 N918 N 0.80052 0.22046 0.16923
 C919 C 0.77879 0.18925 0.12041
 C920 C 0.75977 0.18695 0.10622
 H921 H 0.77210 0.26344 0.19421
 H922 H 0.79342 0.17880 0.11849
 H923 H 0.81728 0.23852 0.20425
 H924 H 0.74540 0.19748 0.10946
 C925 C 0.48546 0.40509 0.48701
 C926 C 0.47180 0.40044 0.50367
 C927 C 0.47811 0.38250 0.51956
 N928 N 0.46425 0.37685 0.53505
 N929 N 0.46996 0.36043 0.54923
 C930 C 0.48976 0.34913 0.54843
 N931 N 0.50359 0.35488 0.53301
 N932 N 0.49789 0.37121 0.51887
 C933 C 0.49656 0.33074 0.56358
 C934 C 0.48308 0.32300 0.57955
 H935 H 0.45630 0.40979 0.50494
 H936 H 0.51271 0.32319 0.56150
 H937 H 0.50073 0.39530 0.48583
 H938 H 0.46709 0.33144 0.58084
 C939 C -0.01364 0.95803 -0.01737
 C940 C -0.02611 0.95191 -0.00019
 C941 C -0.02095 0.93160 0.01331
 N942 N -0.03448 0.92621 0.02911
 N943 N -0.03032 0.90778 0.04139
 C944 C -0.01241 0.89403 0.03838
 N945 N 0.00120 0.89948 0.02262
 N946 N -0.00299 0.91792 0.01030
 C947 C -0.00784 0.87332 0.05161
 C948 C -0.02241 0.86611 0.06692
 H949 H -0.04048 0.96222 0.00344
 H950 H 0.00691 0.86349 0.04847
 H951 H 0.00066 0.94768 -0.02117
 H952 H -0.03711 0.87662 0.06890
 C953 C 0.02342 0.59343 -0.01294
 C954 C 0.00755 0.61113 -0.01416
 C955 C 0.00681 0.62929 0.00264
 N956 N -0.00786 0.64710 0.00025
 N957 N -0.00868 0.66363 0.01538
 C958 C 0.00513 0.66290 0.03348
 N959 N 0.01975 0.64506 0.03587
 N960 N 0.02060 0.62859 0.02074
 C961 C 0.00451 0.68086 0.05044
 C962 C -0.00945 0.70020 0.04862
 H963 H -0.00457 0.61189 -0.02777
 H964 H 0.01520 0.67832 0.06479
 H965 H 0.03566 0.59322 0.00062
 H966 H -0.02063 0.70169 0.03438
 C967 C 0.51057 0.08170 0.48270
 C968 C 0.52562 0.08620 0.50028
 C969 C 0.52058 0.10334 0.51702
 N970 N 0.53657 0.10988 0.53239
 N971 N 0.53217 0.12565 0.54739
 C972 C 0.51155 0.13533 0.54760
 N973 N 0.49554 0.12864 0.53234
 N974 N 0.49997 0.11298 0.51733
 C975 C 0.50627 0.15307 0.56368
 C976 C 0.52238 0.16269 0.57852
 H977 H 0.54158 0.07742 0.50157
 H978 H 0.48911 0.15874 0.56336
 H979 H 0.49499 0.09117 0.48117
 H980 H 0.53926 0.15597 0.57885
 C981 C -0.02532 0.04651 0.50673
 C982 C -0.00727 0.06197 0.50999
 C983 C -0.00040 0.07688 0.49257
 N984 N 0.01526 0.09395 0.49653
 N985 N 0.02074 0.10816 0.48098
 C986 C 0.01080 0.10572 0.46090
 N987 N -0.00467 0.08852 0.45692
 N988 N -0.01016 0.07438 0.47244
 C989 C 0.01552 0.12190 0.44373
 C990 C 0.03024 0.14083 0.44684
 H991 H 0.00127 0.06394 0.52573
 H992 H 0.00657 0.11899 0.42833
 H993 H -0.03405 0.04510 0.49103
 H994 H 0.04032 0.14255 0.46182
 C995 C 0.47555 0.60164 1.02331
 C996 C 0.46133 0.60317 1.00483
 C997 C 0.46439 0.62132 0.98889
 N998 N 0.45194 0.62077 0.96996
 N999 N 0.45481 0.63699 0.95532
 C1000 C 0.47019 0.65439 0.95916
 N1001 N 0.48252 0.65499 0.97813
 N1002 N 0.47971 0.63876 0.99271
 C1003 C 0.47394 0.67233 0.94324
 C1004 C 0.46314 0.67197 0.92276
 H1005 H 0.44796 0.59048 1.00169
 H1006 H 0.48562 0.68621 0.94808
 H1007 H 0.48931 0.61396 1.02606
 H1008 H 0.45060 0.65859 0.91871
 C1009 C 0.52846 0.92268 0.99724
 C1010 C 0.51030 0.90767 0.99215
 C1011 C 0.50947 0.89159 0.97354
 N1012 N 0.49112 0.87784 0.96914
 N1013 N 0.49018 0.86292 0.95258
 C1014 C 0.50756 0.86115 0.93977
 N1015 N 0.52591 0.87493 0.94416
 N1016 N 0.52685 0.88989 0.96072
 C1017 C 0.50704 0.84419 0.92179
 C1018 C 0.48836 0.82979 0.91668
 H1019 H 0.49615 0.90754 1.00209
 H1020 H 0.52192 0.84303 0.91302
 H1021 H 0.54235 0.92285 0.98698
 H1022 H 0.47381 0.83241 0.92584
 C1023 C 0.03569 0.40412 0.51973
 C1024 C 0.05084 0.39797 0.50463
 C1025 C 0.04826 0.37588 0.49236
 N1026 N 0.06290 0.37023 0.47748
 N1027 N 0.06052 0.35028 0.46630
 C1028 C 0.04344 0.33525 0.46962
 N1029 N 0.02888 0.34091 0.48451
 N1030 N 0.03124 0.36081 0.49566
 C1031 C 0.04014 0.31327 0.45737
 C1032 C 0.05416 0.30635 0.44146
 H1033 H 0.06478 0.40942 0.50172
 H1034 H 0.02594 0.30278 0.46118
 H1035 H 0.02185 0.39239 0.52229
 H1036 H 0.06823 0.31767 0.43861
 C1037 C 0.43935 0.46813 0.45431
 C1038 C 0.42372 0.46816 0.46988
 C1039 C 0.40461 0.48425 0.46890
 N1040 N 0.39003 0.48434 0.48462
 N1041 N 0.37278 0.49893 0.48391
 C1042 C 0.36947 0.51396 0.46744
 N1043 N 0.38403 0.51381 0.45173
 N1044 N 0.40126 0.49925 0.45244
 C1045 C 0.35065 0.53038 0.46633
 C1046 C 0.33540 0.53195 0.48231
 H1047 H 0.42558 0.45629 0.48315
 H1048 H 0.34938 0.54151 0.45256
 H1049 H 0.43744 0.48017 0.44116
 H1050 H 0.33782 0.52036 0.49578
 C1051 C 0.93896 0.02429 -0.03524
 C1052 C 0.92514 0.02041 -0.01848
 C1053 C 0.90547 0.03497 -0.01523
 N1054 N 0.89255 0.03074 0.00134
 N1055 N 0.87455 0.04362 0.00429
 C1056 C 0.86881 0.06120 -0.00925
 N1057 N 0.88174 0.06542 -0.02580
 N1058 N 0.89973 0.05256 -0.02873
 C1059 C 0.84884 0.07547 -0.00652
 C1060 C 0.83506 0.07235 0.01046
 H1061 H 0.92860 0.00625 -0.00752
 H1062 H 0.84537 0.08865 -0.01837
 H1063 H 0.93534 0.03866 -0.04593
 H1064 H 0.83992 0.05922 0.02211
 C1065 C 0.56819 -0.01720 0.04020
 C1066 C 0.58659 -0.01724 0.02766
 C1067 C 0.60543 -0.00072 0.03160
 N1068 N 0.62326 -0.00187 0.01934
 N1069 N 0.64026 0.01324 0.02246
 C1070 C 0.64006 0.03008 0.03795
 N1071 N 0.62225 0.03120 0.05024
 N1072 N 0.60527 0.01607 0.04715
 C1073 C 0.65836 0.04739 0.04115
 C1074 C 0.67691 0.04708 0.02875
 H1075 H 0.58720 -0.02965 0.01449
 H1076 H 0.65648 0.06111 0.05290
 H1077 H 0.56780 -0.00504 0.05358
 H1078 H 0.67784 0.03344 0.01668
 C1079 C 0.07323 0.47756 0.54009
 C1080 C 0.08944 0.47451 0.52528
 C1081 C 0.10756 0.49155 0.52266
 N1082 N 0.12277 0.48736 0.50796
 N1083 N 0.13934 0.50251 0.50535
 C1084 C 0.14132 0.52246 0.51733
 N1085 N 0.12610 0.52666 0.53203
 N1086 N 0.10952 0.51150 0.53466
 C1087 C 0.15967 0.53930 0.51478
 C1088 C 0.17570 0.53585 0.49981
 H1089 H 0.08891 0.45902 0.51512
 H1090 H 0.16023 0.55478 0.52488
 H1091 H 0.07368 0.49304 0.55026
 H1092 H 0.17395 0.52075 0.48918
 C1093 C 0.06000 0.52479 -0.03891
 C1094 C 0.07676 0.52569 -0.02235
 C1095 C 0.09499 0.50867 -0.02081
 N1096 N 0.11173 0.51115 -0.00522
 N1097 N 0.12855 0.49609 -0.00385
 C1098 C 0.12922 0.47796 -0.01800
 N1099 N 0.11242 0.47541 -0.03353
 N1100 N 0.09562 0.49049 -0.03492
 C1101 C 0.14786 0.46141 -0.01703
 C1102 C 0.16608 0.46379 -0.00202
 H1103 H 0.07686 0.53955 -0.01039
 H1104 H 0.14697 0.44712 -0.02852
 H1105 H 0.06009 0.51109 -0.05101
 H1106 H 0.16591 0.47765 0.00993
 C1107 C 0.55435 1.01979 0.45202
 C1108 C 0.57042 1.01919 0.46920
 C1109 C 0.58844 1.00184 0.46985
 N1110 N 0.60405 1.00167 0.48658
 N1111 N 0.62014 0.98572 0.48744
 C1112 C 0.62116 0.96935 0.47160
 N1113 N 0.60558 0.96957 0.45488
 N1114 N 0.58954 0.98551 0.45401
 C1115 C 0.63841 0.95123 0.47242
 C1116 C 0.65493 0.95005 0.48916
 H1117 H 0.56967 1.03134 0.48256
 H1118 H 0.63738 0.93820 0.45973
 H1119 H 0.55563 1.00762 0.43874
 H1120 H 0.65497 0.96303 0.50193
 C1121 C 0.91734 0.99563 0.52941
 C1122 C 0.90615 0.98203 0.54372
 C1123 C 0.88453 0.97070 0.53713
 N1124 N 0.87414 0.95673 0.55081
 N1125 N 0.85452 0.94657 0.54486
 C1126 C 0.84459 0.95008 0.52502
 N1127 N 0.85496 0.96408 0.51141
 N1128 N 0.87454 0.97418 0.51734
 C1129 C 0.82300 0.93917 0.51788
 C1130 C 0.81178 0.92341 0.53038
 H1131 H 0.91318 0.97971 0.55993
 H1132 H 0.81645 0.94359 0.50201
 H1133 H 0.91005 0.99738 0.51320
 H1134 H 0.81967 0.91917 0.54591
 C1135 C 0.43433 0.53521 0.05143
 C1136 C 0.41722 0.53577 0.03523
 C1137 C 0.39833 0.51911 0.03446
 N1138 N 0.38211 0.51989 0.01830
 N1139 N 0.36499 0.50479 0.01742
 C1140 C 0.36348 0.48837 0.03271
 N1141 N 0.37968 0.48763 0.04887
 N1142 N 0.39679 0.50271 0.04973
 C1143 C 0.34486 0.47140 0.03203
 C1144 C 0.32784 0.47096 0.01558
 H1145 H 0.41766 0.54865 0.02278
 H1146 H 0.34515 0.45902 0.04485
 H1147 H 0.43381 0.52226 0.06382
 H1148 H 0.32869 0.48389 0.00318
 C1149 C 0.50749 0.44175 0.42225
 C1150 C 0.50637 0.45864 0.40645
 C1151 C 0.52310 0.45990 0.39027
 N1152 N 0.52257 0.47759 0.37610
 N1153 N 0.53777 0.47899 0.36154
 C1154 C 0.55405 0.46272 0.36058
 N1155 N 0.55451 0.44499 0.37468
 N1156 N 0.53935 0.44361 0.38927
 C1157 C 0.57105 0.46397 0.34466
 C1158 C 0.57234 0.48276 0.33077
 H1159 H 0.49322 0.47149 0.40614
 H1160 H 0.58279 0.44981 0.34445
 H1161 H 0.52096 0.42924 0.42270
 H1162 H 0.56038 0.49667 0.33232
 C1163 C 0.00031 0.00776 0.92127
 C1164 C 0.01761 -0.00594 0.91430
 C1165 C 0.02965 0.00023 0.89534
 N1166 N 0.04531 -0.01433 0.88807
 N1167 N 0.05611 -0.00903 0.87079
 C1168 C 0.05167 0.01106 0.86014
 N1169 N 0.03608 0.02565 0.86747
 N1170 N 0.02527 0.02033 0.88471
 C1171 C 0.06328 0.01723 0.84091
 C1172 C 0.07843 0.00217 0.83180
 H1173 H 0.02217 -0.02178 0.92266
 H1174 H 0.05923 0.03386 0.83390
 H1175 H -0.00442 0.02334 0.91258
 H1176 H 0.08137 -0.01444 0.83950
 C1177 C -0.02165 0.01778 0.58084
 C1178 C -0.00217 0.03044 0.58683
 C1179 C 0.00946 0.02862 0.60819
 N1180 N 0.02830 0.04145 0.61315
 N1181 N 0.03930 0.03969 0.63225
 C1182 C 0.03187 0.02500 0.64714
 N1183 N 0.01299 0.01221 0.64220
 N1184 N 0.00197 0.01399 0.62309
 C1185 C 0.04425 0.02227 0.66806
 C1186 C 0.06369 0.03515 0.67388
 H1187 H 0.00499 0.04192 0.57545
 H1188 H 0.03785 0.00967 0.67885
 H1189 H -0.02896 0.00652 0.59230
 H1190 H 0.06888 0.04853 0.66316
 C1191 C 0.50472 0.56261 0.08793
 C1192 C 0.50383 0.54540 0.10334
 C1193 C 0.52145 0.54269 0.12057
 N1194 N 0.51958 0.52551 0.13501
 N1195 N 0.53543 0.52264 0.15068
 C1196 C 0.55376 0.53685 0.15247
 N1197 N 0.55563 0.55406 0.13803
 N1198 N 0.53977 0.55693 0.12235
 C1199 C 0.57139 0.53387 0.16970
 C1200 C 0.57019 0.51618 0.18469
 H1201 H 0.48980 0.53327 0.10273
 H1202 H 0.58559 0.54568 0.17019
 H1203 H 0.51872 0.57478 0.08851
 H1204 H 0.55618 0.50403 0.18305
 C1205 C 0.49610 -0.04737 0.06105
 C1206 C 0.49665 -0.03255 0.07896
 C1207 C 0.47919 -0.03276 0.09442
 N1208 N 0.48080 -0.01776 0.11143
 N1209 N 0.46532 -0.01779 0.12576
 C1210 C 0.44763 -0.03285 0.12364
 N1211 N 0.44600 -0.04786 0.10661
 N1212 N 0.46149 -0.04783 0.09225
 C1213 C 0.43054 -0.03320 0.13952
 C1214 C 0.43137 -0.01761 0.15693
 H1215 H 0.51049 -0.02037 0.08195
 H1216 H 0.41702 -0.04579 0.13712
 H1217 H 0.48222 -0.05947 0.05792
 H1218 H 0.44451 -0.00444 0.15818
 C1219 C 1.00538 0.45167 0.57398
 C1220 C 1.00577 0.46965 0.58924
 C1221 C 0.98831 0.47122 0.60474
 N1222 N 0.98992 0.48746 0.62078
 N1223 N 0.97438 0.48858 0.63507
 C1224 C 0.95664 0.47351 0.63380
 N1225 N 0.95500 0.45738 0.61770
 N1226 N 0.97053 0.45624 0.60347
 C1227 C 0.93943 0.47410 0.64953
 C1228 C 0.94048 0.48966 0.66693
 H1229 H 1.01934 0.48233 0.59023
 H1230 H 0.92556 0.46194 0.64703
 H1231 H 0.99198 0.43881 0.57351
 H1232 H 0.95403 0.50237 0.66841
 C1233 C 0.99454 0.55627 0.92063
 C1234 C 0.99520 0.53875 0.90500
 C1235 C 0.97913 0.53728 0.88622
 N1236 N 0.98064 0.51960 0.87177
 N1237 N 0.96626 0.51789 0.85465
 C1238 C 0.94981 0.53383 0.85132
 N1239 N 0.94831 0.55155 0.86577
 N1240 N 0.96270 0.55325 0.88292
 C1241 C 0.93377 0.53213 0.83246
 C1242 C 0.93456 0.51386 0.81743
 H1243 H 1.00795 0.52549 0.90652
 H1244 H 0.92128 0.54554 0.83086
 H1245 H 0.98179 0.56953 0.91920
 H1246 H 0.94746 0.50091 0.82026
 C1247 C 0.48747 0.04651 0.41318
 C1248 C 0.48971 0.03026 0.39668
 C1249 C 0.47372 0.02844 0.37788
 N1250 N 0.47634 0.01163 0.36279
 N1251 N 0.46197 0.00963 0.34567
 C1252 C 0.44445 0.02440 0.34299
 N1253 N 0.44186 0.04126 0.35805
 N1254 N 0.45621 0.04324 0.37519
 C1255 C 0.42837 0.02238 0.32421
 C1256 C 0.42966 0.00449 0.30886
 H1257 H 0.50357 0.01823 0.39759
 H1258 H 0.41526 0.03516 0.32305
 H1259 H 0.47351 0.05841 0.41241
 H1260 H 0.44296 -0.00807 0.31139
   
