data_POSCAR
  _audit_creation_date              2014-09-24
  _audit_creation_method            'ToBaCCo'
  _symmetry_space_group_name_H-M    'P1'
  _symmetry_Int_Tables_number       1
  _symmetry_cell_setting            triclinic
  loop_
  _symmetry_equiv_pos_as_xyz
 x,y,z
_cell_length_a 76.1495
_cell_length_b 76.5795
_cell_length_c 76.2910
_cell_angle_alpha 90.250000
_cell_angle_beta 89.908100
_cell_angle_gamma 88.661800
loop_
  _atom_site_label
  _atom_site_type_symbol
  _atom_site_fract_x
  _atom_site_fract_y
  _atom_site_fract_z
C1 C 0.10609 0.01173 0.22723
 H2 H 0.10479 0.02243 0.23648
 C3 C 0.09792 0.01289 0.21084
 H4 H 0.09034 0.02456 0.20758
 C5 C 0.11835 -0.01607 0.21989
 H6 H 0.12667 -0.02716 0.22319
 C7 C 0.11043 -0.01546 0.20344
 H8 H 0.11238 -0.02638 0.19454
 N9 N 0.11609 -0.00260 0.23142
 C10 C 0.12161 -0.00381 0.28835
 H11 H 0.13577 -0.00514 0.28899
 C12 C 0.11169 -0.00422 0.30371
 H13 H 0.11836 -0.00598 0.31611
 C14 C 0.09582 -0.00072 0.27120
 H15 H 0.08971 0.00039 0.25846
 C16 C 0.08534 -0.00107 0.28629
 H17 H 0.07121 0.00012 0.28503
 Zn18 Zn 0.12876 -0.00289 0.25282
 N19 N 0.11362 -0.00199 0.27253
 C20 C 0.14109 0.02953 0.26501
 N21 N 0.14346 0.01677 0.25272
 C22 C 0.15495 0.01868 0.23922
 C23 C 0.16446 0.03400 0.23761
 C24 C 0.15028 0.04504 0.26388
 C25 C 0.13181 -0.03857 0.25620
 C26 C 0.13963 -0.05516 0.25684
 C27 C 0.16801 -0.04189 0.25500
 C28 C 0.15952 -0.02549 0.25428
 N29 N 0.14171 -0.02420 0.25453
 H30 H 0.13164 0.02799 0.27542
 H31 H 0.15630 0.00851 0.22940
 H32 H 0.17315 0.03551 0.22650
 H33 H 0.14807 0.05509 0.27372
 H34 H 0.11765 -0.03711 0.25686
 H35 H 0.13094 -0.06592 0.25882
 H36 H 0.18214 -0.04211 0.25378
 H37 H 0.16718 -0.01383 0.25319
 C38 C 0.09329 -0.00283 0.30284
 C39 C 0.10022 -0.00076 0.19862
 C40 C 0.15814 -0.05738 0.25589
 C41 C 0.16194 0.04756 0.24989
 C42 C 0.40153 0.01014 0.77006
 H43 H 0.40253 0.02014 0.76016
 C44 C 0.41157 0.01112 0.78532
 H45 H 0.42054 0.02177 0.78689
 C46 C 0.38843 -0.01579 0.78001
 H47 H 0.37904 -0.02597 0.77814
 C48 C 0.39813 -0.01526 0.79549
 H49 H 0.39606 -0.02513 0.80535
 N50 N 0.39032 -0.00322 0.76765
 C51 C 0.38063 -0.00305 0.71135
 H52 H 0.36642 -0.00249 0.71148
 C53 C 0.38965 -0.00319 0.69543
 H54 H 0.38224 -0.00246 0.68335
 C55 C 0.40742 -0.00427 0.72709
 H56 H 0.41428 -0.00495 0.73946
 C57 C 0.41700 -0.00452 0.71144
 H58 H 0.43119 -0.00542 0.71196
 Zn59 Zn 0.37593 -0.00282 0.74748
 N60 N 0.38957 -0.00329 0.72675
 C61 C 0.36447 0.03086 0.73665
 N62 N 0.36223 0.01807 0.74871
 C63 C 0.35135 0.02054 0.76269
 C64 C 0.34195 0.03630 0.76481
 C65 C 0.35544 0.04684 0.73833
 C66 C 0.37043 -0.03842 0.74560
 C67 C 0.36118 -0.05392 0.74550
 C68 C 0.33410 -0.03695 0.74753
 C69 C 0.34389 -0.02173 0.74761
 N70 N 0.36174 -0.02276 0.74696
 H71 H 0.37366 0.02894 0.72600
 H72 H 0.35012 0.01030 0.77231
 H73 H 0.33320 0.03791 0.77592
 H74 H 0.35781 0.05698 0.72883
 H75 H 0.38461 -0.03883 0.74478
 H76 H 0.36837 -0.06624 0.74445
 H77 H 0.31992 -0.03593 0.74847
 H78 H 0.33721 -0.00915 0.74827
 C79 C 0.40810 -0.00386 0.69532
 C80 C 0.40985 -0.00164 0.79836
 C81 C 0.34278 -0.05333 0.74667
 C82 C 0.34401 0.04976 0.75258
 C83 C 0.89868 0.51129 0.26945
 H84 H 0.89770 0.52229 0.26066
 C85 C 0.90878 0.51259 0.28464
 H86 H 0.91616 0.52434 0.28642
 C87 C 0.88991 0.48301 0.27736
 H88 H 0.88204 0.47174 0.27492
 C89 C 0.89980 0.48373 0.29273
 H90 H 0.89887 0.47288 0.30165
 N91 N 0.88959 0.49662 0.26598
 C92 C 0.88292 0.48521 0.21179
 H93 H 0.87158 0.47720 0.21353
 C94 C 0.89207 0.48434 0.19595
 H95 H 0.88773 0.47555 0.18577
 C96 C 0.90178 0.50699 0.22243
 H97 H 0.90549 0.51590 0.23267
 C98 C 0.91122 0.50665 0.20669
 H99 H 0.92225 0.51518 0.20510
 Zn100 Zn 0.87467 0.49669 0.24600
 N101 N 0.88796 0.49627 0.22477
 C102 C 0.86137 0.52947 0.23429
 N103 N 0.86086 0.51746 0.24734
 C104 C 0.85160 0.52062 0.26231
 C105 C 0.84252 0.53651 0.26471
 C106 C 0.85264 0.54561 0.23622
 C107 C 0.86843 0.46084 0.24496
 C108 C 0.85870 0.44566 0.24442
 C109 C 0.83213 0.46341 0.24646
 C110 C 0.84240 0.47831 0.24694
 N111 N 0.86023 0.47677 0.24627
 H112 H 0.86895 0.52675 0.22256
 H113 H 0.85154 0.51088 0.27253
 H114 H 0.83518 0.53870 0.27671
 H115 H 0.85379 0.55520 0.22593
 H116 H 0.88261 0.45998 0.24408
 H117 H 0.86553 0.43317 0.24307
 H118 H 0.81797 0.46487 0.24718
 H119 H 0.83610 0.49108 0.24769
 C120 C 0.90644 0.49513 0.19325
 C121 C 0.90946 0.49875 0.29682
 C122 C 0.84028 0.44680 0.24519
 C123 C 0.84319 0.54940 0.25168
 C124 C 0.60416 0.51818 0.72909
 H125 H 0.60306 0.52932 0.73782
 C126 C 0.59551 0.51846 0.71293
 H127 H 0.58775 0.52991 0.70931
 C128 C 0.61649 0.49015 0.72278
 H129 H 0.62500 0.47930 0.72639
 C130 C 0.60806 0.48987 0.70659
 H131 H 0.60986 0.47854 0.69818
 N132 N 0.61448 0.50419 0.73364
 C133 C 0.62215 0.50599 0.79023
 H134 H 0.63636 0.50527 0.79041
 C135 C 0.61280 0.50622 0.80594
 H136 H 0.61993 0.50559 0.81820
 C137 C 0.59570 0.50703 0.77389
 H138 H 0.58914 0.50713 0.76135
 C139 C 0.58578 0.50718 0.78936
 H140 H 0.57158 0.50770 0.78860
 Zn141 Zn 0.62794 0.50526 0.75445
 N142 N 0.61356 0.50656 0.77464
 C143 C 0.63991 0.53842 0.76490
 N144 N 0.64194 0.52533 0.75291
 C145 C 0.65282 0.52698 0.73887
 C146 C 0.66222 0.54226 0.73652
 C147 C 0.64899 0.55390 0.76303
 C148 C 0.63262 0.46986 0.75969
 C149 C 0.64127 0.45368 0.76069
 C150 C 0.66880 0.46804 0.75599
 C151 C 0.65957 0.48403 0.75508
 N152 N 0.64176 0.48456 0.75657
 H153 H 0.63090 0.53709 0.77573
 H154 H 0.65388 0.51654 0.72930
 H155 H 0.67052 0.54350 0.72508
 H156 H 0.64717 0.56416 0.77272
 H157 H 0.61848 0.47072 0.76108
 H158 H 0.63370 0.44214 0.76307
 H159 H 0.68291 0.46774 0.75424
 H160 H 0.66661 0.49591 0.75291
 C161 C 0.59437 0.50685 0.80565
 C162 C 0.59762 0.50425 0.70133
 C163 C 0.65957 0.45257 0.75854
 C164 C 0.66019 0.55606 0.74860
 C165 C 0.27166 0.10310 0.98535
 H166 H 0.26331 0.10335 0.97388
 C167 C 0.28768 0.09378 0.98496
 H168 H 0.29158 0.08687 0.97312
 C169 C 0.27722 0.11275 1.01432
 H170 H 0.27339 0.12048 1.02561
 C171 C 0.29324 0.10360 1.01452
 H172 H 0.30131 0.10409 1.02618
 N173 N 0.26684 0.11248 0.99983
 C174 C 0.21059 0.12405 0.99749
 H175 H 0.21105 0.13810 0.99883
 C176 C 0.19444 0.11591 0.99675
 H177 H 0.18249 0.12381 0.99762
 C178 C 0.22576 0.09673 0.99545
 H179 H 0.23803 0.08935 0.99516
 C180 C 0.20982 0.08800 0.99476
 H181 H 0.20994 0.07390 0.99368
 Zn182 Zn 0.24659 0.12727 0.99896
 N183 N 0.22581 0.11445 0.99672
 C184 C 0.23756 0.14093 0.96589
 N185 N 0.24913 0.14216 0.97937
 C186 C 0.26342 0.15245 0.97818
 C187 C 0.26652 0.16197 0.96291
 C188 C 0.24021 0.15009 0.95040
 C189 C 0.23976 0.12985 1.03421
 C190 C 0.23855 0.13707 1.05094
 C191 C 0.24655 0.16485 1.03886
 C192 C 0.24749 0.15700 1.02226
 N193 N 0.24449 0.13970 1.02035
 H194 H 0.22656 0.13235 0.96681
 H195 H 0.27270 0.15284 0.98889
 H196 H 0.27816 0.16977 0.96197
 H197 H 0.23094 0.14876 0.93975
 H198 H 0.23703 0.11618 1.03224
 H199 H 0.23397 0.12856 1.06113
 H200 H 0.25012 0.17838 1.03961
 H201 H 0.25104 0.16468 1.01101
 C202 C 0.19390 0.09766 0.99538
 C203 C 0.29885 0.09423 0.99959
 C204 C 0.24238 0.15487 1.05392
 C205 C 0.25497 0.16058 0.94867
 C206 C 0.72531 0.39742 0.97837
 H207 H 0.73533 0.39771 0.96831
 C208 C 0.70956 0.40693 0.97621
 H209 H 0.70753 0.41457 0.96445
 C210 C 0.71537 0.38629 1.00548
 H211 H 0.71742 0.37787 1.01664
 C212 C 0.69945 0.39546 1.00381
 H213 H 0.68958 0.39432 1.01395
 N214 N 0.72789 0.38734 0.99282
 C215 C 0.78415 0.37578 0.99444
 H216 H 0.78355 0.36169 0.99507
 C217 C 0.80032 0.38384 0.99524
 H218 H 0.81217 0.37579 0.99611
 C219 C 0.76925 0.40322 0.99257
 H220 H 0.75705 0.41069 0.99196
 C221 C 0.78521 0.41188 0.99345
 H222 H 0.78514 0.42601 0.99345
 Zn223 Zn 0.74817 0.37270 0.99416
 N224 N 0.76905 0.38548 0.99310
 C225 C 0.75914 0.35761 0.96199
 N226 N 0.74714 0.35679 0.97515
 C227 C 0.73332 0.34590 0.97413
 C228 C 0.73122 0.33519 0.95943
 C229 C 0.75750 0.34721 0.94705
 C230 C 0.75044 0.37202 1.03008
 C231 C 0.75150 0.36528 1.04697
 C232 C 0.74946 0.33629 1.03472
 C233 C 0.74843 0.34369 1.01800
 N234 N 0.74879 0.36128 1.01605
 H235 H 0.76968 0.36678 0.96272
 H236 H 0.72375 0.34578 0.98461
 H237 H 0.72016 0.32657 0.95890
 H238 H 0.76690 0.34855 0.93650
 H239 H 0.75073 0.38599 1.02812
 H240 H 0.75176 0.37473 1.05750
 H241 H 0.74988 0.32221 1.03532
 H242 H 0.74766 0.33533 1.00660
 C243 C 0.80103 0.40214 0.99499
 C244 C 0.69629 0.40576 0.98892
 C245 C 0.75108 0.34702 1.04986
 C246 C 0.74333 0.33588 0.94553
 C247 C 0.22751 0.89611 0.48969
 H248 H 0.23594 0.89560 0.47832
 C249 C 0.21205 0.90625 0.48925
 H250 H 0.20863 0.91322 0.47737
 C251 C 0.22151 0.88738 0.51879
 H252 H 0.22530 0.88017 0.53037
 C253 C 0.20589 0.89731 0.51889
 H254 H 0.19781 0.89761 0.53059
 N255 N 0.23177 0.88662 0.50417
 C256 C 0.28725 0.87649 0.49541
 H257 H 0.28705 0.86259 0.49285
 C258 C 0.30284 0.88546 0.49350
 H259 H 0.31467 0.87835 0.48958
 C260 C 0.27208 0.90250 0.50413
 H261 H 0.26003 0.90900 0.50835
 C262 C 0.28746 0.91199 0.50253
 H263 H 0.28713 0.92586 0.50536
 Zn264 Zn 0.25202 0.87168 0.50326
 N265 N 0.27232 0.88507 0.50066
 C266 C 0.25450 0.86436 0.46760
 N267 N 0.25063 0.85696 0.48327
 C268 C 0.24661 0.83976 0.48435
 C269 C 0.24605 0.82943 0.46920
 C270 C 0.25423 0.85452 0.45222
 C271 C 0.26891 0.85983 0.53398
 C272 C 0.27085 0.85058 0.54958
 C273 C 0.24218 0.83854 0.54499
 C274 C 0.24082 0.84797 0.52939
 N275 N 0.25409 0.85836 0.52418
 H276 H 0.25814 0.87790 0.46707
 H277 H 0.24392 0.83395 0.49688
 H278 H 0.24294 0.81575 0.47026
 H279 H 0.25725 0.86073 0.43988
 H280 H 0.27922 0.86833 0.52986
 H281 H 0.28263 0.85216 0.55730
 H282 H 0.23151 0.83030 0.54891
 H283 H 0.22904 0.84719 0.52154
 C284 C 0.30308 0.90343 0.49715
 C285 C 0.20086 0.90670 0.50388
 C286 C 0.25737 0.83980 0.55529
 C287 C 0.24998 0.83682 0.45289
 C288 C 0.76903 0.60132 0.48679
 H289 H 0.75971 0.60032 0.47617
 C290 C 0.78451 0.59112 0.48657
 H291 H 0.78687 0.58206 0.47584
 C292 C 0.77736 0.61456 0.51354
 H293 H 0.77485 0.62407 0.52378
 C294 C 0.79297 0.60469 0.51382
 H295 H 0.80222 0.60677 0.52434
 N296 N 0.76571 0.61267 0.50022
 C297 C 0.70940 0.62413 0.50012
 H298 H 0.70996 0.63822 0.50084
 C299 C 0.69321 0.61606 0.50017
 H300 H 0.68131 0.62404 0.50106
 C301 C 0.72439 0.59668 0.49863
 H302 H 0.73660 0.58921 0.49824
 C303 C 0.70841 0.58803 0.49874
 H304 H 0.70844 0.57390 0.49812
 Zn305 Zn 0.74539 0.62739 0.49949
 N306 N 0.72456 0.61444 0.49910
 C307 C 0.73434 0.63950 0.46637
 N308 N 0.74683 0.64113 0.47896
 C309 C 0.76120 0.65101 0.47626
 C310 C 0.76358 0.65945 0.46021
 C311 C 0.73615 0.64774 0.45025
 C312 C 0.74148 0.63161 0.53497
 C313 C 0.73992 0.63994 0.55115
 C314 C 0.74345 0.66763 0.53665
 C315 C 0.74500 0.65871 0.52063
 N316 N 0.74410 0.64099 0.52016
 H317 H 0.72321 0.63131 0.46851
 H318 H 0.77112 0.65182 0.48635
 H319 H 0.77538 0.66676 0.45806
 H320 H 0.72606 0.64616 0.44043
 H321 H 0.74072 0.61754 0.53416
 H322 H 0.73825 0.63209 0.56278
 H323 H 0.74404 0.68174 0.53685
 H324 H 0.74680 0.66591 0.50863
 C325 C 0.69255 0.59778 0.49938
 C326 C 0.79675 0.59279 0.50021
 C327 C 0.74082 0.65819 0.55219
 C328 C 0.75109 0.65758 0.44683
 C329 C 0.01434 0.23254 0.10068
 H330 H 0.02421 0.24236 0.09963
 C331 C 0.01693 0.21653 0.09206
 H332 H 0.02864 0.21435 0.08421
 C333 C -0.01205 0.22276 0.11333
 H334 H -0.02305 0.22486 0.12205
 C335 C -0.00995 0.20659 0.10503
 H336 H -0.01969 0.19672 0.10708
 N337 N -0.00010 0.23548 0.11091
 C338 C -0.01814 0.28796 0.11055
 H339 H -0.02752 0.28601 0.12093
 C340 C -0.02012 0.30266 0.09997
 H341 H -0.03099 0.31158 0.10281
 C342 C 0.00807 0.27958 0.09589
 H343 H 0.01920 0.27073 0.09444
 C344 C 0.00678 0.29431 0.08514
 H345 H 0.01673 0.29588 0.07519
 Zn346 Zn -0.00242 0.25692 0.12362
 N347 N -0.00434 0.27659 0.10828
 C348 C 0.02813 0.27288 0.13699
 N349 N 0.01776 0.25869 0.13782
 C350 C 0.02203 0.24485 0.14819
 C351 C 0.03743 0.24480 0.15810
 C352 C 0.04372 0.27334 0.14659
 C353 C -0.03861 0.25482 0.12959
 C354 C -0.05423 0.25524 0.13912
 C355 C -0.03743 0.25914 0.16562
 C356 C -0.02206 0.25864 0.15555
 N357 N -0.02292 0.25654 0.13786
 H358 H 0.02449 0.28375 0.12867
 H359 H 0.01354 0.23372 0.14857
 H360 H 0.04053 0.23367 0.16632
 H361 H 0.05205 0.28452 0.14531
 H362 H -0.03895 0.25332 0.11549
 H363 H -0.06654 0.25371 0.13225
 H364 H -0.03655 0.26115 0.17965
 H365 H -0.00950 0.26025 0.16186
 C366 C -0.00756 0.30622 0.08695
 C367 C 0.00472 0.20328 0.09428
 C368 C -0.05380 0.25756 0.15737
 C369 C 0.04865 0.25909 0.15722
 C370 C 0.02097 0.76988 0.40426
 H371 H 0.03305 0.76240 0.40272
 C372 C 0.02076 0.78489 0.41475
 H373 H 0.03279 0.78885 0.42100
 C374 C -0.00912 0.77430 0.39744
 H375 H -0.02079 0.77012 0.39075
 C376 C -0.00991 0.78939 0.40777
 H377 H -0.02223 0.79665 0.40892
 N378 N 0.00630 0.76515 0.39542
 C379 C 0.01453 0.71076 0.38006
 H380 H 0.01912 0.71278 0.36681
 C381 C 0.01386 0.69388 0.38676
 H382 H 0.01836 0.68301 0.37868
 C383 C 0.00284 0.72260 0.40648
 H384 H -0.00180 0.73386 0.41390
 C385 C 0.00188 0.70588 0.41370
 H386 H -0.00354 0.70441 0.42672
 Zn387 Zn 0.00767 0.74664 0.37865
 N388 N 0.00887 0.72466 0.38985
 C389 C 0.04387 0.74446 0.37235
 N390 N 0.02826 0.74895 0.36479
 C391 C 0.02751 0.75454 0.34788
 C392 C 0.04292 0.75630 0.33812
 C393 C 0.05956 0.74597 0.36308
 C394 C -0.02309 0.73327 0.36354
 C395 C -0.03873 0.73374 0.35405
 C396 C -0.03299 0.76355 0.34622
 C397 C -0.01739 0.76241 0.35581
 N398 N -0.01279 0.74747 0.36434
 H399 H 0.04414 0.73954 0.38561
 H400 H 0.01502 0.75765 0.34188
 H401 H 0.04207 0.76071 0.32468
 H402 H 0.07184 0.74261 0.36950
 H403 H -0.01948 0.72158 0.37066
 H404 H -0.04668 0.72229 0.35488
 H405 H -0.03551 0.77559 0.33926
 H406 H -0.00902 0.77361 0.35668
 C407 C 0.00715 0.69120 0.40368
 C408 C 0.00528 0.79513 0.41624
 C409 C -0.04433 0.74914 0.34520
 C410 C 0.05924 0.75205 0.34574
 C411 C 0.51533 0.26792 0.90496
 H412 H 0.52567 0.25801 0.90543
 C413 C 0.51708 0.28355 0.91429
 H414 H 0.52881 0.28558 0.92197
 C415 C 0.48798 0.27780 0.89347
 H416 H 0.47689 0.27580 0.88497
 C417 C 0.48922 0.29358 0.90249
 H418 H 0.47881 0.30335 0.90116
 N419 N 0.50099 0.26539 0.89473
 C420 C 0.49864 0.20948 0.88371
 H421 H 0.49789 0.20996 0.86955
 C422 C 0.49778 0.19348 0.89227
 H423 H 0.49671 0.18166 0.88454
 C424 C 0.50103 0.22443 0.91082
 H425 H 0.50197 0.23657 0.91799
 C426 C 0.50012 0.20868 0.91995
 H427 H 0.50034 0.20890 0.93414
 Zn428 Zn 0.50044 0.24546 0.87997
 N429 N 0.50040 0.22451 0.89301
 C430 C 0.53234 0.23260 0.86465
 N431 N 0.52059 0.24625 0.86543
 C432 C 0.52380 0.26160 0.85725
 C433 C 0.53951 0.26381 0.84814
 C434 C 0.54807 0.23414 0.85542
 C435 C 0.46444 0.24397 0.87603
 C436 C 0.44818 0.24473 0.86769
 C437 C 0.46311 0.24920 0.84016
 C438 C 0.47916 0.24843 0.84908
 N439 N 0.47947 0.24609 0.86674
 H440 H 0.52983 0.22067 0.87159
 H441 H 0.51437 0.27234 0.85832
 H442 H 0.54204 0.27621 0.84197
 H443 H 0.55746 0.22330 0.85524
 H444 H 0.46512 0.24192 0.89004
 H445 H 0.43637 0.24304 0.87537
 H446 H 0.46301 0.25144 0.82615
 H447 H 0.49131 0.24988 0.84193
 C448 C 0.49843 0.19291 0.91066
 C449 C 0.50405 0.29675 0.91282
 C450 C 0.44734 0.24755 0.84955
 C451 C 0.55192 0.25000 0.84728
 C452 C 0.51710 0.73282 0.59967
 H453 H 0.52666 0.74289 0.59781
 C454 C 0.51901 0.71689 0.59079
 H455 H 0.52993 0.71491 0.58184
 C456 C 0.49127 0.72325 0.61365
 H457 H 0.48071 0.72557 0.62289
 C458 C 0.49271 0.70713 0.60514
 H459 H 0.48317 0.69726 0.60797
 N460 N 0.50326 0.73578 0.61066
 C461 C 0.49759 0.79227 0.61544
 H462 H 0.49658 0.79305 0.62957
 C463 C 0.49657 0.80745 0.60549
 H464 H 0.49461 0.81990 0.61207
 C465 C 0.50099 0.77493 0.58979
 H466 H 0.50254 0.76220 0.58375
 C467 C 0.49999 0.78985 0.57928
 H468 H 0.50111 0.78849 0.56518
 Zn469 Zn 0.50148 0.75726 0.62298
 N470 N 0.50007 0.77646 0.60754
 C471 C 0.53332 0.77189 0.63393
 N472 N 0.52172 0.75907 0.63721
 C473 C 0.52504 0.74677 0.64966
 C474 C 0.54050 0.74720 0.65951
 C475 C 0.54890 0.77279 0.64342
 C476 C 0.46546 0.75813 0.62680
 C477 C 0.44918 0.75938 0.63512
 C478 C 0.46413 0.76115 0.66296
 C479 C 0.48020 0.75982 0.65407
 N480 N 0.48053 0.75823 0.63631
 H481 H 0.53080 0.78119 0.62359
 H482 H 0.51575 0.73651 0.65179
 H483 H 0.54288 0.73736 0.66943
 H484 H 0.55813 0.78285 0.64023
 H485 H 0.46613 0.75703 0.61267
 H486 H 0.43737 0.75892 0.62727
 H487 H 0.46407 0.76261 0.67708
 H488 H 0.49235 0.76029 0.66134
 C489 C 0.49797 0.80639 0.58717
 C490 C 0.50667 0.70378 0.59345
 C491 C 0.44834 0.76099 0.65344
 C492 C 0.55272 0.76032 0.65638
 C493 C 0.89877 0.98539 0.72728
 H494 H 0.90041 0.97495 0.73669
 C495 C 0.90689 0.98433 0.71169
 H496 H 0.91544 0.97314 0.70914
 C497 C 0.88571 1.01312 0.72062
 H498 H 0.87701 1.02401 0.72372
 C499 C 0.89451 1.01265 0.70342
 H500 H 0.89144 1.02329 0.69461
 N501 N 0.88785 1.00034 0.73164
 C502 C 0.88127 1.00432 0.78925
 H503 H 0.86722 1.00676 0.78949
 C504 C 0.89036 1.00416 0.80419
 H505 H 0.88334 1.00711 0.81621
 C506 C 0.90696 0.99936 0.77189
 H507 H 0.91331 0.99738 0.75934
 C508 C 0.91763 0.99914 0.78811
 H509 H 0.93154 0.99634 0.78673
 Zn510 Zn 0.87500 1.00083 0.75300
 N511 N 0.88997 1.00135 0.77278
 C512 C 0.86346 0.96935 0.76768
 N513 N 0.86126 0.98050 0.75398
 C514 C 0.85015 0.97678 0.74060
 C515 C 0.84065 0.96135 0.74074
 C516 C 0.85422 0.95388 0.76838
 C517 C 0.86962 1.03656 0.75616
 C518 C 0.86055 1.05257 0.75659
 C519 C 0.83339 1.03725 0.75305
 C520 C 0.84302 1.02146 0.75274
 N521 N 0.86083 1.02145 0.75403
 H522 H 0.87259 0.97226 0.77804
 H523 H 0.84888 0.98569 0.72968
 H524 H 0.83213 0.95845 0.72982
 H525 H 0.85608 0.94534 0.77953
 H526 H 0.88379 1.03615 0.75723
 H527 H 0.86788 1.06445 0.75784
 H528 H 0.81922 1.03709 0.75195
 H529 H 0.83626 1.00929 0.75133
 C530 C 0.90978 1.00098 0.80397
 C531 C 0.90473 0.99875 0.69864
 C532 C 0.84219 1.05308 0.75492
 C533 C 0.84274 0.94960 0.75473
 C534 C 0.40035 0.47810 0.22905
 H535 H 0.40174 0.46732 0.23810
 C536 C 0.40911 0.47747 0.21290
 H537 H 0.41745 0.46625 0.20973
 C538 C 0.38756 0.50569 0.22207
 H539 H 0.37879 0.51647 0.22540
 C540 C 0.39604 0.50561 0.20587
 H541 H 0.39366 0.51639 0.19698
 N542 N 0.38990 0.49212 0.23334
 C543 C 0.38381 0.49366 0.29012
 H544 H 0.36968 0.49544 0.29056
 C545 C 0.39343 0.49348 0.30562
 H546 H 0.38659 0.49533 0.31796
 C547 C 0.40980 0.48965 0.27330
 H548 H 0.41610 0.48829 0.26066
 C549 C 0.41999 0.48937 0.28856
 H550 H 0.43409 0.48754 0.28752
 Zn551 Zn 0.37706 0.49215 0.25464
 N552 N 0.39202 0.49155 0.27440
 C553 C 0.36517 0.45997 0.26739
 N554 N 0.36276 0.47220 0.25469
 C555 C 0.35122 0.46973 0.24136
 C556 C 0.34147 0.45448 0.24054
 C557 C 0.35570 0.44461 0.26709
 C558 C 0.37319 0.52779 0.25886
 C559 C 0.36487 0.54414 0.26014
 C560 C 0.33691 0.53020 0.25686
 C561 C 0.34581 0.51403 0.25570
 N562 N 0.36365 0.51319 0.25648
 H563 H 0.37477 0.46184 0.27757
 H564 H 0.34979 0.47950 0.23123
 H565 H 0.33232 0.45274 0.22986
 H566 H 0.35818 0.43489 0.27711
 H567 H 0.38736 0.52671 0.25951
 H568 H 0.37278 0.55562 0.26160
 H569 H 0.32270 0.53071 0.25619
 H570 H 0.33846 0.50223 0.25410
 C571 C 0.41177 0.49118 0.30501
 C572 C 0.40697 0.49137 0.20106
 C573 C 0.34650 0.54552 0.25907
 C574 C 0.34371 0.44164 0.25350
 C575 C 0.60197 0.99072 0.27144
 H576 H 0.59931 0.98061 0.26192
 C577 C 0.59403 0.99062 0.28714
 H578 H 0.58525 0.98010 0.29000
 C579 C 0.61827 1.01590 0.27872
 H580 H 0.62813 1.02535 0.27582
 C581 C 0.60991 1.01633 0.29610
 H582 H 0.61318 1.02704 0.30468
 N583 N 0.61441 1.00392 0.26731
 C584 C 0.62099 1.00553 0.21053
 H585 H 0.63518 1.00587 0.21029
 C586 C 0.61160 1.00641 0.19491
 H587 H 0.61869 1.00723 0.18264
 C588 C 0.59464 1.00368 0.22693
 H589 H 0.58812 1.00281 0.23947
 C590 C 0.58468 1.00444 0.21153
 H591 H 0.57049 1.00417 0.21235
 Zn592 Zn 0.62725 1.00289 0.24597
 N593 N 0.61248 1.00402 0.22610
 C594 C 0.63710 0.96961 0.23288
 N595 N 0.64036 0.98157 0.24563
 C596 C 0.65171 0.97786 0.25892
 C597 C 0.66030 0.96154 0.25973
 C598 C 0.64533 0.95317 0.23321
 C599 C 0.63286 1.03804 0.24318
 C600 C 0.64174 1.05369 0.24359
 C601 C 0.66906 1.03727 0.24627
 C602 C 0.65954 1.02184 0.24589
 N603 N 0.64174 1.02256 0.24478
 H604 H 0.62774 0.97258 0.22264
 H605 H 0.65378 0.98746 0.26912
 H606 H 0.66899 0.95865 0.27061
 H607 H 0.64250 0.94384 0.22294
 H608 H 0.61870 1.03818 0.24196
 H609 H 0.63406 1.06562 0.24192
 H610 H 0.68312 1.03615 0.24806
 H611 H 0.66637 1.00936 0.24694
 C612 C 0.59320 1.00582 0.19525
 C613 C 0.59827 1.00409 0.30064
 C614 C 0.66017 1.05369 0.24559
 C615 C 0.65694 0.94887 0.24686
 C616 C 0.10315 0.48884 0.76935
 H617 H 0.10193 0.47824 0.76004
 C618 C 0.09451 0.48818 0.78554
 H619 H 0.08662 0.47702 0.78862
 C620 C 0.11563 0.51587 0.77704
 H621 H 0.12413 0.52650 0.77394
 C622 C 0.10733 0.51570 0.79332
 H623 H 0.10928 0.52642 0.80235
 N624 N 0.11346 0.50257 0.76542
 C625 C 0.12023 0.50568 0.70876
 H626 H 0.13431 0.50727 0.70855
 C627 C 0.11078 0.50617 0.69315
 H628 H 0.11774 0.50796 0.68093
 C629 C 0.09423 0.50110 0.72505
 H630 H 0.08784 0.49931 0.73755
 C631 C 0.08423 0.50145 0.70968
 H632 H 0.07014 0.49995 0.71048
 Zn633 Zn 0.12659 0.50265 0.74427
 N634 N 0.11193 0.50300 0.72427
 C635 C 0.13975 0.47079 0.73023
 N636 N 0.14124 0.48228 0.74377
 C637 C 0.15208 0.47875 0.75752
 C638 C 0.16195 0.46312 0.75801
 C639 C 0.14937 0.45508 0.73016
 C640 C 0.13005 0.53820 0.74082
 C641 C 0.13797 0.55440 0.74129
 C642 C 0.16585 0.53972 0.74675
 C643 C 0.15736 0.52371 0.74610
 N644 N 0.13970 0.52331 0.74353
 H645 H 0.13084 0.47357 0.71957
 H646 H 0.15275 0.48792 0.76831
 H647 H 0.17020 0.46034 0.76925
 H648 H 0.14801 0.44620 0.71919
 H649 H 0.11605 0.53748 0.73868
 H650 H 0.12997 0.56607 0.73916
 H651 H 0.17980 0.53988 0.74941
 H652 H 0.16480 0.51170 0.74808
 C653 C 0.09254 0.50401 0.69345
 C654 C 0.09676 0.50166 0.79783
 C655 C 0.15604 0.55536 0.74464
 C656 C 0.16051 0.45095 0.74427
 C657 C 0.77599 0.89933 0.01304
 H658 H 0.76631 0.90140 0.02328
 C659 C 0.79201 0.90788 0.01383
 H660 H 0.79457 0.91656 0.02473
 C661 C 0.78484 0.88472 -0.01306
 H662 H 0.78234 0.87530 -0.02325
 C663 C 0.80098 0.89292 -0.01276
 H664 H 0.81044 0.89006 -0.02305
 N665 N 0.77267 0.88806 -0.00033
 C666 C 0.71584 0.88132 -0.00139
 H667 H 0.71597 0.86725 -0.00277
 C668 C 0.69990 0.89055 -0.00028
 H669 H 0.68777 0.88349 -0.00108
 C670 C 0.73163 0.90750 0.00126
 H671 H 0.74404 0.91403 0.00188
 C672 C 0.71591 0.91730 0.00238
 H673 H 0.71637 0.93133 0.00407
 Zn674 Zn 0.75168 0.87517 -0.00012
 N675 N 0.73128 0.88980 -0.00019
 C676 C 0.73928 0.86430 0.03295
 N677 N 0.75195 0.86158 0.02058
 C678 C 0.76562 0.85019 0.02339
 C679 C 0.76686 0.84093 0.03912
 C680 C 0.73997 0.85532 0.04880
 C681 C 0.75052 0.86953 -0.03605
 C682 C 0.75089 0.86022 -0.05178
 C683 C 0.75039 0.83337 -0.03526
 C684 C 0.75037 0.84323 -0.01977
 N685 N 0.75076 0.86098 -0.02047
 H686 H 0.72883 0.87381 0.03080
 H687 H 0.77570 0.84849 0.01348
 H688 H 0.77781 0.83190 0.04112
 H689 H 0.72997 0.85804 0.05860
 H690 H 0.75052 0.88366 -0.03620
 H691 H 0.75105 0.86722 -0.06408
 H692 H 0.75035 0.81925 -0.03459
 H693 H 0.75018 0.83670 -0.00724
 C694 C 0.69977 0.90875 0.00195
 C695 C 0.80482 0.90455 0.00089
 C696 C 0.75099 0.84192 -0.05148
 C697 C 0.75393 0.84351 0.05211
 C698 C 0.27452 0.40014 0.51227
 H699 H 0.26483 0.40234 0.52246
 C700 C 0.29058 0.40861 0.51304
 H701 H 0.29314 0.41736 0.52387
 C702 C 0.28340 0.38522 0.48634
 H703 H 0.28088 0.37572 0.47624
 C704 C 0.29958 0.39335 0.48662
 H705 H 0.30907 0.39034 0.47640
 N706 N 0.27122 0.38874 0.49901
 C707 C 0.21446 0.38207 0.49777
 H708 H 0.21460 0.36798 0.49660
 C709 C 0.19851 0.39131 0.49862
 H710 H 0.18639 0.38423 0.49782
 C711 C 0.23022 0.40830 0.50017
 H712 H 0.24262 0.41483 0.50082
 C713 C 0.21449 0.41810 0.50105
 H714 H 0.21493 0.43215 0.50257
 Zn715 Zn 0.25021 0.37593 0.49948
 N716 N 0.22988 0.39058 0.49896
 C717 C 0.23762 0.36603 0.53275
 N718 N 0.25036 0.36293 0.52054
 C719 C 0.26397 0.35157 0.52371
 C720 C 0.26504 0.34269 0.53966
 C721 C 0.23815 0.35742 0.54881
 C722 C 0.24902 0.36921 0.46372
 C723 C 0.24897 0.35940 0.44830
 C724 C 0.24816 0.33313 0.46570
 C725 C 0.24855 0.34347 0.48086
 N726 N 0.24924 0.36116 0.47957
 H727 H 0.22721 0.37551 0.53030
 H728 H 0.27411 0.34959 0.51390
 H729 H 0.27593 0.33364 0.54195
 H730 H 0.22807 0.36039 0.55847
 H731 H 0.24924 0.38332 0.46311
 H732 H 0.24906 0.36601 0.43578
 H733 H 0.24782 0.31905 0.46684
 H734 H 0.24834 0.33735 0.49359
 C735 C 0.19836 0.40953 0.50062
 C736 C 0.30343 0.40508 0.50018
 C737 C 0.24866 0.34113 0.44920
 C738 C 0.25202 0.34561 0.55247
 C739 C 0.22040 0.59351 -0.00110
 H740 H 0.23194 0.58521 0.00054
 C741 C 0.20399 0.58602 -0.00347
 H742 H 0.20336 0.57194 -0.00293
 C743 C 0.20762 0.62186 -0.00315
 H744 H 0.20924 0.63586 -0.00328
 C745 C 0.19101 0.61501 -0.00553
 H746 H 0.18028 0.62414 -0.00799
 N747 N 0.22184 0.61115 -0.00077
 C748 C 0.27612 0.60818 -0.00895
 H749 H 0.27535 0.61798 -0.01906
 C750 C 0.29127 0.59771 -0.00755
 H751 H 0.30193 0.59963 -0.01669
 C752 C 0.26382 0.59483 0.01603
 H753 H 0.25317 0.59408 0.02539
 C754 C 0.27875 0.58402 0.01790
 H755 H 0.27934 0.57472 0.02854
 Zn756 Zn 0.24342 0.62256 0.00193
 N757 N 0.26277 0.60659 0.00275
 C758 C 0.25814 0.64402 0.02766
 N759 N 0.24338 0.63542 0.02314
 C760 C 0.22935 0.63487 0.03416
 C761 C 0.22983 0.64317 0.05045
 C762 C 0.25920 0.65249 0.04387
 C763 C 0.24432 0.62932 -0.03357
 C764 C 0.24521 0.63900 -0.04894
 C765 C 0.24820 0.66513 -0.03142
 C766 C 0.24729 0.65489 -0.01632
 N767 N 0.24553 0.63730 -0.01770
 H768 H 0.26924 0.64396 0.01879
 H769 H 0.21787 0.62767 0.03054
 H770 H 0.21849 0.64260 0.05899
 H771 H 0.27121 0.65890 0.04741
 H772 H 0.24260 0.61535 -0.03424
 H773 H 0.24402 0.63237 -0.06143
 H774 H 0.24979 0.67909 -0.03015
 H775 H 0.24789 0.66101 -0.00355
 C776 C 0.29282 0.58549 0.00608
 C777 C 0.18876 0.59675 -0.00561
 C778 C 0.24722 0.65715 -0.04801
 C779 C 0.24497 0.65197 0.05559
 C780 C 0.72075 0.10112 0.50638
 H781 H 0.72940 0.09949 0.51752
 C782 C 0.70424 0.09344 0.50642
 H783 H 0.70027 0.08586 0.51763
 C784 C 0.71495 0.11382 0.47866
 H785 H 0.71889 0.12208 0.46801
 C786 C 0.69841 0.10648 0.47819
 H787 H 0.69002 0.10889 0.46697
 N788 N 0.72574 0.11114 0.49264
 C789 C 0.78269 0.11619 0.49279
 H790 H 0.78307 0.13015 0.49075
 C791 C 0.79830 0.10644 0.49403
 H792 H 0.81068 0.11298 0.49269
 C793 C 0.76595 0.09080 0.49679
 H794 H 0.75330 0.08480 0.49787
 C795 C 0.78132 0.08049 0.49810
 H796 H 0.78035 0.06661 0.50040
 Zn797 Zn 0.74699 0.12350 0.49366
 N798 N 0.76695 0.10836 0.49450
 C799 C 0.75909 0.13560 0.52638
 N800 N 0.74626 0.13764 0.51412
 C801 C 0.73227 0.14868 0.51692
 C802 C 0.73090 0.15833 0.53249
 C803 C 0.75827 0.14498 0.54206
 C804 C 0.75253 0.12773 0.45819
 C805 C 0.75223 0.13594 0.44195
 C806 C 0.74529 0.16330 0.45658
 C807 C 0.74578 0.15453 0.47264
 N808 N 0.74891 0.13697 0.47306
 H809 H 0.76982 0.12638 0.52426
 H810 H 0.72203 0.14979 0.50714
 H811 H 0.71971 0.16709 0.53449
 H812 H 0.76845 0.14282 0.55176
 H813 H 0.75506 0.11380 0.45894
 H814 H 0.75491 0.12826 0.43026
 H815 H 0.74206 0.17714 0.45637
 H816 H 0.74308 0.16166 0.48462
 C817 C 0.79777 0.08838 0.49698
 C818 C 0.69275 0.09635 0.49229
 C819 C 0.74812 0.15388 0.44093
 C820 C 0.74403 0.15649 0.54533
 C821 C 0.98883 0.72849 0.89989
 H822 H 0.97714 0.73679 0.90058
 C823 C 0.98929 0.71304 0.90806
 H824 H 0.97797 0.70944 0.91568
 C825 C 1.01811 0.72463 0.88929
 H826 H 1.02913 0.72884 0.88162
 C827 C 1.01935 0.70768 0.89828
 H828 H 1.03130 0.70001 0.89635
 N829 N 1.00379 0.73419 0.89017
 C830 C 1.00368 0.79156 0.88428
 H831 H 1.00502 0.79217 0.87017
 C832 C 1.00340 0.80622 0.89379
 H833 H 1.00402 0.81848 0.88687
 C834 C 0.99991 0.77367 0.90944
 H835 H 0.99864 0.76100 0.91542
 C836 C 0.99943 0.78957 0.92053
 H837 H 0.99838 0.78778 0.93453
 Zn838 Zn 1.00218 0.75532 0.87736
 N839 N 1.00176 0.77492 0.89254
 C840 C 0.96904 0.76844 0.86681
 N841 N 0.98110 0.75532 0.86409
 C842 C 0.97762 0.74172 0.85319
 C843 C 0.96144 0.74099 0.84455
 C844 C 0.95276 0.76821 0.85851
 C845 C 1.03726 0.76186 0.87146
 C846 C 1.05312 0.76270 0.86243
 C847 C 1.03816 0.75404 0.83599
 C848 C 1.02246 0.75353 0.84553
 N849 N 1.02237 0.75717 0.86301
 H850 H 0.97179 0.77897 0.87576
 H851 H 0.98723 0.73121 0.85156
 H852 H 0.95871 0.72988 0.83623
 H853 H 0.94338 0.77879 0.86092
 H854 H 1.03684 0.76459 0.88538
 H855 H 1.06489 0.76602 0.86954
 H856 H 1.03813 0.75090 0.82214
 H857 H 1.01048 0.74994 0.83903
 C858 C 1.00117 0.80552 0.91323
 C859 C 1.00547 0.70162 0.90729
 C860 C 1.05376 0.75858 0.84451
 C861 C 0.94868 0.75426 0.84738
 C862 C 0.48675 0.23037 0.40031
 H863 H 0.47535 0.23894 0.40186
 C864 C 0.48764 0.21443 0.40916
 H865 H 0.47695 0.21090 0.41771
 C866 C 0.51449 0.22454 0.38715
 H867 H 0.52478 0.22829 0.37827
 C868 C 0.51596 0.20856 0.39579
 H869 H 0.52741 0.20021 0.39345
 N870 N 0.50013 0.23516 0.38966
 C871 C 0.49821 0.29184 0.38552
 H872 H 0.49901 0.29291 0.37141
 C873 C 0.49736 0.30687 0.39586
 H874 H 0.49775 0.31951 0.38959
 C875 C 0.49703 0.27394 0.41074
 H876 H 0.49694 0.26106 0.41646
 C877 C 0.49617 0.28869 0.42162
 H878 H 0.49519 0.28701 0.43567
 Zn879 Zn 0.49804 0.25655 0.37737
 N880 N 0.49770 0.27579 0.39302
 C881 C 0.46400 0.26872 0.36846
 N882 N 0.47664 0.25645 0.36461
 C883 C 0.47359 0.24339 0.35293
 C884 C 0.45725 0.24234 0.34463
 C885 C 0.44755 0.26815 0.36052
 C886 C 0.53327 0.26172 0.37106
 C887 C 0.54880 0.26341 0.36160
 C888 C 0.53229 0.26014 0.33481
 C889 C 0.51700 0.25855 0.34483
 N890 N 0.51783 0.25912 0.36263
 H891 H 0.46642 0.27877 0.37805
 H892 H 0.48370 0.23355 0.35037
 H893 H 0.45490 0.23165 0.33567
 H894 H 0.43770 0.27806 0.36383
 H895 H 0.53352 0.26221 0.38523
 H896 H 0.56099 0.26500 0.36864
 H897 H 0.53146 0.25963 0.32065
 H898 H 0.50454 0.25678 0.33838
 C899 C 0.49609 0.30543 0.41416
 C900 C 0.50243 0.20332 0.40696
 C901 C 0.54848 0.26253 0.34322
 C902 C 0.44390 0.25473 0.34859
 C903 C 0.99047 0.27077 0.59829
 H904 H 0.97968 0.26204 0.59671
 C905 C 0.99129 0.28559 0.58768
 H906 H 0.98050 0.28806 0.57878
 C907 C 1.01707 0.27792 0.61210
 H908 H 1.02747 0.27472 0.62119
 C909 C 1.01843 0.29288 0.60184
 H910 H 1.03011 0.30049 0.60333
 N911 N 1.00296 0.26747 0.61062
 C912 C 0.98993 0.21412 0.61801
 H913 H 0.98128 0.21607 0.62912
 C914 C 0.99014 0.19814 0.60916
 H915 H 0.98156 0.18796 0.61357
 C916 C 1.01228 0.22465 0.59945
 H917 H 1.02096 0.23504 0.59588
 C918 C 1.01301 0.20877 0.59029
 H919 H 1.02216 0.20709 0.57951
 Zn920 Zn 1.00088 0.24805 0.62617
 N921 N 1.00087 0.22699 0.61304
 C922 C 0.96404 0.24910 0.63023
 N923 N 0.97945 0.24987 0.63918
 C924 C 0.97957 0.25078 0.65701
 C925 C 0.96382 0.25115 0.66646
 C926 C 0.94802 0.24941 0.63914
 C927 C 1.03169 0.23349 0.64151
 C928 C 1.04682 0.23336 0.65183
 C929 C 1.03811 0.26174 0.66313
 C930 C 1.02317 0.26131 0.65255
 N931 N 1.02039 0.24747 0.64177
 H932 H 0.96413 0.24750 0.61619
 H933 H 0.99185 0.25089 0.66403
 H934 H 0.96423 0.25199 0.68062
 H935 H 0.93599 0.24833 0.63172
 H936 H 1.02912 0.22243 0.63314
 H937 H 1.05516 0.22175 0.65142
 H938 H 1.04016 0.27348 0.67070
 H939 H 1.01402 0.27233 0.65249
 C940 C 1.00183 0.19526 0.59515
 C941 C 1.00522 0.29732 0.58957
 C942 C 1.05058 0.24778 0.66271
 C943 C 0.94775 0.25042 0.65751
 C944 C 0.49667 0.76946 0.10063
 H945 H 0.48604 0.76041 0.09941
 C946 C 0.49643 0.78487 0.09086
 H947 H 0.48548 0.78763 0.08218
 C948 C 0.52343 0.77721 0.11408
 H949 H 0.53378 0.77439 0.12336
 C950 C 0.52373 0.79271 0.10457
 H951 H 0.53457 0.80142 0.10639
 N952 N 0.51006 0.76592 0.11194
 C953 C 0.50966 0.70974 0.12077
 H954 H 0.50940 0.70984 0.13495
 C955 C 0.50922 0.69394 0.11169
 H956 H 0.50871 0.68183 0.11894
 C957 C 0.51060 0.72549 0.09410
 H958 H 0.51113 0.73783 0.08734
 C959 C 0.51048 0.70990 0.08447
 H960 H 0.51076 0.71032 0.07029
 Zn961 Zn 0.50915 0.74558 0.12589
 N962 N 0.50986 0.72511 0.11192
 C963 C 0.47548 0.73438 0.13551
 N964 N 0.48776 0.74659 0.13875
 C965 C 0.48446 0.75999 0.15015
 C966 C 0.46845 0.76116 0.15917
 C967 C 0.45938 0.73503 0.14421
 C968 C 0.54464 0.74148 0.13229
 C969 C 0.56029 0.74059 0.14170
 C970 C 0.54369 0.74517 0.16841
 C971 C 0.52826 0.74590 0.15844
 N972 N 0.52907 0.74431 0.14068
 H973 H 0.47790 0.72427 0.12586
 H974 H 0.49424 0.76982 0.15216
 H975 H 0.46612 0.77178 0.16837
 H976 H 0.44974 0.72530 0.14118
 H977 H 0.54488 0.74015 0.11817
 H978 H 0.57257 0.73874 0.13467
 H979 H 0.54288 0.74649 0.18252
 H980 H 0.51573 0.74778 0.16490
 C981 C 0.50945 0.69392 0.09332
 C982 C 0.51004 0.79680 0.09287
 C983 C 0.55998 0.74253 0.16000
 C984 C 0.45570 0.74849 0.15630
 O985 O -0.01102 0.99423 0.95440
 O986 O 0.01782 1.00321 0.95373
 O987 O -0.01120 0.95476 0.99431
 O988 O -0.00494 0.95256 1.02264
 O989 O -0.05141 0.99601 0.99421
 O990 O -0.05178 1.02578 1.00291
 O991 O 0.03347 1.00045 1.04199
 O992 O 0.03561 0.97315 1.02911
 O993 O 0.03677 1.03727 1.00204
 O994 O 0.02165 1.04245 0.97431
 O995 O -0.00398 1.04167 1.03912
 O996 O -0.03189 1.02735 1.04349
 O997 O 0.00906 1.01404 1.05323
 O998 O -0.02245 1.00523 1.05411
 O999 O 0.00929 1.05273 1.01507
 O1000 O -0.00033 1.05383 0.98376
 O1001 O 0.04772 1.01293 1.01541
 O1002 O 0.04760 0.98338 1.00192
 O1003 O -0.03519 1.00836 0.96559
 O1004 O -0.03919 1.03577 0.98099
 O1005 O -0.04045 0.97143 1.00714
 O1006 O -0.02473 0.96810 1.03535
 O1007 O 0.00144 0.96585 0.96989
 O1008 O 0.03019 0.98020 0.96842
 Zr1009 Zr 0.00592 0.99216 0.97608
 O1010 O 0.02255 1.00768 0.99132
 Zr1011 Zr -0.01370 0.97636 1.01137
 O1012 O 0.00253 0.99081 1.02808
 Zr1013 Zr -0.02962 1.01229 0.99236
 O1014 O -0.01451 1.02840 1.00859
 Zr1015 Zr 0.02654 0.99581 1.01578
 O1016 O 0.01125 0.97926 0.99992
 Zr1017 Zr 0.01025 1.03181 0.99710
 O1018 O -0.00559 1.01717 0.97996
 Zr1019 Zr -0.00899 1.01564 1.03236
 O1020 O -0.02622 1.00052 1.01704
 O1021 O -0.01855 0.98778 0.98720
 O1022 O 0.01543 1.02037 1.02131
 C1023 C -0.02644 1.00129 0.95284
 C1024 C -0.00494 0.95320 0.97869
 C1025 C -0.05315 0.98067 1.00065
 C1026 C 0.02481 1.00777 1.05463
 C1027 C 0.04933 1.02838 1.00922
 C1028 C 0.00319 1.05416 1.03074
 H1029 H 0.03381 1.00905 0.98504
 H1030 H -0.02088 1.03964 1.01047
 H1031 H -0.02608 0.98053 0.97966
 H1032 H 0.00445 0.98435 1.03913
 H1033 H 0.03300 0.96309 1.02143
 H1034 H 0.00575 0.95514 1.02942
 H1035 H -0.01099 1.05788 0.99014
 H1036 H -0.02998 1.03968 0.97283
 H1037 H 0.05820 0.98365 1.00945
 H1038 H 0.02847 0.97375 0.95727
 H1039 H -0.03609 1.03660 1.03542
 H1040 H -0.05325 1.02142 1.01500
 H1041 H 0.01339 1.01544 0.95296
 H1042 H 0.03076 1.03405 0.97005
 H1043 H -0.03409 0.97675 1.03851
 H1044 H -0.01594 0.99459 1.05796
 O1045 O 0.48935 0.49248 0.45649
 O1046 O 0.51828 0.50134 0.45636
 O1047 O 0.48771 0.45415 0.49726
 O1048 O 0.49353 0.45263 0.52582
 O1049 O 0.44785 0.49548 0.49520
 O1050 O 0.44737 0.52549 0.50294
 O1051 O 0.53143 0.50094 0.54495
 O1052 O 0.53382 0.47330 0.53289
 O1053 O 0.53588 0.53668 0.50428
 O1054 O 0.52159 0.54110 0.47594
 O1055 O 0.49404 0.54223 0.53999
 O1056 O 0.46611 0.52795 0.54411
 O1057 O 0.50681 0.51494 0.55522
 O1058 O 0.47526 0.50616 0.55555
 O1059 O 0.50820 0.55250 0.51609
 O1060 O 0.49940 0.55282 0.48452
 O1061 O 0.54641 0.51267 0.51853
 O1062 O 0.54659 0.48278 0.50577
 O1063 O 0.46478 0.50672 0.46666
 O1064 O 0.46069 0.53477 0.48106
 O1065 O 0.45836 0.47121 0.50905
 O1066 O 0.47334 0.46852 0.53768
 O1067 O 0.50105 0.46458 0.47291
 O1068 O 0.53005 0.47862 0.47201
 Zr1069 Zr 0.50566 0.49096 0.47864
 O1070 O 0.52193 0.50683 0.49389
 Zr1071 Zr 0.48503 0.47615 0.51380
 O1072 O 0.50084 0.49101 0.53054
 Zr1073 Zr 0.46975 0.51161 0.49342
 O1074 O 0.48446 0.52810 0.50962
 Zr1075 Zr 0.52519 0.49561 0.51873
 O1076 O 0.51029 0.47866 0.50293
 Zr1077 Zr 0.50953 0.53112 0.49870
 O1078 O 0.49412 0.51608 0.48152
 Zr1079 Zr 0.48928 0.51597 0.53387
 O1080 O 0.47244 0.50049 0.51849
 O1081 O 0.48089 0.48696 0.48923
 O1082 O 0.51401 0.52033 0.52332
 C1083 C 0.47389 0.49929 0.45437
 C1084 C 0.49423 0.45222 0.48178
 C1085 C 0.44588 0.48032 0.50199
 C1086 C 0.52250 0.50865 0.55717
 C1087 C 0.54821 0.52797 0.51204
 C1088 C 0.50154 0.55443 0.53147
 H1089 H 0.53336 0.50801 0.48788
 H1090 H 0.47806 0.53939 0.51102
 H1091 H 0.47351 0.47954 0.48173
 H1092 H 0.50244 0.48485 0.54181
 H1093 H 0.53139 0.46304 0.52540
 H1094 H 0.50390 0.45543 0.53299
 H1095 H 0.48853 0.55701 0.49046
 H1096 H 0.47010 0.53827 0.47292
 H1097 H 0.55698 0.48324 0.51357
 H1098 H 0.52860 0.47189 0.46098
 H1099 H 0.46210 0.53695 0.53566
 H1100 H 0.44552 0.52149 0.51511
 H1101 H 0.51390 0.51355 0.45511
 H1102 H 0.53086 0.53262 0.47221
 H1103 H 0.46399 0.47732 0.54043
 H1104 H 0.48167 0.49566 0.55986
 O1105 O 0.49949 -0.03368 0.52954
 O1106 O 0.52661 -0.02083 0.53195
 O1107 O 0.46241 0.00906 0.53323
 O1108 O 0.45703 0.03428 0.51941
 O1109 O 0.45723 -0.02932 0.49246
 O1110 O 0.47160 -0.03446 0.46521
 O1111 O 0.50757 0.05232 0.48389
 O1112 O 0.49758 0.05451 0.51207
 O1113 O 0.54535 0.01148 0.48256
 O1114 O 0.54628 -0.01880 0.49151
 O1115 O 0.50512 0.01286 0.44470
 O1116 O 0.47471 0.00592 0.44412
 O1117 O 0.49376 0.04124 0.46004
 O1118 O 0.46448 0.02657 0.45694
 O1119 O 0.52951 -0.00089 0.45544
 O1120 O 0.53319 -0.02924 0.47154
 O1121 O 0.53479 0.03649 0.49521
 O1122 O 0.52139 0.03800 0.52487
 O1123 O 0.48625 -0.04512 0.50550
 O1124 O 0.49438 -0.04656 0.47487
 O1125 O 0.44646 -0.00436 0.50508
 O1126 O 0.44702 0.02611 0.49449
 O1127 O 0.48662 -0.00495 0.54416
 O1128 O 0.51722 0.00549 0.54292
 Zr1129 Zr 0.50377 -0.00764 0.52257
 O1130 O 0.52054 0.00689 0.50662
 Zr1131 Zr 0.46810 0.01218 0.50646
 O1132 O 0.48346 0.02804 0.49036
 Zr1133 Zr 0.48382 -0.02415 0.48773
 O1134 O 0.49939 -0.00987 0.47033
 Zr1135 Zr 0.50849 0.03116 0.50124
 O1136 O 0.49225 0.01732 0.51866
 Zr1137 Zr 0.52377 -0.00515 0.48204
 O1138 O 0.50880 -0.02097 0.49879
 Zr1139 Zr 0.48820 0.01516 0.46641
 O1140 O 0.47127 -0.00009 0.48188
 O1141 O 0.47923 -0.01220 0.51180
 O1142 O 0.51300 0.01953 0.47680
 C1143 C 0.49279 -0.04642 0.52101
 C1144 C 0.47119 0.00204 0.54586
 C1145 C 0.44466 -0.01992 0.49907
 C1146 C 0.50109 0.05375 0.46840
 C1147 C 0.54723 0.02711 0.48833
 C1148 C 0.52062 0.00611 0.44290
 H1149 H 0.53186 0.00831 0.51274
 H1150 H 0.50066 -0.01646 0.45922
 H1151 H 0.47176 -0.01926 0.51953
 H1152 H 0.47738 0.03947 0.48879
 H1153 H 0.49195 0.05127 0.52327
 H1154 H 0.46416 0.04436 0.51607
 H1155 H 0.52568 -0.03223 0.46144
 H1156 H 0.50623 -0.04870 0.47984
 H1157 H 0.52718 0.04932 0.52305
 H1158 H 0.51568 -0.00100 0.55403
 H1159 H 0.47866 -0.00632 0.44210
 H1160 H 0.46372 -0.02508 0.46064
 H1161 H 0.53094 -0.02851 0.52233
 H1162 H 0.54930 -0.01371 0.50302
 H1163 H 0.44400 0.01965 0.48368
 H1164 H 0.46198 0.03733 0.46380
 O1165 O -0.04456 0.46864 0.99069
 O1166 O -0.03177 0.46453 0.96357
 O1167 O -0.00087 0.46395 1.02647
 O1168 O 0.02377 0.47754 1.03236
 O1169 O -0.03914 0.50723 1.03139
 O1170 O -0.04328 0.53382 1.01610
 O1171 O 0.04370 0.50883 0.97960
 O1172 O 0.04467 0.48109 0.99053
 O1173 O 0.00313 0.51119 0.94251
 O1174 O -0.02760 0.50381 0.94222
 O1175 O 0.00552 0.55015 0.98130
 O1176 O -0.00163 0.55252 1.01155
 O1177 O 0.03333 0.53373 0.99272
 O1178 O 0.01832 0.53878 1.02215
 O1179 O -0.00875 0.53943 0.95763
 O1180 O -0.03770 0.52462 0.95489
 O1181 O 0.02765 0.49756 0.95316
 O1182 O 0.02777 0.46843 0.96740
 O1183 O -0.05527 0.49384 1.00301
 O1184 O -0.05550 0.52401 0.99397
 O1185 O -0.01487 0.49323 1.04212
 O1186 O 0.01626 0.50270 1.04070
 O1187 O -0.01579 0.45294 1.00332
 O1188 O -0.00567 0.45259 0.97246
 Zr1189 Zr -0.01810 0.47399 0.98569
 O1190 O -0.00275 0.48836 0.96815
 Zr1191 Zr 0.00211 0.49043 1.02040
 O1192 O 0.01882 0.50483 1.00425
 Zr1193 Zr -0.03356 0.51036 1.00460
 O1194 O -0.01840 0.52622 0.98825
 Zr1195 Zr 0.02175 0.49281 0.97962
 O1196 O 0.00704 0.47702 0.99665
 Zr1197 Zr -0.01387 0.51336 0.96424
 O1198 O -0.03052 0.49820 0.98002
 Zr1199 Zr 0.00681 0.52915 0.99890
 O1200 O -0.00929 0.51539 1.01655
 O1201 O -0.02250 0.48591 1.00991
 O1202 O 0.01103 0.51759 0.97445
 C1203 C -0.05713 0.47822 0.99708
 C1204 C -0.00812 0.45134 1.01825
 C1205 C -0.03017 0.50045 1.04399
 C1206 C 0.04565 0.52441 0.98548
 C1207 C 0.01870 0.50457 0.94067
 C1208 C -0.00123 0.55181 0.96596
 H1209 H -0.00142 0.48177 0.95703
 H1210 H -0.02461 0.53759 0.98672
 H1211 H -0.02984 0.47879 1.01772
 H1212 H 0.03032 0.50596 1.01010
 H1213 H 0.04093 0.47033 0.99650
 H1214 H 0.03374 0.47844 1.02413
 H1215 H -0.04044 0.53513 0.96206
 H1216 H -0.05776 0.51871 0.98236
 H1217 H 0.03927 0.46935 0.96139
 H1218 H -0.01255 0.44193 0.97451
 H1219 H -0.01392 0.55492 1.00797
 H1220 H -0.03374 0.53828 1.02356
 H1221 H -0.03883 0.47447 0.95890
 H1222 H -0.02291 0.49193 0.93960
 H1223 H 0.00973 0.51363 1.04375
 H1224 H 0.02899 0.53160 1.02459
 O1225 O -0.00152 0.53290 0.46373
 O1226 O 0.02569 0.51941 0.46129
 O1227 O -0.03705 0.48968 0.45831
 O1228 O -0.04304 0.46517 0.47231
 O1229 O -0.04479 0.52830 0.49981
 O1230 O -0.03117 0.53262 0.52741
 O1231 O 0.00784 0.44560 0.50782
 O1232 O -0.00166 0.44425 0.47925
 O1233 O 0.04439 0.48571 0.51054
 O1234 O 0.04459 0.51624 0.50195
 O1235 O 0.00353 0.48431 0.54758
 O1236 O -0.02724 0.49205 0.54772
 O1237 O -0.00646 0.45667 0.53175
 O1238 O -0.03646 0.47151 0.53445
 O1239 O 0.02767 0.49793 0.53749
 O1240 O 0.03090 0.52651 0.52199
 O1241 O 0.03464 0.46101 0.49758
 O1242 O 0.02224 0.46041 0.46744
 O1243 O -0.01570 0.54391 0.48778
 O1244 O -0.00867 0.54458 0.51850
 O1245 O -0.05439 0.50400 0.48598
 O1246 O -0.05328 0.47337 0.49688
 O1247 O -0.01355 0.50432 0.44813
 O1248 O 0.01737 0.49348 0.44978
 Zr1249 Zr 0.00305 0.50647 0.47009
 O1250 O 0.01993 0.49125 0.48605
 Zr1251 Zr -0.03234 0.48691 0.48527
 O1252 O -0.01687 0.47046 0.50136
 Zr1253 Zr -0.01813 0.52259 0.50492
 O1254 O -0.00241 0.50775 0.52230
 Zr1255 Zr 0.00846 0.46708 0.49083
 O1256 O -0.00778 0.48160 0.47341
 Zr1257 Zr 0.02233 0.50280 0.51089
 O1258 O 0.00718 0.51920 0.49424
 Zr1259 Zr -0.01297 0.48285 0.52559
 O1260 O -0.03006 0.49866 0.51012
 O1261 O -0.02187 0.51123 0.48049
 O1262 O 0.01214 0.47825 0.51550
 C1263 C -0.00860 0.54559 0.47257
 C1264 C -0.02834 0.49685 0.44594
 C1265 C -0.05685 0.51939 0.49244
 C1266 C 0.00146 0.44416 0.52335
 C1267 C 0.04668 0.46999 0.50487
 C1268 C 0.01882 0.49073 0.54973
 H1269 H 0.03143 0.48969 0.48014
 H1270 H -0.00153 0.51411 0.53355
 H1271 H -0.02929 0.51856 0.47266
 H1272 H -0.02262 0.45909 0.50264
 H1273 H -0.00697 0.44786 0.46795
 H1274 H -0.03515 0.45507 0.47481
 H1275 H 0.02315 0.52943 0.53205
 H1276 H 0.00335 0.54649 0.51407
 H1277 H 0.02824 0.44893 0.46922
 H1278 H 0.01582 0.50014 0.43874
 H1279 H -0.02340 0.50405 0.55025
 H1280 H -0.03882 0.52325 0.53167
 H1281 H 0.02987 0.52649 0.47127
 H1282 H 0.04827 0.51097 0.49062
 H1283 H -0.05682 0.47999 0.50754
 H1284 H -0.03841 0.46088 0.52737
 O1285 O 0.49962 1.03094 -0.03617
 O1286 O 0.52724 1.01767 -0.03775
 O1287 O 0.46436 0.98800 -0.04004
 O1288 O 0.45843 0.96382 -0.02542
 O1289 O 0.45680 1.02778 0.00019
 O1290 O 0.47040 1.03287 0.02773
 O1291 O 0.50929 0.94528 0.01082
 O1292 O 0.49979 0.94300 -0.01767
 O1293 O 0.54588 0.98533 0.01230
 O1294 O 0.54618 1.01551 0.00293
 O1295 O 0.50490 0.98504 0.04935
 O1296 O 0.47421 0.99288 0.04931
 O1297 O 0.49474 0.95698 0.03429
 O1298 O 0.46485 0.97210 0.03658
 O1299 O 0.52908 0.99836 0.03894
 O1300 O 0.53235 1.02649 0.02253
 O1301 O 0.53608 0.96030 0.00007
 O1302 O 0.52365 0.95882 -0.03004
 O1303 O 0.48578 1.04286 -0.01234
 O1304 O 0.49297 1.04452 0.01838
 O1305 O 0.44704 1.00298 -0.01256
 O1306 O 0.44818 0.97261 -0.00105
 O1307 O 0.48808 1.00205 -0.05062
 O1308 O 0.51896 0.99135 -0.04864
 Zr1309 Zr 0.50459 1.00489 -0.02872
 O1310 O 0.52143 0.99017 -0.01231
 Zr1311 Zr 0.46911 0.98588 -0.01300
 O1312 O 0.48455 0.96990 0.00356
 Zr1313 Zr 0.48342 1.02213 0.00555
 O1314 O 0.49906 1.00778 0.02339
 Zr1315 Zr 0.50990 0.96620 -0.00683
 O1316 O 0.49368 0.98017 -0.02468
 Zr1317 Zr 0.52382 1.00244 0.01218
 O1318 O 0.50874 1.01837 -0.00500
 Zr1319 Zr 0.48843 0.98302 0.02741
 O1320 O 0.47140 0.99840 0.01147
 O1321 O 0.47966 1.00999 -0.01848
 O1322 O 0.51355 0.97807 0.01751
 C1323 C 0.49250 1.04391 -0.02779
 C1324 C 0.47318 0.99473 -0.05260
 C1325 C 0.44466 1.01862 -0.00671
 C1326 C 0.50274 0.94426 0.02631
 C1327 C 0.54815 0.96946 0.00707
 C1328 C 0.52018 0.99150 0.05136
 H1329 H 0.53293 0.98842 -0.01817
 H1330 H 0.49993 1.01447 0.03445
 H1331 H 0.47219 1.01704 -0.02653
 H1332 H 0.47878 0.95859 0.00518
 H1333 H 0.49448 0.94624 -0.02907
 H1334 H 0.46630 0.95378 -0.02262
 H1335 H 0.52461 1.02971 0.03252
 H1336 H 0.50494 1.04632 0.01377
 H1337 H 0.52967 0.94740 -0.02792
 H1338 H 0.51752 0.99777 -0.05984
 H1339 H 0.47798 1.00498 0.05138
 H1340 H 0.46267 1.02368 0.03223
 H1341 H 0.53108 1.02539 -0.02812
 H1342 H 0.54956 1.01022 -0.00847
 H1343 H 0.44462 0.97949 0.00943
 H1344 H 0.46287 0.96125 0.02986
 O1345 O 0.44597 0.50752 0.01306
 O1346 O 0.44507 0.47894 0.00405
 O1347 O 0.48845 0.50806 0.05027
 O1348 O 0.51700 0.50178 0.05083
 O1349 O 0.48454 0.54728 0.00976
 O1350 O 0.49205 0.54743 -0.02038
 O1351 O 0.53373 0.46236 0.00160
 O1352 O 0.52232 0.46060 0.02941
 O1353 O 0.49218 0.45924 -0.03363
 O1354 O 0.46380 0.47407 -0.03705
 O1355 O 0.52807 0.49930 -0.03932
 O1356 O 0.53346 0.52648 -0.02521
 O1357 O 0.54406 0.48619 -0.01242
 O1358 O 0.54469 0.51803 -0.00296
 O1359 O 0.50349 0.48642 -0.04936
 O1360 O 0.47177 0.49614 -0.04819
 O1361 O 0.50682 0.44837 -0.01003
 O1362 O 0.49474 0.44895 0.02028
 O1363 O 0.45585 0.53106 -0.00180
 O1364 O 0.47006 0.53481 -0.02984
 O1365 O 0.49995 0.53681 0.03310
 O1366 O 0.52854 0.52063 0.03474
 O1367 O 0.46357 0.49528 0.04070
 O1368 O 0.46156 0.46657 0.02571
 Zr1369 Zr 0.46807 0.49059 0.01379
 O1370 O 0.48254 0.47371 -0.00299
 Zr1371 Zr 0.50409 0.51002 0.02770
 O1372 O 0.52009 0.49337 0.01217
 Zr1373 Zr 0.48262 0.52548 -0.00690
 O1374 O 0.49822 0.51012 -0.02411
 Zr1375 Zr 0.50771 0.46960 0.00751
 O1376 O 0.49278 0.48527 0.02523
 Zr1377 Zr 0.48684 0.48560 -0.02730
 O1378 O 0.47031 0.50162 -0.01137
 Zr1379 Zr 0.52285 0.50445 -0.01276
 O1380 O 0.50812 0.52206 0.00336
 O1381 O 0.47908 0.51489 0.01782
 O1382 O 0.51178 0.48025 -0.01725
 C1383 C 0.44365 0.52256 0.00587
 C1384 C 0.47315 0.50180 0.05285
 C1385 C 0.49224 0.54923 0.02458
 C1386 C 0.54594 0.47064 -0.00621
 C1387 C 0.50004 0.44676 -0.02534
 C1388 C 0.51897 0.49237 -0.05156
 H1389 H 0.47635 0.46257 -0.00423
 H1390 H 0.49935 0.51634 -0.03536
 H1391 H 0.47182 0.52251 0.02561
 H1392 H 0.53152 0.49141 0.01805
 H1393 H 0.51514 0.46341 0.03993
 H1394 H 0.52302 0.49054 0.04801
 H1395 H 0.47791 0.50644 -0.05271
 H1396 H 0.46161 0.52583 -0.03339
 H1397 H 0.50235 0.43829 0.01939
 H1398 H 0.45090 0.46844 0.03305
 H1399 H 0.52412 0.53169 -0.03266
 H1400 H 0.50430 0.54896 -0.01643
 H1401 H 0.44389 0.48257 -0.00834
 H1402 H 0.46010 0.46523 -0.02847
 H1403 H 0.53096 0.53001 0.02625
 H1404 H 0.54974 0.51120 0.00687
 O1405 O -0.01051 0.00947 0.55024
 O1406 O 0.01816 -0.00062 0.55159
 O1407 O -0.01070 0.04731 0.50895
 O1408 O -0.00416 0.04825 0.48055
 O1409 O -0.05061 0.00803 0.51059
 O1410 O -0.05111 -0.02180 0.50287
 O1411 O 0.03482 -0.00150 0.46347
 O1412 O 0.03701 0.02574 0.47562
 O1413 O 0.03741 -0.03771 0.50428
 O1414 O 0.02237 -0.04129 0.53203
 O1415 O -0.00256 -0.04125 0.46712
 O1416 O -0.02975 -0.02655 0.46149
 O1417 O 0.01059 -0.01414 0.45211
 O1418 O -0.02153 -0.00399 0.45142
 O1419 O 0.01004 -0.05219 0.49180
 O1420 O 0.00003 -0.05145 0.52324
 O1421 O 0.04872 -0.01427 0.49050
 O1422 O 0.04849 0.01573 0.50318
 O1423 O -0.03446 -0.00437 0.53969
 O1424 O -0.03831 -0.03209 0.52471
 O1425 O -0.03956 0.03163 0.49685
 O1426 O -0.02364 0.03307 0.46835
 O1427 O 0.00213 0.03685 0.53377
 O1428 O 0.03085 0.02098 0.53598
 Zr1429 Zr 0.00657 0.01000 0.52866
 O1430 O 0.02329 -0.00695 0.51418
 Zr1431 Zr -0.01283 0.02525 0.49271
 O1432 O 0.00375 0.00963 0.47670
 Zr1433 Zr -0.02883 -0.00921 0.51292
 O1434 O -0.01359 -0.02645 0.49717
 Zr1435 Zr 0.02760 0.00393 0.48944
 O1436 O 0.01206 0.02178 0.50443
 Zr1437 Zr 0.01099 -0.03066 0.50902
 O1438 O -0.00488 -0.01464 0.52560
 Zr1439 Zr -0.00769 -0.01478 0.47301
 O1440 O -0.02522 0.00146 0.48779
 O1441 O -0.01783 0.01497 0.51728
 O1442 O 0.01657 -0.02028 0.48450
 C1443 C -0.02578 0.00289 0.55213
 C1444 C -0.00446 0.04934 0.52445
 C1445 C -0.05228 0.02327 0.50373
 C1446 C 0.02633 -0.00845 0.45079
 C1447 C 0.05010 -0.02970 0.49699
 C1448 C 0.00427 -0.05384 0.47608
 H1449 H 0.03447 -0.00869 0.52060
 H1450 H -0.01996 -0.03744 0.49559
 H1451 H -0.02540 0.02280 0.52456
 H1452 H 0.00576 0.01572 0.46550
 H1453 H 0.03418 0.03617 0.48291
 H1454 H 0.00697 0.04513 0.47452
 H1455 H -0.01030 -0.05554 0.51668
 H1456 H -0.02940 -0.03589 0.53341
 H1457 H 0.05923 0.01460 0.49585
 H1458 H 0.02905 0.02808 0.54678
 H1459 H -0.03524 -0.03381 0.47058
 H1460 H -0.05240 -0.01791 0.49057
 H1461 H 0.01413 -0.01277 0.55253
 H1462 H 0.03123 -0.03304 0.53627
 H1463 H -0.03339 0.02512 0.46576
 H1464 H -0.01461 0.00572 0.44675
 O1465 O 0.73525 0.20333 0.25716
 O1466 O 0.76418 0.20120 0.24882
 O1467 O 0.73435 0.24514 0.29545
 O1468 O 0.74008 0.27340 0.29653
 O1469 O 0.69534 0.24380 0.25374
 O1470 O 0.69592 0.25154 0.22374
 O1471 O 0.78094 0.28857 0.24885
 O1472 O 0.78208 0.27663 0.27642
 O1473 O 0.78475 0.24783 0.21264
 O1474 O 0.76999 0.21997 0.20864
 O1475 O 0.74489 0.28522 0.20665
 O1476 O 0.71715 0.29172 0.22020
 O1477 O 0.75735 0.30023 0.23443
 O1478 O 0.72511 0.30222 0.24288
 O1479 O 0.75786 0.26012 0.19663
 O1480 O 0.74821 0.22919 0.19686
 O1481 O 0.79518 0.26148 0.23682
 O1482 O 0.79402 0.24888 0.26688
 O1483 O 0.71176 0.21457 0.24224
 O1484 O 0.70879 0.22914 0.21424
 O1485 O 0.70546 0.25759 0.27799
 O1486 O 0.72135 0.28563 0.28018
 O1487 O 0.74694 0.21981 0.28543
 O1488 O 0.77611 0.21659 0.27119
 Zr1489 Zr 0.75227 0.22446 0.25880
 O1490 O 0.76967 0.23827 0.24283
 Zr1491 Zr 0.73242 0.26099 0.27306
 O1492 O 0.74951 0.27633 0.25822
 Zr1493 Zr 0.71763 0.24093 0.23763
 O1494 O 0.73352 0.25589 0.22112
 Zr1495 Zr 0.77352 0.26295 0.25394
 O1496 O 0.75735 0.24859 0.27093
 Zr1497 Zr 0.75821 0.24339 0.21837
 O1498 O 0.74168 0.22755 0.23348
 Zr1499 Zr 0.73899 0.27998 0.23305
 O1500 O 0.72090 0.26597 0.24848
 O1501 O 0.72776 0.23651 0.26251
 O1502 O 0.76338 0.26782 0.22901
 C1503 C 0.72016 0.20191 0.24979
 C1504 C 0.74047 0.22952 0.29773
 C1505 C 0.69308 0.25087 0.26890
 C1506 C 0.77283 0.30124 0.24110
 C1507 C 0.79707 0.25508 0.22132
 C1508 C 0.75208 0.27584 0.19448
 H1509 H 0.78092 0.23163 0.24172
 H1510 H 0.72753 0.25744 0.20973
 H1511 H 0.71997 0.22953 0.26999
 H1512 H 0.75134 0.28751 0.26440
 H1513 H 0.77896 0.26946 0.28669
 H1514 H 0.75151 0.27874 0.29413
 H1515 H 0.73775 0.23565 0.19241
 H1516 H 0.71784 0.22026 0.21085
 H1517 H 0.80476 0.25595 0.26635
 H1518 H 0.77404 0.20595 0.27822
 H1519 H 0.71217 0.28282 0.21234
 H1520 H 0.69437 0.26378 0.22781
 H1521 H 0.76086 0.20042 0.23631
 H1522 H 0.77915 0.21615 0.21706
 H1523 H 0.71200 0.28839 0.27155
 H1524 H 0.73158 0.30661 0.25317
 O1525 O 0.75167 0.72025 0.70964
 O1526 O 0.77935 0.71535 0.72127
 O1527 O 0.71743 0.71579 0.75448
 O1528 O 0.71315 0.72894 0.78023
 O1529 O 0.71110 0.75904 0.71835
 O1530 O 0.72606 0.78583 0.71497
 O1531 O 0.76662 0.75939 0.79873
 O1532 O 0.75538 0.73174 0.79921
 O1533 O 0.80192 0.76115 0.75673
 O1534 O 0.80070 0.75383 0.72564
 O1535 O 0.76350 0.80091 0.76232
 O1536 O 0.73304 0.80416 0.75649
 O1537 O 0.75247 0.78439 0.79002
 O1538 O 0.72277 0.79042 0.77610
 O1539 O 0.78655 0.78955 0.74680
 O1540 O 0.78796 0.77529 0.71717
 O1541 O 0.79222 0.74768 0.78124
 O1542 O 0.77799 0.71882 0.78101
 O1543 O 0.73904 0.74590 0.70058
 O1544 O 0.74764 0.77587 0.70114
 O1545 O 0.70146 0.74508 0.74262
 O1546 O 0.70401 0.75446 0.77382
 O1547 O 0.73998 0.70441 0.73821
 O1548 O 0.77122 0.70321 0.74715
 Zr1549 Zr 0.75769 0.72508 0.73611
 O1550 O 0.77593 0.73888 0.75123
 Zr1551 Zr 0.72388 0.74200 0.75849
 O1552 O 0.74075 0.75600 0.77491
 Zr1553 Zr 0.73813 0.76204 0.72298
 O1554 O 0.75530 0.77734 0.73785
 Zr1555 Zr 0.76550 0.74344 0.77633
 O1556 O 0.74782 0.72808 0.76182
 Zr1557 Zr 0.77944 0.76386 0.74083
 O1558 O 0.76284 0.74931 0.72439
 Zr1559 Zr 0.74568 0.78033 0.76355
 O1560 O 0.72722 0.76703 0.74790
 O1561 O 0.73333 0.73757 0.73331
 O1562 O 0.77027 0.76816 0.76626
 C1563 C 0.74488 0.73023 0.69778
 C1564 C 0.72522 0.70312 0.74627
 C1565 C 0.69893 0.75216 0.72757
 C1566 C 0.76043 0.77491 0.80156
 C1567 C 0.80437 0.75452 0.77202
 C1568 C 0.77869 0.80209 0.75511
 H1569 H 0.78710 0.73206 0.75183
 H1570 H 0.75667 0.78872 0.73201
 H1571 H 0.72527 0.73067 0.72600
 H1572 H 0.73535 0.75716 0.78666
 H1573 H 0.74930 0.72111 0.79534
 H1574 H 0.72142 0.73044 0.79006
 H1575 H 0.78077 0.78604 0.71522
 H1576 H 0.75936 0.77072 0.69834
 H1577 H 0.78439 0.71956 0.79229
 H1578 H 0.76891 0.69272 0.73989
 H1579 H 0.73582 0.80631 0.74403
 H1580 H 0.71868 0.78997 0.72491
 H1581 H 0.78371 0.72524 0.71432
 H1582 H 0.80384 0.74208 0.73014
 H1583 H 0.70069 0.76548 0.76780
 H1584 H 0.72043 0.78300 0.78639
 O1585 O 0.24081 0.29921 0.73922
 O1586 O 0.26962 0.30025 0.74828
 O1587 O 0.24136 0.25881 0.69976
 O1588 O 0.24843 0.23058 0.69768
 O1589 O 0.20164 0.25938 0.74054
 O1590 O 0.20186 0.25094 0.77045
 O1591 O 0.28794 0.21224 0.74534
 O1592 O 0.28961 0.22530 0.71839
 O1593 O 0.29053 0.25213 0.78307
 O1594 O 0.27483 0.27999 0.78791
 O1595 O 0.25111 0.21533 0.78701
 O1596 O 0.22358 0.21027 0.77280
 O1597 O 0.26428 0.20103 0.75919
 O1598 O 0.23237 0.20014 0.75011
 O1599 O 0.26345 0.23958 0.79834
 O1600 O 0.25311 0.27082 0.79903
 O1601 O 0.30152 0.23859 0.75875
 O1602 O 0.30089 0.25227 0.72924
 O1603 O 0.21716 0.28806 0.75319
 O1604 O 0.21396 0.27290 0.78066
 O1605 O 0.21286 0.24636 0.71604
 O1606 O 0.22924 0.21812 0.71313
 O1607 O 0.25352 0.28341 0.71062
 O1608 O 0.28234 0.28532 0.72556
 Zr1609 Zr 0.25839 0.27769 0.73723
 O1610 O 0.27569 0.26280 0.75306
 Zr1611 Zr 0.23968 0.24216 0.72142
 O1612 O 0.25665 0.22583 0.73604
 Zr1613 Zr 0.22357 0.26144 0.75717
 O1614 O 0.23942 0.24553 0.77351
 Zr1615 Zr 0.28030 0.23837 0.74121
 O1616 O 0.26429 0.25382 0.72442
 Zr1617 Zr 0.26386 0.25716 0.77718
 O1618 O 0.24731 0.27397 0.76225
 Zr1619 Zr 0.24557 0.22173 0.76084
 O1620 O 0.22761 0.23670 0.74553
 O1621 O 0.23422 0.26639 0.73269
 O1622 O 0.26970 0.23296 0.76578
 C1623 C 0.22545 0.30075 0.74621
 C1624 C 0.24716 0.27433 0.69801
 C1625 C 0.20003 0.25291 0.72505
 C1626 C 0.27982 0.19962 0.75258
 C1627 C 0.30313 0.24473 0.77434
 C1628 C 0.25792 0.22392 0.79969
 H1629 H 0.28678 0.26910 0.75458
 H1630 H 0.23322 0.24375 0.78473
 H1631 H 0.22641 0.27380 0.72531
 H1632 H 0.25878 0.21479 0.72953
 H1633 H 0.28659 0.23295 0.70835
 H1634 H 0.25954 0.22420 0.70032
 H1635 H 0.24265 0.26451 0.80301
 H1636 H 0.22290 0.28123 0.78460
 H1637 H 0.31173 0.24483 0.72968
 H1638 H 0.28020 0.29627 0.71890
 H1639 H 0.21856 0.21887 0.78124
 H1640 H 0.20065 0.23887 0.76598
 H1641 H 0.26573 0.30084 0.76066
 H1642 H 0.28387 0.28406 0.77964
 H1643 H 0.21987 0.21519 0.72156
 H1644 H 0.23908 0.19596 0.73974
 O1645 O 0.26567 0.69735 0.24069
 O1646 O 0.23696 0.69797 0.25026
 O1647 O 0.26752 0.73862 0.20281
 O1648 O 0.26219 0.76724 0.20188
 O1649 O 0.30757 0.73427 0.24288
 O1650 O 0.30860 0.74161 0.27286
 O1651 O 0.22439 0.78661 0.25188
 O1652 O 0.22147 0.77509 0.22423
 O1653 O 0.22034 0.74592 0.28758
 O1654 O 0.23415 0.71719 0.29107
 O1655 O 0.26178 0.78018 0.29178
 O1656 O 0.28960 0.78370 0.27718
 O1657 O 0.24934 0.79604 0.26484
 O1658 O 0.28107 0.79504 0.25506
 O1659 O 0.24826 0.75637 0.30249
 O1660 O 0.25684 0.72450 0.30178
 O1661 O 0.20928 0.76035 0.26395
 O1662 O 0.20888 0.74822 0.23365
 O1663 O 0.29023 0.70626 0.25481
 O1664 O 0.29505 0.72057 0.28273
 O1665 O 0.29716 0.74908 0.21920
 O1666 O 0.28214 0.77820 0.21747
 O1667 O 0.25391 0.71467 0.21315
 O1668 O 0.22506 0.71448 0.22835
 Zr1669 Zr 0.24965 0.72000 0.23994
 O1670 O 0.23369 0.73537 0.25680
 Zr1671 Zr 0.27051 0.75455 0.22507
 O1672 O 0.25479 0.77144 0.24067
 Zr1673 Zr 0.28585 0.73316 0.25979
 O1674 O 0.27148 0.74965 0.27702
 Zr1675 Zr 0.23039 0.76036 0.24603
 O1676 O 0.24513 0.74455 0.22821
 Zr1677 Zr 0.24642 0.73946 0.28079
 O1678 O 0.26142 0.72207 0.26484
 Zr1679 Zr 0.26662 0.77411 0.26533
 O1680 O 0.28330 0.75843 0.24914
 O1681 O 0.27452 0.72973 0.23533
 O1682 O 0.24190 0.76428 0.27047
 C1683 C 0.28091 0.69446 0.24747
 C1684 C 0.26071 0.72356 0.20071
 C1685 C 0.30959 0.74136 0.22780
 C1686 C 0.23358 0.79851 0.25915
 C1687 C 0.20782 0.75392 0.27942
 C1688 C 0.25461 0.77167 0.30425
 H1689 H 0.22226 0.72970 0.25834
 H1690 H 0.27798 0.75072 0.28816
 H1691 H 0.28176 0.72207 0.22756
 H1692 H 0.25321 0.78278 0.23465
 H1693 H 0.22386 0.76781 0.21369
 H1694 H 0.25135 0.77394 0.20489
 H1695 H 0.26752 0.73028 0.30604
 H1696 H 0.28573 0.71259 0.28646
 H1697 H 0.19847 0.75619 0.23469
 H1698 H 0.22633 0.70365 0.22122
 H1699 H 0.29400 0.77471 0.28546
 H1700 H 0.31028 0.75386 0.26924
 H1701 H 0.24102 0.69665 0.26252
 H1702 H 0.22483 0.71381 0.28278
 H1703 H 0.29189 0.78029 0.22572
 H1704 H 0.27442 0.79998 0.24505
 O1705 O 0.24592 0.69887 0.76156
 O1706 O 0.27504 0.69892 0.75370
 O1707 O 0.24183 0.73774 0.80253
 O1708 O 0.24647 0.76604 0.80585
 O1709 O 0.20380 0.73774 0.76003
 O1710 O 0.20454 0.74697 0.73057
 O1711 O 0.28698 0.78688 0.75960
 O1712 O 0.28815 0.77354 0.78658
 O1713 O 0.29350 0.74886 0.72126
 O1714 O 0.28032 0.72080 0.71485
 O1715 O 0.25132 0.78452 0.71708
 O1716 O 0.22309 0.78844 0.73094
 O1717 O 0.26301 0.79812 0.74550
 O1718 O 0.23081 0.79817 0.75402
 O1719 O 0.26594 0.76101 0.70549
 O1720 O 0.25821 0.72952 0.70344
 O1721 O 0.30284 0.76108 0.74666
 O1722 O 0.30166 0.74685 0.77583
 O1723 O 0.22194 0.70982 0.74721
 O1724 O 0.21876 0.72591 0.72008
 O1725 O 0.21286 0.75023 0.78541
 O1726 O 0.22728 0.77867 0.79001
 O1727 O 0.25606 0.71390 0.79107
 O1728 O 0.28565 0.71339 0.77737
 Zr1729 Zr 0.26165 0.72076 0.76500
 O1730 O 0.27842 0.73658 0.75034
 Zr1731 Zr 0.23967 0.75514 0.78136
 O1732 O 0.25605 0.77241 0.76796
 Zr1733 Zr 0.22651 0.73674 0.74433
 O1734 O 0.24172 0.75368 0.72921
 Zr1735 Zr 0.28077 0.76064 0.76321
 O1736 O 0.26524 0.74426 0.77887
 Zr1737 Zr 0.26710 0.74278 0.72604
 O1738 O 0.25131 0.72501 0.73974
 Zr1739 Zr 0.24566 0.77715 0.74292
 O1740 O 0.22824 0.76114 0.75698
 O1741 O 0.23649 0.73121 0.76904
 O1742 O 0.27073 0.76666 0.73847
 C1743 C 0.23099 0.69713 0.75398
 C1744 C 0.24869 0.72230 0.80383
 C1745 C 0.20095 0.74376 0.77555
 C1746 C 0.27839 0.79951 0.75229
 C1747 C 0.30536 0.75582 0.73083
 C1748 C 0.25912 0.77647 0.70436
 H1749 H 0.29000 0.73060 0.74903
 H1750 H 0.23578 0.75568 0.71787
 H1751 H 0.22892 0.72336 0.77584
 H1752 H 0.25722 0.78327 0.77487
 H1753 H 0.28530 0.76562 0.79636
 H1754 H 0.25731 0.77262 0.80394
 H1755 H 0.24741 0.73564 0.69931
 H1756 H 0.22834 0.71774 0.71636
 H1757 H 0.31199 0.75450 0.77608
 H1758 H 0.28407 0.70218 0.78360
 H1759 H 0.21911 0.78016 0.72187
 H1760 H 0.20230 0.75891 0.73523
 H1761 H 0.27187 0.69874 0.74113
 H1762 H 0.28928 0.71664 0.72332
 H1763 H 0.21812 0.78173 0.78128
 H1764 H 0.23706 0.80225 0.76458
 O1765 O 0.24834 0.21567 0.21164
 O1766 O 0.27585 0.21162 0.22354
 O1767 O 0.21365 0.20941 0.25592
 O1768 O 0.20839 0.22215 0.28164
 O1769 O 0.20608 0.25322 0.22028
 O1770 O 0.22024 0.28014 0.21683
 O1771 O 0.26073 0.25471 0.30109
 O1772 O 0.25048 0.22665 0.30138
 O1773 O 0.29608 0.25840 0.25968
 O1774 O 0.29575 0.25142 0.22867
 O1775 O 0.25594 0.29626 0.26532
 O1776 O 0.22525 0.29817 0.25892
 O1777 O 0.24552 0.27914 0.29252
 O1778 O 0.21571 0.28397 0.27854
 O1779 O 0.27953 0.28632 0.24967
 O1780 O 0.28189 0.27210 0.21992
 O1781 O 0.28681 0.24402 0.28383
 O1782 O 0.27365 0.21462 0.28320
 O1783 O 0.23421 0.24059 0.20269
 O1784 O 0.24247 0.27088 0.20347
 O1785 O 0.19660 0.23842 0.24410
 O1786 O 0.19853 0.24737 0.27555
 O1787 O 0.23690 0.19902 0.23999
 O1788 O 0.26812 0.19917 0.24932
 Zr1789 Zr 0.25373 0.22048 0.23823
 O1790 O 0.27119 0.23499 0.25361
 Zr1791 Zr 0.21896 0.23585 0.26024
 O1792 O 0.23506 0.25032 0.27705
 Zr1793 Zr 0.23292 0.25675 0.22510
 O1794 O 0.24910 0.27270 0.24038
 Zr1795 Zr 0.26031 0.23883 0.27863
 O1796 O 0.24341 0.22289 0.26381
 Zr1797 Zr 0.27375 0.26025 0.24351
 O1798 O 0.25807 0.24502 0.22675
 Zr1799 Zr 0.23905 0.27496 0.26599
 O1800 O 0.22145 0.26108 0.24989
 O1801 O 0.22892 0.23200 0.23517
 O1802 O 0.26410 0.26386 0.26885
 C1803 C 0.24092 0.22525 0.19984
 C1804 C 0.22210 0.19708 0.24782
 C1805 C 0.19402 0.24588 0.22922
 C1806 C 0.25394 0.26998 0.30399
 C1807 C 0.29870 0.25159 0.27485
 C1808 C 0.27104 0.29833 0.25818
 H1809 H 0.28263 0.22864 0.25428
 H1810 H 0.25003 0.28420 0.23467
 H1811 H 0.22117 0.22487 0.22774
 H1812 H 0.22952 0.25113 0.28876
 H1813 H 0.24487 0.21579 0.29741
 H1814 H 0.21668 0.22348 0.29147
 H1815 H 0.27430 0.28257 0.21798
 H1816 H 0.25415 0.26572 0.20054
 H1817 H 0.27993 0.21550 0.29454
 H1818 H 0.26623 0.18857 0.24210
 H1819 H 0.22872 0.30106 0.24680
 H1820 H 0.21300 0.28435 0.22685
 H1821 H 0.28010 0.22181 0.21696
 H1822 H 0.29912 0.23961 0.23286
 H1823 H 0.19483 0.25832 0.26963
 H1824 H 0.21363 0.27635 0.28874
 O1825 O 0.74876 0.80186 0.23956
 O1826 O 0.77804 0.80220 0.24691
 O1827 O 0.74552 0.76001 0.20197
 O1828 O 0.75139 0.73147 0.20078
 O1829 O 0.70822 0.76381 0.24494
 O1830 O 0.70974 0.75663 0.27501
 O1831 O 0.79295 0.71361 0.24676
 O1832 O 0.79379 0.72561 0.21943
 O1833 O 0.79898 0.75499 0.28274
 O1834 O 0.78466 0.78340 0.28725
 O1835 O 0.75884 0.71972 0.29043
 O1836 O 0.73039 0.71508 0.27820
 O1837 O 0.76970 0.70378 0.26232
 O1838 O 0.73718 0.70396 0.25531
 O1839 O 0.77234 0.74408 0.30000
 O1840 O 0.76311 0.77568 0.29974
 O1841 O 0.80823 0.73994 0.25860
 O1842 O 0.80650 0.75248 0.22853
 O1843 O 0.72556 0.79234 0.25543
 O1844 O 0.72332 0.77830 0.28370
 O1845 O 0.71744 0.74916 0.22055
 O1846 O 0.73283 0.72037 0.21778
 O1847 O 0.75923 0.78447 0.21106
 O1848 O 0.78892 0.78583 0.22426
 Zr1849 Zr 0.76537 0.77966 0.23758
 O1850 O 0.78297 0.76485 0.25313
 Zr1851 Zr 0.74447 0.74433 0.22445
 O1852 O 0.76171 0.72802 0.23881
 Zr1853 Zr 0.73114 0.76565 0.26016
 O1854 O 0.74727 0.74979 0.27627
 Zr1855 Zr 0.78608 0.73983 0.24215
 O1856 O 0.76967 0.75511 0.22556
 Zr1857 Zr 0.77225 0.76067 0.27806
 O1858 O 0.75556 0.77746 0.26331
 Zr1859 Zr 0.75193 0.72529 0.26436
 O1860 O 0.73364 0.74032 0.24945
 O1861 O 0.74054 0.76917 0.23490
 O1862 O 0.77667 0.73583 0.26748
 C1863 C 0.73395 0.80436 0.24742
 C1864 C 0.75186 0.77516 0.19922
 C1865 C 0.70542 0.75659 0.23000
 C1866 C 0.78475 0.70154 0.25480
 C1867 C 0.81085 0.74675 0.27377
 C1868 C 0.76651 0.72866 0.30234
 H1869 H 0.79435 0.77079 0.25377
 H1870 H 0.74164 0.74869 0.28788
 H1871 H 0.73258 0.77655 0.22765
 H1872 H 0.76307 0.71669 0.23264
 H1873 H 0.79044 0.73293 0.20925
 H1874 H 0.76264 0.72516 0.20296
 H1875 H 0.75277 0.76984 0.30469
 H1876 H 0.73266 0.78659 0.28665
 H1877 H 0.81712 0.74474 0.22881
 H1878 H 0.78682 0.79654 0.21722
 H1879 H 0.72598 0.72429 0.28632
 H1880 H 0.70800 0.74438 0.27134
 H1881 H 0.77489 0.80347 0.25945
 H1882 H 0.79322 0.78692 0.27825
 H1883 H 0.72382 0.71811 0.22681
 H1884 H 0.74314 0.69908 0.24478
 O1885 O 0.75588 0.24288 0.69389
 O1886 O 0.74635 0.27171 0.69446
 O1887 O 0.79532 0.23982 0.73401
 O1888 O 0.79722 0.24476 0.76270
 O1889 O 0.75459 0.20100 0.73166
 O1890 O 0.72472 0.20104 0.73993
 O1891 O 0.74898 0.28333 0.78340
 O1892 O 0.77592 0.28560 0.77041
 O1893 O 0.71113 0.28922 0.74391
 O1894 O 0.70658 0.27611 0.71513
 O1895 O 0.70742 0.24773 0.77849
 O1896 O 0.72212 0.21958 0.78186
 O1897 O 0.73532 0.25927 0.79350
 O1898 O 0.74450 0.22746 0.79270
 O1899 O 0.69608 0.26132 0.75451
 O1900 O 0.69586 0.25383 0.72269
 O1901 O 0.73542 0.29897 0.75775
 O1902 O 0.76508 0.29886 0.74401
 O1903 O 0.74207 0.21874 0.70364
 O1904 O 0.71442 0.21491 0.71876
 O1905 O 0.77899 0.21065 0.74538
 O1906 O 0.78199 0.22505 0.77424
 O1907 O 0.78412 0.25382 0.71017
 O1908 O 0.76907 0.28283 0.70999
 Zr1909 Zr 0.75752 0.25868 0.71635
 O1910 O 0.74146 0.27499 0.73219
 Zr1911 Zr 0.77353 0.23722 0.75076
 O1912 O 0.75861 0.25309 0.76807
 Zr1913 Zr 0.73786 0.22321 0.73068
 O1914 O 0.72130 0.23799 0.74754
 Zr1915 Zr 0.75321 0.27759 0.75685
 O1916 O 0.77027 0.26258 0.74049
 Zr1917 Zr 0.71743 0.26314 0.73719
 O1918 O 0.73258 0.24775 0.71942
 Zr1919 Zr 0.73380 0.24223 0.77172
 O1920 O 0.74940 0.22529 0.75566
 O1921 O 0.76233 0.23375 0.72627
 O1922 O 0.72866 0.26706 0.76173
 C1923 C 0.74908 0.22786 0.69144
 C1924 C 0.79691 0.24674 0.71876
 C1925 C 0.76997 0.19856 0.73825
 C1926 C 0.74186 0.27448 0.79568
 C1927 C 0.71973 0.30113 0.75185
 C1928 C 0.69465 0.25490 0.76995
 H1929 H 0.73984 0.28650 0.72650
 H1930 H 0.71012 0.23184 0.74897
 H1931 H 0.76982 0.22638 0.71845
 H1932 H 0.76509 0.25431 0.77921
 H1933 H 0.78605 0.28299 0.76260
 H1934 H 0.79444 0.25537 0.76967
 H1935 H 0.69203 0.24291 0.72826
 H1936 H 0.71062 0.22429 0.71063
 H1937 H 0.76447 0.30911 0.75201
 H1938 H 0.77570 0.28143 0.69884
 H1939 H 0.71335 0.21567 0.77324
 H1940 H 0.72883 0.19912 0.75209
 H1941 H 0.73402 0.26799 0.69362
 H1942 H 0.71485 0.28518 0.71149
 H1943 H 0.77345 0.21587 0.77692
 H1944 H 0.75501 0.23349 0.79700
 C1945 C 0.10205 0.99417 1.16616
 C1946 C 0.09470 0.99469 1.14941
 C1947 C 0.07769 1.00160 1.14678
 C1948 C 0.06810 1.00795 1.16138
 C1949 C 0.07547 1.00739 1.17818
 C1950 C 0.09249 1.00039 1.18077
 C1951 C 0.07030 1.00115 1.12880
 C1952 C 0.05702 1.01158 1.12334
 C1953 C 0.04937 1.01066 1.10547
 C1954 C 0.03223 1.01725 1.10289
 C1955 C 0.02431 1.01640 1.08641
 C1956 C 0.03342 1.00902 1.07202
 C1957 C 0.05075 1.00280 1.07448
 C1958 C 0.05868 1.00366 1.09098
 H1959 H 0.11530 0.98896 1.16764
 H1960 H 0.10236 0.98968 1.13844
 H1961 H 0.05476 1.01288 1.16005
 H1962 H 0.06767 1.01202 1.18921
 H1963 H 0.07622 0.99177 1.11982
 H1964 H 0.05107 1.02094 1.13234
 H1965 H 0.02482 1.02287 1.11375
 H1966 H 0.01099 1.02144 1.08501
 H1967 H 0.05825 0.99726 1.06365
 H1968 H 0.07214 0.99903 1.09219
 C1969 C 0.59895 0.49782 0.66911
 C1970 C 0.59139 0.49775 0.65247
 C1971 C 0.57437 0.50459 0.64981
 C1972 C 0.56493 0.51142 0.66429
 C1973 C 0.57250 0.51146 0.68100
 C1974 C 0.58957 0.50458 0.68361
 C1975 C 0.56686 0.50366 0.63192
 C1976 C 0.55358 0.51396 0.62622
 C1977 C 0.54614 0.51269 0.60831
 C1978 C 0.52888 0.51879 0.60545
 C1979 C 0.52123 0.51758 0.58886
 C1980 C 0.53074 0.51032 0.57468
 C1981 C 0.54820 0.50461 0.57743
 C1982 C 0.55584 0.50584 0.59402
 H1983 H 0.61223 0.49269 0.67060
 H1984 H 0.59894 0.49238 0.64158
 H1985 H 0.55158 0.51633 0.66294
 H1986 H 0.56485 0.51650 0.69196
 H1987 H 0.57276 0.49407 0.62313
 H1988 H 0.54756 0.52348 0.63500
 H1989 H 0.52118 0.52431 0.61616
 H1990 H 0.50779 0.52222 0.58722
 H1991 H 0.55601 0.49920 0.56676
 H1992 H 0.56941 0.50163 0.59544
 C1993 C 0.43352 0.00563 0.67685
 C1994 C 0.44239 0.00623 0.66082
 C1995 C 0.43577 -0.00230 0.64601
 C1996 C 0.42042 -0.01201 0.64770
 C1997 C 0.41160 -0.01270 0.66374
 C1998 C 0.41793 -0.00372 0.67846
 C1999 C 0.44531 -0.00110 0.62914
 C2000 C 0.43718 -0.00187 0.61359
 C2001 C 0.44643 -0.00044 0.59658
 C2002 C 0.43693 0.00540 0.58192
 C2003 C 0.44502 0.00648 0.56552
 C2004 C 0.46279 0.00151 0.56338
 C2005 C 0.47229 -0.00443 0.57807
 C2006 C 0.46422 -0.00541 0.59449
 H2007 H 0.43867 0.01282 0.68788
 H2008 H 0.45428 0.01367 0.65988
 H2009 H 0.41530 -0.01930 0.63672
 H2010 H 0.39990 -0.02041 0.66464
 H2011 H 0.45920 0.00154 0.62967
 H2012 H 0.42301 -0.00271 0.61320
 H2013 H 0.42318 0.00916 0.58315
 H2014 H 0.43725 0.01100 0.55448
 H2015 H 0.48596 -0.00848 0.57688
 H2016 H 0.47184 -0.01047 0.60538
 C2017 C -0.07960 0.47835 1.16843
 C2018 C -0.07107 0.47769 1.15220
 C2019 C -0.06691 0.49312 1.14344
 C2020 C -0.07084 0.50929 1.15156
 C2021 C -0.07923 0.50994 1.16788
 C2022 C -0.08388 0.49448 1.17637
 C2023 C -0.05831 0.49186 1.12604
 C2024 C -0.06049 0.50406 1.11363
 C2025 C -0.05260 0.50254 1.09591
 C2026 C -0.06076 0.51142 1.08197
 C2027 C -0.05364 0.51054 1.06509
 C2028 C -0.03801 0.50092 1.06181
 C2029 C -0.02974 0.49215 1.07581
 C2030 C -0.03693 0.49295 1.09268
 H2031 H -0.08280 0.46622 1.17481
 H2032 H -0.06799 0.46508 1.14633
 H2033 H -0.06735 0.52144 1.14542
 H2034 H -0.08239 0.52255 1.17370
 H2035 H -0.05102 0.47991 1.12303
 H2036 H -0.06925 0.51514 1.11610
 H2037 H -0.07276 0.51900 1.08414
 H2038 H -0.06031 0.51756 1.05466
 H2039 H -0.01762 0.48473 1.07379
 H2040 H -0.02997 0.48636 1.10318
 C2041 C -0.07707 0.51647 0.32027
 C2042 C -0.06851 0.51768 0.33641
 C2043 C -0.06377 0.50263 0.34578
 C2044 C -0.06703 0.48624 0.33831
 C2045 C -0.07550 0.48496 0.32215
 C2046 C -0.08104 0.50005 0.31285
 C2047 C -0.05539 0.50444 0.36319
 C2048 C -0.05742 0.49272 0.37599
 C2049 C -0.04990 0.49457 0.39379
 C2050 C -0.05790 0.48586 0.40770
 C2051 C -0.05106 0.48684 0.42464
 C2052 C -0.03589 0.49641 0.42804
 C2053 C -0.02782 0.50511 0.41407
 C2054 C -0.03474 0.50420 0.39712
 H2055 H -0.08129 0.52860 0.31426
 H2056 H -0.06605 0.53048 0.34186
 H2057 H -0.06282 0.47433 0.34481
 H2058 H -0.07714 0.47199 0.31685
 H2059 H -0.04849 0.51636 0.36583
 H2060 H -0.06583 0.48172 0.37376
 H2061 H -0.06951 0.47826 0.40547
 H2062 H -0.05759 0.47989 0.43502
 H2063 H -0.01606 0.51250 0.41619
 H2064 H -0.02793 0.51070 0.38664
 C2065 C 0.42233 1.01581 -0.17681
 C2066 C 0.43086 1.01682 -0.16064
 C2067 C 0.43671 1.00161 -0.15208
 C2068 C 0.43455 0.98535 -0.16035
 C2069 C 0.42613 0.98434 -0.17657
 C2070 C 0.41970 0.99953 -0.18488
 C2071 C 0.44509 1.00312 -0.13467
 C2072 C 0.44391 0.99071 -0.12241
 C2073 C 0.45151 0.99233 -0.10465
 C2074 C 0.44395 0.98304 -0.09086
 C2075 C 0.45084 0.98399 -0.07394
 C2076 C 0.46565 0.99407 -0.07047
 C2077 C 0.47333 1.00326 -0.08434
 C2078 C 0.46635 1.00240 -0.10125
 H2079 H 0.41739 1.02776 -0.18274
 H2080 H 0.43250 1.02950 -0.15459
 H2081 H 0.43948 0.97340 -0.15441
 H2082 H 0.42473 0.97164 -0.18264
 H2083 H 0.45127 1.01533 -0.13151
 H2084 H 0.43616 0.97932 -0.12505
 H2085 H 0.43260 0.97508 -0.09318
 H2086 H 0.44466 0.97665 -0.06362
 H2087 H 0.48480 1.01107 -0.08215
 H2088 H 0.47283 1.00934 -0.11165
 C2089 C 0.58997 0.51703 -0.16340
 C2090 C 0.58125 0.51644 -0.14733
 C2091 C 0.56677 0.50566 -0.14502
 C2092 C 0.56079 0.49591 -0.15943
 C2093 C 0.56951 0.49656 -0.17558
 C2094 C 0.58435 0.50694 -0.17765
 C2095 C 0.55854 0.50516 -0.12738
 C2096 C 0.54794 0.49256 -0.12181
 C2097 C 0.54093 0.49217 -0.10367
 C2098 C 0.52468 0.48451 -0.10049
 C2099 C 0.51759 0.48432 -0.08355
 C2100 C 0.52677 0.49159 -0.06939
 C2101 C 0.54334 0.49868 -0.07253
 C2102 C 0.55037 0.49893 -0.08943
 H2103 H 0.60117 0.52539 -0.16468
 H2104 H 0.58603 0.52425 -0.13654
 H2105 H 0.54941 0.48780 -0.15842
 H2106 H 0.56489 0.48863 -0.18634
 H2107 H 0.56188 0.51555 -0.11840
 H2108 H 0.54403 0.48227 -0.13062
 H2109 H 0.51729 0.47898 -0.11120
 H2110 H 0.50485 0.47864 -0.08160
 H2111 H 0.55090 0.50421 -0.06194
 H2112 H 0.56327 0.50427 -0.09123
 C2113 C 0.06687 -0.01275 0.31971
 C2114 C 0.05744 -0.01411 0.33539
 C2115 C 0.06362 -0.00646 0.35088
 C2116 C 0.07905 0.00328 0.35020
 C2117 C 0.08843 0.00469 0.33455
 C2118 C 0.08262 -0.00352 0.31916
 C2119 C 0.05356 -0.00845 0.36741
 C2120 C 0.06131 -0.00843 0.38321
 C2121 C 0.05190 -0.00940 0.40026
 C2122 C 0.06113 -0.00498 0.41549
 C2123 C 0.05292 -0.00499 0.43186
 C2124 C 0.03522 -0.00956 0.43347
 C2125 C 0.02607 -0.01453 0.41831
 C2126 C 0.03430 -0.01446 0.40187
 H2127 H 0.06208 -0.01930 0.30812
 H2128 H 0.04547 -0.02149 0.33552
 H2129 H 0.08382 0.01004 0.36166
 H2130 H 0.10023 0.01231 0.33447
 H2131 H 0.03956 -0.01016 0.36628
 H2132 H 0.07543 -0.00721 0.38387
 H2133 H 0.07472 -0.00117 0.41471
 H2134 H 0.06046 -0.00122 0.44323
 H2135 H 0.01245 -0.01822 0.41910
 H2136 H 0.02677 -0.01841 0.39060
 C2137 C 0.16273 1.09601 0.98518
 C2138 C 0.14623 1.08847 0.98561
 C2139 C 0.14325 1.07376 0.99600
 C2140 C 0.15739 1.06628 1.00545
 C2141 C 0.17396 1.07380 1.00495
 C2142 C 0.17673 1.08890 0.99501
 C2143 C 0.12531 1.06663 0.99635
 C2144 C 0.11915 1.05674 1.00937
 C2145 C 0.10102 1.05010 1.00960
 C2146 C 0.09771 1.03458 1.01860
 C2147 C 0.08089 1.02766 1.01874
 C2148 C 0.06692 1.03626 1.01004
 C2149 C 0.07010 1.05215 1.00157
 C2150 C 0.08694 1.05901 1.00137
 H2151 H 0.16455 1.10746 0.97716
 H2152 H 0.13565 1.09435 0.97802
 H2153 H 0.15583 1.05460 1.01315
 H2154 H 0.18450 1.06805 1.01266
 H2155 H 0.11675 1.07012 0.98555
 H2156 H 0.12762 1.05302 1.02015
 H2157 H 0.10827 1.02760 1.02526
 H2158 H 0.07890 1.01547 1.02552
 H2159 H 0.05963 1.05921 0.99489
 H2160 H 0.08880 1.07137 0.99489
 C2161 C 0.66138 0.59603 0.48931
 C2162 C 0.64491 0.58845 0.48978
 C2163 C 0.64192 0.57388 0.50037
 C2164 C 0.65601 0.56665 0.51008
 C2165 C 0.67255 0.57422 0.50954
 C2166 C 0.67534 0.58912 0.49932
 C2167 C 0.62404 0.56663 0.50059
 C2168 C 0.61781 0.55673 0.51355
 C2169 C 0.59972 0.54999 0.51352
 C2170 C 0.59639 0.53436 0.52230
 C2171 C 0.57961 0.52733 0.52209
 C2172 C 0.56573 0.53593 0.51324
 C2173 C 0.56894 0.55194 0.50502
 C2174 C 0.58572 0.55892 0.50519
 H2175 H 0.66322 0.60732 0.48106
 H2176 H 0.63437 0.59414 0.48199
 H2177 H 0.65444 0.55510 0.51797
 H2178 H 0.68308 0.56862 0.51739
 H2179 H 0.61558 0.57000 0.48967
 H2180 H 0.62616 0.55306 0.52444
 H2181 H 0.60689 0.52737 0.52903
 H2182 H 0.57759 0.51505 0.52869
 H2183 H 0.55853 0.55903 0.49826
 H2184 H 0.58760 0.57137 0.49889
 C2185 C 0.67751 0.43182 -0.01954
 C2186 C 0.66101 0.44008 -0.02122
 C2187 C 0.64564 0.43124 -0.01695
 C2188 C 0.64707 0.41368 -0.01166
 C2189 C 0.66351 0.40548 -0.00988
 C2190 C 0.67891 0.41452 -0.01357
 C2191 C 0.62840 0.44059 -0.01827
 C2192 C 0.61438 0.43612 -0.00873
 C2193 C 0.59695 0.44516 -0.00932
 C2194 C 0.58254 0.43655 -0.00220
 C2195 C 0.56597 0.44468 -0.00153
 C2196 C 0.56338 0.46175 -0.00788
 C2197 C 0.57774 0.47034 -0.01523
 C2198 C 0.59437 0.46218 -0.01592
 H2199 H 0.68918 0.43906 -0.02252
 H2200 H 0.66027 0.45354 -0.02554
 H2201 H 0.63557 0.40609 -0.00906
 H2202 H 0.66419 0.39197 -0.00576
 H2203 H 0.62757 0.45167 -0.02699
 H2204 H 0.61556 0.42523 0.00020
 H2205 H 0.58413 0.42347 0.00302
 H2206 H 0.55524 0.43762 0.00420
 H2207 H 0.57623 0.48353 -0.02017
 H2208 H 0.60514 0.46948 -0.02116
 C2209 C 0.18229 -0.06726 0.49507
 C2210 C 0.16598 -0.05858 0.49380
 C2211 C 0.15077 -0.06622 0.50040
 C2212 C 0.15229 -0.08246 0.50890
 C2213 C 0.16859 -0.09108 0.51022
 C2214 C 0.18374 -0.08367 0.50319
 C2215 C 0.13369 -0.05670 0.49862
 C2216 C 0.11826 -0.06480 0.49807
 C2217 C 0.10098 -0.05554 0.49699
 C2218 C 0.08605 -0.06426 0.50271
 C2219 C 0.06952 -0.05598 0.50247
 C2220 C 0.06751 -0.03877 0.49632
 C2221 C 0.08238 -0.03020 0.49005
 C2222 C 0.09894 -0.03848 0.49035
 H2223 H 0.19378 -0.06109 0.48976
 H2224 H 0.16520 -0.04597 0.48744
 H2225 H 0.14100 -0.08849 0.51473
 H2226 H 0.16927 -0.10374 0.51649
 H2227 H 0.13406 -0.04264 0.49758
 H2228 H 0.11808 -0.07889 0.49894
 H2229 H 0.08720 -0.07746 0.50770
 H2230 H 0.05835 -0.06305 0.50727
 H2231 H 0.08128 -0.01700 0.48506
 H2232 H 0.11000 -0.03151 0.48522
 C2233 C 0.33113 -0.09013 0.48155
 C2234 C 0.34727 -0.08191 0.48072
 C2235 C 0.35238 -0.07038 0.49402
 C2236 C 0.34086 -0.06715 0.50820
 C2237 C 0.32465 -0.07531 0.50896
 C2238 C 0.31971 -0.08701 0.49574
 C2239 C 0.37010 -0.06280 0.49292
 C2240 C 0.37528 -0.04911 0.50249
 C2241 C 0.39320 -0.04202 0.50142
 C2242 C 0.39578 -0.02469 0.50667
 C2243 C 0.41246 -0.01752 0.50595
 C2244 C 0.42700 -0.02758 0.50005
 C2245 C 0.42448 -0.04504 0.49509
 C2246 C 0.40781 -0.05222 0.49585
 H2247 H 0.32758 -0.09899 0.47110
 H2248 H 0.35588 -0.08469 0.46968
 H2249 H 0.34440 -0.05880 0.51902
 H2250 H 0.31621 -0.07292 0.52021
 H2251 H 0.37905 -0.06856 0.48337
 H2252 H 0.36599 -0.04226 0.51092
 H2253 H 0.38480 -0.01662 0.51121
 H2254 H 0.41392 -0.00404 0.50995
 H2255 H 0.43542 -0.05324 0.49070
 H2256 H 0.40655 -0.06583 0.49235
 C2257 C -0.16877 0.40394 1.00783
 C2258 C -0.15235 0.41158 1.00891
 C2259 C -0.14864 0.42648 0.99910
 C2260 C -0.16174 0.43362 0.98808
 C2261 C -0.17818 0.42589 0.98691
 C2262 C -0.18182 0.41087 0.99667
 C2263 C -0.13073 0.43354 1.00000
 C2264 C -0.12708 0.45024 0.99668
 C2265 C -0.10901 0.45694 0.99733
 C2266 C -0.10657 0.47462 1.00127
 C2267 C -0.08971 0.48147 1.00155
 C2268 C -0.07493 0.47080 0.99761
 C2269 C -0.07740 0.45310 0.99356
 C2270 C -0.09424 0.44624 0.99341
 H2271 H -0.17123 0.39258 1.01579
 H2272 H -0.14248 0.40582 1.01747
 H2273 H -0.15919 0.44481 0.97993
 H2274 H -0.18784 0.43139 0.97798
 H2275 H -0.12029 0.42471 1.00426
 H2276 H -0.13769 0.45954 0.99414
 H2277 H -0.11775 0.48316 1.00418
 H2278 H -0.08831 0.49520 1.00458
 H2279 H -0.06633 0.44454 0.99035
 H2280 H -0.09564 0.43268 0.98978
 C2281 C -0.17901 0.57643 0.51579
 C2282 C -0.16247 0.56819 0.51591
 C2283 C -0.15292 0.56582 0.50031
 C2284 C -0.16032 0.57182 0.48449
 C2285 C -0.17686 0.58016 0.48438
 C2286 C -0.18631 0.58274 0.50006
 C2287 C -0.13496 0.55806 0.50127
 C2288 C -0.12694 0.54986 0.48781
 C2289 C -0.10890 0.54234 0.48913
 C2290 C -0.10428 0.52759 0.47905
 C2291 C -0.08740 0.52010 0.48012
 C2292 C -0.07467 0.52744 0.49110
 C2293 C -0.07920 0.54250 0.50086
 C2294 C -0.09613 0.54987 0.49991
 H2295 H -0.18605 0.57798 0.52806
 H2296 H -0.15705 0.56372 0.52827
 H2297 H -0.15315 0.57068 0.47227
 H2298 H -0.18195 0.58516 0.47210
 H2299 H -0.12838 0.55857 0.51384
 H2300 H -0.13405 0.54770 0.47574
 H2301 H -0.11384 0.52169 0.47050
 H2302 H -0.08430 0.50860 0.47230
 H2303 H -0.06969 0.54854 0.50936
 H2304 H -0.09908 0.56158 0.50743
 C2305 C 0.33094 1.09417 0.00675
 C2306 C 0.34763 1.08629 0.00663
 C2307 C 0.35052 1.06989 -0.00125
 C2308 C 0.33620 1.06142 -0.00894
 C2309 C 0.31943 1.06933 -0.00879
 C2310 C 0.31660 1.08576 -0.00086
 C2311 C 0.36851 1.06207 -0.00054
 C2312 C 0.37447 1.04922 -0.01115
 C2313 C 0.39263 1.04182 -0.01012
 C2314 C 0.39593 1.02469 -0.01606
 C2315 C 0.41280 1.01717 -0.01504
 C2316 C 0.42682 1.02669 -0.00818
 C2317 C 0.42359 1.04401 -0.00265
 C2318 C 0.40673 1.05152 -0.00367
 H2319 H 0.32930 1.10698 0.01268
 H2320 H 0.35839 1.09311 0.01265
 H2321 H 0.33771 1.04856 -0.01472
 H2322 H 0.30859 1.06243 -0.01454
 H2323 H 0.37723 1.06741 0.00919
 H2324 H 0.36582 1.04358 -0.02076
 H2325 H 0.38535 1.01702 -0.02127
 H2326 H 0.41482 1.00384 -0.01953
 H2327 H 0.43410 1.05182 0.00248
 H2328 H 0.40493 1.06499 0.00038
 C2329 C 0.01332 1.18442 1.06847
 C2330 C 0.01527 1.16800 1.06049
 C2331 C 0.01130 1.15275 1.06971
 C2332 C 0.00598 1.15423 1.08735
 C2333 C 0.00399 1.17062 1.09528
 C2334 C 0.00742 1.18590 1.08589
 C2335 C 0.01300 1.13563 1.06061
 C2336 C 0.00386 1.12162 1.06536
 C2337 C 0.00479 1.10444 1.05629
 C2338 C -0.00177 1.08989 1.06505
 C2339 C -0.00201 1.07355 1.05689
 C2340 C 0.00423 1.07135 1.03965
 C2341 C 0.01096 1.08588 1.03089
 C2342 C 0.01120 1.10226 1.03907
 H2343 H 0.01605 1.19597 1.06090
 H2344 H 0.01956 1.16723 1.04696
 H2345 H 0.00356 1.14281 1.09519
 H2346 H -0.00008 1.17133 1.10888
 H2347 H 0.02168 1.13489 1.04939
 H2348 H -0.00498 1.12265 1.07645
 H2349 H -0.00686 1.09119 1.07828
 H2350 H -0.00729 1.06268 1.06406
 H2351 H 0.01578 1.08469 1.01757
 H2352 H 0.01597 1.11314 1.03162
 C2353 C 0.52494 0.67850 0.58171
 C2354 C 0.52636 0.66201 0.57379
 C2355 C 0.51127 0.65320 0.56860
 C2356 C 0.49474 0.66150 0.57079
 C2357 C 0.49333 0.67800 0.57857
 C2358 C 0.50837 0.68661 0.58436
 C2359 C 0.51312 0.63555 0.56070
 C2360 C 0.50085 0.62343 0.56268
 C2361 C 0.50220 0.60568 0.55493
 C2362 C 0.49264 0.59229 0.56264
 C2363 C 0.49275 0.57557 0.55527
 C2364 C 0.50227 0.57191 0.53982
 C2365 C 0.51194 0.58531 0.53213
 C2366 C 0.51191 0.60203 0.53959
 H2367 H 0.53678 0.68469 0.58613
 H2368 H 0.53924 0.65594 0.57208
 H2369 H 0.48289 0.65537 0.56631
 H2370 H 0.48042 0.68408 0.57995
 H2371 H 0.52529 0.63225 0.55398
 H2372 H 0.48957 0.62631 0.57095
 H2373 H 0.48495 0.59480 0.57439
 H2374 H 0.48509 0.56560 0.56151
 H2375 H 0.51936 0.58297 0.52020
 H2376 H 0.51907 0.61213 0.53301
 C2377 C -0.00038 0.65975 0.39922
 C2378 C -0.00231 0.64278 0.40545
 C2379 C 0.00094 0.63880 0.42309
 C2380 C 0.00647 0.65219 0.43438
 C2381 C 0.00846 0.66920 0.42813
 C2382 C 0.00507 0.67318 0.41046
 C2383 C -0.00096 0.62049 0.42896
 C2384 C -0.00407 0.61604 0.44566
 C2385 C -0.00588 0.59772 0.45159
 C2386 C -0.01452 0.59466 0.46751
 C2387 C -0.01582 0.57773 0.47407
 C2388 C -0.00836 0.56339 0.46491
 C2389 C 0.00015 0.56641 0.44887
 C2390 C 0.00144 0.58336 0.44231
 H2391 H -0.00338 0.66239 0.38561
 H2392 H -0.00652 0.63272 0.39646
 H2393 H 0.00968 0.64956 0.44793
 H2394 H 0.01297 0.67917 0.43705
 H2395 H -0.00058 0.61047 0.41892
 H2396 H -0.00608 0.62621 0.45539
 H2397 H -0.02019 0.60546 0.47499
 H2398 H -0.02242 0.57595 0.48649
 H2399 H 0.00619 0.55571 0.44154
 H2400 H 0.00866 0.58514 0.43025
 C2401 C 0.50723 1.17258 -0.06488
 C2402 C 0.50631 1.15649 -0.05638
 C2403 C 0.49555 1.14335 -0.06293
 C2404 C 0.48525 1.14682 -0.07785
 C2405 C 0.48609 1.16293 -0.08628
 C2406 C 0.49722 1.17596 -0.08001
 C2407 C 0.49506 1.12638 -0.05371
 C2408 C 0.49166 1.11130 -0.06191
 C2409 C 0.49168 1.09422 -0.05287
 C2410 C 0.49577 1.07902 -0.06250
 C2411 C 0.49603 1.06268 -0.05440
 C2412 C 0.49191 1.06117 -0.03651
 C2413 C 0.48740 1.07638 -0.02695
 C2414 C 0.48730 1.09273 -0.03503
 H2415 H 0.51604 1.18226 -0.05978
 H2416 H 0.51426 1.15417 -0.04482
 H2417 H 0.47631 1.13724 -0.08289
 H2418 H 0.47782 1.16527 -0.09760
 H2419 H 0.49869 1.12623 -0.03999
 H2420 H 0.48983 1.11121 -0.07599
 H2421 H 0.49900 1.07981 -0.07631
 H2422 H 0.49942 1.05122 -0.06218
 H2423 H 0.48407 1.07569 -0.01317
 H2424 H 0.48354 1.10412 -0.02732
 C2425 C 0.51252 0.31551 -0.06154
 C2426 C 0.51408 0.33195 -0.05365
 C2427 C 0.50929 0.34722 -0.06278
 C2428 C 0.50350 0.34574 -0.08022
 C2429 C 0.50188 0.32936 -0.08805
 C2430 C 0.50617 0.31406 -0.07875
 C2431 C 0.51073 0.36439 -0.05386
 C2432 C 0.50100 0.37850 -0.05844
 C2433 C 0.50182 0.39586 -0.04978
 C2434 C 0.49424 0.41030 -0.05844
 C2435 C 0.49393 0.42683 -0.05066
 C2436 C 0.50114 0.42935 -0.03392
 C2437 C 0.50889 0.41494 -0.02527
 C2438 C 0.50920 0.39836 -0.03307
 H2439 H 0.51595 0.30394 -0.05407
 H2440 H 0.51877 0.33272 -0.04028
 H2441 H 0.50046 0.35716 -0.08803
 H2442 H 0.49746 0.32867 -0.10151
 H2443 H 0.51980 0.36511 -0.04302
 H2444 H 0.49174 0.37744 -0.06911
 H2445 H 0.48840 0.40876 -0.07128
 H2446 H 0.48784 0.43761 -0.05773
 H2447 H 0.51449 0.41638 -0.01232
 H2448 H 0.51482 0.38760 -0.02570
 C2449 C 0.01453 -0.18588 0.44147
 C2450 C 0.01498 -0.16962 0.44989
 C2451 C 0.00636 -0.15494 0.44264
 C2452 C -0.00328 -0.15702 0.42707
 C2453 C -0.00378 -0.17326 0.41870
 C2454 C 0.00522 -0.18786 0.42571
 C2455 C 0.00727 -0.13786 0.45185
 C2456 C 0.00570 -0.12249 0.44351
 C2457 C 0.00595 -0.10513 0.45229
 C2458 C -0.00046 -0.09055 0.44298
 C2459 C -0.00084 -0.07394 0.45062
 C2460 C 0.00530 -0.07142 0.46779
 C2461 C 0.01210 -0.08593 0.47702
 C2462 C 0.01246 -0.10259 0.46937
 H2463 H 0.02140 -0.19692 0.44733
 H2464 H 0.02228 -0.16844 0.46200
 H2465 H -0.01063 -0.14621 0.42138
 H2466 H -0.01098 -0.17431 0.40653
 H2467 H 0.00952 -0.13820 0.46583
 H2468 H 0.00381 -0.12245 0.42946
 H2469 H -0.00543 -0.09205 0.42977
 H2470 H -0.00610 -0.06308 0.44306
 H2471 H 0.01709 -0.08446 0.49021
 H2472 H 0.01801 -0.11330 0.47688
 C2473 C 0.48795 -0.17650 0.56079
 C2474 C 0.48687 -0.16085 0.55138
 C2475 C 0.49513 -0.14586 0.55762
 C2476 C 0.50519 -0.14701 0.57304
 C2477 C 0.50627 -0.16259 0.58241
 C2478 C 0.49745 -0.17743 0.57655
 C2479 C 0.49336 -0.12933 0.54768
 C2480 C 0.49399 -0.11364 0.55552
 C2481 C 0.49312 -0.09669 0.54621
 C2482 C 0.49888 -0.08183 0.55512
 C2483 C 0.49866 -0.06554 0.54700
 C2484 C 0.49253 -0.06367 0.52972
 C2485 C 0.48640 -0.07848 0.52087
 C2486 C 0.48666 -0.09482 0.52902
 H2487 H 0.48101 -0.18772 0.55597
 H2488 H 0.47925 -0.16035 0.53941
 H2489 H 0.51243 -0.13599 0.57783
 H2490 H 0.51412 -0.16306 0.59423
 H2491 H 0.49129 -0.13034 0.53371
 H2492 H 0.49564 -0.11302 0.56960
 H2493 H 0.50380 -0.08284 0.56841
 H2494 H 0.50339 -0.05443 0.55427
 H2495 H 0.48146 -0.07748 0.50760
 H2496 H 0.48162 -0.10580 0.52182
 C2497 C -0.02571 0.32955 1.07327
 C2498 C -0.02720 0.34509 1.06381
 C2499 C -0.01223 0.35327 1.05753
 C2500 C 0.00429 0.34515 1.06008
 C2501 C 0.00582 0.32947 1.06934
 C2502 C -0.00912 0.32152 1.07651
 C2503 C -0.01431 0.37022 1.04840
 C2504 C -0.00223 0.38264 1.04937
 C2505 C -0.00455 0.40015 1.04140
 C2506 C 0.00450 0.41415 1.04869
 C2507 C 0.00303 0.43081 1.04141
 C2508 C -0.00738 0.43382 1.02646
 C2509 C -0.01644 0.41977 1.01911
 C2510 C -0.01505 0.40310 1.02649
 H2511 H -0.03775 0.32370 1.07760
 H2512 H -0.04012 0.35091 1.06169
 H2513 H 0.01608 0.35089 1.05496
 H2514 H 0.01893 0.32422 1.07156
 H2515 H -0.02673 0.37300 1.04201
 H2516 H 0.00937 0.38039 1.05732
 H2517 H 0.01275 0.41220 1.06011
 H2518 H 0.01029 0.44128 1.04737
 H2519 H -0.02447 0.42159 1.00753
 H2520 H -0.02186 0.39252 1.02022
 C2521 C 0.75853 0.35004 0.08081
 C2522 C 0.75908 0.34330 0.09776
 C2523 C 0.75352 0.32641 0.10120
 C2524 C 0.74725 0.31630 0.08726
 C2525 C 0.74663 0.32299 0.07023
 C2526 C 0.75211 0.34017 0.06648
 C2527 C 0.75375 0.32015 0.11956
 C2528 C 0.75450 0.30321 0.12391
 C2529 C 0.75449 0.29699 0.14229
 C2530 C 0.76141 0.28026 0.14587
 C2531 C 0.76099 0.27357 0.16287
 C2532 C 0.75347 0.28342 0.17668
 C2533 C 0.74662 0.30024 0.17312
 C2534 C 0.74706 0.30694 0.15611
 H2535 H 0.76398 0.36282 0.07920
 H2536 H 0.76409 0.35134 0.10827
 H2537 H 0.74221 0.30341 0.08948
 H2538 H 0.74078 0.31476 0.06042
 H2539 H 0.75409 0.32998 0.12978
 H2540 H 0.75589 0.29341 0.11370
 H2541 H 0.76710 0.27229 0.13546
 H2542 H 0.76636 0.26055 0.16509
 H2543 H 0.74059 0.30812 0.18340
 H2544 H 0.74110 0.31967 0.15381
 C2545 C 0.27509 0.82226 0.57693
 C2546 C 0.27691 0.81400 0.59314
 C2547 C 0.26283 0.81383 0.60500
 C2548 C 0.24663 0.82152 0.60005
 C2549 C 0.24478 0.82971 0.58380
 C2550 C 0.25905 0.83034 0.57215
 C2551 C 0.26537 0.80521 0.62218
 C2552 C 0.25618 0.80989 0.63653
 C2553 C 0.25834 0.80139 0.65385
 C2554 C 0.25206 0.81029 0.66879
 C2555 C 0.25279 0.80242 0.68526
 C2556 C 0.25975 0.78537 0.68717
 C2557 C 0.26633 0.77655 0.67225
 C2558 C 0.26557 0.78442 0.65576
 H2559 H 0.28623 0.82229 0.56809
 H2560 H 0.28944 0.80794 0.59653
 H2561 H 0.23529 0.82113 0.60860
 H2562 H 0.23228 0.83585 0.58050
 H2563 H 0.27578 0.79540 0.62311
 H2564 H 0.24700 0.82087 0.63583
 H2565 H 0.24636 0.82333 0.66769
 H2566 H 0.24759 0.80961 0.69644
 H2567 H 0.27164 0.76334 0.67321
 H2568 H 0.27013 0.77689 0.64456
 C2569 C 0.72750 0.66094 0.58219
 C2570 C 0.72701 0.66819 0.59900
 C2571 C 0.73801 0.68193 0.60346
 C2572 C 0.74947 0.68842 0.59067
 C2573 C 0.75004 0.68108 0.57384
 C2574 C 0.73923 0.66708 0.56949
 C2575 C 0.73790 0.68835 0.62180
 C2576 C 0.74255 0.70449 0.62641
 C2577 C 0.74261 0.71059 0.64486
 C2578 C 0.73970 0.72839 0.64840
 C2579 C 0.74009 0.73469 0.66560
 C2580 C 0.74372 0.72332 0.67965
 C2581 C 0.74677 0.70549 0.67609
 C2582 C 0.74621 0.69917 0.65888
 H2583 H 0.71877 0.65038 0.57918
 H2584 H 0.71808 0.66296 0.60860
 H2585 H 0.75848 0.69870 0.59378
 H2586 H 0.75941 0.68592 0.56446
 H2587 H 0.73314 0.67959 0.63176
 H2588 H 0.74562 0.71388 0.61636
 H2589 H 0.73707 0.73746 0.63781
 H2590 H 0.73784 0.74853 0.66785
 H2591 H 0.74971 0.69640 0.68658
 H2592 H 0.74902 0.68543 0.65657
 C2593 C 0.24315 0.15109 0.08562
 C2594 C 0.24313 0.15810 0.10251
 C2595 C 0.24221 0.17615 0.10526
 C2596 C 0.24152 0.18717 0.09059
 C2597 C 0.24148 0.18020 0.07359
 C2598 C 0.24224 0.16189 0.07055
 C2599 C 0.24270 0.18269 0.12360
 C2600 C 0.23840 0.19908 0.12852
 C2601 C 0.23903 0.20521 0.14700
 C2602 C 0.22929 0.22029 0.15176
 C2603 C 0.22973 0.22670 0.16893
 C2604 C 0.23999 0.21818 0.18176
 C2605 C 0.24980 0.20313 0.17700
 C2606 C 0.24945 0.19679 0.15981
 H2607 H 0.24487 0.13708 0.08480
 H2608 H 0.24405 0.14927 0.11355
 H2609 H 0.24115 0.20121 0.09203
 H2610 H 0.24015 0.18951 0.06307
 H2611 H 0.24616 0.17318 0.13354
 H2612 H 0.23350 0.20830 0.11890
 H2613 H 0.22128 0.22713 0.14215
 H2614 H 0.22204 0.23836 0.17213
 H2615 H 0.25806 0.19640 0.18647
 H2616 H 0.25770 0.18553 0.15663
 C2617 C 0.26384 0.18669 0.93110
 C2618 C 0.26643 0.19487 0.91494
 C2619 C 0.26381 0.18579 0.89915
 C2620 C 0.25930 0.16808 0.89988
 C2621 C 0.25659 0.15998 0.91596
 C2622 C 0.25858 0.16924 0.93173
 C2623 C 0.26595 0.19506 0.88224
 C2624 C 0.25781 0.19012 0.86748
 C2625 C 0.25918 0.19901 0.85029
 C2626 C 0.25342 0.19006 0.83536
 C2627 C 0.25341 0.19800 0.81895
 C2628 C 0.25908 0.21522 0.81701
 C2629 C 0.26514 0.22415 0.83190
 C2630 C 0.26516 0.21617 0.84838
 H2631 H 0.26552 0.19410 0.94307
 H2632 H 0.27013 0.20844 0.91477
 H2633 H 0.25800 0.16031 0.88810
 H2634 H 0.25307 0.14636 0.91608
 H2635 H 0.27405 0.20647 0.88225
 H2636 H 0.24942 0.17892 0.86783
 H2637 H 0.24872 0.17685 0.83642
 H2638 H 0.24868 0.19067 0.80781
 H2639 H 0.26952 0.23746 0.83089
 H2640 H 0.26939 0.22371 0.85954
 C2641 C 0.74926 0.65548 0.41412
 C2642 C 0.75124 0.66252 0.39742
 C2643 C 0.75805 0.67923 0.39521
 C2644 C 0.76290 0.68881 0.41018
 C2645 C 0.76086 0.68175 0.42696
 C2646 C 0.75385 0.66506 0.42911
 C2647 C 0.75898 0.68625 0.37715
 C2648 C 0.76918 0.69944 0.37223
 C2649 C 0.76935 0.70630 0.35405
 C2650 C 0.77421 0.72364 0.35125
 C2651 C 0.77369 0.73083 0.33442
 C2652 C 0.76836 0.72077 0.31998
 C2653 C 0.76419 0.70320 0.32269
 C2654 C 0.76479 0.69601 0.33948
 H2655 H 0.74418 0.64245 0.41526
 H2656 H 0.74742 0.65485 0.38615
 H2657 H 0.76777 0.70190 0.40911
 H2658 H 0.76432 0.68952 0.43827
 H2659 H 0.75072 0.68010 0.36752
 H2660 H 0.77728 0.70587 0.38180
 H2661 H 0.77802 0.73178 0.36218
 H2662 H 0.77708 0.74438 0.33280
 H2663 H 0.76035 0.69498 0.31184
 H2664 H 0.76173 0.68237 0.34089
 C2665 C 0.23617 0.81468 0.43318
 C2666 C 0.23563 0.80553 0.41729
 C2667 C 0.24866 0.80781 0.40452
 C2668 C 0.26273 0.81880 0.40830
 C2669 C 0.26323 0.82797 0.42411
 C2670 C 0.24984 0.82623 0.43660
 C2671 C 0.24733 0.79847 0.38753
 C2672 C 0.25443 0.80455 0.37271
 C2673 C 0.25352 0.79578 0.35537
 C2674 C 0.25832 0.80529 0.34050
 C2675 C 0.25846 0.79754 0.32392
 C2676 C 0.25380 0.78002 0.32178
 C2677 C 0.24880 0.77049 0.33662
 C2678 C 0.24875 0.77824 0.35326
 H2679 H 0.22567 0.81310 0.44259
 H2680 H 0.22478 0.79697 0.41479
 H2681 H 0.27347 0.82028 0.39917
 H2682 H 0.27417 0.83642 0.42662
 H2683 H 0.23950 0.78688 0.38722
 H2684 H 0.26086 0.81701 0.37303
 H2685 H 0.26212 0.81879 0.34172
 H2686 H 0.26233 0.80529 0.31278
 H2687 H 0.24526 0.75692 0.33545
 H2688 H 0.24536 0.77025 0.36435
 C2689 C 0.72397 0.32326 0.92218
 C2690 C 0.72182 0.31475 0.90609
 C2691 C 0.73647 0.30864 0.89654
 C2692 C 0.75330 0.31029 0.90383
 C2693 C 0.75545 0.31864 0.91997
 C2694 C 0.74085 0.32557 0.92918
 C2695 C 0.73392 0.30077 0.87898
 C2696 C 0.74555 0.30279 0.86598
 C2697 C 0.74332 0.29578 0.84802
 C2698 C 0.75213 0.30386 0.83421
 C2699 C 0.75122 0.29724 0.81718
 C2700 C 0.74165 0.28216 0.81356
 C2701 C 0.73266 0.27412 0.82737
 C2702 C 0.73347 0.28086 0.84444
 H2703 H 0.71244 0.32855 0.92883
 H2704 H 0.70871 0.31349 0.90079
 H2705 H 0.76483 0.30512 0.89710
 H2706 H 0.76859 0.31975 0.92521
 H2707 H 0.72165 0.29437 0.87643
 H2708 H 0.75690 0.31077 0.86827
 H2709 H 0.75987 0.31532 0.83663
 H2710 H 0.75837 0.30374 0.80691
 H2711 H 0.72522 0.26245 0.82506
 H2712 H 0.72682 0.27405 0.85482
 C2713 C 0.81413 0.43019 0.23473
 C2714 C 0.80473 0.41474 0.23351
 C2715 C 0.81087 0.39946 0.24180
 C2716 C 0.82624 0.40012 0.25197
 C2717 C 0.83559 0.41554 0.25323
 C2718 C 0.82978 0.43070 0.24446
 C2719 C 0.80078 0.38322 0.24001
 C2720 C 0.80845 0.36728 0.24078
 C2721 C 0.79891 0.35061 0.24001
 C2722 C 0.80773 0.33540 0.24576
 C2723 C 0.79934 0.31940 0.24588
 C2724 C 0.78189 0.31814 0.24011
 C2725 C 0.77317 0.33326 0.23386
 C2726 C 0.78158 0.34934 0.23379
 H2727 H 0.80935 0.44161 0.22774
 H2728 H 0.79281 0.41463 0.22578
 H2729 H 0.83097 0.38884 0.25920
 H2730 H 0.84732 0.41563 0.26123
 H2731 H 0.78680 0.38466 0.23785
 H2732 H 0.82255 0.36624 0.24252
 H2733 H 0.82112 0.33593 0.25048
 H2734 H 0.80654 0.30803 0.25065
 H2735 H 0.75977 0.33274 0.22920
 H2736 H 0.77443 0.36058 0.22876
 C2737 C 0.31699 0.92862 0.73795
 C2738 C 0.30794 0.91293 0.73824
 C2739 C 0.31458 0.89851 0.74764
 C2740 C 0.33018 0.90031 0.75728
 C2741 C 0.33921 0.91596 0.75699
 C2742 C 0.33283 0.93024 0.74720
 C2743 C 0.30475 0.88202 0.74750
 C2744 C 0.31255 0.86632 0.74999
 C2745 C 0.30319 0.84954 0.75037
 C2746 C 0.31186 0.83499 0.75777
 C2747 C 0.30380 0.81883 0.75844
 C2748 C 0.28684 0.81676 0.75161
 C2749 C 0.27818 0.83127 0.74402
 C2750 C 0.28625 0.84749 0.74336
 H2751 H 0.31177 0.93937 0.73024
 H2752 H 0.29586 0.91195 0.73086
 H2753 H 0.33534 0.88980 0.76534
 H2754 H 0.35111 0.91696 0.76465
 H2755 H 0.29079 0.88303 0.74501
 H2756 H 0.32659 0.86556 0.75211
 H2757 H 0.32494 0.83614 0.76315
 H2758 H 0.31093 0.80794 0.76430
 H2759 H 0.26517 0.83011 0.73848
 H2760 H 0.27925 0.85818 0.73709
 C2761 C 0.15639 0.91128 0.25093
 C2762 C 0.16425 0.89466 0.25058
 C2763 C 0.18188 0.89211 0.25516
 C2764 C 0.19171 0.90671 0.25978
 C2765 C 0.18395 0.92347 0.25999
 C2766 C 0.16597 0.92626 0.25570
 C2767 C 0.18949 0.87414 0.25425
 C2768 C 0.20341 0.86861 0.26364
 C2769 C 0.21063 0.85043 0.26276
 C2770 C 0.22814 0.84722 0.26773
 C2771 C 0.23556 0.83036 0.26677
 C2772 C 0.22556 0.81628 0.26089
 C2773 C 0.20788 0.81941 0.25638
 C2774 C 0.20046 0.83624 0.25740
 H2775 H 0.14297 0.91214 0.24640
 H2776 H 0.15645 0.88366 0.24661
 H2777 H 0.20549 0.90533 0.26303
 H2778 H 0.19215 0.93396 0.26432
 H2779 H 0.18296 0.86511 0.24565
 H2780 H 0.21002 0.87767 0.27216
 H2781 H 0.23621 0.85785 0.27212
 H2782 H 0.24919 0.82843 0.27044
 H2783 H 0.19971 0.80884 0.25207
 H2784 H 0.18672 0.83794 0.25416
 C2785 C 0.68503 0.43279 0.76689
 C2786 C 0.69334 0.41630 0.76703
 C2787 C 0.68551 0.40195 0.75891
 C2788 C 0.66943 0.40456 0.75014
 C2789 C 0.66114 0.42099 0.75001
 C2790 C 0.66874 0.43526 0.75851
 C2791 C 0.69470 0.38468 0.75924
 C2792 C 0.68622 0.36955 0.75790
 C2793 C 0.69510 0.35213 0.75710
 C2794 C 0.68593 0.33820 0.74978
 C2795 C 0.69383 0.32162 0.74824
 C2796 C 0.71109 0.31854 0.75415
 C2797 C 0.72012 0.33238 0.76195
 C2798 C 0.71222 0.34898 0.76345
 H2799 H 0.69118 0.44353 0.77359
 H2800 H 0.70583 0.41468 0.77368
 H2801 H 0.66334 0.39406 0.74304
 H2802 H 0.64886 0.42259 0.74300
 H2803 H 0.70883 0.38463 0.76063
 H2804 H 0.67205 0.36980 0.75677
 H2805 H 0.67267 0.34021 0.74494
 H2806 H 0.68642 0.31126 0.74227
 H2807 H 0.73337 0.33044 0.76681
 H2808 H 0.71955 0.35918 0.76973
 C2809 C 0.68671 0.57317 0.74020
 C2810 C 0.69512 0.58908 0.73806
 C2811 C 0.68624 0.60496 0.74170
 C2812 C 0.66852 0.60462 0.74694
 C2813 C 0.66014 0.58876 0.74911
 C2814 C 0.66917 0.57285 0.74595
 C2815 C 0.69568 0.62157 0.73960
 C2816 C 0.69126 0.63617 0.74855
 C2817 C 0.70026 0.65310 0.74703
 C2818 C 0.69208 0.66792 0.75461
 C2819 C 0.70006 0.68413 0.75414
 C2820 C 0.71654 0.68597 0.74612
 C2821 C 0.72473 0.67118 0.73839
 C2822 C 0.71673 0.65491 0.73887
 H2823 H 0.69401 0.56112 0.73767
 H2824 H 0.70871 0.58897 0.73382
 H2825 H 0.66093 0.61655 0.74910
 H2826 H 0.64647 0.58895 0.75305
 H2827 H 0.70677 0.62142 0.73074
 H2828 H 0.68041 0.63584 0.75771
 H2829 H 0.67943 0.66696 0.76101
 H2830 H 0.69332 0.69521 0.76022
 H2831 H 0.73747 0.67210 0.73218
 H2832 H 0.72373 0.64387 0.73314
 C2833 C 0.18833 0.06535 0.24240
 C2834 C 0.19640 0.08148 0.24049
 C2835 C 0.18706 0.09716 0.24390
 C2836 C 0.16925 0.09636 0.24878
 C2837 C 0.16123 0.08028 0.25075
 C2838 C 0.17069 0.06458 0.24772
 C2839 C 0.19608 0.11405 0.24185
 C2840 C 0.19091 0.12869 0.25037
 C2841 C 0.19926 0.14597 0.24874
 C2842 C 0.19041 0.16054 0.25608
 C2843 C 0.19770 0.17707 0.25552
 C2844 C 0.21415 0.17954 0.24763
 C2845 C 0.22301 0.16502 0.24010
 C2846 C 0.21568 0.14840 0.24066
 H2847 H 0.19596 0.05347 0.23997
 H2848 H 0.21006 0.08171 0.23652
 H2849 H 0.16130 0.10809 0.25076
 H2850 H 0.14747 0.08014 0.25435
 H2851 H 0.20744 0.11411 0.23334
 H2852 H 0.17984 0.12815 0.25924
 H2853 H 0.17777 0.15912 0.26239
 H2854 H 0.19045 0.18791 0.26144
 H2855 H 0.23574 0.16642 0.23399
 H2856 H 0.22316 0.13759 0.23506
 C2857 C 0.33246 0.07436 0.77165
 C2858 C 0.32444 0.09086 0.77367
 C2859 C 0.31887 0.10042 0.75899
 C2860 C 0.32078 0.09288 0.74224
 C2861 C 0.32864 0.07634 0.74022
 C2862 C 0.33479 0.06696 0.75487
 C2863 C 0.31082 0.11803 0.76150
 C2864 C 0.31253 0.13078 0.74967
 C2865 C 0.30453 0.14847 0.75171
 C2866 C 0.31199 0.16238 0.74266
 C2867 C 0.30427 0.17909 0.74336
 C2868 C 0.28872 0.18222 0.75295
 C2869 C 0.28134 0.16831 0.76219
 C2870 C 0.28915 0.15162 0.76158
 H2871 H 0.33719 0.06760 0.78320
 H2872 H 0.32296 0.09635 0.78672
 H2873 H 0.31603 0.09964 0.73069
 H2874 H 0.32980 0.07084 0.72715
 H2875 H 0.30422 0.12076 0.77382
 H2876 H 0.32070 0.12842 0.73823
 H2877 H 0.32377 0.16027 0.73488
 H2878 H 0.31028 0.18946 0.73603
 H2879 H 0.26935 0.17025 0.76966
 H2880 H 0.28276 0.14113 0.76837
 C2881 C 0.83442 0.57478 0.27114
 C2882 C 0.82701 0.59149 0.27359
 C2883 C 0.82000 0.60083 0.25938
 C2884 C 0.81987 0.59287 0.24273
 C2885 C 0.82708 0.57608 0.24031
 C2886 C 0.83466 0.56690 0.25443
 C2887 C 0.81274 0.61871 0.26229
 C2888 C 0.81375 0.63121 0.25012
 C2889 C 0.80683 0.64928 0.25267
 C2890 C 0.81418 0.66272 0.24285
 C2891 C 0.80740 0.67978 0.24402
 C2892 C 0.79288 0.68376 0.25486
 C2893 C 0.78564 0.67032 0.26489
 C2894 C 0.79254 0.65325 0.26382
 H2895 H 0.84033 0.56823 0.28228
 H2896 H 0.82716 0.59732 0.28656
 H2897 H 0.81400 0.59950 0.23161
 H2898 H 0.82661 0.57027 0.22736
 H2899 H 0.80750 0.62186 0.27515
 H2900 H 0.82065 0.62836 0.23797
 H2901 H 0.82513 0.65997 0.23410
 H2902 H 0.81326 0.68975 0.23604
 H2903 H 0.77442 0.67291 0.27332
 H2904 H 0.78628 0.64315 0.27128
 C2905 C 0.92821 0.25028 0.18391
 C2906 C 0.91225 0.25062 0.19304
 C2907 C 0.89735 0.25905 0.18594
 C2908 C 0.89889 0.26783 0.16987
 C2909 C 0.91481 0.26752 0.16079
 C2910 C 0.92958 0.25852 0.16756
 C2911 C 0.88046 0.25858 0.19558
 C2912 C 0.86488 0.25925 0.18741
 C2913 C 0.84780 0.25816 0.19660
 C2914 C 0.83324 0.25234 0.18717
 C2915 C 0.81682 0.25126 0.19521
 C2916 C 0.81453 0.25618 0.21285
 C2917 C 0.82907 0.26227 0.22224
 C2918 C 0.84553 0.26327 0.21421
 H2919 H 0.93935 0.24321 0.18945
 H2920 H 0.91144 0.24392 0.20548
 H2921 H 0.88789 0.27508 0.16434
 H2922 H 0.91559 0.27443 0.14847
 H2923 H 0.88101 0.25645 0.20958
 H2924 H 0.86452 0.25959 0.17322
 H2925 H 0.83460 0.24850 0.17354
 H2926 H 0.80591 0.24664 0.18753
 H2927 H 0.82774 0.26631 0.23581
 H2928 H 0.85632 0.26833 0.22174
 C2929 C 0.41709 0.77207 0.65481
 C2930 C 0.40048 0.77254 0.66258
 C2931 C 0.39742 0.76358 0.67824
 C2932 C 0.41140 0.75412 0.68604
 C2933 C 0.42803 0.75359 0.67821
 C2934 C 0.43102 0.76240 0.66240
 C2935 C 0.37930 0.76354 0.68535
 C2936 C 0.37555 0.76066 0.70225
 C2937 C 0.35733 0.76004 0.70902
 C2938 C 0.35413 0.76406 0.72671
 C2939 C 0.33722 0.76302 0.73371
 C2940 C 0.32314 0.75768 0.72320
 C2941 C 0.32636 0.75362 0.70548
 C2942 C 0.34325 0.75476 0.69847
 H2943 H 0.41901 0.77923 0.64278
 H2944 H 0.38994 0.77988 0.65628
 H2945 H 0.40944 0.74662 0.69784
 H2946 H 0.43840 0.74579 0.68423
 H2947 H 0.36872 0.76659 0.67632
 H2948 H 0.38611 0.75933 0.71166
 H2949 H 0.36477 0.76801 0.73515
 H2950 H 0.33525 0.76616 0.74744
 H2951 H 0.31586 0.74936 0.69703
 H2952 H 0.34529 0.75103 0.68491
 C2953 C 0.41601 0.25822 0.84863
 C2954 C 0.39953 0.25913 0.84065
 C2955 C 0.39659 0.25065 0.82463
 C2956 C 0.41073 0.24164 0.81642
 C2957 C 0.42727 0.24079 0.82439
 C2958 C 0.43003 0.24891 0.84067
 C2959 C 0.37874 0.25188 0.81689
 C2960 C 0.37253 0.24031 0.80532
 C2961 C 0.35455 0.24154 0.79789
 C2962 C 0.35138 0.23361 0.78163
 C2963 C 0.33470 0.23455 0.77405
 C2964 C 0.32070 0.24331 0.78267
 C2965 C 0.32376 0.25087 0.79917
 C2966 C 0.34048 0.24997 0.80673
 H2967 H 0.41782 0.26490 0.86101
 H2968 H 0.38896 0.26635 0.84714
 H2969 H 0.40919 0.23540 0.80380
 H2970 H 0.43784 0.23355 0.81794
 H2971 H 0.37035 0.26262 0.82130
 H2972 H 0.38089 0.22960 0.80080
 H2973 H 0.36193 0.22685 0.77464
 H2974 H 0.33282 0.22845 0.76137
 H2975 H 0.31325 0.25756 0.80627
 H2976 H 0.34218 0.25568 0.81959
 C2977 C 0.93153 0.76639 0.33258
 C2978 C 0.91505 0.76730 0.32455
 C2979 C 0.90633 0.75211 0.31982
 C2980 C 0.91446 0.73588 0.32327
 C2981 C 0.93090 0.73487 0.33135
 C2982 C 0.93989 0.75011 0.33648
 C2983 C 0.88845 0.75373 0.31224
 C2984 C 0.88114 0.74128 0.30243
 C2985 C 0.86306 0.74291 0.29535
 C2986 C 0.85883 0.73375 0.28003
 C2987 C 0.84190 0.73493 0.27302
 C2988 C 0.82873 0.74515 0.28135
 C2989 C 0.83289 0.75402 0.29693
 C2990 C 0.84984 0.75290 0.30387
 H2991 H 0.93691 0.77870 0.33659
 H2992 H 0.90895 0.78001 0.32226
 H2993 H 0.90807 0.72381 0.32009
 H2994 H 0.93657 0.72192 0.33288
 H2995 H 0.88132 0.76595 0.31443
 H2996 H 0.88881 0.72978 0.29871
 H2997 H 0.86873 0.72578 0.27335
 H2998 H 0.83914 0.72782 0.26107
 H2999 H 0.82305 0.76190 0.30378
 H3000 H 0.85243 0.75965 0.31605
 C3001 C 0.07842 0.76831 0.32481
 C3002 C 0.09432 0.77020 0.31588
 C3003 C 0.10802 0.75778 0.31778
 C3004 C 0.10525 0.74304 0.32831
 C3005 C 0.08938 0.74115 0.33723
 C3006 C 0.07585 0.75384 0.33574
 C3007 C 0.12483 0.76030 0.30835
 C3008 C 0.14021 0.75372 0.31420
 C3009 C 0.15733 0.75537 0.30508
 C3010 C 0.17265 0.75071 0.31431
 C3011 C 0.18903 0.75072 0.30611
 C3012 C 0.19056 0.75539 0.28838
 C3013 C 0.17531 0.76051 0.27919
 C3014 C 0.15884 0.76042 0.28740
 H3015 H 0.06827 0.77835 0.32346
 H3016 H 0.09604 0.78156 0.30770
 H3017 H 0.11518 0.73278 0.32951
 H3018 H 0.08763 0.72963 0.34516
 H3019 H 0.12444 0.76842 0.29679
 H3020 H 0.14047 0.74696 0.32663
 H3021 H 0.17192 0.74675 0.32790
 H3022 H 0.20050 0.74679 0.31364
 H3023 H 0.17601 0.76407 0.26549
 H3024 H 0.14741 0.76378 0.27965
 C3025 C 0.57921 0.26700 0.84262
 C3026 C 0.59593 0.26874 0.83532
 C3027 C 0.60275 0.25609 0.82367
 C3028 C 0.59264 0.24146 0.81964
 C3029 C 0.57604 0.23957 0.82717
 C3030 C 0.56917 0.25232 0.83871
 C3031 C 0.62068 0.25804 0.81654
 C3032 C 0.62523 0.25252 0.80044
 C3033 C 0.64314 0.25422 0.79320
 C3034 C 0.64518 0.25629 0.77507
 C3035 C 0.66191 0.25705 0.76763
 C3036 C 0.67701 0.25535 0.77814
 C3037 C 0.67498 0.25329 0.79633
 C3038 C 0.65820 0.25282 0.80381
 H3039 H 0.57430 0.27689 0.85169
 H3040 H 0.60355 0.28003 0.83875
 H3041 H 0.59771 0.23125 0.81103
 H3042 H 0.56857 0.22812 0.82400
 H3043 H 0.63008 0.26496 0.82445
 H3044 H 0.61529 0.24727 0.79189
 H3045 H 0.63378 0.25725 0.76663
 H3046 H 0.66302 0.25849 0.75356
 H3047 H 0.68636 0.25189 0.80475
 H3048 H 0.65706 0.25082 0.81780
 C3049 C 0.57698 0.77670 0.67086
 C3050 C 0.59348 0.77715 0.67879
 C3051 C 0.60299 0.76164 0.68223
 C3052 C 0.59562 0.74559 0.67758
 C3053 C 0.57913 0.74514 0.66959
 C3054 C 0.56968 0.76070 0.66599
 C3055 C 0.62087 0.76280 0.68976
 C3056 C 0.62865 0.74988 0.69891
 C3057 C 0.64662 0.75107 0.70617
 C3058 C 0.65104 0.74126 0.72106
 C3059 C 0.66794 0.74178 0.72811
 C3060 C 0.68092 0.75193 0.72024
 C3061 C 0.67655 0.76160 0.70517
 C3062 C 0.65959 0.76118 0.69820
 H3063 H 0.56995 0.78891 0.66848
 H3064 H 0.59888 0.78968 0.68219
 H3065 H 0.60277 0.73338 0.67952
 H3066 H 0.57405 0.73263 0.66567
 H3067 H 0.62751 0.77505 0.68824
 H3068 H 0.62139 0.73829 0.70196
 H3069 H 0.64135 0.73323 0.72732
 H3070 H 0.67088 0.73404 0.73964
 H3071 H 0.68624 0.76946 0.69871
 H3072 H 0.65681 0.76849 0.68638
 C3073 C 0.07218 0.27429 0.17419
 C3074 C 0.08851 0.27418 0.18255
 C3075 C 0.09854 0.25866 0.18398
 C3076 C 0.09199 0.24320 0.17674
 C3077 C 0.07573 0.24333 0.16827
 C3078 C 0.06563 0.25888 0.16683
 C3079 C 0.11615 0.25924 0.19215
 C3080 C 0.12396 0.24544 0.19991
 C3081 C 0.14184 0.24601 0.20745
 C3082 C 0.14626 0.23500 0.22150
 C3083 C 0.16314 0.23502 0.22870
 C3084 C 0.17606 0.24586 0.22176
 C3085 C 0.17169 0.25669 0.20750
 C3086 C 0.15478 0.25678 0.20043
 H3087 H 0.06468 0.28645 0.17352
 H3088 H 0.09332 0.28627 0.18793
 H3089 H 0.09961 0.23111 0.17707
 H3090 H 0.07131 0.23132 0.16238
 H3091 H 0.12261 0.27170 0.19224
 H3092 H 0.11682 0.23347 0.20145
 H3093 H 0.13658 0.22643 0.22699
 H3094 H 0.16611 0.22643 0.23958
 H3095 H 0.18134 0.26514 0.20178
 H3096 H 0.15200 0.26503 0.18925
 C3097 C -0.06252 1.00335 0.82089
 C3098 C -0.05354 1.00269 0.83688
 C3099 C -0.06232 0.99855 0.85243
 C3100 C -0.08016 0.99441 0.85156
 C3101 C -0.08917 0.99514 0.83567
 C3102 C -0.08066 0.99985 0.81997
 C3103 C -0.05248 0.99833 0.86923
 C3104 C -0.06034 1.00091 0.88483
 C3105 C -0.05100 1.00098 0.90190
 C3106 C -0.05958 1.00864 0.91640
 C3107 C -0.05161 1.00876 0.93287
 C3108 C -0.03484 1.00111 0.93529
 C3109 C -0.02626 0.99330 0.92080
 C3110 C -0.03426 0.99318 0.90429
 H3111 H -0.05524 1.00740 0.80949
 H3112 H -0.03974 1.00580 0.83716
 H3113 H -0.08721 0.99025 0.86307
 H3114 H -0.10273 0.99126 0.83579
 H3115 H -0.03833 0.99693 0.86850
 H3116 H -0.07429 1.00393 0.88523
 H3117 H -0.07254 1.01462 0.91499
 H3118 H -0.05866 1.01486 0.94370
 H3119 H -0.01339 0.98716 0.92222
 H3120 H -0.02739 0.98668 0.89361
 C3121 C 0.43822 0.49923 0.32277
 C3122 C 0.44727 0.49971 0.33872
 C3123 C 0.44028 0.49193 0.35373
 C3124 C 0.42447 0.48290 0.35231
 C3125 C 0.41548 0.48238 0.33641
 C3126 C 0.42207 0.49080 0.32153
 C3127 C 0.44973 0.49332 0.37063
 C3128 C 0.44133 0.49358 0.38611
 C3129 C 0.45027 0.49536 0.40323
 C3130 C 0.44052 0.50182 0.41757
 C3131 C 0.44823 0.50329 0.43410
 C3132 C 0.46586 0.49812 0.43672
 C3133 C 0.47562 0.49153 0.42236
 C3134 C 0.46792 0.49015 0.40580
 H3135 H 0.44362 0.50589 0.31157
 H3136 H 0.45953 0.50656 0.33944
 H3137 H 0.41906 0.47613 0.36343
 H3138 H 0.40333 0.47533 0.33575
 H3139 H 0.46375 0.49530 0.37015
 H3140 H 0.42712 0.49338 0.38631
 H3141 H 0.42687 0.50577 0.41598
 H3142 H 0.44028 0.50831 0.44485
 H3143 H 0.48920 0.48732 0.42393
 H3144 H 0.47571 0.48464 0.39519
 C3145 C 0.59916 0.01138 0.33221
 C3146 C 0.59161 0.01127 0.34888
 C3147 C 0.57518 0.00395 0.35161
 C3148 C 0.56658 -0.00376 0.33735
 C3149 C 0.57420 -0.00383 0.32063
 C3150 C 0.59057 0.00393 0.31764
 C3151 C 0.56783 0.00414 0.36959
 C3152 C 0.55057 0.00394 0.37306
 C3153 C 0.54340 0.00473 0.39113
 C3154 C 0.52634 0.01153 0.39380
 C3155 C 0.51905 0.01229 0.41063
 C3156 C 0.52862 0.00606 0.42516
 C3157 C 0.54568 -0.00085 0.42245
 C3158 C 0.55298 -0.00156 0.40565
 H3159 H 0.61212 0.01674 0.33111
 H3160 H 0.59868 0.01698 0.35972
 H3161 H 0.55407 -0.00993 0.33907
 H3162 H 0.56678 -0.00946 0.31003
 H3163 H 0.57703 0.00562 0.38027
 H3164 H 0.54127 0.00424 0.36234
 H3165 H 0.51864 0.01634 0.38283
 H3166 H 0.50583 0.01759 0.41219
 H3167 H 0.55338 -0.00592 0.43330
 H3168 H 0.56595 -0.00741 0.40407
 C3169 C 0.09845 0.50567 0.83034
 C3170 C 0.09087 0.50556 0.84700
 C3171 C 0.07331 0.50093 0.84926
 C3172 C 0.06357 0.49586 0.83447
 C3173 C 0.07121 0.49588 0.81776
 C3174 C 0.08867 0.50098 0.81552
 C3175 C 0.06593 0.50111 0.86725
 C3176 C 0.04872 0.50298 0.87080
 C3177 C 0.04158 0.50361 0.88891
 C3178 C 0.02510 0.51170 0.89186
 C3179 C 0.01778 0.51230 0.90869
 C3180 C 0.02674 0.50469 0.92295
 C3181 C 0.04323 0.49655 0.91997
 C3182 C 0.05052 0.49592 0.90316
 H3183 H 0.11204 0.50933 0.82907
 H3184 H 0.09874 0.50927 0.85818
 H3185 H 0.05016 0.49168 0.83574
 H3186 H 0.06339 0.49217 0.80657
 H3187 H 0.07525 0.50074 0.87793
 H3188 H 0.03953 0.50504 0.86016
 H3189 H 0.01787 0.51761 0.88111
 H3190 H 0.00502 0.51861 0.91047
 H3191 H 0.05042 0.49036 0.93058
 H3192 H 0.06296 0.48903 0.90139
 C3193 C 0.08640 0.51636 0.66369
 C3194 C 0.07774 0.51601 0.64760
 C3195 C 0.06495 0.50354 0.64417
 C3196 C 0.06053 0.49178 0.65755
 C3197 C 0.06921 0.49217 0.67370
 C3198 C 0.08243 0.50429 0.67684
 C3199 C 0.05679 0.50341 0.62651
 C3200 C 0.04782 0.49005 0.61985
 C3201 C 0.04076 0.49018 0.60175
 C3202 C 0.02560 0.48081 0.59800
 C3203 C 0.01851 0.48085 0.58110
 C3204 C 0.02662 0.49007 0.56751
 C3205 C 0.04213 0.49900 0.57118
 C3206 C 0.04913 0.49904 0.58808
 H3207 H 0.09629 0.52608 0.66583
 H3208 H 0.08127 0.52536 0.63765
 H3209 H 0.05043 0.48227 0.65573
 H3210 H 0.06588 0.48270 0.68359
 H3211 H 0.05876 0.51481 0.61846
 H3212 H 0.04529 0.47868 0.62771
 H3213 H 0.01906 0.47367 0.60825
 H3214 H 0.00664 0.47370 0.57871
 H3215 H 0.04882 0.50611 0.56101
 H3216 H 0.06123 0.50584 0.59030
 C3217 C 0.58811 1.01772 0.16512
 C3218 C 0.57954 1.01747 0.14897
 C3219 C 0.56592 1.00585 0.14583
 C3220 C 0.56051 0.99493 0.15954
 C3221 C 0.56907 0.99522 0.17576
 C3222 C 0.58316 1.00641 0.17861
 C3223 C 0.55791 1.00564 0.12811
 C3224 C 0.54880 0.99230 0.12162
 C3225 C 0.54184 0.99215 0.10349
 C3226 C 0.52673 0.98265 0.09985
 C3227 C 0.51975 0.98232 0.08292
 C3228 C 0.52790 0.99129 0.06918
 C3229 C 0.54333 1.00039 0.07275
 C3230 C 0.55024 1.00080 0.08969
 H3231 H 0.59870 1.02672 0.16703
 H3232 H 0.58383 1.02619 0.13875
 H3233 H 0.54971 0.98616 0.15791
 H3234 H 0.56497 0.98636 0.18592
 H3235 H 0.56019 1.01685 0.11989
 H3236 H 0.54612 0.98110 0.12970
 H3237 H 0.52017 0.97567 0.11020
 H3238 H 0.50793 0.97506 0.08062
 H3239 H 0.55003 1.00732 0.06247
 H3240 H 0.56229 1.00769 0.09184
 C3241 C 0.41624 0.47546 0.17357
 C3242 C 0.42326 0.47539 0.15662
 C3243 C 0.42988 0.49071 0.14932
 C3244 C 0.42933 0.50615 0.15939
 C3245 C 0.42233 0.50621 0.17633
 C3246 C 0.41554 0.49092 0.18356
 C3247 C 0.43636 0.49024 0.13096
 C3248 C 0.44729 0.50203 0.12433
 C3249 C 0.45351 0.50173 0.10590
 C3250 C 0.46930 0.50988 0.10182
 C3251 C 0.47561 0.51000 0.08462
 C3252 C 0.46615 0.50212 0.07101
 C3253 C 0.45013 0.49427 0.07503
 C3254 C 0.44385 0.49410 0.09227
 H3255 H 0.41087 0.46352 0.17865
 H3256 H 0.42336 0.46335 0.14910
 H3257 H 0.43382 0.51837 0.15416
 H3258 H 0.42209 0.51831 0.18373
 H3259 H 0.43238 0.47940 0.12286
 H3260 H 0.45265 0.51191 0.13284
 H3261 H 0.47689 0.51604 0.11203
 H3262 H 0.48795 0.51625 0.08203
 H3263 H 0.44243 0.48819 0.06487
 H3264 H 0.43132 0.48822 0.09476
 C3265 C -0.08266 -0.01858 0.67407
 C3266 C -0.07544 -0.01962 0.65720
 C3267 C -0.07225 -0.00446 0.64759
 C3268 C -0.07663 0.01182 0.65513
 C3269 C -0.08391 0.01291 0.67191
 C3270 C -0.08726 -0.00228 0.68176
 C3271 C -0.06499 -0.00609 0.62957
 C3272 C -0.05575 0.00652 0.62194
 C3273 C -0.04840 0.00514 0.60397
 C3274 C -0.03376 0.01508 0.59975
 C3275 C -0.02648 0.01437 0.58295
 C3276 C -0.03385 0.00387 0.56983
 C3277 C -0.04875 -0.00583 0.57394
 C3278 C -0.05596 -0.00522 0.59083
 H3279 H -0.08535 -0.03075 0.68057
 H3280 H -0.07239 -0.03236 0.65160
 H3281 H -0.07475 0.02383 0.64802
 H3282 H -0.08641 0.02585 0.67718
 H3283 H -0.06668 -0.01836 0.62276
 H3284 H -0.05257 0.01806 0.62942
 H3285 H -0.02781 0.02332 0.60956
 H3286 H -0.01508 0.02212 0.58024
 H3287 H -0.05480 -0.01399 0.56413
 H3288 H -0.06758 -0.01265 0.59345
 C3289 C -0.16245 0.90253 0.99795
 C3290 C -0.14592 0.91000 0.99847
 C3291 C -0.14415 0.92770 1.00274
 C3292 C -0.15933 0.93774 1.00695
 C3293 C -0.17591 0.93022 1.00649
 C3294 C -0.17765 0.91258 1.00182
 C3295 C -0.12625 0.93492 1.00309
 C3296 C -0.12291 0.95194 1.00129
 C3297 C -0.10487 0.95886 1.00113
 C3298 C -0.10196 0.97497 0.99305
 C3299 C -0.08517 0.98199 0.99272
 C3300 C -0.07090 0.97308 1.00058
 C3301 C -0.07385 0.95702 1.00883
 C3302 C -0.09063 0.95004 1.00919
 H3303 H -0.16331 0.88881 0.99466
 H3304 H -0.13445 0.90191 0.99541
 H3305 H -0.15849 0.95129 1.01083
 H3306 H -0.18740 0.93827 1.00957
 H3307 H -0.11541 0.92557 1.00383
 H3308 H -0.13364 0.96113 0.99887
 H3309 H -0.11271 0.98212 0.98688
 H3310 H -0.08341 0.99443 0.98633
 H3311 H -0.06323 0.94991 1.01523
 H3312 H -0.09238 0.93791 1.01612
 C3313 C 0.33618 0.40282 0.49748
 C3314 C 0.35276 0.41016 0.49821
 C3315 C 0.35461 0.42785 0.50248
 C3316 C 0.33946 0.43801 0.50648
 C3317 C 0.32282 0.43063 0.50581
 C3318 C 0.32101 0.41299 0.50117
 C3319 C 0.37255 0.43493 0.50312
 C3320 C 0.37601 0.45192 0.50129
 C3321 C 0.39409 0.45874 0.50148
 C3322 C 0.39726 0.47473 0.49328
 C3323 C 0.41408 0.48167 0.49328
 C3324 C 0.42811 0.47280 0.50160
 C3325 C 0.42489 0.45686 0.50996
 C3326 C 0.40808 0.44994 0.50998
 H3327 H 0.33524 0.38910 0.49423
 H3328 H 0.36421 0.40198 0.49531
 H3329 H 0.34036 0.45156 0.51036
 H3330 H 0.31137 0.43877 0.50874
 H3331 H 0.38332 0.42552 0.50413
 H3332 H 0.36539 0.46114 0.49859
 H3333 H 0.38670 0.48184 0.48677
 H3334 H 0.41605 0.49402 0.48678
 H3335 H 0.43532 0.44978 0.51670
 H3336 H 0.40609 0.43791 0.51699
 C3337 C 0.31636 0.57185 0.02506
 C3338 C 0.33267 0.56328 0.02698
 C3339 C 0.34243 0.55798 0.01221
 C3340 C 0.33514 0.56050 -0.00454
 C3341 C 0.31880 0.56893 -0.00646
 C3342 C 0.30937 0.57504 0.00828
 C3343 C 0.36014 0.54994 0.01457
 C3344 C 0.37313 0.55227 0.00299
 C3345 C 0.39118 0.54489 0.00498
 C3346 C 0.40491 0.55290 -0.00396
 C3347 C 0.42200 0.54592 -0.00327
 C3348 C 0.42573 0.53060 0.00624
 C3349 C 0.41199 0.52264 0.01535
 C3350 C 0.39489 0.52970 0.01474
 H3351 H 0.30952 0.57649 0.03669
 H3352 H 0.33795 0.56132 0.04002
 H3353 H 0.34201 0.55595 -0.01618
 H3354 H 0.31358 0.57074 -0.01954
 H3355 H 0.36278 0.54305 0.02668
 H3356 H 0.37075 0.56070 -0.00817
 H3357 H 0.40239 0.56455 -0.01165
 H3358 H 0.43220 0.55237 -0.01052
 H3359 H 0.41438 0.51078 0.02273
 H3360 H 0.38457 0.52292 0.02146
 C3361 C -0.18348 0.06141 0.49141
 C3362 C -0.16746 0.05218 0.49282
 C3363 C -0.15327 0.05943 0.50178
 C3364 C -0.15566 0.07579 0.51002
 C3365 C -0.17162 0.08499 0.50863
 C3366 C -0.18563 0.07805 0.49909
 C3367 C -0.13625 0.04966 0.50244
 C3368 C -0.12082 0.05767 0.50378
 C3369 C -0.10354 0.04836 0.50382
 C3370 C -0.08865 0.05753 0.49875
 C3371 C -0.07205 0.04940 0.49871
 C3372 C -0.06991 0.03190 0.50394
 C3373 C -0.08480 0.02277 0.50930
 C3374 C -0.10145 0.03090 0.50926
 H3375 H -0.19402 0.05573 0.48396
 H3376 H -0.16602 0.03951 0.48653
 H3377 H -0.14529 0.08148 0.51768
 H3378 H -0.17305 0.09754 0.51513
 H3379 H -0.13647 0.03564 0.50059
 H3380 H -0.12066 0.07180 0.50384
 H3381 H -0.08987 0.07104 0.49468
 H3382 H -0.06088 0.05688 0.49461
 H3383 H -0.08362 0.00931 0.51352
 H3384 H -0.11253 0.02356 0.51376
 C3385 C 0.66051 0.10025 0.48689
 C3386 C 0.64349 0.09391 0.48655
 C3387 C 0.64023 0.07669 0.49152
 C3388 C 0.65434 0.06602 0.49737
 C3389 C 0.67141 0.07242 0.49780
 C3390 C 0.67468 0.08955 0.49238
 C3391 C 0.62192 0.07060 0.49090
 C3392 C 0.61775 0.05378 0.48905
 C3393 C 0.59939 0.04776 0.48822
 C3394 C 0.59614 0.03148 0.48053
 C3395 C 0.57915 0.02498 0.48010
 C3396 C 0.56499 0.03459 0.48750
 C3397 C 0.56823 0.05098 0.49506
 C3398 C 0.58522 0.05746 0.49550
 H3399 H 0.66258 0.11363 0.48297
 H3400 H 0.63284 0.10247 0.48224
 H3401 H 0.65226 0.05284 0.50184
 H3402 H 0.68208 0.06391 0.50214
 H3403 H 0.61160 0.08056 0.49095
 H3404 H 0.62812 0.04402 0.48729
 H3405 H 0.60681 0.02369 0.47491
 H3406 H 0.57717 0.01228 0.47422
 H3407 H 0.55769 0.05866 0.50105
 H3408 H 0.58719 0.06981 0.50205
 C3409 C 0.15644 0.59937 0.99656
 C3410 C 0.13981 0.59247 0.99429
 C3411 C 0.13782 0.57552 0.98778
 C3412 C 0.15295 0.56560 0.98331
 C3413 C 0.16967 0.57248 0.98557
 C3414 C 0.17182 0.58957 0.99221
 C3415 C 0.11973 0.56898 0.98579
 C3416 C 0.11580 0.55202 0.98463
 C3417 C 0.09752 0.54576 0.98400
 C3418 C 0.09444 0.52913 0.97701
 C3419 C 0.07755 0.52235 0.97706
 C3420 C 0.06334 0.53202 0.98428
 C3421 C 0.06640 0.54874 0.99115
 C3422 C 0.08327 0.55550 0.99110
 H3423 H 0.15702 0.61221 1.00242
 H3424 H 0.12839 0.60038 0.99795
 H3425 H 0.15205 0.55268 0.97768
 H3426 H 0.18078 0.56450 0.98131
 H3427 H 0.10922 0.57872 0.98582
 H3428 H 0.12621 0.54217 0.98432
 H3429 H 0.10519 0.52130 0.97159
 H3430 H 0.07571 0.50941 0.97170
 H3431 H 0.05582 0.55649 0.99697
 H3432 H 0.08510 0.56810 0.99719
 C3433 C 0.17843 0.43538 0.49417
 C3434 C 0.16211 0.44408 0.49558
 C3435 C 0.14845 0.43686 0.50536
 C3436 C 0.15168 0.42113 0.51436
 C3437 C 0.16794 0.41245 0.51294
 C3438 C 0.18142 0.41933 0.50262
 C3439 C 0.13109 0.44603 0.50597
 C3440 C 0.11602 0.43759 0.50840
 C3441 C 0.09843 0.44626 0.50802
 C3442 C 0.08388 0.43625 0.50361
 C3443 C 0.06708 0.44390 0.50277
 C3444 C 0.06440 0.46174 0.50656
 C3445 C 0.07891 0.47168 0.51150
 C3446 C 0.09576 0.46404 0.51222
 H3447 H 0.18855 0.44100 0.48611
 H3448 H 0.16002 0.45629 0.48868
 H3449 H 0.14175 0.41552 0.52263
 H3450 H 0.17002 0.40037 0.52004
 H3451 H 0.13069 0.45986 0.50309
 H3452 H 0.11638 0.42350 0.50951
 H3453 H 0.08556 0.42249 0.50051
 H3454 H 0.05620 0.43581 0.49906
 H3455 H 0.07730 0.48544 0.51462
 H3456 H 0.10657 0.47204 0.51623
 C3457 C 0.67982 0.93468 -0.00415
 C3458 C 0.66353 0.94340 -0.00256
 C3459 C 0.64991 0.93614 0.00726
 C3460 C 0.65318 0.92031 0.01610
 C3461 C 0.66942 0.91161 0.01449
 C3462 C 0.68284 0.91855 0.00414
 C3463 C 0.63257 0.94536 0.00805
 C3464 C 0.61749 0.93701 0.01072
 C3465 C 0.59991 0.94572 0.01040
 C3466 C 0.58529 0.93563 0.00639
 C3467 C 0.56849 0.94328 0.00554
 C3468 C 0.56587 0.96122 0.00890
 C3469 C 0.58043 0.97124 0.01347
 C3470 C 0.59728 0.96359 0.01422
 H3471 H 0.68990 0.94035 -0.01222
 H3472 H 0.66141 0.95567 -0.00935
 H3473 H 0.64331 0.91465 0.02440
 H3474 H 0.67153 0.89945 0.02146
 H3475 H 0.63218 0.95917 0.00507
 H3476 H 0.61781 0.92293 0.01196
 H3477 H 0.58691 0.92180 0.00360
 H3478 H 0.55757 0.93513 0.00212
 H3479 H 0.57887 0.98507 0.01625
 H3480 H 0.60814 0.97167 0.01791
 C3481 C -0.00775 0.82223 0.93989
 C3482 C -0.00881 0.83800 0.94923
 C3483 C -0.00154 0.85318 0.94241
 C3484 C 0.00758 0.85210 0.92643
 C3485 C 0.00866 0.83642 0.91707
 C3486 C 0.00075 0.82117 0.92339
 C3487 C -0.00327 0.86980 0.95239
 C3488 C -0.00345 0.88545 0.94451
 C3489 C -0.00433 0.90250 0.95381
 C3490 C 0.00058 0.91741 0.94455
 C3491 C 0.00027 0.93380 0.95260
 C3492 C -0.00512 0.93577 0.97014
 C3493 C -0.01040 0.92091 0.97937
 C3494 C -0.01003 0.90444 0.97130
 H3495 H -0.01442 0.81121 0.94539
 H3496 H -0.01575 0.83845 0.96164
 H3497 H 0.01423 0.86327 0.92119
 H3498 H 0.01632 0.83632 0.90513
 H3499 H -0.00462 0.86892 0.96646
 H3500 H -0.00250 0.88596 0.93036
 H3501 H 0.00490 0.91634 0.93104
 H3502 H 0.00434 0.94494 0.94502
 H3503 H -0.01473 0.92197 0.99286
 H3504 H -0.01439 0.89341 0.97880
 C3505 C 0.50368 0.32268 0.44115
 C3506 C 0.50281 0.33814 0.45100
 C3507 C 0.49294 0.35263 0.44505
 C3508 C 0.48322 0.35108 0.42948
 C3509 C 0.48407 0.33567 0.41967
 C3510 C 0.49454 0.32139 0.42522
 C3511 C 0.49305 0.36917 0.45520
 C3512 C 0.49131 0.38481 0.44745
 C3513 C 0.49223 0.40170 0.45688
 C3514 C 0.49695 0.41649 0.44735
 C3515 C 0.49772 0.43280 0.45549
 C3516 C 0.49356 0.43477 0.47336
 C3517 C 0.48863 0.41998 0.48290
 C3518 C 0.48799 0.40359 0.47476
 H3519 H 0.51188 0.31191 0.44576
 H3520 H 0.51026 0.33896 0.46305
 H3521 H 0.47488 0.36172 0.42486
 H3522 H 0.47646 0.33490 0.40772
 H3523 H 0.49593 0.36842 0.46907
 H3524 H 0.49023 0.38540 0.43331
 H3525 H 0.50013 0.41542 0.43354
 H3526 H 0.50144 0.44390 0.44768
 H3527 H 0.48525 0.42107 0.49667
 H3528 H 0.48383 0.39256 0.48240
 C3529 C -0.00307 0.31502 0.56359
 C3530 C -0.00283 0.33074 0.55433
 C3531 C 0.00605 0.34515 0.56096
 C3532 C 0.01530 0.34332 0.57678
 C3533 C 0.01518 0.32762 0.58602
 C3534 C 0.00583 0.31311 0.57976
 C3535 C 0.00560 0.36177 0.55101
 C3536 C 0.00702 0.37745 0.55876
 C3537 C 0.00577 0.39427 0.54922
 C3538 C 0.00045 0.40933 0.55851
 C3539 C -0.00093 0.42548 0.55012
 C3540 C 0.00322 0.42701 0.53223
 C3541 C 0.00893 0.41198 0.52299
 C3542 C 0.01018 0.39577 0.53137
 H3543 H -0.00984 0.30428 0.55761
 H3544 H -0.00979 0.33170 0.54199
 H3545 H 0.02273 0.35399 0.58209
 H3546 H 0.02187 0.32735 0.59850
 H3547 H 0.00284 0.36105 0.53711
 H3548 H 0.00801 0.37818 0.57290
 H3549 H -0.00284 0.40858 0.57230
 H3550 H -0.00522 0.43679 0.55771
 H3551 H 0.01235 0.41271 0.50923
 H3552 H 0.01485 0.38455 0.52391
 C3553 C 0.50426 0.81447 0.06567
 C3554 C 0.50404 0.83036 0.05670
 C3555 C 0.50916 0.84577 0.06509
 C3556 C 0.51493 0.84488 0.08259
 C3557 C 0.51513 0.82902 0.09155
 C3558 C 0.50978 0.81362 0.08322
 C3559 C 0.50871 0.86238 0.05513
 C3560 C 0.50734 0.87814 0.06284
 C3561 C 0.50646 0.89483 0.05306
 C3562 C 0.49897 0.90959 0.06137
 C3563 C 0.49783 0.92561 0.05274
 C3564 C 0.50432 0.92731 0.03557
 C3565 C 0.51216 0.91260 0.02736
 C3566 C 0.51326 0.89654 0.03600
 H3567 H 0.50031 0.80280 0.05880
 H3568 H 0.49974 0.83064 0.04317
 H3569 H 0.51953 0.85631 0.08939
 H3570 H 0.51935 0.82885 0.10510
 H3571 H 0.50854 0.86142 0.04097
 H3572 H 0.50580 0.87897 0.07692
 H3573 H 0.49381 0.90869 0.07457
 H3574 H 0.49181 0.93667 0.05953
 H3575 H 0.51745 0.91346 0.01421
 H3576 H 0.51967 0.88563 0.02936
 C3577 C 0.52045 0.67295 0.07029
 C3578 C 0.51987 0.65673 0.06182
 C3579 C 0.50689 0.64477 0.06619
 C3580 C 0.49460 0.64921 0.07933
 C3581 C 0.49538 0.66527 0.08800
 C3582 C 0.50833 0.67725 0.08359
 C3583 C 0.50707 0.62739 0.05768
 C3584 C 0.49237 0.61861 0.05452
 C3585 C 0.49267 0.60090 0.04676
 C3586 C 0.47911 0.59606 0.03545
 C3587 C 0.47900 0.57929 0.02812
 C3588 C 0.49221 0.56692 0.03239
 C3589 C 0.50557 0.57166 0.04404
 C3590 C 0.50587 0.58853 0.05107
 H3591 H 0.53064 0.68194 0.06679
 H3592 H 0.52956 0.65350 0.05185
 H3593 H 0.48471 0.64010 0.08330
 H3594 H 0.48589 0.66834 0.09821
 H3595 H 0.51963 0.62192 0.05343
 H3596 H 0.47968 0.62481 0.05706
 H3597 H 0.46870 0.60534 0.03213
 H3598 H 0.46847 0.57595 0.01928
 H3599 H 0.51592 0.56239 0.04755
 H3600 H 0.51625 0.59177 0.06012
 C3601 C 0.01886 0.17000 0.58189
 C3602 C 0.01958 0.15334 0.57428
 C3603 C 0.00410 0.14448 0.57047
 C3604 C -0.01218 0.15261 0.57454
 C3605 C -0.01289 0.16921 0.58223
 C3606 C 0.00262 0.17806 0.58608
 C3607 C 0.00543 0.12654 0.56310
 C3608 C -0.00731 0.11940 0.55349
 C3609 C -0.00608 0.10140 0.54626
 C3610 C -0.01563 0.09746 0.53110
 C3611 C -0.01504 0.08060 0.52400
 C3612 C -0.00510 0.06719 0.53208
 C3613 C 0.00423 0.07107 0.54746
 C3614 C 0.00376 0.08799 0.55448
 H3615 H 0.03103 0.17638 0.58493
 H3616 H 0.03228 0.14731 0.57144
 H3617 H -0.02439 0.14604 0.57227
 H3618 H -0.02560 0.17511 0.58526
 H3619 H 0.01764 0.11930 0.56510
 H3620 H -0.01877 0.12724 0.54999
 H3621 H -0.02347 0.10750 0.52464
 H3622 H -0.02250 0.07807 0.51222
 H3623 H 0.01194 0.06104 0.55408
 H3624 H 0.01085 0.09041 0.56649
 C3625 C 0.51966 0.18033 0.42331
 C3626 C 0.52102 0.16395 0.43127
 C3627 C 0.50654 0.15299 0.43186
 C3628 C 0.49042 0.15900 0.42484
 C3629 C 0.48904 0.17542 0.41695
 C3630 C 0.50369 0.18619 0.41596
 C3631 C 0.50859 0.13565 0.44025
 C3632 C 0.49876 0.12198 0.43593
 C3633 C 0.50058 0.10453 0.44419
 C3634 C 0.49390 0.09004 0.43532
 C3635 C 0.49448 0.07349 0.44296
 C3636 C 0.50166 0.07106 0.45977
 C3637 C 0.50854 0.08553 0.46859
 C3638 C 0.50795 0.10210 0.46094
 H3639 H 0.53110 0.18846 0.42299
 H3640 H 0.53351 0.15974 0.43680
 H3641 H 0.47880 0.15117 0.42555
 H3642 H 0.47656 0.17957 0.41137
 H3643 H 0.51918 0.13397 0.44957
 H3644 H 0.48934 0.12332 0.42537
 H3645 H 0.48807 0.09156 0.42246
 H3646 H 0.48902 0.06267 0.43578
 H3647 H 0.51403 0.08418 0.48161
 H3648 H 0.51280 0.11297 0.46846
 C3649 C 0.02225 0.67696 0.92054
 C3650 C 0.02284 0.66034 0.92800
 C3651 C 0.00747 0.65096 0.93034
 C3652 C -0.00869 0.65882 0.92567
 C3653 C -0.00937 0.67554 0.91836
 C3654 C 0.00612 0.68490 0.91537
 C3655 C 0.00879 0.63332 0.93820
 C3656 C -0.00280 0.62077 0.93502
 C3657 C -0.00141 0.60307 0.94280
 C3658 C -0.00968 0.58919 0.93433
 C3659 C -0.00926 0.57244 0.94158
 C3660 C -0.00069 0.56925 0.95761
 C3661 C 0.00766 0.58315 0.96604
 C3662 C 0.00727 0.59987 0.95877
 H3663 H 0.03452 0.68370 0.91947
 H3664 H 0.03544 0.65473 0.93185
 H3665 H -0.02089 0.65216 0.92775
 H3666 H -0.02210 0.68066 0.91442
 H3667 H 0.02030 0.63037 0.94605
 H3668 H -0.01333 0.62321 0.92577
 H3669 H -0.01656 0.59132 0.92208
 H3670 H -0.01591 0.56209 0.93476
 H3671 H 0.01426 0.58122 0.97847
 H3672 H 0.01334 0.61029 0.96599
 C3673 C 0.23904 0.68373 0.93429
 C3674 C 0.23901 0.69292 0.91847
 C3675 C 0.24783 0.68607 0.90371
 C3676 C 0.25740 0.67021 0.90530
 C3677 C 0.25744 0.66106 0.92107
 C3678 C 0.24804 0.66756 0.93566
 C3679 C 0.24702 0.69583 0.88699
 C3680 C 0.24837 0.68790 0.87130
 C3681 C 0.24798 0.69716 0.85427
 C3682 C 0.25477 0.68838 0.83948
 C3683 C 0.25488 0.69648 0.82312
 C3684 C 0.24806 0.71356 0.82112
 C3685 C 0.24091 0.72226 0.83586
 C3686 C 0.24083 0.71415 0.85226
 H3687 H 0.23163 0.68904 0.94528
 H3688 H 0.23174 0.70521 0.91764
 H3689 H 0.26502 0.66489 0.89448
 H3690 H 0.26489 0.64887 0.92188
 H3691 H 0.24493 0.70982 0.88782
 H3692 H 0.25016 0.67384 0.87074
 H3693 H 0.26021 0.67523 0.84060
 H3694 H 0.26042 0.68933 0.81207
 H3695 H 0.23541 0.73538 0.83477
 H3696 H 0.23496 0.72121 0.86316
 C3697 C 0.73795 0.15351 0.40976
 C3698 C 0.73633 0.16115 0.39326
 C3699 C 0.74262 0.17791 0.39019
 C3700 C 0.75068 0.18693 0.40403
 C3701 C 0.75234 0.17924 0.42058
 C3702 C 0.74611 0.16238 0.42358
 C3703 C 0.74136 0.18498 0.37218
 C3704 C 0.74188 0.20203 0.36833
 C3705 C 0.74105 0.20859 0.35009
 C3706 C 0.73473 0.22566 0.34701
 C3707 C 0.73420 0.23239 0.33000
 C3708 C 0.74018 0.22222 0.31569
 C3709 C 0.74657 0.20514 0.31882
 C3710 C 0.74708 0.19843 0.33579
 H3711 H 0.73271 0.14063 0.41171
 H3712 H 0.73011 0.15390 0.38284
 H3713 H 0.75616 0.19968 0.40206
 H3714 H 0.75889 0.18631 0.43091
 H3715 H 0.73927 0.17564 0.36174
 H3716 H 0.74223 0.21160 0.37879
 H3717 H 0.73018 0.23381 0.35782
 H3718 H 0.72930 0.24563 0.32810
 H3719 H 0.75147 0.19699 0.30817
 H3720 H 0.75263 0.18545 0.33766
 C3721 C 0.23628 0.31778 0.43010
 C3722 C 0.23577 0.30872 0.41415
 C3723 C 0.24809 0.31202 0.40094
 C3724 C 0.26091 0.32461 0.40391
 C3725 C 0.26121 0.33388 0.41971
 C3726 C 0.24884 0.33061 0.43290
 C3727 C 0.24649 0.30318 0.38377
 C3728 C 0.26035 0.29925 0.37353
 C3729 C 0.25841 0.29157 0.35585
 C3730 C 0.27111 0.27954 0.34957
 C3731 C 0.26963 0.27235 0.33275
 C3732 C 0.25566 0.27748 0.32176
 C3733 C 0.24315 0.28981 0.32795
 C3734 C 0.24445 0.29671 0.34485
 H3735 H 0.22652 0.31516 0.44004
 H3736 H 0.22568 0.29920 0.41207
 H3737 H 0.27032 0.32776 0.39383
 H3738 H 0.27102 0.34372 0.42161
 H3739 H 0.23348 0.29952 0.37961
 H3740 H 0.27353 0.30121 0.37837
 H3741 H 0.28209 0.27557 0.35776
 H3742 H 0.27952 0.26296 0.32826
 H3743 H 0.23225 0.29401 0.31977
 H3744 H 0.23471 0.30632 0.34918
 C3745 C 0.73954 0.81904 0.92826
 C3746 C 0.73966 0.81051 0.91200
 C3747 C 0.75234 0.81440 0.89931
 C3748 C 0.76490 0.82703 0.90314
 C3749 C 0.76456 0.83578 0.91924
 C3750 C 0.75183 0.83193 0.93190
 C3751 C 0.75136 0.80617 0.88179
 C3752 C 0.76556 0.80265 0.87186
 C3753 C 0.76415 0.79556 0.85388
 C3754 C 0.77680 0.78342 0.84768
 C3755 C 0.77564 0.77662 0.83067
 C3756 C 0.76208 0.78227 0.81941
 C3757 C 0.74972 0.79479 0.82549
 C3758 C 0.75066 0.80128 0.84258
 H3759 H 0.72952 0.81597 0.93778
 H3760 H 0.72976 0.80095 0.90926
 H3761 H 0.77459 0.83061 0.89348
 H3762 H 0.77417 0.84568 0.92179
 H3763 H 0.73851 0.80259 0.87706
 H3764 H 0.77857 0.80449 0.87718
 H3765 H 0.78742 0.77901 0.85611
 H3766 H 0.78541 0.76706 0.82626
 H3767 H 0.73911 0.79936 0.81712
 H3768 H 0.74098 0.81097 0.84687
 C3769 C 0.77150 0.83284 0.07792
 C3770 C 0.77252 0.82546 0.09464
 C3771 C 0.75740 0.81949 0.10304
 C3772 C 0.74116 0.82106 0.09434
 C3773 C 0.74014 0.82844 0.07764
 C3774 C 0.75526 0.83456 0.06930
 C3775 C 0.75897 0.81262 0.12115
 C3776 C 0.74719 0.80211 0.12848
 C3777 C 0.74869 0.79555 0.14668
 C3778 C 0.74039 0.78000 0.15106
 C3779 C 0.74136 0.77341 0.16809
 C3780 C 0.75051 0.78237 0.18123
 C3781 C 0.75853 0.79815 0.17693
 C3782 C 0.75761 0.80469 0.15986
 H3783 H 0.78334 0.83768 0.07198
 H3784 H 0.78517 0.82458 0.10110
 H3785 H 0.72910 0.81708 0.10050
 H3786 H 0.72745 0.82950 0.07130
 H3787 H 0.77064 0.81593 0.12842
 H3788 H 0.73641 0.79739 0.12070
 H3789 H 0.73325 0.77282 0.14122
 H3790 H 0.73493 0.76128 0.17094
 H3791 H 0.76557 0.80546 0.18674
 H3792 H 0.76366 0.81704 0.15716
 C3793 C 0.26914 0.33514 0.57866
 C3794 C 0.26988 0.32778 0.59540
 C3795 C 0.25461 0.32185 0.60355
 C3796 C 0.23849 0.32354 0.59464
 C3797 C 0.23775 0.33090 0.57793
 C3798 C 0.25304 0.33688 0.56979
 C3799 C 0.25586 0.31471 0.62156
 C3800 C 0.24412 0.30377 0.62826
 C3801 C 0.24526 0.29661 0.64624
 C3802 C 0.23704 0.28082 0.64980
 C3803 C 0.23764 0.27363 0.66658
 C3804 C 0.24632 0.28220 0.68030
 C3805 C 0.25427 0.29821 0.67682
 C3806 C 0.25375 0.30536 0.65998
 H3807 H 0.28110 0.33988 0.57286
 H3808 H 0.28242 0.32680 0.60204
 H3809 H 0.22633 0.31963 0.60063
 H3810 H 0.22516 0.33200 0.57140
 H3811 H 0.26727 0.31805 0.62921
 H3812 H 0.23366 0.29907 0.62003
 H3813 H 0.23025 0.27392 0.63951
 H3814 H 0.23125 0.26134 0.66878
 H3815 H 0.26096 0.30522 0.68710
 H3816 H 0.25974 0.31785 0.65789
 C3817 C 0.72658 0.16750 0.57125
 C3818 C 0.72565 0.17531 0.58784
 C3819 C 0.74074 0.18190 0.59581
 C3820 C 0.75686 0.18052 0.58677
 C3821 C 0.75778 0.17272 0.57021
 C3822 C 0.74270 0.16596 0.56233
 C3823 C 0.73936 0.18917 0.61383
 C3824 C 0.75102 0.20016 0.62066
 C3825 C 0.74999 0.20700 0.63885
 C3826 C 0.75842 0.22261 0.64283
 C3827 C 0.75812 0.22937 0.65986
 C3828 C 0.74951 0.22055 0.67341
 C3829 C 0.74127 0.20476 0.66948
 C3830 C 0.74153 0.19803 0.65241
 H3831 H 0.71478 0.16218 0.56565
 H3832 H 0.71311 0.17605 0.59457
 H3833 H 0.76891 0.18495 0.59259
 H3834 H 0.77038 0.17182 0.56362
 H3835 H 0.72799 0.18568 0.62148
 H3836 H 0.76144 0.20499 0.61248
 H3837 H 0.76520 0.22967 0.63268
 H3838 H 0.76469 0.24151 0.66239
 H3839 H 0.73462 0.19756 0.67961
 H3840 H 0.73539 0.18566 0.65001
 C3841 C 0.23902 0.65151 0.08791
 C3842 C 0.23997 0.65898 0.10459
 C3843 C 0.24813 0.67502 0.10714
 C3844 C 0.25513 0.68362 0.09251
 C3845 C 0.25415 0.67614 0.07579
 C3846 C 0.24607 0.66000 0.07330
 C3847 C 0.24852 0.68240 0.12513
 C3848 C 0.25993 0.69438 0.13052
 C3849 C 0.26015 0.70142 0.14866
 C3850 C 0.26717 0.71795 0.15163
 C3851 C 0.26744 0.72513 0.16851
 C3852 C 0.26081 0.71585 0.18284
 C3853 C 0.25416 0.69911 0.17992
 C3854 C 0.25390 0.69194 0.16306
 H3855 H 0.23294 0.63894 0.08650
 H3856 H 0.23442 0.65210 0.11559
 H3857 H 0.26103 0.69627 0.09378
 H3858 H 0.25942 0.68314 0.06474
 H3859 H 0.23902 0.67746 0.13431
 H3860 H 0.26935 0.69953 0.12139
 H3861 H 0.27225 0.72544 0.14081
 H3862 H 0.27275 0.73801 0.17027
 H3863 H 0.24917 0.69148 0.19067
 H3864 H 0.24904 0.67888 0.16148
 C3865 C 0.15529 0.58655 0.75475
 C3866 C 0.16268 0.60300 0.75592
 C3867 C 0.17938 0.60596 0.74896
 C3868 C 0.18858 0.59206 0.74065
 C3869 C 0.18113 0.57555 0.73940
 C3870 C 0.16434 0.57265 0.74634
 C3871 C 0.18631 0.62385 0.74998
 C3872 C 0.20346 0.62739 0.74949
 C3873 C 0.21006 0.64540 0.75074
 C3874 C 0.22692 0.64797 0.75751
 C3875 C 0.23363 0.66476 0.75877
 C3876 C 0.22369 0.67936 0.75305
 C3877 C 0.20688 0.67675 0.74606
 C3878 C 0.20015 0.65997 0.74488
 H3879 H 0.14247 0.58469 0.76051
 H3880 H 0.15531 0.61348 0.76236
 H3881 H 0.20128 0.59395 0.73467
 H3882 H 0.18831 0.56519 0.73262
 H3883 H 0.17683 0.63441 0.75211
 H3884 H 0.21309 0.61677 0.74912
 H3885 H 0.23488 0.63695 0.76196
 H3886 H 0.24669 0.66625 0.76410
 H3887 H 0.19892 0.68766 0.74138
 H3888 H 0.18733 0.65846 0.73904
 C3889 C 0.68712 0.07094 0.24247
 C3890 C 0.69567 0.08690 0.24363
 C3891 C 0.68666 0.10202 0.24942
 C3892 C 0.66908 0.10075 0.25471
 C3893 C 0.66050 0.08492 0.25349
 C3894 C 0.66921 0.06967 0.24710
 C3895 C 0.69597 0.11881 0.25014
 C3896 C 0.68753 0.13436 0.24901
 C3897 C 0.69637 0.15139 0.24944
 C3898 C 0.68744 0.16604 0.24255
 C3899 C 0.69510 0.18243 0.24276
 C3900 C 0.71187 0.18459 0.25002
 C3901 C 0.72071 0.16996 0.25722
 C3902 C 0.71304 0.15354 0.25697
 H3903 H 0.69450 0.05990 0.23718
 H3904 H 0.70930 0.08750 0.23962
 H3905 H 0.66193 0.11188 0.26016
 H3906 H 0.64715 0.08467 0.25833
 H3907 H 0.71017 0.11820 0.25064
 H3908 H 0.67349 0.13476 0.24678
 H3909 H 0.67451 0.16479 0.23684
 H3910 H 0.68786 0.19339 0.23716
 H3911 H 0.73359 0.17117 0.26303
 H3912 H 0.72012 0.14270 0.26292
 C3913 C 0.83737 0.08359 0.76624
 C3914 C 0.82907 0.10001 0.76541
 C3915 C 0.81577 0.10345 0.75310
 C3916 C 0.81047 0.08980 0.74200
 C3917 C 0.81878 0.07332 0.74285
 C3918 C 0.83249 0.07013 0.75481
 C3919 C 0.80797 0.12139 0.75245
 C3920 C 0.79857 0.12782 0.73897
 C3921 C 0.79171 0.14609 0.73860
 C3922 C 0.77624 0.14998 0.72931
 C3923 C 0.76925 0.16703 0.72898
 C3924 C 0.77778 0.18063 0.73774
 C3925 C 0.79361 0.17681 0.74655
 C3926 C 0.80051 0.15976 0.74696
 H3927 H 0.84766 0.08145 0.77581
 H3928 H 0.83328 0.11018 0.77428
 H3929 H 0.79996 0.09165 0.73265
 H3930 H 0.81476 0.06321 0.73385
 H3931 H 0.81053 0.12980 0.76355
 H3932 H 0.79548 0.11960 0.72790
 H3933 H 0.76936 0.13972 0.72256
 H3934 H 0.75710 0.16952 0.72197
 H3935 H 0.80061 0.18696 0.75332
 H3936 H 0.81284 0.15740 0.75367
 C3937 C 0.34345 0.57569 0.27174
 C3938 C 0.33598 0.59252 0.27175
 C3939 C 0.32261 0.59709 0.25988
 C3940 C 0.31630 0.58417 0.24844
 C3941 C 0.32376 0.56730 0.24847
 C3942 C 0.33761 0.56297 0.25992
 C3943 C 0.31570 0.61538 0.26003
 C3944 C 0.30711 0.62287 0.24657
 C3945 C 0.30088 0.64135 0.24684
 C3946 C 0.28614 0.64617 0.23682
 C3947 C 0.27975 0.66343 0.23689
 C3948 C 0.28814 0.67632 0.24680
 C3949 C 0.30323 0.67158 0.25642
 C3950 C 0.30955 0.65429 0.25644
 H3951 H 0.35387 0.57266 0.28095
 H3952 H 0.34092 0.60210 0.28087
 H3953 H 0.30562 0.58693 0.23949
 H3954 H 0.31900 0.55777 0.23921
 H3955 H 0.31829 0.62307 0.27164
 H3956 H 0.30422 0.61533 0.23496
 H3957 H 0.27938 0.63649 0.22913
 H3958 H 0.26818 0.66663 0.22921
 H3959 H 0.31009 0.68119 0.26410
 H3960 H 0.32133 0.65121 0.26381
 C3961 C 0.33210 0.41619 0.23656
 C3962 C 0.32424 0.39987 0.23593
 C3963 C 0.31819 0.39196 0.25130
 C3964 C 0.32014 0.40079 0.26738
 C3965 C 0.32799 0.41710 0.26800
 C3966 C 0.33421 0.42492 0.25263
 C3967 C 0.31082 0.37421 0.25010
 C3968 C 0.30046 0.36735 0.26241
 C3969 C 0.29336 0.34951 0.26118
 C3970 C 0.27789 0.34581 0.27031
 C3971 C 0.27072 0.32919 0.26947
 C3972 C 0.27900 0.31578 0.25962
 C3973 C 0.29476 0.31937 0.25083
 C3974 C 0.30188 0.33602 0.25162
 H3975 H 0.33700 0.42172 0.22451
 H3976 H 0.32306 0.39331 0.22339
 H3977 H 0.31611 0.39502 0.27961
 H3978 H 0.32932 0.42354 0.28058
 H3979 H 0.31364 0.36681 0.23826
 H3980 H 0.29622 0.37528 0.27347
 H3981 H 0.27118 0.35589 0.27795
 H3982 H 0.25863 0.32689 0.27650
 H3983 H 0.30158 0.30933 0.24323
 H3984 H 0.31416 0.33816 0.24491
 C3985 C 0.81589 0.93175 0.74939
 C3986 C 0.80715 0.91588 0.74999
 C3987 C 0.81576 0.90066 0.75604
 C3988 C 0.83325 0.90171 0.76181
 C3989 C 0.84197 0.91753 0.76118
 C3990 C 0.83341 0.93276 0.75501
 C3991 C 0.80602 0.88409 0.75657
 C3992 C 0.81402 0.86828 0.75636
 C3993 C 0.80455 0.85157 0.75648
 C3994 C 0.81329 0.83651 0.75011
 C3995 C 0.80497 0.82047 0.74985
 C3996 C 0.78770 0.81903 0.75614
 C3997 C 0.77906 0.83403 0.76294
 C3998 C 0.78739 0.85013 0.76314
 H3999 H 0.80884 0.94329 0.74481
 H4000 H 0.79363 0.91549 0.74564
 H4001 H 0.84022 0.89047 0.76711
 H4002 H 0.85551 0.91780 0.76547
 H4003 H 0.79183 0.88506 0.75621
 H4004 H 0.82816 0.86735 0.75502
 H4005 H 0.82658 0.83720 0.74509
 H4006 H 0.81209 0.80919 0.74462
 H4007 H 0.76580 0.83337 0.76800
 H4008 H 0.78042 0.86130 0.76870
 C4009 C 0.65478 0.91638 0.24424
 C4010 C 0.66221 0.89957 0.24499
 C4011 C 0.67998 0.89699 0.24924
 C4012 C 0.69013 0.91163 0.25323
 C4013 C 0.68265 0.92849 0.25256
 C4014 C 0.66494 0.93104 0.24791
 C4015 C 0.68722 0.87886 0.24980
 C4016 C 0.70430 0.87476 0.24753
 C4017 C 0.71136 0.85654 0.24748
 C4018 C 0.72731 0.85285 0.23885
 C4019 C 0.73454 0.83591 0.23864
 C4020 C 0.72603 0.82224 0.24721
 C4021 C 0.71011 0.82596 0.25598
 C4022 C 0.70289 0.84291 0.25618
 H4023 H 0.64100 0.91791 0.24096
 H4024 H 0.65405 0.88852 0.24209
 H4025 H 0.70373 0.91015 0.25710
 H4026 H 0.69078 0.93954 0.25548
 H4027 H 0.67787 0.86851 0.25105
 H4028 H 0.71341 0.88499 0.24459
 H4029 H 0.73418 0.86312 0.23217
 H4030 H 0.74686 0.83357 0.23183
 H4031 H 0.70329 0.81582 0.26289
 H4032 H 0.69088 0.84529 0.26348
 C4033 C 0.18742 0.43243 0.75087
 C4034 C 0.19633 0.41623 0.75107
 C4035 C 0.18800 0.40104 0.74541
 C4036 C 0.17063 0.40245 0.73922
 C4037 C 0.16175 0.41860 0.73902
 C4038 C 0.17003 0.43379 0.74479
 C4039 C 0.19794 0.38413 0.74557
 C4040 C 0.19011 0.36862 0.74633
 C4041 C 0.19973 0.35155 0.74634
 C4042 C 0.19115 0.33691 0.75285
 C4043 C 0.19949 0.32047 0.75281
 C4044 C 0.21660 0.31822 0.74609
 C4045 C 0.22514 0.33286 0.73938
 C4046 C 0.21680 0.34933 0.73946
 H4047 H 0.19424 0.44392 0.75518
 H4048 H 0.20977 0.41555 0.75571
 H4049 H 0.16390 0.39120 0.73421
 H4050 H 0.14831 0.41916 0.73440
 H4051 H 0.21212 0.38463 0.74584
 H4052 H 0.17598 0.36827 0.74778
 H4053 H 0.17794 0.33820 0.75807
 H4054 H 0.19246 0.30951 0.75803
 H4055 H 0.23828 0.33160 0.73399
 H4056 H 0.22367 0.36016 0.73381
 C4057 C 0.08284 0.77176 0.83803
 C4058 C 0.09952 0.77090 0.83042
 C4059 C 0.10465 0.75671 0.81971
 C4060 C 0.09245 0.74350 0.81648
 C4061 C 0.07569 0.74445 0.82402
 C4062 C 0.07082 0.75844 0.83509
 C4063 C 0.12301 0.75598 0.81305
 C4064 C 0.12918 0.74455 0.80101
 C4065 C 0.14774 0.74411 0.79500
 C4066 C 0.15173 0.73735 0.77831
 C4067 C 0.16901 0.73699 0.77208
 C4068 C 0.18275 0.74327 0.78249
 C4069 C 0.17882 0.74956 0.79942
 C4070 C 0.16154 0.74991 0.80565
 H4071 H 0.07938 0.78279 0.84638
 H4072 H 0.10857 0.78127 0.83315
 H4073 H 0.09581 0.73214 0.80862
 H4074 H 0.06676 0.73387 0.82174
 H4075 H 0.13177 0.76567 0.81820
 H4076 H 0.12038 0.73569 0.79462
 H4077 H 0.14139 0.73258 0.76994
 H4078 H 0.17154 0.73198 0.75900
 H4079 H 0.18908 0.75430 0.80789
 H4080 H 0.15914 0.75455 0.81886
 C4081 C 0.57801 0.27551 0.33822
 C4082 C 0.59415 0.27581 0.32953
 C4083 C 0.59786 0.26429 0.31559
 C4084 C 0.58468 0.25291 0.31001
 C4085 C 0.56849 0.25263 0.31870
 C4086 C 0.56509 0.26373 0.33309
 C4087 C 0.61558 0.26466 0.30743
 C4088 C 0.62262 0.25159 0.29775
 C4089 C 0.64071 0.25187 0.29055
 C4090 C 0.64464 0.24213 0.27537
 C4091 C 0.66160 0.24184 0.26832
 C4092 C 0.67511 0.25109 0.27646
 C4093 C 0.67124 0.26060 0.29185
 C4094 C 0.65425 0.26098 0.29884
 H4095 H 0.57566 0.28447 0.34904
 H4096 H 0.60393 0.28488 0.33397
 H4097 H 0.58670 0.24420 0.29897
 H4098 H 0.55881 0.24340 0.31444
 H4099 H 0.62330 0.27607 0.31005
 H4100 H 0.61502 0.24021 0.29478
 H4101 H 0.63451 0.23482 0.26887
 H4102 H 0.66412 0.23427 0.25651
 H4103 H 0.68135 0.26779 0.29853
 H4104 H 0.65191 0.26813 0.31091
 C4105 C 0.59006 0.72987 0.16561
 C4106 C 0.60625 0.73012 0.17413
 C4107 C 0.60955 0.74257 0.18720
 C4108 C 0.59592 0.75437 0.19211
 C4109 C 0.57965 0.75407 0.18359
 C4110 C 0.57666 0.74201 0.17005
 C4111 C 0.62739 0.74270 0.19504
 C4112 C 0.63390 0.75609 0.20418
 C4113 C 0.65229 0.75611 0.21056
 C4114 C 0.65633 0.76565 0.22571
 C4115 C 0.67357 0.76591 0.23203
 C4116 C 0.68719 0.75683 0.22314
 C4117 C 0.68317 0.74766 0.20770
 C4118 C 0.66596 0.74733 0.20147
 H4119 H 0.58804 0.72020 0.15546
 H4120 H 0.61640 0.72073 0.17021
 H4121 H 0.59764 0.76387 0.20243
 H4122 H 0.56956 0.76360 0.18728
 H4123 H 0.63574 0.73132 0.19257
 H4124 H 0.62574 0.76744 0.20723
 H4125 H 0.64607 0.77274 0.23281
 H4126 H 0.67620 0.77321 0.24389
 H4127 H 0.69333 0.74063 0.20042
 H4128 H 0.66350 0.74040 0.18936
 C4129 C 0.06801 0.25912 0.68751
 C4130 C 0.08393 0.26026 0.69653
 C4131 C 0.09893 0.25103 0.69067
 C4132 C 0.09751 0.24000 0.67602
 C4133 C 0.08163 0.23875 0.66703
 C4134 C 0.06652 0.24846 0.67241
 C4135 C 0.11571 0.25286 0.70028
 C4136 C 0.13140 0.25110 0.69234
 C4137 C 0.14866 0.25218 0.70128
 C4138 C 0.16366 0.24649 0.69198
 C4139 C 0.18026 0.24687 0.69965
 C4140 C 0.18236 0.25305 0.71688
 C4141 C 0.16741 0.25906 0.72616
 C4142 C 0.15073 0.25865 0.71846
 H4143 H 0.05682 0.26628 0.69286
 H4144 H 0.08458 0.26855 0.70804
 H4145 H 0.10864 0.23220 0.67143
 H4146 H 0.08168 0.23069 0.65537
 H4147 H 0.11487 0.25604 0.71407
 H4148 H 0.13177 0.24848 0.67838
 H4149 H 0.16253 0.24154 0.67871
 H4150 H 0.19145 0.24220 0.69204
 H4151 H 0.16856 0.26400 0.73942
 H4152 H 0.13966 0.26355 0.72603
 C4153 C 0.92922 0.24064 0.68280
 C4154 C 0.91305 0.23985 0.69146
 C4155 C 0.89809 0.24840 0.68463
 C4156 C 0.89977 0.25836 0.66927
 C4157 C 0.91592 0.25918 0.66065
 C4158 C 0.93080 0.25017 0.66719
 C4159 C 0.88110 0.24700 0.69400
 C4160 C 0.86553 0.24830 0.68583
 C4161 C 0.84823 0.24737 0.69474
 C4162 C 0.83334 0.25371 0.68578
 C4163 C 0.81673 0.25337 0.69351
 C4164 C 0.81454 0.24655 0.71044
 C4165 C 0.82939 0.23987 0.71933
 C4166 C 0.84605 0.24023 0.71157
 H4167 H 0.94038 0.23344 0.68812
 H4168 H 0.91215 0.23225 0.70336
 H4169 H 0.88874 0.26575 0.66399
 H4170 H 0.91681 0.26700 0.64890
 H4171 H 0.88167 0.24453 0.70793
 H4172 H 0.86527 0.25044 0.67181
 H4173 H 0.83457 0.25914 0.67276
 H4174 H 0.80561 0.25856 0.68621
 H4175 H 0.82816 0.23440 0.73233
 H4176 H 0.85704 0.23472 0.71878
 C4177 C 0.42931 0.76534 0.16771
 C4178 C 0.41258 0.76589 0.17532
 C4179 C 0.40469 0.75050 0.18098
 C4180 C 0.41392 0.73449 0.17882
 C4181 C 0.43062 0.73396 0.17123
 C4182 C 0.43845 0.74934 0.16543
 C4183 C 0.38659 0.75154 0.18824
 C4184 C 0.37990 0.73924 0.19863
 C4185 C 0.36175 0.74008 0.20569
 C4186 C 0.35803 0.73075 0.22098
 C4187 C 0.34110 0.73105 0.22807
 C4188 C 0.32740 0.74056 0.21989
 C4189 C 0.33103 0.74961 0.20434
 C4190 C 0.34801 0.74936 0.19729
 H4191 H 0.43488 0.77739 0.16314
 H4192 H 0.40570 0.77837 0.17667
 H4193 H 0.40818 0.72226 0.18251
 H4194 H 0.43737 0.72143 0.16977
 H4195 H 0.37882 0.76319 0.18537
 H4196 H 0.38821 0.72843 0.20290
 H4197 H 0.36831 0.72332 0.22759
 H4198 H 0.33879 0.72385 0.24000
 H4199 H 0.32078 0.75698 0.19764
 H4200 H 0.35021 0.75623 0.18516
 C4201 C 0.41113 0.25659 0.35145
 C4202 C 0.39429 0.25569 0.34435
 C4203 C 0.39191 0.25176 0.32656
 C4204 C 0.40682 0.24825 0.31604
 C4205 C 0.42372 0.24909 0.32318
 C4206 C 0.42605 0.25342 0.34093
 C4207 C 0.37370 0.25099 0.31974
 C4208 C 0.36946 0.25307 0.30280
 C4209 C 0.35112 0.25279 0.29620
 C4210 C 0.34719 0.26087 0.28016
 C4211 C 0.33017 0.26069 0.27333
 C4212 C 0.31665 0.25230 0.28235
 C4213 C 0.32060 0.24415 0.29840
 C4214 C 0.33763 0.24430 0.30521
 H4215 H 0.41248 0.25960 0.36526
 H4216 H 0.38306 0.25821 0.35281
 H4217 H 0.40554 0.24464 0.30239
 H4218 H 0.43496 0.24655 0.31477
 H4219 H 0.36335 0.24968 0.32935
 H4220 H 0.37964 0.25601 0.29341
 H4221 H 0.35734 0.26739 0.27288
 H4222 H 0.32764 0.26706 0.26091
 H4223 H 0.31058 0.23740 0.30563
 H4224 H 0.34017 0.23741 0.31731
 C4225 C 0.91599 0.75783 0.84942
 C4226 C 0.89926 0.75738 0.84202
 C4227 C 0.89704 0.75265 0.82440
 C4228 C 0.91198 0.74788 0.81439
 C4229 C 0.92876 0.74825 0.82185
 C4230 C 0.93095 0.75339 0.83940
 C4231 C 0.87893 0.75237 0.81728
 C4232 C 0.87508 0.75379 0.80018
 C4233 C 0.85681 0.75400 0.79339
 C4234 C 0.85328 0.76185 0.77714
 C4235 C 0.83625 0.76221 0.77026
 C4236 C 0.82237 0.75458 0.77944
 C4237 C 0.82596 0.74659 0.79565
 C4238 C 0.84296 0.74622 0.80250
 H4239 H 0.91720 0.76151 0.86308
 H4240 H 0.88798 0.76088 0.85010
 H4241 H 0.91078 0.74364 0.80092
 H4242 H 0.94006 0.74472 0.81383
 H4243 H 0.86835 0.75200 0.82675
 H4244 H 0.88553 0.75583 0.79082
 H4245 H 0.86371 0.76781 0.76978
 H4246 H 0.83401 0.76841 0.75770
 H4247 H 0.81565 0.74041 0.80300
 H4248 H 0.84519 0.73949 0.81476
   
