data_POSCAR
  _audit_creation_date              2014-09-24
  _audit_creation_method            'ToBaCCo'
  _symmetry_space_group_name_H-M    'P1'
  _symmetry_Int_Tables_number       1
  _symmetry_cell_setting            triclinic
  loop_
  _symmetry_equiv_pos_as_xyz
 x,y,z
_cell_length_a 84.6051
_cell_length_b 83.7610
_cell_length_c 87.3666
_cell_angle_alpha 89.572300
_cell_angle_beta 90.073300
_cell_angle_gamma 89.676900
loop_
  _atom_site_label
  _atom_site_type_symbol
  _atom_site_fract_x
  _atom_site_fract_y
  _atom_site_fract_z
C1 C 0.28671 0.45144 0.92914
 C2 C 0.28815 0.43823 0.93897
 C3 C 0.30007 0.43756 0.94990
 C4 C 0.31080 0.45040 0.95107
 C5 C 0.30902 0.46350 0.94142
 C6 C 0.29701 0.46402 0.93048
 C7 C 0.27761 0.45431 0.91630
 N8 N 0.28234 0.46832 0.90984
 C9 C 0.29406 0.47440 0.91857
 C10 C 0.32138 0.47359 0.94390
 N11 N 0.33091 0.46714 0.95477
 C12 C 0.32457 0.45292 0.95936
 C13 C 0.29885 0.42278 0.95707
 N14 N 0.28653 0.41474 0.95070
 C15 C 0.28008 0.42410 0.93961
 H16 H 0.26884 0.44634 0.91167
 H17 H 0.30072 0.48504 0.91580
 H18 H 0.32361 0.48463 0.93776
 H19 H 0.32975 0.44474 0.96761
 H20 H 0.30653 0.41822 0.96602
 H21 H 0.27025 0.42076 0.93239
 C22 C 0.43842 0.84408 0.43812
 C23 C 0.42631 0.83282 0.43937
 C24 C 0.42585 0.81996 0.42955
 C25 C 0.43762 0.81819 0.41833
 C26 C 0.44958 0.82934 0.41713
 C27 C 0.44996 0.84239 0.42707
 C28 C 0.44141 0.85802 0.44578
 N29 N 0.45451 0.86490 0.43961
 C30 C 0.45980 0.85537 0.42817
 C31 C 0.45904 0.82494 0.40506
 N32 N 0.45313 0.81136 0.39888
 C33 C 0.44004 0.80717 0.40692
 C34 C 0.41251 0.81133 0.43315
 N35 N 0.40492 0.81870 0.44492
 C36 C 0.41332 0.83181 0.44877
 H37 H 0.43425 0.86277 0.45494
 H38 H 0.46995 0.85783 0.42100
 H39 H 0.46929 0.83137 0.40106
 H40 H 0.43271 0.79694 0.40450
 H41 H 0.40867 0.80058 0.42750
 H42 H 0.41008 0.84014 0.45767
 C43 C 0.93426 0.93044 0.80615
 C44 C 0.92098 0.94061 0.80651
 C45 C 0.91910 0.95121 0.81848
 C46 C 0.93040 0.95179 0.83023
 C47 C 0.94341 0.94177 0.82983
 C48 C 0.94535 0.93108 0.81775
 C49 C 0.93898 0.91847 0.79637
 N50 N 0.95264 0.91187 0.80188
 C51 C 0.95656 0.91957 0.81493
 C52 C 0.95205 0.94433 0.84288
 N53 N 0.94460 0.95571 0.85130
 C54 C 0.93136 0.96035 0.84360
 C55 C 0.90498 0.95910 0.81620
 N56 N 0.89820 0.95358 0.80321
 C57 C 0.90791 0.94224 0.79718
 H58 H 0.93265 0.91476 0.78625
 H59 H 0.96673 0.91680 0.82204
 H60 H 0.96281 0.93805 0.84595
 H61 H 0.92288 0.96912 0.84757
 H62 H 0.89985 0.96805 0.82361
 H63 H 0.90565 0.93546 0.78693
 C64 C 0.44902 -0.05815 0.29374
 C65 C 0.43805 -0.04568 0.29505
 C66 C 0.43929 -0.03497 0.30692
 C67 C 0.45148 -0.03663 0.31766
 C68 C 0.46230 -0.04899 0.31648
 C69 C 0.46108 -0.05985 0.30435
 C70 C 0.44983 -0.07097 0.28406
 N71 N 0.46210 -0.08044 0.28844
 C72 C 0.46909 -0.07372 0.30088
 C73 C 0.47176 -0.04849 0.32935
 N74 N 0.46692 -0.03613 0.33819
 C75 C 0.45449 -0.02885 0.33110
 C76 C 0.42625 -0.02512 0.30625
 N77 N 0.41708 -0.02969 0.29435
 C78 C 0.42426 -0.04222 0.28735
 H79 H 0.44178 -0.07347 0.27473
 H80 H 0.47887 -0.07867 0.30736
 H81 H 0.48108 -0.05686 0.33235
 H82 H 0.44751 -0.01912 0.33562
 H83 H 0.42323 -0.01583 0.31431
 H84 H 0.41961 -0.04882 0.27777
 C85 C 0.78439 0.28710 0.31656
 C86 C 0.78614 0.30005 0.30654
 C87 C 0.79986 0.30182 0.29813
 C88 C 0.81200 0.29035 0.29952
 C89 C 0.81021 0.27748 0.30942
 C90 C 0.79633 0.27589 0.31805
 C91 C 0.77311 0.28367 0.32734
 N92 N 0.77795 0.27067 0.33549
 C93 C 0.79205 0.26571 0.32977
 C94 C 0.82413 0.26893 0.30927
 N95 N 0.83431 0.27616 0.29949
 C96 C 0.82702 0.28933 0.29350
 C97 C 0.79871 0.31634 0.29057
 N98 N 0.78463 0.32322 0.29430
 C99 C 0.77691 0.31329 0.30398
 H100 H 0.76252 0.29061 0.32942
 H101 H 0.79912 0.25601 0.33444
 H102 H 0.82679 0.25835 0.31601
 H103 H 0.83227 0.29784 0.28569
 H104 H 0.80766 0.32159 0.28331
 H105 H 0.76560 0.31584 0.30927
 C106 C -0.19353 0.80031 0.79335
 C107 C -0.18068 0.78969 0.79260
 C108 C -0.17938 0.77735 0.80313
 C109 C -0.19077 0.77553 0.81461
 C110 C -0.20335 0.78609 0.81546
 C111 C -0.20478 0.79853 0.80471
 C112 C -0.19719 0.81407 0.78537
 N113 N -0.21042 0.82069 0.79162
 C114 C -0.21509 0.81124 0.80345
 C115 C -0.21145 0.78259 0.82871
 N116 N -0.20398 0.77019 0.83593
 C117 C -0.19143 0.76575 0.82728
 C118 C -0.16511 0.76990 0.80068
 N119 N -0.15764 0.77744 0.78900
 C120 C -0.16710 0.78956 0.78391
 H121 H -0.19034 0.81896 0.77604
 H122 H -0.22504 0.81366 0.81088
 H123 H -0.22153 0.78917 0.83297
 H124 H -0.18287 0.75662 0.83041
 H125 H -0.16016 0.76015 0.80738
 H126 H -0.16420 0.79805 0.77499
 C127 C 0.94000 0.32623 0.43993
 C128 C 0.94013 0.31750 0.42627
 C129 C 0.92837 0.30645 0.42338
 C130 C 0.91625 0.30401 0.43415
 C131 C 0.91629 0.31261 0.44761
 C132 C 0.92813 0.32376 0.45048
 C133 C 0.94955 0.33810 0.44563
 N134 N 0.94359 0.34288 0.45936
 C135 C 0.93052 0.33410 0.46236
 C136 C 0.90338 0.30804 0.45596
 N137 N 0.89533 0.29694 0.44797
 C138 C 0.90305 0.29432 0.43455
 C139 C 0.93150 0.29995 0.40924
 N140 N 0.94484 0.30678 0.40355
 C141 C 0.95012 0.31755 0.41387
 H142 H 0.95977 0.34302 0.43991
 H143 H 0.92310 0.33537 0.47238
 H144 H 0.89999 0.31254 0.46708
 H145 H 0.89947 0.28598 0.42583
 H146 H 0.92444 0.29104 0.40357
 H147 H 0.96052 0.32488 0.41244
 C148 C 0.45636 0.43824 0.82765
 C149 C 0.45985 0.42883 0.81491
 C150 C 0.45017 0.42942 0.80222
 C151 C 0.43683 0.43936 0.80210
 C152 C 0.43322 0.44866 0.81469
 C153 C 0.44317 0.44812 0.82766
 C154 C 0.46351 0.43944 0.84168
 N155 N 0.45515 0.44984 0.85035
 C156 C 0.44261 0.45525 0.84189
 C157 C 0.41901 0.45626 0.81145
 N158 N 0.41413 0.45168 0.79727
 C159 C 0.42498 0.44140 0.79156
 C160 C 0.45572 0.41828 0.79205
 N161 N 0.46848 0.41085 0.79831
 C162 C 0.47117 0.41729 0.81231
 H163 H 0.47403 0.43306 0.84539
 H164 H 0.43362 0.46353 0.84572
 H165 H 0.41261 0.46413 0.81903
 H166 H 0.42408 0.43550 0.78061
 H167 H 0.45045 0.41529 0.78114
 H168 H 0.48026 0.41358 0.82030
 C169 C 0.80935 0.91587 0.91989
 C170 C 0.80991 0.92742 0.90823
 C171 C 0.82154 0.93885 0.90834
 C172 C 0.83278 0.93894 0.92008
 C173 C 0.83238 0.92758 0.93168
 C174 C 0.82045 0.91583 0.93158
 C175 C 0.79949 0.90316 0.92226
 N176 N 0.80416 0.89523 0.93509
 C177 C 0.81701 0.90288 0.94093
 C178 C 0.84512 0.93066 0.94117
 N179 N 0.85306 0.94354 0.93545
 C180 C 0.84553 0.94857 0.92259
 C181 C 0.81955 0.94819 0.89548
 N182 N 0.80699 0.94268 0.88751
 C183 C 0.80097 0.92994 0.89525
 H184 H 0.78966 0.89980 0.91503
 H185 H 0.82355 0.89933 0.95106
 H186 H 0.84835 0.92388 0.95130
 H187 H 0.84916 0.95853 0.91545
 H188 H 0.82687 0.95815 0.89200
 H189 H 0.79101 0.92281 0.89171
 C190 C 0.30808 0.82163 0.31236
 C191 C 0.30568 0.80825 0.32193
 C192 C 0.31688 0.79616 0.32232
 C193 C 0.33066 0.79730 0.31362
 C194 C 0.33318 0.81048 0.30440
 C195 C 0.32173 0.82267 0.30365
 C196 C 0.29940 0.83536 0.30956
 N197 N 0.30746 0.84460 0.29931
 C198 C 0.32112 0.83691 0.29575
 C199 C 0.34804 0.80876 0.29813
 N200 N 0.35450 0.79486 0.30346
 C201 C 0.34388 0.78777 0.31284
 C202 C 0.31208 0.78502 0.33284
 N203 N 0.29833 0.79001 0.33912
 C204 C 0.29419 0.80423 0.33252
 H205 H 0.28810 0.83823 0.31465
 H206 H 0.33002 0.84138 0.28794
 H207 H 0.35374 0.81720 0.29054
 H208 H 0.34587 0.77670 0.31906
 H209 H 0.31847 0.77430 0.33618
 H210 H 0.28386 0.81126 0.33540
 C211 C 0.80279 0.42757 0.43732
 C212 C 0.80108 0.43996 0.42647
 C213 C 0.81104 0.45300 0.42700
 C214 C 0.82287 0.45383 0.43814
 C215 C 0.82460 0.44166 0.44874
 C216 C 0.81451 0.42847 0.44835
 C217 C 0.79545 0.41302 0.43930
 N218 N 0.80248 0.40522 0.45125
 C219 C 0.81417 0.41456 0.45675
 C220 C 0.83777 0.44497 0.45735
 N221 N 0.84416 0.45887 0.45210
 C222 C 0.83503 0.46438 0.44040
 C223 C 0.80751 0.46267 0.41473
 N224 N 0.79573 0.45587 0.40661
 C225 C 0.79163 0.44195 0.41369
 H226 H 0.78602 0.40839 0.43227
 H227 H 0.82202 0.41134 0.46609
 H228 H 0.84255 0.43733 0.46626
 H229 H 0.83743 0.47498 0.43363
 H230 H 0.81347 0.47362 0.41159
 H231 H 0.78278 0.43368 0.40973
 C232 C 0.94938 0.81912 -0.06316
 C233 C 0.93641 0.80895 -0.06225
 C234 C 0.93280 0.79901 -0.07427
 C235 C 0.94227 0.79915 -0.08747
 C236 C 0.95515 0.80928 -0.08840
 C237 C 0.95873 0.81942 -0.07611
 C238 C 0.95477 0.83058 -0.05341
 N239 N 0.96727 0.83802 -0.06002
 C240 C 0.96980 0.83127 -0.07393
 C241 C 0.96178 0.80724 -0.10267
 N242 N 0.95325 0.79611 -0.11039
 C243 C 0.94131 0.79116 -0.10114
 C244 C 0.91905 0.79118 -0.07038
 N245 N 0.91439 0.79626 -0.05630
 C246 C 0.92495 0.80712 -0.05131
 H247 H 0.94944 0.83355 -0.04256
 H248 H 0.97872 0.83504 -0.08203
 H249 H 0.97195 0.81359 -0.10696
 H250 H 0.93246 0.78246 -0.10420
 H251 H 0.91276 0.78283 -0.07750
 H252 H 0.92413 0.81350 -0.04060
 C253 C 0.31566 0.31690 0.82528
 C254 C 0.31570 0.30464 0.83631
 C255 C 0.32820 0.29403 0.83703
 C256 C 0.34084 0.29552 0.82683
 C257 C 0.34096 0.30765 0.81597
 C258 C 0.32817 0.31845 0.81516
 C259 C 0.30518 0.32908 0.82223
 N260 N 0.31089 0.33804 0.81052
 C261 C 0.32499 0.33166 0.80609
 C262 C 0.35507 0.30632 0.80810
 N263 N 0.36331 0.29368 0.81401
 C264 C 0.35466 0.28707 0.82540
 C265 C 0.32552 0.28386 0.84915
 N266 N 0.31169 0.28806 0.85588
 C267 C 0.30554 0.30077 0.84806
 H268 H 0.29419 0.33137 0.82819
 H269 H 0.33249 0.33627 0.79709
 H270 H 0.35899 0.31402 0.79888
 H271 H 0.35829 0.27690 0.83232
 H272 H 0.33327 0.27434 0.85308
 H273 H 0.29474 0.30707 0.85084
 C274 C 0.18271 0.55925 0.55033
 C275 C 0.19590 0.56879 0.54764
 C276 C 0.20741 0.57030 0.55872
 C277 C 0.20593 0.56200 0.57264
 C278 C 0.19289 0.55239 0.57534
 C279 C 0.18102 0.55114 0.56408
 C280 C 0.16936 0.55683 0.54183
 N281 N 0.15937 0.54753 0.54997
 C282 C 0.16635 0.54387 0.56364
 C283 C 0.19457 0.54623 0.58997
 N284 N 0.20825 0.55189 0.59607
 C285 C 0.21514 0.56163 0.58560
 C286 C 0.21805 0.58146 0.55342
 N287 N 0.21311 0.58668 0.53940
 C288 C 0.19965 0.57889 0.53579
 H289 H 0.16683 0.56192 0.53065
 H290 H 0.16110 0.53684 0.57272
 H291 H 0.18631 0.53846 0.59577
 H292 H 0.22611 0.56797 0.58731
 H293 H 0.22820 0.58582 0.55961
 H294 H 0.19266 0.58105 0.52558
 C295 C 0.57731 0.69737 0.05436
 C296 C 0.56472 0.68638 0.05530
 C297 C 0.55286 0.68871 0.06604
 C298 C 0.55325 0.70189 0.07583
 C299 C 0.56538 0.71272 0.07466
 C300 C 0.57739 0.71047 0.06395
 C301 C 0.59132 0.69794 0.04613
 N302 N 0.59959 0.71103 0.05065
 C303 C 0.59107 0.71870 0.06144
 C304 C 0.56350 0.72365 0.08615
 N305 N 0.55059 0.71964 0.09443
 C306 C 0.54412 0.70636 0.08816
 C307 C 0.54264 0.67610 0.06506
 N308 N 0.54773 0.66615 0.05394
 C309 C 0.56129 0.67224 0.04789
 H310 H 0.59528 0.68928 0.03783
 H311 H 0.59485 0.72928 0.06745
 H312 H 0.57141 0.73338 0.08878
 H313 H 0.53391 0.70006 0.09247
 H314 H 0.53224 0.67422 0.07204
 H315 H 0.56831 0.66673 0.03901
 C316 C 0.69646 0.19379 0.67290
 C317 C 0.68768 0.19349 0.68645
 C318 C 0.68724 0.17982 0.69539
 C319 C 0.69582 0.16624 0.69089
 C320 C 0.70459 0.16655 0.67750
 C321 C 0.70486 0.18045 0.66838
 C322 C 0.69812 0.20524 0.66171
 N323 N 0.70732 0.19926 0.65041
 C324 C 0.71157 0.18407 0.65437
 C325 C 0.71139 0.15167 0.67591
 N326 N 0.70700 0.14236 0.68796
 C327 C 0.69745 0.15119 0.69718
 C328 C 0.67710 0.18287 0.70741
 N329 N 0.67150 0.19807 0.70584
 C330 C 0.67798 0.20460 0.69311
 H331 H 0.69268 0.21698 0.66158
 H332 H 0.71856 0.17603 0.64748
 H333 H 0.71896 0.14785 0.66664
 H334 H 0.69206 0.14713 0.70771
 H335 H 0.67393 0.17457 0.71643
 H336 H 0.67546 0.21650 0.68879
 C337 C 1.07815 0.06588 0.19577
 C338 C 1.06683 0.07798 0.19325
 C339 C 1.05655 0.07699 0.18093
 C340 C 1.05741 0.06393 0.17098
 C341 C 1.06848 0.05204 0.17354
 C342 C 1.07882 0.05300 0.18598
 C343 C 1.09003 0.06368 0.20648
 N344 N 1.09771 0.04978 0.20327
 C345 C 1.09087 0.04321 0.19082
 C346 C 1.06705 0.04113 0.16199
 N347 N 1.05538 0.04604 0.15239
 C348 C 1.04933 0.06002 0.15782
 C349 C 1.04709 0.09038 0.18112
 N350 N 1.05126 0.09948 0.19324
 C351 C 1.06338 0.09201 0.20073
 H352 H 1.09284 0.07162 0.21579
 H353 H 1.09460 0.03216 0.18552
 H354 H 1.07419 0.03046 0.16054
 H355 H 1.04001 0.06707 0.15260
 H356 H 1.03782 0.09334 0.17301
 H357 H 1.06938 0.09638 0.21078
 C358 C 0.05834 0.17295 1.06081
 C359 C 0.07072 0.18413 1.06231
 C360 C 0.06938 0.19617 1.07307
 C361 C 0.05593 0.19743 1.08222
 C362 C 0.04384 0.18665 1.08070
 C363 C 0.04504 0.17439 1.06999
 C364 C 0.05639 0.15909 1.05243
 N365 N 0.04232 0.15236 1.05645
 C366 C 0.03541 0.16170 1.06712
 C367 C 0.03289 0.18996 1.09187
 N368 N 0.03811 0.20249 1.10018
 C369 C 0.05222 0.20722 1.09426
 C370 C 0.08317 0.20462 1.07305
 N371 N 0.09294 0.19836 1.06242
 C372 C 0.08555 0.18579 1.05572
 H373 H 0.06481 0.15409 1.04445
 H374 H 0.02430 0.15913 1.07275
 H375 H 0.02219 0.18331 1.09418
 H376 H 0.05969 0.21656 1.09865
 H377 H 0.08599 0.21458 1.08038
 H378 H 0.09071 0.17816 1.04709
 C379 C 0.17704 0.69138 0.67670
 C380 C 0.18853 0.69244 0.66518
 C381 C 0.19982 0.68055 0.66370
 C382 C 0.19975 0.66739 0.67376
 C383 C 0.18840 0.66633 0.68511
 C384 C 0.17697 0.67843 0.68659
 C385 C 0.16439 0.70096 0.68048
 N386 N 0.15663 0.69413 0.69246
 C387 C 0.16425 0.68034 0.69624
 C388 C 0.19096 0.65218 0.69287
 N389 N 0.20359 0.64464 0.68650
 C390 C 0.20902 0.65388 0.67483
 C391 C 0.20905 0.68447 0.65125
 N392 N 0.20358 0.69845 0.64517
 C393 C 0.19106 0.70337 0.65363
 H394 H 0.16105 0.71192 0.67468
 H395 H 0.16065 0.67219 0.70525
 H396 H 0.18404 0.64781 0.70240
 H397 H 0.21895 0.65089 0.66756
 H398 H 0.21875 0.67742 0.64685
 H399 H 0.18411 0.71403 0.65135
 C400 C 1.16299 0.15130 0.18039
 C401 C 1.15387 0.16490 0.18334
 C402 C 1.15284 0.17718 0.17265
 C403 C 1.16106 0.17581 0.15864
 C404 C 1.16963 0.16202 0.15569
 C405 C 1.17070 0.14982 0.16661
 C406 C 1.16793 0.13887 0.18962
 N407 N 1.17866 0.13005 0.18172
 C408 C 1.18021 0.13649 0.16755
 C409 C 1.17731 0.16405 0.14208
 N410 N 1.17403 0.17884 0.13659
 C411 C 1.16399 0.18621 0.14656
 C412 C 1.14357 0.18901 0.17918
 N413 N 1.13906 0.18396 0.19339
 C414 C 1.14546 0.16935 0.19598
 H415 H 1.16465 0.13702 0.20146
 H416 H 1.18863 0.13254 0.15904
 H417 H 1.18544 0.15563 0.13691
 H418 H 1.15956 0.19831 0.14549
 H419 H 1.14030 0.20027 0.17390
 H420 H 1.14395 0.16237 0.20636
 C421 C 0.68038 1.04039 0.55243
 C422 C 0.69390 1.03809 0.56151
 C423 C 0.70661 1.04827 0.55996
 C424 C 0.70595 1.06095 0.54947
 C425 C 0.69258 1.06338 0.54064
 C426 C 0.67973 1.05295 0.54205
 C427 C 0.66579 1.03319 0.55234
 N428 N 0.65635 1.04098 0.54214
 C429 C 0.66477 1.05314 0.53583
 C430 C 0.69447 1.07769 0.53301
 N431 N 0.70867 1.08399 0.53712
 C432 C 0.71578 1.07372 0.54706
 C433 C 0.71720 1.04458 0.57138
 N434 N 0.71125 1.03248 0.57993
 C435 C 0.69700 1.02834 0.57394
 H436 H 0.66216 1.02324 0.55947
 H437 H 0.66035 1.06185 0.52767
 H438 H 0.68575 1.08328 0.52564
 H439 H 0.72691 1.07583 0.55282
 H440 H 0.72800 1.05093 0.57392
 H441 H 0.68896 1.01967 0.57874
 C442 C 0.56152 0.55027 0.17675
 C443 C 0.57193 0.55002 0.18919
 C444 C 0.57142 0.56203 0.19997
 C445 C 0.56033 0.57453 0.19840
 C446 C 0.55002 0.57471 0.18607
 C447 C 0.55065 0.56252 0.17517
 C448 C 0.56010 0.54065 0.16416
 N449 N 0.54866 0.54678 0.15493
 C450 C 0.54276 0.56018 0.16160
 C451 C 0.54108 0.58841 0.18701
 N452 N 0.54563 0.59662 0.19957
 C453 C 0.55743 0.58823 0.20664
 C454 C 0.58348 0.55896 0.21024
 N455 N 0.59122 0.54547 0.20588
 C456 C 0.58416 0.53992 0.19302
 H457 H 0.56717 0.53018 0.16166
 H458 H 0.53373 0.56795 0.15687
 H459 H 0.53207 0.59230 0.17898
 H460 H 0.56368 0.59183 0.21684
 H461 H 0.58664 0.56620 0.21998
 H462 H 0.58769 0.52949 0.18664
 C463 C 0.68945 0.68372 0.19742
 C464 C 0.70016 0.67123 0.19503
 C465 C 0.70953 0.67107 0.18211
 C466 C 0.70830 0.68355 0.17136
 C467 C 0.69762 0.69590 0.17365
 C468 C 0.68805 0.69596 0.18680
 C469 C 0.67818 0.68607 0.20844
 N470 N 0.66982 0.69939 0.20483
 C471 C 0.67578 0.70561 0.19160
 C472 C 0.69839 0.70574 0.16095
 N473 N 0.70927 0.69971 0.15111
 C474 C 0.71535 0.68609 0.15738
 C475 C 0.71786 0.65687 0.18236
 N476 N 0.71358 0.64847 0.19503
 C477 C 0.70284 0.65726 0.20290
 H478 H 0.67580 0.67829 0.21812
 H479 H 0.67131 0.71605 0.18561
 H480 H 0.69135 0.71638 0.15890
 H481 H 0.72396 0.67829 0.15212
 H482 H 0.72597 0.65268 0.17367
 H483 H 0.69708 0.65375 0.21343
 C484 C 0.14726 0.09151 1.08409
 C485 C 0.15759 0.10400 1.08721
 C486 C 0.16888 0.10248 1.09865
 C487 C 0.16945 0.08836 1.10757
 C488 C 0.15898 0.07608 1.10454
 C489 C 0.14798 0.07757 1.09256
 C490 C 0.13596 0.08961 1.07298
 N491 N 0.12988 0.07476 1.07433
 C492 C 0.13704 0.06728 1.08638
 C493 C 0.16181 0.06411 1.11504
 N494 N 0.17368 0.06866 1.12444
 C495 C 0.17853 0.08347 1.11995
 C496 C 0.17773 0.11636 1.09823
 N497 N 0.17175 0.12604 1.08703
 C498 C 0.15942 0.11862 1.08036
 H499 H 0.13271 0.09824 1.06421
 H500 H 0.13472 0.05523 1.09027
 H501 H 0.15548 0.05293 1.11595
 H502 H 0.18760 0.09041 1.12550
 H503 H 0.18774 0.11919 1.10544
 H504 H 0.15259 0.12337 1.07086
 C505 C 0.56252 0.21294 0.57133
 C506 C 0.55298 0.21190 0.58449
 C507 C 0.53871 0.20386 0.58383
 C508 C 0.53379 0.19675 0.57018
 C509 C 0.54311 0.19790 0.55729
 C510 C 0.55747 0.20602 0.55786
 C511 C 0.57763 0.21854 0.56869
 N512 N 0.58166 0.21509 0.55398
 C513 C 0.56939 0.20748 0.54736
 C514 C 0.53659 0.18834 0.54630
 N515 N 0.52353 0.18125 0.55225
 C516 C 0.52166 0.18645 0.56681
 C517 C 0.53247 0.20367 0.59831
 N518 N 0.54244 0.21143 0.60782
 C519 C 0.55509 0.21649 0.59951
 H520 H 0.58524 0.22411 0.57703
 H521 H 0.56939 0.20279 0.53584
 H522 H 0.54171 0.18600 0.53521
 H523 H 0.51278 0.18216 0.57473
 H524 H 0.52155 0.19802 0.60179
 H525 H 0.56523 0.22273 0.60400
 C526 C 0.07808 0.56226 0.70602
 C527 C 0.06861 0.57587 0.70375
 C528 C 0.05774 0.57648 0.69184
 C529 C 0.05621 0.56326 0.68202
 C530 C 0.06555 0.54987 0.68449
 C531 C 0.07650 0.54939 0.69643
 C532 C 0.09044 0.55880 0.71583
 N533 N 0.09640 0.54423 0.71221
 C534 C 0.08782 0.53833 0.70042
 C535 C 0.06258 0.53926 0.67305
 N536 N 0.05163 0.54568 0.66351
 C537 C 0.04756 0.56041 0.66883
 C538 C 0.05087 0.59150 0.69215
 N539 N 0.05733 0.59983 0.70393
 C540 C 0.06819 0.59035 0.71098
 H541 H 0.09519 0.56658 0.72452
 H542 H 0.08981 0.52703 0.69482
 H543 H 0.06832 0.52780 0.67149
 H544 H 0.03940 0.56862 0.66334
 H545 H 0.04204 0.59600 0.68424
 H546 H 0.07541 0.59384 0.72062
 C547 C 0.67186 0.54517 0.06780
 C548 C 0.68417 0.54721 0.07849
 C549 C 0.69548 0.55886 0.07598
 C550 C 0.69475 0.56851 0.06281
 C551 C 0.68272 0.56642 0.05235
 C552 C 0.67129 0.55473 0.05484
 C553 C 0.65858 0.53564 0.06742
 N554 N 0.65015 0.53925 0.05456
 C555 C 0.65790 0.55096 0.04686
 C556 C 0.68432 0.57790 0.04117
 N557 N 0.69710 0.58689 0.04450
 C558 C 0.70359 0.58127 0.05776
 C559 C 0.70549 0.55874 0.08838
 N560 N 0.70073 0.54725 0.09833
 C561 C 0.68764 0.54014 0.09244
 H562 H 0.65508 0.52702 0.07605
 H563 H 0.65391 0.55687 0.03650
 H564 H 0.67655 0.57982 0.03146
 H565 H 0.71361 0.58634 0.06364
 H566 H 0.71549 0.56654 0.09012
 H567 H 0.68089 0.53081 0.09797
 C568 C 0.05890 0.70488 0.56307
 C569 C 0.07336 0.70383 0.55531
 C570 C 0.07618 0.69129 0.54544
 C571 C 0.06457 0.67964 0.54320
 C572 C 0.05034 0.68071 0.55088
 C573 C 0.04748 0.69338 0.56086
 C574 C 0.05361 0.71467 0.57458
 N575 N 0.03929 0.70931 0.57940
 C576 C 0.03547 0.69632 0.57105
 C577 C 0.04193 0.66715 0.54773
 N578 N 0.05072 0.65781 0.53831
 C579 C 0.06455 0.66540 0.53543
 C580 C 0.09153 0.69263 0.54044
 N581 N 0.09809 0.70569 0.54705
 C582 C 0.08704 0.71260 0.55612
 H583 H 0.06024 0.72429 0.57965
 H584 H 0.02510 0.68903 0.57285
 H585 H 0.03048 0.66423 0.55242
 H586 H 0.07416 0.66056 0.52869
 H587 H 0.09743 0.68450 0.53275
 H588 H 0.08896 0.72305 0.56309
 C589 C 0.55844 1.05181 0.67145
 C590 C 0.56811 1.04967 0.68437
 C591 C 0.56699 1.06016 0.69646
 C592 C 0.55622 1.07292 0.69581
 C593 C 0.54672 1.07508 0.68308
 C594 C 0.54781 1.06441 0.67079
 C595 C 0.55746 1.04386 0.65776
 N596 N 0.54650 1.05128 0.64879
 C597 C 0.54053 1.06391 0.65670
 C598 C 0.53816 1.08892 0.68529
 N599 N 0.54224 1.09519 0.69903
 C600 C 0.55330 1.08540 0.70556
 C601 C 0.57838 1.05583 0.70697
 N602 N 0.58639 1.04299 0.70157
 C603 C 0.58017 1.03910 0.68773
 H604 H 0.56438 1.03352 0.65448
 H605 H 0.53174 1.07234 0.65260
 H606 H 0.52982 1.09425 0.67730
 H607 H 0.55924 1.08726 0.71635
 H608 H 0.58098 1.06188 0.71758
 H609 H 0.58437 1.02970 0.68033
 C610 C 0.44505 0.32996 0.94010
 C611 C 0.44379 0.31722 0.92982
 C612 C 0.43173 0.30619 0.93143
 C613 C 0.42077 0.30776 0.94345
 C614 C 0.42218 0.32030 0.95356
 C615 C 0.43433 0.33139 0.95188
 C616 C 0.45499 0.34293 0.94094
 N617 N 0.45048 0.35213 0.95296
 C618 C 0.43782 0.34505 0.95973
 C619 C 0.40981 0.31947 0.96364
 N620 N 0.40081 0.30673 0.96004
 C621 C 0.40738 0.29942 0.94767
 C622 C 0.43320 0.29556 0.91951
 N623 N 0.44588 0.29978 0.91087
 C624 C 0.45236 0.31309 0.91708
 H625 H 0.46460 0.34566 0.93319
 H626 H 0.43121 0.34953 0.96937
 H627 H 0.40733 0.32774 0.97281
 H628 H 0.40265 0.28911 0.94191
 H629 H 0.42557 0.28552 0.91724
 H630 H 0.46235 0.31958 0.91255
 C631 C 0.94835 0.44308 0.33729
 C632 C 0.95138 0.43199 0.32572
 C633 C 0.94136 0.43112 0.31332
 C634 C 0.92818 0.44116 0.31230
 C635 C 0.92492 0.45205 0.32374
 C636 C 0.93524 0.45306 0.33643
 C637 C 0.95591 0.44600 0.35087
 N638 N 0.94785 0.45760 0.35846
 C639 C 0.93516 0.46194 0.34971
 C640 C 0.91067 0.45930 0.31987
 N641 N 0.90549 0.45295 0.30644
 C642 C 0.91617 0.44193 0.30182
 C643 C 0.94624 0.41852 0.30453
 N644 N 0.95901 0.41159 0.31135
 C645 C 0.96229 0.41981 0.32430
 H646 H 0.96642 0.43982 0.35480
 H647 H 0.92640 0.47081 0.35286
 H648 H 0.90449 0.46822 0.32649
 H649 H 0.91505 0.43467 0.29168
 H650 H 0.94028 0.41433 0.29439
 H651 H 0.97145 0.41666 0.33246
 C652 C 0.28948 0.94576 0.44087
 C653 C 0.28939 0.93552 0.45362
 C654 C 0.30087 0.93692 0.46479
 C655 C 0.31261 0.94855 0.46334
 C656 C 0.31279 0.95863 0.45072
 C657 C 0.30111 0.95721 0.43937
 C658 C 0.28054 0.94617 0.42774
 N659 N 0.28642 0.95754 0.41822
 C660 C 0.29904 0.96440 0.42526
 C661 C 0.32629 0.96770 0.45175
 N662 N 0.33426 0.96330 0.46470
 C663 C 0.32592 0.95163 0.47181
 C664 C 0.29897 0.92437 0.47484
 N665 N 0.28671 0.91535 0.47001
 C666 C 0.28071 0.92214 0.45705
 H667 H 0.27074 0.93839 0.42509
 H668 H 0.30651 0.97359 0.42049
 H669 H 0.33012 0.97643 0.44338
 H670 H 0.32954 0.94544 0.48218
 H671 H 0.30656 0.92147 0.48447
 H672 H 0.27136 0.91731 0.45005
 O673 O 0.29245 0.49559 0.77075
 O674 O 0.28199 0.52179 0.76809
 O675 O 0.25381 0.46743 0.78640
 O676 O 0.22979 0.46040 0.77882
 O677 O 0.28244 0.45193 0.74783
 O678 O 0.28301 0.45917 0.72164
 O679 O 0.20899 0.50118 0.74291
 O680 O 0.21170 0.49792 0.76889
 O681 O 0.24540 0.53101 0.72782
 O682 O 0.27247 0.53208 0.73163
 O683 O 0.23676 0.48829 0.70486
 O684 O 0.24229 0.46112 0.70862
 O685 O 0.21427 0.48363 0.72379
 O686 O 0.22687 0.45527 0.72562
 O687 O 0.25077 0.51127 0.70688
 O688 O 0.27972 0.51434 0.71529
 O689 O 0.22498 0.52596 0.74402
 O690 O 0.22862 0.52051 0.77192
 O691 O 0.29875 0.47852 0.75148
 O692 O 0.29501 0.48097 0.72350
 O693 O 0.26235 0.44673 0.76437
 O694 O 0.23306 0.44724 0.75878
 O695 O 0.26857 0.48988 0.78926
 O696 O 0.25925 0.51736 0.78317
 Zr697 Zr 0.26836 0.50058 0.76727
 O698 O 0.25323 0.51346 0.75247
 Zr699 Zr 0.24764 0.46714 0.76320
 O700 O 0.23098 0.47906 0.74930
 Zr701 Zr 0.27724 0.47501 0.73953
 O702 O 0.26164 0.48630 0.72391
 Zr703 Zr 0.23061 0.50364 0.75401
 O704 O 0.24542 0.49129 0.76961
 Zr705 Zr 0.25979 0.51056 0.72949
 O706 O 0.27646 0.49954 0.74441
 Zr707 Zr 0.23850 0.47756 0.72652
 O708 O 0.25469 0.46440 0.74032
 O709 O 0.27026 0.47640 0.76224
 O710 O 0.23688 0.50184 0.73104
 C711 C 0.30228 0.48685 0.76335
 C712 C 0.26185 0.47720 0.79447
 C713 C 0.27525 0.44292 0.75749
 C714 C 0.20492 0.49293 0.73126
 C715 C 0.23222 0.53474 0.73419
 C716 C 0.24196 0.50151 0.69945
 H717 H 0.25324 0.52488 0.75533
 H718 H 0.26553 0.48478 0.71335
 H719 H 0.27750 0.47073 0.76936
 H720 H 0.22045 0.47427 0.75089
 H721 H 0.21649 0.49499 0.77888
 H722 H 0.22118 0.46833 0.77763
 H723 H 0.27954 0.50627 0.70708
 H724 H 0.29842 0.49197 0.72588
 H725 H 0.21831 0.52609 0.77079
 H726 H 0.26616 0.51759 0.79233
 H727 H 0.25343 0.46220 0.70541
 H728 H 0.27379 0.45207 0.72040
 H729 H 0.28772 0.52218 0.77800
 H730 H 0.27963 0.53057 0.74049
 H731 H 0.23786 0.44140 0.75013
 H732 H 0.21747 0.45587 0.73231
 O733 O 0.29543 -0.00146 0.27515
 O734 O 0.29248 0.02703 0.27108
 O735 O 0.25511 -0.01402 0.30218
 O736 O 0.22860 -0.01180 0.30046
 O737 O 0.26667 -0.04041 0.26123
 O738 O 0.26184 -0.03502 0.23450
 O739 O 0.21326 0.03083 0.26404
 O740 O 0.22059 0.02724 0.28957
 O741 O 0.25219 0.04550 0.23956
 O742 O 0.28176 0.03520 0.24006
 O743 O 0.22637 0.00938 0.22352
 O744 O 0.22525 -0.02027 0.22907
 O745 O 0.20857 0.01133 0.24660
 O746 O 0.21073 -0.01822 0.24730
 O747 O 0.24849 0.02433 0.22030
 O748 O 0.27609 0.02049 0.22213
 O749 O 0.23602 0.04844 0.26016
 O750 O 0.24416 0.04309 0.28722
 O751 O 0.29089 -0.02061 0.25729
 O752 O 0.28136 -0.01985 0.23138
 O753 O 0.25016 -0.03748 0.28157
 O754 O 0.22271 -0.02766 0.28214
 O755 O 0.27677 0.00168 0.29876
 O756 O 0.27537 0.02987 0.29270
 Zr757 Zr 0.27388 0.01103 0.27660
 O758 O 0.26027 0.02785 0.26428
 Zr759 Zr 0.24320 -0.01332 0.28089
 O760 O 0.22831 0.00258 0.26873
 Zr761 Zr 0.26701 -0.01749 0.25103
 O762 O 0.25326 -0.00175 0.23748
 Zr763 Zr 0.23657 0.02602 0.27099
 O764 O 0.25037 0.01034 0.28458
 Zr765 Zr 0.26060 0.02185 0.24107
 O766 O 0.27556 0.00590 0.25310
 Zr767 Zr 0.22970 -0.00200 0.24510
 O768 O 0.24314 -0.01930 0.25750
 O769 O 0.26668 -0.01256 0.27425
 O770 O 0.23698 0.02143 0.24761
 C771 C 0.29988 -0.01315 0.26669
 C772 C 0.26797 -0.00746 0.30690
 C773 C 0.25933 -0.04584 0.27305
 C774 C 0.20442 0.02371 0.25430
 C775 C 0.24250 0.05356 0.24782
 C776 C 0.23503 0.01920 0.21584
 H777 H 0.26435 0.03873 0.26605
 H778 H 0.25414 -0.00473 0.22659
 H779 H 0.27341 -0.02000 0.28028
 H780 H 0.21739 0.00165 0.27262
 H781 H 0.22643 0.02341 0.29873
 H782 H 0.22090 -0.00310 0.29851
 H783 H 0.27457 0.00992 0.21740
 H784 H 0.28787 -0.01008 0.23078
 H785 H 0.23609 0.05171 0.28759
 H786 H 0.28509 0.02847 0.29893
 H787 H 0.23344 -0.01964 0.22103
 H788 H 0.25075 -0.03825 0.23626
 H789 H 0.30109 0.02576 0.27871
 H790 H 0.28019 0.04504 0.24608
 H791 H 0.22231 -0.03392 0.27257
 H792 H 0.20569 -0.01631 0.25734
 O793 O 0.51270 0.71515 0.23657
 O794 O 0.48563 0.72225 0.24403
 O795 O 0.52825 0.75456 0.20997
 O796 O 0.53003 0.78120 0.21224
 O797 O 0.55643 0.73776 0.24846
 O798 O 0.55369 0.74133 0.27596
 O799 O 0.49599 0.80202 0.25274
 O800 O 0.49560 0.79516 0.22667
 O801 O 0.47583 0.76345 0.27638
 O802 O 0.48249 0.73276 0.27567
 O803 O 0.51878 0.78272 0.29093
 O804 O 0.54698 0.77917 0.28235
 O805 O 0.51736 0.80222 0.26865
 O806 O 0.54531 0.79531 0.26530
 O807 O 0.49941 0.76438 0.29458
 O808 O 0.49861 0.73665 0.29284
 O809 O 0.47516 0.78237 0.25757
 O810 O 0.47594 0.77476 0.23024
 O811 O 0.53365 0.71600 0.25298
 O812 O 0.53659 0.72366 0.27892
 O813 O 0.55380 0.75519 0.22849
 O814 O 0.54881 0.78367 0.22898
 O815 O 0.50966 0.73546 0.21423
 O816 O 0.48308 0.74069 0.22299
 Zr817 Zr 0.50339 0.73865 0.23722
 O818 O 0.49048 0.75463 0.25103
 Zr819 Zr 0.53152 0.76564 0.23137
 O820 O 0.52003 0.78247 0.24525
 Zr821 Zr 0.53469 0.73981 0.26030
 O822 O 0.52281 0.75528 0.27541
 Zr823 Zr 0.49565 0.77831 0.24486
 O824 O 0.50701 0.76242 0.22970
 Zr825 Zr 0.49819 0.75227 0.27370
 O826 O 0.51025 0.73522 0.26019
 Zr827 Zr 0.52658 0.77894 0.26829
 O828 O 0.53982 0.76349 0.25407
 O829 O 0.52774 0.74206 0.23761
 O830 O 0.50220 0.77598 0.26774
 C831 C 0.52442 0.70864 0.24376
 C832 C 0.51930 0.74308 0.20556
 C833 C 0.56162 0.74488 0.23636
 C834 C 0.50546 0.80896 0.26210
 C835 C 0.46924 0.77521 0.26919
 C836 C 0.50799 0.77604 0.29907
 H837 H 0.47905 0.75244 0.24998
 H838 H 0.52657 0.75337 0.28598
 H839 H 0.53345 0.73459 0.23081
 H840 H 0.52249 0.79336 0.24157
 H841 H 0.49713 0.78903 0.21713
 H842 H 0.52392 0.79070 0.21543
 H843 H 0.50981 0.73501 0.29568
 H844 H 0.52591 0.71915 0.28048
 H845 H 0.46919 0.78446 0.23065
 H846 H 0.48224 0.73099 0.21661
 H847 H 0.54573 0.77083 0.29033
 H848 H 0.55914 0.75151 0.27371
 H849 H 0.48484 0.71373 0.23626
 H850 H 0.47298 0.73531 0.26950
 H851 H 0.55568 0.78298 0.23815
 H852 H 0.54352 0.80101 0.25549
 O853 O 0.00471 0.72221 0.71231
 O854 O -0.02265 0.72738 0.71545
 O855 O 0.02239 0.76533 0.69195
 O856 O 0.02438 0.79106 0.69740
 O857 O 0.04606 0.74334 0.73096
 O858 O 0.04109 0.74371 0.75770
 O859 O -0.01744 0.80552 0.73454
 O860 O -0.01479 0.80161 0.70862
 O861 O -0.03707 0.76432 0.75358
 O862 O -0.03232 0.73716 0.75179
 O863 O 0.00392 0.78346 0.77352
 O864 O 0.03094 0.78411 0.76801
 O865 O 0.00152 0.80534 0.75308
 O866 O 0.03163 0.79951 0.74993
 O867 O -0.01521 0.76450 0.77393
 O868 O -0.01288 0.73505 0.76742
 O869 O -0.03767 0.78421 0.73571
 O870 O -0.03317 0.77982 0.70804
 O871 O 0.02371 0.72123 0.73080
 O872 O 0.02280 0.72686 0.75832
 O873 O 0.04567 0.76330 0.71316
 O874 O 0.03894 0.79238 0.71676
 O875 O 0.00441 0.74518 0.69177
 O876 O -0.02388 0.74953 0.69859
 Zr877 Zr -0.00496 0.74525 0.71417
 O878 O -0.01981 0.75854 0.72865
 Zr879 Zr 0.02280 0.77330 0.71462
 O880 O 0.00852 0.78819 0.72817
 Zr881 Zr 0.02332 0.74427 0.74067
 O882 O 0.00988 0.75833 0.75588
 Zr883 Zr -0.01547 0.78286 0.72499
 O884 O -0.00130 0.76969 0.70965
 Zr885 Zr -0.01425 0.75446 0.75178
 O886 O -0.00078 0.73930 0.73738
 Zr887 Zr 0.01296 0.78283 0.75124
 O888 O 0.02841 0.76873 0.73768
 O889 O 0.01903 0.74905 0.71772
 O890 O -0.01106 0.77881 0.74819
 C891 C 0.01559 0.71493 0.71992
 C892 C 0.01467 0.75425 0.68524
 C893 C 0.05256 0.75180 0.72039
 C894 C -0.00996 0.81199 0.74561
 C895 C -0.04400 0.77585 0.74641
 C896 C -0.00709 0.77563 0.78022
 H897 H -0.03096 0.75582 0.72648
 H898 H 0.01291 0.75560 0.76651
 H899 H 0.02563 0.74249 0.71082
 H900 H 0.01068 0.79950 0.72564
 H901 H -0.01169 0.79674 0.69877
 H902 H 0.01507 0.79809 0.69868
 H903 H -0.00414 0.73715 0.77463
 H904 H 0.01270 0.72106 0.75720
 H905 H -0.04061 0.78899 0.70867
 H906 H -0.02306 0.74196 0.68995
 H907 H 0.03273 0.77313 0.77188
 H908 H 0.04618 0.75432 0.75747
 H909 H -0.02230 0.72085 0.70603
 H910 H -0.02984 0.72981 0.74331
 H911 H 0.04600 0.78972 0.72546
 H912 H 0.02831 0.80824 0.74292
 O913 O -0.03868 -0.01113 -0.01847
 O914 O -0.03362 0.01775 -0.01625
 O915 O 0.00407 -0.03060 -0.03541
 O916 O 0.03000 -0.03016 -0.02935
 O917 O -0.01717 -0.05004 0.00554
 O918 O -0.01727 -0.04105 0.03211
 O919 O 0.04305 0.01435 0.00551
 O920 O 0.04086 0.00763 -0.02079
 O921 O 0.00261 0.03649 0.01900
 O922 O -0.02742 0.02923 0.01457
 O923 O 0.01964 -0.00134 0.04431
 O924 O 0.01850 -0.03129 0.04155
 O925 O 0.04214 -0.00387 0.02499
 O926 O 0.03691 -0.03228 0.02712
 O927 O 0.00012 0.01722 0.04130
 O928 O -0.02669 0.01672 0.03492
 O929 O 0.02258 0.03452 0.00170
 O930 O 0.01939 0.02633 -0.02527
 O931 O -0.03955 -0.02791 0.00218
 O932 O -0.03563 -0.02447 0.02890
 O933 O 0.00260 -0.05128 -0.01205
 O934 O 0.03045 -0.04494 -0.00852
 O935 O -0.01571 -0.01218 -0.03792
 O936 O -0.01284 0.01628 -0.03487
 Zr937 Zr -0.01608 -0.00048 -0.01679
 O938 O -0.00282 0.01623 -0.00424
 Zr939 Zr 0.01205 -0.02820 -0.01262
 O940 O 0.02619 -0.01277 0.00040
 Zr941 Zr -0.01725 -0.02596 0.01260
 O942 O -0.00464 -0.01006 0.02652
 Zr943 Zr 0.02139 0.01095 -0.00593
 O944 O 0.00838 -0.00457 -0.02009
 Zr945 Zr -0.00812 0.01365 0.01902
 O946 O -0.02253 -0.00217 0.00643
 Zr947 Zr 0.01967 -0.01421 0.02360
 O948 O 0.00697 -0.03131 0.01083
 O949 O -0.01202 -0.02415 -0.01051
 O950 O 0.01605 0.00952 0.01729
 C951 C -0.04568 -0.02144 -0.00982
 C952 C -0.00687 -0.02342 -0.04312
 C953 C -0.00862 -0.05758 -0.00424
 C954 C 0.04892 0.00731 0.01739
 C955 C 0.01447 0.04225 0.01158
 C956 C 0.01115 0.01042 0.04906
 H957 H -0.00514 0.02715 -0.00805
 H958 H -0.00796 -0.01153 0.03728
 H959 H -0.01822 -0.03164 -0.01680
 H960 H 0.03748 -0.01539 -0.00113
 H961 H 0.03652 0.00339 -0.03046
 H962 H 0.03885 -0.02333 -0.02609
 H963 H -0.02816 0.00635 0.04019
 H964 H -0.04081 -0.01396 0.02730
 H965 H 0.02857 0.03364 -0.02523
 H966 H -0.02152 0.01508 -0.04241
 H967 H 0.00917 -0.02872 0.04789
 H968 H -0.00697 -0.04671 0.03221
 H969 H -0.04101 0.01623 -0.02493
 H970 H -0.02372 0.03774 0.00754
 H971 H 0.02835 -0.04991 0.00159
 H972 H 0.04338 -0.03290 0.01772
 O973 O 0.00511 0.47344 0.47290
 O974 O 0.03198 0.47996 0.48155
 O975 O -0.01639 0.45051 0.51049
 O976 O -0.01895 0.45500 0.53599
 O977 O -0.03966 0.49078 0.48967
 O978 O -0.03517 0.51933 0.49047
 O979 O 0.01544 0.49781 0.55530
 O980 O 0.01413 0.46990 0.55163
 O981 O 0.03995 0.51697 0.51872
 O982 O 0.03627 0.51365 0.48903
 O983 O -0.00401 0.53657 0.53121
 O984 O -0.03211 0.52833 0.52670
 O985 O -0.00481 0.51558 0.55225
 O986 O -0.03234 0.51247 0.54405
 O987 O 0.01728 0.53741 0.51537
 O988 O 0.02097 0.53270 0.48957
 O989 O 0.03818 0.49868 0.53802
 O990 O 0.03564 0.46975 0.53340
 O991 O -0.01514 0.49134 0.47049
 O992 O -0.01625 0.51938 0.47502
 O993 O -0.04007 0.47150 0.50816
 O994 O -0.03739 0.47388 0.53548
 O995 O 0.00466 0.45191 0.49426
 O996 O 0.03127 0.45966 0.50104
 Zr997 Zr 0.01230 0.47560 0.49603
 O998 O 0.02461 0.49064 0.51113
 Zr999 Zr -0.01848 0.47375 0.51963
 O1000 O -0.00761 0.48903 0.53547
 Zr1001 Zr -0.01735 0.50161 0.49229
 O1002 O -0.00600 0.51793 0.50674
 Zr1003 Zr 0.01698 0.48680 0.53372
 O1004 O 0.00609 0.47024 0.51893
 Zr1005 Zr 0.01865 0.51440 0.50620
 O1006 O 0.00734 0.49952 0.49010
 Zr1007 Zr -0.01234 0.51297 0.52952
 O1008 O -0.02501 0.49762 0.51487
 O1009 O -0.01218 0.47789 0.49706
 O1010 O 0.01216 0.51072 0.52890
 C1011 C -0.00578 0.48062 0.46510
 C1012 C -0.00669 0.44437 0.50075
 C1013 C -0.04637 0.47933 0.49705
 C1014 C 0.00622 0.50896 0.56017
 C1015 C 0.04529 0.50991 0.53083
 C1016 C 0.00765 0.54381 0.52489
 H1017 H 0.03610 0.48862 0.51015
 H1018 H -0.00894 0.52891 0.50359
 H1019 H -0.01775 0.47060 0.49004
 H1020 H -0.01119 0.48645 0.54596
 H1021 H 0.01244 0.45944 0.54669
 H1022 H -0.01440 0.45916 0.54559
 H1023 H 0.01015 0.53580 0.48639
 H1024 H -0.00524 0.51938 0.47120
 H1025 H 0.04153 0.47057 0.54318
 H1026 H 0.03252 0.45209 0.49245
 H1027 H -0.02983 0.53570 0.51809
 H1028 H -0.04183 0.51829 0.49973
 H1029 H 0.03295 0.47110 0.47414
 H1030 H 0.04508 0.50693 0.49291
 H1031 H -0.04324 0.48402 0.53384
 H1032 H -0.03144 0.50288 0.55067
 O1033 O 0.53406 0.04384 0.49341
 O1034 O 0.52906 0.04043 0.46690
 O1035 O 0.49233 0.06770 0.50951
 O1036 O 0.46647 0.06342 0.51087
 O1037 O 0.51119 0.02640 0.53386
 O1038 O 0.50974 -0.00150 0.52959
 O1039 O 0.45073 0.02378 0.47173
 O1040 O 0.45562 0.05077 0.47357
 O1041 O 0.49103 0.00195 0.45361
 O1042 O 0.51789 0.00317 0.45842
 O1043 O 0.47045 -0.01690 0.49339
 O1044 O 0.47017 -0.01052 0.51987
 O1045 O 0.44978 0.00548 0.49111
 O1046 O 0.45544 0.00844 0.51980
 O1047 O 0.48970 -0.01848 0.47531
 O1048 O 0.51902 -0.01298 0.47769
 O1049 O 0.47226 0.02148 0.45238
 O1050 O 0.47751 0.05029 0.45611
 O1051 O 0.53367 0.02501 0.51236
 O1052 O 0.52687 -0.00315 0.51245
 O1053 O 0.49253 0.04603 0.53263
 O1054 O 0.46389 0.04373 0.52587
 O1055 O 0.51244 0.06643 0.49225
 O1056 O 0.50803 0.05896 0.46509
 Zr1057 Zr 0.51125 0.04295 0.48385
 O1058 O 0.49756 0.02820 0.46973
 Zr1059 Zr 0.48309 0.04450 0.51037
 O1060 O 0.46793 0.03057 0.49688
 Zr1061 Zr 0.51043 0.01596 0.51201
 O1062 O 0.49616 0.00043 0.49918
 Zr1063 Zr 0.47357 0.03305 0.47360
 O1064 O 0.48722 0.04883 0.48694
 Zr1065 Zr 0.50053 0.00410 0.47576
 O1066 O 0.51596 0.01864 0.48866
 Zr1067 Zr 0.47214 0.00639 0.50188
 O1068 O 0.48635 0.02039 0.51655
 O1069 O 0.50698 0.04001 0.50715
 O1070 O 0.47654 0.00885 0.47856
 C1071 C 0.54066 0.03572 0.50420
 C1072 C 0.50376 0.07395 0.50191
 C1073 C 0.50321 0.03791 0.53975
 C1074 C 0.44365 0.01302 0.47963
 C1075 C 0.48008 0.00981 0.44661
 C1076 C 0.47817 -0.02438 0.48303
 H1077 H 0.50050 0.03010 0.45891
 H1078 H 0.49835 -0.01070 0.50238
 H1079 H 0.51372 0.04699 0.51347
 H1080 H 0.45683 0.03373 0.49881
 H1081 H 0.46075 0.06090 0.47646
 H1082 H 0.45908 0.06163 0.50229
 H1083 H 0.51650 -0.02024 0.48632
 H1084 H 0.53263 -0.00276 0.50260
 H1085 H 0.46859 0.04976 0.44875
 H1086 H 0.51596 0.06760 0.46566
 H1087 H 0.48053 -0.01594 0.52089
 H1088 H 0.49905 -0.00086 0.53416
 H1089 H 0.53603 0.04991 0.46712
 H1090 H 0.52580 0.01137 0.46102
 H1091 H 0.46573 0.03446 0.53276
 H1092 H 0.44774 0.01687 0.51688
 O1093 O 0.49422 0.55612 0.01727
 O1094 O 0.46544 0.55166 0.01474
 O1095 O 0.51189 0.51571 0.04062
 O1096 O 0.51138 0.48898 0.03848
 O1097 O 0.53205 0.52995 -0.00309
 O1098 O 0.52304 0.52646 -0.02937
 O1099 O 0.46762 0.47111 0.00663
 O1100 O 0.47360 0.47821 0.03190
 O1101 O 0.44586 0.50988 -0.01416
 O1102 O 0.45367 0.54049 -0.01442
 O1103 O 0.48321 0.48852 -0.03639
 O1104 O 0.51257 0.48893 -0.03316
 O1105 O 0.48441 0.46894 -0.01362
 O1106 O 0.51301 0.47299 -0.01595
 O1107 O 0.46499 0.50859 -0.03650
 O1108 O 0.46598 0.53616 -0.03437
 O1109 O 0.44756 0.49248 0.00589
 O1110 O 0.45528 0.50036 0.03205
 O1111 O 0.51084 0.55348 -0.00309
 O1112 O 0.50689 0.54559 -0.02908
 O1113 O 0.53274 0.51310 0.01744
 O1114 O 0.52581 0.48499 0.01822
 O1115 O 0.49401 0.53618 0.03981
 O1116 O 0.46587 0.53388 0.03649
 Zr1117 Zr 0.48284 0.53368 0.01857
 O1118 O 0.46602 0.51877 0.00811
 Zr1119 Zr 0.50965 0.50435 0.01921
 O1120 O 0.49410 0.48851 0.00840
 Zr1121 Zr 0.50814 0.52968 -0.01022
 O1122 O 0.49212 0.51514 -0.02219
 Zr1123 Zr 0.47076 0.49482 0.01371
 O1124 O 0.48638 0.50976 0.02576
 Zr1125 Zr 0.46868 0.52022 -0.01566
 O1126 O 0.48466 0.53635 -0.00532
 Zr1127 Zr 0.49559 0.49123 -0.01553
 O1128 O 0.51280 0.50563 -0.00471
 O1129 O 0.50621 0.52811 0.01339
 O1130 O 0.47219 0.49629 -0.01008
 C1131 C 0.50473 0.56153 0.00792
 C1132 C 0.50479 0.52786 0.04651
 C1133 C 0.53931 0.52276 0.00796
 C1134 C 0.47396 0.46329 -0.00440
 C1135 C 0.44002 0.49919 -0.00513
 C1136 C 0.47174 0.49644 -0.04255
 H1137 H 0.45525 0.52190 0.01135
 H1138 H 0.49367 0.51675 -0.03331
 H1139 H 0.51381 0.53500 0.01881
 H1140 H 0.49648 0.47745 0.01174
 H1141 H 0.47783 0.48424 0.04070
 H1142 H 0.50414 0.47995 0.03674
 H1143 H 0.47647 0.53712 -0.03926
 H1144 H 0.49677 0.55149 -0.02811
 H1145 H 0.44791 0.49130 0.03341
 H1146 H 0.46718 0.54377 0.04253
 H1147 H 0.51073 0.49768 -0.04063
 H1148 H 0.52831 0.51597 -0.02796
 H1149 H 0.46706 0.56039 0.02216
 H1150 H 0.44506 0.53802 -0.00714
 H1151 H 0.53047 0.48512 0.00784
 H1152 H 0.51301 0.46765 -0.00582
 O1153 O 0.77324 0.24564 0.46300
 O1154 O 0.76535 0.21820 0.46820
 O1155 O 0.73016 0.27049 0.45423
 O1156 O 0.70647 0.27356 0.46580
 O1157 O 0.76288 0.28833 0.48775
 O1158 O 0.76820 0.28073 0.51416
 O1159 O 0.69662 0.23327 0.50527
 O1160 O 0.69380 0.23773 0.47903
 O1161 O 0.73768 0.20534 0.51076
 O1162 O 0.76653 0.20965 0.50062
 O1163 O 0.73071 0.24608 0.53740
 O1164 O 0.73473 0.27554 0.53232
 O1165 O 0.70475 0.25081 0.52341
 O1166 O 0.71357 0.27852 0.52208
 O1167 O 0.74651 0.22495 0.53151
 O1168 O 0.77102 0.22217 0.52016
 O1169 O 0.71379 0.20977 0.49947
 O1170 O 0.71119 0.21623 0.47195
 O1171 O 0.78103 0.26278 0.48164
 O1172 O 0.78310 0.26163 0.50883
 O1173 O 0.73944 0.29163 0.47528
 O1174 O 0.71269 0.28901 0.48495
 O1175 O 0.74627 0.24934 0.44900
 O1176 O 0.74077 0.22178 0.45488
 Zr1177 Zr 0.75050 0.23860 0.47031
 O1178 O 0.73889 0.22431 0.48665
 Zr1179 Zr 0.72762 0.26991 0.47832
 O1180 O 0.71534 0.25695 0.49523
 Zr1181 Zr 0.76171 0.26479 0.49662
 O1182 O 0.75105 0.25121 0.51415
 Zr1183 Zr 0.71568 0.23262 0.48984
 O1184 O 0.72659 0.24578 0.47207
 Zr1185 Zr 0.74997 0.22705 0.50788
 O1186 O 0.76259 0.24035 0.49131
 Zr1187 Zr 0.72730 0.25824 0.51633
 O1188 O 0.73846 0.27307 0.49982
 O1189 O 0.75093 0.26283 0.47540
 O1190 O 0.72658 0.23404 0.51118
 C1191 C 0.78345 0.25484 0.46930
 C1192 C 0.73783 0.26143 0.44494
 C1193 C 0.75294 0.29665 0.47981
 C1194 C 0.69465 0.24112 0.51773
 C1195 C 0.72370 0.20099 0.50682
 C1196 C 0.73848 0.23332 0.54097
 H1197 H 0.73903 0.21310 0.48318
 H1198 H 0.75700 0.25258 0.52380
 H1199 H 0.75634 0.26915 0.46738
 H1200 H 0.70438 0.26101 0.49596
 H1201 H 0.69628 0.24102 0.46840
 H1202 H 0.69795 0.26792 0.47133
 H1203 H 0.77512 0.23253 0.52375
 H1204 H 0.78656 0.25049 0.50704
 H1205 H 0.70153 0.21016 0.47462
 H1206 H 0.74730 0.22149 0.44546
 H1207 H 0.74502 0.27202 0.53659
 H1208 H 0.75876 0.28739 0.51629
 H1209 H 0.77027 0.21823 0.45790
 H1210 H 0.76080 0.20176 0.49437
 H1211 H 0.71745 0.29373 0.49422
 H1212 H 0.70490 0.27941 0.51451
 O1213 O 0.79970 0.74099 -0.02811
 O1214 O 0.79434 0.71345 -0.02674
 O1215 O 0.75599 0.76179 -0.04372
 O1216 O 0.73102 0.76416 -0.03570
 O1217 O 0.78110 0.78167 -0.00441
 O1218 O 0.78331 0.77429 0.02131
 O1219 O 0.71918 0.71852 -0.00095
 O1220 O 0.72103 0.72310 -0.02677
 O1221 O 0.76139 0.69672 0.01357
 O1222 O 0.78786 0.70108 0.00969
 O1223 O 0.74378 0.73575 0.03748
 O1224 O 0.74344 0.76352 0.03456
 O1225 O 0.72046 0.73675 0.01822
 O1226 O 0.72736 0.76699 0.01751
 O1227 O 0.76299 0.71686 0.03495
 O1228 O 0.79157 0.71952 0.02619
 O1229 O 0.74000 0.69783 -0.00223
 O1230 O 0.74226 0.70445 -0.03023
 O1231 O 0.80252 0.75873 -0.00865
 O1232 O 0.79912 0.75515 0.01939
 O1233 O 0.76067 0.78342 -0.02130
 O1234 O 0.73189 0.77713 -0.01545
 O1235 O 0.77543 0.74316 -0.04671
 O1236 O 0.77107 0.71426 -0.04163
 Zr1237 Zr 0.77699 0.73181 -0.02515
 O1238 O 0.76497 0.71584 -0.01069
 Zr1239 Zr 0.75007 0.76050 -0.02041
 O1240 O 0.73619 0.74507 -0.00684
 Zr1241 Zr 0.78067 0.75791 0.00322
 O1242 O 0.76769 0.74347 0.01850
 Zr1243 Zr 0.74080 0.72099 -0.01199
 O1244 O 0.75265 0.73650 -0.02731
 Zr1245 Zr 0.77103 0.71958 0.01228
 O1246 O 0.78497 0.73394 -0.00234
 Zr1247 Zr 0.74317 0.74738 0.01607
 O1248 O 0.75638 0.76385 0.00262
 O1249 O 0.77410 0.75576 -0.01956
 O1250 O 0.74672 0.72343 0.01101
 C1251 C 0.80766 0.75119 -0.02048
 C1252 C 0.76616 0.75420 -0.05183
 C1253 C 0.77252 0.78939 -0.01408
 C1254 C 0.71334 0.72575 0.01062
 C1255 C 0.74914 0.69057 0.00738
 C1256 C 0.75226 0.72414 0.04265
 H1257 H 0.76733 0.70474 -0.01380
 H1258 H 0.77124 0.74551 0.02909
 H1259 H 0.78014 0.76285 -0.02649
 H1260 H 0.72489 0.74770 -0.00838
 H1261 H 0.72505 0.72724 -0.03666
 H1262 H 0.72465 0.75431 -0.03530
 H1263 H 0.79000 0.72740 0.03443
 H1264 H 0.80507 0.74540 0.01655
 H1265 H 0.73343 0.69680 -0.02908
 H1266 H 0.77778 0.71566 -0.05084
 H1267 H 0.75461 0.76487 0.03758
 H1268 H 0.77272 0.77900 0.02308
 H1269 H 0.79994 0.71444 -0.03667
 H1270 H 0.79443 0.70412 0.00078
 H1271 H 0.73561 0.78361 -0.00674
 H1272 H 0.71842 0.76495 0.01049
 O1273 O 1.04286 0.23689 0.25365
 O1274 O 1.03507 0.24027 0.28082
 O1275 O 1.00585 0.21296 0.23247
 O1276 O 0.97935 0.21502 0.23056
 O1277 O 1.02193 0.25799 0.21396
 O1278 O 1.01778 0.28534 0.22126
 O1279 O 0.95613 0.25032 0.26970
 O1280 O 0.96351 0.22367 0.26579
 O1281 O 0.99227 0.27203 0.29388
 O1282 O 1.02278 0.27204 0.28978
 O1283 O 0.97530 0.29400 0.25442
 O1284 O 0.97907 0.28967 0.22655
 O1285 O 0.95616 0.27059 0.25217
 O1286 O 0.96372 0.27175 0.22497
 O1287 O 0.99283 0.29467 0.27416
 O1288 O 1.02041 0.29194 0.27630
 O1289 O 0.97506 0.25146 0.29129
 O1290 O 0.98337 0.22360 0.28560
 O1291 O 1.04240 0.25787 0.23687
 O1292 O 1.03422 0.28523 0.23930
 O1293 O 1.00504 0.23708 0.21172
 O1294 O 0.97654 0.23583 0.21576
 O1295 O 1.02326 0.21370 0.25240
 O1296 O 1.01739 0.21796 0.27913
 Zr1297 Zr 1.01945 0.23619 0.26222
 O1298 O 1.00288 0.24797 0.27630
 Zr1299 Zr 0.99396 0.23523 0.23318
 O1300 O 0.97649 0.24704 0.24605
 Zr1301 Zr 1.01876 0.26571 0.23660
 O1302 O 1.00246 0.27880 0.24966
 Zr1303 Zr 0.97981 0.24235 0.26945
 O1304 O 0.99629 0.22903 0.25644
 Zr1305 Zr 1.00475 0.27268 0.27294
 O1306 O 1.02249 0.26103 0.25999
 Zr1307 Zr 0.97941 0.27186 0.24387
 O1308 O 0.99572 0.26004 0.22946
 O1309 O 1.01688 0.24115 0.23898
 O1310 O 0.98157 0.26706 0.26718
 C1311 C 1.04946 0.24629 0.24383
 C1312 C 1.01681 0.20676 0.24094
 C1313 C 1.01539 0.24677 0.20632
 C1314 C 0.94929 0.26165 0.26210
 C1315 C 0.98107 0.26303 0.29881
 C1316 C 0.98175 0.30083 0.26593
 H1317 H 1.00469 0.24489 0.28711
 H1318 H 1.00422 0.29031 0.24783
 H1319 H 1.02453 0.23530 0.23252
 H1320 H 0.96589 0.24358 0.24270
 H1321 H 0.96980 0.21423 0.26269
 H1322 H 0.96979 0.21686 0.23682
 H1323 H 1.02176 0.29731 0.26628
 H1324 H 1.03892 0.28416 0.24965
 H1325 H 0.97368 0.22273 0.29192
 H1326 H 1.02720 0.21142 0.27917
 H1327 H 0.98751 0.29740 0.22889
 H1328 H 1.00796 0.28414 0.21522
 H1329 H 1.04381 0.23235 0.28042
 H1330 H 1.01995 0.26382 0.29748
 H1331 H 0.97713 0.24649 0.21084
 H1332 H 0.95801 0.26147 0.22513
 O1333 O 0.73680 1.02053 0.71760
 O1334 O 0.76460 1.01740 0.71958
 O1335 O 0.72177 0.97752 0.69563
 O1336 O 0.72262 0.95132 0.69975
 O1337 O 0.69806 0.99467 0.73616
 O1338 O 0.70400 0.99285 0.76277
 O1339 O 0.76603 0.93764 0.73544
 O1340 O 0.76243 0.94318 0.70960
 O1341 O 0.78310 0.97874 0.75616
 O1342 O 0.77673 1.00569 0.75487
 O1343 O 0.74472 0.95555 0.77568
 O1344 O 0.71734 0.95349 0.77091
 O1345 O 0.74743 0.93520 0.75413
 O1346 O 0.71723 0.93899 0.75244
 O1347 O 0.76196 0.97626 0.77646
 O1348 O 0.75746 1.00582 0.77108
 O1349 O 0.78467 0.96028 0.73725
 O1350 O 0.77921 0.96623 0.70985
 O1351 O 0.71863 1.01853 0.73672
 O1352 O 0.72054 1.01130 0.76364
 O1353 O 0.69938 0.97607 0.71737
 O1354 O 0.70841 0.94753 0.71931
 O1355 O 0.73836 0.99885 0.69588
 O1356 O 0.76710 0.99647 0.70185
 Zr1357 Zr 0.74841 0.99818 0.71802
 O1358 O 0.76477 0.98513 0.73143
 Zr1359 Zr 0.72300 0.96793 0.71782
 O1360 O 0.73876 0.95340 0.73039
 Zr1361 Zr 0.72109 0.99502 0.74526
 O1362 O 0.73614 0.98129 0.75945
 Zr1363 Zr 0.76218 0.96075 0.72689
 O1364 O 0.74657 0.97380 0.71252
 Zr1365 Zr 0.75972 0.98733 0.75481
 O1366 O 0.74457 1.00223 0.74157
 Zr1367 Zr 0.73465 0.95697 0.75378
 O1368 O 0.71777 0.97050 0.74118
 O1369 O 0.72495 0.99218 0.72200
 O1370 O 0.75818 0.96304 0.75030
 C1371 C 0.72572 1.02630 0.72602
 C1372 C 0.72850 0.98952 0.68923
 C1373 C 0.69188 0.98646 0.72534
 C1374 C 0.75913 0.92987 0.74621
 C1375 C 0.79059 0.96810 0.74845
 C1376 C 0.75518 0.96401 0.78242
 H1377 H 0.77563 0.98880 0.72917
 H1378 H 0.73331 0.98316 0.77026
 H1379 H 0.71762 0.99865 0.71562
 H1380 H 0.73736 0.94213 0.72741
 H1381 H 0.75870 0.94850 0.70008
 H1382 H 0.73217 0.94458 0.70095
 H1383 H 0.74917 1.00267 0.77847
 H1384 H 0.73023 1.01782 0.76281
 H1385 H 0.78732 0.95763 0.70994
 H1386 H 0.76540 1.00445 0.69356
 H1387 H 0.71551 0.96392 0.77583
 H1388 H 0.69979 0.98187 0.76212
 H1389 H 0.76330 1.02447 0.71050
 H1390 H 0.77334 1.01345 0.74691
 H1391 H 0.70159 0.94892 0.72841
 H1392 H 0.72051 0.93135 0.74445
 O1393 O 0.70171 0.50029 0.24395
 O1394 O 0.70390 0.49730 0.27082
 O1395 O 0.74098 0.52943 0.23154
 O1396 O 0.76734 0.52861 0.23240
 O1397 O 0.73122 0.48549 0.20677
 O1398 O 0.73562 0.45838 0.21192
 O1399 O 0.78374 0.49244 0.27506
 O1400 O 0.77495 0.51816 0.27203
 O1401 O 0.74584 0.46412 0.28882
 O1402 O 0.71984 0.46155 0.28159
 O1403 O 0.77349 0.44907 0.25229
 O1404 O 0.77634 0.45539 0.22638
 O1405 O 0.79003 0.47431 0.25672
 O1406 O 0.78715 0.47702 0.22703
 O1407 O 0.75231 0.44433 0.26763
 O1408 O 0.72282 0.44605 0.26240
 O1409 O 0.76090 0.48629 0.29190
 O1410 O 0.75151 0.51423 0.28688
 O1411 O 0.70686 0.48189 0.22553
 O1412 O 0.71771 0.45435 0.22794
 O1413 O 0.74572 0.50814 0.20906
 O1414 O 0.77413 0.50931 0.21869
 O1415 O 0.71944 0.52546 0.24668
 O1416 O 0.72174 0.51856 0.27444
 Zr1417 Zr 0.72307 0.50234 0.25588
 O1418 O 0.73698 0.48954 0.27177
 Zr1419 Zr 0.75344 0.50775 0.23220
 O1420 O 0.76888 0.49642 0.24789
 Zr1421 Zr 0.73097 0.47565 0.22887
 O1422 O 0.74619 0.46247 0.24335
 Zr1423 Zr 0.76018 0.49793 0.27037
 O1424 O 0.74613 0.51156 0.25500
 Zr1425 Zr 0.73849 0.46532 0.26596
 O1426 O 0.72249 0.47760 0.25135
 Zr1427 Zr 0.76923 0.47194 0.24322
 O1428 O 0.75457 0.48340 0.22663
 O1429 O 0.73030 0.49993 0.23327
 O1430 O 0.76166 0.47359 0.26577
 C1431 C 0.69760 0.49169 0.23253
 C1432 C 0.72798 0.53406 0.23771
 C1433 C 0.73731 0.49829 0.20130
 C1434 C 0.79337 0.48280 0.26856
 C1435 C 0.75455 0.47332 0.29686
 C1436 C 0.76552 0.44025 0.26147
 H1437 H 0.73255 0.49089 0.28217
 H1438 H 0.74613 0.45117 0.24015
 H1439 H 0.72336 0.50594 0.22611
 H1440 H 0.77950 0.50124 0.24711
 H1441 H 0.76874 0.52737 0.26809
 H1442 H 0.77275 0.52872 0.24243
 H1443 H 0.72732 0.43924 0.25427
 H1444 H 0.70999 0.45476 0.23644
 H1445 H 0.75936 0.51477 0.29530
 H1446 H 0.71280 0.52608 0.27274
 H1447 H 0.76682 0.44933 0.22344
 H1448 H 0.74671 0.46000 0.20869
 H1449 H 0.69575 0.50581 0.26970
 H1450 H 0.71137 0.46917 0.27864
 H1451 H 0.77388 0.50029 0.21144
 H1452 H 0.79365 0.48580 0.23110
 O1453 O 0.56116 0.22270 0.77173
 O1454 O 0.55300 0.22537 0.79781
 O1455 O 0.51973 0.20963 0.74773
 O1456 O 0.49495 0.21876 0.74480
 O1457 O 0.54813 0.24849 0.73079
 O1458 O 0.55137 0.27542 0.73797
 O1459 O 0.48046 0.25823 0.78399
 O1460 O 0.48097 0.23073 0.78072
 O1461 O 0.52054 0.27008 0.80954
 O1462 O 0.54714 0.26309 0.80864
 O1463 O 0.51044 0.29551 0.76987
 O1464 O 0.51366 0.29083 0.74238
 O1465 O 0.48597 0.27800 0.76682
 O1466 O 0.49495 0.27662 0.73952
 O1467 O 0.52687 0.29164 0.79019
 O1468 O 0.55451 0.28010 0.79133
 O1469 O 0.49833 0.25529 0.80638
 O1470 O 0.49938 0.22608 0.80127
 O1471 O 0.56686 0.24274 0.75488
 O1472 O 0.56572 0.27165 0.75713
 O1473 O 0.52631 0.23314 0.72750
 O1474 O 0.49798 0.23973 0.73086
 O1475 O 0.53620 0.20539 0.76801
 O1476 O 0.52887 0.21141 0.79500
 Zr1477 Zr 0.53780 0.22786 0.77856
 O1478 O 0.52491 0.24400 0.79219
 Zr1479 Zr 0.51424 0.23417 0.74858
 O1480 O 0.49999 0.24999 0.76122
 Zr1481 Zr 0.54608 0.25666 0.75341
 O1482 O 0.53311 0.27377 0.76573
 Zr1483 Zr 0.50134 0.24466 0.78473
 O1484 O 0.51387 0.22737 0.77184
 Zr1485 Zr 0.53310 0.26733 0.78900
 O1486 O 0.54748 0.25098 0.77686
 Zr1487 Zr 0.50918 0.27314 0.75923
 O1488 O 0.52262 0.25756 0.74531
 O1489 O 0.53771 0.23351 0.75531
 O1490 O 0.50941 0.26801 0.78255
 C1491 C 0.57051 0.23001 0.76249
 C1492 C 0.52851 0.20062 0.75623
 C1493 C 0.53912 0.23964 0.72266
 C1494 C 0.47678 0.27090 0.77636
 C1495 C 0.50714 0.26476 0.81411
 C1496 C 0.51785 0.30041 0.78177
 H1497 H 0.52568 0.24076 0.80308
 H1498 H 0.53778 0.28441 0.76398
 H1499 H 0.54395 0.22593 0.74910
 H1500 H 0.48896 0.24937 0.75753
 H1501 H 0.48476 0.21997 0.77780
 H1502 H 0.48646 0.22214 0.75185
 H1503 H 0.55493 0.28820 0.78305
 H1504 H 0.56982 0.26904 0.76747
 H1505 H 0.48959 0.22798 0.80724
 H1506 H 0.53519 0.20141 0.79467
 H1507 H 0.52413 0.29549 0.74459
 H1508 H 0.54152 0.27770 0.73221
 H1509 H 0.55810 0.21468 0.79755
 H1510 H 0.55397 0.25382 0.80624
 H1511 H 0.50191 0.24947 0.72567
 H1512 H 0.48620 0.26885 0.73998
 O1513 O 0.29280 0.75429 0.46821
 O1514 O 0.29232 0.72613 0.47031
 O1515 O 0.24602 0.76710 0.45416
 O1516 O 0.22134 0.76296 0.46232
 O1517 O 0.26758 0.79185 0.49161
 O1518 O 0.27257 0.78585 0.51738
 O1519 O 0.21881 0.71878 0.50020
 O1520 O 0.21857 0.72242 0.47401
 O1521 O 0.26472 0.70521 0.51300
 O1522 O 0.28986 0.71419 0.50726
 O1523 O 0.24166 0.74139 0.53634
 O1524 O 0.23678 0.76937 0.53231
 O1525 O 0.21783 0.73803 0.51846
 O1526 O 0.21913 0.76842 0.51696
 O1527 O 0.26363 0.72595 0.53352
 O1528 O 0.29093 0.73358 0.52340
 O1529 O 0.24303 0.70191 0.49796
 O1530 O 0.24253 0.70763 0.46997
 O1531 O 0.29316 0.77302 0.48700
 O1532 O 0.29173 0.77033 0.51494
 O1533 O 0.24604 0.78897 0.47628
 O1534 O 0.21974 0.77735 0.48238
 O1535 O 0.26797 0.75169 0.45070
 O1536 O 0.26860 0.72238 0.45662
 Zr1537 Zr 0.27218 0.74123 0.47239
 O1538 O 0.26383 0.72388 0.48789
 Zr1539 Zr 0.24072 0.76446 0.47752
 O1540 O 0.23055 0.74753 0.49241
 Zr1541 Zr 0.27230 0.76868 0.49979
 O1542 O 0.26304 0.75265 0.51615
 Zr1543 Zr 0.23910 0.72447 0.48772
 O1544 O 0.24735 0.74111 0.47124
 Zr1545 Zr 0.27018 0.72944 0.51044
 O1546 O 0.28058 0.74562 0.49475
 Zr1547 Zr 0.23819 0.75211 0.51479
 O1548 O 0.24739 0.77001 0.50006
 O1549 O 0.26522 0.76446 0.47746
 O1550 O 0.24558 0.72891 0.51028
 C1551 C 0.29914 0.76603 0.47522
 C1552 C 0.25711 0.76130 0.44582
 C1553 C 0.25673 0.79743 0.48273
 C1554 C 0.21232 0.72563 0.51169
 C1555 C 0.25359 0.69673 0.50740
 C1556 C 0.25206 0.73146 0.54143
 H1557 H 0.26798 0.71326 0.48497
 H1558 H 0.26668 0.75566 0.52648
 H1559 H 0.26959 0.77245 0.47025
 H1560 H 0.21892 0.74804 0.49141
 H1561 H 0.22134 0.72665 0.46375
 H1562 H 0.21559 0.75311 0.46508
 H1563 H 0.28829 0.74125 0.53158
 H1564 H 0.29887 0.76128 0.51260
 H1565 H 0.23512 0.69867 0.47172
 H1566 H 0.27443 0.72471 0.44704
 H1567 H 0.24762 0.77114 0.53616
 H1568 H 0.26137 0.78832 0.51969
 H1569 H 0.29720 0.72786 0.46011
 H1570 H 0.29551 0.71834 0.49817
 H1571 H 0.22201 0.78417 0.49132
 H1572 H 0.21066 0.76503 0.50990
 O1573 O 0.26685 0.29542 1.00528
 O1574 O 0.26372 0.29025 1.03173
 O1575 O 0.28614 0.25144 0.98805
 O1576 O 0.27947 0.22584 0.98662
 O1577 O 0.24633 0.27439 0.96502
 O1578 O 0.21930 0.27640 0.96988
 O1579 O 0.24150 0.21276 1.02636
 O1580 O 0.26820 0.21690 1.02547
 O1581 O 0.22198 0.25567 1.04540
 O1582 O 0.22480 0.28252 1.04038
 O1583 O 0.20103 0.23717 1.00475
 O1584 O 0.20783 0.23468 0.97923
 O1585 O 0.22053 0.21489 1.01009
 O1586 O 0.22607 0.21854 0.98014
 O1587 O 0.20174 0.25464 1.02454
 O1588 O 0.20912 0.28470 1.02105
 O1589 O 0.23804 0.23379 1.04558
 O1590 O 0.26760 0.23832 1.04321
 O1591 O 0.24823 0.29696 0.98645
 O1592 O 0.21921 0.29251 0.98795
 O1593 O 0.26431 0.25409 0.96554
 O1594 O 0.25955 0.22516 0.97247
 O1595 O 0.28711 0.27195 1.00502
 O1596 O 0.28003 0.26716 1.03271
 Zr1597 Zr 0.26407 0.27244 1.01454
 O1598 O 0.24835 0.25998 1.02899
 Zr1599 Zr 0.26247 0.24433 0.98785
 O1600 O 0.24794 0.23005 1.00182
 Zr1601 Zr 0.23676 0.27445 0.98713
 O1602 O 0.22041 0.26094 0.99992
 Zr1603 Zr 0.25119 0.23552 1.02505
 O1604 O 0.26768 0.24785 1.01121
 Zr1605 Zr 0.22465 0.26489 1.02324
 O1606 O 0.24036 0.27938 1.01040
 Zr1607 Zr 0.22441 0.23624 0.99726
 O1608 O 0.23888 0.24984 0.98231
 O1609 O 0.26023 0.26870 0.99132
 O1610 O 0.22754 0.24046 1.02039
 C1611 C 0.25957 0.30288 0.99448
 C1612 C 0.29346 0.26257 0.99509
 C1613 C 0.25690 0.26559 0.95874
 C1614 C 0.22867 0.20755 1.02053
 C1615 C 0.22740 0.24284 1.05157
 C1616 C 0.19470 0.24428 1.01612
 H1617 H 0.25047 0.26267 1.03981
 H1618 H 0.20957 0.26404 0.99682
 H1619 H 0.26753 0.27493 0.98479
 H1620 H 0.25013 0.21864 0.99985
 H1621 H 0.27841 0.22172 1.02245
 H1622 H 0.27850 0.21965 0.99625
 H1623 H 0.20061 0.28179 1.01383
 H1624 H 0.22116 0.29870 0.99736
 H1625 H 0.26587 0.22950 1.05064
 H1626 H 0.28941 0.27413 1.03177
 H1627 H 0.20422 0.24571 0.97701
 H1628 H 0.21823 0.26562 0.96544
 H1629 H 0.27385 0.29616 1.03144
 H1630 H 0.23429 0.28907 1.03843
 H1631 H 0.25073 0.22812 0.96552
 H1632 H 0.23065 0.20878 0.98486
 C1633 C 0.30286 0.35192 0.80456
 C1634 C 0.30878 0.36131 0.79263
 C1635 C 0.30030 0.37570 0.78716
 N1636 N 0.30650 0.38483 0.77577
 N1637 N 0.29902 0.39799 0.77093
 C1638 C 0.28506 0.40250 0.77729
 N1639 N 0.27884 0.39335 0.78862
 N1640 N 0.28631 0.38021 0.79346
 C1641 C 0.27680 0.41723 0.77244
 C1642 C 0.28278 0.42747 0.76122
 H1643 H 0.31989 0.35826 0.78726
 H1644 H 0.26592 0.42032 0.77826
 H1645 H 0.29170 0.35525 0.80973
 H1646 H 0.29367 0.42439 0.75542
 C1647 C 0.30323 -0.14095 0.29323
 C1648 C 0.28925 -0.13287 0.29696
 C1649 C 0.28519 -0.11719 0.29016
 N1650 N 0.27211 -0.10921 0.29495
 N1651 N 0.26842 -0.09493 0.28908
 C1652 C 0.27763 -0.08809 0.27815
 N1653 N 0.29065 -0.09611 0.27329
 N1654 N 0.29436 -0.11037 0.27918
 C1655 C 0.27400 -0.07207 0.27188
 C1656 C 0.26185 -0.06260 0.27775
 H1657 H 0.28111 -0.13789 0.30519
 H1658 H 0.28161 -0.06731 0.26302
 H1659 H 0.31118 -0.13538 0.28508
 H1660 H 0.25458 -0.06725 0.28694
 C1661 C 0.78223 0.83461 0.78759
 C1662 C 0.78736 0.84432 0.77552
 C1663 C 0.77979 0.85971 0.77180
 N1664 N 0.78541 0.86864 0.76001
 N1665 N 0.77894 0.88274 0.75660
 C1666 C 0.76658 0.88848 0.76486
 N1667 N 0.76092 0.87954 0.77663
 N1668 N 0.76740 0.86542 0.78004
 C1669 C 0.75954 0.90419 0.76135
 C1670 C 0.76534 0.91380 0.74956
 H1671 H 0.79732 0.84081 0.76857
 H1672 H 0.74983 0.90837 0.76835
 H1673 H 0.77202 0.83842 0.79414
 H1674 H 0.77509 0.90955 0.74264
 C1675 C 0.46572 0.90549 0.28156
 C1676 C 0.47843 0.89585 0.28606
 C1677 C 0.48144 0.88019 0.27914
 N1678 N 0.49435 0.87165 0.28348
 N1679 N 0.49707 0.85724 0.27771
 C1680 C 0.48697 0.85079 0.26739
 N1681 N 0.47405 0.85934 0.26300
 N1682 N 0.47134 0.87379 0.26877
 C1683 C 0.48966 0.83459 0.26146
 C1684 C 0.50284 0.82575 0.26604
 H1685 H 0.48644 0.89966 0.29494
 H1686 H 0.48095 0.82940 0.25391
 H1687 H 0.45832 0.90153 0.27220
 H1688 H 0.51144 0.83115 0.27358
 C1689 C -0.03886 0.89941 0.79621
 C1690 C -0.04286 0.89145 0.78278
 C1691 C -0.03400 0.87734 0.77754
 N1692 N -0.03810 0.87027 0.76422
 N1693 N -0.03056 0.85720 0.75953
 C1694 C -0.01864 0.85067 0.76797
 N1695 N -0.01448 0.85778 0.78127
 N1696 N -0.02201 0.87088 0.78597
 C1697 C -0.01080 0.83576 0.76318
 C1698 C -0.01545 0.82800 0.74989
 H1699 H -0.05282 0.89536 0.77594
 H1700 H -0.00191 0.83044 0.77057
 H1701 H -0.02851 0.89538 0.80251
 H1702 H -0.02447 0.83342 0.74269
 C1703 C -0.02438 -0.14844 -0.05410
 C1704 C -0.02763 -0.14226 -0.03961
 C1705 C -0.02111 -0.12716 -0.03407
 N1706 N -0.02659 -0.12092 -0.02080
 N1707 N -0.02145 -0.10686 -0.01587
 C1708 C -0.01056 -0.09857 -0.02403
 N1709 N -0.00492 -0.10490 -0.03722
 N1710 N -0.01012 -0.11893 -0.04219
 C1711 C -0.00531 -0.08270 -0.01921
 C1712 C -0.01244 -0.07439 -0.00722
 H1713 H -0.03592 -0.14820 -0.03213
 H1714 H 0.00376 -0.07698 -0.02601
 H1715 H -0.01581 -0.14254 -0.06135
 H1716 H -0.02176 -0.07994 -0.00060
 C1717 C -0.05122 0.35475 0.46862
 C1718 C -0.03772 0.36374 0.46559
 C1719 C -0.03339 0.37755 0.47501
 N1720 N -0.01989 0.38560 0.47198
 N1721 N -0.01617 0.39858 0.47991
 C1722 C -0.02584 0.40401 0.49116
 N1723 N -0.03931 0.39591 0.49426
 N1724 N -0.04301 0.38290 0.48635
 C1725 C -0.02239 0.41899 0.49921
 C1726 C -0.00890 0.42779 0.49584
 H1727 H -0.03021 0.36094 0.45596
 H1728 H -0.03115 0.42371 0.50702
 H1729 H -0.05803 0.35750 0.47878
 H1730 H -0.00023 0.42293 0.48802
 C1731 C 0.46127 -0.12096 0.44346
 C1732 C 0.45554 -0.11134 0.45524
 C1733 C 0.46226 -0.09564 0.45875
 N1734 N 0.45606 -0.08696 0.47034
 N1735 N 0.46168 -0.07255 0.47352
 C1736 C 0.47373 -0.06625 0.46522
 N1737 N 0.47999 -0.07496 0.45365
 N1738 N 0.47436 -0.08939 0.45046
 C1739 C 0.47975 -0.05017 0.46847
 C1740 C 0.47313 -0.04080 0.47995
 H1741 H 0.44565 -0.11514 0.46214
 H1742 H 0.48927 -0.04552 0.46149
 H1743 H 0.47145 -0.11691 0.43700
 H1744 H 0.46355 -0.04552 0.48680
 C1745 C 0.45730 0.36626 -0.04324
 C1746 C 0.45222 0.37540 -0.03080
 C1747 C 0.45856 0.39129 -0.02746
 N1748 N 0.45274 0.39962 -0.01544
 N1749 N 0.45794 0.41425 -0.01245
 C1750 C 0.46916 0.42109 -0.02139
 N1751 N 0.47503 0.41274 -0.03339
 N1752 N 0.46983 0.39811 -0.03639
 C1753 C 0.47476 0.43736 -0.01849
 C1754 C 0.46878 0.44674 -0.00667
 H1755 H 0.44304 0.37111 -0.02328
 H1756 H 0.48366 0.44218 -0.02611
 H1757 H 0.46688 0.37072 -0.05026
 H1758 H 0.45987 0.44195 0.00096
 C1759 C 0.79909 0.38957 0.45718
 C1760 C 0.78559 0.38112 0.45313
 C1761 C 0.78211 0.36525 0.45962
 N1762 N 0.76824 0.35808 0.45623
 N1763 N 0.76485 0.34375 0.46201
 C1764 C 0.77522 0.33600 0.47140
 N1765 N 0.78914 0.34315 0.47476
 N1766 N 0.79252 0.35752 0.46900
 C1767 C 0.77158 0.32005 0.47767
 C1768 C 0.75702 0.31293 0.47491
 H1769 H 0.77709 0.38636 0.44530
 H1770 H 0.78050 0.31377 0.48432
 H1771 H 0.80716 0.38439 0.46551
 H1772 H 0.74819 0.31943 0.46834
 C1773 C 0.79680 0.88180 -0.05973
 C1774 C 0.80144 0.87324 -0.04666
 C1775 C 0.79339 0.85834 -0.04202
 N1776 N 0.79824 0.85025 -0.02933
 N1777 N 0.79133 0.83660 -0.02523
 C1778 C 0.77929 0.83050 -0.03365
 N1779 N 0.77440 0.83862 -0.04631
 N1780 N 0.78130 0.85228 -0.05040
 C1781 C 0.77204 0.81501 -0.02962
 C1782 C 0.77739 0.80596 -0.01718
 H1783 H 0.81123 0.87726 -0.03975
 H1784 H 0.76297 0.81027 -0.03705
 H1785 H 0.78681 0.87740 -0.06621
 H1786 H 0.78664 0.81076 -0.00998
 C1787 C 0.77073 0.26417 0.34900
 C1788 C 0.75940 0.27265 0.35731
 C1789 C 0.75436 0.26753 0.37264
 N1790 N 0.74581 0.27761 0.38154
 N1791 N 0.74215 0.27359 0.39588
 C1792 C 0.74687 0.25930 0.40179
 N1793 N 0.75519 0.24914 0.39282
 N1794 N 0.75889 0.25318 0.37851
 C1795 C 0.74414 0.25501 0.41786
 C1796 C 0.73742 0.26539 0.42850
 H1797 H 0.75513 0.28409 0.35321
 H1798 H 0.74865 0.24351 0.42165
 H1799 H 0.77538 0.25306 0.35363
 H1800 H 0.73246 0.27673 0.42482
 C1801 C 0.79288 0.76382 -0.15004
 C1802 C 0.78096 0.76957 -0.14047
 C1803 C 0.77955 0.76417 -0.12449
 N1804 N 0.76896 0.77131 -0.11510
 N1805 N 0.76806 0.76708 -0.10040
 C1806 C 0.77774 0.75555 -0.09456
 N1807 N 0.78825 0.74832 -0.10399
 N1808 N 0.78916 0.75257 -0.11868
 C1809 C 0.77710 0.75098 -0.07831
 C1810 C 0.76711 0.75873 -0.06806
 H1811 H 0.77300 0.77892 -0.14430
 H1812 H 0.78474 0.74139 -0.07433
 H1813 H 0.80051 0.75433 -0.14578
 H1814 H 0.75953 0.76834 -0.07210
 C1815 C 0.27791 0.47488 0.89523
 C1816 C 0.27015 0.46589 0.88422
 C1817 C 0.26922 0.47105 0.86814
 N1818 N 0.26303 0.46108 0.85760
 N1819 N 0.26294 0.46509 0.84284
 C1820 C 0.26908 0.47921 0.83803
 N1821 N 0.27517 0.48927 0.84858
 N1822 N 0.27528 0.48524 0.86337
 C1823 C 0.26917 0.48356 0.82168
 C1824 C 0.26321 0.47317 0.81077
 H1825 H 0.26584 0.45411 0.88703
 H1826 H 0.27371 0.49511 0.81825
 H1827 H 0.28238 0.48655 0.89210
 H1828 H 0.25855 0.46173 0.81440
 C1829 C 0.28059 -0.03950 0.40394
 C1830 C 0.28728 -0.02848 0.39380
 C1831 C 0.28128 -0.02623 0.37811
 N1832 N 0.28893 -0.01628 0.36835
 N1833 N 0.28384 -0.01427 0.35403
 C1834 C 0.27088 -0.02214 0.34892
 N1835 N 0.26318 -0.03206 0.35869
 N1836 N 0.26829 -0.03408 0.37302
 C1837 C 0.26520 -0.01999 0.33309
 C1838 C 0.27336 -0.01047 0.32266
 H1839 H 0.29744 -0.02155 0.39711
 H1840 H 0.25446 -0.02594 0.32963
 H1841 H 0.27048 -0.04630 0.40011
 H1842 H 0.28418 -0.00470 0.32621
 C1843 C -0.05107 -0.03853 -0.13479
 C1844 C -0.03760 -0.04387 -0.12691
 C1845 C -0.03347 -0.03803 -0.11160
 N1846 N -0.02071 -0.04420 -0.10415
 N1847 N -0.01695 -0.03922 -0.09016
 C1848 C -0.02581 -0.02787 -0.08315
 N1849 N -0.03852 -0.02167 -0.09063
 N1850 N -0.04230 -0.02666 -0.10459
 C1851 C -0.02207 -0.02235 -0.06766
 C1852 C -0.00972 -0.02874 -0.05890
 H1853 H -0.02988 -0.05278 -0.13179
 H1854 H -0.02959 -0.01313 -0.06290
 H1855 H -0.05851 -0.02957 -0.12949
 H1856 H -0.00227 -0.03808 -0.06353
 C1857 C -0.04862 0.46383 0.37245
 C1858 C -0.03535 0.45900 0.38100
 C1859 C -0.03156 0.46525 0.39629
 N1860 N -0.01865 0.45958 0.40386
 N1861 N -0.01504 0.46483 0.41779
 C1862 C -0.02423 0.47599 0.42468
 N1863 N -0.03713 0.48171 0.41710
 N1864 N -0.04074 0.47644 0.40316
 C1865 C -0.02068 0.48169 0.44022
 C1866 C -0.00811 0.47576 0.44905
 H1867 H -0.02727 0.45017 0.37657
 H1868 H -0.02861 0.49052 0.44504
 H1869 H -0.05640 0.47286 0.37717
 H1870 H -0.00023 0.46684 0.44433
 C1871 C 0.47309 -0.03258 0.35312
 C1872 C 0.46837 -0.01899 0.36109
 C1873 C 0.47283 -0.01591 0.37704
 N1874 N 0.46658 -0.00304 0.38420
 N1875 N 0.47000 -0.00014 0.39878
 C1876 C 0.47982 -0.01000 0.40678
 N1877 N 0.48617 -0.02285 0.39960
 N1878 N 0.48271 -0.02579 0.38499
 C1879 C 0.48359 -0.00680 0.42292
 C1880 C 0.47614 0.00555 0.43079
 H1881 H 0.46064 -0.01032 0.35568
 H1882 H 0.49235 -0.01421 0.42863
 H1883 H 0.48132 -0.04090 0.35842
 H1884 H 0.46716 0.01267 0.42505
 C1885 C 0.45931 0.45352 -0.13504
 C1886 C 0.45111 0.46440 -0.12591
 C1887 C 0.45649 0.46807 -0.11025
 N1888 N 0.44898 0.47945 -0.10196
 N1889 N 0.45393 0.48301 -0.08790
 C1890 C 0.46655 0.47529 -0.08157
 N1891 N 0.47400 0.46385 -0.08983
 N1892 N 0.46907 0.46032 -0.10388
 C1893 C 0.47238 0.47929 -0.06616
 C1894 C 0.46572 0.49162 -0.05764
 H1895 H 0.44078 0.47060 -0.13027
 H1896 H 0.48235 0.47263 -0.06159
 H1897 H 0.46972 0.44776 -0.13024
 H1898 H 0.45584 0.49832 -0.06236
 C1899 C 0.45900 0.80281 0.38581
 C1900 C 0.47255 0.80743 0.37783
 C1901 C 0.47800 0.79915 0.36397
 N1902 N 0.49088 0.80456 0.35631
 N1903 N 0.49571 0.79747 0.34351
 C1904 C 0.48784 0.78467 0.33793
 N1905 N 0.47502 0.77922 0.34564
 N1906 N 0.47018 0.78632 0.35841
 C1907 C 0.49254 0.77703 0.32351
 C1908 C 0.50498 0.78255 0.31443
 H1909 H 0.47933 0.81758 0.38157
 H1910 H 0.48543 0.76715 0.31958
 H1911 H 0.45246 0.79251 0.38194
 H1912 H 0.51209 0.79246 0.31828
 C1913 C -0.04439 0.79057 0.87514
 C1914 C -0.03207 0.79577 0.86571
 C1915 C -0.02973 0.78983 0.85002
 N1916 N -0.01749 0.79543 0.84158
 N1917 N -0.01515 0.79035 0.82736
 C1918 C -0.02494 0.77946 0.82097
 N1919 N -0.03720 0.77382 0.82941
 N1920 N -0.03956 0.77891 0.84368
 C1921 C -0.02241 0.77392 0.80513
 C1922 C -0.01020 0.78012 0.79620
 H1923 H -0.02375 0.80451 0.86976
 H1924 H -0.03031 0.76510 0.80041
 H1925 H -0.05246 0.78171 0.87071
 H1926 H -0.00255 0.78909 0.80106
 C1927 C 0.37004 0.78853 0.30072
 C1928 C 0.38177 0.79723 0.29331
 C1929 C 0.39788 0.79092 0.29127
 N1930 N 0.40869 0.79979 0.28363
 N1931 N 0.42330 0.79427 0.28152
 C1932 C 0.42770 0.77968 0.28700
 N1933 N 0.41693 0.77083 0.29475
 N1934 N 0.40228 0.77636 0.29685
 C1935 C 0.44370 0.77333 0.28408
 C1936 C 0.45385 0.78137 0.27420
 H1937 H 0.37926 0.80911 0.28900
 H1938 H 0.44715 0.76192 0.28900
 H1939 H 0.37286 0.77673 0.30515
 H1940 H 0.44992 0.79247 0.26895
 C1941 C -0.14188 0.77355 0.78420
 C1942 C -0.13331 0.78307 0.77405
 C1943 C -0.11665 0.77968 0.77051
 N1944 N -0.10864 0.78934 0.76073
 N1945 N -0.09347 0.78655 0.75763
 C1946 C -0.08573 0.77401 0.76423
 N1947 N -0.09373 0.76436 0.77401
 N1948 N -0.10890 0.76714 0.77710
 C1949 C -0.06903 0.77067 0.76089
 C1950 C -0.06041 0.77979 0.75046
 H1951 H -0.13868 0.79354 0.76888
 H1952 H -0.06350 0.76053 0.76655
 H1953 H -0.13619 0.76318 0.78931
 H1954 H -0.06601 0.78983 0.74469
 C1955 C 0.88120 0.28964 0.45367
 C1956 C 0.87055 0.28128 0.44455
 C1957 C 0.85533 0.27592 0.45098
 N1958 N 0.84418 0.26907 0.44198
 N1959 N 0.83016 0.26497 0.44777
 C1960 C 0.82684 0.26758 0.46278
 N1961 N 0.83803 0.27428 0.47174
 N1962 N 0.85197 0.27835 0.46597
 C1963 C 0.81135 0.26409 0.46952
 C1964 C 0.79895 0.25673 0.46181
 H1965 H 0.87296 0.27944 0.43253
 H1966 H 0.80962 0.26778 0.48127
 H1967 H 0.87822 0.29172 0.46555
 H1968 H 0.80065 0.25230 0.45031
 C1969 C 0.90041 0.79210 -0.04793
 C1970 C 0.89011 0.78021 -0.05263
 C1971 C 0.87558 0.77656 -0.04413
 N1972 N 0.86616 0.76456 -0.04889
 N1973 N 0.85281 0.76127 -0.04151
 C1974 C 0.84834 0.76985 -0.02909
 N1975 N 0.85778 0.78185 -0.02429
 N1976 N 0.87117 0.78514 -0.03167
 C1977 C 0.83330 0.76650 -0.02125
 C1978 C 0.82355 0.75434 -0.02639
 H1979 H 0.89264 0.77336 -0.06279
 H1980 H 0.82963 0.77397 -0.01181
 H1981 H 0.89787 0.79851 -0.03748
 H1982 H 0.82742 0.74706 -0.03589
 C1983 C -0.13362 -0.04930 -0.05923
 C1984 C -0.12560 -0.05399 -0.04595
 C1985 C -0.11100 -0.04583 -0.04111
 N1986 N -0.10392 -0.04985 -0.02768
 N1987 N -0.09066 -0.04263 -0.02332
 C1988 C -0.08397 -0.03113 -0.03222
 N1989 N -0.09104 -0.02713 -0.04565
 N1990 N -0.10431 -0.03431 -0.05000
 C1991 C -0.06902 -0.02342 -0.02775
 C1992 C -0.06159 -0.02704 -0.01391
 H1993 H -0.12997 -0.06367 -0.03891
 H1994 H -0.06351 -0.01521 -0.03574
 H1995 H -0.12897 -0.03929 -0.06572
 H1996 H -0.06724 -0.03525 -0.00602
 C1997 C -0.14216 0.46588 0.45662
 C1998 C -0.13272 0.45966 0.46836
 C1999 C -0.11704 0.46604 0.47190
 N2000 N -0.10833 0.45902 0.48311
 N2001 N -0.09384 0.46416 0.48620
 C2002 C -0.08748 0.47649 0.47818
 N2003 N -0.09622 0.48359 0.46699
 N2004 N -0.11075 0.47843 0.46388
 C2005 C -0.07138 0.48199 0.48152
 C2006 C -0.06231 0.47437 0.49272
 H2007 H -0.13651 0.44944 0.47498
 H2008 H -0.06667 0.49206 0.47520
 H2009 H -0.13822 0.47648 0.45058
 H2010 H -0.06721 0.46431 0.49894
 C2011 C 0.34846 -0.03137 0.46986
 C2012 C 0.35734 -0.01973 0.46228
 C2013 C 0.37310 -0.01503 0.46778
 N2014 N 0.38138 -0.00370 0.46011
 N2015 N 0.39578 0.00044 0.46478
 C2016 C 0.40242 -0.00662 0.47730
 N2017 N 0.39413 -0.01792 0.48498
 N2018 N 0.37974 -0.02205 0.48031
 C2019 C 0.41842 -0.00240 0.48247
 C2020 C 0.42742 0.00914 0.47497
 H2021 H 0.35294 -0.01403 0.45198
 H2022 H 0.42326 -0.00868 0.49230
 H2023 H 0.35323 -0.03662 0.48028
 H2024 H 0.42250 0.01544 0.46518
 C2025 C 0.34471 0.47417 -0.04105
 C2026 C 0.35531 0.46785 -0.03033
 C2027 C 0.37054 0.47585 -0.02739
 N2028 N 0.38012 0.47066 -0.01592
 N2029 N 0.39394 0.47774 -0.01335
 C2030 C 0.39874 0.49025 -0.02218
 N2031 N 0.38918 0.49540 -0.03368
 N2032 N 0.37535 0.48836 -0.03621
 C2033 C 0.41420 0.49790 -0.01970
 C2034 C 0.42374 0.49358 -0.00735
 H2035 H 0.35259 0.45702 -0.02408
 H2036 H 0.41827 0.50673 -0.02790
 H2037 H 0.34778 0.48536 -0.04660
 H2038 H 0.41939 0.48486 0.00082
 C2039 C 0.39977 0.45571 0.78929
 C2040 C 0.38827 0.46604 0.79503
 C2041 C 0.37331 0.46891 0.78672
 N2042 N 0.36239 0.47922 0.79237
 N2043 N 0.34869 0.48158 0.78512
 C2044 C 0.34537 0.47372 0.77194
 N2045 N 0.35630 0.46344 0.76628
 N2046 N 0.37001 0.46110 0.77352
 C2047 C 0.33002 0.47571 0.76412
 C2048 C 0.31844 0.48609 0.76958
 H2049 H 0.39008 0.47195 0.80585
 H2050 H 0.32759 0.46841 0.75422
 H2051 H 0.39774 0.45016 0.77830
 H2052 H 0.32101 0.49337 0.77947
 C2053 C 0.40176 -0.02304 0.29114
 C2054 C 0.39122 -0.03013 0.28100
 C2055 C 0.37478 -0.02464 0.27953
 N2056 N 0.36461 -0.03265 0.27040
 N2057 N 0.34951 -0.02818 0.26940
 C2058 C 0.34405 -0.01555 0.27752
 N2059 N 0.35423 -0.00748 0.28659
 N2060 N 0.36932 -0.01196 0.28760
 C2061 C 0.32742 -0.01055 0.27670
 C2062 C 0.31638 -0.01854 0.26779
 H2063 H 0.39471 -0.04051 0.27453
 H2064 H 0.32383 -0.00023 0.28327
 H2065 H 0.39792 -0.01278 0.29766
 H2066 H 0.31998 -0.02880 0.26114
 C2067 C 0.11015 0.53712 0.71914
 C2068 C 0.11833 0.52450 0.71233
 C2069 C 0.13339 0.51844 0.71846
 N2070 N 0.14216 0.50795 0.71021
 N2071 N 0.15620 0.50293 0.71531
 C2072 C 0.16190 0.50819 0.72889
 N2073 N 0.15305 0.51851 0.73720
 N2074 N 0.13905 0.52356 0.73208
 C2075 C 0.17767 0.50370 0.73443
 C2076 C 0.18844 0.49460 0.72604
 H2077 H 0.11422 0.51953 0.70168
 H2078 H 0.18124 0.50865 0.74532
 H2079 H 0.11485 0.54247 0.72943
 H2080 H 0.18495 0.48930 0.71529
 C2081 C 0.11101 0.04263 0.21093
 C2082 C 0.12024 0.05057 0.22167
 C2083 C 0.13493 0.04322 0.22757
 N2084 N 0.14446 0.05132 0.23730
 N2085 N 0.15809 0.04490 0.24209
 C2086 C 0.16265 0.03018 0.23730
 N2087 N 0.15308 0.02209 0.22767
 N2088 N 0.13949 0.02847 0.22292
 C2089 C 0.17791 0.02307 0.24171
 C2090 C 0.18852 0.03041 0.25160
 H2091 H 0.11718 0.06254 0.22520
 H2092 H 0.18108 0.01178 0.23653
 H2093 H 0.11454 0.03076 0.20741
 H2094 H 0.18531 0.04151 0.25708
 C2095 C 0.65632 0.70462 0.21342
 C2096 C 0.64634 0.71688 0.20845
 C2097 C 0.63146 0.72059 0.21639
 N2098 N 0.62175 0.73207 0.21064
 N2099 N 0.60794 0.73518 0.21730
 C2100 C 0.60329 0.72693 0.22995
 N2101 N 0.61305 0.71551 0.23578
 N2102 N 0.62688 0.71239 0.22911
 C2103 C 0.58779 0.73009 0.23703
 C2104 C 0.57746 0.74119 0.23050
 H2105 H 0.64903 0.72350 0.19812
 H2106 H 0.58439 0.72348 0.24720
 H2107 H 0.65335 0.69811 0.22378
 H2108 H 0.58106 0.74760 0.22028
 C2109 C 0.14247 0.69973 0.69983
 C2110 C 0.13520 0.71421 0.69594
 C2111 C 0.12024 0.71952 0.70289
 N2112 N 0.11348 0.73345 0.69821
 N2113 N 0.09975 0.73828 0.70406
 C2114 C 0.09225 0.72936 0.71485
 N2115 N 0.09905 0.71547 0.71961
 N2116 N 0.11279 0.71063 0.71374
 C2117 C 0.07678 0.73426 0.72101
 C2118 C 0.06880 0.74782 0.71567
 H2119 H 0.14038 0.72190 0.68735
 H2120 H 0.07125 0.72660 0.72947
 H2121 H 0.13722 0.69229 0.70863
 H2122 H 0.07428 0.75534 0.70705
 C2123 C 0.59642 0.21756 0.54628
 C2124 C 0.60948 0.22472 0.55306
 C2125 C 0.62456 0.22612 0.54474
 N2126 N 0.63687 0.23405 0.55103
 N2127 N 0.65053 0.23533 0.54354
 C2128 C 0.65238 0.22867 0.52950
 N2129 N 0.64010 0.22069 0.52326
 N2130 N 0.62646 0.21945 0.53073
 C2131 C 0.66731 0.23006 0.52099
 C2132 C 0.67985 0.23915 0.52633
 H2133 H 0.60874 0.22933 0.56457
 H2134 H 0.66829 0.22405 0.51009
 H2135 H 0.59745 0.21334 0.53462
 H2136 H 0.67871 0.24537 0.53711
 C2137 C 0.61503 0.71631 0.04615
 C2138 C 0.62523 0.70753 0.03692
 C2139 C 0.64152 0.71300 0.03399
 N2140 N 0.65108 0.70469 0.02444
 N2141 N 0.66584 0.70948 0.02186
 C2142 C 0.67166 0.72272 0.02876
 N2143 N 0.66212 0.73099 0.03835
 N2144 N 0.64735 0.72622 0.04092
 C2145 C 0.68794 0.72819 0.02579
 C2146 C 0.69738 0.72060 0.01500
 H2147 H 0.62141 0.69637 0.03200
 H2148 H 0.69234 0.73853 0.03179
 H2149 H 0.61920 0.72747 0.05083
 H2150 H 0.69261 0.71051 0.00887
 C2151 C 0.11827 0.06850 0.06403
 C2152 C 0.11499 0.05226 0.06306
 C2153 C 0.10359 0.04602 0.05190
 N2154 N 0.10058 0.03015 0.05152
 N2155 N 0.09003 0.02435 0.04174
 C2156 C 0.08213 0.03420 0.03189
 N2157 N 0.08526 0.05006 0.03215
 N2158 N 0.09581 0.05586 0.04196
 C2159 C 0.06955 0.02807 0.02190
 C2160 C 0.06426 0.01243 0.02336
 H2161 H 0.12104 0.04382 0.07047
 H2162 H 0.06318 0.03643 0.01461
 H2163 H 0.11243 0.07673 0.05620
 H2164 H 0.07026 0.00437 0.03123
 C2165 C 0.14392 0.54349 0.54446
 C2166 C 0.13254 0.53579 0.55329
 C2167 C 0.11652 0.53302 0.54721
 N2168 N 0.10583 0.52470 0.55558
 N2169 N 0.09136 0.52211 0.55011
 C2170 C 0.08700 0.52781 0.53610
 N2171 N 0.09765 0.53622 0.52778
 N2172 N 0.11213 0.53877 0.53323
 C2173 C 0.07117 0.52468 0.52976
 C2174 C 0.06063 0.51462 0.53725
 H2175 H 0.13527 0.53187 0.56483
 H2176 H 0.06806 0.52981 0.51874
 H2177 H 0.14083 0.54721 0.53293
 H2178 H 0.06406 0.50924 0.54808
 C2179 C 0.64006 0.03704 0.53943
 C2180 C 0.63076 0.04509 0.52862
 C2181 C 0.61400 0.04130 0.52609
 N2182 N 0.60565 0.04955 0.51535
 N2183 N 0.59046 0.04637 0.51290
 C2184 C 0.58301 0.03481 0.52111
 N2185 N 0.59136 0.02655 0.53186
 N2186 N 0.60657 0.02973 0.53431
 C2187 C 0.56622 0.03118 0.51845
 C2188 C 0.55735 0.03928 0.50736
 H2189 H 0.63579 0.05454 0.52172
 H2190 H 0.56079 0.02188 0.52530
 H2191 H 0.63488 0.02744 0.54608
 H2192 H 0.56289 0.04852 0.50052
 C2193 C 0.63503 0.53265 0.05062
 C2194 C 0.62771 0.53602 0.03658
 C2195 C 0.61144 0.53129 0.03293
 N2196 N 0.60475 0.53633 0.01960
 N2197 N 0.58983 0.53271 0.01625
 C2198 C 0.58106 0.52387 0.02613
 N2199 N 0.58779 0.51873 0.03942
 N2200 N 0.60269 0.52240 0.04278
 C2201 C 0.56448 0.52002 0.02286
 C2202 C 0.55623 0.52615 0.01022
 H2203 H 0.63386 0.54289 0.02796
 H2204 H 0.55842 0.51245 0.03104
 H2205 H 0.62901 0.52523 0.05896
 H2206 H 0.56212 0.53397 0.00214
 C2207 C 0.05131 0.03805 0.13947
 C2208 C 0.03933 0.04314 0.12955
 C2209 C 0.03582 0.03464 0.11528
 N2210 N 0.02385 0.03983 0.10615
 N2211 N 0.02071 0.03248 0.09305
 C2212 C 0.02941 0.01967 0.08855
 N2213 N 0.04137 0.01445 0.09769
 N2214 N 0.04451 0.02180 0.11082
 C2215 C 0.02625 0.01176 0.07388
 C2216 C 0.01407 0.01698 0.06433
 H2217 H 0.03235 0.05364 0.13206
 H2218 H 0.03385 0.00199 0.07040
 H2219 H 0.05779 0.02725 0.13669
 H2220 H 0.00654 0.02675 0.06795
 C2221 C 0.04673 0.53777 0.64980
 C2222 C 0.03506 0.54357 0.63994
 C2223 C 0.03118 0.53491 0.62578
 N2224 N 0.01899 0.53982 0.61677
 N2225 N 0.01561 0.53211 0.60389
 C2226 C 0.02429 0.51921 0.59952
 N2227 N 0.03647 0.51433 0.60852
 N2228 N 0.03983 0.52200 0.62140
 C2229 C 0.02110 0.51092 0.58504
 C2230 C 0.00840 0.51520 0.57571
 H2231 H 0.02870 0.55444 0.64257
 H2232 H 0.02927 0.50170 0.58140
 H2233 H 0.05252 0.52658 0.64706
 H2234 H 0.00024 0.52435 0.57952
 C2235 C 0.54283 0.04653 0.63434
 C2236 C 0.53156 0.05427 0.62516
 C2237 C 0.52805 0.04907 0.60946
 N2238 N 0.51687 0.05689 0.60110
 N2239 N 0.51361 0.05242 0.58685
 C2240 C 0.52141 0.03995 0.58040
 N2241 N 0.53258 0.03212 0.58875
 N2242 N 0.53585 0.03659 0.60302
 C2243 C 0.51800 0.03494 0.56462
 C2244 C 0.50656 0.04257 0.55563
 H2245 H 0.52505 0.06445 0.62940
 H2246 H 0.52471 0.02505 0.55998
 H2247 H 0.54898 0.03625 0.62971
 H2248 H 0.49985 0.05243 0.56033
 C2249 C 0.54460 0.54025 0.14030
 C2250 C 0.53336 0.54732 0.13071
 C2251 C 0.52997 0.54124 0.11534
 N2252 N 0.51911 0.54887 0.10648
 N2253 N 0.51600 0.54375 0.09243
 C2254 C 0.52363 0.53081 0.08667
 N2255 N 0.53449 0.52314 0.09554
 N2256 N 0.53762 0.52828 0.10963
 C2257 C 0.52018 0.52516 0.07112
 C2258 C 0.50910 0.53303 0.06195
 H2259 H 0.52697 0.55783 0.13433
 H2260 H 0.52633 0.51470 0.06691
 H2261 H 0.55082 0.52966 0.13649
 H2262 H 0.50305 0.54347 0.06633
 C2263 C 0.21478 0.54873 0.61099
 C2264 C 0.21037 0.53558 0.61985
 C2265 C 0.21797 0.53180 0.63466
 N2266 N 0.21476 0.51776 0.64181
 N2267 N 0.22159 0.51406 0.65513
 C2268 C 0.23189 0.52425 0.66185
 N2269 N 0.23505 0.53834 0.65474
 N2270 N 0.22826 0.54202 0.64137
 C2271 C 0.23921 0.52033 0.67678
 C2272 C 0.23689 0.50550 0.68375
 H2273 H 0.20162 0.52738 0.61555
 H2274 H 0.24609 0.52936 0.68254
 H2275 H 0.22419 0.55634 0.61504
 H2276 H 0.23007 0.49657 0.67778
 C2277 C 0.17903 0.05925 0.13732
 C2278 C 0.19296 0.06241 0.14527
 C2279 C 0.19829 0.05245 0.15836
 N2280 N 0.21295 0.05455 0.16428
 N2281 N 0.21796 0.04569 0.17609
 C2282 C 0.20850 0.03440 0.18248
 N2283 N 0.19379 0.03237 0.17662
 N2284 N 0.18880 0.04117 0.16476
 C2285 C 0.21387 0.02489 0.19588
 C2286 C 0.22944 0.02574 0.20107
 H2287 H 0.20046 0.07212 0.14159
 H2288 H 0.20536 0.01770 0.20206
 H2289 H 0.17211 0.04895 0.14065
 H2290 H 0.23777 0.03292 0.19465
 C2291 C 0.71065 0.20782 0.63649
 C2292 C 0.72054 0.20189 0.62509
 C2293 C 0.72289 0.21050 0.61051
 N2294 N 0.73283 0.20444 0.59983
 N2295 N 0.73474 0.21186 0.58642
 C2296 C 0.72679 0.22561 0.58316
 N2297 N 0.71689 0.23171 0.59386
 N2298 N 0.71499 0.22430 0.60729
 C2299 C 0.72831 0.23352 0.56811
 C2300 C 0.73815 0.22731 0.55682
 H2301 H 0.72660 0.19060 0.62672
 H2302 H 0.72108 0.24394 0.56566
 H2303 H 0.70504 0.21936 0.63477
 H2304 H 0.74529 0.21685 0.55941
 C2305 C 0.71289 0.70659 0.13640
 C2306 C 0.72491 0.70064 0.12706
 C2307 C 0.72828 0.70725 0.11175
 N2308 N 0.74010 0.70084 0.10325
 N2309 N 0.74322 0.70647 0.08929
 C2310 C 0.73463 0.71876 0.08328
 N2311 N 0.72283 0.72521 0.09179
 N2312 N 0.71970 0.71956 0.10577
 C2313 C 0.73777 0.72495 0.06776
 C2314 C 0.74955 0.71853 0.05844
 H2315 H 0.73215 0.69074 0.13093
 H2316 H 0.73043 0.73465 0.06350
 H2317 H 0.70600 0.71678 0.13249
 H2318 H 0.75685 0.70880 0.06272
 C2319 C 0.54610 0.72764 0.10824
 C2320 C 0.53540 0.72121 0.11866
 C2321 C 0.53329 0.72805 0.13398
 N2322 N 0.52361 0.72080 0.14422
 N2323 N 0.52224 0.72637 0.15840
 C2324 C 0.53054 0.73937 0.16288
 N2325 N 0.54014 0.74669 0.15262
 N2326 N 0.54150 0.74112 0.13844
 C2327 C 0.52956 0.74529 0.17866
 C2328 C 0.52010 0.73785 0.18958
 H2329 H 0.52917 0.71033 0.11604
 H2330 H 0.53661 0.75553 0.18177
 H2331 H 0.55233 0.73846 0.11120
 H2332 H 0.51298 0.72770 0.18635
 C2333 C 0.03045 0.71456 0.59245
 C2334 C 0.03453 0.72811 0.60065
 C2335 C 0.02761 0.73167 0.61565
 N2336 N 0.03286 0.74441 0.62360
 N2337 N 0.02756 0.74722 0.63766
 C2338 C 0.01682 0.73739 0.64432
 N2339 N 0.01141 0.72473 0.63630
 N2340 N 0.01673 0.72191 0.62222
 C2341 C 0.01164 0.73995 0.66017
 C2342 C 0.01832 0.75192 0.66901
 H2343 H 0.04371 0.73593 0.59647
 H2344 H 0.00301 0.73193 0.66512
 H2345 H 0.02076 0.70722 0.59645
 H2346 H 0.02705 0.75977 0.66396
 C2347 C 0.53900 0.61183 0.20375
 C2348 C 0.54412 0.62046 0.21640
 C2349 C 0.53775 0.63641 0.22000
 N2350 N 0.54362 0.64456 0.23208
 N2351 N 0.53830 0.65915 0.23529
 C2352 C 0.52687 0.66618 0.22656
 N2353 N 0.52091 0.65799 0.21453
 N2354 N 0.52625 0.64338 0.21131
 C2355 C 0.52133 0.68256 0.22972
 C2356 C 0.52820 0.69169 0.24119
 H2357 H 0.55328 0.61565 0.22376
 H2358 H 0.51222 0.68774 0.22247
 H2359 H 0.52979 0.61688 0.19653
 H2360 H 0.53751 0.68647 0.24816
 C2361 C 0.05414 0.61597 0.70859
 C2362 C 0.04249 0.62560 0.70190
 C2363 C 0.03951 0.64207 0.70715
 N2364 N 0.02790 0.65099 0.70054
 N2365 N 0.02506 0.66585 0.70519
 C2366 C 0.03373 0.67239 0.71664
 N2367 N 0.04535 0.66348 0.72325
 N2368 N 0.04818 0.64861 0.71860
 C2369 C 0.03072 0.68886 0.72187
 C2370 C 0.01886 0.69834 0.71535
 H2371 H 0.03527 0.62105 0.69271
 H2372 H 0.03803 0.69361 0.73093
 H2373 H 0.06108 0.62076 0.71790
 H2374 H 0.01166 0.69347 0.70627
 C2375 C 0.03547 0.13755 0.05166
 C2376 C 0.04207 0.12760 0.04063
 C2377 C 0.03461 0.11224 0.03674
 N2378 N 0.04064 0.10308 0.02539
 N2379 N 0.03405 0.08914 0.02194
 C2380 C 0.02118 0.08378 0.02971
 N2381 N 0.01516 0.09293 0.04107
 N2382 N 0.02173 0.10688 0.04450
 C2383 C 0.01404 0.06816 0.02627
 C2384 C 0.01974 0.05868 0.01445
 H2385 H 0.05279 0.13103 0.03476
 H2386 H 0.00450 0.06388 0.03343
 H2387 H 0.02453 0.13393 0.05707
 H2388 H 0.02931 0.06314 0.00741
 C2389 C 0.04701 0.64209 0.53301
 C2390 C 0.03369 0.63380 0.53803
 C2391 C 0.03066 0.61719 0.53370
 N2392 N 0.01805 0.60941 0.53969
 N2393 N 0.01533 0.59422 0.53618
 C2394 C 0.02512 0.58628 0.52653
 N2395 N 0.03768 0.59408 0.52049
 N2396 N 0.04042 0.60926 0.52401
 C2397 C 0.02243 0.56950 0.52264
 C2398 C 0.01006 0.56065 0.52887
 H2399 H 0.02543 0.63932 0.54581
 H2400 H 0.03056 0.56394 0.51470
 H2401 H 0.05524 0.63625 0.52535
 H2402 H 0.00196 0.56615 0.53687
 C2403 C 0.51462 0.16846 0.54567
 C2404 C 0.51859 0.16177 0.53159
 C2405 C 0.51255 0.14620 0.52677
 N2406 N 0.51908 0.13887 0.51449
 N2407 N 0.51470 0.12420 0.51064
 C2408 C 0.50360 0.11633 0.51894
 N2409 N 0.49689 0.12374 0.53108
 N2410 N 0.50132 0.13840 0.53496
 C2411 C 0.49923 0.09984 0.51535
 C2412 C 0.50743 0.09082 0.50457
 H2413 H 0.52749 0.16722 0.52445
 H2414 H 0.48978 0.09445 0.52191
 H2415 H 0.50551 0.16290 0.55256
 H2416 H 0.51706 0.09613 0.49819
 C2417 C 0.53971 0.65159 0.05019
 C2418 C 0.54287 0.64271 0.03707
 C2419 C 0.53378 0.62817 0.03344
 N2420 N 0.53649 0.62023 0.02020
 N2421 N 0.52838 0.60709 0.01687
 C2422 C 0.51722 0.60138 0.02665
 N2423 N 0.51452 0.60932 0.03988
 N2424 N 0.52261 0.62247 0.04319
 C2425 C 0.50853 0.58651 0.02344
 C2426 C 0.51108 0.57772 0.01016
 H2427 H 0.55188 0.64661 0.02913
 H2428 H 0.50056 0.58198 0.03211
 H2429 H 0.53025 0.64773 0.05768
 H2430 H 0.51920 0.58225 0.00161
 C2431 C 0.71472 0.09851 0.53337
 C2432 C 0.70653 0.10981 0.52456
 C2433 C 0.71248 0.12611 0.52235
 N2434 N 0.70326 0.13717 0.51523
 N2435 N 0.70822 0.15212 0.51353
 C2436 C 0.72260 0.15660 0.51887
 N2437 N 0.73189 0.14552 0.52592
 N2438 N 0.72690 0.13055 0.52767
 C2439 C 0.72816 0.17310 0.51691
 C2440 C 0.71837 0.18479 0.51052
 H2441 H 0.69509 0.10711 0.51976
 H2442 H 0.74014 0.17598 0.52023
 H2443 H 0.72612 0.10176 0.53806
 H2444 H 0.70637 0.18176 0.50736
 C2445 C 0.70174 0.60061 0.03572
 C2446 C 0.71598 0.60842 0.03817
 C2447 C 0.72011 0.62313 0.02989
 N2448 N 0.73425 0.63011 0.03255
 N2449 N 0.73798 0.64376 0.02559
 C2450 C 0.72773 0.65096 0.01570
 N2451 N 0.71361 0.64393 0.01296
 N2452 N 0.70987 0.63025 0.01992
 C2453 C 0.73151 0.66647 0.00862
 C2454 C 0.74559 0.67416 0.01210
 H2455 H 0.72433 0.60380 0.04650
 H2456 H 0.72282 0.67225 0.00132
 H2457 H 0.69381 0.60497 0.02686
 H2458 H 0.75411 0.66828 0.01954
 C2459 C 0.21045 0.62953 0.69085
 C2460 C 0.20402 0.61975 0.70225
 C2461 C 0.21115 0.60426 0.70652
 N2462 N 0.20430 0.59505 0.71748
 N2463 N 0.21062 0.58102 0.72149
 C2464 C 0.22405 0.57567 0.71467
 N2465 N 0.23089 0.58487 0.70372
 N2466 N 0.22457 0.59890 0.69971
 C2467 C 0.23128 0.56025 0.71896
 C2468 C 0.22478 0.55011 0.73000
 H2469 H 0.19343 0.62337 0.70821
 H2470 H 0.24209 0.55680 0.71318
 H2471 H 0.22095 0.62555 0.68488
 H2472 H 0.21390 0.55346 0.73567
 C2473 C 0.18869 0.11763 0.18763
 C2474 C 0.19204 0.11633 0.20320
 C2475 C 0.20414 0.10535 0.20916
 N2476 N 0.20701 0.10471 0.22442
 N2477 N 0.21787 0.09472 0.23007
 C2478 C 0.22634 0.08512 0.22065
 N2479 N 0.22359 0.08588 0.20537
 N2480 N 0.21271 0.09586 0.19971
 C2481 C 0.23717 0.07296 0.22685
 C2482 C 0.23749 0.06937 0.24243
 H2483 H 0.18621 0.12410 0.21127
 H2484 H 0.24307 0.06514 0.21883
 H2485 H 0.19508 0.11022 0.17959
 H2486 H 0.23108 0.07687 0.25037
 C2487 C 0.71203 1.12605 0.69013
 C2488 C 0.70641 1.11643 0.70205
 C2489 C 0.71171 1.09978 0.70437
 N2490 N 0.70554 1.09097 0.71598
 N2491 N 0.71022 1.07593 0.71833
 C2492 C 0.72128 1.06912 0.70917
 N2493 N 0.72747 1.07793 0.69755
 N2494 N 0.72277 1.09298 0.69518
 C2495 C 0.72665 1.05252 0.71169
 C2496 C 0.72042 1.04288 0.72328
 H2497 H 0.69779 1.12108 0.70998
 H2498 H 0.73572 1.04780 0.70421
 H2499 H 0.72044 1.12108 0.68211
 H2500 H 0.71127 1.04761 0.73065
 C2501 C 0.71906 0.63265 0.19875
 C2502 C 0.71153 0.62320 0.20973
 C2503 C 0.71660 0.60683 0.21334
 N2504 N 0.70827 0.59804 0.22361
 N2505 N 0.71264 0.58314 0.22703
 C2506 C 0.72551 0.57650 0.22030
 N2507 N 0.73386 0.58530 0.21004
 N2508 N 0.72948 0.60019 0.20661
 C2509 C 0.73060 0.56015 0.22396
 C2510 C 0.72239 0.55031 0.23412
 H2511 H 0.70126 0.62768 0.21570
 H2512 H 0.74120 0.55576 0.21843
 H2513 H 0.72892 0.62777 0.19237
 H2514 H 0.71167 0.55457 0.23953
 C2515 C 0.53650 0.10927 0.70452
 C2516 C 0.54097 0.11544 0.71871
 C2517 C 0.53595 0.13132 0.72398
 N2518 N 0.54113 0.13668 0.73770
 N2519 N 0.53728 0.15125 0.74248
 C2520 C 0.52809 0.16103 0.73371
 N2521 N 0.52281 0.15564 0.72002
 N2522 N 0.52667 0.14105 0.71523
 C2523 C 0.52436 0.17742 0.73858
 C2524 C 0.53049 0.18375 0.75205
 H2525 H 0.54873 0.10875 0.72623
 H2526 H 0.51723 0.18485 0.73105
 H2527 H 0.52829 0.11609 0.69749
 H2528 H 0.53773 0.17630 0.75947
 C2529 C 1.04380 0.11444 0.19690
 C2530 C 1.04758 0.12313 0.20995
 C2531 C 1.03983 0.13843 0.21360
 N2532 N 1.04397 0.14629 0.22650
 N2533 N 1.03718 0.16018 0.22997
 C2534 C 1.02598 0.16676 0.22069
 N2535 N 1.02181 0.15889 0.20778
 N2536 N 1.02861 0.14498 0.20430
 C2537 C 1.01860 0.18227 0.22434
 C2538 C 1.02297 0.19077 0.23732
 H2539 H 1.05643 0.11868 0.21785
 H2540 H 1.00990 0.18722 0.21651
 H2541 H 1.03475 0.11901 0.18923
 H2542 H 1.03180 0.18576 0.24499
 C2543 C 0.21936 0.59944 0.53024
 C2544 C 0.23129 0.60950 0.53534
 C2545 C 0.23483 0.62452 0.52726
 N2546 N 0.24596 0.63450 0.53288
 N2547 N 0.24846 0.64865 0.52629
 C2548 C 0.23989 0.65336 0.51386
 N2549 N 0.22887 0.64333 0.50817
 N2550 N 0.22639 0.62918 0.51474
 C2551 C 0.24176 0.66935 0.50710
 C2552 C 0.25292 0.68004 0.51258
 H2553 H 0.23738 0.60703 0.54598
 H2554 H 0.23374 0.67299 0.49803
 H2555 H 0.21357 0.60211 0.51945
 H2556 H 0.26116 0.67622 0.52140
 C2557 C 0.17730 0.14132 1.08205
 C2558 C 0.19271 0.14323 1.07682
 C2559 C 0.19691 0.15626 1.06613
 N2560 N 0.21118 0.15615 1.05906
 N2561 N 0.21473 0.16723 1.04860
 C2562 C 0.20409 0.17880 1.04472
 N2563 N 0.18987 0.17899 1.05186
 N2564 N 0.18632 0.16790 1.06231
 C2565 C 0.20802 0.19139 1.03346
 C2566 C 0.22297 0.19242 1.02689
 H2567 H 0.20130 0.13384 1.07897
 H2568 H 0.19954 0.20094 1.03152
 H2569 H 0.16852 0.15023 1.07895
 H2570 H 0.23177 0.18341 1.02970
 C2571 C 0.20906 0.70668 0.63170
 C2572 C 0.22205 0.70157 0.62315
 C2573 C 0.22661 0.70957 0.60874
 N2574 N 0.23913 0.70410 0.60056
 N2575 N 0.24301 0.71092 0.58725
 C2576 C 0.23451 0.72348 0.58165
 N2577 N 0.22206 0.72899 0.58988
 N2578 N 0.21819 0.72218 0.60316
 C2579 C 0.23800 0.73072 0.56665
 C2580 C 0.25037 0.72558 0.55729
 H2581 H 0.22888 0.69129 0.62681
 H2582 H 0.23006 0.74001 0.56257
 H2583 H 0.20257 0.71720 0.62794
 H2584 H 0.25850 0.71647 0.56140
 C2585 C 0.18106 0.18468 1.12375
 C2586 C 0.18029 0.20062 1.11902
 C2587 C 0.19024 0.20628 1.10623
 N2588 N 0.19109 0.22208 1.10283
 N2589 N 0.20053 0.22724 1.09164
 C2590 C 0.20949 0.21680 1.08350
 N2591 N 0.20856 0.20102 1.08684
 N2592 N 0.19915 0.19587 1.09801
 C2593 C 0.21972 0.22219 1.07089
 C2594 C 0.22021 0.23808 1.06618
 H2595 H 0.17327 0.20922 1.12523
 H2596 H 0.22610 0.21322 1.06446
 H2597 H 0.18859 0.17663 1.11733
 H2598 H 0.21329 0.24693 1.07224
 C2599 C 0.70833 0.54406 0.11278
 C2600 C 0.70578 0.53006 0.12113
 C2601 C 0.71379 0.52669 0.13581
 N2602 N 0.71206 0.51220 0.14258
 N2603 N 0.71901 0.50895 0.15594
 C2604 C 0.72796 0.52007 0.16310
 N2605 N 0.72970 0.53460 0.15633
 N2606 N 0.72278 0.53784 0.14292
 C2607 C 0.73507 0.51670 0.17826
 C2608 C 0.73351 0.50173 0.18516
 H2609 H 0.69798 0.52104 0.11663
 H2610 H 0.74073 0.52630 0.18439
 H2611 H 0.71683 0.55261 0.11698
 H2612 H 0.72773 0.49231 0.17887
 C2613 C 0.71824 1.02711 0.59403
 C2614 C 0.71129 1.01557 0.60335
 C2615 C 0.71706 1.01227 0.61893
 N2616 N 0.70981 1.00104 0.62763
 N2617 N 0.71442 0.99839 0.64201
 C2618 C 0.72640 1.00691 0.64823
 N2619 N 0.73370 1.01811 0.63951
 N2620 N 0.72910 1.02075 0.62512
 C2621 C 0.73130 1.00428 0.66421
 C2622 C 0.72419 0.99258 0.67322
 H2623 H 0.70094 1.00923 0.59952
 H2624 H 0.74058 1.01162 0.66893
 H2625 H 0.72890 1.03295 0.59793
 H2626 H 0.71512 0.98511 0.66829
 C2627 C 0.53952 0.21315 0.62391
 C2628 C 0.54966 0.22119 0.63380
 C2629 C 0.54597 0.22277 0.65021
 N2630 N 0.55573 0.23104 0.65955
 N2631 N 0.55235 0.23267 0.67437
 C2632 C 0.53907 0.22606 0.68038
 N2633 N 0.52936 0.21775 0.67105
 N2634 N 0.53273 0.21613 0.65626
 C2635 C 0.53488 0.22798 0.69661
 C2636 C 0.54400 0.23685 0.70672
 H2637 H 0.56038 0.22656 0.62951
 H2638 H 0.52403 0.22254 0.70059
 H2639 H 0.52881 0.20797 0.62851
 H2640 H 0.55484 0.24232 0.70274
 C2641 C 1.03071 0.20806 0.11289
 C2642 C 1.03672 0.22046 0.12173
 C2643 C 1.03004 0.22442 0.13674
 N2644 N 1.03683 0.23594 0.14532
 N2645 N 1.03148 0.23905 0.15932
 C2646 C 1.01916 0.23073 0.16524
 N2647 N 1.01230 0.21929 0.15661
 N2648 N 1.01765 0.21618 0.14262
 C2649 C 1.01354 0.23352 0.18086
 C2650 C 1.02045 0.24477 0.19039
 H2651 H 1.04703 0.22702 0.11811
 H2652 H 1.00392 0.22622 0.18507
 H2653 H 1.01998 0.20219 0.11664
 H2654 H 1.02992 0.25223 0.18613
 C2655 C 0.66014 0.20630 0.71512
 C2656 C 0.65077 0.19868 0.72606
 C2657 C 0.63749 0.20714 0.73339
 N2658 N 0.62753 0.19922 0.74292
 N2659 N 0.61491 0.20657 0.74877
 C2660 C 0.61181 0.22213 0.74529
 N2661 N 0.62186 0.23006 0.73591
 N2662 N 0.63445 0.22272 0.73008
 C2663 C 0.59735 0.23019 0.75054
 C2664 C 0.58619 0.22281 0.75990
 H2665 H 0.65246 0.18613 0.72858
 H2666 H 0.59503 0.24210 0.74613
 H2667 H 0.65799 0.21882 0.71263
 H2668 H 0.58865 0.21112 0.76474
 C2669 C 1.12876 0.19154 0.20423
 C2670 C 1.12174 0.20646 0.20191
 C2671 C 1.10985 0.21263 0.21276
 N2672 N 1.10345 0.22738 0.21070
 N2673 N 1.09212 0.23267 0.22001
 C2674 C 1.08676 0.22341 0.23174
 N2675 N 1.09324 0.20872 0.23386
 N2676 N 1.10458 0.20346 0.22459
 C2677 C 1.07319 0.22842 0.24117
 C2678 C 1.06584 0.24319 0.23902
 H2679 H 1.12458 0.21350 0.19188
 H2680 H 1.06789 0.21965 0.24873
 H2681 H 1.12598 0.18497 0.21461
 H2682 H 1.07126 0.25187 0.23145
 C2683 C 0.11396 0.71147 0.54533
 C2684 C 0.12556 0.70296 0.53746
 C2685 C 0.14171 0.70899 0.53536
 N2686 N 0.15221 0.70036 0.52708
 N2687 N 0.16677 0.70575 0.52466
 C2688 C 0.17141 0.71997 0.53047
 N2689 N 0.16095 0.72857 0.53887
 N2690 N 0.14636 0.72317 0.54128
 C2691 C 0.18725 0.72635 0.52719
 C2692 C 0.19742 0.71866 0.51706
 H2693 H 0.12284 0.69152 0.53251
 H2694 H 0.19056 0.73770 0.53208
 H2695 H 0.11698 0.72276 0.55051
 H2696 H 0.19381 0.70751 0.51194
 C2697 C 0.10860 0.20431 1.05988
 C2698 C 0.11611 0.20358 1.04574
 C2699 C 0.13088 0.21243 1.04283
 N2700 N 0.13660 0.21371 1.02839
 N2701 N 0.14963 0.22210 1.02557
 C2702 C 0.15746 0.22956 1.03707
 N2703 N 0.15179 0.22820 1.05153
 N2704 N 0.13873 0.21985 1.05435
 C2705 C 0.17221 0.23842 1.03409
 C2706 C 0.17830 0.23970 1.01934
 H2707 H 0.11049 0.19746 1.03634
 H2708 H 0.17894 0.24286 1.04370
 H2709 H 0.11394 0.21131 1.06887
 H2710 H 0.17169 0.23467 1.00993
 C2711 C 0.60491 0.53892 0.21348
 C2712 C 0.61342 0.52597 0.20762
 C2713 C 0.62807 0.51997 0.21476
 N2714 N 0.63664 0.50836 0.20778
 N2715 N 0.65021 0.50316 0.21384
 C2716 C 0.65565 0.50937 0.22714
 N2717 N 0.64702 0.52088 0.23416
 N2718 N 0.63348 0.52609 0.22810
 C2719 C 0.67094 0.50452 0.23371
 C2720 C 0.68137 0.49385 0.22669
 H2721 H 0.60970 0.52031 0.19716
 H2722 H 0.67448 0.51040 0.24417
 H2723 H 0.60900 0.54460 0.22384
 H2724 H 0.67790 0.48776 0.21633
 C2725 C 0.59987 1.03597 0.70912
 C2726 C 0.60794 1.02275 0.70335
 C2727 C 0.62273 1.01680 0.71029
 N2728 N 0.63045 1.00425 0.70395
 N2729 N 0.64421 0.99919 0.70967
 C2730 C 0.65076 1.00648 0.72197
 N2731 N 0.64298 1.01896 0.72837
 N2732 N 0.62922 1.02402 0.72265
 C2733 C 0.66637 1.00165 0.72789
 C2734 C 0.67529 0.98955 0.72115
 H2735 H 0.60369 1.01681 0.69322
 H2736 H 0.67131 1.00842 0.73724
 H2737 H 0.60413 1.04151 0.71949
 H2738 H 0.67031 0.98278 0.71181
 C2739 C 0.89115 0.45607 0.29809
 C2740 C 0.87903 0.46597 0.30327
 C2741 C 0.86407 0.46760 0.29463
 N2742 N 0.85247 0.47744 0.29972
 N2743 N 0.83883 0.47875 0.29213
 C2744 C 0.83625 0.47025 0.27916
 N2745 N 0.84786 0.46041 0.27407
 N2746 N 0.86150 0.45913 0.28165
 C2747 C 0.82107 0.47138 0.27084
 C2748 C 0.80913 0.48168 0.27565
 H2749 H 0.88030 0.47235 0.31392
 H2750 H 0.81921 0.46387 0.26097
 H2751 H 0.88951 0.44988 0.28736
 H2752 H 0.81125 0.48917 0.28550
 C2753 C 0.88305 0.95890 0.79763
 C2754 C 0.87596 0.95270 0.78453
 C2755 C 0.86010 0.95780 0.77941
 N2756 N 0.85357 0.95118 0.76678
 N2757 N 0.83912 0.95546 0.76216
 C2758 C 0.83066 0.96653 0.77000
 N2759 N 0.83720 0.97319 0.78260
 N2760 N 0.85165 0.96891 0.78723
 C2761 C 0.81455 0.97117 0.76524
 C2762 C 0.80705 0.96429 0.75270
 H2763 H 0.88198 0.94369 0.77789
 H2764 H 0.80832 0.97996 0.77203
 H2765 H 0.87680 0.96796 0.80407
 H2766 H 0.81327 0.95544 0.74599
 C2767 C 0.37861 0.28773 0.80976
 C2768 C 0.38860 0.29542 0.79941
 C2769 C 0.40456 0.28904 0.79632
 N2770 N 0.41445 0.29674 0.78655
 N2771 N 0.42896 0.29105 0.78395
 C2772 C 0.43408 0.27747 0.79103
 N2773 N 0.42419 0.26979 0.80076
 N2774 N 0.40972 0.27546 0.80335
 C2775 C 0.45001 0.27091 0.78851
 C2776 C 0.46093 0.27786 0.77860
 H2777 H 0.38491 0.30637 0.79378
 H2778 H 0.45321 0.26013 0.79475
 H2779 H 0.38274 0.27689 0.81536
 H2780 H 0.45779 0.28861 0.77230
 C2781 C 0.85020 0.27066 0.29683
 C2782 C 0.85999 0.27750 0.28579
 C2783 C 0.87635 0.27203 0.28326
 N2784 N 0.88513 0.27905 0.27215
 N2785 N 0.90000 0.27444 0.26975
 C2786 C 0.90670 0.26263 0.27835
 N2787 N 0.89791 0.25558 0.28946
 N2788 N 0.88300 0.26018 0.29187
 C2789 C 0.92328 0.25773 0.27587
 C2790 C 0.93245 0.26511 0.26466
 H2791 H 0.85564 0.28716 0.27866
 H2792 H 0.92838 0.24850 0.28312
 H2793 H 0.85462 0.26071 0.30361
 H2794 H 0.92717 0.27438 0.25757
 C2795 C 0.39041 0.81415 0.45227
 C2796 C 0.38130 0.80134 0.44738
 C2797 C 0.36622 0.79702 0.45470
 N2798 N 0.35778 0.78464 0.44913
 N2799 N 0.34408 0.78056 0.45549
 C2800 C 0.33826 0.78868 0.46767
 N2801 N 0.34671 0.80107 0.47327
 N2802 N 0.36044 0.80518 0.46689
 C2803 C 0.32307 0.78412 0.47472
 C2804 C 0.31421 0.77161 0.46880
 H2805 H 0.38512 0.79427 0.43775
 H2806 H 0.31887 0.79059 0.48461
 H2807 H 0.38629 0.82120 0.46184
 H2808 H 0.31858 0.76533 0.45885
 C2809 C 0.38647 0.30292 0.96799
 C2810 C 0.37763 0.28930 0.96507
 C2811 C 0.36264 0.28622 0.97311
 N2812 N 0.35449 0.27267 0.97025
 N2813 N 0.34072 0.26994 0.97714
 C2814 C 0.33456 0.28063 0.98717
 N2815 N 0.34274 0.29416 0.99008
 N2816 N 0.35653 0.29688 0.98319
 C2817 C 0.31895 0.27805 0.99423
 C2818 C 0.31010 0.26460 0.99076
 H2819 H 0.38165 0.28073 0.95671
 H2820 H 0.31401 0.28726 1.00146
 H2821 H 0.38240 0.31110 0.97671
 H2822 H 0.31515 0.25560 0.98335
 C2823 C 0.78988 0.46244 0.39247
 C2824 C 0.77993 0.45413 0.38267
 C2825 C 0.77593 0.46043 0.36737
 N2826 N 0.76681 0.45174 0.35779
 N2827 N 0.76362 0.45706 0.34371
 C2828 C 0.76943 0.47124 0.33867
 N2829 N 0.77848 0.47997 0.34827
 N2830 N 0.78168 0.47466 0.36235
 C2831 C 0.76636 0.47703 0.32300
 C2832 C 0.75733 0.46827 0.31277
 H2833 H 0.77556 0.44247 0.38587
 H2834 H 0.77151 0.48827 0.31942
 H2835 H 0.79421 0.47404 0.38892
 H2836 H 0.75215 0.45709 0.31648
 C2837 C 0.80181 0.94929 0.87314
 C2838 C 0.78917 0.94305 0.86492
 C2839 C 0.78450 0.94941 0.84985
 N2840 N 0.77239 0.94258 0.84216
 N2841 N 0.76815 0.94798 0.82839
 C2842 C 0.77585 0.96043 0.82177
 N2843 N 0.78793 0.96730 0.82947
 N2844 N 0.79219 0.96189 0.84326
 C2845 C 0.77140 0.96630 0.80644
 C2846 C 0.75949 0.95901 0.79802
 H2847 H 0.78258 0.93305 0.86942
 H2848 H 0.77781 0.97629 0.80160
 H2849 H 0.80822 0.95935 0.86843
 H2850 H 0.75326 0.94892 0.80289
 C2851 C 0.29081 0.78155 0.35141
 C2852 C 0.28020 0.78868 0.36148
 C2853 C 0.27609 0.78078 0.37607
 N2854 N 0.26606 0.78792 0.38604
 N2855 N 0.26322 0.78133 0.39970
 C2856 C 0.27036 0.76738 0.40390
 N2857 N 0.28029 0.76020 0.39389
 N2858 N 0.28308 0.76676 0.38025
 C2859 C 0.26830 0.76047 0.41928
 C2860 C 0.25760 0.76672 0.42978
 H2861 H 0.27588 0.80067 0.35932
 H2862 H 0.27580 0.75050 0.42258
 H2863 H 0.29501 0.76956 0.35393
 H2864 H 0.24966 0.77626 0.42629
 C2865 C 0.30570 0.28057 0.86951
 C2866 C 0.29189 0.28563 0.87672
 C2867 C 0.28680 0.27900 0.89154
 N2868 N 0.27375 0.28501 0.89845
 N2869 N 0.26931 0.27962 0.91215
 C2870 C 0.27774 0.26800 0.91946
 N2871 N 0.29074 0.26189 0.91250
 N2872 N 0.29519 0.26729 0.89879
 C2873 C 0.27329 0.26247 0.93489
 C2874 C 0.26082 0.26954 0.94280
 H2875 H 0.28481 0.29513 0.87176
 H2876 H 0.28034 0.25320 0.94034
 H2877 H 0.31255 0.27095 0.87463
 H2878 H 0.25400 0.27895 0.93731
 C2879 C 0.45096 0.29164 0.89726
 C2880 C 0.46563 0.29460 0.89051
 C2881 C 0.47100 0.28694 0.87629
 N2882 N 0.48564 0.29020 0.87084
 N2883 N 0.49072 0.28373 0.85786
 C2884 C 0.48134 0.27373 0.84977
 N2885 N 0.46668 0.27042 0.85523
 N2886 N 0.46159 0.27690 0.86825
 C2887 C 0.48678 0.26684 0.83517
 C2888 C 0.50168 0.27029 0.82918
 H2889 H 0.47371 0.30283 0.89584
 H2890 H 0.47876 0.25929 0.82885
 H2891 H 0.44325 0.28279 0.89229
 H2892 H 0.50957 0.27793 0.83556
 C2893 C 0.95248 0.30375 0.38916
 C2894 C 0.94799 0.29137 0.37950
 C2895 C 0.95609 0.28822 0.36490
 N2896 N 0.95159 0.27567 0.35623
 N2897 N 0.95875 0.27262 0.34300
 C2898 C 0.97071 0.28202 0.33790
 N2899 N 0.97522 0.29459 0.34656
 N2900 N 0.96806 0.29763 0.35982
 C2901 C 0.97858 0.27887 0.32316
 C2902 C 0.97424 0.26604 0.31401
 H2903 H 0.93842 0.28355 0.38273
 H2904 H 0.98774 0.28695 0.31934
 H2905 H 0.96236 0.31121 0.38590
 H2906 H 0.96504 0.25804 0.31792
 C2907 C 0.47635 0.39747 0.79145
 C2908 C 0.48769 0.38832 0.79918
 C2909 C 0.49344 0.37304 0.79308
 N2910 N 0.50325 0.36370 0.80162
 N2911 N 0.50773 0.34937 0.79665
 C2912 C 0.50256 0.34389 0.78294
 N2913 N 0.49290 0.35331 0.77434
 N2914 N 0.48841 0.36761 0.77931
 C2915 C 0.50654 0.32776 0.77766
 C2916 C 0.51571 0.31715 0.78630
 H2917 H 0.49173 0.39176 0.81041
 H2918 H 0.50146 0.32391 0.76692
 H2919 H 0.47246 0.39375 0.78021
 H2920 H 0.52100 0.32103 0.79693
 C2921 C 0.96673 0.39700 0.30700
 C2922 C 0.96250 0.38877 0.29380
 C2923 C 0.96826 0.37260 0.29051
 N2924 N 0.96244 0.36474 0.27824
 N2925 N 0.96699 0.34983 0.27535
 C2926 C 0.97752 0.34223 0.28464
 N2927 N 0.98343 0.35012 0.29687
 N2928 N 0.97884 0.36503 0.29979
 C2929 C 0.98259 0.32576 0.28157
 C2930 C 0.97613 0.31694 0.26965
 H2931 H 0.95407 0.39389 0.28585
 H2932 H 0.99167 0.32054 0.28882
 H2933 H 0.97552 0.39188 0.31464
 H2934 H 0.96690 0.32214 0.26255
 C2935 C 0.28272 0.90016 0.47663
 C2936 C 0.27119 0.89029 0.47041
 C2937 C 0.26947 0.87358 0.47532
 N2938 N 0.25882 0.86408 0.46825
 N2939 N 0.25779 0.84866 0.47194
 C2940 C 0.26741 0.84218 0.48282
 N2941 N 0.27797 0.85170 0.48997
 N2942 N 0.27900 0.86712 0.48628
 C2943 C 0.26693 0.82509 0.48660
 C2944 C 0.25659 0.81464 0.47939
 H2945 H 0.26382 0.89447 0.46108
 H2946 H 0.27518 0.82058 0.49510
 H2947 H 0.28972 0.89583 0.48620
 H2948 H 0.24816 0.81918 0.47106
 C2949 C 0.28074 0.39900 0.95413
 C2950 C 0.28616 0.38959 0.96632
 C2951 C 0.27932 0.37369 0.96957
 N2952 N 0.28458 0.36491 0.98167
 N2953 N 0.27845 0.35060 0.98472
 C2954 C 0.26679 0.34450 0.97580
 N2955 N 0.26154 0.35328 0.96369
 N2956 N 0.26767 0.36759 0.96065
 C2957 C 0.25999 0.32859 0.97897
 C2958 C 0.26523 0.31918 0.99121
 H2959 H 0.29538 0.39395 0.97376
 H2960 H 0.25091 0.32412 0.97140
 H2961 H 0.27134 0.39440 0.94700
 H2962 H 0.27440 0.32376 0.99862
 C2963 C 0.77858 0.33866 0.29002
 C2964 C 0.78759 0.35021 0.28256
 C2965 C 0.78134 0.36645 0.27992
 N2966 N 0.79030 0.37756 0.27268
 N2967 N 0.78480 0.39234 0.27048
 C2968 C 0.77017 0.39658 0.27549
 N2969 N 0.76124 0.38548 0.28274
 N2970 N 0.76672 0.37071 0.28492
 C2971 C 0.76385 0.41280 0.27307
 C2972 C 0.77213 0.42435 0.26486
 H2973 H 0.79956 0.34756 0.27903
 H2974 H 0.75221 0.41555 0.27751
 H2975 H 0.76666 0.34168 0.29354
 H2976 H 0.78365 0.42145 0.26021
   
