data_POSCAR
  _audit_creation_date              2014-09-24
  _audit_creation_method            'ToBaCCo'
  _symmetry_space_group_name_H-M    'P1'
  _symmetry_Int_Tables_number       1
  _symmetry_cell_setting            triclinic
  loop_
  _symmetry_equiv_pos_as_xyz
 x,y,z
_cell_length_a 56.3855
_cell_length_b 56.3581
_cell_length_c 56.2983
_cell_angle_alpha 89.984700
_cell_angle_beta 90.059700
_cell_angle_gamma 89.910000
loop_
  _atom_site_label
  _atom_site_type_symbol
  _atom_site_fract_x
  _atom_site_fract_y
  _atom_site_fract_z
N1 N 0.16865 0.22582 0.23032
 N2 N 0.17447 0.20643 0.24194
 C3 C 0.15895 0.20314 0.25983
 C4 C 0.14270 0.22158 0.25950
 C5 C 0.14942 0.23564 0.24052
 H6 H 0.15975 0.18879 0.27255
 H7 H 0.14091 0.25177 0.23452
 Cu8 Cu 0.20252 0.18821 0.23326
 Cu9 Cu 0.18648 0.23705 0.20294
 Cu10 Cu 0.23705 0.20545 0.18776
 N11 N 0.23066 0.17032 0.22422
 N12 N 0.24434 0.17747 0.20675
 C13 C 0.26267 0.16234 0.20446
 C14 C 0.26040 0.14464 0.22138
 C15 C 0.23982 0.15031 0.23360
 H16 H 0.27643 0.16392 0.19120
 H17 H 0.23226 0.14074 0.24839
 N18 N 0.22655 0.23411 0.17059
 N19 N 0.20686 0.24563 0.17587
 C20 C 0.20383 0.26346 0.16021
 C21 C 0.22263 0.26329 0.14447
 C22 C 0.23673 0.24451 0.15162
 H23 H 0.18915 0.27582 0.16033
 H24 H 0.25289 0.23853 0.14319
 H25 H 0.20085 0.20465 0.19325
 H26 H 0.21870 0.22338 0.21394
 N27 N 0.66862 0.72589 0.73068
 N28 N 0.67397 0.70605 0.74175
 C29 C 0.65834 0.70258 0.75950
 C30 C 0.64247 0.72136 0.75965
 C31 C 0.64957 0.73581 0.74110
 H32 H 0.65879 0.68786 0.77181
 H33 H 0.64142 0.75227 0.73552
 Cu34 Cu 0.70171 0.68771 0.73243
 Cu35 Cu 0.68675 0.73757 0.70364
 Cu36 Cu 0.73669 0.70519 0.68762
 N37 N 0.72958 0.66942 0.72343
 N38 N 0.74345 0.67672 0.70617
 C39 C 0.76174 0.66154 0.70390
 C40 C 0.75924 0.64367 0.72059
 C41 C 0.73856 0.64926 0.73267
 H42 H 0.77570 0.66327 0.69086
 H43 H 0.73091 0.63959 0.74736
 N44 N 0.72668 0.73439 0.67104
 N45 N 0.70741 0.74641 0.67683
 C46 C 0.70479 0.76470 0.66165
 C47 C 0.72335 0.76429 0.64560
 C48 C 0.73691 0.74487 0.65214
 H49 H 0.69048 0.77746 0.66225
 H50 H 0.75273 0.73851 0.64336
 H51 H 0.70047 0.70525 0.69291
 H52 H 0.71870 0.72297 0.71411
 N53 N 0.33008 0.77427 0.73129
 N54 N 0.32504 0.79441 0.74194
 C55 C 0.34065 0.79792 0.75974
 C56 C 0.35619 0.77886 0.76032
 C57 C 0.34891 0.76422 0.74199
 H58 H 0.34042 0.81288 0.77174
 H59 H 0.35685 0.74757 0.73669
 Cu60 Cu 0.29770 0.81301 0.73194
 Cu61 Cu 0.31204 0.76251 0.70416
 Cu62 Cu 0.26286 0.79562 0.68710
 N63 N 0.26996 0.83148 0.72282
 N64 N 0.25591 0.82394 0.70579
 C65 C 0.23735 0.83881 0.70375
 C66 C 0.23987 0.85693 0.72029
 C67 C 0.26093 0.85162 0.73202
 H68 H 0.22331 0.83664 0.69087
 H69 H 0.26880 0.86124 0.74663
 N70 N 0.27301 0.76650 0.67050
 N71 N 0.29155 0.75379 0.67713
 C72 C 0.29408 0.73536 0.66212
 C73 C 0.27639 0.73657 0.64512
 C74 C 0.26336 0.75655 0.65101
 H75 H 0.30816 0.72236 0.66309
 H76 H 0.24799 0.76336 0.64175
 H77 H 0.29906 0.79487 0.69275
 H78 H 0.28028 0.77782 0.71396
 N79 N 0.82908 0.27352 0.23270
 N80 N 0.82566 0.29471 0.24179
 C81 C 0.84110 0.29808 0.25974
 C82 C 0.85498 0.27779 0.26218
 C83 C 0.84663 0.26259 0.24464
 H84 H 0.84192 0.31410 0.27024
 H85 H 0.85318 0.24511 0.24029
 Cu86 Cu 0.80140 0.31600 0.22943
 Cu87 Cu 0.81169 0.26226 0.20508
 Cu88 Cu 0.76425 0.29639 0.18669
 N89 N 0.77190 0.33236 0.22194
 N90 N 0.75740 0.32452 0.20545
 C91 C 0.73844 0.33896 0.20413
 C92 C 0.74114 0.35694 0.22067
 C93 C 0.76265 0.35216 0.23165
 H94 H 0.72391 0.33667 0.19181
 H95 H 0.77085 0.36213 0.24586
 N96 N 0.77413 0.26729 0.17014
 N97 N 0.79204 0.25404 0.17738
 C98 C 0.79452 0.23554 0.16246
 C99 C 0.77739 0.23725 0.14489
 C100 C 0.76479 0.25763 0.15038
 H101 H 0.80815 0.22213 0.16393
 H102 H 0.74987 0.26488 0.14072
 H103 H 0.80065 0.29470 0.19175
 H104 H 0.78152 0.28065 0.21507
 N105 N 0.83279 0.72422 0.27031
 N106 N 0.82583 0.70595 0.25761
 C107 C 0.84085 0.70299 0.23925
 C108 C 0.85824 0.72026 0.24059
 C109 C 0.85255 0.73339 0.26058
 H110 H 0.83933 0.68923 0.22597
 H111 H 0.86176 0.74883 0.26725
 Cu112 Cu 0.79781 0.68785 0.26633
 Cu113 Cu 0.81509 0.73552 0.29778
 Cu114 Cu 0.76352 0.70523 0.31196
 N115 N 0.76916 0.67067 0.27488
 N116 N 0.75559 0.67785 0.29244
 C117 C 0.73712 0.66293 0.29463
 C118 C 0.73925 0.64533 0.27761
 C119 C 0.75982 0.65084 0.26538
 H120 H 0.72348 0.66443 0.30803
 H121 H 0.76736 0.64116 0.25064
 N122 N 0.77463 0.73323 0.32970
 N123 N 0.79464 0.74430 0.32477
 C124 C 0.79770 0.76208 0.34047
 C125 C 0.77864 0.76231 0.35593
 C126 C 0.76436 0.74379 0.34854
 H127 H 0.81251 0.77423 0.34045
 H128 H 0.74790 0.73817 0.35658
 H129 H 0.79972 0.70344 0.30670
 H130 H 0.78260 0.72314 0.28622
 N131 N 0.33018 0.22659 -0.23274
 N132 N 0.32454 0.20708 -0.24415
 C133 C 0.34004 0.20370 -0.26203
 C134 C 0.35618 0.22232 -0.26208
 C135 C 0.34920 0.23652 -0.24316
 H136 H 0.33926 0.18902 -0.27434
 H137 H 0.35754 0.25261 -0.23697
 Cu138 Cu 0.29695 0.18854 -0.23491
 Cu139 Cu 0.31299 0.23731 -0.20469
 Cu140 Cu 0.26448 0.20377 -0.18726
 N141 N 0.26965 0.16990 -0.22509
 N142 N 0.25737 0.17568 -0.20610
 C143 C 0.23985 0.15980 -0.20298
 C144 C 0.24103 0.14330 -0.22113
 C145 C 0.26012 0.15028 -0.23487
 H146 H 0.22691 0.16047 -0.18884
 H147 H 0.26668 0.14154 -0.25065
 N148 N 0.27455 0.23278 -0.17053
 N149 N 0.29337 0.24520 -0.17680
 C150 C 0.29616 0.26329 -0.16142
 C151 C 0.27808 0.26239 -0.14489
 C152 C 0.26466 0.24289 -0.15124
 H153 H 0.31015 0.27636 -0.16229
 H154 H 0.24914 0.23631 -0.14214
 H155 H 0.30034 0.20437 -0.19477
 H156 H 0.28068 0.22281 -0.21406
 N157 N 0.66840 0.27499 -0.23004
 N158 N 0.67585 0.29261 -0.24334
 C159 C 0.66101 0.29522 -0.26193
 C160 C 0.64302 0.27848 -0.26005
 C161 C 0.64841 0.26602 -0.23944
 H162 H 0.66295 0.30864 -0.27549
 H163 H 0.63892 0.25112 -0.23204
 Cu164 Cu 0.70376 0.31084 -0.23435
 Cu165 Cu 0.68570 0.26417 -0.20210
 Cu166 Cu 0.73635 0.29551 -0.18675
 N167 N 0.73197 0.32861 -0.22541
 N168 N 0.74478 0.32229 -0.20694
 C169 C 0.76310 0.33738 -0.20458
 C170 C 0.76164 0.35422 -0.22243
 C171 C 0.74163 0.34809 -0.23532
 H172 H 0.77619 0.33649 -0.19056
 H173 H 0.73470 0.35710 -0.25079
 N174 N 0.72483 0.26792 -0.16861
 N175 N 0.70564 0.25592 -0.17455
 C176 C 0.70268 0.23795 -0.15908
 C177 C 0.72079 0.23871 -0.14251
 C178 C 0.73447 0.25799 -0.14908
 H179 H 0.68829 0.22532 -0.15969
 H180 H 0.75049 0.26408 -0.14048
 H181 H 0.70041 0.29665 -0.19357
 H182 H 0.71858 0.27651 -0.21260
 N183 N 0.16903 0.77586 0.27025
 N184 N 0.17578 0.79436 0.25777
 C185 C 0.16045 0.79759 0.23967
 C186 C 0.14312 0.78025 0.24099
 C187 C 0.14915 0.76681 0.26067
 H188 H 0.16168 0.81159 0.22661
 H189 H 0.14002 0.75130 0.26727
 Cu190 Cu 0.20394 0.81231 0.26650
 Cu191 Cu 0.18679 0.76442 0.29762
 Cu192 Cu 0.23714 0.79597 0.31340
 N193 N 0.23170 0.83043 0.27615
 N194 N 0.24502 0.82347 0.29399
 C195 C 0.26333 0.83855 0.29646
 C196 C 0.26134 0.85625 0.27937
 C197 C 0.24090 0.85041 0.26685
 H198 H 0.27672 0.83695 0.31011
 H199 H 0.23342 0.85972 0.25183
 N200 N 0.22616 0.76771 0.33084
 N201 N 0.20708 0.75563 0.32471
 C202 C 0.20425 0.73742 0.33993
 C203 C 0.22231 0.73814 0.35656
 C204 C 0.23585 0.75761 0.35025
 H205 H 0.18986 0.72480 0.33925
 H206 H 0.25170 0.76383 0.35906
 H207 H 0.20109 0.79694 0.30686
 H208 H 0.21937 0.77751 0.28719
 N209 N 0.47598 0.41898 0.48145
 N210 N 0.45774 0.42602 0.49416
 C211 C 0.45480 0.41101 0.51254
 C212 C 0.47206 0.39355 0.51121
 C213 C 0.48516 0.39919 0.49121
 H214 H 0.44097 0.41245 0.52573
 H215 H 0.50046 0.38981 0.48444
 Cu216 Cu 0.43941 0.45392 0.48527
 Cu217 Cu 0.48676 0.43619 0.45350
 Cu218 Cu 0.45405 0.48556 0.43677
 N219 N 0.42078 0.48119 0.47511
 N220 N 0.42678 0.49364 0.45632
 C221 C 0.41124 0.51156 0.45347
 C222 C 0.39447 0.51024 0.47136
 C223 C 0.40109 0.49069 0.48475
 H224 H 0.41192 0.52440 0.43922
 H225 H 0.39236 0.48407 0.50050
 N226 N 0.48221 0.47457 0.41926
 N227 N 0.49483 0.45593 0.42577
 C228 C 0.51307 0.45325 0.41057
 C229 C 0.51181 0.47098 0.39359
 C230 C 0.49199 0.48413 0.39967
 H231 H 0.52617 0.43927 0.41160
 H232 H 0.48540 0.49975 0.39067
 H233 H 0.47344 0.46895 0.46319
 H234 H 0.45381 0.44971 0.44468
 N235 N -0.02403 -0.08086 0.98085
 N236 N -0.04275 -0.07440 0.99317
 C237 C -0.04557 -0.08950 1.01149
 C238 C -0.02776 -0.10643 1.01051
 C239 C -0.01444 -0.10036 0.99079
 H240 H -0.05973 -0.08851 1.02438
 H241 H 0.00123 -0.10930 0.98427
 Cu242 Cu -0.06181 -0.04718 0.98371
 Cu243 Cu -0.01338 -0.06351 0.95294
 Cu244 Cu -0.04650 -0.01438 0.93626
 N245 N -0.07997 -0.01931 0.97438
 N246 N -0.07374 -0.00647 0.95593
 C247 C -0.08902 0.01172 0.95348
 C248 C -0.10585 0.01021 0.97130
 C249 C -0.09954 -0.00975 0.98423
 H250 H -0.08812 0.02488 0.93954
 H251 H -0.10839 -0.01663 0.99979
 N252 N -0.01833 -0.02521 0.91867
 N253 N -0.00549 -0.04368 0.92524
 C254 C 0.01273 -0.04626 0.91001
 C255 C 0.01121 -0.02867 0.89293
 C256 C -0.00872 -0.01568 0.89896
 H257 H 0.02596 -0.06012 0.91105
 H258 H -0.01551 -0.00022 0.88984
 H259 H -0.02753 -0.03114 0.96288
 H260 H -0.04626 -0.05034 0.94342
 N261 N 1.02506 0.58176 0.98010
 N262 N 1.04428 0.57561 0.99184
 C263 C 1.04784 0.59115 1.00967
 C264 C 1.02969 0.60770 1.00923
 C265 C 1.01554 0.60117 0.99026
 H266 H 1.06213 0.59016 1.02246
 H267 H 0.99952 0.60990 0.98429
 Cu268 Cu 1.06190 0.54717 0.98331
 Cu269 Cu 1.01350 0.56402 0.95276
 Cu270 Cu 1.04034 0.50954 0.94247
 N271 N 1.07966 0.51922 0.97349
 N272 N 1.07090 0.50435 0.95780
 C273 C 1.08592 0.48598 0.95514
 C274 C 1.10530 0.48953 0.96988
 C275 C 1.10070 0.51088 0.98121
 H276 H 1.08292 0.47117 0.94332
 H277 H 1.11154 0.51936 0.99457
 N278 N 1.01377 0.52177 0.92320
 N279 N 1.00430 0.54295 0.92645
 C280 C 0.98766 0.54669 0.90969
 C281 C 0.98649 0.52687 0.89526
 C282 C 1.00327 0.51140 0.90437
 H283 H 0.97692 0.56253 0.90827
 H284 H 1.00793 0.49414 0.89741
 H285 H 1.02447 0.53263 0.96685
 H286 H 1.04457 0.54579 0.94397
 N287 N 0.52072 0.07705 0.48433
 N288 N 0.54158 0.07335 0.49408
 C289 C 0.54590 0.09054 0.51009
 C290 C 0.52653 0.10569 0.51061
 C291 C 0.51084 0.09650 0.49406
 H292 H 0.56162 0.09155 0.52105
 H293 H 0.49359 0.10347 0.48929
 Cu294 Cu 0.56009 0.04534 0.48613
 Cu295 Cu 0.50797 0.05600 0.46001
 Cu296 Cu 0.55112 0.02164 0.43240
 N297 N 0.57914 0.01890 0.47492
 N298 N 0.57583 0.00986 0.45366
 C299 C 0.59180 -0.00753 0.44999
 C300 C 0.60569 -0.00974 0.47020
 C301 C 0.59711 0.00737 0.48565
 H302 H 0.59293 -0.01798 0.43392
 H303 H 0.60371 0.01140 0.50323
 N304 N 0.51983 0.02824 0.41812
 N305 N 0.50322 0.04066 0.42897
 C306 C 0.48379 0.04147 0.41510
 C307 C 0.48826 0.02882 0.39444
 C308 C 0.51136 0.02068 0.39709
 H309 H 0.46772 0.05084 0.41972
 H310 H 0.52128 0.00980 0.38480
 H311 H 0.53026 0.02599 0.46132
 H312 H 0.54159 0.05406 0.44796
 N313 N -0.02382 0.08040 0.51800
 N314 N -0.04317 0.07452 0.50640
 C315 C -0.04633 0.08976 0.48823
 C316 C -0.02788 0.10594 0.48837
 C317 C -0.01392 0.09941 0.50753
 H318 H -0.06072 0.08891 0.47555
 H319 H 0.00212 0.10801 0.51356
 Cu320 Cu -0.06198 0.04711 0.51570
 Cu321 Cu -0.01291 0.06309 0.54583
 Cu322 Cu -0.04480 0.01318 0.56197
 N323 N -0.07913 0.01852 0.52462
 N324 N -0.07245 0.00544 0.54276
 C325 C -0.08746 -0.01296 0.54508
 C326 C -0.10445 -0.01145 0.52736
 C327 C -0.09855 0.00876 0.51468
 H328 H -0.08595 -0.02656 0.55855
 H329 H -0.10788 0.01599 0.49954
 N330 N -0.01636 0.02395 0.57923
 N331 N -0.00460 0.04332 0.57343
 C332 C 0.01337 0.04638 0.58891
 C333 C 0.01305 0.02794 0.60510
 C334 C -0.00600 0.01402 0.59839
 H335 H 0.02601 0.06077 0.58828
 H336 H -0.01207 -0.00194 0.60711
 H337 H -0.02695 0.03085 0.53525
 H338 H -0.04544 0.04928 0.55572
 N339 N 0.47534 0.58130 0.01947
 N340 N 0.45596 0.57549 0.00787
 C341 C 0.45265 0.59095 -0.01009
 C342 C 0.47107 0.60717 -0.00984
 C343 C 0.48512 0.60047 0.00918
 H344 H 0.43831 0.59012 -0.02283
 H345 H 0.50126 0.60895 0.01513
 Cu346 Cu 0.43783 0.54745 0.01664
 Cu347 Cu 0.48669 0.56345 0.04682
 Cu348 Cu 0.45549 0.51269 0.06193
 N349 N 0.42005 0.51932 0.02578
 N350 N 0.42749 0.50543 0.04301
 C351 C 0.41248 0.48702 0.04525
 C352 C 0.39456 0.48953 0.02860
 C353 C 0.39995 0.51026 0.01656
 H354 H 0.41425 0.47308 0.05833
 H355 H 0.39014 0.51796 0.00196
 N356 N 0.48412 0.52321 0.07905
 N357 N 0.49543 0.54304 0.07385
 C358 C 0.51317 0.54616 0.08957
 C359 C 0.51319 0.52730 0.10526
 C360 C 0.49460 0.51304 0.09802
 H361 H 0.52534 0.56097 0.08955
 H362 H 0.48877 0.49683 0.10643
 H363 H 0.47315 0.53125 0.03575
 H364 H 0.45441 0.54893 0.05660
 N365 N 0.52304 -0.07959 0.01814
 N366 N 0.54292 -0.07438 0.00717
 C367 C 0.54629 -0.08993 -0.01069
 C368 C 0.52742 -0.10563 -0.01100
 C369 C 0.51300 -0.09849 0.00755
 H370 H 0.56119 -0.08973 -0.02274
 H371 H 0.49662 -0.10669 0.01319
 Cu372 Cu 0.56225 -0.04759 0.01714
 Cu373 Cu 0.51206 -0.06213 0.04589
 Cu374 Cu 0.54613 -0.01427 0.06396
 N375 N 0.58069 -0.02010 0.02693
 N376 N 0.57415 -0.00708 0.04514
 C377 C 0.58957 0.01092 0.04787
 C378 C 0.60679 0.00911 0.03044
 C379 C 0.60057 -0.01084 0.01749
 H380 H 0.58838 0.02425 0.06162
 H381 H 0.60963 -0.01786 0.00212
 N382 N 0.51715 -0.02432 0.08066
 N383 N 0.50399 -0.04233 0.07360
 C384 C 0.48554 -0.04474 0.08859
 C385 C 0.48720 -0.02748 0.10600
 C386 C 0.50747 -0.01486 0.10036
 H387 H 0.47216 -0.05838 0.08723
 H388 H 0.51459 0.00019 0.10986
 H389 H 0.52774 -0.03039 0.03671
 H390 H 0.54507 -0.05033 0.05679
 N391 N 1.02303 0.42017 0.51773
 N392 N 1.04290 0.42536 0.50670
 C393 C 1.04617 0.40985 0.48880
 C394 C 1.02726 0.39420 0.48850
 C395 C 1.01292 0.40133 0.50713
 H396 H 1.06098 0.41012 0.47662
 H397 H 0.99653 0.39318 0.51279
 Cu398 Cu 1.06205 0.45239 0.51641
 Cu399 Cu 1.01204 0.43773 0.54540
 Cu400 Cu 1.04629 0.48544 0.56352
 N401 N 1.08085 0.47951 0.52650
 N402 N 1.07437 0.49251 0.54476
 C403 C 1.08979 0.51049 0.54747
 C404 C 1.10695 0.50873 0.52998
 C405 C 1.10071 0.48878 0.51702
 H406 H 1.08860 0.52384 0.56120
 H407 H 1.10967 0.48188 0.50152
 N408 N 1.01725 0.47552 0.58018
 N409 N 1.00400 0.45760 0.57306
 C410 C 0.98548 0.45531 0.58798
 C411 C 0.98721 0.47255 0.60541
 C412 C 1.00758 0.48502 0.59986
 H413 H 0.97200 0.44178 0.58658
 H414 H 1.01477 0.50002 0.60940
 H415 H 1.02764 0.46958 0.53623
 H416 H 1.04505 0.44951 0.55609
 C417 C 0.40870 0.01196 0.21758
 H418 H 0.40836 0.02870 0.22698
 C419 C 0.42404 0.00885 0.19838
 H420 H 0.43518 0.02348 0.19289
 C421 C 0.39430 -0.02727 0.21331
 H422 H 0.38312 -0.04151 0.21951
 C423 C 0.40944 -0.03119 0.19409
 H424 H 0.40963 -0.04846 0.18568
 N425 N 0.39392 -0.00582 0.22438
 C426 C 0.33845 0.03301 0.26207
 H427 H 0.33846 0.02353 0.27878
 C428 C 0.32309 0.05218 0.25871
 H429 H 0.31159 0.05756 0.27313
 C430 C 0.35374 0.03754 0.22315
 H431 H 0.36531 0.03148 0.20914
 C432 C 0.33859 0.05673 0.21899
 H433 H 0.33878 0.06524 0.20175
 Zn434 Zn 0.37374 0.00004 0.25063
 N435 N 0.35365 0.02634 0.24456
 C436 C 0.39330 0.02723 0.28860
 N437 N 0.39359 0.00599 0.27712
 C438 C 0.40892 -0.01150 0.28359
 C439 C 0.42447 -0.00819 0.30261
 C440 C 0.40854 0.03129 0.30775
 C441 C 0.33968 -0.03394 0.23856
 C442 C 0.32455 -0.05323 0.24188
 C443 C 0.33785 -0.05573 0.28260
 C444 C 0.35306 -0.03665 0.27836
 N445 N 0.35388 -0.02635 0.25653
 H446 H 0.38153 0.04119 0.28276
 H447 H 0.40899 -0.02810 0.27394
 H448 H 0.43625 -0.02249 0.30773
 H449 H 0.40823 0.04839 0.31650
 H450 H 0.34036 -0.02514 0.22150
 H451 H 0.31408 -0.05941 0.22700
 H452 H 0.33717 -0.06328 0.30026
 H453 H 0.36389 -0.02985 0.29265
 C454 C 0.32307 0.06440 0.23695
 C455 C 0.42447 -0.01293 0.18626
 C456 C 0.32341 -0.06446 0.26417
 C457 C 0.42437 0.01343 0.31501
 C458 C 0.08822 -0.00904 0.71983
 H459 H 0.08486 -0.02306 0.73251
 C460 C 0.07282 -0.00568 0.70070
 H461 H 0.05745 -0.01704 0.69912
 C462 C 0.11188 0.02335 0.70740
 H463 H 0.12706 0.03469 0.71016
 C464 C 0.09715 0.02711 0.68777
 H465 H 0.10152 0.04113 0.67541
 N466 N 0.10723 0.00544 0.72287
 C467 C 0.16141 -0.03337 0.76203
 H468 H 0.16158 -0.02384 0.77871
 C469 C 0.17668 -0.05260 0.75863
 H470 H 0.18813 -0.05800 0.77310
 C471 C 0.14577 -0.03796 0.72325
 H472 H 0.13389 -0.03198 0.70940
 C473 C 0.16106 -0.05697 0.71891
 H474 H 0.16083 -0.06523 0.70156
 Zn475 Zn 0.12639 -0.00004 0.74988
 N476 N 0.14614 -0.02668 0.74458
 C477 C 0.10660 -0.02647 0.78803
 N478 N 0.10578 -0.00558 0.77593
 C479 C 0.08944 0.01133 0.78138
 C480 C 0.07383 0.00805 0.80033
 C481 C 0.09118 -0.03059 0.80695
 C482 C 0.16544 0.02911 0.74111
 C483 C 0.18132 0.04777 0.74464
 C484 C 0.15773 0.06060 0.77803
 C485 C 0.14255 0.04144 0.77412
 N486 N 0.14644 0.02632 0.75570
 H487 H 0.11898 -0.04014 0.78289
 H488 H 0.08865 0.02750 0.77104
 H489 H 0.06148 0.02209 0.80476
 H490 H 0.09199 -0.04746 0.81611
 H491 H 0.16837 0.01662 0.72681
 H492 H 0.19657 0.04921 0.73309
 H493 H 0.15378 0.07274 0.79238
 H494 H 0.12768 0.03881 0.78583
 C495 C 0.17676 -0.06469 0.73677
 C496 C 0.07718 0.01257 0.68425
 C497 C 0.17753 0.06398 0.76325
 C498 C 0.07464 -0.01311 0.81352
 C499 C 0.58907 0.49000 0.21968
 H500 H 0.58695 0.47496 0.23143
 C501 C 0.57348 0.49318 0.20065
 H502 H 0.55921 0.48060 0.19821
 C503 C 0.60967 0.52515 0.20956
 H504 H 0.62352 0.53781 0.21322
 C505 C 0.59477 0.52878 0.19007
 H506 H 0.59794 0.54392 0.17869
 N507 N 0.60679 0.50583 0.22373
 C508 C 0.66225 0.46773 0.26202
 H509 H 0.66291 0.47792 0.27829
 C510 C 0.67769 0.44863 0.25874
 H511 H 0.68997 0.44401 0.27280
 C512 C 0.64513 0.46140 0.22409
 H513 H 0.63265 0.46668 0.21050
 C514 C 0.66032 0.44224 0.22002
 H515 H 0.65940 0.43301 0.20318
 Zn516 Zn 0.62658 0.50021 0.25039
 N517 N 0.64626 0.47360 0.24489
 C518 C 0.60685 0.47339 0.28822
 N519 N 0.60652 0.49464 0.27677
 C520 C 0.59105 0.51203 0.28315
 C521 C 0.57559 0.50867 0.30221
 C522 C 0.59156 0.46920 0.30725
 C523 C 0.66294 0.53204 0.23911
 C524 C 0.67821 0.55127 0.24220
 C525 C 0.66084 0.55796 0.28082
 C526 C 0.64577 0.53871 0.27690
 N527 N 0.64678 0.52645 0.25611
 H528 H 0.61871 0.45949 0.28243
 H529 H 0.59086 0.52861 0.27346
 H530 H 0.56385 0.52300 0.30732
 H531 H 0.59188 0.45202 0.31584
 H532 H 0.66376 0.52167 0.22296
 H533 H 0.69041 0.55581 0.22809
 H534 H 0.65987 0.56731 0.29759
 H535 H 0.63345 0.53351 0.29060
 C536 C 0.67688 0.43559 0.23749
 C537 C 0.57626 0.51273 0.18538
 C538 C 0.67721 0.56463 0.26325
 C539 C 0.57571 0.48701 0.31458
 C540 C 0.90889 0.51193 0.71723
 H541 H 0.90897 0.52842 0.72707
 C542 C 0.92424 0.50890 0.69801
 H543 H 0.93581 0.52335 0.69296
 C544 C 0.89342 0.47325 0.71183
 H545 H 0.88175 0.45920 0.71755
 C546 C 0.90855 0.46941 0.69260
 H547 H 0.90830 0.45235 0.68376
 N548 N 0.89361 0.49438 0.72350
 C549 C 0.83694 0.53165 0.76110
 H550 H 0.83633 0.52156 0.77743
 C551 C 0.82140 0.55069 0.75772
 H552 H 0.80919 0.55537 0.77179
 C553 C 0.85380 0.53778 0.72308
 H554 H 0.86607 0.53242 0.70939
 C555 C 0.83850 0.55683 0.71889
 H556 H 0.83927 0.56589 0.70196
 Zn557 Zn 0.87349 0.49975 0.74990
 N558 N 0.85304 0.52587 0.74408
 C559 C 0.89073 0.52513 0.79029
 N560 N 0.89326 0.50547 0.77652
 C561 C 0.91069 0.48935 0.78089
 C562 C 0.92629 0.49252 0.79990
 C563 C 0.90571 0.52883 0.80971
 C564 C 0.83854 0.46671 0.73802
 C565 C 0.82351 0.44731 0.74113
 C566 C 0.84013 0.44161 0.78029
 C567 C 0.85501 0.46101 0.77634
 N568 N 0.85408 0.47298 0.75539
 H569 H 0.87710 0.53800 0.78634
 H570 H 0.91255 0.47406 0.76943
 H571 H 0.94029 0.47966 0.80268
 H572 H 0.90289 0.54428 0.82077
 H573 H 0.83799 0.47673 0.72164
 H574 H 0.81171 0.44231 0.72681
 H575 H 0.84089 0.43258 0.79725
 H576 H 0.86708 0.46663 0.79014
 C577 C 0.82212 0.56366 0.73642
 C578 C 0.92415 0.48742 0.68534
 C579 C 0.82414 0.43444 0.76251
 C580 C 0.92386 0.51243 0.81476
 C581 C 0.21852 0.41365 0.00971
 H582 H 0.22937 0.41543 0.02546
 C583 C 0.19941 0.42900 0.00604
 H584 H 0.19542 0.44227 0.01935
 C585 C 0.21057 0.39394 -0.02660
 H586 H 0.21517 0.38045 -0.03942
 C587 C 0.19139 0.40902 -0.03106
 H588 H 0.18150 0.40698 -0.04742
 N589 N 0.22354 0.39636 -0.00637
 C590 C 0.26004 0.33854 0.02982
 H591 H 0.27471 0.33588 0.01773
 C592 C 0.25678 0.32302 0.04888
 H593 H 0.26892 0.30828 0.05103
 C594 C 0.22591 0.36044 0.04081
 H595 H 0.21374 0.37486 0.03752
 C596 C 0.22221 0.34560 0.06032
 H597 H 0.20747 0.34929 0.07206
 Zn598 Zn 0.25008 0.37656 -0.00060
 N599 N 0.24472 0.35683 0.02615
 C600 C 0.28938 0.39436 0.02532
 N601 N 0.27652 0.39648 0.00498
 C602 C 0.28161 0.41350 -0.01134
 C603 C 0.30076 0.42879 -0.00788
 C604 C 0.30855 0.40943 0.02961
 C605 C 0.24055 0.33803 -0.03046
 C606 C 0.24391 0.32234 -0.04937
 C607 C 0.27787 0.34539 -0.06149
 C608 C 0.27412 0.36035 -0.04209
 N609 N 0.25555 0.35660 -0.02717
 H610 H 0.28471 0.38111 0.03836
 H611 H 0.27081 0.41509 -0.02716
 H612 H 0.30483 0.44178 -0.02144
 H613 H 0.31832 0.40764 0.04608
 H614 H 0.22607 0.33527 -0.01817
 H615 H 0.23206 0.30737 -0.05118
 H616 H 0.29238 0.34924 -0.07344
 H617 H 0.28606 0.37499 -0.03911
 C618 C 0.23769 0.32647 0.06457
 C619 C 0.18551 0.42681 -0.01459
 C620 C 0.26274 0.32594 -0.06534
 C621 C 0.31458 0.42688 0.01283
 C622 C 0.71675 0.08852 -0.01115
 H623 H 0.72595 0.08881 -0.02800
 C624 C 0.69778 0.07300 -0.00773
 H625 H 0.69225 0.06167 -0.02223
 C626 C 0.71278 0.10321 0.02807
 H627 H 0.71900 0.11461 0.04216
 C628 C 0.69382 0.08789 0.03231
 H629 H 0.68565 0.08776 0.04970
 N630 N 0.72363 0.10346 0.00650
 C631 C 0.76150 0.15850 -0.03252
 H632 H 0.77830 0.15815 -0.02322
 C633 C 0.75817 0.17404 -0.05154
 H634 H 0.77271 0.18530 -0.05701
 C635 C 0.72234 0.14391 -0.03670
 H636 H 0.70825 0.13250 -0.03054
 C637 C 0.71817 0.15932 -0.05568
 H638 H 0.70081 0.15954 -0.06392
 Zn639 Zn 0.74985 0.12352 0.00055
 N640 N 0.74384 0.14358 -0.02573
 C641 C 0.78718 0.10348 -0.02693
 N642 N 0.77621 0.10361 -0.00543
 C643 C 0.78316 0.08871 0.01226
 C644 C 0.80236 0.07341 0.00896
 C645 C 0.80636 0.08835 -0.03106
 C646 C 0.73802 0.15843 0.03361
 C647 C 0.74117 0.17382 0.05277
 C648 C 0.78109 0.15881 0.05728
 C649 C 0.77711 0.14362 0.03810
 N650 N 0.75572 0.14348 0.02691
 H651 H 0.78089 0.11484 -0.04105
 H652 H 0.77386 0.08890 0.02906
 H653 H 0.80796 0.06216 0.02351
 H654 H 0.81463 0.08830 -0.04840
 H655 H 0.72131 0.15822 0.02414
 H656 H 0.72662 0.18514 0.05816
 H657 H 0.79832 0.15886 0.06577
 H658 H 0.79126 0.13221 0.03202
 C659 C 0.73626 0.17460 -0.06344
 C660 C 0.68599 0.07257 0.01425
 C661 C 0.76293 0.17411 0.06494
 C662 C 0.81430 0.07313 -0.01293
 C663 C 0.21670 0.58839 0.48831
 H664 H 0.22586 0.58875 0.47144
 C665 C 0.19772 0.57287 0.49171
 H666 H 0.19214 0.56162 0.47717
 C667 C 0.21286 0.60286 0.52763
 H668 H 0.21915 0.61416 0.54177
 C669 C 0.19390 0.58754 0.53184
 H670 H 0.18580 0.58730 0.54926
 N671 N 0.22364 0.60323 0.50603
 C672 C 0.26176 0.65825 0.46723
 H673 H 0.27847 0.65788 0.47667
 C674 C 0.25864 0.67374 0.44814
 H675 H 0.27325 0.68495 0.44277
 C676 C 0.22261 0.64371 0.46272
 H677 H 0.20845 0.63234 0.46878
 C678 C 0.21865 0.65907 0.44365
 H679 H 0.20138 0.65930 0.43524
 Zn680 Zn 0.24987 0.62330 0.50018
 N681 N 0.24401 0.64338 0.47388
 C682 C 0.28717 0.60320 0.47273
 N683 N 0.27627 0.60341 0.49427
 C684 C 0.28329 0.58857 0.51199
 C685 C 0.30250 0.57328 0.50869
 C686 C 0.30635 0.58807 0.46860
 C687 C 0.23777 0.65805 0.53330
 C688 C 0.24075 0.67334 0.55256
 C689 C 0.28075 0.65861 0.55713
 C690 C 0.27695 0.64348 0.53786
 N691 N 0.25560 0.64324 0.52660
 H692 H 0.28082 0.61449 0.45859
 H693 H 0.27403 0.58881 0.52881
 H694 H 0.30816 0.56209 0.52327
 H695 H 0.31456 0.58797 0.45123
 H696 H 0.22110 0.65777 0.52378
 H697 H 0.22608 0.68451 0.55796
 H698 H 0.29796 0.65873 0.56566
 H699 H 0.29118 0.63218 0.53178
 C700 C 0.23684 0.67429 0.43602
 C701 C 0.18600 0.57234 0.51371
 C702 C 0.26246 0.67373 0.56482
 C703 C 0.31437 0.57292 0.48676
 C704 C 0.71938 0.91488 0.50926
 H705 H 0.73172 0.91829 0.52358
 C706 C 0.70015 0.93010 0.50566
 H707 H 0.69802 0.94529 0.51722
 C708 C 0.70798 0.89151 0.47622
 H709 H 0.71115 0.87651 0.46470
 C710 C 0.68839 0.90616 0.47209
 H711 H 0.67650 0.90197 0.45759
 N712 N 0.72295 0.89603 0.49461
 C713 C 0.75873 0.83719 0.52901
 H714 H 0.77144 0.83272 0.51533
 C715 C 0.75560 0.82200 0.54834
 H716 H 0.76583 0.80576 0.54917
 C717 C 0.72932 0.86332 0.54381
 H718 H 0.71900 0.87935 0.54196
 C719 C 0.72580 0.84877 0.56357
 H720 H 0.71303 0.85412 0.57688
 Zn721 Zn 0.75000 0.87660 0.49972
 N722 N 0.74561 0.85737 0.52703
 C723 C 0.79561 0.88823 0.51700
 N724 N 0.77695 0.89619 0.50391
 C725 C 0.77721 0.91808 0.49376
 C726 C 0.79657 0.93315 0.49706
 C727 C 0.81539 0.90266 0.52066
 C728 C 0.74100 0.83698 0.47075
 C729 C 0.74452 0.82148 0.45173
 C730 C 0.77606 0.84688 0.43780
 C731 C 0.77209 0.86176 0.45723
 N732 N 0.75479 0.85659 0.47320
 H733 H 0.79517 0.87067 0.52469
 H734 H 0.76230 0.92393 0.48316
 H735 H 0.79611 0.95072 0.48929
 H736 H 0.83013 0.89589 0.53097
 H737 H 0.72742 0.83324 0.48378
 H738 H 0.73371 0.80568 0.45049
 H739 H 0.78965 0.85160 0.42508
 H740 H 0.78277 0.87752 0.45949
 C741 C 0.73892 0.82768 0.56599
 C742 C 0.68430 0.92586 0.48685
 C743 C 0.76227 0.82632 0.43489
 C744 C 0.81599 0.92556 0.51077
 C745 C 0.00825 0.22121 0.41410
 H746 H 0.02127 0.23464 0.41831
 C747 C 0.00491 0.20205 0.42945
 H748 H 0.01527 0.20114 0.44562
 C749 C -0.02161 0.20676 0.38826
 H750 H -0.03190 0.20872 0.37217
 C751 C -0.02535 0.18717 0.40297
 H752 H -0.03835 0.17404 0.39780
 N753 N -0.00504 0.22328 0.39404
 C754 C 0.02874 0.25944 0.33515
 H755 H 0.01583 0.27319 0.33152
 C756 C 0.04769 0.25591 0.31960
 H757 H 0.04896 0.26691 0.30389
 C758 C 0.04194 0.22782 0.35955
 H759 H 0.03957 0.21685 0.37510
 C760 C 0.06135 0.22389 0.34466
 H761 H 0.07394 0.21011 0.34926
 Zn762 Zn -0.00061 0.25012 0.37441
 N763 N 0.02614 0.24538 0.35460
 C764 C 0.02121 0.29318 0.38866
 N765 N 0.00414 0.27702 0.39400
 C766 C -0.00940 0.27928 0.41384
 C767 C -0.00599 0.29835 0.42929
 C768 C 0.02507 0.31266 0.40350
 C769 C -0.02897 0.24308 0.33394
 C770 C -0.04834 0.24647 0.31886
 C771 C -0.06539 0.27300 0.34790
 C772 C -0.04554 0.26931 0.36231
 N773 N -0.02780 0.25462 0.35511
 H774 H 0.03186 0.29104 0.37288
 H775 H -0.02268 0.26604 0.41784
 H776 H -0.01661 0.29943 0.44525
 H777 H 0.03846 0.32552 0.39865
 H778 H -0.01470 0.23139 0.32865
 H779 H -0.04850 0.23759 0.30181
 H780 H -0.07944 0.28449 0.35418
 H781 H -0.04437 0.27820 0.37926
 C782 C 0.06438 0.23791 0.32422
 C783 C -0.01211 0.18466 0.42400
 C784 C -0.06694 0.26163 0.32573
 C785 C 0.01144 0.31542 0.42422
 C786 C -0.00883 0.71978 0.08751
 H787 H -0.02389 0.73150 0.08533
 C788 C -0.00533 0.70109 0.07162
 H789 H -0.01769 0.69891 0.05708
 C790 C 0.02612 0.70948 0.10848
 H791 H 0.03858 0.71297 0.12260
 C792 C 0.03004 0.69027 0.09331
 H793 H 0.04519 0.67892 0.09652
 N794 N 0.00677 0.72362 0.10552
 C795 C -0.03222 0.76140 0.16058
 H796 H -0.02242 0.77789 0.16106
 C797 C -0.05120 0.75788 0.17606
 H798 H -0.05614 0.77200 0.18812
 C799 C -0.03763 0.72318 0.14394
 H800 H -0.03203 0.70958 0.13163
 C801 C -0.05663 0.71882 0.15925
 H802 H -0.06539 0.70176 0.15858
 Zn803 Zn 0.00068 0.75010 0.12534
 N804 N -0.02594 0.74424 0.14483
 C805 C -0.02634 0.78778 0.10530
 N806 N -0.00505 0.77642 0.10520
 C807 C 0.01246 0.78288 0.08994
 C808 C 0.00918 0.80197 0.07447
 C809 C -0.03046 0.80684 0.08998
 C810 C 0.03266 0.73932 0.16194
 C811 C 0.05151 0.74296 0.17761
 C812 C 0.05701 0.78192 0.16063
 C813 C 0.03818 0.77744 0.14515
 N814 N 0.02667 0.75626 0.14581
 H815 H -0.04032 0.78192 0.11700
 H816 H 0.02908 0.77328 0.08996
 H817 H 0.02360 0.80717 0.06292
 H818 H -0.04766 0.81540 0.09012
 H819 H 0.02283 0.72286 0.16252
 H820 H 0.05637 0.72893 0.18981
 H821 H 0.06570 0.79902 0.15999
 H822 H 0.03263 0.79107 0.13287
 C823 C -0.06365 0.73630 0.17563
 C824 C 0.01427 0.68586 0.07443
 C825 C 0.06404 0.76449 0.17706
 C826 C -0.01252 0.81427 0.07435
 C827 C 0.49078 0.22062 0.58637
 H828 H 0.47627 0.23296 0.58389
 C829 C 0.49393 0.20199 0.57033
 H830 H 0.48175 0.20024 0.55556
 C831 C 0.52495 0.20890 0.60785
 H832 H 0.53734 0.21180 0.62214
 C833 C 0.52863 0.18988 0.59239
 H834 H 0.54346 0.17809 0.59557
 N835 N 0.50598 0.22356 0.60491
 C836 C 0.47327 0.25447 0.66674
 H837 H 0.48802 0.26538 0.67230
 C838 C 0.45418 0.25103 0.68209
 H839 H 0.45478 0.25901 0.69956
 C840 C 0.45505 0.23055 0.63738
 H841 H 0.45543 0.22259 0.61996
 C842 C 0.43543 0.22686 0.65208
 H843 H 0.42080 0.21632 0.64551
 Zn844 Zn 0.50035 0.24974 0.62545
 N845 N 0.47348 0.24416 0.64491
 C846 C 0.47418 0.28877 0.60734
 N847 N 0.49491 0.27651 0.60602
 C848 C 0.51196 0.28245 0.59005
 C849 C 0.50862 0.30163 0.57473
 C850 C 0.46998 0.30795 0.59217
 C851 C 0.53334 0.23786 0.66110
 C852 C 0.55248 0.24122 0.67647
 C853 C 0.55676 0.28098 0.66109
 C854 C 0.53786 0.27665 0.64565
 N855 N 0.52675 0.25525 0.64570
 H856 H 0.46075 0.28351 0.61998
 H857 H 0.52822 0.27226 0.58930
 H858 H 0.52266 0.30631 0.56250
 H859 H 0.45315 0.31715 0.59317
 H860 H 0.52375 0.22125 0.66135
 H861 H 0.55783 0.22672 0.68788
 H862 H 0.56488 0.29836 0.66105
 H863 H 0.53183 0.29061 0.63397
 C864 C 0.43481 0.23711 0.67486
 C865 C 0.51298 0.18614 0.57332
 C866 C 0.56453 0.26306 0.67668
 C867 C 0.48734 0.31462 0.57554
 C868 C 0.50864 0.72105 0.91437
 H869 H 0.52214 0.73413 0.91816
 C870 C 0.50512 0.70211 0.92996
 H871 H 0.51587 0.70101 0.94586
 C872 C 0.47762 0.70740 0.88950
 H873 H 0.46687 0.70960 0.87376
 C874 C 0.47370 0.68802 0.90443
 H875 H 0.46015 0.67528 0.89971
 N876 N 0.49490 0.72340 0.89466
 C877 C 0.52891 0.75927 0.83574
 H878 H 0.51601 0.77306 0.83220
 C879 C 0.54776 0.75569 0.82009
 H880 H 0.54901 0.76671 0.80440
 C881 C 0.54213 0.72757 0.86005
 H882 H 0.53978 0.71657 0.87558
 C883 C 0.56141 0.72354 0.84501
 H884 H 0.57394 0.70967 0.84947
 Zn885 Zn 0.49973 0.75020 0.87499
 N886 N 0.52641 0.74525 0.85523
 C887 C 0.52227 0.79270 0.88974
 N888 N 0.50468 0.77698 0.89466
 C889 C 0.49063 0.77964 0.91409
 C890 C 0.49405 0.79869 0.92955
 C891 C 0.52614 0.81218 0.90459
 C892 C 0.47031 0.74121 0.83585
 C893 C 0.45131 0.74475 0.82033
 C894 C 0.43772 0.77675 0.84544
 C895 C 0.45714 0.77276 0.86034
 N896 N 0.47290 0.75516 0.85537
 H897 H 0.53330 0.79024 0.87426
 H898 H 0.47691 0.76675 0.91771
 H899 H 0.48299 0.80009 0.94519
 H900 H 0.53993 0.82471 0.90004
 H901 H 0.48324 0.72749 0.83218
 H902 H 0.44997 0.73379 0.80461
 H903 H 0.42517 0.79056 0.85000
 H904 H 0.45955 0.78372 0.87588
 C905 C 0.56439 0.73763 0.82461
 C906 C 0.48744 0.68522 0.92511
 C907 C 0.43464 0.76272 0.82502
 C908 C 0.51199 0.81535 0.92490
 C909 C 0.11230 0.20670 0.28829
 C910 C 0.12281 0.22572 0.27613
 C911 C 0.11415 0.24877 0.27999
 C912 C 0.09542 0.25274 0.29574
 C913 C 0.08465 0.23371 0.30777
 C914 C 0.09333 0.21061 0.30378
 H915 H 0.11843 0.18870 0.28548
 H916 H 0.12211 0.26383 0.27114
 H917 H 0.08961 0.27081 0.29870
 H918 H 0.08522 0.19545 0.31231
 C919 C 0.61187 0.70639 0.78817
 C920 C 0.62262 0.72547 0.77633
 C921 C 0.61425 0.74856 0.78056
 C922 C 0.59556 0.75251 0.79636
 C923 C 0.58458 0.73342 0.80808
 C924 C 0.59296 0.71029 0.80374
 H925 H 0.61776 0.68836 0.78506
 H926 H 0.62239 0.76367 0.77197
 H927 H 0.58995 0.77060 0.79961
 H928 H 0.58467 0.69511 0.81207
 C929 C 0.38688 0.79389 0.78880
 C930 C 0.37606 0.77478 0.77705
 C931 C 0.38444 0.75169 0.78133
 C932 C 0.40323 0.74778 0.79704
 C933 C 0.41430 0.76689 0.80864
 C934 C 0.40588 0.79001 0.80431
 H935 H 0.38099 0.81191 0.78567
 H936 H 0.37625 0.73656 0.77282
 H937 H 0.40889 0.72970 0.80029
 H938 H 0.41422 0.80520 0.81256
 C939 C -0.11780 0.29195 0.29318
 C940 C -0.12626 0.27369 0.27832
 C941 C -0.11524 0.25126 0.27979
 C942 C -0.09635 0.24731 0.29537
 C943 C -0.08764 0.26568 0.30977
 C944 C -0.09868 0.28803 0.30854
 H945 H -0.12544 0.30954 0.29272
 H946 H -0.12121 0.23646 0.26916
 H947 H -0.08870 0.22970 0.29623
 H948 H -0.09224 0.30274 0.31908
 C949 C -0.12250 0.71515 0.20077
 C950 C -0.12173 0.72415 0.22403
 C951 C -0.10170 0.73703 0.23130
 C952 C -0.08284 0.74082 0.21568
 C953 C -0.08364 0.73201 0.19232
 C954 C -0.10372 0.71912 0.18507
 H955 H -0.13779 0.70540 0.19450
 H956 H -0.10039 0.74393 0.24919
 H957 H -0.06747 0.75040 0.22205
 H958 H -0.10513 0.71241 0.16711
 C959 C 0.38792 0.24759 0.72224
 C960 C 0.37536 0.22599 0.72224
 C961 C 0.38251 0.20818 0.70618
 C962 C 0.40176 0.21173 0.69096
 C963 C 0.41419 0.23333 0.69098
 C964 C 0.40686 0.25126 0.70670
 H965 H 0.38296 0.26204 0.73385
 H966 H 0.37374 0.19114 0.70563
 H967 H 0.40715 0.19730 0.67948
 H968 H 0.41556 0.26836 0.70686
 C969 C 0.62263 0.28623 0.70219
 C970 C 0.62369 0.27483 0.72444
 C971 C 0.60493 0.25961 0.73078
 C972 C 0.58572 0.25608 0.71550
 C973 C 0.58487 0.26719 0.69315
 C974 C 0.60366 0.28225 0.68670
 H975 H 0.63669 0.29783 0.69626
 H976 H 0.60458 0.25073 0.74779
 H977 H 0.57136 0.24486 0.72147
 H978 H 0.60399 0.29074 0.66946
 C979 C 0.12323 0.78558 0.20150
 C980 C 0.12279 0.77654 0.22474
 C981 C 0.10283 0.76371 0.23228
 C982 C 0.08373 0.75998 0.21691
 C983 C 0.08423 0.76879 0.19355
 C984 C 0.10423 0.78165 0.18604
 H985 H 0.13847 0.79529 0.19505
 H986 H 0.10178 0.75680 0.25018
 H987 H 0.06844 0.75042 0.22347
 H988 H 0.10541 0.78834 0.16806
 C989 C 0.26872 0.10432 0.23849
 C990 C 0.27641 0.12412 0.22543
 C991 C 0.29957 0.12412 0.21622
 C992 C 0.31468 0.10480 0.22000
 C993 C 0.30697 0.08495 0.23298
 C994 C 0.28379 0.08494 0.24217
 H995 H 0.25092 0.10357 0.24560
 H996 H 0.30622 0.13917 0.20635
 H997 H 0.33255 0.10557 0.21303
 H998 H 0.27715 0.06979 0.25191
 C999 C 0.76732 0.60304 0.73702
 C1000 C 0.77528 0.62321 0.72472
 C1001 C 0.79875 0.62367 0.71639
 C1002 C 0.81392 0.60443 0.72027
 C1003 C 0.80595 0.58417 0.73245
 C1004 C 0.78245 0.58371 0.74077
 H1005 H 0.74927 0.60197 0.74344
 H1006 H 0.80559 0.63904 0.70714
 H1007 H 0.83203 0.60558 0.71401
 H1008 H 0.77560 0.56826 0.74987
 C1009 C 0.80084 0.37450 0.78273
 C1010 C 0.77767 0.37463 0.77355
 C1011 C 0.76988 0.39452 0.76067
 C1012 C 0.78489 0.41392 0.75718
 C1013 C 0.80813 0.41381 0.76629
 C1014 C 0.81593 0.39380 0.77905
 H1015 H 0.80749 0.35933 0.79248
 H1016 H 0.75203 0.39534 0.75363
 H1017 H 0.77811 0.42919 0.74766
 H1018 H 0.83384 0.39289 0.78594
 C1019 C 0.29839 -0.12251 0.28779
 C1020 C 0.27657 -0.12425 0.27566
 C1021 C 0.27040 -0.10595 0.25973
 C1022 C 0.28540 -0.08654 0.25624
 C1023 C 0.30726 -0.08500 0.26817
 C1024 C 0.31356 -0.10332 0.28393
 H1025 H 0.30421 -0.13618 0.29996
 H1026 H 0.25375 -0.10615 0.25020
 H1027 H 0.27961 -0.07257 0.24438
 H1028 H 0.33045 -0.10309 0.29307
 C1029 C 0.20186 -0.12291 0.71352
 C1030 C 0.22438 -0.12381 0.72438
 C1031 C 0.23097 -0.10496 0.73943
 C1032 C 0.21569 -0.08579 0.74325
 C1033 C 0.19315 -0.08506 0.73257
 C1034 C 0.18642 -0.10397 0.71777
 H1035 H 0.19569 -0.13704 0.70212
 H1036 H 0.24816 -0.10454 0.74795
 H1037 H 0.22179 -0.07134 0.75434
 H1038 H 0.16902 -0.10440 0.70964
 C1039 C 0.73240 0.39726 0.23749
 C1040 C 0.72465 0.37692 0.22534
 C1041 C 0.70101 0.37593 0.21747
 C1042 C 0.68552 0.39486 0.22154
 C1043 C 0.69331 0.41531 0.23349
 C1044 C 0.71693 0.41626 0.24146
 H1045 H 0.75055 0.39875 0.24358
 H1046 H 0.69430 0.36042 0.20837
 H1047 H 0.66733 0.39335 0.21556
 H1048 H 0.72363 0.43189 0.25039
 C1049 C 0.73150 0.60449 0.26176
 C1050 C 0.72336 0.62476 0.27378
 C1051 C 0.69994 0.62515 0.28227
 C1052 C 0.68498 0.60571 0.27878
 C1053 C 0.69314 0.58534 0.26688
 C1054 C 0.71660 0.58497 0.25843
 H1055 H 0.74952 0.60347 0.25526
 H1056 H 0.69301 0.64060 0.29134
 H1057 H 0.66690 0.60680 0.28512
 H1058 H 0.72361 0.56944 0.24957
 C1059 C 0.21366 0.11192 0.79410
 C1060 C 0.22510 0.12287 0.77489
 C1061 C 0.22105 0.11428 0.75185
 C1062 C 0.20556 0.09530 0.74805
 C1063 C 0.19410 0.08419 0.76727
 C1064 C 0.19853 0.09267 0.79037
 H1065 H 0.21672 0.11799 0.81209
 H1066 H 0.22943 0.12257 0.73668
 H1067 H 0.20228 0.08966 0.72998
 H1068 H 0.19055 0.08428 0.80569
 C1069 C 0.20717 0.28993 0.11244
 C1070 C 0.22651 0.27940 0.12411
 C1071 C 0.24955 0.28432 0.11612
 C1072 C 0.25320 0.29970 0.09699
 C1073 C 0.23385 0.31019 0.08510
 C1074 C 0.21077 0.30496 0.09304
 H1075 H 0.18919 0.28618 0.11801
 H1076 H 0.26480 0.27663 0.12495
 H1077 H 0.27124 0.30362 0.09177
 H1078 H 0.19539 0.31218 0.08407
 C1079 C 0.70846 0.79342 0.61545
 C1080 C 0.72741 0.78065 0.62543
 C1081 C 0.75022 0.78352 0.61586
 C1082 C 0.75400 0.79891 0.59676
 C1083 C 0.73501 0.81158 0.58660
 C1084 C 0.71218 0.80859 0.59619
 H1085 H 0.69061 0.79135 0.62219
 H1086 H 0.76523 0.77414 0.62334
 H1087 H 0.77189 0.80108 0.59015
 H1088 H 0.69705 0.81765 0.58854
 C1089 C 0.79348 0.79062 0.38685
 C1090 C 0.77445 0.77873 0.37602
 C1091 C 0.75139 0.78264 0.38459
 C1092 C 0.74742 0.79818 0.40353
 C1093 C 0.76646 0.80998 0.41453
 C1094 C 0.78955 0.80595 0.40596
 H1095 H 0.81149 0.78775 0.38086
 H1096 H 0.73632 0.77399 0.37643
 H1097 H 0.72936 0.80117 0.40932
 H1098 H 0.80469 0.81433 0.41427
 C1099 C 0.25113 0.28292 -0.11618
 C1100 C 0.27414 0.27857 -0.12461
 C1101 C 0.29338 0.28975 -0.11348
 C1102 C 0.28973 0.30484 -0.09414
 C1103 C 0.26666 0.30953 -0.08576
 C1104 C 0.24740 0.29841 -0.09714
 H1105 H 0.23595 0.27472 -0.12462
 H1106 H 0.31134 0.28645 -0.11943
 H1107 H 0.30508 0.31254 -0.08556
 H1108 H 0.22936 0.30190 -0.09162
 C1109 C 0.71466 0.19957 -0.12231
 C1110 C 0.72474 0.22235 -0.12229
 C1111 C 0.73862 0.22935 -0.10279
 C1112 C 0.74225 0.21394 -0.08367
 C1113 C 0.73226 0.19108 -0.08370
 C1114 C 0.71846 0.18409 -0.10329
 H1115 H 0.70414 0.19350 -0.13719
 H1116 H 0.74638 0.24688 -0.10208
 H1117 H 0.75261 0.22009 -0.06870
 H1118 H 0.71086 0.16648 -0.10413
 C1119 C 0.21599 0.69904 0.37679
 C1120 C 0.22610 0.72181 0.37684
 C1121 C 0.23976 0.72886 0.39647
 C1122 C 0.24313 0.71353 0.41570
 C1123 C 0.23310 0.69069 0.41564
 C1124 C 0.21952 0.68363 0.39592
 H1125 H 0.20562 0.69294 0.36181
 H1126 H 0.24753 0.74639 0.39722
 H1127 H 0.25332 0.71973 0.43077
 H1128 H 0.21190 0.66603 0.39507
 C1129 C 0.28266 0.69759 0.62459
 C1130 C 0.27271 0.72046 0.62465
 C1131 C 0.25936 0.72786 0.60490
 C1132 C 0.25613 0.71276 0.58548
 C1133 C 0.26602 0.68985 0.58542
 C1134 C 0.27929 0.68243 0.60524
 H1135 H 0.29279 0.69121 0.63963
 H1136 H 0.25172 0.74546 0.60419
 H1137 H 0.24617 0.71921 0.57034
 H1138 H 0.28681 0.66476 0.60597
 C1139 C 0.76056 0.22857 0.10457
 C1140 C 0.77369 0.22110 0.12446
 C1141 C 0.78330 0.19808 0.12459
 C1142 C 0.77980 0.18285 0.10532
 C1143 C 0.76670 0.19032 0.08541
 C1144 C 0.75716 0.21338 0.08526
 H1145 H 0.75318 0.24627 0.10370
 H1146 H 0.79326 0.19164 0.13971
 H1147 H 0.78706 0.16508 0.10619
 H1148 H 0.74734 0.21986 0.07004
 C1149 C 0.48824 0.35310 0.52011
 C1150 C 0.47578 0.37334 0.52762
 C1151 C 0.46698 0.37411 0.55094
 C1152 C 0.47076 0.35513 0.56650
 C1153 C 0.48324 0.33484 0.55901
 C1154 C 0.49182 0.33403 0.53557
 H1155 H 0.49495 0.35179 0.50216
 H1156 H 0.45754 0.38956 0.55736
 H1157 H 0.46424 0.35655 0.58452
 H1158 H 0.50105 0.31851 0.52902
 C1159 C -0.03354 0.87351 0.04982
 C1160 C -0.02390 0.87331 0.02683
 C1161 C -0.01052 0.85357 0.01955
 C1162 C -0.00694 0.83440 0.03489
 C1163 C -0.01647 0.83461 0.05796
 C1164 C -0.02979 0.85443 0.06525
 H1165 H -0.04368 0.88857 0.05609
 H1166 H -0.00312 0.85270 0.00185
 H1167 H 0.00302 0.81925 0.02852
 H1168 H -0.03703 0.85539 0.08302
 C1169 C 0.00272 0.63522 0.03122
 C1170 C 0.02580 0.62758 0.02588
 C1171 C 0.04510 0.63904 0.03661
 C1172 C 0.04141 0.65804 0.05215
 C1173 C 0.01827 0.66567 0.05775
 C1174 C -0.00102 0.65385 0.04716
 H1175 H -0.01249 0.62645 0.02343
 H1176 H 0.06310 0.63364 0.03260
 H1177 H 0.05676 0.66694 0.05945
 H1178 H -0.01909 0.65872 0.05138
 C1179 C 0.50013 0.13449 0.53184
 C1180 C 0.52306 0.12660 0.52613
 C1181 C 0.54266 0.13865 0.53565
 C1182 C 0.53941 0.15814 0.55065
 C1183 C 0.51646 0.16585 0.55674
 C1184 C 0.49687 0.15378 0.54709
 H1185 H 0.48467 0.12540 0.52500
 H1186 H 0.56056 0.13321 0.53130
 H1187 H 0.55493 0.16728 0.55729
 H1188 H 0.47894 0.15892 0.55169
 C1189 C -0.00096 0.13507 0.46843
 C1190 C -0.02384 0.12583 0.47169
 C1191 C -0.04281 0.13584 0.45897
 C1192 C -0.03903 0.15490 0.44354
 C1193 C -0.01613 0.16421 0.44025
 C1194 C 0.00288 0.15393 0.45280
 H1195 H 0.01409 0.12753 0.47771
 H1196 H -0.06069 0.12928 0.46130
 H1197 H -0.05417 0.16261 0.43454
 H1198 H 0.02082 0.16028 0.45036
 C1199 C 0.49824 0.63567 0.96969
 C1200 C 0.47522 0.62697 0.97341
 C1201 C 0.45625 0.63735 0.96101
 C1202 C 0.46018 0.65624 0.94542
 C1203 C 0.48323 0.66499 0.94161
 C1204 C 0.50223 0.65434 0.95386
 H1205 H 0.51328 0.62781 0.97872
 H1206 H 0.43828 0.63118 0.96370
 H1207 H 0.44505 0.66426 0.93667
 H1208 H 0.52027 0.66021 0.95103
 C1209 C 0.50051 0.86578 0.96825
 C1210 C 0.52351 0.87432 0.97249
 C1211 C 0.54271 0.86348 0.96089
 C1212 C 0.53901 0.84434 0.94553
 C1213 C 0.51598 0.83578 0.94119
 C1214 C 0.49677 0.84686 0.95268
 H1215 H 0.48532 0.87397 0.97668
 H1216 H 0.56068 0.86947 0.96402
 H1217 H 0.55428 0.83601 0.93738
 H1218 H 0.47875 0.84112 0.94941
 C1219 C 0.00024 0.36540 0.46814
 C1220 C 0.02322 0.37421 0.47193
 C1221 C 0.04230 0.36369 0.45983
 C1222 C 0.03850 0.34463 0.44441
 C1223 C 0.01549 0.33581 0.44053
 C1224 C -0.00360 0.34652 0.45252
 H1225 H -0.01487 0.37333 0.47695
 H1226 H 0.06025 0.36987 0.46260
 H1227 H 0.05368 0.33655 0.43586
 H1228 H -0.02160 0.34053 0.44963
 C1229 C 0.35459 0.51882 0.48905
 C1230 C 0.37399 0.52624 0.47531
 C1231 C 0.37365 0.54909 0.46535
 C1232 C 0.35437 0.56423 0.46912
 C1233 C 0.33490 0.55681 0.48280
 C1234 C 0.33523 0.53389 0.49269
 H1235 H 0.35414 0.50122 0.49673
 H1236 H 0.38843 0.55548 0.45492
 H1237 H 0.35491 0.58191 0.46161
 H1238 H 0.32035 0.52744 0.50296
 C1239 C 0.87358 0.04927 -0.03427
 C1240 C 0.87379 0.02632 -0.02453
 C1241 C 0.85433 0.01888 -0.01087
 C1242 C 0.83503 0.03401 -0.00716
 C1243 C 0.83481 0.05700 -0.01688
 C1244 C 0.85436 0.06446 -0.03043
 H1245 H 0.88841 0.05570 -0.04461
 H1246 H 0.85378 0.00122 -0.00336
 H1247 H 0.82010 0.02754 0.00302
 H1248 H 0.85498 0.08219 -0.03781
 C1249 C 0.64660 0.01792 0.01264
 C1250 C 0.62708 0.02528 0.02629
 C1251 C 0.62708 0.04828 0.03591
 C1252 C 0.64612 0.06360 0.03193
 C1253 C 0.66571 0.05624 0.01836
 C1254 C 0.66573 0.03320 0.00877
 H1255 H 0.64732 0.00023 0.00520
 H1256 H 0.61221 0.05466 0.04623
 H1257 H 0.64531 0.08136 0.03919
 H1258 H 0.68069 0.02683 -0.00145
 C1259 C 0.12720 0.54791 0.53550
 C1260 C 0.12718 0.52495 0.52578
 C1261 C 0.14664 0.51769 0.51199
 C1262 C 0.16572 0.53301 0.50810
 C1263 C 0.16573 0.55600 0.51780
 C1264 C 0.14620 0.56327 0.53150
 H1265 H 0.11237 0.55423 0.54592
 H1266 H 0.14734 0.50004 0.50446
 H1267 H 0.18064 0.52670 0.49778
 H1268 H 0.14541 0.58100 0.53887
 C1269 C 0.12486 0.44964 -0.03335
 C1270 C 0.12595 0.47360 -0.02654
 C1271 C 0.14688 0.48212 -0.01601
 C1272 C 0.16622 0.46702 -0.01229
 C1273 C 0.16506 0.44299 -0.01888
 C1274 C 0.14415 0.43450 -0.02950
 H1275 H 0.10895 0.44239 -0.04125
 H1276 H 0.14847 0.50054 -0.01083
 H1277 H 0.18220 0.47427 -0.00449
 H1278 H 0.14249 0.41602 -0.03445
 C1279 C 0.63278 0.96803 0.49766
 C1280 C 0.62551 0.97348 0.47441
 C1281 C 0.63745 0.96287 0.45526
 C1282 C 0.65646 0.94742 0.45928
 C1283 C 0.66383 0.94202 0.48255
 C1284 C 0.65163 0.95242 0.50168
 H1285 H 0.62374 0.97561 0.51282
 H1286 H 0.63246 0.96688 0.43713
 H1287 H 0.66568 0.94007 0.44410
 H1288 H 0.65648 0.94831 0.51983
 C1289 C 0.86387 0.97190 0.50088
 C1290 C 0.87539 0.97225 0.52302
 C1291 C 0.86737 0.95697 0.54103
 C1292 C 0.84817 0.94183 0.53704
 C1293 C 0.83661 0.94148 0.51490
 C1294 C 0.84476 0.95665 0.49684
 H1295 H 0.86976 0.98319 0.48651
 H1296 H 0.87563 0.95698 0.55838
 H1297 H 0.84211 0.93070 0.55148
 H1298 H 0.83655 0.95655 0.47945
 C1299 C 0.35354 0.48188 0.01322
 C1300 C 0.37412 0.47354 0.02459
 C1301 C 0.37498 0.44979 0.03210
 C1302 C 0.35575 0.43466 0.02821
 C1303 C 0.33508 0.44299 0.01692
 C1304 C 0.33421 0.46682 0.00954
 H1305 H 0.35218 0.50017 0.00750
 H1306 H 0.39068 0.44272 0.04065
 H1307 H 0.35724 0.41632 0.03374
 H1308 H 0.31844 0.47399 0.00121
 C1309 C 0.52079 0.48841 0.35364
 C1310 C 0.52814 0.47506 0.37340
 C1311 C 0.55123 0.46567 0.37371
 C1312 C 0.56667 0.46965 0.35472
 C1313 C 0.55931 0.48293 0.33487
 C1314 C 0.53615 0.49221 0.33455
 H1315 H 0.50302 0.49563 0.35268
 H1316 H 0.55756 0.45557 0.38878
 H1317 H 0.58451 0.46259 0.35577
 H1318 H 0.52973 0.50214 0.31938
 C1319 C 0.01965 -0.01213 0.85250
 C1320 C 0.02740 -0.02463 0.87265
 C1321 C 0.05076 -0.03327 0.87327
 C1322 C 0.06609 -0.02940 0.85418
 C1323 C 0.05833 -0.01703 0.83390
 C1324 C 0.03489 -0.00847 0.83329
 H1325 H 0.00165 -0.00550 0.85136
 H1326 H 0.05738 -0.04269 0.88867
 H1327 H 0.08414 -0.03583 0.85549
 H1328 H 0.02817 0.00075 0.81781
 C1329 C 0.03368 0.00102 0.63384
 C1330 C 0.02950 0.02401 0.62520
 C1331 C 0.04117 0.04321 0.63592
 C1332 C 0.05653 0.03954 0.65508
 C1333 C 0.06089 0.01651 0.66374
 C1334 C 0.04934 -0.00272 0.65274
 H1335 H 0.02517 -0.01416 0.62573
 H1336 H 0.03807 0.06117 0.62982
 H1337 H 0.06465 0.05484 0.66335
 H1338 H 0.05259 -0.02075 0.65852
 C1339 C 0.53476 0.50052 0.13341
 C1340 C 0.52922 0.52354 0.12570
 C1341 C 0.53908 0.54299 0.13770
 C1342 C 0.55406 0.53950 0.15717
 C1343 C 0.55996 0.51644 0.16482
 C1344 C 0.55014 0.49699 0.15259
 H1345 H 0.52759 0.48520 0.12430
 H1346 H 0.53483 0.56095 0.13233
 H1347 H 0.56073 0.55495 0.16641
 H1348 H 0.55459 0.47898 0.15756
 C1349 C 0.44819 -0.03340 0.12655
 C1350 C 0.47112 -0.02368 0.12648
 C1351 C 0.47858 -0.01037 0.14622
 C1352 C 0.46351 -0.00695 0.16561
 C1353 C 0.44055 -0.01664 0.16567
 C1354 C 0.43306 -0.02988 0.14589
 H1355 H 0.44173 -0.04349 0.11153
 H1356 H 0.49622 -0.00288 0.14694
 H1357 H 0.46999 0.00300 0.18073
 H1358 H 0.41536 -0.03725 0.14518
 C1359 C 0.94787 0.46736 0.62548
 C1360 C 0.97104 0.47650 0.62578
 C1361 C 0.97865 0.48934 0.64576
 C1362 C 0.96348 0.49286 0.66507
 C1363 C 0.94029 0.48374 0.66479
 C1364 C 0.93266 0.47100 0.64472
 H1365 H 0.94132 0.45765 0.61026
 H1366 H 0.99647 0.49637 0.64673
 H1367 H 0.97009 0.50239 0.68040
 H1368 H 0.91478 0.46410 0.64373
 C1369 C 0.96187 0.54259 0.86172
 C1370 C 0.97074 0.52314 0.87456
 C1371 C 0.96431 0.50014 0.86754
 C1372 C 0.94905 0.49666 0.84826
 C1373 C 0.94016 0.51611 0.83530
 C1374 C 0.94692 0.53912 0.84222
 H1375 H 0.96679 0.56053 0.86650
 H1376 H 0.97066 0.48481 0.87725
 H1377 H 0.94393 0.47871 0.84379
 H1378 H 0.94092 0.55452 0.83241
 C1379 C 0.44834 0.03306 0.37488
 C1380 C 0.47192 0.02488 0.37407
 C1381 C 0.47967 0.01289 0.35357
 C1382 C 0.46427 0.00917 0.33446
 C1383 C 0.44075 0.01738 0.33532
 C1384 C 0.43297 0.02937 0.35575
 H1385 H 0.44155 0.04222 0.39031
 H1386 H 0.49767 0.00643 0.35210
 H1387 H 0.47091 0.00015 0.31883
 H1388 H 0.41486 0.03563 0.35709
   
