data_POSCAR
  _audit_creation_date              2014-09-24
  _audit_creation_method            'ToBaCCo'
  _symmetry_space_group_name_H-M    'P1'
  _symmetry_Int_Tables_number       1
  _symmetry_cell_setting            triclinic
  loop_
  _symmetry_equiv_pos_as_xyz
 x,y,z
_cell_length_a 51.0295
_cell_length_b 51.0660
_cell_length_c 51.0502
_cell_angle_alpha 89.992500
_cell_angle_beta 90.054300
_cell_angle_gamma 89.989400
loop_
  _atom_site_label
  _atom_site_type_symbol
  _atom_site_fract_x
  _atom_site_fract_y
  _atom_site_fract_z
C1 C 0.24943 1.07235 0.00196
 C2 C 0.25339 1.05841 0.02517
 C3 C 0.25447 1.03097 0.02466
 C4 C 0.25024 1.01701 0.00107
 C5 C 0.24554 1.03159 -0.02201
 C6 C 0.24585 1.05901 -0.02164
 C7 C 0.25063 0.98757 0.00050
 C8 C 0.25575 0.97376 -0.02301
 C9 C 0.25527 0.94634 -0.02359
 C10 C 0.25106 0.93225 -0.00057
 C11 C 0.24666 0.94541 0.02295
 C12 C 0.24578 0.97281 0.02343
 H13 H 0.24915 1.09362 0.00226
 H14 H 0.25879 1.02080 0.04274
 H15 H 0.24147 1.02190 -0.04040
 H16 H 0.26026 0.98398 -0.04099
 H17 H 0.25121 0.91101 -0.00096
 H18 H 0.24112 0.98227 0.04179
 C19 C 0.75100 0.57110 0.50149
 C20 C 0.75505 0.55721 0.52469
 C21 C 0.75599 0.52978 0.52428
 C22 C 0.75156 0.51577 0.50075
 C23 C 0.74679 0.53032 0.47767
 C24 C 0.74720 0.55772 0.47797
 C25 C 0.75181 0.48633 0.50025
 C26 C 0.75667 0.47245 0.47673
 C27 C 0.75604 0.44503 0.47620
 C28 C 0.75194 0.43101 0.49929
 C29 C 0.74779 0.44425 0.52282
 C30 C 0.74707 0.47165 0.52325
 H31 H 0.75082 0.59235 0.50173
 H32 H 0.76034 0.51972 0.54240
 H33 H 0.74258 0.52068 0.45929
 H34 H 0.76108 0.48261 0.45869
 H35 H 0.75196 0.40976 0.49894
 H36 H 0.74262 0.48118 0.54162
 C37 C 0.74907 0.99968 1.07202
 C38 C 0.75252 0.97643 1.05804
 C39 C 0.75309 0.97688 1.03059
 C40 C 0.74872 1.00045 1.01663
 C41 C 0.74457 1.02360 1.03125
 C42 C 0.74546 1.02328 1.05869
 C43 C 0.74841 1.00085 0.98715
 C44 C 0.75298 1.02430 0.97303
 C45 C 0.75201 1.02461 0.94560
 C46 C 0.74787 1.00141 0.93179
 C47 C 0.74397 0.97798 0.94525
 C48 C 0.74351 0.97775 0.97266
 H49 H 0.74919 0.99940 1.09330
 H50 H 0.75710 0.95874 1.02044
 H51 H 0.74047 1.04201 1.02162
 H52 H 0.75747 1.04242 0.98299
 H53 H 0.74772 1.00159 0.91054
 H54 H 0.73919 0.95943 0.98231
 C55 C 0.24956 0.50006 0.57118
 C56 C 0.25287 0.47678 0.55727
 C57 C 0.25327 0.47713 0.52983
 C58 C 0.24891 0.50067 0.51581
 C59 C 0.24493 0.52388 0.53040
 C60 C 0.24595 0.52361 0.55781
 C61 C 0.24842 0.50099 0.48633
 C62 C 0.25289 0.52440 0.47212
 C63 C 0.25176 0.52464 0.44469
 C64 C 0.24753 0.50140 0.43098
 C65 C 0.24372 0.47800 0.44452
 C66 C 0.24345 0.47785 0.47193
 H67 H 0.24979 0.49984 0.59243
 H68 H 0.25713 0.45891 0.51979
 H69 H 0.24086 0.54231 0.52082
 H70 H 0.25743 0.54256 0.48200
 H71 H 0.24724 0.50151 0.40972
 H72 H 0.23920 0.45955 0.48166
 C73 C 1.07114 0.24861 -0.00068
 C74 C 1.05749 0.25234 0.02272
 C75 C 1.03003 0.25329 0.02259
 C76 C 1.01575 0.24913 -0.00084
 C77 C 1.03006 0.24466 -0.02413
 C78 C 1.05749 0.24511 -0.02410
 C79 C 0.98627 0.24945 -0.00101
 C80 C 0.97214 0.25459 -0.02433
 C81 C 0.94468 0.25410 -0.02459
 C82 C 0.93089 0.24988 -0.00137
 C83 C 0.94438 0.24548 0.02200
 C84 C 0.97181 0.24459 0.02212
 H85 H 1.09242 0.24843 -0.00071
 H86 H 1.02010 0.25745 0.04082
 H87 H 1.02023 0.24066 -0.04246
 H88 H 0.98219 0.25913 -0.04241
 H89 H 0.90961 0.25002 -0.00143
 H90 H 0.98152 0.23992 0.04036
 C91 C 0.57168 0.74894 0.49825
 C92 C 0.55825 0.75273 0.52174
 C93 C 0.53083 0.75372 0.52190
 C94 C 0.51630 0.74958 0.49864
 C95 C 0.53037 0.74507 0.47519
 C96 C 0.55781 0.74545 0.47495
 C97 C 0.48683 0.75004 0.49883
 C98 C 0.47249 0.75518 0.47565
 C99 C 0.44506 0.75492 0.47570
 C100 C 0.43146 0.75091 0.49904
 C101 C 0.44513 0.74650 0.52230
 C102 C 0.47257 0.74540 0.52215
 H103 H 0.59294 0.74873 0.49811
 H104 H 0.52117 0.75790 0.54026
 H105 H 0.52035 0.74111 0.45696
 H106 H 0.48230 0.75955 0.45741
 H107 H 0.41020 0.75122 0.49910
 H108 H 0.48243 0.74075 0.54030
 C109 C 0.00025 0.75280 -0.07140
 C110 C 0.02368 0.74886 -0.05782
 C111 C 0.02359 0.74724 -0.03043
 C112 C 0.00018 0.75095 -0.01605
 C113 C -0.02317 0.75567 -0.03024
 C114 C -0.02322 0.75586 -0.05768
 C115 C 0.00011 0.74989 0.01341
 C116 C -0.02319 0.74447 0.02745
 C117 C -0.02334 0.74430 0.05490
 C118 C -0.00006 0.74811 0.06874
 C119 C 0.02327 0.75277 0.05533
 C120 C 0.02331 0.75434 0.02795
 H121 H 0.00033 0.75344 -0.09266
 H122 H 0.04190 0.74292 -0.02069
 H123 H -0.04148 0.75935 -0.02024
 H124 H -0.04133 0.74023 0.01735
 H125 H -0.00004 0.74748 0.09000
 H126 H 0.04154 0.75921 0.01835
 C127 C 0.50011 0.25194 0.42891
 C128 C 0.52363 0.24800 0.44230
 C129 C 0.52378 0.24644 0.46969
 C130 C 0.50051 0.25018 0.48425
 C131 C 0.47702 0.25486 0.47024
 C132 C 0.47677 0.25502 0.44280
 C133 C 0.50071 0.24912 0.51371
 C134 C 0.47754 0.24371 0.52792
 C135 C 0.47763 0.24343 0.55534
 C136 C 0.50099 0.24716 0.56902
 C137 C 0.52423 0.25184 0.55547
 C138 C 0.52406 0.25348 0.52808
 H139 H 0.49995 0.25256 0.40766
 H140 H 0.54217 0.24213 0.47928
 H141 H 0.45876 0.25852 0.48030
 H142 H 0.45927 0.23956 0.51803
 H143 H 0.50107 0.24645 0.59027
 H144 H 0.54222 0.25835 0.51835
 C145 C 1.06842 -0.00011 0.25131
 C146 C 1.05445 0.02310 0.25504
 C147 C 1.02697 0.02267 0.25554
 C148 C 1.01303 -0.00087 0.25091
 C149 C 1.02769 -0.02395 0.24645
 C150 C 1.05510 -0.02363 0.24736
 C151 C 0.98355 -0.00137 0.25068
 C152 C 0.96960 -0.02491 0.25518
 C153 C 0.94216 -0.02547 0.25411
 C154 C 0.92817 -0.00233 0.24997
 C155 C 0.94148 0.02123 0.24620
 C156 C 0.96891 0.02165 0.24586
 H157 H 1.08969 0.00008 0.25148
 H158 H 1.01678 0.04076 0.25970
 H159 H 1.01816 -0.04234 0.24210
 H160 H 0.97977 -0.04294 0.25967
 H161 H 0.90690 -0.00261 0.24967
 H162 H 0.97848 0.04005 0.24166
 C163 C 0.56907 0.49915 0.75157
 C164 C 0.55542 0.52252 0.75522
 C165 C 0.52798 0.52253 0.75572
 C166 C 0.51369 0.49922 0.75122
 C167 C 0.52801 0.47587 0.74685
 C168 C 0.55544 0.47579 0.74773
 C169 C 0.48420 0.49924 0.75116
 C170 C 0.46995 0.47595 0.75585
 C171 C 0.44254 0.47583 0.75511
 C172 C 0.42881 0.49912 0.75108
 C173 C 0.44239 0.52250 0.74712
 C174 C 0.46985 0.52251 0.74648
 H175 H 0.59033 0.49913 0.75172
 H176 H 0.51814 0.54082 0.75981
 H177 H 0.51819 0.45760 0.74261
 H178 H 0.47982 0.45775 0.76024
 H179 H 0.40755 0.49904 0.75102
 H180 H 0.47965 0.54076 0.74216
 C181 C 0.99931 1.06907 0.74937
 C182 C 0.97591 1.05543 0.74558
 C183 C 0.97596 1.02796 0.74523
 C184 C 0.99932 1.01375 0.75001
 C185 C 1.02260 1.02810 0.75454
 C186 C 1.02263 1.05548 0.75352
 C187 C 0.99946 0.98430 0.75034
 C188 C 1.02281 0.97008 0.74572
 C189 C 1.02307 0.94265 0.74689
 C190 C 0.99979 0.92896 0.75126
 C191 C 0.97639 0.94256 0.75514
 C192 C 0.97629 0.96998 0.75535
 H193 H 0.99941 1.09034 0.74910
 H194 H 0.95774 1.01798 0.74105
 H195 H 1.04085 1.01832 0.75901
 H196 H 1.04092 0.98003 0.74106
 H197 H 0.99984 0.90771 0.75164
 H198 H 0.95802 0.97982 0.75961
 C199 C 0.49985 0.56862 0.24777
 C200 C 0.47627 0.55531 0.24415
 C201 C 0.47582 0.52789 0.24408
 C202 C 0.49890 0.51332 0.24896
 C203 C 0.52247 0.52732 0.25329
 C204 C 0.52297 0.55471 0.25201
 C205 C 0.49844 0.48388 0.24942
 C206 C 0.52152 0.46924 0.24490
 C207 C 0.52127 0.44186 0.24602
 C208 C 0.49778 0.42854 0.25030
 C209 C 0.47458 0.44251 0.25411
 C210 C 0.47497 0.46995 0.25434
 H211 H 0.50020 0.58986 0.24731
 H212 H 0.45739 0.51827 0.24004
 H213 H 0.54057 0.51728 0.25781
 H214 H 0.53985 0.47878 0.24032
 H215 H 0.49756 0.40730 0.25065
 H216 H 0.45686 0.48010 0.25853
 O217 O 0.24872 0.18175 0.21631
 O218 O 0.27647 0.17441 0.25312
 O219 O 0.17913 0.21298 0.25297
 O220 O 0.16853 0.24725 0.27752
 O221 O 0.21235 0.24969 0.18334
 O222 O 0.24636 0.27919 0.17724
 O223 O 0.24525 0.28605 0.32032
 O224 O 0.21595 0.25015 0.32663
 O225 O 0.31442 0.25175 0.28915
 O226 O 0.32473 0.22406 0.25541
 O227 O 0.28181 0.31835 0.25458
 O228 O 0.24554 0.32607 0.22389
 O229 O 0.24548 0.31750 0.28871
 O230 O 0.21610 0.32453 0.25004
 O231 O 0.31368 0.28720 0.25492
 O232 O 0.31815 0.24868 0.22050
 O233 O 0.28254 0.25293 0.32036
 O234 O 0.25151 0.22183 0.32858
 O235 O 0.24905 0.21325 0.18473
 O236 O 0.28006 0.25013 0.18026
 O237 O 0.18018 0.24952 0.21433
 O238 O 0.17277 0.27964 0.25162
 O239 O 0.21089 0.18168 0.25239
 O240 O 0.24879 0.17430 0.28174
 Zr241 Zr 0.24636 0.20282 0.25173
 O242 O 0.27020 0.22583 0.27627
 Zr243 Zr 0.20002 0.24838 0.25067
 O244 O 0.22168 0.27305 0.27575
 Zr245 Zr 0.24704 0.24883 0.20551
 O246 O 0.27049 0.27402 0.22840
 Zr247 Zr 0.24707 0.25075 0.29925
 O248 O 0.22267 0.22553 0.27684
 Zr249 Zr 0.29346 0.25127 0.25378
 O250 O 0.27196 0.22582 0.22908
 Zr251 Zr 0.24671 0.29671 0.25316
 O252 O 0.22308 0.27380 0.22794
 O253 O 0.22242 0.22429 0.22681
 O254 O 0.27128 0.27563 0.27792
 C255 C 0.24988 0.18931 0.19235
 C256 C 0.18688 0.18908 0.25345
 C257 C 0.18824 0.25031 0.19048
 C258 C 0.24487 0.30998 0.31268
 C259 C 0.30663 0.25287 0.31301
 C260 C 0.30586 0.31107 0.25521
 H261 H 0.28096 0.21424 0.28749
 H262 H 0.28160 0.28486 0.21681
 H263 H 0.21146 0.21294 0.21552
 H264 H 0.20944 0.28344 0.28656
 H265 H 0.20463 0.23511 0.32198
 H266 H 0.17525 0.25414 0.29432
 H267 H 0.33388 0.25963 0.22363
 H268 H 0.27453 0.24480 0.16240
 H269 H 0.24129 0.20649 0.32276
 H270 H 0.23308 0.17624 0.29293
 H271 H 0.25960 0.32225 0.21112
 H272 H 0.23499 0.29321 0.18431
 H273 H 0.29043 0.18052 0.24113
 H274 H 0.31794 0.20805 0.26391
 H275 H 0.17774 0.29191 0.23745
 H276 H 0.20370 0.32133 0.26457
 O277 O 0.75255 0.81529 0.21120
 O278 O 0.72329 0.82369 0.24649
 O279 O 0.81953 0.78263 0.25017
 O280 O 0.82863 0.74826 0.27519
 O281 O 0.78735 0.74608 0.17970
 O282 O 0.75242 0.71766 0.17277
 O283 O 0.74863 0.71187 0.31577
 O284 O 0.77955 0.74619 0.32292
 O285 O 0.68219 0.74750 0.28248
 O286 O 0.67378 0.77547 0.24803
 O287 O 0.71428 0.67990 0.24912
 O288 O 0.75143 0.67121 0.21967
 O289 O 0.74870 0.68006 0.28454
 O290 O 0.77985 0.67206 0.24725
 O291 O 0.68311 0.71176 0.24867
 O292 O 0.68034 0.74969 0.21370
 O293 O 0.71335 0.74623 0.31448
 O294 O 0.74533 0.77658 0.32319
 O295 O 0.75237 0.78375 0.17966
 O296 O 0.71971 0.74813 0.17468
 O297 O 0.81856 0.74576 0.21173
 O298 O 0.82412 0.71568 0.24944
 O299 O 0.78851 0.81465 0.24871
 O300 O 0.74949 0.82313 0.27652
 Zr301 Zr 0.75260 0.79442 0.24676
 O302 O 0.72744 0.77225 0.27066
 Zr303 Zr 0.79782 0.74770 0.24748
 O304 O 0.77480 0.72379 0.27205
 Zr305 Zr 0.75210 0.74824 0.20081
 O306 O 0.72737 0.72378 0.22315
 Zr307 Zr 0.74936 0.74700 0.29447
 O308 O 0.77506 0.77137 0.27273
 Zr309 Zr 0.70418 0.74724 0.24766
 O310 O 0.72705 0.77199 0.22344
 Zr311 Zr 0.74985 0.70066 0.24881
 O312 O 0.77475 0.72279 0.22415
 O313 O 0.77674 0.77216 0.22280
 O314 O 0.72514 0.72262 0.27258
 C315 C 0.75232 0.80774 0.18722
 C316 C 0.81231 0.80671 0.25043
 C317 C 0.81121 0.74494 0.18764
 C318 C 0.74822 0.68787 0.30843
 C319 C 0.68946 0.74661 0.30655
 C320 C 0.69041 0.68772 0.24926
 H321 H 0.71669 0.78421 0.28146
 H322 H 0.71635 0.71312 0.21130
 H323 H 0.78844 0.78310 0.21188
 H324 H 0.78632 0.71312 0.28341
 H325 H 0.79181 0.76054 0.31851
 H326 H 0.82143 0.74123 0.29173
 H327 H 0.66400 0.73972 0.21691
 H328 H 0.72593 0.75310 0.15696
 H329 H 0.75730 0.79090 0.31814
 H330 H 0.76486 0.82119 0.28818
 H331 H 0.73765 0.67507 0.20659
 H332 H 0.76333 0.70342 0.18014
 H333 H 0.70966 0.81782 0.23399
 H334 H 0.68081 0.79132 0.25663
 H335 H 0.81914 0.70341 0.23527
 H336 H 0.79151 0.67481 0.26250
 O337 O 0.75296 0.18273 0.78653
 O338 O 0.72321 0.17471 0.75099
 O339 O 0.81974 0.21499 0.74811
 O340 O 0.82655 0.25151 0.71973
 O341 O 0.78840 0.25207 0.81753
 O342 O 0.75350 0.28045 0.82479
 O343 O 0.74873 0.28608 0.68187
 O344 O 0.77893 0.24898 0.67363
 O345 O 0.68294 0.25064 0.71495
 O346 O 0.67423 0.22256 0.75054
 O347 O 0.71441 0.31777 0.74850
 O348 O 0.75196 0.32675 0.77782
 O349 O 0.74895 0.31790 0.71306
 O350 O 0.77987 0.32619 0.75019
 O351 O 0.68325 0.28594 0.74991
 O352 O 0.67874 0.24668 0.78210
 O353 O 0.71389 0.25094 0.68287
 O354 O 0.75135 0.22090 0.67443
 O355 O 0.75323 0.21443 0.81793
 O356 O 0.72064 0.25004 0.82295
 O357 O 0.81952 0.25251 0.78545
 O358 O 0.82639 0.28061 0.74831
 O359 O 0.78859 0.18304 0.74842
 O360 O 0.75123 0.17504 0.72095
 Zr361 Zr 0.75292 0.20356 0.75092
 O362 O 0.72765 0.22557 0.72686
 Zr363 Zr 0.79832 0.25022 0.74998
 O364 O 0.77521 0.27422 0.72558
 Zr365 Zr 0.75291 0.24989 0.79673
 O366 O 0.72795 0.27420 0.77450
 Zr367 Zr 0.74983 0.25082 0.70311
 O368 O 0.77535 0.22661 0.72510
 Zr369 Zr 0.70466 0.25069 0.74998
 O370 O 0.72765 0.22616 0.77432
 Zr371 Zr 0.75017 0.29728 0.74871
 O372 O 0.77536 0.27530 0.77320
 O373 O 0.77730 0.22581 0.77470
 O374 O 0.72544 0.27526 0.72487
 C375 C 0.75296 0.19042 0.81048
 C376 C 0.81244 0.19094 0.74730
 C377 C 0.81224 0.25328 0.80955
 C378 C 0.74835 0.31009 0.68920
 C379 C 0.69007 0.25100 0.69086
 C380 C 0.69053 0.30996 0.74897
 H381 H 0.71668 0.21356 0.71636
 H382 H 0.71721 0.28501 0.78643
 H383 H 0.78902 0.21490 0.78566
 H384 H 0.78678 0.28504 0.71447
 H385 H 0.79157 0.26330 0.67685
 H386 H 0.82003 0.23988 0.70565
 H387 H 0.67917 0.26322 0.79219
 H388 H 0.72695 0.24515 0.84068
 H389 H 0.73699 0.20842 0.67806
 H390 H 0.76277 0.18135 0.70671
 H391 H 0.73807 0.32312 0.79083
 H392 H 0.76418 0.29476 0.81725
 H393 H 0.70972 0.18070 0.76357
 H394 H 0.68040 0.20721 0.74048
 H395 H 0.82010 0.29458 0.76019
 H396 H 0.79188 0.32315 0.73531
 O397 O 0.25366 0.82079 0.78514
 O398 O 0.28093 0.82825 0.74712
 O399 O 0.18398 0.78954 0.74836
 O400 O 0.17325 0.75525 0.72398
 O401 O 0.21677 0.75312 0.81843
 O402 O 0.25073 0.72388 0.82500
 O403 O 0.24999 0.71595 0.68167
 O404 O 0.22088 0.75202 0.67498
 O405 O 0.31940 0.74953 0.71309
 O406 O 0.32698 0.78038 0.74435
 O407 O 0.28631 0.68412 0.74782
 O408 O 0.24992 0.67628 0.77812
 O409 O 0.25000 0.68469 0.71345
 O410 O 0.22038 0.67809 0.75213
 O411 O 0.31853 0.71494 0.74714
 O412 O 0.32380 0.74998 0.78101
 O413 O 0.28745 0.74896 0.68184
 O414 O 0.25663 0.78009 0.67313
 O415 O 0.25350 0.78955 0.81696
 O416 O 0.28478 0.75256 0.82139
 O417 O 0.18484 0.75321 0.78712
 O418 O 0.17738 0.72298 0.74991
 O419 O 0.21572 0.82083 0.74911
 O420 O 0.25348 0.82779 0.71955
 Zr421 Zr 0.25119 0.79954 0.74983
 O422 O 0.27501 0.77618 0.72562
 Zr423 Zr 0.20474 0.75413 0.75090
 O424 O 0.22631 0.72926 0.72603
 Zr425 Zr 0.25155 0.75387 0.79635
 O426 O 0.27482 0.72847 0.77363
 Zr427 Zr 0.25185 0.75135 0.70258
 O428 O 0.22748 0.77679 0.72473
 Zr429 Zr 0.29817 0.75079 0.74826
 O430 O 0.27679 0.77661 0.77284
 Zr431 Zr 0.25116 0.70568 0.74889
 O432 O 0.22760 0.72880 0.77394
 O433 O 0.22708 0.77832 0.77475
 O434 O 0.27586 0.72650 0.72414
 C435 C 0.25457 0.81341 0.80916
 C436 C 0.19170 0.81343 0.74794
 C437 C 0.19270 0.75249 0.81104
 C438 C 0.24952 0.69207 0.68944
 C439 C 0.31154 0.74863 0.68921
 C440 C 0.31044 0.69115 0.74708
 H441 H 0.28604 0.78765 0.71456
 H442 H 0.28577 0.71755 0.78532
 H443 H 0.21613 0.78976 0.78594
 H444 H 0.21405 0.71887 0.71521
 H445 H 0.20962 0.76715 0.67949
 H446 H 0.18005 0.74853 0.70715
 H447 H 0.34166 0.74601 0.77448
 H448 H 0.27945 0.75822 0.83921
 H449 H 0.24649 0.79554 0.67881
 H450 H 0.23769 0.82580 0.70846
 H451 H 0.26375 0.68025 0.79111
 H452 H 0.23975 0.70960 0.81781
 H453 H 0.29432 0.82382 0.76041
 H454 H 0.32472 0.79243 0.75934
 H455 H 0.18219 0.71079 0.76421
 H456 H 0.20817 0.68105 0.73736
 O457 O 0.25262 0.31528 0.71224
 O458 O 0.22325 0.32382 0.74745
 O459 O 0.31943 0.28264 0.75153
 O460 O 0.32848 0.24833 0.77661
 O461 O 0.28736 0.24589 0.68107
 O462 O 0.25240 0.21753 0.67415
 O463 O 0.24835 0.21222 0.81718
 O464 O 0.27931 0.24656 0.82425
 O465 O 0.18203 0.24781 0.78362
 O466 O 0.17374 0.27574 0.74907
 O467 O 0.21409 0.18011 0.75059
 O468 O 0.25125 0.17123 0.72123
 O469 O 0.24841 0.18031 0.78605
 O470 O 0.27966 0.17216 0.74884
 O471 O 0.18298 0.21202 0.74996
 O472 O 0.18030 0.24980 0.71485
 O473 O 0.21312 0.24657 0.81568
 O474 O 0.24509 0.27694 0.82439
 O475 O 0.25245 0.28362 0.68082
 O476 O 0.21973 0.24803 0.67591
 O477 O 0.31850 0.24565 0.71317
 O478 O 0.32394 0.21568 0.75100
 O479 O 0.28846 0.31469 0.74988
 O480 O 0.24940 0.32339 0.77750
 Zr481 Zr 0.25254 0.29453 0.74788
 O482 O 0.22733 0.27249 0.77183
 Zr483 Zr 0.29770 0.24774 0.74886
 O484 O 0.27462 0.22395 0.77348
 Zr485 Zr 0.25207 0.24819 0.70209
 O486 O 0.22728 0.22385 0.72448
 Zr487 Zr 0.24917 0.24728 0.79576
 O488 O 0.27492 0.27154 0.77397
 Zr489 Zr 0.20408 0.24745 0.74885
 O490 O 0.22702 0.27207 0.72458
 Zr491 Zr 0.24968 0.20079 0.75025
 O492 O 0.27465 0.22279 0.72556
 O493 O 0.27671 0.27216 0.72406
 O494 O 0.22497 0.22288 0.77389
 C495 C 0.25242 0.30764 0.68829
 C496 C 0.31223 0.30672 0.75171
 C497 C 0.31119 0.24475 0.68907
 C498 C 0.24789 0.18820 0.80991
 C499 C 0.18925 0.24694 0.80770
 C500 C 0.19024 0.18799 0.75066
 H501 H 0.21658 0.28449 0.78258
 H502 H 0.21626 0.21317 0.71264
 H503 H 0.28845 0.28303 0.71313
 H504 H 0.28610 0.21330 0.78489
 H505 H 0.29158 0.26091 0.81982
 H506 H 0.32122 0.24145 0.79318
 H507 H 0.16391 0.23989 0.71809
 H508 H 0.22599 0.25296 0.65819
 H509 H 0.25703 0.29126 0.81929
 H510 H 0.26470 0.32143 0.78925
 H511 H 0.23750 0.17507 0.70811
 H512 H 0.26324 0.20328 0.68160
 H513 H 0.20966 0.31793 0.73491
 H514 H 0.18075 0.29158 0.75770
 H515 H 0.31899 0.20339 0.73684
 H516 H 0.29125 0.17489 0.76414
 O517 O 0.75087 0.68233 0.71631
 O518 O 0.77875 0.67538 0.75337
 O519 O 0.68101 0.71331 0.75297
 O520 O 0.67033 0.74749 0.77770
 O521 O 0.71394 0.75009 0.68349
 O522 O 0.74818 0.78079 0.67835
 O523 O 0.74651 0.78645 0.82052
 O524 O 0.71695 0.75042 0.82645
 O525 O 0.81553 0.75222 0.79011
 O526 O 0.82396 0.72162 0.75316
 O527 O 0.78398 0.81830 0.75496
 O528 O 0.74794 0.82644 0.72416
 O529 O 0.74720 0.81786 0.78889
 O530 O 0.71832 0.82511 0.75004
 O531 O 0.81583 0.78707 0.75530
 O532 O 0.82429 0.75380 0.72498
 O533 O 0.78353 0.75320 0.82114
 O534 O 0.75255 0.72227 0.82896
 O535 O 0.75103 0.71385 0.68477
 O536 O 0.78055 0.75105 0.67887
 O537 O 0.68179 0.74990 0.71448
 O538 O 0.67439 0.77998 0.75151
 O539 O 0.71288 0.68212 0.75223
 O540 O 0.75039 0.67433 0.78124
 Zr541 Zr 0.74826 0.70337 0.75171
 O542 O 0.77181 0.72619 0.77675
 Zr543 Zr 0.70174 0.74879 0.75074
 O544 O 0.72334 0.77350 0.77582
 Zr545 Zr 0.74871 0.74943 0.70555
 O546 O 0.77233 0.77411 0.72868
 Zr547 Zr 0.74844 0.75113 0.79951
 O548 O 0.72437 0.72589 0.77684
 Zr549 Zr 0.79518 0.75154 0.75432
 O550 O 0.77382 0.72652 0.72902
 Zr551 Zr 0.74865 0.79702 0.75337
 O552 O 0.72481 0.77430 0.72812
 O553 O 0.72419 0.72479 0.72682
 O554 O 0.77297 0.77592 0.77840
 C555 C 0.75200 0.68991 0.69237
 C556 C 0.68885 0.68945 0.75335
 C557 C 0.68984 0.75068 0.69064
 C558 C 0.74632 0.81037 0.81285
 C559 C 0.80762 0.75322 0.81392
 C560 C 0.80803 0.81094 0.75563
 H561 H 0.78235 0.71454 0.78810
 H562 H 0.78356 0.78488 0.71715
 H563 H 0.71331 0.71339 0.71550
 H564 H 0.71106 0.78398 0.78652
 H565 H 0.70580 0.73527 0.82170
 H566 H 0.67677 0.75524 0.79424
 H567 H 0.81761 0.74373 0.70983
 H568 H 0.77422 0.74605 0.66116
 H569 H 0.74275 0.70677 0.82285
 H570 H 0.73505 0.67669 0.79285
 H571 H 0.76187 0.82239 0.71134
 H572 H 0.73544 0.79386 0.68489
 H573 H 0.79278 0.68176 0.74161
 H574 H 0.82059 0.70946 0.76785
 H575 H 0.67958 0.79241 0.73757
 H576 H 0.70560 0.82178 0.76426
 O577 O 0.25233 0.68308 0.28579
 O578 O 0.22252 0.67515 0.25027
 O579 O 0.31896 0.71565 0.24738
 O580 O 0.32571 0.75225 0.21918
 O581 O 0.28764 0.75242 0.31699
 O582 O 0.25270 0.78063 0.32443
 O583 O 0.24777 0.78679 0.18150
 O584 O 0.27804 0.74975 0.17310
 O585 O 0.18210 0.75112 0.21456
 O586 O 0.17348 0.72291 0.25005
 O587 O 0.21352 0.81817 0.24824
 O588 O 0.25103 0.82717 0.27756
 O589 O 0.24799 0.81850 0.21280
 O590 O 0.27898 0.82668 0.24995
 O591 O 0.18240 0.78629 0.24958
 O592 O 0.17798 0.74694 0.28169
 O593 O 0.21301 0.75161 0.18244
 O594 O 0.25049 0.72165 0.17383
 O595 O 0.25257 0.71467 0.31730
 O596 O 0.21988 0.75021 0.32246
 O597 O 0.31872 0.75303 0.28487
 O598 O 0.32549 0.78127 0.24781
 O599 O 0.28788 0.68363 0.24760
 O600 O 0.25050 0.67562 0.22021
 Zr601 Zr 0.25218 0.70405 0.25026
 O602 O 0.22685 0.72609 0.22631
 Zr603 Zr 0.29749 0.75081 0.24942
 O604 O 0.27433 0.77484 0.22512
 Zr605 Zr 0.25214 0.75021 0.29624
 O606 O 0.22713 0.77456 0.27411
 Zr607 Zr 0.24897 0.75146 0.20261
 O608 O 0.27454 0.72723 0.22450
 Zr609 Zr 0.20386 0.75108 0.24955
 O610 O 0.22691 0.72650 0.27378
 Zr611 Zr 0.24929 0.79776 0.24837
 O612 O 0.27452 0.77575 0.27278
 O613 O 0.27655 0.72626 0.27409
 O614 O 0.22457 0.77578 0.22450
 C615 C 0.25234 0.69068 0.30977
 C616 C 0.31170 0.69160 0.24647
 C617 C 0.31146 0.75372 0.30897
 C618 C 0.24736 0.81078 0.18891
 C619 C 0.18920 0.75160 0.19046
 C620 C 0.18966 0.81032 0.24869
 H621 H 0.21589 0.71409 0.21577
 H622 H 0.21639 0.78531 0.28609
 H623 H 0.28831 0.71534 0.28499
 H624 H 0.28588 0.78572 0.21403
 H625 H 0.29062 0.76413 0.17631
 H626 H 0.31917 0.74072 0.20503
 H627 H 0.17836 0.76347 0.29179
 H628 H 0.22620 0.74521 0.34016
 H629 H 0.23613 0.70915 0.17742
 H630 H 0.26197 0.68201 0.20595
 H631 H 0.23718 0.82345 0.29058
 H632 H 0.26325 0.79504 0.31691
 H633 H 0.20905 0.68105 0.26290
 H634 H 0.17966 0.70760 0.23994
 H635 H 0.31921 0.79516 0.25978
 H636 H 0.29092 0.82378 0.23498
 O637 O 0.75321 0.31952 0.28484
 O638 O 0.78045 0.32688 0.24671
 O639 O 0.68348 0.28821 0.24819
 O640 O 0.67260 0.25387 0.22401
 O641 O 0.71644 0.25188 0.31827
 O642 O 0.75042 0.22264 0.32478
 O643 O 0.74922 0.21458 0.18145
 O644 O 0.72008 0.25069 0.17483
 O645 O 0.81873 0.24819 0.21266
 O646 O 0.82640 0.27907 0.24385
 O647 O 0.78570 0.18283 0.24747
 O648 O 0.74946 0.17498 0.27791
 O649 O 0.74930 0.18335 0.21327
 O650 O 0.71978 0.17682 0.25208
 O651 O 0.81794 0.21365 0.24668
 O652 O 0.82335 0.24867 0.28053
 O653 O 0.78669 0.24756 0.18149
 O654 O 0.75586 0.27868 0.17280
 O655 O 0.75316 0.28829 0.31668
 O656 O 0.78446 0.25130 0.32103
 O657 O 0.68443 0.25196 0.28705
 O658 O 0.67685 0.22167 0.24990
 O659 O 0.71521 0.31951 0.24886
 O660 O 0.75288 0.32651 0.21929
 Zr661 Zr 0.75066 0.29823 0.24954
 O662 O 0.77439 0.27485 0.22527
 Zr663 Zr 0.70421 0.25282 0.25078
 O664 O 0.72568 0.22793 0.22585
 Zr665 Zr 0.75116 0.25261 0.29610
 O666 O 0.77433 0.22718 0.27333
 Zr667 Zr 0.75115 0.25000 0.20232
 O668 O 0.72688 0.27546 0.22453
 Zr669 Zr 0.79760 0.24949 0.24787
 O670 O 0.77632 0.27533 0.27250
 Zr671 Zr 0.75058 0.20438 0.24868
 O672 O 0.72713 0.22752 0.27379
 O673 O 0.72662 0.27704 0.27454
 O674 O 0.77521 0.22518 0.22384
 C675 C 0.75419 0.31215 0.30887
 C676 C 0.69120 0.31209 0.24772
 C677 C 0.69236 0.25126 0.31095
 C678 C 0.74876 0.19070 0.18925
 C679 C 0.81079 0.24724 0.18881
 C680 C 0.80983 0.18987 0.24663
 H681 H 0.78539 0.28631 0.21416
 H682 H 0.78532 0.21627 0.28498
 H683 H 0.71570 0.28849 0.28575
 H684 H 0.71337 0.21754 0.21509
 H685 H 0.70888 0.26586 0.17935
 H686 H 0.67938 0.24728 0.20712
 H687 H 0.84118 0.24470 0.27394
 H688 H 0.77920 0.25699 0.33886
 H689 H 0.74585 0.29419 0.17854
 H690 H 0.73711 0.32446 0.20818
 H691 H 0.76331 0.17897 0.29087
 H692 H 0.73943 0.20835 0.31764
 H693 H 0.79381 0.32253 0.26006
 H694 H 0.82420 0.29112 0.25886
 H695 H 0.68166 0.20952 0.26423
 H696 H 0.70756 0.17973 0.23730
 C697 C 0.25540 0.07174 0.04822
 C698 C 0.25643 0.08434 0.06819
 C699 C 0.25681 0.10032 0.09143
 C700 C 0.23616 0.09884 0.10944
 C701 C 0.23533 0.11593 0.13085
 C702 C 0.25514 0.13461 0.13432
 C703 C 0.27604 0.13578 0.11657
 C704 C 0.27687 0.11869 0.09516
 C705 C 0.25341 0.15338 0.15530
 C706 C 0.25182 0.16956 0.17244
 H707 H 0.22043 0.08486 0.10664
 H708 H 0.21901 0.11492 0.14438
 H709 H 0.29141 0.15022 0.11898
 H710 H 0.29282 0.12016 0.08125
 C711 C 0.75740 0.57142 0.54896
 C712 C 0.75853 0.58422 0.56879
 C713 C 0.75904 0.60044 0.59186
 C714 C 0.73906 0.59834 0.61056
 C715 C 0.73827 0.61562 0.63183
 C716 C 0.75744 0.63508 0.63447
 C717 C 0.77768 0.63687 0.61602
 C718 C 0.77847 0.61960 0.59476
 C719 C 0.75569 0.65396 0.65536
 C720 C 0.75405 0.67018 0.67246
 H721 H 0.72381 0.58374 0.60841
 H722 H 0.72246 0.61412 0.64590
 H723 H 0.79255 0.65192 0.61781
 H724 H 0.79389 0.62155 0.58032
 C725 C 0.75449 0.95334 0.07133
 C726 C 0.75548 0.93327 0.08375
 C727 C 0.75588 0.90981 0.09940
 C728 C 0.73400 0.89322 0.09978
 C729 C 0.73350 0.87153 0.11652
 C730 C 0.75488 0.86634 0.13297
 C731 C 0.77694 0.88266 0.13225
 C732 C 0.77744 0.90436 0.11552
 C733 C 0.75374 0.84507 0.15146
 C734 C 0.75292 0.82775 0.16749
 H735 H 0.71715 0.89735 0.08754
 H736 H 0.71629 0.85912 0.11699
 H737 H 0.79353 0.87891 0.14497
 H738 H 0.79438 0.91714 0.11552
 C739 C 0.25495 0.45245 0.57140
 C740 C 0.25589 0.43248 0.58397
 C741 C 0.25622 0.40914 0.59981
 C742 C 0.23427 0.39266 0.60039
 C743 C 0.23372 0.37110 0.61730
 C744 C 0.25512 0.36594 0.63372
 C745 C 0.27725 0.38216 0.63282
 C746 C 0.27780 0.40372 0.61592
 C747 C 0.25394 0.34480 0.65235
 C748 C 0.25308 0.32756 0.66849
 H749 H 0.21740 0.39677 0.58816
 H750 H 0.21646 0.35877 0.61791
 H751 H 0.29386 0.37842 0.64551
 H752 H 0.29480 0.41643 0.61577
 C753 C 0.75447 0.04877 0.93126
 C754 C 0.75569 0.06845 0.91825
 C755 C 0.75634 0.09125 0.90168
 C756 C 0.73505 0.10860 0.90134
 C757 C 0.73461 0.12949 0.88362
 C758 C 0.75543 0.13312 0.86613
 C759 C 0.77693 0.11604 0.86677
 C760 C 0.77737 0.09514 0.88449
 C761 C 0.75436 0.15370 0.84687
 C762 C 0.75357 0.17060 0.83040
 H763 H 0.71858 0.10565 0.91440
 H764 H 0.71785 0.14253 0.88325
 H765 H 0.79310 0.11861 0.85328
 H766 H 0.79383 0.08173 0.88441
 C767 C 0.25415 0.54877 0.43028
 C768 C 0.25531 0.56842 0.41723
 C769 C 0.25591 0.59123 0.40066
 C770 C 0.23466 0.60863 0.40048
 C771 C 0.23418 0.62957 0.38280
 C772 C 0.25493 0.63318 0.36521
 C773 C 0.27637 0.61603 0.36569
 C774 C 0.27685 0.59510 0.38336
 C775 C 0.25382 0.65382 0.34602
 C776 C 0.25300 0.67079 0.32961
 H777 H 0.21826 0.60571 0.41362
 H778 H 0.21747 0.64266 0.38255
 H779 H 0.29249 0.61858 0.35212
 H780 H 0.29327 0.58165 0.38318
 C781 C 0.25815 0.93232 0.95210
 C782 C 0.25965 0.91963 0.93224
 C783 C 0.26053 0.90348 0.90914
 C784 C 0.24056 0.90526 0.89036
 C785 C 0.24004 0.88792 0.86915
 C786 C 0.25947 0.86870 0.86664
 C787 C 0.27973 0.86725 0.88514
 C788 C 0.28025 0.88459 0.90635
 C789 C 0.25794 0.84968 0.84588
 C790 C 0.25645 0.83332 0.82891
 H791 H 0.22508 0.91964 0.89244
 H792 H 0.22421 0.88914 0.85504
 H793 H 0.29480 0.85239 0.88346
 H794 H 0.29566 0.88288 0.92086
 C795 C 0.75868 0.43095 0.45190
 C796 C 0.76000 0.41824 0.43203
 C797 C 0.76069 0.40210 0.40892
 C798 C 0.74055 0.40386 0.39033
 C799 C 0.73989 0.38655 0.36909
 C800 C 0.75936 0.36739 0.36637
 C801 C 0.77977 0.36596 0.38469
 C802 C 0.78043 0.38326 0.40593
 C803 C 0.75770 0.34840 0.34558
 C804 C 0.75614 0.33206 0.32860
 H805 H 0.72506 0.41820 0.39256
 H806 H 0.72394 0.38776 0.35511
 H807 H 0.79486 0.35115 0.38285
 H808 H 0.79598 0.38157 0.42030
 C809 C 0.07113 0.25431 0.04562
 C810 C 0.08391 0.25531 0.06547
 C811 C 0.10002 0.25572 0.08863
 C812 C 0.11832 0.27584 0.09231
 C813 C 0.13540 0.27516 0.11375
 C814 C 0.13428 0.25433 0.13160
 C815 C 0.11570 0.23442 0.12816
 C816 C 0.09862 0.23511 0.10671
 C817 C 0.15287 0.25290 0.15278
 C818 C 0.16883 0.25167 0.17017
 H819 H 0.11972 0.29177 0.07836
 H820 H 0.14975 0.29061 0.11617
 H821 H 0.11472 0.21818 0.14178
 H822 H 0.08468 0.21935 0.10396
 C823 C 0.57285 0.75482 0.54579
 C824 C 0.58575 0.75578 0.56556
 C825 C 0.60189 0.75615 0.58868
 C826 C 0.60015 0.73575 0.60696
 C827 C 0.61717 0.73504 0.62844
 C828 C 0.63602 0.75472 0.63171
 C829 C 0.63748 0.77534 0.61365
 C830 C 0.62047 0.77604 0.59217
 C831 C 0.65452 0.75326 0.65293
 C832 C 0.67045 0.75202 0.67034
 H833 H 0.58598 0.72017 0.60434
 H834 H 0.61593 0.71896 0.64223
 H835 H 0.65205 0.79060 0.61593
 H836 H 0.62211 0.79180 0.57805
 C837 C 0.04790 0.74720 0.92781
 C838 C 0.06783 0.74659 0.91515
 C839 C 0.09117 0.74659 0.89931
 C840 C 0.09662 0.72534 0.88283
 C841 C 0.11824 0.72620 0.86602
 C842 C 0.13450 0.74832 0.86561
 C843 C 0.12931 0.76938 0.88240
 C844 C 0.10768 0.76852 0.89921
 C845 C 0.15567 0.74987 0.84704
 C846 C 0.17288 0.75115 0.83091
 H847 H 0.08389 0.70836 0.88261
 H848 H 0.12199 0.70986 0.85303
 H849 H 0.14167 0.78663 0.88216
 H850 H 0.10356 0.78512 0.91176
 C851 C 0.54773 0.24629 0.42777
 C852 C 0.56762 0.24562 0.41506
 C853 C 0.59093 0.24556 0.39921
 C854 C 0.59625 0.22436 0.38265
 C855 C 0.61788 0.22516 0.36586
 C856 C 0.63427 0.24718 0.36556
 C857 C 0.62920 0.26820 0.38244
 C858 C 0.60757 0.26739 0.39924
 C859 C 0.65542 0.24870 0.34700
 C860 C 0.67260 0.24995 0.33086
 H861 H 0.58342 0.20745 0.38235
 H862 H 0.62154 0.20885 0.35279
 H863 H 0.64167 0.28537 0.38228
 H864 H 0.60355 0.28396 0.41186
 C865 C 0.95384 0.74144 0.06843
 C866 C 0.93412 0.73977 0.08131
 C867 C 0.91124 0.73878 0.09771
 C868 C 0.90961 0.72019 0.11784
 C869 C 0.88857 0.72076 0.13536
 C870 C 0.86909 0.73995 0.13286
 C871 C 0.87046 0.75823 0.11244
 C872 C 0.89150 0.75766 0.09491
 C873 C 0.84836 0.74154 0.15188
 C874 C 0.83128 0.74306 0.16810
 H875 H 0.92488 0.70566 0.12033
 H876 H 0.88775 0.70659 0.15114
 H877 H 0.85555 0.77320 0.11038
 H878 H 0.89269 0.77226 0.07957
 C879 C 0.45364 0.24040 0.56979
 C880 C 0.43402 0.23881 0.58281
 C881 C 0.41122 0.23790 0.59930
 C882 C 0.39114 0.25632 0.59597
 C883 C 0.37011 0.25702 0.61351
 C884 C 0.36912 0.23933 0.63445
 C885 C 0.38895 0.22059 0.63750
 C886 C 0.40997 0.21989 0.61997
 C887 C 0.34838 0.24107 0.65342
 C888 C 0.33129 0.24272 0.66960
 H889 H 0.39203 0.27049 0.58019
 H890 H 0.35493 0.27165 0.61103
 H891 H 0.38841 0.20688 0.65368
 H892 H 0.42552 0.20572 0.62285
 C893 C 0.93117 0.25682 0.95253
 C894 C 0.91844 0.25839 0.93268
 C895 C 0.90231 0.25934 0.90956
 C896 C 0.88306 0.27874 0.90700
 C897 C 0.86577 0.27824 0.88573
 C898 C 0.86765 0.25833 0.86693
 C899 C 0.88724 0.23923 0.86921
 C900 C 0.90453 0.23973 0.89048
 C901 C 0.84864 0.25675 0.84615
 C902 C 0.83225 0.25521 0.82920
 H903 H 0.88103 0.29386 0.92175
 H904 H 0.85062 0.29303 0.88423
 H905 H 0.88878 0.22368 0.85486
 H906 H 0.91920 0.22451 0.89238
 C907 C 0.43060 0.75779 0.45166
 C908 C 0.41773 0.75930 0.43192
 C909 C 0.40152 0.76016 0.40887
 C910 C 0.38198 0.77928 0.40651
 C911 C 0.36468 0.77870 0.38525
 C912 C 0.36685 0.75898 0.36629
 C913 C 0.38671 0.74016 0.36838
 C914 C 0.40401 0.74074 0.38964
 C915 C 0.34786 0.75730 0.34552
 C916 C 0.33147 0.75570 0.32859
 H917 H 0.37975 0.79426 0.42137
 H918 H 0.34931 0.79328 0.38389
 H919 H 0.38847 0.72475 0.35390
 H920 H 0.41892 0.72573 0.39139
 C921 C 0.06786 0.04607 0.25737
 C922 C 0.08066 0.06588 0.25864
 C923 C 0.09699 0.08886 0.25931
 C924 C 0.09514 0.10759 0.23932
 C925 C 0.11260 0.12871 0.23865
 C926 C 0.13200 0.13116 0.25793
 C927 C 0.13354 0.11268 0.27818
 C928 C 0.11609 0.09158 0.27885
 C929 C 0.15099 0.15196 0.25639
 C930 C 0.16723 0.16905 0.25503
 H931 H 0.08059 0.10557 0.22398
 H932 H 0.11128 0.14282 0.22285
 H933 H 0.14852 0.11433 0.29314
 H934 H 0.11785 0.07709 0.29427
 C935 C 0.56987 0.54659 0.75757
 C936 C 0.58282 0.56629 0.75867
 C937 C 0.59917 0.58922 0.75910
 C938 C 0.59849 0.60689 0.73811
 C939 C 0.61593 0.62800 0.73740
 C940 C 0.63412 0.63149 0.75766
 C941 C 0.63449 0.61408 0.77888
 C942 C 0.61706 0.59297 0.77959
 C943 C 0.65308 0.65227 0.75619
 C944 C 0.66928 0.66938 0.75487
 H945 H 0.58487 0.60405 0.72207
 H946 H 0.61554 0.64130 0.72086
 H947 H 0.64854 0.61657 0.79461
 H948 H 0.61788 0.57931 0.79580
 C949 C 0.95316 0.06919 0.74306
 C950 C 0.93363 0.08240 0.74165
 C951 C 0.91108 0.09932 0.74087
 C952 C 0.89182 0.09743 0.76032
 C953 C 0.87119 0.11545 0.76103
 C954 C 0.86976 0.13548 0.74232
 C955 C 0.88876 0.13709 0.72258
 C956 C 0.90939 0.11906 0.72188
 C957 C 0.84937 0.15490 0.74390
 C958 C 0.83248 0.17133 0.74542
 H959 H 0.89306 0.08239 0.77525
 H960 H 0.85664 0.11407 0.77642
 H961 H 0.88788 0.15253 0.70806
 H962 H 0.92430 0.12086 0.70689
 C963 C 0.45247 0.57015 0.24142
 C964 C 0.43308 0.58355 0.24003
 C965 C 0.41060 0.60051 0.23931
 C966 C 0.39063 0.59761 0.25789
 C967 C 0.36994 0.61555 0.25871
 C968 C 0.36918 0.63647 0.24097
 C969 C 0.38891 0.63911 0.22209
 C970 C 0.40960 0.62117 0.22128
 C971 C 0.34872 0.65575 0.24274
 C972 C 0.33177 0.67208 0.24441
 H973 H 0.39134 0.58183 0.27206
 H974 H 0.35481 0.61338 0.27343
 H975 H 0.38854 0.65526 0.20834
 H976 H 0.42507 0.62372 0.20698
 C977 C 0.04603 0.92917 0.74461
 C978 C 0.06605 0.91669 0.74336
 C979 C 0.08953 0.90105 0.74269
 C980 C 0.10782 0.90283 0.76312
 C981 C 0.12960 0.88619 0.76359
 C982 C 0.13318 0.86769 0.74365
 C983 C 0.11514 0.86623 0.72298
 C984 C 0.09336 0.88287 0.72251
 C985 C 0.15451 0.84926 0.74507
 C986 C 0.17181 0.83323 0.74638
 H987 H 0.10496 0.91669 0.77892
 H988 H 0.14334 0.88739 0.77974
 H989 H 0.11764 0.85191 0.70753
 H990 H 0.07926 0.88119 0.70672
 C991 C 0.54530 0.42730 0.24368
 C992 C 0.56523 0.41469 0.24254
 C993 C 0.58870 0.39909 0.24202
 C994 C 0.60703 0.40119 0.26238
 C995 C 0.62891 0.38470 0.26295
 C996 C 0.63255 0.36606 0.24315
 C997 C 0.61447 0.36428 0.22255
 C998 C 0.59259 0.38076 0.22199
 C999 C 0.65396 0.34779 0.24469
 C1000 C 0.67132 0.33185 0.24609
 H1001 H 0.60413 0.41519 0.27805
 H1002 H 0.64269 0.38614 0.27905
 H1003 H 0.61702 0.34984 0.20722
 H1004 H 0.57846 0.37887 0.20624
 C1005 C 0.92890 0.95145 0.25622
 C1006 C 0.91649 0.93138 0.25728
 C1007 C 0.90082 0.90793 0.25766
 C1008 C 0.88267 0.90384 0.27782
 C1009 C 0.86586 0.88222 0.27698
 C1010 C 0.86709 0.86461 0.25597
 C1011 C 0.88558 0.86842 0.23606
 C1012 C 0.90240 0.89004 0.23690
 C1013 C 0.84845 0.84353 0.25414
 C1014 C 0.83225 0.82641 0.25247
 H1015 H 0.88113 0.91765 0.29386
 H1016 H 0.85154 0.87955 0.29241
 H1017 H 0.88662 0.85502 0.21965
 H1018 H 0.91623 0.89312 0.22110
 C1019 C 0.42830 0.45164 0.75751
 C1020 C 0.41580 0.43164 0.75865
 C1021 C 0.40019 0.40820 0.75910
 C1022 C 0.38136 0.40460 0.77873
 C1023 C 0.36469 0.38289 0.77791
 C1024 C 0.36677 0.36470 0.75747
 C1025 C 0.38593 0.36803 0.73812
 C1026 C 0.40261 0.38975 0.73894
 C1027 C 0.34827 0.34354 0.75556
 C1028 C 0.33215 0.32639 0.75381
 H1029 H 0.37920 0.41885 0.79430
 H1030 H 0.34984 0.38057 0.79289
 H1031 H 0.38761 0.35417 0.72214
 H1032 H 0.41699 0.39244 0.72357
 C1033 C 0.07185 0.24292 0.95174
 C1034 C 0.08452 0.24194 0.93185
 C1035 C 0.10040 0.24161 0.90859
 C1036 C 0.11815 0.22112 0.90435
 C1037 C 0.13507 0.22187 0.88283
 C1038 C 0.13434 0.24313 0.86548
 C1039 C 0.11627 0.26340 0.86945
 C1040 C 0.09934 0.26264 0.89097
 C1041 C 0.15301 0.24470 0.84445
 C1042 C 0.16925 0.24590 0.82736
 H1043 H 0.11926 0.20486 0.91794
 H1044 H 0.14905 0.20616 0.88001
 H1045 H 0.11562 0.27998 0.85623
 H1046 H 0.08581 0.27868 0.89417
 C1047 C 0.57200 0.74320 0.45068
 C1048 C 0.58461 0.74216 0.43074
 C1049 C 0.60048 0.74175 0.40745
 C1050 C 0.59986 0.76298 0.39006
 C1051 C 0.61683 0.76363 0.36856
 C1052 C 0.63450 0.74306 0.36437
 C1053 C 0.63478 0.72160 0.38149
 C1054 C 0.61782 0.72095 0.40299
 C1055 C 0.65322 0.74449 0.34335
 C1056 C 0.66947 0.74561 0.32626
 H1057 H 0.58666 0.77926 0.39343
 H1058 H 0.61653 0.78037 0.35553
 H1059 H 0.64845 0.70564 0.37851
 H1060 H 0.61860 0.70453 0.41641
 C1061 C 0.95382 0.75803 0.92884
 C1062 C 0.93372 0.75915 0.91645
 C1063 C 0.91011 0.75959 0.90102
 C1064 C 0.90613 0.77943 0.88249
 C1065 C 0.88419 0.77868 0.86606
 C1066 C 0.86615 0.75809 0.86809
 C1067 C 0.86987 0.73852 0.88695
 C1068 C 0.89181 0.73927 0.90339
 C1069 C 0.84473 0.75632 0.84982
 C1070 C 0.82741 0.75482 0.83382
 H1071 H 0.92023 0.79514 0.88037
 H1072 H 0.88158 0.79385 0.85143
 H1073 H 0.85613 0.72243 0.88859
 H1074 H 0.89478 0.72374 0.91755
 C1075 C 0.45243 0.25736 0.42867
 C1076 C 0.43237 0.25846 0.41621
 C1077 C 0.40886 0.25892 0.40060
 C1078 C 0.40494 0.27888 0.38217
 C1079 C 0.38314 0.27817 0.36555
 C1080 C 0.36516 0.25750 0.36727
 C1081 C 0.36882 0.23779 0.38602
 C1082 C 0.39062 0.23851 0.40264
 C1083 C 0.34382 0.25583 0.34887
 C1084 C 0.32650 0.25441 0.33284
 H1085 H 0.41900 0.29466 0.38029
 H1086 H 0.38058 0.29344 0.35103
 H1087 H 0.35512 0.22165 0.38743
 H1088 H 0.39354 0.22288 0.41670
 C1089 C 0.04724 0.75512 0.07001
 C1090 C 0.06677 0.75620 0.08324
 C1091 C 0.08944 0.75660 0.09999
 C1092 C 0.10739 0.73584 0.09927
 C1093 C 0.12824 0.73506 0.11705
 C1094 C 0.13118 0.75502 0.13565
 C1095 C 0.11348 0.77599 0.13609
 C1096 C 0.09263 0.77677 0.11831
 C1097 C 0.15185 0.75362 0.15476
 C1098 C 0.16896 0.75253 0.17101
 H1099 H 0.10498 0.72004 0.08531
 H1100 H 0.14179 0.71874 0.11657
 H1101 H 0.11555 0.79150 0.15043
 H1102 H 0.07874 0.79279 0.11918
 C1103 C 0.54829 0.25416 0.57003
 C1104 C 0.56785 0.25523 0.58324
 C1105 C 0.59051 0.25564 0.60003
 C1106 C 0.59400 0.27616 0.61791
 C1107 C 0.61480 0.27544 0.63577
 C1108 C 0.63216 0.25418 0.63585
 C1109 C 0.62892 0.23386 0.61769
 C1110 C 0.60813 0.23458 0.59983
 C1111 C 0.65278 0.25287 0.65505
 C1112 C 0.66986 0.25186 0.67135
 H1113 H 0.58037 0.29242 0.61839
 H1114 H 0.61709 0.29123 0.64976
 H1115 H 0.64220 0.21731 0.61762
 H1116 H 0.60549 0.21851 0.58624
 C1117 C 0.92979 0.24278 0.04595
 C1118 C 0.91673 0.24143 0.06557
 C1119 C 0.90027 0.24075 0.08842
 C1120 C 0.90314 0.25981 0.10795
 C1121 C 0.88571 0.26056 0.12907
 C1122 C 0.86533 0.24226 0.13071
 C1123 C 0.86274 0.22291 0.11143
 C1124 C 0.88017 0.22217 0.09031
 C1125 C 0.84645 0.24396 0.15156
 C1126 C 0.83031 0.24549 0.16871
 H1127 H 0.91849 0.27440 0.10657
 H1128 H 0.88784 0.27566 0.14383
 H1129 H 0.84700 0.20872 0.11247
 H1130 H 0.87764 0.20747 0.07521
 C1131 C 0.43070 0.74397 0.54639
 C1132 C 0.41771 0.74274 0.56607
 C1133 C 0.40127 0.74217 0.58896
 C1134 C 0.38179 0.72300 0.59141
 C1135 C 0.36433 0.72378 0.61251
 C1136 C 0.36626 0.74376 0.63122
 C1137 C 0.38602 0.76267 0.62902
 C1138 C 0.40348 0.76189 0.60793
 C1139 C 0.34732 0.74543 0.65204
 C1140 C 0.33112 0.74693 0.66915
 H1141 H 0.37976 0.70779 0.57675
 H1142 H 0.34907 0.70910 0.61397
 H1143 H 0.38764 0.77825 0.64333
 H1144 H 0.41834 0.77693 0.60611
 C1145 C 0.24359 0.07283 0.95565
 C1146 C 0.24239 0.08554 0.93579
 C1147 C 0.24188 0.10133 0.91247
 C1148 C 0.22283 0.12086 0.90950
 C1149 C 0.22356 0.13752 0.88778
 C1150 C 0.24334 0.13473 0.86897
 C1151 C 0.26213 0.11491 0.87171
 C1152 C 0.26139 0.09824 0.89343
 C1153 C 0.24502 0.15297 0.84758
 C1154 C 0.24644 0.16878 0.83012
 H1155 H 0.20776 0.12352 0.92420
 H1156 H 0.20900 0.15286 0.88589
 H1157 H 0.27757 0.11266 0.85734
 H1158 H 0.27631 0.08330 0.89564
 C1159 C 0.74467 0.57228 0.45399
 C1160 C 0.74341 0.58500 0.43414
 C1161 C 0.74280 0.60080 0.41084
 C1162 C 0.72351 0.62008 0.40779
 C1163 C 0.72411 0.63677 0.38608
 C1164 C 0.74402 0.63425 0.36736
 C1165 C 0.76305 0.61468 0.37018
 C1166 C 0.76244 0.59799 0.39189
 C1167 C 0.74556 0.65253 0.34600
 C1168 C 0.74687 0.66838 0.32857
 H1169 H 0.70834 0.62254 0.42242
 H1170 H 0.70937 0.65192 0.38414
 H1171 H 0.77859 0.61264 0.35588
 H1172 H 0.77755 0.58324 0.39415
 C1173 C 0.74366 0.04600 0.07254
 C1174 C 0.74283 0.06581 0.08535
 C1175 C 0.74268 0.08900 0.10133
 C1176 C 0.76391 0.10637 0.10046
 C1177 C 0.76476 0.12789 0.11738
 C1178 C 0.74437 0.13211 0.13524
 C1179 C 0.72292 0.11498 0.13581
 C1180 C 0.72208 0.09346 0.11890
 C1181 C 0.74595 0.15328 0.15375
 C1182 C 0.74729 0.17059 0.16972
 H1183 H 0.78002 0.10300 0.08706
 H1184 H 0.78148 0.14095 0.11685
 H1185 H 0.70710 0.11800 0.14963
 H1186 H 0.70566 0.08005 0.11985
 C1187 C 0.24414 0.54763 0.57242
 C1188 C 0.24344 0.56741 0.58527
 C1189 C 0.24341 0.59057 0.60130
 C1190 C 0.26505 0.60745 0.60101
 C1191 C 0.26594 0.62892 0.61798
 C1192 C 0.24520 0.63358 0.63531
 C1193 C 0.22336 0.61695 0.63530
 C1194 C 0.22247 0.59547 0.61833
 C1195 C 0.24677 0.65470 0.65388
 C1196 C 0.24809 0.67199 0.66989
 H1197 H 0.28142 0.60373 0.58803
 H1198 H 0.28297 0.64160 0.61791
 H1199 H 0.20726 0.62032 0.64870
 H1200 H 0.20572 0.58244 0.61883
 C1201 C 0.74149 0.95400 0.93069
 C1202 C 0.74033 0.93427 0.91781
 C1203 C 0.73989 0.91121 0.90166
 C1204 C 0.72041 0.90819 0.88255
 C1205 C 0.72123 0.88686 0.86540
 C1206 C 0.74154 0.86849 0.86729
 C1207 C 0.76077 0.87126 0.88670
 C1208 C 0.75995 0.89259 0.90385
 C1209 C 0.74325 0.84752 0.84859
 C1210 C 0.74472 0.83035 0.83248
 H1211 H 0.70493 0.92259 0.88056
 H1212 H 0.70632 0.88495 0.85040
 H1213 H 0.77661 0.85722 0.88825
 H1214 H 0.77521 0.89485 0.91843
 C1215 C 0.24112 0.45398 0.43006
 C1216 C 0.23984 0.43419 0.41727
 C1217 C 0.23924 0.41105 0.40125
 C1218 C 0.21950 0.40787 0.38244
 C1219 C 0.22014 0.38645 0.36540
 C1220 C 0.24054 0.36816 0.36708
 C1221 C 0.26004 0.37109 0.38619
 C1222 C 0.25939 0.39251 0.40324
 C1223 C 0.24209 0.34713 0.34843
 C1224 C 0.24342 0.32994 0.33233
 H1225 H 0.20394 0.42219 0.38062
 H1226 H 0.20503 0.38441 0.35062
 H1227 H 0.27596 0.35712 0.38758
 H1228 H 0.27487 0.39490 0.41759
 C1229 C 0.24393 0.93054 0.04672
 C1230 C 0.24253 0.91733 0.06622
 C1231 C 0.24178 0.90075 0.08897
 C1232 C 0.22287 0.88096 0.09089
 C1233 C 0.22349 0.86344 0.11193
 C1234 C 0.24304 0.86562 0.13109
 C1235 C 0.26168 0.88568 0.12941
 C1236 C 0.26106 0.90321 0.10838
 C1237 C 0.24457 0.84664 0.15185
 C1238 C 0.24591 0.83041 0.16892
 H1239 H 0.20800 0.87877 0.07589
 H1240 H 0.20903 0.84794 0.11301
 H1241 H 0.27693 0.88748 0.14409
 H1242 H 0.27589 0.91832 0.10696
 C1243 C 0.74512 0.42943 0.54663
 C1244 C 0.74376 0.41628 0.56617
 C1245 C 0.74302 0.39976 0.58897
 C1246 C 0.72385 0.38026 0.59116
 C1247 C 0.72444 0.36280 0.61225
 C1248 C 0.74422 0.36476 0.63120
 C1249 C 0.76312 0.38454 0.62926
 C1250 C 0.76253 0.40201 0.60817
 C1251 C 0.74568 0.34584 0.65201
 C1252 C 0.74697 0.32966 0.66914
 H1253 H 0.70880 0.37823 0.57631
 H1254 H 0.70977 0.34751 0.61353
 H1255 H 0.77854 0.38617 0.64377
 H1256 H 0.77756 0.41690 0.60655
 C1257 C 0.04673 0.06990 0.75578
 C1258 C 0.06648 0.08278 0.75677
 C1259 C 0.08948 0.09901 0.75704
 C1260 C 0.10765 0.09735 0.73655
 C1261 C 0.12887 0.11464 0.73558
 C1262 C 0.13197 0.13366 0.75511
 C1263 C 0.11406 0.13502 0.77585
 C1264 C 0.09284 0.11774 0.77681
 C1265 C 0.15289 0.15242 0.75337
 C1266 C 0.17010 0.16851 0.75199
 H1267 H 0.10511 0.08307 0.72106
 H1268 H 0.14256 0.11348 0.71942
 H1269 H 0.11625 0.14972 0.79100
 H1270 H 0.07879 0.11932 0.79263
 C1271 C 0.54727 0.56887 0.25416
 C1272 C 0.56708 0.58170 0.25508
 C1273 C 0.59007 0.59802 0.25530
 C1274 C 0.60756 0.59735 0.23416
 C1275 C 0.62867 0.61480 0.23323
 C1276 C 0.63235 0.63302 0.25342
 C1277 C 0.61512 0.63338 0.27478
 C1278 C 0.59402 0.61593 0.27571
 C1279 C 0.65316 0.65196 0.25179
 C1280 C 0.67029 0.66816 0.25049
 H1281 H 0.60457 0.58372 0.21817
 H1282 H 0.64182 0.61440 0.21658
 H1283 H 0.61774 0.64744 0.29046
 H1284 H 0.58050 0.61677 0.29204
 C1285 C 0.06982 0.95245 0.24516
 C1286 C 0.08286 0.93280 0.24418
 C1287 C 0.09922 0.90988 0.24387
 C1288 C 0.09938 0.89288 0.26542
 C1289 C 0.11681 0.87176 0.26614
 C1290 C 0.13416 0.86759 0.24531
 C1291 C 0.13369 0.88432 0.22355
 C1292 C 0.11626 0.90544 0.22284
 C1293 C 0.15323 0.84689 0.24671
 C1294 C 0.16965 0.82998 0.24778
 H1295 H 0.08641 0.89626 0.28187
 H1296 H 0.11709 0.85900 0.28309
 H1297 H 0.14710 0.88131 0.20739
 H1298 H 0.11643 0.91857 0.20618
 C1299 C 0.56993 0.45169 0.74558
 C1300 C 0.58295 0.43201 0.74463
 C1301 C 0.59943 0.40913 0.74434
 C1302 C 0.60032 0.39259 0.76624
 C1303 C 0.61794 0.37161 0.76693
 C1304 C 0.63476 0.36710 0.74574
 C1305 C 0.63356 0.38336 0.72365
 C1306 C 0.61595 0.40434 0.72296
 C1307 C 0.65400 0.34651 0.74706
 C1308 C 0.67050 0.32964 0.74808
 H1309 H 0.58778 0.39624 0.78296
 H1310 H 0.61876 0.35923 0.78414
 H1311 H 0.64655 0.38010 0.70719
 H1312 H 0.61558 0.41712 0.70602
 C1313 C 0.92674 0.04512 0.24357
 C1314 C 0.91376 0.06479 0.24223
 C1315 C 0.89756 0.08784 0.24149
 C1316 C 0.90075 0.10742 0.26045
 C1317 C 0.88372 0.12888 0.26100
 C1318 C 0.86343 0.13081 0.24260
 C1319 C 0.86051 0.11144 0.22338
 C1320 C 0.87753 0.08999 0.22283
 C1321 C 0.84497 0.15206 0.24403
 C1322 C 0.82912 0.16951 0.24528
 H1323 H 0.91606 0.10586 0.27508
 H1324 H 0.88610 0.14370 0.27600
 H1325 H 0.84482 0.11271 0.20911
 H1326 H 0.87478 0.07487 0.20820
 C1327 C 0.42788 0.54656 0.74456
 C1328 C 0.41494 0.56629 0.74325
 C1329 C 0.39868 0.58934 0.74252
 C1330 C 0.40090 0.60831 0.76223
 C1331 C 0.38376 0.62970 0.76269
 C1332 C 0.36430 0.63218 0.74347
 C1333 C 0.36235 0.61343 0.72352
 C1334 C 0.37949 0.59204 0.72306
 C1335 C 0.34571 0.65337 0.74474
 C1336 C 0.32978 0.67078 0.74586
 H1337 H 0.41554 0.60632 0.77748
 H1338 H 0.38539 0.64403 0.77826
 H1339 H 0.34732 0.61510 0.70861
 H1340 H 0.37746 0.57740 0.70784
 C1341 C 0.95233 0.92815 0.75800
 C1342 C 0.93250 0.91543 0.75953
 C1343 C 0.90927 0.89950 0.76048
 C1344 C 0.90662 0.88023 0.77983
 C1345 C 0.88508 0.86331 0.77946
 C1346 C 0.86611 0.86557 0.75972
 C1347 C 0.86850 0.88515 0.74065
 C1348 C 0.89004 0.90208 0.74103
 C1349 C 0.84500 0.84695 0.75830
 C1350 C 0.82783 0.83080 0.75703
 H1351 H 0.92146 0.87794 0.79485
 H1352 H 0.88349 0.84815 0.79423
 H1353 H 0.85402 0.88699 0.72523
 H1354 H 0.89200 0.91679 0.72586
 C1355 C 0.45029 0.42841 0.25692
 C1356 C 0.43036 0.41581 0.25844
 C1357 C 0.40707 0.39991 0.25943
 C1358 C 0.40395 0.38134 0.27939
 C1359 C 0.38242 0.36438 0.27911
 C1360 C 0.36391 0.36589 0.25887
 C1361 C 0.36677 0.38478 0.23917
 C1362 C 0.38830 0.40175 0.23945
 C1363 C 0.34281 0.34720 0.25763
 C1364 C 0.32565 0.33099 0.25650
 H1365 H 0.41843 0.37960 0.29482
 H1366 H 0.38049 0.34976 0.29438
 H1367 H 0.35265 0.38605 0.22335
 H1368 H 0.39060 0.41590 0.22380
   
