data_POSCAR
  _audit_creation_date              2014-09-24
  _audit_creation_method            'ToBaCCo'
  _symmetry_space_group_name_H-M    'P1'
  _symmetry_Int_Tables_number       1
  _symmetry_cell_setting            triclinic
  loop_
  _symmetry_equiv_pos_as_xyz
 x,y,z
_cell_length_a 61.2861
_cell_length_b 61.3569
_cell_length_c 51.2229
_cell_angle_alpha 89.951700
_cell_angle_beta 89.957900
_cell_angle_gamma 89.795800
loop_
  _atom_site_label
  _atom_site_type_symbol
  _atom_site_fract_x
  _atom_site_fract_y
  _atom_site_fract_z
C1 C 0.33099 -0.03049 0.25017
 C2 C 0.34238 -0.01178 0.24248
 C3 C 0.35559 -0.01226 0.22020
 C4 C 0.35777 -0.03143 0.20549
 C5 C 0.34600 -0.04999 0.21307
 C6 C 0.33254 -0.04984 0.23545
 C7 C 0.34209 0.00792 0.25884
 C8 C 0.35507 0.00862 0.28129
 C9 C 0.35677 0.02788 0.29607
 C10 C 0.34453 0.04622 0.28824
 C11 C 0.33136 0.04573 0.26574
 C12 C 0.33039 0.02646 0.25098
 H13 H 0.32113 -0.02986 0.26773
 H14 H 0.36466 0.00221 0.21490
 H15 H 0.36434 -0.00579 0.28661
 H16 H 0.32070 0.02581 0.23332
 H17 H 0.34767 -0.06473 0.20162
 H18 H 0.34556 0.06114 0.29943
 C19 C 0.16906 -0.02675 0.74916
 C20 C 0.15743 -0.00822 0.75723
 C21 C 0.14468 -0.00898 0.77989
 C22 C 0.14319 -0.02825 0.79458
 C23 C 0.15521 -0.04659 0.78658
 C24 C 0.16818 -0.04608 0.76389
 C25 C 0.15703 0.01157 0.74099
 C26 C 0.14359 0.01224 0.71892
 C27 C 0.14120 0.03157 0.70436
 C28 C 0.15320 0.05003 0.71201
 C29 C 0.16684 0.04956 0.73411
 C30 C 0.16852 0.03019 0.74865
 H31 H 0.17860 -0.02606 0.73136
 H32 H 0.13541 0.00534 0.78551
 H33 H 0.13451 -0.00226 0.71375
 H34 H 0.17858 0.02955 0.76602
 H35 H 0.15413 -0.06148 0.79786
 H36 H 0.15165 0.06501 0.70096
 C37 C 0.67090 0.47511 0.24972
 C38 C 0.65907 0.49358 0.25759
 C39 C 0.64630 0.49285 0.28024
 C40 C 0.64504 0.47367 0.29515
 C41 C 0.65729 0.45541 0.28737
 C42 C 0.67022 0.45589 0.26465
 C43 C 0.65841 0.51316 0.24103
 C44 C 0.64454 0.51359 0.21932
 C45 C 0.64225 0.53261 0.20431
 C46 C 0.65450 0.55107 0.21103
 C47 C 0.66856 0.55089 0.23276
 C48 C 0.67030 0.53179 0.24782
 H49 H 0.68040 0.47576 0.23189
 H50 H 0.63684 0.50710 0.28568
 H51 H 0.63515 0.49918 0.21466
 H52 H 0.68073 0.53135 0.26488
 H53 H 0.65636 0.44058 0.29877
 H54 H 0.65280 0.56577 0.19950
 C55 C 0.83066 0.46778 0.74923
 C56 C 0.84241 0.48648 0.74231
 C57 C 0.85609 0.48618 0.72041
 C58 C 0.85832 0.46722 0.70530
 C59 C 0.84622 0.44869 0.71216
 C60 C 0.83235 0.44874 0.73409
 C61 C 0.84172 0.50607 0.75884
 C62 C 0.85456 0.50687 0.78141
 C63 C 0.85588 0.52609 0.79631
 C64 C 0.84341 0.54428 0.78846
 C65 C 0.83042 0.54369 0.76582
 C66 C 0.82981 0.52446 0.75097
 H67 H 0.82035 0.46813 0.76642
 H68 H 0.86536 0.50065 0.71563
 H69 H 0.86402 0.49258 0.78672
 H70 H 0.82026 0.52374 0.73321
 H71 H 0.84785 0.43404 0.70055
 H72 H 0.84418 0.55919 0.79971
 C73 C 0.24449 0.39521 1.03549
 C74 C 0.25381 0.40586 1.01407
 C75 C 0.27390 0.41626 1.01671
 C76 C 0.28491 0.41631 1.04074
 C77 C 0.27558 0.40530 1.06213
 C78 C 0.25538 0.39442 1.05970
 C79 C 0.24262 0.40592 0.98864
 C80 C 0.22229 0.41605 0.98608
 C81 C 0.21135 0.41626 0.96199
 C82 C 0.22100 0.40568 0.94046
 C83 C 0.24141 0.39518 0.94287
 C84 C 0.25222 0.39571 0.96705
 H85 H 0.22896 0.38711 1.03287
 H86 H 0.28085 0.42438 0.99987
 H87 H 0.21513 0.42387 1.00302
 H88 H 0.26791 0.38777 0.96942
 H89 H 0.28422 0.40508 1.08057
 H90 H 0.21252 0.40545 0.92192
 C91 C 0.75441 0.10562 1.03491
 C92 C 0.74516 0.09491 1.01352
 C93 C 0.72498 0.08465 1.01614
 C94 C 0.71384 0.08478 1.04010
 C95 C 0.72310 0.09585 1.06144
 C96 C 0.74338 0.10660 1.05904
 C97 C 0.75656 0.09452 0.98820
 C98 C 0.77695 0.08442 0.98610
 C99 C 0.78804 0.08377 0.96210
 C100 C 0.77849 0.09387 0.94019
 C101 C 0.75804 0.10436 0.94213
 C102 C 0.74708 0.10427 0.96624
 H103 H 0.77001 0.11360 1.03233
 H104 H 0.71810 0.07644 0.99934
 H105 H 0.78403 0.07695 1.00332
 H106 H 0.73134 0.11220 0.96824
 H107 H 0.71437 0.09621 1.07982
 H108 H 0.78708 0.09374 0.92171
 C109 C 0.25507 0.60411 0.53378
 C110 C 0.24563 0.59367 0.51232
 C111 C 0.22539 0.58351 0.51499
 C112 C 0.21439 0.58352 0.53906
 C113 C 0.22387 0.59433 0.56045
 C114 C 0.24418 0.60486 0.55793
 C115 C 0.25683 0.59356 0.48689
 C116 C 0.27721 0.58350 0.48440
 C117 C 0.28820 0.58330 0.46033
 C118 C 0.27857 0.59379 0.43874
 C119 C 0.25811 0.60422 0.44107
 C120 C 0.24724 0.60368 0.46523
 H121 H 0.27068 0.61209 0.53133
 H122 H 0.21834 0.57552 0.49814
 H123 H 0.28437 0.57576 0.50139
 H124 H 0.23152 0.61158 0.46754
 H125 H 0.21533 0.59473 0.57895
 H126 H 0.28709 0.59403 0.42022
 C127 C 0.74607 0.89461 0.53413
 C128 C 0.75534 0.90519 0.51264
 C129 C 0.77552 0.91550 0.51517
 C130 C 0.78671 0.91554 0.53918
 C131 C 0.77728 0.90455 0.56061
 C132 C 0.75704 0.89387 0.55819
 C133 C 0.74396 0.90544 0.48733
 C134 C 0.72357 0.91553 0.48515
 C135 C 0.71249 0.91604 0.46115
 C136 C 0.72204 0.90581 0.43934
 C137 C 0.74251 0.89535 0.44135
 C138 C 0.75346 0.89558 0.46545
 H139 H 0.73050 0.88655 0.53177
 H140 H 0.78228 0.92362 0.49821
 H141 H 0.71649 0.92310 0.50230
 H142 H 0.76921 0.88768 0.46750
 H143 H 0.78577 0.90408 0.57914
 H144 H 0.71346 0.90583 0.42087
 C145 C -0.02731 0.24186 0.36832
 C146 C -0.00886 0.24089 0.38438
 C147 C -0.00499 0.22242 0.39983
 C148 C -0.01961 0.20475 0.39957
 C149 C -0.03813 0.20602 0.38324
 C150 C -0.04216 0.22441 0.36739
 C151 C 0.00671 0.25911 0.38445
 C152 C 0.00277 0.27754 0.39995
 C153 C 0.01743 0.29512 0.39978
 C154 C 0.03598 0.29399 0.38358
 C155 C 0.04000 0.27570 0.36773
 C156 C 0.02524 0.25823 0.36845
 H157 H -0.02985 0.25628 0.35645
 H158 H 0.00947 0.22200 0.41199
 H159 H -0.01169 0.27805 0.41212
 H160 H 0.02797 0.24394 0.35645
 H161 H -0.04947 0.19252 0.38275
 H162 H 0.04728 0.30751 0.38317
 C163 C -0.02591 0.75794 0.13062
 C164 C -0.00698 0.75841 0.11527
 C165 C -0.00216 0.77690 0.10026
 C166 C -0.01633 0.79494 0.10022
 C167 C -0.03522 0.79430 0.11584
 C168 C -0.04022 0.77595 0.13131
 C169 C 0.00809 0.73966 0.11548
 C170 C 0.00342 0.72101 0.10074
 C171 C 0.01765 0.70291 0.10102
 C172 C 0.03654 0.70391 0.11677
 C173 C 0.04125 0.72245 0.13186
 C174 C 0.02692 0.74035 0.13089
 H175 H -0.02921 0.74352 0.14219
 H176 H 0.01257 0.77707 0.08855
 H177 H -0.01131 0.72081 0.08903
 H178 H 0.03021 0.75485 0.14227
 H179 H -0.04604 0.80829 0.11602
 H180 H 0.04765 0.69016 0.11742
 C181 C 0.47349 0.25898 0.63143
 C182 C 0.49215 0.25940 0.61563
 C183 C 0.49669 0.27785 0.60042
 C184 C 0.48251 0.29591 0.60068
 C185 C 0.46385 0.29527 0.61672
 C186 C 0.45923 0.27695 0.63229
 C187 C 0.50718 0.24062 0.61551
 C188 C 0.50246 0.22219 0.60038
 C189 C 0.51665 0.20413 0.60040
 C190 C 0.53545 0.20474 0.61616
 C191 C 0.54024 0.22303 0.63164
 C192 C 0.52601 0.24103 0.63100
 H193 H 0.47029 0.24464 0.64317
 H194 H 0.51123 0.27799 0.58836
 H195 H 0.48782 0.22206 0.58855
 H196 H 0.52935 0.25533 0.64270
 H197 H 0.45291 0.30916 0.61722
 H198 H 0.54638 0.19086 0.61646
 C199 C 0.47385 0.74147 0.86850
 C200 C 0.49228 0.74052 0.88461
 C201 C 0.49610 0.72207 0.90012
 C202 C 0.48145 0.70441 0.89986
 C203 C 0.46296 0.70569 0.88349
 C204 C 0.45908 0.72404 0.86765
 C205 C 0.50788 0.75871 0.88464
 C206 C 0.50404 0.77712 0.90019
 C207 C 0.51873 0.79467 0.89999
 C208 C 0.53725 0.79352 0.88374
 C209 C 0.54119 0.77522 0.86786
 C210 C 0.52638 0.75780 0.86859
 H211 H 0.47123 0.75580 0.85651
 H212 H 0.51055 0.72163 0.91231
 H213 H 0.48961 0.77766 0.91242
 H214 H 0.52903 0.74351 0.85658
 H215 H 0.45152 0.69230 0.88289
 H216 H 0.54860 0.80700 0.88331
 C217 C -0.28153 0.57843 1.00102
 C218 C -0.26270 0.58948 1.00905
 C219 C -0.26324 0.60250 1.03145
 C220 C -0.28257 0.60492 1.04587
 C221 C -0.30124 0.59348 1.03796
 C222 C -0.30103 0.58016 1.01549
 C223 C -0.24286 0.58914 0.99285
 C224 C -0.24206 0.60191 0.97020
 C225 C -0.22268 0.60361 0.95559
 C226 C -0.20432 0.59153 0.96373
 C227 C -0.20490 0.57856 0.98641
 C228 C -0.22429 0.57763 1.00103
 H229 H -0.28086 0.56872 0.98338
 H230 H -0.24869 0.61135 1.03697
 H231 H -0.25649 0.61106 0.96463
 H232 H -0.22501 0.56810 1.01883
 H233 H -0.31611 0.59533 1.04919
 H234 H -0.18930 0.59255 0.95266
 C235 C -0.27752 0.42171 0.50194
 C236 C -0.25880 0.41046 0.49367
 C237 C -0.25946 0.39773 0.47102
 C238 C -0.27880 0.39588 0.45656
 C239 C -0.29735 0.40751 0.46473
 C240 C -0.29703 0.42051 0.48746
 C241 C -0.23891 0.41039 0.50974
 C242 C -0.23812 0.39739 0.53220
 C243 C -0.21869 0.39526 0.54651
 C244 C -0.20023 0.40699 0.53845
 C245 C -0.20080 0.42024 0.51600
 C246 C -0.22027 0.42170 0.50159
 H247 H -0.27676 0.43120 0.51975
 H248 H -0.24498 0.38875 0.46525
 H249 H -0.25251 0.38831 0.53784
 H250 H -0.22098 0.43142 0.48394
 H251 H -0.31223 0.40610 0.45348
 H252 H -0.18523 0.40544 0.54944
 C253 C 0.22334 -0.07986 -0.00033
 C254 C 0.24185 -0.09149 -0.00848
 C255 C 0.24095 -0.10441 -0.03096
 C256 C 0.22152 -0.10614 -0.04546
 C257 C 0.20321 -0.09397 -0.03733
 C258 C 0.20390 -0.08086 -0.01480
 C259 C 0.26173 -0.09180 0.00761
 C260 C 0.26246 -0.10510 0.02982
 C261 C 0.28185 -0.10739 0.04431
 C262 C 0.30030 -0.09543 0.03645
 C263 C 0.29977 -0.08193 0.01421
 C264 C 0.28035 -0.08036 -0.00026
 H265 H 0.22415 -0.07022 0.01736
 H266 H 0.25535 -0.11362 -0.03651
 H267 H 0.24796 -0.11414 0.03516
 H268 H 0.27966 -0.07041 -0.01773
 H269 H 0.18816 -0.09502 -0.04830
 H270 H 0.31532 -0.09691 0.04744
 C271 C 0.21965 1.07932 0.50114
 C272 C 0.23841 1.09052 0.50909
 C273 C 0.23783 1.10349 0.53156
 C274 C 0.21853 1.10566 0.54612
 C275 C 0.19996 1.09404 0.53825
 C276 C 0.20029 1.08084 0.51578
 C277 C 0.25821 1.09036 0.49283
 C278 C 0.25895 1.10338 0.47039
 C279 C 0.27830 1.10525 0.45575
 C280 C 0.29669 1.09311 0.46366
 C281 C 0.29616 1.07989 0.48613
 C282 C 0.27679 1.07876 0.50077
 H283 H 0.22020 1.06963 0.48348
 H284 H 0.25232 1.11246 0.53706
 H285 H 0.24450 1.11257 0.46500
 H286 H 0.27611 1.06904 0.51842
 H287 H 0.18504 1.09563 0.54944
 H288 H 0.31169 1.09427 0.45258
 C289 C 0.14856 0.49527 0.21562
 C290 C 0.15911 0.50475 0.23696
 C291 C 0.16932 0.52494 0.23413
 C292 C 0.16921 0.53585 0.21001
 C293 C 0.15826 0.52633 0.18873
 C294 C 0.14770 0.50606 0.19143
 C295 C 0.15912 0.49371 0.26250
 C296 C 0.16896 0.47326 0.26517
 C297 C 0.16887 0.46235 0.28930
 C298 C 0.15832 0.47215 0.31074
 C299 C 0.14811 0.49268 0.30821
 C300 C 0.14894 0.50346 0.28401
 H301 H 0.14052 0.47971 0.21822
 H302 H 0.17737 0.53204 0.25090
 H303 H 0.17672 0.46596 0.24828
 H304 H 0.14117 0.51922 0.28153
 H305 H 0.15777 0.53480 0.17019
 H306 H 0.15784 0.46369 0.32928
 C307 C -0.14782 1.00734 0.21684
 C308 C -0.15879 0.99836 0.23820
 C309 C -0.16979 0.97861 0.23555
 C310 C -0.17011 0.96751 0.21152
 C311 C -0.15873 0.97660 0.19015
 C312 C -0.14727 0.99646 0.19265
 C313 C -0.15858 1.00953 0.26362
 C314 C -0.16828 1.03004 0.26615
 C315 C -0.16826 1.04109 0.29025
 C316 C -0.15782 1.03113 0.31178
 C317 C -0.14775 1.01052 0.30933
 C318 C -0.14856 0.99974 0.28517
 H319 H -0.13926 1.02261 0.21951
 H320 H -0.17815 0.97207 0.25247
 H321 H -0.17596 1.03720 0.24910
 H322 H -0.14095 0.98390 0.28278
 H323 H -0.15858 0.96807 0.17165
 H324 H -0.15729 1.03949 0.33037
 C325 C 0.35237 0.50563 -0.28455
 C326 C 0.34167 0.49637 -0.26313
 C327 C 0.33135 0.47624 -0.26573
 C328 C 0.33146 0.46514 -0.28969
 C329 C 0.34253 0.47442 -0.31107
 C330 C 0.35332 0.49466 -0.30869
 C331 C 0.34160 0.50760 -0.23773
 C332 C 0.33186 0.52812 -0.23536
 C333 C 0.33179 0.53926 -0.21132
 C334 C 0.34214 0.52939 -0.18968
 C335 C 0.35225 0.50879 -0.19195
 C336 C 0.35155 0.49791 -0.21605
 H337 H 0.36043 0.52117 -0.28197
 H338 H 0.32319 0.46932 -0.24889
 H339 H 0.32427 0.53522 -0.25249
 H340 H 0.35923 0.48209 -0.21830
 H341 H 0.34290 0.46571 -0.32945
 H342 H 0.34260 0.53783 -0.17113
 C343 C 0.64773 -0.00779 -0.28401
 C344 C 0.65873 0.00125 -0.26272
 C345 C 0.66998 0.02084 -0.26564
 C346 C 0.67048 0.03162 -0.28980
 C347 C 0.65909 0.02261 -0.31107
 C348 C 0.64740 0.00290 -0.30836
 C349 C 0.65838 -0.00972 -0.23717
 C350 C 0.66834 -0.03007 -0.23424
 C351 C 0.66826 -0.04079 -0.21000
 C352 C 0.65756 -0.03090 -0.18871
 C353 C 0.64725 -0.01044 -0.19150
 C354 C 0.64807 0.00014 -0.21583
 H355 H 0.63901 -0.02295 -0.28117
 H356 H 0.67837 0.02757 -0.24888
 H357 H 0.67624 -0.03742 -0.25101
 H358 H 0.64030 0.01588 -0.21850
 H359 H 0.65921 0.03110 -0.32961
 H360 H 0.65713 -0.03921 -0.17006
 C361 C -0.00898 0.22379 0.88394
 C362 C -0.00952 0.24210 0.86760
 C363 C -0.02779 0.24606 0.85184
 C364 C -0.04561 0.23168 0.85213
 C365 C -0.04483 0.21332 0.86865
 C366 C -0.02665 0.20925 0.88472
 C367 C 0.00892 0.25742 0.86755
 C368 C 0.02713 0.25355 0.85162
 C369 C 0.04488 0.26802 0.85174
 C370 C 0.04409 0.28636 0.86824
 C371 C 0.02598 0.29034 0.88446
 C372 C 0.00838 0.27572 0.88386
 H373 H 0.00522 0.22104 0.89610
 H374 H -0.02802 0.26035 0.83941
 H375 H 0.02737 0.23927 0.83919
 H376 H -0.00579 0.27842 0.89612
 H377 H -0.05850 0.20220 0.86912
 H378 H 0.05771 0.29754 0.86858
 C379 C 0.50871 0.22386 0.11787
 C380 C 0.50913 0.24246 0.13369
 C381 C 0.52753 0.24690 0.14899
 C382 C 0.54559 0.23269 0.14878
 C383 C 0.54495 0.21406 0.13274
 C384 C 0.52665 0.20953 0.11710
 C385 C 0.49038 0.25754 0.13375
 C386 C 0.47204 0.25310 0.14921
 C387 C 0.45402 0.26735 0.14917
 C388 C 0.45461 0.28600 0.13313
 C389 C 0.47283 0.29052 0.11732
 C390 C 0.49075 0.27616 0.11793
 H391 H 0.49440 0.22073 0.10606
 H392 H 0.52765 0.26140 0.16105
 H393 H 0.47195 0.23859 0.16128
 H394 H 0.50501 0.27929 0.10600
 H395 H 0.55882 0.20310 0.13231
 H396 H 0.44076 0.29699 0.13282
 C397 C 0.00837 0.72423 0.61786
 C398 C 0.00883 0.74278 0.63377
 C399 C 0.02727 0.74716 0.64903
 C400 C 0.04530 0.73292 0.64872
 C401 C 0.04462 0.71436 0.63259
 C402 C 0.02630 0.70990 0.61697
 C403 C -0.00992 0.75786 0.63395
 C404 C -0.02837 0.75320 0.64913
 C405 C -0.04652 0.76738 0.64916
 C406 C -0.04576 0.78624 0.63335
 C407 C -0.02741 0.79095 0.61784
 C408 C -0.00947 0.77665 0.61845
 H409 H -0.00596 0.72114 0.60608
 H410 H 0.02743 0.76161 0.66117
 H411 H -0.02839 0.73849 0.66087
 H412 H 0.00488 0.77992 0.60673
 H413 H 0.05848 0.70338 0.63206
 H414 H -0.05955 0.79732 0.63295
 C415 C 0.49221 0.72417 0.38290
 C416 C 0.49176 0.74244 0.36649
 C417 C 0.47357 0.74637 0.35057
 C418 C 0.45576 0.73198 0.35078
 C419 C 0.45646 0.71366 0.36737
 C420 C 0.47454 0.70965 0.38360
 C421 C 0.51023 0.75772 0.36653
 C422 C 0.52854 0.75371 0.35082
 C423 C 0.54640 0.76804 0.35116
 C424 C 0.54562 0.78639 0.36765
 C425 C 0.52739 0.79050 0.38365
 C426 C 0.50969 0.77602 0.38284
 H427 H 0.50635 0.72145 0.39518
 H428 H 0.47340 0.76063 0.33809
 H429 H 0.52878 0.73942 0.33842
 H430 H 0.49545 0.77880 0.39496
 H431 H 0.44279 0.70255 0.36779
 H432 H 0.55932 0.79747 0.36815
 B433 B -0.01711 0.01597 1.01807
 B434 B -0.02502 0.00959 0.98764
 B435 B -0.00599 0.02872 0.99244
 B436 B 0.00992 0.02133 1.01783
 B437 B 0.00038 -0.00319 1.02876
 B438 B -0.02160 -0.01030 1.01007
 B439 B 0.01405 -0.00851 0.97841
 B440 B 0.02207 -0.00206 1.00871
 B441 B 0.00297 -0.02120 1.00402
 B442 B -0.01294 -0.01377 0.97862
 B443 B -0.00331 0.01072 0.96766
 B444 B 0.01861 0.01775 0.98635
 B445 B 0.48267 0.51643 0.51680
 B446 B 0.47519 0.51011 0.48620
 B447 B 0.49416 0.52922 0.49145
 B448 B 0.50970 0.52178 0.51713
 B449 B 0.49999 0.49725 0.52780
 B450 B 0.47828 0.49018 0.50864
 B451 B 0.51438 0.49200 0.47773
 B452 B 0.52197 0.49839 0.50821
 B453 B 0.50292 0.47927 0.50308
 B454 B 0.48739 0.48676 0.47737
 B455 B 0.49719 0.51126 0.46668
 B456 B 0.51884 0.51825 0.48583
 B457 B 0.51761 0.98353 0.51704
 B458 B 0.52549 0.99002 0.48661
 B459 B 0.50650 0.97085 0.49141
 B460 B 0.49059 0.97812 0.51685
 B461 B 0.50010 1.00262 0.52783
 B462 B 0.52206 1.00983 0.50910
 B463 B 0.48639 1.00809 0.47753
 B464 B 0.47840 1.00153 0.50783
 B465 B 0.49746 1.02071 0.50315
 B466 B 0.51337 1.01340 0.47768
 B467 B 0.50377 0.98893 0.46669
 B468 B 0.48188 0.98179 0.48541
 B469 B 0.01690 0.48356 1.01733
 B470 B 0.02448 0.49002 0.98678
 B471 B 0.00555 0.47084 0.99188
 B472 B -0.01012 0.47814 1.01752
 B473 B -0.00052 0.50266 1.02833
 B474 B 0.02126 0.50985 1.00929
 B475 B -0.01471 0.50807 0.97822
 B476 B -0.02241 0.50154 1.00863
 B477 B -0.00338 0.52073 1.00367
 B478 B 0.01227 0.51338 0.97799
 B479 B 0.00258 0.48890 0.96716
 B480 B -0.01913 0.48177 0.98620
 B481 B 0.02007 0.51630 0.48458
 B482 B 0.02797 0.50968 0.51496
 B483 B 0.00869 0.52873 0.51031
 B484 B -0.00703 0.52148 0.48476
 B485 B 0.00288 0.49714 0.47357
 B486 B 0.02489 0.48998 0.49228
 B487 B -0.01086 0.49123 0.52379
 B488 B -0.01889 0.49792 0.49354
 B489 B 0.00046 0.47887 0.49808
 B490 B 0.01619 0.48614 0.52364
 B491 B 0.00619 0.51045 0.53485
 B492 B -0.01577 0.51754 0.51616
 B493 B 0.52032 0.01564 -0.01470
 B494 B 0.52817 0.00914 0.01574
 B495 B 0.50885 0.02812 0.01093
 B496 B 0.49321 0.02076 -0.01463
 B497 B 0.50321 -0.00359 -0.02568
 B498 B 0.52519 -0.01064 -0.00686
 B499 B 0.48934 -0.00939 0.02451
 B500 B 0.48139 -0.00280 -0.00580
 B501 B 0.50077 -0.02180 -0.00111
 B502 B 0.51641 -0.01441 0.02448
 B503 B 0.50633 0.00992 0.03555
 B504 B 0.48440 0.01689 0.01674
 B505 B 0.47883 0.48465 -0.01435
 B506 B 0.47085 0.49126 0.01600
 B507 B 0.49016 0.47224 0.01142
 B508 B 0.50593 0.47949 -0.01412
 B509 B 0.49602 0.50382 -0.02538
 B510 B 0.47396 0.51096 -0.00672
 B511 B 0.50965 0.50976 0.02485
 B512 B 0.51775 0.50306 -0.00538
 B513 B 0.49837 0.52210 -0.00092
 B514 B 0.48260 0.51482 0.02465
 B515 B 0.49259 0.49051 0.03592
 B516 B 0.51460 0.48345 0.01727
 B517 B -0.02107 0.98525 0.48634
 B518 B -0.02902 0.99190 0.51670
 B519 B -0.00969 0.97289 0.51211
 B520 B 0.00603 0.98013 0.48653
 B521 B -0.00392 1.00443 0.47524
 B522 B -0.02597 1.01157 0.49394
 B523 B 0.00978 1.01046 0.52542
 B524 B 0.01783 1.00372 0.49519
 B525 B -0.00156 1.02275 0.49965
 B526 B -0.01729 1.01549 0.52527
 B527 B -0.00725 0.99121 0.53658
 B528 B 0.01474 0.98414 0.51789
 B529 B 0.76565 0.23435 0.23469
 B530 B 0.75922 0.22687 0.26529
 B531 B 0.77834 0.24585 0.26007
 B532 B 0.77096 0.26136 0.23434
 B533 B 0.74645 0.25162 0.22359
 B534 B 0.73935 0.22992 0.24277
 B535 B 0.74098 0.26598 0.27361
 B536 B 0.74748 0.27357 0.24316
 B537 B 0.72836 0.25450 0.24823
 B538 B 0.73578 0.23901 0.27401
 B539 B 0.76025 0.24884 0.28477
 B540 B 0.76729 0.27047 0.26561
 B541 B 0.73472 0.76498 0.73484
 B542 B 0.74115 0.77246 0.76541
 B543 B 0.72197 0.75355 0.76027
 B544 B 0.72931 0.73799 0.73458
 B545 B 0.75386 0.74763 0.72378
 B546 B 0.76103 0.76933 0.74288
 B547 B 0.75925 0.73330 0.77385
 B548 B 0.75274 0.72570 0.74342
 B549 B 0.77193 0.74471 0.74841
 B550 B 0.76455 0.76025 0.77415
 B551 B 0.74004 0.75052 0.78496
 B552 B 0.73293 0.72889 0.76588
 B553 B 0.26487 0.26981 0.76385
 B554 B 0.25811 0.27834 0.73376
 B555 B 0.27728 0.25908 0.73773
 B556 B 0.27018 0.24278 0.76282
 B557 B 0.24581 0.25232 0.77446
 B558 B 0.23847 0.27468 0.75645
 B559 B 0.23979 0.23966 0.72387
 B560 B 0.24662 0.23102 0.75385
 B561 B 0.22744 0.25034 0.75001
 B562 B 0.23456 0.26664 0.72487
 B563 B 0.25893 0.25706 0.71323
 B564 B 0.26617 0.23473 0.73121
 B565 B 0.23569 0.73055 0.26279
 B566 B 0.24251 0.72248 0.23255
 B567 B 0.22336 0.74171 0.23686
 B568 B 0.23041 0.75759 0.26231
 B569 B 0.25475 0.74784 0.27379
 B570 B 0.26209 0.72577 0.25535
 B571 B 0.26091 0.76129 0.22349
 B572 B 0.25401 0.76946 0.25363
 B573 B 0.27318 0.75017 0.24942
 B574 B 0.26609 0.73428 0.22393
 B575 B 0.24177 0.74410 0.21244
 B576 B 0.23451 0.76614 0.23088
 B577 B 0.26592 0.73330 0.73417
 B578 B 0.25938 0.72552 0.76462
 B579 B 0.27841 0.74466 0.75979
 B580 B 0.27107 0.76034 0.73419
 B581 B 0.24669 0.75054 0.72314
 B582 B 0.23961 0.72865 0.74199
 B583 B 0.24087 0.76444 0.77330
 B584 B 0.24748 0.77234 0.74298
 B585 B 0.22845 0.75312 0.74769
 B586 B 0.23582 0.73745 0.77332
 B587 B 0.26018 0.74732 0.78439
 B588 B 0.26719 0.76917 0.76554
 B589 B 0.23394 0.26659 0.23549
 B590 B 0.24046 0.27448 0.26586
 B591 B 0.22137 0.25540 0.26120
 B592 B 0.22868 0.23957 0.23573
 B593 B 0.25312 0.24922 0.22461
 B594 B 0.26026 0.27117 0.24328
 B595 B 0.25880 0.23552 0.27490
 B596 B 0.25220 0.22752 0.24463
 B597 B 0.27131 0.24667 0.24918
 B598 B 0.26396 0.26249 0.27468
 B599 B 0.23955 0.25278 0.28582
 B600 B 0.23248 0.23087 0.26716
 B601 B 0.76483 0.77244 0.25963
 B602 B 0.75698 0.78166 0.23022
 B603 B 0.77692 0.76302 0.23260
 B604 B 0.77108 0.74566 0.25716
 B605 B 0.74668 0.75392 0.27007
 B606 B 0.73810 0.77656 0.25338
 B607 B 0.73986 0.74262 0.21920
 B608 B 0.74777 0.73333 0.24846
 B609 B 0.72779 0.75203 0.24620
 B610 B 0.73366 0.76936 0.22159
 B611 B 0.75800 0.76107 0.20870
 B612 B 0.76662 0.73852 0.22533
 B613 B 0.73621 0.22706 0.76000
 B614 B 0.74409 0.21808 0.73050
 B615 B 0.72415 0.23668 0.73307
 B616 B 0.72995 0.25385 0.75778
 B617 B 0.75434 0.24550 0.77061
 B618 B 0.76295 0.22300 0.75371
 B619 B 0.76120 0.25720 0.71984
 B620 B 0.75326 0.26626 0.74919
 B621 B 0.77325 0.24759 0.74675
 B622 B 0.76742 0.23045 0.72198
 B623 B 0.74308 0.23883 0.70918
 B624 B 0.73443 0.26125 0.72602
 N625 N 0.38709 1.04904 0.35145
 C626 C 0.39935 1.03153 0.35823
 N627 N 0.39717 1.01273 0.34465
 N628 N 0.38328 1.01150 0.32474
 C629 C 0.37097 1.02901 0.31765
 N630 N 0.37319 1.04780 0.33152
 C631 C 0.41440 1.03261 0.37959
 C632 C 0.42716 1.03234 0.39746
 C633 C 0.44231 1.03023 0.41862
 N634 N 0.43492 1.02570 0.44295
 N635 N 0.44883 1.02023 0.46181
 C636 C 0.47060 1.01912 0.45708
 N637 N 0.47798 1.02410 0.43279
 N638 N 0.46406 1.02955 0.41388
 N639 N -0.11441 0.54760 0.85197
 C640 C -0.10190 0.53026 0.85878
 N641 N -0.10372 0.51146 0.84512
 N642 N -0.11750 0.51006 0.82512
 C643 C -0.13005 0.52739 0.81800
 N644 N -0.12820 0.54618 0.83195
 C645 C -0.08696 0.53156 0.88024
 C646 C -0.07427 0.53149 0.89819
 C647 C -0.05919 0.52963 0.91946
 N648 N -0.03739 0.52996 0.91496
 N649 N -0.02340 0.52473 0.93388
 C650 C -0.03073 0.51898 0.95794
 N651 N -0.05257 0.51907 0.96244
 N652 N -0.06655 0.52432 0.94357
 N653 N 0.11244 -0.04966 0.85126
 C654 C 0.10036 -0.03209 0.85834
 N655 N 0.10256 -0.01321 0.84487
 N656 N 0.11632 -0.01195 0.82480
 C657 C 0.12843 -0.02950 0.81749
 N658 N 0.12620 -0.04838 0.83117
 C659 C 0.08547 -0.03320 0.87988
 C660 C 0.07284 -0.03291 0.89791
 C661 C 0.05787 -0.03074 0.91925
 N662 N 0.03606 -0.03047 0.91485
 N663 N 0.02225 -0.02496 0.93386
 C664 C 0.02979 -0.01952 0.95791
 N665 N 0.05162 -0.02021 0.96230
 N666 N 0.06543 -0.02573 0.94334
 N667 N 0.61435 0.45215 0.35182
 C668 C 0.60194 0.46955 0.35864
 N669 N 0.60392 0.48838 0.34503
 N670 N 0.61777 0.48976 0.32506
 C671 C 0.63021 0.47236 0.31800
 N672 N 0.62821 0.45353 0.33183
 C673 C 0.58691 0.46830 0.38005
 C674 C 0.57415 0.46841 0.39794
 C675 C 0.55898 0.47032 0.41913
 N676 N 0.53721 0.47024 0.41449
 N677 N 0.52316 0.47553 0.43335
 C678 C 0.53043 0.48109 0.45748
 N679 N 0.55223 0.48075 0.46212
 N680 N 0.56627 0.47544 0.44331
 N681 N 0.60949 0.55294 0.14863
 C682 C 0.59716 0.53533 0.14279
 N683 N 0.59977 0.51678 0.15683
 N684 N 0.61419 0.51587 0.17623
 C685 C 0.62658 0.53348 0.18227
 N686 N 0.62392 0.55203 0.16805
 C687 C 0.58175 0.53600 0.12178
 C688 C 0.56878 0.53539 0.10415
 C689 C 0.55350 0.53290 0.08322
 N690 N 0.56079 0.52873 0.05876
 N691 N 0.54690 0.52293 0.04007
 C692 C 0.52524 0.52111 0.04513
 N693 N 0.51794 0.52572 0.06956
 N694 N 0.53184 0.53151 0.08829
 N695 N 0.10953 1.05267 0.64988
 C696 C 0.09753 1.03502 0.64326
 N697 N 0.10031 1.01618 0.65666
 N698 N 0.11455 1.01502 0.67623
 C699 C 0.12660 1.03265 0.68316
 N700 N 0.12377 1.05150 0.66948
 C701 C 0.08216 1.03602 0.62222
 C702 C 0.06917 1.03565 0.60459
 C703 C 0.05383 1.03339 0.58369
 N704 N 0.06104 1.02928 0.55918
 N705 N 0.04708 1.02359 0.54052
 C706 C 0.02543 1.02182 0.54565
 N707 N 0.01821 1.02638 0.57013
 N708 N 0.03217 1.03206 0.58883
 N709 N -0.09989 0.48348 0.65706
 C710 C -0.09736 0.46500 0.64289
 N711 N -0.10951 0.44729 0.64891
 N712 N -0.12368 0.44804 0.66863
 C713 C -0.12627 0.46652 0.68298
 N714 N -0.11405 0.48422 0.67676
 C715 C -0.08223 0.46452 0.62156
 C716 C -0.06950 0.46528 0.60366
 C717 C -0.05452 0.46796 0.58243
 N718 N -0.06210 0.47332 0.55844
 N719 N -0.04833 0.47921 0.53962
 C720 C -0.02652 0.47991 0.54408
 N721 N -0.01895 0.47413 0.56803
 N722 N -0.03272 0.46826 0.58689
 N723 N 0.39899 -0.01559 0.15634
 C724 C 0.40182 -0.03437 0.14283
 N725 N 0.38999 -0.05213 0.14951
 N726 N 0.37584 -0.05113 0.16925
 C727 C 0.37298 -0.03236 0.18296
 N728 N 0.38486 -0.01461 0.17605
 C729 C 0.41710 -0.03518 0.12165
 C730 C 0.43002 -0.03468 0.10393
 C731 C 0.44529 -0.03230 0.08293
 N732 N 0.43802 -0.02790 0.05853
 N733 N 0.45196 -0.02219 0.03982
 C734 C 0.47365 -0.02068 0.04480
 N735 N 0.48093 -0.02552 0.06917
 N736 N 0.46699 -0.03123 0.08792
 N737 N 0.33332 0.44919 0.02405
 C738 C 0.34575 0.44720 0.04574
 N739 N 0.33819 0.43529 0.06615
 N740 N 0.31873 0.42568 0.06481
 C741 C 0.30623 0.42753 0.04297
 N742 N 0.31393 0.43957 0.02271
 C743 C 0.36719 0.45649 0.04606
 C744 C 0.38526 0.46405 0.04447
 C745 C 0.40677 0.47255 0.04046
 N746 N 0.42449 0.46124 0.04880
 N747 N 0.44449 0.46760 0.04210
 C748 C 0.44745 0.48534 0.02666
 N749 N 0.42969 0.49691 0.01884
 N750 N 0.40969 0.49057 0.02555
 N751 N -0.16218 0.93590 0.56570
 C752 C -0.15369 0.94628 0.54465
 N753 N -0.16506 0.94652 0.52203
 N754 N -0.18433 0.93671 0.52042
 C755 C -0.19302 0.92618 0.54134
 N756 N -0.18153 0.92608 0.56409
 C757 C -0.13244 0.95597 0.54549
 C758 C -0.11448 0.96385 0.54431
 C759 C -0.09304 0.97267 0.54073
 N760 N -0.09021 0.99075 0.52589
 N761 N -0.07022 0.99731 0.51940
 C762 C -0.05240 0.98591 0.52736
 N763 N -0.05530 0.96812 0.54277
 N764 N -0.07528 0.96155 0.54924
 N765 N -0.16265 0.05250 0.98030
 C766 C -0.15058 0.05337 0.95818
 N767 N -0.15865 0.06404 0.93707
 N768 N -0.17825 0.07355 0.93812
 C769 C -0.19039 0.07280 0.96036
 N770 N -0.18217 0.06200 0.98135
 C771 C -0.12908 0.04407 0.95797
 C772 C -0.11095 0.03652 0.95958
 C773 C -0.08937 0.02805 0.96355
 N774 N -0.07177 0.03911 0.95461
 N775 N -0.05169 0.03281 0.96120
 C776 C -0.04853 0.01539 0.97714
 N777 N -0.06618 0.00405 0.98554
 N778 N -0.08626 0.01033 0.97894
 N779 N 0.33754 0.55171 0.47753
 C780 C 0.34975 0.55335 0.45559
 N781 N 0.34174 0.56461 0.43488
 N782 N 0.32208 0.57395 0.43616
 C783 C 0.30981 0.57245 0.45824
 N784 N 0.31795 0.56105 0.47881
 C785 C 0.37134 0.54427 0.45526
 C786 C 0.38952 0.53685 0.45689
 C787 C 0.41111 0.52847 0.46103
 N788 N 0.42874 0.53991 0.45292
 N789 N 0.44877 0.53366 0.45981
 C790 C 0.45183 0.51592 0.47526
 N791 N 0.43416 0.50422 0.48284
 N792 N 0.41413 0.51045 0.47593
 N793 N 0.16104 0.56487 0.56477
 C794 C 0.15323 0.55327 0.54429
 N795 N 0.16550 0.55138 0.52243
 N796 N 0.18497 0.56081 0.52101
 C797 C 0.19293 0.57255 0.54134
 N798 N 0.18059 0.57430 0.56334
 C799 C 0.13173 0.54411 0.54476
 C800 C 0.11362 0.53664 0.54327
 C801 C 0.09208 0.52821 0.53933
 N802 N 0.08912 0.51020 0.52445
 N803 N 0.06911 0.50392 0.51778
 C804 C 0.05137 0.51554 0.52560
 N805 N 0.05438 0.53327 0.54101
 N806 N 0.07440 0.53957 0.54767
 N807 N 0.66541 0.05195 0.02348
 C808 C 0.65299 0.05387 0.04522
 N809 N 0.66056 0.06574 0.06561
 N810 N 0.68000 0.07540 0.06421
 C811 C 0.69249 0.07360 0.04233
 N812 N 0.68478 0.06160 0.02209
 C813 C 0.63160 0.04447 0.04563
 C814 C 0.61357 0.03680 0.04412
 C815 C 0.59211 0.02817 0.04020
 N816 N 0.57433 0.03937 0.04852
 N817 N 0.55437 0.03290 0.04185
 C818 C 0.55151 0.01514 0.02645
 N819 N 0.56935 0.00366 0.01867
 N820 N 0.58931 0.01012 0.02534
 N821 N 0.66320 0.94746 0.47910
 C822 C 0.65110 0.94641 0.45705
 N823 N 0.65915 0.93557 0.43605
 N824 N 0.67875 0.92607 0.43716
 C825 C 0.69091 0.92700 0.45933
 N826 N 0.68273 0.93797 0.48021
 C827 C 0.62959 0.95569 0.45681
 C828 C 0.61145 0.96322 0.45842
 C829 C 0.58986 0.97167 0.46240
 N830 N 0.57228 0.96059 0.45351
 N831 N 0.55219 0.96686 0.46013
 C832 C 0.54900 0.98428 0.47604
 N833 N 0.56664 0.99564 0.48439
 N834 N 0.58673 0.98938 0.47777
 N835 N 0.16215 0.44818 0.97890
 C836 C 0.15000 0.44656 0.95694
 N837 N 0.15799 0.43520 0.93632
 N838 N 0.17760 0.42574 0.93770
 C839 C 0.18982 0.42723 0.95979
 N840 N 0.18168 0.43873 0.98028
 C841 C 0.12845 0.45576 0.95649
 C842 C 0.11029 0.46325 0.95801
 C843 C 0.08870 0.47169 0.96199
 N844 N 0.07109 0.46038 0.95361
 N845 N 0.05103 0.46664 0.96037
 C846 C 0.04790 0.48428 0.97593
 N847 N 0.06556 0.49587 0.98377
 N848 N 0.08562 0.48962 0.97700
 N849 N -0.00933 0.33555 0.44319
 C850 C 0.00587 0.35154 0.44418
 N851 N 0.02485 0.34889 0.43099
 N852 N 0.02856 0.33087 0.41722
 C853 C 0.01340 0.31479 0.41600
 N854 N -0.00560 0.31746 0.42942
 C855 C 0.00155 0.37183 0.45722
 C856 C -0.00116 0.38967 0.46659
 C857 C -0.00326 0.41177 0.47550
 N858 N -0.00568 0.42791 0.45771
 N859 N -0.00536 0.44868 0.46508
 C860 C -0.00271 0.45413 0.49056
 N861 N -0.00041 0.43793 0.50847
 N862 N -0.00066 0.41707 0.50105
 N863 N 0.49212 -0.16508 -0.05622
 C864 C 0.50721 -0.14898 -0.05543
 N865 N 0.52608 -0.15148 -0.06890
 N866 N 0.52979 -0.16947 -0.08274
 C867 C 0.51474 -0.18566 -0.08375
 N868 N 0.49586 -0.18313 -0.07006
 C869 C 0.50284 -0.12874 -0.04229
 C870 C 0.50000 -0.11095 -0.03282
 C871 C 0.49766 -0.08890 -0.02381
 N872 N 0.49490 -0.07276 -0.04153
 N873 N 0.49499 -0.05200 -0.03409
 C874 C 0.49773 -0.04656 -0.00862
 N875 N 0.50037 -0.06277 0.00922
 N876 N 0.50035 -0.08362 0.00174
 N877 N -0.02217 -0.15105 1.06891
 C878 C -0.00281 -0.14873 1.05648
 N879 N 0.01218 -0.16501 1.05804
 N880 N 0.00785 -0.18306 1.07162
 C881 C -0.01154 -0.18540 1.08427
 N882 N -0.02646 -0.16903 1.08248
 C883 C 0.00205 -0.12849 1.04364
 C884 C 0.00504 -0.11064 1.03443
 C885 C 0.00730 -0.08851 1.02572
 N886 N 0.00440 -0.08295 1.00028
 N887 N 0.00402 -0.06202 0.99311
 C888 C 0.00647 -0.04600 1.01117
 N889 N 0.00944 -0.05171 1.03653
 N890 N 0.00989 -0.07255 1.04366
 N891 N 0.47668 0.35011 0.56983
 C892 C 0.49570 0.35210 0.55656
 N893 N 0.51042 0.33555 0.55744
 N894 N 0.50617 0.31756 0.57116
 C895 C 0.48713 0.31554 0.58463
 N896 N 0.47247 0.33218 0.58354
 C897 C 0.50057 0.37224 0.54351
 C898 C 0.50372 0.38999 0.53412
 C899 C 0.50631 0.41204 0.52521
 N900 N 0.50342 0.41751 0.49974
 N901 N 0.50339 0.43840 0.49241
 C902 C 0.50622 0.45447 0.51033
 N903 N 0.50917 0.44884 0.53572
 N904 N 0.50927 0.42803 0.54301
 N905 N 0.52258 1.15012 0.56921
 C906 C 0.50339 1.14794 0.55642
 N907 N 0.48849 1.16432 0.55770
 N908 N 0.49274 1.18232 0.57137
 C909 C 0.51197 1.18451 0.58438
 N910 N 0.52680 1.16805 0.58287
 C911 C 0.49858 1.12777 0.54344
 C912 C 0.49559 1.10998 0.53411
 C913 C 0.49327 1.08791 0.52524
 N914 N 0.49050 1.07186 0.54306
 N915 N 0.49088 1.05106 0.53580
 C916 C 0.49395 1.04548 0.51042
 N917 N 0.49658 1.06160 0.49248
 N918 N 0.49627 1.08249 0.49978
 N919 N 0.02276 0.64882 1.07291
 C920 C 0.00440 0.64743 1.05832
 N921 N -0.00958 0.66461 1.05774
 N922 N -0.00525 0.68262 1.07134
 C923 C 0.01315 0.68410 1.08615
 N924 N 0.02706 0.66678 1.08649
 C925 C -0.00054 0.62740 1.04512
 C926 C -0.00380 0.60975 1.03554
 C927 C -0.00655 0.58782 1.02634
 N928 N -0.01019 0.57172 1.04387
 N929 N -0.01021 0.55098 1.03637
 C930 C -0.00673 0.54550 1.01103
 N931 N -0.00323 0.56168 0.99338
 N932 N -0.00314 0.58251 1.00092
 N933 N 0.47455 0.65085 -0.07116
 C934 C 0.49263 0.64904 -0.05614
 N935 N 0.50699 0.66579 -0.05548
 N936 N 0.50331 0.68380 -0.06944
 C937 C 0.48521 0.68569 -0.08472
 N938 N 0.47090 0.66880 -0.08511
 C939 C 0.49696 0.62891 -0.04272
 C940 C 0.49972 0.61117 -0.03308
 C941 C 0.50192 0.58913 -0.02393
 N942 N 0.50466 0.57294 -0.04156
 N943 N 0.50442 0.55220 -0.03402
 C944 C 0.50153 0.54682 -0.00854
 N945 N 0.49891 0.56309 0.00920
 N946 N 0.49909 0.58392 0.00162
 N947 N -0.02629 1.15117 0.42861
 C948 C -0.00819 1.14944 0.44363
 N949 N 0.00611 1.16625 0.44424
 N950 N 0.00234 1.18423 0.43025
 C951 C -0.01577 1.18603 0.41499
 N952 N -0.03002 1.16909 0.41464
 C953 C -0.00377 1.12936 0.45713
 C954 C -0.00089 1.11168 0.46689
 C955 C 0.00152 1.08971 0.47623
 N956 N 0.00469 1.07346 0.45877
 N957 N 0.00463 1.05276 0.46646
 C958 C 0.00151 1.04748 0.49192
 N959 N -0.00154 1.06380 0.50950
 N960 N -0.00155 1.08459 0.50177
 N961 N 0.76247 0.64369 0.90648
 C962 C 0.78142 0.64588 0.89311
 N963 N 0.79892 0.63372 0.90020
 N964 N 0.79753 0.61990 0.92021
 C965 C 0.77860 0.61768 0.93388
 N966 N 0.76109 0.62989 0.92648
 C967 C 0.78270 0.66088 0.87169
 C968 C 0.78263 0.67360 0.85376
 C969 C 0.78078 0.68872 0.83252
 N970 N 0.77544 0.68142 0.80842
 N971 N 0.77021 0.69544 0.78957
 C972 C 0.77016 0.71724 0.79409
 N973 N 0.77594 0.72451 0.81814
 N974 N 0.78115 0.71048 0.83704
 N975 N 0.26320 0.14570 0.40720
 C976 C 0.28210 0.14808 0.39379
 N977 N 0.29967 0.13592 0.40067
 N978 N 0.29838 0.12193 0.42053
 C979 C 0.27949 0.11952 0.43423
 N980 N 0.26192 0.13172 0.42703
 C981 C 0.28325 0.16325 0.37254
 C982 C 0.28305 0.17611 0.35476
 C983 C 0.28101 0.19137 0.33369
 N984 N 0.27693 0.18413 0.30922
 N985 N 0.27148 0.19809 0.29039
 C986 C 0.26995 0.21978 0.29532
 N987 N 0.27450 0.22702 0.31976
 N988 N 0.27993 0.21305 0.33863
 N989 N 0.69995 0.36478 0.40015
 C990 C 0.71769 0.35300 0.39290
 N991 N 0.73663 0.35553 0.40616
 N992 N 0.73780 0.36930 0.42618
 C993 C 0.72008 0.38111 0.43366
 N994 N 0.70113 0.37856 0.42019
 C995 C 0.71664 0.33807 0.37144
 C996 C 0.71692 0.32541 0.35347
 C997 C 0.71902 0.31040 0.33218
 N998 N 0.71837 0.28861 0.33654
 N999 N 0.72375 0.27466 0.31766
 C1000 C 0.72998 0.28202 0.29379
 N1001 N 0.73023 0.30384 0.28943
 N1002 N 0.72483 0.31779 0.30825
 N1003 N 0.23630 0.85364 0.90565
 C1004 C 0.21735 0.85141 0.89235
 N1005 N 0.19984 0.86358 0.89943
 N1006 N 0.20125 0.87745 0.91936
 C1007 C 0.22020 0.87971 0.93295
 N1008 N 0.23770 0.86749 0.92557
 C1009 C 0.21611 0.83640 0.87098
 C1010 C 0.21629 0.82366 0.85310
 C1011 C 0.21837 0.80854 0.83193
 N1012 N 0.22319 0.81590 0.80768
 N1013 N 0.22873 0.80199 0.78887
 C1014 C 0.22964 0.78023 0.79358
 N1015 N 0.22437 0.77288 0.81778
 N1016 N 0.21884 0.78679 0.83664
 N1017 N 0.26653 0.85200 0.09244
 C1018 C 0.28544 0.84923 0.10574
 N1019 N 0.30310 0.86117 0.09891
 N1020 N 0.30188 0.87533 0.07922
 C1021 C 0.28298 0.87813 0.06564
 N1022 N 0.26533 0.86615 0.07278
 C1023 C 0.28649 0.83386 0.12679
 C1024 C 0.28616 0.82081 0.14437
 C1025 C 0.28392 0.80532 0.16514
 N1026 N 0.28071 0.81232 0.18993
 N1027 N 0.27501 0.79831 0.20857
 C1028 C 0.27232 0.77684 0.20314
 N1029 N 0.27601 0.76983 0.17838
 N1030 N 0.28170 0.78383 0.15970
 N1031 N 0.76625 0.35394 0.59580
 C1032 C 0.78552 0.35021 0.60798
 N1033 N 0.80336 0.36162 0.60052
 N1034 N 0.80194 0.37622 0.58131
 C1035 C 0.78267 0.37994 0.56887
 N1036 N 0.76484 0.36851 0.57660
 C1037 C 0.78688 0.33384 0.62790
 C1038 C 0.78661 0.31967 0.64418
 C1039 C 0.78419 0.30251 0.66294
 N1040 N 0.77491 0.28349 0.65554
 N1041 N 0.76916 0.26875 0.67330
 C1042 C 0.77248 0.27248 0.69910
 N1043 N 0.78236 0.29130 0.70641
 N1044 N 0.78807 0.30611 0.68863
 N1045 N 0.23411 0.14669 0.59543
 C1046 C 0.21508 0.14998 0.60833
 N1047 N 0.19723 0.13843 0.60127
 N1048 N 0.19840 0.12412 0.58175
 C1049 C 0.21744 0.12082 0.56863
 N1050 N 0.23527 0.13240 0.57594
 C1051 C 0.21400 0.16577 0.62891
 C1052 C 0.21436 0.17930 0.64593
 C1053 C 0.21667 0.19552 0.66583
 N1054 N 0.22274 0.21602 0.65924
 N1055 N 0.22848 0.23023 0.67759
 C1056 C 0.22838 0.22446 0.70318
 N1057 N 0.22177 0.20408 0.70974
 N1058 N 0.21604 0.18983 0.69139
 N1059 N 0.73341 0.64588 0.09507
 C1060 C 0.71424 0.64996 0.10736
 N1061 N 0.69616 0.63892 0.09999
 N1062 N 0.69725 0.62432 0.08077
 C1063 C 0.71642 0.62025 0.06823
 N1064 N 0.73448 0.63131 0.07587
 C1065 C 0.71325 0.66634 0.12727
 C1066 C 0.71382 0.68050 0.14353
 C1067 C 0.71658 0.69762 0.16224
 N1068 N 0.72654 0.71631 0.15487
 N1069 N 0.73244 0.73097 0.17261
 C1070 C 0.72859 0.72748 0.19837
 N1071 N 0.71807 0.70899 0.20565
 N1072 N 0.71221 0.69426 0.18788
 N1073 N 0.18765 0.58911 0.18398
 C1074 C 0.19934 0.59699 0.20435
 N1075 N 0.20136 0.58479 0.22624
 N1076 N 0.19198 0.56531 0.22780
 C1077 C 0.18015 0.55729 0.20757
 N1078 N 0.17827 0.56956 0.18554
 C1079 C 0.20843 0.61850 0.20375
 C1080 C 0.21584 0.63663 0.20510
 C1081 C 0.22418 0.65821 0.20882
 N1082 N 0.24227 0.66134 0.22354
 N1083 N 0.24849 0.68141 0.23000
 C1084 C 0.23674 0.69902 0.22210
 N1085 N 0.21892 0.69583 0.20686
 N1086 N 0.21268 0.67577 0.20042
 N1087 N 0.70522 0.07880 0.72629
 C1088 C 0.70327 0.09137 0.70469
 N1089 N 0.69087 0.08424 0.68452
 N1090 N 0.68072 0.06508 0.68597
 C1091 C 0.68250 0.05247 0.70772
 N1092 N 0.69507 0.05970 0.72774
 C1093 C 0.71273 0.11271 0.70441
 C1094 C 0.72010 0.13085 0.70577
 C1095 C 0.72791 0.15266 0.70910
 N1096 N 0.74550 0.15664 0.72441
 N1097 N 0.75110 0.17703 0.73023
 C1098 C 0.73920 0.19412 0.72109
 N1099 N 0.72185 0.19005 0.70539
 N1100 N 0.71625 0.16969 0.69956
 N1101 N 0.81266 0.09281 0.31671
 C1102 C 0.80278 0.10173 0.29553
 N1103 N 0.80245 0.09044 0.27287
 N1104 N 0.81169 0.07085 0.27133
 C1105 C 0.82171 0.06172 0.29237
 N1106 N 0.82191 0.07313 0.31516
 C1107 C 0.79363 0.12326 0.29627
 C1108 C 0.78614 0.14140 0.29482
 C1109 C 0.77766 0.16294 0.29073
 N1110 N 0.75963 0.16591 0.27583
 N1111 N 0.75337 0.18588 0.26883
 C1112 C 0.76505 0.20357 0.27632
 N1113 N 0.78280 0.20056 0.29179
 N1114 N 0.78907 0.18058 0.29877
 N1115 N 0.30278 0.58871 0.77092
 C1116 C 0.30303 0.60003 0.79356
 N1117 N 0.31275 0.59111 0.81483
 N1118 N 0.32194 0.57139 0.81340
 C1119 C 0.32182 0.55994 0.79064
 N1120 N 0.31195 0.56907 0.76950
 C1121 C 0.29391 0.62159 0.79424
 C1122 C 0.28645 0.63975 0.79288
 C1123 C 0.27800 0.66134 0.78904
 N1124 N 0.25988 0.66445 0.77431
 N1125 N 0.25358 0.68449 0.76765
 C1126 C 0.26527 0.70211 0.77533
 N1127 N 0.28311 0.69896 0.79060
 N1128 N 0.28944 0.67891 0.79725
 N1129 N 0.31299 0.41167 0.68511
 C1130 C 0.30109 0.40407 0.70551
 N1131 N 0.29892 0.41656 0.72713
 N1132 N 0.30836 0.43602 0.72840
 C1133 C 0.32040 0.44375 0.70815
 N1134 N 0.32244 0.43120 0.68639
 C1135 C 0.29199 0.38257 0.70524
 C1136 C 0.28461 0.36444 0.70679
 C1137 C 0.27634 0.34284 0.71061
 N1138 N 0.28767 0.32534 0.70174
 N1139 N 0.28148 0.30523 0.70808
 C1140 C 0.26388 0.30193 0.72370
 N1141 N 0.25230 0.31949 0.73209
 N1142 N 0.25848 0.33960 0.72573
 N1143 N 0.79783 0.92002 0.22867
 C1144 C 0.79809 0.90852 0.20615
 N1145 N 0.80873 0.91675 0.18513
 N1146 N 0.81881 0.93595 0.18668
 C1147 C 0.81874 0.94753 0.20933
 N1148 N 0.80790 0.93914 0.23021
 C1149 C 0.78856 0.88722 0.20550
 C1150 C 0.78114 0.86909 0.20656
 C1151 C 0.77326 0.84726 0.20958
 N1152 N 0.78486 0.83031 0.19978
 N1153 N 0.77922 0.80990 0.20535
 C1154 C 0.76188 0.80570 0.22105
 N1155 N 0.75002 0.82272 0.23044
 N1156 N 0.75567 0.84316 0.22488
 N1157 N 0.68641 0.90579 0.81622
 C1158 C 0.69820 0.89779 0.79592
 N1159 N 0.70036 0.90997 0.77404
 N1160 N 0.69103 0.92952 0.77242
 C1161 C 0.67910 0.93766 0.79256
 N1162 N 0.67707 0.92543 0.81459
 C1163 C 0.70722 0.87621 0.79651
 C1164 C 0.71462 0.85804 0.79495
 C1165 C 0.72298 0.83646 0.79079
 N1166 N 0.74097 0.83344 0.77580
 N1167 N 0.74714 0.81344 0.76880
 C1168 C 0.73541 0.79580 0.77638
 N1169 N 0.71770 0.79886 0.79192
 N1170 N 0.71151 0.81886 0.79890
 N1171 N 0.18670 0.40870 0.31515
 C1172 C 0.19795 0.40046 0.29456
 N1173 N 0.19986 0.41255 0.27257
 N1174 N 0.19080 0.43224 0.27112
 C1175 C 0.17942 0.44062 0.29157
 N1176 N 0.17763 0.42847 0.31370
 C1177 C 0.20677 0.37878 0.29510
 C1178 C 0.21401 0.36054 0.29368
 C1179 C 0.22223 0.33886 0.28985
 N1180 N 0.24038 0.33558 0.27522
 N1181 N 0.24655 0.31547 0.26867
 C1182 C 0.23467 0.29796 0.27637
 N1183 N 0.21678 0.30129 0.29153
 N1184 N 0.21060 0.32140 0.29806
 N1185 N 0.09853 0.27511 0.81981
 C1186 C 0.10070 0.25638 0.80608
 N1187 N 0.08443 0.24146 0.80695
 N1188 N 0.06654 0.24524 0.82114
 C1189 C 0.06435 0.26399 0.83510
 N1190 N 0.08070 0.27886 0.83399
 C1191 C 0.12078 0.25195 0.79254
 C1192 C 0.13846 0.24906 0.78275
 C1193 C 0.16043 0.24668 0.77335
 N1194 N 0.17670 0.24325 0.79073
 N1195 N 0.19743 0.24344 0.78304
 C1196 C 0.20271 0.24695 0.75764
 N1197 N 0.18637 0.25025 0.74014
 N1198 N 0.16555 0.25013 0.74787
 N1199 N 0.58573 0.74142 0.30614
 C1200 C 0.60231 0.75600 0.30579
 N1201 N 0.60047 0.77451 0.32002
 N1202 N 0.58264 0.77837 0.33417
 C1203 C 0.56596 0.76384 0.33472
 N1204 N 0.56785 0.74531 0.32030
 C1205 C 0.62223 0.75156 0.29193
 C1206 C 0.63974 0.74871 0.28166
 C1207 C 0.66145 0.74647 0.27140
 N1208 N 0.67813 0.74217 0.28795
 N1209 N 0.69867 0.74279 0.27960
 C1210 C 0.70335 0.74760 0.25434
 N1211 N 0.68659 0.75172 0.23766
 N1212 N 0.66597 0.75117 0.24606
 N1213 N 0.58490 0.26042 0.19252
 C1214 C 0.60163 0.24591 0.19317
 N1215 N 0.59989 0.22707 0.17957
 N1216 N 0.58201 0.22283 0.16576
 C1217 C 0.56519 0.23730 0.16490
 N1218 N 0.56697 0.25616 0.17870
 C1219 C 0.62167 0.25084 0.20643
 C1220 C 0.63931 0.25416 0.21607
 C1221 C 0.66122 0.25708 0.22537
 N1222 N 0.66651 0.25358 0.25077
 N1223 N 0.68734 0.25387 0.25839
 C1224 C 0.70354 0.25767 0.24083
 N1225 N 0.69807 0.26124 0.21550
 N1226 N 0.67733 0.26102 0.20793
 N1227 N 0.08489 0.76040 0.69234
 C1228 C 0.10148 0.74572 0.69304
 N1229 N 0.09954 0.72686 0.67954
 N1230 N 0.08161 0.72277 0.66575
 C1231 C 0.06494 0.73740 0.66483
 N1232 N 0.06691 0.75628 0.67855
 C1233 C 0.12159 0.75047 0.70623
 C1234 C 0.13930 0.75359 0.71576
 C1235 C 0.16130 0.75619 0.72489
 N1236 N 0.16658 0.75319 0.75039
 N1237 N 0.18743 0.75325 0.75793
 C1238 C 0.20366 0.75629 0.74019
 N1239 N 0.19821 0.75936 0.71477
 N1240 N 0.17744 0.75937 0.70727
 N1241 N 0.89958 0.77219 0.67814
 C1242 C 0.89841 0.75381 0.69273
 N1243 N 0.91569 0.73994 0.69304
 N1244 N 0.93358 0.74439 0.67919
 C1245 C 0.93483 0.76279 0.66436
 N1246 N 0.91741 0.77660 0.66430
 C1247 C 0.87848 0.74868 0.70616
 C1248 C 0.86091 0.74521 0.71593
 C1249 C 0.83905 0.74216 0.72536
 N1250 N 0.82294 0.73802 0.70803
 N1251 N 0.80220 0.73775 0.71568
 C1252 C 0.79675 0.74147 0.74099
 N1253 N 0.81295 0.74547 0.75844
 N1254 N 0.83377 0.74581 0.75074
 N1255 N 0.41470 0.23964 0.19304
 C1256 C 0.39812 0.25432 0.19400
 N1257 N 0.39998 0.27325 0.18058
 N1258 N 0.41782 0.27742 0.16664
 C1259 C 0.43448 0.26280 0.16546
 N1260 N 0.43259 0.24384 0.17908
 C1261 C 0.37807 0.24947 0.20734
 C1262 C 0.36041 0.24628 0.21700
 C1263 C 0.33845 0.24358 0.22626
 N1264 N 0.33317 0.24689 0.25171
 N1265 N 0.31233 0.24679 0.25932
 C1266 C 0.29611 0.24340 0.24171
 N1267 N 0.30156 0.24003 0.21634
 N1268 N 0.32231 0.24005 0.20877
 N1269 N 0.41624 0.75869 0.30611
 C1270 C 0.39993 0.74381 0.30529
 N1271 N 0.40208 0.72505 0.31901
 N1272 N 0.41991 0.72124 0.33313
 C1273 C 0.43630 0.73607 0.33418
 N1274 N 0.43413 0.75485 0.32024
 C1275 C 0.37985 0.74830 0.29183
 C1276 C 0.36214 0.75121 0.28211
 C1277 C 0.34016 0.75359 0.27281
 N1278 N 0.33507 0.75067 0.24725
 N1279 N 0.31426 0.75058 0.23953
 C1280 C 0.29789 0.75340 0.25715
 N1281 N 0.30314 0.75639 0.28264
 N1282 N 0.32386 0.75654 0.29031
 N1283 N 0.91516 0.25821 0.80694
 C1284 C 0.89862 0.24358 0.80655
 N1285 N 0.90047 0.22506 0.82081
 N1286 N 0.91825 0.22125 0.83502
 C1287 C 0.93488 0.23582 0.83561
 N1288 N 0.93300 0.25436 0.82116
 C1289 C 0.87873 0.24799 0.79264
 C1290 C 0.86124 0.25082 0.78234
 C1291 C 0.83954 0.25304 0.77207
 N1292 N 0.83508 0.24854 0.74668
 N1293 N 0.81448 0.24801 0.73826
 C1294 C 0.79768 0.25197 0.75495
 N1295 N 0.80230 0.25658 0.78027
 N1296 N 0.82282 0.25717 0.78865
 N1297 N 0.62121 0.99765 0.62837
 C1298 C 0.60911 0.97941 0.63175
 N1299 N 0.61020 0.96866 0.65482
 N1300 N 0.62295 0.97600 0.67393
 C1301 C 0.63498 0.99445 0.67083
 N1302 N 0.63393 1.00499 0.64749
 C1303 C 0.59376 0.97298 0.61207
 C1304 C 0.58035 0.96915 0.59549
 C1305 C 0.56399 0.96701 0.57565
 N1306 N 0.56985 0.96667 0.55014
 N1307 N 0.55494 0.96964 0.53155
 C1308 C 0.53366 0.97311 0.53774
 N1309 N 0.52777 0.97267 0.56331
 N1310 N 0.54265 0.96969 0.58192
 N1311 N 0.12070 0.49942 1.12735
 C1312 C 0.10911 0.48088 1.13094
 N1313 N 0.11064 0.47023 1.15404
 N1314 N 0.12334 0.47795 1.17299
 C1315 C 0.13486 0.49666 1.16961
 N1316 N 0.13338 0.50715 1.14630
 C1317 C 0.09375 0.47403 1.11148
 C1318 C 0.08030 0.46989 1.09508
 C1319 C 0.06383 0.46743 1.07541
 N1320 N 0.06952 0.46720 1.04985
 N1321 N 0.05445 0.47001 1.03141
 C1322 C 0.03317 0.47319 1.03782
 N1323 N 0.02745 0.47263 1.06344
 N1324 N 0.04250 0.46981 1.08190
 N1325 N -0.12069 0.00146 1.12952
 C1326 C -0.10882 0.01986 1.13273
 N1327 N -0.11021 0.03081 1.15562
 N1328 N -0.12301 0.02350 1.17473
 C1329 C -0.13481 0.00488 1.17181
 N1330 N -0.13347 -0.00585 1.14864
 C1331 C -0.09342 0.02631 1.11308
 C1332 C -0.07996 0.03015 1.09654
 C1333 C -0.06353 0.03233 1.07674
 N1334 N -0.04223 0.02947 1.08302
 N1335 N -0.02731 0.02654 1.06441
 C1336 C -0.03315 0.02635 1.03883
 N1337 N -0.05439 0.03000 1.03263
 N1338 N -0.06932 0.03292 1.05122
 N1339 N 0.38924 0.53003 0.65408
 C1340 C 0.39101 0.51901 0.63127
 N1341 N 0.37977 0.50021 0.62819
 N1342 N 0.36722 0.49258 0.64735
 C1343 C 0.36551 0.50338 0.67043
 N1344 N 0.37667 0.52240 0.67323
 C1345 C 0.40621 0.52583 0.61159
 C1346 C 0.41954 0.52996 0.59499
 C1347 C 0.43584 0.53243 0.57510
 N1348 N 0.42998 0.53221 0.54960
 N1349 N 0.44498 0.52944 0.53105
 C1350 C 0.46635 0.52674 0.53728
 N1351 N 0.47223 0.52775 0.56281
 N1352 N 0.45724 0.53053 0.58138
 N1353 N 0.37782 0.50152 -0.12710
 C1354 C 0.38912 0.48268 -0.13028
 N1355 N 0.38785 0.47204 -0.15339
 N1356 N 0.37569 0.48007 -0.17272
 C1357 C 0.36446 0.49908 -0.16974
 N1358 N 0.36568 0.50956 -0.14643
 C1359 C 0.40395 0.47547 -0.11036
 C1360 C 0.41698 0.47107 -0.09353
 C1361 C 0.43297 0.46836 -0.07332
 N1362 N 0.42672 0.46881 -0.04795
 N1363 N 0.44144 0.47159 -0.02914
 C1364 C 0.46290 0.47405 -0.03495
 N1365 N 0.46917 0.47278 -0.06035
 N1366 N 0.45447 0.47000 -0.07919
 N1367 N -0.12205 1.00283 0.37404
 C1368 C -0.11089 0.98391 0.37070
 N1369 N -0.11228 0.97339 0.34753
 N1370 N -0.12443 0.98159 0.32830
 C1371 C -0.13552 1.00066 0.33143
 N1372 N -0.13418 1.01103 0.35480
 C1373 C -0.09606 0.97651 0.39053
 C1374 C -0.08302 0.97195 0.40729
 C1375 C -0.06700 0.96909 0.42743
 N1376 N -0.07320 0.96940 0.45282
 N1377 N -0.05845 0.97210 0.47162
 C1378 C -0.03700 0.97463 0.46576
 N1379 N -0.03078 0.97346 0.44033
 N1380 N -0.04551 0.97076 0.42151
 N1381 N 0.11190 0.52928 0.34615
 C1382 C 0.11057 0.51873 0.36934
 N1383 N 0.12204 0.50001 0.37278
 N1384 N 0.13438 0.49201 0.35361
 C1385 C 0.13566 0.50239 0.33022
 N1386 N 0.12427 0.52128 0.32699
 C1387 C 0.09553 0.52587 0.38908
 C1388 C 0.08234 0.53019 0.40578
 C1389 C 0.06618 0.53278 0.42583
 N1390 N 0.07225 0.53253 0.45126
 N1391 N 0.05744 0.52966 0.46998
 C1392 C 0.03604 0.52691 0.46400
 N1393 N 0.02995 0.52799 0.43854
 N1394 N 0.04474 0.53085 0.41980
 N1395 N 0.62148 -0.00235 -0.12688
 C1396 C 0.61013 0.01642 -0.13050
 N1397 N 0.61139 0.02670 -0.15386
 N1398 N 0.62360 0.01842 -0.17300
 C1399 C 0.63488 -0.00051 -0.16957
 N1400 N 0.63366 -0.01064 -0.14603
 C1401 C 0.59530 0.02391 -0.11072
 C1402 C 0.58228 0.02855 -0.09396
 C1403 C 0.56630 0.03152 -0.07377
 N1404 N 0.54479 0.03004 -0.07961
 N1405 N 0.53006 0.02742 -0.06074
 C1406 C 0.53630 0.02617 -0.03534
 N1407 N 0.55778 0.02850 -0.02955
 N1408 N 0.57252 0.03111 -0.04840
 N1409 N 0.64295 0.56140 0.01430
 C1410 C 0.64266 0.54889 -0.00743
 N1411 N 0.66121 0.54661 -0.02164
 N1412 N 0.67948 0.55664 -0.01426
 C1413 C 0.67986 0.56930 0.00758
 N1414 N 0.66115 0.57139 0.02165
 C1415 C 0.62275 0.53836 -0.01482
 C1416 C 0.60517 0.53034 -0.01894
 C1417 C 0.58347 0.52189 -0.02113
 N1418 N 0.57897 0.50144 -0.01272
 N1419 N 0.55837 0.49503 -0.00972
 C1420 C 0.54156 0.50887 -0.01488
 N1421 N 0.54617 0.52914 -0.02390
 N1422 N 0.56675 0.53555 -0.02694
 N1423 N 0.14356 1.06081 0.51498
 C1424 C 0.14296 1.04900 0.49270
 N1425 N 0.16124 1.04738 0.47786
 N1426 N 0.17955 1.05738 0.48517
 C1427 C 0.18019 1.06932 0.50754
 N1428 N 0.16181 1.07077 0.52225
 C1429 C 0.12297 1.03861 0.48533
 C1430 C 0.10533 1.03071 0.48126
 C1431 C 0.08357 1.02239 0.47917
 N1432 N 0.07901 1.00189 0.48736
 N1433 N 0.05840 0.99555 0.49046
 C1434 C 0.04163 1.00952 0.48562
 N1435 N 0.04629 1.02985 0.47682
 N1436 N 0.06688 1.03619 0.47369
 N1437 N 0.16547 -0.04708 1.02405
 C1438 C 0.14722 -0.04786 1.00913
 N1439 N 0.14764 -0.05917 0.98647
 N1440 N 0.16569 -0.06947 0.97891
 C1441 C 0.18406 -0.06887 0.99371
 N1442 N 0.18360 -0.05741 1.01645
 C1443 C 0.12736 -0.03726 1.01692
 C1444 C 0.10978 -0.02923 1.02134
 C1445 C 0.08803 -0.02081 1.02386
 N1446 N 0.07145 -0.03456 1.02962
 N1447 N 0.05080 -0.02818 1.02679
 C1448 C 0.04596 -0.00786 1.01802
 N1449 N 0.06262 0.00608 1.01293
 N1450 N 0.08329 -0.00031 1.01572
 N1451 N 0.66545 0.45419 0.52522
 C1452 C 0.64694 0.45244 0.51090
 N1453 N 0.64717 0.44025 0.48890
 N1454 N 0.66529 0.43006 0.48140
 C1455 C 0.68397 0.43160 0.49557
 N1456 N 0.68364 0.44394 0.51767
 C1457 C 0.62707 0.46312 0.51846
 C1458 C 0.60947 0.47120 0.52262
 C1459 C 0.58769 0.47962 0.52474
 N1460 N 0.57103 0.46584 0.53003
 N1461 N 0.55043 0.47222 0.52676
 C1462 C 0.54572 0.49257 0.51800
 N1463 N 0.56245 0.50653 0.51337
 N1464 N 0.58308 0.50015 0.51661
 N1465 N -0.16219 0.45390 0.47755
 C1466 C -0.14381 0.45237 0.49217
 N1467 N -0.14419 0.44056 0.51449
 N1468 N -0.16233 0.43051 0.52200
 C1469 C -0.18082 0.43187 0.50751
 N1470 N -0.18040 0.44381 0.48511
 C1471 C -0.12392 0.46284 0.48453
 C1472 C -0.10633 0.47079 0.48024
 C1473 C -0.08461 0.47915 0.47790
 N1474 N -0.06791 0.46535 0.47245
 N1475 N -0.04732 0.47173 0.47544
 C1476 C -0.04267 0.49209 0.48405
 N1477 N -0.05945 0.50607 0.48885
 N1478 N -0.08006 0.49969 0.48589
 N1479 N 0.33838 -0.04756 -0.02336
 C1480 C 0.35672 -0.04922 -0.00867
 N1481 N 0.35631 -0.06135 0.01340
 N1482 N 0.33819 -0.07159 0.02060
 C1483 C 0.31973 -0.07011 0.00604
 N1484 N 0.32019 -0.05784 -0.01611
 C1485 C 0.37658 -0.03853 -0.01596
 C1486 C 0.39414 -0.03041 -0.01997
 C1487 C 0.41582 -0.02186 -0.02200
 N1488 N 0.43263 -0.03546 -0.02767
 N1489 N 0.45317 -0.02898 -0.02447
 C1490 C 0.45765 -0.00871 -0.01541
 N1491 N 0.44075 0.00507 -0.01039
 N1492 N 0.42020 -0.00141 -0.01356
 N1493 N 0.33491 1.04609 0.52450
 C1494 C 0.35308 1.04697 0.50939
 N1495 N 0.35248 1.05834 0.48676
 N1496 N 0.33435 1.06861 0.47941
 C1497 C 0.31608 1.06792 0.49440
 N1498 N 0.31671 1.05639 0.51711
 C1499 C 0.37301 1.03641 0.51695
 C1500 C 0.39064 1.02841 0.52118
 C1501 C 0.41243 1.02004 0.52345
 N1502 N 0.42899 1.03379 0.52924
 N1503 N 0.44964 1.02747 0.52623
 C1504 C 0.45450 1.00723 0.51726
 N1505 N 0.43786 0.99330 0.51212
 N1506 N 0.41718 0.99961 0.51509
 N1507 N -0.16606 0.54547 1.02553
 C1508 C -0.14797 0.54597 1.01026
 N1509 N -0.14867 0.55683 0.98727
 N1510 N -0.16680 0.56698 0.97974
 C1511 C -0.18500 0.56668 0.99489
 N1512 N -0.18427 0.55565 1.01795
 C1513 C -0.12798 0.53563 1.01803
 C1514 C -0.11027 0.52784 1.02236
 C1515 C -0.08839 0.51975 1.02468
 N1516 N -0.07192 0.53385 1.02955
 N1517 N -0.05124 0.52767 1.02645
 C1518 C -0.04624 0.50722 1.01830
 N1519 N -0.06278 0.49296 1.01408
 N1520 N -0.08350 0.49913 1.01713
 N1521 N 0.04255 0.65837 0.58459
 C1522 C 0.02480 0.65393 0.56979
 N1523 N 0.00762 0.66790 0.57023
 N1524 N 0.00819 0.68579 0.58495
 C1525 C 0.02591 0.69031 0.59994
 N1526 N 0.04312 0.67626 0.59931
 C1527 C 0.02333 0.63370 0.55582
 C1528 C 0.02134 0.61622 0.54534
 C1529 C 0.01780 0.59486 0.53475
 N1530 N 0.03164 0.58594 0.51696
 N1531 N 0.02868 0.56554 0.50862
 C1532 C 0.01183 0.55344 0.51790
 N1533 N -0.00201 0.56256 0.53550
 N1534 N 0.00091 0.58288 0.54376
 N1535 N 0.54283 0.15781 0.08511
 C1536 C 0.52512 0.15339 0.07022
 N1537 N 0.50800 0.16743 0.07048
 N1538 N 0.50859 0.18537 0.08511
 C1539 C 0.52626 0.18987 0.10018
 N1540 N 0.54341 0.17575 0.09974
 C1541 C 0.52363 0.13312 0.05631
 C1542 C 0.52160 0.11563 0.04586
 C1543 C 0.51802 0.09427 0.03528
 N1544 N 0.53181 0.08534 0.01744
 N1545 N 0.52881 0.06495 0.00911
 C1546 C 0.51197 0.05285 0.01844
 N1547 N 0.49818 0.06200 0.03609
 N1548 N 0.50113 0.08230 0.04434
 N1549 N -0.00765 0.16793 0.93239
 C1550 C -0.02446 0.15363 0.93258
 N1551 N -0.04209 0.15764 0.91734
 N1552 N -0.04290 0.17544 0.90242
 C1553 C -0.02606 0.18981 0.90204
 N1554 N -0.00847 0.18572 0.91747
 C1555 C -0.02264 0.13349 0.94675
 C1556 C -0.02029 0.11609 0.95741
 C1557 C -0.01630 0.09484 0.96822
 N1558 N 0.00126 0.08334 0.95993
 N1559 N 0.00458 0.06306 0.96822
 C1560 C -0.00951 0.05348 0.98512
 N1561 N -0.02701 0.06512 0.99371
 N1562 N -0.03038 0.08548 0.98535
 N1563 N 0.45881 0.65822 0.41640
 C1564 C 0.47636 0.65421 0.43177
 N1565 N 0.49321 0.66846 0.43161
 N1566 N 0.49252 0.68620 0.41659
 C1567 C 0.47501 0.69027 0.40102
 N1568 N 0.45812 0.67596 0.40138
 C1569 C 0.47807 0.63409 0.44599
 C1570 C 0.48031 0.61669 0.45664
 C1571 C 0.48419 0.59541 0.46738
 N1572 N 0.47008 0.58611 0.48452
 N1573 N 0.47333 0.56571 0.49282
 C1574 C 0.49074 0.55398 0.48415
 N1575 N 0.50486 0.56351 0.46723
 N1576 N 0.50165 0.58382 0.45902
 N1577 N 0.50837 0.83178 0.43131
 C1578 C 0.52519 0.84607 0.43150
 N1579 N 0.54284 0.84206 0.41626
 N1580 N 0.54366 0.82428 0.40135
 C1581 C 0.52680 0.80993 0.40096
 N1582 N 0.50919 0.81401 0.41639
 C1583 C 0.52337 0.86619 0.44566
 C1584 C 0.52100 0.88358 0.45630
 C1585 C 0.51697 0.90481 0.46708
 N1586 N 0.49948 0.91635 0.45866
 N1587 N 0.49611 0.93661 0.46696
 C1588 C 0.51008 0.94612 0.48402
 N1589 N 0.52751 0.93445 0.49274
 N1590 N 0.53092 0.91411 0.48435
 N1591 N 0.00706 0.33158 0.93221
 C1592 C 0.02385 0.34591 0.93228
 N1593 N 0.04143 0.34194 0.91692
 N1594 N 0.04222 0.32416 0.90202
 C1595 C 0.02540 0.30976 0.90176
 N1596 N 0.00786 0.31380 0.91731
 C1597 C 0.02204 0.36606 0.94640
 C1598 C 0.01972 0.38346 0.95699
 C1599 C 0.01577 0.40473 0.96770
 N1600 N 0.02976 0.41401 0.98495
 N1601 N 0.02644 0.43438 0.99327
 C1602 C 0.00906 0.44611 0.98450
 N1603 N -0.00494 0.43662 0.96747
 N1604 N -0.00166 0.41633 0.95923
 N1605 N 0.45650 0.34229 0.08551
 C1606 C 0.47416 0.34678 0.07053
 N1607 N 0.49130 0.33275 0.07066
 N1608 N 0.49078 0.31478 0.08526
 C1609 C 0.47316 0.31021 0.10042
 N1610 N 0.45598 0.32431 0.10010
 C1611 C 0.47558 0.36709 0.05669
 C1612 C 0.47755 0.38463 0.04630
 C1613 C 0.48105 0.40605 0.03582
 N1614 N 0.46735 0.41494 0.01785
 N1615 N 0.47031 0.43536 0.00955
 C1616 C 0.48701 0.44752 0.01904
 N1617 N 0.50071 0.43844 0.03682
 N1618 N 0.49779 0.41810 0.04505
 N1619 N -0.04356 0.84294 0.58634
 C1620 C -0.02582 0.84750 0.57153
 N1621 N -0.00868 0.83349 0.57170
 N1622 N -0.00927 0.81544 0.58617
 C1623 C -0.02698 0.81079 0.60116
 N1624 N -0.04415 0.82488 0.60081
 C1625 C -0.02436 0.86784 0.55773
 C1626 C -0.02236 0.88538 0.54734
 C1627 C -0.01884 0.90678 0.53679
 N1628 N -0.03243 0.91557 0.51865
 N1629 N -0.02945 0.93596 0.51025
 C1630 C -0.01282 0.94819 0.51981
 N1631 N 0.00078 0.93919 0.53777
 N1632 N -0.00216 0.91889 0.54610
 N1633 N 0.21999 0.35859 0.09703
 C1634 C 0.23090 0.35705 0.11994
 N1635 N 0.24964 0.36842 0.12305
 N1636 N 0.25731 0.38086 0.10381
 C1637 C 0.24661 0.38233 0.08063
 N1638 N 0.22766 0.37105 0.07780
 C1639 C 0.22405 0.34199 0.13975
 C1640 C 0.21993 0.32881 0.15650
 C1641 C 0.21751 0.31270 0.17660
 N1642 N 0.21951 0.29127 0.17061
 N1643 N 0.22240 0.27650 0.18938
 C1644 C 0.22343 0.28262 0.21483
 N1645 N 0.22063 0.30401 0.22077
 N1646 N 0.21774 0.31879 0.20202
 N1647 N 0.72150 0.85699 0.59638
 C1648 C 0.73218 0.85582 0.61949
 N1649 N 0.75067 0.86756 0.62277
 N1650 N 0.75831 0.88003 0.60354
 C1651 C 0.74778 0.88116 0.58024
 N1652 N 0.72913 0.86948 0.57716
 C1653 C 0.72537 0.84078 0.63935
 C1654 C 0.72125 0.82762 0.65613
 C1655 C 0.71877 0.81153 0.67626
 N1656 N 0.71943 0.81759 0.70167
 N1657 N 0.72218 0.80272 0.72035
 C1658 C 0.72439 0.78128 0.71435
 N1659 N 0.72295 0.77522 0.68891
 N1660 N 0.72019 0.79007 0.67020
 N1661 N 0.25083 0.63105 0.62245
 C1662 C 0.26936 0.64272 0.61905
 N1663 N 0.27998 0.64154 0.59590
 N1664 N 0.27226 0.62908 0.57673
 C1665 C 0.25357 0.61747 0.57993
 N1666 N 0.24310 0.61862 0.60328
 C1667 C 0.27620 0.65779 0.63882
 C1668 C 0.28029 0.67098 0.65552
 C1669 C 0.28265 0.68711 0.67558
 N1670 N 0.28227 0.68105 0.70101
 N1671 N 0.27929 0.69586 0.71968
 C1672 C 0.27654 0.71725 0.71365
 N1673 N 0.27773 0.72333 0.68818
 N1674 N 0.28071 0.70854 0.66949
 N1675 N 0.77889 0.14223 0.09639
 C1676 C 0.76789 0.14387 0.11925
 N1677 N 0.74903 0.13268 0.12230
 N1678 N 0.74133 0.12029 0.10307
 C1679 C 0.75214 0.11869 0.07994
 N1680 N 0.77120 0.12982 0.07717
 C1681 C 0.77483 0.15882 0.13910
 C1682 C 0.77905 0.17190 0.15590
 C1683 C 0.78161 0.18791 0.17607
 N1684 N 0.78034 0.20940 0.17007
 N1685 N 0.77761 0.22421 0.18880
 C1686 C 0.77602 0.21808 0.21422
 N1687 N 0.77809 0.19660 0.22018
 N1688 N 0.78082 0.18178 0.20147
 N1689 N 0.72202 0.13969 0.90225
 C1690 C 0.73265 0.14004 0.87905
 N1691 N 0.75125 0.12824 0.87629
 N1692 N 0.75905 0.11651 0.89611
 C1693 C 0.74858 0.11620 0.91950
 N1694 N 0.72981 0.12793 0.92207
 C1695 C 0.72575 0.15443 0.85852
 C1696 C 0.72165 0.16708 0.84117
 C1697 C 0.71930 0.18262 0.82039
 N1698 N 0.71982 0.17583 0.79523
 N1699 N 0.72285 0.19008 0.77595
 C1700 C 0.72553 0.21162 0.78109
 N1701 N 0.72421 0.21843 0.80627
 N1702 N 0.72116 0.20419 0.82557
 N1703 N 0.25108 0.62954 0.37604
 C1704 C 0.23245 0.64122 0.37926
 N1705 N 0.22188 0.64030 0.40246
 N1706 N 0.22975 0.62811 0.42186
 C1707 C 0.24855 0.61651 0.41884
 N1708 N 0.25896 0.61738 0.39544
 C1709 C 0.22546 0.65605 0.35923
 C1710 C 0.22127 0.66905 0.34229
 C1711 C 0.21884 0.68496 0.32194
 N1712 N 0.22051 0.70645 0.32768
 N1713 N 0.22351 0.72106 0.30877
 C1714 C 0.22499 0.71470 0.28343
 N1715 N 0.22252 0.69325 0.27774
 N1716 N 0.21951 0.67863 0.29662
 N1717 N 0.74938 0.87115 0.37571
 C1718 C 0.76802 0.85941 0.37856
 N1719 N 0.77863 0.85991 0.40174
 N1720 N 0.77080 0.87175 0.42146
 C1721 C 0.75200 0.88341 0.41881
 N1722 N 0.74155 0.88296 0.39544
 C1723 C 0.77498 0.84496 0.35814
 C1724 C 0.77914 0.83226 0.34087
 C1725 C 0.78157 0.81667 0.32019
 N1726 N 0.78154 0.82344 0.29500
 N1727 N 0.77858 0.80921 0.27570
 C1728 C 0.77549 0.78773 0.28085
 N1729 N 0.77634 0.78093 0.30608
 N1730 N 0.77932 0.79514 0.32539
 N1731 N 0.24862 0.36986 0.87789
 C1732 C 0.26727 0.35822 0.88115
 N1733 N 0.27778 0.35914 0.90438
 N1734 N 0.26982 0.37129 0.92375
 C1735 C 0.25102 0.38287 0.92069
 N1736 N 0.24067 0.38199 0.89727
 C1737 C 0.27439 0.34348 0.86112
 C1738 C 0.27871 0.33057 0.84414
 C1739 C 0.28132 0.31478 0.82370
 N1740 N 0.27935 0.29327 0.82922
 N1741 N 0.27650 0.27883 0.81013
 C1742 C 0.27548 0.28538 0.78482
 N1743 N 0.27827 0.30685 0.77936
 N1744 N 0.28112 0.32130 0.79843
 N1745 N 0.79660 0.40959 0.76886
 C1746 C 0.79846 0.39166 0.75353
 N1747 N 0.81121 0.39251 0.73198
 N1748 N 0.82185 0.41067 0.72590
 C1749 C 0.82016 0.42872 0.74110
 N1750 N 0.80728 0.42782 0.76273
 C1751 C 0.78732 0.37178 0.75960
 C1752 C 0.77885 0.35427 0.76266
 C1753 C 0.76992 0.33273 0.76374
 N1754 N 0.75219 0.32772 0.74916
 N1755 N 0.74620 0.30705 0.74605
 C1756 C 0.75780 0.29063 0.75729
 N1757 N 0.77523 0.29576 0.77239
 N1758 N 0.78124 0.31644 0.77549
 N1759 N 0.29819 0.91247 0.27176
 C1760 C 0.30029 0.89410 0.25725
 N1761 N 0.31294 0.89449 0.23561
 N1762 N 0.32324 0.91261 0.22863
 C1763 C 0.32134 0.93115 0.24299
 N1764 N 0.30853 0.93067 0.26474
 C1765 C 0.28947 0.87426 0.26426
 C1766 C 0.28125 0.85673 0.26804
 C1767 C 0.27263 0.83509 0.26985
 N1768 N 0.28598 0.81833 0.27648
 N1769 N 0.27959 0.79780 0.27320
 C1770 C 0.25966 0.79327 0.26308
 N1771 N 0.24610 0.81011 0.25708
 N1772 N 0.25250 0.83066 0.26033
 N1773 N 0.18991 0.89775 0.76322
 C1774 C 0.20125 0.89718 0.74055
 N1775 N 0.20202 0.91531 0.72541
 N1776 N 0.19165 0.93346 0.73282
 C1777 C 0.18016 0.93406 0.75556
 N1778 N 0.17958 0.91582 0.77057
 C1779 C 0.21192 0.87731 0.73303
 C1780 C 0.22001 0.85973 0.72889
 C1781 C 0.22850 0.83800 0.72676
 N1782 N 0.24903 0.83343 0.73499
 N1783 N 0.25548 0.81283 0.73815
 C1784 C 0.24159 0.79610 0.73334
 N1785 N 0.22124 0.80078 0.72451
 N1786 N 0.21479 0.82135 0.72132
 N1787 N 0.69251 0.39993 0.26449
 C1788 C 0.70305 0.39902 0.24129
 N1789 N 0.70318 0.41689 0.22567
 N1790 N 0.69297 0.43510 0.23312
 C1791 C 0.68226 0.43603 0.25639
 N1792 N 0.68232 0.41807 0.27189
 C1793 C 0.71332 0.37900 0.23359
 C1794 C 0.72106 0.36128 0.22929
 C1795 C 0.72910 0.33940 0.22699
 N1796 N 0.74985 0.33453 0.23409
 N1797 N 0.75605 0.31384 0.23717
 C1798 C 0.74169 0.29732 0.23339
 N1799 N 0.72109 0.30230 0.22569
 N1800 N 0.71489 0.32295 0.22257
 N1801 N 0.68982 0.60707 0.23058
 C1802 C 0.70258 0.60787 0.25210
 N1803 N 0.70443 0.58990 0.26741
 N1804 N 0.69373 0.57170 0.26129
 C1805 C 0.68083 0.57086 0.23969
 N1806 N 0.67916 0.58894 0.22451
 C1807 C 0.71370 0.62773 0.25820
 C1808 C 0.72216 0.64523 0.26131
 C1809 C 0.73109 0.66676 0.26246
 N1810 N 0.71989 0.68297 0.27453
 N1811 N 0.72590 0.70367 0.27157
 C1812 C 0.74322 0.70890 0.25630
 N1813 N 0.75470 0.69257 0.24474
 N1814 N 0.74871 0.67188 0.24771
 N1815 N 0.18722 0.10611 0.73463
 C1816 C 0.19980 0.10644 0.75632
 N1817 N 0.20180 0.08805 0.77086
 N1818 N 0.19142 0.06989 0.76384
 C1819 C 0.17872 0.06951 0.74206
 N1820 N 0.17689 0.08801 0.72764
 C1821 C 0.21070 0.12622 0.76332
 C1822 C 0.21905 0.14368 0.76713
 C1823 C 0.22795 0.16519 0.76898
 N1824 N 0.21521 0.18190 0.77730
 N1825 N 0.22169 0.20244 0.77429
 C1826 C 0.24107 0.20703 0.76273
 N1827 N 0.25403 0.19021 0.75500
 N1828 N 0.24756 0.16966 0.75801
 N1829 N 0.30943 0.10185 0.26541
 C1830 C 0.29812 0.10250 0.24274
 N1831 N 0.29741 0.08444 0.22752
 N1832 N 0.30782 0.06628 0.23482
 C1833 C 0.31928 0.06560 0.25757
 N1834 N 0.31980 0.08377 0.27267
 C1835 C 0.28746 0.12239 0.23527
 C1836 C 0.27938 0.13998 0.23111
 C1837 C 0.27093 0.16171 0.22890
 N1838 N 0.25048 0.16638 0.23736
 N1839 N 0.24410 0.18701 0.24038
 C1840 C 0.25798 0.20369 0.23519
 N1841 N 0.27824 0.19891 0.22611
 N1842 N 0.28462 0.17831 0.22306
 N1843 N 0.79726 0.58245 0.72671
 C1844 C 0.79722 0.60032 0.74229
 N1845 N 0.80769 0.59949 0.76552
 N1846 N 0.81799 0.58142 0.77298
 C1847 C 0.81824 0.56346 0.75752
 N1848 N 0.80759 0.56431 0.73423
 C1849 C 0.78688 0.62028 0.73448
 C1850 C 0.77909 0.63796 0.73005
 C1851 C 0.77101 0.65981 0.72758
 N1852 N 0.75031 0.66471 0.73488
 N1853 N 0.74412 0.68541 0.73783
 C1854 C 0.75845 0.70192 0.73373
 N1855 N 0.77899 0.69691 0.72581
 N1856 N 0.78518 0.67625 0.72281
 N1857 N 0.90900 0.79295 0.16188
 C1858 C 0.90384 0.77519 0.17629
 N1859 N 0.91740 0.75768 0.17594
 N1860 N 0.93560 0.75798 0.16165
 C1861 C 0.94085 0.77573 0.14699
 N1862 N 0.92716 0.79324 0.14761
 C1863 C 0.88324 0.77424 0.18961
 C1864 C 0.86529 0.77337 0.19921
 C1865 C 0.84318 0.77200 0.20832
 N1866 N 0.83828 0.77140 0.23418
 N1867 N 0.81761 0.76920 0.24203
 C1868 C 0.80124 0.76761 0.22425
 N1869 N 0.80631 0.76828 0.19847
 N1870 N 0.82686 0.77049 0.19065
 N1871 N 0.41687 0.25836 0.67876
 C1872 C 0.40295 0.27558 0.67914
 N1873 N 0.40755 0.29333 0.66439
 N1874 N 0.42555 0.29385 0.64978
 C1875 C 0.43953 0.27660 0.64921
 N1876 N 0.43486 0.25889 0.66414
 C1877 C 0.38260 0.27415 0.69293
 C1878 C 0.36501 0.27217 0.70323
 C1879 C 0.34353 0.26860 0.71355
 N1880 N 0.33459 0.28209 0.73169
 N1881 N 0.31413 0.27903 0.73988
 C1882 C 0.30199 0.26244 0.73011
 N1883 N 0.31113 0.24896 0.71214
 N1884 N 0.33150 0.25197 0.70402
 N1885 N 0.40746 0.70915 0.83471
 C1886 C 0.40345 0.72699 0.81984
 N1887 N 0.41773 0.74381 0.82043
 N1888 N 0.43551 0.74278 0.83536
 C1889 C 0.43960 0.72496 0.85041
 N1890 N 0.42524 0.70813 0.84963
 C1891 C 0.38333 0.72893 0.80564
 C1892 C 0.36592 0.73123 0.79499
 C1893 C 0.34462 0.73504 0.78423
 N1894 N 0.33563 0.72122 0.76657
 N1895 N 0.31523 0.72436 0.75820
 C1896 C 0.30317 0.74137 0.76731
 N1897 N 0.31237 0.75520 0.78477
 N1898 N 0.33269 0.75210 0.79306
 N1899 N 0.91752 0.24418 0.32093
 C1900 C 0.90316 0.22744 0.32040
 N1901 N 0.90708 0.20962 0.33534
 N1902 N 0.92485 0.20856 0.35028
 C1903 C 0.93932 0.22533 0.35105
 N1904 N 0.93528 0.24311 0.33588
 C1905 C 0.88307 0.22944 0.30614
 C1906 C 0.86571 0.23184 0.29541
 C1907 C 0.84448 0.23581 0.28452
 N1908 N 0.83281 0.25321 0.29291
 N1909 N 0.81253 0.25645 0.28456
 C1910 C 0.80311 0.24245 0.26748
 N1911 N 0.81491 0.22511 0.25879
 N1912 N 0.83528 0.22182 0.26722
 N1913 N 0.09180 0.29084 0.33525
 C1914 C 0.09595 0.27306 0.32036
 N1915 N 0.08170 0.25621 0.32077
 N1916 N 0.06382 0.25714 0.33555
 C1917 C 0.05959 0.27489 0.35063
 N1918 N 0.07391 0.29176 0.35003
 C1919 C 0.11618 0.27120 0.30635
 C1920 C 0.13368 0.26895 0.29586
 C1921 C 0.15507 0.26516 0.28531
 N1922 N 0.16412 0.27888 0.26755
 N1923 N 0.18457 0.27572 0.25931
 C1924 C 0.19660 0.25878 0.26867
 N1925 N 0.18735 0.24506 0.28625
 N1926 N 0.16698 0.24818 0.29441
 N1927 N 0.59309 0.79000 0.83535
 C1928 C 0.59701 0.77227 0.82028
 N1929 N 0.58258 0.75558 0.82060
 N1930 N 0.56474 0.75662 0.83546
 C1931 C 0.56074 0.77432 0.85070
 N1932 N 0.57525 0.79104 0.85020
 C1933 C 0.61716 0.77027 0.80613
 C1934 C 0.63456 0.76785 0.79548
 C1935 C 0.65583 0.76383 0.78466
 N1936 N 0.66743 0.74641 0.79313
 N1937 N 0.68772 0.74310 0.78481
 C1938 C 0.69721 0.75705 0.76769
 N1939 N 0.68547 0.77442 0.75892
 N1940 N 0.66510 0.77777 0.76732
 N1941 N 0.59168 0.20585 0.66353
 C1942 C 0.59717 0.22387 0.67728
 N1943 N 0.58390 0.24159 0.67635
 N1944 N 0.56567 0.24126 0.66215
 C1945 C 0.56013 0.22326 0.64820
 N1946 N 0.57348 0.20554 0.64935
 C1947 C 0.61783 0.22484 0.69042
 C1948 C 0.63581 0.22582 0.69990
 C1949 C 0.65792 0.22739 0.70891
 N1950 N 0.66291 0.22741 0.73474
 N1951 N 0.68356 0.22976 0.74254
 C1952 C 0.69983 0.23211 0.72472
 N1953 N 0.69468 0.23203 0.69895
 N1954 N 0.67414 0.22967 0.69119
 N1955 N 0.09329 0.70674 0.16358
 C1956 C 0.09788 0.72466 0.17798
 N1957 N 0.08386 0.74179 0.17746
 N1958 N 0.06578 0.74100 0.16305
 C1959 C 0.06111 0.72311 0.14848
 N1960 N 0.07521 0.70595 0.14917
 C1961 C 0.11825 0.72630 0.19167
 C1962 C 0.13582 0.72843 0.20195
 C1963 C 0.15725 0.73209 0.21233
 N1964 N 0.16939 0.74857 0.20257
 N1965 N 0.18971 0.75164 0.21080
 C1966 C 0.19868 0.73838 0.22913
 N1967 N 0.18643 0.72194 0.23913
 N1968 N 0.16602 0.71882 0.23083
   
