data_POSCAR
  _audit_creation_date              2014-09-24
  _audit_creation_method            'ToBaCCo'
  _symmetry_space_group_name_H-M    'P1'
  _symmetry_Int_Tables_number       1
  _symmetry_cell_setting            triclinic
  loop_
  _symmetry_equiv_pos_as_xyz
 x,y,z
_cell_length_a 37.8350
_cell_length_b 39.3575
_cell_length_c 44.3039
_cell_angle_alpha 89.921400
_cell_angle_beta 89.965400
_cell_angle_gamma 90.050200
loop_
  _atom_site_label
  _atom_site_type_symbol
  _atom_site_fract_x
  _atom_site_fract_y
  _atom_site_fract_z
Zr1 Zr 0.24897 0.24904 0.30304
 O2 O 0.27665 0.27540 0.33735
 O3 O 0.21441 0.21850 0.32845
 O4 O 0.21548 0.28181 0.32756
 O5 O 0.31394 0.18835 0.29189
 O6 O 0.18719 0.31263 0.29113
 O7 O 0.28265 0.21681 0.32802
 O8 O 0.18151 0.19164 0.29245
 O9 O 0.20252 0.25122 0.27742
 O10 O 0.24781 0.20459 0.27727
 O11 O 0.25295 0.29388 0.27731
 O12 O 0.29639 0.24913 0.27784
 Zr13 Zr 0.25175 0.25112 0.19763
 Zr14 Zr 0.20769 0.29444 0.25009
 Zr15 Zr 0.29314 0.20568 0.25052
 Zr16 Zr 0.20272 0.20766 0.25067
 O17 O 0.34902 0.20775 0.24959
 O18 O 0.14777 0.21818 0.24978
 O19 O 0.24793 0.20577 0.22302
 O20 O 0.20481 0.25089 0.22311
 O21 O 0.25306 0.29590 0.22305
 O22 O 0.29781 0.24895 0.22365
 C23 C 0.18970 0.19822 0.32000
 C24 C 0.30637 0.19545 0.31948
 C25 C 0.19366 0.30483 0.31874
 O26 O 0.15190 0.29206 0.24770
 O27 O 0.19100 0.31573 0.20883
 O28 O 0.22094 0.28602 0.17269
 C29 C 0.19898 0.30907 0.18125
 O30 O 0.32207 0.31031 0.29040
 Zr31 Zr 0.29806 0.29248 0.25004
 O32 O 0.28605 0.28182 0.17225
 O33 O 0.21433 0.34777 0.25227
 O34 O 0.29146 0.34597 0.25082
 O35 O 0.35339 0.28405 0.24845
 O36 O 0.31627 0.31147 0.20825
 C37 C 0.30882 0.30405 0.18072
 O38 O 0.22235 0.22624 0.16352
 O39 O 0.28644 0.15231 0.25163
 O40 O 0.28326 0.21678 0.17292
 O41 O 0.31012 0.18466 0.20929
 O42 O 0.20718 0.15398 0.25238
 O43 O 0.18244 0.18589 0.21035
 C44 C 0.30385 0.19269 0.18166
 H45 H 0.24738 0.18368 0.28969
 H46 H 0.18377 0.25136 0.20984
 H47 H 0.31964 0.24781 0.21137
 H48 H 0.25413 0.31417 0.29045
 H49 H 0.13521 0.19690 0.25513
 H50 H 0.14321 0.31579 0.24857
 H51 H 0.19040 0.35792 0.25121
 H52 H 0.31451 0.35633 0.24549
 H53 H 0.18348 0.14473 0.25726
 H54 H 0.31044 0.14228 0.25250
 H55 H 0.35753 0.18396 0.24890
 H56 H 0.36480 0.30604 0.24349
 H57 H 0.16171 0.17150 0.21522
 H58 H 0.23159 0.23429 0.14379
 H59 H 0.26748 0.26717 0.35704
 H60 H 0.33870 0.32897 0.28552
 Zr61 Zr 0.75120 0.75115 0.30274
 O62 O 0.72372 0.72487 0.33730
 O63 O 0.78572 0.78195 0.32787
 O64 O 0.78483 0.71860 0.32738
 O65 O 0.68585 0.81143 0.29133
 O66 O 0.81320 0.68772 0.29107
 O67 O 0.71737 0.78334 0.32758
 O68 O 0.81842 0.80879 0.29162
 O69 O 0.79762 0.74905 0.27702
 O70 O 0.75210 0.79548 0.27669
 O71 O 0.74741 0.70617 0.27728
 O72 O 0.70375 0.75069 0.27764
 Zr73 Zr 0.74825 0.74850 0.19733
 Zr74 Zr 0.79262 0.70568 0.24996
 Zr75 Zr 0.70674 0.79402 0.25005
 Zr76 Zr 0.79715 0.79248 0.25000
 O77 O 0.65086 0.79169 0.24921
 O78 O 0.85215 0.78223 0.24901
 O79 O 0.75188 0.79399 0.22244
 O80 O 0.79522 0.74911 0.22271
 O81 O 0.74722 0.70384 0.22303
 O82 O 0.70222 0.75061 0.22345
 C83 C 0.81034 0.80228 0.31924
 C84 C 0.69349 0.80450 0.31895
 C85 C 0.80670 0.69559 0.31866
 O86 O 0.84840 0.70832 0.24752
 O87 O 0.80948 0.68435 0.20879
 O88 O 0.77928 0.71369 0.17254
 C89 C 0.80145 0.69085 0.18118
 O90 O 0.67842 0.68943 0.29063
 Zr91 Zr 0.70224 0.70721 0.25011
 O92 O 0.71402 0.71750 0.17223
 O93 O 0.78626 0.65232 0.25240
 O94 O 0.70913 0.65375 0.25119
 O95 O 0.64687 0.71540 0.24864
 O96 O 0.68399 0.68793 0.20850
 C97 C 0.69134 0.69523 0.18090
 O98 O 0.77742 0.77334 0.16296
 O99 O 0.71316 0.84743 0.25084
 O100 O 0.71655 0.78260 0.17249
 O101 O 0.68963 0.81480 0.20873
 O102 O 0.79238 0.84615 0.25140
 O103 O 0.81723 0.81418 0.20950
 C104 C 0.69589 0.80667 0.18114
 H105 H 0.75244 0.81645 0.28900
 H106 H 0.81625 0.74870 0.20940
 H107 H 0.68037 0.75159 0.21121
 H108 H 0.74634 0.68593 0.29054
 H109 H 0.86462 0.80359 0.25418
 H110 H 0.85722 0.68464 0.24852
 H111 H 0.81024 0.64229 0.25137
 H112 H 0.68612 0.64325 0.24600
 H113 H 0.81604 0.85554 0.25618
 H114 H 0.68912 0.85735 0.25170
 H115 H 0.64223 0.81544 0.24838
 H116 H 0.63554 0.69334 0.24385
 H117 H 0.83786 0.82871 0.21423
 H118 H 0.76816 0.76515 0.14331
 H119 H 0.73289 0.73325 0.35691
 H120 H 0.66186 0.67069 0.28591
 Zr121 Zr 0.75111 0.24856 -0.30294
 O122 O 0.72366 0.27455 -0.33764
 O123 O 0.78565 0.21765 -0.32791
 O124 O 0.78472 0.28101 -0.32776
 O125 O 0.68574 0.18828 -0.29115
 O126 O 0.81306 0.31218 -0.29164
 O127 O 0.71727 0.21617 -0.32758
 O128 O 0.81835 0.19114 -0.29154
 O129 O 0.79751 0.25094 -0.27726
 O130 O 0.75201 0.20442 -0.27665
 O131 O 0.74727 0.29371 -0.27772
 O132 O 0.70365 0.24911 -0.27781
 Zr133 Zr 0.74810 0.25195 -0.19755
 Zr134 Zr 0.79246 0.29449 -0.25043
 Zr135 Zr 0.70664 0.20598 -0.24999
 Zr136 Zr 0.79705 0.20770 -0.25000
 O137 O 0.65076 0.20818 -0.24910
 O138 O 0.85205 0.21808 -0.24911
 O139 O 0.75177 0.20629 -0.22241
 O140 O 0.79509 0.25126 -0.22295
 O141 O 0.74705 0.29643 -0.22349
 O142 O 0.70209 0.24956 -0.22362
 C143 C 0.81028 0.19743 -0.31919
 C144 C 0.69337 0.19504 -0.31881
 C145 C 0.80657 0.30411 -0.31917
 O146 O 0.84824 0.29199 -0.24798
 O147 O 0.80925 0.31620 -0.20941
 O148 O 0.77906 0.28704 -0.17298
 C149 C 0.80118 0.30989 -0.18177
 O150 O 0.67828 0.31024 -0.29111
 Zr151 Zr 0.70209 0.29278 -0.25051
 O152 O 0.71384 0.28302 -0.17259
 O153 O 0.78608 0.34781 -0.25320
 O154 O 0.70896 0.34624 -0.25188
 O155 O 0.64672 0.28446 -0.24897
 O156 O 0.68380 0.31230 -0.20899
 C157 C 0.69115 0.30519 -0.18136
 O158 O 0.77729 0.22743 -0.16306
 O159 O 0.71309 0.15258 -0.25052
 O160 O 0.71643 0.21796 -0.17250
 O161 O 0.68956 0.18545 -0.20856
 O162 O 0.79230 0.15401 -0.25110
 O163 O 0.81712 0.18633 -0.20939
 C164 C 0.69580 0.19379 -0.18102
 H165 H 0.75236 0.18337 -0.28885
 H166 H 0.81610 0.25182 -0.20965
 H167 H 0.68023 0.24862 -0.21136
 H168 H 0.74619 0.31386 -0.29109
 H169 H 0.86454 0.19671 -0.25416
 H170 H 0.85705 0.31568 -0.24913
 H171 H 0.81006 0.35791 -0.25224
 H172 H 0.68594 0.35673 -0.24672
 H173 H 0.81597 0.14464 -0.25584
 H174 H 0.68905 0.14260 -0.25130
 H175 H 0.64215 0.18441 -0.24812
 H176 H 0.63538 0.30652 -0.24427
 H177 H 0.83777 0.17182 -0.21406
 H178 H 0.76802 0.23574 -0.14346
 H179 H 0.73284 0.26604 -0.35720
 H180 H 0.66170 0.32897 -0.28647
 Zr181 Zr 0.24784 0.75288 -0.30303
 O182 O 0.27525 0.72703 -0.33779
 O183 O 0.21338 0.78402 -0.32794
 O184 O 0.21417 0.72053 -0.32787
 O185 O 0.31337 0.81299 -0.29116
 O186 O 0.18570 0.68929 -0.29174
 O187 O 0.28185 0.78538 -0.32762
 O188 O 0.18079 0.81046 -0.29154
 O189 O 0.20140 0.75050 -0.27732
 O190 O 0.24705 0.79689 -0.27667
 O191 O 0.25149 0.70762 -0.27781
 O192 O 0.29526 0.75206 -0.27787
 Zr193 Zr 0.25070 0.74896 -0.19755
 Zr194 Zr 0.20626 0.70683 -0.25050
 Zr195 Zr 0.29238 0.79507 -0.25000
 Zr196 Zr 0.20197 0.79362 -0.25001
 O197 O 0.34825 0.79265 -0.24916
 O198 O 0.14694 0.78338 -0.24916
 O199 O 0.24721 0.79474 -0.22240
 O200 O 0.20375 0.74995 -0.22298
 O201 O 0.25163 0.70461 -0.22355
 O202 O 0.29674 0.75136 -0.22365
 C203 C 0.18881 0.80431 -0.31923
 C204 C 0.30580 0.80647 -0.31887
 C205 C 0.19225 0.69741 -0.31928
 O206 O 0.15048 0.70951 -0.24812
 O207 O 0.18920 0.68504 -0.20949
 O208 O 0.21944 0.71387 -0.17303
 C209 C 0.19717 0.69115 -0.18180
 O210 O 0.32043 0.69089 -0.29121
 Zr211 Zr 0.29663 0.70827 -0.25060
 O212 O 0.28484 0.71762 -0.17265
 O213 O 0.21250 0.65350 -0.25326
 O214 O 0.28958 0.65484 -0.25204
 O215 O 0.35202 0.71644 -0.24906
 O216 O 0.31484 0.68848 -0.20911
 C217 C 0.30749 0.69544 -0.18146
 O218 O 0.22161 0.77341 -0.16299
 O219 O 0.28610 0.84849 -0.25042
 O220 O 0.28248 0.78283 -0.17249
 O221 O 0.30951 0.81538 -0.20854
 O222 O 0.20692 0.84729 -0.25102
 O223 O 0.18189 0.81488 -0.20940
 C224 C 0.30321 0.80698 -0.18099
 H225 H 0.24678 0.81801 -0.28883
 H226 H 0.18271 0.74940 -0.20969
 H227 H 0.31859 0.75218 -0.21139
 H228 H 0.25253 0.68752 -0.29119
 H229 H 0.13453 0.80481 -0.25420
 H230 H 0.14159 0.68586 -0.24928
 H231 H 0.18849 0.64346 -0.25231
 H232 H 0.31256 0.64424 -0.24690
 H233 H 0.18331 0.85677 -0.25578
 H234 H 0.31017 0.85840 -0.25121
 H235 H 0.35695 0.81637 -0.24815
 H236 H 0.36331 0.69434 -0.24439
 H237 H 0.16128 0.82946 -0.21406
 H238 H 0.23084 0.76495 -0.14342
 H239 H 0.26610 0.73569 -0.35733
 H240 H 0.33698 0.67212 -0.28658
 Zr241 Zr 1.25240 1.25240 0.80236
 O242 O 1.22431 1.22639 0.83670
 O243 O 1.28713 1.28277 0.82750
 O244 O 1.28611 1.22019 0.82731
 O245 O 1.18834 1.31379 0.79068
 O246 O 1.31427 1.18885 0.79122
 O247 O 1.21949 1.28549 0.82705
 O248 O 1.32040 1.30904 0.79129
 O249 O 1.29884 1.24977 0.77677
 O250 O 1.25396 1.29662 0.77616
 O251 O 1.24814 1.20735 0.77714
 O252 O 1.20499 1.25249 0.77721
 Zr253 Zr 1.24960 1.24951 0.69700
 Zr254 Zr 1.29340 1.20634 0.74994
 Zr255 Zr 1.20863 1.29567 0.74947
 Zr256 Zr 1.29902 1.29307 0.74961
 O257 O 1.15275 1.29378 0.74854
 O258 O 1.35389 1.28217 0.74866
 O259 O 1.25385 1.29501 0.72198
 O260 O 1.29652 1.24965 0.72253
 O261 O 1.24805 1.20494 0.72286
 O262 O 1.20353 1.25222 0.72297
 C263 C 1.31209 1.30267 0.81888
 C264 C 1.19618 1.30716 0.81830
 C265 C 1.30816 1.19725 0.81877
 O266 O 1.34923 1.20812 0.74743
 O267 O 1.31032 1.18501 0.70889
 O268 O 1.28069 1.21468 0.67247
 C269 C 1.30272 1.19184 0.68127
 O270 O 1.17882 1.19174 0.79038
 Zr271 Zr 1.20303 1.20890 0.74982
 O272 O 1.21509 1.21861 0.67195
 O273 O 1.28624 1.15311 0.75266
 O274 O 1.20920 1.15537 0.75121
 O275 O 1.14777 1.21767 0.74807
 O276 O 1.18475 1.18945 0.70828
 C277 C 1.19224 1.19648 0.68065
 O278 O 1.27902 1.27372 0.66242
 O279 O 1.21551 1.34903 0.75019
 O280 O 1.21886 1.28435 0.67203
 O281 O 1.19232 1.31697 0.70815
 O282 O 1.29497 1.34680 0.75097
 O283 O 1.31944 1.31444 0.70910
 C284 C 1.19883 1.30896 0.68057
 H285 H 1.25465 1.31767 0.78835
 H286 H 1.31760 1.24903 0.70929
 H287 H 1.18179 1.25348 0.71060
 H288 H 1.24692 1.18722 0.79053
 H289 H 1.36661 1.30338 0.75387
 H290 H 1.35770 1.18433 0.74860
 H291 H 1.31009 1.14278 0.75174
 H292 H 1.18604 1.14511 0.74609
 H293 H 1.31873 1.35588 0.75585
 H294 H 1.19157 1.35920 0.75097
 H295 H 1.14438 1.31761 0.74764
 H296 H 1.13620 1.19569 0.74341
 H297 H 1.34020 1.32880 0.71385
 H298 H 1.26962 1.26555 0.64282
 H299 H 1.23344 1.23467 0.85636
 H300 H 1.16204 1.17315 0.78573
 Zr301 Zr 0.74769 0.74790 0.80260
 O302 O 0.77583 0.77417 0.83667
 O303 O 0.71293 0.71782 0.82804
 O304 O 0.71401 0.78032 0.82732
 O305 O 0.81170 0.68640 0.79134
 O306 O 0.68582 0.81139 0.79102
 O307 O 0.78060 0.71500 0.82753
 O308 O 0.67959 0.69133 0.79209
 O309 O 0.70124 0.75034 0.77704
 O310 O 0.74609 0.70347 0.77678
 O311 O 0.75195 0.79277 0.77700
 O312 O 0.79508 0.74758 0.77738
 Zr313 Zr 0.75043 0.74995 0.69723
 Zr314 Zr 0.70667 0.79357 0.74986
 Zr315 Zr 0.79140 0.70418 0.75001
 Zr316 Zr 0.70103 0.70683 0.75026
 O317 O 0.84729 0.70601 0.74902
 O318 O 0.64616 0.71770 0.74920
 O319 O 0.74618 0.70464 0.72258
 O320 O 0.70352 0.75005 0.72281
 O321 O 0.75200 0.79473 0.72270
 O322 O 0.79650 0.74743 0.72315
 C323 C 0.68790 0.69794 0.81961
 C324 C 0.80389 0.69326 0.81891
 C325 C 0.69194 0.80320 0.81864
 O326 O 0.65084 0.79179 0.74746
 O327 O 0.68972 0.81453 0.70864
 O328 O 0.71931 0.78457 0.67244
 C329 C 0.69728 0.80746 0.68107
 O330 O 0.82125 0.80843 0.79002
 Zr331 Zr 0.79703 0.79096 0.74963
 O332 O 0.78493 0.78061 0.67186
 O333 O 0.71386 0.84682 0.75208
 O334 O 0.79088 0.84450 0.75053
 O335 O 0.85230 0.78219 0.74792
 O336 O 0.81533 0.81002 0.70790
 C337 C 0.80782 0.80276 0.68036
 O338 O 0.72099 0.72544 0.66291
 O339 O 0.78445 0.65083 0.75117
 O340 O 0.78121 0.71497 0.67249
 O341 O 0.80778 0.68262 0.70883
 O342 O 0.70503 0.65312 0.75218
 O343 O 0.68065 0.68512 0.70995
 C344 C 0.80129 0.69045 0.68120
 H345 H 0.74539 0.68253 0.78917
 H346 H 0.68243 0.75056 0.70961
 H347 H 0.81825 0.74607 0.71078
 H348 H 0.75318 0.81300 0.79021
 H349 H 0.63343 0.69654 0.75461
 H350 H 0.64237 0.81559 0.74842
 H351 H 0.69001 0.85714 0.75112
 H352 H 0.81404 0.85471 0.74528
 H353 H 0.68126 0.64411 0.75715
 H354 H 0.80838 0.64066 0.75201
 H355 H 0.85564 0.68216 0.74832
 H356 H 0.86386 0.80414 0.74306
 H357 H 0.65992 0.67075 0.71484
 H358 H 0.73037 0.73345 0.64322
 H359 H 0.76670 0.76606 0.85640
 H360 H 0.83799 0.82702 0.78519
 Zr361 Zr 1.25245 0.74770 0.19758
 O362 O 1.22446 0.77389 0.16334
 O363 O 1.28710 0.71738 0.17234
 O364 O 1.28627 0.77990 0.17271
 O365 O 1.18818 0.68638 0.20909
 O366 O 1.31453 0.81110 0.20885
 O367 O 1.21948 0.71476 0.17280
 O368 O 1.32026 0.69095 0.20846
 O369 O 1.29888 0.75018 0.22316
 O370 O 1.25383 0.70339 0.22365
 O371 O 1.24832 0.79268 0.22292
 O372 O 1.20500 0.74761 0.22274
 Zr373 Zr 1.24958 0.75024 0.30291
 Zr374 Zr 1.29357 0.79353 0.25010
 Zr375 Zr 1.20848 0.70432 0.25034
 Zr376 Zr 1.29889 0.70678 0.25019
 O377 O 1.15261 0.70627 0.25131
 O378 O 1.35379 0.71759 0.25116
 O379 O 1.25368 0.70482 0.27781
 O380 O 1.29652 0.75012 0.27738
 O381 O 1.24820 0.79491 0.27719
 O382 O 1.20352 0.74768 0.27697
 C383 C 1.31200 0.69743 0.18089
 C384 C 1.19609 0.69310 0.18149
 C385 C 1.30840 0.80277 0.18129
 O386 O 1.34939 0.79168 0.25259
 O387 O 1.31051 0.81468 0.29122
 O388 O 1.28072 0.78493 0.32754
 C389 C 1.30284 0.80775 0.31881
 O390 O 1.17907 0.80846 0.20975
 Zr391 Zr 1.20318 0.79111 0.25025
 O392 O 1.21516 0.78107 0.32809
 O393 O 1.28660 0.84678 0.24751
 O394 O 1.20954 0.84463 0.24902
 O395 O 1.14788 0.78242 0.25200
 O396 O 1.18492 0.81042 0.29187
 C397 C 1.19238 0.80326 0.31947
 O398 O 1.27892 0.72585 0.33738
 O399 O 1.21516 0.65094 0.24948
 O400 O 1.21873 0.71540 0.32781
 O401 O 1.19210 0.68293 0.29163
 O402 O 1.29468 0.65307 0.24867
 O403 O 1.31916 0.68524 0.29064
 C404 C 1.19864 0.69085 0.31922
 H405 H 1.25447 0.68239 0.21139
 H406 H 1.31759 0.75067 0.29062
 H407 H 1.18176 0.74641 0.28934
 H408 H 1.24718 0.81286 0.20958
 H409 H 1.36645 0.69638 0.24589
 H410 H 1.35794 0.81546 0.25147
 H411 H 1.31049 0.85707 0.24845
 H412 H 1.18641 0.85491 0.25419
 H413 H 1.31842 0.64398 0.24377
 H414 H 1.19118 0.64083 0.24870
 H415 H 1.14416 0.68245 0.25216
 H416 H 1.13640 0.80441 0.25673
 H417 H 1.33990 0.67088 0.28586
 H418 H 1.26955 0.73395 0.35703
 H419 H 1.23357 0.76568 0.14365
 H420 H 1.16235 0.82706 0.21446
 Zr421 Zr 0.74816 1.25230 0.19728
 O422 O 0.77605 1.22644 0.16282
 O423 O 0.71352 1.28295 0.17226
 O424 O 0.71429 1.22026 0.17229
 O425 O 0.81265 1.31338 0.20911
 O426 O 0.68602 1.18878 0.20834
 O427 O 0.78133 1.28543 0.17266
 O428 O 0.68046 1.30911 0.20858
 O429 O 0.70173 1.24965 0.22292
 O430 O 0.74688 1.29635 0.22360
 O431 O 0.75219 1.20708 0.22243
 O432 O 0.79558 1.25204 0.22243
 Zr433 Zr 0.75102 1.24870 0.30269
 Zr434 Zr 0.70693 1.20603 0.24966
 Zr435 Zr 0.79222 1.29506 0.25027
 Zr436 Zr 0.70182 1.29278 0.25018
 O437 O 0.84809 1.29297 0.25118
 O438 O 0.64689 1.28207 0.25116
 O439 O 0.74702 1.29437 0.27780
 O440 O 0.70409 1.24918 0.27718
 O441 O 0.75230 1.20429 0.27672
 O442 O 0.79707 1.25144 0.27669
 C443 C 0.68867 1.30288 0.18096
 C444 C 0.80481 1.30695 0.18146
 C445 C 0.69216 1.19729 0.18080
 O446 O 0.65112 1.20803 0.25213
 O447 O 0.68982 1.18452 0.29068
 O448 O 0.71968 1.21381 0.32715
 C449 C 0.69746 1.19113 0.31833
 O450 O 0.82137 1.19121 0.20913
 Zr451 Zr 0.79732 1.20828 0.24974
 O452 O 0.78543 1.21754 0.32764
 O453 O 0.71382 1.15279 0.24687
 O454 O 0.79082 1.15478 0.24827
 O455 O 0.85263 1.21688 0.25141
 O456 O 0.81562 1.18855 0.29122
 C457 C 0.80821 1.19544 0.31888
 O458 O 0.72178 1.27278 0.33737
 O459 O 0.78561 1.34845 0.24970
 O460 O 0.78198 1.28332 0.32773
 O461 O 0.80869 1.31604 0.29166
 O462 O 0.70620 1.34650 0.24896
 O463 O 0.68158 1.31398 0.29077
 C464 C 0.80215 1.30791 0.31922
 H465 H 0.74631 1.31747 0.21146
 H466 H 0.68301 1.24856 0.29042
 H467 H 0.81884 1.25255 0.28904
 H468 H 0.75330 1.18702 0.20900
 H469 H 0.63428 1.30337 0.24603
 H470 H 0.64250 1.18428 0.25091
 H471 H 0.68991 1.14254 0.24776
 H472 H 0.81392 1.14440 0.25336
 H473 H 0.68250 1.35571 0.24413
 H474 H 0.80960 1.35854 0.24894
 H475 H 0.85660 1.31676 0.25216
 H476 H 0.86410 1.19485 0.25602
 H477 H 0.66089 1.32845 0.28607
 H478 H 0.73116 1.26444 0.35694
 H479 H 0.76693 1.23490 0.14321
 H480 H 0.83806 1.17255 0.21375
 N481 N 0.56290 1.03579 0.03254
 N482 N 0.58748 1.05853 0.03901
 N483 N 0.53816 0.96441 0.05335
 N484 N 0.54565 0.94215 0.07469
 N485 N 0.56282 0.96440 0.03248
 N486 N 0.58776 0.94219 0.03914
 N487 N 0.53806 1.03583 0.05325
 N488 N 0.54501 1.05861 0.07425
 C489 C 0.57573 1.07288 0.06495
 C490 C 0.57646 0.92816 0.06536
 N491 N 0.43711 0.96434 0.03271
 N492 N 0.41266 0.94146 0.03920
 N493 N 0.46184 1.03572 0.05335
 N494 N 0.45427 1.05784 0.07475
 N495 N 0.43712 1.03570 0.03255
 N496 N 0.41207 1.05776 0.03933
 N497 N 0.46198 0.96432 0.05338
 N498 N 0.45519 0.94142 0.07435
 Mn499 Mn 0.50001 1.00007 0.05357
 C500 C 0.42454 0.92706 0.06510
 C501 C 0.42337 1.07173 0.06553
 N502 N 0.56274 0.96428 -0.03276
 N503 N 0.58730 0.94161 -0.03935
 N504 N 0.53811 1.03567 -0.05350
 N505 N 0.54553 1.05810 -0.07474
 N506 N 0.56280 1.03565 -0.03268
 N507 N 0.58768 1.05800 -0.03926
 N508 N 0.53786 0.96426 -0.05343
 N509 N 0.54479 0.94157 -0.07450
 Mn510 Mn 0.56314 1.00002 -0.00011
 C511 C 0.57551 0.92732 -0.06530
 C512 C 0.57632 1.07214 -0.06539
 N513 N 0.43709 1.03581 -0.03270
 N514 N 0.41260 1.05861 -0.03920
 N515 N 0.46162 0.96439 -0.05339
 N516 N 0.45400 0.94217 -0.07470
 N517 N 0.43696 0.96443 -0.03252
 N518 N 0.41190 0.94229 -0.03916
 N519 N 0.46191 1.03581 -0.05343
 N520 N 0.45505 1.05862 -0.07446
 Mn521 Mn 0.43674 1.00007 0.00001
 Mn522 Mn 0.49988 1.00003 -0.05368
 Cl523 Cl 0.49994 1.00005 -0.00005
 C524 C 0.42440 1.07294 -0.06517
 C525 C 0.42312 0.92825 -0.06536
 N526 N 0.96256 0.53658 0.44658
 N527 N 0.93982 0.54432 0.42506
 N528 N 1.03670 0.56044 0.46725
 N529 N 1.06021 0.58420 0.46086
 N530 N 1.03680 0.53673 0.44643
 N531 N 1.06040 0.54371 0.42538
 N532 N 0.96254 0.56010 0.46758
 N533 N 0.93984 0.58439 0.46088
 C534 C 0.92547 0.57399 0.43451
 C535 C 1.07512 0.57321 0.43483
 N536 N 1.03707 0.53701 0.55336
 N537 N 1.05969 0.54504 0.57489
 N538 N 0.96265 0.56010 0.53266
 N539 N 0.93922 0.58383 0.53923
 N540 N 0.96280 0.53639 0.55355
 N541 N 0.93946 0.54336 0.57481
 N542 N 1.03683 0.56053 0.53231
 N543 N 1.05923 0.58511 0.53897
 Mn544 Mn 0.99968 0.56056 0.49995
 C545 C 1.07369 0.57490 0.56539
 C546 C 0.92462 0.57284 0.56541
 N547 N 1.03701 0.46340 0.44639
 N548 N 1.05969 0.45574 0.42479
 N549 N 0.96299 0.43949 0.46750
 N550 N 0.93984 0.41544 0.46102
 N551 N 0.96274 0.46322 0.44663
 N552 N 0.93939 0.45595 0.42548
 N553 N 1.03719 0.43988 0.46743
 N554 N 1.05993 0.41566 0.46071
 Mn555 Mn 0.99977 0.49999 0.44624
 C556 C 1.07416 0.42610 0.43425
 C557 C 0.92496 0.42627 0.43492
 N558 N 0.96331 0.46304 0.55357
 N559 N 0.94043 0.45530 0.57501
 N560 N 1.03752 0.43990 0.53249
 N561 N 1.06097 0.41614 0.53892
 N562 N 1.03756 0.46360 0.55334
 N563 N 1.06106 0.45658 0.57444
 N564 N 0.96336 0.43955 0.53255
 N565 N 0.94058 0.41526 0.53914
 Mn566 Mn 1.00019 0.50000 0.55372
 Mn567 Mn 1.00027 0.43944 0.50000
 Cl568 Cl 0.99998 0.50000 0.49998
 C569 C 0.92611 0.42563 0.56549
 C570 C 1.07579 0.42709 0.56498
 N571 N 0.96396 0.56113 0.03210
 N572 N 0.94084 0.58512 0.03882
 N573 N 1.03810 0.53717 0.05278
 N574 N 1.06105 0.54454 0.07420
 N575 N 1.03820 0.56086 0.03186
 N576 N 1.06116 0.58495 0.03857
 N577 N 0.96381 0.53730 0.05289
 N578 N 0.94057 0.54444 0.07418
 C579 C 0.92608 0.57415 0.06497
 C580 C 1.07559 0.57420 0.06485
 N581 N 1.03779 0.44008 0.03205
 N582 N 1.06085 0.41602 0.03875
 N583 N 0.96361 0.46390 0.05292
 N584 N 0.94086 0.45628 0.07450
 N585 N 0.96354 0.44029 0.03200
 N586 N 0.94078 0.41602 0.03885
 N587 N 1.03793 0.46382 0.05286
 N588 N 1.06111 0.45655 0.07417
 Mn589 Mn 1.00086 0.50056 0.05309
 C590 C 1.07557 0.42686 0.06492
 C591 C 0.92644 0.42656 0.06524
 N592 N 1.03831 0.56114 -0.03342
 N593 N 1.06113 0.58536 -0.04045
 N594 N 0.96392 0.53757 -0.05402
 N595 N 0.94069 0.54495 -0.07524
 N596 N 0.96405 0.56117 -0.03309
 N597 N 0.94098 0.58522 -0.03957
 N598 N 1.03824 0.53739 -0.05423
 N599 N 1.06103 0.54485 -0.07585
 Mn600 Mn 1.00114 0.56135 -0.00063
 C601 C 1.07551 0.57464 -0.06681
 C602 C 0.92626 0.57454 -0.06574
 N603 N 0.96345 0.44042 -0.03323
 N604 N 0.94019 0.41652 -0.03990
 N605 N 1.03782 0.46394 -0.05407
 N606 N 1.06083 0.45646 -0.07545
 N607 N 1.03768 0.44028 -0.03314
 N608 N 1.06054 0.41611 -0.03976
 N609 N 0.96352 0.46419 -0.05407
 N610 N 0.94029 0.45708 -0.07537
 Mn611 Mn 1.00061 0.44000 -0.00059
 Mn612 Mn 1.00088 0.50077 -0.05434
 Cl613 Cl 1.00088 0.50067 -0.00062
 C614 C 0.92557 0.42746 -0.06609
 C615 C 1.07515 0.42676 -0.06603
 N616 N 0.56221 1.03507 0.53307
 N617 N 0.58684 1.05772 0.53961
 N618 N 0.53773 0.96356 0.55378
 N619 N 0.54544 0.94131 0.57507
 N620 N 0.56235 0.96375 0.53287
 N621 N 0.58744 0.94168 0.53944
 N622 N 0.53746 1.03496 0.55387
 N623 N 0.54455 1.05754 0.57500
 C624 C 0.57524 1.07185 0.56567
 C625 C 0.57631 0.92753 0.56564
 N626 N 0.43658 0.96325 0.53328
 N627 N 0.41159 0.94105 0.54019
 N628 N 0.46120 1.03463 0.55399
 N629 N 0.45359 1.05680 0.57533
 N630 N 0.43655 1.03461 0.53314
 N631 N 0.41151 1.05670 0.53979
 N632 N 0.46141 0.96321 0.55400
 N633 N 0.45399 0.94097 0.57542
 Mn634 Mn 0.49946 0.99909 0.55415
 C635 C 0.42305 0.92698 0.56637
 C636 C 0.42273 1.07069 0.56600
 N637 N 0.56236 0.96381 0.46770
 N638 N 0.58709 0.94132 0.46108
 N639 N 0.53761 1.03517 0.44700
 N640 N 0.54546 1.05705 0.42541
 N641 N 0.56227 1.03517 0.46785
 N642 N 0.58755 1.05700 0.46091
 N643 N 0.53754 0.96376 0.44700
 N644 N 0.54467 0.94123 0.42584
 Mn645 Mn 0.56260 0.99946 0.50038
 C646 C 0.57546 0.92711 0.43505
 C647 C 0.57646 1.07084 0.43457
 N648 N 0.43654 1.03491 0.46794
 N649 N 0.41189 1.05754 0.46146
 N650 N 0.46132 0.96370 0.44714
 N651 N 0.45372 0.94160 0.42574
 N652 N 0.43668 0.96357 0.46803
 N653 N 0.41165 0.94145 0.46132
 N654 N 0.46136 1.03508 0.44720
 N655 N 0.45431 1.05784 0.42618
 Mn656 Mn 0.43628 0.99908 0.50059
 Mn657 Mn 0.49944 0.99943 0.44685
 Cl658 Cl 0.49944 0.99926 0.50050
 C659 C 0.42358 1.07197 0.43549
 C660 C 0.42289 0.92759 0.43506
 N661 N 1.06341 1.03494 0.53308
 N662 N 1.08787 1.05780 0.53944
 N663 N 1.03824 0.96359 0.55381
 N664 N 1.04480 0.94068 0.57481
 N665 N 1.06322 0.96355 0.53322
 N666 N 1.08755 0.94062 0.53980
 N667 N 1.03853 1.03499 0.55375
 N668 N 1.04533 1.05791 0.57464
 C669 C 1.07600 1.07222 0.56529
 C670 C 1.07544 0.92626 0.56567
 N671 N 0.93745 0.96389 0.53285
 N672 N 0.91303 0.94092 0.53907
 N673 N 0.96249 1.03519 0.55359
 N674 N 0.95598 1.05831 0.57436
 N675 N 0.93765 1.03527 0.53290
 N676 N 0.91348 1.05843 0.53917
 N677 N 0.96219 0.96380 0.55362
 N678 N 0.95534 0.94073 0.57443
 Mn679 Mn 1.00036 0.99939 0.55394
 C680 C 0.92479 0.92640 0.56492
 C681 C 0.92552 1.07288 0.56497
 N682 N 1.06338 0.96366 0.46794
 N683 N 1.08783 0.94084 0.46153
 N684 N 1.03865 1.03512 0.44721
 N685 N 1.04500 1.05856 0.42664
 N686 N 1.06352 1.03505 0.46787
 N687 N 1.08758 1.05844 0.46177
 N688 N 1.03861 0.96374 0.44720
 N689 N 1.04546 0.94093 0.42623
 Mn690 Mn 1.06377 0.99929 0.50052
 C691 C 1.07605 0.92656 0.43559
 C692 C 1.07542 1.07315 0.43610
 N693 N 0.93777 1.03526 0.46767
 N694 N 0.91322 1.05792 0.46106
 N695 N 0.96258 0.96382 0.44708
 N696 N 0.95609 0.94070 0.42631
 N697 N 0.93761 0.96387 0.46766
 N698 N 0.91335 0.94078 0.46132
 N699 N 0.96263 1.03522 0.44698
 N700 N 0.95573 1.05789 0.42585
 Mn701 Mn 0.93724 0.99958 0.50028
 Mn702 Mn 1.00063 0.99947 0.44687
 Cl703 Cl 1.00050 0.99943 0.50041
 C704 C 0.92503 1.07216 0.43507
 C705 C 0.92549 0.92625 0.43559
 N706 N 0.56255 0.53560 0.03250
 N707 N 0.58689 0.55857 0.03881
 N708 N 0.53748 0.46423 0.05303
 N709 N 0.54367 0.44080 0.07361
 N710 N 0.56242 0.46428 0.03242
 N711 N 0.58641 0.44090 0.03857
 N712 N 0.53770 0.53556 0.05318
 N713 N 0.54437 0.55853 0.07403
 C714 C 0.57494 0.57295 0.06463
 C715 C 0.57408 0.42620 0.06420
 N716 N 0.43681 0.46444 0.03231
 N717 N 0.41259 0.44126 0.03844
 N718 N 0.46185 0.53565 0.05308
 N719 N 0.45588 0.55921 0.07354
 N720 N 0.43693 0.53575 0.03249
 N721 N 0.41317 0.55938 0.03850
 N722 N 0.46164 0.46434 0.05298
 N723 N 0.45511 0.44105 0.07364
 Mn724 Mn 0.49966 0.49995 0.05334
 C725 C 0.42462 0.42661 0.06414
 C726 C 0.42561 0.57403 0.06406
 N727 N 0.56249 0.46464 -0.03270
 N728 N 0.58680 0.44168 -0.03905
 N729 N 0.53758 0.53606 -0.05315
 N730 N 0.54350 0.55993 -0.07340
 N731 N 0.56250 0.53594 -0.03255
 N732 N 0.58620 0.55973 -0.03835
 N733 N 0.53769 0.46475 -0.05339
 N734 N 0.54435 0.44183 -0.07429
 Mn735 Mn 0.56291 0.50011 -0.00009
 C736 C 0.57487 0.42738 -0.06491
 C737 C 0.57374 0.57470 -0.06377
 N738 N 0.43685 0.53594 -0.03264
 N739 N 0.41235 0.55869 -0.03909
 N740 N 0.46185 0.46470 -0.05337
 N741 N 0.45589 0.44114 -0.07383
 N742 N 0.43689 0.46461 -0.03279
 N743 N 0.41311 0.44098 -0.03881
 N744 N 0.46172 0.53602 -0.05331
 N745 N 0.45490 0.55888 -0.07428
 Mn746 Mn 0.43644 0.50018 -0.00015
 Mn747 Mn 0.49972 0.50039 -0.05357
 Cl748 Cl 0.49968 0.50016 -0.00012
 C749 C 0.42423 0.57311 -0.06497
 C750 C 0.42558 0.42632 -0.06436
 C751 C 0.36112 1.13789 0.12095
 C752 C 0.39530 1.12872 0.12983
 C753 C 0.41590 1.10789 0.11138
 C754 C 0.32250 1.17384 0.15902
 C755 C 0.36850 1.10589 0.07463
 C756 C 0.34786 1.12674 0.09318
 C757 C 0.33953 1.15769 0.14107
 C758 C 0.40255 1.09592 0.08377
 H759 H 0.40582 1.13721 0.15128
 H760 H 0.44204 1.10066 0.11898
 H761 H 0.35754 1.09702 0.05349
 H762 H 0.32143 1.13368 0.08610
 C763 C 0.85442 0.63204 0.62026
 C764 C 0.86594 0.64469 0.59238
 C765 C 0.88797 0.62501 0.57400
 C766 C 0.81863 0.67047 0.65852
 C767 C 0.88639 0.57968 0.61106
 C768 C 0.86435 0.59934 0.62936
 C769 C 0.83435 0.65317 0.64052
 C770 C 0.89885 0.59251 0.58340
 H771 H 0.85854 0.67002 0.58516
 H772 H 0.89718 0.63554 0.55281
 H773 H 0.89429 0.55473 0.61888
 H774 H 0.85571 0.58933 0.65093
 C775 C 0.63853 0.86142 0.12044
 C776 C 0.65176 0.87266 0.09265
 C777 C 0.63117 0.89368 0.07421
 C778 C 0.67720 0.82542 0.15846
 C779 C 0.58384 0.89168 0.11109
 C780 C 0.60441 0.87067 0.12943
 C781 C 0.66014 0.84156 0.14051
 C782 C 0.59719 0.90375 0.08348
 H783 H 0.67816 0.86568 0.08549
 H784 H 0.64211 0.90264 0.05305
 H785 H 0.55777 0.89898 0.11879
 H786 H 0.59392 0.86212 0.15091
 C787 C 1.14602 0.36754 0.61953
 C788 C 1.13432 0.35499 0.59172
 C789 C 1.11230 0.37480 0.57341
 C790 C 1.18161 0.32891 0.65779
 C791 C 1.11429 0.42007 0.61042
 C792 C 1.13631 0.40027 0.62863
 C793 C 1.16599 0.34628 0.63976
 C794 C 1.10161 0.40733 0.58284
 H795 H 1.14154 0.32964 0.58450
 H796 H 1.10293 0.36434 0.55229
 H797 H 1.10654 0.44503 0.61825
 H798 H 1.14510 0.41021 0.65016
 C799 C 0.63833 1.13925 -0.12021
 C800 C 0.65155 1.12793 -0.09248
 C801 C 0.63095 1.10680 -0.07409
 C802 C 0.67709 1.17517 -0.15825
 C803 C 0.58363 1.10891 -0.11093
 C804 C 0.60420 1.13003 -0.12921
 C805 C 0.65998 1.15910 -0.14027
 C806 C 0.59699 1.09672 -0.08339
 H807 H 0.67796 1.13490 -0.08533
 H808 H 0.64189 1.09776 -0.05298
 H809 H 0.55755 1.10159 -0.11863
 H810 H 0.59373 1.13864 -0.15065
 C811 C 1.14573 0.63244 0.38034
 C812 C 1.13383 0.64519 0.40802
 C813 C 1.11169 0.62547 0.42634
 C814 C 1.18138 0.67092 0.34198
 C815 C 1.11399 0.57993 0.38961
 C816 C 1.13614 0.59962 0.37139
 C817 C 1.16574 0.65361 0.36006
 C818 C 1.10109 0.59287 0.41703
 H819 H 1.14097 0.67062 0.41511
 H820 H 1.10213 0.63608 0.44736
 H821 H 1.10631 0.55489 0.38189
 H822 H 1.14509 0.58955 0.34995
 C823 C 0.36076 0.86151 -0.12025
 C824 C 0.34760 0.87279 -0.09247
 C825 C 0.36828 0.89382 -0.07410
 C826 C 0.32194 0.82557 -0.15821
 C827 C 0.41554 0.89178 -0.11102
 C828 C 0.39489 0.87076 -0.12929
 C829 C 0.33906 0.84165 -0.14026
 C830 C 0.40227 0.90387 -0.08342
 H831 H 0.32120 0.86583 -0.08527
 H832 H 0.35738 0.90278 -0.05296
 H833 H 0.44162 0.89906 -0.11877
 H834 H 0.40534 0.86220 -0.15075
 C835 C 0.85516 0.36627 0.38030
 C836 C 0.86458 0.39915 0.37127
 C837 C 0.88649 0.41905 0.38949
 C838 C 0.81948 0.32770 0.34205
 C839 C 0.88899 0.37358 0.42637
 C840 C 0.86708 0.35366 0.40805
 C841 C 0.83517 0.34500 0.36009
 C842 C 0.89935 0.40628 0.41702
 H843 H 0.85563 0.40915 0.34979
 H844 H 0.89398 0.44414 0.38171
 H845 H 0.89851 0.36308 0.44745
 H846 H 0.86009 0.32820 0.41523
 C847 C 1.14541 0.36721 0.12008
 C848 C 1.13360 0.35450 0.09234
 C849 C 1.11165 0.37426 0.07388
 C850 C 1.18146 0.32890 0.15845
 C851 C 1.11380 0.41979 0.11058
 C852 C 1.13575 0.40005 0.12895
 C853 C 1.16560 0.34611 0.14039
 C854 C 1.10111 0.40693 0.08305
 H855 H 1.14076 0.32908 0.08526
 H856 H 1.10227 0.36368 0.05280
 H857 H 1.10619 0.44486 0.11824
 H858 H 1.14460 0.41015 0.15040
 C859 C 0.63944 0.86166 0.62049
 C860 C 0.60529 0.87056 0.62966
 C861 C 0.58434 0.89127 0.61138
 C862 C 0.67861 0.82612 0.65838
 C863 C 0.63137 0.89362 0.57422
 C864 C 0.65235 0.87291 0.59260
 C865 C 0.66138 0.84209 0.64046
 C866 C 0.59736 0.90337 0.58367
 H867 H 0.59507 0.86198 0.65122
 H868 H 0.55825 0.89834 0.61920
 H869 H 0.64205 0.90261 0.55297
 H870 H 0.67876 0.86617 0.58531
 C871 C 1.14471 0.63467 -0.12276
 C872 C 1.13325 0.64726 -0.09484
 C873 C 1.11147 0.62743 -0.07619
 C874 C 1.18096 0.67302 -0.16125
 C875 C 1.11298 0.58207 -0.11305
 C876 C 1.13476 0.60188 -0.13161
 C877 C 1.16499 0.65579 -0.14316
 C878 C 1.10072 0.59477 -0.08529
 H879 H 1.14062 0.67262 -0.08773
 H880 H 1.10244 0.63792 -0.05496
 H881 H 1.10521 0.55703 -0.12070
 H882 H 1.14330 0.59183 -0.15317
 C883 C 0.63971 1.13618 0.37885
 C884 C 0.65261 1.12524 0.40684
 C885 C 0.63167 1.10464 0.42544
 C886 C 0.67873 1.17212 0.34090
 C887 C 0.58466 1.10639 0.38831
 C888 C 0.60559 1.12698 0.36980
 C889 C 0.66155 1.15593 0.35879
 C890 C 0.59764 1.09469 0.41616
 H891 H 0.67899 1.13220 0.41407
 H892 H 0.64235 1.09597 0.44677
 H893 H 0.55857 1.09917 0.38058
 H894 H 0.59533 1.13530 0.34820
 C895 C 0.85570 0.63320 0.12011
 C896 C 0.86762 0.64615 0.09244
 C897 C 0.88977 0.62660 0.07399
 C898 C 0.81920 0.67114 0.15845
 C899 C 0.88761 0.58082 0.11057
 C900 C 0.86546 0.60035 0.12892
 C901 C 0.83526 0.65408 0.14041
 C902 C 0.90039 0.59390 0.08309
 H903 H 0.86038 0.67158 0.08540
 H904 H 0.89921 0.63735 0.05296
 H905 H 0.89528 0.55573 0.11818
 H906 H 0.85654 0.59007 0.15031
 C907 C 0.36011 1.13691 0.62091
 C908 C 0.39419 1.12773 0.63004
 C909 C 0.41495 1.10687 0.61176
 C910 C 0.32130 1.17292 0.65869
 C911 C 0.36787 1.10490 0.57469
 C912 C 0.34709 1.12576 0.59307
 C913 C 0.33838 1.15673 0.64084
 C914 C 0.40182 1.09491 0.58408
 H915 H 0.40451 1.13623 0.65156
 H916 H 0.44100 1.09961 0.61954
 H917 H 0.35710 1.09602 0.55347
 H918 H 0.32073 1.13272 0.58581
 C919 C 0.85522 0.36817 -0.12104
 C920 C 0.86681 0.35549 -0.09319
 C921 C 0.88894 0.37515 -0.07482
 C922 C 0.81885 0.32986 -0.15917
 C923 C 0.88740 0.42052 -0.11181
 C924 C 0.86527 0.40088 -0.13010
 C925 C 0.83484 0.34711 -0.14124
 C926 C 0.89987 0.40769 -0.08417
 H927 H 0.85935 0.33017 -0.08597
 H928 H 0.89813 0.36459 -0.05366
 H929 H 0.89532 0.44548 -0.11962
 H930 H 0.85660 0.41095 -0.15163
 C931 C 0.36023 0.86202 0.37961
 C932 C 0.34710 0.87301 0.40747
 C933 C 0.36790 0.89363 0.42605
 C934 C 0.32143 0.82650 0.34147
 C935 C 0.41522 0.89169 0.38915
 C936 C 0.39444 0.87108 0.37067
 C937 C 0.33851 0.84249 0.35947
 C938 C 0.40198 0.90352 0.41684
 H939 H 0.32063 0.86614 0.41457
 H940 H 0.35705 0.90242 0.44727
 H941 H 0.44138 0.89887 0.38151
 H942 H 0.40485 0.86268 0.34914
 C943 C 1.13284 1.14456 0.38191
 C944 C 1.09831 1.13540 0.37414
 C945 C 1.07926 1.11295 0.39237
 C946 C 1.17012 1.18071 0.34294
 C947 C 1.12885 1.10949 0.42687
 C948 C 1.14794 1.13194 0.40851
 C949 C 1.15334 1.16485 0.36131
 C950 C 1.09456 1.09932 0.41863
 H951 H 1.08641 1.14491 0.35355
 H952 H 1.05286 1.10566 0.38551
 H953 H 1.14125 1.09935 0.44697
 H954 H 1.17474 1.13876 0.41465
 C955 C 0.63060 0.64615 -0.11787
 C956 C 0.59582 0.63751 -0.12525
 C957 C 0.57686 0.61518 -0.10691
 C958 C 0.66805 0.68105 -0.15738
 C959 C 0.62701 0.61101 -0.07302
 C960 C 0.64601 0.63334 -0.09149
 C961 C 0.65113 0.66579 -0.13880
 C962 C 0.59254 0.60118 -0.08098
 H963 H 0.58373 0.64721 -0.14568
 H964 H 0.55029 0.60813 -0.11351
 H965 H 0.63967 0.60056 -0.05316
 H966 H 0.67301 0.63979 -0.08571
 C967 C 0.86751 1.14346 0.61944
 C968 C 0.85274 1.13126 0.59256
 C969 C 0.87201 1.10906 0.57417
 C970 C 0.82997 1.17970 0.65810
 C971 C 0.92110 1.11184 0.60922
 C972 C 0.90188 1.13404 0.62748
 C973 C 0.84686 1.16374 0.63990
 C974 C 0.90616 1.09870 0.58263
 H975 H 0.82609 1.13828 0.58618
 H976 H 0.85986 1.09930 0.55382
 H977 H 0.94738 1.10439 0.61627
 H978 H 0.91353 1.14322 0.64827
 C979 C 0.36892 0.64507 0.11858
 C980 C 0.40360 0.63615 0.12599
 C981 C 0.42247 0.61391 0.10757
 C982 C 0.33173 0.68029 0.15798
 C983 C 0.37242 0.61031 0.07354
 C984 C 0.35350 0.63256 0.09210
 C985 C 0.34852 0.66485 0.13946
 C986 C 0.40682 0.60027 0.08150
 H987 H 0.41570 0.64562 0.14649
 H988 H 0.44898 0.60670 0.11418
 H989 H 0.35976 0.60015 0.05358
 H990 H 0.32657 0.63922 0.08626
 C991 C 1.13361 0.85652 0.62108
 C992 C 1.09911 0.86578 0.62887
 C993 C 1.07986 0.88771 0.61032
 C994 C 1.17099 0.82052 0.66013
 C995 C 1.12921 0.89057 0.57549
 C996 C 1.14850 0.86863 0.59417
 C997 C 1.15419 0.83639 0.64177
 C998 C 1.09490 0.90075 0.58368
 H999 H 1.08735 0.85667 0.64967
 H1000 H 1.05347 0.89503 0.61718
 H1001 H 1.14145 0.90025 0.55511
 H1002 H 1.17525 0.86173 0.58797
 C1003 C 0.63148 0.35568 0.11895
 C1004 C 0.59682 0.36454 0.12651
 C1005 C 0.57774 0.38664 0.10805
 C1006 C 0.66888 0.32026 0.15817
 C1007 C 0.62757 0.39027 0.07374
 C1008 C 0.64669 0.36817 0.09232
 C1009 C 0.65201 0.33583 0.13975
 C1010 C 0.59316 0.40020 0.08179
 H1011 H 0.58486 0.35510 0.14711
 H1012 H 0.55123 0.39377 0.11475
 H1013 H 0.64006 0.40037 0.05363
 H1014 H 0.67359 0.36154 0.08636
 C1015 C 0.86748 0.85589 0.38090
 C1016 C 0.90199 0.86511 0.37304
 C1017 C 0.92121 0.88723 0.39139
 C1018 C 0.83000 0.81988 0.34204
 C1019 C 0.87182 0.89032 0.42616
 C1020 C 0.85255 0.86819 0.40768
 C1021 C 0.84686 0.83573 0.36032
 C1022 C 0.90612 0.90049 0.41788
 H1023 H 0.91376 0.85584 0.35233
 H1024 H 0.94761 0.89454 0.38448
 H1025 H 0.85955 0.90017 0.44642
 H1026 H 0.82578 0.86133 0.41391
 C1027 C 0.36895 0.35520 -0.11888
 C1028 C 0.40366 0.36413 -0.12627
 C1029 C 0.42251 0.38640 -0.10784
 C1030 C 0.33183 0.31988 -0.15826
 C1031 C 0.37236 0.39001 -0.07387
 C1032 C 0.35346 0.36773 -0.09243
 C1033 C 0.34860 0.33537 -0.13976
 C1034 C 0.40679 0.40006 -0.08179
 H1035 H 0.41582 0.35464 -0.14674
 H1036 H 0.44905 0.39361 -0.11442
 H1037 H 0.35966 0.40019 -0.05393
 H1038 H 0.32652 0.36105 -0.08661
 C1039 C 1.14260 0.36530 -0.12113
 C1040 C 1.13331 0.39807 -0.13050
 C1041 C 1.11218 0.41850 -0.11212
 C1042 C 1.17796 0.32639 -0.15912
 C1043 C 1.11029 0.37375 -0.07449
 C1044 C 1.13142 0.35330 -0.09294
 C1045 C 1.16218 0.34369 -0.14122
 C1046 C 1.10005 0.40635 -0.08414
 H1047 H 1.14181 0.40758 -0.15229
 H1048 H 1.10473 0.44351 -0.12011
 H1049 H 1.10131 0.36375 -0.05303
 H1050 H 1.13843 0.32796 -0.08551
 C1051 C 0.63566 0.85849 0.38009
 C1052 C 0.60141 0.86789 0.37158
 C1053 C 0.58151 0.88952 0.38991
 C1054 C 0.67393 0.82241 0.34172
 C1055 C 0.62970 0.89187 0.42586
 C1056 C 0.64964 0.87024 0.40742
 C1057 C 0.65682 0.83838 0.35980
 C1058 C 0.59562 0.90210 0.41704
 H1059 H 0.59033 0.85906 0.35045
 H1060 H 0.55533 0.89690 0.38254
 H1061 H 0.64125 0.90120 0.44662
 H1062 H 0.67616 0.86323 0.41419
 C1063 C 0.85786 0.63556 -0.12041
 C1064 C 0.86720 0.60281 -0.12973
 C1065 C 0.88863 0.58251 -0.11148
 C1066 C 0.82217 0.67423 -0.15839
 C1067 C 0.89072 0.62735 -0.07404
 C1068 C 0.86929 0.64767 -0.09238
 C1069 C 0.83807 0.65705 -0.14046
 C1070 C 0.90103 0.59479 -0.08367
 H1071 H 0.85851 0.59323 -0.15141
 H1072 H 0.89612 0.55753 -0.11944
 H1073 H 0.89992 0.63744 -0.05271
 H1074 H 0.86225 0.67300 -0.08499
 C1075 C 0.36380 1.14122 0.38076
 C1076 C 0.34960 1.12916 0.40795
 C1077 C 0.36940 1.10733 0.42634
 C1078 C 0.32578 1.17749 0.34232
 C1079 C 0.41788 1.11013 0.39064
 C1080 C 0.39812 1.13195 0.37236
 C1081 C 0.34276 1.16146 0.36045
 C1082 C 0.40356 1.09721 0.41760
 H1083 H 0.32301 1.13606 0.41463
 H1084 H 0.35770 1.09774 0.44698
 H1085 H 0.44412 1.10285 0.38334
 H1086 H 0.40936 1.14102 0.35134
 C1087 C 1.14273 0.63533 0.12049
 C1088 C 1.13341 0.60247 0.12963
 C1089 C 1.11241 0.58214 0.11106
 C1090 C 1.17789 0.67399 0.15882
 C1091 C 1.11072 0.62719 0.07370
 C1092 C 1.13172 0.64753 0.09235
 C1093 C 1.16219 0.65681 0.14078
 C1094 C 1.10043 0.59450 0.08312
 H1095 H 1.14180 0.59281 0.15139
 H1096 H 1.10493 0.55706 0.11887
 H1097 H 1.10184 0.63734 0.05228
 H1098 H 1.13877 0.67295 0.08509
 C1099 C 0.63541 1.14075 0.62038
 C1100 C 0.64928 1.12915 0.59294
 C1101 C 0.62933 1.10742 0.57460
 C1102 C 0.67377 1.17701 0.65854
 C1103 C 0.58136 1.10940 0.61083
 C1104 C 0.60127 1.13111 0.62907
 C1105 C 0.65662 1.16096 0.64056
 C1106 C 0.59536 1.09696 0.58361
 H1107 H 0.67572 1.13634 0.58602
 H1108 H 0.64078 1.09822 0.55375
 H1109 H 0.55527 1.10183 0.61835
 H1110 H 0.59030 1.13984 0.65028
 C1111 C 0.85909 0.36502 0.12084
 C1112 C 0.87007 0.35307 0.09261
 C1113 C 0.89121 0.37350 0.07404
 C1114 C 0.82327 0.32620 0.15888
 C1115 C 0.88983 0.41814 0.11166
 C1116 C 0.86869 0.39772 0.13015
 C1117 C 0.83927 0.34347 0.14098
 C1118 C 0.90169 0.40606 0.08359
 H1119 H 0.86283 0.32779 0.08519
 H1120 H 0.89997 0.36353 0.05253
 H1121 H 0.89746 0.44310 0.11960
 H1122 H 0.86037 0.40722 0.15197
 C1123 C 0.36209 0.85913 0.62205
 C1124 C 0.39634 0.86860 0.63055
 C1125 C 0.41644 0.89000 0.61205
 C1126 C 0.32365 0.82297 0.66054
 C1127 C 0.36844 0.89210 0.57593
 C1128 C 0.34830 0.87069 0.59454
 C1129 C 0.34080 0.83900 0.64241
 C1130 C 0.40257 0.90232 0.58470
 H1131 H 0.40731 0.85993 0.65179
 H1132 H 0.44263 0.89738 0.61942
 H1133 H 0.35704 0.90121 0.55502
 H1134 H 0.32180 0.86365 0.58773
 C1135 C 0.36528 1.14270 -0.11993
 C1136 C 0.35094 1.13074 -0.09276
 C1137 C 0.37054 1.10874 -0.07435
 C1138 C 0.32753 1.17921 -0.15841
 C1139 C 0.41908 1.11119 -0.11001
 C1140 C 0.39953 1.13317 -0.12829
 C1141 C 0.34441 1.16308 -0.14027
 C1142 C 0.40461 1.09836 -0.08306
 H1143 H 0.32440 1.13784 -0.08610
 H1144 H 0.35872 1.09924 -0.05373
 H1145 H 0.44527 1.10371 -0.11728
 H1146 H 0.41087 1.14217 -0.14930
 C1147 C 0.85958 0.63676 0.37917
 C1148 C 0.87021 0.64818 0.40765
 C1149 C 0.89079 0.62727 0.42615
 C1150 C 0.82483 0.67632 0.34127
 C1151 C 0.88948 0.58322 0.38796
 C1152 C 0.86888 0.60412 0.36954
 C1153 C 0.84040 0.65878 0.35914
 C1154 C 0.90105 0.59479 0.41626
 H1155 H 0.86315 0.67341 0.41531
 H1156 H 0.89936 0.63683 0.44786
 H1157 H 0.89697 0.55832 0.37979
 H1158 H 0.86078 0.59506 0.34751
 C1159 C 0.63499 1.14272 0.11955
 C1160 C 0.60072 1.13317 0.12793
 C1161 C 0.58114 1.11115 0.10970
 C1162 C 0.67278 1.17929 0.15795
 C1163 C 0.62969 1.10868 0.07408
 C1164 C 0.64932 1.13071 0.09242
 C1165 C 0.65588 1.16315 0.13984
 C1166 C 0.59559 1.09830 0.08280
 H1167 H 0.58938 1.14219 0.14890
 H1168 H 0.55494 1.10368 0.11699
 H1169 H 0.64150 1.09916 0.05349
 H1170 H 0.67587 1.13780 0.08574
 C1171 C 1.13930 0.63844 0.62035
 C1172 C 1.12849 0.64968 0.59184
 C1173 C 1.10796 0.62856 0.57349
 C1174 C 1.17412 0.67823 0.65803
 C1175 C 1.10966 0.58464 0.61189
 C1176 C 1.13019 0.60576 0.63017
 C1177 C 1.15852 0.66064 0.64022
 C1178 C 1.09794 0.59602 0.58355
 H1179 H 1.13538 0.67493 0.58403
 H1180 H 1.09928 0.63798 0.55175
 H1181 H 1.10235 0.55972 0.62021
 H1182 H 1.13843 0.59683 0.65221
 C1183 C 0.63481 0.85793 -0.12023
 C1184 C 0.60055 0.86746 -0.12856
 C1185 C 0.58095 0.88933 -0.11023
 C1186 C 0.67256 0.82137 -0.15865
 C1187 C 0.62948 0.89169 -0.07461
 C1188 C 0.64911 0.86980 -0.09305
 C1189 C 0.65568 0.83755 -0.14056
 C1190 C 0.59538 0.90205 -0.08327
 H1191 H 0.58922 0.85853 -0.14956
 H1192 H 0.55475 0.89680 -0.11747
 H1193 H 0.64126 0.90111 -0.05398
 H1194 H 0.67565 0.86269 -0.08642
 C1195 C 1.14047 0.36365 0.37903
 C1196 C 1.13087 0.39619 0.36926
 C1197 C 1.11012 0.41699 0.38763
 C1198 C 1.17548 0.32417 0.34127
 C1199 C 1.10921 0.37302 0.42602
 C1200 C 1.12995 0.35223 0.40758
 C1201 C 1.15982 0.34170 0.35907
 C1202 C 1.09867 0.40541 0.41601
 H1203 H 1.13887 0.40525 0.34718
 H1204 H 1.10241 0.44180 0.37936
 H1205 H 1.10075 0.36346 0.44779
 H1206 H 1.13722 0.32707 0.41534
 C1207 C 0.36556 0.85720 0.11991
 C1208 C 0.39988 0.86666 0.12814
 C1209 C 0.41940 0.88866 0.10981
 C1210 C 0.32782 0.82080 0.15849
 C1211 C 0.37069 0.89123 0.07437
 C1212 C 0.35113 0.86921 0.09281
 C1213 C 0.34472 0.83688 0.14031
 C1214 C 0.40482 0.90156 0.08296
 H1215 H 0.41129 0.85761 0.14909
 H1216 H 0.44564 0.89611 0.11699
 H1217 H 0.35881 0.90080 0.05382
 H1218 H 0.32454 0.86216 0.08627
 C1219 C 0.85960 0.36287 0.62035
 C1220 C 0.87040 0.35149 0.59191
 C1221 C 0.89119 0.37240 0.57355
 C1222 C 0.82470 0.32329 0.65815
 C1223 C 0.88970 0.41640 0.61181
 C1224 C 0.86890 0.39549 0.63009
 C1225 C 0.84031 0.34082 0.64029
 C1226 C 0.90147 0.40485 0.58356
 H1227 H 0.86335 0.32627 0.58419
 H1228 H 0.89991 0.36288 0.55187
 H1229 H 0.89721 0.44126 0.62006
 H1230 H 0.86066 0.40450 0.65210
 C1231 C 1.13534 1.14179 0.61966
 C1232 C 1.14965 1.12975 0.59256
 C1233 C 1.12994 1.10784 0.57425
 C1234 C 1.17313 1.17820 0.65796
 C1235 C 1.08134 1.11059 0.60985
 C1236 C 1.10101 1.13250 0.62805
 C1237 C 1.15628 1.16205 0.63990
 C1238 C 1.09580 1.09764 0.58300
 H1239 H 1.17625 1.13671 0.58591
 H1240 H 1.14172 1.09822 0.55368
 H1241 H 1.05509 1.10324 0.61713
 H1242 H 1.08972 1.14161 0.64901
 C1243 C 0.63428 0.64177 0.11942
 C1244 C 0.64871 0.62982 0.09236
 C1245 C 0.62895 0.60822 0.07383
 C1246 C 0.67218 0.67724 0.15816
 C1247 C 0.58005 0.61127 0.10915
 C1248 C 0.59978 0.63285 0.12755
 C1249 C 0.65527 0.66150 0.13992
 C1250 C 0.59467 0.59830 0.08238
 H1251 H 0.67546 0.63653 0.08593
 H1252 H 0.64082 0.59857 0.05332
 H1253 H 0.55367 0.60411 0.11624
 H1254 H 0.58841 0.64195 0.14850
 C1255 C 1.13551 0.85753 0.38079
 C1256 C 1.14982 0.86945 0.40793
 C1257 C 1.13007 0.89117 0.42640
 C1258 C 1.17329 0.82143 0.34225
 C1259 C 1.08144 0.88844 0.39087
 C1260 C 1.10115 0.86673 0.37252
 C1261 C 1.15645 0.83745 0.36042
 C1262 C 1.09590 0.90128 0.41775
 H1263 H 1.17645 0.86256 0.41450
 H1264 H 1.14185 0.90071 0.44698
 H1265 H 1.05517 0.89573 0.38367
 H1266 H 1.08985 0.85771 0.35154
 C1267 C 0.63414 0.35875 -0.11991
 C1268 C 0.64858 0.37063 -0.09282
 C1269 C 0.62884 0.39216 -0.07423
 C1270 C 0.67198 0.32326 -0.15867
 C1271 C 0.57996 0.38920 -0.10952
 C1272 C 0.59966 0.36768 -0.12799
 C1273 C 0.65510 0.33903 -0.14043
 C1274 C 0.59458 0.40209 -0.08273
 H1275 H 0.67531 0.36389 -0.08643
 H1276 H 0.64072 0.40175 -0.05370
 H1277 H 0.55359 0.39637 -0.11657
 H1278 H 0.58829 0.35864 -0.14894
 C1279 C 0.86528 1.14083 0.37996
 C1280 C 0.89958 1.13151 0.37157
 C1281 C 0.91937 1.10989 0.38998
 C1282 C 0.82737 1.17708 0.34154
 C1283 C 0.87094 1.10744 0.42577
 C1284 C 0.85111 1.12907 0.40725
 C1285 C 0.84427 1.16096 0.35962
 C1286 C 0.90507 1.09726 0.41705
 H1287 H 0.91078 1.14040 0.35047
 H1288 H 0.94560 1.10253 0.38272
 H1289 H 0.85927 1.09807 0.44650
 H1290 H 0.82454 1.13606 0.41392
 C1291 C 0.36453 0.64147 -0.12013
 C1292 C 0.39904 0.63264 -0.12824
 C1293 C 0.41885 0.61118 -0.10975
 C1294 C 0.32663 0.67719 -0.15880
 C1295 C 0.37001 0.60802 -0.07438
 C1296 C 0.35016 0.62949 -0.09300
 C1297 C 0.34352 0.66129 -0.14061
 C1298 C 0.40433 0.59824 -0.08289
 H1299 H 0.41037 0.64175 -0.14922
 H1300 H 0.44525 0.60413 -0.11682
 H1301 H 0.35819 0.59839 -0.05381
 H1302 H 0.32341 0.63614 -0.08656
 C1303 C 0.86512 0.85676 0.61908
 C1304 C 0.85095 0.86891 0.59196
 C1305 C 0.87080 0.89081 0.57368
 C1306 C 0.82702 0.82076 0.65751
 C1307 C 0.91928 0.88777 0.60936
 C1308 C 0.89947 0.86587 0.62752
 C1309 C 0.84400 0.83670 0.63936
 C1310 C 0.90493 0.90087 0.58251
 H1311 H 0.82433 0.86209 0.58529
 H1312 H 0.85911 0.90055 0.55312
 H1313 H 0.94552 0.89502 0.61668
 H1314 H 0.91064 0.85667 0.64850
 C1315 C 0.36568 0.35720 0.11878
 C1316 C 0.35099 0.36955 0.09194
 C1317 C 0.37065 0.39129 0.07340
 C1318 C 0.32793 0.32188 0.15781
 C1319 C 0.41993 0.38755 0.10823
 C1320 C 0.40032 0.36581 0.12664
 C1321 C 0.34476 0.33753 0.13942
 C1322 C 0.40505 0.40097 0.08173
 H1323 H 0.32412 0.36307 0.08574
 H1324 H 0.35858 0.40130 0.05310
 H1325 H 0.44642 0.39451 0.11514
 H1326 H 0.41187 0.35641 0.14742
   
