data_POSCAR
  _audit_creation_date              2014-09-24
  _audit_creation_method            'ToBaCCo'
  _symmetry_space_group_name_H-M    'P1'
  _symmetry_Int_Tables_number       1
  _symmetry_cell_setting            triclinic
  loop_
  _symmetry_equiv_pos_as_xyz
 x,y,z
_cell_length_a 95.9300
_cell_length_b 93.9964
_cell_length_c 97.2438
_cell_angle_alpha 89.983000
_cell_angle_beta 89.480800
_cell_angle_gamma 89.697700
loop_
  _atom_site_label
  _atom_site_type_symbol
  _atom_site_fract_x
  _atom_site_fract_y
  _atom_site_fract_z
N1 N 0.35972 0.31313 0.33527
 N2 N 0.36057 0.32221 0.32503
 C3 C 0.37251 0.31981 0.31799
 C4 C 0.37955 0.30863 0.32419
 C5 C 0.37110 0.30470 0.33515
 H6 H 0.37579 0.32568 0.30898
 H7 H 0.37285 0.29604 0.34225
 Cu8 Cu 0.34579 0.33600 0.32168
 Cu9 Cu 0.34354 0.31216 0.34744
 Cu10 Cu 0.31630 0.33540 0.34058
 N11 N 0.33057 0.34924 0.31821
 N12 N 0.31902 0.34882 0.32556
 C13 C 0.31042 0.35928 0.32139
 C14 C 0.31689 0.36673 0.31082
 C15 C 0.32968 0.35998 0.30909
 H16 H 0.30036 0.36147 0.32602
 H17 H 0.33786 0.36280 0.30189
 N18 N 0.31557 0.32116 0.35542
 N19 N 0.32620 0.31278 0.35841
 C20 C 0.32281 0.30479 0.36943
 C21 C 0.30935 0.30820 0.37347
 C22 C 0.30506 0.31858 0.36434
 H23 H 0.32951 0.29687 0.37404
 H24 H 0.29512 0.32405 0.36442
 H25 H 0.32972 0.31974 0.33309
 H26 H 0.33723 0.33303 0.34520
 N27 N 0.35322 0.81820 -0.17076
 N28 N 0.35238 0.82716 -0.18109
 C29 C 0.36344 0.82537 -0.18946
 C30 C 0.37182 0.81461 -0.18422
 C31 C 0.36490 0.81028 -0.17228
 H32 H 0.36512 0.83144 -0.19874
 H33 H 0.36821 0.80226 -0.16502
 Cu34 Cu 0.33710 0.84057 -0.18273
 Cu35 Cu 0.33944 0.81852 -0.15576
 Cu36 Cu 0.30862 0.83652 -0.16335
 N37 N 0.32208 0.85444 -0.18308
 N38 N 0.31080 0.85278 -0.17554
 C39 C 0.30179 0.86343 -0.17822
 C40 C 0.30777 0.87235 -0.18803
 C41 C 0.32072 0.86622 -0.19079
 H42 H 0.29160 0.86437 -0.17346
 H43 H 0.32858 0.86987 -0.19795
 N44 N 0.31064 0.82374 -0.14749
 N45 N 0.32232 0.81707 -0.14433
 C46 C 0.32042 0.81015 -0.13230
 C47 C 0.30695 0.81278 -0.12763
 C48 C 0.30108 0.82137 -0.13759
 H49 H 0.32841 0.80414 -0.12705
 H50 H 0.29071 0.82593 -0.13749
 H51 H 0.32454 0.82238 -0.16970
 H52 H 0.32932 0.83803 -0.15898
 N53 N 0.85402 0.32404 -0.17591
 N54 N 0.85444 0.33542 -0.18375
 C55 C 0.86492 0.33412 -0.19291
 C56 C 0.87155 0.32120 -0.19077
 C57 C 0.86436 0.31509 -0.17982
 H58 H 0.86752 0.34208 -0.20052
 H59 H 0.86634 0.30484 -0.17517
 Cu60 Cu 0.84121 0.35089 -0.18172
 Cu61 Cu 0.83994 0.32189 -0.16140
 Cu62 Cu 0.81326 0.34692 -0.16118
 N63 N 0.82498 0.36304 -0.18340
 N64 N 0.81400 0.36150 -0.17541
 C65 C 0.80438 0.37135 -0.17877
 C66 C 0.80960 0.37956 -0.18955
 C67 C 0.82276 0.37386 -0.19216
 H68 H 0.79436 0.37237 -0.17371
 H69 H 0.83030 0.37725 -0.19978
 N70 N 0.81448 0.33139 -0.14763
 N71 N 0.82463 0.32185 -0.14764
 C72 C 0.82275 0.31301 -0.13688
 C73 C 0.81085 0.31720 -0.12970
 C74 C 0.80591 0.32888 -0.13689
 H75 H 0.82972 0.30437 -0.13430
 H76 H 0.79678 0.33520 -0.13445
 H77 H 0.82552 0.33300 -0.17274
 H78 H 0.83452 0.34300 -0.15875
 N79 N 0.85724 0.81749 0.32244
 N80 N 0.85590 0.82821 0.31388
 C81 C 0.86606 0.82737 0.30424
 C82 C 0.87425 0.81549 0.30694
 C83 C 0.86827 0.80949 0.31858
 H84 H 0.86751 0.83496 0.29602
 H85 H 0.87164 0.80000 0.32390
 Cu86 Cu 0.84113 0.84232 0.31639
 Cu87 Cu 0.84480 0.81473 0.33811
 Cu88 Cu 0.81828 0.83951 0.34268
 N89 N 0.82591 0.85593 0.31885
 N90 N 0.81716 0.85486 0.32925
 C91 C 0.80783 0.86558 0.32866
 C92 C 0.81079 0.87390 0.31718
 C93 C 0.82240 0.86735 0.31123
 H94 H 0.79946 0.86703 0.33604
 H95 H 0.82797 0.87062 0.30207
 N96 N 0.82112 0.82320 0.35513
 N97 N 0.83119 0.81375 0.35335
 C98 C 0.83040 0.80397 0.36345
 C99 C 0.81927 0.80738 0.37203
 C100 C 0.81365 0.81966 0.36640
 H101 H 0.83738 0.79498 0.36442
 H102 H 0.80484 0.82568 0.37029
 H103 H 0.82775 0.82500 0.32963
 H104 H 0.83942 0.83590 0.34065
 N105 N 0.64213 0.68577 0.32686
 N106 N 0.64030 0.67504 0.31842
 C107 C 0.62828 0.67705 0.31158
 C108 C 0.62219 0.68964 0.31616
 C109 C 0.63131 0.69484 0.32587
 H110 H 0.62410 0.66969 0.30416
 H111 H 0.63015 0.70448 0.33184
 Cu112 Cu 0.65311 0.65877 0.31811
 Cu113 Cu 0.65828 0.68670 0.33865
 Cu114 Cu 0.68107 0.65958 0.34061
 N115 N 0.66852 0.64470 0.31746
 N116 N 0.67910 0.64504 0.32604
 C117 C 0.68781 0.63415 0.32312
 C118 C 0.68254 0.62654 0.31212
 C119 C 0.67029 0.63364 0.30880
 H120 H 0.69726 0.63193 0.32869
 H121 H 0.66318 0.63101 0.30064
 N122 N 0.68052 0.67490 0.35424
 N123 N 0.67142 0.68536 0.35358
 C124 C 0.67292 0.69391 0.36454
 C125 C 0.68364 0.68861 0.37256
 C126 C 0.68824 0.67652 0.36564
 H127 H 0.66663 0.70327 0.36648
 H128 H 0.69639 0.66926 0.36877
 H129 H 0.67083 0.66954 0.32442
 H130 H 0.66008 0.66107 0.33831
 N131 N 0.64367 0.18607 -0.17334
 N132 N 0.64273 0.17631 -0.18293
 C133 C 0.63170 0.17933 -0.19093
 C134 C 0.62541 0.19168 -0.18607
 C135 C 0.63333 0.19562 -0.17487
 H136 H 0.62860 0.17311 -0.19971
 H137 H 0.63166 0.20469 -0.16823
 Cu138 Cu 0.65607 0.16069 -0.18402
 Cu139 Cu 0.65828 0.18586 -0.15967
 Cu140 Cu 0.68279 0.15870 -0.16173
 N141 N 0.67007 0.14572 -0.18524
 N142 N 0.68050 0.14495 -0.17661
 C143 C 0.68855 0.13365 -0.17993
 C144 C 0.68287 0.12690 -0.19131
 C145 C 0.67111 0.13497 -0.19433
 H146 H 0.69782 0.13066 -0.17439
 H147 H 0.66382 0.13326 -0.20254
 N148 N 0.68321 0.17369 -0.14745
 N149 N 0.67379 0.18394 -0.14675
 C150 C 0.67674 0.19253 -0.13613
 C151 C 0.68864 0.18756 -0.12976
 C152 C 0.69245 0.17553 -0.13721
 H153 H 0.67057 0.20169 -0.13321
 H154 H 0.70135 0.16871 -0.13541
 H155 H 0.67289 0.17518 -0.17175
 H156 H 0.66202 0.16410 -0.15990
 N157 N 0.13941 0.68443 -0.16276
 N158 N 0.13790 0.67456 -0.17218
 C159 C 0.12674 0.67774 -0.17989
 C160 C 0.12084 0.69028 -0.17503
 C161 C 0.12922 0.69421 -0.16411
 H162 H 0.12307 0.67121 -0.18825
 H163 H 0.12798 0.70342 -0.15756
 Cu164 Cu 0.15043 0.65829 -0.17343
 Cu165 Cu 0.15399 0.68327 -0.14899
 Cu166 Cu 0.17948 0.65767 -0.15449
 N167 N 0.16609 0.64595 -0.17808
 N168 N 0.17756 0.64593 -0.17080
 C169 C 0.18650 0.63623 -0.17603
 C170 C 0.18031 0.62976 -0.18724
 C171 C 0.16734 0.63627 -0.18821
 H172 H 0.19664 0.63395 -0.17181
 H173 H 0.15925 0.63398 -0.19553
 N174 N 0.18089 0.67238 -0.14017
 N175 N 0.17118 0.68214 -0.13801
 C176 C 0.17497 0.69032 -0.12732
 C177 C 0.18767 0.68544 -0.12245
 C178 C 0.19109 0.67408 -0.13093
 H179 H 0.16876 0.69896 -0.12317
 H180 H 0.20029 0.66743 -0.13036
 H181 H 0.16745 0.67372 -0.16282
 H182 H 0.15888 0.66197 -0.14988
 N183 N 0.13811 0.19269 0.32935
 N184 N 0.13571 0.18130 0.32195
 C185 C 0.12387 0.18328 0.31483
 C186 C 0.11853 0.19663 0.31804
 C187 C 0.12791 0.20227 0.32727
 H188 H 0.11937 0.17547 0.30805
 H189 H 0.12736 0.21257 0.33217
 Cu190 Cu 0.14807 0.16489 0.32272
 Cu191 Cu 0.15388 0.19404 0.34161
 Cu192 Cu 0.17806 0.16659 0.34067
 N193 N 0.16308 0.15125 0.31996
 N194 N 0.17467 0.15173 0.32705
 C195 C 0.18314 0.14105 0.32291
 C196 C 0.17653 0.13349 0.31259
 C197 C 0.16380 0.14034 0.31105
 H198 H 0.19345 0.13914 0.32692
 H199 H 0.15562 0.13765 0.30396
 N200 N 0.17941 0.18289 0.35345
 N201 N 0.17039 0.19353 0.35335
 C202 C 0.17400 0.20312 0.36290
 C203 C 0.18584 0.19832 0.36944
 C204 C 0.18898 0.18540 0.36324
 H205 H 0.16817 0.21268 0.36528
 H206 H 0.19759 0.17839 0.36565
 H207 H 0.16656 0.18088 0.32949
 H208 H 0.15774 0.17244 0.34465
 N209 N 0.64049 0.31892 0.67754
 N210 N 0.64339 0.32672 0.68833
 C211 C 0.63348 0.32490 0.69801
 C212 C 0.62373 0.31542 0.69306
 C213 C 0.62855 0.31181 0.68000
 H214 H 0.63335 0.33023 0.70785
 H215 H 0.62360 0.30485 0.67269
 Cu216 Cu 0.65931 0.33925 0.68857
 Cu217 Cu 0.65217 0.31930 0.66098
 Cu218 Cu 0.68331 0.33788 0.66351
 N219 N 0.67237 0.35467 0.68571
 N220 N 0.68201 0.35405 0.67606
 C221 C 0.68993 0.36580 0.67673
 C222 C 0.68486 0.37437 0.68731
 C223 C 0.67369 0.36688 0.69276
 H224 H 0.69864 0.36795 0.66992
 H225 H 0.66709 0.36993 0.70134
 N226 N 0.67932 0.32465 0.64834
 N227 N 0.66744 0.31775 0.64725
 C228 C 0.66790 0.30973 0.63578
 C229 C 0.68067 0.31173 0.62925
 C230 C 0.68761 0.32131 0.63757
 H231 H 0.65952 0.30296 0.63245
 H232 H 0.69794 0.32555 0.63597
 H233 H 0.66988 0.32253 0.67212
 H234 H 0.66241 0.33864 0.66371
 N235 N 0.64073 0.81380 1.17403
 N236 N 0.63800 0.82527 1.18131
 C237 C 0.62526 0.82402 1.18712
 C238 C 0.61971 0.81108 1.18315
 C239 C 0.62985 0.80487 1.17490
 H240 H 0.62040 0.83191 1.19371
 H241 H 0.62953 0.79447 1.17016
 Cu242 Cu 0.65158 0.84046 1.18267
 Cu243 Cu 0.65850 0.81094 1.16472
 Cu244 Cu 0.67832 0.84139 1.16014
 N245 N 0.66698 0.85357 1.18489
 N246 N 0.67729 0.85417 1.17591
 C247 C 0.68603 0.86466 1.17952
 C248 C 0.68101 0.87088 1.19154
 C249 C 0.66890 0.86350 1.19463
 H250 H 0.69537 0.86744 1.17384
 H251 H 0.66186 0.86530 1.20320
 N252 N 0.68091 0.82410 1.14892
 N253 N 0.67367 0.81240 1.15109
 C254 C 0.67773 0.80244 1.14197
 C255 C 0.68810 0.80806 1.13365
 C256 C 0.68985 0.82186 1.13837
 H257 H 0.67306 0.79204 1.14116
 H258 H 0.69712 0.82968 1.13450
 H259 H 0.67108 0.82661 1.17321
 H260 H 0.65838 0.83194 1.15975
 N261 N 0.14087 0.31552 1.17467
 N262 N 0.14276 0.32529 1.18410
 C263 C 0.13250 0.32439 1.19358
 C264 C 0.12367 0.31343 1.18994
 C265 C 0.12935 0.30804 1.17784
 H266 H 0.13146 0.33134 1.20238
 H267 H 0.12546 0.29933 1.17176
 Cu268 Cu 0.15830 0.33843 1.18307
 Cu269 Cu 0.15339 0.31330 1.15898
 Cu270 Cu 0.18078 0.33709 1.15630
 N271 N 0.17343 0.35194 1.18111
 N272 N 0.18217 0.35146 1.17064
 C273 C 0.19143 0.36210 1.17184
 C274 C 0.18832 0.36970 1.18371
 C275 C 0.17682 0.36288 1.18931
 H276 H 0.19970 0.36422 1.16451
 H277 H 0.17135 0.36561 1.19871
 N278 N 0.17761 0.32179 1.14285
 N279 N 0.16717 0.31277 1.14387
 C280 C 0.16783 0.30360 1.13325
 C281 C 0.17926 0.30697 1.12511
 C282 C 0.18520 0.31859 1.13154
 H283 H 0.16049 0.29513 1.13156
 H284 H 0.19448 0.32420 1.12834
 H285 H 0.17083 0.32183 1.16810
 H286 H 0.15944 0.33438 1.15833
 N287 N 0.14228 0.81192 0.68079
 N288 N 0.14500 0.82073 0.69088
 C289 C 0.13530 0.81931 0.70083
 C290 C 0.12591 0.80899 0.69682
 C291 C 0.13071 0.80454 0.68400
 H292 H 0.13501 0.82555 0.71016
 H293 H 0.12616 0.79656 0.67745
 Cu294 Cu 0.16074 0.83348 0.69008
 Cu295 Cu 0.15385 0.81098 0.66421
 Cu296 Cu 0.17905 0.83707 0.66067
 N297 N 0.17270 0.84967 0.68689
 N298 N 0.18002 0.85099 0.67549
 C299 C 0.18750 0.86306 0.67612
 C300 C 0.18460 0.86967 0.68857
 C301 C 0.17514 0.86085 0.69512
 H302 H 0.19435 0.86683 0.66804
 H303 H 0.17047 0.86235 0.70518
 N304 N 0.17628 0.82193 0.64694
 N305 N 0.16670 0.81199 0.64828
 C306 C 0.16753 0.80317 0.63738
 C307 C 0.17816 0.80775 0.62872
 C308 C 0.18344 0.81970 0.63516
 H309 H 0.16098 0.79399 0.63597
 H310 H 0.19189 0.82633 0.63158
 H311 H 0.17198 0.81976 0.67179
 H312 H 0.15848 0.83245 0.66527
 N313 N 0.35729 0.69046 0.67158
 N314 N 0.35763 0.68087 0.68140
 C315 C 0.36856 0.68342 0.68958
 C316 C 0.37553 0.69530 0.68474
 C317 C 0.36802 0.69951 0.67325
 H318 H 0.37115 0.67713 0.69850
 H319 H 0.37019 0.70844 0.66656
 Cu320 Cu 0.34402 0.66571 0.68270
 Cu321 Cu 0.34285 0.69030 0.65744
 Cu322 Cu 0.31880 0.66285 0.65929
 N323 N 0.33060 0.65031 0.68339
 N324 N 0.32073 0.64918 0.67421
 C325 C 0.31296 0.63765 0.67709
 C326 C 0.31827 0.63112 0.68874
 C327 C 0.32950 0.63949 0.69241
 H328 H 0.30412 0.63431 0.67111
 H329 H 0.33635 0.63790 0.70103
 N330 N 0.31841 0.67760 0.64493
 N331 N 0.32742 0.68814 0.64416
 C332 C 0.32410 0.69645 0.63333
 C333 C 0.31242 0.69087 0.62697
 C334 C 0.30919 0.67891 0.63466
 H335 H 0.32969 0.70594 0.63037
 H336 H 0.30072 0.67163 0.63295
 H337 H 0.32801 0.68010 0.66907
 H338 H 0.33972 0.66874 0.65823
 N339 N 0.36238 0.18396 1.16726
 N340 N 0.36205 0.17472 1.17739
 C341 C 0.37376 0.17604 1.18482
 C342 C 0.38185 0.18668 1.17900
 C343 C 0.37427 0.19142 1.16785
 H344 H 0.37624 0.16974 1.19378
 H345 H 0.37696 0.20002 1.16095
 Cu346 Cu 0.34624 0.16202 1.17977
 Cu347 Cu 0.34710 0.18624 1.15445
 Cu348 Cu 0.31860 0.16398 1.15861
 N349 N 0.33004 0.14987 1.18221
 N350 N 0.31937 0.15042 1.17383
 C351 C 0.30987 0.14069 1.17781
 C352 C 0.31482 0.13373 1.18939
 C353 C 0.32768 0.13985 1.19179
 H354 H 0.30005 0.13893 1.17273
 H355 H 0.33491 0.13706 1.19981
 N356 N 0.31985 0.17846 1.14386
 N357 N 0.33067 0.18698 1.14252
 C358 C 0.32832 0.19614 1.13219
 C359 C 0.31544 0.19333 1.12666
 C360 C 0.31034 0.18197 1.13425
 H361 H 0.33543 0.20436 1.12889
 H362 H 0.30028 0.17700 1.13311
 H363 H 0.33156 0.17902 1.16751
 H364 H 0.33995 0.16569 1.15579
 N365 N 0.85674 0.68549 1.16999
 N366 N 0.85680 0.67723 1.18097
 C367 C 0.86843 0.67986 1.18822
 C368 C 0.87608 0.69033 1.18149
 C369 C 0.86827 0.69355 1.16996
 H370 H 0.87102 0.67466 1.19778
 H371 H 0.87064 0.70140 1.16219
 Cu372 Cu 0.84150 0.66380 1.18524
 Cu373 Cu 0.84130 0.68612 1.15672
 Cu374 Cu 0.81391 0.66555 1.16447
 N375 N 0.82728 0.64891 1.18518
 N376 N 0.81645 0.64979 1.17706
 C377 C 0.80817 0.63851 1.17914
 C378 C 0.81403 0.62996 1.18919
 C379 C 0.82620 0.63697 1.19282
 H380 H 0.79852 0.63682 1.17376
 H381 H 0.83373 0.63366 1.20039
 N382 N 0.81418 0.67721 1.14805
 N383 N 0.82495 0.68521 1.14498
 C384 C 0.82251 0.69197 1.13302
 C385 C 0.80954 0.68789 1.12828
 C386 C 0.80457 0.67849 1.13812
 H387 H 0.82975 0.69914 1.12805
 H388 H 0.79472 0.67296 1.13810
 H389 H 0.83184 0.68057 1.17488
 H390 H 0.83920 0.66568 1.16442
 N391 N 0.85783 0.18339 0.67454
 N392 N 0.85654 0.17296 0.68344
 C393 C 0.86681 0.17389 0.69274
 C394 C 0.87504 0.18552 0.68950
 C395 C 0.86897 0.19128 0.67785
 H396 H 0.86813 0.16664 0.70125
 H397 H 0.87241 0.20047 0.67210
 Cu398 Cu 0.84160 0.15916 0.68192
 Cu399 Cu 0.84499 0.18594 0.65934
 Cu400 Cu 0.81797 0.16176 0.65664
 N401 N 0.82627 0.14583 0.68047
 N402 N 0.81710 0.14684 0.67056
 C403 C 0.80772 0.13633 0.67196
 C404 C 0.81115 0.12825 0.68340
 C405 C 0.82301 0.13466 0.68852
 H406 H 0.79908 0.13471 0.66509
 H407 H 0.82883 0.13149 0.69747
 N408 N 0.82070 0.17763 0.64361
 N409 N 0.83099 0.18680 0.64466
 C410 C 0.83012 0.19628 0.63432
 C411 C 0.81872 0.19296 0.62630
 C412 C 0.81300 0.18105 0.63255
 H413 H 0.83727 0.20498 0.63280
 H414 H 0.80396 0.17521 0.62925
 H415 H 0.82799 0.17630 0.66881
 H416 H 0.83916 0.16477 0.65757
 N417 N 0.31550 0.35470 0.67472
 N418 N 0.32541 0.35288 0.68381
 C419 C 0.32397 0.36280 0.69374
 C420 C 0.31263 0.37136 0.69061
 C421 C 0.30754 0.36590 0.67845
 H422 H 0.33076 0.36385 0.70249
 H423 H 0.29858 0.36966 0.67282
 Cu424 Cu 0.33935 0.33789 0.68150
 Cu425 Cu 0.31337 0.34228 0.65888
 Cu426 Cu 0.33756 0.31503 0.65501
 N427 N 0.35285 0.32248 0.67923
 N428 N 0.35210 0.31364 0.66881
 C429 C 0.36264 0.30419 0.66953
 C430 C 0.37049 0.30718 0.68108
 C431 C 0.36390 0.31889 0.68698
 H432 H 0.36443 0.29580 0.66211
 H433 H 0.36691 0.32444 0.69620
 N434 N 0.32209 0.31816 0.64214
 N435 N 0.31294 0.32858 0.64356
 C436 C 0.30370 0.32788 0.63324
 C437 C 0.30718 0.31644 0.62489
 C438 C 0.31892 0.31055 0.63087
 H439 H 0.29498 0.33507 0.63201
 H440 H 0.32479 0.30144 0.62724
 H441 H 0.32281 0.32471 0.66763
 H442 H 0.33411 0.33664 0.65702
 N443 N 0.31462 0.85868 0.17636
 N444 N 0.32369 0.85620 0.18613
 C445 C 0.32195 0.86599 0.19613
 C446 C 0.31121 0.87509 0.19240
 C447 C 0.30683 0.87010 0.17978
 H448 H 0.32813 0.86655 0.20534
 H449 H 0.29843 0.87429 0.17363
 Cu450 Cu 0.33697 0.84052 0.18479
 Cu451 Cu 0.31329 0.84681 0.16008
 Cu452 Cu 0.33700 0.81909 0.15703
 N453 N 0.35070 0.82537 0.18245
 N454 N 0.35062 0.81705 0.17160
 C455 C 0.36121 0.80767 0.17245
 C456 C 0.36841 0.81019 0.18450
 C457 C 0.36140 0.82155 0.19057
 H458 H 0.36350 0.79970 0.16476
 H459 H 0.36392 0.82676 0.20012
 N460 N 0.32245 0.82289 0.14334
 N461 N 0.31355 0.83358 0.14439
 C462 C 0.30504 0.83344 0.13345
 C463 C 0.30872 0.82206 0.12512
 C464 C 0.31981 0.81562 0.13173
 H465 H 0.29663 0.84091 0.13180
 H466 H 0.32561 0.80639 0.12828
 H467 H 0.32146 0.82859 0.16878
 H468 H 0.33406 0.84072 0.15992
 N469 N 0.81215 0.35617 0.16584
 N470 N 0.82109 0.35524 0.17595
 C471 C 0.81898 0.36616 0.18468
 C472 C 0.80807 0.37445 0.17984
 C473 C 0.80401 0.36774 0.16781
 H474 H 0.82499 0.36788 0.19386
 H475 H 0.79566 0.37092 0.16107
 Cu476 Cu 0.83477 0.33988 0.17728
 Cu477 Cu 0.81181 0.34179 0.15140
 Cu478 Cu 0.83412 0.31423 0.15167
 N479 N 0.84772 0.32348 0.17673
 N480 N 0.84733 0.31369 0.16702
 C481 C 0.85739 0.30399 0.16932
 C482 C 0.86454 0.30780 0.18103
 C483 C 0.85812 0.32025 0.18546
 H484 H 0.85956 0.29498 0.16274
 H485 H 0.86080 0.32648 0.19438
 N486 N 0.82034 0.31661 0.13730
 N487 N 0.81162 0.32742 0.13692
 C488 C 0.80346 0.32610 0.12577
 C489 C 0.80736 0.31380 0.11877
 C490 C 0.81809 0.30809 0.12647
 H491 H 0.79537 0.33354 0.12291
 H492 H 0.82380 0.29836 0.12446
 H493 H 0.82317 0.32503 0.16688
 H494 H 0.83593 0.33554 0.15652
 N495 N 0.81757 0.85321 0.66540
 N496 N 0.82667 0.85335 0.67544
 C497 C 0.82415 0.86484 0.68343
 C498 C 0.81292 0.87230 0.67804
 C499 C 0.80905 0.86454 0.66662
 H500 H 0.83016 0.86768 0.69236
 H501 H 0.80059 0.86688 0.65970
 Cu502 Cu 0.84110 0.83862 0.67683
 Cu503 Cu 0.81734 0.83864 0.65121
 Cu504 Cu 0.84142 0.81154 0.65426
 N505 N 0.85440 0.82279 0.67843
 N506 N 0.85395 0.81217 0.66968
 C507 C 0.86421 0.80291 0.67239
 C508 C 0.87179 0.80790 0.68338
 C509 C 0.86516 0.82056 0.68708
 H510 H 0.86617 0.79337 0.66649
 H511 H 0.86824 0.82781 0.69512
 N512 N 0.82806 0.81253 0.63922
 N513 N 0.81882 0.82286 0.63790
 C514 C 0.81179 0.82089 0.62610
 C515 C 0.81703 0.80882 0.61966
 C516 C 0.82726 0.80380 0.62832
 H517 H 0.80384 0.82798 0.62221
 H518 H 0.83378 0.79454 0.62668
 H519 H 0.82563 0.82335 0.66378
 H520 H 0.83805 0.83336 0.65246
 N521 N 0.68040 0.65040 0.67046
 N522 N 0.67015 0.64944 0.67947
 C523 C 0.67267 0.63844 0.68796
 C524 C 0.68523 0.63215 0.68412
 C525 C 0.68986 0.64013 0.67298
 H526 H 0.66573 0.63513 0.69615
 H527 H 0.69934 0.63860 0.66707
 Cu528 Cu 0.65447 0.66261 0.67907
 Cu529 Cu 0.68059 0.66488 0.65609
 Cu530 Cu 0.64851 0.68103 0.65038
 N531 N 0.64007 0.67724 0.67849
 N532 N 0.63771 0.68438 0.66712
 C533 C 0.62690 0.69331 0.66917
 C534 C 0.62220 0.69178 0.68262
 C535 C 0.63085 0.68143 0.68821
 H536 H 0.62266 0.70019 0.66132
 H537 H 0.63043 0.67715 0.69851
 N538 N 0.66403 0.68166 0.63707
 N539 N 0.67634 0.67587 0.63935
 C540 C 0.68477 0.67856 0.62852
 C541 C 0.67742 0.68652 0.61897
 C542 C 0.66429 0.68827 0.62481
 H543 H 0.69543 0.67487 0.62767
 H544 H 0.65561 0.69417 0.62065
 H545 H 0.66515 0.67915 0.66286
 H546 H 0.65980 0.66222 0.65445
 N547 N 0.68701 0.14750 0.16721
 N548 N 0.67778 0.14747 0.17736
 C549 C 0.68080 0.13664 0.18596
 C550 C 0.69254 0.12955 0.18097
 C551 C 0.69610 0.13677 0.16906
 H552 H 0.67500 0.13420 0.19524
 H553 H 0.70467 0.13438 0.16216
 Cu554 Cu 0.66259 0.16171 0.17865
 Cu555 Cu 0.68706 0.16159 0.15229
 Cu556 Cu 0.66442 0.18876 0.15589
 N557 N 0.64848 0.17674 0.17801
 N558 N 0.64925 0.18724 0.16911
 C559 C 0.63819 0.19591 0.17083
 C560 C 0.62996 0.19062 0.18141
 C561 C 0.63686 0.17843 0.18575
 H562 H 0.63635 0.20538 0.16480
 H563 H 0.63361 0.17119 0.19378
 N564 N 0.67662 0.18721 0.13993
 N565 N 0.68537 0.17650 0.13855
 C566 C 0.69263 0.17805 0.12677
 C567 C 0.68824 0.19044 0.12038
 C568 C 0.67801 0.19596 0.12904
 H569 H 0.70049 0.17065 0.12313
 H570 H 0.67215 0.20570 0.12765
 H571 H 0.67892 0.17239 0.16906
 H572 H 0.66627 0.16309 0.15764
 N573 N 0.18519 0.63956 0.16774
 N574 N 0.18015 0.64274 0.17996
 C575 C 0.18515 0.63343 0.18922
 C576 C 0.19378 0.62381 0.18241
 C577 C 0.19355 0.62809 0.16877
 H578 H 0.18243 0.63351 0.20003
 H579 H 0.19866 0.62298 0.16012
 Cu580 Cu 0.16658 0.65792 0.18242
 Cu581 Cu 0.17963 0.64990 0.15134
 Cu582 Cu 0.16130 0.68134 0.15696
 N583 N 0.15028 0.67022 0.18223
 N584 N 0.14814 0.67951 0.17236
 C585 C 0.13616 0.68660 0.17501
 C586 C 0.13043 0.68135 0.18717
 C587 C 0.13977 0.67099 0.19143
 H588 H 0.13187 0.69478 0.16845
 H589 H 0.13910 0.66452 0.20059
 N590 N 0.17117 0.67712 0.13954
 N591 N 0.17759 0.66488 0.13730
 C592 C 0.18346 0.66510 0.12471
 C593 C 0.18067 0.67812 0.11865
 C594 C 0.17282 0.68549 0.12839
 H595 H 0.18990 0.65664 0.12055
 H596 H 0.16874 0.69619 0.12753
 H597 H 0.17838 0.66831 0.16245
 H598 H 0.16136 0.66008 0.15797
 N599 N 0.18288 0.14555 0.67501
 N600 N 0.17462 0.14714 0.68573
 C601 C 0.17712 0.13656 0.69475
 C602 C 0.18758 0.12786 0.68936
 C603 C 0.19094 0.13399 0.67681
 H604 H 0.17162 0.13527 0.70442
 H605 H 0.19852 0.13027 0.66935
 Cu606 Cu 0.16130 0.16276 0.68651
 Cu607 Cu 0.18233 0.15819 0.65929
 Cu608 Cu 0.15591 0.18337 0.65841
 N609 N 0.14502 0.17492 0.68485
 N610 N 0.14296 0.18313 0.67410
 C611 C 0.13080 0.19021 0.67582
 C612 C 0.12490 0.18608 0.68827
 C613 C 0.13426 0.17638 0.69369
 H614 H 0.12642 0.19751 0.66842
 H615 H 0.13334 0.17079 0.70337
 N616 N 0.17025 0.18152 0.64368
 N617 N 0.18024 0.17184 0.64422
 C618 C 0.18815 0.17269 0.63282
 C619 C 0.18297 0.18333 0.62451
 C620 C 0.17162 0.18883 0.63176
 H621 H 0.19711 0.16600 0.63073
 H622 H 0.16470 0.19726 0.62847
 H623 H 0.17318 0.17615 0.66844
 H624 H 0.16098 0.16247 0.66157
 N625 N 0.31444 0.64234 0.32861
 N626 N 0.32413 0.64402 0.31913
 C627 C 0.32306 0.63353 0.30977
 C628 C 0.31206 0.62481 0.31357
 C629 C 0.30686 0.63079 0.32560
 H630 H 0.32984 0.63232 0.30092
 H631 H 0.29816 0.62711 0.33175
 Cu632 Cu 0.33720 0.65972 0.31994
 Cu633 Cu 0.31238 0.65513 0.34422
 Cu634 Cu 0.33600 0.68270 0.34651
 N635 N 0.35063 0.67502 0.32170
 N636 N 0.35009 0.68390 0.33211
 C637 C 0.36059 0.69325 0.33094
 C638 C 0.36820 0.69010 0.31913
 C639 C 0.36151 0.67843 0.31353
 H640 H 0.36252 0.70165 0.33825
 H641 H 0.36437 0.67276 0.30426
 N642 N 0.32097 0.67968 0.36006
 N643 N 0.31198 0.66915 0.35924
 C644 C 0.30312 0.66989 0.37005
 C645 C 0.30669 0.68147 0.37805
 C646 C 0.31806 0.68740 0.37139
 H647 H 0.29463 0.66261 0.37190
 H648 H 0.32394 0.69655 0.37465
 H649 H 0.32108 0.67282 0.33485
 H650 H 0.33318 0.66104 0.34469
 N651 N 0.31115 0.14224 0.82552
 N652 N 0.31796 0.14516 0.81411
 C653 C 0.31496 0.13528 0.80459
 C654 C 0.30570 0.12563 0.81035
 C655 C 0.30355 0.13044 0.82366
 H656 H 0.31923 0.13517 0.79427
 H657 H 0.29711 0.12565 0.83153
 Cu658 Cu 0.33033 0.16140 0.81300
 Cu659 Cu 0.31254 0.15402 0.84182
 Cu660 Cu 0.33786 0.18019 0.84167
 N661 N 0.34639 0.17374 0.81391
 N662 N 0.34952 0.18098 0.82501
 C663 C 0.36153 0.18804 0.82270
 C664 C 0.36619 0.18498 0.80944
 C665 C 0.35622 0.17589 0.80423
 H666 H 0.36665 0.19459 0.83023
 H667 H 0.35611 0.17101 0.79418
 N668 N 0.32479 0.17718 0.85734
 N669 N 0.31538 0.16699 0.85731
 C670 C 0.30806 0.16742 0.86913
 C671 C 0.31301 0.17841 0.87714
 C672 C 0.32362 0.18444 0.86929
 H673 H 0.29946 0.16045 0.87154
 H674 H 0.32997 0.19345 0.87204
 H675 H 0.31985 0.17297 0.83298
 H676 H 0.33336 0.15938 0.83764
 N677 N 0.81477 0.63971 0.83241
 N678 N 0.82354 0.64145 0.82210
 C679 C 0.82101 0.63157 0.81244
 C680 C 0.81002 0.62315 0.81691
 C681 C 0.80635 0.62870 0.82965
 H682 H 0.82681 0.63062 0.80290
 H683 H 0.79813 0.62511 0.83646
 Cu684 Cu 0.83755 0.65637 0.82204
 Cu685 Cu 0.81503 0.65182 0.84855
 Cu686 Cu 0.83530 0.68092 0.84842
 N687 N 0.85069 0.67230 0.82392
 N688 N 0.84970 0.68167 0.83397
 C689 C 0.86005 0.69115 0.83267
 C690 C 0.86805 0.68766 0.82122
 C691 C 0.86176 0.67560 0.81593
 H692 H 0.86167 0.69989 0.83966
 H693 H 0.86504 0.66958 0.80700
 N694 N 0.82037 0.67831 0.86176
 N695 N 0.81249 0.66695 0.86195
 C696 C 0.80337 0.66795 0.87252
 C697 C 0.80570 0.68066 0.87937
 C698 C 0.81658 0.68693 0.87217
 H699 H 0.79575 0.65993 0.87507
 H700 H 0.82150 0.69698 0.87432
 H701 H 0.82478 0.66983 0.83344
 H702 H 0.83857 0.65988 0.84307
 N703 N 0.81303 0.14450 0.33490
 N704 N 0.82281 0.14231 0.32559
 C705 C 0.81914 0.13138 0.31752
 C706 C 0.80632 0.12634 0.32197
 C707 C 0.80278 0.13497 0.33306
 H708 H 0.82547 0.12734 0.30913
 H709 H 0.79345 0.13441 0.33935
 Cu710 Cu 0.83956 0.15374 0.32479
 Cu711 Cu 0.81455 0.15944 0.34874
 Cu712 Cu 0.84209 0.18280 0.34471
 N713 N 0.85329 0.16832 0.32107
 N714 N 0.85427 0.17966 0.32887
 C715 C 0.86469 0.18787 0.32410
 C716 C 0.87061 0.18134 0.31263
 C717 C 0.86303 0.16892 0.31104
 H718 H 0.86774 0.19780 0.32874
 H719 H 0.86444 0.16087 0.30322
 N720 N 0.82861 0.18410 0.36006
 N721 N 0.81806 0.17528 0.36158
 C722 C 0.81086 0.17886 0.37305
 C723 C 0.81723 0.19047 0.37907
 C724 C 0.82846 0.19347 0.37053
 H725 H 0.80182 0.17325 0.37688
 H726 H 0.83596 0.20189 0.37181
 H727 H 0.82564 0.17236 0.33550
 H728 H 0.83595 0.16197 0.34835
 N729 N 0.68328 0.35597 0.32956
 N730 N 0.67522 0.35380 0.31884
 C731 C 0.67821 0.36356 0.30913
 C732 C 0.68869 0.37236 0.31393
 C733 C 0.69162 0.36714 0.32695
 H734 H 0.67294 0.36432 0.29939
 H735 H 0.69904 0.37134 0.33416
 Cu736 Cu 0.66072 0.33891 0.31855
 Cu737 Cu 0.68203 0.34455 0.34661
 Cu738 Cu 0.65352 0.32404 0.34913
 N739 N 0.64514 0.32575 0.32102
 N740 N 0.64258 0.31986 0.33303
 C741 C 0.63181 0.31087 0.33191
 C742 C 0.62726 0.31107 0.31846
 C743 C 0.63593 0.32073 0.31182
 H744 H 0.62763 0.30466 0.34033
 H745 H 0.63575 0.32364 0.30106
 N746 N 0.66772 0.32383 0.36312
 N747 N 0.67890 0.33181 0.36225
 C748 C 0.68684 0.32945 0.37341
 C749 C 0.68021 0.31947 0.38171
 C750 C 0.66813 0.31616 0.37476
 H751 H 0.69664 0.33467 0.37536
 H752 H 0.66026 0.30856 0.37779
 H753 H 0.67299 0.32979 0.33411
 H754 H 0.66207 0.34572 0.33877
 N755 N 0.68895 0.84801 0.82457
 N756 N 0.67756 0.85179 0.81809
 C757 C 0.67997 0.86410 0.81135
 C758 C 0.69357 0.86826 0.81395
 C759 C 0.69894 0.85769 0.82229
 H760 H 0.67219 0.87000 0.80570
 H761 H 0.70914 0.85736 0.82692
 Cu762 Cu 0.66022 0.84113 0.82049
 Cu763 Cu 0.68918 0.83220 0.83721
 Cu764 Cu 0.66143 0.81145 0.84195
 N765 N 0.64513 0.82683 0.82155
 N766 N 0.64562 0.81552 0.82960
 C767 C 0.63425 0.80751 0.82737
 C768 C 0.62623 0.81400 0.81732
 C769 C 0.63350 0.82626 0.81394
 H770 H 0.63223 0.79748 0.83242
 H771 H 0.63073 0.83407 0.80628
 N772 N 0.67585 0.81318 0.85605
 N773 N 0.68672 0.82134 0.85389
 C774 C 0.69496 0.82107 0.86495
 C775 C 0.68905 0.81223 0.87472
 C776 C 0.67692 0.80725 0.86866
 H777 H 0.70456 0.82698 0.86574
 H778 H 0.66931 0.80016 0.87318
 H779 H 0.66979 0.82194 0.82461
 H780 H 0.66399 0.83249 0.83988
 N781 N 0.18268 0.35650 0.82410
 N782 N 0.17281 0.35472 0.81499
 C783 C 0.17428 0.36451 0.80498
 C784 C 0.18562 0.37296 0.80803
 C785 C 0.19069 0.36755 0.82026
 H786 H 0.16750 0.36557 0.79621
 H787 H 0.19969 0.37121 0.82583
 Cu788 Cu 0.15885 0.33996 0.81736
 Cu789 Cu 0.18465 0.34415 0.84005
 Cu790 Cu 0.16036 0.31718 0.84400
 N791 N 0.14522 0.32489 0.81970
 N792 N 0.14588 0.31597 0.83009
 C793 C 0.13526 0.30670 0.82925
 C794 C 0.12747 0.31002 0.81773
 C795 C 0.13414 0.32163 0.81194
 H796 H 0.13329 0.29828 0.83657
 H797 H 0.13123 0.32722 0.80268
 N798 N 0.17579 0.32024 0.85696
 N799 N 0.18495 0.33056 0.85548
 C800 C 0.19411 0.32990 0.86586
 C801 C 0.19061 0.31861 0.87436
 C802 C 0.17891 0.31274 0.86835
 H803 H 0.20275 0.33709 0.86704
 H804 H 0.17308 0.30366 0.87197
 H805 H 0.17515 0.32652 0.83148
 H806 H 0.16381 0.33867 0.84190
 N807 N 0.18161 0.85773 0.32397
 N808 N 0.17207 0.85538 0.31464
 C809 C 0.17343 0.86507 0.30451
 C810 C 0.18433 0.87407 0.30773
 C811 C 0.18925 0.86906 0.32019
 H812 H 0.16687 0.86568 0.29555
 H813 H 0.19779 0.87330 0.32607
 Cu814 Cu 0.15876 0.83994 0.31688
 Cu815 Cu 0.18347 0.84584 0.34027
 Cu816 Cu 0.16028 0.81788 0.34415
 N817 N 0.14573 0.82428 0.31910
 N818 N 0.14639 0.81566 0.32973
 C819 C 0.13619 0.80594 0.32879
 C820 C 0.12870 0.80856 0.31690
 C821 C 0.13511 0.82029 0.31102
 H822 H 0.13421 0.79775 0.33636
 H823 H 0.13235 0.82546 0.30150
 N824 N 0.17512 0.82202 0.35757
 N825 N 0.18384 0.83273 0.35607
 C826 C 0.19259 0.83291 0.36681
 C827 C 0.18930 0.82178 0.37556
 C828 C 0.17815 0.81509 0.36933
 H829 H 0.20085 0.84054 0.36809
 H830 H 0.17254 0.80595 0.37316
 H831 H 0.17498 0.82751 0.33185
 H832 H 0.16279 0.83938 0.34162
 C833 C 0.24141 1.00671 0.25497
 C834 C 0.24928 1.00675 0.24332
 C835 C 0.25332 1.02012 0.23625
 C836 C 0.25396 0.99328 0.23690
 C837 C 0.23723 0.99318 0.26152
 C838 C 0.23719 1.02004 0.26209
 C839 C 0.24317 1.02953 0.23119
 C840 C 0.24714 1.04203 0.22441
 C841 C 0.26132 1.04535 0.22269
 C842 C 0.27143 1.03586 0.22771
 C843 C 0.26746 1.02334 0.23437
 C844 C 0.24597 0.98702 0.22659
 C845 C 0.25065 0.97465 0.22002
 C846 C 0.26349 0.96837 0.22358
 C847 C 0.27129 0.97456 0.23421
 C848 C 0.26654 0.98689 0.24083
 C849 C 0.24561 0.98711 0.27170
 C850 C 0.24147 0.97463 0.27834
 C851 C 0.22876 0.96808 0.27504
 C852 C 0.22052 0.97411 0.26461
 C853 C 0.22477 0.98652 0.25786
 C854 C 0.24722 1.02978 0.26657
 C855 C 0.24315 1.04220 0.27347
 C856 C 0.22897 1.04503 0.27610
 C857 C 0.21897 1.03520 0.27167
 C858 C 0.22305 1.02282 0.26477
 H859 H 0.23219 1.02717 0.23248
 H860 H 0.23914 1.04919 0.22067
 H861 H 0.28242 1.03806 0.22636
 H862 H 0.27546 1.01625 0.23821
 H863 H 0.23615 0.99178 0.22359
 H864 H 0.24422 0.97001 0.21213
 H865 H 0.27278 0.99160 0.24884
 H866 H 0.25534 0.99208 0.27451
 H867 H 0.24821 0.97014 0.28610
 H868 H 0.21061 0.96948 0.26191
 H869 H 0.21824 0.99108 0.24996
 H870 H 0.25821 1.02772 0.26479
 H871 H 0.25107 1.04964 0.27664
 H872 H 0.20799 1.03699 0.27371
 H873 H 0.21512 1.01545 0.26145
 H874 H 0.28125 0.97011 0.23716
 C875 C 0.24495 0.50372 0.75386
 C876 C 0.25249 0.50358 0.74198
 C877 C 0.25665 0.51683 0.73474
 C878 C 0.25681 0.48998 0.73558
 C879 C 0.24072 0.49029 0.76058
 C880 C 0.24096 0.51711 0.76098
 C881 C 0.24670 0.52714 0.73105
 C882 C 0.25083 0.53969 0.72447
 C883 C 0.26496 0.54208 0.72131
 C884 C 0.27482 0.53157 0.72472
 C885 C 0.27071 0.51909 0.73134
 C886 C 0.24881 0.48409 0.72508
 C887 C 0.25317 0.47159 0.71854
 C888 C 0.26576 0.46489 0.72224
 C889 C 0.27362 0.47078 0.73297
 C890 C 0.26912 0.48317 0.73965
 C891 C 0.24893 0.48449 0.77103
 C892 C 0.24470 0.47215 0.77786
 C893 C 0.23205 0.46551 0.77450
 C894 C 0.22397 0.47132 0.76384
 C895 C 0.22832 0.48355 0.75688
 C896 C 0.25113 0.52688 0.76510
 C897 C 0.24723 0.53943 0.77187
 C898 C 0.23310 0.54240 0.77466
 C899 C 0.22298 0.53252 0.77061
 C900 C 0.22688 0.51999 0.76388
 H901 H 0.23576 0.52549 0.73333
 H902 H 0.24298 0.54760 0.72204
 H903 H 0.28574 0.53296 0.72219
 H904 H 0.27857 0.51126 0.73395
 H905 H 0.23921 0.48922 0.72193
 H906 H 0.24668 0.46720 0.71056
 H907 H 0.27538 0.48764 0.74777
 H908 H 0.25858 0.48956 0.77391
 H909 H 0.25133 0.46783 0.78580
 H910 H 0.21409 0.46664 0.76109
 H911 H 0.22189 0.48795 0.74881
 H912 H 0.26207 0.52476 0.76310
 H913 H 0.25524 0.54688 0.77481
 H914 H 0.21204 0.53440 0.77282
 H915 H 0.21887 0.51259 0.76084
 H916 H 0.28345 0.46607 0.73598
 C917 C 0.74408 -0.00001 0.24334
 C918 C 0.75492 0.00049 0.25228
 C919 C 0.76202 -0.01266 0.25716
 C920 C 0.76063 0.01423 0.25722
 C921 C 0.73625 0.01302 0.23935
 C922 C 0.73989 -0.01348 0.23657
 C923 C 0.75444 -0.02387 0.26310
 C924 C 0.76126 -0.03624 0.26744
 C925 C 0.77582 -0.03758 0.26606
 C926 C 0.78340 -0.02623 0.26035
 C927 C 0.77657 -0.01390 0.25598
 C928 C 0.76235 0.01653 0.27136
 C929 C 0.76832 0.02911 0.27609
 C930 C 0.77277 0.03963 0.26677
 C931 C 0.77098 0.03732 0.25261
 C932 C 0.76506 0.02471 0.24788
 C933 C 0.73502 0.01655 0.22540
 C934 C 0.72802 0.02892 0.22146
 C935 C 0.72202 0.03798 0.23139
 C936 C 0.72294 0.03427 0.24536
 C937 C 0.73000 0.02188 0.24931
 C938 C 0.74959 -0.02163 0.22900
 C939 C 0.74543 -0.03403 0.22231
 C940 C 0.73146 -0.03846 0.22297
 C941 C 0.72177 -0.03023 0.23047
 C942 C 0.72594 -0.01784 0.23716
 H943 H 0.74323 -0.02307 0.26431
 H944 H 0.75512 -0.04484 0.27170
 H945 H 0.79463 -0.02682 0.25936
 H946 H 0.78264 -0.00534 0.25152
 H947 H 0.75913 0.00853 0.27872
 H948 H 0.76975 0.03046 0.28705
 H949 H 0.76410 0.02305 0.23691
 H950 H 0.73969 0.00982 0.21756
 H951 H 0.72726 0.03139 0.21061
 H952 H 0.71844 0.04109 0.25322
 H953 H 0.73067 0.01923 0.26012
 H954 H 0.76036 -0.01831 0.22819
 H955 H 0.75314 -0.04020 0.21666
 H956 H 0.71090 -0.03324 0.23096
 H957 H 0.71826 -0.01162 0.24280
 H958 H 0.77417 0.04527 0.24518
 C959 C 0.75928 0.50344 0.72240
 C960 C 0.76894 0.50366 0.73257
 C961 C 0.77486 0.49039 0.73844
 C962 C 0.77400 0.51717 0.73855
 C963 C 0.75385 0.51673 0.71611
 C964 C 0.75345 0.48986 0.71726
 C965 C 0.77410 0.48807 0.75267
 C966 C 0.77965 0.47569 0.75839
 C967 C 0.78612 0.46539 0.74998
 C968 C 0.78700 0.46780 0.73573
 C969 C 0.78148 0.48023 0.73001
 C970 C 0.76475 0.52682 0.74487
 C971 C 0.76977 0.53932 0.75079
 C972 C 0.78411 0.54232 0.75052
 C973 C 0.79333 0.53258 0.74423
 C974 C 0.78832 0.52009 0.73838
 C975 C 0.76287 0.52674 0.71011
 C976 C 0.75756 0.53934 0.70450
 C977 C 0.74314 0.54210 0.70474
 C978 C 0.73415 0.53192 0.71053
 C979 C 0.73945 0.51934 0.71609
 C980 C 0.75462 0.48645 0.70326
 C981 C 0.74942 0.47359 0.69833
 C982 C 0.74281 0.46396 0.70730
 C983 C 0.74150 0.46751 0.72130
 C984 C 0.74672 0.48036 0.72623
 H985 H 0.76914 0.49584 0.75935
 H986 H 0.77906 0.47427 0.76943
 H987 H 0.79186 0.46003 0.72898
 H988 H 0.78238 0.48194 0.71903
 H989 H 0.75369 0.52461 0.74531
 H990 H 0.76244 0.54666 0.75554
 H991 H 0.79561 0.51267 0.73369
 H992 H 0.77401 0.52482 0.70984
 H993 H 0.76475 0.54701 0.70018
 H994 H 0.72298 0.53365 0.71066
 H995 H 0.73231 0.51170 0.72057
 H996 H 0.75972 0.49370 0.69618
 H997 H 0.75044 0.47123 0.68746
 H998 H 0.73658 0.46025 0.72848
 H999 H 0.74559 0.48289 0.73705
 H1000 H 0.80445 0.53451 0.74409
 C1001 C 0.23723 0.49590 0.25450
 C1002 C 0.24687 0.49549 0.26468
 C1003 C 0.25244 0.48184 0.27006
 C1004 C 0.25181 0.50864 0.27145
 C1005 C 0.23203 0.50959 0.24885
 C1006 C 0.23079 0.48277 0.24900
 C1007 C 0.25129 0.47886 0.28415
 C1008 C 0.25596 0.46586 0.28934
 C1009 C 0.26201 0.45565 0.28056
 C1010 C 0.26353 0.45881 0.26649
 C1011 C 0.25879 0.47182 0.26129
 C1012 C 0.24238 0.51793 0.27802
 C1013 C 0.24717 0.53017 0.28456
 C1014 C 0.26148 0.53329 0.28471
 C1015 C 0.27090 0.52388 0.27825
 C1016 C 0.26610 0.51163 0.27174
 C1017 C 0.24120 0.51961 0.24311
 C1018 C 0.23612 0.53260 0.23819
 C1019 C 0.22178 0.53576 0.23892
 C1020 C 0.21263 0.52557 0.24442
 C1021 C 0.21770 0.51260 0.24929
 C1022 C 0.23096 0.48021 0.23480
 C1023 C 0.22455 0.46814 0.22944
 C1024 C 0.21774 0.45845 0.23820
 C1025 C 0.21754 0.46109 0.25244
 C1026 C 0.22393 0.47318 0.25778
 H1027 H 0.24653 0.48650 0.29111
 H1028 H 0.25488 0.46381 0.30026
 H1029 H 0.26812 0.45112 0.25949
 H1030 H 0.25996 0.47404 0.25041
 H1031 H 0.23132 0.51566 0.27812
 H1032 H 0.23966 0.53727 0.28939
 H1033 H 0.27353 0.50449 0.26684
 H1034 H 0.25228 0.51738 0.24253
 H1035 H 0.24341 0.54026 0.23402
 H1036 H 0.20151 0.52760 0.24487
 H1037 H 0.21046 0.50497 0.25362
 H1038 H 0.23606 0.48759 0.22785
 H1039 H 0.22470 0.46652 0.21842
 H1040 H 0.21247 0.45377 0.25946
 H1041 H 0.22342 0.47512 0.26875
 H1042 H 0.28201 0.52588 0.27842
 C1043 C 0.75036 0.99902 0.75736
 C1044 C 0.76151 0.99894 0.74857
 C1045 C 0.76852 1.01225 0.74421
 C1046 C 0.76751 0.98552 0.74299
 C1047 C 0.74305 0.98575 0.76139
 C1048 C 0.74503 1.01237 0.76370
 C1049 C 0.76935 1.01557 0.73017
 C1050 C 0.77577 1.02808 0.72578
 C1051 C 0.78158 1.03751 0.73535
 C1052 C 0.78095 1.03404 0.74942
 C1053 C 0.77454 1.02148 0.75380
 C1054 C 0.75954 0.97613 0.73509
 C1055 C 0.76537 0.96333 0.73037
 C1056 C 0.77926 0.95974 0.73343
 C1057 C 0.78725 0.96934 0.74110
 C1058 C 0.78145 0.98211 0.74577
 C1059 C 0.75018 0.97438 0.76758
 C1060 C 0.74312 0.96189 0.77101
 C1061 C 0.72873 0.96062 0.76857
 C1062 C 0.72160 0.97216 0.76265
 C1063 C 0.72869 0.98460 0.75912
 C1064 C 0.74492 1.01368 0.77806
 C1065 C 0.74036 1.02624 0.78431
 C1066 C 0.73568 1.03774 0.77632
 C1067 C 0.73551 1.03632 0.76192
 C1068 C 0.74011 1.02372 0.75566
 H1069 H 0.76489 1.00851 0.72261
 H1070 H 0.77633 1.03030 0.71486
 H1071 H 0.78525 1.04112 0.75704
 H1072 H 0.77421 1.01897 0.76467
 H1073 H 0.74881 0.97866 0.73270
 H1074 H 0.75895 0.95612 0.72452
 H1075 H 0.78778 0.98927 0.75177
 H1076 H 0.76122 0.97516 0.76967
 H1077 H 0.74897 0.95316 0.77543
 H1078 H 0.71048 0.97166 0.76087
 H1079 H 0.72298 0.99332 0.75450
 H1080 H 0.74858 1.00500 0.78444
 H1081 H 0.74039 1.02693 0.79543
 H1082 H 0.73202 1.04503 0.75550
 H1083 H 0.73996 1.02285 0.74456
 H1084 H 0.79805 0.96700 0.74340
 C1085 C 0.76029 0.50053 0.26887
 C1086 C 0.77042 0.50054 0.25892
 C1087 C 0.77703 0.51392 0.25394
 C1088 C 0.77547 0.48706 0.25257
 C1089 C 0.75499 0.48707 0.27497
 C1090 C 0.75414 0.51395 0.27435
 C1091 C 0.77812 0.51655 0.23977
 C1092 C 0.78438 0.52899 0.23490
 C1093 C 0.78969 0.53912 0.24410
 C1094 C 0.78884 0.53632 0.25830
 C1095 C 0.78269 0.52381 0.26316
 C1096 C 0.76619 0.47769 0.24618
 C1097 C 0.77106 0.46495 0.24042
 C1098 C 0.78530 0.46140 0.24087
 C1099 C 0.79458 0.47093 0.24707
 C1100 C 0.78972 0.48366 0.25280
 C1101 C 0.76411 0.47723 0.28106
 C1102 C 0.75896 0.46473 0.28698
 C1103 C 0.74458 0.46188 0.28702
 C1104 C 0.73548 0.47182 0.28100
 C1105 C 0.74063 0.48430 0.27509
 C1106 C 0.75422 0.51653 0.28855
 C1107 C 0.74860 0.52913 0.29388
 C1108 C 0.74261 0.53931 0.28512
 C1109 C 0.74229 0.53659 0.27091
 C1110 C 0.74800 0.52401 0.26557
 H1111 H 0.77404 0.50899 0.23245
 H1112 H 0.78516 0.53059 0.22390
 H1113 H 0.79277 0.54389 0.26569
 H1114 H 0.78232 0.52184 0.27413
 H1115 H 0.75518 0.48022 0.24570
 H1116 H 0.76365 0.45778 0.23579
 H1117 H 0.79705 0.49081 0.25758
 H1118 H 0.77520 0.47927 0.28129
 H1119 H 0.76625 0.45724 0.29145
 H1120 H 0.72433 0.47005 0.28108
 H1121 H 0.73341 0.49181 0.27054
 H1122 H 0.75880 0.50885 0.29551
 H1123 H 0.74884 0.53086 0.30489
 H1124 H 0.73781 0.54431 0.26393
 H1125 H 0.74766 0.52214 0.25459
 H1126 H 0.80564 0.46859 0.24738
 C1127 C 0.25995 -0.00259 0.72513
 C1128 C 0.26962 -0.00208 0.73528
 C1129 C 0.27572 -0.01516 0.74133
 C1130 C 0.27456 0.01163 0.74095
 C1131 C 0.25428 0.01055 0.71880
 C1132 C 0.25432 -0.01625 0.72000
 C1133 C 0.27493 -0.01724 0.75560
 C1134 C 0.28061 -0.02944 0.76153
 C1135 C 0.28727 -0.03977 0.75332
 C1136 C 0.28823 -0.03758 0.73903
 C1137 C 0.28254 -0.02534 0.73309
 C1138 C 0.26516 0.02160 0.74653
 C1139 C 0.26997 0.03457 0.75156
 C1140 C 0.28429 0.03771 0.75129
 C1141 C 0.29369 0.02756 0.74595
 C1142 C 0.28886 0.01463 0.74086
 C1143 C 0.26311 0.02053 0.71252
 C1144 C 0.25765 0.03314 0.70716
 C1145 C 0.24324 0.03594 0.70790
 C1146 C 0.23441 0.02576 0.71393
 C1147 C 0.23988 0.01316 0.71928
 C1148 C 0.25495 -0.01930 0.70590
 C1149 C 0.24967 -0.03207 0.70087
 C1150 C 0.24356 -0.04200 0.70986
 C1151 C 0.24279 -0.03884 0.72399
 C1152 C 0.24804 -0.02603 0.72900
 H1153 H 0.26980 -0.00944 0.76213
 H1154 H 0.27993 -0.03073 0.77258
 H1155 H 0.29326 -0.04540 0.73246
 H1156 H 0.28345 -0.02381 0.72208
 H1157 H 0.25411 0.01936 0.74693
 H1158 H 0.26246 0.04220 0.75553
 H1159 H 0.29628 0.00699 0.73672
 H1160 H 0.27425 0.01861 0.71193
 H1161 H 0.26471 0.04083 0.70266
 H1162 H 0.22325 0.02752 0.71444
 H1163 H 0.23291 0.00554 0.72403
 H1164 H 0.25963 -0.01180 0.69878
 H1165 H 0.25020 -0.03408 0.68991
 H1166 H 0.23823 -0.04632 0.73118
 H1167 H 0.24720 -0.02375 0.73989
 H1168 H 0.30480 0.02953 0.74588
 C1169 C 0.25548 0.24514 0.99975
 C1170 C 0.24481 0.25476 0.99939
 C1171 C 0.23957 0.26163 1.01222
 C1172 C 0.23804 0.25903 0.98629
 C1173 C 0.26343 0.24080 0.98715
 C1174 C 0.25949 0.23828 1.01294
 C1175 C 0.22524 0.26201 1.01522
 C1176 C 0.22029 0.26893 1.02704
 C1177 C 0.22959 0.27568 1.03600
 C1178 C 0.24393 0.27531 1.03294
 C1179 C 0.24886 0.26841 1.02114
 C1180 C 0.23349 0.24875 0.97688
 C1181 C 0.22686 0.25285 0.96475
 C1182 C 0.22450 0.26732 0.96185
 C1183 C 0.22895 0.27758 0.97136
 C1184 C 0.23560 0.27347 0.98346
 C1185 C 0.26778 0.25089 0.97734
 C1186 C 0.27517 0.24664 0.96557
 C1187 C 0.27877 0.23226 0.96352
 C1188 C 0.27487 0.22229 0.97363
 C1189 C 0.26722 0.22649 0.98523
 C1190 C 0.27334 0.23874 1.01740
 C1191 C 0.27722 0.23187 1.02953
 C1192 C 0.26734 0.22425 1.03732
 C1193 C 0.25349 0.22377 1.03282
 C1194 C 0.24958 0.23076 1.02076
 H1195 H 0.21789 0.25697 1.00841
 H1196 H 0.20917 0.26922 1.02903
 H1197 H 0.25134 0.28031 1.03970
 H1198 H 0.25993 0.26847 1.01889
 H1199 H 0.23501 0.23753 0.97896
 H1200 H 0.22365 0.24470 0.95760
 H1201 H 0.23887 0.28159 0.99062
 H1202 H 0.26544 0.26207 0.97875
 H1203 H 0.27790 0.25462 0.95800
 H1204 H 0.27778 0.21120 0.97266
 H1205 H 0.26422 0.21850 0.99270
 H1206 H 0.28113 0.24445 1.01149
 H1207 H 0.28799 0.23229 1.03273
 H1208 H 0.24567 0.21806 1.03870
 H1209 H 0.23885 0.23018 1.01742
 H1210 H 0.22709 0.28879 0.96955
 C1211 C 0.25777 0.75367 0.50176
 C1212 C 0.24639 0.76241 0.50166
 C1213 C 0.24039 0.76836 0.51455
 C1214 C 0.23945 0.76665 0.48866
 C1215 C 0.26371 0.74766 0.48886
 C1216 C 0.26505 0.74980 0.51469
 C1217 C 0.23562 0.75946 0.52516
 C1218 C 0.23055 0.76530 0.53747
 C1219 C 0.23018 0.78013 0.53933
 C1220 C 0.23464 0.78899 0.52853
 C1221 C 0.23962 0.78316 0.51623
 C1222 C 0.22529 0.76361 0.48683
 C1223 C 0.21865 0.76721 0.47457
 C1224 C 0.22602 0.77407 0.46392
 C1225 C 0.24014 0.77738 0.46590
 C1226 C 0.24679 0.77374 0.47817
 C1227 C 0.27767 0.75034 0.48542
 C1228 C 0.28331 0.74532 0.47307
 C1229 C 0.27512 0.73743 0.46394
 C1230 C 0.26123 0.73440 0.46759
 C1231 C 0.25559 0.73942 0.47998
 C1232 C 0.27060 0.76024 0.52338
 C1233 C 0.27754 0.75633 0.53542
 C1234 C 0.27913 0.74190 0.53895
 C1235 C 0.27374 0.73149 0.53011
 C1236 C 0.26683 0.73541 0.51809
 H1237 H 0.23599 0.74801 0.52397
 H1238 H 0.22724 0.75822 0.54564
 H1239 H 0.23427 0.80046 0.52961
 H1240 H 0.24318 0.79018 0.50811
 H1241 H 0.21941 0.75827 0.49486
 H1242 H 0.20771 0.76472 0.47345
 H1243 H 0.25768 0.77638 0.47946
 H1244 H 0.28413 0.75657 0.49221
 H1245 H 0.29412 0.74757 0.47066
 H1246 H 0.25465 0.72839 0.46074
 H1247 H 0.24484 0.73705 0.48258
 H1248 H 0.26960 0.77141 0.52080
 H1249 H 0.28155 0.76459 0.54203
 H1250 H 0.27504 0.72029 0.53238
 H1251 H 0.26280 0.72718 0.51144
 H1252 H 0.24611 0.78260 0.45786
 C1253 C 0.24299 0.74911 0.00118
 C1254 C 0.25552 0.75586 0.00135
 C1255 C 0.26333 0.75912 -0.01152
 C1256 C 0.26198 0.76043 0.01444
 C1257 C 0.23587 0.74466 0.01407
 C1258 C 0.23591 0.74546 -0.01186
 C1259 C 0.26704 0.74832 -0.02087
 C1260 C 0.27405 0.75165 -0.03312
 C1261 C 0.27749 0.76582 -0.03621
 C1262 C 0.27408 0.77653 -0.02664
 C1263 C 0.26714 0.77319 -0.01440
 C1264 C 0.27568 0.75626 0.01744
 C1265 C 0.28187 0.76046 0.02972
 C1266 C 0.27450 0.76898 0.03922
 C1267 C 0.26084 0.77331 0.03609
 C1268 C 0.25467 0.76916 0.02378
 C1269 C 0.22260 0.75009 0.01732
 C1270 C 0.21572 0.74583 0.02935
 C1271 C 0.22189 0.73582 0.03816
 C1272 C 0.23514 0.73030 0.03483
 C1273 C 0.24211 0.73474 0.02291
 C1274 C 0.23289 0.75592 -0.02173
 C1275 C 0.22636 0.75222 -0.03402
 C1276 C 0.22267 0.73802 -0.03660
 C1277 C 0.22548 0.72765 -0.02656
 C1278 C 0.23199 0.73134 -0.01431
 H1279 H 0.26441 0.73735 -0.01872
 H1280 H 0.27650 0.74319 -0.04033
 H1281 H 0.27681 0.78751 -0.02864
 H1282 H 0.26450 0.78165 -0.00725
 H1283 H 0.28154 0.74965 0.01030
 H1284 H 0.29250 0.75717 0.03171
 H1285 H 0.24420 0.77275 0.02153
 H1286 H 0.21762 0.75770 0.01056
 H1287 H 0.20547 0.75013 0.03165
 H1288 H 0.24013 0.72263 0.04152
 H1289 H 0.25231 0.73036 0.02049
 H1290 H 0.23563 0.76692 -0.01993
 H1291 H 0.22438 0.76042 -0.04158
 H1292 H 0.22252 0.71667 -0.02814
 H1293 H 0.23412 0.72314 -0.00678
 H1294 H 0.25485 0.77978 0.04324
 C1295 C 0.24224 0.24248 0.50019
 C1296 C 0.25415 0.25022 0.50120
 C1297 C 0.26178 0.25494 0.48870
 C1298 C 0.26022 0.25438 0.51460
 C1299 C 0.23308 0.23942 0.51229
 C1300 C 0.23828 0.23607 0.48684
 C1301 C 0.27532 0.24997 0.48603
 C1302 C 0.28266 0.25469 0.47444
 C1303 C 0.27673 0.26479 0.46549
 C1304 C 0.26313 0.26979 0.46832
 C1305 C 0.25570 0.26481 0.47975
 C1306 C 0.26260 0.24425 0.52496
 C1307 C 0.26864 0.24828 0.53739
 C1308 C 0.27257 0.26249 0.53962
 C1309 C 0.27033 0.27254 0.52915
 C1310 C 0.26424 0.26852 0.51678
 C1311 C 0.22929 0.25011 0.52174
 C1312 C 0.22131 0.24684 0.53342
 C1313 C 0.21662 0.23288 0.53571
 C1314 C 0.21973 0.22241 0.52579
 C1315 C 0.22792 0.22562 0.51429
 C1316 C 0.22524 0.23906 0.48109
 C1317 C 0.22139 0.23269 0.46871
 C1318 C 0.23044 0.22308 0.46200
 C1319 C 0.24345 0.22002 0.46786
 C1320 C 0.24732 0.22645 0.48017
 H1321 H 0.28013 0.24233 0.49287
 H1322 H 0.29296 0.25035 0.47250
 H1323 H 0.25832 0.27780 0.46191
 H1324 H 0.24530 0.26890 0.48180
 H1325 H 0.25984 0.23321 0.52340
 H1326 H 0.27015 0.24031 0.54528
 H1327 H 0.26264 0.27648 0.50890
 H1328 H 0.23271 0.26096 0.52021
 H1329 H 0.21914 0.25518 0.54082
 H1330 H 0.21593 0.21165 0.52695
 H1331 H 0.23044 0.21721 0.50705
 H1332 H 0.21808 0.24632 0.48619
 H1333 H 0.21123 0.23509 0.46451
 H1334 H 0.25065 0.21273 0.46286
 H1335 H 0.25732 0.22382 0.48460
 H1336 H 0.27349 0.28350 0.53043
 C1337 C 0.75648 0.75212 1.00309
 C1338 C 0.74501 0.76073 1.00330
 C1339 C 0.74067 0.76820 1.01608
 C1340 C 0.73654 0.76353 0.99080
 C1341 C 0.76275 0.74695 0.98998
 C1342 C 0.76349 0.74769 1.01601
 C1343 C 0.72725 0.76617 1.02152
 C1344 C 0.72315 0.77311 1.03358
 C1345 C 0.73232 0.78239 1.04025
 C1346 C 0.74566 0.78464 1.03464
 C1347 C 0.74983 0.77755 1.02266
 C1348 C 0.73222 0.75238 0.98223
 C1349 C 0.72462 0.75524 0.97033
 C1350 C 0.72089 0.76930 0.96692
 C1351 C 0.72470 0.78035 0.97587
 C1352 C 0.73247 0.77750 0.98762
 C1353 C 0.76649 0.75654 0.97953
 C1354 C 0.77260 0.75161 0.96733
 C1355 C 0.77517 0.73701 0.96541
 C1356 C 0.77153 0.72745 0.97595
 C1357 C 0.76543 0.73239 0.98814
 C1358 C 0.77796 0.74926 1.01735
 C1359 C 0.78462 0.74506 1.02942
 C1360 C 0.77696 0.73915 1.04040
 C1361 C 0.76248 0.73749 1.03898
 C1362 C 0.75584 0.74160 1.02688
 H1363 H 0.72005 0.75905 1.01651
 H1364 H 0.71276 0.77133 1.03767
 H1365 H 0.75291 0.79169 1.03965
 H1366 H 0.76019 0.77935 1.01850
 H1367 H 0.73486 0.74146 0.98467
 H1368 H 0.72195 0.74648 0.96366
 H1369 H 0.73548 0.78627 0.99415
 H1370 H 0.76473 0.76785 0.98085
 H1371 H 0.77524 0.75921 0.95936
 H1372 H 0.77361 0.71617 0.97485
 H1373 H 0.76274 0.72484 0.99615
 H1374 H 0.78408 0.75382 1.00905
 H1375 H 0.79581 0.74627 1.03008
 H1376 H 0.75624 0.73313 1.04728
 H1377 H 0.74472 0.74001 1.02597
 H1378 H 0.72171 0.79125 0.97378
 C1379 C 0.75483 0.25037 0.50326
 C1380 C 0.74748 0.26283 0.50329
 C1381 C 0.74318 0.27007 0.51625
 C1382 C 0.74293 0.26963 0.49029
 C1383 C 0.75929 0.24338 0.49022
 C1384 C 0.75873 0.24296 0.51618
 C1385 C 0.72905 0.27324 0.51856
 C1386 C 0.72468 0.27960 0.53084
 C1387 C 0.73436 0.28299 0.54107
 C1388 C 0.74858 0.28013 0.53861
 C1389 C 0.75296 0.27379 0.52628
 C1390 C 0.73422 0.26242 0.48114
 C1391 C 0.73008 0.26890 0.46890
 C1392 C 0.73455 0.28273 0.46562
 C1393 C 0.74320 0.28995 0.47485
 C1394 C 0.74727 0.28348 0.48713
 C1395 C 0.76747 0.25058 0.48043
 C1396 C 0.77136 0.24388 0.46813
 C1397 C 0.76724 0.22982 0.46545
 C1398 C 0.75929 0.22256 0.47541
 C1399 C 0.75540 0.22926 0.48768
 C1400 C 0.77273 0.23935 0.51842
 C1401 C 0.77667 0.23240 0.53046
 C1402 C 0.76667 0.22884 0.54053
 C1403 C 0.75259 0.23224 0.53817
 C1404 C 0.74864 0.23915 0.52606
 H1405 H 0.72135 0.27058 0.51091
 H1406 H 0.71370 0.28193 0.53230
 H1407 H 0.75628 0.28256 0.54632
 H1408 H 0.76395 0.27165 0.52462
 H1409 H 0.73065 0.25177 0.48349
 H1410 H 0.72351 0.26305 0.46191
 H1411 H 0.75393 0.28923 0.49412
 H1412 H 0.77078 0.26140 0.48229
 H1413 H 0.77742 0.24978 0.46063
 H1414 H 0.75618 0.21164 0.47377
 H1415 H 0.74920 0.22348 0.49516
 H1416 H 0.78064 0.24202 0.51084
 H1417 H 0.78755 0.22966 0.53181
 H1418 H 0.74465 0.22970 0.54575
 H1419 H 0.73774 0.24156 0.52441
 H1420 H 0.74665 0.30067 0.47266
 C1421 C 0.76120 0.22861 -0.00607
 C1422 C 0.77110 0.23896 -0.00655
 C1423 C 0.77640 0.24477 -0.01980
 C1424 C 0.77712 0.24503 0.00619
 C1425 C 0.75514 0.22356 0.00715
 C1426 C 0.75589 0.22180 -0.01875
 C1427 C 0.79075 0.24447 -0.02269
 C1428 C 0.79590 0.24990 -0.03510
 C1429 C 0.78681 0.25588 -0.04480
 C1430 C 0.77244 0.25632 -0.04181
 C1431 C 0.76729 0.25084 -0.02941
 C1432 C 0.78356 0.23626 0.01597
 C1433 C 0.78898 0.24210 0.02800
 C1434 C 0.78815 0.25683 0.03042
 C1435 C 0.78187 0.26559 0.02051
 C1436 C 0.77647 0.25975 0.00848
 C1437 C 0.74874 0.23306 0.01643
 C1438 C 0.74338 0.22814 0.02897
 C1439 C 0.74425 0.21363 0.03240
 C1440 C 0.75032 0.20412 0.02291
 C1441 C 0.75567 0.20904 0.01040
 C1442 C 0.74154 0.22194 -0.02134
 C1443 C 0.73635 0.21575 -0.03328
 C1444 C 0.74540 0.20916 -0.04280
 C1445 C 0.75976 0.20869 -0.04002
 C1446 C 0.76496 0.21495 -0.02808
 H1447 H 0.79795 0.23991 -0.01537
 H1448 H 0.80703 0.24959 -0.03703
 H1449 H 0.76518 0.26077 -0.04913
 H1450 H 0.75619 0.25135 -0.02728
 H1451 H 0.78435 0.22489 0.01430
 H1452 H 0.79368 0.23507 0.03548
 H1453 H 0.77163 0.26670 0.00100
 H1454 H 0.74798 0.24427 0.01399
 H1455 H 0.73880 0.23573 0.03609
 H1456 H 0.75089 0.19285 0.02514
 H1457 H 0.76042 0.20152 0.00331
 H1458 H 0.73437 0.22702 -0.01419
 H1459 H 0.72522 0.21604 -0.03503
 H1460 H 0.76697 0.20370 -0.04719
 H1461 H 0.77605 0.21449 -0.02612
 H1462 H 0.78127 0.27700 0.02198
 C1463 C 0.74910 0.73768 0.49679
 C1464 C 0.75587 0.75039 0.49628
 C1465 C 0.75967 0.75738 0.48307
 C1466 C 0.75996 0.75795 0.50902
 C1467 C 0.74425 0.73158 0.51008
 C1468 C 0.74555 0.72958 0.48419
 C1469 C 0.77355 0.76134 0.48066
 C1470 C 0.77737 0.76806 0.46841
 C1471 C 0.76738 0.77103 0.45831
 C1472 C 0.75341 0.76726 0.46084
 C1473 C 0.74958 0.76055 0.47314
 C1474 C 0.76829 0.75121 0.51888
 C1475 C 0.77192 0.75833 0.53092
 C1476 C 0.76745 0.77240 0.53325
 C1477 C 0.75926 0.77919 0.52326
 C1478 C 0.75560 0.77204 0.51123
 C1479 C 0.73501 0.73919 0.51864
 C1480 C 0.73049 0.73334 0.53110
 C1481 C 0.73508 0.71977 0.53518
 C1482 C 0.74430 0.71217 0.52657
 C1483 C 0.74876 0.71799 0.51407
 C1484 C 0.73170 0.72548 0.48211
 C1485 C 0.72790 0.71858 0.47004
 C1486 C 0.73787 0.71559 0.45974
 C1487 C 0.75190 0.71902 0.46212
 C1488 C 0.75571 0.72592 0.47428
 H1489 H 0.78146 0.75915 0.48826
 H1490 H 0.78815 0.77110 0.46692
 H1491 H 0.74547 0.76938 0.45325
 H1492 H 0.73875 0.75786 0.47493
 H1493 H 0.77195 0.74041 0.51727
 H1494 H 0.77812 0.75276 0.53847
 H1495 H 0.74925 0.77746 0.50368
 H1496 H 0.73129 0.74963 0.51565
 H1497 H 0.72348 0.73948 0.53760
 H1498 H 0.74788 0.70164 0.52940
 H1499 H 0.75582 0.71195 0.50754
 H1500 H 0.72373 0.72793 0.48972
 H1501 H 0.71709 0.71569 0.46871
 H1502 H 0.75985 0.71675 0.45444
 H1503 H 0.76654 0.72862 0.47588
 H1504 H 0.75582 0.79009 0.52467
 C1505 C 0.99290 0.25722 0.24142
 C1506 C 0.99290 0.24726 0.25159
 C1507 C 1.00598 0.24039 0.25631
 C1508 C 0.97986 0.24285 0.25866
 C1509 C 0.98000 0.26491 0.23742
 C1510 C 1.00581 0.26098 0.23376
 C1511 C 1.00712 0.22551 0.25630
 C1512 C 1.01934 0.21888 0.26074
 C1513 C 1.03061 0.22703 0.26536
 C1514 C 1.02938 0.24194 0.26548
 C1515 C 1.01714 0.24856 0.26106
 C1516 C 0.96866 0.23724 0.25127
 C1517 C 0.95644 0.23315 0.25812
 C1518 C 0.95527 0.23457 0.27248
 C1519 C 0.96658 0.24006 0.27984
 C1520 C 0.97878 0.24408 0.27300
 C1521 C 0.97215 0.27271 0.24711
 C1522 C 0.95994 0.27974 0.24316
 C1523 C 0.95544 0.27914 0.22945
 C1524 C 0.96351 0.27158 0.21975
 C1525 C 0.97570 0.26459 0.22369
 C1526 C 1.01017 0.27518 0.23337
 C1527 C 1.02243 0.27889 0.22644
 C1528 C 1.03050 0.26846 0.21968
 C1529 C 1.02595 0.25427 0.21984
 C1530 C 1.01368 0.25056 0.22678
 H1531 H 0.99856 0.21902 0.25279
 H1532 H 1.01990 0.20737 0.26075
 H1533 H 1.03792 0.24850 0.26890
 H1534 H 1.01637 0.26005 0.26136
 H1535 H 0.96938 0.23603 0.24021
 H1536 H 0.94786 0.22904 0.25219
 H1537 H 0.98737 0.24829 0.27888
 H1538 H 0.97546 0.27331 0.25771
 H1539 H 0.95390 0.28546 0.25085
 H1540 H 0.96045 0.27116 0.20907
 H1541 H 0.98171 0.25876 0.21605
 H1542 H 1.00418 0.28338 0.23860
 H1543 H 1.02555 0.28994 0.22630
 H1544 H 1.03199 0.24601 0.21477
 H1545 H 1.01035 0.23957 0.22680
 H1546 H 0.96604 0.24107 0.29093
 C1547 C 0.49593 0.25236 0.74569
 C1548 C 0.49585 0.24250 0.75599
 C1549 C 0.50872 0.23469 0.75992
 C1550 C 0.48293 0.23898 0.76384
 C1551 C 0.48292 0.25932 0.74092
 C1552 C 0.50906 0.25678 0.73871
 C1553 C 0.51646 0.22685 0.75018
 C1554 C 0.52871 0.21982 0.75400
 C1555 C 0.53337 0.22043 0.76765
 C1556 C 0.52540 0.22801 0.77743
 C1557 C 0.51318 0.23503 0.77360
 C1558 C 0.47889 0.22472 0.76520
 C1559 C 0.46669 0.22120 0.77233
 C1560 C 0.45826 0.23186 0.77830
 C1561 C 0.46251 0.24612 0.77724
 C1562 C 0.47478 0.24963 0.77016
 C1563 C 0.48189 0.27421 0.74094
 C1564 C 0.46968 0.28094 0.73664
 C1565 C 0.45831 0.27291 0.73207
 C1566 C 0.45946 0.25799 0.73182
 C1567 C 0.47167 0.25125 0.73617
 C1568 C 0.52036 0.26194 0.74626
 C1569 C 0.53266 0.26600 0.73956
 C1570 C 0.53384 0.26515 0.72515
 C1571 C 0.52242 0.26017 0.71761
 C1572 C 0.51014 0.25608 0.72432
 H1573 H 0.51307 0.22627 0.73960
 H1574 H 0.53467 0.21412 0.74624
 H1575 H 0.52859 0.22844 0.78807
 H1576 H 0.50729 0.24090 0.78129
 H1577 H 0.48511 0.21631 0.76058
 H1578 H 0.46389 0.21009 0.77323
 H1579 H 0.47787 0.26068 0.76954
 H1580 H 0.49052 0.28061 0.74445
 H1581 H 0.46918 0.29246 0.73674
 H1582 H 0.45083 0.25153 0.72842
 H1583 H 0.47235 0.23975 0.73588
 H1584 H 0.51966 0.26281 0.75735
 H1585 H 0.54130 0.26967 0.74568
 H1586 H 0.52292 0.25960 0.70650
 H1587 H 0.50149 0.25225 0.71830
 H1588 H 0.45624 0.25458 0.78167
 C1589 C -0.00063 0.25349 0.74238
 C1590 C -0.00043 0.26182 0.75386
 C1591 C -0.01338 0.26516 0.76173
 C1592 C 0.01262 0.26849 0.75880
 C1593 C 0.01244 0.24884 0.73533
 C1594 C -0.01393 0.24882 0.73613
 C1595 C -0.01715 0.27940 0.76405
 C1596 C -0.02945 0.28274 0.77112
 C1597 C -0.03816 0.27191 0.77615
 C1598 C -0.03420 0.25764 0.77414
 C1599 C -0.02190 0.25429 0.76698
 C1600 C 0.02096 0.27668 0.74993
 C1601 C 0.03305 0.28315 0.75474
 C1602 C 0.03694 0.28175 0.76859
 C1603 C 0.02847 0.27368 0.77749
 C1604 C 0.01642 0.26715 0.77265
 C1605 C 0.02307 0.24190 0.74260
 C1606 C 0.03527 0.23752 0.73583
 C1607 C 0.03702 0.23987 0.72163
 C1608 C 0.02630 0.24671 0.71437
 C1609 C 0.01412 0.25110 0.72115
 C1610 C -0.01602 0.23438 0.73322
 C1611 C -0.02827 0.22991 0.72693
 C1612 C -0.03867 0.23981 0.72337
 C1613 C -0.03653 0.25429 0.72625
 C1614 C -0.02424 0.25876 0.73249
 H1615 H -0.01066 0.28793 0.76018
 H1616 H -0.03213 0.29383 0.77272
 H1617 H -0.04075 0.24910 0.77788
 H1618 H -0.01905 0.24323 0.76546
 H1619 H 0.01807 0.27814 0.73928
 H1620 H 0.03940 0.28919 0.74759
 H1621 H 0.01003 0.26103 0.77970
 H1622 H 0.02191 0.23985 0.75351
 H1623 H 0.04339 0.23239 0.74174
 H1624 H 0.02724 0.24849 0.70340
 H1625 H 0.00600 0.25635 0.71533
 H1626 H -0.00812 0.22657 0.73580
 H1627 H -0.02949 0.21872 0.72463
 H1628 H -0.04437 0.26217 0.72373
 H1629 H -0.02272 0.27000 0.73437
 H1630 H 0.03103 0.27261 0.78826
 C1631 C 0.50363 0.23928 0.24971
 C1632 C 0.50377 0.25163 0.25704
 C1633 C 0.49068 0.25851 0.26198
 C1634 C 0.51695 0.25905 0.26036
 C1635 C 0.51667 0.23188 0.24535
 C1636 C 0.49037 0.23285 0.24509
 C1637 C 0.48793 0.27273 0.25852
 C1638 C 0.47567 0.27938 0.26301
 C1639 C 0.46593 0.27195 0.27113
 C1640 C 0.46879 0.25776 0.27475
 C1641 C 0.48109 0.25111 0.27026
 C1642 C 0.52633 0.26324 0.24997
 C1643 C 0.53867 0.27026 0.25332
 C1644 C 0.54177 0.27328 0.26711
 C1645 C 0.53219 0.26933 0.27744
 C1646 C 0.51990 0.26232 0.27409
 C1647 C 0.52708 0.22831 0.25484
 C1648 C 0.53944 0.22172 0.25040
 C1649 C 0.54154 0.21845 0.23642
 C1650 C 0.53087 0.22161 0.22705
 C1651 C 0.51858 0.22822 0.23148
 C1652 C 0.48722 0.21876 0.24866
 C1653 C 0.47496 0.21247 0.24406
 C1654 C 0.46571 0.22010 0.23566
 C1655 C 0.46896 0.23418 0.23199
 C1656 C 0.48120 0.24049 0.23665
 H1657 H 0.49524 0.27865 0.25222
 H1658 H 0.47385 0.29038 0.26023
 H1659 H 0.46143 0.25174 0.28090
 H1660 H 0.48311 0.24019 0.27323
 H1661 H 0.52410 0.26106 0.23928
 H1662 H 0.54586 0.27316 0.24516
 H1663 H 0.51271 0.25934 0.28223
 H1664 H 0.52568 0.23074 0.26565
 H1665 H 0.54745 0.21945 0.25787
 H1666 H 0.53202 0.21893 0.21627
 H1667 H 0.51061 0.23067 0.22401
 H1668 H 0.49428 0.21266 0.25502
 H1669 H 0.47281 0.20154 0.24687
 H1670 H 0.46200 0.24033 0.22558
 H1671 H 0.48359 0.25129 0.23358
 H1672 H 0.53415 0.27180 0.28812
 C1673 C 0.99530 0.75236 0.74923
 C1674 C 0.99501 0.74098 0.75792
 C1675 C 1.00812 0.73439 0.76306
 C1676 C 0.98172 0.73417 0.76215
 C1677 C 0.98248 0.76044 0.74545
 C1678 C 1.00847 0.75661 0.74226
 C1679 C 1.01034 0.71969 0.76172
 C1680 C 1.02273 0.71348 0.76626
 C1681 C 1.03313 0.72184 0.77231
 C1682 C 1.03078 0.73653 0.77385
 C1683 C 1.01837 0.74273 0.76932
 C1684 C 0.97204 0.72980 0.75228
 C1685 C 0.95971 0.72309 0.75632
 C1686 C 0.95690 0.72048 0.77030
 C1687 C 0.96671 0.72470 0.78014
 C1688 C 0.97902 0.73143 0.77610
 C1689 C 0.97272 0.76493 0.75545
 C1690 C 0.96061 0.77224 0.75161
 C1691 C 0.95815 0.77543 0.73770
 C1692 C 0.96824 0.77146 0.72783
 C1693 C 0.98018 0.76399 0.73164
 C1694 C 1.01313 0.77070 0.74307
 C1695 C 1.02523 0.77484 0.73608
 C1696 C 1.03277 0.76499 0.72803
 C1697 C 1.02801 0.75091 0.72715
 C1698 C 1.01595 0.74677 0.73418
 H1699 H 1.00254 0.71305 0.75699
 H1700 H 1.02414 0.70210 0.76513
 H1701 H 1.03863 0.74327 0.77836
 H1702 H 1.01679 0.75407 0.77065
 H1703 H 0.97406 0.73154 0.74144
 H1704 H 0.95232 0.72005 0.74852
 H1705 H 0.98643 0.73455 0.78385
 H1706 H 0.97442 0.76268 0.76623
 H1707 H 0.95306 0.77512 0.75947
 H1708 H 0.96691 0.77409 0.71708
 H1709 H 0.98758 0.76083 0.72372
 H1710 H 1.00737 0.77847 0.74911
 H1711 H 1.02856 0.78580 0.73676
 H1712 H 1.03367 0.74309 0.72108
 H1713 H 1.01236 0.73592 0.73322
 H1714 H 0.96494 0.72262 0.79097
 C1715 C 0.49424 0.75541 0.24766
 C1716 C 0.49452 0.74295 0.25485
 C1717 C 0.50784 0.73616 0.25915
 C1718 C 0.48151 0.73547 0.25884
 C1719 C 0.48094 0.76251 0.24387
 C1720 C 0.50722 0.76258 0.24297
 C1721 C 0.51051 0.72189 0.25576
 C1722 C 0.52309 0.71541 0.25943
 C1723 C 0.53325 0.72308 0.26661
 C1724 C 0.53046 0.73735 0.27013
 C1725 C 0.51782 0.74376 0.26658
 C1726 C 0.47177 0.73130 0.24894
 C1727 C 0.45941 0.72457 0.25296
 C1728 C 0.45666 0.72179 0.26692
 C1729 C 0.46659 0.72571 0.27675
 C1730 C 0.47891 0.73243 0.27273
 C1731 C 0.47096 0.76636 0.25388
 C1732 C 0.45851 0.77301 0.25002
 C1733 C 0.45589 0.77604 0.23611
 C1734 C 0.46605 0.77245 0.22619
 C1735 C 0.47844 0.76578 0.23004
 C1736 C 0.50928 0.77697 0.24613
 C1737 C 0.52142 0.78389 0.24188
 C1738 C 0.53176 0.77655 0.23433
 C1739 C 0.52960 0.76215 0.23105
 C1740 C 0.51738 0.75528 0.23519
 H1741 H 0.50290 0.71579 0.25012
 H1742 H 0.52477 0.70434 0.25680
 H1743 H 0.53811 0.74362 0.27552
 H1744 H 0.51589 0.75471 0.26952
 H1745 H 0.47369 0.73337 0.23813
 H1746 H 0.45190 0.72179 0.24517
 H1747 H 0.48635 0.73547 0.28051
 H1748 H 0.47281 0.76419 0.26465
 H1749 H 0.45086 0.77562 0.25790
 H1750 H 0.46449 0.77493 0.21544
 H1751 H 0.48608 0.76305 0.22219
 H1752 H 0.50149 0.78283 0.25198
 H1753 H 0.52261 0.79504 0.24435
 H1754 H 0.53740 0.75614 0.22539
 H1755 H 0.51588 0.74425 0.23240
 H1756 H 0.46486 0.72351 0.28756
 C1757 C 0.00309 0.74400 0.24330
 C1758 C 0.00304 0.75396 0.25349
 C1759 C -0.01001 0.75813 0.26084
 C1760 C 0.01599 0.76126 0.25789
 C1761 C 0.01615 0.73942 0.23623
 C1762 C -0.00995 0.73708 0.23869
 C1763 C -0.01411 0.77247 0.26114
 C1764 C -0.02634 0.77661 0.26796
 C1765 C -0.03470 0.76649 0.27471
 C1766 C -0.03046 0.75213 0.27457
 C1767 C -0.01819 0.74800 0.26775
 C1768 C 0.02444 0.76862 0.24843
 C1769 C 0.03651 0.77549 0.25281
 C1770 C 0.04029 0.77530 0.26676
 C1771 C 0.03169 0.76808 0.27622
 C1772 C 0.01967 0.76117 0.27182
 C1773 C 0.02736 0.73369 0.24362
 C1774 C 0.03964 0.72960 0.23679
 C1775 C 0.04089 0.73110 0.22244
 C1776 C 0.02954 0.73662 0.21506
 C1777 C 0.01728 0.74067 0.22189
 C1778 C -0.01119 0.72224 0.23955
 C1779 C -0.02348 0.71555 0.23556
 C1780 C -0.03471 0.72357 0.23045
 C1781 C -0.03334 0.73842 0.22935
 C1782 C -0.02106 0.74512 0.23342
 H1783 H -0.00785 0.78046 0.25599
 H1784 H -0.02916 0.78778 0.26812
 H1785 H -0.03669 0.74407 0.27962
 H1786 H -0.01507 0.73692 0.26786
 H1787 H 0.02167 0.76906 0.23767
 H1788 H 0.04296 0.78086 0.24525
 H1789 H 0.01323 0.75568 0.27931
 H1790 H 0.02662 0.73245 0.25468
 H1791 H 0.04822 0.72544 0.24275
 H1792 H 0.03011 0.73769 0.20398
 H1793 H 0.00870 0.74496 0.21600
 H1794 H -0.00269 0.71586 0.24350
 H1795 H -0.02416 0.70409 0.23635
 H1796 H -0.04185 0.74487 0.22552
 H1797 H -0.02023 0.75657 0.23252
 H1798 H 0.03413 0.76795 0.28706
 C1799 C 0.49952 0.73585 0.76058
 C1800 C 0.49948 0.74495 0.77152
 C1801 C 0.48630 0.75042 0.77779
 C1802 C 0.51264 0.74975 0.77801
 C1803 C 0.51272 0.73043 0.75439
 C1804 C 0.48644 0.73031 0.75453
 C1805 C 0.47603 0.75705 0.76979
 C1806 C 0.46359 0.76179 0.77586
 C1807 C 0.46128 0.76030 0.79011
 C1808 C 0.47175 0.75398 0.79812
 C1809 C 0.48411 0.74909 0.79202
 C1810 C 0.51526 0.76434 0.77932
 C1811 C 0.52752 0.76908 0.78544
 C1812 C 0.53741 0.75931 0.79044
 C1813 C 0.53463 0.74467 0.78932
 C1814 C 0.52233 0.73994 0.78325
 C1815 C 0.51516 0.71571 0.75391
 C1816 C 0.52763 0.71035 0.74846
 C1817 C 0.53786 0.71960 0.74327
 C1818 C 0.53529 0.73434 0.74352
 C1819 C 0.52281 0.73972 0.74902
 C1820 C 0.47658 0.72309 0.76264
 C1821 C 0.46450 0.71765 0.75672
 C1822 C 0.46212 0.71914 0.74252
 C1823 C 0.47206 0.72632 0.73443
 C1824 C 0.48411 0.73180 0.74037
 H1825 H 0.47760 0.75847 0.75884
 H1826 H 0.45571 0.76647 0.76934
 H1827 H 0.47047 0.75293 0.80915
 H1828 H 0.49195 0.74414 0.79841
 H1829 H 0.50783 0.77209 0.77554
 H1830 H 0.52917 0.78042 0.78639
 H1831 H 0.52036 0.72862 0.78262
 H1832 H 0.50747 0.70838 0.75793
 H1833 H 0.52922 0.69894 0.74821
 H1834 H 0.54303 0.74171 0.73966
 H1835 H 0.52105 0.75111 0.74916
 H1836 H 0.47829 0.72158 0.77354
 H1837 H 0.45701 0.71227 0.76326
 H1838 H 0.47068 0.72741 0.72344
 H1839 H 0.49166 0.73720 0.73391
 H1840 H 0.54204 0.73685 0.79300
 C1841 C 0.39807 0.30396 0.30635
 C1842 C 0.41051 0.29733 0.30205
 C1843 C 0.41793 0.28858 0.31131
 C1844 C 0.41278 0.28662 0.32470
 C1845 C 0.40037 0.29321 0.32888
 C1846 C 0.39286 0.30191 0.31976
 C1847 C 0.43033 0.28188 0.30702
 C1848 C 0.43538 0.28379 0.29357
 C1849 C 0.42795 0.29256 0.28432
 C1850 C 0.41557 0.29926 0.28861
 C1851 C 0.43304 0.29447 0.27089
 C1852 C 0.44535 0.28775 0.26664
 C1853 C 0.45283 0.27901 0.27573
 C1854 C 0.44776 0.27708 0.28921
 H1855 H 0.39238 0.31051 0.29914
 H1856 H 0.41834 0.27998 0.33195
 H1857 H 0.39671 0.29154 0.33931
 H1858 H 0.43601 0.27517 0.31414
 H1859 H 0.40988 0.30595 0.28149
 H1860 H 0.42747 0.30113 0.26366
 H1861 H 0.44895 0.28926 0.25616
 H1862 H 0.45354 0.27052 0.29637
 C1863 C 0.39132 0.79744 0.81556
 C1864 C 0.40392 0.79247 0.80974
 C1865 C 0.41004 0.79989 0.79859
 C1866 C 0.40341 0.81193 0.79328
 C1867 C 0.39082 0.81665 0.79890
 C1868 C 0.38455 0.80958 0.81017
 C1869 C 0.42265 0.79514 0.79282
 C1870 C 0.42914 0.78284 0.79784
 C1871 C 0.42296 0.77521 0.80881
 C1872 C 0.41044 0.78013 0.81479
 C1873 C 0.42939 0.76273 0.81356
 C1874 C 0.44179 0.75786 0.80747
 C1875 C 0.44808 0.76545 0.79660
 C1876 C 0.44168 0.77801 0.79192
 H1877 H 0.38675 0.79165 0.82408
 H1878 H 0.40795 0.81770 0.78471
 H1879 H 0.38623 0.82605 0.79440
 H1880 H 0.42735 0.80094 0.78433
 H1881 H 0.40574 0.77432 0.82326
 H1882 H 0.42477 0.75667 0.82189
 H1883 H 0.44634 0.74803 0.81115
 H1884 H 0.44650 0.78413 0.78373
 C1885 C -0.10827 0.30412 0.80654
 C1886 C -0.09644 0.29923 0.79925
 C1887 C -0.09273 0.30570 0.78661
 C1888 C -0.10099 0.31669 0.78134
 C1889 C -0.11267 0.32149 0.78862
 C1890 C -0.11636 0.31542 0.80136
 C1891 C -0.08074 0.30125 0.77949
 C1892 C -0.07231 0.29042 0.78484
 C1893 C -0.07608 0.28370 0.79732
 C1894 C -0.08814 0.28813 0.80446
 C1895 C -0.06761 0.27275 0.80250
 C1896 C -0.05540 0.26872 0.79551
 C1897 C -0.05142 0.27561 0.78327
 C1898 C -0.06005 0.28634 0.77792
 H1899 H -0.11094 0.29933 0.81634
 H1900 H -0.09836 0.32166 0.77161
 H1901 H -0.11879 0.32999 0.78419
 H1902 H -0.07787 0.30635 0.76987
 H1903 H -0.09098 0.28308 0.81411
 H1904 H -0.07034 0.26742 0.81202
 H1905 H -0.04888 0.26044 0.79984
 H1906 H -0.05720 0.29154 0.76836
 C1907 C -0.10454 0.79978 0.30482
 C1908 C -0.09263 0.79503 0.29766
 C1909 C -0.08929 0.80095 0.28469
 C1910 C -0.09794 0.81149 0.27911
 C1911 C -0.10977 0.81617 0.28631
 C1912 C -0.11322 0.81041 0.29925
 C1913 C -0.07733 0.79630 0.27755
 C1914 C -0.06862 0.78585 0.28325
 C1915 C -0.07199 0.77989 0.29621
 C1916 C -0.08398 0.78450 0.30332
 C1917 C -0.06326 0.76946 0.30187
 C1918 C -0.05123 0.76505 0.29483
 C1919 C -0.04770 0.77095 0.28199
 C1920 C -0.05653 0.78132 0.27623
 H1921 H -0.10690 0.79526 0.31481
 H1922 H -0.09555 0.81613 0.26917
 H1923 H -0.11625 0.82427 0.28165
 H1924 H -0.07476 0.80088 0.26761
 H1925 H -0.08653 0.77993 0.31327
 H1926 H -0.06566 0.76479 0.31179
 H1927 H -0.04453 0.75719 0.29958
 H1928 H -0.05405 0.78582 0.26625
 C1929 C 0.60274 0.69277 0.29922
 C1930 C 0.59020 0.69929 0.29518
 C1931 C 0.58350 0.70914 0.30407
 C1932 C 0.58944 0.71233 0.31679
 C1933 C 0.60195 0.70593 0.32067
 C1934 C 0.60876 0.69612 0.31196
 C1935 C 0.57100 0.71568 0.30013
 C1936 C 0.56509 0.71257 0.28736
 C1937 C 0.57178 0.70280 0.27840
 C1938 C 0.58428 0.69620 0.28237
 C1939 C 0.56583 0.69983 0.26561
 C1940 C 0.55338 0.70647 0.26174
 C1941 C 0.54660 0.71615 0.27061
 C1942 C 0.55257 0.71912 0.28344
 H1943 H 0.60791 0.68530 0.29237
 H1944 H 0.58440 0.71980 0.32374
 H1945 H 0.60619 0.70859 0.33061
 H1946 H 0.56589 0.72322 0.30698
 H1947 H 0.58941 0.68870 0.27549
 H1948 H 0.57082 0.69241 0.25858
 H1949 H 0.54915 0.70412 0.25171
 H1950 H 0.54737 0.72638 0.29049
 C1951 C 0.60410 0.19235 0.79906
 C1952 C 0.59213 0.19932 0.79420
 C1953 C 0.58899 0.21326 0.79876
 C1954 C 0.59788 0.22004 0.80798
 C1955 C 0.60973 0.21304 0.81278
 C1956 C 0.61295 0.19911 0.80847
 C1957 C 0.57695 0.22019 0.79413
 C1958 C 0.56794 0.21334 0.78505
 C1959 C 0.57109 0.19945 0.78036
 C1960 C 0.58319 0.19252 0.78495
 C1961 C 0.56202 0.19269 0.77125
 C1962 C 0.54984 0.19956 0.76697
 C1963 C 0.54652 0.21329 0.77175
 C1964 C 0.55573 0.22016 0.78069
 H1965 H 0.60634 0.18160 0.79568
 H1966 H 0.59565 0.23074 0.81153
 H1967 H 0.61638 0.21864 0.81985
 H1968 H 0.57453 0.23087 0.79770
 H1969 H 0.58558 0.18183 0.78141
 H1970 H 0.56426 0.18205 0.76753
 H1971 H 0.54286 0.19402 0.76014
 H1972 H 0.55340 0.23085 0.78425
 C1973 C 1.10208 0.69358 0.80737
 C1974 C 1.08980 0.70013 0.80277
 C1975 C 1.08335 0.71085 0.81083
 C1976 C 1.08938 0.71491 0.82329
 C1977 C 1.10160 0.70832 0.82781
 C1978 C 1.10806 0.69754 0.81996
 C1979 C 1.07097 0.71730 0.80634
 C1980 C 1.06495 0.71314 0.79388
 C1981 C 1.07144 0.70247 0.78579
 C1982 C 1.08382 0.69605 0.79027
 C1983 C 1.06540 0.69834 0.77335
 C1984 C 1.05300 0.70467 0.76899
 C1985 C 1.04638 0.71524 0.77697
 C1986 C 1.05248 0.71945 0.78942
 H1987 H 1.10695 0.68542 0.80108
 H1988 H 1.08459 0.72311 0.82960
 H1989 H 1.10584 0.71158 0.83757
 H1990 H 1.06601 0.72549 0.81256
 H1991 H 1.08877 0.68783 0.78406
 H1992 H 1.07027 0.69023 0.76699
 H1993 H 1.04865 0.70139 0.75926
 H1994 H 1.04740 0.72746 0.79576
 C1995 C 1.09884 0.19823 0.30125
 C1996 C 1.08664 0.20480 0.29644
 C1997 C 1.08102 0.21667 0.30355
 C1998 C 1.08764 0.22173 0.31533
 C1999 C 1.09977 0.21517 0.32002
 C2000 C 1.10554 0.20339 0.31303
 C2001 C 1.06890 0.22333 0.29876
 C2002 C 1.06231 0.21831 0.28693
 C2003 C 1.06788 0.20642 0.27982
 C2004 C 1.08001 0.19974 0.28462
 C2005 C 1.06120 0.20143 0.26801
 C2006 C 1.04912 0.20814 0.26330
 C2007 C 1.04351 0.21997 0.27029
 C2008 C 1.05019 0.22499 0.28212
 H2009 H 1.10318 0.18923 0.29569
 H2010 H 1.08344 0.23078 0.32093
 H2011 H 1.10453 0.21930 0.32922
 H2012 H 1.06461 0.23244 0.30423
 H2013 H 1.08429 0.19062 0.27916
 H2014 H 1.06533 0.19235 0.26241
 H2015 H 1.04425 0.20417 0.25407
 H2016 H 1.04585 0.23397 0.28772
 C2017 C 0.60353 0.29862 0.69556
 C2018 C 0.59123 0.29425 0.70226
 C2019 C 0.58601 0.30215 0.71357
 C2020 C 0.59320 0.31419 0.71806
 C2021 C 0.60543 0.31842 0.71139
 C2022 C 0.61074 0.31073 0.70008
 C2023 C 0.57369 0.29794 0.72024
 C2024 C 0.56650 0.28587 0.71578
 C2025 C 0.57173 0.27788 0.70452
 C2026 C 0.58406 0.28212 0.69783
 C2027 C 0.56451 0.26579 0.70016
 C2028 C 0.55221 0.26167 0.70685
 C2029 C 0.54690 0.26955 0.71803
 C2030 C 0.55414 0.28168 0.72241
 H2031 H 0.60753 0.29250 0.68694
 H2032 H 0.58935 0.32036 0.72671
 H2033 H 0.61060 0.32787 0.71506
 H2034 H 0.56970 0.30404 0.72889
 H2035 H 0.58806 0.27600 0.68918
 H2036 H 0.56838 0.25949 0.69160
 H2037 H 0.54694 0.25218 0.70337
 H2038 H 0.55005 0.28799 0.73088
 C2039 C 0.59984 0.80842 0.19983
 C2040 C 0.58737 0.80186 0.20400
 C2041 C 0.58100 0.79181 0.19528
 C2042 C 0.58717 0.78851 0.18256
 C2043 C 0.59970 0.79487 0.17862
 C2044 C 0.60617 0.80483 0.18721
 C2045 C 0.56865 0.78509 0.19947
 C2046 C 0.56272 0.78810 0.21239
 C2047 C 0.56910 0.79812 0.22112
 C2048 C 0.58132 0.80502 0.21684
 C2049 C 0.56320 0.80097 0.23407
 C2050 C 0.55114 0.79393 0.23837
 C2051 C 0.54466 0.78396 0.22976
 C2052 C 0.55054 0.78115 0.21674
 H2053 H 0.60482 0.81597 0.20660
 H2054 H 0.58240 0.78088 0.17573
 H2055 H 0.60430 0.79204 0.16878
 H2056 H 0.56377 0.77740 0.19277
 H2057 H 0.58620 0.81271 0.22354
 H2058 H 0.56800 0.80856 0.24093
 H2059 H 0.54698 0.79615 0.24854
 H2060 H 0.54558 0.77364 0.20991
 C2061 C 1.10179 0.29886 0.19119
 C2062 C 1.08962 0.29450 0.19807
 C2063 C 1.08645 0.30002 0.21126
 C2064 C 1.09552 0.30971 0.21737
 C2065 C 1.10761 0.31399 0.21047
 C2066 C 1.11088 0.30868 0.19729
 C2067 C 1.07424 0.29581 0.21812
 C2068 C 1.06514 0.28614 0.21195
 C2069 C 1.06834 0.28052 0.19881
 C2070 C 1.08056 0.28474 0.19194
 C2071 C 1.05922 0.27080 0.19273
 C2072 C 1.04699 0.26678 0.19957
 C2073 C 1.04364 0.27243 0.21257
 C2074 C 1.05284 0.28206 0.21873
 H2075 H 1.10404 0.29468 0.18104
 H2076 H 1.09327 0.31401 0.22749
 H2077 H 1.11440 0.32143 0.21556
 H2078 H 1.07179 0.30010 0.22821
 H2079 H 1.08299 0.28047 0.18183
 H2080 H 1.06150 0.26639 0.18266
 H2081 H 1.04000 0.25944 0.19457
 H2082 H 1.05047 0.28631 0.22885
 C2083 C 1.10344 0.79540 0.69807
 C2084 C 1.09148 0.79094 0.70525
 C2085 C 1.08936 0.79522 0.71905
 C2086 C 1.09926 0.80380 0.72545
 C2087 C 1.11113 0.80819 0.71824
 C2088 C 1.11336 0.80410 0.70447
 C2089 C 1.07738 0.79089 0.72622
 C2090 C 1.06747 0.78232 0.71978
 C2091 C 1.06961 0.77796 0.70600
 C2092 C 1.08159 0.78231 0.69881
 C2093 C 1.05971 0.76932 0.69962
 C2094 C 1.04778 0.76506 0.70682
 C2095 C 1.04551 0.76941 0.72048
 C2096 C 1.05543 0.77805 0.72690
 H2097 H 1.10488 0.79219 0.68746
 H2098 H 1.09783 0.80714 0.73603
 H2099 H 1.11858 0.81474 0.72356
 H2100 H 1.07575 0.79421 0.73681
 H2101 H 1.08321 0.77900 0.68823
 H2102 H 1.06117 0.76589 0.68907
 H2103 H 1.04020 0.75853 0.70162
 H2104 H 1.05384 0.78130 0.73750
 C2105 C 0.39555 0.69486 0.70121
 C2106 C 0.40725 0.70110 0.70725
 C2107 C 0.41173 0.71465 0.70283
 C2108 C 0.40442 0.72167 0.69237
 C2109 C 0.39274 0.71538 0.68641
 C2110 C 0.38811 0.70194 0.69080
 C2111 C 0.42340 0.72095 0.70896
 C2112 C 0.43061 0.71383 0.71946
 C2113 C 0.42607 0.70027 0.72386
 C2114 C 0.41445 0.69400 0.71772
 C2115 C 0.43324 0.69316 0.73432
 C2116 C 0.44487 0.69934 0.74036
 C2117 C 0.44956 0.71280 0.73612
 C2118 C 0.44232 0.72001 0.72564
 H2119 H 0.39237 0.68440 0.70463
 H2120 H 0.40768 0.73208 0.68884
 H2121 H 0.38728 0.72114 0.67845
 H2122 H 0.42683 0.73136 0.70558
 H2123 H 0.41099 0.68360 0.72114
 H2124 H 0.42990 0.68275 0.73778
 H2125 H 0.45034 0.69345 0.74823
 H2126 H 0.44574 0.73046 0.72236
 C2127 C 0.39945 0.19023 0.19762
 C2128 C 0.41189 0.19617 0.20245
 C2129 C 0.42038 0.20422 0.19342
 C2130 C 0.41635 0.20611 0.17973
 C2131 C 0.40391 0.20029 0.17505
 C2132 C 0.39530 0.19235 0.18393
 C2133 C 0.43268 0.21038 0.19822
 C2134 C 0.43659 0.20869 0.21198
 C2135 C 0.42818 0.20058 0.22103
 C2136 C 0.41589 0.19433 0.21619
 C2137 C 0.43218 0.19891 0.23477
 C2138 C 0.44440 0.20522 0.23951
 C2139 C 0.45279 0.21335 0.23061
 C2140 C 0.44881 0.21502 0.21683
 H2141 H 0.39287 0.18428 0.20464
 H2142 H 0.42279 0.21218 0.17267
 H2143 H 0.40107 0.20202 0.16443
 H2144 H 0.43914 0.21661 0.19129
 H2145 H 0.40942 0.18812 0.22313
 H2146 H 0.42583 0.19280 0.24188
 H2147 H 0.44717 0.20395 0.25021
 H2148 H 0.45531 0.22112 0.20985
 C2149 C -0.10398 0.69315 0.19808
 C2150 C -0.09157 0.69982 0.20213
 C2151 C -0.08571 0.71060 0.19378
 C2152 C -0.09226 0.71446 0.18154
 C2153 C -0.10455 0.70780 0.17758
 C2154 C -0.11064 0.69711 0.18578
 C2155 C -0.07341 0.71739 0.19778
 C2156 C -0.06682 0.71353 0.21004
 C2157 C -0.07257 0.70268 0.21838
 C2158 C -0.08492 0.69591 0.21439
 C2159 C -0.06585 0.69879 0.23057
 C2160 C -0.05357 0.70557 0.23446
 C2161 C -0.04779 0.71642 0.22628
 C2162 C -0.05452 0.72035 0.21406
 H2163 H -0.10842 0.68495 0.20457
 H2164 H -0.08790 0.72269 0.17500
 H2165 H -0.10923 0.71117 0.16805
 H2166 H -0.06898 0.72567 0.19135
 H2167 H -0.08935 0.68762 0.22082
 H2168 H -0.07010 0.69051 0.23711
 H2169 H -0.04865 0.70245 0.24399
 H2170 H -0.05006 0.72857 0.20758
 C2171 C -0.10598 0.20350 0.69304
 C2172 C -0.09407 0.20828 0.69988
 C2173 C -0.08845 0.20012 0.71073
 C2174 C -0.09482 0.18732 0.71452
 C2175 C -0.10665 0.18261 0.70764
 C2176 C -0.11239 0.19062 0.69682
 C2177 C -0.07654 0.20486 0.71759
 C2178 C -0.07012 0.21763 0.71369
 C2179 C -0.07573 0.22579 0.70282
 C2180 C -0.08768 0.22109 0.69601
 C2181 C -0.06925 0.23851 0.69892
 C2182 C -0.05728 0.24309 0.70565
 C2183 C -0.05158 0.23505 0.71645
 C2184 C -0.05814 0.22234 0.72044
 H2185 H -0.11021 0.20989 0.68480
 H2186 H -0.09063 0.18091 0.72279
 H2187 H -0.11120 0.17262 0.71080
 H2188 H -0.07224 0.19858 0.72591
 H2189 H -0.09196 0.22735 0.68767
 H2190 H -0.07337 0.24487 0.69058
 H2191 H -0.05234 0.25281 0.70223
 H2192 H -0.05397 0.21614 0.72888
 C2193 C 0.29829 0.38514 0.30672
 C2194 C 0.29344 0.39757 0.30034
 C2195 C 0.30190 0.40456 0.29051
 C2196 C 0.31503 0.39889 0.28714
 C2197 C 0.31983 0.38654 0.29361
 C2198 C 0.31158 0.37957 0.30355
 C2199 C 0.29718 0.41718 0.28434
 C2200 C 0.28414 0.42294 0.28798
 C2201 C 0.27563 0.41586 0.29774
 C2202 C 0.28030 0.40319 0.30379
 C2203 C 0.26265 0.42166 0.30144
 C2204 C 0.25821 0.43449 0.29570
 C2205 C 0.26663 0.44174 0.28613
 C2206 C 0.27954 0.43580 0.28218
 H2207 H 0.29169 0.37997 0.31427
 H2208 H 0.32165 0.40408 0.27960
 H2209 H 0.33008 0.38259 0.29085
 H2210 H 0.30372 0.42259 0.27685
 H2211 H 0.27379 0.39782 0.31133
 H2212 H 0.25598 0.41634 0.30885
 H2213 H 0.24813 0.43875 0.29873
 H2214 H 0.28615 0.44138 0.27489
 C2215 C 0.30925 -0.10799 0.79545
 C2216 C 0.30346 -0.09595 0.78917
 C2217 C 0.29017 -0.09098 0.79337
 C2218 C 0.28293 -0.09815 0.80382
 C2219 C 0.28873 -0.11020 0.80999
 C2220 C 0.30197 -0.11536 0.80590
 C2221 C 0.28435 -0.07897 0.78703
 C2222 C 0.29166 -0.07189 0.77653
 C2223 C 0.30496 -0.07688 0.77233
 C2224 C 0.31078 -0.08886 0.77869
 C2225 C 0.31224 -0.06980 0.76183
 C2226 C 0.30642 -0.05782 0.75557
 C2227 C 0.29325 -0.05271 0.75971
 C2228 C 0.28590 -0.05987 0.77017
 H2229 H 0.31941 -0.11157 0.79197
 H2230 H 0.27274 -0.09446 0.80720
 H2231 H 0.28274 -0.11538 0.81800
 H2232 H 0.27414 -0.07514 0.79026
 H2233 H 0.32099 -0.09268 0.77546
 H2234 H 0.32246 -0.07346 0.75852
 H2235 H 0.31235 -0.05238 0.74765
 H2236 H 0.27564 -0.05613 0.77330
 C2237 C 0.80987 0.39813 0.79271
 C2238 C 0.80361 0.40974 0.78610
 C2239 C 0.79036 0.41461 0.79052
 C2240 C 0.78355 0.40766 0.80138
 C2241 C 0.78983 0.39607 0.80790
 C2242 C 0.80313 0.39114 0.80374
 C2243 C 0.78418 0.42637 0.78405
 C2244 C 0.79112 0.43331 0.77322
 C2245 C 0.80431 0.42831 0.76870
 C2246 C 0.81046 0.41656 0.77516
 C2247 C 0.81119 0.43522 0.75784
 C2248 C 0.80518 0.44713 0.75164
 C2249 C 0.79217 0.45234 0.75617
 C2250 C 0.78513 0.44526 0.76690
 H2251 H 0.82004 0.39467 0.78912
 H2252 H 0.77336 0.41123 0.80489
 H2253 H 0.78418 0.39111 0.81628
 H2254 H 0.77404 0.43017 0.78751
 H2255 H 0.82062 0.41280 0.77174
 H2256 H 0.82130 0.43151 0.75425
 H2257 H 0.81087 0.45246 0.74349
 H2258 H 0.77499 0.44905 0.77034
 C2259 C 0.80756 -0.10681 0.30036
 C2260 C 0.80041 -0.09461 0.29586
 C2261 C 0.78914 -0.08916 0.30371
 C2262 C 0.78514 -0.09605 0.31587
 C2263 C 0.79224 -0.10822 0.32026
 C2264 C 0.80360 -0.11381 0.31264
 C2265 C 0.78205 -0.07691 0.29932
 C2266 C 0.78607 -0.07004 0.28712
 C2267 C 0.79728 -0.07554 0.27919
 C2268 C 0.80439 -0.08778 0.28360
 C2269 C 0.80123 -0.06867 0.26698
 C2270 C 0.79420 -0.05641 0.26270
 C2271 C 0.78311 -0.05075 0.27056
 C2272 C 0.77908 -0.05770 0.28277
 H2273 H 0.81616 -0.11077 0.29416
 H2274 H 0.77650 -0.09203 0.32200
 H2275 H 0.78874 -0.11309 0.32974
 H2276 H 0.77343 -0.07272 0.30540
 H2277 H 0.81301 -0.09196 0.27752
 H2278 H 0.80975 -0.07277 0.26073
 H2279 H 0.79737 -0.05142 0.25315
 H2280 H 0.77066 -0.05337 0.28902
 C2281 C 0.30052 0.61170 0.69192
 C2282 C 0.29574 0.59937 0.69859
 C2283 C 0.30364 0.59335 0.70935
 C2284 C 0.31616 0.59971 0.71322
 C2285 C 0.32087 0.61193 0.70652
 C2286 C 0.31313 0.61810 0.69581
 C2287 C 0.29894 0.58104 0.71604
 C2288 C 0.28647 0.57459 0.71207
 C2289 C 0.27852 0.58059 0.70133
 C2290 C 0.28319 0.59296 0.69467
 C2291 C 0.26608 0.57404 0.69739
 C2292 C 0.26161 0.56160 0.70393
 C2293 C 0.26949 0.55549 0.71456
 C2294 C 0.28187 0.56217 0.71863
 H2295 H 0.29438 0.61625 0.68372
 H2296 H 0.32235 0.59522 0.72144
 H2297 H 0.33067 0.61642 0.70972
 H2298 H 0.30503 0.57645 0.72429
 H2299 H 0.27709 0.59756 0.68644
 H2300 H 0.25985 0.57848 0.68918
 H2301 H 0.25211 0.55661 0.70050
 H2302 H 0.28792 0.55771 0.72697
 C2303 C 0.29680 1.11447 0.19233
 C2304 C 0.29123 1.10295 0.19977
 C2305 C 0.29701 1.09916 0.21260
 C2306 C 0.30803 1.10709 0.21790
 C2307 C 0.31355 1.11843 0.21043
 C2308 C 0.30820 1.12214 0.19748
 C2309 C 0.29185 1.08738 0.21985
 C2310 C 0.28107 1.07920 0.21436
 C2311 C 0.27510 1.08309 0.20165
 C2312 C 0.28018 1.09497 0.19446
 C2313 C 0.26428 1.07489 0.19624
 C2314 C 0.25959 1.06278 0.20321
 C2315 C 0.26569 1.05864 0.21568
 C2316 C 0.27633 1.06702 0.22127
 H2317 H 0.29249 1.11717 0.18240
 H2318 H 0.31252 1.10443 0.22776
 H2319 H 0.32205 1.12428 0.21490
 H2320 H 0.29639 1.08445 0.22964
 H2321 H 0.27568 1.09787 0.18465
 H2322 H 0.25959 1.07772 0.18652
 H2323 H 0.25143 1.05645 0.19868
 H2324 H 0.28097 1.06400 0.23098
 C2325 C 0.81405 0.60976 0.20639
 C2326 C 0.80822 0.59715 0.21171
 C2327 C 0.79645 0.59115 0.20532
 C2328 C 0.79078 0.59771 0.19372
 C2329 C 0.79660 0.61017 0.18851
 C2330 C 0.80823 0.61644 0.19477
 C2331 C 0.79051 0.57867 0.21057
 C2332 C 0.79619 0.57200 0.22214
 C2333 C 0.80798 0.57791 0.22856
 C2334 C 0.81392 0.59047 0.22333
 C2335 C 0.81363 0.57110 0.24010
 C2336 C 0.80770 0.55855 0.24517
 C2337 C 0.79596 0.55257 0.23884
 C2338 C 0.79024 0.55948 0.22734
 H2339 H 0.82299 0.61439 0.21138
 H2340 H 0.78180 0.59320 0.18867
 H2341 H 0.79190 0.61481 0.17949
 H2342 H 0.78146 0.57413 0.20564
 H2343 H 0.82296 0.59501 0.22828
 H2344 H 0.82268 0.57544 0.24517
 H2345 H 0.81245 0.55340 0.25393
 H2346 H 0.78105 0.55519 0.22249
 C2347 C 0.80946 1.10773 0.69995
 C2348 C 0.80265 1.09564 0.70509
 C2349 C 0.78999 1.09123 0.69917
 C2350 C 0.78432 1.09903 0.68828
 C2351 C 0.79116 1.11105 0.68321
 C2352 C 0.80382 1.11554 0.68893
 C2353 C 0.78325 1.07905 0.70418
 C2354 C 0.78905 1.07119 0.71500
 C2355 C 0.80166 1.07566 0.72099
 C2356 C 0.80837 1.08786 0.71602
 C2357 C 0.80741 1.06777 0.73181
 C2358 C 0.80081 1.05547 0.73655
 C2359 C 0.78834 1.05083 0.73059
 C2360 C 0.78246 1.05886 0.71987
 H2361 H 0.81920 1.11091 0.70451
 H2362 H 0.77461 1.09582 0.68364
 H2363 H 0.78644 1.11680 0.67481
 H2364 H 0.77356 1.07564 0.69959
 H2365 H 0.81808 1.09126 0.72059
 H2366 H 0.81707 1.07103 0.73651
 H2367 H 0.80564 1.04941 0.74471
 H2368 H 0.77273 1.05553 0.71533
 C2369 C 0.70169 0.60823 0.30967
 C2370 C 0.70734 0.59583 0.30374
 C2371 C 0.69986 0.58853 0.29349
 C2372 C 0.68693 0.59389 0.28925
 C2373 C 0.68138 0.60626 0.29519
 C2374 C 0.68862 0.61355 0.30554
 C2375 C 0.70540 0.57600 0.28771
 C2376 C 0.71836 0.57070 0.29203
 C2377 C 0.72588 0.57810 0.30219
 C2378 C 0.72034 0.59060 0.30796
 C2379 C 0.73883 0.57283 0.30648
 C2380 C 0.74424 0.56028 0.30087
 C2381 C 0.73684 0.55275 0.29084
 C2382 C 0.72390 0.55808 0.28641
 H2383 H 0.70754 0.61365 0.31753
 H2384 H 0.68107 0.58847 0.28136
 H2385 H 0.67134 0.60999 0.29170
 H2386 H 0.69962 0.57036 0.27989
 H2387 H 0.72612 0.59622 0.31579
 H2388 H 0.74479 0.57842 0.31418
 H2389 H 0.75432 0.55649 0.30429
 H2390 H 0.71804 0.55225 0.27879
 C2391 C 0.70010 1.10760 0.80593
 C2392 C 0.70492 1.09536 0.79905
 C2393 C 0.69742 1.08996 0.78778
 C2394 C 0.68527 1.09691 0.78354
 C2395 C 0.68052 1.10906 0.79040
 C2396 C 0.68781 1.11463 0.80174
 C2397 C 0.70215 1.07768 0.78094
 C2398 C 0.71429 1.07069 0.78527
 C2399 C 0.72182 1.07610 0.79654
 C2400 C 0.71711 1.08841 0.80333
 C2401 C 0.73391 1.06905 0.80089
 C2402 C 0.73844 1.05669 0.79423
 C2403 C 0.73100 1.05113 0.78307
 C2404 C 0.71895 1.05828 0.77859
 H2405 H 0.70601 1.11153 0.81454
 H2406 H 0.67939 1.09291 0.77491
 H2407 H 0.67106 1.11396 0.78671
 H2408 H 0.69635 1.07354 0.77231
 H2409 H 0.72290 1.09253 0.81199
 H2410 H 0.73983 1.07308 0.80948
 H2411 H 0.74785 1.05149 0.79777
 H2412 H 0.71304 1.05401 0.77010
 C2413 C 0.19824 0.61070 0.80800
 C2414 C 0.20322 0.59910 0.80027
 C2415 C 0.19586 0.59464 0.78852
 C2416 C 0.18378 0.60196 0.78460
 C2417 C 0.17888 0.61346 0.79237
 C2418 C 0.18594 0.61790 0.80422
 C2419 C 0.20059 0.58284 0.78095
 C2420 C 0.21254 0.57537 0.78505
 C2421 C 0.22002 0.57992 0.79670
 C2422 C 0.21533 0.59178 0.80422
 C2423 C 0.23197 0.57241 0.80073
 C2424 C 0.23635 0.56036 0.79343
 C2425 C 0.22887 0.55561 0.78197
 C2426 C 0.21704 0.56329 0.77776
 H2427 H 0.20386 0.61389 0.81709
 H2428 H 0.17805 0.59872 0.77558
 H2429 H 0.16949 0.61881 0.78904
 H2430 H 0.19488 0.57937 0.77199
 H2431 H 0.22101 0.59521 0.81322
 H2432 H 0.23783 0.57575 0.80963
 H2433 H 0.24541 0.55454 0.79696
 H2434 H 0.21130 0.55984 0.76881
 C2435 C 0.19393 1.11364 0.30889
 C2436 C 0.19879 1.10173 0.30149
 C2437 C 0.19149 1.09711 0.28975
 C2438 C 0.17953 1.10446 0.28559
 C2439 C 0.17475 1.11625 0.29300
 C2440 C 0.18184 1.12099 0.30474
 C2441 C 0.19621 1.08521 0.28236
 C2442 C 0.20813 1.07778 0.28657
 C2443 C 0.21549 1.08236 0.29828
 C2444 C 0.21079 1.09433 0.30566
 C2445 C 0.22739 1.07484 0.30243
 C2446 C 0.23188 1.06282 0.29513
 C2447 C 0.22455 1.05810 0.28355
 C2448 C 0.21272 1.06574 0.27929
 H2449 H 0.19952 1.11705 0.31792
 H2450 H 0.17383 1.10108 0.27660
 H2451 H 0.16552 1.12167 0.28939
 H2452 H 0.19056 1.08167 0.27338
 H2453 H 0.21642 1.09782 0.31467
 H2454 H 0.23315 1.07816 0.31140
 H2455 H 0.24093 1.05703 0.29872
 H2456 H 0.20710 1.06233 0.27026
 C2457 C 0.70326 0.39334 0.68734
 C2458 C 0.70844 0.40643 0.69195
 C2459 C 0.70050 0.41469 0.70135
 C2460 C 0.68745 0.40983 0.70579
 C2461 C 0.68236 0.39681 0.70114
 C2462 C 0.69022 0.38836 0.69195
 C2463 C 0.70576 0.42764 0.70619
 C2464 C 0.71883 0.43248 0.70171
 C2465 C 0.72669 0.42433 0.69215
 C2466 C 0.72147 0.41135 0.68736
 C2467 C 0.73967 0.42931 0.68756
 C2468 C 0.74487 0.44220 0.69244
 C2469 C 0.73722 0.45032 0.70205
 C2470 C 0.72417 0.44537 0.70662
 H2471 H 0.70952 0.38699 0.68031
 H2472 H 0.68116 0.41609 0.71288
 H2473 H 0.67221 0.39345 0.70476
 H2474 H 0.69969 0.43391 0.71347
 H2475 H 0.72754 0.40507 0.68009
 H2476 H 0.74582 0.42323 0.68022
 H2477 H 0.75499 0.44572 0.68884
 H2478 H 0.71808 0.45164 0.71387
 C2479 C 0.69713 -0.10817 0.19318
 C2480 C 0.70246 -0.09648 0.20039
 C2481 C 0.69771 -0.09367 0.21393
 C2482 C 0.68783 -0.10262 0.22005
 C2483 C 0.68255 -0.11418 0.21281
 C2484 C 0.68704 -0.11705 0.19928
 C2485 C 0.70280 -0.08188 0.22110
 C2486 C 0.71250 -0.07277 0.21488
 C2487 C 0.71734 -0.07559 0.20137
 C2488 C 0.71232 -0.08745 0.19421
 C2489 C 0.72705 -0.06642 0.19522
 C2490 C 0.73177 -0.05447 0.20230
 C2491 C 0.72690 -0.05148 0.21568
 C2492 C 0.71734 -0.06079 0.22194
 H2493 H 0.70066 -0.11015 0.18274
 H2494 H 0.68410 -0.10062 0.23043
 H2495 H 0.67496 -0.12090 0.21788
 H2496 H 0.69911 -0.07972 0.23147
 H2497 H 0.71597 -0.08956 0.18382
 H2498 H 0.73088 -0.06840 0.18488
 H2499 H 0.73903 -0.04738 0.19720
 H2500 H 0.71368 -0.05871 0.23233
 C2501 C 0.18947 0.39035 0.19998
 C2502 C 0.19629 0.40222 0.20541
 C2503 C 0.20942 0.40626 0.20005
 C2504 C 0.21550 0.39833 0.18934
 C2505 C 0.20864 0.38649 0.18400
 C2506 C 0.19557 0.38234 0.18927
 C2507 C 0.21624 0.41815 0.20549
 C2508 C 0.21007 0.42602 0.21622
 C2509 C 0.19694 0.42193 0.22158
 C2510 C 0.19013 0.41007 0.21613
 C2511 C 0.19080 0.42977 0.23230
 C2512 C 0.19760 0.44158 0.23770
 C2513 C 0.21066 0.44579 0.23248
 C2514 C 0.21683 0.43792 0.22171
 H2515 H 0.17935 0.38749 0.20410
 H2516 H 0.22557 0.40125 0.18512
 H2517 H 0.21368 0.38053 0.17583
 H2518 H 0.22632 0.42127 0.20137
 H2519 H 0.18006 0.40695 0.22026
 H2520 H 0.18072 0.42681 0.23648
 H2521 H 0.19252 0.44757 0.24585
 H2522 H 0.22697 0.44097 0.21770
 C2523 C 0.20301 -0.11150 0.68860
 C2524 C 0.20859 -0.09884 0.69379
 C2525 C 0.20138 -0.09132 0.70427
 C2526 C 0.18873 -0.09660 0.70940
 C2527 C 0.18330 -0.10925 0.70426
 C2528 C 0.19036 -0.11683 0.69384
 C2529 C 0.20691 -0.07868 0.70948
 C2530 C 0.21961 -0.07346 0.70439
 C2531 C 0.22687 -0.08100 0.69395
 C2532 C 0.22131 -0.09363 0.68870
 C2533 C 0.23957 -0.07574 0.68892
 C2534 C 0.24501 -0.06312 0.69414
 C2535 C 0.23786 -0.05551 0.70448
 C2536 C 0.22514 -0.06079 0.70957
 H2537 H 0.20864 -0.11730 0.68067
 H2538 H 0.18305 -0.09096 0.71741
 H2539 H 0.17347 -0.11301 0.70838
 H2540 H 0.20135 -0.07291 0.71751
 H2541 H 0.22688 -0.09940 0.68069
 H2542 H 0.24531 -0.08140 0.68096
 H2543 H 0.25492 -0.05937 0.69017
 H2544 H 0.21943 -0.05493 0.71741
 C2545 C 0.30831 0.29713 0.39681
 C2546 C 0.30078 0.29142 0.40793
 C2547 C 0.28611 0.29036 0.40719
 C2548 C 0.27920 0.29533 0.39547
 C2549 C 0.28676 0.30129 0.38457
 C2550 C 0.30136 0.30212 0.38509
 C2551 C 0.27858 0.28447 0.41822
 C2552 C 0.28550 0.27997 0.43012
 C2553 C 0.30013 0.28135 0.43097
 C2554 C 0.30770 0.28690 0.41981
 C2555 C 0.30695 0.27727 0.44303
 C2556 C 0.29935 0.27195 0.45419
 C2557 C 0.28479 0.27032 0.45346
 C2558 C 0.27798 0.27427 0.44126
 H2559 H 0.31955 0.29794 0.39739
 H2560 H 0.26796 0.29467 0.39476
 H2561 H 0.28119 0.30503 0.37562
 H2562 H 0.26733 0.28356 0.41761
 H2563 H 0.31894 0.28785 0.42044
 H2564 H 0.31814 0.27840 0.44391
 H2565 H 0.30491 0.26937 0.46351
 H2566 H 0.26682 0.27290 0.44036
 C2567 C 0.30539 0.79670 -0.10697
 C2568 C 0.29904 0.79276 -0.09445
 C2569 C 0.28771 0.80088 -0.08922
 C2570 C 0.28287 0.81267 -0.09659
 C2571 C 0.28914 0.81643 -0.10904
 C2572 C 0.30044 0.80853 -0.11438
 C2573 C 0.28136 0.79711 -0.07673
 C2574 C 0.28609 0.78524 -0.06939
 C2575 C 0.29731 0.77699 -0.07461
 C2576 C 0.30376 0.78083 -0.08709
 C2577 C 0.30185 0.76502 -0.06723
 C2578 C 0.29537 0.76132 -0.05480
 C2579 C 0.28431 0.76956 -0.04947
 C2580 C 0.27971 0.78149 -0.05689
 H2581 H 0.31403 0.79047 -0.11101
 H2582 H 0.27422 0.81901 -0.09271
 H2583 H 0.28520 0.82570 -0.11436
 H2584 H 0.27271 0.80340 -0.07274
 H2585 H 0.31240 0.77454 -0.09108
 H2586 H 0.31042 0.75855 -0.07107
 H2587 H 0.29915 0.75212 -0.04922
 H2588 H 0.27103 0.78779 -0.05300
 C2589 C 0.80970 0.29774 -0.11192
 C2590 C 0.80411 0.29190 -0.09977
 C2591 C 0.79356 0.29934 -0.09246
 C2592 C 0.78878 0.31246 -0.09741
 C2593 C 0.79439 0.31819 -0.10949
 C2594 C 0.80490 0.31094 -0.11690
 C2595 C 0.78798 0.29360 -0.08030
 C2596 C 0.79283 0.28050 -0.07530
 C2597 C 0.80339 0.27304 -0.08260
 C2598 C 0.80894 0.27877 -0.09480
 C2599 C 0.80826 0.25998 -0.07753
 C2600 C 0.80282 0.25441 -0.06531
 C2601 C 0.79235 0.26174 -0.05793
 C2602 C 0.78736 0.27478 -0.06306
 H2603 H 0.81772 0.29193 -0.11749
 H2604 H 0.78073 0.31833 -0.09192
 H2605 H 0.79051 0.32841 -0.11288
 H2606 H 0.77990 0.29935 -0.07470
 H2607 H 0.81704 0.27304 -0.10038
 H2608 H 0.81631 0.25410 -0.08300
 H2609 H 0.80671 0.24426 -0.06166
 H2610 H 0.77942 0.28062 -0.05738
 C2611 C 0.80161 0.80298 0.39080
 C2612 C 0.79716 0.79580 0.40270
 C2613 C 0.80568 0.78506 0.40844
 C2614 C 0.81849 0.78169 0.40218
 C2615 C 0.82286 0.78892 0.39037
 C2616 C 0.81451 0.79966 0.38454
 C2617 C 0.80131 0.77791 0.42036
 C2618 C 0.78855 0.78142 0.42669
 C2619 C 0.78001 0.79215 0.42095
 C2620 C 0.78435 0.79924 0.40897
 C2621 C 0.76731 0.79568 0.42736
 C2622 C 0.76315 0.78874 0.43942
 C2623 C 0.77158 0.77811 0.44527
 C2624 C 0.78425 0.77444 0.43873
 H2625 H 0.79495 0.81111 0.38644
 H2626 H 0.82517 0.77352 0.40647
 H2627 H 0.83288 0.78614 0.38593
 H2628 H 0.80787 0.76968 0.42477
 H2629 H 0.77780 0.80748 0.40458
 H2630 H 0.76066 0.80392 0.42313
 H2631 H 0.75344 0.79191 0.44432
 H2632 H 0.79075 0.76611 0.44301
 C2633 C 0.69815 0.30983 0.60985
 C2634 C 0.70299 0.30357 0.59759
 C2635 C 0.69537 0.29238 0.59157
 C2636 C 0.68305 0.28769 0.59789
 C2637 C 0.67830 0.29399 0.61008
 C2638 C 0.68577 0.30511 0.61624
 C2639 C 0.70017 0.28608 0.57933
 C2640 C 0.71249 0.29084 0.57300
 C2641 C 0.72012 0.30203 0.57900
 C2642 C 0.71532 0.30833 0.59125
 C2643 C 0.73242 0.30676 0.57262
 C2644 C 0.73709 0.30051 0.56036
 C2645 C 0.72956 0.28943 0.55425
 C2646 C 0.71729 0.28460 0.56072
 H2647 H 0.70403 0.31844 0.61432
 H2648 H 0.67708 0.27913 0.59342
 H2649 H 0.66879 0.29001 0.61469
 H2650 H 0.69431 0.27750 0.57472
 H2651 H 0.72116 0.31693 0.59584
 H2652 H 0.73838 0.31534 0.57706
 H2653 H 0.74649 0.30454 0.55552
 H2654 H 0.71151 0.27589 0.55625
 C2655 C 0.70192 0.80888 1.11156
 C2656 C 0.70753 0.80209 1.09986
 C2657 C 0.70638 0.78716 1.09851
 C2658 C 0.70010 0.77922 1.10903
 C2659 C 0.69456 0.78603 1.12060
 C2660 C 0.69511 0.80092 1.12186
 C2661 C 0.71130 0.78040 1.08657
 C2662 C 0.71738 0.78835 1.07594
 C2663 C 0.71894 0.80323 1.07741
 C2664 C 0.71399 0.81002 1.08937
 C2665 C 0.72530 0.81107 1.06681
 C2666 C 0.72986 0.80426 1.05479
 C2667 C 0.72798 0.78955 1.05313
 C2668 C 0.72182 0.78165 1.06379
 H2669 H 0.70246 0.82035 1.11240
 H2670 H 0.69930 0.76775 1.10822
 H2671 H 0.68976 0.77957 1.12852
 H2672 H 0.71023 0.76896 1.08547
 H2673 H 0.71498 0.82146 1.09041
 H2674 H 0.72668 0.82246 1.06777
 H2675 H 0.73460 0.81051 1.04666
 H2676 H 0.72054 0.77025 1.06262
 C2677 C 0.19455 0.30569 1.10403
 C2678 C 0.19934 0.29866 1.09215
 C2679 C 0.19364 0.28535 1.08854
 C2680 C 0.18322 0.27933 1.09685
 C2681 C 0.17854 0.28638 1.10867
 C2682 C 0.18416 0.29960 1.11243
 C2683 C 0.19845 0.27826 1.07672
 C2684 C 0.20891 0.28431 1.06846
 C2685 C 0.21460 0.29764 1.07206
 C2686 C 0.20976 0.30474 1.08386
 C2687 C 0.22507 0.30364 1.06380
 C2688 C 0.22991 0.29650 1.05210
 C2689 C 0.22436 0.28323 1.04842
 C2690 C 0.21382 0.27721 1.05667
 H2691 H 0.19893 0.31592 1.10663
 H2692 H 0.17873 0.26914 1.09424
 H2693 H 0.17060 0.28133 1.11490
 H2694 H 0.19409 0.26803 1.07398
 H2695 H 0.21413 0.31496 1.08661
 H2696 H 0.22952 0.31386 1.06639
 H2697 H 0.23790 0.30144 1.04581
 H2698 H 0.20959 0.26690 1.05402
 C2699 C 0.19513 0.80606 0.60892
 C2700 C 0.19973 0.79989 0.59654
 C2701 C 0.19210 0.78863 0.59066
 C2702 C 0.17998 0.78379 0.59726
 C2703 C 0.17546 0.79001 0.60958
 C2704 C 0.18296 0.80120 0.61558
 C2705 C 0.19669 0.78243 0.57829
 C2706 C 0.20879 0.78738 0.57169
 C2707 C 0.21639 0.79868 0.57756
 C2708 C 0.21184 0.80483 0.58996
 C2709 C 0.22841 0.80369 0.57090
 C2710 C 0.23285 0.79763 0.55851
 C2711 C 0.22540 0.78640 0.55256
 C2712 C 0.21339 0.78127 0.55926
 H2713 H 0.20115 0.81459 0.61335
 H2714 H 0.17398 0.77520 0.59289
 H2715 H 0.16601 0.78604 0.61431
 H2716 H 0.19083 0.77378 0.57379
 H2717 H 0.21769 0.81348 0.59445
 H2718 H 0.23437 0.81231 0.57528
 H2719 H 0.24223 0.80163 0.55362
 H2720 H 0.20750 0.77270 0.55469
 C2721 C 0.31003 0.70776 0.60684
 C2722 C 0.30285 0.71263 0.59516
 C2723 C 0.29032 0.70593 0.59126
 C2724 C 0.28514 0.69462 0.59909
 C2725 C 0.29230 0.68988 0.61065
 C2726 C 0.30486 0.69629 0.61468
 C2727 C 0.28316 0.71058 0.57957
 C2728 C 0.28834 0.72187 0.57166
 C2729 C 0.30079 0.72870 0.57555
 C2730 C 0.30798 0.72403 0.58727
 C2731 C 0.30585 0.74004 0.56758
 C2732 C 0.29873 0.74445 0.55581
 C2733 C 0.28643 0.73760 0.55176
 C2734 C 0.28126 0.72638 0.55985
 H2735 H 0.31966 0.71287 0.60971
 H2736 H 0.27553 0.68941 0.59627
 H2737 H 0.28783 0.68117 0.61641
 H2738 H 0.27359 0.70537 0.57660
 H2739 H 0.31758 0.72922 0.59022
 H2740 H 0.31538 0.74541 0.57038
 H2741 H 0.30302 0.75304 0.54970
 H2742 H 0.27167 0.72115 0.55697
 C2743 C 0.29950 0.19443 1.10627
 C2744 C 0.29417 0.20178 1.09482
 C2745 C 0.29803 0.21611 1.09252
 C2746 C 0.30691 0.22291 1.10174
 C2747 C 0.31230 0.21550 1.11293
 C2748 C 0.30879 0.20118 1.11524
 C2749 C 0.29316 0.22337 1.08092
 C2750 C 0.28455 0.21650 1.07148
 C2751 C 0.28048 0.20227 1.07383
 C2752 C 0.28529 0.19499 1.08550
 C2753 C 0.27178 0.19551 1.06435
 C2754 C 0.26733 0.20272 1.05258
 C2755 C 0.27156 0.21678 1.05006
 C2756 C 0.28009 0.22364 1.05963
 H2757 H 0.29677 0.18337 1.10790
 H2758 H 0.30984 0.23391 1.10016
 H2759 H 0.31924 0.22105 1.11981
 H2760 H 0.29624 0.23432 1.07912
 H2761 H 0.28229 0.18402 1.08720
 H2762 H 0.26852 0.18461 1.06596
 H2763 H 0.26083 0.19719 1.04529
 H2764 H 0.28324 0.23455 1.05784
 C2765 C 0.80685 0.70480 1.10847
 C2766 C 0.80021 0.70914 1.09636
 C2767 C 0.78919 0.70094 1.09103
 C2768 C 0.78500 0.68856 1.09791
 C2769 C 0.79161 0.68436 1.11000
 C2770 C 0.80259 0.69241 1.11542
 C2771 C 0.78251 0.70525 1.07893
 C2772 C 0.78666 0.71772 1.07214
 C2773 C 0.79764 0.72595 1.07748
 C2774 C 0.80437 0.72160 1.08954
 C2775 C 0.80171 0.73842 1.07067
 C2776 C 0.79496 0.74272 1.05868
 C2777 C 0.78405 0.73460 1.05322
 C2778 C 0.77998 0.72207 1.06005
 H2779 H 0.81520 0.71120 1.11257
 H2780 H 0.77660 0.68213 1.09395
 H2781 H 0.78818 0.67470 1.11501
 H2782 H 0.77407 0.69894 1.07485
 H2783 H 0.81282 0.72791 1.09362
 H2784 H 0.81008 0.74489 1.07465
 H2785 H 0.79818 0.75252 1.05377
 H2786 H 0.77173 0.71559 1.05586
 C2787 C 0.80120 0.19680 0.60747
 C2788 C 0.79666 0.20394 0.59562
 C2789 C 0.80485 0.21498 0.58995
 C2790 C 0.81741 0.21867 0.59619
 C2791 C 0.82187 0.21151 0.60794
 C2792 C 0.81385 0.20050 0.61376
 C2793 C 0.80038 0.22215 0.57813
 C2794 C 0.78785 0.21838 0.57183
 C2795 C 0.77964 0.20732 0.57744
 C2796 C 0.78408 0.20019 0.58932
 C2797 C 0.76716 0.20356 0.57103
 C2798 C 0.76289 0.21061 0.55911
 C2799 C 0.77100 0.22159 0.55340
 C2800 C 0.78344 0.22546 0.55993
 H2801 H 0.79481 0.18842 0.61178
 H2802 H 0.82383 0.22708 0.59196
 H2803 H 0.83168 0.21462 0.61236
 H2804 H 0.80669 0.23062 0.57381
 H2805 H 0.77779 0.19170 0.59362
 H2806 H 0.76076 0.19508 0.57516
 H2807 H 0.75336 0.20729 0.55421
 H2808 H 0.78968 0.23406 0.55578
 C2809 C 0.70150 0.68990 0.39138
 C2810 C 0.70647 0.69589 0.40364
 C2811 C 0.69865 0.70671 0.41030
 C2812 C 0.68601 0.71128 0.40469
 C2813 C 0.68116 0.70531 0.39253
 C2814 C 0.68884 0.69462 0.38567
 C2815 C 0.70354 0.71279 0.42247
 C2816 C 0.71613 0.70815 0.42817
 C2817 C 0.72400 0.69734 0.42159
 C2818 C 0.71914 0.69129 0.40933
 C2819 C 0.73660 0.69279 0.42743
 C2820 C 0.74124 0.69878 0.43975
 C2821 C 0.73337 0.70942 0.44643
 C2822 C 0.72090 0.71415 0.44043
 H2823 H 0.70758 0.68172 0.38625
 H2824 H 0.67986 0.71950 0.40972
 H2825 H 0.67130 0.70908 0.38860
 H2826 H 0.69751 0.72110 0.42754
 H2827 H 0.72517 0.68300 0.40426
 H2828 H 0.74279 0.68452 0.42254
 H2829 H 0.75085 0.69489 0.44417
 H2830 H 0.71489 0.72259 0.44529
 C2831 C 0.70597 0.18646 -0.11042
 C2832 C 0.71219 0.19248 -0.09875
 C2833 C 0.70797 0.20616 -0.09425
 C2834 C 0.69782 0.21366 -0.10155
 C2835 C 0.69172 0.20764 -0.11312
 C2836 C 0.69560 0.19394 -0.11765
 C2837 C 0.71389 0.21213 -0.08249
 C2838 C 0.72400 0.20461 -0.07510
 C2839 C 0.72843 0.19102 -0.07965
 C2840 C 0.72248 0.18502 -0.09145
 C2841 C 0.73867 0.18364 -0.07226
 C2842 C 0.74434 0.18960 -0.06038
 C2843 C 0.73981 0.20299 -0.05565
 C2844 C 0.72970 0.21048 -0.06317
 H2845 H 0.70908 0.17589 -0.11370
 H2846 H 0.69454 0.22420 -0.09830
 H2847 H 0.68398 0.21385 -0.11850
 H2848 H 0.71056 0.22259 -0.07902
 H2849 H 0.72579 0.17455 -0.09489
 H2850 H 0.74222 0.17323 -0.07560
 H2851 H 0.75207 0.18360 -0.05472
 H2852 H 0.72631 0.22092 -0.05974
 C2853 C 0.19197 0.70366 -0.10403
 C2854 C 0.19910 0.70831 -0.09232
 C2855 C 0.21000 0.69989 -0.08689
 C2856 C 0.21365 0.68706 -0.09331
 C2857 C 0.20649 0.68248 -0.10490
 C2858 C 0.19552 0.69065 -0.11037
 C2859 C 0.21698 0.70434 -0.07506
 C2860 C 0.21314 0.71706 -0.06850
 C2861 C 0.20233 0.72557 -0.07396
 C2862 C 0.19541 0.72117 -0.08587
 C2863 C 0.19854 0.73828 -0.06732
 C2864 C 0.20526 0.74242 -0.05528
 C2865 C 0.21590 0.73394 -0.04967
 C2866 C 0.21986 0.72132 -0.05644
 H2867 H 0.18365 0.71018 -0.10814
 H2868 H 0.22197 0.68047 -0.08927
 H2869 H 0.20945 0.67239 -0.10941
 H2870 H 0.22529 0.69782 -0.07088
 H2871 H 0.18707 0.72767 -0.09003
 H2872 H 0.19027 0.74493 -0.07134
 H2873 H 0.20193 0.75212 -0.05019
 H2874 H 0.22820 0.71480 -0.05233
 C2875 C 0.20039 0.19745 0.39078
 C2876 C 0.20578 0.20411 0.40253
 C2877 C 0.20382 0.21892 0.40440
 C2878 C 0.19677 0.22685 0.39444
 C2879 C 0.19129 0.22013 0.38293
 C2880 C 0.19284 0.20538 0.38108
 C2881 C 0.20868 0.22555 0.41631
 C2882 C 0.21536 0.21757 0.42649
 C2883 C 0.21753 0.20280 0.42459
 C2884 C 0.21278 0.19617 0.41259
 C2885 C 0.22425 0.19490 0.43483
 C2886 C 0.22859 0.20152 0.44692
 C2887 C 0.22626 0.21615 0.44899
 C2888 C 0.21973 0.22412 0.43865
 H2889 H 0.20160 0.18606 0.38950
 H2890 H 0.19527 0.23822 0.39566
 H2891 H 0.18574 0.22654 0.37550
 H2892 H 0.20704 0.23689 0.41777
 H2893 H 0.21431 0.18482 0.41119
 H2894 H 0.22601 0.18358 0.43357
 H2895 H 0.23351 0.19514 0.45479
 H2896 H 0.21808 0.23545 0.44007
 C2897 C 0.29915 0.39422 0.69186
 C2898 C 0.29388 0.40593 0.69922
 C2899 C 0.29644 0.40709 0.71347
 C2900 C 0.30438 0.39658 0.72006
 C2901 C 0.30974 0.38504 0.71261
 C2902 C 0.30712 0.38370 0.69847
 C2903 C 0.29109 0.41876 0.72087
 C2904 C 0.28344 0.42941 0.71413
 C2905 C 0.28106 0.42832 0.69984
 C2906 C 0.28620 0.41655 0.69250
 C2907 C 0.27366 0.43909 0.69309
 C2908 C 0.26871 0.45090 0.70038
 C2909 C 0.27088 0.45210 0.71463
 C2910 C 0.27822 0.44121 0.72144
 H2911 H 0.29722 0.39344 0.68093
 H2912 H 0.30648 0.39731 0.73097
 H2913 H 0.31578 0.37705 0.71797
 H2914 H 0.29301 0.41962 0.73181
 H2915 H 0.28432 0.41571 0.68155
 H2916 H 0.27183 0.43848 0.68213
 H2917 H 0.26340 0.45922 0.69476
 H2918 H 0.27983 0.44184 0.73244
 C2919 C 0.29769 0.89797 0.19346
 C2920 C 0.29237 0.90971 0.20074
 C2921 C 0.29482 0.91092 0.21501
 C2922 C 0.30268 0.90042 0.22170
 C2923 C 0.30805 0.88882 0.21434
 C2924 C 0.30559 0.88745 0.20018
 C2925 C 0.28944 0.92261 0.22233
 C2926 C 0.28175 0.93319 0.21554
 C2927 C 0.27945 0.93206 0.20124
 C2928 C 0.28471 0.92030 0.19395
 C2929 C 0.27198 0.94276 0.19444
 C2930 C 0.26682 0.95448 0.20172
 C2931 C 0.26889 0.95572 0.21598
 C2932 C 0.27636 0.94494 0.22281
 H2933 H 0.29583 0.89717 0.18252
 H2934 H 0.30468 0.90118 0.23262
 H2935 H 0.31400 0.88085 0.21981
 H2936 H 0.29131 0.92352 0.23328
 H2937 H 0.28289 0.91941 0.18299
 H2938 H 0.27024 0.94212 0.18346
 H2939 H 0.26138 0.96273 0.19609
 H2940 H 0.27791 0.94561 0.23382
 C2941 C 0.80664 0.39226 0.19914
 C2942 C 0.80127 0.40481 0.20501
 C2943 C 0.79114 0.41283 0.19790
 C2944 C 0.78651 0.40813 0.18506
 C2945 C 0.79195 0.39566 0.17925
 C2946 C 0.80211 0.38759 0.18616
 C2947 C 0.78586 0.42545 0.20368
 C2948 C 0.79065 0.43020 0.21647
 C2949 C 0.80078 0.42216 0.22359
 C2950 C 0.80599 0.40949 0.21785
 C2951 C 0.80562 0.42697 0.23631
 C2952 C 0.80055 0.43968 0.24191
 C2953 C 0.79050 0.44780 0.23492
 C2954 C 0.78555 0.44293 0.22220
 H2955 H 0.81435 0.38621 0.20473
 H2956 H 0.77874 0.41414 0.17947
 H2957 H 0.78822 0.39246 0.16927
 H2958 H 0.77809 0.43161 0.19820
 H2959 H 0.81378 0.40335 0.22332
 H2960 H 0.81335 0.42092 0.24193
 H2961 H 0.80439 0.44311 0.25180
 H2962 H 0.77792 0.44919 0.21665
 C2963 C 0.80870 0.89057 0.69658
 C2964 C 0.80231 0.90316 0.70134
 C2965 C 0.79360 0.91108 0.69248
 C2966 C 0.79143 0.90629 0.67904
 C2967 C 0.79776 0.89375 0.67441
 C2968 C 0.80643 0.88572 0.68310
 C2969 C 0.78721 0.92366 0.69715
 C2970 C 0.78940 0.92846 0.71059
 C2971 C 0.79807 0.92055 0.71950
 C2972 C 0.80446 0.90795 0.71483
 C2973 C 0.80026 0.92542 0.73292
 C2974 C 0.79404 0.93807 0.73745
 C2975 C 0.78549 0.94609 0.72866
 C2976 C 0.78314 0.94114 0.71525
 H2977 H 0.81527 0.88449 0.70345
 H2978 H 0.78482 0.91224 0.67210
 H2979 H 0.79591 0.89047 0.66393
 H2980 H 0.78056 0.92971 0.69031
 H2981 H 0.81112 0.90191 0.72166
 H2982 H 0.80681 0.91947 0.73992
 H2983 H 0.79586 0.94156 0.74789
 H2984 H 0.77668 0.94731 0.70833
 C2985 C 0.70305 0.61241 0.68348
 C2986 C 0.70915 0.60014 0.68914
 C2987 C 0.70418 0.59483 0.70187
 C2988 C 0.69323 0.60186 0.70870
 C2989 C 0.68717 0.61400 0.70296
 C2990 C 0.69195 0.61941 0.69029
 C2991 C 0.71016 0.58253 0.70752
 C2992 C 0.72095 0.57535 0.70055
 C2993 C 0.72592 0.58062 0.68781
 C2994 C 0.72003 0.59301 0.68221
 C2995 C 0.73665 0.57333 0.68084
 C2996 C 0.74235 0.56090 0.68641
 C2997 C 0.73742 0.55553 0.69902
 C2998 C 0.72676 0.56290 0.70607
 H2999 H 0.70683 0.61631 0.67367
 H3000 H 0.68928 0.59792 0.71845
 H3001 H 0.67874 0.61914 0.70854
 H3002 H 0.70633 0.57847 0.71729
 H3003 H 0.72383 0.59705 0.67243
 H3004 H 0.74054 0.57716 0.67103
 H3005 H 0.75045 0.55533 0.68071
 H3006 H 0.72302 0.55897 0.71591
 C3007 C 0.69375 0.10884 0.19743
 C3008 C 0.70065 0.09675 0.20260
 C3009 C 0.71385 0.09284 0.19717
 C3010 C 0.72000 0.10110 0.18684
 C3011 C 0.71311 0.11305 0.18177
 C3012 C 0.69987 0.11703 0.18688
 C3013 C 0.72069 0.08068 0.20206
 C3014 C 0.71450 0.07228 0.21229
 C3015 C 0.70138 0.07620 0.21789
 C3016 C 0.69453 0.08842 0.21301
 C3017 C 0.69532 0.06774 0.22820
 C3018 C 0.70211 0.05542 0.23277
 C3019 C 0.71504 0.05134 0.22707
 C3020 C 0.72122 0.05993 0.21692
 H3021 H 0.68356 0.11168 0.20149
 H3022 H 0.73014 0.09829 0.18262
 H3023 H 0.71827 0.11917 0.17383
 H3024 H 0.73078 0.07768 0.19780
 H3025 H 0.68442 0.09139 0.21724
 H3026 H 0.68529 0.07057 0.23264
 H3027 H 0.69711 0.04891 0.24054
 H3028 H 0.73130 0.05700 0.21262
 C3029 C 0.19689 0.60576 0.20117
 C3030 C 0.20313 0.59339 0.20642
 C3031 C 0.21361 0.58630 0.19869
 C3032 C 0.21770 0.59176 0.18588
 C3033 C 0.21136 0.60402 0.18068
 C3034 C 0.20085 0.61111 0.18821
 C3035 C 0.21968 0.57378 0.20381
 C3036 C 0.21529 0.56818 0.21649
 C3037 C 0.20484 0.57532 0.22423
 C3038 C 0.19889 0.58791 0.21919
 C3039 C 0.20037 0.56964 0.23683
 C3040 C 0.20602 0.55689 0.24164
 C3041 C 0.21630 0.54960 0.23398
 C3042 C 0.22101 0.55541 0.22146
 H3043 H 0.18872 0.61097 0.20708
 H3044 H 0.22572 0.58648 0.17981
 H3045 H 0.21475 0.60793 0.17074
 H3046 H 0.22768 0.56832 0.19785
 H3047 H 0.19083 0.59333 0.22511
 H3048 H 0.19241 0.57500 0.24292
 H3049 H 0.20238 0.55272 0.25140
 H3050 H 0.22883 0.54980 0.21541
 C3051 C 0.20437 0.10731 0.68829
 C3052 C 0.21004 0.09474 0.69365
 C3053 C 0.20504 0.08938 0.70632
 C3054 C 0.19442 0.09671 0.71340
 C3055 C 0.18878 0.10923 0.70795
 C3056 C 0.19366 0.11467 0.69532
 C3057 C 0.21071 0.07677 0.71168
 C3058 C 0.22126 0.06944 0.70445
 C3059 C 0.22622 0.07483 0.69175
 C3060 C 0.22060 0.08745 0.68645
 C3061 C 0.23671 0.06748 0.68452
 C3062 C 0.24226 0.05488 0.68981
 C3063 C 0.23742 0.04940 0.70241
 C3064 C 0.22692 0.05679 0.70970
 H3065 H 0.20838 0.11125 0.67860
 H3066 H 0.19044 0.09274 0.72312
 H3067 H 0.18056 0.11457 0.71364
 H3068 H 0.20688 0.07263 0.72141
 H3069 H 0.22441 0.09157 0.67670
 H3070 H 0.24058 0.07144 0.67475
 H3071 H 0.25020 0.04929 0.68392
 H3072 H 0.22324 0.05276 0.71952
 C3073 C 0.29653 0.60344 0.31244
 C3074 C 0.29165 0.59126 0.30574
 C3075 C 0.29730 0.58737 0.29280
 C3076 C 0.30772 0.59577 0.28678
 C3077 C 0.31250 0.60792 0.29350
 C3078 C 0.30698 0.61190 0.30640
 C3079 C 0.29245 0.57516 0.28611
 C3080 C 0.28200 0.56682 0.29222
 C3081 C 0.27632 0.57077 0.30514
 C3082 C 0.28120 0.58294 0.31182
 C3083 C 0.26584 0.56247 0.31119
 C3084 C 0.26102 0.55033 0.30452
 C3085 C 0.26660 0.54625 0.29169
 C3086 C 0.27711 0.55458 0.28560
 H3087 H 0.29217 0.60620 0.32239
 H3088 H 0.31217 0.59297 0.27685
 H3089 H 0.32048 0.61419 0.28849
 H3090 H 0.29680 0.57217 0.27619
 H3091 H 0.27684 0.58595 0.32175
 H3092 H 0.26139 0.56535 0.32109
 H3093 H 0.25304 0.54400 0.30950
 H3094 H 0.28137 0.55163 0.27563
 C3095 C 0.30514 0.10736 0.79153
 C3096 C 0.29961 0.09499 0.78567
 C3097 C 0.28838 0.08798 0.79223
 C3098 C 0.28278 0.09351 0.80447
 C3099 C 0.28834 0.10580 0.81026
 C3100 C 0.29962 0.11281 0.80392
 C3101 C 0.28300 0.07548 0.78655
 C3102 C 0.28875 0.06986 0.77441
 C3103 C 0.29991 0.07693 0.76776
 C3104 C 0.30525 0.08946 0.77342
 C3105 C 0.30560 0.07127 0.75561
 C3106 C 0.30042 0.05862 0.75018
 C3107 C 0.28946 0.05140 0.75681
 C3108 C 0.28362 0.05717 0.76890
 H3109 H 0.31387 0.11255 0.78654
 H3110 H 0.27414 0.08830 0.80960
 H3111 H 0.28370 0.10979 0.81969
 H3112 H 0.27441 0.07007 0.79163
 H3113 H 0.31386 0.09484 0.76837
 H3114 H 0.31410 0.07659 0.75033
 H3115 H 0.30496 0.05452 0.74075
 H3116 H 0.27528 0.05163 0.77421
 C3117 C 0.80803 0.60699 0.79639
 C3118 C 0.80212 0.59528 0.78970
 C3119 C 0.79162 0.58730 0.79639
 C3120 C 0.78722 0.59115 0.80964
 C3121 C 0.79318 0.60278 0.81625
 C3122 C 0.80365 0.61085 0.80975
 C3123 C 0.78574 0.57554 0.78978
 C3124 C 0.79033 0.57157 0.77660
 C3125 C 0.80086 0.57953 0.76989
 C3126 C 0.80664 0.59137 0.77645
 C3127 C 0.80554 0.57541 0.75678
 C3128 C 0.79997 0.56341 0.75044
 C3129 C 0.78956 0.55538 0.75704
 C3130 C 0.78470 0.55961 0.77009
 H3131 H 0.81604 0.61303 0.79114
 H3132 H 0.77921 0.58512 0.81495
 H3133 H 0.78957 0.60532 0.82653
 H3134 H 0.77769 0.56942 0.79494
 H3135 H 0.81473 0.59746 0.77131
 H3136 H 0.81358 0.58139 0.75148
 H3137 H 0.80378 0.56042 0.74032
 H3138 H 0.77680 0.55338 0.77534
 C3139 C 0.80276 0.10759 0.30395
 C3140 C 0.79567 0.09576 0.29878
 C3141 C 0.78395 0.09039 0.30595
 C3142 C 0.77950 0.09701 0.31814
 C3143 C 0.78667 0.10875 0.32327
 C3144 C 0.79843 0.11414 0.31630
 C3145 C 0.77696 0.07843 0.30088
 C3146 C 0.78162 0.07172 0.28878
 C3147 C 0.79333 0.07714 0.28160
 C3148 C 0.80024 0.08914 0.28661
 C3149 C 0.79802 0.07038 0.26957
 C3150 C 0.79126 0.05829 0.26473
 C3151 C 0.77964 0.05274 0.27179
 C3152 C 0.77483 0.05960 0.28379
 H3153 H 0.81168 0.11160 0.29830
 H3154 H 0.77055 0.09303 0.32379
 H3155 H 0.78307 0.11346 0.33281
 H3156 H 0.76799 0.07428 0.30641
 H3157 H 0.80924 0.09325 0.28110
 H3158 H 0.80700 0.07437 0.26397
 H3159 H 0.79532 0.05310 0.25558
 H3160 H 0.76577 0.05555 0.28923
 C3161 C 0.70597 0.39247 0.31300
 C3162 C 0.71167 0.40451 0.30654
 C3163 C 0.70633 0.40915 0.29380
 C3164 C 0.69543 0.40163 0.28772
 C3165 C 0.68979 0.38969 0.29421
 C3166 C 0.69493 0.38495 0.30694
 C3167 C 0.71192 0.42124 0.28737
 C3168 C 0.72275 0.42882 0.29357
 C3169 C 0.72813 0.42415 0.30629
 C3170 C 0.72258 0.41202 0.31268
 C3171 C 0.73895 0.43175 0.31245
 C3172 C 0.74435 0.44391 0.30613
 C3173 C 0.73904 0.44872 0.29352
 C3174 C 0.72824 0.44105 0.28727
 H3175 H 0.71017 0.38904 0.32275
 H3176 H 0.69119 0.40504 0.27795
 H3177 H 0.68131 0.38427 0.28922
 H3178 H 0.70779 0.42480 0.27760
 H3179 H 0.72671 0.40848 0.32246
 H3180 H 0.74316 0.42836 0.32223
 H3181 H 0.75253 0.44971 0.31125
 H3182 H 0.72416 0.44455 0.27747
 C3183 C 0.69655 0.88943 0.79843
 C3184 C 0.70338 0.90215 0.79489
 C3185 C 0.71408 0.90739 0.80342
 C3186 C 0.71781 0.89985 0.81524
 C3187 C 0.71113 0.88715 0.81857
 C3188 C 0.70048 0.88179 0.81022
 C3189 C 0.72095 0.92002 0.79996
 C3190 C 0.71745 0.92743 0.78797
 C3191 C 0.70682 0.92221 0.77938
 C3192 C 0.69979 0.90964 0.78293
 C3193 C 0.70347 0.92962 0.76734
 C3194 C 0.71060 0.94205 0.76381
 C3195 C 0.72117 0.94737 0.77230
 C3196 C 0.72447 0.93998 0.78442
 H3197 H 0.68841 0.88536 0.79188
 H3198 H 0.72594 0.90373 0.82191
 H3199 H 0.71423 0.88164 0.82783
 H3200 H 0.72913 0.92402 0.80654
 H3201 H 0.69163 0.90564 0.77635
 H3202 H 0.69539 0.92576 0.76060
 H3203 H 0.70795 0.94740 0.75432
 H3204 H 0.73242 0.94406 0.79120
 C3205 C 0.19919 0.39561 0.80636
 C3206 C 0.20439 0.40715 0.79876
 C3207 C 0.20171 0.40810 0.78452
 C3208 C 0.19374 0.39757 0.77816
 C3209 C 0.18845 0.38620 0.78583
 C3210 C 0.19116 0.38508 0.79997
 C3211 C 0.20696 0.41959 0.77689
 C3212 C 0.21465 0.43029 0.78337
 C3213 C 0.21717 0.42942 0.79765
 C3214 C 0.21212 0.41782 0.80523
 C3215 C 0.22462 0.44024 0.80414
 C3216 C 0.22946 0.45188 0.79661
 C3217 C 0.22711 0.45288 0.78237
 C3218 C 0.21974 0.44192 0.77582
 H3219 H 0.20122 0.39498 0.81729
 H3220 H 0.19154 0.39813 0.76726
 H3221 H 0.18240 0.37819 0.78063
 H3222 H 0.20494 0.42028 0.76595
 H3223 H 0.21410 0.41715 0.81618
 H3224 H 0.22656 0.43980 0.81510
 H3225 H 0.23483 0.46026 0.80203
 H3226 H 0.21799 0.44240 0.76484
 C3227 C 0.19723 0.89718 0.30622
 C3228 C 0.20210 0.90896 0.29874
 C3229 C 0.19930 0.91004 0.28453
 C3230 C 0.19154 0.89939 0.27809
 C3231 C 0.18660 0.88777 0.28565
 C3232 C 0.18945 0.88649 0.29976
 C3233 C 0.20424 0.92176 0.27702
 C3234 C 0.21179 0.93252 0.28358
 C3235 C 0.21447 0.93148 0.29782
 C3236 C 0.20968 0.91969 0.30529
 C3237 C 0.22183 0.94232 0.30439
 C3238 C 0.22643 0.95414 0.29696
 C3239 C 0.22395 0.95530 0.28277
 C3240 C 0.21663 0.94435 0.27614
 H3241 H 0.19940 0.89645 0.31711
 H3242 H 0.18928 0.90006 0.26721
 H3243 H 0.18072 0.87968 0.28036
 H3244 H 0.20211 0.92256 0.26611
 H3245 H 0.21176 0.91891 0.31622
 H3246 H 0.22389 0.94176 0.31531
 H3247 H 0.23172 0.96253 0.30244
 H3248 H 0.21475 0.94498 0.26518
 C3249 C 0.38996 0.30388 0.69802
 C3250 C 0.40200 0.29679 0.70254
 C3251 C 0.40739 0.28517 0.69490
 C3252 C 0.40063 0.28085 0.68292
 C3253 C 0.38868 0.28797 0.67848
 C3254 C 0.38318 0.29958 0.68593
 C3255 C 0.41946 0.27810 0.69933
 C3256 C 0.42625 0.28252 0.71129
 C3257 C 0.42087 0.29414 0.71894
 C3258 C 0.40877 0.30117 0.71454
 C3259 C 0.42773 0.29858 0.73084
 C3260 C 0.43985 0.29164 0.73511
 C3261 C 0.44532 0.28010 0.72758
 C3262 C 0.43840 0.27556 0.71569
 H3263 H 0.38596 0.31276 0.70397
 H3264 H 0.40462 0.27197 0.67693
 H3265 H 0.38382 0.28432 0.66915
 H3266 H 0.42359 0.26920 0.69344
 H3267 H 0.40466 0.31009 0.72041
 H3268 H 0.42375 0.30745 0.73684
 H3269 H 0.44490 0.29523 0.74439
 H3270 H 0.44263 0.26678 0.70971
 C3271 C 0.38743 0.80662 0.20192
 C3272 C 0.39942 0.79951 0.20656
 C3273 C 0.40505 0.78810 0.19882
 C3274 C 0.39856 0.78393 0.18664
 C3275 C 0.38667 0.79106 0.18208
 C3276 C 0.38097 0.80253 0.18959
 C3277 C 0.41712 0.78108 0.20331
 C3278 C 0.42368 0.78538 0.21544
 C3279 C 0.41802 0.79674 0.22325
 C3280 C 0.40590 0.80371 0.21878
 C3281 C 0.42464 0.80100 0.23535
 C3282 C 0.43684 0.79418 0.23962
 C3283 C 0.44265 0.78297 0.23186
 C3284 C 0.43590 0.77856 0.21982
 H3285 H 0.38325 0.81538 0.20792
 H3286 H 0.40271 0.77517 0.18060
 H3287 H 0.38202 0.78752 0.17261
 H3288 H 0.42145 0.77236 0.19732
 H3289 H 0.40159 0.81245 0.22476
 H3290 H 0.42047 0.80972 0.24144
 H3291 H 0.44190 0.79789 0.24885
 H3292 H 0.44016 0.76979 0.21385
 C3293 C 0.88530 0.30709 0.19669
 C3294 C 0.89711 0.30010 0.20192
 C3295 C 0.90026 0.28608 0.19759
 C3296 C 0.89153 0.27924 0.18827
 C3297 C 0.87987 0.28626 0.18308
 C3298 C 0.87667 0.30029 0.18711
 C3299 C 0.91217 0.27914 0.20252
 C3300 C 0.92107 0.28607 0.21165
 C3301 C 0.91791 0.30004 0.21612
 C3302 C 0.90591 0.30696 0.21125
 C3303 C 0.92689 0.30688 0.22528
 C3304 C 0.93899 0.30003 0.22979
 C3305 C 0.94233 0.28624 0.22520
 C3306 C 0.93320 0.27928 0.21625
 H3307 H 0.88305 0.31791 0.19986
 H3308 H 0.89377 0.26847 0.18490
 H3309 H 0.87337 0.28062 0.17591
 H3310 H 0.91461 0.26841 0.19911
 H3311 H 0.90352 0.31771 0.21461
 H3312 H 0.92464 0.31759 0.22882
 H3313 H 0.94591 0.30564 0.23662
 H3314 H 0.93555 0.26854 0.21285
 C3315 C 0.89034 0.80547 0.70160
 C3316 C 0.90247 0.79879 0.70664
 C3317 C 0.90893 0.78785 0.69885
 C3318 C 0.90340 0.78385 0.68622
 C3319 C 0.89148 0.79051 0.68129
 C3320 C 0.88469 0.80128 0.68891
 C3321 C 0.92089 0.78104 0.70372
 C3322 C 0.92667 0.78507 0.71626
 C3323 C 0.92040 0.79605 0.72412
 C3324 C 0.90827 0.80282 0.71929
 C3325 C 0.92646 0.80004 0.73662
 C3326 C 0.93867 0.79333 0.74115
 C3327 C 0.94499 0.78246 0.73330
 C3328 C 0.93874 0.77829 0.72095
 H3329 H 0.88528 0.81376 0.70760
 H3330 H 0.90832 0.77557 0.68008
 H3331 H 0.88775 0.78717 0.67136
 H3332 H 0.92577 0.77264 0.69768
 H3333 H 0.90341 0.81122 0.72532
 H3334 H 0.92185 0.80844 0.74281
 H3335 H 0.94330 0.79684 0.75067
 H3336 H 0.94325 0.76968 0.71494
 C3337 C 0.60903 0.30657 0.30049
 C3338 C 0.59767 0.29870 0.29556
 C3339 C 0.59314 0.28651 0.30284
 C3340 C 0.60013 0.28225 0.31472
 C3341 C 0.61128 0.29017 0.31960
 C3342 C 0.61577 0.30248 0.31267
 C3343 C 0.58158 0.27887 0.29828
 C3344 C 0.57434 0.28331 0.28658
 C3345 C 0.57893 0.29534 0.27912
 C3346 C 0.59061 0.30294 0.28362
 C3347 C 0.57161 0.29966 0.26739
 C3348 C 0.55970 0.29231 0.26329
 C3349 C 0.55488 0.28056 0.27086
 C3350 C 0.56242 0.27600 0.28239
 H3351 H 0.61234 0.31605 0.29506
 H3352 H 0.59687 0.27286 0.32034
 H3353 H 0.61640 0.28655 0.32884
 H3354 H 0.57806 0.26961 0.30398
 H3355 H 0.59407 0.31224 0.27796
 H3356 H 0.57496 0.30884 0.26152
 H3357 H 0.55404 0.29606 0.25440
 H3358 H 0.55893 0.26680 0.28817
 C3359 C 0.60620 0.79674 0.81643
 C3360 C 0.59407 0.79153 0.81021
 C3361 C 0.58878 0.79834 0.79838
 C3362 C 0.59568 0.81021 0.79298
 C3363 C 0.60774 0.81530 0.79918
 C3364 C 0.61320 0.80865 0.81096
 C3365 C 0.57668 0.79320 0.79213
 C3366 C 0.56975 0.78134 0.79756
 C3367 C 0.57503 0.77448 0.80937
 C3368 C 0.58715 0.77962 0.81563
 C3369 C 0.56806 0.76260 0.81474
 C3370 C 0.55592 0.75763 0.80855
 C3371 C 0.55050 0.76442 0.79685
 C3372 C 0.55758 0.77625 0.79138
 H3373 H 0.61012 0.79151 0.82554
 H3374 H 0.59179 0.81555 0.78390
 H3375 H 0.61282 0.82440 0.79460
 H3376 H 0.57265 0.79846 0.78305
 H3377 H 0.59118 0.77435 0.82470
 H3378 H 0.57195 0.75720 0.82379
 H3379 H 0.55064 0.74860 0.81308
 H3380 H 0.55368 0.78144 0.78223
 C3381 C 0.10610 0.30952 0.80304
 C3382 C 0.09418 0.30270 0.79811
 C3383 C 0.09084 0.28889 0.80281
 C3384 C 0.09949 0.28218 0.81240
 C3385 C 0.11134 0.28906 0.81729
 C3386 C 0.11480 0.30278 0.81266
 C3387 C 0.07893 0.28204 0.79786
 C3388 C 0.07029 0.28885 0.78830
 C3389 C 0.07362 0.30268 0.78363
 C3390 C 0.08554 0.30951 0.78855
 C3391 C 0.06496 0.30947 0.77411
 C3392 C 0.05308 0.30265 0.76925
 C3393 C 0.04965 0.28889 0.77377
 C3394 C 0.05835 0.28205 0.78332
 H3395 H 0.10849 0.32015 0.79946
 H3396 H 0.09711 0.27158 0.81611
 H3397 H 0.11786 0.28353 0.82459
 H3398 H 0.07639 0.27143 0.80145
 H3399 H 0.08809 0.32011 0.78494
 H3400 H 0.06732 0.32009 0.77047
 H3401 H 0.04646 0.30827 0.76208
 H3402 H 0.05593 0.27137 0.78677
 C3403 C 0.10817 0.80645 0.30114
 C3404 C 0.09656 0.79904 0.29620
 C3405 C 0.09315 0.78562 0.30182
 C3406 C 0.10139 0.77986 0.31229
 C3407 C 0.11289 0.78732 0.31718
 C3408 C 0.11643 0.80068 0.31168
 C3409 C 0.08151 0.77823 0.29696
 C3410 C 0.07318 0.78413 0.28660
 C3411 C 0.07661 0.79755 0.28097
 C3412 C 0.08829 0.80490 0.28578
 C3413 C 0.06826 0.80343 0.27066
 C3414 C 0.05655 0.79615 0.26600
 C3415 C 0.05298 0.78281 0.27152
 C3416 C 0.06144 0.77684 0.28181
 H3417 H 0.11062 0.81676 0.29683
 H3418 H 0.09893 0.76959 0.31673
 H3419 H 0.11907 0.78251 0.32520
 H3420 H 0.07889 0.76794 0.30131
 H3421 H 0.09091 0.81520 0.28146
 H3422 H 0.07071 0.81372 0.26626
 H3423 H 0.05011 0.80112 0.25826
 H3424 H 0.05895 0.76648 0.28602
 C3425 C 0.60488 0.69428 0.70201
 C3426 C 0.59313 0.70077 0.70805
 C3427 C 0.58653 0.71229 0.70135
 C3428 C 0.59198 0.71730 0.68886
 C3429 C 0.60367 0.71077 0.68289
 C3430 C 0.61016 0.69909 0.68930
 C3431 C 0.57451 0.71849 0.70716
 C3432 C 0.56901 0.71330 0.71959
 C3433 C 0.57575 0.70191 0.72639
 C3434 C 0.58777 0.69575 0.72060
 C3435 C 0.57025 0.69676 0.73881
 C3436 C 0.55804 0.70263 0.74434
 C3437 C 0.55112 0.71380 0.73758
 C3438 C 0.55675 0.71918 0.72525
 H3439 H 0.60968 0.68531 0.70713
 H3440 H 0.58714 0.72621 0.68364
 H3441 H 0.60757 0.71491 0.67323
 H3442 H 0.56937 0.72724 0.70194
 H3443 H 0.59287 0.68695 0.72578
 H3444 H 0.57535 0.68812 0.74421
 H3445 H 0.55403 0.69846 0.75397
 H3446 H 0.55141 0.72769 0.71988
 C3447 C 0.61084 0.19217 0.19931
 C3448 C 0.59833 0.19817 0.20431
 C3449 C 0.59153 0.20887 0.19661
 C3450 C 0.59725 0.21332 0.18405
 C3451 C 0.60965 0.20731 0.17915
 C3452 C 0.61664 0.19674 0.18671
 C3453 C 0.57911 0.21497 0.20155
 C3454 C 0.57331 0.21047 0.21409
 C3455 C 0.58002 0.19973 0.22180
 C3456 C 0.59252 0.19366 0.21688
 C3457 C 0.57408 0.19525 0.23430
 C3458 C 0.56161 0.20134 0.23909
 C3459 C 0.55486 0.21203 0.23148
 C3460 C 0.56086 0.21657 0.21900
 H3461 H 0.61609 0.18408 0.20531
 H3462 H 0.59212 0.22144 0.17799
 H3463 H 0.61366 0.21095 0.16935
 H3464 H 0.57394 0.22320 0.19563
 H3465 H 0.59769 0.18545 0.22282
 H3466 H 0.57903 0.18699 0.24033
 H3467 H 0.55713 0.19753 0.24865
 H3468 H 0.55591 0.22498 0.21314
 C3469 C 0.11027 0.69831 0.19065
 C3470 C 0.09792 0.70238 0.19755
 C3471 C 0.09244 0.69362 0.20810
 C3472 C 0.09932 0.68096 0.21153
 C3473 C 0.11157 0.67702 0.20466
 C3474 C 0.11724 0.68563 0.19419
 C3475 C 0.08018 0.69762 0.21507
 C3476 C 0.07327 0.71029 0.21165
 C3477 C 0.07870 0.71907 0.20109
 C3478 C 0.09100 0.71507 0.19412
 C3479 C 0.07171 0.73170 0.19768
 C3480 C 0.05945 0.73559 0.20463
 C3481 C 0.05396 0.72694 0.21514
 C3482 C 0.06098 0.71429 0.21861
 H3483 H 0.11449 0.70511 0.18266
 H3484 H 0.09523 0.67409 0.21953
 H3485 H 0.11651 0.66711 0.20757
 H3486 H 0.07602 0.69088 0.22316
 H3487 H 0.09516 0.72182 0.18603
 H3488 H 0.07573 0.73859 0.18966
 H3489 H 0.05434 0.74547 0.20188
 H3490 H 0.05675 0.70745 0.22658
 C3491 C 0.10523 0.20371 0.69085
 C3492 C 0.09279 0.20824 0.69730
 C3493 C 0.08644 0.19953 0.70741
 C3494 C 0.09252 0.18644 0.71081
 C3495 C 0.10491 0.18208 0.70446
 C3496 C 0.11146 0.19068 0.69451
 C3497 C 0.07418 0.20406 0.71405
 C3498 C 0.06817 0.21723 0.71079
 C3499 C 0.07443 0.22594 0.70064
 C3500 C 0.08669 0.22138 0.69393
 C3501 C 0.06832 0.23910 0.69741
 C3502 C 0.05619 0.24361 0.70422
 C3503 C 0.04992 0.23506 0.71439
 C3504 C 0.05599 0.22184 0.71757
 H3505 H 0.11020 0.21047 0.68325
 H3506 H 0.08773 0.17960 0.71846
 H3507 H 0.10930 0.17189 0.70732
 H3508 H 0.06937 0.19737 0.72183
 H3509 H 0.09152 0.22809 0.68618
 H3510 H 0.07296 0.24593 0.68966
 H3511 H 0.05180 0.25390 0.70166
 H3512 H 0.05115 0.21504 0.72523
 C3513 C 0.38765 0.69274 0.30178
 C3514 C 0.39972 0.69956 0.29693
 C3515 C 0.40507 0.71130 0.30423
 C3516 C 0.39828 0.71602 0.31620
 C3517 C 0.38631 0.70917 0.32096
 C3518 C 0.38085 0.69744 0.31386
 C3519 C 0.41717 0.71809 0.29952
 C3520 C 0.42407 0.71324 0.28765
 C3521 C 0.41874 0.70153 0.28028
 C3522 C 0.40656 0.69478 0.28495
 C3523 C 0.42575 0.69674 0.26842
 C3524 C 0.43800 0.70339 0.26399
 C3525 C 0.44345 0.71495 0.27133
 C3526 C 0.43632 0.71988 0.28310
 H3527 H 0.38367 0.68374 0.29613
 H3528 H 0.40227 0.72498 0.32193
 H3529 H 0.38143 0.71313 0.33027
 H3530 H 0.42126 0.72708 0.30516
 H3531 H 0.40248 0.68578 0.27933
 H3532 H 0.42183 0.68778 0.26265
 H3533 H 0.44336 0.69932 0.25496
 H3534 H 0.44028 0.72895 0.28870
 C3535 C 0.38732 0.20083 0.80769
 C3536 C 0.39957 0.20518 0.80082
 C3537 C 0.40366 0.19834 0.78846
 C3538 C 0.39556 0.18732 0.78321
 C3539 C 0.38349 0.18304 0.79008
 C3540 C 0.37916 0.18972 0.80236
 C3541 C 0.41584 0.20253 0.78155
 C3542 C 0.42414 0.21338 0.78688
 C3543 C 0.42014 0.22027 0.79923
 C3544 C 0.40783 0.21618 0.80610
 C3545 C 0.42857 0.23109 0.80450
 C3546 C 0.44091 0.23493 0.79769
 C3547 C 0.44502 0.22806 0.78545
 C3548 C 0.43646 0.21737 0.78006
 H3549 H 0.38415 0.20615 0.81710
 H3550 H 0.39861 0.18192 0.77380
 H3551 H 0.37767 0.17433 0.78573
 H3552 H 0.41893 0.19725 0.77207
 H3553 H 0.40475 0.22146 0.81557
 H3554 H 0.42571 0.23650 0.81396
 H3555 H 0.44737 0.24309 0.80215
 H3556 H 0.43933 0.21217 0.77049
 C3557 C 0.88777 0.69047 0.80414
 C3558 C 0.89985 0.69745 0.79950
 C3559 C 0.90493 0.70927 0.80687
 C3560 C 0.89784 0.71398 0.81866
 C3561 C 0.88588 0.70699 0.82322
 C3562 C 0.88070 0.69513 0.81609
 C3563 C 0.91705 0.71618 0.80241
 C3564 C 0.92423 0.71140 0.79068
 C3565 C 0.91915 0.69963 0.78322
 C3566 C 0.90697 0.69274 0.78766
 C3567 C 0.92641 0.69492 0.77148
 C3568 C 0.93862 0.70174 0.76724
 C3569 C 0.94381 0.71338 0.77465
 C3570 C 0.93647 0.71819 0.78634
 H3571 H 0.88398 0.68142 0.79845
 H3572 H 0.90158 0.72304 0.82441
 H3573 H 0.88080 0.71095 0.83242
 H3574 H 0.92094 0.72523 0.80812
 H3575 H 0.90310 0.68368 0.78197
 H3576 H 0.92268 0.68592 0.76564
 H3577 H 0.94416 0.69774 0.75827
 H3578 H 0.94025 0.72730 0.79201
 C3579 C 0.88888 0.19953 0.30693
 C3580 C 0.90043 0.20415 0.29921
 C3581 C 0.90580 0.19552 0.28848
 C3582 C 0.89946 0.18248 0.28561
 C3583 C 0.88800 0.17794 0.29337
 C3584 C 0.88260 0.18635 0.30417
 C3585 C 0.91746 0.20001 0.28087
 C3586 C 0.92389 0.21300 0.28393
 C3587 C 0.91847 0.22165 0.29463
 C3588 C 0.90675 0.21720 0.30216
 C3589 C 0.92496 0.23457 0.29772
 C3590 C 0.93682 0.23880 0.29041
 C3591 C 0.94238 0.23024 0.27984
 C3592 C 0.93576 0.21738 0.27657
 H3593 H 0.88491 0.20625 0.31512
 H3594 H 0.90344 0.17573 0.27742
 H3595 H 0.88348 0.16775 0.29092
 H3596 H 0.92161 0.19336 0.27268
 H3597 H 0.90264 0.22383 0.31039
 H3598 H 0.92092 0.24136 0.30585
 H3599 H 0.94164 0.24883 0.29299
 H3600 H 0.94006 0.21063 0.26853
 C3601 C 0.30295 0.29814 0.60657
 C3602 C 0.29611 0.29350 0.59470
 C3603 C 0.28602 0.30236 0.58848
 C3604 C 0.28295 0.31568 0.59424
 C3605 C 0.28981 0.32023 0.60604
 C3606 C 0.29989 0.31154 0.61235
 C3607 C 0.27920 0.29780 0.57659
 C3608 C 0.28241 0.28451 0.57078
 C3609 C 0.29248 0.27563 0.57700
 C3610 C 0.29924 0.28016 0.58894
 C3611 C 0.29570 0.26239 0.57109
 C3612 C 0.28912 0.25805 0.55905
 C3613 C 0.27917 0.26685 0.55271
 C3614 C 0.27578 0.28003 0.55875
 H3615 H 0.31058 0.29121 0.61131
 H3616 H 0.27526 0.32262 0.58959
 H3617 H 0.28728 0.33064 0.61011
 H3618 H 0.27149 0.30462 0.57181
 H3619 H 0.30699 0.27335 0.59369
 H3620 H 0.30343 0.25547 0.57569
 H3621 H 0.29205 0.24793 0.55453
 H3622 H 0.26796 0.28681 0.55409
 C3623 C 0.30430 0.80388 0.10680
 C3624 C 0.29804 0.79967 0.09448
 C3625 C 0.28961 0.80942 0.08719
 C3626 C 0.28752 0.82317 0.09239
 C3627 C 0.29371 0.82725 0.10471
 C3628 C 0.30217 0.81768 0.11204
 C3629 C 0.28337 0.80526 0.07485
 C3630 C 0.28538 0.79144 0.06975
 C3631 C 0.29374 0.78166 0.07708
 C3632 C 0.30005 0.78584 0.08938
 C3633 C 0.29565 0.76783 0.07199
 C3634 C 0.28936 0.76373 0.05973
 C3635 C 0.28108 0.77337 0.05230
 C3636 C 0.27915 0.78725 0.05741
 H3637 H 0.31066 0.79631 0.11238
 H3638 H 0.28109 0.83078 0.08694
 H3639 H 0.29197 0.83798 0.10840
 H3640 H 0.27692 0.81276 0.06925
 H3641 H 0.30648 0.77834 0.09499
 H3642 H 0.30196 0.76017 0.07751
 H3643 H 0.29084 0.75292 0.05613
 H3644 H 0.27294 0.79485 0.05170
 C3645 C 0.80870 0.29715 0.09864
 C3646 C 0.80321 0.29134 0.08658
 C3647 C 0.79026 0.29628 0.08162
 C3648 C 0.78306 0.30701 0.08883
 C3649 C 0.78862 0.31276 0.10085
 C3650 C 0.80147 0.30788 0.10592
 C3651 C 0.78474 0.29044 0.06956
 C3652 C 0.79204 0.27972 0.06241
 C3653 C 0.80501 0.27481 0.06740
 C3654 C 0.81050 0.28064 0.07944
 C3655 C 0.81228 0.26412 0.06025
 C3656 C 0.80678 0.25830 0.04828
 C3657 C 0.79390 0.26306 0.04320
 C3658 C 0.78659 0.27381 0.05035
 H3659 H 0.81869 0.29335 0.10224
 H3660 H 0.77311 0.31092 0.08519
 H3661 H 0.78275 0.32093 0.10624
 H3662 H 0.77480 0.29422 0.06575
 H3663 H 0.82044 0.27685 0.08325
 H3664 H 0.82226 0.26028 0.06390
 H3665 H 0.81270 0.25018 0.04286
 H3666 H 0.77657 0.27746 0.04662
 C3667 C 0.79988 0.80508 0.60068
 C3668 C 0.79615 0.79872 0.58817
 C3669 C 0.80595 0.79014 0.58100
 C3670 C 0.81931 0.78814 0.58637
 C3671 C 0.82287 0.79435 0.59885
 C3672 C 0.81320 0.80277 0.60618
 C3673 C 0.80224 0.78356 0.56865
 C3674 C 0.78878 0.78530 0.56342
 C3675 C 0.77896 0.79391 0.57052
 C3676 C 0.78272 0.80061 0.58283
 C3677 C 0.76551 0.79556 0.56522
 C3678 C 0.76178 0.78864 0.55308
 C3679 C 0.77145 0.77997 0.54600
 C3680 C 0.78498 0.77845 0.55123
 H3681 H 0.79232 0.81150 0.60627
 H3682 H 0.82697 0.78167 0.58096
 H3683 H 0.83329 0.79260 0.60271
 H3684 H 0.80977 0.77695 0.56320
 H3685 H 0.77517 0.80717 0.58831
 H3686 H 0.75783 0.80209 0.57052
 H3687 H 0.75124 0.78987 0.54935
 H3688 H 0.79260 0.77198 0.54576
 C3689 C 0.30239 0.70024 0.39589
 C3690 C 0.29627 0.70494 0.40822
 C3691 C 0.28750 0.69574 0.41581
 C3692 C 0.28494 0.68200 0.41086
 C3693 C 0.29109 0.67739 0.39855
 C3694 C 0.29993 0.68642 0.39098
 C3695 C 0.28148 0.70039 0.42823
 C3696 C 0.28413 0.71415 0.43314
 C3697 C 0.29285 0.72336 0.42548
 C3698 C 0.29885 0.71871 0.41308
 C3699 C 0.29549 0.73708 0.43038
 C3700 C 0.28965 0.74163 0.44282
 C3701 C 0.28106 0.73255 0.45061
 C3702 C 0.27827 0.71882 0.44564
 H3703 H 0.30900 0.70742 0.39011
 H3704 H 0.27825 0.67479 0.41654
 H3705 H 0.28905 0.66667 0.39509
 H3706 H 0.27479 0.69332 0.43409
 H3707 H 0.30558 0.72577 0.40724
 H3708 H 0.30209 0.74430 0.42460
 H3709 H 0.29177 0.75234 0.44631
 H3710 H 0.27177 0.71168 0.45162
 C3711 C 0.31056 0.19625 0.89644
 C3712 C 0.30425 0.20070 0.90886
 C3713 C 0.29468 0.19163 0.91564
 C3714 C 0.29196 0.17816 0.91026
 C3715 C 0.29828 0.17381 0.89802
 C3716 C 0.30739 0.18287 0.89077
 C3717 C 0.28785 0.19619 0.92764
 C3718 C 0.29056 0.20964 0.93312
 C3719 C 0.30043 0.21860 0.92666
 C3720 C 0.30718 0.21411 0.91451
 C3721 C 0.30331 0.23190 0.93248
 C3722 C 0.29639 0.23631 0.94449
 C3723 C 0.28634 0.22758 0.95085
 C3724 C 0.28349 0.21425 0.94499
 H3725 H 0.31762 0.20334 0.89108
 H3726 H 0.28482 0.17101 0.91546
 H3727 H 0.29590 0.16329 0.89424
 H3728 H 0.28037 0.18926 0.93269
 H3729 H 0.31461 0.22106 0.90943
 H3730 H 0.31097 0.23886 0.92779
 H3731 H 0.29904 0.24652 0.94886
 H3732 H 0.27560 0.20746 0.94953
 C3733 C 0.80309 0.69878 0.89818
 C3734 C 0.79652 0.70398 0.91010
 C3735 C 0.78513 0.69654 0.91588
 C3736 C 0.78048 0.68405 0.90958
 C3737 C 0.78709 0.67893 0.89769
 C3738 C 0.79849 0.68620 0.89187
 C3739 C 0.77862 0.70168 0.92787
 C3740 C 0.78339 0.71416 0.93415
 C3741 C 0.79477 0.72161 0.92833
 C3742 C 0.80126 0.71648 0.91634
 C3743 C 0.79952 0.73407 0.93462
 C3744 C 0.79308 0.73909 0.94661
 C3745 C 0.78180 0.73175 0.95254
 C3746 C 0.77699 0.71928 0.94621
 H3747 H 0.81185 0.70457 0.89396
 H3748 H 0.77175 0.67821 0.91386
 H3749 H 0.78322 0.66926 0.89312
 H3750 H 0.76988 0.69596 0.93232
 H3751 H 0.81001 0.72219 0.91190
 H3752 H 0.80825 0.73988 0.93031
 H3753 H 0.79709 0.74862 0.95140
 H3754 H 0.76819 0.71364 0.95059
 C3755 C 0.79969 0.19631 0.39759
 C3756 C 0.79584 0.20335 0.40980
 C3757 C 0.80560 0.21210 0.41653
 C3758 C 0.81899 0.21372 0.41089
 C3759 C 0.82271 0.20672 0.39872
 C3760 C 0.81315 0.19792 0.39196
 C3761 C 0.80184 0.21908 0.42877
 C3762 C 0.78841 0.21747 0.43436
 C3763 C 0.77862 0.20879 0.42760
 C3764 C 0.78240 0.20179 0.41537
 C3765 C 0.76521 0.20723 0.43320
 C3766 C 0.76153 0.21411 0.44544
 C3767 C 0.77119 0.22270 0.45233
 C3768 C 0.78463 0.22437 0.44667
 H3769 H 0.79213 0.18971 0.39244
 H3770 H 0.82660 0.22038 0.41590
 H3771 H 0.83318 0.20811 0.39474
 H3772 H 0.80936 0.22574 0.43394
 H3773 H 0.77489 0.19510 0.41021
 H3774 H 0.75756 0.20067 0.42812
 H3775 H 0.75105 0.21282 0.44946
 H3776 H 0.79222 0.23082 0.45195
 C3777 C 0.69881 0.31459 0.39924
 C3778 C 0.70319 0.30834 0.41164
 C3779 C 0.69349 0.30091 0.41994
 C3780 C 0.67958 0.29998 0.41583
 C3781 C 0.67532 0.30616 0.40352
 C3782 C 0.68487 0.31342 0.39501
 C3783 C 0.69781 0.29446 0.43219
 C3784 C 0.71174 0.29532 0.43628
 C3785 C 0.72146 0.30287 0.42809
 C3786 C 0.71713 0.30932 0.41581
 C3787 C 0.73536 0.30379 0.43233
 C3788 C 0.73960 0.29728 0.44453
 C3789 C 0.73004 0.28967 0.45268
 C3790 C 0.71610 0.28875 0.44848
 H3791 H 0.70632 0.32011 0.39282
 H3792 H 0.67198 0.29442 0.42213
 H3793 H 0.66447 0.30527 0.40074
 H3794 H 0.69034 0.28871 0.43850
 H3795 H 0.72461 0.31504 0.40949
 H3796 H 0.74296 0.30953 0.42619
 H3797 H 0.75043 0.29803 0.44751
 H3798 H 0.70861 0.28306 0.45479
 C3799 C 0.69077 0.79708 0.89609
 C3800 C 0.69698 0.79405 0.90885
 C3801 C 0.70710 0.80342 0.91417
 C3802 C 0.71072 0.81566 0.90684
 C3803 C 0.70460 0.81854 0.89421
 C3804 C 0.69472 0.80925 0.88858
 C3805 C 0.71357 0.80037 0.92668
 C3806 C 0.71013 0.78803 0.93400
 C3807 C 0.69996 0.77867 0.92883
 C3808 C 0.69342 0.78175 0.91628
 C3809 C 0.69659 0.76636 0.93628
 C3810 C 0.70328 0.76333 0.94869
 C3811 C 0.71350 0.77254 0.95387
 C3812 C 0.71683 0.78489 0.94639
 H3813 H 0.68319 0.78982 0.89189
 H3814 H 0.71840 0.82297 0.91081
 H3815 H 0.70768 0.82813 0.88887
 H3816 H 0.72137 0.80756 0.93068
 H3817 H 0.68569 0.77452 0.91225
 H3818 H 0.68879 0.75907 0.93252
 H3819 H 0.70036 0.75383 0.95428
 H3820 H 0.72487 0.79196 0.95006
 C3821 C 0.19352 0.30167 0.89425
 C3822 C 0.20053 0.29714 0.90611
 C3823 C 0.21210 0.30491 0.91087
 C3824 C 0.21644 0.31706 0.90374
 C3825 C 0.20943 0.32149 0.89196
 C3826 C 0.19792 0.31386 0.88702
 C3827 C 0.21916 0.30042 0.92269
 C3828 C 0.21476 0.28828 0.92986
 C3829 C 0.20318 0.28050 0.92513
 C3830 C 0.19614 0.28497 0.91328
 C3831 C 0.19882 0.26839 0.93235
 C3832 C 0.20580 0.26406 0.94421
 C3833 C 0.21729 0.27175 0.94906
 C3834 C 0.22175 0.28384 0.94174
 H3835 H 0.18469 0.29562 0.89070
 H3836 H 0.22527 0.32316 0.90726
 H3837 H 0.21312 0.33094 0.88678
 H3838 H 0.22804 0.30640 0.92631
 H3839 H 0.18725 0.27900 0.90966
 H3840 H 0.18995 0.26231 0.92889
 H3841 H 0.20203 0.25483 0.94973
 H3842 H 0.23073 0.28973 0.94523
 C3843 C 0.19395 0.80476 0.39508
 C3844 C 0.20070 0.80123 0.40742
 C3845 C 0.20985 0.81109 0.41351
 C3846 C 0.21207 0.82429 0.40720
 C3847 C 0.20534 0.82771 0.39496
 C3848 C 0.19624 0.81802 0.38871
 C3849 C 0.21667 0.80763 0.42579
 C3850 C 0.21446 0.79440 0.43209
 C3851 C 0.20530 0.78452 0.42604
 C3852 C 0.19849 0.78798 0.41374
 C3853 C 0.20308 0.77133 0.43242
 C3854 C 0.20983 0.76797 0.44469
 C3855 C 0.21896 0.77770 0.45082
 C3856 C 0.22125 0.79091 0.44441
 H3857 H 0.18704 0.79711 0.39042
 H3858 H 0.21903 0.83199 0.41173
 H3859 H 0.20724 0.83807 0.39049
 H3860 H 0.22368 0.81523 0.43043
 H3861 H 0.19149 0.78038 0.40911
 H3862 H 0.19613 0.76360 0.42793
 H3863 H 0.20802 0.75766 0.44932
 H3864 H 0.22812 0.79858 0.44912
 C3865 C 0.69667 0.69109 0.60181
 C3866 C 0.70150 0.69671 0.58928
 C3867 C 0.69205 0.70355 0.58034
 C3868 C 0.67794 0.70453 0.58401
 C3869 C 0.67321 0.69893 0.59649
 C3870 C 0.68250 0.69221 0.60558
 C3871 C 0.69686 0.70936 0.56791
 C3872 C 0.71102 0.70844 0.56430
 C3873 C 0.72046 0.70148 0.57316
 C3874 C 0.71565 0.69566 0.58560
 C3875 C 0.73459 0.70049 0.56944
 C3876 C 0.73933 0.70641 0.55709
 C3877 C 0.73005 0.71346 0.54827
 C3878 C 0.71587 0.71440 0.55195
 H3879 H 0.70402 0.68600 0.60862
 H3880 H 0.67054 0.70968 0.57725
 H3881 H 0.66224 0.69989 0.59893
 H3882 H 0.68960 0.71464 0.56108
 H3883 H 0.72291 0.69038 0.59243
 H3884 H 0.74197 0.69518 0.57610
 H3885 H 0.75032 0.70566 0.55451
 H3886 H 0.70860 0.71963 0.54511
 C3887 C 0.70640 0.19181 0.10177
 C3888 C 0.71149 0.19733 0.08933
 C3889 C 0.70368 0.20774 0.08222
 C3890 C 0.69093 0.21248 0.08775
 C3891 C 0.68593 0.20691 0.10017
 C3892 C 0.69358 0.19649 0.10728
 C3893 C 0.70871 0.21318 0.06969
 C3894 C 0.72142 0.20827 0.06416
 C3895 C 0.72924 0.19790 0.07133
 C3896 C 0.72425 0.19254 0.08388
 C3897 C 0.74190 0.19297 0.06580
 C3898 C 0.74675 0.19816 0.05321
 C3899 C 0.73905 0.20839 0.04590
 C3900 C 0.72641 0.21348 0.05151
 H3901 H 0.71254 0.18392 0.10717
 H3902 H 0.68478 0.22042 0.08243
 H3903 H 0.67598 0.21064 0.10409
 H3904 H 0.70271 0.22115 0.06422
 H3905 H 0.73025 0.18456 0.08935
 H3906 H 0.74804 0.18507 0.07120
 H3907 H 0.75662 0.19424 0.04923
 H3908 H 0.72032 0.22127 0.04591
 C3909 C 0.18676 0.69785 0.10216
 C3910 C 0.19293 0.70259 0.08981
 C3911 C 0.19834 0.69255 0.08030
 C3912 C 0.19721 0.67799 0.08313
 C3913 C 0.19115 0.67339 0.09542
 C3914 C 0.18606 0.68322 0.10517
 C3915 C 0.20496 0.69719 0.06821
 C3916 C 0.20627 0.71176 0.06546
 C3917 C 0.20061 0.72183 0.07480
 C3918 C 0.19399 0.71718 0.08692
 C3919 C 0.20177 0.73640 0.07187
 C3920 C 0.20857 0.74094 0.05989
 C3921 C 0.21446 0.73101 0.05071
 C3922 C 0.21322 0.71642 0.05355
 H3923 H 0.18291 0.70558 0.10955
 H3924 H 0.20117 0.67016 0.07589
 H3925 H 0.19052 0.66206 0.09728
 H3926 H 0.20921 0.68946 0.06099
 H3927 H 0.18979 0.72492 0.09414
 H3928 H 0.19749 0.74428 0.07888
 H3929 H 0.20946 0.75224 0.05789
 H3930 H 0.21759 0.70870 0.04640
 C3931 C 0.18559 0.20068 0.60480
 C3932 C 0.19172 0.20449 0.59210
 C3933 C 0.20079 0.19479 0.58534
 C3934 C 0.20335 0.18143 0.59110
 C3935 C 0.19726 0.17774 0.60362
 C3936 C 0.18852 0.18734 0.61075
 C3937 C 0.20729 0.19857 0.57294
 C3938 C 0.20481 0.21191 0.56708
 C3939 C 0.19556 0.22159 0.57358
 C3940 C 0.18908 0.21784 0.58609
 C3941 C 0.19305 0.23486 0.56745
 C3942 C 0.19972 0.23852 0.55507
 C3943 C 0.20910 0.22901 0.54864
 C3944 C 0.21157 0.21571 0.55481
 H3945 H 0.17886 0.20818 0.61014
 H3946 H 0.21016 0.17383 0.58596
 H3947 H 0.19945 0.16726 0.60766
 H3948 H 0.21434 0.19112 0.56789
 H3949 H 0.18209 0.22531 0.59117
 H3950 H 0.18593 0.24241 0.57221
 H3951 H 0.19744 0.24876 0.55050
 H3952 H 0.21899 0.20836 0.55022
   
