data_POSCAR
  _audit_creation_date              2014-09-24
  _audit_creation_method            'ToBaCCo'
  _symmetry_space_group_name_H-M    'P1'
  _symmetry_Int_Tables_number       1
  _symmetry_cell_setting            triclinic
  loop_
  _symmetry_equiv_pos_as_xyz
 x,y,z
_cell_length_a 67.2230
_cell_length_b 67.2959
_cell_length_c 67.5463
_cell_angle_alpha 90.019500
_cell_angle_beta 90.006400
_cell_angle_gamma 90.026500
loop_
  _atom_site_label
  _atom_site_type_symbol
  _atom_site_fract_x
  _atom_site_fract_y
  _atom_site_fract_z
N1 N 0.17179 0.22109 0.22216
 N2 N 0.17628 0.20537 0.23283
 C3 C 0.16283 0.20345 0.24751
 C4 C 0.14937 0.21880 0.24583
 C5 C 0.15538 0.22972 0.22967
 H6 H 0.16267 0.19173 0.25846
 H7 H 0.14822 0.24281 0.22371
 Cu8 Cu 0.19902 0.18880 0.22615
 Cu9 Cu 0.18723 0.22897 0.19905
 Cu10 Cu 0.22796 0.19970 0.18711
 N11 N 0.22209 0.17266 0.21953
 N12 N 0.23333 0.17700 0.20418
 C13 C 0.24797 0.16342 0.20268
 C14 C 0.24570 0.14998 0.21789
 C15 C 0.22921 0.15615 0.22832
 H16 H 0.25929 0.16323 0.19130
 H17 H 0.22282 0.14901 0.24118
 N18 N 0.22015 0.22329 0.17165
 N19 N 0.20466 0.23448 0.17623
 C20 C 0.20306 0.24921 0.16280
 C21 C 0.21824 0.24709 0.14928
 C22 C 0.22880 0.23062 0.15520
 H23 H 0.19162 0.26050 0.16268
 H24 H 0.24168 0.22438 0.14791
 H25 H 0.19762 0.20097 0.19216
 H26 H 0.21374 0.21667 0.20832
 N27 N 0.67229 0.72154 0.72265
 N28 N 0.67700 0.70601 0.73351
 C29 C 0.66363 0.70413 0.74827
 C30 C 0.64994 0.71926 0.74639
 C31 C 0.65578 0.73003 0.73007
 H32 H 0.66368 0.69258 0.75941
 H33 H 0.64842 0.74293 0.72396
 Cu34 Cu 0.69985 0.68965 0.72682
 Cu35 Cu 0.68763 0.72945 0.69946
 Cu36 Cu 0.72839 0.70016 0.68743
 N37 N 0.72271 0.67332 0.72009
 N38 N 0.73375 0.67746 0.70454
 C39 C 0.74825 0.66376 0.70293
 C40 C 0.74614 0.65048 0.71830
 C41 C 0.72987 0.65686 0.72895
 H42 H 0.75938 0.66337 0.69138
 H43 H 0.72367 0.64994 0.74202
 N44 N 0.72050 0.72375 0.67200
 N45 N 0.70501 0.73493 0.67661
 C46 C 0.70326 0.74956 0.66310
 C47 C 0.71838 0.74743 0.64953
 C48 C 0.72900 0.73098 0.65543
 H49 H 0.69173 0.76076 0.66296
 H50 H 0.74177 0.72465 0.64804
 H51 H 0.69821 0.70157 0.69275
 H52 H 0.71438 0.71744 0.70864
 N53 N 0.32717 0.77866 0.72282
 N54 N 0.32249 0.79421 0.73367
 C55 C 0.33588 0.79610 0.74842
 C56 C 0.34953 0.78092 0.74657
 C57 C 0.34366 0.77013 0.73026
 H58 H 0.33588 0.80770 0.75951
 H59 H 0.35100 0.75722 0.72414
 Cu60 Cu 0.29965 0.81063 0.72703
 Cu61 Cu 0.31188 0.77087 0.69957
 Cu62 Cu 0.27114 0.80018 0.68758
 N63 N 0.27678 0.82698 0.72030
 N64 N 0.26571 0.82281 0.70477
 C65 C 0.25118 0.83648 0.70317
 C66 C 0.25332 0.84977 0.71853
 C67 C 0.26964 0.84346 0.72916
 H68 H 0.24003 0.83684 0.69162
 H69 H 0.27590 0.85045 0.74217
 N70 N 0.27908 0.77665 0.67206
 N71 N 0.29456 0.76547 0.67665
 C72 C 0.29621 0.75077 0.66320
 C73 C 0.28106 0.75289 0.64966
 C74 C 0.27048 0.76936 0.65557
 H75 H 0.30765 0.73947 0.66311
 H76 H 0.25761 0.77562 0.64827
 H77 H 0.30132 0.79886 0.69292
 H78 H 0.28513 0.78292 0.70871
 N79 N 0.82831 0.27846 0.22242
 N80 N 0.82375 0.29415 0.23314
 C81 C 0.83718 0.29609 0.24784
 C82 C 0.85069 0.28079 0.24610
 C83 C 0.84476 0.26987 0.22989
 H84 H 0.83728 0.30779 0.25883
 H85 H 0.85196 0.25682 0.22388
 Cu86 Cu 0.80095 0.31063 0.22645
 Cu87 Cu 0.81289 0.27057 0.19929
 Cu88 Cu 0.77219 0.29989 0.18726
 N89 N 0.77795 0.32684 0.21981
 N90 N 0.76680 0.32258 0.20436
 C91 C 0.75214 0.33612 0.20286
 C92 C 0.75429 0.34946 0.21818
 C93 C 0.77074 0.34327 0.22867
 H94 H 0.74087 0.33635 0.19143
 H95 H 0.77701 0.35032 0.24164
 N96 N 0.78002 0.27629 0.17183
 N97 N 0.79547 0.26508 0.17645
 C98 C 0.79707 0.25033 0.16304
 C99 C 0.78193 0.25246 0.14949
 C100 C 0.77139 0.26897 0.15536
 H101 H 0.80848 0.23901 0.16296
 H102 H 0.75854 0.27524 0.14803
 H103 H 0.80251 0.29860 0.19242
 H104 H 0.78631 0.28285 0.20844
 N105 N 0.82773 0.72142 0.27745
 N106 N 0.82324 0.70568 0.26679
 C107 C 0.83670 0.70376 0.25211
 C108 C 0.85016 0.71912 0.25378
 C109 C 0.84415 0.73005 0.26994
 H110 H 0.83688 0.69200 0.24119
 H111 H 0.85131 0.74314 0.27591
 Cu112 Cu 0.80053 0.68906 0.27356
 Cu113 Cu 0.81234 0.72927 0.30060
 Cu114 Cu 0.77166 0.69995 0.31268
 N115 N 0.77748 0.67289 0.28026
 N116 N 0.76628 0.67724 0.29564
 C117 C 0.75162 0.66368 0.29717
 C118 C 0.75384 0.65024 0.28196
 C119 C 0.77033 0.65638 0.27149
 H120 H 0.74033 0.66350 0.30857
 H121 H 0.77668 0.64922 0.25863
 N122 N 0.77949 0.72357 0.32809
 N123 N 0.79496 0.73478 0.32346
 C124 C 0.79658 0.74953 0.33687
 C125 C 0.78144 0.74741 0.35042
 C126 C 0.77088 0.73091 0.34456
 H127 H 0.80802 0.76084 0.33697
 H128 H 0.75803 0.72465 0.35190
 H129 H 0.80200 0.70120 0.30758
 H130 H 0.78582 0.71687 0.29145
 N131 N 0.32789 0.22196 -0.22320
 N132 N 0.32307 0.20662 -0.23430
 C133 C 0.33654 0.20475 -0.24898
 C134 C 0.35035 0.21974 -0.24682
 C135 C 0.34456 0.23040 -0.23040
 H136 H 0.33647 0.19329 -0.26021
 H137 H 0.35202 0.24313 -0.22403
 Cu138 Cu 0.29991 0.19034 -0.22824
 Cu139 Cu 0.31264 0.22950 -0.19991
 Cu140 Cu 0.27199 0.20015 -0.18803
 N141 N 0.27725 0.17381 -0.22111
 N142 N 0.26641 0.17771 -0.20537
 C143 C 0.25200 0.16391 -0.20369
 C144 C 0.25398 0.15076 -0.21920
 C145 C 0.27009 0.15735 -0.22998
 H146 H 0.24105 0.16333 -0.19197
 H147 H 0.27621 0.15053 -0.24314
 N148 N 0.27998 0.22351 -0.17232
 N149 N 0.29543 0.23475 -0.17690
 C150 C 0.29712 0.24938 -0.16337
 C151 C 0.28204 0.24715 -0.14978
 C152 C 0.27144 0.23070 -0.15575
 H153 H 0.30852 0.26072 -0.16328
 H154 H 0.25856 0.22443 -0.14847
 H155 H 0.30218 0.20123 -0.19386
 H156 H 0.28579 0.21764 -0.20903
 N157 N 0.67162 0.27814 -0.22249
 N158 N 0.67607 0.29386 -0.23320
 C159 C 0.66256 0.29576 -0.24783
 C160 C 0.64911 0.28040 -0.24608
 C161 C 0.65516 0.26948 -0.22992
 H162 H 0.66237 0.30749 -0.25878
 H163 H 0.64802 0.25641 -0.22389
 Cu164 Cu 0.69883 0.31046 -0.22656
 Cu165 Cu 0.68710 0.27037 -0.19938
 Cu166 Cu 0.72776 0.29979 -0.18743
 N167 N 0.72188 0.32668 -0.21999
 N168 N 0.73309 0.32244 -0.20459
 C169 C 0.74773 0.33603 -0.20313
 C170 C 0.74551 0.34937 -0.21843
 C171 C 0.72904 0.34313 -0.22887
 H172 H 0.75903 0.33629 -0.19173
 H173 H 0.72269 0.35017 -0.24180
 N174 N 0.71995 0.27622 -0.17195
 N175 N 0.70453 0.26495 -0.17656
 C176 C 0.70297 0.25020 -0.16317
 C177 C 0.71811 0.25237 -0.14963
 C178 C 0.72861 0.26892 -0.15549
 H179 H 0.69158 0.23884 -0.16309
 H180 H 0.74145 0.27523 -0.14817
 H181 H 0.69749 0.29850 -0.19250
 H182 H 0.71369 0.28281 -0.20859
 N183 N 0.17276 0.77852 0.27733
 N184 N 0.17742 0.79410 0.26652
 C185 C 0.16399 0.79600 0.25182
 C186 C 0.15036 0.78080 0.25363
 C187 C 0.15625 0.76997 0.26991
 H188 H 0.16395 0.80763 0.24078
 H189 H 0.14894 0.75703 0.27600
 Cu190 Cu 0.20029 0.81062 0.27306
 Cu191 Cu 0.18813 0.77075 0.30049
 Cu192 Cu 0.22885 0.80008 0.31247
 N193 N 0.22324 0.82691 0.27989
 N194 N 0.23433 0.82274 0.29539
 C195 C 0.24889 0.83641 0.29700
 C196 C 0.24671 0.84973 0.28167
 C197 C 0.23037 0.84342 0.27107
 H198 H 0.26007 0.83675 0.30853
 H199 H 0.22408 0.85042 0.25810
 N200 N 0.22098 0.77653 0.32794
 N201 N 0.20550 0.76532 0.32333
 C202 C 0.20388 0.75059 0.33675
 C203 C 0.21903 0.75272 0.35029
 C204 C 0.22960 0.76921 0.34440
 H205 H 0.19244 0.73929 0.33683
 H206 H 0.24247 0.77548 0.35171
 H207 H 0.19855 0.79881 0.30711
 H208 H 0.21478 0.78289 0.29125
 N209 N 0.47155 0.42246 0.47331
 N210 N 0.45628 0.42747 0.48443
 C211 C 0.45440 0.41417 0.49923
 C212 C 0.46928 0.40025 0.49716
 C213 C 0.47990 0.40583 0.48064
 H214 H 0.44299 0.41443 0.51051
 H215 H 0.49259 0.39826 0.47433
 Cu216 Cu 0.44011 0.45062 0.47824
 Cu217 Cu 0.47925 0.43754 0.44998
 Cu218 Cu 0.45020 0.47829 0.43798
 N219 N 0.42364 0.47321 0.47090
 N220 N 0.42767 0.48398 0.45515
 C221 C 0.41389 0.49837 0.45332
 C222 C 0.40062 0.49643 0.46874
 C223 C 0.40711 0.48039 0.47963
 H224 H 0.41341 0.50928 0.44158
 H225 H 0.40018 0.47434 0.49276
 N226 N 0.47360 0.47021 0.42239
 N227 N 0.48468 0.45465 0.42694
 C228 C 0.49930 0.45284 0.41342
 C229 C 0.49725 0.46797 0.39986
 C230 C 0.48090 0.47871 0.40585
 H231 H 0.51053 0.44133 0.41330
 H232 H 0.47475 0.49163 0.39858
 H233 H 0.46762 0.46439 0.45905
 H234 H 0.45106 0.44810 0.44389
 N235 N -0.02800 -0.07745 0.97270
 N236 N -0.04326 -0.07246 0.98383
 C237 C -0.04511 -0.08576 0.99863
 C238 C -0.03020 -0.09965 0.99656
 C239 C -0.01961 -0.09406 0.98002
 H240 H -0.05652 -0.08553 1.00991
 H241 H -0.00691 -0.10161 0.97371
 Cu242 Cu -0.05948 -0.04932 0.97768
 Cu243 Cu -0.02036 -0.06228 0.94938
 Cu244 Cu -0.04945 -0.02152 0.93747
 N245 N -0.07600 -0.02677 0.97035
 N246 N -0.07198 -0.01593 0.95464
 C247 C -0.08582 -0.00159 0.95283
 C248 C -0.09910 -0.00364 0.96821
 C249 C -0.09257 -0.01969 0.97906
 H250 H -0.08633 0.00936 0.94112
 H251 H -0.09952 -0.02583 0.99215
 N252 N -0.02604 -0.02954 0.92189
 N253 N -0.01498 -0.04511 0.92639
 C254 C -0.00037 -0.04689 0.91284
 C255 C -0.00243 -0.03172 0.89933
 C256 C -0.01877 -0.02099 0.90537
 H257 H 0.01084 -0.05841 0.91268
 H258 H -0.02494 -0.00806 0.89814
 H259 H -0.03208 -0.03543 0.95849
 H260 H -0.04867 -0.05170 0.94331
 N261 N 1.02879 0.57781 0.97239
 N262 N 1.04455 0.57330 0.98302
 C263 C 1.04651 0.58669 0.99774
 C264 C 1.03116 0.60016 0.99612
 C265 C 1.02019 0.59420 0.97996
 H266 H 1.05827 0.58680 1.00867
 H267 H 1.00707 0.60137 0.97405
 Cu268 Cu 1.06109 0.55058 0.97627
 Cu269 Cu 1.02083 0.56241 0.94928
 Cu270 Cu 1.04993 0.52158 0.93734
 N271 N 1.07716 0.52752 0.96960
 N272 N 1.07268 0.51621 0.95433
 C273 C 1.08622 0.50156 0.95279
 C274 C 1.09979 0.50390 0.96788
 C275 C 1.09374 0.52042 0.97830
 H276 H 1.08633 0.49021 0.94145
 H277 H 1.10099 0.52684 0.99108
 N278 N 1.02632 0.52945 0.92194
 N279 N 1.01523 0.54501 0.92647
 C280 C 1.00051 0.54668 0.91303
 C281 C 1.00253 0.53146 0.89955
 C282 C 1.01895 0.52081 0.90551
 H283 H 0.98929 0.55818 0.91287
 H284 H 1.02513 0.50790 0.89825
 H285 H 1.03312 0.53589 0.95860
 H286 H 1.04885 0.55187 0.94232
 N287 N 0.52876 0.07812 0.47271
 N288 N 0.54451 0.07357 0.48334
 C289 C 0.54651 0.08697 0.49805
 C290 C 0.53119 0.10046 0.49645
 C291 C 0.52019 0.09453 0.48028
 H292 H 0.55827 0.08704 0.50898
 H293 H 0.50708 0.10171 0.47438
 Cu294 Cu 0.56094 0.05078 0.47661
 Cu295 Cu 0.52074 0.06272 0.44962
 Cu296 Cu 0.54988 0.02189 0.43764
 N297 N 0.57712 0.02781 0.46991
 N298 N 0.57268 0.01653 0.45462
 C299 C 0.58626 0.00192 0.45306
 C300 C 0.59983 0.00426 0.46817
 C301 C 0.59372 0.02076 0.47859
 H302 H 0.58639 -0.00943 0.44171
 H303 H 0.60095 0.02719 0.49139
 N304 N 0.52621 0.02972 0.42229
 N305 N 0.51510 0.04526 0.42685
 C306 C 0.50030 0.04685 0.41348
 C307 C 0.50228 0.03161 0.40002
 C308 C 0.51876 0.02103 0.40592
 H309 H 0.48904 0.05833 0.41336
 H310 H 0.52494 0.00811 0.39865
 H311 H 0.53301 0.03621 0.45881
 H312 H 0.54878 0.05225 0.44263
 N313 N -0.02857 0.07787 0.52714
 N314 N -0.04425 0.07323 0.51642
 C315 C -0.04619 0.08655 0.50164
 C316 C -0.03092 0.10012 0.50333
 C317 C -0.02002 0.09429 0.51958
 H318 H -0.05787 0.08655 0.49062
 H319 H -0.00700 0.10157 0.52556
 Cu320 Cu -0.06060 0.05040 0.52312
 Cu321 Cu -0.02060 0.06258 0.55033
 Cu322 Cu -0.04968 0.02168 0.56227
 N323 N -0.07688 0.02755 0.52991
 N324 N -0.07244 0.01631 0.54522
 C325 C -0.08606 0.00173 0.54681
 C326 C -0.09962 0.00404 0.53170
 C327 C -0.09349 0.02049 0.52122
 H328 H -0.08624 -0.00957 0.55819
 H329 H -0.10069 0.02688 0.50840
 N330 N -0.02608 0.02963 0.57770
 N331 N -0.01504 0.04524 0.57320
 C332 C -0.00039 0.04701 0.58673
 C333 C -0.00241 0.03180 0.60021
 C334 C -0.01875 0.02106 0.59418
 H335 H 0.01076 0.05859 0.58692
 H336 H -0.02494 0.00813 0.60142
 H337 H -0.03264 0.03589 0.54109
 H338 H -0.04852 0.05187 0.55715
 N339 N 0.47125 0.57794 0.02768
 N340 N 0.45554 0.57338 0.01698
 C341 C 0.45361 0.58677 0.00227
 C342 C 0.46893 0.60027 0.00394
 C343 C 0.47986 0.59435 0.02015
 H344 H 0.44189 0.58686 -0.00871
 H345 H 0.49294 0.60155 0.02612
 Cu346 Cu 0.43902 0.55064 0.02369
 Cu347 Cu 0.47917 0.56257 0.05082
 Cu348 Cu 0.44995 0.52179 0.06274
 N349 N 0.42283 0.52764 0.03035
 N350 N 0.42721 0.51640 0.04568
 C351 C 0.41364 0.50176 0.04718
 C352 C 0.40017 0.50401 0.03199
 C353 C 0.40630 0.52051 0.02157
 H354 H 0.41348 0.49043 0.05854
 H355 H 0.39913 0.52688 0.00872
 N356 N 0.47357 0.52964 0.07819
 N357 N 0.48472 0.54517 0.07365
 C358 C 0.49946 0.54680 0.08708
 C359 C 0.49741 0.53158 0.10056
 C360 C 0.48094 0.52099 0.09461
 H361 H 0.51073 0.55827 0.08723
 H362 H 0.47472 0.50809 0.10187
 H363 H 0.46694 0.53604 0.04154
 H364 H 0.45116 0.55209 0.05768
 N365 N 0.52847 -0.07753 0.02748
 N366 N 0.54416 -0.07295 0.01676
 C367 C 0.54605 -0.08630 0.00200
 C368 C 0.53072 -0.09980 0.00366
 C369 C 0.51985 -0.09392 0.01991
 H370 H 0.55776 -0.08636 -0.00898
 H371 H 0.50680 -0.10116 0.02588
 Cu372 Cu 0.56063 -0.05017 0.02344
 Cu373 Cu 0.52065 -0.06227 0.05072
 Cu374 Cu 0.55000 -0.02159 0.06275
 N375 N 0.57699 -0.02736 0.03025
 N376 N 0.57270 -0.01618 0.04565
 C377 C 0.58634 -0.00161 0.04721
 C378 C 0.59978 -0.00386 0.03199
 C379 C 0.59355 -0.02028 0.02148
 H380 H 0.58661 0.00965 0.05863
 H381 H 0.60066 -0.02663 0.00859
 N382 N 0.52642 -0.02946 0.07820
 N383 N 0.51524 -0.04495 0.07362
 C384 C 0.50054 -0.04662 0.08709
 C385 C 0.50268 -0.03149 0.10065
 C386 C 0.51914 -0.02089 0.09471
 H387 H 0.48927 -0.05809 0.08718
 H388 H 0.52543 -0.00803 0.10200
 H389 H 0.53282 -0.03567 0.04153
 H390 H 0.54871 -0.05185 0.05744
 N391 N 1.02842 0.42255 0.52707
 N392 N 1.04411 0.42714 0.51636
 C393 C 1.04598 0.41383 0.50156
 C394 C 1.03065 0.40033 0.50321
 C395 C 1.01978 0.40619 0.51948
 H396 H 1.05765 0.41381 0.49054
 H397 H 1.00671 0.39896 0.52544
 Cu398 Cu 1.06058 0.44993 0.52302
 Cu399 Cu 1.02060 0.43784 0.55028
 Cu400 Cu 1.04983 0.47862 0.56227
 N401 N 1.07690 0.47276 0.52989
 N402 N 1.07253 0.48401 0.54522
 C403 C 1.08614 0.49860 0.54678
 C404 C 1.09963 0.49630 0.53162
 C405 C 1.09347 0.47984 0.52116
 H406 H 1.08633 0.50991 0.55815
 H407 H 1.10062 0.47347 0.50829
 N408 N 1.02628 0.47071 0.57772
 N409 N 1.01516 0.45515 0.57319
 C410 C 1.00054 0.45340 0.58672
 C411 C 1.00264 0.46856 0.60026
 C412 C 1.01901 0.47926 0.59423
 H413 H 0.98933 0.44187 0.58689
 H414 H 1.02525 0.49215 0.60151
 H415 H 1.03273 0.46454 0.54102
 H416 H 1.04862 0.44845 0.55703
 C417 C 0.35250 -0.01793 0.25409
 C418 C 0.36291 -0.00029 0.25018
 C419 C 0.35240 0.01727 0.24623
 C420 C 0.33156 0.01720 0.24625
 C421 C 0.32122 -0.00044 0.25013
 C422 C 0.33166 -0.01801 0.25402
 C423 C 0.38477 -0.00020 0.25022
 C424 C 0.39527 -0.00396 0.23267
 C425 C 0.41611 -0.00393 0.23272
 C426 C 0.42646 -0.00017 0.25032
 C427 C 0.41603 0.00361 0.26786
 C428 C 0.39519 0.00361 0.26782
 H429 H 0.36062 -0.03151 0.25713
 H430 H 0.36044 0.03091 0.24317
 H431 H 0.38723 -0.00689 0.21906
 H432 H 0.38709 0.00656 0.28139
 H433 H 0.30508 -0.00049 0.25012
 H434 H 0.44259 -0.00019 0.25036
 C435 C 0.14771 -0.01795 0.74609
 C436 C 0.13728 -0.00030 0.74984
 C437 C 0.14777 0.01731 0.75369
 C438 C 0.16861 0.01727 0.75373
 C439 C 0.17897 -0.00038 0.75000
 C440 C 0.16855 -0.01800 0.74620
 C441 C 0.11541 -0.00026 0.74980
 C442 C 0.10493 -0.00407 0.76736
 C443 C 0.08409 -0.00405 0.76733
 C444 C 0.07372 -0.00024 0.74977
 C445 C 0.08411 0.00359 0.73221
 C446 C 0.10496 0.00358 0.73223
 H447 H 0.13962 -0.03157 0.74312
 H448 H 0.13972 0.03096 0.75662
 H449 H 0.11299 -0.00703 0.78095
 H450 H 0.11305 0.00654 0.71865
 H451 H 0.19511 -0.00041 0.75003
 H452 H 0.05758 -0.00023 0.74976
 C453 C 0.64724 0.48198 0.24643
 C454 C 0.63677 0.49960 0.25025
 C455 C 0.64722 0.51724 0.25404
 C456 C 0.66806 0.51728 0.25398
 C457 C 0.67846 0.49965 0.25019
 C458 C 0.66808 0.48200 0.24643
 C459 C 0.61491 0.49958 0.25025
 C460 C 0.60445 0.49575 0.26780
 C461 C 0.58361 0.49578 0.26779
 C462 C 0.57323 0.49960 0.25023
 C463 C 0.58363 0.50341 0.23268
 C464 C 0.60446 0.50342 0.23268
 H465 H 0.63917 0.46835 0.24347
 H466 H 0.63914 0.53086 0.25701
 H467 H 0.61251 0.49277 0.28139
 H468 H 0.61254 0.50640 0.21911
 H469 H 0.69460 0.49967 0.25016
 H470 H 0.55709 0.49962 0.25022
 C471 C 0.85247 0.48218 0.75387
 C472 C 0.86293 0.49979 0.74998
 C473 C 0.85247 0.51742 0.74619
 C474 C 0.83163 0.51742 0.74630
 C475 C 0.82124 0.49980 0.75014
 C476 C 0.83163 0.48218 0.75390
 C477 C 0.88480 0.49978 0.74995
 C478 C 0.89526 0.49600 0.73236
 C479 C 0.91611 0.49596 0.73238
 C480 C 0.92649 0.49969 0.74996
 C481 C 0.91611 0.50343 0.76754
 C482 C 0.89527 0.50348 0.76754
 H483 H 0.86054 0.46856 0.75684
 H484 H 0.86054 0.53105 0.74319
 H485 H 0.88719 0.49311 0.71876
 H486 H 0.88720 0.50638 0.78113
 H487 H 0.80510 0.49980 0.75018
 H488 H 0.94263 0.49967 0.74997
 C489 C 0.25377 0.35429 -0.01779
 C490 C 0.24997 0.36465 -0.00017
 C491 C 0.24624 0.35413 0.01736
 C492 C 0.24634 0.33331 0.01728
 C493 C 0.25014 0.32302 -0.00034
 C494 C 0.25384 0.33348 -0.01787
 C495 C 0.24994 0.38648 -0.00008
 C496 C 0.23229 0.39691 -0.00389
 C497 C 0.23230 0.41772 -0.00384
 C498 C 0.24994 0.42811 -0.00003
 C499 C 0.26759 0.41773 0.00374
 C500 C 0.26759 0.39692 0.00375
 H501 H 0.25667 0.36242 -0.03135
 H502 H 0.24329 0.36213 0.03098
 H503 H 0.21865 0.38884 -0.00689
 H504 H 0.28123 0.38886 0.00669
 H505 H 0.25021 0.30690 -0.00040
 H506 H 0.24995 0.44423 -0.00003
 C507 C 0.74637 0.14536 -0.01765
 C508 C 0.75034 0.13499 -0.00008
 C509 C 0.75424 0.14550 0.01743
 C510 C 0.75409 0.16631 0.01738
 C511 C 0.75009 0.17662 -0.00017
 C512 C 0.74627 0.16617 -0.01769
 C513 C 0.75034 0.11316 -0.00001
 C514 C 0.76798 0.10272 -0.00377
 C515 C 0.76795 0.08191 -0.00376
 C516 C 0.75030 0.07153 -0.00001
 C517 C 0.73266 0.08192 0.00376
 C518 C 0.73268 0.10273 0.00379
 H519 H 0.74338 0.13724 -0.03120
 H520 H 0.75734 0.13749 0.03101
 H521 H 0.78164 0.11077 -0.00671
 H522 H 0.71904 0.11081 0.00672
 H523 H 0.74996 0.19274 -0.00020
 H524 H 0.75028 0.05541 -0.00003
 C525 C 0.24629 0.64566 0.48240
 C526 C 0.25006 0.63525 0.49999
 C527 C 0.25381 0.64572 0.51756
 C528 C 0.25379 0.66653 0.51753
 C529 C 0.25004 0.67687 0.49995
 C530 C 0.24630 0.66646 0.48239
 C531 C 0.25004 0.61344 0.50002
 C532 C 0.26767 0.60298 0.49622
 C533 C 0.26764 0.58217 0.49630
 C534 C 0.24999 0.57181 0.50008
 C535 C 0.23236 0.58222 0.50381
 C536 C 0.23238 0.60303 0.50383
 H537 H 0.24338 0.63757 0.46882
 H538 H 0.25672 0.63767 0.53116
 H539 H 0.28132 0.61103 0.49324
 H540 H 0.21874 0.61110 0.50678
 H541 H 0.25002 0.69299 0.49993
 H542 H 0.24997 0.55569 0.50012
 C543 C 0.75365 0.85458 0.48238
 C544 C 0.74994 0.86502 0.49997
 C545 C 0.74618 0.85458 0.51755
 C546 C 0.74615 0.83377 0.51753
 C547 C 0.74986 0.82339 0.49995
 C548 C 0.75360 0.83376 0.48238
 C549 C 0.74998 0.88685 0.49999
 C550 C 0.73234 0.89731 0.49623
 C551 C 0.73238 0.91812 0.49630
 C552 C 0.75003 0.92848 0.50007
 C553 C 0.76766 0.91808 0.50377
 C554 C 0.76765 0.89727 0.50377
 H555 H 0.75655 0.86264 0.46878
 H556 H 0.74330 0.86265 0.53115
 H557 H 0.71868 0.88927 0.49329
 H558 H 0.78130 0.88920 0.50668
 H559 H 0.74985 0.80727 0.49994
 H560 H 0.75005 0.94461 0.50011
 C561 C -0.01817 0.25379 0.35347
 C562 C -0.00047 0.25012 0.36387
 C563 C 0.01719 0.24641 0.35344
 C564 C 0.01717 0.24638 0.33270
 C565 C -0.00052 0.25002 0.32238
 C566 C -0.01819 0.25374 0.33272
 C567 C -0.00044 0.25017 0.38564
 C568 C -0.00403 0.23251 0.39610
 C569 C -0.00396 0.23256 0.41684
 C570 C -0.00029 0.25025 0.42714
 C571 C 0.00331 0.26790 0.41675
 C572 C 0.00323 0.26786 0.39601
 H573 H -0.03183 0.25668 0.36151
 H574 H 0.03087 0.24358 0.36147
 H575 H -0.00686 0.21883 0.38810
 H576 H 0.00601 0.28151 0.38795
 H577 H -0.00054 0.24998 0.30632
 H578 H -0.00023 0.25028 0.44320
 C579 C -0.01752 0.74624 0.14625
 C580 C 0.00011 0.75001 0.13577
 C581 C 0.01781 0.75382 0.14612
 C582 C 0.01788 0.75383 0.16686
 C583 C 0.00026 0.75006 0.17726
 C584 C -0.01744 0.74629 0.16700
 C585 C 0.00003 0.75002 0.11399
 C586 C -0.00365 0.76769 0.10361
 C587 C -0.00365 0.76772 0.08287
 C588 C 0.00001 0.75007 0.07250
 C589 C 0.00368 0.73240 0.08280
 C590 C 0.00369 0.73237 0.10355
 H591 H -0.03120 0.74331 0.13827
 H592 H 0.03143 0.75674 0.13804
 H593 H -0.00648 0.78134 0.11166
 H594 H 0.00655 0.71870 0.11155
 H595 H 0.00032 0.75007 0.19332
 H596 H 0.00003 0.75010 0.05644
 C597 C 0.48230 0.24615 0.64686
 C598 C 0.49994 0.25001 0.63644
 C599 C 0.51760 0.25381 0.64686
 C600 C 0.51763 0.25372 0.66761
 C601 C 0.49998 0.24989 0.67794
 C602 C 0.48232 0.24612 0.66761
 C603 C 0.49992 0.25005 0.61466
 C604 C 0.49630 0.26775 0.60428
 C605 C 0.49633 0.26778 0.58353
 C606 C 0.49997 0.25014 0.57316
 C607 C 0.50356 0.23244 0.58346
 C608 C 0.50354 0.23240 0.60420
 H609 H 0.46864 0.24321 0.63884
 H610 H 0.53125 0.25680 0.63883
 H611 H 0.49348 0.28140 0.61233
 H612 H 0.50633 0.21871 0.61220
 H613 H 0.50000 0.24984 0.69400
 H614 H 0.50000 0.25017 0.55710
 C615 C 0.48214 0.75382 0.85382
 C616 C 0.49984 0.75010 0.86420
 C617 C 0.51750 0.74641 0.85374
 C618 C 0.51745 0.74643 0.83300
 C619 C 0.49975 0.75012 0.82270
 C620 C 0.48210 0.75382 0.83307
 C621 C 0.49986 0.75010 0.88598
 C622 C 0.49618 0.73244 0.89640
 C623 C 0.49614 0.73246 0.91715
 C624 C 0.49976 0.75014 0.92748
 C625 C 0.50347 0.76779 0.91714
 C626 C 0.50352 0.76778 0.89639
 H627 H 0.46849 0.75668 0.86188
 H628 H 0.53118 0.74356 0.86175
 H629 H 0.49336 0.71877 0.88837
 H630 H 0.50638 0.78143 0.88836
 H631 H 0.49971 0.75013 0.80664
 H632 H 0.49970 0.75017 0.94354
 C633 C 0.09979 0.22909 0.27984
 C634 C 0.09492 0.25125 0.28222
 C635 C 0.07828 0.25475 0.29319
 C636 C 0.06814 0.23576 0.30072
 C637 C 0.08443 0.22449 0.31203
 C638 C 0.10108 0.22099 0.30104
 C639 C 0.08088 0.21979 0.27111
 C640 C 0.06424 0.22329 0.28208
 C641 C 0.11764 0.22534 0.26793
 C642 C 0.13219 0.22232 0.25795
 C643 C 0.05016 0.23952 0.31247
 C644 C 0.03523 0.24262 0.32187
 H645 H 0.10376 0.26313 0.27582
 H646 H 0.07285 0.26965 0.29618
 H647 H 0.08301 0.21970 0.32731
 H648 H 0.11393 0.21320 0.30692
 H649 H 0.08058 0.21123 0.25748
 H650 H 0.04969 0.21773 0.27784
 C651 C 0.60006 0.72942 0.78000
 C652 C 0.59508 0.75155 0.78240
 C653 C 0.57844 0.75496 0.79342
 C654 C 0.56839 0.73590 0.80092
 C655 C 0.58474 0.72470 0.81219
 C656 C 0.60138 0.72129 0.80118
 C657 C 0.58118 0.72005 0.77125
 C658 C 0.56454 0.72344 0.78226
 C659 C 0.61798 0.72572 0.76819
 C660 C 0.63264 0.72271 0.75837
 C661 C 0.55042 0.73959 0.81270
 C662 C 0.53550 0.74268 0.82213
 H663 H 0.60382 0.76350 0.77597
 H664 H 0.57298 0.76982 0.79650
 H665 H 0.58336 0.71984 0.82745
 H666 H 0.61426 0.71352 0.80700
 H667 H 0.58090 0.71152 0.75761
 H668 H 0.55002 0.71775 0.77808
 C669 C 0.39933 0.77077 0.78031
 C670 C 0.39777 0.77834 0.80169
 C671 C 0.41443 0.77494 0.81269
 C672 C 0.43102 0.76431 0.80122
 C673 C 0.43473 0.77731 0.78291
 C674 C 0.41808 0.78070 0.77191
 C675 C 0.40468 0.74868 0.78217
 C676 C 0.42134 0.74528 0.79317
 C677 C 0.38143 0.77446 0.76846
 C678 C 0.36680 0.77746 0.75858
 C679 C 0.44903 0.76063 0.81295
 C680 C 0.46400 0.75756 0.82231
 H681 H 0.38472 0.78572 0.80766
 H682 H 0.41566 0.77943 0.82808
 H683 H 0.44917 0.78335 0.77894
 H684 H 0.41827 0.78959 0.75850
 H685 H 0.39617 0.73675 0.77542
 H686 H 0.42705 0.73044 0.79588
 C687 C -0.10070 0.27083 0.27962
 C688 C -0.09231 0.28958 0.28953
 C689 C -0.07570 0.28614 0.30059
 C690 C -0.06912 0.26430 0.30065
 C691 C -0.06670 0.25879 0.27872
 C692 C -0.08331 0.26222 0.26767
 C693 C -0.10404 0.25606 0.29661
 C694 C -0.08743 0.25262 0.30767
 C695 C -0.11852 0.27451 0.26763
 C696 C -0.13305 0.27749 0.25759
 C697 C -0.05118 0.26058 0.31248
 C698 C -0.03626 0.25748 0.32190
 H699 H -0.09883 0.30425 0.28799
 H700 H -0.06798 0.29788 0.30851
 H701 H -0.05314 0.25273 0.27242
 H702 H -0.08397 0.25910 0.25191
 H703 H -0.11820 0.24893 0.29968
 H704 H -0.08736 0.24254 0.32021
 C705 C -0.10011 0.72930 0.21991
 C706 C -0.10407 0.74101 0.20081
 C707 C -0.08739 0.74443 0.18985
 C708 C -0.06839 0.73581 0.19906
 C709 C -0.07288 0.71366 0.20221
 C710 C -0.08955 0.71024 0.21317
 C711 C -0.08414 0.74129 0.23093
 C712 C -0.06746 0.74471 0.21997
 C713 C -0.11801 0.72562 0.23178
 C714 C -0.13260 0.72262 0.24171
 C715 C -0.05039 0.73949 0.18731
 C716 C -0.03547 0.74255 0.17788
 H717 H -0.11868 0.74621 0.19632
 H718 H -0.08771 0.75256 0.17597
 H719 H -0.06374 0.70172 0.19638
 H720 H -0.09470 0.69537 0.21672
 H721 H -0.08580 0.74665 0.24600
 H722 H -0.05484 0.75299 0.22568
 C723 C 0.39941 0.22940 0.72025
 C724 C 0.40906 0.24970 0.72419
 C725 C 0.42579 0.25302 0.71330
 C726 C 0.43125 0.23571 0.69951
 C727 C 0.41258 0.23214 0.68690
 C728 C 0.39584 0.22883 0.69781
 C729 C 0.41598 0.21417 0.72400
 C730 C 0.43272 0.21749 0.71310
 C731 C 0.38145 0.22584 0.73205
 C732 C 0.36678 0.22294 0.74190
 C733 C 0.44930 0.23931 0.68782
 C734 C 0.46426 0.24235 0.67844
 H735 H 0.40325 0.26051 0.73463
 H736 H 0.43432 0.26667 0.71442
 H737 H 0.41251 0.23222 0.67083
 H738 H 0.38143 0.22607 0.69108
 H739 H 0.41468 0.20187 0.73431
 H740 H 0.44575 0.20802 0.71409
 C741 C 0.60028 0.27053 0.72064
 C742 C 0.60426 0.26969 0.69828
 C743 C 0.58760 0.26634 0.68725
 C744 C 0.56861 0.26415 0.69967
 C745 C 0.56755 0.28316 0.71220
 C746 C 0.58421 0.28651 0.72322
 C747 C 0.58985 0.25084 0.72552
 C748 C 0.57320 0.24748 0.71450
 C749 C 0.61817 0.27414 0.73258
 C750 C 0.63276 0.27709 0.74254
 C751 C 0.55063 0.26052 0.68787
 C752 C 0.53569 0.25747 0.67844
 H753 H 0.61887 0.27154 0.69168
 H754 H 0.58794 0.26532 0.67121
 H755 H 0.55484 0.29310 0.71243
 H756 H 0.58575 0.29932 0.73288
 H757 H 0.59509 0.24044 0.73665
 H758 H 0.56417 0.23421 0.71621
 C759 C 0.10061 0.77080 0.21969
 C760 C 0.10309 0.77601 0.19770
 C761 C 0.08642 0.77265 0.18670
 C762 C 0.06891 0.76441 0.19876
 C763 C 0.06581 0.77944 0.21559
 C764 C 0.08247 0.78280 0.22659
 C765 C 0.09373 0.74905 0.21990
 C766 C 0.07707 0.74569 0.20890
 C767 C 0.11851 0.77442 0.23161
 C768 C 0.13310 0.77736 0.24156
 C769 C 0.05092 0.76076 0.18700
 C770 C 0.03597 0.75765 0.17762
 H771 H 0.11674 0.78180 0.19134
 H772 H 0.08579 0.77556 0.17090
 H773 H 0.05176 0.78678 0.21862
 H774 H 0.08269 0.79302 0.23903
 H775 H 0.10128 0.73732 0.22797
 H776 H 0.07034 0.73108 0.20756
 C777 C 0.27922 0.10009 0.22861
 C778 C 0.28900 0.09139 0.20999
 C779 C 0.29984 0.07465 0.21354
 C780 C 0.29983 0.06826 0.23535
 C781 C 0.27778 0.06625 0.24091
 C782 C 0.26695 0.08298 0.23736
 C783 C 0.29638 0.10328 0.24327
 C784 C 0.30722 0.08653 0.24682
 C785 C 0.26745 0.11804 0.22480
 C786 C 0.25761 0.13267 0.22166
 C787 C 0.31140 0.05019 0.23918
 C788 C 0.32071 0.03522 0.24236
 H789 H 0.28761 0.09784 0.19533
 H790 H 0.30772 0.06676 0.20191
 H791 H 0.27125 0.05287 0.24712
 H792 H 0.25114 0.08393 0.24053
 H793 H 0.29975 0.11744 0.25021
 H794 H 0.31987 0.08635 0.25682
 C795 C 0.77946 0.60043 0.72872
 C796 C 0.77897 0.59373 0.75043
 C797 C 0.78973 0.57697 0.75400
 C798 C 0.79996 0.56853 0.73550
 C799 C 0.81242 0.58578 0.72726
 C800 C 0.80164 0.60255 0.72368
 C801 C 0.77237 0.58231 0.71683
 C802 C 0.78313 0.56554 0.72041
 C803 C 0.76776 0.61843 0.72498
 C804 C 0.75796 0.63311 0.72196
 C805 C 0.81150 0.55044 0.73933
 C806 C 0.82080 0.53547 0.74249
 H807 H 0.77083 0.60148 0.76198
 H808 H 0.79082 0.57034 0.76861
 H809 H 0.82830 0.58488 0.72451
 H810 H 0.80828 0.61601 0.71777
 H811 H 0.76000 0.58263 0.70650
 H812 H 0.77992 0.55147 0.71321
 C813 C 0.77919 0.39919 0.77096
 C814 C 0.79559 0.40278 0.78638
 C815 C 0.80648 0.41952 0.78296
 C816 C 0.79990 0.43103 0.76447
 C817 C 0.77764 0.43505 0.76754
 C818 C 0.76676 0.41832 0.77096
 C819 C 0.78998 0.39911 0.75093
 C820 C 0.80087 0.41585 0.74752
 C821 C 0.76736 0.38125 0.77465
 C822 C 0.75746 0.36664 0.77775
 C823 C 0.81152 0.44911 0.76078
 C824 C 0.82083 0.46411 0.75769
 H825 H 0.79847 0.39297 0.79881
 H826 H 0.81870 0.42406 0.79247
 H827 H 0.77100 0.44975 0.76709
 H828 H 0.75080 0.41869 0.77342
 H829 H 0.78923 0.38693 0.74041
 H830 H 0.80946 0.41801 0.73408
 C831 C 0.27951 -0.10117 0.27134
 C832 C 0.28105 -0.08737 0.28937
 C833 C 0.29186 -0.07059 0.28591
 C834 C 0.30007 -0.06925 0.26475
 C835 C 0.28180 -0.07137 0.25126
 C836 C 0.27101 -0.08815 0.25473
 C837 C 0.30112 -0.10530 0.26522
 C838 C 0.31193 -0.08851 0.26176
 C839 C 0.26776 -0.11917 0.27505
 C840 C 0.25793 -0.13384 0.27814
 C841 C 0.31162 -0.05112 0.26100
 C842 C 0.32089 -0.03610 0.25786
 H843 H 0.27428 -0.09052 0.30363
 H844 H 0.29433 -0.05936 0.29719
 H845 H 0.27772 -0.06065 0.23996
 H846 H 0.25768 -0.09181 0.24640
 H847 H 0.30738 -0.12010 0.26375
 H848 H 0.32745 -0.08891 0.25732
 C849 C 0.22054 -0.10114 0.72875
 C850 C 0.20347 -0.09794 0.71399
 C851 C 0.19270 -0.08115 0.71752
 C852 C 0.20007 -0.06921 0.73547
 C853 C 0.22216 -0.06522 0.73133
 C854 C 0.23292 -0.08199 0.72779
 C855 C 0.21066 -0.10079 0.74923
 C856 C 0.19990 -0.08400 0.75277
 C857 C 0.23227 -0.11913 0.72503
 C858 C 0.24211 -0.13379 0.72201
 C859 C 0.18857 -0.05109 0.73927
 C860 C 0.17932 -0.03608 0.74242
 H861 H 0.20014 -0.10796 0.70183
 H862 H 0.18015 -0.07678 0.70840
 H863 H 0.22878 -0.05050 0.73119
 H864 H 0.24874 -0.08165 0.72457
 H865 H 0.21198 -0.11269 0.76000
 H866 H 0.19204 -0.08150 0.76659
 C867 C 0.72052 0.39912 0.22902
 C868 C 0.70983 0.39897 0.24910
 C869 C 0.69894 0.41568 0.25262
 C870 C 0.69982 0.43091 0.23572
 C871 C 0.69316 0.41944 0.21721
 C872 C 0.70405 0.40272 0.21369
 C873 C 0.73294 0.41826 0.22903
 C874 C 0.72206 0.43496 0.23255
 C875 C 0.73235 0.38122 0.22521
 C876 C 0.74228 0.36666 0.22203
 C877 C 0.68820 0.44896 0.23950
 C878 C 0.67889 0.46395 0.24264
 H879 H 0.71069 0.38678 0.25959
 H880 H 0.69049 0.41782 0.26615
 H881 H 0.68094 0.42401 0.20774
 H882 H 0.70115 0.39297 0.20121
 H883 H 0.74889 0.41866 0.22650
 H884 H 0.72870 0.44967 0.23306
 C885 C 0.72025 0.60038 0.27134
 C886 C 0.70538 0.59544 0.28787
 C887 C 0.69456 0.57867 0.28436
 C888 C 0.69968 0.56848 0.26467
 C889 C 0.72221 0.56486 0.26553
 C890 C 0.73301 0.58162 0.26904
 C891 C 0.70771 0.60141 0.25237
 C892 C 0.69690 0.58463 0.24886
 C893 C 0.73201 0.61834 0.27510
 C894 C 0.74189 0.63296 0.27821
 C895 C 0.68813 0.55037 0.26089
 C896 C 0.67885 0.53536 0.25776
 H897 H 0.70346 0.60437 0.30112
 H898 H 0.68338 0.57322 0.29462
 H899 H 0.72908 0.55039 0.26357
 H900 H 0.74913 0.58151 0.27008
 H901 H 0.70731 0.61421 0.24260
 H902 H 0.68723 0.58306 0.23608
 C903 C 0.22073 0.10056 0.77048
 C904 C 0.20674 0.09507 0.78759
 C905 C 0.19596 0.07824 0.78425
 C906 C 0.20023 0.06854 0.76412
 C907 C 0.22282 0.06519 0.76381
 C908 C 0.23359 0.08201 0.76715
 C909 C 0.20727 0.10183 0.75216
 C910 C 0.19649 0.08499 0.74882
 C911 C 0.23243 0.11862 0.77409
 C912 C 0.24220 0.13334 0.77711
 C913 C 0.18872 0.05038 0.76050
 C914 C 0.17944 0.03535 0.75746
 H915 H 0.20534 0.10371 0.80110
 H916 H 0.18533 0.07245 0.79489
 H917 H 0.22975 0.05086 0.76116
 H918 H 0.24974 0.08209 0.76737
 H919 H 0.20624 0.11482 0.74269
 H920 H 0.18624 0.08356 0.73648
 C921 C 0.22879 0.28075 0.09969
 C922 C 0.24737 0.27409 0.08828
 C923 C 0.25093 0.28496 0.07165
 C924 C 0.23556 0.30143 0.06805
 C925 C 0.23557 0.31384 0.08713
 C926 C 0.23200 0.30296 0.10377
 C927 C 0.21180 0.27990 0.08453
 C928 C 0.21536 0.29078 0.06789
 C929 C 0.22497 0.26896 0.11754
 C930 C 0.22188 0.25908 0.13210
 C931 C 0.23939 0.31307 0.05009
 C932 C 0.24255 0.32243 0.03521
 H933 H 0.25689 0.26190 0.09287
 H934 H 0.26351 0.28208 0.06198
 H935 H 0.23813 0.32977 0.08753
 H936 H 0.23151 0.30956 0.11843
 H937 H 0.19817 0.27152 0.08668
 H938 H 0.20478 0.29169 0.05578
 C939 C 0.72893 0.78138 0.60014
 C940 C 0.71630 0.80034 0.59881
 C941 C 0.71975 0.81119 0.58211
 C942 C 0.73550 0.80202 0.56842
 C943 C 0.72807 0.78085 0.56424
 C944 C 0.72462 0.77002 0.58092
 C945 C 0.75055 0.78848 0.59816
 C946 C 0.75400 0.79932 0.58147
 C947 C 0.72516 0.76954 0.61796
 C948 C 0.72205 0.75954 0.63243
 C949 C 0.73923 0.81362 0.55042
 C950 C 0.74235 0.82295 0.53551
 H951 H 0.70560 0.80484 0.60998
 H952 H 0.71195 0.82495 0.57895
 H953 H 0.72576 0.77487 0.54949
 H954 H 0.71936 0.75476 0.58046
 H955 H 0.76213 0.78523 0.60888
 H956 H 0.76855 0.80531 0.57786
 C957 C 0.77104 0.78116 0.39995
 C958 C 0.77939 0.77172 0.41888
 C959 C 0.77586 0.78262 0.43551
 C960 C 0.76433 0.80190 0.43158
 C961 C 0.74531 0.79533 0.42081
 C962 C 0.74884 0.78443 0.40418
 C963 C 0.78010 0.80209 0.39926
 C964 C 0.77657 0.81300 0.41590
 C965 C 0.77480 0.76934 0.38212
 C966 C 0.77785 0.75943 0.36759
 C967 C 0.76053 0.81357 0.44952
 C968 C 0.75739 0.82294 0.46441
 H969 H 0.78740 0.75771 0.41919
 H970 H 0.78082 0.77792 0.45007
 H971 H 0.73039 0.79897 0.42577
 H972 H 0.73696 0.77874 0.39487
 H973 H 0.78848 0.80785 0.38678
 H974 H 0.78192 0.82812 0.41767
 C975 C 0.27145 0.28101 -0.10034
 C976 C 0.27977 0.27160 -0.08138
 C977 C 0.27622 0.28253 -0.06478
 C978 C 0.26468 0.30180 -0.06876
 C979 C 0.24569 0.29522 -0.07955
 C980 C 0.24925 0.28428 -0.09615
 C981 C 0.28052 0.30194 -0.10105
 C982 C 0.27696 0.31288 -0.08443
 C983 C 0.27527 0.26914 -0.11813
 C984 C 0.27837 0.25918 -0.13263
 C985 C 0.26085 0.31345 -0.05081
 C986 C 0.25768 0.32275 -0.03589
 H987 H 0.28776 0.25759 -0.08103
 H988 H 0.28116 0.27787 -0.05020
 H989 H 0.23076 0.29884 -0.07460
 H990 H 0.23737 0.27854 -0.10543
 H991 H 0.28897 0.30766 -0.11350
 H992 H 0.28235 0.32799 -0.08265
 C993 C 0.72861 0.21854 -0.10018
 C994 C 0.74046 0.19944 -0.10406
 C995 C 0.74397 0.18854 -0.08741
 C996 C 0.73528 0.19783 -0.06854
 C997 C 0.71309 0.20079 -0.07300
 C998 C 0.70958 0.21168 -0.08964
 C999 C 0.74053 0.22977 -0.08434
 C1000 C 0.74403 0.21888 -0.06771
 C1001 C 0.72485 0.23038 -0.11799
 C1002 C 0.72178 0.24033 -0.13250
 C1003 C 0.73909 0.18621 -0.05058
 C1004 C 0.74231 0.17691 -0.03567
 H1005 H 0.74561 0.19485 -0.11860
 H1006 H 0.75214 0.17463 -0.08768
 H1007 H 0.70117 0.19486 -0.06389
 H1008 H 0.69467 0.21507 -0.09481
 H1009 H 0.74573 0.24495 -0.08604
 H1010 H 0.75223 0.22475 -0.05515
 C1011 C 0.22929 0.71893 0.39985
 C1012 C 0.24113 0.69981 0.39604
 C1013 C 0.24455 0.68891 0.41270
 C1014 C 0.23578 0.69822 0.43153
 C1015 C 0.21361 0.70120 0.42697
 C1016 C 0.21020 0.71209 0.41031
 C1017 C 0.24115 0.73015 0.41574
 C1018 C 0.24456 0.71926 0.43239
 C1019 C 0.22563 0.73076 0.38200
 C1020 C 0.22262 0.74069 0.36746
 C1021 C 0.23947 0.68658 0.44950
 C1022 C 0.24254 0.67725 0.46440
 H1023 H 0.24631 0.69519 0.38152
 H1024 H 0.25268 0.67498 0.41248
 H1025 H 0.20166 0.69525 0.43601
 H1026 H 0.19531 0.71546 0.40505
 H1027 H 0.24640 0.74531 0.41406
 H1028 H 0.25274 0.72510 0.44498
 C1029 C 0.27068 0.71907 0.60011
 C1030 C 0.25363 0.70404 0.60226
 C1031 C 0.25025 0.69316 0.58556
 C1032 C 0.26426 0.69838 0.56838
 C1033 C 0.28532 0.69586 0.57680
 C1034 C 0.28870 0.70673 0.59349
 C1035 C 0.26514 0.73172 0.58204
 C1036 C 0.26177 0.72085 0.56535
 C1037 C 0.27435 0.73089 0.61798
 C1038 C 0.27740 0.74083 0.63251
 C1039 C 0.26061 0.68674 0.55040
 C1040 C 0.25754 0.67737 0.53549
 H1041 H 0.24494 0.70215 0.61567
 H1042 H 0.23865 0.68196 0.58467
 H1043 H 0.29661 0.68642 0.57020
 H1044 H 0.30286 0.70657 0.60121
 H1045 H 0.26394 0.74781 0.58233
 H1046 H 0.25769 0.72763 0.55135
 C1047 C 0.77158 0.21880 0.09987
 C1048 C 0.78021 0.22816 0.08101
 C1049 C 0.77670 0.21730 0.06435
 C1050 C 0.76491 0.19814 0.06818
 C1051 C 0.74588 0.20490 0.07878
 C1052 C 0.74939 0.21577 0.09545
 C1053 C 0.78041 0.19779 0.10063
 C1054 C 0.77690 0.18691 0.08396
 C1055 C 0.77532 0.23059 0.11773
 C1056 C 0.77835 0.24047 0.13229
 C1057 C 0.76112 0.18652 0.05020
 C1058 C 0.75795 0.17718 0.03531
 H1059 H 0.78837 0.24209 0.08077
 H1060 H 0.78184 0.22193 0.04983
 H1061 H 0.73096 0.20145 0.07367
 H1062 H 0.73749 0.22161 0.10462
 H1063 H 0.78868 0.19196 0.11315
 H1064 H 0.78216 0.17176 0.08219
 C1065 C 0.47933 0.35061 0.53106
 C1066 C 0.47779 0.33131 0.51905
 C1067 C 0.48123 0.31463 0.52995
 C1068 C 0.48589 0.31887 0.55180
 C1069 C 0.46823 0.33124 0.55928
 C1070 C 0.46478 0.34793 0.54837
 C1071 C 0.50009 0.35004 0.54052
 C1072 C 0.50354 0.33335 0.55142
 C1073 C 0.47564 0.36850 0.51922
 C1074 C 0.47268 0.38306 0.50927
 C1075 C 0.48959 0.30085 0.56345
 C1076 C 0.49265 0.28587 0.57277
 H1077 H 0.47434 0.33079 0.50336
 H1078 H 0.48073 0.29982 0.52357
 H1079 H 0.45927 0.32727 0.57205
 H1080 H 0.45288 0.35827 0.55182
 H1081 H 0.51110 0.36173 0.53883
 H1082 H 0.51750 0.33074 0.55906
 C1083 C -0.02027 0.85067 0.03047
 C1084 C -0.00784 0.83496 0.01960
 C1085 C -0.00451 0.81824 0.03048
 C1086 C -0.01393 0.81887 0.05117
 C1087 C -0.03606 0.82314 0.04753
 C1088 C -0.03940 0.83986 0.03665
 C1089 C -0.00906 0.85459 0.04989
 C1090 C -0.00573 0.83786 0.06078
 C1091 C -0.02386 0.86859 0.01863
 C1092 C -0.02678 0.88316 0.00867
 C1093 C -0.01033 0.80081 0.06280
 C1094 C -0.00732 0.78581 0.07211
 H1095 H -0.00213 0.83681 0.00468
 H1096 H 0.00404 0.80578 0.02486
 H1097 H -0.04807 0.81386 0.05303
 H1098 H -0.05425 0.84491 0.03284
 H1099 H -0.00417 0.86921 0.05466
 H1100 H 0.00202 0.83815 0.07488
 C1101 C 0.02099 0.64972 0.03014
 C1102 C 0.02924 0.64857 0.05130
 C1103 C 0.02576 0.66524 0.06224
 C1104 C 0.01435 0.68142 0.05093
 C1105 C -0.00468 0.67119 0.04357
 C1106 C -0.00119 0.65453 0.03264
 C1107 C 0.03019 0.66860 0.02128
 C1108 C 0.02670 0.68526 0.03220
 C1109 C 0.02471 0.63185 0.01827
 C1110 C 0.02769 0.61731 0.00828
 C1111 C 0.01058 0.69942 0.06262
 C1112 C 0.00745 0.71436 0.07198
 H1113 H 0.03713 0.63579 0.05718
 H1114 H 0.03066 0.66675 0.07748
 H1115 H -0.01959 0.67656 0.04666
 H1116 H -0.01311 0.64561 0.02640
 H1117 H 0.03872 0.66886 0.00763
 H1118 H 0.03224 0.69979 0.02790
 C1119 C 0.52092 0.14986 0.53066
 C1120 C 0.52917 0.14868 0.55183
 C1121 C 0.52563 0.16531 0.56280
 C1122 C 0.51419 0.18149 0.55154
 C1123 C 0.49518 0.17123 0.54414
 C1124 C 0.49872 0.15460 0.53317
 C1125 C 0.53006 0.16879 0.52185
 C1126 C 0.52653 0.18542 0.53282
 C1127 C 0.52469 0.13205 0.51872
 C1128 C 0.52771 0.11756 0.50867
 C1129 C 0.51039 0.19946 0.56326
 C1130 C 0.50729 0.21439 0.57263
 H1131 H 0.53704 0.13588 0.55769
 H1132 H 0.53047 0.16677 0.57807
 H1133 H 0.48026 0.17653 0.54728
 H1134 H 0.48683 0.14565 0.52692
 H1135 H 0.53858 0.16911 0.50819
 H1136 H 0.53200 0.19997 0.52853
 C1137 C -0.02077 0.14975 0.46945
 C1138 C -0.02971 0.16865 0.47855
 C1139 C -0.02634 0.18532 0.46762
 C1140 C -0.01434 0.18149 0.44867
 C1141 C -0.02603 0.16540 0.43750
 C1142 C -0.02940 0.14871 0.44843
 C1143 C 0.00139 0.15447 0.46658
 C1144 C 0.00477 0.17115 0.45565
 C1145 C -0.02444 0.13186 0.48128
 C1146 C -0.02745 0.11729 0.49121
 C1147 C -0.01068 0.19953 0.43700
 C1148 C -0.00764 0.21449 0.42766
 H1149 H -0.03798 0.16889 0.49236
 H1150 H -0.03178 0.19985 0.47205
 H1151 H -0.03120 0.16697 0.42236
 H1152 H -0.03744 0.13597 0.44265
 H1153 H 0.01337 0.14548 0.47258
 H1154 H 0.01965 0.17643 0.45226
 C1155 C 0.47911 0.64977 0.96988
 C1156 C 0.46419 0.65269 0.95292
 C1157 C 0.46762 0.66935 0.94196
 C1158 C 0.48563 0.68145 0.94903
 C1159 C 0.50308 0.66673 0.94899
 C1160 C 0.49964 0.65007 0.95994
 C1161 C 0.47814 0.66908 0.98194
 C1162 C 0.48157 0.68572 0.97099
 C1163 C 0.47542 0.63192 0.98178
 C1164 C 0.47244 0.61740 0.99178
 C1165 C 0.48933 0.69946 0.93733
 C1166 C 0.49241 0.71440 0.92796
 H1167 H 0.45201 0.64255 0.94979
 H1168 H 0.45837 0.67349 0.92945
 H1169 H 0.51691 0.66917 0.94105
 H1170 H 0.51052 0.63824 0.96139
 H1171 H 0.47505 0.66961 0.99771
 H1172 H 0.48141 0.70053 0.97739
 C1173 C 0.52042 0.85059 0.96975
 C1174 C 0.51149 0.83340 0.98175
 C1175 C 0.50810 0.81671 0.97083
 C1176 C 0.51396 0.81885 0.94896
 C1177 C 0.53587 0.82529 0.94928
 C1178 C 0.53926 0.84197 0.96022
 C1179 C 0.50590 0.85383 0.95251
 C1180 C 0.50251 0.83714 0.94157
 C1181 C 0.52413 0.86848 0.98159
 C1182 C 0.52719 0.88304 0.99153
 C1183 C 0.51028 0.80082 0.93728
 C1184 C 0.50721 0.78586 0.92793
 H1185 H 0.50814 0.83424 0.99746
 H1186 H 0.50188 0.80326 0.97719
 H1187 H 0.54767 0.81746 0.94158
 H1188 H 0.55397 0.84843 0.96189
 H1189 H 0.49893 0.86799 0.94917
 H1190 H 0.49267 0.83701 0.92883
 C1191 C 0.02038 0.35079 0.46919
 C1192 C 0.02632 0.35291 0.44734
 C1193 C 0.02290 0.33622 0.43641
 C1194 C 0.01387 0.31906 0.44840
 C1195 C -0.00497 0.32776 0.45789
 C1196 C -0.00155 0.34444 0.46881
 C1197 C 0.03174 0.33248 0.47662
 C1198 C 0.02832 0.31580 0.46570
 C1199 C 0.02409 0.36867 0.48105
 C1200 C 0.02712 0.38321 0.49104
 C1201 C 0.01016 0.30101 0.43677
 C1202 C 0.00706 0.28601 0.42749
 H1203 H 0.03262 0.36634 0.44102
 H1204 H 0.02629 0.33534 0.42072
 H1205 H -0.01971 0.32140 0.45613
 H1206 H -0.01335 0.35236 0.47643
 H1207 H 0.04160 0.33260 0.48936
 H1208 H 0.03529 0.30165 0.46906
 C1209 C 0.35059 0.52982 0.47909
 C1210 C 0.34858 0.54809 0.46563
 C1211 C 0.33182 0.55893 0.46910
 C1212 C 0.31873 0.55044 0.48569
 C1213 C 0.33252 0.54886 0.50374
 C1214 C 0.34928 0.53802 0.50027
 C1215 C 0.33127 0.51805 0.47608
 C1216 C 0.31452 0.52888 0.47955
 C1217 C 0.36857 0.51807 0.47538
 C1218 C 0.38324 0.50826 0.47235
 C1219 C 0.30066 0.56203 0.48943
 C1220 C 0.28568 0.57135 0.49253
 H1221 H 0.35941 0.55220 0.45443
 H1222 H 0.32828 0.57234 0.46089
 H1223 H 0.32945 0.55575 0.51795
 H1224 H 0.36058 0.53563 0.51150
 H1225 H 0.33079 0.50256 0.47158
 H1226 H 0.29969 0.52267 0.47804
 C1227 C 0.85086 0.02964 -0.02136
 C1228 C 0.83273 0.01693 -0.01584
 C1229 C 0.81600 0.02777 -0.01229
 C1230 C 0.81903 0.05026 -0.01462
 C1231 C 0.82736 0.05296 -0.03561
 C1232 C 0.84410 0.04211 -0.03916
 C1233 C 0.85313 0.04456 -0.00430
 C1234 C 0.83638 0.05540 -0.00076
 C1235 C 0.86881 0.01790 -0.02512
 C1236 C 0.88349 0.00812 -0.02817
 C1237 C 0.80097 0.06183 -0.01079
 C1238 C 0.78599 0.07112 -0.00760
 H1239 H 0.83301 0.00083 -0.01482
 H1240 H 0.80194 0.02094 -0.00822
 H1241 H 0.82073 0.06259 -0.04668
 H1242 H 0.85182 0.04245 -0.05327
 H1243 H 0.86671 0.04648 0.00418
 H1244 H 0.83562 0.06661 0.01078
 C1245 C 0.64964 0.02974 0.02140
 C1246 C 0.64543 0.05137 0.01554
 C1247 C 0.66220 0.06219 0.01194
 C1248 C 0.68151 0.05031 0.01459
 C1249 C 0.67922 0.03219 0.00098
 C1250 C 0.66247 0.02138 0.00456
 C1251 C 0.66368 0.03111 0.03928
 C1252 C 0.68044 0.04192 0.03570
 C1253 C 0.63170 0.01795 0.02519
 C1254 C 0.61708 0.00806 0.02826
 C1255 C 0.69959 0.06186 0.01074
 C1256 C 0.71459 0.07114 0.00758
 H1257 H 0.63060 0.05763 0.01430
 H1258 H 0.66174 0.07771 0.00757
 H1259 H 0.68982 0.02819 -0.01049
 H1260 H 0.65871 0.00813 -0.00382
 H1261 H 0.66072 0.02420 0.05351
 H1262 H 0.69186 0.04422 0.04683
 C1263 C 0.14945 0.52988 0.52112
 C1264 C 0.15766 0.54029 0.53963
 C1265 C 0.17440 0.55116 0.53612
 C1266 C 0.18126 0.55056 0.51445
 C1267 C 0.16317 0.55742 0.50239
 C1268 C 0.14643 0.54655 0.50590
 C1269 C 0.16686 0.51753 0.51310
 C1270 C 0.18358 0.52840 0.50959
 C1271 C 0.13154 0.51808 0.52485
 C1272 C 0.11692 0.50820 0.52792
 C1273 C 0.19930 0.56216 0.51069
 C1274 C 0.21429 0.57145 0.50758
 H1275 H 0.15092 0.53923 0.55420
 H1276 H 0.18201 0.55941 0.54768
 H1277 H 0.16348 0.56972 0.49199
 H1278 H 0.13239 0.54955 0.49855
 H1279 H 0.16610 0.50164 0.51041
 H1280 H 0.19716 0.52182 0.50386
 C1281 C 0.14961 0.47033 -0.02153
 C1282 C 0.15298 0.46581 0.00049
 C1283 C 0.16967 0.45489 0.00406
 C1284 C 0.18134 0.44957 -0.01474
 C1285 C 0.18553 0.46953 -0.02491
 C1286 C 0.16885 0.48045 -0.02848
 C1287 C 0.14956 0.44996 -0.03178
 C1288 C 0.16625 0.43904 -0.02821
 C1289 C 0.13172 0.48214 -0.02533
 C1290 C 0.11710 0.49200 -0.02842
 C1291 C 0.19934 0.43790 -0.01090
 C1292 C 0.21427 0.42854 -0.00771
 H1293 H 0.14311 0.47072 0.01223
 H1294 H 0.17410 0.45047 0.01887
 H1295 H 0.20029 0.47464 -0.02898
 H1296 H 0.16932 0.49489 -0.03562
 H1297 H 0.13749 0.44460 -0.04103
 H1298 H 0.16848 0.42432 -0.03440
 C1299 C 0.64963 0.97066 0.47885
 C1300 C 0.66034 0.96387 0.45995
 C1301 C 0.67703 0.95296 0.46350
 C1302 C 0.68137 0.94991 0.48560
 C1303 C 0.66235 0.94059 0.49409
 C1304 C 0.64565 0.95150 0.49054
 C1305 C 0.66547 0.98183 0.49087
 C1306 C 0.68215 0.97092 0.49442
 C1307 C 0.63174 0.98249 0.47504
 C1308 C 0.61712 0.99236 0.47191
 C1309 C 0.69938 0.93827 0.48940
 C1310 C 0.71434 0.92894 0.49253
 H1311 H 0.65519 0.96723 0.44508
 H1312 H 0.68618 0.94696 0.45168
 H1313 H 0.66204 0.92664 0.50216
 H1314 H 0.63102 0.94690 0.49556
 H1315 H 0.66369 0.99695 0.49620
 H1316 H 0.69467 0.97670 0.50281
 C1317 C 0.85051 0.97046 0.52129
 C1318 C 0.83479 0.97219 0.53767
 C1319 C 0.81807 0.96132 0.53409
 C1320 C 0.81873 0.94979 0.51449
 C1321 C 0.83775 0.93722 0.51561
 C1322 C 0.85447 0.94810 0.51919
 C1323 C 0.83969 0.97640 0.50218
 C1324 C 0.82297 0.96553 0.49861
 C1325 C 0.86843 0.98227 0.52504
 C1326 C 0.88306 0.99215 0.52807
 C1327 C 0.80070 0.93817 0.51067
 C1328 C 0.78573 0.92886 0.50754
 H1329 H 0.83661 0.98116 0.55091
 H1330 H 0.80553 0.96104 0.54423
 H1331 H 0.83805 0.92120 0.51370
 H1332 H 0.86911 0.94139 0.52043
 H1333 H 0.84470 0.98814 0.49235
 H1334 H 0.81366 0.96796 0.48570
 C1335 C 0.35042 0.47031 0.02117
 C1336 C 0.34984 0.46104 0.00042
 C1337 C 0.33313 0.45012 -0.00313
 C1338 C 0.31865 0.44955 0.01444
 C1339 C 0.31440 0.47143 0.01929
 C1340 C 0.33109 0.48234 0.02283
 C1341 C 0.34773 0.45280 0.03548
 C1342 C 0.33103 0.44188 0.03194
 C1343 C 0.36832 0.48215 0.02500
 C1344 C 0.38292 0.49205 0.02817
 C1345 C 0.30062 0.43790 0.01065
 C1346 C 0.28565 0.42855 0.00752
 H1347 H 0.36154 0.46285 -0.01052
 H1348 H 0.33051 0.44259 -0.01711
 H1349 H 0.29957 0.47780 0.01988
 H1350 H 0.33058 0.49805 0.02646
 H1351 H 0.35806 0.44926 0.04732
 H1352 H 0.32704 0.42898 0.04074
 C1353 C 0.53097 0.47828 0.35023
 C1354 C 0.52049 0.49185 0.33525
 C1355 C 0.53138 0.49537 0.31862
 C1356 C 0.55171 0.48498 0.31858
 C1357 C 0.54704 0.46290 0.32195
 C1358 C 0.53614 0.45938 0.33860
 C1359 C 0.55104 0.48837 0.35435
 C1360 C 0.56194 0.49190 0.33770
 C1361 C 0.51916 0.47452 0.36809
 C1362 C 0.50926 0.47150 0.38265
 C1363 C 0.56338 0.48877 0.30063
 C1364 C 0.57276 0.49194 0.28575
 H1365 H 0.50578 0.49813 0.33752
 H1366 H 0.52601 0.50467 0.30662
 H1367 H 0.55182 0.45108 0.31210
 H1368 H 0.53160 0.44454 0.34302
 H1369 H 0.55621 0.49242 0.36904
 H1370 H 0.57645 0.49898 0.33813
 C1371 C 0.03132 -0.02139 0.84973
 C1372 C 0.05153 -0.03200 0.84965
 C1373 C 0.06246 -0.02852 0.83301
 C1374 C 0.05210 -0.01477 0.81809
 C1375 C 0.04713 0.00413 0.82982
 C1376 C 0.03621 0.00064 0.84646
 C1377 C 0.02100 -0.02812 0.83059
 C1378 C 0.03192 -0.02463 0.81396
 C1379 C 0.01948 -0.02513 0.86757
 C1380 C 0.00957 -0.02816 0.88212
 C1381 C 0.06381 -0.01101 0.80015
 C1382 C 0.07322 -0.00788 0.78529
 H1383 H 0.05681 -0.04140 0.86161
 H1384 H 0.07709 -0.03493 0.83070
 H1385 H 0.05177 0.01895 0.82545
 H1386 H 0.03152 0.01247 0.85636
 H1387 H 0.00640 -0.03501 0.83015
 H1388 H 0.02665 -0.02852 0.79926
 C1389 C 0.03133 0.02131 0.64984
 C1390 C 0.05058 0.00971 0.64590
 C1391 C 0.06149 0.00615 0.66253
 C1392 C 0.05209 0.01454 0.68148
 C1393 C 0.03110 0.00558 0.68217
 C1394 C 0.02019 0.00913 0.66553
 C1395 C 0.03798 0.04028 0.66061
 C1396 C 0.04889 0.03672 0.67724
 C1397 C 0.01950 0.02513 0.63199
 C1398 C 0.00960 0.02822 0.61743
 C1399 C 0.06382 0.01070 0.69941
 C1400 C 0.07324 0.00749 0.71426
 H1401 H 0.05521 0.00469 0.63133
 H1402 H 0.07547 -0.00193 0.66221
 H1403 H 0.02528 -0.00279 0.69463
 H1404 H 0.00505 0.00379 0.66374
 H1405 H 0.03437 0.05519 0.65563
 H1406 H 0.05459 0.04859 0.68654
 C1407 C 0.53116 0.52101 0.15014
 C1408 C 0.54902 0.50723 0.14668
 C1409 C 0.55990 0.50368 0.16335
 C1410 C 0.55184 0.51427 0.18182
 C1411 C 0.53006 0.50759 0.18345
 C1412 C 0.51919 0.51114 0.16680
 C1413 C 0.53998 0.53987 0.15945
 C1414 C 0.55085 0.53633 0.17611
 C1415 C 0.51936 0.52483 0.13228
 C1416 C 0.50945 0.52794 0.11773
 C1417 C 0.56347 0.51045 0.19980
 C1418 C 0.57281 0.50727 0.21470
 H1419 H 0.55280 0.50084 0.13241
 H1420 H 0.57299 0.49424 0.16336
 H1421 H 0.52372 0.50071 0.19655
 H1422 H 0.50355 0.50729 0.16563
 H1423 H 0.53786 0.55470 0.15349
 H1424 H 0.55803 0.54812 0.18444
 C1425 C 0.46888 -0.02119 0.15029
 C1426 C 0.46369 -0.04012 0.16187
 C1427 C 0.45274 -0.03665 0.17849
 C1428 C 0.44804 -0.01460 0.18191
 C1429 C 0.43785 -0.00766 0.16278
 C1430 C 0.44881 -0.01113 0.14615
 C1431 C 0.47931 -0.00763 0.16534
 C1432 C 0.46836 -0.00416 0.18196
 C1433 C 0.48076 -0.02490 0.13244
 C1434 C 0.49068 -0.02792 0.11788
 C1435 C 0.43634 -0.01085 0.19986
 C1436 C 0.42697 -0.00773 0.21475
 H1437 H 0.46819 -0.05495 0.15738
 H1438 H 0.44785 -0.04851 0.18825
 H1439 H 0.42330 -0.00069 0.16234
 H1440 H 0.44363 -0.00714 0.13146
 H1441 H 0.49401 -0.00131 0.16314
 H1442 H 0.47368 0.00513 0.19399
 C1443 C 0.96901 0.47879 0.65000
 C1444 C 0.95690 0.46071 0.65684
 C1445 C 0.94596 0.46413 0.67348
 C1446 C 0.94819 0.48531 0.68164
 C1447 C 0.94279 0.49900 0.66427
 C1448 C 0.95374 0.49557 0.64764
 C1449 C 0.98159 0.48473 0.66802
 C1450 C 0.97065 0.48816 0.68465
 C1451 C 0.98084 0.47510 0.63212
 C1452 C 0.99071 0.47210 0.61753
 C1453 C 0.93643 0.48903 0.69956
 C1454 C 0.92699 0.49215 0.71442
 H1455 H 0.95696 0.44645 0.64931
 H1456 H 0.93667 0.45280 0.68022
 H1457 H 0.93142 0.51043 0.66501
 H1458 H 0.95173 0.50405 0.63411
 H1459 H 0.99768 0.48612 0.66774
 H1460 H 0.97737 0.49247 0.69863
 C1461 C 0.96880 0.52096 0.84996
 C1462 C 0.97924 0.52736 0.83079
 C1463 C 0.96833 0.52380 0.81416
 C1464 C 0.94804 0.51418 0.81833
 C1465 C 0.93778 0.52820 0.83307
 C1466 C 0.94869 0.53176 0.84971
 C1467 C 0.96371 0.49893 0.84691
 C1468 C 0.95280 0.49537 0.83027
 C1469 C 0.98062 0.52477 0.86781
 C1470 C 0.99052 0.52785 0.88236
 C1471 C 0.93635 0.51036 0.80039
 C1472 C 0.92696 0.50722 0.78551
 H1473 H 0.99392 0.53409 0.83032
 H1474 H 0.97369 0.52745 0.79944
 H1475 H 0.92322 0.53474 0.83065
 H1476 H 0.94348 0.54135 0.86155
 H1477 H 0.96827 0.48718 0.85693
 H1478 H 0.94805 0.48054 0.82603
 C1479 C 0.46855 0.02112 0.35042
 C1480 C 0.44834 0.01132 0.35453
 C1481 C 0.43745 0.00779 0.33787
 C1482 C 0.44784 0.01442 0.31874
 C1483 C 0.46803 0.00377 0.31893
 C1484 C 0.47892 0.00729 0.33558
 C1485 C 0.46367 0.03998 0.33861
 C1486 C 0.45278 0.03646 0.32196
 C1487 C 0.48035 0.02490 0.36829
 C1488 C 0.49024 0.02798 0.38285
 C1489 C 0.43618 0.01062 0.30076
 C1490 C 0.42684 0.00746 0.28586
 H1491 H 0.44307 0.00747 0.36923
 H1492 H 0.42285 0.00091 0.33829
 H1493 H 0.47331 -0.00572 0.30704
 H1494 H 0.49352 0.00083 0.33795
 H1495 H 0.46836 0.05480 0.34295
 H1496 H 0.44815 0.04826 0.31202
   
