data_POSCAR
  _audit_creation_date              2014-09-24
  _audit_creation_method            'ToBaCCo'
  _symmetry_space_group_name_H-M    'P1'
  _symmetry_Int_Tables_number       1
  _symmetry_cell_setting            triclinic
  loop_
  _symmetry_equiv_pos_as_xyz
 x,y,z
_cell_length_a 59.4137
_cell_length_b 59.2434
_cell_length_c 59.1041
_cell_angle_alpha 88.295800
_cell_angle_beta 90.523300
_cell_angle_gamma 89.350200
loop_
  _atom_site_label
  _atom_site_type_symbol
  _atom_site_fract_x
  _atom_site_fract_y
  _atom_site_fract_z
C1 C 0.77809 0.64595 1.00446
 C2 C 0.78161 0.62852 0.98606
 C3 C 0.76323 0.61592 0.98157
 C4 C 0.74263 0.62196 0.99572
 C5 C 0.75771 0.65994 0.99572
 C6 C 0.73907 0.64754 0.99094
 C7 C 0.76929 0.63247 1.02485
 C8 C 0.75083 0.61980 1.02057
 H9 H 0.79615 0.62816 0.97519
 H10 H 0.72805 0.61123 0.99176
 H11 H 0.75837 0.67806 0.99313
 H12 H 0.77664 0.63386 1.04157
 C13 C 0.77419 0.34274 0.49825
 C14 C 0.78056 0.36235 0.51349
 C15 C 0.76296 0.37628 0.51847
 C16 C 0.74049 0.36950 0.50761
 C17 C 0.75500 0.33101 0.51099
 C18 C 0.73731 0.34485 0.51580
 C19 C 0.76287 0.35417 0.47751
 C20 C 0.74530 0.36799 0.48225
 H21 H 0.79657 0.36369 0.52209
 H22 H 0.72621 0.38098 0.51141
 H23 H 0.75534 0.31314 0.51543
 H24 H 0.76833 0.35140 0.46036
 C25 C 0.28833 -0.13571 -0.02495
 C26 C 0.29383 -0.12176 -0.00589
 C27 C 0.27518 -0.10948 0.00298
 C28 C 0.25412 -0.11357 -0.00932
 C29 C 0.27013 -0.15027 -0.01683
 C30 C 0.25110 -0.13819 -0.00800
 C31 C 0.27744 -0.12051 -0.04158
 C32 C 0.25872 -0.10784 -0.03323
 H33 H 0.31013 -0.12276 0.00251
 H34 H 0.24020 -0.10359 -0.00248
 H35 H 0.26882 -0.16790 -0.02058
 H36 H 0.28161 -0.12085 -0.05937
 C37 C 0.26994 0.14027 0.49591
 C38 C 0.27203 0.12312 0.47706
 C39 C 0.25285 0.11179 0.47277
 C40 C 0.23297 0.11865 0.48749
 C41 C 0.25013 0.15572 0.48783
 C42 C 0.23071 0.14437 0.48339
 C43 C 0.26079 0.12685 0.51625
 C44 C 0.24144 0.11570 0.51202
 H45 H 0.28672 0.12172 0.46644
 H46 H 0.21759 0.10880 0.48422
 H47 H 0.25187 0.17356 0.48393
 H48 H 0.26818 0.12761 0.53303
 C49 C 0.12725 0.50123 0.27935
 C50 C 0.10790 0.48489 0.28342
 C51 C 0.09559 0.48025 0.26471
 C52 C 0.10385 0.49263 0.24311
 C53 C 0.14115 0.49017 0.26062
 C54 C 0.12900 0.48576 0.24137
 C55 C 0.11652 0.52204 0.26758
 C56 C 0.10439 0.51774 0.24871
 H57 H 0.10563 0.47603 0.29953
 H58 H 0.09317 0.48969 0.22809
 H59 H 0.15862 0.48539 0.26269
 H60 H 0.11916 0.53902 0.27334
 C61 C -0.14207 -0.02692 0.27914
 C62 C -0.12429 -0.00868 0.28303
 C63 C -0.11308 -0.00222 0.26395
 C64 C -0.12051 -0.01472 0.24275
 C65 C -0.15723 -0.01633 0.26031
 C66 C -0.14601 -0.01007 0.24118
 C67 C -0.13000 -0.04517 0.26865
 C68 C -0.11804 -0.03887 0.24849
 H69 H -0.12306 0.00083 0.29833
 H70 H -0.11175 -0.00857 0.22739
 H71 H -0.17513 -0.01345 0.26227
 H72 H -0.12860 -0.06164 0.27695
 C73 C 0.35697 0.48707 0.78880
 C74 C 0.37680 0.50296 0.79226
 C75 C 0.38874 0.50752 0.77320
 C76 C 0.37994 0.49572 0.75218
 C77 C 0.34312 0.49866 0.76943
 C78 C 0.35514 0.50299 0.75030
 C79 C 0.36741 0.46618 0.77818
 C80 C 0.37939 0.47046 0.75901
 H81 H 0.37997 0.51132 0.80802
 H82 H 0.38966 0.49988 0.73670
 H83 H 0.32561 0.50349 0.77043
 H84 H 0.36579 0.44947 0.78585
 C85 C 0.65402 1.00914 0.77261
 C86 C 0.63869 0.98920 0.77845
 C87 C 0.62497 0.98299 0.76120
 C88 C 0.62798 0.99745 0.73935
 C89 C 0.66697 1.00128 0.75171
 C90 C 0.65335 0.99502 0.73425
 C91 C 0.63913 1.02696 0.76404
 C92 C 0.62449 1.02092 0.74588
 H93 H 0.63998 0.97976 0.79440
 H94 H 0.61682 0.99176 0.72564
 H95 H 0.68505 0.99968 0.75096
 H96 H 0.64102 1.04413 0.76945
 C97 C -0.01321 0.29316 -0.14410
 C98 C 0.00635 0.29891 -0.12831
 C99 C 0.01337 0.28155 -0.11439
 C100 C -0.00002 0.25981 -0.11716
 C101 C -0.00507 0.27213 -0.15651
 C102 C 0.00187 0.25469 -0.14248
 C103 C -0.03158 0.28401 -0.12839
 C104 C -0.02491 0.26680 -0.11386
 H105 H 0.01478 0.31504 -0.12908
 H106 H 0.00631 0.24603 -0.10567
 H107 H -0.00612 0.27024 -0.17458
 H108 H -0.04877 0.29005 -0.12996
 C109 C 0.51924 0.27417 0.15486
 C110 C 0.49810 0.27942 0.14059
 C111 C 0.49111 0.26214 0.12775
 C112 C 0.50620 0.24098 0.12994
 C113 C 0.51326 0.25252 0.16854
 C114 C 0.50637 0.23525 0.15551
 C115 C 0.53686 0.26627 0.13797
 C116 C 0.53024 0.24908 0.12470
 H117 H 0.48851 0.29498 0.14195
 H118 H 0.50015 0.22706 0.11940
 H119 H 0.51366 0.25077 0.18676
 H120 H 0.55379 0.27281 0.13790
 C121 C 1.01662 0.78499 0.64061
 C122 C 1.00139 0.78863 0.62128
 C123 C 0.99829 0.76905 0.60793
 C124 C 1.01171 0.74954 0.61632
 C125 C 1.00714 0.76565 0.65303
 C126 C 1.00458 0.74579 0.63985
 C127 C 1.03742 0.77675 0.63096
 C128 C 1.03520 0.75705 0.61766
 H129 H 0.98870 0.80187 0.62070
 H130 H 1.00931 0.73492 0.60554
 H131 H 1.00290 0.76623 0.67078
 H132 H 1.05288 0.78619 0.63210
 C133 C 0.48518 0.77949 0.36202
 C134 C 0.50430 0.78289 0.37914
 C135 C 0.51121 0.76371 0.39052
 C136 C 0.49839 0.74255 0.38372
 C137 C 0.49447 0.76114 0.34660
 C138 C 0.50144 0.74184 0.35789
 C139 C 0.46668 0.76780 0.37566
 C140 C 0.47338 0.74864 0.38719
 H141 H 0.51265 0.79890 0.38100
 H142 H 0.50417 0.72709 0.39321
 H143 H 0.49665 0.76339 0.32858
 H144 H 0.44949 0.77409 0.37568
 C145 C 0.37023 -0.02681 0.27137
 H146 H 0.35686 -0.02083 0.28195
 C147 C 0.38270 -0.04577 0.27851
 H148 H 0.37879 -0.05400 0.29458
 C149 C 0.39061 -0.02432 0.23713
 H150 H 0.39342 -0.01590 0.22093
 C151 C 0.40352 -0.04337 0.24364
 H152 H 0.41648 -0.04941 0.23249
 N153 N 0.37467 -0.01615 0.25123
 C154 C 0.36495 0.05550 0.23425
 H155 H 0.34675 0.05615 0.23396
 C156 C 0.37717 0.07519 0.23046
 H157 H 0.36823 0.09096 0.22697
 C158 C 0.39864 0.03396 0.23877
 H159 H 0.40695 0.01794 0.24233
 C160 C 0.41154 0.05325 0.23492
 H161 H 0.42972 0.05186 0.23550
 Zn162 Zn 0.35730 0.00981 0.24253
 N163 N 0.37577 0.03536 0.23796
 C164 C 0.34832 0.02325 0.28537
 N165 N 0.33764 0.01660 0.26632
 C166 C 0.31486 0.01440 0.26546
 C167 C 0.30202 0.01809 0.28481
 C168 C 0.33627 0.02677 0.30501
 C169 C 0.34613 0.01604 0.19636
 C170 C 0.33821 0.00935 0.17538
 C171 C 0.32090 -0.02287 0.19387
 C172 C 0.32916 -0.01552 0.21460
 N173 N 0.34191 0.00337 0.21539
 H174 H 0.36642 0.02505 0.28545
 H175 H 0.30674 0.00931 0.25001
 H176 H 0.28396 0.01586 0.28425
 H177 H 0.34515 0.03162 0.32017
 H178 H 0.35661 0.03076 0.19719
 H179 H 0.34232 0.01931 0.16035
 H180 H 0.31178 -0.03857 0.19336
 H181 H 0.32640 -0.02552 0.22992
 C182 C 0.40078 0.07418 0.23056
 C183 C 0.39979 -0.05412 0.26475
 C184 C 0.32603 -0.01071 0.17385
 C185 C 0.31291 0.02382 0.30499
 C186 C 0.09945 1.04975 0.78206
 H187 H 0.10768 1.03882 0.79462
 C188 C 0.08852 1.06933 0.78887
 H189 H 0.08882 1.07341 0.80660
 C190 C 0.08967 1.05805 0.74375
 H191 H 0.09026 1.05367 0.72617
 C192 C 0.07857 1.07786 0.74982
 H193 H 0.07052 1.08847 0.73680
 N194 N 0.10020 1.04467 0.75979
 C195 C 0.11030 0.97674 0.73544
 H196 H 0.12851 0.97638 0.73528
 C197 C 0.09831 0.95826 0.72808
 H198 H 0.10738 0.94366 0.72213
 C199 C 0.07639 0.99662 0.74282
 H200 H 0.06804 1.01170 0.74851
 C201 C 0.06367 0.97856 0.73518
 H202 H 0.04547 0.97973 0.73509
 Zn203 Zn 0.11774 1.01937 0.75140
 N204 N 0.09927 0.99532 0.74279
 C205 C 0.13244 0.98924 0.78662
 N206 N 0.13610 1.00981 0.77655
 C207 C 0.15180 1.02398 0.78494
 C208 C 0.16537 1.01713 0.80339
 C209 C 0.14530 0.98190 0.80532
 C210 C 0.12400 1.02804 0.70549
 C211 C 0.13518 1.03349 0.68547
 C212 C 0.16961 1.03680 0.70706
 C213 C 0.15779 1.03096 0.72667
 N214 N 0.13526 1.02717 0.72564
 H215 H 0.11936 0.97851 0.78036
 H216 H 0.15371 1.04069 0.77739
 H217 H 0.17801 1.02842 0.80972
 H218 H 0.14235 0.96536 0.81295
 H219 H 0.10625 1.02421 0.70492
 H220 H 0.12584 1.03370 0.66965
 H221 H 0.18737 1.04043 0.70841
 H222 H 0.16673 1.02959 0.74259
 C223 C 0.07472 0.95906 0.72780
 C224 C 0.07818 1.08386 0.77262
 C225 C 0.15828 1.03825 0.68607
 C226 C 0.16215 0.99581 0.81373
 C227 C 0.59170 0.53280 0.27020
 H228 H 0.58405 0.51672 0.26700
 C229 C 0.57859 0.55057 0.27814
 H230 H 0.56075 0.54812 0.28071
 C231 C 0.62431 0.55548 0.27098
 H232 H 0.64223 0.55709 0.26842
 C233 C 0.61184 0.57367 0.27884
 H234 H 0.62036 0.58924 0.28247
 N235 N 0.61416 0.53551 0.26702
 C236 C 0.60237 0.49120 0.22794
 H237 H 0.60216 0.50772 0.21970
 C238 C 0.59068 0.47356 0.21819
 H239 H 0.58134 0.47684 0.20261
 C240 C 0.61458 0.46700 0.25832
 H241 H 0.62376 0.46445 0.27403
 C242 C 0.60333 0.44885 0.24906
 H243 H 0.60460 0.43244 0.25756
 Zn244 Zn 0.63261 0.51128 0.25798
 N245 N 0.61448 0.48753 0.24736
 C246 C 0.66396 0.48232 0.28173
 N247 N 0.65013 0.50065 0.28344
 C248 C 0.64682 0.51037 0.30375
 C249 C 0.65702 0.50131 0.32340
 C250 C 0.67446 0.47266 0.30100
 C251 C 0.64060 0.53671 0.21855
 C252 C 0.65198 0.54448 0.19936
 C253 C 0.68419 0.52184 0.21135
 C254 C 0.67224 0.51466 0.23049
 N255 N 0.65071 0.52193 0.23359
 H256 H 0.66592 0.47442 0.26560
 H257 H 0.63552 0.52466 0.30500
 H258 H 0.65339 0.50881 0.33947
 H259 H 0.68501 0.45779 0.29934
 H260 H 0.62356 0.54246 0.22141
 H261 H 0.64359 0.55647 0.18787
 H262 H 0.70107 0.51534 0.20891
 H263 H 0.68014 0.50305 0.24258
 C264 C 0.59151 0.45187 0.22847
 C265 C 0.58870 0.57129 0.28273
 C266 C 0.67400 0.53684 0.19533
 C267 C 0.67069 0.48192 0.32228
 C268 C 0.88766 0.50397 0.76702
 H269 H 0.88734 0.52054 0.77414
 C270 C 0.90045 0.48679 0.77762
 H271 H 0.90998 0.49043 0.79276
 C272 C 0.87584 0.47925 0.73861
 H273 H 0.86626 0.47633 0.72340
 C274 C 0.88835 0.46149 0.74877
 H275 H 0.88782 0.44497 0.74144
 N276 N 0.87518 0.49985 0.74823
 C277 C 0.86188 0.56894 0.72521
 H278 H 0.84387 0.56998 0.72760
 C279 C 0.87383 0.58829 0.71913
 H280 H 0.86486 0.60419 0.71663
 C281 C 0.89537 0.54679 0.72535
 H282 H 0.90365 0.53055 0.72781
 C283 C 0.90798 0.56572 0.71913
 H284 H 0.92600 0.56394 0.71708
 Zn285 Zn 0.85551 0.52342 0.73746
 N286 N 0.87276 0.54876 0.72831
 C287 C 0.84775 0.54616 0.77679
 N288 N 0.83756 0.53192 0.76237
 C289 C 0.81738 0.52244 0.76754
 C290 C 0.80727 0.52643 0.78844
 C291 C 0.83843 0.55037 0.79776
 C292 C 0.84069 0.52501 0.69212
 C293 C 0.83146 0.51663 0.67234
 C294 C 0.81620 0.48554 0.69434
 C295 C 0.82565 0.49462 0.71382
 N296 N 0.83819 0.51369 0.71229
 H297 H 0.86378 0.55350 0.77247
 H298 H 0.80953 0.51111 0.75597
 H299 H 0.79169 0.51813 0.79283
 H300 H 0.84727 0.56109 0.80933
 H301 H 0.85073 0.54007 0.69106
 H302 H 0.83421 0.52564 0.65641
 H303 H 0.80744 0.46964 0.69571
 H304 H 0.82421 0.48558 0.72989
 C305 C 0.89721 0.58684 0.71609
 C306 C 0.90042 0.46501 0.76889
 C307 C 0.81968 0.49623 0.67315
 C308 C 0.81831 0.53995 0.80405
 C309 C 0.28292 0.38656 0.00304
 H310 H 0.29030 0.38498 0.01982
 C311 C 0.29364 0.39949 -0.01373
 H312 H 0.30897 0.40821 -0.00955
 C313 C 0.25440 0.37655 -0.02293
 H314 H 0.23947 0.36710 -0.02673
 C315 C 0.26453 0.38928 -0.04017
 H316 H 0.25718 0.38945 -0.05701
 N317 N 0.26358 0.37548 -0.00175
 C318 C 0.22766 0.36386 0.06139
 H319 H 0.22164 0.34708 0.05831
 C320 C 0.21995 0.37525 0.08016
 H321 H 0.20851 0.36683 0.09171
 C322 C 0.24899 0.39553 0.04955
 H323 H 0.25980 0.40369 0.03734
 C324 C 0.24178 0.40753 0.06825
 H325 H 0.24721 0.42475 0.07022
 Zn326 Zn 0.25001 0.35684 0.02104
 N327 N 0.24203 0.37398 0.04657
 C328 C 0.26651 0.32024 0.04891
 N329 N 0.27078 0.33351 0.03030
 C330 C 0.29092 0.33212 0.01959
 C331 C 0.30840 0.31876 0.02881
 C332 C 0.28349 0.30651 0.05864
 C333 C 0.20665 0.36090 0.00444
 C334 C 0.18575 0.35447 -0.00383
 C335 C 0.19808 0.31549 -0.00074
 C336 C 0.21898 0.32274 0.00730
 N337 N 0.22282 0.34515 0.00963
 H338 H 0.25029 0.32106 0.05691
 H339 H 0.29391 0.34222 0.00444
 H340 H 0.32473 0.31929 0.02086
 H341 H 0.28000 0.29680 0.07400
 H342 H 0.21016 0.37860 0.00657
 H343 H 0.17347 0.36748 -0.00843
 H344 H 0.19517 0.29759 -0.00219
 H345 H 0.23205 0.31051 0.01178
 C346 C 0.22692 0.39741 0.08373
 C347 C 0.28445 0.40094 -0.03570
 C348 C 0.18109 0.33149 -0.00642
 C349 C 0.30509 0.30645 0.04915
 C350 C 0.77113 0.08907 1.02802
 H351 H 0.76580 0.08143 1.01252
 C352 C 0.77981 0.07544 1.04582
 H353 H 0.78069 0.05732 1.04400
 C354 C 0.77676 0.12190 1.04921
 H355 H 0.77566 0.14008 1.05027
 C356 C 0.78539 0.10894 1.06743
 H357 H 0.79107 0.11727 1.08248
 N358 N 0.76948 0.11183 1.03016
 C359 C 0.75488 0.11855 0.96065
 H360 H 0.76743 0.13127 0.95747
 C361 C 0.74582 0.10699 0.94250
 H362 H 0.75162 0.11094 0.92555
 C363 C 0.73086 0.09922 0.98626
 H364 H 0.72491 0.09656 1.00337
 C365 C 0.72140 0.08723 0.96864
 H366 H 0.70840 0.07506 0.97242
 Zn367 Zn 0.75783 0.13116 1.00673
 N368 N 0.74737 0.11443 0.98204
 C369 C 0.79980 0.14067 0.98831
 N370 N 0.78145 0.15050 0.99765
 C371 C 0.78055 0.17312 1.00093
 C372 C 0.79826 0.18689 0.99388
 C373 C 0.81771 0.15382 0.98074
 C374 C 0.72347 0.14231 1.03759
 C375 C 0.70419 0.15362 1.04476
 C376 C 0.70427 0.17602 1.00993
 C377 C 0.72336 0.16404 1.00326
 N378 N 0.73275 0.14778 1.01722
 H379 H 0.80026 0.12258 0.98630
 H380 H 0.76621 0.18052 1.00915
 H381 H 0.79725 0.20483 0.99678
 H382 H 0.83164 0.14564 0.97247
 H383 H 0.73072 0.12886 1.04814
 H384 H 0.69705 0.14912 1.06105
 H385 H 0.69700 0.18895 0.99867
 H386 H 0.73072 0.16764 0.98689
 C387 C 0.72874 0.09117 0.94636
 C388 C 0.78685 0.08537 1.06593
 C389 C 0.69441 0.17075 1.03089
 C390 C 0.81707 0.17733 0.98332
 C391 C 0.28359 0.58754 0.52768
 H392 H 0.29253 0.58837 0.51182
 C393 C 0.29326 0.57620 0.54651
 H394 H 0.30973 0.56844 0.54497
 C395 C 0.25188 0.59793 0.54921
 H396 H 0.23599 0.60678 0.55041
 C397 C 0.26080 0.58662 0.56835
 H398 H 0.25126 0.58649 0.58387
 N399 N 0.26333 0.59824 0.52938
 C400 C 0.23158 0.60806 0.46336
 H401 H 0.22806 0.62597 0.46423
 C402 C 0.22351 0.59607 0.44515
 H403 H 0.21376 0.60483 0.43196
 C404 C 0.24841 0.57485 0.47967
 H405 H 0.25790 0.56667 0.49334
 C406 C 0.24091 0.56221 0.46149
 H407 H 0.24455 0.54426 0.46125
 Zn408 Zn 0.25245 0.61576 0.50421
 N409 N 0.24364 0.59735 0.48021
 C410 C 0.28439 0.63243 0.47319
 N411 N 0.27611 0.63477 0.49439
 C412 C 0.28570 0.64914 0.50911
 C413 C 0.30423 0.66207 0.50257
 C414 C 0.30299 0.64479 0.46607
 C415 C 0.20756 0.62066 0.51670
 C416 C 0.18786 0.63160 0.52327
 C417 C 0.20734 0.66713 0.52041
 C418 C 0.22667 0.65549 0.51378
 N419 N 0.22657 0.63261 0.51248
 H420 H 0.27690 0.62061 0.46187
 H421 H 0.27914 0.65029 0.52606
 H422 H 0.31182 0.67328 0.51451
 H423 H 0.30935 0.64267 0.44914
 H424 H 0.20785 0.60250 0.51525
 H425 H 0.17312 0.62169 0.52717
 H426 H 0.20775 0.68533 0.52153
 H427 H 0.24174 0.66477 0.50981
 C428 C 0.22806 0.57285 0.44414
 C429 C 0.28194 0.57586 0.56731
 C430 C 0.18764 0.65513 0.52547
 C431 C 0.31321 0.65975 0.48086
 C432 C 0.76697 0.88888 0.49409
 H433 H 0.76761 0.89473 0.51118
 C434 C 0.77546 0.90254 0.47652
 H435 H 0.78242 0.91881 0.48036
 C436 C 0.75708 0.86085 0.46818
 H437 H 0.74998 0.84451 0.46501
 C438 C 0.76537 0.87391 0.45016
 H439 H 0.76488 0.86723 0.43332
 N440 N 0.75845 0.86821 0.48972
 C441 C 0.72051 0.86382 0.54742
 H442 H 0.70760 0.85473 0.53868
 C443 C 0.71473 0.87592 0.56644
 H444 H 0.69742 0.87598 0.57205
 C445 C 0.75868 0.87423 0.55134
 H446 H 0.77583 0.87337 0.54543
 C447 C 0.75364 0.88646 0.57059
 H448 H 0.76695 0.89524 0.57919
 Zn449 Zn 0.74898 0.84774 0.51310
 N450 N 0.74210 0.86352 0.53993
 C451 C 0.77952 0.82169 0.54075
 N452 N 0.77282 0.82662 0.51905
 C453 C 0.78525 0.81977 0.50123
 C454 C 0.80629 0.80952 0.50485
 C455 C 0.80034 0.81108 0.54514
 C456 C 0.70653 0.84791 0.49387
 C457 C 0.68577 0.83971 0.48708
 C458 C 0.69865 0.80193 0.49747
 C459 C 0.71931 0.81093 0.50421
 N460 N 0.72263 0.83362 0.50262
 H461 H 0.76939 0.82720 0.55469
 H462 H 0.77966 0.82364 0.48414
 H463 H 0.81675 0.80569 0.49052
 H464 H 0.80618 0.80861 0.56246
 H465 H 0.70971 0.86584 0.49267
 H466 H 0.67314 0.85146 0.48034
 H467 H 0.69592 0.78394 0.49933
 H468 H 0.73244 0.79993 0.51117
 C469 C 0.73134 0.88764 0.57815
 C470 C 0.77504 0.89493 0.45424
 C471 C 0.68144 0.81652 0.48920
 C472 C 0.81433 0.80584 0.52701
 C473 C -0.02979 0.23673 0.39976
 H474 H -0.01307 0.23160 0.40524
 C475 C -0.04590 0.24183 0.41595
 H476 H -0.04151 0.24025 0.43376
 C477 C -0.05559 0.24629 0.37010
 H478 H -0.05893 0.24917 0.35222
 C479 C -0.07223 0.25133 0.38569
 H480 H -0.08841 0.25772 0.37962
 N481 N -0.03476 0.23928 0.37729
 C482 C 0.03333 0.23978 0.37270
 H483 H 0.03259 0.25686 0.36576
 C484 C 0.05317 0.23163 0.38308
 H485 H 0.06770 0.24246 0.38375
 C486 C 0.01551 0.20471 0.37979
 H487 H 0.00073 0.19432 0.37832
 C488 C 0.03493 0.19590 0.39026
 H489 H 0.03490 0.17872 0.39706
 Zn490 Zn -0.01149 0.23582 0.35569
 N491 N 0.01512 0.22618 0.37106
 C492 C 0.00923 0.26638 0.32424
 N493 N -0.00650 0.26421 0.34075
 C494 C -0.01776 0.28259 0.34830
 C495 C -0.01315 0.30410 0.33964
 C496 C 0.01473 0.28780 0.31537
 C497 C -0.04000 0.20493 0.33305
 C498 C -0.04423 0.18562 0.32085
 C499 C -0.00459 0.18288 0.31259
 C500 C -0.00119 0.20267 0.32443
 N501 N -0.01870 0.21298 0.33487
 H502 H 0.01820 0.25160 0.31867
 H503 H -0.02979 0.28088 0.36175
 H504 H -0.02238 0.31837 0.34609
 H505 H 0.02808 0.28928 0.30309
 H506 H -0.05368 0.21270 0.34186
 H507 H -0.06113 0.17896 0.32034
 H508 H 0.00964 0.17419 0.30536
 H509 H 0.01567 0.20903 0.32647
 C510 C 0.05421 0.20929 0.39175
 C511 C -0.06733 0.24950 0.40894
 C512 C -0.02631 0.17402 0.31103
 C513 C 0.00377 0.30710 0.32347
 C514 C 1.03735 0.77533 0.06955
 H515 H 1.02194 0.77182 0.06053
 C516 C 1.05532 0.78531 0.05802
 H517 H 1.05367 0.78947 0.04011
 C518 C 1.05850 0.77416 0.10379
 H519 H 1.05959 0.76974 0.12166
 C520 C 1.07697 0.78365 0.09285
 H521 H 1.09222 0.78673 0.10241
 N522 N 1.03926 0.76999 0.09205
 C523 C 0.99163 0.72295 0.08466
 H524 H 1.00392 0.71142 0.09227
 C525 C 0.97381 0.71444 0.07217
 H526 H 0.97251 0.69635 0.07050
 C527 C 0.97785 0.76036 0.07855
 H528 H 0.97940 0.77821 0.08150
 C529 C 0.95961 0.75253 0.06598
 H530 H 0.94734 0.76450 0.05898
 Zn531 Zn 1.01555 0.75563 0.10802
 N532 N 0.99318 0.74551 0.08787
 C533 C 0.98104 0.77130 0.13586
 N534 N 1.00183 0.77625 0.12781
 C535 C 1.01184 0.79615 0.13247
 C536 C 1.00093 0.81192 0.14578
 C537 C 0.96944 0.78666 0.14906
 C538 C 1.04708 0.72073 0.11736
 C539 C 1.05606 0.70148 0.12836
 C540 C 1.02411 0.70114 0.15333
 C541 C 1.01582 0.72059 0.14198
 N542 N 1.02746 0.73010 0.12448
 H543 H 0.97315 0.75564 0.13146
 H544 H 1.02821 0.80000 0.12572
 H545 H 1.00934 0.82751 0.14947
 H546 H 0.95264 0.78260 0.15471
 H547 H 1.05563 0.72793 0.10285
 H548 H 1.07166 0.69424 0.12239
 H549 H 1.01479 0.69388 0.16738
 H550 H 1.00004 0.72799 0.14708
 C551 C 0.95729 0.72924 0.06293
 C552 C 1.07548 0.78932 0.06970
 C553 C 1.04457 0.69147 0.14662
 C554 C 0.97933 0.80738 0.15412
 C555 C 0.51866 0.26555 0.58872
 H556 H 0.50359 0.26255 0.57897
 C557 C 0.53748 0.27473 0.57801
 H558 H 0.53673 0.27858 0.55999
 C559 C 0.53828 0.26349 0.62382
 H560 H 0.53843 0.25897 0.64170
 C561 C 0.55741 0.27266 0.61384
 H562 H 0.57212 0.27547 0.62428
 N563 N 0.51930 0.26046 0.61132
 C564 C 0.46503 0.21855 0.60471
 H565 H 0.47377 0.20556 0.61466
 C566 C 0.44683 0.21270 0.59112
 H567 H 0.44180 0.19520 0.59085
 C568 C 0.46000 0.25720 0.59419
 H569 H 0.46504 0.27456 0.59587
 C570 C 0.44164 0.25209 0.58037
 H571 H 0.43283 0.26560 0.57113
 Zn572 Zn 0.49417 0.24837 0.62667
 N573 N 0.47124 0.24048 0.60603
 C574 C 0.46025 0.26742 0.65284
 N575 N 0.48187 0.27015 0.64603
 C576 C 0.49365 0.28883 0.65139
 C577 C 0.48366 0.30576 0.66392
 C578 C 0.44945 0.28416 0.66503
 C579 C 0.51706 0.20720 0.63237
 C580 C 0.52577 0.18807 0.64386
 C581 C 0.50765 0.20043 0.67785
 C582 C 0.49938 0.21941 0.66571
 N583 N 0.50420 0.22241 0.64339
 H584 H 0.45115 0.25253 0.64815
 H585 H 0.51073 0.29087 0.64575
 H586 H 0.49353 0.32030 0.66819
 H587 H 0.43195 0.28199 0.66941
 H588 H 0.52079 0.21014 0.61466
 H589 H 0.53646 0.17654 0.63487
 H590 H 0.50349 0.19824 0.69557
 H591 H 0.48918 0.23178 0.67414
 C592 C 0.43476 0.22958 0.57884
 C593 C 0.55716 0.27850 0.59064
 C594 C 0.52120 0.18450 0.66697
 C595 C 0.46109 0.30382 0.67055
 C596 C 0.47645 0.77220 0.86076
 H597 H 0.48407 0.78284 0.84794
 C598 C 0.45826 0.78055 0.87283
 H599 H 0.45190 0.79735 0.86860
 C600 C 0.47500 0.73730 0.88122
 H601 H 0.48167 0.72041 0.88433
 C602 C 0.45700 0.74512 0.89402
 H603 H 0.45015 0.73420 0.90718
 N604 N 0.48427 0.75081 0.86490
 C605 C 0.53546 0.70289 0.86785
 H606 H 0.52849 0.69265 0.85479
 C607 C 0.55176 0.69352 0.88262
 H608 H 0.55750 0.67632 0.88043
 C609 C 0.53673 0.73763 0.88662
 H610 H 0.53074 0.75483 0.88806
 C611 C 0.55324 0.72904 0.90158
 H612 H 0.55994 0.73970 0.91454
 Zn613 Zn 0.50865 0.73894 0.84822
 N614 N 0.52889 0.72485 0.86956
 C615 C 0.54408 0.76933 0.83892
 N616 N 0.52332 0.76278 0.83200
 C617 C 0.51209 0.77431 0.81501
 C618 C 0.52069 0.79455 0.80601
 C619 C 0.55313 0.78948 0.83061
 C620 C 0.47523 0.71355 0.82693
 C621 C 0.46684 0.69634 0.81378
 C622 C 0.50472 0.68826 0.80157
 C623 C 0.51234 0.70602 0.81458
 N624 N 0.49771 0.71762 0.82763
 H625 H 0.55328 0.75961 0.85170
 H626 H 0.49578 0.76856 0.80949
 H627 H 0.51092 0.80439 0.79361
 H628 H 0.56904 0.79519 0.83733
 H629 H 0.46381 0.72320 0.83707
 H630 H 0.44902 0.69270 0.81412
 H631 H 0.51663 0.67839 0.79211
 H632 H 0.53009 0.70988 0.81514
 C633 C 0.56127 0.70687 0.89933
 C634 C 0.44827 0.76702 0.88982
 C635 C 0.48174 0.68309 0.80141
 C636 C 0.54098 0.80275 0.81462
 C637 C 0.46325 -0.15983 0.35607
 C638 C 0.45969 -0.15643 0.33251
 C639 C 0.46429 -0.17481 0.31840
 C640 C 0.47272 -0.19543 0.32761
 C641 C 0.47674 -0.19834 0.35100
 C642 C 0.47145 -0.18036 0.36501
 C643 C 0.46015 -0.17269 0.29516
 C644 C 0.45105 -0.15289 0.28559
 C645 C 0.44597 -0.13413 0.29891
 C646 C 0.45107 -0.13569 0.32264
 C647 C 0.44740 -0.11648 0.33574
 C648 C 0.43782 -0.09688 0.32639
 C649 C 0.43153 -0.09554 0.30364
 C650 C 0.43577 -0.11391 0.28939
 C651 C 0.42909 -0.11136 0.26633
 C652 C 0.41807 -0.09173 0.25818
 C653 C 0.41335 -0.07404 0.27264
 C654 C 0.42063 -0.07590 0.29522
 H655 H 0.45936 -0.14722 0.36822
 H656 H 0.47545 -0.20919 0.31636
 H657 H 0.47354 -0.18229 0.38320
 H658 H 0.46370 -0.18664 0.28423
 H659 H 0.44827 -0.15284 0.26757
 H660 H 0.45188 -0.11591 0.35340
 H661 H 0.43500 -0.08270 0.33723
 H662 H 0.43158 -0.12436 0.25424
 H663 H 0.41254 -0.09072 0.24066
 H664 H 0.41745 -0.06207 0.30642
 C665 C 0.97233 0.33444 0.80595
 C666 C 0.96200 0.35268 0.81704
 C667 C 0.96082 0.35114 0.84096
 C668 C 0.96924 0.33205 0.85296
 C669 C 0.97875 0.31374 0.84176
 C670 C 0.98057 0.31544 0.81809
 C671 C 0.95108 0.36857 0.85291
 C672 C 0.94195 0.38745 0.84168
 C673 C 0.94215 0.38971 0.81783
 C674 C 0.95271 0.37223 0.80529
 C675 C 0.95348 0.37484 0.78148
 C676 C 0.94398 0.39358 0.77023
 C677 C 0.93315 0.41044 0.78212
 C678 C 0.93208 0.40883 0.80608
 C679 C 0.92061 0.42632 0.81724
 C680 C 0.91070 0.44442 0.80512
 C681 C 0.91182 0.44594 0.78147
 C682 C 0.92318 0.42887 0.77008
 H683 H 0.97427 0.33419 0.78788
 H684 H 0.96814 0.33123 0.87128
 H685 H 0.98843 0.30232 0.80856
 H686 H 0.95033 0.36755 0.87124
 H687 H 0.93486 0.40003 0.85237
 H688 H 0.96133 0.36263 0.77088
 H689 H 0.94493 0.39475 0.75192
 H690 H 0.91859 0.42646 0.83531
 H691 H 0.90162 0.45707 0.81438
 H692 H 0.92433 0.42993 0.75178
 C693 C 0.01182 1.19172 0.85304
 C694 C 0.02401 1.19013 0.83265
 C695 C 0.02881 1.21054 0.82060
 C696 C 0.02173 1.23145 0.82881
 C697 C 0.00966 1.23263 0.84902
 C698 C 0.00483 1.21258 0.86095
 C699 C 0.04068 1.21006 0.80040
 C700 C 0.04798 1.18976 0.79175
 C701 C 0.04375 1.16891 0.80305
 C702 C 0.03160 1.16910 0.82389
 C703 C 0.02761 1.14828 0.83534
 C704 C 0.03543 1.12804 0.82703
 C705 C 0.04742 1.12757 0.80692
 C706 C 0.05154 1.14789 0.79441
 C707 C 0.06347 1.14622 0.77385
 C708 C 0.07154 1.12544 0.76661
 C709 C 0.06798 1.10559 0.77945
 C710 C 0.05557 1.10678 0.79942
 H711 H 0.00719 1.17722 0.86329
 H712 H 0.02586 1.24688 0.81952
 H713 H -0.00484 1.21285 0.87629
 H714 H 0.04441 1.22561 0.79113
 H715 H 0.05712 1.19108 0.77614
 H716 H 0.01862 1.14695 0.85103
 H717 H 0.03214 1.11254 0.83658
 H718 H 0.06709 1.16060 0.76300
 H719 H 0.08120 1.12504 0.75117
 H720 H 0.05235 1.09143 0.80926
 C721 C 0.53808 0.70927 0.31764
 C722 C 0.53483 0.68653 0.32489
 C723 C 0.52017 0.68254 0.34334
 C724 C 0.50951 0.70059 0.35398
 C725 C 0.51282 0.72291 0.34651
 C726 C 0.52725 0.72704 0.32828
 C727 C 0.51615 0.66056 0.35116
 C728 C 0.52635 0.64226 0.34114
 C729 C 0.54122 0.64519 0.32280
 C730 C 0.54561 0.66771 0.31459
 C731 C 0.56076 0.67066 0.29649
 C732 C 0.57146 0.65240 0.28690
 C733 C 0.56744 0.63042 0.29472
 C734 C 0.55207 0.62638 0.31256
 C735 C 0.54835 0.60360 0.31944
 C736 C 0.55989 0.58587 0.30946
 C737 C 0.57548 0.59009 0.29228
 C738 C 0.57895 0.61244 0.28483
 H739 H 0.54888 0.71404 0.30382
 H740 H 0.49833 0.69712 0.36791
 H741 H 0.53055 0.74415 0.32239
 H742 H 0.50495 0.65743 0.36527
 H743 H 0.52233 0.62596 0.34843
 H744 H 0.56497 0.68698 0.28936
 H745 H 0.58312 0.65557 0.27319
 H746 H 0.53675 0.59880 0.33256
 H747 H 0.55698 0.56877 0.31565
 H748 H 0.59069 0.61585 0.27124
 C749 C 0.53398 0.31551 0.20191
 C750 C 0.54070 0.33493 0.18925
 C751 C 0.54051 0.33367 0.16535
 C752 C 0.53347 0.31401 0.15486
 C753 C 0.52688 0.29485 0.16755
 C754 C 0.52720 0.29592 0.19126
 C755 C 0.54735 0.35201 0.15194
 C756 C 0.55492 0.37157 0.16166
 C757 C 0.55572 0.37371 0.18538
 C758 C 0.54781 0.35537 0.19940
 C759 C 0.54712 0.35816 0.22303
 C760 C 0.55451 0.37784 0.23273
 C761 C 0.56323 0.39541 0.21942
 C762 C 0.56407 0.39364 0.19557
 C763 C 0.57369 0.41175 0.18298
 C764 C 0.58212 0.43060 0.19366
 C765 C 0.58119 0.43229 0.21722
 C766 C 0.57144 0.41466 0.22995
 H767 H 0.53401 0.31473 0.22013
 H768 H 0.53318 0.31353 0.13652
 H769 H 0.52215 0.28187 0.20196
 H770 H 0.54704 0.35119 0.13363
 H771 H 0.55974 0.38489 0.14997
 H772 H 0.54068 0.34549 0.23461
 H773 H 0.55368 0.37916 0.25096
 H774 H 0.57561 0.41167 0.16489
 H775 H 0.59002 0.44363 0.18336
 H776 H 0.57036 0.41581 0.24818
 C777 C 0.03951 0.81919 0.68813
 C778 C 0.03390 0.84169 0.68144
 C779 C 0.02094 0.84506 0.66137
 C780 C 0.01493 0.82673 0.64812
 C781 C 0.02083 0.80431 0.65472
 C782 C 0.03326 0.80108 0.67501
 C783 C 0.01442 0.86682 0.65422
 C784 C 0.02079 0.88547 0.66629
 C785 C 0.03443 0.88317 0.68592
 C786 C 0.04120 0.86091 0.69357
 C787 C 0.05574 0.85868 0.71257
 C788 C 0.06407 0.87744 0.72320
 C789 C 0.05787 0.89917 0.71578
 C790 C 0.04234 0.90244 0.69759
 C791 C 0.03581 0.92495 0.69160
 C792 C 0.04557 0.94328 0.70215
 C793 C 0.06205 0.93982 0.71896
 C794 C 0.06766 0.91772 0.72613
 H795 H 0.04887 0.81487 0.70335
 H796 H 0.00636 0.83048 0.63223
 H797 H 0.03868 0.78427 0.68057
 H798 H 0.00439 0.86953 0.63894
 H799 H 0.01531 0.90160 0.65927
 H800 H 0.06171 0.84261 0.71929
 H801 H 0.07574 0.87487 0.73728
 H802 H 0.02338 0.92905 0.67871
 H803 H 0.04086 0.96026 0.69650
 H804 H 0.08008 0.91499 0.73953
 C805 C 0.98902 0.68488 0.64555
 C806 C 0.97399 0.68473 0.66398
 C807 C 0.97006 0.70545 0.67470
 C808 C 0.98067 0.72532 0.66711
 C809 C 0.99507 0.72541 0.64832
 C810 C 0.99925 0.70475 0.63794
 C811 C 0.95522 0.70644 0.69278
 C812 C 0.94374 0.68741 0.70024
 C813 C 0.94672 0.66639 0.68995
 C814 C 0.96254 0.66488 0.67190
 C815 C 0.96631 0.64362 0.66233
 C816 C 0.95471 0.62462 0.66968
 C817 C 0.93872 0.62595 0.68669
 C818 C 0.93440 0.64682 0.69710
 C819 C 0.91762 0.64721 0.71398
 C820 C 0.90578 0.62779 0.72011
 C821 C 0.91021 0.60728 0.70978
 C822 C 0.92683 0.60647 0.69316
 H823 H 0.99319 0.66998 0.63641
 H824 H 0.97654 0.74090 0.67529
 H825 H 1.01105 0.70343 0.62422
 H826 H 0.95225 0.72221 0.70117
 H827 H 0.93268 0.68981 0.71431
 H828 H 0.97828 0.64094 0.64910
 H829 H 0.95816 0.60869 0.66175
 H830 H 0.91295 0.66227 0.72264
 H831 H 0.89315 0.62882 0.73314
 H832 H 0.93015 0.59073 0.68484
 C833 C 0.49383 0.17322 0.16409
 C834 C 0.47772 0.17317 0.18162
 C835 C 0.47181 0.19425 0.19084
 C836 C 0.48175 0.21429 0.18278
 C837 C 0.49733 0.21395 0.16516
 C838 C 0.50332 0.19329 0.15604
 C839 C 0.45572 0.19531 0.20778
 C840 C 0.44476 0.17602 0.21542
 C841 C 0.44964 0.15466 0.20652
 C842 C 0.46694 0.15310 0.18990
 C843 C 0.47282 0.13156 0.18205
 C844 C 0.46161 0.11232 0.18938
 C845 C 0.44400 0.11368 0.20468
 C846 C 0.43774 0.13480 0.21359
 C847 C 0.41944 0.13515 0.22880
 C848 C 0.40781 0.11548 0.23453
 C849 C 0.41401 0.09477 0.22549
 C850 C 0.43233 0.09398 0.21079
 H851 H 0.49919 0.15815 0.15584
 H852 H 0.47677 0.23033 0.18970
 H853 H 0.51552 0.19257 0.14268
 H854 H 0.45128 0.21135 0.21502
 H855 H 0.43256 0.17847 0.22850
 H856 H 0.48619 0.12886 0.17023
 H857 H 0.46662 0.09619 0.18272
 H858 H 0.41331 0.15037 0.23625
 H859 H 0.39382 0.11650 0.24609
 H860 H 0.43706 0.07807 0.20345
 C861 C 0.31110 0.47453 -0.16700
 C862 C 0.32384 0.46542 -0.14847
 C863 C 0.34752 0.46429 -0.15082
 C864 C 0.35776 0.47202 -0.17085
 C865 C 0.34494 0.48083 -0.18921
 C866 C 0.32145 0.48194 -0.18694
 C867 C 0.36094 0.45504 -0.13337
 C868 C 0.35135 0.44604 -0.11383
 C869 C 0.32780 0.44608 -0.11086
 C870 C 0.31387 0.45672 -0.12807
 C871 C 0.29046 0.45818 -0.12438
 C872 C 0.28080 0.44856 -0.10517
 C873 C 0.29396 0.43696 -0.08892
 C874 C 0.31766 0.43566 -0.09134
 C875 C 0.33011 0.42341 -0.07439
 C876 C 0.31937 0.41266 -0.05620
 C877 C 0.29592 0.41375 -0.05415
 C878 C 0.28339 0.42629 -0.07042
 H879 H 0.29300 0.47556 -0.16699
 H880 H 0.37589 0.47062 -0.17246
 H881 H 0.31059 0.48789 -0.20060
 H882 H 0.37910 0.45439 -0.13498
 H883 H 0.36300 0.43921 -0.10129
 H884 H 0.27900 0.46676 -0.13601
 H885 H 0.26271 0.44989 -0.10323
 H886 H 0.34810 0.42120 -0.07494
 H887 H 0.32946 0.40284 -0.04405
 H888 H 0.26526 0.42755 -0.06882
 C889 C 0.81299 0.94407 0.31530
 C890 C 0.82062 0.94700 0.33775
 C891 C 0.84125 0.95835 0.34078
 C892 C 0.85314 0.96704 0.32206
 C893 C 0.84491 0.96475 0.29988
 C894 C 0.82502 0.95260 0.29685
 C895 C 0.85014 0.96072 0.36248
 C896 C 0.83927 0.95170 0.38132
 C897 C 0.81872 0.94015 0.37927
 C898 C 0.80887 0.93844 0.35718
 C899 C 0.78755 0.92835 0.35526
 C900 C 0.77672 0.91917 0.37402
 C901 C 0.78666 0.91954 0.39544
 C902 C 0.80769 0.93018 0.39851
 C903 C 0.81698 0.92987 0.42069
 C904 C 0.80608 0.91902 0.43873
 C905 C 0.78552 0.90819 0.43544
 C906 C 0.77573 0.90894 0.41377
 H907 H 0.79812 0.93472 0.31128
 H908 H 0.86916 0.97500 0.32495
 H909 H 0.81879 0.94942 0.27998
 H910 H 0.86587 0.96945 0.36494
 H911 H 0.84741 0.95430 0.39736
 H912 H 0.77854 0.92746 0.33943
 H913 H 0.76047 0.91138 0.37164
 H914 H 0.83295 0.93727 0.42465
 H915 H 0.81421 0.91846 0.45522
 H916 H 0.75965 0.90094 0.41107
 C917 C 0.81657 0.02991 1.20620
 C918 C 0.82374 0.02616 1.18380
 C919 C 0.84062 0.00941 1.18078
 C920 C 0.85016 -0.00248 1.19950
 C921 C 0.84309 0.00178 1.22150
 C922 C 0.82613 0.01793 1.22464
 C923 C 0.84802 0.00465 1.15912
 C924 C 0.83916 0.01616 1.14022
 C925 C 0.82252 0.03319 1.14221
 C926 C 0.81484 0.03843 1.16439
 C927 C 0.79876 0.05597 1.16645
 C928 C 0.79049 0.06803 1.14765
 C929 C 0.79765 0.06307 1.12597
 C930 C 0.81353 0.04541 1.12280
 C931 C 0.81972 0.04083 1.10025
 C932 C 0.81089 0.05359 1.08192
 C933 C 0.79567 0.07134 1.08532
 C934 C 0.78900 0.07583 1.10741
 H935 H 0.80365 0.04199 1.21019
 H936 H 0.86305 -0.01522 1.19690
 H937 H 0.82052 0.02173 1.24150
 H938 H 0.86091 -0.00814 1.15673
 H939 H 0.84603 0.01147 1.12423
 H940 H 0.79235 0.06114 1.18248
 H941 H 0.77831 0.08148 1.15014
 H942 H 0.83129 0.02751 1.09610
 H943 H 0.81634 0.04981 1.06500
 H944 H 0.77685 0.08925 1.11016
 C945 C 0.32117 0.54261 0.71160
 C946 C 0.32667 0.53499 0.68980
 C947 C 0.34151 0.51615 0.68854
 C948 C 0.35089 0.50603 0.70830
 C949 C 0.34531 0.51393 0.72964
 C950 C 0.33033 0.53218 0.73111
 C951 C 0.34682 0.50739 0.66761
 C952 C 0.33741 0.51659 0.64776
 C953 C 0.32255 0.53534 0.64801
 C954 C 0.31773 0.54518 0.66931
 C955 C 0.30442 0.56507 0.66939
 C956 C 0.29562 0.57472 0.64952
 C957 C 0.29929 0.56479 0.62878
 C958 C 0.31259 0.54484 0.62765
 C959 C 0.31510 0.53515 0.60617
 C960 C 0.30515 0.54512 0.58676
 C961 C 0.29239 0.56508 0.58798
 C962 C 0.28965 0.57481 0.60913
 H963 H 0.30954 0.55633 0.71426
 H964 H 0.36219 0.49162 0.70710
 H965 H 0.32585 0.53861 0.74745
 H966 H 0.35824 0.49306 0.66654
 H967 H 0.34255 0.50882 0.63237
 H968 H 0.30083 0.57399 0.68458
 H969 H 0.28560 0.59007 0.65044
 H970 H 0.32424 0.51962 0.60379
 H971 H 0.30719 0.53693 0.57076
 H972 H 0.28013 0.59043 0.61035
 C973 C 0.13345 0.52465 0.33818
 C974 C 0.15680 0.52350 0.34276
 C975 C 0.17075 0.51303 0.32668
 C976 C 0.16160 0.50534 0.30622
 C977 C 0.13843 0.50761 0.30155
 C978 C 0.12462 0.51701 0.31802
 C979 C 0.19379 0.51057 0.33100
 C980 C 0.20338 0.51845 0.35079
 C981 C 0.19032 0.52968 0.36695
 C982 C 0.16669 0.53255 0.36265
 C983 C 0.15379 0.54506 0.37796
 C984 C 0.16352 0.55452 0.39674
 C985 C 0.18639 0.55172 0.40131
 C986 C 0.20014 0.53883 0.38690
 C987 C 0.22316 0.53592 0.39308
 C988 C 0.23212 0.54633 0.41207
 C989 C 0.21852 0.55997 0.42535
 C990 C 0.19562 0.56220 0.42012
 H991 H 0.12137 0.53127 0.34979
 H992 H 0.17274 0.49799 0.29405
 H993 H 0.10664 0.51875 0.31509
 H994 H 0.20460 0.50250 0.31888
 H995 H 0.22131 0.51606 0.35260
 H996 H 0.13611 0.54858 0.37561
 H997 H 0.15298 0.56436 0.40775
 H998 H 0.23467 0.52577 0.38362
 H999 H 0.24988 0.54426 0.41602
 H1000 H 0.18496 0.57239 0.43070
 C1001 C 0.70165 0.02856 0.81222
 C1002 C 0.68970 0.03369 0.83212
 C1003 C 0.66619 0.03004 0.83202
 C1004 C 0.65538 0.02168 0.81292
 C1005 C 0.66732 0.01671 0.79325
 C1006 C 0.69064 0.02033 0.79318
 C1007 C 0.65338 0.03502 0.85088
 C1008 C 0.66323 0.04415 0.86982
 C1009 C 0.68650 0.04864 0.87073
 C1010 C 0.70009 0.04275 0.85183
 C1011 C 0.72354 0.04614 0.85329
 C1012 C 0.73333 0.05557 0.87218
 C1013 C 0.72022 0.06219 0.89033
 C1014 C 0.69663 0.05884 0.88993
 C1015 C 0.68412 0.06625 0.90866
 C1016 C 0.69462 0.07642 0.92685
 C1017 C 0.71792 0.07963 0.92718
 C1018 C 0.73064 0.07235 0.90884
 H1019 H 0.71947 0.03118 0.81056
 H1020 H 0.63729 0.01940 0.81313
 H1021 H 0.70060 0.01742 0.77836
 H1022 H 0.63541 0.03204 0.85093
 H1023 H 0.65200 0.04736 0.88356
 H1024 H 0.73495 0.04155 0.84011
 H1025 H 0.75140 0.05793 0.87247
 H1026 H 0.66611 0.06491 0.90970
 H1027 H 0.68428 0.08230 0.94053
 H1028 H 0.74872 0.07456 0.90897
 C1029 C 0.65790 0.97746 0.67331
 C1030 C 0.67697 0.96285 0.67382
 C1031 C 0.68877 0.95994 0.69468
 C1032 C 0.68121 0.97062 0.71417
 C1033 C 0.66199 0.98461 0.71343
 C1034 C 0.65061 0.98803 0.69278
 C1035 C 0.70795 0.94619 0.69612
 C1036 C 0.71579 0.93512 0.67732
 C1037 C 0.70452 0.93710 0.65620
 C1038 C 0.68464 0.95101 0.65448
 C1039 C 0.67284 0.95226 0.63362
 C1040 C 0.68002 0.94031 0.61515
 C1041 C 0.69937 0.92682 0.61649
 C1042 C 0.71218 0.92526 0.63685
 C1043 C 0.73209 0.91180 0.63689
 C1044 C 0.73843 0.89995 0.61782
 C1045 C 0.72522 0.90103 0.59808
 C1046 C 0.70584 0.91473 0.59750
 H1047 H 0.64824 0.98125 0.65815
 H1048 H 0.69006 0.96751 0.73009
 H1049 H 0.63606 0.99912 0.69152
 H1050 H 0.71705 0.94390 0.71203
 H1051 H 0.73059 0.92474 0.68010
 H1052 H 0.65761 0.96204 0.63104
 H1053 H 0.67021 0.94160 0.59959
 H1054 H 0.74320 0.91003 0.65134
 H1055 H 0.75351 0.88951 0.61868
 H1056 H 0.69578 0.91605 0.58210
 C1057 C 0.13376 0.45490 0.18599
 C1058 C 0.15718 0.45394 0.18228
 C1059 C 0.17133 0.46492 0.19781
 C1060 C 0.16222 0.47529 0.21690
 C1061 C 0.13889 0.47525 0.22089
 C1062 C 0.12493 0.46535 0.20477
 C1063 C 0.19449 0.46554 0.19421
 C1064 C 0.20398 0.45550 0.17551
 C1065 C 0.19065 0.44391 0.15980
 C1066 C 0.16691 0.44271 0.16356
 C1067 C 0.15371 0.42989 0.14879
 C1068 C 0.16317 0.41896 0.13075
 C1069 C 0.18611 0.42042 0.12648
 C1070 C 0.20024 0.43310 0.14069
 C1071 C 0.22335 0.43437 0.13502
 C1072 C 0.23194 0.42306 0.11645
 C1073 C 0.21789 0.41007 0.10300
 C1074 C 0.19496 0.40904 0.10804
 H1075 H 0.12161 0.44808 0.17452
 H1076 H 0.17345 0.48366 0.22837
 H1077 H 0.10691 0.46533 0.20629
 H1078 H 0.20546 0.47397 0.20595
 H1079 H 0.22198 0.45673 0.17412
 H1080 H 0.13594 0.42742 0.15098
 H1081 H 0.15234 0.40918 0.12000
 H1082 H 0.23524 0.44405 0.14446
 H1083 H 0.24973 0.42418 0.11283
 H1084 H 0.18385 0.39944 0.09739
 C1085 C -0.19737 0.29383 0.46887
 C1086 C -0.17413 0.29772 0.47203
 C1087 C -0.16793 0.31564 0.48610
 C1088 C -0.18438 0.32979 0.49536
 C1089 C -0.20738 0.32639 0.49111
 C1090 C -0.21353 0.30795 0.47814
 C1091 C -0.14528 0.31983 0.49037
 C1092 C -0.12851 0.30721 0.48034
 C1093 C -0.13372 0.28998 0.46520
 C1094 C -0.15692 0.28497 0.46117
 C1095 C -0.16216 0.26803 0.44572
 C1096 C -0.14550 0.25715 0.43375
 C1097 C -0.12292 0.26237 0.43689
 C1098 C -0.11656 0.27825 0.45320
 C1099 C -0.09326 0.28220 0.45622
 C1100 C -0.07730 0.27204 0.44252
 C1101 C -0.08392 0.25753 0.42550
 C1102 C -0.10671 0.25224 0.42324
 H1103 H -0.20378 0.28026 0.45906
 H1104 H -0.17887 0.34383 0.50512
 H1105 H -0.23112 0.30482 0.47457
 H1106 H -0.14041 0.33333 0.50134
 H1107 H -0.11153 0.31193 0.48434
 H1108 H -0.17912 0.26316 0.44185
 H1109 H -0.15041 0.24478 0.42153
 H1110 H -0.08674 0.29336 0.46867
 H1111 H -0.05974 0.27632 0.44464
 H1112 H -0.11187 0.24063 0.41039
 C1113 C 0.34508 0.85929 0.94797
 C1114 C 0.34932 0.83580 0.94791
 C1115 C 0.33263 0.82135 0.95703
 C1116 C 0.31286 0.83029 0.96642
 C1117 C 0.30858 0.85380 0.96608
 C1118 C 0.32531 0.86796 0.95687
 C1119 C 0.33567 0.79797 0.95660
 C1120 C 0.35447 0.78856 0.94650
 C1121 C 0.37142 0.80225 0.93692
 C1122 C 0.36935 0.82621 0.93873
 C1123 C 0.38747 0.83978 0.93157
 C1124 C 0.40649 0.83043 0.92195
 C1125 C 0.40805 0.80730 0.91859
 C1126 C 0.39052 0.79283 0.92582
 C1127 C 0.39264 0.76962 0.92106
 C1128 C 0.41136 0.76131 0.90966
 C1129 C 0.42875 0.77570 0.90279
 C1130 C 0.42703 0.79867 0.90770
 H1131 H 0.35641 0.87152 0.94071
 H1132 H 0.30115 0.81854 0.97393
 H1133 H 0.32296 0.88615 0.95642
 H1134 H 0.32315 0.78675 0.96379
 H1135 H 0.35549 0.77039 0.94691
 H1136 H 0.38774 0.85777 0.93359
 H1137 H 0.41996 0.84155 0.91667
 H1138 H 0.37976 0.75757 0.92517
 H1139 H 0.41186 0.74359 0.90570
 H1140 H 0.44047 0.81002 0.90290
 C1141 C 1.21414 0.81744 0.01787
 C1142 C 1.19325 0.82890 0.01967
 C1143 C 1.19182 0.85138 0.01096
 C1144 C 1.21089 0.86218 0.00217
 C1145 C 1.23176 0.85085 0.00078
 C1146 C 1.23287 0.82815 0.00850
 C1147 C 1.17131 0.86307 0.01094
 C1148 C 1.15203 0.85289 0.01923
 C1149 C 1.15261 0.83069 0.02858
 C1150 C 1.17374 0.81882 0.02960
 C1151 C 1.17480 0.79759 0.04109
 C1152 C 1.15589 0.78820 0.05111
 C1153 C 1.13503 0.79917 0.04949
 C1154 C 1.13290 0.82026 0.03763
 C1155 C 1.11104 0.82995 0.03528
 C1156 C 1.09242 0.81961 0.04524
 C1157 C 1.09496 0.79946 0.05796
 C1158 C 1.11626 0.78920 0.05983
 H1159 H 1.21653 0.80003 0.02322
 H1160 H 1.20882 0.87921 -0.00438
 H1161 H 1.24848 0.81859 0.00822
 H1162 H 1.17010 0.88030 0.00429
 H1163 H 1.13700 0.86325 0.01880
 H1164 H 1.19027 0.78811 0.04339
 H1165 H 1.15763 0.77208 0.06016
 H1166 H 1.10768 0.84533 0.02559
 H1167 H 1.07602 0.82765 0.04340
 H1168 H 1.11817 0.77330 0.06928
 C1169 C 0.69991 0.31101 0.55511
 C1170 C 0.67801 0.31831 0.54837
 C1171 C 0.67622 0.33569 0.53138
 C1172 C 0.69560 0.34467 0.52121
 C1173 C 0.71702 0.33657 0.52757
 C1174 C 0.71896 0.31995 0.54481
 C1175 C 0.65511 0.34382 0.52438
 C1176 C 0.63559 0.33505 0.53370
 C1177 C 0.63636 0.31750 0.55042
 C1178 C 0.65794 0.30892 0.55780
 C1179 C 0.65873 0.29102 0.57412
 C1180 C 0.63927 0.28189 0.58309
 C1181 C 0.61818 0.29017 0.57630
 C1182 C 0.61629 0.30809 0.55991
 C1183 C 0.59431 0.31576 0.55378
 C1184 C 0.57527 0.30606 0.56358
 C1185 C 0.57737 0.28842 0.57979
 C1186 C 0.59893 0.28051 0.58593
 H1187 H 0.70305 0.29840 0.56827
 H1188 H 0.69393 0.35749 0.50780
 H1189 H 0.73538 0.31381 0.55044
 H1190 H 0.65364 0.35713 0.51144
 H1191 H 0.62008 0.34233 0.52719
 H1192 H 0.67420 0.28338 0.58029
 H1193 H 0.64078 0.26815 0.59556
 H1194 H 0.59115 0.32934 0.54163
 H1195 H 0.55882 0.31271 0.55872
 H1196 H 0.60077 0.26661 0.59818
 C1197 C 0.33231 0.14704 0.50967
 C1198 C 0.33386 0.16971 0.51626
 C1199 C 0.31378 0.18287 0.51621
 C1200 C 0.29326 0.17378 0.50888
 C1201 C 0.29215 0.15138 0.50180
 C1202 C 0.31186 0.13809 0.50292
 C1203 C 0.31418 0.20485 0.52405
 C1204 C 0.33387 0.21378 0.53277
 C1205 C 0.35423 0.20120 0.53347
 C1206 C 0.35443 0.17929 0.52394
 C1207 C 0.37519 0.16764 0.52239
 C1208 C 0.39479 0.17622 0.53146
 C1209 C 0.39452 0.19663 0.54256
 C1210 C 0.37438 0.20964 0.54352
 C1211 C 0.37516 0.23015 0.55523
 C1212 C 0.39489 0.23693 0.56601
 C1213 C 0.41452 0.22364 0.56543
 C1214 C 0.41430 0.20380 0.55315
 H1215 H 0.34639 0.13542 0.51049
 H1216 H 0.27808 0.18399 0.50958
 H1217 H 0.31144 0.12037 0.49900
 H1218 H 0.29895 0.21511 0.52393
 H1219 H 0.33263 0.23077 0.53865
 H1220 H 0.37694 0.15185 0.51396
 H1221 H 0.41027 0.16648 0.53020
 H1222 H 0.36064 0.24095 0.55712
 H1223 H 0.39451 0.25223 0.57559
 H1224 H 0.42952 0.19359 0.55223
 C1225 C 0.81507 0.69207 0.02903
 C1226 C 0.83724 0.68451 0.02445
 C1227 C 0.83961 0.66409 0.01278
 C1228 C 0.82067 0.65177 0.00645
 C1229 C 0.79876 0.65969 0.01059
 C1230 C 0.79631 0.67977 0.02236
 C1231 C 0.86092 0.65574 0.00769
 C1232 C 0.88013 0.66713 0.01396
 C1233 C 0.87885 0.68736 0.02594
 C1234 C 0.85706 0.69615 0.03142
 C1235 C 0.85586 0.71595 0.04410
 C1236 C 0.87517 0.72645 0.05174
 C1237 C 0.89647 0.71798 0.04674
 C1238 C 0.89869 0.69868 0.03327
 C1239 C 0.92076 0.69133 0.02801
 C1240 C 0.93961 0.70180 0.03699
 C1241 C 0.93727 0.72005 0.05131
 C1242 C 0.91562 0.72844 0.05561
 H1243 H 0.81154 0.70734 0.03781
 H1244 H 0.82332 0.63563 -0.00124
 H1245 H 0.77973 0.68595 0.02671
 H1246 H 0.86282 0.64012 -0.00124
 H1247 H 0.89581 0.65921 0.00954
 H1248 H 0.84017 0.72362 0.04889
 H1249 H 0.87336 0.74131 0.06187
 H1250 H 0.92416 0.67749 0.01713
 H1251 H 0.95617 0.69539 0.03287
 H1252 H 0.91358 0.74258 0.06667
 C1253 C 0.69987 0.68702 0.95686
 C1254 C 0.67873 0.67650 0.95914
 C1255 C 0.67796 0.65582 0.97175
 C1256 C 0.69744 0.64678 0.98240
 C1257 C 0.71825 0.65757 0.98028
 C1258 C 0.71918 0.67766 0.96713
 C1259 C 0.65778 0.64413 0.97354
 C1260 C 0.63840 0.65215 0.96254
 C1261 C 0.63828 0.67264 0.94971
 C1262 C 0.65852 0.68551 0.94887
 C1263 C 0.65782 0.70710 0.93810
 C1264 C 0.63834 0.71546 0.92763
 C1265 C 0.61891 0.70254 0.92704
 C1266 C 0.61856 0.68086 0.93787
 C1267 C 0.59862 0.66812 0.93584
 C1268 C 0.57999 0.67666 0.92363
 C1269 C 0.58046 0.69821 0.91331
 C1270 C 0.59991 0.71113 0.91528
 H1271 H 0.70227 0.70214 0.94664
 H1272 H 0.69618 0.63128 0.99235
 H1273 H 0.73498 0.68607 0.96416
 H1274 H 0.65702 0.62836 0.98329
 H1275 H 0.62357 0.64208 0.96484
 H1276 H 0.67199 0.71828 0.93788
 H1277 H 0.63862 0.73214 0.91957
 H1278 H 0.59708 0.65124 0.94290
 H1279 H 0.56514 0.66634 0.92218
 H1280 H 0.60053 0.72764 0.90690
 C1281 C 0.18455 0.18762 0.46876
 C1282 C 0.16996 0.17539 0.45460
 C1283 C 0.17610 0.15278 0.45017
 C1284 C 0.19572 0.14302 0.45962
 C1285 C 0.20999 0.15526 0.47357
 C1286 C 0.20419 0.17768 0.47801
 C1287 C 0.16267 0.13983 0.43630
 C1288 C 0.14311 0.14872 0.42657
 C1289 C 0.13605 0.17112 0.43034
 C1290 C 0.14962 0.18467 0.44469
 C1291 C 0.14232 0.20696 0.44870
 C1292 C 0.12251 0.21573 0.43913
 C1293 C 0.10919 0.20279 0.42507
 C1294 C 0.11579 0.18034 0.42034
 C1295 C 0.10176 0.16808 0.40573
 C1296 C 0.08202 0.17759 0.39660
 C1297 C 0.07543 0.19963 0.40156
 C1298 C 0.08921 0.21221 0.41573
 H1299 H 0.18134 0.20488 0.47306
 H1300 H 0.19991 0.12580 0.45563
 H1301 H 0.21468 0.18755 0.48896
 H1302 H 0.16733 0.12252 0.43289
 H1303 H 0.13384 0.13735 0.41625
 H1304 H 0.15150 0.21815 0.45933
 H1305 H 0.11758 0.23290 0.44279
 H1306 H 0.10548 0.15111 0.40080
 H1307 H 0.07197 0.16765 0.38531
 H1308 H 0.08420 0.22926 0.41978
 C1309 C 0.58641 0.05029 0.70295
 C1310 C 0.58105 0.07073 0.71365
 C1311 C 0.58931 0.07329 0.73594
 C1312 C 0.60280 0.05647 0.74656
 C1313 C 0.60911 0.03670 0.73541
 C1314 C 0.60004 0.03366 0.71365
 C1315 C 0.58435 0.09280 0.74761
 C1316 C 0.57218 0.11042 0.73734
 C1317 C 0.56435 0.10927 0.71480
 C1318 C 0.56816 0.08880 0.70299
 C1319 C 0.55916 0.08722 0.68091
 C1320 C 0.54753 0.10519 0.67042
 C1321 C 0.54463 0.12558 0.68128
 C1322 C 0.55293 0.12796 0.70363
 C1323 C 0.54995 0.14922 0.71364
 C1324 C 0.53939 0.16721 0.70187
 C1325 C 0.53128 0.16480 0.67977
 C1326 C 0.53375 0.14376 0.66970
 H1327 H 0.58080 0.04677 0.68606
 H1328 H 0.60804 0.05895 0.76388
 H1329 H 0.60407 0.01897 0.70408
 H1330 H 0.59030 0.09467 0.76485
 H1331 H 0.56917 0.12477 0.74768
 H1332 H 0.56081 0.07224 0.67115
 H1333 H 0.54108 0.10321 0.65338
 H1334 H 0.55611 0.15283 0.73031
 H1335 H 0.53817 0.18334 0.70997
 H1336 H 0.52732 0.14154 0.65270
 C1337 C 1.06405 0.55368 0.21257
 C1338 C 1.07658 0.57367 0.20863
 C1339 C 1.09908 0.57382 0.21680
 C1340 C 1.10802 0.55533 0.22930
 C1341 C 1.09507 0.53619 0.23391
 C1342 C 1.07326 0.53524 0.22499
 C1343 C 1.11258 0.59255 0.21281
 C1344 C 1.10426 0.61144 0.20102
 C1345 C 1.08183 0.61254 0.19293
 C1346 C 1.06764 0.59347 0.19706
 C1347 C 1.04490 0.59508 0.18999
 C1348 C 1.03627 0.61456 0.17929
 C1349 C 1.04995 0.63310 0.17482
 C1350 C 1.07301 0.63228 0.18124
 C1351 C 1.08630 0.65131 0.17559
 C1352 C 1.07696 0.67031 0.16448
 C1353 C 1.05411 0.67117 0.15861
 C1354 C 1.04066 0.65250 0.16386
 H1355 H 1.04712 0.55172 0.20635
 H1356 H 1.12520 0.55587 0.23563
 H1357 H 1.06306 0.52046 0.22819
 H1358 H 1.12981 0.59267 0.21900
 H1359 H 1.11586 0.62516 0.19904
 H1360 H 1.03309 0.58168 0.19291
 H1361 H 1.01863 0.61507 0.17440
 H1362 H 1.10405 0.65209 0.17924
 H1363 H 1.08768 0.68456 0.16061
 H1364 H 1.02301 0.65292 0.15902
 C1365 C 0.92313 0.93681 0.20762
 C1366 C 0.92007 0.91328 0.21083
 C1367 C 0.90422 0.90616 0.22719
 C1368 C 0.89165 0.92196 0.23918
 C1369 C 0.89469 0.94540 0.23591
 C1370 C 0.91076 0.95244 0.21988
 C1371 C 0.90084 0.88320 0.23159
 C1372 C 0.91314 0.86701 0.22042
 C1373 C 0.92920 0.87312 0.20395
 C1374 C 0.93224 0.89663 0.19857
 C1375 C 0.94700 0.90264 0.18086
 C1376 C 0.95861 0.88637 0.16902
 C1377 C 0.95639 0.86346 0.17456
 C1378 C 0.94195 0.85647 0.19233
 C1379 C 0.94104 0.83305 0.19779
 C1380 C 0.95329 0.81736 0.18560
 C1381 C 0.96694 0.82430 0.16755
 C1382 C 0.96850 0.84749 0.16227
 H1383 H 0.93537 0.94378 0.19613
 H1384 H 0.87900 0.91556 0.25063
 H1385 H 0.91474 0.97002 0.21707
 H1386 H 0.88860 0.87763 0.24399
 H1387 H 0.90924 0.84974 0.22477
 H1388 H 0.94962 0.91988 0.17531
 H1389 H 0.96958 0.89181 0.15540
 H1390 H 0.93131 0.82624 0.21163
 H1391 H 0.95223 0.79965 0.19053
 H1392 H 0.97887 0.85316 0.14828
 C1393 C 0.42050 0.43962 0.72156
 C1394 C 0.41243 0.41720 0.72247
 C1395 C 0.39327 0.41274 0.73589
 C1396 C 0.38230 0.43021 0.74706
 C1397 C 0.39057 0.45231 0.74616
 C1398 C 0.40979 0.45677 0.73331
 C1399 C 0.38515 0.39083 0.73829
 C1400 C 0.39605 0.37296 0.72822
 C1401 C 0.41525 0.37641 0.71474
 C1402 C 0.42291 0.39902 0.71091
 C1403 C 0.44044 0.40273 0.69532
 C1404 C 0.45050 0.38494 0.68426
 C1405 C 0.44407 0.36271 0.68882
 C1406 C 0.42671 0.35804 0.70449
 C1407 C 0.42180 0.33511 0.70949
 C1408 C 0.43312 0.31771 0.69876
 C1409 C 0.44961 0.32243 0.68254
 C1410 C 0.45497 0.34509 0.67772
 H1411 H 0.43549 0.44433 0.71254
 H1412 H 0.36721 0.42641 0.75651
 H1413 H 0.41704 0.47344 0.73270
 H1414 H 0.37037 0.38736 0.74839
 H1415 H 0.38856 0.35662 0.73081
 H1416 H 0.44636 0.41935 0.69076
 H1417 H 0.46369 0.38863 0.67220
 H1418 H 0.40973 0.32999 0.72207
 H1419 H 0.42907 0.30043 0.70345
 H1420 H 0.46750 0.34915 0.66509
 C1421 C 0.43903 0.54182 0.78941
 C1422 C 0.43564 0.56200 0.77630
 C1423 C 0.41721 0.56299 0.76084
 C1424 C 0.40306 0.54433 0.75858
 C1425 C 0.40609 0.52505 0.77252
 C1426 C 0.42423 0.52381 0.78773
 C1427 C 0.41236 0.58293 0.74853
 C1428 C 0.42428 0.60249 0.75249
 C1429 C 0.44207 0.60262 0.76848
 C1430 C 0.44899 0.58167 0.77912
 C1431 C 0.46880 0.58117 0.79250
 C1432 C 0.48026 0.60084 0.79707
 C1433 C 0.47213 0.62177 0.78901
 C1434 C 0.45297 0.62302 0.77449
 C1435 C 0.44470 0.64474 0.76776
 C1436 C 0.45461 0.66424 0.77579
 C1437 C 0.47337 0.66279 0.79026
 C1438 C 0.48246 0.64153 0.79625
 H1439 H 0.45213 0.53992 0.80207
 H1440 H 0.38870 0.54542 0.74711
 H1441 H 0.42660 0.50903 0.79877
 H1442 H 0.39858 0.58368 0.73637
 H1443 H 0.41929 0.61730 0.74257
 H1444 H 0.47599 0.56569 0.79954
 H1445 H 0.49517 0.59972 0.80777
 H1446 H 0.42983 0.64722 0.75736
 H1447 H 0.44723 0.68056 0.77117
 H1448 H 0.49671 0.64036 0.80785
 C1449 C -0.09436 0.05682 0.24872
 C1450 C -0.07831 0.06097 0.26594
 C1451 C -0.07167 0.04255 0.28047
 C1452 C -0.08250 0.02167 0.27922
 C1453 C -0.09944 0.01844 0.26310
 C1454 C -0.10469 0.03584 0.24737
 C1455 C -0.05476 0.04524 0.29662
 C1456 C -0.04466 0.06603 0.29921
 C1457 C -0.05171 0.08529 0.28626
 C1458 C -0.06909 0.08280 0.26961
 C1459 C -0.07765 0.10239 0.25818
 C1460 C -0.07014 0.12374 0.26343
 C1461 C -0.05324 0.12643 0.27960
 C1462 C -0.04295 0.10721 0.29040
 C1463 C -0.02471 0.11086 0.30541
 C1464 C -0.01848 0.13268 0.31096
 C1465 C -0.03015 0.15147 0.30178
 C1466 C -0.04707 0.14829 0.28560
 H1467 H -0.09938 0.06943 0.23611
 H1468 H -0.07812 0.00800 0.29113
 H1469 H -0.11759 0.03357 0.23460
 H1470 H -0.04945 0.03115 0.30760
 H1471 H -0.03213 0.06670 0.31246
 H1472 H -0.09112 0.10192 0.24590
 H1473 H -0.07790 0.13836 0.25493
 H1474 H -0.01502 0.09724 0.31327
 H1475 H -0.00517 0.13483 0.32333
 H1476 H -0.05585 0.16290 0.27817
 C1477 C 0.06614 0.42587 0.25162
 C1478 C 0.05372 0.42163 0.27162
 C1479 C 0.05311 0.43883 0.28780
 C1480 C 0.06515 0.45884 0.28435
 C1481 C 0.07877 0.46193 0.26532
 C1482 C 0.07855 0.44563 0.24871
 C1483 C 0.04134 0.43560 0.30789
 C1484 C 0.03159 0.41499 0.31318
 C1485 C 0.03312 0.39675 0.29841
 C1486 C 0.04299 0.40056 0.27667
 C1487 C 0.04219 0.38303 0.26101
 C1488 C 0.03325 0.36207 0.26682
 C1489 C 0.02532 0.35752 0.28861
 C1490 C 0.02523 0.37477 0.30475
 C1491 C 0.01820 0.36902 0.32694
 C1492 C 0.01131 0.34724 0.33269
 C1493 C 0.01087 0.33031 0.31661
 C1494 C 0.01787 0.33565 0.29449
 H1495 H 0.06769 0.41375 0.23849
 H1496 H 0.06497 0.47154 0.29720
 H1497 H 0.08913 0.44733 0.23408
 H1498 H 0.04030 0.44892 0.32005
 H1499 H 0.02285 0.41390 0.32906
 H1500 H 0.04824 0.38502 0.24395
 H1501 H 0.03314 0.34908 0.25429
 H1502 H 0.01865 0.38070 0.34055
 H1503 H 0.00684 0.34354 0.35011
 H1504 H 0.01766 0.32277 0.28186
 C1505 C 0.59700 0.92763 0.74783
 C1506 C 0.58777 0.92096 0.76900
 C1507 C 0.58974 0.93618 0.78698
 C1508 C 0.60068 0.95685 0.78382
 C1509 C 0.61064 0.96269 0.76312
 C1510 C 0.60832 0.94812 0.74504
 C1511 C 0.58133 0.93052 0.80828
 C1512 C 0.57218 0.90946 0.81268
 C1513 C 0.57082 0.89321 0.79575
 C1514 C 0.57745 0.89950 0.77324
 C1515 C 0.57363 0.88407 0.75588
 C1516 C 0.56459 0.86286 0.76051
 C1517 C 0.55965 0.85589 0.78265
 C1518 C 0.56297 0.87089 0.80064
 C1519 C 0.55906 0.86265 0.82295
 C1520 C 0.55193 0.84064 0.82712
 C1521 C 0.54824 0.82607 0.80932
 C1522 C 0.55184 0.83382 0.78704
 H1523 H 0.59661 0.91701 0.73335
 H1524 H 0.60202 0.96819 0.79782
 H1525 H 0.61613 0.95204 0.72893
 H1526 H 0.58234 0.94231 0.82193
 H1527 H 0.56599 0.90655 0.82957
 H1528 H 0.57718 0.88803 0.73837
 H1529 H 0.56196 0.85159 0.74664
 H1530 H 0.56206 0.87249 0.83769
 H1531 H 0.54926 0.83492 0.84446
 H1532 H 0.54925 0.82244 0.77325
 C1533 C 0.70521 0.59241 0.05627
 C1534 C 0.71729 0.58434 0.07572
 C1535 C 0.74094 0.58717 0.07592
 C1536 C 0.75178 0.59761 0.05745
 C1537 C 0.73946 0.60634 0.03873
 C1538 C 0.71615 0.60325 0.03822
 C1539 C 0.75371 0.58002 0.09475
 C1540 C 0.74347 0.57102 0.11394
 C1541 C 0.71991 0.56845 0.11495
 C1542 C 0.70673 0.57420 0.09515
 C1543 C 0.68346 0.56961 0.09547
 C1544 C 0.67325 0.56060 0.11470
 C1545 C 0.68562 0.55624 0.13454
 C1546 C 0.70910 0.56019 0.13507
 C1547 C 0.72063 0.55625 0.15594
 C1548 C 0.70930 0.54861 0.17525
 C1549 C 0.68613 0.54448 0.17456
 C1550 C 0.67449 0.54815 0.15398
 H1551 H 0.68717 0.59139 0.05477
 H1552 H 0.76992 0.59927 0.05793
 H1553 H 0.70608 0.60991 0.02422
 H1554 H 0.77185 0.58184 0.09485
 H1555 H 0.75462 0.56596 0.12768
 H1556 H 0.67263 0.57252 0.08095
 H1557 H 0.65533 0.55740 0.11413
 H1558 H 0.73829 0.55954 0.15814
 H1559 H 0.71870 0.54645 0.19096
 H1560 H 0.65663 0.54475 0.15302
 C1561 C 0.19314 1.09844 0.54963
 C1562 C 0.20423 1.08675 0.56788
 C1563 C 0.22774 1.08292 0.56607
 C1564 C 0.23965 1.09180 0.54751
 C1565 C 0.22853 1.10432 0.53024
 C1566 C 0.20517 1.10707 0.53118
 C1567 C 0.23938 1.07062 0.58298
 C1568 C 0.22832 1.06220 0.60194
 C1569 C 0.20508 1.06616 0.60503
 C1570 C 0.19291 1.07897 0.58788
 C1571 C 0.17004 1.08426 0.59167
 C1572 C 0.15941 1.07739 0.61146
 C1573 C 0.17090 1.06457 0.62810
 C1574 C 0.19373 1.05833 0.62500
 C1575 C 0.20422 1.04453 0.64212
 C1576 C 0.19270 1.03794 0.66166
 C1577 C 0.17036 1.04484 0.66497
 C1578 C 0.15959 1.05811 0.64797
 H1579 H 0.17521 1.10131 0.54905
 H1580 H 0.25771 1.08918 0.54660
 H1581 H 0.19619 1.11664 0.51798
 H1582 H 0.25734 1.06758 0.58162
 H1583 H 0.23873 1.05321 0.61427
 H1584 H 0.15994 1.09433 0.57991
 H1585 H 0.14193 1.08219 0.61375
 H1586 H 0.22121 1.03821 0.64084
 H1587 H 0.20130 1.02714 0.67414
 H1588 H 0.14239 1.06380 0.65031
 C1589 C 0.21106 0.92763 0.94264
 C1590 C 0.21983 0.93519 0.92162
 C1591 C 0.24274 0.93036 0.91738
 C1592 C 0.25548 0.91668 0.93259
 C1593 C 0.24612 0.90766 0.95269
 C1594 C 0.22400 0.91436 0.95787
 C1595 C 0.25284 0.93892 0.89778
 C1596 C 0.24054 0.95176 0.88192
 C1597 C 0.21732 0.95602 0.88470
 C1598 C 0.20669 0.94722 0.90470
 C1599 C 0.18313 0.94977 0.90660
 C1600 C 0.17031 0.96015 0.88942
 C1601 C 0.18045 0.96898 0.86997
 C1602 C 0.20417 0.96785 0.86766
 C1603 C 0.21364 0.97837 0.84817
 C1604 C 0.19998 0.98815 0.83112
 C1605 C 0.17655 0.98773 0.83288
 C1606 C 0.16688 0.97855 0.85255
 H1607 H 0.19424 0.93178 0.94791
 H1608 H 0.27298 0.91353 0.92871
 H1609 H 0.21588 0.90881 0.97319
 H1610 H 0.27047 0.93548 0.89454
 H1611 H 0.24960 0.95728 0.86710
 H1612 H 0.17388 0.94299 0.92078
 H1613 H 0.15220 0.96109 0.89133
 H1614 H 0.23152 0.97937 0.84556
 H1615 H 0.20776 0.99544 0.81613
 H1616 H 0.14871 0.97869 0.85417
 C1617 C 0.71394 0.37744 0.42714
 C1618 C 0.71138 0.40124 0.42564
 C1619 C 0.71886 0.41378 0.44434
 C1620 C 0.72860 0.40275 0.46353
 C1621 C 0.73187 0.37934 0.46406
 C1622 C 0.72417 0.36681 0.44595
 C1623 C 0.71728 0.43728 0.44347
 C1624 C 0.70929 0.44878 0.42413
 C1625 C 0.70219 0.43716 0.40484
 C1626 C 0.70241 0.41297 0.40597
 C1627 C 0.69380 0.40132 0.38733
 C1628 C 0.68609 0.41274 0.36792
 C1629 C 0.68675 0.43620 0.36611
 C1630 C 0.69479 0.44885 0.38446
 C1631 C 0.69534 0.47266 0.38141
 C1632 C 0.68786 0.48327 0.36123
 C1633 C 0.67966 0.47063 0.34333
 C1634 C 0.67924 0.44706 0.34595
 H1635 H 0.70905 0.36651 0.41378
 H1636 H 0.73478 0.41247 0.47751
 H1637 H 0.72653 0.34864 0.44616
 H1638 H 0.72276 0.44696 0.45775
 H1639 H 0.70878 0.46691 0.42491
 H1640 H 0.69251 0.38322 0.38722
 H1641 H 0.67969 0.40301 0.35405
 H1642 H 0.70169 0.48361 0.39415
 H1643 H 0.68865 0.50150 0.35956
 H1644 H 0.67262 0.43709 0.33237
 C1645 C 0.75148 0.41082 0.57005
 C1646 C 0.77162 0.42323 0.57232
 C1647 C 0.78781 0.42138 0.55497
 C1648 C 0.78441 0.40682 0.53699
 C1649 C 0.76498 0.39379 0.53573
 C1650 C 0.74831 0.39636 0.55204
 C1651 C 0.80763 0.43364 0.55583
 C1652 C 0.81225 0.44722 0.57395
 C1653 C 0.79729 0.44891 0.59228
 C1654 C 0.77648 0.43694 0.59134
 C1655 C 0.76157 0.43860 0.60972
 C1656 C 0.76697 0.45096 0.62860
 C1657 C 0.78735 0.46227 0.63000
 C1658 C 0.80267 0.46174 0.61174
 C1659 C 0.82301 0.47374 0.61399
 C1660 C 0.82808 0.48511 0.63366
 C1661 C 0.81313 0.48518 0.65184
 C1662 C 0.79265 0.47386 0.64979
 H1663 H 0.73799 0.41154 0.58205
 H1664 H 0.79720 0.40523 0.52413
 H1665 H 0.73312 0.38645 0.55145
 H1666 H 0.81992 0.43249 0.54245
 H1667 H 0.82805 0.45588 0.57316
 H1668 H 0.74563 0.43016 0.61029
 H1669 H 0.75511 0.45141 0.64242
 H1670 H 0.83563 0.47450 0.60105
 H1671 H 0.84418 0.49341 0.63484
 H1672 H 0.78085 0.47400 0.66367
 C1673 C 0.26197 -0.08069 0.05694
 C1674 C 0.28320 -0.07202 0.06316
 C1675 C 0.30113 -0.07478 0.04785
 C1676 C 0.29815 -0.08680 0.02800
 C1677 C 0.27728 -0.09619 0.02241
 C1678 C 0.25909 -0.09243 0.03694
 C1679 C 0.32216 -0.06574 0.05242
 C1680 C 0.32602 -0.05418 0.07207
 C1681 C 0.30898 -0.05147 0.08830
 C1682 C 0.28730 -0.06086 0.08398
 C1683 C 0.27073 -0.05936 0.10088
 C1684 C 0.27518 -0.04921 0.12133
 C1685 C 0.29610 -0.03974 0.12566
 C1686 C 0.31314 -0.04024 0.10901
 C1687 C 0.33374 -0.02957 0.11390
 C1688 C 0.33751 -0.01978 0.13469
 C1689 C 0.32095 -0.02004 0.15138
 C1690 C 0.30016 -0.02991 0.14669
 H1691 H 0.24720 -0.07877 0.06717
 H1692 H 0.31224 -0.08830 0.01661
 H1693 H 0.24273 -0.09954 0.03377
 H1694 H 0.33592 -0.06774 0.04069
 H1695 H 0.34288 -0.04815 0.07427
 H1696 H 0.25423 -0.06646 0.09910
 H1697 H 0.26205 -0.04884 0.13394
 H1698 H 0.34737 -0.02838 0.10207
 H1699 H 0.35378 -0.01239 0.13790
 H1700 H 0.28713 -0.02990 0.15941
 C1701 C 0.24208 0.09558 0.41275
 C1702 C 0.25478 0.07529 0.41131
 C1703 C 0.26459 0.06604 0.43159
 C1704 C 0.26245 0.07725 0.45206
 C1705 C 0.25086 0.09783 0.45275
 C1706 C 0.24041 0.10672 0.43315
 C1707 C 0.27741 0.04624 0.43117
 C1708 C 0.28237 0.03633 0.41081
 C1709 C 0.27461 0.04591 0.38997
 C1710 C 0.25938 0.06477 0.39032
 C1711 C 0.24996 0.07296 0.36959
 C1712 C 0.25692 0.06460 0.34906
 C1713 C 0.27358 0.04790 0.34833
 C1714 C 0.28226 0.03785 0.36876
 C1715 C 0.29936 0.02116 0.36707
 C1716 C 0.30837 0.01590 0.34618
 C1717 C 0.30048 0.02671 0.32626
 C1718 C 0.28242 0.04198 0.32729
 H1719 H 0.23429 0.10399 0.39825
 H1720 H 0.27082 0.07060 0.46727
 H1721 H 0.23209 0.12306 0.43326
 H1722 H 0.28443 0.03877 0.44668
 H1723 H 0.29264 0.02125 0.41202
 H1724 H 0.23731 0.08612 0.36862
 H1725 H 0.24979 0.07195 0.33353
 H1726 H 0.30699 0.01263 0.38158
 H1727 H 0.32217 0.00382 0.34565
 H1728 H 0.27632 0.05042 0.31185
 C1729 C 0.74785 0.59182 0.92514
 C1730 C 0.76721 0.57858 0.92043
 C1731 C 0.78348 0.57544 0.93800
 C1732 C 0.78114 0.58640 0.95854
 C1733 C 0.76283 0.60082 0.96213
 C1734 C 0.74578 0.60278 0.94570
 C1735 C 0.80257 0.56215 0.93473
 C1736 C 0.80689 0.55319 0.91382
 C1737 C 0.79232 0.55742 0.89512
 C1738 C 0.77159 0.56931 0.89873
 C1739 C 0.75643 0.57223 0.88029
 C1740 C 0.76193 0.56521 0.85876
 C1741 C 0.78281 0.55521 0.85462
 C1742 C 0.79817 0.55081 0.87281
 C1743 C 0.81930 0.54104 0.86767
 C1744 C 0.82521 0.53691 0.84544
 C1745 C 0.81031 0.54198 0.82753
 C1746 C 0.78881 0.55043 0.83222
 H1747 H 0.73443 0.59481 0.91301
 H1748 H 0.79419 0.58460 0.97144
 H1749 H 0.73143 0.61385 0.94821
 H1750 H 0.81470 0.55918 0.94834
 H1751 H 0.82210 0.54326 0.91285
 H1752 H 0.74020 0.58028 0.88185
 H1753 H 0.74998 0.56833 0.84503
 H1754 H 0.83209 0.53717 0.88024
 H1755 H 0.84184 0.53012 0.84212
 H1756 H 0.77724 0.55441 0.81834
 C1757 C 0.09487 0.74012 0.60692
 C1758 C 0.09302 0.72553 0.58858
 C1759 C 0.07110 0.72076 0.58054
 C1760 C 0.05199 0.73104 0.59004
 C1761 C 0.05410 0.74616 0.60791
 C1762 C 0.07594 0.75013 0.61626
 C1763 C 0.06833 0.70578 0.56298
 C1764 C 0.08678 0.69513 0.55344
 C1765 C 0.10898 0.69936 0.56081
 C1766 C 0.11216 0.71532 0.57824
 C1767 C 0.13438 0.72079 0.58457
 C1768 C 0.15285 0.71047 0.57492
 C1769 C 0.15007 0.69423 0.55863
 C1770 C 0.12817 0.68835 0.55126
 C1771 C 0.12649 0.67145 0.53487
 C1772 C 0.14570 0.66095 0.52637
 C1773 C 0.16724 0.66692 0.53376
 C1774 C 0.16924 0.68370 0.54982
 H1775 H 0.11068 0.74383 0.61496
 H1776 H 0.03570 0.72765 0.58269
 H1777 H 0.07879 0.76038 0.63080
 H1778 H 0.05164 0.70206 0.55663
 H1779 H 0.08303 0.68384 0.54000
 H1780 H 0.13821 0.73335 0.59678
 H1781 H 0.16956 0.71521 0.58042
 H1782 H 0.11061 0.66567 0.52847
 H1783 H 0.14368 0.64810 0.51388
 H1784 H 0.18580 0.68816 0.55598
 C1785 C 0.56082 0.20401 1.09204
 C1786 C 0.58004 0.21556 1.08404
 C1787 C 0.58071 0.23920 1.08690
 C1788 C 0.56384 0.25019 1.09908
 C1789 C 0.54596 0.23808 1.10875
 C1790 C 0.54414 0.21514 1.10410
 C1791 C 0.59851 0.25171 1.07813
 C1792 C 0.61615 0.24123 1.06716
 C1793 C 0.61698 0.21756 1.06494
 C1794 C 0.59868 0.20449 1.07366
 C1795 C 0.60007 0.18073 1.07263
 C1796 C 0.61880 0.17004 1.06382
 C1797 C 0.63674 0.18249 1.05527
 C1798 C 0.63589 0.20644 1.05507
 C1799 C 0.65422 0.21817 1.04524
 C1800 C 0.67289 0.20655 1.03700
 C1801 C 0.67400 0.18296 1.03832
 C1802 C 0.65571 0.17103 1.04717
 H1803 H 0.55817 0.18632 1.08941
 H1804 H 0.56495 0.26822 1.10139
 H1805 H 0.53019 0.20537 1.11032
 H1806 H 0.59899 0.26985 1.08005
 H1807 H 0.62935 0.25219 1.06131
 H1808 H 0.58726 0.16975 1.07929
 H1809 H 0.61931 0.15174 1.06389
 H1810 H 0.65472 0.23630 1.04359
 H1811 H 0.68678 0.21611 1.03005
 H1812 H 0.65628 0.15271 1.04776
 C1813 C 0.94839 0.22247 0.92526
 C1814 C 0.92718 0.23227 0.93001
 C1815 C 0.92272 0.25437 0.92118
 C1816 C 0.93879 0.26586 0.90810
 C1817 C 0.95928 0.25545 0.90237
 C1818 C 0.96402 0.23385 0.91173
 C1819 C 0.90200 0.26480 0.92500
 C1820 C 0.88504 0.25332 0.93629
 C1821 C 0.88827 0.23094 0.94463
 C1822 C 0.91008 0.22072 0.94259
 C1823 C 0.91399 0.19930 0.95309
 C1824 C 0.89691 0.18774 0.96417
 C1825 C 0.87514 0.19673 0.96475
 C1826 C 0.87043 0.21842 0.95495
 C1827 C 0.84785 0.22631 0.95520
 C1828 C 0.83081 0.21315 0.96466
 C1829 C 0.83557 0.19176 0.97444
 C1830 C 0.85794 0.18388 0.97472
 H1831 H 0.95320 0.20569 0.93107
 H1832 H 0.93495 0.28293 0.90218
 H1833 H 0.97959 0.22518 0.90836
 H1834 H 0.89862 0.28188 0.91866
 H1835 H 0.86956 0.26262 0.93845
 H1836 H 0.93022 0.19103 0.95330
 H1837 H 0.90068 0.17128 0.97187
 H1838 H 0.84258 0.24220 0.94744
 H1839 H 0.81368 0.21955 0.96364
 H1840 H 0.86200 0.16752 0.98249
 C1841 C 0.44263 0.69912 0.41412
 C1842 C 0.42440 0.70979 0.42503
 C1843 C 0.42415 0.73370 0.42516
 C1844 C 0.44057 0.74617 0.41348
 C1845 C 0.45764 0.73531 0.40152
 C1846 C 0.45889 0.71173 0.40262
 C1847 C 0.40726 0.74514 0.43653
 C1848 C 0.39013 0.73345 0.44735
 C1849 C 0.38894 0.70967 0.44689
 C1850 C 0.40633 0.69764 0.43547
 C1851 C 0.40465 0.67396 0.43415
 C1852 C 0.38646 0.66244 0.44318
 C1853 C 0.36937 0.67388 0.45422
 C1854 C 0.37055 0.69756 0.45680
 C1855 C 0.35303 0.70810 0.46894
 C1856 C 0.33478 0.69574 0.47717
 C1857 C 0.33330 0.67258 0.47357
 C1858 C 0.35086 0.66171 0.46242
 H1859 H 0.44482 0.68106 0.41400
 H1860 H 0.43988 0.76446 0.41351
 H1861 H 0.47204 0.70285 0.39399
 H1862 H 0.40712 0.76343 0.43686
 H1863 H 0.37765 0.74371 0.45538
 H1864 H 0.41681 0.66377 0.42558
 H1865 H 0.38568 0.64431 0.44128
 H1866 H 0.35282 0.72584 0.47236
 H1867 H 0.32146 0.70448 0.48588
 H1868 H 0.35006 0.64365 0.46004
 C1869 C 0.56816 0.74960 0.41652
 C1870 C 0.57142 0.76778 0.43127
 C1871 C 0.55299 0.78280 0.43427
 C1872 C 0.53304 0.78065 0.42172
 C1873 C 0.53077 0.76353 0.40611
 C1874 C 0.54810 0.74758 0.40417
 C1875 C 0.55473 0.80040 0.44924
 C1876 C 0.57471 0.80421 0.46067
 C1877 C 0.59409 0.79074 0.45727
 C1878 C 0.59238 0.77204 0.44253
 C1879 C 0.61191 0.75891 0.43878
 C1880 C 0.63259 0.76439 0.44821
 C1881 C 0.63468 0.78295 0.46201
 C1882 C 0.61535 0.79597 0.46734
 C1883 C 0.61829 0.81418 0.48202
 C1884 C 0.63962 0.82013 0.48958
 C1885 C 0.65880 0.80811 0.48311
 C1886 C 0.65615 0.78901 0.46995
 H1887 H 0.58087 0.73688 0.41382
 H1888 H 0.51940 0.79275 0.42359
 H1889 H 0.54657 0.73409 0.39229
 H1890 H 0.54055 0.81169 0.45183
 H1891 H 0.57452 0.81847 0.47152
 H1892 H 0.61198 0.74460 0.42797
 H1893 H 0.64723 0.75420 0.44427
 H1894 H 0.60458 0.82443 0.48783
 H1895 H 0.64115 0.83451 0.50037
 H1896 H 0.67090 0.77947 0.46503
 C1897 C 0.07014 0.26899 -0.08725
 C1898 C 0.07368 0.28827 -0.07408
 C1899 C 0.05580 0.30426 -0.07294
 C1900 C 0.03610 0.30181 -0.08589
 C1901 C 0.03337 0.28315 -0.09955
 C1902 C 0.05023 0.26651 -0.09967
 C1903 C 0.05775 0.32282 -0.05916
 C1904 C 0.07717 0.32609 -0.04653
 C1905 C 0.09583 0.31121 -0.04770
 C1906 C 0.09430 0.29234 -0.06219
 C1907 C 0.11372 0.27878 -0.06508
 C1908 C 0.13400 0.28365 -0.05447
 C1909 C 0.13562 0.30171 -0.03995
 C1910 C 0.11635 0.31521 -0.03568
 C1911 C 0.11851 0.33229 -0.01961
 C1912 C 0.13926 0.33685 -0.00965
 C1913 C 0.15868 0.32466 -0.01528
 C1914 C 0.15656 0.30664 -0.03002
 H1915 H 0.08235 0.25547 -0.08819
 H1916 H 0.02281 0.31450 -0.08540
 H1917 H 0.04832 0.25183 -0.11000
 H1918 H 0.04410 0.33505 -0.05818
 H1919 H 0.07736 0.34111 -0.03671
 H1920 H 0.11407 0.26476 -0.07627
 H1921 H 0.14862 0.27318 -0.05775
 H1922 H 0.10444 0.34232 -0.01417
 H1923 H 0.14007 0.35015 0.00249
 H1924 H 0.17133 0.29687 -0.03441
 C1925 C 0.44525 0.25745 0.08323
 C1926 C 0.42610 0.26613 0.09444
 C1927 C 0.42884 0.27189 0.11741
 C1928 C 0.44997 0.27019 0.12807
 C1929 C 0.46884 0.26258 0.11642
 C1930 C 0.46624 0.25563 0.09418
 C1931 C 0.41059 0.27967 0.12967
 C1932 C 0.38964 0.28267 0.11953
 C1933 C 0.38608 0.27831 0.09642
 C1934 C 0.40455 0.26969 0.08368
 C1935 C 0.40100 0.26564 0.06050
 C1936 C 0.38050 0.27067 0.04988
 C1937 C 0.36260 0.27972 0.06189
 C1938 C 0.36488 0.28308 0.08545
 C1939 C 0.34597 0.29176 0.09689
 C1940 C 0.32638 0.29826 0.08518
 C1941 C 0.32465 0.29610 0.06170
 C1942 C 0.34264 0.28612 0.05027
 H1943 H 0.44467 0.25204 0.06601
 H1944 H 0.45180 0.27492 0.14558
 H1945 H 0.48063 0.24935 0.08504
 H1946 H 0.41259 0.28379 0.14733
 H1947 H 0.37668 0.28901 0.13032
 H1948 H 0.41398 0.25912 0.04983
 H1949 H 0.37879 0.26783 0.03192
 H1950 H 0.34580 0.29432 0.11484
 H1951 H 0.31290 0.30601 0.09453
 H1952 H 0.34135 0.28390 0.03217
 C1953 C 0.94527 0.74870 0.58164
 C1954 C 0.93648 0.76891 0.57145
 C1955 C 0.95087 0.78778 0.57011
 C1956 C 0.97179 0.78724 0.58126
 C1957 C 0.97942 0.76780 0.59330
 C1958 C 0.96650 0.74811 0.59213
 C1959 C 0.94399 0.80745 0.55841
 C1960 C 0.92274 0.80916 0.54857
 C1961 C 0.90708 0.79151 0.55094
 C1962 C 0.91387 0.77125 0.56305
 C1963 C 0.89744 0.75474 0.56771
 C1964 C 0.87501 0.75821 0.56140
 C1965 C 0.86824 0.77773 0.54927
 C1966 C 0.88444 0.79407 0.54282
 C1967 C 0.87717 0.81257 0.52882
 C1968 C 0.85452 0.81561 0.52309
 C1969 C 0.83837 0.80046 0.53112
 C1970 C 0.84530 0.78129 0.54388
 H1971 H 0.93600 0.73315 0.58196
 H1972 H 0.98207 0.80227 0.58088
 H1973 H 0.97174 0.73260 0.60086
 H1974 H 0.95504 0.82186 0.55711
 H1975 H 0.91861 0.82519 0.54041
 H1976 H 0.90120 0.73945 0.57742
 H1977 H 0.86280 0.74552 0.56618
 H1978 H 0.88857 0.82492 0.52188
 H1979 H 0.84946 0.83034 0.51290
 H1980 H 0.83282 0.76930 0.54972
   
