data_POSCAR
  _audit_creation_date              2014-09-24
  _audit_creation_method            'ToBaCCo'
  _symmetry_space_group_name_H-M    'P1'
  _symmetry_Int_Tables_number       1
  _symmetry_cell_setting            triclinic
  loop_
  _symmetry_equiv_pos_as_xyz
 x,y,z
_cell_length_a 40.3930
_cell_length_b 41.0763
_cell_length_c 41.3573
_cell_angle_alpha 91.436600
_cell_angle_beta 90.833500
_cell_angle_gamma 91.729700
loop_
  _atom_site_label
  _atom_site_type_symbol
  _atom_site_fract_x
  _atom_site_fract_y
  _atom_site_fract_z
C1 C 0.71067 0.67519 0.96197
 H2 H 0.73495 0.68702 0.96203
 C3 C 0.68422 0.68874 0.94506
 H4 H 0.68879 0.71073 0.93178
 C5 C 0.67577 0.63127 0.97770
 H6 H 0.67245 0.60863 0.99018
 C7 C 0.64869 0.64441 0.96236
 H8 H 0.62489 0.63193 0.96441
 N9 N 0.70593 0.64686 0.97784
 C10 C 0.77901 0.65592 1.04924
 H11 H 0.76023 0.64626 1.06491
 C12 C 0.80855 0.66823 1.06300
 H13 H 0.81172 0.66815 1.08906
 C14 C 0.79825 0.66675 0.99670
 H15 H 0.79452 0.66501 0.97075
 C16 C 0.82875 0.67880 1.00957
 H17 H 0.84821 0.68632 0.99339
 Zn18 Zn 0.73937 0.62515 1.00101
 N19 N 0.77500 0.65359 1.01654
 C20 C 0.78835 0.59096 0.96670
 N21 N 0.75543 0.59200 0.97275
 C22 C 0.73330 0.57208 0.95607
 C23 C 0.74377 0.55184 0.93072
 C24 C 0.79979 0.57172 0.94123
 C25 C 0.69500 0.62459 1.05145
 C26 C 0.67799 0.61333 1.07806
 C27 C 0.71290 0.56663 1.07841
 C28 C 0.72834 0.57827 1.05061
 N29 N 0.71886 0.60663 1.03758
 H30 H 0.80587 0.60592 0.98076
 H31 H 0.70728 0.57270 0.96156
 H32 H 0.72559 0.53662 0.91754
 H33 H 0.82587 0.57342 0.93577
 H34 H 0.68918 0.64801 1.04182
 H35 H 0.65984 0.62921 1.08840
 H36 H 0.72057 0.54351 1.08744
 H37 H 0.74796 0.56476 1.03954
 C38 C 0.83470 0.67788 1.04310
 C39 C 0.65253 0.67327 0.94513
 C40 C 0.68643 0.58371 1.09232
 C41 C 0.77736 0.55223 0.92223
 C42 C 0.72831 0.36399 0.54351
 H43 H 0.75235 0.36335 0.55503
 C44 C 0.70221 0.34516 0.55570
 H45 H 0.70712 0.32935 0.57566
 C46 C 0.69227 0.38663 0.50512
 H47 H 0.68787 0.40375 0.48632
 C48 C 0.66538 0.36848 0.51681
 H49 H 0.64094 0.37195 0.50662
 N50 N 0.72315 0.38415 0.51845
 C51 C 0.80840 0.39392 0.46066
 H52 H 0.79779 0.41217 0.44570
 C53 C 0.83515 0.37658 0.44908
 H54 H 0.84443 0.38165 0.42524
 C55 C 0.81073 0.36664 0.51028
 H56 H 0.80195 0.36338 0.53447
 C57 C 0.83756 0.34868 0.49961
 H58 H 0.84818 0.33104 0.51544
 Zn59 Zn 0.75864 0.41238 0.50471
 N60 N 0.79607 0.38823 0.49053
 C61 C 0.80396 0.44344 0.54845
 N62 N 0.77130 0.43989 0.54038
 C63 C 0.74750 0.45239 0.55967
 C64 C 0.75614 0.46717 0.58963
 C65 C 0.81362 0.45791 0.57806
 C66 C 0.73222 0.41933 0.44326
 C67 C 0.71588 0.43431 0.41814
 C68 C 0.72298 0.48591 0.44725
 C69 C 0.73910 0.46978 0.47215
 N70 N 0.74259 0.43692 0.46999
 H71 H 0.82245 0.43348 0.53271
 H72 H 0.72169 0.44902 0.55272
 H73 H 0.73694 0.47493 0.60585
 H74 H 0.83956 0.45869 0.58513
 H75 H 0.73522 0.39324 0.44227
 H76 H 0.70634 0.41972 0.39770
 H77 H 0.71884 0.51178 0.44965
 H78 H 0.74756 0.48322 0.49367
 C79 C 0.84980 0.35317 0.46840
 C80 C 0.67004 0.34767 0.54275
 C81 C 0.71044 0.46777 0.42039
 C82 C 0.78949 0.46885 0.59948
 C83 C 0.22383 -0.18059 0.02393
 H84 H 0.24814 -0.18049 0.03526
 C85 C 0.19854 -0.20136 0.03507
 H86 H 0.20367 -0.21739 0.05480
 C87 C 0.18697 -0.15888 -0.01441
 H88 H 0.18191 -0.14156 -0.03289
 C89 C 0.16125 -0.17942 -0.00436
 H90 H 0.13689 -0.17756 -0.01533
 N91 N 0.21757 -0.15956 -0.00018
 C92 C 0.30900 -0.12717 -0.04541
 H93 H 0.30212 -0.10229 -0.04856
 C94 C 0.33640 -0.13847 -0.06153
 H95 H 0.35105 -0.12166 -0.07566
 C96 C 0.29663 -0.17974 -0.02574
 H97 H 0.28040 -0.19593 -0.01265
 C98 C 0.32411 -0.19224 -0.04175
 H99 H 0.32897 -0.21797 -0.04074
 Zn100 Zn 0.25012 -0.12814 -0.01362
 N101 N 0.28952 -0.14766 -0.02809
 C102 C 0.28433 -0.07356 0.01599
 N103 N 0.26118 -0.09764 0.02089
 C104 C 0.24917 -0.10278 0.05102
 C105 C 0.26266 -0.08546 0.07792
 C106 C 0.29878 -0.05604 0.04218
 C107 C 0.23058 -0.12976 -0.07636
 C108 C 0.21826 -0.12025 -0.10599
 C109 C 0.21249 -0.06596 -0.08344
 C110 C 0.22506 -0.07678 -0.05388
 N111 N 0.23324 -0.10839 -0.05091
 H112 H 0.29282 -0.06876 -0.00803
 H113 H 0.23035 -0.12150 0.05460
 H114 H 0.25425 -0.09123 0.10191
 H115 H 0.31848 -0.03824 0.03797
 H116 H 0.23812 -0.15459 -0.07349
 H117 H 0.21843 -0.13826 -0.12546
 H118 H 0.20473 -0.04105 -0.08404
 H119 H 0.22769 -0.06013 -0.03326
 C120 C 0.34380 -0.17149 -0.06059
 C121 C 0.16666 -0.20065 0.02103
 C122 C 0.20791 -0.08801 -0.11031
 C123 C 0.28881 -0.06280 0.07369
 C124 C 0.20532 0.16312 0.44305
 H125 H 0.22628 0.15699 0.42835
 C126 C 0.17934 0.18023 0.42967
 H127 H 0.18064 0.18670 0.40451
 C128 C 0.17762 0.16007 0.49299
 H129 H 0.17691 0.15174 0.51756
 C130 C 0.15121 0.17757 0.48069
 H131 H 0.13071 0.18305 0.49628
 N132 N 0.20389 0.15309 0.47405
 C133 C 0.29923 0.13475 0.52119
 H134 H 0.29708 0.10856 0.52325
 C135 C 0.32738 0.15163 0.53349
 H136 H 0.34671 0.13841 0.54535
 C137 C 0.27627 0.18387 0.50375
 H138 H 0.25631 0.19625 0.49203
 C139 C 0.30372 0.20181 0.51636
 H140 H 0.30469 0.22807 0.51442
 Zn141 Zn 0.23766 0.12584 0.48913
 N142 N 0.27460 0.15091 0.50624
 C143 C 0.28440 0.09875 0.44706
 N144 N 0.25156 0.09927 0.45373
 C145 C 0.22875 0.08326 0.43405
 C146 C 0.23875 0.06626 0.40624
 C147 C 0.29540 0.08205 0.41982
 C148 C 0.22335 0.11231 0.55334
 C149 C 0.20963 0.09531 0.57892
 C150 C 0.19012 0.05329 0.54072
 C151 C 0.20442 0.07101 0.51587
 N152 N 0.22045 0.10005 0.52254
 H153 H 0.30228 0.11203 0.46222
 H154 H 0.20266 0.08476 0.43921
 H155 H 0.22030 0.05461 0.39020
 H156 H 0.32168 0.08227 0.41495
 H157 H 0.23574 0.13569 0.55798
 H158 H 0.21151 0.10581 0.60318
 H159 H 0.17727 0.03031 0.53502
 H160 H 0.20229 0.06170 0.49129
 C161 C 0.32977 0.18559 0.53124
 C162 C 0.15162 0.18765 0.44845
 C163 C 0.19248 0.06556 0.57269
 C164 C 0.27247 0.06617 0.39858
 C165 C 0.19200 0.43775 0.20606
 H166 H 0.19157 0.42842 0.23029
 C167 C 0.21445 0.42576 0.18366
 H168 H 0.23150 0.40739 0.19100
 C169 C 0.16970 0.47242 0.16690
 H170 H 0.15166 0.48999 0.16013
 C171 C 0.19157 0.46102 0.14373
 H172 H 0.18980 0.46983 0.11933
 N173 N 0.17013 0.46057 0.19732
 C174 C 0.13562 0.50691 0.28536
 H175 H 0.10970 0.50680 0.27839
 C176 C 0.14566 0.51927 0.31563
 H177 H 0.12735 0.52891 0.33186
 C178 C 0.19072 0.49324 0.27290
 H179 H 0.20805 0.48286 0.25620
 C180 C 0.20184 0.50505 0.30335
 H181 H 0.22786 0.50408 0.30984
 Zn182 Zn 0.13818 0.47446 0.22720
 N183 N 0.15796 0.49395 0.26485
 C184 C 0.12281 0.42676 0.27046
 N185 N 0.11273 0.43767 0.24126
 C186 C 0.08633 0.42312 0.22514
 C187 C 0.06675 0.39925 0.24025
 C188 C 0.10444 0.40300 0.28608
 C189 C 0.13050 0.53586 0.20445
 C190 C 0.11549 0.56274 0.19140
 C191 C 0.06405 0.53124 0.18707
 C192 C 0.07991 0.50507 0.20096
 N193 N 0.11279 0.50762 0.20872
 H194 H 0.14493 0.43694 0.28221
 H195 H 0.07984 0.43054 0.20104
 H196 H 0.04472 0.38915 0.22807
 H197 H 0.11266 0.39547 0.30972
 H198 H 0.15649 0.53739 0.21120
 H199 H 0.12993 0.58500 0.18797
 H200 H 0.03801 0.52897 0.18050
 H201 H 0.06584 0.48301 0.20548
 C202 C 0.17905 0.51811 0.32507
 C203 C 0.21404 0.43703 0.15183
 C204 C 0.08203 0.56039 0.18228
 C205 C 0.07515 0.39001 0.27175
 C206 C -0.16480 0.01214 0.23679
 H207 H -0.16633 0.02155 0.26137
 C208 C -0.18057 0.02810 0.21177
 H209 H -0.19571 0.04838 0.21843
 C210 C -0.14319 -0.02589 0.19949
 H211 H -0.12745 -0.04614 0.19453
 C212 C -0.15821 -0.01041 0.17358
 H213 H -0.15313 -0.01948 0.14947
 N214 N -0.14603 -0.01398 0.23029
 C215 C -0.12378 -0.05972 0.32270
 H216 H -0.09800 -0.06432 0.31819
 C217 C -0.13771 -0.06863 0.35199
 H218 H -0.12258 -0.08080 0.36950
 C219 C -0.17453 -0.03826 0.30508
 H220 H -0.18875 -0.02623 0.28686
 C221 C -0.18944 -0.04658 0.33424
 H222 H -0.21498 -0.04046 0.33812
 Zn223 Zn -0.11818 -0.02888 0.26392
 N224 N -0.14198 -0.04419 0.30023
 C225 C -0.09084 0.01775 0.30888
 N226 N -0.09068 0.00743 0.27739
 C227 C -0.07412 0.02479 0.25475
 C228 C -0.05771 0.05433 0.26336
 C229 C -0.07486 0.04702 0.31847
 C230 C -0.10940 -0.09140 0.23859
 C231 C -0.09275 -0.11681 0.22367
 C232 C -0.04191 -0.08439 0.22882
 C233 C -0.05957 -0.05958 0.24368
 N234 N -0.09283 -0.06324 0.24753
 H235 H -0.10448 0.00407 0.32650
 H236 H -0.07485 0.01636 0.22975
 H237 H -0.04585 0.06858 0.24487
 H238 H -0.07598 0.05518 0.34352
 H239 H -0.13586 -0.09361 0.24210
 H240 H -0.10665 -0.13849 0.21548
 H241 H -0.01552 -0.08091 0.22543
 H242 H -0.04680 -0.03719 0.25145
 C243 C -0.17079 -0.06144 0.35847
 C244 C -0.17620 0.01810 0.17912
 C245 C -0.05865 -0.11322 0.21805
 C246 C -0.05879 0.06615 0.29545
 C247 C 0.31783 0.53941 0.70390
 H248 H 0.31747 0.55313 0.72648
 C249 C 0.29592 0.54686 0.67905
 H250 H 0.27922 0.56669 0.68277
 C251 C 0.34091 0.49784 0.67137
 H252 H 0.35847 0.47873 0.66847
 C253 C 0.31942 0.50461 0.64571
 H254 H 0.32060 0.49055 0.62329
 N255 N 0.34018 0.51568 0.69955
 C256 C 0.36955 0.50126 0.79912
 H257 H 0.39501 0.50999 0.79772
 C258 C 0.35708 0.49116 0.82849
 H259 H 0.37311 0.49218 0.84974
 C260 C 0.31807 0.48853 0.77275
 H261 H 0.30327 0.48711 0.75073
 C262 C 0.30453 0.47802 0.80183
 H263 H 0.27938 0.46813 0.80203
 Zn264 Zn 0.37174 0.51079 0.73334
 N265 N 0.35030 0.49915 0.77190
 C266 C 0.37651 0.57234 0.76124
 N267 N 0.39341 0.55188 0.74164
 C268 C 0.42318 0.56122 0.72926
 C269 C 0.43666 0.59252 0.73615
 C270 C 0.38913 0.60342 0.76897
 C271 C 0.40263 0.45070 0.74071
 C272 C 0.42180 0.42435 0.73176
 C273 C 0.44021 0.45419 0.68546
 C274 C 0.42061 0.47999 0.69527
 N275 N 0.40194 0.47769 0.72227
 H276 H 0.35316 0.56439 0.77126
 H277 H 0.43650 0.54467 0.71395
 H278 H 0.46010 0.59976 0.72574
 H279 H 0.37541 0.61870 0.78538
 H280 H 0.38727 0.44883 0.76175
 H281 H 0.42069 0.40260 0.74601
 H282 H 0.45434 0.45626 0.66352
 H283 H 0.41916 0.50124 0.68048
 C284 C 0.32450 0.47850 0.82992
 C285 C 0.29680 0.52970 0.64930
 C286 C 0.44038 0.42558 0.70342
 C287 C 0.41939 0.61416 0.75612
 C288 C 0.68903 1.00917 0.72481
 H289 H 0.70044 1.01388 0.74833
 C290 C 0.70792 0.99681 0.69940
 H291 H 0.73385 0.99248 0.70382
 C292 C 0.64178 1.01032 0.69043
 H293 H 0.61601 1.01604 0.68700
 C294 C 0.65941 0.99730 0.66468
 H295 H 0.64629 0.99210 0.64207
 N296 N 0.65635 1.01492 0.72008
 C297 C 0.65732 1.06975 0.80545
 H298 H 0.64758 1.08999 0.79256
 C299 C 0.67201 1.07528 0.83593
 H300 H 0.67288 1.10001 0.84562
 C301 C 0.66492 1.01310 0.80918
 H302 H 0.66161 0.98882 0.79865
 C303 C 0.67890 1.01738 0.84021
 H304 H 0.68735 0.99614 0.85250
 Zn305 Zn 0.62905 1.03050 0.75381
 N306 N 0.65407 1.03906 0.79264
 C307 C 0.58545 0.99925 0.79483
 N308 N 0.59644 0.99835 0.76394
 C309 C 0.58818 0.97288 0.74346
 C310 C 0.56951 0.94629 0.75436
 C311 C 0.56784 0.97271 0.80707
 C312 C 0.63012 1.09233 0.72811
 C313 C 0.61779 1.11907 0.71232
 C314 C 0.56228 1.09712 0.71932
 C315 C 0.57574 1.07071 0.73525
 N316 N 0.60917 1.06858 0.73875
 H317 H 0.59233 1.01972 0.81073
 H318 H 0.59699 0.97237 0.71899
 H319 H 0.56341 0.92638 0.73751
 H320 H 0.56199 0.97326 0.83249
 H321 H 0.65660 1.08982 0.73085
 H322 H 0.63504 1.13737 0.70349
 H323 H 0.53575 1.09774 0.71532
 H324 H 0.55958 1.05127 0.74351
 C325 C 0.68288 1.04891 0.85425
 C326 C 0.69298 0.98993 0.66887
 C327 C 0.58352 1.12126 0.70681
 C328 C 0.56034 0.94520 0.78703
 C329 C 0.04539 0.19624 -0.16164
 H330 H 0.04908 0.21846 -0.17465
 C331 C 0.05256 0.16635 -0.17656
 H332 H 0.06257 0.16645 -0.20067
 C333 C 0.03001 0.16956 -0.11388
 H334 H 0.02197 0.17085 -0.08909
 C335 C 0.03558 0.13923 -0.12820
 H336 H 0.03043 0.11778 -0.11429
 N337 N 0.03418 0.19731 -0.13082
 C338 C -0.02263 0.28153 -0.12747
 H339 H -0.03668 0.27128 -0.10802
 C340 C -0.03442 0.30882 -0.14249
 H341 H -0.05728 0.31876 -0.13391
 C342 C 0.02576 0.28324 -0.15903
 H343 H 0.05001 0.27418 -0.16417
 C344 C 0.01440 0.31035 -0.17540
 H345 H 0.02951 0.32093 -0.19405
 Zn346 Zn 0.02352 0.23665 -0.10846
 N347 N 0.00702 0.26924 -0.13572
 C348 C 0.05940 0.28543 -0.07524
 N349 N 0.06129 0.25453 -0.08729
 C350 C 0.09011 0.23829 -0.08655
 C351 C 0.11879 0.25341 -0.07330
 C352 C 0.08746 0.30157 -0.06216
 C353 C -0.03444 0.20641 -0.09180
 C354 C -0.05929 0.19374 -0.07269
 C355 C -0.03557 0.22423 -0.02681
 C356 C -0.00994 0.23512 -0.04682
 N357 N -0.00976 0.22567 -0.07858
 H358 H 0.03621 0.29786 -0.07670
 H359 H 0.09096 0.21377 -0.09658
 H360 H 0.14149 0.24007 -0.07261
 H361 H 0.08560 0.32660 -0.05374
 H362 H -0.03429 0.20025 -0.11738
 H363 H -0.07854 0.17886 -0.08476
 H364 H -0.03445 0.23146 -0.00148
 H365 H 0.00984 0.25083 -0.03691
 C366 C -0.01610 0.32367 -0.16703
 C367 C 0.04737 0.13708 -0.15995
 C368 C -0.06018 0.20186 -0.03928
 C369 C 0.11774 0.28561 -0.06114
 C370 C 0.48745 0.22620 0.18123
 H371 H 0.48206 0.25086 0.18876
 C372 C 0.46750 0.20015 0.19146
 H373 H 0.44716 0.20482 0.20754
 C374 C 0.51912 0.19019 0.14938
 H375 H 0.53827 0.18659 0.13178
 C376 C 0.50011 0.16347 0.15932
 H377 H 0.50512 0.13942 0.14961
 N378 N 0.51225 0.22083 0.16005
 C379 C 0.52710 0.32192 0.16002
 H380 H 0.51128 0.32370 0.13901
 C381 C 0.53551 0.35025 0.17790
 H382 H 0.52693 0.37324 0.16932
 C383 C 0.55813 0.29020 0.19569
 H384 H 0.56682 0.26675 0.20265
 C385 C 0.56663 0.31791 0.21474
 H386 H 0.58176 0.31523 0.23625
 Zn387 Zn 0.53301 0.25619 0.13912
 N388 N 0.53974 0.29281 0.16813
 C389 C 0.47344 0.25482 0.10320
 N390 N 0.50466 0.26816 0.10479
 C391 C 0.51427 0.29218 0.08456
 C392 C 0.49138 0.30536 0.06341
 C393 C 0.44966 0.26760 0.08286
 C394 C 0.59543 0.22886 0.14423
 C395 C 0.62360 0.21347 0.13328
 C396 C 0.60859 0.22720 0.07866
 C397 C 0.58032 0.24179 0.09057
 N398 N 0.57405 0.24206 0.12286
 H399 H 0.46621 0.23554 0.11911
 H400 H 0.53918 0.30258 0.08636
 H401 H 0.49923 0.32524 0.04835
 H402 H 0.42439 0.25822 0.08403
 H403 H 0.58953 0.22833 0.16958
 H404 H 0.63947 0.20152 0.15035
 H405 H 0.61255 0.22583 0.05281
 H406 H 0.56269 0.25125 0.07369
 C407 C 0.55642 0.34877 0.20518
 C408 C 0.47338 0.16840 0.17993
 C409 C 0.63000 0.21209 0.10010
 C410 C 0.45820 0.29405 0.06349
 C411 C 0.93566 0.70011 0.68480
 H412 H 0.92095 0.72165 0.68644
 C413 C 0.92835 0.67365 0.70435
 H414 H 0.90741 0.67504 0.72030
 C415 C 0.97994 0.67205 0.66121
 H416 H 1.00005 0.67136 0.64431
 C417 C 0.97383 0.64525 0.68066
 H418 H 0.98973 0.62458 0.67868
 N419 N 0.96070 0.69868 0.66326
 C420 C 0.99034 0.79842 0.63858
 H421 H 0.99086 0.79507 0.61269
 C422 C 1.00220 0.82777 0.65237
 H423 H 1.01106 0.84689 0.63682
 C424 C 0.98043 0.77703 0.69033
 H425 H 0.97270 0.75687 0.70502
 C426 C 0.99197 0.80638 0.70526
 H427 H 0.99314 0.80864 0.73140
 Zn428 Zn 0.96922 0.73362 0.63464
 N429 N 0.98022 0.77350 0.65747
 C430 C 0.93786 0.75926 0.58048
 N431 N 0.93216 0.74073 0.60673
 C432 C 0.90085 0.73027 0.61385
 C433 C 0.87372 0.74049 0.59568
 C434 C 0.91158 0.77026 0.56192
 C435 C 1.03672 0.73412 0.61990
 C436 C 1.06495 0.72583 0.60296
 C437 C 1.03009 0.69466 0.56476
 C438 C 1.00242 0.70373 0.58237
 N439 N 1.00624 0.72309 0.60940
 H440 H 0.96289 0.76633 0.57434
 H441 H 0.89658 0.71486 0.63418
 H442 H 0.84901 0.73245 0.60224
 H443 H 0.91699 0.78661 0.54246
 H444 H 1.03923 0.74882 0.64189
 H445 H 1.08904 0.73423 0.61214
 H446 H 1.02671 0.67912 0.54336
 H447 H 0.97793 0.69501 0.57478
 C448 C 1.00375 0.83183 0.68606
 C449 C 0.94747 0.64555 0.70240
 C450 C 1.06187 0.70565 0.57515
 C451 C 0.87882 0.76166 0.56989
 C452 C 0.51315 0.72888 0.35636
 H453 H 0.52878 0.75036 0.36111
 C454 C 0.52655 0.70111 0.34236
 H455 H 0.55267 0.70172 0.33697
 C456 C 0.46088 0.70176 0.36058
 H457 H 0.43544 0.70203 0.36831
 C458 C 0.47308 0.67360 0.34583
 H459 H 0.45645 0.65271 0.34171
 N460 N 0.48109 0.72852 0.36581
 C461 C 0.44738 0.82835 0.37633
 H462 H 0.44623 0.83106 0.40237
 C463 C 0.43789 0.85389 0.35697
 H464 H 0.42959 0.87590 0.36883
 C465 C 0.45674 0.79497 0.33012
 H466 H 0.46396 0.77186 0.31980
 C467 C 0.44611 0.81943 0.30979
 H468 H 0.44634 0.81483 0.28392
 Zn469 Zn 0.46727 0.76497 0.39050
 N470 N 0.45707 0.79976 0.36277
 C471 C 0.51520 0.80810 0.42191
 N472 N 0.50303 0.77685 0.41941
 C473 C 0.51911 0.75219 0.43375
 C474 C 0.54922 0.75833 0.45021
 C475 C 0.54464 0.81541 0.43893
 C476 C 0.39908 0.76310 0.40090
 C477 C 0.36921 0.75039 0.41217
 C478 C 0.39977 0.71786 0.44945
 C479 C 0.42926 0.73111 0.43728
 N480 N 0.42837 0.75275 0.41289
 H481 H 0.50313 0.82733 0.40958
 H482 H 0.50964 0.72740 0.43066
 H483 H 0.56255 0.73833 0.46022
 H484 H 0.55451 0.84025 0.43985
 H485 H 0.39869 0.77969 0.38108
 H486 H 0.34616 0.75760 0.40114
 H487 H 0.40074 0.69926 0.46752
 H488 H 0.45275 0.72283 0.44615
 C489 C 0.43657 0.84968 0.32303
 C490 C 0.50659 0.67271 0.33702
 C491 C 0.36939 0.72673 0.43597
 C492 C 0.56236 0.79025 0.45256
 C493 C 0.37135 0.01093 0.23975
 C494 C 0.11973 0.98910 0.73615
 C495 C 0.61785 0.52956 0.26250
 C496 C 0.87974 0.47659 0.77319
 C497 C 0.29471 0.37120 -0.01201
 C498 C 0.77648 0.11251 1.01805
 C499 C 0.21591 0.61398 0.49501
 C500 C 0.73145 0.87702 0.51584
 C501 C -0.01859 0.24777 0.36743
 C502 C 1.01226 0.73041 0.12297
 C503 C 0.50023 0.26526 0.60662
 C504 C 0.50783 0.76620 0.85016
 C505 C 0.40700 -0.13284 0.27421
 C506 C 0.42486 -0.12531 0.30318
 C507 C 0.42985 -0.09214 0.31237
 C508 C 0.41690 -0.06738 0.29360
 C509 C 0.39765 -0.07547 0.26570
 C510 C 0.39309 -0.10828 0.25607
 C511 C 0.38294 -0.05075 0.24807
 C512 C 0.38863 -0.01745 0.25680
 C513 C 0.40898 -0.01011 0.28432
 C514 C 0.42265 -0.03462 0.30253
 H515 H 0.44466 -0.08533 0.33366
 H516 H 0.37854 -0.11501 0.23458
 H517 H 0.36662 -0.05804 0.22811
 H518 H 0.43759 -0.02788 0.32376
 H519 H 0.40190 -0.15784 0.26636
 H520 H 0.41385 0.01496 0.29211
 C521 C 0.99250 0.37878 0.80739
 C522 C 0.97115 0.35334 0.81745
 C523 C 0.93681 0.35723 0.81468
 C524 C 0.92394 0.38649 0.80451
 C525 C 0.94532 0.41202 0.79452
 C526 C 0.97968 0.40769 0.79567
 C527 C 0.93191 0.44138 0.78407
 C528 C 0.89724 0.44545 0.78401
 C529 C 0.87687 0.42000 0.79605
 C530 C 0.88987 0.39076 0.80528
 H531 H 0.91978 0.33765 0.82115
 H532 H 0.99665 0.42696 0.78831
 H533 H 0.94851 0.46085 0.77668
 H534 H 0.87321 0.37161 0.81348
 H535 H 1.01910 0.37681 0.80944
 H536 H 0.85028 0.42251 0.79712
 C537 C 0.06458 1.07865 0.84432
 C538 C 0.05515 1.10474 0.82496
 C539 C 0.05437 1.09988 0.79109
 C540 C 0.06512 1.07069 0.77697
 C541 C 0.07471 1.04507 0.79669
 C542 C 0.07346 1.04895 0.83035
 C543 C 0.08760 1.01684 0.78261
 C544 C 0.09570 1.01541 0.74936
 C545 C 0.08304 1.04019 0.72984
 C546 C 0.06769 1.06718 0.74344
 H547 H 0.04634 1.11901 0.77553
 H548 H 0.08113 1.02963 0.84592
 H549 H 0.09399 0.99715 0.79825
 H550 H 0.05958 1.08622 0.72775
 H551 H 0.06633 1.08128 0.87035
 H552 H 0.08551 1.04004 0.70406
 C553 C 0.50954 0.61123 0.33268
 C554 C 0.52116 0.64232 0.32347
 C555 C 0.54814 0.64427 0.30239
 C556 C 0.56421 0.61619 0.29210
 C557 C 0.55238 0.58518 0.30139
 C558 C 0.52476 0.58297 0.32147
 C559 C 0.56886 0.55709 0.29106
 C560 C 0.59720 0.55955 0.27147
 C561 C 0.60965 0.59116 0.26461
 C562 C 0.59283 0.61888 0.27374
 H563 H 0.55714 0.66772 0.29423
 H564 H 0.51541 0.55945 0.32916
 H565 H 0.56001 0.53346 0.29885
 H566 H 0.60288 0.64257 0.26731
 H567 H 0.48925 0.60864 0.34930
 H568 H 0.63282 0.59469 0.25218
 C569 C 0.60264 0.38052 0.23362
 C570 C 0.56991 0.37930 0.22144
 C571 C 0.55165 0.40813 0.22230
 C572 C 0.56643 0.43779 0.23367
 C573 C 0.59943 0.43842 0.24517
 C574 C 0.61712 0.40966 0.24558
 C575 C 0.61481 0.46793 0.25517
 C576 C 0.59791 0.49755 0.25454
 C577 C 0.56511 0.49669 0.24226
 C578 C 0.54938 0.46706 0.23250
 H579 H 0.52625 0.40775 0.21350
 H580 H 0.64258 0.40988 0.25424
 H581 H 0.64055 0.46795 0.26291
 H582 H 0.52420 0.46719 0.22313
 H583 H 0.61776 0.35923 0.23273
 H584 H 0.55182 0.51890 0.23930
 C585 C 0.00530 0.88104 0.72379
 C586 C 0.02051 0.86146 0.70036
 C587 C 0.05192 0.87082 0.68922
 C588 C 0.06778 0.89967 0.70063
 C589 C 0.05211 0.91995 0.72343
 C590 C 0.02090 0.91022 0.73511
 C591 C 0.06806 0.94930 0.73429
 C592 C 0.09982 0.95850 0.72289
 C593 C 0.11523 0.93682 0.70103
 C594 C 0.09926 0.90827 0.68968
 H595 H 0.06404 0.85548 0.67154
 H596 H 0.00851 0.92523 0.75281
 H597 H 0.05588 0.96437 0.75202
 H598 H 0.11186 0.89261 0.67269
 H599 H -0.01895 0.87417 0.73267
 H600 H 0.14026 0.94168 0.69306
 C601 C 0.92593 0.62110 0.75338
 C602 C 0.93938 0.61668 0.72245
 C603 C 0.94362 0.58455 0.71047
 C604 C 0.93281 0.55757 0.72831
 C605 C 0.91748 0.56273 0.75829
 C606 C 0.91494 0.59449 0.77099
 C607 C 0.90318 0.53638 0.77443
 C608 C 0.90360 0.50414 0.76127
 C609 C 0.92136 0.49929 0.73243
 C610 C 0.93561 0.52561 0.71612
 H611 H 0.95380 0.58046 0.68669
 H612 H 0.90367 0.59883 0.79426
 H613 H 0.88968 0.54209 0.79607
 H614 H 0.94760 0.52105 0.69325
 H615 H 0.92340 0.64527 0.76391
 H616 H 0.92220 0.47519 0.72130
 C617 C 0.41613 0.14444 0.18489
 C618 C 0.45054 0.14086 0.18754
 C619 C 0.46288 0.11071 0.19660
 C620 C 0.44106 0.08480 0.20404
 C621 C 0.40654 0.08880 0.20152
 C622 C 0.39432 0.11854 0.19153
 C623 C 0.38475 0.06353 0.21041
 C624 C 0.39666 0.03516 0.22471
 C625 C 0.43121 0.03058 0.22469
 C626 C 0.45308 0.05517 0.21455
 H627 H 0.48940 0.10775 0.19871
 H628 H 0.36789 0.12200 0.18948
 H629 H 0.35827 0.06703 0.20895
 H630 H 0.47949 0.05134 0.21580
 H631 H 0.40611 0.16724 0.17733
 H632 H 0.44174 0.00833 0.23288
 C633 C 0.28229 0.46809 -0.12674
 C634 C 0.31334 0.46243 -0.14035
 C635 C 0.33437 0.44048 -0.12570
 C636 C 0.32496 0.42453 -0.09775
 C637 C 0.29409 0.43055 -0.08361
 C638 C 0.27281 0.45242 -0.09838
 C639 C 0.28498 0.41412 -0.05543
 C640 C 0.30639 0.39171 -0.04105
 C641 C 0.33641 0.38528 -0.05707
 C642 C 0.34580 0.40194 -0.08437
 H643 H 0.35800 0.43529 -0.13653
 H644 H 0.24888 0.45728 -0.08812
 H645 H 0.26099 0.41826 -0.04493
 H646 H 0.36914 0.39642 -0.09557
 H647 H 0.26564 0.48489 -0.13780
 H648 H 0.35281 0.36653 -0.04965
 C649 C 0.83413 0.93450 0.41899
 C650 C 0.81467 0.93101 0.39049
 C651 C 0.78147 0.92000 0.39287
 C652 C 0.76831 0.91173 0.42297
 C653 C 0.78837 0.91454 0.45118
 C654 C 0.82113 0.92635 0.44898
 C655 C 0.77561 0.90476 0.48098
 C656 C 0.74343 0.89047 0.48300
 C657 C 0.72298 0.89051 0.45489
 C658 C 0.73542 0.90051 0.42529
 H659 H 0.76612 0.91695 0.37124
 H660 H 0.83686 0.92894 0.47039
 H661 H 0.79127 0.90666 0.50250
 H662 H 0.71928 0.89923 0.40410
 H663 H 0.85949 0.94369 0.41816
 H664 H 0.69717 0.88296 0.45528
 C665 C 0.80815 0.07117 1.15827
 C666 C 0.81280 0.03746 1.15307
 C667 C 0.80805 0.02458 1.12100
 C668 C 0.79951 0.04490 1.09532
 C669 C 0.79562 0.07832 1.10161
 C670 C 0.79976 0.09115 1.13301
 C671 C 0.78816 0.09889 1.07641
 C672 C 0.78247 0.08698 1.04436
 C673 C 0.78783 0.05365 1.03799
 C674 C 0.79568 0.03276 1.06329
 H675 H 0.81032 -0.00117 1.11575
 H676 H 0.79708 0.11697 1.13802
 H677 H 0.78696 0.12477 1.08188
 H678 H 0.79946 0.00725 1.05768
 H679 H 0.81282 0.08316 1.18150
 H680 H 0.78705 0.04374 1.01355
 C681 C 0.24263 0.54870 0.62805
 C682 C 0.27518 0.53934 0.62204
 C683 C 0.28773 0.54212 0.59058
 C684 C 0.26873 0.55616 0.56611
 C685 C 0.23683 0.56713 0.57311
 C686 C 0.22366 0.56249 0.60387
 C687 C 0.21906 0.58403 0.54994
 C688 C 0.23213 0.59014 0.51897
 C689 C 0.26371 0.57779 0.51218
 C690 C 0.28165 0.56100 0.53530
 H691 H 0.31286 0.53517 0.58564
 H692 H 0.19902 0.57042 0.60955
 H693 H 0.19589 0.59380 0.55753
 H694 H 0.30613 0.55280 0.52941
 H695 H 0.23210 0.54613 0.65182
 H696 H 0.27516 0.58240 0.48916
 C697 C 0.20888 0.51209 0.37816
 C698 C 0.18948 0.53067 0.35755
 C699 C 0.17845 0.56094 0.36861
 C700 C 0.18646 0.57259 0.39989
 C701 C 0.20553 0.55370 0.42081
 C702 C 0.21664 0.52341 0.40968
 C703 C 0.21361 0.56564 0.45222
 C704 C 0.20443 0.59719 0.46247
 C705 C 0.18475 0.61513 0.44102
 C706 C 0.17577 0.60296 0.41041
 H707 H 0.16371 0.57553 0.35269
 H708 H 0.23140 0.50854 0.42526
 H709 H 0.22748 0.55032 0.46791
 H710 H 0.16111 0.61774 0.39464
 H711 H 0.21736 0.48852 0.37013
 H712 H 0.17727 0.63947 0.44764
 C713 C 0.69455 0.03085 0.91006
 C714 C 0.69729 0.05424 0.88560
 C715 C 0.71492 0.08357 0.89319
 C716 C 0.72911 0.08959 0.92388
 C717 C 0.72544 0.06660 0.94849
 C718 C 0.70796 0.03721 0.94122
 C719 C 0.73955 0.07344 0.97959
 C720 C 0.75919 0.10216 0.98543
 C721 C 0.76176 0.12465 0.96009
 C722 C 0.74705 0.11855 0.93005
 H723 H 0.71911 0.10148 0.87478
 H724 H 0.70480 0.01905 0.95957
 H725 H 0.73486 0.05666 0.99883
 H726 H 0.75001 0.13653 0.91148
 H727 H 0.68076 0.00812 0.90577
 H728 H 0.77577 0.14737 0.96340
 C729 C 0.73566 0.95049 0.64949
 C730 C 0.71120 0.97308 0.64228
 C731 C 0.70211 0.97701 0.60955
 C732 C 0.71429 0.95637 0.58518
 C733 C 0.73751 0.93278 0.59309
 C734 C 0.74911 0.93102 0.62508
 C735 C 0.74697 0.90983 0.56949
 C736 C 0.73041 0.90743 0.53908
 C737 C 0.71015 0.93350 0.53061
 C738 C 0.70229 0.95770 0.55333
 H739 H 0.68432 0.99503 0.60308
 H740 H 0.76699 0.91308 0.63163
 H741 H 0.76577 0.89297 0.57598
 H742 H 0.68499 0.97609 0.54655
 H743 H 0.74326 0.94643 0.67420
 H744 H 0.69816 0.93364 0.50703
 C745 C 0.23745 0.38756 0.12556
 C746 C 0.23427 0.42155 0.12632
 C747 C 0.24788 0.43993 0.10109
 C748 C 0.26272 0.42428 0.07463
 C749 C 0.26439 0.39006 0.07376
 C750 C 0.25250 0.37199 0.09962
 C751 C 0.27646 0.37413 0.04640
 C752 C 0.28605 0.39145 0.01874
 C753 C 0.28682 0.42581 0.02096
 C754 C 0.27497 0.44200 0.04853
 H755 H 0.24602 0.46620 0.10159
 H756 H 0.25368 0.34566 0.09921
 H757 H 0.27637 0.34772 0.04566
 H758 H 0.27469 0.46837 0.04912
 H759 H 0.22686 0.37273 0.14430
 H760 H 0.29600 0.44045 0.00153
 C761 C -0.09572 0.32527 0.47527
 C762 C -0.12287 0.33324 0.45559
 C763 C -0.12392 0.32209 0.42320
 C764 C -0.09827 0.30372 0.41046
 C765 C -0.07100 0.29588 0.43026
 C766 C -0.07001 0.30680 0.46272
 C767 C -0.04517 0.27756 0.41718
 C768 C -0.04651 0.26660 0.38445
 C769 C -0.07386 0.27553 0.36521
 C770 C -0.09942 0.29344 0.37805
 H771 H -0.14492 0.32748 0.40784
 H772 H -0.04932 0.30118 0.47836
 H773 H -0.02403 0.27268 0.43242
 H774 H -0.12002 0.29949 0.36246
 H775 H -0.09409 0.33375 0.50026
 H776 H -0.07540 0.26827 0.33985
 C777 C 0.37244 0.82661 0.88661
 C778 C 0.37048 0.81619 0.91866
 C779 C 0.39498 0.79594 0.93078
 C780 C 0.42197 0.78757 0.91140
 C781 C 0.42409 0.79926 0.87972
 C782 C 0.39898 0.81830 0.86735
 C783 C 0.45147 0.79223 0.86083
 C784 C 0.47744 0.77297 0.87226
 C785 C 0.47454 0.76118 0.90409
 C786 C 0.44728 0.76841 0.92327
 H787 H 0.39367 0.78782 0.95548
 H788 H 0.40010 0.82718 0.84292
 H789 H 0.45277 0.80228 0.83687
 H790 H 0.44618 0.75919 0.94756
 H791 H 0.35351 0.84169 0.87654
 H792 H 0.49318 0.74655 0.91491
 C793 C 1.11420 0.76510 0.01408
 C794 C 1.13827 0.78064 0.03454
 C795 C 1.13352 0.78092 0.06808
 C796 C 1.10453 0.76721 0.08097
 C797 C 1.08004 0.75230 0.06028
 C798 C 1.08548 0.75080 0.02685
 C799 C 1.05037 0.73976 0.07331
 C800 C 1.04423 0.74323 0.10676
 C801 C 1.06993 0.75682 0.12692
 C802 C 1.09943 0.76883 0.11425
 H803 H 1.15165 0.79322 0.08407
 H804 H 1.06715 0.73936 0.01051
 H805 H 1.03235 0.72746 0.05732
 H806 H 1.11811 0.77979 0.13053
 H807 H 1.11742 0.76443 -0.01187
 H808 H 1.06683 0.75879 0.15284
 C809 C 0.64056 0.32885 0.59199
 C810 C 0.64122 0.33105 0.55813
 C811 C 0.61372 0.31872 0.53965
 C812 C 0.58598 0.30470 0.55494
 C813 C 0.58599 0.30286 0.58891
 C814 C 0.61334 0.31479 0.60718
 C815 C 0.55844 0.28960 0.60438
 C816 C 0.53026 0.27740 0.58682
 C817 C 0.53023 0.27992 0.55285
 C818 C 0.55796 0.29310 0.53710
 H819 H 0.61384 0.32009 0.51352
 H820 H 0.61351 0.31370 0.63334
 H821 H 0.55868 0.28888 0.63058
 H822 H 0.55725 0.29477 0.51100
 H823 H 0.66078 0.33880 0.60699
 H824 H 0.50868 0.27264 0.53836
 C825 C 0.35248 0.22974 0.56831
 C826 C 0.35830 0.20414 0.54624
 C827 C 0.39118 0.19581 0.53965
 C828 C 0.41794 0.21306 0.55501
 C829 C 0.41157 0.23825 0.57764
 C830 C 0.37883 0.24644 0.58410
 C831 C 0.43790 0.25474 0.59391
 C832 C 0.47134 0.24830 0.58680
 C833 C 0.47720 0.22252 0.56460
 C834 C 0.45089 0.20530 0.54875
 H835 H 0.39582 0.17607 0.52258
 H836 H 0.37358 0.26577 0.60142
 H837 H 0.43185 0.27226 0.61271
 H838 H 0.45634 0.18573 0.53178
 H839 H 0.32740 0.23630 0.57393
 H840 H 0.50228 0.21545 0.55976
 C841 C 0.87916 0.66003 0.08029
 C842 C 0.86856 0.68244 0.05745
 C843 C 0.89017 0.70846 0.04928
 C844 C 0.92133 0.71270 0.06505
 C845 C 0.93088 0.69044 0.08864
 C846 C 0.90985 0.66401 0.09575
 C847 C 0.96079 0.69533 0.10578
 C848 C 0.98266 0.72189 0.09960
 C849 C 0.97251 0.74420 0.07620
 C850 C 0.94258 0.73939 0.05880
 H851 H 0.88233 0.72583 0.03165
 H852 H 0.91696 0.64656 0.11361
 H853 H 0.96589 0.67906 0.12527
 H854 H 0.93558 0.75714 0.04120
 H855 H 0.86350 0.63927 0.08637
 H856 H 0.98732 0.76606 0.07208
 C857 C 0.59772 0.66508 0.91582
 C858 C 0.62347 0.68643 0.92746
 C859 C 0.62065 0.72010 0.92255
 C860 C 0.59274 0.73198 0.90645
 C861 C 0.56671 0.71027 0.89638
 C862 C 0.56941 0.67692 0.90120
 C863 C 0.53873 0.72199 0.88071
 C864 C 0.53732 0.75485 0.87147
 C865 C 0.56329 0.77641 0.88265
 C866 C 0.59039 0.76515 0.90012
 H867 H 0.63987 0.73715 0.93136
 H868 H 0.54995 0.65983 0.89291
 H869 H 0.51835 0.70511 0.87448
 H870 H 0.60991 0.78234 0.90799
 H871 H 0.59933 0.63897 0.91768
 H872 H 0.56316 0.80214 0.87799
 C873 C 0.12917 0.22836 0.41017
 C874 C 0.12326 0.20509 0.43397
 C875 C 0.09016 0.19772 0.44249
 C876 C 0.06360 0.21225 0.42641
 C877 C 0.07017 0.23413 0.40144
 C878 C 0.10299 0.24247 0.39392
 C879 C 0.04400 0.24659 0.38346
 C880 C 0.01046 0.23860 0.39035
 C881 C 0.00445 0.21744 0.41619
 C882 C 0.03058 0.20446 0.43393
 H883 H 0.08494 0.17977 0.46062
 H884 H 0.10845 0.25965 0.37512
 H885 H 0.05056 0.26121 0.36306
 H886 H 0.02493 0.18771 0.45304
 H887 H 0.15418 0.23550 0.40373
 H888 H -0.02069 0.21002 0.42191
 C889 C 0.58819 0.15401 0.65710
 C890 C 0.57085 0.14681 0.68539
 C891 C 0.54179 0.16375 0.69236
 C892 C 0.53095 0.18821 0.67166
 C893 C 0.54921 0.19537 0.64379
 C894 C 0.57750 0.17796 0.63655
 C895 C 0.53904 0.21979 0.62329
 C896 C 0.51144 0.23897 0.63045
 C897 C 0.49216 0.23009 0.65723
 C898 C 0.50212 0.20547 0.67792
 H899 H 0.52806 0.15828 0.71398
 H900 H 0.59155 0.18298 0.61501
 H901 H 0.55285 0.22345 0.60138
 H902 H 0.48719 0.19984 0.69871
 H903 H 0.61003 0.14081 0.65062
 H904 H 0.46940 0.24238 0.66225
 C905 C 1.05698 0.58676 0.13467
 C906 C 1.06639 0.58835 0.16744
 C907 C 1.06284 0.61739 0.18546
 C908 C 1.05002 0.64483 0.17079
 C909 C 1.04151 0.64340 0.13754
 C910 C 1.04491 0.61421 0.11970
 C911 C 1.02989 0.67117 0.12262
 C912 C 1.02422 0.70006 0.14071
 C913 C 1.03358 0.70114 0.17379
 C914 C 1.04617 0.67385 0.18861
 H915 H 1.07021 0.61855 0.21080
 H916 H 1.03834 0.61265 0.09420
 H917 H 1.02465 0.67023 0.09682
 H918 H 1.05312 0.67553 0.21402
 H919 H 1.05988 0.56451 0.12050
 H920 H 1.03201 0.72329 0.18829
 C921 C 0.98154 0.87055 0.17555
 C922 C 0.95887 0.86142 0.19940
 C923 C 0.95197 0.82810 0.20416
 C924 C 0.96722 0.80428 0.18507
 C925 C 0.98966 0.81384 0.16102
 C926 C 0.99676 0.84700 0.15652
 C927 C 1.00431 0.79020 0.14141
 C928 C 0.99807 0.75659 0.14604
 C929 C 0.97463 0.74765 0.16949
 C930 C 0.95980 0.77112 0.18905
 H931 H 0.93469 0.82074 0.22261
 H932 H 1.01385 0.85475 0.13807
 H933 H 1.02005 0.79831 0.12205
 H934 H 0.94218 0.76331 0.20701
 H935 H 0.98686 0.89601 0.17101
 H936 H 0.96769 0.72228 0.17263
 C937 C 0.47282 0.37485 0.71195
 C938 C 0.45681 0.39601 0.69096
 C939 C 0.45437 0.38762 0.65790
 C940 C 0.46678 0.35831 0.64602
 C941 C 0.48215 0.33674 0.66724
 C942 C 0.48551 0.34554 0.70017
 C943 C 0.49347 0.30673 0.65522
 C944 C 0.48860 0.29755 0.62227
 C945 C 0.47479 0.32055 0.60146
 C946 C 0.46369 0.35018 0.61316
 H947 H 0.44161 0.40334 0.64148
 H948 H 0.49740 0.32953 0.71689
 H949 H 0.50627 0.29106 0.67153
 H950 H 0.45246 0.36667 0.59646
 H951 H 0.47528 0.38086 0.73752
 H952 H 0.47201 0.31509 0.57578
 C953 C 0.41080 0.67296 0.76957
 C954 C 0.43276 0.64738 0.76490
 C955 C 0.46675 0.65320 0.77167
 C956 C 0.47789 0.68309 0.78589
 C957 C 0.45493 0.70716 0.79340
 C958 C 0.42170 0.70246 0.78387
 C959 C 0.46496 0.73488 0.81176
 C960 C 0.49777 0.73915 0.82396
 C961 C 0.52123 0.71707 0.81176
 C962 C 0.51133 0.68901 0.79387
 H963 H 0.48414 0.63395 0.76788
 H964 H 0.40385 0.72108 0.78867
 H965 H 0.44614 0.75191 0.81712
 H966 H 0.52973 0.67153 0.78710
 H967 H 0.38476 0.66974 0.76331
 H968 H 0.54734 0.72049 0.81754
 C969 C -0.01501 0.11134 0.29497
 C970 C -0.04626 0.09948 0.30461
 C971 C -0.06617 0.11974 0.32336
 C972 C -0.05499 0.15110 0.33298
 C973 C -0.02338 0.16281 0.32388
 C974 C -0.00356 0.14272 0.30470
 C975 C -0.01212 0.19414 0.33446
 C976 C -0.03247 0.21457 0.35322
 C977 C -0.06365 0.20144 0.36260
 C978 C -0.07484 0.17056 0.35223
 H979 H -0.09058 0.11107 0.33041
 H980 H 0.02078 0.15121 0.29736
 H981 H 0.01265 0.20259 0.32843
 H982 H -0.09888 0.16158 0.35998
 H983 H 0.00073 0.09612 0.28043
 H984 H -0.07952 0.21421 0.37906
 C985 C 0.04870 0.37675 0.32385
 C986 C 0.05334 0.36851 0.29106
 C987 C 0.03892 0.33924 0.27817
 C988 C 0.02211 0.31750 0.29859
 C989 C 0.01968 0.32544 0.33184
 C990 C 0.03221 0.35541 0.34406
 C991 C 0.00571 0.30297 0.35279
 C992 C -0.00604 0.27190 0.34165
 C993 C -0.00612 0.26533 0.30793
 C994 C 0.00835 0.28766 0.28676
 H995 H 0.04208 0.33277 0.25286
 H996 H 0.02998 0.36203 0.36945
 H997 H 0.00526 0.30908 0.37844
 H998 H 0.00904 0.28145 0.26117
 H999 H 0.05864 0.39958 0.33414
 H1000 H -0.01701 0.24310 0.29753
 C1001 C 0.52575 0.91636 0.82848
 C1002 C 0.54564 0.91485 0.80081
 C1003 C 0.55323 0.88392 0.78775
 C1004 C 0.54175 0.85534 0.80234
 C1005 C 0.52352 0.85745 0.83101
 C1006 C 0.51536 0.88802 0.84374
 C1007 C 0.51380 0.82901 0.84667
 C1008 C 0.51906 0.79774 0.83273
 C1009 C 0.53763 0.79631 0.80404
 C1010 C 0.54893 0.82466 0.78919
 H1011 H 0.56893 0.88182 0.76687
 H1012 H 0.50076 0.89002 0.86544
 H1013 H 0.50236 0.83150 0.87007
 H1014 H 0.56325 0.82255 0.76733
 H1015 H 0.51835 0.93947 0.83869
 H1016 H 0.54407 0.77336 0.79300
 C1017 C 0.63676 0.58199 0.12418
 C1018 C 0.66982 0.57287 0.11875
 C1019 C 0.68494 0.55309 0.14209
 C1020 C 0.66859 0.54544 0.17092
 C1021 C 0.63605 0.55572 0.17573
 C1022 C 0.62009 0.57315 0.15193
 C1023 C 0.62004 0.54921 0.20466
 C1024 C 0.63680 0.53508 0.23071
 C1025 C 0.66858 0.52293 0.22485
 C1026 C 0.68438 0.52831 0.19540
 H1027 H 0.71035 0.54589 0.13957
 H1028 H 0.59483 0.58070 0.15509
 H1029 H 0.59461 0.55639 0.20740
 H1030 H 0.70909 0.51943 0.19197
 H1031 H 0.62280 0.59504 0.10641
 H1032 H 0.68131 0.50911 0.24285
 C1033 C 0.14334 1.03566 0.59488
 C1034 C 0.17586 1.04827 0.59924
 C1035 C 0.19186 1.04540 0.62941
 C1036 C 0.17529 1.03074 0.65511
 C1037 C 0.14241 1.01890 0.65066
 C1038 C 0.12674 1.02113 0.62038
 C1039 C 0.12549 1.00537 0.67661
 C1040 C 0.14034 1.00357 0.70779
 C1041 C 0.17397 1.01414 0.71102
 C1042 C 0.19096 1.02782 0.68521
 H1043 H 0.21712 1.05465 0.63288
 H1044 H 0.10147 1.01207 0.61655
 H1045 H 0.10016 0.99653 0.67260
 H1046 H 0.21648 1.03617 0.68887
 H1047 H 0.13040 1.03787 0.57196
 H1048 H 0.18799 1.01205 0.73311
 C1049 C 0.17910 0.89692 0.83936
 C1050 C 0.19370 0.92083 0.86098
 C1051 C 0.19240 0.95385 0.85169
 C1052 C 0.17723 0.96229 0.82232
 C1053 C 0.16276 0.93783 0.80181
 C1054 C 0.16406 0.90530 0.81043
 C1055 C 0.14616 0.94603 0.77336
 C1056 C 0.14305 0.97888 0.76453
 C1057 C 0.15912 1.00299 0.78486
 C1058 C 0.17590 0.99484 0.81322
 H1059 H 0.20415 0.97322 0.86632
 H1060 H 0.15264 0.88619 0.79510
 H1061 H 0.13480 0.92624 0.75915
 H1062 H 0.18706 1.01414 0.82846
 H1063 H 0.17700 0.87146 0.84516
 H1064 H 0.15743 1.02853 0.77935
 C1065 C 0.65537 0.47011 0.39416
 C1066 C 0.68820 0.48209 0.39650
 C1067 C 0.69993 0.50485 0.37422
 C1068 C 0.67933 0.51387 0.34839
 C1069 C 0.64679 0.50045 0.34561
 C1070 C 0.63470 0.47943 0.36909
 C1071 C 0.62713 0.50704 0.31871
 C1072 C 0.63976 0.52537 0.29299
 C1073 C 0.67090 0.54145 0.29764
 C1074 C 0.69076 0.53525 0.32477
 H1075 H 0.72533 0.51406 0.37605
 H1076 H 0.60969 0.46915 0.36734
 H1077 H 0.60222 0.49652 0.31716
 H1078 H 0.71523 0.54669 0.32696
 H1079 H 0.64605 0.45268 0.41131
 H1080 H 0.68028 0.55823 0.27998
 C1081 C 0.79559 0.50611 0.64893
 C1082 C 0.79892 0.47549 0.63367
 C1083 C 0.81298 0.45034 0.65080
 C1084 C 0.82537 0.45586 0.68218
 C1085 C 0.82343 0.48688 0.69735
 C1086 C 0.80783 0.51180 0.68066
 C1087 C 0.83851 0.49263 0.72807
 C1088 C 0.85629 0.46794 0.74358
 C1089 C 0.85715 0.43709 0.72729
 C1090 C 0.84136 0.43106 0.69771
 H1091 H 0.81523 0.42657 0.63912
 H1092 H 0.80593 0.53583 0.69176
 H1093 H 0.83831 0.51687 0.73901
 H1094 H 0.84337 0.40727 0.68606
 H1095 H 0.78454 0.52575 0.63600
 H1096 H 0.87171 0.41738 0.73569
 C1097 C 0.34261 -0.05165 0.10267
 C1098 C 0.30801 -0.04904 0.10189
 C1099 C 0.29221 -0.03466 0.12850
 C1100 C 0.31091 -0.02300 0.15559
 C1101 C 0.34555 -0.02651 0.15633
 C1102 C 0.36119 -0.04069 0.12970
 C1103 C 0.36412 -0.01583 0.18366
 C1104 C 0.34897 -0.00130 0.21080
 C1105 C 0.31449 0.00367 0.20875
 C1106 C 0.29570 -0.00764 0.18183
 H1107 H 0.26553 -0.03238 0.12796
 H1108 H 0.38779 -0.04345 0.12983
 H1109 H 0.39068 -0.01898 0.18403
 H1110 H 0.26925 -0.00394 0.18136
 H1111 H 0.35522 -0.06297 0.08258
 H1112 H 0.30160 0.01668 0.22745
 C1113 C 0.27338 0.02094 0.35613
 C1114 C 0.28409 0.05206 0.36759
 C1115 C 0.30748 0.06979 0.34990
 C1116 C 0.32141 0.05622 0.32217
 C1117 C 0.31148 0.02462 0.31111
 C1118 C 0.28701 0.00729 0.32805
 C1119 C 0.32684 0.01075 0.28392
 C1120 C 0.35184 0.02818 0.26721
 C1121 C 0.36172 0.05947 0.27986
 C1122 C 0.34624 0.07344 0.30628
 H1123 H 0.31540 0.09410 0.35816
 H1124 H 0.27894 -0.01700 0.31998
 H1125 H 0.31992 -0.01393 0.27605
 H1126 H 0.35469 0.09739 0.31509
 H1127 H 0.25528 0.00685 0.36940
 H1128 H 0.38257 0.07322 0.27075
 C1129 C 0.76867 0.52956 0.86507
 C1130 C 0.78899 0.53404 0.89296
 C1131 C 0.82162 0.52319 0.89187
 C1132 C 0.83454 0.51061 0.86311
 C1133 C 0.81425 0.50660 0.83511
 C1134 C 0.78104 0.51553 0.83661
 C1135 C 0.82775 0.49457 0.80603
 C1136 C 0.86192 0.48829 0.80424
 C1137 C 0.88144 0.49265 0.83286
 C1138 C 0.86791 0.50307 0.86182
 H1139 H 0.83748 0.52529 0.91320
 H1140 H 0.76496 0.51282 0.81545
 H1141 H 0.81163 0.49079 0.78514
 H1142 H 0.88388 0.50620 0.88303
 H1143 H 0.74353 0.53792 0.86475
 H1144 H 0.90775 0.48831 0.83259
 C1145 C 0.11865 0.71665 0.55326
 C1146 C 0.09188 0.69477 0.55828
 C1147 C 0.09455 0.66196 0.54860
 C1148 C 0.12382 0.65093 0.53489
 C1149 C 0.15082 0.67293 0.53042
 C1150 C 0.14780 0.70587 0.53932
 C1151 C 0.18046 0.66165 0.51747
 C1152 C 0.18400 0.62824 0.50958
 C1153 C 0.15607 0.60705 0.51324
 C1154 C 0.12660 0.61814 0.52590
 H1155 H 0.07423 0.64478 0.55271
 H1156 H 0.16814 0.72320 0.53593
 H1157 H 0.20032 0.67923 0.51360
 H1158 H 0.10605 0.60096 0.52888
 H1159 H 0.11703 0.74214 0.56024
 H1160 H 0.15747 0.58142 0.50676
 C1161 C 0.65366 0.15751 1.09416
 C1162 C 0.65578 0.19081 1.08757
 C1163 C 0.68131 0.20290 1.06803
 C1164 C 0.70490 0.18168 1.05552
 C1165 C 0.70204 0.14814 1.06187
 C1166 C 0.67639 0.13626 1.08114
 C1167 C 0.72484 0.12679 1.04896
 C1168 C 0.75260 0.13817 1.03166
 C1169 C 0.75446 0.17162 1.02445
 C1170 C 0.73100 0.19311 1.03643
 H1171 H 0.68284 0.22864 1.06286
 H1172 H 0.67399 0.11055 1.08625
 H1173 H 0.72121 0.10094 1.05288
 H1174 H 0.73324 0.21867 1.03070
 H1175 H 0.63386 0.14784 1.10886
 H1176 H 0.77355 0.18136 1.00911
 C1177 C 0.90307 0.20482 1.00696
 C1178 C 0.91572 0.18846 0.97944
 C1179 C 0.90166 0.15751 0.97092
 C1180 C 0.87383 0.14508 0.98640
 C1181 C 0.85903 0.16328 1.01133
 C1182 C 0.87466 0.19257 1.02234
 C1183 C 0.82847 0.15225 1.02379
 C1184 C 0.81215 0.12407 1.01016
 C1185 C 0.83004 0.10432 0.98853
 C1186 C 0.86012 0.11491 0.97641
 H1187 H 0.91255 0.14250 0.95220
 H1188 H 0.86418 0.20667 1.04195
 H1189 H 0.81718 0.16609 1.04307
 H1190 H 0.87198 0.10002 0.95821
 H1191 H 0.91296 0.22847 1.01500
 H1192 H 0.81966 0.08123 0.97937
 C1193 C 0.32102 0.69319 0.41611
 C1194 C 0.33864 0.70778 0.44242
 C1195 C 0.32748 0.70289 0.47406
 C1196 C 0.29890 0.68329 0.47918
 C1197 C 0.28209 0.66808 0.45248
 C1198 C 0.29314 0.67341 0.42107
 C1199 C 0.25499 0.64694 0.45730
 C1200 C 0.24306 0.64079 0.48866
 C1201 C 0.25964 0.65713 0.51505
 C1202 C 0.28717 0.67797 0.51040
 H1203 H 0.34101 0.71417 0.49442
 H1204 H 0.28045 0.66194 0.40031
 H1205 H 0.24449 0.63459 0.43608
 H1206 H 0.29961 0.68948 0.53127
 H1207 H 0.32945 0.69640 0.39161
 H1208 H 0.25172 0.65291 0.53954
 C1209 C 0.62342 0.78316 0.45201
 C1210 C 0.59581 0.79734 0.46623
 C1211 C 0.60055 0.82114 0.49089
 C1212 C 0.63264 0.83202 0.50007
 C1213 C 0.66029 0.81919 0.48424
 C1214 C 0.65548 0.79407 0.46089
 C1215 C 0.69206 0.83272 0.49095
 C1216 C 0.69669 0.85984 0.51248
 C1217 C 0.66910 0.86947 0.53077
 C1218 C 0.63747 0.85623 0.52413
 H1219 H 0.57922 0.83197 0.50202
 H1220 H 0.67641 0.78372 0.44866
 H1221 H 0.71306 0.82355 0.47788
 H1222 H 0.61667 0.86540 0.53747
 H1223 H 0.62011 0.76486 0.43283
 H1224 H 0.67132 0.88758 0.55010
 C1225 C 0.14550 0.32467 -0.02134
 C1226 C 0.14794 0.30284 -0.04785
 C1227 C 0.17908 0.29845 -0.06201
 C1228 C 0.20723 0.31596 -0.05001
 C1229 C 0.20407 0.33830 -0.02392
 C1230 C 0.17320 0.34245 -0.00970
 C1231 C 0.23171 0.35640 -0.01231
 C1232 C 0.26366 0.35138 -0.02477
 C1233 C 0.26613 0.32964 -0.05158
 C1234 C 0.23834 0.31203 -0.06393
 H1235 H 0.18133 0.28203 -0.08272
 H1236 H 0.17049 0.35932 0.01059
 H1237 H 0.22753 0.37472 0.00625
 H1238 H 0.24123 0.29531 -0.08430
 H1239 H 0.12209 0.32802 -0.00947
 H1240 H 0.28984 0.32613 -0.06284
 C1241 C 0.43398 0.34633 0.04648
 C1242 C 0.43195 0.31209 0.04683
 C1243 C 0.40330 0.29571 0.03418
 C1244 C 0.37661 0.31334 0.02260
 C1245 C 0.37893 0.34765 0.02291
 C1246 C 0.40781 0.36392 0.03444
 C1247 C 0.35222 0.36532 0.01202
 C1248 C 0.32294 0.34953 -0.00021
 C1249 C 0.32056 0.31518 0.00077
 C1250 C 0.34729 0.29733 0.01164
 H1251 H 0.40146 0.26933 0.03393
 H1252 H 0.40985 0.39030 0.03488
 H1253 H 0.35425 0.39172 0.01240
 H1254 H 0.34482 0.27100 0.01193
 H1255 H 0.45527 0.35973 0.05672
 H1256 H 0.29811 0.30175 -0.00620
 C1257 C 0.85291 0.78498 0.52017
 C1258 C 0.85054 0.77685 0.55295
 C1259 C 0.82228 0.78610 0.57013
 C1260 C 0.79816 0.80508 0.55551
 C1261 C 0.80226 0.81509 0.52342
 C1262 C 0.82909 0.80397 0.50560
 C1263 C 0.78013 0.83687 0.50994
 C1264 C 0.75443 0.85023 0.52854
 C1265 C 0.74830 0.83638 0.55893
 C1266 C 0.77037 0.81489 0.57263
 H1267 H 0.81985 0.78015 0.59537
 H1268 H 0.83227 0.81084 0.48068
 H1269 H 0.78355 0.84338 0.48504
 H1270 H 0.76605 0.80651 0.59689
 H1271 H 0.87370 0.77736 0.50592
 H1272 H 0.72725 0.84380 0.57295
   
