data_POSCAR
  _audit_creation_date              2014-09-24
  _audit_creation_method            'ToBaCCo'
  _symmetry_space_group_name_H-M    'P1'
  _symmetry_Int_Tables_number       1
  _symmetry_cell_setting            triclinic
  loop_
  _symmetry_equiv_pos_as_xyz
 x,y,z
_cell_length_a 57.2215
_cell_length_b 60.4608
_cell_length_c 60.3698
_cell_angle_alpha 90.015800
_cell_angle_beta 90.167400
_cell_angle_gamma 89.876300
loop_
  _atom_site_label
  _atom_site_type_symbol
  _atom_site_fract_x
  _atom_site_fract_y
  _atom_site_fract_z
C1 C 0.30651 0.30793 -0.01309
 C2 C 0.30437 0.30808 0.00941
 C3 C 0.29047 0.32541 0.02076
 C4 C 0.31720 0.29232 0.02387
 C5 C 0.32360 0.29352 -0.02491
 C6 C 0.29205 0.32301 -0.02691
 C7 C 0.29714 0.34768 0.01931
 C8 C 0.28475 0.36391 0.03083
 C9 C 0.26539 0.35817 0.04385
 C10 C 0.25850 0.33591 0.04499
 C11 C 0.27113 0.31961 0.03372
 C12 C 0.33182 0.30050 0.04065
 C13 C 0.34535 0.28609 0.05340
 C14 C 0.34433 0.26312 0.04986
 C15 C 0.32902 0.25490 0.03354
 C16 C 0.31553 0.26938 0.02069
 C17 C 0.31676 0.28218 -0.04408
 C18 C 0.33265 0.26899 -0.05569
 C19 C 0.35602 0.26633 -0.04826
 C20 C 0.36266 0.27809 -0.02893
 C21 C 0.34690 0.29181 -0.01785
 C22 C 0.26757 0.32215 -0.02601
 C23 C 0.25408 0.33713 -0.03817
 C24 C 0.26482 0.35323 -0.05151
 C25 C 0.28936 0.35365 -0.05278
 C26 C 0.30284 0.33860 -0.04066
 H27 H 0.31217 0.35239 0.00955
 H28 H 0.29033 0.38098 0.02965
 H29 H 0.24376 0.33109 0.05510
 H30 H 0.26587 0.30246 0.03508
 H31 H 0.33342 0.31815 0.04334
 H32 H 0.35721 0.29303 0.06554
 H33 H 0.30407 0.26274 0.00803
 H34 H 0.29890 0.28329 -0.04999
 H35 H 0.32585 0.25994 -0.06974
 H36 H 0.38047 0.27807 -0.02290
 H37 H 0.35307 0.30133 -0.00382
 H38 H 0.25896 0.30998 -0.01573
 H39 H 0.23522 0.33609 -0.03717
 H40 H 0.29818 0.36599 -0.06267
 H41 H 0.32172 0.33948 -0.04154
 H42 H 0.32755 0.23729 0.03064
 C43 C 0.69511 0.69224 -0.00915
 C44 C 0.69376 0.69249 0.01337
 C45 C 0.70823 0.67717 0.02692
 C46 C 0.67726 0.70709 0.02555
 C47 C 0.68099 0.70716 -0.02345
 C48 C 0.70981 0.67571 -0.02074
 C49 C 0.69733 0.66138 0.04037
 C50 C 0.71068 0.64593 0.05210
 C51 C 0.73522 0.64611 0.05077
 C52 C 0.74610 0.66240 0.03775
 C53 C 0.73272 0.67781 0.02597
 C54 C 0.65334 0.70772 0.02020
 C55 C 0.63809 0.72134 0.03207
 C56 C 0.64636 0.73405 0.04990
 C57 C 0.67018 0.73311 0.05548
 C58 C 0.68549 0.71979 0.04339
 C59 C 0.68149 0.73024 -0.02079
 C60 C 0.66754 0.74383 -0.03421
 C61 C 0.65308 0.73456 -0.05064
 C62 C 0.65292 0.71147 -0.05338
 C63 C 0.66678 0.69796 -0.04000
 C64 C 0.72926 0.68260 -0.03297
 C65 C 0.74309 0.66707 -0.04402
 C66 C 0.73733 0.64451 -0.04338
 C67 C 0.71771 0.63769 -0.03125
 C68 C 0.70411 0.65318 -0.01992
 H69 H 0.67845 0.66064 0.04126
 H70 H 0.70173 0.63346 0.06173
 H71 H 0.76496 0.66324 0.03669
 H72 H 0.74143 0.69010 0.01592
 H73 H 0.64643 0.69752 0.00698
 H74 H 0.61971 0.72152 0.02772
 H75 H 0.70381 0.71941 0.04793
 H76 H 0.69261 0.73769 -0.00832
 H77 H 0.66823 0.76157 -0.03188
 H78 H 0.64170 0.70378 -0.06561
 H79 H 0.66604 0.68021 -0.04229
 H80 H 0.73377 0.69997 -0.03381
 H81 H 0.75802 0.67270 -0.05345
 H82 H 0.71300 0.62037 -0.03047
 H83 H 0.68902 0.64766 -0.01066
 H84 H 0.67696 0.74280 0.06915
 C85 C 0.69189 0.30899 1.00936
 C86 C 0.69281 0.30985 0.98687
 C87 C 0.70732 0.32645 0.97530
 C88 C 0.67801 0.29540 0.97281
 C89 C 0.67435 0.29517 1.02083
 C90 C 0.70696 0.32326 1.02341
 C91 C 0.70221 0.34907 0.97722
 C92 C 0.71567 0.36467 0.96595
 C93 C 0.73458 0.35787 0.95282
 C94 C 0.73972 0.33521 0.95100
 C95 C 0.72599 0.31959 0.96196
 C96 C 0.66248 0.30491 0.95754
 C97 C 0.64781 0.29158 0.94476
 C98 C 0.64856 0.26842 0.94685
 C99 C 0.66448 0.25890 0.96190
 C100 C 0.67911 0.27228 0.97474
 C101 C 0.68156 0.27771 1.03454
 C102 C 0.66501 0.26485 1.04562
 C103 C 0.64107 0.26962 1.04351
 C104 C 0.63392 0.28718 1.02983
 C105 C 0.65044 0.29979 1.01849
 C106 C 0.73131 0.32308 1.02112
 C107 C 0.74519 0.33756 1.03348
 C108 C 0.73510 0.35257 1.04872
 C109 C 0.71054 0.35200 1.05131
 C110 C 0.69675 0.33754 1.03888
 H111 H 0.68771 0.35458 0.98733
 H112 H 0.71146 0.38206 0.96763
 H113 H 0.75411 0.32961 0.94080
 H114 H 0.73003 0.30216 0.96024
 H115 H 0.66132 0.32271 0.95587
 H116 H 0.63553 0.29945 0.93358
 H117 H 0.69126 0.26464 0.98621
 H118 H 0.69997 0.27404 1.03657
 H119 H 0.67090 0.25151 1.05624
 H120 H 0.61555 0.29111 1.02792
 H121 H 0.64463 0.31334 1.00809
 H122 H 0.73959 0.31174 1.00967
 H123 H 0.76390 0.33634 1.03140
 H124 H 0.70149 0.36349 1.06201
 H125 H 0.67794 0.33803 1.04081
 H126 H 0.66576 0.24112 0.96362
 C127 C 0.31144 0.68616 1.01227
 C128 C 0.31267 0.68516 0.98977
 C129 C 0.29780 0.66950 0.97710
 C130 C 0.32904 0.69905 0.97669
 C131 C 0.32530 0.70210 1.02561
 C132 C 0.29692 0.67028 1.02479
 C133 C 0.30821 0.65304 0.96407
 C134 C 0.29438 0.63805 0.95228
 C135 C 0.26985 0.63939 0.95314
 C136 C 0.25949 0.65615 0.96600
 C137 C 0.27335 0.67109 0.97782
 C138 C 0.35295 0.70017 0.98201
 C139 C 0.36804 0.71326 0.96943
 C140 C 0.35962 0.72492 0.95093
 C141 C 0.33585 0.72340 0.94532
 C142 C 0.32071 0.71064 0.95811
 C143 C 0.32443 0.72489 1.02141
 C144 C 0.33826 0.73952 1.03370
 C145 C 0.35319 0.73177 1.05077
 C146 C 0.35340 0.70877 1.05506
 C147 C 0.33964 0.69426 1.04272
 C148 C 0.27642 0.67741 1.03515
 C149 C 0.26266 0.66248 1.04699
 C150 C 0.26951 0.64012 1.04934
 C151 C 0.29043 0.63328 1.03896
 C152 C 0.30379 0.64814 1.02666
 H153 H 0.32706 0.65160 0.96330
 H154 H 0.30291 0.62519 0.94278
 H155 H 0.24068 0.65789 0.96670
 H156 H 0.26502 0.68398 0.98746
 H157 H 0.35997 0.69082 0.99580
 H158 H 0.38638 0.71391 0.97385
 H159 H 0.30240 0.70988 0.95358
 H160 H 0.31304 0.73135 1.00859
 H161 H 0.33649 0.75696 1.03012
 H162 H 0.36505 0.70150 1.06716
 H163 H 0.34073 0.67670 1.04615
 H164 H 0.27103 0.69456 1.03396
 H165 H 0.24724 0.66888 1.05513
 H166 H 0.29616 0.61622 1.03950
 H167 H 0.31961 0.64242 1.01865
 H168 H 0.32896 0.73229 0.93116
 C169 C -0.00973 0.31842 0.31872
 C170 C 0.01398 0.31626 0.31753
 C171 C 0.02700 0.30184 0.33312
 C172 C 0.02820 0.32886 0.30137
 C173 C -0.02282 0.33480 0.30499
 C174 C -0.02372 0.30447 0.33403
 C175 C 0.02678 0.30617 0.35595
 C176 C 0.03900 0.29242 0.37056
 C177 C 0.05143 0.27403 0.36255
 C178 C 0.05173 0.26982 0.33967
 C179 C 0.03981 0.28378 0.32504
 C180 C 0.04600 0.34281 0.30906
 C181 C 0.05835 0.35614 0.29432
 C182 C 0.05337 0.35558 0.27150
 C183 C 0.03610 0.34092 0.26373
 C184 C 0.02367 0.32763 0.27854
 C185 C -0.04287 0.32821 0.29336
 C186 C -0.05505 0.34321 0.28000
 C187 C -0.04724 0.36522 0.27758
 C188 C -0.02738 0.37182 0.28983
 C189 C -0.01569 0.35696 0.30369
 C190 C -0.02224 0.28134 0.33333
 C191 C -0.03512 0.26841 0.34806
 C192 C -0.05023 0.27825 0.36376
 C193 C -0.05192 0.30160 0.36387
 C194 C -0.03887 0.31445 0.34922
 H195 H 0.01714 0.32018 0.36241
 H196 H 0.03846 0.29591 0.38815
 H197 H 0.06137 0.25585 0.33312
 H198 H 0.04024 0.28032 0.30744
 H199 H 0.04974 0.34399 0.32662
 H200 H 0.07127 0.36744 0.30092
 H201 H 0.01023 0.31669 0.27226
 H202 H -0.04885 0.31125 0.29424
 H203 H -0.06984 0.33704 0.27068
 H204 H -0.02125 0.38874 0.28949
 H205 H -0.00096 0.36278 0.31333
 H206 H -0.01118 0.27327 0.32124
 H207 H -0.03378 0.25065 0.34634
 H208 H -0.06248 0.31028 0.37590
 H209 H -0.04024 0.33231 0.35003
 H210 H 0.03213 0.33980 0.24623
 C211 C -0.01277 0.68325 0.68311
 C212 C 0.01111 0.68384 0.68270
 C213 C 0.02411 0.69721 0.66611
 C214 C 0.02540 0.67072 0.69856
 C215 C -0.02570 0.66694 0.69695
 C216 C -0.02699 0.69870 0.66940
 C217 C 0.01854 0.69598 0.64344
 C218 C 0.03022 0.70923 0.62813
 C219 C 0.04819 0.72339 0.63510
 C220 C 0.05447 0.72394 0.65759
 C221 C 0.04246 0.71101 0.67298
 C222 C 0.04207 0.65570 0.69057
 C223 C 0.05439 0.64209 0.70521
 C224 C 0.05049 0.64345 0.72817
 C225 C 0.03440 0.65914 0.73616
 C226 C 0.02202 0.67270 0.72149
 C227 C -0.04459 0.67384 0.71000
 C228 C -0.05638 0.65879 0.72352
 C229 C -0.04927 0.63643 0.72468
 C230 C -0.03067 0.62956 0.71098
 C231 C -0.01946 0.64448 0.69698
 C232 C -0.02325 0.72158 0.67031
 C233 C -0.03540 0.73582 0.65614
 C234 C -0.05196 0.72761 0.64077
 C235 C -0.05623 0.70456 0.64076
 C236 C -0.04395 0.69038 0.65489
 H237 H 0.00503 0.68488 0.63762
 H238 H 0.02536 0.70831 0.61080
 H239 H 0.06829 0.73476 0.66329
 H240 H 0.04723 0.71204 0.69032
 H241 H 0.04493 0.65397 0.67293
 H242 H 0.06643 0.63002 0.69848
 H243 H 0.00951 0.68449 0.72797
 H244 H -0.04991 0.69105 0.71011
 H245 H -0.07022 0.66512 0.73394
 H246 H -0.02523 0.61242 0.71031
 H247 H -0.00573 0.63847 0.68624
 H248 H -0.01065 0.72840 0.68186
 H249 H -0.03210 0.75334 0.65784
 H250 H -0.06804 0.69699 0.62901
 H251 H -0.04707 0.67274 0.65391
 H252 H 0.03133 0.66088 0.75377
 C253 C 1.01083 0.68403 0.31480
 C254 C 0.98695 0.68339 0.31432
 C255 C 0.97257 0.69907 0.32747
 C256 C 0.97398 0.66669 0.30101
 C257 C 1.02521 0.66945 0.30034
 C258 C 1.02388 0.69890 0.33016
 C259 C 0.95642 0.69086 0.34282
 C260 C 0.94393 0.70530 0.35643
 C261 C 0.94713 0.72830 0.35478
 C262 C 0.96270 0.73652 0.33878
 C263 C 0.97525 0.72203 0.32520
 C264 C 0.97935 0.64404 0.30257
 C265 C 0.96782 0.62870 0.28916
 C266 C 0.95016 0.63565 0.27453
 C267 C 0.94402 0.65812 0.27371
 C268 C 0.95590 0.67352 0.28678
 C269 C 1.02191 0.66896 0.27732
 C270 C 1.03493 0.65449 0.26411
 C271 C 1.05198 0.64031 0.27353
 C272 C 1.05549 0.64150 0.29671
 C273 C 1.04233 0.65586 0.30983
 C274 C 1.04253 0.71157 0.32217
 C275 C 1.05519 0.72535 0.33635
 C276 C 1.04928 0.72717 0.35898
 C277 C 1.03058 0.71420 0.36690
 C278 C 1.01845 0.69992 0.35280
 H279 H 0.95409 0.67319 0.34477
 H280 H 0.93232 0.69840 0.36874
 H281 H 0.96524 0.75414 0.33681
 H282 H 0.98735 0.72869 0.31317
 H283 H 0.99267 0.63827 0.31397
 H284 H 0.97255 0.61138 0.29029
 H285 H 0.95129 0.69086 0.28550
 H286 H 1.00916 0.67976 0.26957
 H287 H 1.03203 0.65516 0.24642
 H288 H 1.06756 0.63062 0.30519
 H289 H 1.04511 0.65593 0.32759
 H290 H 1.04716 0.71097 0.30479
 H291 H 1.06892 0.73530 0.32919
 H292 H 1.02593 0.71415 0.38426
 H293 H 1.00487 0.68956 0.35965
 H294 H 0.93044 0.66380 0.26254
 C295 C 1.00891 0.31432 0.68533
 C296 C 0.98518 0.31374 0.68718
 C297 C 0.97042 0.29833 0.67411
 C298 C 0.97267 0.32951 0.70174
 C299 C 1.02303 0.32896 0.69990
 C300 C 1.02179 0.30071 0.66879
 C301 C 0.95235 0.30684 0.66087
 C302 C 0.93912 0.29283 0.64746
 C303 C 0.94352 0.26995 0.64716
 C304 C 0.96121 0.26135 0.66094
 C305 C 0.97447 0.27541 0.67440
 C306 C 0.97303 0.35225 0.69715
 C307 C 0.96120 0.36708 0.71089
 C308 C 0.94907 0.35938 0.72954
 C309 C 0.94872 0.33659 0.73408
 C310 C 0.96022 0.32173 0.72011
 C311 C 1.02203 0.32678 0.72302
 C312 C 1.03420 0.34145 0.73667
 C313 C 1.04774 0.35851 0.72747
 C314 C 1.04926 0.36019 0.70427
 C315 C 1.03708 0.34548 0.69062
 C316 C 1.04146 0.28851 0.67539
 C317 C 1.05334 0.27512 0.66027
 C318 C 1.04565 0.27330 0.63808
 C319 C 1.02615 0.28608 0.63149
 C320 C 1.01474 0.29993 0.64652
 H321 H 0.94896 0.32446 0.66039
 H322 H 0.92586 0.30002 0.63683
 H323 H 0.96477 0.24376 0.66132
 H324 H 0.98808 0.26849 0.68480
 H325 H 0.98244 0.35845 0.68291
 H326 H 0.96178 0.38459 0.70716
 H327 H 0.95973 0.30420 0.72376
 H328 H 1.01160 0.31385 0.73046
 H329 H 1.03305 0.33943 0.75446
 H330 H 1.05934 0.37326 0.69666
 H331 H 1.03807 0.34737 0.67281
 H332 H 1.04735 0.28894 0.69245
 H333 H 1.06781 0.26534 0.66645
 H334 H 1.02012 0.28619 0.61449
 H335 H 1.00027 0.30996 0.64073
 H336 H 0.93931 0.33031 0.74828
 C337 C 0.30833 -0.00947 0.31217
 C338 C 0.30968 0.01298 0.31197
 C339 C 0.32688 0.02462 0.29795
 C340 C 0.29547 0.02686 0.32713
 C341 C 0.29354 -0.02116 0.32847
 C342 C 0.32306 -0.02349 0.29755
 C343 C 0.35090 0.02242 0.30212
 C344 C 0.36704 0.03385 0.28915
 C345 C 0.35938 0.04740 0.27168
 C346 C 0.33533 0.04940 0.26741
 C347 C 0.31917 0.03829 0.28065
 C348 C 0.30669 0.04109 0.34208
 C349 C 0.29370 0.05365 0.35705
 C350 C 0.26916 0.05240 0.35727
 C351 C 0.25792 0.03838 0.34199
 C352 C 0.27097 0.02575 0.32703
 C353 C 0.27461 -0.03393 0.32120
 C354 C 0.26090 -0.04539 0.33648
 C355 C 0.26630 -0.04461 0.35918
 C356 C 0.28540 -0.03193 0.36639
 C357 C 0.29886 -0.02019 0.35115
 C358 C 0.32328 -0.02055 0.27451
 C359 C 0.33787 -0.03346 0.26115
 C360 C 0.35239 -0.05002 0.27046
 C361 C 0.35157 -0.05303 0.29367
 C362 C 0.33714 -0.03999 0.30693
 H363 H 0.35706 0.01203 0.31554
 H364 H 0.38552 0.03207 0.29269
 H365 H 0.32908 0.05993 0.25414
 H366 H 0.30066 0.04020 0.27733
 H367 H 0.32558 0.04211 0.34249
 H368 H 0.30292 0.06401 0.36879
 H369 H 0.26198 0.01509 0.31539
 H370 H 0.27043 -0.03493 0.30372
 H371 H 0.24637 -0.05522 0.33055
 H372 H 0.28981 -0.03105 0.38383
 H373 H 0.31360 -0.01056 0.35696
 H374 H 0.31205 -0.00830 0.26684
 H375 H 0.33692 -0.03088 0.24345
 H376 H 0.36287 -0.06471 0.30204
 H377 H 0.33742 -0.04245 0.32470
 H378 H 0.23905 0.03731 0.34149
 C379 C 0.68911 -0.01152 0.68719
 C380 C 0.69013 0.01100 0.68710
 C381 C 0.67634 0.02493 0.70254
 C382 C 0.70440 0.02291 0.67049
 C383 C 0.70391 -0.02472 0.67192
 C384 C 0.67314 -0.02416 0.70194
 C385 C 0.66146 0.04127 0.69392
 C386 C 0.64771 0.05410 0.70798
 C387 C 0.64869 0.05105 0.73105
 C388 C 0.66395 0.03493 0.73973
 C389 C 0.67775 0.02205 0.72560
 C390 C 0.69861 0.02191 0.64792
 C391 C 0.71196 0.03336 0.63236
 C392 C 0.73142 0.04579 0.63913
 C393 C 0.73722 0.04670 0.66174
 C394 C 0.72364 0.03552 0.67734
 C395 C 0.72837 -0.02341 0.67293
 C396 C 0.74211 -0.03551 0.65814
 C397 C 0.73164 -0.04922 0.64213
 C398 C 0.70711 -0.05074 0.64144
 C399 C 0.69340 -0.03868 0.65628
 C400 C 0.68171 -0.04262 0.71345
 C401 C 0.66696 -0.05530 0.72670
 C402 C 0.64312 -0.04972 0.72912
 C403 C 0.63467 -0.03102 0.71756
 C404 C 0.64936 -0.01874 0.70380
 H405 H 0.66007 0.04373 0.67619
 H406 H 0.63589 0.06611 0.70073
 H407 H 0.66532 0.03240 0.75744
 H408 H 0.68941 0.00975 0.73259
 H409 H 0.68369 0.01236 0.64242
 H410 H 0.70722 0.03237 0.61500
 H411 H 0.72823 0.03651 0.69473
 H412 H 0.73678 -0.01299 0.68517
 H413 H 0.76094 -0.03428 0.65936
 H414 H 0.69849 -0.06090 0.62914
 H415 H 0.67454 -0.03989 0.65530
 H416 H 0.69998 -0.04719 0.71227
 H417 H 0.67466 -0.06897 0.73570
 H418 H 0.61638 -0.02644 0.71808
 H419 H 0.64202 -0.00516 0.69437
 H420 H 0.75201 0.05636 0.66735
 C421 C 0.30436 1.00868 0.69422
 C422 C 0.30445 0.98622 0.69242
 C423 C 0.32024 0.97239 0.70627
 C424 C 0.28966 0.97428 0.67603
 C425 C 0.28881 1.02285 0.68053
 C426 C 0.32125 1.02024 0.70878
 C427 C 0.33630 0.95819 0.69600
 C428 C 0.35134 0.94512 0.70871
 C429 C 0.35049 0.94583 0.73198
 C430 C 0.33421 0.95995 0.74224
 C431 C 0.31916 0.97306 0.72948
 C432 C 0.28999 0.97984 0.65342
 C433 C 0.27640 0.96804 0.63821
 C434 C 0.26281 0.95007 0.64525
 C435 C 0.26275 0.94432 0.66778
 C436 C 0.27600 0.95635 0.68302
 C437 C 0.26447 1.02003 0.68057
 C438 C 0.25033 1.03250 0.66630
 C439 C 0.26030 1.04809 0.65185
 C440 C 0.28463 1.05126 0.65237
 C441 C 0.29869 1.03888 0.66665
 C442 C 0.31328 1.03221 0.72716
 C443 C 0.32915 1.04330 0.74085
 C444 C 0.35314 1.04297 0.73601
 C445 C 0.36105 1.03110 0.71747
 C446 C 0.34523 1.01971 0.70402
 H447 H 0.33738 0.95747 0.67811
 H448 H 0.36389 0.93467 0.70030
 H449 H 0.33288 0.96061 0.76011
 H450 H 0.30657 0.98362 0.73770
 H451 H 0.30098 0.99311 0.64749
 H452 H 0.27701 0.97253 0.62086
 H453 H 0.27565 0.95164 0.70033
 H454 H 0.25649 1.00794 0.69139
 H455 H 0.23162 1.02991 0.66654
 H456 H 0.29294 1.06284 0.64124
 H457 H 0.31745 1.04126 0.66630
 H458 H 0.29480 1.03283 0.73095
 H459 H 0.32267 1.05251 0.75495
 H460 H 0.37948 1.03059 0.71348
 H461 H 0.35160 1.01065 0.68978
 H462 H 0.25237 0.93053 0.67357
 C463 C 0.69243 1.01329 0.30799
 C464 C 0.69272 0.99077 0.30879
 C465 C 0.67816 0.97684 0.29393
 C466 C 0.70642 0.97890 0.32595
 C467 C 0.70736 1.02662 0.32310
 C468 C 0.67649 1.02586 0.29307
 C469 C 0.66311 0.96112 0.30323
 C470 C 0.64885 0.94814 0.28975
 C471 C 0.64942 0.95043 0.26659
 C472 C 0.66471 0.96602 0.25722
 C473 C 0.67906 0.97904 0.27078
 C474 C 0.70036 0.98073 0.34838
 C475 C 0.71272 0.96884 0.36443
 C476 C 0.73148 0.95514 0.35831
 C477 C 0.73770 0.95356 0.33587
 C478 C 0.72507 0.96517 0.31977
 C479 C 0.73170 1.02408 0.32336
 C480 C 0.74543 1.03631 0.33809
 C481 C 0.73520 1.05168 0.35287
 C482 C 0.71063 1.05431 0.35204
 C483 C 0.69700 1.04200 0.33735
 C484 C 0.68538 1.04332 0.28030
 C485 C 0.67052 1.05604 0.26702
 C486 C 0.64651 1.05143 0.26615
 C487 C 0.63757 1.03400 0.27891
 C488 C 0.65236 1.02154 0.29252
 H489 H 0.66204 0.95919 0.32103
 H490 H 0.63700 0.93656 0.29751
 H491 H 0.66574 0.96798 0.23942
 H492 H 0.69081 0.99085 0.26324
 H493 H 0.68586 0.99113 0.35336
 H494 H 0.70768 0.97034 0.38165
 H495 H 0.72984 0.96352 0.30250
 H496 H 0.74008 1.01264 0.31206
 H497 H 0.76416 1.03414 0.33713
 H498 H 0.70148 1.06505 0.36342
 H499 H 0.67820 1.04411 0.33746
 H500 H 0.70386 1.04712 0.28066
 H501 H 0.67779 1.06939 0.25729
 H502 H 0.61903 1.03039 0.27876
 H503 H 0.64493 1.00871 0.30281
 H504 H 0.75198 0.94294 0.33078
 O505 O 0.87272 0.83978 0.47655
 O506 O 0.84241 0.87126 0.52000
 O507 O 0.87334 0.83952 0.51971
 O508 O 0.84124 0.87100 0.47690
 O509 O 0.81282 0.84642 0.47813
 O510 O 0.84544 0.81442 0.51969
 O511 O 0.81464 0.84604 0.52099
 O512 O 0.84434 0.81517 0.47650
 Cu513 Cu 0.86026 0.85787 0.49823
 Cu514 Cu 0.82654 0.82797 0.49883
 C515 C 0.86371 0.82214 0.46900
 C516 C 0.82336 0.86407 0.52796
 C517 C 0.86485 0.82152 0.52699
 C518 C 0.82135 0.86419 0.47044
 O519 O 0.12701 0.15878 0.47949
 O520 O 0.15512 0.12662 0.52398
 O521 O 0.12393 0.15839 0.52235
 O522 O 0.15852 0.12779 0.48084
 O523 O 0.18581 0.15343 0.48277
 O524 O 0.15250 0.18267 0.52572
 O525 O 0.18333 0.15135 0.52599
 O526 O 0.15409 0.18450 0.48287
 Cu527 Cu 0.13840 0.14032 0.50147
 Cu528 Cu 0.17180 0.17043 0.50453
 C529 C 0.13554 0.17730 0.47381
 C530 C 0.17405 0.13346 0.53260
 C531 C 0.13239 0.17574 0.53113
 C532 C 0.17797 0.13561 0.47446
 O533 O 0.15575 0.87147 0.47744
 O534 O 0.12510 0.83883 0.51963
 O535 O 0.15597 0.87073 0.52069
 O536 O 0.12564 0.83914 0.47692
 O537 O 0.15520 0.81562 0.47591
 O538 O 0.18393 0.84554 0.52133
 O539 O 0.15344 0.81401 0.51907
 O540 O 0.18521 0.84788 0.47836
 Cu541 Cu 0.13778 0.85757 0.49870
 Cu542 Cu 0.17233 0.82832 0.49862
 C543 C 0.17580 0.86539 0.47082
 C544 C 0.13382 0.82069 0.52631
 C545 C 0.17504 0.86333 0.52866
 C546 C 0.13535 0.82199 0.46893
 O547 O 0.87093 0.16280 0.52191
 O548 O 0.84287 0.13141 0.47680
 O549 O 0.87179 0.16471 0.47882
 O550 O 0.84180 0.12984 0.52000
 O551 O 0.81170 0.15272 0.51945
 O552 O 0.84233 0.18826 0.47963
 O553 O 0.81353 0.15512 0.47664
 O554 O 0.84078 0.18558 0.52265
 Cu555 Cu 0.85983 0.14484 0.49933
 Cu556 Cu 0.82414 0.17277 0.49961
 C557 C 0.86056 0.17950 0.53010
 C558 C 0.82339 0.13791 0.46898
 C559 C 0.86224 0.18257 0.47231
 C560 C 0.82152 0.13527 0.52664
 O561 O 0.52481 0.83811 0.86843
 O562 O 0.47690 0.86623 0.83861
 O563 O 0.47943 0.83555 0.86918
 O564 O 0.52219 0.86839 0.83752
 O565 O 0.52374 0.84196 0.81231
 O566 O 0.47978 0.81017 0.84291
 O567 O 0.47826 0.84065 0.81258
 O568 O 0.52525 0.81205 0.84285
 Cu569 Cu 0.50072 0.85466 0.85604
 Cu570 Cu 0.50180 0.82362 0.82510
 C571 C 0.53318 0.82020 0.86075
 C572 C 0.46955 0.85836 0.82036
 C573 C 0.47225 0.81725 0.86136
 C574 C 0.53037 0.86064 0.81956
 O575 O 0.52035 0.16036 0.12631
 O576 O 0.47695 0.12891 0.15885
 O577 O 0.47481 0.15799 0.12702
 O578 O 0.52220 0.13023 0.15743
 O579 O 0.52290 0.15753 0.18170
 O580 O 0.47322 0.18381 0.15279
 O581 O 0.47792 0.15490 0.18452
 O582 O 0.51836 0.18742 0.15078
 Cu583 Cu 0.49866 0.14174 0.13983
 Cu584 Cu 0.49807 0.17360 0.16992
 C585 C 0.52641 0.17951 0.13289
 C586 C 0.47047 0.13642 0.17754
 C587 C 0.46571 0.17552 0.13477
 C588 C 0.53060 0.13904 0.17480
 O589 O 0.52358 0.12654 0.84142
 O590 O 0.47887 0.15603 0.87395
 O591 O 0.47800 0.12503 0.84355
 O592 O 0.52399 0.15744 0.87154
 O593 O 0.52074 0.18320 0.84584
 O594 O 0.47661 0.14990 0.81684
 O595 O 0.47527 0.18068 0.84718
 O596 O 0.52178 0.15261 0.81590
 Cu597 Cu 0.50129 0.13865 0.86021
 Cu598 Cu 0.49825 0.16916 0.82885
 C599 C 0.53057 0.13473 0.82322
 C600 C 0.46949 0.17342 0.86613
 C601 C 0.46977 0.13177 0.82518
 C602 C 0.53012 0.17596 0.86351
 O603 O 0.47578 0.84293 0.12940
 O604 O 0.52183 0.87247 0.16024
 O605 O 0.52124 0.84208 0.12931
 O606 O 0.47617 0.87248 0.16098
 O607 O 0.47641 0.84593 0.18601
 O608 O 0.52157 0.81617 0.15506
 O609 O 0.52185 0.84617 0.18555
 O610 O 0.47614 0.81653 0.15460
 Cu611 Cu 0.49874 0.86016 0.14245
 Cu612 Cu 0.49896 0.82859 0.17283
 C613 C 0.46816 0.82460 0.13666
 C614 C 0.52975 0.86435 0.17817
 C615 C 0.52913 0.82392 0.13691
 C616 C 0.46856 0.86428 0.17897
 O617 O 0.84566 0.47994 0.87497
 O618 O 0.87731 0.52166 0.84237
 O619 O 0.84709 0.52318 0.87489
 O620 O 0.87568 0.47885 0.84302
 O621 O 0.84741 0.48055 0.81812
 O622 O 0.81766 0.52317 0.85119
 O623 O 0.84769 0.52361 0.81891
 O624 O 0.81703 0.48042 0.85039
 Cu625 Cu 0.86431 0.50092 0.86130
 Cu626 Cu 0.82956 0.50202 0.83220
 C627 C 0.82600 0.47292 0.86814
 C628 C 0.86791 0.52973 0.82507
 C629 C 0.82730 0.53049 0.86867
 C630 C 0.86655 0.47230 0.82499
 O631 O 0.12831 0.52096 0.16274
 O632 O 0.15877 0.47861 0.12922
 O633 O 0.12786 0.47789 0.16097
 O634 O 0.15837 0.52183 0.13047
 O635 O 0.18734 0.52058 0.15467
 O636 O 0.15662 0.47677 0.18535
 O637 O 0.18744 0.47803 0.15375
 O638 O 0.15717 0.51993 0.18700
 Cu639 Cu 0.14043 0.49989 0.14340
 Cu640 Cu 0.17493 0.49875 0.17272
 C641 C 0.13764 0.52771 0.18064
 C642 C 0.17848 0.47128 0.13573
 C643 C 0.13699 0.46980 0.17838
 C644 C 0.17814 0.52857 0.13724
 O645 O 0.87544 0.47689 0.15859
 O646 O 0.84398 0.51921 0.12626
 O647 O 0.87484 0.51939 0.15817
 O648 O 0.84460 0.47594 0.12652
 O649 O 0.81601 0.47606 0.15093
 O650 O 0.84637 0.51932 0.18278
 O651 O 0.81567 0.51927 0.15097
 O652 O 0.84666 0.47630 0.18287
 Cu653 Cu 0.86247 0.49784 0.13980
 Cu654 Cu 0.82827 0.49771 0.16929
 C655 C 0.86655 0.46958 0.17639
 C656 C 0.82455 0.52667 0.13320
 C657 C 0.86592 0.52657 0.17604
 C658 C 0.82514 0.46851 0.13333
 O659 O 0.12382 0.47893 0.83979
 O660 O 0.15558 0.52085 0.87227
 O661 O 0.12448 0.52193 0.84061
 O662 O 0.15480 0.47789 0.87149
 O663 O 0.18293 0.47772 0.84659
 O664 O 0.15278 0.52202 0.81588
 O665 O 0.18380 0.52077 0.84747
 O666 O 0.15198 0.47893 0.81493
 Cu667 Cu 0.13684 0.49992 0.85852
 Cu668 Cu 0.17069 0.49986 0.82872
 C669 C 0.13244 0.47176 0.82178
 C670 C 0.17518 0.52795 0.86547
 C671 C 0.13343 0.52952 0.82295
 C672 C 0.17406 0.47026 0.86435
 C673 C 0.23021 0.40752 0.08305
 C674 C 0.21720 0.39338 0.06899
 C675 C 0.22870 0.37714 0.05636
 C676 C 0.25313 0.37525 0.05701
 C677 C 0.26601 0.38975 0.07038
 C678 C 0.25476 0.40562 0.08330
 C679 C 0.21727 0.42409 0.09687
 C680 C 0.22844 0.43754 0.11271
 C681 C 0.21569 0.45266 0.12525
 C682 C 0.19151 0.45500 0.12226
 C683 C 0.18011 0.44162 0.10660
 C684 C 0.19274 0.42595 0.09420
 C685 C 0.19288 0.39573 0.06743
 C686 C 0.18096 0.41188 0.07950
 H687 H 0.18291 0.38505 0.05652
 H688 H 0.16218 0.41316 0.07753
 H689 H 0.21871 0.36620 0.04572
 H690 H 0.28489 0.38855 0.07110
 H691 H 0.22491 0.46275 0.13725
 H692 H 0.16136 0.44308 0.10442
 H693 H 0.26565 0.41629 0.09321
 H694 H 0.24695 0.43650 0.11591
 C695 C 0.77560 0.59563 0.08429
 C696 C 0.75581 0.60519 0.09461
 C697 C 0.74300 0.62183 0.08377
 C698 C 0.74935 0.62907 0.06253
 C699 C 0.76896 0.61955 0.05234
 C700 C 0.78194 0.60311 0.06303
 C701 C 0.78874 0.57782 0.09643
 C702 C 0.80887 0.56747 0.08782
 C703 C 0.82041 0.55093 0.09976
 C704 C 0.81221 0.54418 0.12056
 C705 C 0.79222 0.55442 0.12930
 C706 C 0.78056 0.57117 0.11751
 C707 C 0.74880 0.59801 0.11561
 C708 C 0.76084 0.58131 0.12676
 H709 H 0.73365 0.60532 0.12351
 H710 H 0.75461 0.57627 0.14293
 H711 H 0.72806 0.62923 0.09196
 H712 H 0.77405 0.62451 0.03581
 H713 H 0.83581 0.54335 0.09261
 H714 H 0.78576 0.54948 0.14542
 H715 H 0.79669 0.59635 0.05423
 H716 H 0.81604 0.57191 0.07194
 C717 C 0.77583 0.40599 0.91787
 C718 C 0.75119 0.40578 0.91564
 C719 C 0.73786 0.39026 0.92737
 C720 C 0.74874 0.37438 0.94081
 C721 C 0.77316 0.37414 0.94252
 C722 C 0.78658 0.38981 0.93131
 C723 C 0.78936 0.42320 0.90546
 C724 C 0.81369 0.42598 0.90788
 C725 C 0.82549 0.44223 0.89588
 C726 C 0.81341 0.45592 0.88099
 C727 C 0.78917 0.45344 0.87861
 C728 C 0.77705 0.43750 0.89096
 C729 C 0.74002 0.42078 0.90144
 C730 C 0.75270 0.43607 0.88911
 H731 H 0.72117 0.42051 0.89960
 H732 H 0.74325 0.44714 0.87814
 H733 H 0.71898 0.39020 0.92569
 H734 H 0.78186 0.36193 0.95278
 H735 H 0.84419 0.44391 0.89808
 H736 H 0.77962 0.46424 0.86743
 H737 H 0.80529 0.38880 0.93322
 H738 H 0.82391 0.41597 0.91909
 C739 C 0.22725 0.59237 0.91736
 C740 C 0.24787 0.60095 0.90776
 C741 C 0.26153 0.61635 0.91942
 C742 C 0.25514 0.62333 0.94075
 C743 C 0.23473 0.61475 0.95025
 C744 C 0.22095 0.59951 0.93877
 C745 C 0.21318 0.57593 0.90433
 C746 C 0.19220 0.56664 0.91220
 C747 C 0.17988 0.55123 0.89951
 C748 C 0.18811 0.54460 0.87867
 C749 C 0.20888 0.55388 0.87061
 C750 C 0.22136 0.56947 0.88318
 C751 C 0.25485 0.59404 0.88665
 C752 C 0.24194 0.57858 0.87467
 H753 H 0.27065 0.60059 0.87930
 H754 H 0.24818 0.57369 0.85845
 H755 H 0.27709 0.62306 0.91176
 H756 H 0.22957 0.61956 0.96681
 H757 H 0.16389 0.54439 0.90616
 H758 H 0.21539 0.54901 0.85448
 H759 H 0.20558 0.59345 0.94704
 H760 H 0.18497 0.57102 0.92808
 C761 C 0.08719 0.23067 0.40805
 C762 C 0.09087 0.25381 0.40892
 C763 C 0.07900 0.26786 0.39417
 C764 C 0.06391 0.25917 0.37805
 C765 C 0.06081 0.23623 0.37674
 C766 C 0.07220 0.22213 0.39158
 C767 C 0.09961 0.21632 0.42460
 C768 C 0.09578 0.19336 0.42625
 C769 C 0.10753 0.18077 0.44216
 C770 C 0.12357 0.19065 0.45668
 C771 C 0.12757 0.21349 0.45516
 C772 C 0.11547 0.22640 0.43953
 C773 C 0.10654 0.26278 0.42435
 C774 C 0.11881 0.24933 0.43912
 H775 H 0.10951 0.28047 0.42490
 H776 H 0.13085 0.25707 0.45063
 H777 H 0.08176 0.28559 0.39496
 H778 H 0.04923 0.22922 0.36438
 H779 H 0.10407 0.16318 0.44306
 H780 H 0.13967 0.22134 0.46655
 H781 H 0.06910 0.20464 0.38977
 H782 H 0.08358 0.18483 0.41564
 C783 C 0.08260 0.76590 0.58831
 C784 C 0.09585 0.75169 0.60216
 C785 C 0.08454 0.73809 0.61762
 C786 C 0.06009 0.73784 0.61897
 C787 C 0.04696 0.75136 0.60479
 C788 C 0.05802 0.76532 0.58971
 C789 C 0.09536 0.78060 0.57245
 C790 C 0.08396 0.79663 0.55934
 C791 C 0.09658 0.80976 0.54463
 C792 C 0.12081 0.80713 0.54244
 C793 C 0.13240 0.79146 0.55564
 C794 C 0.11994 0.77849 0.57085
 C795 C 0.12022 0.75085 0.60022
 C796 C 0.13197 0.76369 0.58465
 H797 H 0.13035 0.73985 0.61069
 H798 H 0.15081 0.76220 0.58358
 H799 H 0.09471 0.72732 0.62832
 H800 H 0.02805 0.75133 0.60558
 H801 H 0.08725 0.82182 0.53469
 H802 H 0.15120 0.78960 0.55431
 H803 H 0.04699 0.77531 0.57919
 H804 H 0.06538 0.79944 0.56029
 C805 C 0.91263 0.77130 0.40166
 C806 C 0.90066 0.75302 0.39241
 C807 C 0.91175 0.73944 0.37674
 C808 C 0.93490 0.74352 0.37026
 C809 C 0.94666 0.76174 0.37936
 C810 C 0.93572 0.77548 0.39478
 C811 C 0.90029 0.78512 0.41868
 C812 C 0.91055 0.80378 0.42873
 C813 C 0.89855 0.81580 0.44485
 C814 C 0.87602 0.80957 0.45147
 C815 C 0.86550 0.79119 0.44135
 C816 C 0.87738 0.77903 0.42503
 C817 C 0.87782 0.74815 0.39909
 C818 C 0.86648 0.76081 0.41512
 H819 H 0.86864 0.73416 0.39201
 H820 H 0.84890 0.75620 0.41988
 H821 H 0.90235 0.72559 0.36964
 H822 H 0.96465 0.76509 0.37498
 H823 H 0.90710 0.82995 0.45230
 H824 H 0.84803 0.78629 0.44619
 H825 H 0.94582 0.78903 0.40133
 H826 H 0.92783 0.80939 0.42445
 C827 C 0.90507 0.23000 0.60040
 C828 C 0.92909 0.22587 0.60435
 C829 C 0.94140 0.23855 0.61999
 C830 C 0.93012 0.25538 0.63194
 C831 C 0.90613 0.25888 0.62855
 C832 C 0.89374 0.24640 0.61305
 C833 C 0.89286 0.21690 0.58274
 C834 C 0.86939 0.22064 0.57666
 C835 C 0.85899 0.20842 0.55968
 C836 C 0.87162 0.19205 0.54838
 C837 C 0.89496 0.18805 0.55443
 C838 C 0.90569 0.20045 0.57130
 C839 C 0.94076 0.20930 0.59249
 C840 C 0.92927 0.19675 0.57644
 H841 H 0.95911 0.20603 0.59559
 H842 H 0.93911 0.18417 0.56768
 H843 H 0.95996 0.23577 0.62236
 H844 H 0.89688 0.27142 0.63790
 H845 H 0.84096 0.21186 0.55538
 H846 H 0.90497 0.17555 0.54572
 H847 H 0.87538 0.24997 0.61119
 H848 H 0.85878 0.23308 0.58457
 C849 C 0.40825 0.08533 0.23331
 C850 C 0.39209 0.07117 0.22261
 C851 C 0.37604 0.05894 0.23520
 C852 C 0.37640 0.06003 0.25840
 C853 C 0.39301 0.07334 0.26898
 C854 C 0.40869 0.08593 0.25666
 C855 C 0.42439 0.09884 0.21930
 C856 C 0.43943 0.11497 0.22824
 C857 C 0.45412 0.12717 0.21455
 C858 C 0.45445 0.12350 0.19162
 C859 C 0.43943 0.10761 0.18246
 C860 C 0.42411 0.09560 0.19606
 C861 C 0.39227 0.06910 0.19950
 C862 C 0.40822 0.08074 0.18654
 H863 H 0.38008 0.05809 0.19130
 H864 H 0.40783 0.07836 0.16875
 H865 H 0.36347 0.04830 0.22699
 H866 H 0.39359 0.07430 0.28690
 H867 H 0.46551 0.13939 0.22201
 H868 H 0.43930 0.10495 0.16469
 H869 H 0.42108 0.09585 0.26574
 H870 H 0.43993 0.11864 0.24571
 C871 C 0.60165 0.08956 0.77147
 C872 C 0.60620 0.06713 0.77671
 C873 C 0.62196 0.05477 0.76383
 C874 C 0.63345 0.06446 0.74576
 C875 C 0.62959 0.08693 0.74120
 C876 C 0.61396 0.09933 0.75384
 C877 C 0.58377 0.10184 0.78482
 C878 C 0.57690 0.12371 0.77999
 C879 C 0.55974 0.13426 0.79252
 C880 C 0.54903 0.12341 0.81032
 C881 C 0.55583 0.10166 0.81540
 C882 C 0.57286 0.09075 0.80267
 C883 C 0.59481 0.05712 0.79459
 C884 C 0.57867 0.06873 0.80741
 H885 H 0.59838 0.03999 0.79871
 H886 H 0.57032 0.06021 0.82104
 H887 H 0.62473 0.03741 0.76749
 H888 H 0.63866 0.09498 0.72772
 H889 H 0.55486 0.15104 0.78823
 H890 H 0.54753 0.09303 0.82900
 H891 H 0.61175 0.11648 0.74942
 H892 H 0.58431 0.13292 0.76644
 C893 C 0.39878 0.90571 0.76976
 C894 C 0.39324 0.92744 0.77676
 C895 C 0.37731 0.94034 0.76457
 C896 C 0.36663 0.93191 0.74538
 C897 C 0.37177 0.91019 0.73878
 C898 C 0.38758 0.89725 0.75075
 C899 C 0.41649 0.89276 0.78280
 C900 C 0.42387 0.87135 0.77672
 C901 C 0.44087 0.86022 0.78906
 C902 C 0.45092 0.87002 0.80786
 C903 C 0.44349 0.89123 0.81424
 C904 C 0.42656 0.90269 0.80180
 C905 C 0.40377 0.93626 0.79578
 C906 C 0.41998 0.92411 0.80808
 H907 H 0.39948 0.95286 0.80121
 H908 H 0.42768 0.93173 0.82262
 H909 H 0.37362 0.95715 0.76975
 H910 H 0.36342 0.90310 0.72432
 H911 H 0.44624 0.84387 0.78376
 H912 H 0.45121 0.89905 0.82867
 H913 H 0.39076 0.88071 0.74478
 H914 H 0.41697 0.86296 0.76239
 C915 C 0.60150 0.91096 0.22797
 C916 C 0.60588 0.93323 0.22205
 C917 C 0.62193 0.94590 0.23433
 C918 C 0.63382 0.93669 0.25251
 C919 C 0.63005 0.91439 0.25778
 C920 C 0.61417 0.90168 0.24573
 C921 C 0.58340 0.89833 0.21517
 C922 C 0.57685 0.87654 0.22058
 C923 C 0.55953 0.86564 0.20851
 C924 C 0.54831 0.87606 0.19064
 C925 C 0.55479 0.89773 0.18501
 C926 C 0.57202 0.90897 0.19724
 C927 C 0.59403 0.94279 0.20410
 C928 C 0.57761 0.93087 0.19185
 H929 H 0.59745 0.95979 0.19946
 H930 H 0.56890 0.93905 0.17814
 H931 H 0.62463 0.96314 0.23013
 H932 H 0.63941 0.90671 0.27139
 H933 H 0.55491 0.84893 0.21323
 H934 H 0.54614 0.90603 0.17133
 H935 H 0.61206 0.88468 0.25069
 H936 H 0.58465 0.86765 0.23420
 C937 C 0.40393 0.22529 0.91775
 C938 C 0.38515 0.23531 0.90630
 C939 C 0.36890 0.24845 0.91778
 C940 C 0.37155 0.25306 0.94066
 C941 C 0.39109 0.24360 0.95156
 C942 C 0.40676 0.22985 0.94042
 C943 C 0.42053 0.21092 0.90501
 C944 C 0.43818 0.19821 0.91525
 C945 C 0.45364 0.18560 0.90257
 C946 C 0.45210 0.18561 0.87940
 C947 C 0.43422 0.19770 0.86904
 C948 C 0.41813 0.20989 0.88168
 C949 C 0.38311 0.23280 0.88329
 C950 C 0.39955 0.22081 0.87119
 H951 H 0.36887 0.24068 0.87439
 H952 H 0.39749 0.21981 0.85336
 H953 H 0.35521 0.25632 0.90820
 H954 H 0.39390 0.24563 0.96916
 H955 H 0.46723 0.17624 0.91090
 H956 H 0.43263 0.19735 0.85114
 H957 H 0.42115 0.22314 0.94986
 H958 H 0.44025 0.19767 0.93301
 C959 C 0.60587 0.77279 0.90867
 C960 C 0.60931 0.77846 0.93120
 C961 C 0.62521 0.76638 0.94428
 C962 C 0.63785 0.74863 0.93522
 C963 C 0.63509 0.74370 0.91266
 C964 C 0.61938 0.75557 0.89954
 C965 C 0.58773 0.78518 0.89563
 C966 C 0.58192 0.77978 0.87359
 C967 C 0.56436 0.79128 0.86237
 C968 C 0.55221 0.80859 0.87269
 C969 C 0.55803 0.81430 0.89457
 C970 C 0.57545 0.80259 0.90615
 C971 C 0.59665 0.79594 0.94061
 C972 C 0.58024 0.80786 0.92831
 H973 H 0.59939 0.80042 0.95781
 H974 H 0.57085 0.82117 0.93639
 H975 H 0.62716 0.77033 0.96170
 H976 H 0.64506 0.73047 0.90510
 H977 H 0.56027 0.78654 0.84550
 H978 H 0.54863 0.82753 0.90279
 H979 H 0.61803 0.75087 0.88236
 H980 H 0.59042 0.76654 0.86476
 C981 C 0.39928 0.77455 0.08651
 C982 C 0.39133 0.75463 0.09609
 C983 C 0.37574 0.74095 0.08448
 C984 C 0.36785 0.74641 0.06298
 C985 C 0.37548 0.76663 0.05385
 C986 C 0.39089 0.78040 0.06536
 C987 C 0.41653 0.78831 0.09924
 C988 C 0.42583 0.80828 0.09109
 C989 C 0.44234 0.82013 0.10335
 C990 C 0.45004 0.81242 0.12405
 C991 C 0.44062 0.79274 0.13245
 C992 C 0.42403 0.78070 0.12028
 C993 C 0.39910 0.74827 0.11718
 C994 C 0.41512 0.76100 0.12899
 H995 H 0.39292 0.73306 0.12460
 H996 H 0.42077 0.75522 0.14514
 H997 H 0.36940 0.72626 0.09273
 H998 H 0.37064 0.77156 0.03725
 H999 H 0.44927 0.83529 0.09646
 H1000 H 0.44633 0.78663 0.14847
 H1001 H 0.39633 0.79537 0.05718
 H1002 H 0.42075 0.81499 0.07524
 C1003 C 0.59062 0.23295 0.08141
 C1004 C 0.60702 0.22167 0.06797
 C1005 C 0.62360 0.23368 0.05577
 C1006 C 0.62360 0.25688 0.05621
 C1007 C 0.60684 0.26801 0.06890
 C1008 C 0.59061 0.25627 0.08141
 C1009 C 0.57382 0.21956 0.09485
 C1010 C 0.55831 0.22916 0.11017
 C1011 C 0.54310 0.21603 0.12244
 C1012 C 0.54272 0.19301 0.11964
 C1013 C 0.55814 0.18321 0.10448
 C1014 C 0.57395 0.19626 0.09240
 C1015 C 0.60656 0.19854 0.06660
 C1016 C 0.59015 0.18614 0.07827
 H1017 H 0.61896 0.18989 0.05616
 H1018 H 0.59040 0.16830 0.07648
 H1019 H 0.63628 0.22502 0.04563
 H1020 H 0.60654 0.28592 0.06941
 H1021 H 0.53142 0.22401 0.13407
 H1022 H 0.55822 0.16539 0.10248
 H1023 H 0.57815 0.26579 0.09082
 H1024 H 0.55781 0.24673 0.11319
 C1025 C 0.21984 0.08326 0.60258
 C1026 C 0.23813 0.09399 0.61416
 C1027 C 0.25065 0.08267 0.63068
 C1028 C 0.24565 0.06051 0.63568
 C1029 C 0.22734 0.04998 0.62434
 C1030 C 0.21455 0.06117 0.60807
 C1031 C 0.20728 0.09582 0.58467
 C1032 C 0.18861 0.08684 0.57233
 C1033 C 0.17781 0.09910 0.55555
 C1034 C 0.18538 0.12057 0.55053
 C1035 C 0.20379 0.12974 0.56287
 C1036 C 0.21464 0.11765 0.57989
 C1037 C 0.24418 0.11579 0.60894
 C1038 C 0.23279 0.12732 0.59209
 H1039 H 0.25818 0.12400 0.61782
 H1040 H 0.23832 0.14408 0.58852
 H1041 H 0.26451 0.09113 0.63954
 H1042 H 0.22330 0.03280 0.62760
 H1043 H 0.16359 0.09165 0.54635
 H1044 H 0.20964 0.14641 0.55932
 H1045 H 0.20094 0.05207 0.59974
 H1046 H 0.18206 0.07042 0.57535
 C1047 C 0.77590 0.08757 0.40024
 C1048 C 0.75437 0.09611 0.39250
 C1049 C 0.74129 0.08442 0.37668
 C1050 C 0.74902 0.06389 0.36824
 C1051 C 0.77075 0.05578 0.37585
 C1052 C 0.78391 0.06735 0.39154
 C1053 C 0.78905 0.10038 0.41756
 C1054 C 0.81053 0.09323 0.42659
 C1055 C 0.82175 0.10553 0.44307
 C1056 C 0.81190 0.12527 0.45098
 C1057 C 0.79070 0.13268 0.44186
 C1058 C 0.77926 0.12045 0.42533
 C1059 C 0.74586 0.11627 0.40064
 C1060 C 0.75801 0.12815 0.41671
 H1061 H 0.72940 0.12289 0.39464
 H1062 H 0.75056 0.14356 0.42260
 H1063 H 0.72535 0.09192 0.37055
 H1064 H 0.77738 0.03986 0.37062
 H1065 H 0.83812 0.09943 0.44976
 H1066 H 0.78291 0.14794 0.44776
 H1067 H 0.80015 0.05995 0.39684
 H1068 H 0.81891 0.07815 0.42131
 C1069 C 0.77344 0.91508 0.59448
 C1070 C 0.75348 0.90513 0.60401
 C1071 C 0.74016 0.91671 0.61971
 C1072 C 0.74619 0.93833 0.62600
 C1073 C 0.76597 0.94815 0.61651
 C1074 C 0.77944 0.93673 0.60100
 C1075 C 0.78708 0.90218 0.57763
 C1076 C 0.80740 0.91041 0.56741
 C1077 C 0.81921 0.89793 0.55151
 C1078 C 0.81112 0.87692 0.54532
 C1079 C 0.79108 0.86844 0.55562
 C1080 C 0.77911 0.88082 0.57170
 C1081 C 0.74677 0.88378 0.59767
 C1082 C 0.75923 0.87194 0.58180
 H1083 H 0.73148 0.87616 0.60497
 H1084 H 0.75318 0.85555 0.57734
 H1085 H 0.72509 0.90882 0.62712
 H1086 H 0.77082 0.96492 0.62077
 H1087 H 0.83465 0.90488 0.54389
 H1088 H 0.78472 0.85217 0.55110
 H1089 H 0.79429 0.94527 0.59420
 H1090 H 0.81447 0.92645 0.57137
 C1091 C 0.22547 0.91813 0.40588
 C1092 C 0.25014 0.91620 0.40563
 C1093 C 0.26333 0.92870 0.39060
 C1094 C 0.25228 0.94267 0.37527
 C1095 C 0.22786 0.94415 0.37511
 C1096 C 0.21457 0.93215 0.39027
 C1097 C 0.21207 0.90485 0.42252
 C1098 C 0.18770 0.90677 0.42524
 C1099 C 0.17603 0.89401 0.44097
 C1100 C 0.18829 0.87886 0.45424
 C1101 C 0.21257 0.87692 0.45178
 C1102 C 0.22455 0.89000 0.43633
 C1103 C 0.26147 0.90157 0.42009
 C1104 C 0.24893 0.88852 0.43490
 H1105 H 0.28034 0.89997 0.41979
 H1106 H 0.25851 0.87728 0.44558
 H1107 H 0.28222 0.92719 0.39047
 H1108 H 0.21903 0.95482 0.36333
 H1109 H 0.15729 0.89588 0.44262
 H1110 H 0.22225 0.86552 0.46223
 H1111 H 0.19584 0.93392 0.38933
 H1112 H 0.17733 0.91814 0.41557
 C1113 C 0.08213 0.40632 0.76958
 C1114 C 0.09345 0.39807 0.75045
 C1115 C 0.08227 0.38239 0.73692
 C1116 C 0.05976 0.37477 0.74202
 C1117 C 0.04858 0.38302 0.76096
 C1118 C 0.05955 0.39854 0.77457
 C1119 C 0.09467 0.42310 0.78356
 C1120 C 0.08505 0.43219 0.80302
 C1121 C 0.09736 0.44786 0.81537
 C1122 C 0.11958 0.45496 0.80869
 C1123 C 0.12937 0.44592 0.78939
 C1124 C 0.11717 0.43009 0.77687
 C1125 C 0.11582 0.40556 0.74486
 C1126 C 0.12738 0.42126 0.75774
 H1127 H 0.12450 0.39925 0.73022
 H1128 H 0.14463 0.42657 0.75264
 H1129 H 0.09121 0.37597 0.72246
 H1130 H 0.03105 0.37774 0.76510
 H1131 H 0.08937 0.45451 0.83019
 H1132 H 0.14656 0.45119 0.78406
 H1133 H 0.04995 0.40430 0.78879
 H1134 H 0.06807 0.42745 0.80904
 C1135 C 0.09076 0.59387 0.23474
 C1136 C 0.06864 0.60141 0.22746
 C1137 C 0.05607 0.61693 0.24009
 C1138 C 0.06502 0.62521 0.26030
 C1139 C 0.08728 0.61773 0.26711
 C1140 C 0.09989 0.60243 0.25462
 C1141 C 0.10342 0.57698 0.22102
 C1142 C 0.12539 0.56824 0.22703
 C1143 C 0.13635 0.55238 0.21386
 C1144 C 0.12579 0.54472 0.19431
 C1145 C 0.10393 0.55337 0.18810
 C1146 C 0.09270 0.56934 0.20129
 C1147 C 0.05903 0.59323 0.20771
 C1148 C 0.07080 0.57758 0.19491
 H1149 H 0.04207 0.59897 0.20208
 H1150 H 0.06256 0.57177 0.17981
 H1151 H 0.03877 0.62158 0.23448
 H1152 H 0.09567 0.62419 0.28181
 H1153 H 0.15320 0.54605 0.21910
 H1154 H 0.09556 0.54760 0.17305
 H1155 H 0.11682 0.59764 0.26086
 H1156 H 0.13444 0.57333 0.24185
 C1157 C 0.91827 0.40969 0.23341
 C1158 C 0.90539 0.39347 0.24496
 C1159 C 0.91689 0.37858 0.25918
 C1160 C 0.94115 0.38018 0.26313
 C1161 C 0.95356 0.39711 0.25230
 C1162 C 0.94240 0.41147 0.23756
 C1163 C 0.90548 0.42476 0.21781
 C1164 C 0.91700 0.43972 0.20368
 C1165 C 0.90426 0.45381 0.18986
 C1166 C 0.87977 0.45356 0.18998
 C1167 C 0.86811 0.43835 0.20353
 C1168 C 0.88078 0.42364 0.21703
 C1169 C 0.88102 0.39259 0.24274
 C1170 C 0.86894 0.40768 0.22947
 H1171 H 0.87107 0.38033 0.25177
 H1172 H 0.85005 0.40660 0.22869
 H1173 H 0.90655 0.36651 0.26804
 H1174 H 0.97227 0.39883 0.25433
 H1175 H 0.91361 0.46533 0.17941
 H1176 H 0.84917 0.43777 0.20333
 H1177 H 0.95296 0.42398 0.22976
 H1178 H 0.93580 0.44069 0.20295
 C1179 C 0.91787 0.59114 0.76880
 C1180 C 0.90478 0.60829 0.75874
 C1181 C 0.91580 0.62351 0.74465
 C1182 C 0.93967 0.62133 0.73925
 C1183 C 0.95225 0.60358 0.74866
 C1184 C 0.94163 0.58889 0.76332
 C1185 C 0.90562 0.57563 0.78423
 C1186 C 0.91754 0.55964 0.79698
 C1187 C 0.90525 0.54515 0.81065
 C1188 C 0.88081 0.54603 0.81169
 C1189 C 0.86880 0.56226 0.79955
 C1190 C 0.88105 0.57735 0.78627
 C1191 C 0.88063 0.60973 0.76226
 C1192 C 0.86894 0.59428 0.77530
 H1193 H 0.87049 0.62271 0.75438
 H1194 H 0.85016 0.59582 0.77708
 H1195 H 0.90529 0.63631 0.73692
 H1196 H 0.97072 0.60141 0.74552
 H1197 H 0.91486 0.53285 0.82003
 H1198 H 0.84992 0.56332 0.80070
 H1199 H 0.95229 0.57573 0.76996
 H1200 H 0.93633 0.55815 0.79676
 C1201 C 0.77819 0.59687 0.92036
 C1202 C 0.75357 0.59767 0.91792
 C1203 C 0.74040 0.61303 0.93007
 C1204 C 0.75140 0.62815 0.94423
 C1205 C 0.77579 0.62779 0.94624
 C1206 C 0.78907 0.61228 0.93457
 C1207 C 0.79153 0.57988 0.90741
 C1208 C 0.81583 0.57661 0.90975
 C1209 C 0.82741 0.56053 0.89725
 C1210 C 0.81513 0.54749 0.88196
 C1211 C 0.79094 0.55051 0.87962
 C1212 C 0.77906 0.56629 0.89239
 C1213 C 0.74225 0.58340 0.90313
 C1214 C 0.75475 0.56825 0.89043
 H1215 H 0.72343 0.58412 0.90116
 H1216 H 0.74520 0.55773 0.87904
 H1217 H 0.72155 0.61356 0.92815
 H1218 H 0.78458 0.63940 0.95708
 H1219 H 0.84608 0.55842 0.89943
 H1220 H 0.78122 0.54024 0.86812
 H1221 H 0.80777 0.61279 0.93674
 H1222 H 0.82617 0.58612 0.92126
 C1223 C 0.22363 0.40230 0.91392
 C1224 C 0.24356 0.39282 0.90377
 C1225 C 0.25669 0.37665 0.91497
 C1226 C 0.25050 0.36984 0.93639
 C1227 C 0.23079 0.37932 0.94642
 C1228 C 0.21750 0.39528 0.93539
 C1229 C 0.21016 0.41961 0.90143
 C1230 C 0.18985 0.42976 0.90987
 C1231 C 0.17813 0.44603 0.89773
 C1232 C 0.18632 0.45267 0.87690
 C1233 C 0.20638 0.44249 0.86823
 C1234 C 0.21824 0.42602 0.88025
 C1235 C 0.25041 0.39967 0.88261
 C1236 C 0.23810 0.41599 0.87115
 H1237 H 0.26567 0.39243 0.87484
 H1238 H 0.24424 0.42082 0.85489
 H1239 H 0.27173 0.36928 0.90693
 H1240 H 0.22584 0.37470 0.96309
 H1241 H 0.16266 0.45355 0.90481
 H1242 H 0.21280 0.44735 0.85208
 H1243 H 0.20270 0.40204 0.94409
 H1244 H 0.18268 0.42544 0.92577
 C1245 C 0.22854 0.59452 0.08655
 C1246 C 0.25313 0.59240 0.08580
 C1247 C 0.26647 0.60721 0.07319
 C1248 C 0.25589 0.62502 0.06183
 C1249 C 0.23146 0.62749 0.06349
 C1250 C 0.21800 0.61243 0.07546
 C1251 C 0.21489 0.57782 0.09951
 C1252 C 0.19026 0.57703 0.09939
 C1253 C 0.17839 0.56101 0.11162
 C1254 C 0.19072 0.54565 0.12454
 C1255 C 0.21521 0.54622 0.12474
 C1256 C 0.22734 0.56182 0.11197
 C1257 C 0.26437 0.57579 0.09805
 C1258 C 0.25178 0.56110 0.11119
 H1259 H 0.28324 0.57429 0.09771
 H1260 H 0.26133 0.54873 0.12056
 H1261 H 0.28530 0.60540 0.07327
 H1262 H 0.22234 0.64055 0.05476
 H1263 H 0.15946 0.56073 0.11110
 H1264 H 0.22486 0.53405 0.13431
 H1265 H 0.19939 0.61522 0.07591
 H1266 H 0.17986 0.58836 0.08969
 C1267 C 0.77616 0.40028 0.08369
 C1268 C 0.75469 0.39284 0.09246
 C1269 C 0.74148 0.37690 0.08109
 C1270 C 0.74905 0.36800 0.06069
 C1271 C 0.77072 0.37532 0.05236
 C1272 C 0.78399 0.39112 0.06360
 C1273 C 0.78948 0.41768 0.09616
 C1274 C 0.81088 0.42645 0.08872
 C1275 C 0.82241 0.44285 0.10082
 C1276 C 0.81298 0.45096 0.12065
 C1277 C 0.79175 0.44225 0.12826
 C1278 C 0.78000 0.42578 0.11623
 C1279 C 0.74642 0.40138 0.11254
 C1280 C 0.75878 0.41748 0.12416
 H1281 H 0.73001 0.39563 0.11934
 H1282 H 0.75154 0.42363 0.13955
 H1283 H 0.72558 0.37104 0.08874
 H1284 H 0.77723 0.36976 0.03651
 H1285 H 0.83877 0.44924 0.09454
 H1286 H 0.78426 0.44832 0.14358
 H1287 H 0.80018 0.39615 0.05605
 H1288 H 0.81900 0.42098 0.07358
 C1289 C 0.91416 0.76991 0.59378
 C1290 C 0.90347 0.75002 0.60069
 C1291 C 0.91452 0.73635 0.61636
 C1292 C 0.93645 0.74193 0.62554
 C1293 C 0.94671 0.76202 0.61874
 C1294 C 0.93582 0.77571 0.60318
 C1295 C 0.90193 0.78381 0.57668
 C1296 C 0.91122 0.80374 0.56839
 C1297 C 0.89919 0.81595 0.55233
 C1298 C 0.87759 0.80865 0.54409
 C1299 C 0.86818 0.78887 0.55229
 C1300 C 0.88011 0.77646 0.56840
 C1301 C 0.88176 0.74380 0.59193
 C1302 C 0.87034 0.75673 0.57616
 H1303 H 0.87349 0.72860 0.59727
 H1304 H 0.85362 0.75112 0.56985
 H1305 H 0.90540 0.72168 0.62181
 H1306 H 0.96383 0.76696 0.62452
 H1307 H 0.90688 0.83115 0.54632
 H1308 H 0.85149 0.78301 0.54610
 H1309 H 0.94487 0.79063 0.59856
 H1310 H 0.92775 0.81019 0.57401
 C1311 C 0.91060 0.23912 0.40945
 C1312 C 0.93187 0.23113 0.40067
 C1313 C 0.94460 0.24398 0.38553
 C1314 C 0.93672 0.26514 0.37890
 C1315 C 0.91551 0.27289 0.38792
 C1316 C 0.90269 0.26016 0.40283
 C1317 C 0.89755 0.22486 0.42557
 C1318 C 0.87602 0.23115 0.43497
 C1319 C 0.86465 0.21737 0.45000
 C1320 C 0.87438 0.19695 0.45614
 C1321 C 0.89576 0.19046 0.44679
 C1322 C 0.90732 0.20418 0.43157
 C1323 C 0.94052 0.21042 0.40720
 C1324 C 0.92856 0.19728 0.42236
 H1325 H 0.95686 0.20428 0.40054
 H1326 H 0.93605 0.18143 0.42691
 H1327 H 0.96124 0.23768 0.37981
 H1328 H 0.90802 0.28855 0.38290
 H1329 H 0.84816 0.22282 0.45691
 H1330 H 0.90345 0.17468 0.45132
 H1331 H 0.88658 0.26713 0.40887
 H1332 H 0.86761 0.24662 0.43097
 C1333 C 0.07991 0.22996 0.59276
 C1334 C 0.09269 0.24066 0.60971
 C1335 C 0.08124 0.25455 0.62485
 C1336 C 0.05711 0.25902 0.62291
 C1337 C 0.04476 0.24893 0.60538
 C1338 C 0.05588 0.23452 0.59071
 C1339 C 0.09274 0.21487 0.57725
 C1340 C 0.08136 0.20173 0.56121
 C1341 C 0.09424 0.18852 0.54666
 C1342 C 0.11871 0.18831 0.54757
 C1343 C 0.13016 0.20077 0.56389
 C1344 C 0.11738 0.21364 0.57896
 C1345 C 0.11698 0.23796 0.61110
 C1346 C 0.12911 0.22512 0.59577
 H1347 H 0.12685 0.24631 0.62396
 H1348 H 0.14796 0.22397 0.59726
 H1349 H 0.09158 0.26284 0.63740
 H1350 H 0.02612 0.25134 0.60339
 H1351 H 0.08505 0.17888 0.53427
 H1352 H 0.14908 0.20029 0.56498
 H1353 H 0.04537 0.22729 0.57774
 H1354 H 0.06258 0.20139 0.55968
 C1355 C 0.08753 0.76882 0.40300
 C1356 C 0.06331 0.76549 0.40604
 C1357 C 0.05087 0.75152 0.39166
 C1358 C 0.06188 0.74137 0.37340
 C1359 C 0.08576 0.74583 0.36988
 C1360 C 0.09840 0.75913 0.38450
 C1361 C 0.10045 0.78280 0.41947
 C1362 C 0.12499 0.78481 0.41958
 C1363 C 0.13624 0.79763 0.43561
 C1364 C 0.12332 0.80908 0.45162
 C1365 C 0.09890 0.80728 0.45165
 C1366 C 0.08746 0.79380 0.43611
 C1367 C 0.05154 0.77644 0.42317
 C1368 C 0.06327 0.79067 0.43758
 H1369 H 0.03290 0.77418 0.42534
 H1370 H 0.05332 0.79891 0.45043
 H1371 H 0.03227 0.74945 0.39424
 H1372 H 0.09521 0.73821 0.35638
 H1373 H 0.15514 0.79866 0.43545
 H1374 H 0.08888 0.81568 0.46436
 H1375 H 0.11666 0.76168 0.38096
 H1376 H 0.13584 0.77625 0.40777
 C1377 C 0.59747 0.91070 0.76821
 C1378 C 0.59390 0.93378 0.76662
 C1379 C 0.60876 0.94672 0.75344
 C1380 C 0.62808 0.93725 0.74243
 C1381 C 0.63203 0.91437 0.74507
 C1382 C 0.61694 0.90132 0.75757
 C1383 C 0.58054 0.89729 0.78149
 C1384 C 0.58091 0.87399 0.78186
 C1385 C 0.56458 0.86223 0.79425
 C1386 C 0.54774 0.87335 0.80687
 C1387 C 0.54713 0.89654 0.80663
 C1388 C 0.56301 0.90854 0.79361
 C1389 C 0.57581 0.94388 0.77855
 C1390 C 0.56102 0.93159 0.79213
 H1391 H 0.57322 0.96162 0.77762
 H1392 H 0.54747 0.94022 0.80122
 H1393 H 0.60581 0.96442 0.75271
 H1394 H 0.64624 0.90609 0.73664
 H1395 H 0.56522 0.84432 0.79409
 H1396 H 0.53378 0.90519 0.81597
 H1397 H 0.62094 0.88392 0.75875
 H1398 H 0.59335 0.86452 0.77238
 C1399 C 0.39936 0.91108 0.23162
 C1400 C 0.39218 0.93219 0.22418
 C1401 C 0.37634 0.94480 0.23676
 C1402 C 0.36751 0.93689 0.25710
 C1403 C 0.37451 0.91558 0.26399
 C1404 C 0.39004 0.90294 0.25154
 C1405 C 0.41679 0.89840 0.21809
 C1406 C 0.42526 0.87742 0.22435
 C1407 C 0.44186 0.86648 0.21151
 C1408 C 0.45052 0.87605 0.19204
 C1409 C 0.44204 0.89687 0.18548
 C1410 C 0.42533 0.90809 0.19837
 C1411 C 0.40115 0.94078 0.20438
 C1412 C 0.41733 0.92899 0.19176
 H1413 H 0.39567 0.95696 0.19861
 H1414 H 0.42381 0.93644 0.17665
 H1415 H 0.37201 0.96128 0.23105
 H1416 H 0.36746 0.90806 0.27878
 H1417 H 0.44800 0.85043 0.21700
 H1418 H 0.44858 0.90446 0.17047
 H1419 H 0.39445 0.88680 0.25789
 H1420 H 0.41947 0.86915 0.23915
 C1421 C 0.59983 0.09120 0.22661
 C1422 C 0.59978 0.06785 0.22464
 C1423 C 0.61494 0.05499 0.23768
 C1424 C 0.63073 0.06506 0.25230
 C1425 C 0.63137 0.08819 0.25370
 C1426 C 0.61607 0.10114 0.24111
 C1427 C 0.58264 0.10426 0.21308
 C1428 C 0.57986 0.12735 0.21519
 C1429 C 0.56314 0.13865 0.20261
 C1430 C 0.54901 0.12730 0.18741
 C1431 C 0.55178 0.10436 0.18504
 C1432 C 0.56811 0.09276 0.19798
 C1433 C 0.58474 0.05748 0.20956
 C1434 C 0.56948 0.06969 0.19629
 H1435 H 0.58485 0.03963 0.20789
 H1436 H 0.55827 0.06087 0.18481
 H1437 H 0.61472 0.03711 0.23626
 H1438 H 0.64350 0.09625 0.26488
 H1439 H 0.56123 0.15635 0.20481
 H1440 H 0.54065 0.09537 0.17361
 H1441 H 0.61732 0.11884 0.24293
 H1442 H 0.59009 0.13694 0.22672
 C1443 C 0.40178 0.07953 0.77640
 C1444 C 0.40122 0.08245 0.75312
 C1445 C 0.38558 0.07018 0.74009
 C1446 C 0.36985 0.05545 0.74992
 C1447 C 0.36990 0.05300 0.77299
 C1448 C 0.38575 0.06476 0.78611
 C1449 C 0.41917 0.09261 0.78963
 C1450 C 0.42247 0.08977 0.81262
 C1451 C 0.43895 0.10240 0.82414
 C1452 C 0.45232 0.11835 0.81311
 C1453 C 0.44928 0.12120 0.79022
 C1454 C 0.43318 0.10827 0.77840
 C1455 C 0.41596 0.09786 0.74299
 C1456 C 0.43135 0.11072 0.75540
 H1457 H 0.41540 0.10021 0.72520
 H1458 H 0.44220 0.12259 0.74680
 H1459 H 0.38525 0.07245 0.72227
 H1460 H 0.35779 0.04174 0.78087
 H1461 H 0.44110 0.09981 0.84179
 H1462 H 0.45985 0.13320 0.78147
 H1463 H 0.38500 0.06223 0.80377
 H1464 H 0.41271 0.07774 0.82196
 C1465 C 0.59853 0.77289 0.08890
 C1466 C 0.59873 0.77496 0.06554
 C1467 C 0.61424 0.76213 0.05285
 C1468 C 0.63007 0.74766 0.06318
 C1469 C 0.63035 0.74617 0.08633
 C1470 C 0.61477 0.75853 0.09906
 C1471 C 0.58109 0.78618 0.10179
 C1472 C 0.57819 0.78387 0.12483
 C1473 C 0.56142 0.79626 0.13606
 C1474 C 0.54726 0.81148 0.12473
 C1475 C 0.55005 0.81406 0.10180
 C1476 C 0.56653 0.80125 0.09021
 C1477 C 0.58364 0.78995 0.05503
 C1478 C 0.56813 0.80303 0.06713
 H1479 H 0.58393 0.79170 0.03717
 H1480 H 0.55691 0.81446 0.05822
 H1481 H 0.61427 0.76362 0.03495
 H1482 H 0.64245 0.73509 0.09461
 H1483 H 0.55957 0.79394 0.15376
 H1484 H 0.53890 0.82554 0.09286
 H1485 H 0.61586 0.75664 0.11679
 H1486 H 0.58839 0.77235 0.13448
 C1487 C 0.39296 0.22147 0.08550
 C1488 C 0.38165 0.23928 0.09632
 C1489 C 0.36514 0.25218 0.08489
 C1490 C 0.36001 0.24805 0.06250
 C1491 C 0.37102 0.23021 0.05191
 C1492 C 0.38720 0.21704 0.06322
 C1493 C 0.41110 0.20860 0.09809
 C1494 C 0.42322 0.19047 0.08894
 C1495 C 0.44062 0.17961 0.10102
 C1496 C 0.44648 0.18650 0.12251
 C1497 C 0.43414 0.20420 0.13199
 C1498 C 0.41651 0.21519 0.12002
 C1499 C 0.38727 0.24448 0.11830
 C1500 C 0.40443 0.23279 0.12985
 H1501 H 0.37858 0.25808 0.12660
 H1502 H 0.40842 0.23773 0.14670
 H1503 H 0.35651 0.26571 0.09338
 H1504 H 0.36771 0.22682 0.03457
 H1505 H 0.44977 0.16593 0.09332
 H1506 H 0.43833 0.20955 0.14868
 H1507 H 0.39533 0.20384 0.05403
 H1508 H 0.41966 0.18447 0.07246
 C1509 C 0.60023 0.22896 0.90864
 C1510 C 0.60581 0.22303 0.93072
 C1511 C 0.62176 0.23577 0.94299
 C1512 C 0.63250 0.25437 0.93355
 C1513 C 0.62743 0.25980 0.91146
 C1514 C 0.61154 0.24733 0.89916
 C1515 C 0.58244 0.21544 0.89639
 C1516 C 0.57476 0.22068 0.87481
 C1517 C 0.55787 0.20781 0.86425
 C1518 C 0.54824 0.18931 0.87480
 C1519 C 0.55581 0.18388 0.89626
 C1520 C 0.57260 0.19688 0.90717
 C1521 C 0.59537 0.20451 0.94046
 C1522 C 0.57928 0.19162 0.92888
 H1523 H 0.59973 0.19989 0.95732
 H1524 H 0.57172 0.17744 0.93717
 H1525 H 0.62539 0.23147 0.96009
 H1526 H 0.63586 0.27375 0.90359
 H1527 H 0.55235 0.21240 0.84769
 H1528 H 0.54835 0.16972 0.90467
 H1529 H 0.60843 0.25238 0.88228
 H1530 H 0.58137 0.23475 0.86585
 C1531 C 0.40620 0.76378 0.91077
 C1532 C 0.40579 0.76660 0.93405
 C1533 C 0.39080 0.75366 0.94710
 C1534 C 0.37565 0.73833 0.93722
 C1535 C 0.37563 0.73598 0.91414
 C1536 C 0.39074 0.74844 0.90105
 C1537 C 0.42292 0.77747 0.89749
 C1538 C 0.42593 0.77474 0.87449
 C1539 C 0.44188 0.78772 0.86289
 C1540 C 0.45509 0.80392 0.87381
 C1541 C 0.45225 0.80681 0.89671
 C1542 C 0.43659 0.79350 0.90865
 C1543 C 0.42008 0.78249 0.94413
 C1544 C 0.43491 0.79585 0.93167
 H1545 H 0.41963 0.78478 0.96193
 H1546 H 0.44547 0.80802 0.94026
 H1547 H 0.39056 0.75581 0.96494
 H1548 H 0.36404 0.72423 0.90620
 H1549 H 0.44381 0.78511 0.84524
 H1550 H 0.46267 0.81906 0.90536
 H1551 H 0.38989 0.74590 0.88339
 H1552 H 0.41639 0.76251 0.86516
 C1553 C 0.76777 0.91591 0.40705
 C1554 C 0.78042 0.92971 0.39244
 C1555 C 0.76852 0.94233 0.37642
 C1556 C 0.74405 0.94197 0.37521
 C1557 C 0.73151 0.92890 0.39018
 C1558 C 0.74316 0.91595 0.40584
 C1559 C 0.78115 0.90213 0.42339
 C1560 C 0.77036 0.88649 0.43729
 C1561 C 0.78354 0.87412 0.45231
 C1562 C 0.80776 0.87711 0.45407
 C1563 C 0.81876 0.89246 0.44015
 C1564 C 0.80572 0.90467 0.42461
 C1565 C 0.80480 0.93107 0.39411
 C1566 C 0.81714 0.91910 0.41008
 H1567 H 0.81449 0.94178 0.38306
 H1568 H 0.83596 0.92094 0.41087
 H1569 H 0.77824 0.95275 0.36512
 H1570 H 0.71260 0.92845 0.38951
 H1571 H 0.77464 0.86232 0.46281
 H1572 H 0.83754 0.89462 0.44114
 H1573 H 0.73256 0.90626 0.41691
 H1574 H 0.75183 0.88338 0.43670
 C1575 C 0.22483 0.91111 0.59753
 C1576 C 0.22210 0.93439 0.59804
 C1577 C 0.23465 0.94706 0.61353
 C1578 C 0.24943 0.93679 0.62902
 C1579 C 0.25149 0.91370 0.62897
 C1580 C 0.23944 0.90099 0.61342
 C1581 C 0.21189 0.89825 0.58017
 C1582 C 0.21504 0.87535 0.57706
 C1583 C 0.20295 0.86416 0.56041
 C1584 C 0.18719 0.87540 0.54657
 C1585 C 0.18380 0.89820 0.54955
 C1586 C 0.19634 0.90974 0.56593
 C1587 C 0.20671 0.94482 0.58326
 C1588 C 0.19385 0.93273 0.56778
 H1589 H 0.20443 0.96261 0.58377
 H1590 H 0.18207 0.94158 0.55681
 H1591 H 0.23270 0.96490 0.61378
 H1592 H 0.26279 0.90547 0.64082
 H1593 H 0.20591 0.84657 0.55840
 H1594 H 0.17194 0.90707 0.53867
 H1595 H 0.24176 0.88331 0.61423
 H1596 H 0.22701 0.86579 0.58703
 C1597 C 0.23086 0.09020 0.40596
 C1598 C 0.22356 0.06859 0.40017
 C1599 C 0.23593 0.05644 0.38416
 C1600 C 0.25549 0.06555 0.37356
 C1601 C 0.26228 0.08719 0.37893
 C1602 C 0.25020 0.09936 0.39488
 C1603 C 0.21762 0.10236 0.42361
 C1604 C 0.22413 0.12349 0.43128
 C1605 C 0.21131 0.13410 0.44780
 C1606 C 0.19158 0.12403 0.45712
 C1607 C 0.18499 0.10293 0.44968
 C1608 C 0.19792 0.09200 0.43320
 C1609 C 0.20402 0.05921 0.41043
 C1610 C 0.19137 0.07072 0.42644
 H1611 H 0.19836 0.04270 0.40595
 H1612 H 0.17634 0.06274 0.43381
 H1613 H 0.23058 0.03969 0.38029
 H1614 H 0.27697 0.09484 0.37068
 H1615 H 0.21683 0.15035 0.45321
 H1616 H 0.16988 0.09489 0.45686
 H1617 H 0.25629 0.11589 0.39820
 H1618 H 0.23913 0.13210 0.42486
 C1619 C 0.77214 0.08202 0.59145
 C1620 C 0.74748 0.08407 0.59186
 C1621 C 0.73434 0.07190 0.60719
 C1622 C 0.74541 0.05811 0.62267
 C1623 C 0.76984 0.05646 0.62262
 C1624 C 0.78308 0.06814 0.60715
 C1625 C 0.78548 0.09513 0.57460
 C1626 C 0.80986 0.09324 0.57179
 C1627 C 0.82148 0.10608 0.55605
 C1628 C 0.80916 0.12125 0.54287
 C1629 C 0.78485 0.12301 0.54531
 C1630 C 0.77294 0.10992 0.56078
 C1631 C 0.73609 0.09856 0.57729
 C1632 C 0.74857 0.11142 0.56230
 H1633 H 0.71723 0.10022 0.57770
 H1634 H 0.73896 0.12261 0.55159
 H1635 H 0.71546 0.07354 0.60745
 H1636 H 0.77870 0.04590 0.63448
 H1637 H 0.84024 0.10433 0.55440
 H1638 H 0.77510 0.13442 0.53493
 H1639 H 0.80180 0.06626 0.60794
 H1640 H 0.82027 0.08190 0.58147
 C1641 C 0.91632 0.58911 0.23115
 C1642 C 0.90289 0.60294 0.24515
 C1643 C 0.91402 0.61830 0.25906
 C1644 C 0.93846 0.61954 0.25985
 C1645 C 0.95177 0.60535 0.24655
 C1646 C 0.94090 0.59038 0.23228
 C1647 C 0.90375 0.57334 0.21613
 C1648 C 0.91535 0.56026 0.20025
 C1649 C 0.90292 0.54546 0.18699
 C1650 C 0.87868 0.54315 0.18932
 C1651 C 0.86687 0.55645 0.20472
 C1652 C 0.87914 0.57174 0.21783
 C1653 C 0.87850 0.60107 0.24550
 C1654 C 0.86691 0.58553 0.23242
 H1655 H 0.86822 0.61154 0.25634
 H1656 H 0.84805 0.58448 0.23358
 H1657 H 0.90370 0.62900 0.26965
 H1658 H 0.97068 0.60606 0.24700
 H1659 H 0.91241 0.53545 0.17514
 H1660 H 0.84806 0.55505 0.20635
 H1661 H 0.95204 0.57984 0.22248
 H1662 H 0.93396 0.56126 0.19773
 C1663 C 0.91414 0.40570 0.77239
 C1664 C 0.90982 0.40589 0.74928
 C1665 C 0.92143 0.39086 0.73540
 C1666 C 0.93685 0.37512 0.74425
 C1667 C 0.94055 0.37444 0.76719
 C1668 C 0.92945 0.38957 0.78112
 C1669 C 0.90202 0.42255 0.78653
 C1670 C 0.90655 0.42495 0.80937
 C1671 C 0.89500 0.44109 0.82176
 C1672 C 0.87845 0.45506 0.81181
 C1673 C 0.87379 0.45283 0.78910
 C1674 C 0.88570 0.43700 0.77636
 C1675 C 0.89377 0.42090 0.74020
 C1676 C 0.88172 0.43590 0.75349
 H1677 H 0.89031 0.42092 0.72254
 H1678 H 0.86934 0.44705 0.74568
 H1679 H 0.91821 0.39115 0.71769
 H1680 H 0.95237 0.36234 0.77431
 H1681 H 0.89896 0.44255 0.83926
 H1682 H 0.86131 0.46383 0.78119
 H1683 H 0.93299 0.38826 0.79862
 H1684 H 0.91916 0.41478 0.81793
 C1685 C 0.08465 0.59674 0.77170
 C1686 C 0.09696 0.60630 0.75380
 C1687 C 0.08594 0.62191 0.74006
 C1688 C 0.06255 0.62800 0.74357
 C1689 C 0.05043 0.61857 0.76138
 C1690 C 0.06129 0.60321 0.77530
 C1691 C 0.09693 0.57980 0.78570
 C1692 C 0.08638 0.56951 0.80407
 C1693 C 0.09835 0.55341 0.81623
 C1694 C 0.12112 0.54709 0.81041
 C1695 C 0.13193 0.55750 0.79237
 C1696 C 0.12010 0.57378 0.78010
 C1697 C 0.12005 0.59997 0.74946
 C1698 C 0.13132 0.58398 0.76224
 H1699 H 0.12948 0.60730 0.73576
 H1700 H 0.14911 0.57948 0.75803
 H1701 H 0.09560 0.62927 0.72652
 H1702 H 0.03226 0.62265 0.76427
 H1703 H 0.08960 0.54572 0.83011
 H1704 H 0.14960 0.55290 0.78782
 H1705 H 0.05093 0.59639 0.78851
 H1706 H 0.06890 0.57356 0.80933
 C1707 C 0.08775 0.40233 0.22844
 C1708 C 0.10032 0.39171 0.24566
 C1709 C 0.08924 0.37600 0.25912
 C1710 C 0.06551 0.37089 0.25609
 C1711 C 0.05314 0.38133 0.23891
 C1712 C 0.06407 0.39676 0.22522
 C1713 C 0.10012 0.41939 0.21476
 C1714 C 0.08932 0.43067 0.19704
 C1715 C 0.10140 0.44682 0.18519
 C1716 C 0.12453 0.45224 0.19068
 C1717 C 0.13557 0.44086 0.20808
 C1718 C 0.12363 0.42448 0.22003
 C1719 C 0.12375 0.39713 0.24964
 C1720 C 0.13510 0.41325 0.23720
 H1721 H 0.13338 0.38899 0.26281
 H1722 H 0.15315 0.41703 0.24115
 H1723 H 0.09910 0.36785 0.27214
 H1724 H 0.03473 0.37803 0.23639
 H1725 H 0.09246 0.45526 0.17179
 H1726 H 0.15352 0.44474 0.21236
 H1727 H 0.05351 0.40441 0.21253
 H1728 H 0.07157 0.42735 0.19205
   
