data_POSCAR
  _audit_creation_date              2014-09-24
  _audit_creation_method            'ToBaCCo'
  _symmetry_space_group_name_H-M    'P1'
  _symmetry_Int_Tables_number       1
  _symmetry_cell_setting            triclinic
  loop_
  _symmetry_equiv_pos_as_xyz
 x,y,z
_cell_length_a 59.0599
_cell_length_b 59.0103
_cell_length_c 52.8128
_cell_angle_alpha 90.963500
_cell_angle_beta 89.753700
_cell_angle_gamma 91.209900
loop_
  _atom_site_label
  _atom_site_type_symbol
  _atom_site_fract_x
  _atom_site_fract_y
  _atom_site_fract_z
C1 C 0.39787 0.01103 0.27132
 H2 H 0.40559 0.00089 0.25662
 C3 C 0.41066 0.01771 0.29252
 H4 H 0.42779 0.01178 0.29402
 C5 C 0.36597 0.03003 0.28770
 H6 H 0.34843 0.03460 0.28583
 C7 C 0.37832 0.03776 0.30866
 H8 H 0.37004 0.04862 0.32238
 N9 N 0.37568 0.01660 0.26975
 C10 C 0.36813 0.00106 0.19190
 H11 H 0.35627 0.01437 0.18876
 C12 C 0.37965 -0.00832 0.17132
 H13 H 0.37702 -0.00154 0.15265
 C14 C 0.38547 -0.02439 0.21970
 H15 H 0.38715 -0.03097 0.23856
 C16 C 0.39768 -0.03405 0.19962
 H17 H 0.40902 -0.04781 0.20315
 Zn18 Zn 0.35585 0.00673 0.24338
 N19 N 0.37165 -0.00660 0.21567
 C20 C 0.35298 0.04929 0.22175
 N21 N 0.34039 0.03297 0.23339
 C22 C 0.31868 0.03678 0.24081
 C23 C 0.30916 0.05801 0.23732
 C24 C 0.34393 0.07045 0.21721
 C25 C 0.34084 -0.02691 0.27702
 C26 C 0.32841 -0.04621 0.28402
 C27 C 0.30414 -0.04112 0.24797
 C28 C 0.31750 -0.02230 0.24133
 N29 N 0.33555 -0.01573 0.25568
 H30 H 0.37039 0.04608 0.21664
 H31 H 0.30923 0.02390 0.25090
 H32 H 0.29241 0.06106 0.24484
 H33 H 0.35440 0.08300 0.20776
 H34 H 0.35535 -0.02143 0.28812
 H35 H 0.33326 -0.05430 0.30132
 H36 H 0.29083 -0.04621 0.23498
 H37 H 0.31398 -0.01341 0.22407
 C38 C 0.39487 -0.02589 0.17508
 C39 C 0.40077 0.03091 0.31192
 C40 C 0.30998 -0.05431 0.26907
 C41 C 0.32202 0.07544 0.22591
 C42 C 0.11014 0.01626 0.72294
 H43 H 0.10930 0.02451 0.74136
 C44 C 0.09781 0.02468 0.70274
 H45 H 0.08740 0.03939 0.70572
 C46 C 0.12536 -0.01251 0.69648
 H47 H 0.13637 -0.02677 0.69401
 C48 C 0.11352 -0.00454 0.67576
 H49 H 0.11516 -0.01315 0.65760
 N50 N 0.12340 -0.00215 0.71954
 C51 C 0.13297 -0.03053 0.79413
 H52 H 0.15114 -0.03240 0.79335
 C53 C 0.12088 -0.03763 0.81539
 H54 H 0.12996 -0.04512 0.83081
 C55 C 0.09923 -0.01890 0.77453
 H56 H 0.09085 -0.01177 0.75847
 C57 C 0.08648 -0.02550 0.79563
 H58 H 0.06842 -0.02271 0.79578
 Zn59 Zn 0.14082 -0.01180 0.74720
 N60 N 0.12212 -0.02102 0.77445
 C61 C 0.15582 0.02373 0.78021
 N62 N 0.15937 0.01328 0.75741
 C63 C 0.17444 0.02193 0.74040
 C64 C 0.18656 0.04197 0.74596
 C65 C 0.16728 0.04402 0.78636
 C66 C 0.14673 -0.05679 0.73217
 C67 C 0.15817 -0.07707 0.72868
 C68 C 0.19337 -0.05680 0.73709
 C69 C 0.18124 -0.03689 0.74044
 N70 N 0.15831 -0.03728 0.73819
 H71 H 0.14339 0.01688 0.79323
 H72 H 0.17653 0.01359 0.72216
 H73 H 0.19798 0.04901 0.73191
 H74 H 0.16379 0.05252 0.80424
 H75 H 0.12844 -0.05672 0.73104
 H76 H 0.14850 -0.09255 0.72496
 H77 H 0.21159 -0.05622 0.73936
 H78 H 0.19012 -0.02137 0.74581
 C79 C 0.09735 -0.03469 0.81664
 C80 C 0.09957 0.01433 0.67873
 C81 C 0.18178 -0.07735 0.73164
 C82 C 0.18266 0.05350 0.76898
 C83 C 0.61439 0.52640 0.21903
 H84 H 0.61062 0.53288 0.23772
 C85 C 0.60237 0.53438 0.19839
 H86 H 0.58940 0.54683 0.20155
 C87 C 0.63621 0.50299 0.19200
 H88 H 0.64973 0.49115 0.18939
 C89 C 0.62464 0.51050 0.17087
 H90 H 0.62893 0.50360 0.15238
 N91 N 0.63062 0.51056 0.21563
 C92 C 0.62339 0.46879 0.27699
 H93 H 0.63269 0.45580 0.26712
 C94 C 0.60935 0.46268 0.29727
 H95 H 0.60808 0.44512 0.30283
 C96 C 0.61451 0.50746 0.28294
 H97 H 0.61711 0.52500 0.27800
 C98 C 0.60059 0.50215 0.30347
 H99 H 0.59224 0.51566 0.31376
 Zn100 Zn 0.64660 0.49939 0.24396
 N101 N 0.62589 0.49092 0.27030
 C102 C 0.66698 0.53021 0.27993
 N103 N 0.66664 0.52280 0.25539
 C104 C 0.67954 0.53313 0.23741
 C105 C 0.69236 0.55259 0.24346
 C106 C 0.67929 0.54983 0.28674
 C107 C 0.65236 0.45640 0.22158
 C108 C 0.66332 0.43621 0.21617
 C109 C 0.69710 0.45196 0.23589
 C110 C 0.68553 0.47203 0.24068
 N111 N 0.66341 0.47368 0.23400
 H112 H 0.65715 0.52139 0.29412
 H113 H 0.67904 0.52681 0.21807
 H114 H 0.70154 0.56131 0.22860
 H115 H 0.67856 0.55619 0.30608
 H116 H 0.63474 0.45810 0.21657
 H117 H 0.65405 0.42258 0.20660
 H118 H 0.71430 0.45053 0.24258
 H119 H 0.69393 0.48591 0.25074
 C120 C 0.59814 0.47957 0.31106
 C121 C 0.60729 0.52625 0.17391
 C122 C 0.68578 0.43350 0.22405
 C123 C 0.69168 0.56158 0.26821
 C124 C 0.88766 0.53003 0.77804
 H125 H 0.89207 0.53477 0.75892
 C126 C 0.90072 0.53832 0.79834
 H127 H 0.91514 0.54935 0.79440
 C128 C 0.86283 0.51077 0.80601
 H129 H 0.84801 0.50005 0.80893
 C130 C 0.87476 0.51938 0.82686
 H131 H 0.86919 0.51413 0.84544
 N132 N 0.86975 0.51567 0.78216
 C133 C 0.86048 0.48382 0.70758
 H134 H 0.84216 0.48349 0.70726
 C135 C 0.87259 0.47625 0.68649
 H136 H 0.86339 0.46999 0.67003
 C137 C 0.89452 0.49208 0.72973
 H138 H 0.90304 0.49772 0.74679
 C139 C 0.90735 0.48492 0.70890
 H140 H 0.92563 0.48611 0.70993
 Zn141 Zn 0.85271 0.50339 0.75469
 N142 N 0.87152 0.49228 0.72831
 C143 C 0.83921 0.53683 0.72036
 N144 N 0.83457 0.52694 0.74293
 C145 C 0.81892 0.53560 0.75915
 C146 C 0.80773 0.55544 0.75330
 C147 C 0.82852 0.55678 0.71383
 C148 C 0.84671 0.46146 0.77632
 C149 C 0.83605 0.44082 0.78169
 C150 C 0.80132 0.45505 0.76460
 C151 C 0.81264 0.47563 0.75981
 N152 N 0.83504 0.47824 0.76531
 H153 H 0.85210 0.53002 0.70801
 H154 H 0.81592 0.52764 0.77720
 H155 H 0.79619 0.56270 0.76704
 H156 H 0.83302 0.56492 0.69623
 H157 H 0.86457 0.46393 0.78020
 H158 H 0.84580 0.42763 0.79018
 H159 H 0.78383 0.45281 0.75887
 H160 H 0.80385 0.48904 0.75052
 C161 C 0.89638 0.47743 0.68662
 C162 C 0.89449 0.53292 0.82335
 C163 C 0.81325 0.43709 0.77506
 C164 C 0.81302 0.56665 0.73072
 C165 C 0.22666 0.42575 0.97602
 H166 H 0.24209 0.42733 0.96503
 C167 C 0.20748 0.43765 0.96885
 H168 H 0.20823 0.44852 0.95255
 C169 C 0.20619 0.40853 1.00954
 H170 H 0.20549 0.39695 1.02514
 C171 C 0.18669 0.41981 1.00286
 H172 H 0.17116 0.41684 1.01341
 N173 N 0.22559 0.41125 0.99586
 C174 C 0.29357 0.39764 1.02376
 H175 H 0.29072 0.38019 1.02902
 C176 C 0.31455 0.40806 1.02844
 H177 H 0.32770 0.39841 1.03720
 C178 C 0.27965 0.43144 1.00667
 H179 H 0.26607 0.44054 0.99818
 C180 C 0.30052 0.44252 1.01084
 H181 H 0.30281 0.45990 1.00496
 Zn182 Zn 0.25012 0.39212 1.00396
 N183 N 0.27680 0.40915 1.01240
 C184 C 0.27400 0.35783 0.97744
 N185 N 0.25665 0.37259 0.97590
 C186 C 0.24420 0.37390 0.95439
 C187 C 0.24965 0.36087 0.93305
 C188 C 0.27996 0.34433 0.95652
 C189 C 0.24519 0.38344 1.05563
 C190 C 0.23891 0.37130 1.07705
 C191 C 0.22478 0.34096 1.04978
 C192 C 0.23160 0.35362 1.02881
 N193 N 0.24167 0.37440 1.03213
 H194 H 0.28339 0.35659 0.99482
 H195 H 0.23003 0.38508 0.95362
 H196 H 0.23953 0.36225 0.91612
 H197 H 0.29409 0.33304 0.95792
 H198 H 0.25299 0.40010 1.05774
 H199 H 0.24263 0.37865 1.09552
 H200 H 0.21654 0.32460 1.04673
 H201 H 0.22867 0.34697 1.00987
 C202 C 0.31850 0.43059 1.02125
 C203 C 0.18714 0.43424 0.98209
 C204 C 0.22845 0.34975 1.07439
 C205 C 0.26795 0.34609 0.93380
 C206 C 0.77632 0.06620 0.98695
 H207 H 0.76049 0.05690 0.98854
 C208 C 0.79607 0.05443 0.98115
 H209 H 0.79439 0.03642 0.97750
 C210 C 0.79703 0.10083 0.98944
 H211 H 0.79750 0.11881 0.99365
 C212 C 0.81714 0.08983 0.98395
 H213 H 0.83251 0.10005 0.98463
 N214 N 0.77709 0.08906 0.99073
 C215 C 0.71699 0.09036 1.03330
 H216 H 0.72391 0.10294 1.04633
 C217 C 0.69738 0.07828 1.04005
 H218 H 0.68974 0.08149 1.05840
 C219 C 0.71768 0.07179 0.99322
 H220 H 0.72518 0.06996 0.97460
 C221 C 0.69802 0.05937 0.99919
 H222 H 0.69058 0.04807 0.98500
 Zn223 Zn 0.75143 0.10634 1.00005
 N224 N 0.72661 0.08720 1.01007
 C225 C 0.72063 0.12283 0.96364
 N226 N 0.74235 0.12440 0.97224
 C227 C 0.75765 0.13894 0.96148
 C228 C 0.75133 0.15263 0.94149
 C229 C 0.71377 0.13579 0.94323
 C230 C 0.76792 0.11533 1.04896
 C231 C 0.77450 0.12836 1.07009
 C232 C 0.76741 0.16211 1.04647
 C233 C 0.76017 0.14840 1.02612
 N234 N 0.76047 0.12544 1.02772
 H235 H 0.70847 0.11164 0.97259
 H236 H 0.77473 0.14020 0.96860
 H237 H 0.76370 0.16409 0.93313
 H238 H 0.69654 0.13417 0.93640
 H239 H 0.76818 0.09702 1.04969
 H240 H 0.77909 0.11961 1.08708
 H241 H 0.76747 0.18028 1.04424
 H242 H 0.75434 0.15622 1.00908
 C243 C 0.68731 0.06294 1.02267
 C244 C 0.81719 0.06611 0.97962
 C245 C 0.77434 0.15221 1.06918
 C246 C 0.72921 0.15097 0.93207
 C247 C 0.27902 0.56428 0.48414
 H248 H 0.26411 0.55525 0.49074
 C249 C 0.29819 0.55208 0.47720
 H250 H 0.29743 0.53377 0.47794
 C251 C 0.29826 0.59896 0.47582
 H252 H 0.29842 0.61726 0.47596
 C253 C 0.31787 0.58750 0.46914
 H254 H 0.33291 0.59737 0.46447
 N255 N 0.27942 0.58733 0.48352
 C256 C 0.22235 0.58833 0.53095
 H257 H 0.23037 0.60046 0.54375
 C258 C 0.20290 0.57653 0.53880
 H259 H 0.19615 0.57975 0.55759
 C260 C 0.22091 0.56982 0.49084
 H261 H 0.22779 0.56759 0.47196
 C262 C 0.20146 0.55759 0.49795
 H263 H 0.19333 0.54625 0.48428
 Zn264 Zn 0.25475 0.60465 0.49580
 N265 N 0.23055 0.58538 0.50702
 C266 C 0.22462 0.61983 0.45767
 N267 N 0.24440 0.62428 0.47014
 C268 C 0.25699 0.64330 0.46519
 C269 C 0.25013 0.65836 0.44672
 C270 C 0.21734 0.63423 0.43878
 C271 C 0.28394 0.61695 0.53625
 C272 C 0.29096 0.62945 0.55759
 C273 C 0.25936 0.65418 0.55186
 C274 C 0.25292 0.64119 0.53064
 N275 N 0.26507 0.62284 0.52345
 H276 H 0.21444 0.60505 0.46211
 H277 H 0.27234 0.64688 0.47572
 H278 H 0.26062 0.67315 0.44268
 H279 H 0.20178 0.63019 0.42872
 H280 H 0.29324 0.60219 0.53032
 H281 H 0.30580 0.62429 0.56779
 H282 H 0.24896 0.66819 0.55785
 H283 H 0.23789 0.64539 0.52023
 C284 C 0.19182 0.56142 0.52195
 C285 C 0.31818 0.56369 0.47004
 C286 C 0.27841 0.64814 0.56588
 C287 C 0.23023 0.65371 0.43302
 C288 C 0.72036 0.92745 0.47707
 H289 H 0.73583 0.93083 0.46664
 C290 C 0.70050 0.93852 0.47049
 H291 H 0.70081 0.95066 0.45534
 C292 C 0.70047 0.90639 0.50820
 H293 H 0.70020 0.89358 0.52253
 C294 C 0.68034 0.91674 0.50201
 H295 H 0.66487 0.91195 0.51184
 N296 N 0.71998 0.91159 0.49558
 C297 C 0.78761 0.90084 0.52578
 H298 H 0.78511 0.88323 0.53059
 C299 C 0.80808 0.91185 0.53159
 H300 H 0.82116 0.90252 0.54092
 C301 C 0.77352 0.93426 0.50797
 H302 H 0.76010 0.94296 0.49867
 C303 C 0.79389 0.94591 0.51323
 H304 H 0.79599 0.96332 0.50737
 Zn305 Zn 0.74567 0.89379 0.50302
 N306 N 0.77106 0.91188 0.51348
 C307 C 0.77257 0.86318 0.47478
 N308 N 0.75399 0.87643 0.47393
 C309 C 0.74143 0.87760 0.45249
 C310 C 0.74778 0.86575 0.43063
 C311 C 0.77945 0.85089 0.45332
 C312 C 0.73670 0.88330 0.55336
 C313 C 0.73018 0.87003 0.57381
 C314 C 0.72597 0.83781 0.54524
 C315 C 0.73271 0.85175 0.52526
 N316 N 0.73785 0.87404 0.52968
 H317 H 0.78214 0.86219 0.49208
 H318 H 0.72639 0.88766 0.45225
 H319 H 0.73746 0.86686 0.41381
 H320 H 0.79444 0.84067 0.45422
 H321 H 0.74081 0.90110 0.55629
 H322 H 0.72993 0.87773 0.59255
 H323 H 0.72166 0.82018 0.54134
 H324 H 0.73349 0.84484 0.50619
 C325 C 0.81177 0.93446 0.52449
 C326 C 0.68016 0.93274 0.48275
 C327 C 0.72456 0.84695 0.56994
 C328 C 0.76713 0.85234 0.43078
 C329 C 0.01713 0.28509 0.41670
 H330 H 0.03116 0.27364 0.41781
 C331 C 0.01619 0.30393 0.43309
 H332 H 0.02947 0.30663 0.44693
 C333 C -0.01736 0.29503 0.39755
 H334 H -0.03029 0.29168 0.38350
 C335 C -0.01881 0.31419 0.41326
 H336 H -0.03280 0.32547 0.41070
 N337 N 0.00027 0.28077 0.39971
 C338 C 0.00087 0.20785 0.38539
 H339 H 0.00013 0.20764 0.36492
 C340 C 0.00125 0.18750 0.39839
 H341 H 0.00010 0.17197 0.38728
 C342 C 0.00151 0.22879 0.42393
 H343 H 0.00138 0.24491 0.43388
 C344 C 0.00175 0.20881 0.43780
 H345 H 0.00269 0.21035 0.45819
 Zn346 Zn 0.00154 0.25457 0.37842
 N347 N 0.00158 0.22798 0.39819
 C348 C 0.04348 0.23962 0.35822
 N349 N 0.02816 0.25652 0.35820
 C350 C 0.03161 0.27531 0.34399
 C351 C 0.05093 0.27748 0.32877
 C352 C 0.06293 0.24102 0.34317
 C353 C -0.04435 0.24740 0.36949
 C354 C -0.06429 0.24455 0.35567
 C355 C -0.04325 0.25266 0.31743
 C356 C -0.02357 0.25504 0.33199
 N357 N -0.02451 0.25251 0.35756
 H358 H 0.04085 0.22509 0.37009
 H359 H 0.01930 0.28863 0.34451
 H360 H 0.05337 0.29253 0.31755
 H361 H 0.07509 0.22757 0.34382
 H362 H -0.04460 0.24534 0.38980
 H363 H -0.07994 0.24050 0.36552
 H364 H -0.04230 0.25460 0.29709
 H365 H -0.00759 0.25872 0.32277
 C366 C 0.00207 0.18753 0.42515
 C367 C -0.00206 0.31879 0.43161
 C368 C -0.06388 0.24712 0.32929
 C369 C 0.06689 0.26015 0.32822
 C370 C 0.02019 0.71849 0.08841
 H371 H 0.03320 0.73162 0.08719
 C372 C 0.02070 0.69973 0.07188
 H373 H 0.03401 0.69889 0.05779
 C374 C -0.01322 0.70427 0.10790
 H375 H -0.02629 0.70594 0.12215
 C376 C -0.01308 0.68501 0.09221
 H377 H -0.02598 0.67201 0.09504
 N378 N 0.00304 0.72073 0.10548
 C379 C -0.00040 0.79381 0.11876
 H380 H -0.00142 0.79431 0.13922
 C381 C -0.00058 0.81395 0.10531
 H382 H -0.00183 0.82991 0.11560
 C383 C 0.00174 0.77233 0.08058
 H384 H 0.00220 0.75611 0.07090
 C385 C 0.00150 0.79208 0.06634
 H386 H 0.00238 0.79081 0.04589
 Zn387 Zn 0.00203 0.74716 0.12646
 N388 N 0.00137 0.77356 0.10635
 C389 C 0.04202 0.76612 0.14920
 N390 N 0.02781 0.74769 0.14784
 C391 C 0.03169 0.72890 0.16164
 C392 C 0.05038 0.72823 0.17774
 C393 C 0.06068 0.76631 0.16536
 C394 C -0.04457 0.74839 0.13355
 C395 C -0.06508 0.74964 0.14661
 C396 C -0.04460 0.74774 0.18592
 C397 C -0.02444 0.74663 0.17197
 N398 N -0.02480 0.74696 0.14628
 H399 H 0.03907 0.78069 0.13770
 H400 H 0.02023 0.71440 0.16007
 H401 H 0.05328 0.71314 0.18855
 H402 H 0.07192 0.78104 0.16605
 H403 H -0.04438 0.74854 0.11307
 H404 H -0.08017 0.74962 0.13515
 H405 H -0.04303 0.74844 0.20628
 H406 H -0.00847 0.74601 0.18181
 C407 C 0.00067 0.81327 0.07874
 C408 C 0.00378 0.68266 0.07346
 C409 C -0.06572 0.74964 0.17349
 C410 C 0.06506 0.74717 0.17981
 C411 C 0.51382 0.21641 0.59042
 H412 H 0.52849 0.22770 0.59061
 C413 C 0.51384 0.19666 0.57537
 H414 H 0.52873 0.19272 0.56425
 C415 C 0.47692 0.20745 0.60547
 H416 H 0.46263 0.21150 0.61738
 C417 C 0.47620 0.18763 0.59072
 H418 H 0.46112 0.17689 0.59124
 N419 N 0.49549 0.22145 0.60502
 C420 C 0.49509 0.29482 0.61628
 H421 H 0.49360 0.29596 0.63668
 C422 C 0.49563 0.31452 0.60202
 H423 H 0.49447 0.33080 0.61164
 C424 C 0.49783 0.27213 0.57901
 H425 H 0.49850 0.25557 0.57006
 C426 C 0.49829 0.29143 0.56398
 H427 H 0.49973 0.28952 0.54361
 Zn428 Zn 0.49632 0.24820 0.62554
 N429 N 0.49669 0.27416 0.60471
 C430 C 0.53699 0.26599 0.64801
 N431 N 0.52265 0.24768 0.64611
 C432 C 0.52677 0.22831 0.65878
 C433 C 0.54587 0.22686 0.67417
 C434 C 0.55609 0.26538 0.66349
 C435 C 0.44992 0.25272 0.63490
 C436 C 0.42996 0.25352 0.64911
 C437 C 0.45183 0.24801 0.68697
 C438 C 0.47142 0.24732 0.67200
 N439 N 0.47008 0.24940 0.64641
 H440 H 0.53375 0.28110 0.63752
 H441 H 0.51518 0.21395 0.65685
 H442 H 0.54891 0.21131 0.68409
 H443 H 0.56741 0.28003 0.66460
 H444 H 0.44934 0.25449 0.61456
 H445 H 0.41405 0.25563 0.63942
 H446 H 0.45323 0.24640 0.70729
 H447 H 0.48763 0.24509 0.68088
 C448 C 0.49752 0.31300 0.57551
 C449 C 0.49488 0.18187 0.57554
 C450 C 0.43072 0.25111 0.67553
 C451 C 0.56075 0.24561 0.67674
 C452 C 0.51628 0.78126 0.90890
 H453 H 0.52984 0.76954 0.91178
 C454 C 0.51512 0.80105 0.92378
 H455 H 0.52769 0.80408 0.93837
 C456 C 0.48333 0.79111 0.88661
 H457 H 0.47116 0.78741 0.87183
 C458 C 0.48180 0.81126 0.90063
 H459 H 0.46851 0.82283 0.89607
 N460 N 0.50020 0.77642 0.89114
 C461 C 0.50185 0.70292 0.88062
 H462 H 0.50134 0.70201 0.86015
 C463 C 0.50282 0.68307 0.89447
 H464 H 0.50291 0.66689 0.88448
 C465 C 0.50181 0.72515 0.91839
 H466 H 0.50108 0.74154 0.92769
 C467 C 0.50265 0.70564 0.93304
 H468 H 0.50306 0.70728 0.95348
 Zn469 Zn 0.50166 0.74920 0.87153
 N470 N 0.50200 0.72347 0.89264
 C471 C 0.54393 0.73408 0.85217
 N472 N 0.52822 0.75059 0.85113
 C473 C 0.53137 0.76882 0.83598
 C474 C 0.55087 0.77091 0.82102
 C475 C 0.56351 0.73536 0.83732
 C476 C 0.45556 0.74290 0.86351
 C477 C 0.43539 0.74009 0.85010
 C478 C 0.45657 0.74357 0.81106
 C479 C 0.47643 0.74620 0.82527
 N480 N 0.47552 0.74601 0.85102
 H481 H 0.54155 0.72003 0.86478
 H482 H 0.51875 0.78184 0.83568
 H483 H 0.55316 0.78559 0.80917
 H484 H 0.57598 0.72225 0.83876
 H485 H 0.45536 0.74270 0.88399
 H486 H 0.41965 0.73802 0.86047
 H487 H 0.45754 0.74367 0.79059
 H488 H 0.49251 0.74829 0.81568
 C489 C 0.50359 0.68428 0.92103
 C490 C 0.49763 0.81642 0.91984
 C491 C 0.43570 0.74040 0.82352
 C492 C 0.56724 0.75401 0.82159
 C493 C -0.23124 0.64970 0.97448
 H494 H -0.23391 0.65610 0.99352
 C495 C -0.22330 0.66440 0.95576
 H496 H -0.22009 0.68203 0.96077
 C497 C -0.23065 0.61869 0.94551
 H498 H -0.23328 0.60075 0.94176
 C499 C -0.22326 0.63281 0.92612
 H500 H -0.22109 0.62547 0.90739
 N501 N -0.23517 0.62737 0.96891
 C502 C -0.24812 0.61447 1.04627
 H503 H -0.23685 0.60032 1.04724
 C504 C -0.25544 0.62493 1.06858
 H505 H -0.24851 0.61903 1.08613
 C506 C -0.26992 0.63908 1.02181
 H507 H -0.27582 0.64415 1.00343
 C508 C -0.27741 0.65038 1.04370
 H509 H -0.28934 0.66387 1.04158
 Zn510 Zn -0.24514 0.60656 0.99378
 N511 N -0.25510 0.62185 1.02346
 C512 C -0.20199 0.60098 1.01143
 N513 N -0.21975 0.58898 1.00137
 C514 C -0.21825 0.56644 0.99590
 C515 C -0.19796 0.55523 1.00014
 C516 C -0.18162 0.59048 1.01618
 C517 C -0.28117 0.59391 0.96056
 C518 C -0.30137 0.58258 0.95409
 C519 C -0.29790 0.55992 0.99148
 C520 C -0.27775 0.57169 0.99725
 N521 N -0.26993 0.58849 0.98199
 H522 H -0.20364 0.61891 1.01545
 H523 H -0.23246 0.55732 0.98746
 H524 H -0.19670 0.53751 0.99478
 H525 H -0.16774 0.60046 1.02420
 H526 H -0.27518 0.60779 0.94910
 H527 H -0.31037 0.58755 0.93732
 H528 H -0.30437 0.54738 1.00453
 H529 H -0.26879 0.56809 1.01450
 C530 C -0.27021 0.64345 1.06777
 C531 C -0.21952 0.65612 0.93097
 C532 C -0.31029 0.56573 0.96998
 C533 C -0.17917 0.56742 1.00997
 C534 C -0.22203 0.36422 0.53054
 H535 H -0.21531 0.36044 0.51189
 C536 C -0.21518 0.35245 0.55051
 H537 H -0.20279 0.33942 0.54754
 C538 C -0.24464 0.38840 0.55626
 H539 H -0.25574 0.40260 0.55861
 C540 C -0.23738 0.37623 0.57878
 H541 H -0.24502 0.38122 0.59660
 N542 N -0.23813 0.38200 0.53377
 C543 C -0.26512 0.39042 0.45747
 H544 H -0.26607 0.40871 0.45791
 C545 C -0.27221 0.37820 0.43601
 H546 H -0.27866 0.38734 0.42006
 C547 C -0.25643 0.35650 0.47832
 H548 H -0.25096 0.34802 0.49509
 C549 C -0.26308 0.34359 0.45707
 H550 H -0.26165 0.32534 0.45749
 Zn551 Zn -0.24883 0.39856 0.50585
 N552 N -0.25700 0.37954 0.47789
 C553 C -0.21390 0.41781 0.47489
 N554 N -0.22549 0.41941 0.49716
 C555 C -0.21885 0.43427 0.51574
 C556 C -0.19915 0.44743 0.51290
 C557 C -0.19408 0.43078 0.47120
 C558 C -0.29188 0.40035 0.52608
 C559 C -0.31299 0.40907 0.53193
 C560 C -0.30053 0.44495 0.51492
 C561 C -0.27930 0.43562 0.51009
 N562 N -0.27557 0.41357 0.51535
 H563 H -0.21923 0.40555 0.46057
 H564 H -0.22828 0.43504 0.53332
 H565 H -0.19362 0.45850 0.52834
 H566 H -0.18431 0.42841 0.45400
 H567 H -0.28845 0.38283 0.53006
 H568 H -0.32478 0.39793 0.54155
 H569 H -0.30303 0.46210 0.50887
 H570 H -0.26616 0.44569 0.50108
 C571 C -0.27085 0.35444 0.43536
 C572 C -0.22358 0.35831 0.57646
 C573 C -0.31827 0.43152 0.52545
 C574 C -0.18610 0.44523 0.49075
 C575 C 0.27556 -0.13372 0.02969
 H576 H 0.28342 -0.13770 0.01165
 C577 C 0.28211 -0.14426 0.05064
 H578 H 0.29560 -0.15633 0.04907
 C579 C 0.24924 -0.11109 0.05253
 H580 H 0.23668 -0.09806 0.05334
 C581 C 0.25606 -0.12198 0.07609
 H582 H 0.24694 -0.11727 0.09310
 N583 N 0.25813 -0.11709 0.03096
 C584 C 0.23593 -0.11615 -0.04777
 H585 H 0.23700 -0.09811 -0.05112
 C586 C 0.23022 -0.13113 -0.06757
 H587 H 0.22750 -0.12437 -0.08620
 C588 C 0.23904 -0.14658 -0.01944
 H589 H 0.24205 -0.15249 -0.00053
 C590 C 0.23298 -0.16215 -0.03858
 H591 H 0.23149 -0.17994 -0.03404
 Zn592 Zn 0.24896 -0.10251 0.00108
 N593 N 0.24087 -0.12409 -0.02447
 C594 C 0.28548 -0.08971 -0.03089
 N595 N 0.27369 -0.08404 -0.00960
 C596 C 0.28085 -0.06675 0.00593
 C597 C 0.30075 -0.05454 0.00043
 C598 C 0.30553 -0.07808 -0.03699
 C599 C 0.20443 -0.09853 0.01473
 C600 C 0.18374 -0.08862 0.01997
 C601 C 0.20072 -0.05207 0.01093
 C602 C 0.22121 -0.06282 0.00578
 N603 N 0.22266 -0.08566 0.00791
 H604 H 0.28003 -0.10397 -0.04256
 H605 H 0.27153 -0.06300 0.02313
 H606 H 0.30666 -0.04141 0.01352
 H607 H 0.31503 -0.08324 -0.05362
 H608 H 0.20598 -0.11672 0.01582
 H609 H 0.16965 -0.09997 0.02407
 H610 H 0.20054 -0.03382 0.00972
 H611 H 0.23586 -0.05288 0.00004
 C612 C 0.22886 -0.15457 -0.06322
 C613 C 0.27174 -0.13839 0.07567
 C614 C 0.18132 -0.06491 0.01822
 C615 C 0.31360 -0.06053 -0.02098
 C616 C 0.26186 1.15092 0.48001
 H617 H 0.25855 1.15655 0.49922
 C618 C 0.27028 1.16642 0.46237
 H619 H 0.27319 1.18387 0.46833
 C620 C 0.26355 1.12108 0.44960
 H621 H 0.26116 1.10328 0.44488
 C622 C 0.27151 1.13602 0.43126
 H623 H 0.27438 1.12946 0.41230
 N624 N 0.25831 1.12879 0.47323
 C625 C 0.24451 1.11418 0.54969
 H626 H 0.25637 1.10055 0.55075
 C627 C 0.23639 1.12416 0.57194
 H628 H 0.24260 1.11849 0.58997
 C629 C 0.22174 1.13788 0.52501
 H630 H 0.21593 1.14287 0.50656
 C631 C 0.21340 1.14859 0.54684
 H632 H 0.20123 1.16195 0.54517
 Zn633 Zn 0.24810 1.10703 0.49693
 N634 N 0.23737 1.12137 0.52680
 C635 C 0.29111 1.10090 0.51512
 N636 N 0.27341 1.08933 0.50435
 C637 C 0.27486 1.06697 0.49797
 C638 C 0.29500 1.05549 0.50204
 C639 C 0.31137 1.09011 0.51973
 C640 C 0.21275 1.09465 0.46249
 C641 C 0.19265 1.08331 0.45557
 C642 C 0.19576 1.06027 0.49272
 C643 C 0.21575 1.07207 0.49895
 N644 N 0.22368 1.08908 0.48406
 H645 H 0.28952 1.11872 0.51982
 H646 H 0.26073 1.05822 0.48892
 H647 H 0.29621 1.03795 0.49596
 H648 H 0.32521 1.09973 0.52833
 H649 H 0.21887 1.10866 0.45130
 H650 H 0.18381 1.08843 0.43876
 H651 H 0.18917 1.04758 0.50553
 H652 H 0.22448 1.06835 0.51632
 C653 C 0.22076 1.14170 0.57067
 C654 C 0.27499 1.15914 0.43742
 C655 C 0.18361 1.06625 0.47113
 C656 C 0.31374 1.06723 0.51265
 C657 C 0.17844 0.48101 0.27414
 H658 H 0.17998 0.49676 0.28484
 C659 C 0.19024 0.46197 0.28187
 H660 H 0.20104 0.46307 0.29838
 C661 C 0.16138 0.45971 0.24059
 H662 H 0.14962 0.45850 0.22505
 C663 C 0.17255 0.44037 0.24781
 H664 H 0.16954 0.42457 0.23749
 N665 N 0.16432 0.47954 0.25380
 C666 C 0.15006 0.54742 0.22716
 H667 H 0.13219 0.54473 0.22352
 C668 C 0.16024 0.56844 0.22247
 H669 H 0.15007 0.58178 0.21491
 C670 C 0.18484 0.53315 0.24155
 H671 H 0.19432 0.51936 0.24908
 C672 C 0.19570 0.55407 0.23738
 H673 H 0.21341 0.55626 0.24227
 Zn674 Zn 0.14549 0.50396 0.24536
 N675 N 0.16224 0.53050 0.23716
 C676 C 0.12557 0.53070 0.28473
 N677 N 0.12662 0.50976 0.27361
 C678 C 0.11492 0.49174 0.28314
 C679 C 0.10161 0.49432 0.30479
 C680 C 0.11246 0.53403 0.30654
 C681 C 0.13873 0.49248 0.19461
 C682 C 0.12700 0.48527 0.17300
 C683 C 0.09240 0.48505 0.19748
 C684 C 0.10491 0.49227 0.21861
 N685 N 0.12767 0.49551 0.21690
 H686 H 0.13529 0.54473 0.27710
 H687 H 0.11621 0.47526 0.27403
 H688 H 0.09251 0.47970 0.31212
 H689 H 0.11237 0.55060 0.31565
 H690 H 0.15683 0.49559 0.19369
 H691 H 0.13681 0.48420 0.15575
 H692 H 0.07458 0.48174 0.20054
 H693 H 0.09633 0.49497 0.23646
 C694 C 0.18320 0.57225 0.22836
 C695 C 0.18692 0.44132 0.26880
 C696 C 0.10323 0.48117 0.17381
 C697 C 0.10056 0.51559 0.31705
 C698 C -0.18252 1.02759 0.27643
 H699 H -0.18567 1.01176 0.28595
 C700 C -0.19438 1.04691 0.28403
 H701 H -0.20696 1.04581 0.29896
 C702 C -0.16117 1.04906 0.24685
 H703 H -0.14779 1.05024 0.23295
 C704 C -0.17230 1.06865 0.25407
 H705 H -0.16766 1.08457 0.24530
 N706 N -0.16634 1.02895 0.25795
 C707 C -0.15374 0.96221 0.22428
 H708 H -0.13638 0.96569 0.21877
 C709 C -0.16374 0.94126 0.21815
 H710 H -0.15392 0.92882 0.20786
 C711 C -0.18748 0.97429 0.24421
 H712 H -0.19672 0.98711 0.25441
 C713 C -0.19814 0.95340 0.23863
 H714 H -0.21531 0.95031 0.24515
 Zn715 Zn -0.14802 1.00387 0.24840
 N716 N -0.16537 0.97797 0.23781
 C717 C -0.11614 0.97742 0.27433
 N718 N -0.12974 0.99574 0.27622
 C719 C -0.13097 1.00816 0.29808
 C720 C -0.11879 1.00195 0.31931
 C721 C -0.10348 0.97070 0.29513
 C722 C -0.14048 1.01682 0.19883
 C723 C -0.12838 1.02335 0.17738
 C724 C -0.09375 1.02045 0.20111
 C725 C -0.10665 1.01431 0.22229
 N726 N -0.12955 1.01245 0.22068
 H727 H -0.11518 0.96790 0.25674
 H728 H -0.14143 1.02292 0.29918
 H729 H -0.12000 1.01212 0.33651
 H730 H -0.09298 0.95592 0.29344
 H731 H -0.15877 1.01554 0.19823
 H732 H -0.13814 1.02766 0.16097
 H733 H -0.07555 1.02060 0.20306
 H734 H -0.09830 1.01079 0.23992
 C735 C -0.18596 0.93631 0.22613
 C736 C -0.18898 1.06773 0.27292
 C737 C -0.10445 1.02486 0.17781
 C738 C -0.10501 0.98286 0.31810
 C739 C 0.32293 0.51677 -0.23113
 H740 H 0.31935 0.50178 -0.22018
 C741 C 0.31012 0.53626 -0.22712
 H742 H 0.29642 0.53594 -0.21344
 C743 C 0.34521 0.53553 -0.26204
 H744 H 0.35910 0.53558 -0.27536
 C745 C 0.33312 0.55527 -0.25846
 H746 H 0.33820 0.57011 -0.26902
 N747 N 0.33992 0.51663 -0.24870
 C748 C 0.35263 0.44609 -0.27534
 H749 H 0.37043 0.44817 -0.27977
 C750 C 0.34203 0.42638 -0.28056
 H751 H 0.35167 0.41310 -0.28958
 C752 C 0.31850 0.46361 -0.26230
 H753 H 0.30935 0.47800 -0.25516
 C754 C 0.30602 0.44204 -0.26750
 H755 H 0.28824 0.44142 -0.26260
 Zn756 Zn 0.35816 0.49085 -0.25545
 N757 N 0.34042 0.46483 -0.26487
 C758 C 0.39108 0.46712 -0.22835
 N759 N 0.37582 0.48406 -0.22668
 C760 C 0.37298 0.49606 -0.20474
 C761 C 0.38532 0.49083 -0.18323
 C762 C 0.40388 0.46138 -0.20728
 C763 C 0.36808 0.49695 -0.30633
 C764 C 0.38035 0.50441 -0.32727
 C765 C 0.41190 0.51370 -0.29971
 C766 C 0.39899 0.50594 -0.27921
 N767 N 0.37746 0.49794 -0.28289
 H768 H 0.39344 0.45807 -0.24605
 H769 H 0.36116 0.50976 -0.20382
 H770 H 0.38290 0.50073 -0.16602
 H771 H 0.41576 0.44770 -0.20889
 H772 H 0.35082 0.49078 -0.30863
 H773 H 0.37256 0.50325 -0.34577
 H774 H 0.42881 0.52051 -0.29641
 H775 H 0.40587 0.50699 -0.26027
 C776 C 0.31731 0.42342 -0.27522
 C777 C 0.31505 0.55581 -0.24114
 C778 C 0.40245 0.51327 -0.32410
 C779 C 0.40089 0.47316 -0.18427
 C780 C 0.67408 -0.02669 -0.22852
 H781 H 0.67823 -0.01120 -0.21814
 C782 C 0.68533 -0.04569 -0.22371
 H783 H 0.69837 -0.04512 -0.20938
 C784 C 0.65039 -0.04557 -0.25893
 H785 H 0.63666 -0.04590 -0.27232
 C786 C 0.66193 -0.06678 -0.25403
 H787 H 0.65682 -0.08144 -0.26535
 N788 N 0.65603 -0.02695 -0.24682
 C789 C 0.64356 0.04093 -0.27458
 H790 H 0.62577 0.03834 -0.27864
 C791 C 0.65408 0.06149 -0.28042
 H792 H 0.64395 0.07404 -0.28950
 C793 C 0.67803 0.02656 -0.25981
 H794 H 0.68732 0.01293 -0.25171
 C795 C 0.68933 0.04701 -0.26523
 H796 H 0.70702 0.04860 -0.26024
 Zn797 Zn 0.63785 -0.00133 -0.25340
 N798 N 0.65536 0.02423 -0.26367
 C799 C 0.60630 0.02436 -0.22539
 N800 N 0.62104 0.00699 -0.22410
 C801 C 0.62436 -0.00396 -0.20202
 C802 C 0.61321 0.00294 -0.17996
 C803 C 0.59469 0.03176 -0.20377
 C804 C 0.62662 -0.00860 -0.30388
 C805 C 0.61356 -0.01554 -0.32456
 C806 C 0.58256 -0.02404 -0.29599
 C807 C 0.59622 -0.01664 -0.27576
 N808 N 0.61783 -0.00920 -0.28010
 H809 H 0.60358 0.03261 -0.24317
 H810 H 0.63576 -0.01799 -0.20138
 H811 H 0.61605 -0.00607 -0.16261
 H812 H 0.58332 0.04584 -0.20508
 H813 H 0.64394 -0.00283 -0.30672
 H814 H 0.62086 -0.01433 -0.34332
 H815 H 0.56556 -0.03032 -0.29218
 H816 H 0.58978 -0.01734 -0.25659
 C817 C 0.67718 0.06540 -0.27476
 C818 C 0.67868 -0.06744 -0.23675
 C819 C 0.59126 -0.02368 -0.32082
 C820 C 0.59834 0.02120 -0.18059
 C821 C 0.02884 0.26289 0.84274
 H822 H 0.02065 0.27902 0.84506
 C823 C 0.04867 0.26133 0.82830
 H824 H 0.05582 0.27647 0.81983
 C825 C 0.02987 0.22374 0.85185
 H826 H 0.02243 0.20910 0.86097
 C827 C 0.04963 0.22141 0.83756
 H828 H 0.05714 0.20488 0.83579
 N829 N 0.02004 0.24428 0.85438
 C830 C -0.05291 0.24804 0.86539
 H831 H -0.05423 0.24602 0.88566
 C832 C -0.07249 0.25000 0.85102
 H833 H -0.08882 0.24947 0.86042
 C834 C -0.03005 0.25045 0.82851
 H835 H -0.01346 0.25063 0.81982
 C836 C -0.04928 0.25227 0.81334
 H837 H -0.04732 0.25404 0.79307
 Zn838 Zn -0.00614 0.24675 0.87496
 N839 N -0.03218 0.24869 0.85410
 C840 C -0.02114 0.28646 0.90091
 N841 N -0.00310 0.27300 0.89624
 C842 C 0.01758 0.27814 0.90637
 C843 C 0.02069 0.29745 0.92177
 C844 C -0.01885 0.30570 0.91647
 C845 C -0.02438 0.20421 0.88955
 C846 C -0.02545 0.18422 0.90324
 C847 C 0.00585 0.19821 0.92874
 C848 C 0.00629 0.21801 0.91456
 N849 N -0.00863 0.22061 0.89531
 H850 H -0.03734 0.28255 0.89248
 H851 H 0.03177 0.26741 0.90216
 H852 H 0.03729 0.30141 0.92949
 H853 H -0.03333 0.31636 0.91959
 H854 H -0.03575 0.20628 0.87384
 H855 H -0.03808 0.17137 0.89824
 H856 H 0.01828 0.19618 0.94348
 H857 H 0.01891 0.23107 0.91857
 C858 C -0.07081 0.25236 0.82468
 C859 C 0.05949 0.24041 0.82583
 C860 C -0.01000 0.18086 0.92290
 C861 C 0.00228 0.31147 0.92700
 C862 C 0.47783 0.26238 0.17426
 H863 H 0.49429 0.26571 0.18245
 C864 C 0.45871 0.26243 0.19001
 H865 H 0.46073 0.26584 0.21009
 C866 C 0.45517 0.25279 0.13865
 H867 H 0.45386 0.24815 0.11885
 C868 C 0.43570 0.25258 0.15366
 H869 H 0.41952 0.24864 0.14490
 N870 N 0.47578 0.25768 0.14900
 C871 C 0.54163 0.23867 0.14910
 H872 H 0.53706 0.22332 0.13872
 C873 C 0.56118 0.23934 0.16395
 H874 H 0.57172 0.22456 0.16444
 C875 C 0.53379 0.27669 0.16059
 H876 H 0.52296 0.29117 0.15921
 C877 C 0.55320 0.27812 0.17559
 H878 H 0.55715 0.29379 0.18575
 Zn879 Zn 0.50179 0.25590 0.12743
 N880 N 0.52844 0.25722 0.14759
 C881 C 0.52137 0.29304 0.10071
 N882 N 0.50221 0.28011 0.10383
 C883 C 0.48325 0.28417 0.09022
 C884 C 0.48262 0.30251 0.07390
 C885 C 0.52156 0.31145 0.08436
 C886 C 0.48827 0.21036 0.11885
 C887 C 0.48765 0.18936 0.10635
 C888 C 0.51245 0.20477 0.07416
 C889 C 0.51247 0.22560 0.08725
 N890 N 0.50056 0.22796 0.10922
 H891 H 0.53655 0.28923 0.11100
 H892 H 0.46841 0.27342 0.09218
 H893 H 0.46719 0.30572 0.06367
 H894 H 0.53673 0.32196 0.08275
 H895 H 0.47921 0.21247 0.13653
 H896 H 0.47766 0.17565 0.11438
 H897 H 0.52254 0.20303 0.05711
 H898 H 0.52228 0.23982 0.08011
 C899 C 0.56728 0.25932 0.17731
 C900 C 0.43731 0.25724 0.17975
 C901 C 0.50012 0.18621 0.08388
 C902 C 0.50183 0.31664 0.07111
 C903 C -0.02828 0.77379 0.66001
 H904 H -0.01714 0.78858 0.66090
 C905 C -0.04663 0.77262 0.67499
 H906 H -0.04941 0.78650 0.68814
 C907 C -0.03596 0.73735 0.64163
 H908 H -0.03204 0.72377 0.62849
 C909 C -0.05647 0.73539 0.65747
 H910 H -0.06710 0.72053 0.65421
 N911 N -0.02283 0.75526 0.64323
 C912 C 0.05036 0.75916 0.63233
 H913 H 0.05133 0.75833 0.61187
 C914 C 0.07017 0.75922 0.64665
 H915 H 0.08637 0.75874 0.63701
 C916 C 0.02800 0.76028 0.66966
 H917 H 0.01154 0.76003 0.67862
 C918 C 0.04741 0.76045 0.68473
 H919 H 0.04564 0.76035 0.70514
 Zn920 Zn 0.00379 0.75726 0.62297
 N921 N 0.02979 0.75966 0.64394
 C922 C 0.01806 0.79924 0.60154
 N923 N 0.00153 0.78285 0.60202
 C924 C -0.01742 0.78434 0.58765
 C925 C -0.02022 0.80277 0.57181
 C926 C 0.01599 0.81792 0.58588
 C927 C 0.01045 0.71093 0.61476
 C928 C 0.01273 0.69068 0.60106
 C929 C 0.00780 0.71125 0.56239
 C930 C 0.00567 0.73117 0.57686
 N931 N 0.00672 0.73062 0.60259
 H932 H 0.03278 0.79801 0.61344
 H933 H -0.03037 0.77113 0.58851
 H934 H -0.03540 0.80362 0.56047
 H935 H 0.02912 0.83101 0.58611
 H936 H 0.01143 0.71098 0.63521
 H937 H 0.01516 0.67514 0.61122
 H938 H 0.00696 0.71202 0.54195
 H939 H 0.00322 0.74703 0.56745
 C940 C 0.06884 0.75961 0.67322
 C941 C -0.06204 0.75217 0.67403
 C942 C 0.01135 0.69062 0.57449
 C943 C -0.00339 0.81991 0.57083
 C944 C 0.53045 0.76234 0.33431
 H945 H 0.51838 0.77579 0.33288
 C946 C 0.54954 0.76223 0.31853
 H947 H 0.55149 0.77534 0.30458
 C948 C 0.54229 0.72904 0.35427
 H949 H 0.53970 0.71634 0.36853
 C950 C 0.56185 0.72861 0.33943
 H951 H 0.57405 0.71563 0.34293
 N952 N 0.52685 0.74553 0.35126
 C953 C 0.45424 0.73955 0.36567
 H954 H 0.45513 0.73527 0.38547
 C955 C 0.43324 0.74091 0.35396
 H956 H 0.41809 0.73721 0.36488
 C957 C 0.47302 0.74945 0.32761
 H958 H 0.48851 0.75270 0.31730
 C959 C 0.45228 0.75130 0.31518
 H960 H 0.45216 0.75648 0.29562
 Zn961 Zn 0.50059 0.74530 0.37216
 N962 N 0.47358 0.74451 0.35269
 C963 C 0.48259 0.78457 0.39562
 N964 N 0.50127 0.77159 0.39322
 C965 C 0.52074 0.77710 0.40577
 C966 C 0.52194 0.79640 0.42145
 C967 C 0.48294 0.80377 0.41138
 C968 C 0.49743 0.69886 0.38028
 C969 C 0.49625 0.67889 0.39397
 C970 C 0.50035 0.70105 0.43265
 C971 C 0.50146 0.72067 0.41816
 N972 N 0.50008 0.71920 0.39246
 H973 H 0.46737 0.78015 0.38529
 H974 H 0.53537 0.76651 0.40348
 H975 H 0.53759 0.80070 0.43120
 H976 H 0.46801 0.81406 0.41282
 H977 H 0.49625 0.69823 0.35984
 H978 H 0.49448 0.66286 0.38382
 H979 H 0.50120 0.70251 0.45308
 H980 H 0.50321 0.73704 0.42750
 C981 C 0.43199 0.74767 0.32862
 C982 C 0.56562 0.74512 0.32086
 C983 C 0.49757 0.67981 0.42054
 C984 C 0.50282 0.80994 0.42443
 B985 B -0.01595 0.01008 1.01919
 B986 B -0.02713 0.00368 0.99070
 B987 B -0.00521 0.02225 0.99297
 B988 B 0.01241 0.01374 1.01585
 B989 B 0.00118 -0.01074 1.02763
 B990 B -0.02352 -0.01700 1.01199
 B991 B 0.01100 -0.01799 0.97747
 B992 B 0.02220 -0.01153 1.00591
 B993 B 0.00028 -0.03014 1.00371
 B994 B -0.01736 -0.02162 0.98080
 B995 B -0.00611 0.00286 0.96901
 B996 B 0.01858 0.00912 0.98464
 B997 B 0.48542 0.50892 0.51514
 B998 B 0.47475 0.50343 0.48617
 B999 B 0.49695 0.52157 0.48967
 B1000 B 0.51391 0.51208 0.51268
 B1001 B 0.50191 0.48751 0.52330
 B1002 B 0.47748 0.48214 0.50687
 B1003 B 0.51278 0.48146 0.47319
 B1004 B 0.52340 0.48688 0.50217
 B1005 B 0.50125 0.46875 0.49876
 B1006 B 0.48432 0.47819 0.47568
 B1007 B 0.49624 0.50284 0.46508
 B1008 B 0.52066 0.50824 0.48156
 B1009 B 0.50968 0.98417 0.51722
 B1010 B 0.52166 0.98853 0.48871
 B1011 B 0.49957 0.97027 0.49139
 B1012 B 0.48143 0.98047 0.51337
 B1013 B 0.49257 1.00565 0.52417
 B1014 B 0.51771 1.01065 0.50886
 B1015 B 0.48401 1.00940 0.47350
 B1016 B 0.47210 1.00504 0.50198
 B1017 B 0.49415 1.02334 0.49938
 B1018 B 0.51229 1.01317 0.47730
 B1019 B 0.50118 0.98792 0.46650
 B1020 B 0.47610 0.98287 0.48189
 B1021 B 0.01869 0.48780 1.01490
 B1022 B 0.02951 0.49115 0.98566
 B1023 B 0.00767 0.47292 0.99020
 B1024 B -0.00967 0.48381 1.01261
 B1025 B 0.00166 0.50943 1.02178
 B1026 B 0.02616 0.51396 1.00501
 B1027 B -0.00882 0.51128 0.97138
 B1028 B -0.01965 0.50785 1.00055
 B1029 B 0.00217 0.52618 0.99617
 B1030 B 0.01954 0.51531 0.97364
 B1031 B 0.00819 0.48965 0.96447
 B1032 B -0.01620 0.48505 0.98131
 B1033 B 0.01843 0.51388 0.48380
 B1034 B 0.02906 0.51048 0.51293
 B1035 B 0.00892 0.52971 0.50838
 B1036 B -0.00952 0.51931 0.48649
 B1037 B -0.00065 0.49300 0.47773
 B1038 B 0.02348 0.48756 0.49414
 B1039 B -0.01082 0.49253 0.52836
 B1040 B -0.02162 0.49600 0.49934
 B1041 B -0.00150 0.47673 0.50371
 B1042 B 0.01704 0.48711 0.52560
 B1043 B 0.00810 0.51337 0.53442
 B1044 B -0.01596 0.51888 0.51799
 B1045 B 0.51488 0.01522 -0.01939
 B1046 B 0.52550 0.00875 0.00896
 B1047 B 0.50450 0.02746 0.00723
 B1048 B 0.48674 0.01903 -0.01628
 B1049 B 0.49693 -0.00559 -0.02885
 B1050 B 0.52113 -0.01192 -0.01308
 B1051 B 0.48615 -0.01269 0.02092
 B1052 B 0.47563 -0.00620 -0.00753
 B1053 B 0.49662 -0.02494 -0.00559
 B1054 B 0.51440 -0.01646 0.01790
 B1055 B 0.50417 0.00804 0.03041
 B1056 B 0.47998 0.01444 0.01463
 B1057 B 0.48995 0.48689 -0.02577
 B1058 B 0.47913 0.49166 0.00326
 B1059 B 0.50068 0.47374 -0.00052
 B1060 B 0.51827 0.48385 -0.02324
 B1061 B 0.50729 0.50858 -0.03330
 B1062 B 0.48286 0.51343 -0.01680
 B1063 B 0.51773 0.51367 0.01697
 B1064 B 0.52854 0.50892 -0.01204
 B1065 B 0.50694 0.52679 -0.00826
 B1066 B 0.48943 0.51670 0.01446
 B1067 B 0.50039 0.49194 0.02454
 B1068 B 0.52483 0.48713 0.00804
 B1069 B -0.01707 0.99120 0.47734
 B1070 B -0.02790 0.99611 0.50632
 B1071 B -0.00705 0.97737 0.50250
 B1072 B 0.01105 0.98699 0.48001
 B1073 B 0.00112 1.01227 0.47022
 B1074 B -0.02317 1.01794 0.48663
 B1075 B 0.01147 1.01642 0.52062
 B1076 B 0.02222 1.01156 0.49158
 B1077 B 0.00136 1.03026 0.49551
 B1078 B -0.01670 1.02063 0.51798
 B1079 B -0.00679 0.99532 0.52775
 B1080 B 0.01753 0.98969 0.51134
 B1081 B 0.76529 0.23665 0.23212
 B1082 B 0.75858 0.22571 0.26044
 B1083 B 0.77801 0.24690 0.25859
 B1084 B 0.77006 0.26490 0.23590
 B1085 B 0.74510 0.25458 0.22385
 B1086 B 0.73799 0.23009 0.23907
 B1087 B 0.73865 0.26476 0.27413
 B1088 B 0.74529 0.27567 0.24583
 B1089 B 0.72588 0.25451 0.24763
 B1090 B 0.73379 0.23653 0.27036
 B1091 B 0.75876 0.24681 0.28238
 B1092 B 0.76594 0.27125 0.26711
 B1093 B 0.74070 0.76539 0.72992
 B1094 B 0.74607 0.77823 0.75798
 B1095 B 0.72800 0.75584 0.75653
 B1096 B 0.73747 0.73722 0.73454
 B1097 B 0.76207 0.74829 0.72253
 B1098 B 0.76740 0.77393 0.73710
 B1099 B 0.76812 0.74130 0.77317
 B1100 B 0.76263 0.72845 0.74516
 B1101 B 0.78077 0.75082 0.74657
 B1102 B 0.77127 0.76953 0.76858
 B1103 B 0.74669 0.75840 0.78061
 B1104 B 0.74136 0.73277 0.76606
 B1105 B 0.25922 0.25489 0.77460
 B1106 B 0.25419 0.26513 0.74573
 B1107 B 0.27256 0.24404 0.74894
 B1108 B 0.26294 0.22662 0.77187
 B1109 B 0.23793 0.23716 0.78261
 B1110 B 0.23254 0.26124 0.76630
 B1111 B 0.23302 0.22578 0.73243
 B1112 B 0.23809 0.21556 0.76131
 B1113 B 0.21971 0.23671 0.75797
 B1114 B 0.22939 0.25411 0.73509
 B1115 B 0.25430 0.24351 0.72436
 B1116 B 0.25973 0.21946 0.74064
 B1117 B 0.23640 0.74557 0.27720
 B1118 B 0.24125 0.73428 0.24828
 B1119 B 0.22199 0.75462 0.25189
 B1120 B 0.23131 0.77349 0.27411
 B1121 B 0.25699 0.76462 0.28408
 B1122 B 0.26313 0.74009 0.26801
 B1123 B 0.26032 0.77386 0.23355
 B1124 B 0.25533 0.78520 0.26234
 B1125 B 0.27467 0.76480 0.25887
 B1126 B 0.26534 0.74593 0.23658
 B1127 B 0.23967 0.75485 0.22658
 B1128 B 0.23346 0.77930 0.24266
 B1129 B 0.26144 0.72662 0.73278
 B1130 B 0.25703 0.71458 0.76107
 B1131 B 0.27558 0.73632 0.75854
 B1132 B 0.26565 0.75478 0.73743
 B1133 B 0.24020 0.74417 0.72694
 B1134 B 0.23506 0.71902 0.74173
 B1135 B 0.23662 0.75249 0.77803
 B1136 B 0.24143 0.76459 0.74959
 B1137 B 0.22256 0.74282 0.75225
 B1138 B 0.23252 0.72428 0.77331
 B1139 B 0.25798 0.73483 0.78379
 B1140 B 0.26332 0.75995 0.76931
 B1141 B 0.24076 0.27095 0.23757
 B1142 B 0.24546 0.28399 0.26563
 B1143 B 0.22763 0.26141 0.26387
 B1144 B 0.23780 0.24273 0.24225
 B1145 B 0.26251 0.25411 0.23087
 B1146 B 0.26725 0.27984 0.24541
 B1147 B 0.26748 0.24737 0.28174
 B1148 B 0.26288 0.23439 0.25359
 B1149 B 0.28065 0.25696 0.25546
 B1150 B 0.27048 0.27560 0.27705
 B1151 B 0.24576 0.26427 0.28841
 B1152 B 0.24103 0.23848 0.27386
 B1153 B 0.76246 0.76366 0.26957
 B1154 B 0.75839 0.77383 0.24046
 B1155 B 0.77700 0.75311 0.24464
 B1156 B 0.76675 0.73550 0.26708
 B1157 B 0.74115 0.74557 0.27655
 B1158 B 0.73603 0.76953 0.25994
 B1159 B 0.73849 0.73413 0.22616
 B1160 B 0.74258 0.72399 0.25527
 B1161 B 0.72396 0.74478 0.25102
 B1162 B 0.73425 0.76233 0.22859
 B1163 B 0.75977 0.75223 0.21914
 B1164 B 0.76495 0.72831 0.23574
 B1165 B 0.73289 0.23653 0.77235
 B1166 B 0.73720 0.22532 0.74332
 B1167 B 0.71864 0.24630 0.74729
 B1168 B 0.72878 0.26467 0.76960
 B1169 B 0.75419 0.25479 0.77922
 B1170 B 0.75940 0.23020 0.76286
 B1171 B 0.75740 0.26438 0.72876
 B1172 B 0.75311 0.27560 0.75777
 B1173 B 0.77164 0.25460 0.75378
 B1174 B 0.76153 0.23627 0.73146
 B1175 B 0.73611 0.24614 0.72183
 B1176 B 0.73089 0.27071 0.73824
 C1177 C 0.43529 1.03706 0.38299
 C1178 C 0.41165 1.03853 0.38224
 C1179 C 0.40054 1.03738 0.35911
 C1180 C 0.41285 1.03558 0.33635
 C1181 C 0.43669 1.03639 0.33788
 N1182 N 0.44716 1.03665 0.36084
 C1183 C 0.44687 1.03257 0.40713
 N1184 N 0.46872 1.03965 0.41117
 C1185 C 0.48037 1.03396 0.43236
 C1186 C 0.47020 1.01983 0.45056
 C1187 C 0.44777 1.01231 0.44626
 C1188 C 0.43611 1.01878 0.42502
 H1189 H 0.38224 1.03663 0.35940
 H1190 H 0.44702 1.03594 0.32094
 H1191 H 0.49777 1.03976 0.43446
 H1192 H 0.43916 1.00074 0.45893
 H1193 H 0.40167 1.03940 0.39947
 H1194 H 0.41918 1.01190 0.42203
 C1195 C -0.06435 0.54211 0.88732
 C1196 C -0.08786 0.54380 0.88994
 C1197 C -0.10151 0.54220 0.86861
 C1198 C -0.09188 0.53946 0.84436
 C1199 C -0.06802 0.54119 0.84243
 N1200 N -0.05504 0.54163 0.86372
 C1201 C -0.05059 0.53609 0.90939
 N1202 N -0.02901 0.54430 0.91259
 C1203 C -0.01570 0.53753 0.93208
 C1204 C -0.02384 0.52114 0.94911
 C1205 C -0.04587 0.51225 0.94533
 C1206 C -0.05922 0.51983 0.92596
 H1207 H -0.11968 0.54263 0.87130
 H1208 H -0.05953 0.53961 0.82433
 H1209 H 0.00128 0.54458 0.93393
 H1210 H -0.05311 0.49931 0.95737
 H1211 H -0.09572 0.54480 0.90849
 H1212 H -0.07595 0.51228 0.92341
 C1213 C 0.06026 -0.04361 0.88584
 C1214 C 0.04970 -0.04936 0.86273
 C1215 C 0.06195 -0.04729 0.84010
 C1216 C 0.08463 -0.03953 0.84040
 C1217 C 0.09471 -0.03492 0.86399
 N1218 N 0.08241 -0.03681 0.88560
 C1219 C 0.04784 -0.04152 0.91019
 N1220 N 0.05818 -0.02925 0.92897
 C1221 C 0.04765 -0.02355 0.95088
 C1222 C 0.02490 -0.02998 0.95508
 C1223 C 0.01411 -0.04365 0.93649
 C1224 C 0.02552 -0.04955 0.91408
 H1225 H 0.05355 -0.05135 0.82237
 H1226 H 0.11200 -0.02862 0.86533
 H1227 H 0.05680 -0.01266 0.96410
 H1228 H -0.00348 -0.04882 0.93859
 H1229 H 0.03203 -0.05443 0.86178
 H1230 H 0.01662 -0.05961 0.89986
 C1231 C 0.56263 0.46609 0.38008
 C1232 C 0.55761 0.45258 0.35857
 C1233 C 0.56939 0.45660 0.33589
 C1234 C 0.58574 0.47420 0.33469
 C1235 C 0.59043 0.48693 0.35670
 N1236 N 0.57899 0.48259 0.37840
 C1237 C 0.55061 0.46411 0.40461
 N1238 N 0.56074 0.47415 0.42501
 C1239 C 0.55003 0.47717 0.44743
 C1240 C 0.52717 0.47052 0.45042
 C1241 C 0.51665 0.45884 0.43005
 C1242 C 0.52832 0.45555 0.40709
 H1243 H 0.56548 0.44632 0.31924
 H1244 H 0.60325 0.50032 0.35670
 H1245 H 0.55904 0.48666 0.46202
 H1246 H 0.49898 0.45368 0.43118
 H1247 H 0.54494 0.43909 0.35920
 H1248 H 0.51943 0.44791 0.39114
 C1249 C 0.56840 0.53917 0.10791
 C1250 C 0.55746 0.53834 0.13154
 C1251 C 0.57025 0.53529 0.15338
 C1252 C 0.59387 0.53319 0.15172
 C1253 C 0.60421 0.53575 0.12794
 N1254 N 0.59139 0.53815 0.10694
 C1255 C 0.55578 0.53687 0.08390
 N1256 N 0.56578 0.52527 0.06463
 C1257 C 0.55475 0.51942 0.04302
 C1258 C 0.53198 0.52517 0.03963
 C1259 C 0.52155 0.53806 0.05887
 C1260 C 0.53338 0.54394 0.08104
 H1261 H 0.56153 0.53320 0.17129
 H1262 H 0.62241 0.53487 0.12585
 H1263 H 0.56358 0.50912 0.02923
 H1264 H 0.50398 0.54267 0.05740
 H1265 H 0.53918 0.53838 0.13306
 H1266 H 0.52490 0.55333 0.09594
 C1267 C 0.06262 1.03335 0.61326
 C1268 C 0.05179 1.03382 0.63702
 C1269 C 0.06407 1.02861 0.65871
 C1270 C 0.08698 1.02290 0.65673
 C1271 C 0.09741 1.02399 0.63289
 N1272 N 0.08510 1.02876 0.61211
 C1273 C 0.05005 1.03379 0.58908
 N1274 N 0.05969 1.02335 0.56878
 C1275 C 0.04870 1.01974 0.54663
 C1276 C 0.02619 1.02660 0.54371
 C1277 C 0.01622 1.03858 0.56398
 C1278 C 0.02807 1.04223 0.58670
 H1279 H 0.05537 1.02786 0.67678
 H1280 H 0.11518 1.02026 0.63061
 H1281 H 0.05721 1.01002 0.53209
 H1282 H -0.00112 1.04404 0.56282
 H1283 H 0.03384 1.03675 0.63881
 H1284 H 0.01983 1.05089 0.60230
 C1285 C -0.06458 0.47054 0.61855
 C1286 C -0.05577 0.46239 0.64124
 C1287 C -0.06879 0.46369 0.66342
 C1288 C -0.09051 0.47301 0.66301
 C1289 C -0.09894 0.48000 0.63968
 N1290 N -0.08589 0.47885 0.61857
 C1291 C -0.05093 0.47333 0.59521
 N1292 N -0.05826 0.48858 0.57831
 C1293 C -0.04650 0.49398 0.55717
 C1294 C -0.02572 0.48375 0.55169
 C1295 C -0.01803 0.46735 0.56844
 C1296 C -0.03057 0.46208 0.59026
 H1297 H -0.06168 0.45787 0.68096
 H1298 H -0.11539 0.48760 0.63834
 H1299 H -0.05342 0.50660 0.54496
 H1300 H -0.00214 0.45900 0.56503
 H1301 H -0.03875 0.45609 0.64228
 H1302 H -0.02427 0.44955 0.60300
 C1303 C 0.43339 -0.04103 0.10907
 C1304 C 0.44454 -0.03961 0.13248
 C1305 C 0.43182 -0.03634 0.15464
 C1306 C 0.40816 -0.03471 0.15334
 C1307 C 0.39765 -0.03859 0.12990
 N1308 N 0.41034 -0.04112 0.10864
 C1309 C 0.44587 -0.03776 0.08502
 N1310 N 0.46802 -0.04352 0.08234
 C1311 C 0.48050 -0.03774 0.06149
 C1312 C 0.47102 -0.02449 0.04247
 C1313 C 0.44821 -0.01851 0.04532
 C1314 C 0.43555 -0.02564 0.06590
 H1315 H 0.44055 -0.03341 0.17243
 H1316 H 0.37940 -0.03808 0.12823
 H1317 H 0.49811 -0.04238 0.06053
 H1318 H 0.44016 -0.00725 0.03237
 H1319 H 0.46285 -0.03913 0.13343
 H1320 H 0.41824 -0.02011 0.06771
 C1321 C 0.38567 0.45957 0.02237
 C1322 C 0.36730 0.47333 0.02887
 C1323 C 0.34534 0.46389 0.02904
 C1324 C 0.34166 0.44086 0.02286
 C1325 C 0.36054 0.42773 0.01689
 N1326 N 0.38160 0.43730 0.01664
 C1327 C 0.40920 0.46838 0.01953
 N1328 N 0.42391 0.45535 0.00622
 C1329 C 0.44561 0.46192 0.00161
 C1330 C 0.45401 0.48304 0.01053
 C1331 C 0.43925 0.49667 0.02480
 C1332 C 0.41689 0.48943 0.02939
 H1333 H 0.33126 0.47463 0.03385
 H1334 H 0.35857 0.41003 0.01151
 H1335 H 0.45593 0.45078 -0.00976
 H1336 H 0.44481 0.51306 0.03220
 H1337 H 0.36957 0.49122 0.03301
 H1338 H 0.40597 0.50022 0.04051
 C1339 C -0.12152 0.96446 0.52576
 C1340 C -0.14007 0.97801 0.53207
 C1341 C -0.16191 0.96826 0.53234
 C1342 C -0.16525 0.94509 0.52650
 C1343 C -0.14615 0.93217 0.52088
 N1344 N -0.12525 0.94206 0.52045
 C1345 C -0.09816 0.97353 0.52239
 N1346 N -0.08379 0.96082 0.50830
 C1347 C -0.06216 0.96737 0.50344
 C1348 C -0.05335 0.98806 0.51311
 C1349 C -0.06782 1.00150 0.52801
 C1350 C -0.09023 0.99433 0.53269
 H1351 H -0.17618 0.97884 0.53684
 H1352 H -0.14782 0.91439 0.51576
 H1353 H -0.05212 0.95637 0.49159
 H1354 H -0.06194 1.01760 0.53592
 H1355 H -0.13797 0.99599 0.53588
 H1356 H -0.10098 1.00486 0.54436
 C1357 C -0.11964 0.03393 0.97187
 C1358 C -0.13885 0.02084 0.97804
 C1359 C -0.15995 0.03114 0.97971
 C1360 C -0.16212 0.05457 0.97512
 C1361 C -0.14239 0.06639 0.96705
 N1362 N -0.12208 0.05610 0.96626
 C1363 C -0.09652 0.02545 0.97475
 N1364 N -0.08072 0.03989 0.98488
 C1365 C -0.05924 0.03363 0.98949
 C1366 C -0.05214 0.01156 0.98347
 C1367 C -0.06824 -0.00365 0.97273
 C1368 C -0.09049 0.00317 0.96851
 H1369 H -0.17399 0.02080 0.98634
 H1370 H -0.14274 0.08387 0.96137
 H1371 H -0.04825 0.04580 0.99901
 H1372 H -0.06383 -0.02094 0.96804
 H1373 H -0.13738 0.00324 0.98315
 H1374 H -0.10276 -0.00874 0.96044
 C1375 C 0.38268 0.53243 0.46365
 C1376 C 0.37796 0.55086 0.44836
 C1377 C 0.35646 0.56016 0.44914
 C1378 C 0.33975 0.55146 0.46559
 C1379 C 0.34492 0.53211 0.47953
 N1380 N 0.36605 0.52338 0.47848
 C1381 C 0.40618 0.52554 0.46729
 N1382 N 0.41259 0.50393 0.46217
 C1383 C 0.43399 0.49691 0.46695
 C1384 C 0.45008 0.51183 0.47827
 C1385 C 0.44320 0.53400 0.48415
 C1386 C 0.42159 0.54098 0.47826
 H1387 H 0.35320 0.57462 0.43747
 H1388 H 0.33276 0.52477 0.49255
 H1389 H 0.43816 0.47952 0.46253
 H1390 H 0.45397 0.54586 0.49446
 H1391 H 0.39107 0.55848 0.43666
 H1392 H 0.41656 0.55803 0.48331
 C1393 C 0.12402 0.53689 0.53174
 C1394 C 0.13017 0.55865 0.54066
 C1395 C 0.15261 0.56612 0.53884
 C1396 C 0.16898 0.55199 0.52803
 C1397 C 0.16237 0.52981 0.52072
 N1398 N 0.14027 0.52294 0.52249
 C1399 C 0.09994 0.53063 0.52849
 N1400 N 0.09151 0.51021 0.53618
 C1401 C 0.06943 0.50382 0.53233
 C1402 C 0.05468 0.51811 0.51948
 C1403 C 0.06363 0.53889 0.51088
 C1404 C 0.08591 0.54531 0.51570
 H1405 H 0.15686 0.58341 0.54447
 H1406 H 0.17459 0.51830 0.51267
 H1407 H 0.06361 0.48741 0.53884
 H1408 H 0.05382 0.55002 0.49944
 H1409 H 0.11749 0.57012 0.54787
 H1410 H 0.09243 0.56128 0.50855
 C1411 C 0.61972 0.03679 0.02993
 C1412 C 0.62527 0.05841 0.03972
 C1413 C 0.64756 0.06643 0.03853
 C1414 C 0.66444 0.05297 0.02764
 C1415 C 0.65842 0.03084 0.01949
 N1416 N 0.63643 0.02345 0.02057
 C1417 C 0.59579 0.02998 0.02624
 N1418 N 0.58816 0.00864 0.03161
 C1419 C 0.56626 0.00181 0.02727
 C1420 C 0.55087 0.01666 0.01631
 C1421 C 0.55896 0.03847 0.01012
 C1422 C 0.58107 0.04523 0.01538
 H1423 H 0.65130 0.08366 0.04482
 H1424 H 0.67102 0.01977 0.01141
 H1425 H 0.56110 -0.01534 0.03187
 H1426 H 0.54856 0.05031 0.00035
 H1427 H 0.61228 0.06938 0.04719
 H1428 H 0.58688 0.06202 0.01000
 C1429 C 0.61440 0.95763 0.47015
 C1430 C 0.61885 0.93473 0.46507
 C1431 C 0.64074 0.92694 0.46774
 C1432 C 0.65830 0.94195 0.47494
 C1433 C 0.65365 0.96509 0.47758
 N1434 N 0.63194 0.97227 0.47560
 C1435 C 0.59081 0.96503 0.47330
 N1436 N 0.58440 0.98595 0.46593
 C1437 C 0.56294 0.99347 0.46982
 C1438 C 0.54668 0.97982 0.48234
 C1439 C 0.55348 0.95846 0.49048
 C1440 C 0.57519 0.95100 0.48583
 H1441 H 0.64382 0.90900 0.46528
 H1442 H 0.66694 0.97713 0.48294
 H1443 H 0.55876 1.01023 0.46357
 H1444 H 0.54241 0.94761 0.50144
 H1445 H 0.60533 0.92275 0.46032
 H1446 H 0.57998 0.93471 0.49300
 C1447 C 0.12219 0.46003 0.96718
 C1448 C 0.12659 0.43715 0.96187
 C1449 C 0.14829 0.42909 0.96529
 C1450 C 0.16572 0.44382 0.97346
 C1451 C 0.16122 0.46697 0.97641
 N1452 N 0.13966 0.47440 0.97369
 C1453 C 0.09857 0.46744 0.96998
 N1454 N 0.09208 0.48821 0.96217
 C1455 C 0.07057 0.49571 0.96593
 C1456 C 0.05440 0.48224 0.97882
 C1457 C 0.06133 0.46107 0.98740
 C1458 C 0.08303 0.45358 0.98279
 H1459 H 0.15128 0.41114 0.96272
 H1460 H 0.17442 0.47877 0.98258
 H1461 H 0.06633 0.51237 0.95941
 H1462 H 0.05046 0.45044 0.99884
 H1463 H 0.11308 0.42536 0.95649
 H1464 H 0.08790 0.43743 0.99030
 C1465 C -0.00611 0.38057 0.47504
 C1466 C -0.02599 0.36833 0.46900
 C1467 C -0.02462 0.34770 0.45591
 C1468 C -0.00348 0.33931 0.44840
 C1469 C 0.01609 0.35158 0.45609
 N1470 N 0.01430 0.37172 0.46882
 C1471 C -0.00718 0.40412 0.48462
 N1472 N 0.00650 0.41165 0.50382
 C1473 C 0.00731 0.43385 0.51150
 C1474 C -0.00547 0.45005 0.49888
 C1475 C -0.01934 0.44235 0.47877
 C1476 C -0.02064 0.41951 0.47207
 H1477 H -0.04018 0.33858 0.45125
 H1478 H 0.03277 0.34586 0.45084
 H1479 H 0.01872 0.43892 0.52662
 H1480 H -0.02867 0.45401 0.46743
 H1481 H -0.04244 0.37500 0.47378
 H1482 H -0.03108 0.41413 0.45617
 C1483 C 0.49357 -0.11979 -0.04043
 C1484 C 0.47367 -0.13102 -0.04834
 C1485 C 0.47492 -0.15219 -0.06031
 C1486 C 0.49603 -0.16207 -0.06499
 C1487 C 0.51553 -0.15050 -0.05584
 N1488 N 0.51384 -0.12990 -0.04406
 C1489 C 0.49295 -0.09628 -0.03072
 N1490 N 0.50378 -0.09016 -0.00887
 C1491 C 0.50428 -0.06833 0.00003
 C1492 C 0.49406 -0.05111 -0.01376
 C1493 C 0.48325 -0.05729 -0.03662
 C1494 C 0.48227 -0.07979 -0.04482
 H1495 H 0.45931 -0.16064 -0.06611
 H1496 H 0.53220 -0.15725 -0.05899
 H1497 H 0.51316 -0.06443 0.01749
 H1498 H 0.47554 -0.04474 -0.04834
 H1499 H 0.45734 -0.12331 -0.04558
 H1500 H 0.47394 -0.08418 -0.06252
 C1501 C 0.00231 -0.12410 1.03876
 C1502 C -0.01042 -0.14259 1.02888
 C1503 C -0.01074 -0.16320 1.04164
 C1504 C 0.00144 -0.16539 1.06423
 C1505 C 0.01425 -0.14667 1.07312
 N1506 N 0.01424 -0.12686 1.06046
 C1507 C 0.00230 -0.10113 1.02779
 N1508 N 0.01049 -0.08372 1.04245
 C1509 C 0.01055 -0.06189 1.03500
 C1510 C 0.00194 -0.05620 1.01119
 C1511 C -0.00621 -0.07391 0.99539
 C1512 C -0.00602 -0.09639 1.00355
 H1513 H -0.02102 -0.17719 1.03425
 H1514 H 0.02424 -0.14770 1.09017
 H1515 H 0.01728 -0.04906 1.04792
 H1516 H -0.01305 -0.07042 0.97693
 H1517 H -0.02057 -0.14117 1.01203
 H1518 H -0.01234 -0.10967 0.99097
 C1519 C 0.50142 0.37464 0.53370
 C1520 C 0.48846 0.35623 0.52398
 C1521 C 0.48746 0.33588 0.53729
 C1522 C 0.49917 0.33389 0.56024
 C1523 C 0.51232 0.35246 0.56885
 N1524 N 0.51297 0.37199 0.55568
 C1525 C 0.50201 0.39752 0.52241
 N1526 N 0.51089 0.41472 0.53686
 C1527 C 0.51144 0.43653 0.52943
 C1528 C 0.50259 0.44252 0.50582
 C1529 C 0.49380 0.42503 0.49012
 C1530 C 0.49348 0.40249 0.49831
 H1531 H 0.47699 0.32196 0.53007
 H1532 H 0.52201 0.35156 0.58614
 H1533 H 0.51866 0.44913 0.54230
 H1534 H 0.48684 0.42878 0.47177
 H1535 H 0.47867 0.35755 0.50686
 H1536 H 0.48654 0.38938 0.48591
 C1537 C 0.49410 1.11824 0.53489
 C1538 C 0.50401 1.13742 0.52347
 C1539 C 0.50436 1.15826 0.53663
 C1540 C 0.49480 1.16007 0.56100
 C1541 C 0.48512 1.14050 0.57160
 N1542 N 0.48505 1.12055 0.55852
 C1543 C 0.49327 1.09521 0.52307
 N1544 N 0.48238 1.07868 0.53627
 C1545 C 0.48157 1.05673 0.52853
 C1546 C 0.49237 1.04984 0.50598
 C1547 C 0.50332 1.06662 0.49154
 C1548 C 0.50382 1.08933 0.49997
 H1549 H 0.51183 1.17300 0.52765
 H1550 H 0.47793 1.14089 0.59047
 H1551 H 0.47284 1.04467 0.54050
 H1552 H 0.51208 1.06216 0.47417
 H1553 H 0.51135 1.13660 0.50472
 H1554 H 0.51284 1.10174 0.48876
 C1555 C 0.00301 0.62184 1.02769
 C1556 C 0.02370 0.63320 1.03221
 C1557 C 0.02405 0.65330 1.04665
 C1558 C 0.00376 0.66234 1.05617
 C1559 C -0.01665 0.65097 1.04975
 N1560 N -0.01645 0.63108 1.03647
 C1561 C 0.00209 0.59853 1.01734
 N1562 N -0.01067 0.58297 1.02992
 C1563 C -0.01145 0.56078 1.02302
 C1564 C 0.00074 0.55289 1.00177
 C1565 C 0.01379 0.56883 0.98819
 C1566 C 0.01468 0.59165 0.99608
 H1567 H 0.04028 0.66112 1.05125
 H1568 H -0.03281 0.65752 1.05574
 H1569 H -0.02124 0.54928 1.03469
 H1570 H 0.02387 0.56360 0.97205
 H1571 H 0.03950 0.62590 1.02602
 H1572 H 0.02511 0.60372 0.98583
 C1573 C 0.50830 0.62196 -0.03912
 C1574 C 0.49411 0.63893 -0.02950
 C1575 C 0.49292 0.65959 -0.04206
 C1576 C 0.50569 0.66329 -0.06416
 C1577 C 0.52015 0.64618 -0.07259
 N1578 N 0.52091 0.62629 -0.06020
 C1579 C 0.50884 0.59873 -0.02891
 N1580 N 0.51776 0.58234 -0.04404
 C1581 C 0.51805 0.56028 -0.03751
 C1582 C 0.50889 0.55325 -0.01423
 C1583 C 0.50008 0.56993 0.00212
 C1584 C 0.50005 0.59269 -0.00509
 H1585 H 0.48143 0.67232 -0.03504
 H1586 H 0.53065 0.64848 -0.08923
 H1587 H 0.52523 0.54829 -0.05084
 H1588 H 0.49278 0.56538 0.02021
 H1589 H 0.48339 0.63617 -0.01316
 H1590 H 0.49312 0.60517 0.00782
 C1591 C 0.00492 1.12515 0.46375
 C1592 C -0.00351 1.14427 0.47650
 C1593 C -0.00422 1.16499 0.46400
 C1594 C 0.00325 1.16689 0.43862
 C1595 C 0.01206 1.14726 0.42701
 N1596 N 0.01258 1.12747 0.43961
 C1597 C 0.00533 1.10210 0.47460
 N1598 N 0.01400 1.08540 0.45971
 C1599 C 0.01388 1.06340 0.46647
 C1600 C 0.00439 1.05668 0.48969
 C1601 C -0.00412 1.07364 0.50588
 C1602 C -0.00369 1.09637 0.49845
 H1603 H -0.01166 1.17911 0.47407
 H1604 H 0.01925 1.14750 0.40818
 H1605 H 0.02087 1.05119 0.45325
 H1606 H -0.01168 1.06932 0.52392
 H1607 H -0.00981 1.14344 0.49570
 H1608 H -0.01087 1.10893 0.51105
 C1609 C 0.79333 0.69797 0.86680
 C1610 C 0.78315 0.70749 0.88837
 C1611 C 0.77979 0.69423 0.90979
 C1612 C 0.78704 0.67165 0.90996
 C1613 C 0.79892 0.66358 0.88859
 N1614 N 0.80105 0.67647 0.86761
 C1615 C 0.79120 0.70880 0.84210
 N1616 N 0.78063 0.69674 0.82337
 C1617 C 0.77482 0.70611 0.80115
 C1618 C 0.77980 0.72911 0.79647
 C1619 C 0.79157 0.74167 0.81532
 C1620 C 0.79704 0.73164 0.83829
 H1621 H 0.77030 0.70130 0.92548
 H1622 H 0.80568 0.64670 0.88802
 H1623 H 0.76502 0.69577 0.78799
 H1624 H 0.79543 0.75952 0.81294
 H1625 H 0.77622 0.72433 0.88794
 H1626 H 0.80515 0.74169 0.85315
 C1627 C 0.29018 0.20327 0.37587
 C1628 C 0.27891 0.21196 0.39718
 C1629 C 0.27481 0.19796 0.41787
 C1630 C 0.28236 0.17548 0.41756
 C1631 C 0.29538 0.16830 0.39665
 N1632 N 0.29824 0.18188 0.37633
 C1633 C 0.28854 0.21453 0.35138
 N1634 N 0.27858 0.20261 0.33215
 C1635 C 0.27334 0.21216 0.30988
 C1636 C 0.27839 0.23521 0.30556
 C1637 C 0.28940 0.24771 0.32503
 C1638 C 0.29424 0.23748 0.34811
 H1639 H 0.26450 0.20435 0.43327
 H1640 H 0.30239 0.15153 0.39583
 H1641 H 0.26402 0.20186 0.29625
 H1642 H 0.29316 0.26562 0.32298
 H1643 H 0.27168 0.22867 0.39695
 H1644 H 0.30181 0.24744 0.36339
 C1645 C 0.71805 0.31621 0.36648
 C1646 C 0.71152 0.30659 0.38964
 C1647 C 0.71444 0.31921 0.41215
 C1648 C 0.72382 0.34133 0.41169
 C1649 C 0.72931 0.35047 0.38804
 N1650 N 0.72653 0.33784 0.36658
 C1651 C 0.71897 0.30329 0.34217
 N1652 N 0.73148 0.31271 0.32333
 C1653 C 0.73603 0.30172 0.30131
 C1654 C 0.72798 0.27939 0.29691
 C1655 C 0.71404 0.26956 0.31557
 C1656 C 0.70944 0.28144 0.33823
 H1657 H 0.70965 0.31154 0.42992
 H1658 H 0.73688 0.36725 0.38656
 H1659 H 0.74716 0.31017 0.28802
 H1660 H 0.70761 0.25234 0.31325
 H1661 H 0.70508 0.28936 0.39069
 H1662 H 0.69916 0.27328 0.35253
 C1663 C 0.21884 0.80014 0.87324
 C1664 C 0.23172 0.79327 0.89391
 C1665 C 0.23447 0.80775 0.91485
 C1666 C 0.22424 0.82903 0.91553
 C1667 C 0.21073 0.83484 0.89483
 N1668 N 0.20874 0.82065 0.87436
 C1669 C 0.21852 0.78695 0.84920
 N1670 N 0.21830 0.79827 0.82700
 C1671 C 0.22155 0.78774 0.80424
 C1672 C 0.22594 0.76442 0.80284
 C1673 C 0.22414 0.75219 0.82549
 C1674 C 0.22054 0.76334 0.84859
 H1675 H 0.24548 0.80262 0.92995
 H1676 H 0.20208 0.85081 0.89463
 H1677 H 0.22142 0.79794 0.78765
 H1678 H 0.22685 0.73411 0.82569
 H1679 H 0.24068 0.77746 0.89338
 H1680 H 0.22014 0.75366 0.86582
 C1681 C 0.28283 0.82531 0.14275
 C1682 C 0.28791 0.81513 0.11926
 C1683 C 0.28534 0.82747 0.09705
 C1684 C 0.27739 0.84989 0.09802
 C1685 C 0.27418 0.85975 0.12226
 N1686 N 0.27660 0.84735 0.14340
 C1687 C 0.28072 0.81247 0.16653
 N1688 N 0.26715 0.82126 0.18485
 C1689 C 0.26188 0.81014 0.20633
 C1690 C 0.27038 0.78847 0.21067
 C1691 C 0.28524 0.77932 0.19250
 C1692 C 0.29045 0.79125 0.17037
 H1693 H 0.28796 0.81865 0.07921
 H1694 H 0.26962 0.87730 0.12469
 H1695 H 0.25019 0.81804 0.21938
 H1696 H 0.29216 0.76266 0.19490
 H1697 H 0.29246 0.79751 0.11776
 H1698 H 0.30159 0.78373 0.15642
 C1699 C 0.78456 0.31757 0.64056
 C1700 C 0.78798 0.30802 0.61638
 C1701 C 0.78668 0.32176 0.59508
 C1702 C 0.78166 0.34498 0.59774
 C1703 C 0.78045 0.35399 0.62260
 N1704 N 0.78146 0.34025 0.64283
 C1705 C 0.78061 0.30378 0.66331
 N1706 N 0.76707 0.31268 0.68159
 C1707 C 0.76055 0.30105 0.70231
 C1708 C 0.76786 0.27882 0.70598
 C1709 C 0.78229 0.26934 0.68758
 C1710 C 0.78871 0.28175 0.66619
 H1711 H 0.78773 0.31359 0.57665
 H1712 H 0.77833 0.37191 0.62624
 H1713 H 0.74910 0.30916 0.71547
 H1714 H 0.78806 0.25215 0.68925
 H1715 H 0.79005 0.28996 0.61370
 H1716 H 0.79962 0.27411 0.65208
 C1717 C 0.20730 0.17494 0.64106
 C1718 C 0.20451 0.15129 0.63907
 C1719 C 0.20766 0.14048 0.61572
 C1720 C 0.21316 0.15317 0.59427
 C1721 C 0.21362 0.17692 0.59657
 N1722 N 0.21115 0.18708 0.61971
 C1723 C 0.20977 0.18639 0.66603
 N1724 N 0.20439 0.20862 0.66899
 C1725 C 0.20957 0.22078 0.69044
 C1726 C 0.22177 0.21084 0.71006
 C1727 C 0.22732 0.18789 0.70713
 C1728 C 0.22103 0.17561 0.68558
 H1729 H 0.20662 0.12214 0.61457
 H1730 H 0.21758 0.18730 0.58037
 H1731 H 0.20537 0.23852 0.69140
 H1732 H 0.23775 0.17953 0.72072
 H1733 H 0.20097 0.14115 0.65557
 H1734 H 0.22661 0.15832 0.68350
 C1735 C 0.71681 0.67932 0.13593
 C1736 C 0.72017 0.65592 0.13641
 C1737 C 0.72337 0.64390 0.11388
 C1738 C 0.72326 0.65496 0.09042
 C1739 C 0.71770 0.67817 0.09079
 N1740 N 0.71521 0.68967 0.11319
 C1741 C 0.71854 0.69287 0.15968
 N1742 N 0.73031 0.68419 0.17915
 C1743 C 0.73535 0.69627 0.20043
 C1744 C 0.72845 0.71883 0.20337
 C1745 C 0.71564 0.72804 0.18379
 C1746 C 0.71078 0.71516 0.16183
 H1747 H 0.72591 0.62586 0.11509
 H1748 H 0.71723 0.68780 0.07359
 H1749 H 0.74580 0.68837 0.21436
 H1750 H 0.71025 0.74545 0.18490
 H1751 H 0.72115 0.64707 0.15416
 H1752 H 0.70163 0.72269 0.14649
 C1753 C 0.21168 0.63968 0.22870
 C1754 C 0.22521 0.62159 0.22066
 C1755 C 0.21594 0.59952 0.22001
 C1756 C 0.19329 0.59550 0.22723
 C1757 C 0.18038 0.61414 0.23477
 N1758 N 0.18979 0.63527 0.23542
 C1759 C 0.22023 0.66332 0.23203
 N1760 N 0.20725 0.67759 0.24599
 C1761 C 0.21329 0.69944 0.25085
 C1762 C 0.23377 0.70858 0.24145
 C1763 C 0.24746 0.69425 0.22667
 C1764 C 0.24078 0.67163 0.22189
 H1765 H 0.22649 0.58563 0.21399
 H1766 H 0.16303 0.61192 0.24103
 H1767 H 0.20215 0.70935 0.26267
 H1768 H 0.26339 0.70040 0.21893
 H1769 H 0.24282 0.62415 0.21560
 H1770 H 0.25155 0.66104 0.21034
 C1771 C 0.70635 0.13146 0.72320
 C1772 C 0.72049 0.11277 0.72074
 C1773 C 0.71096 0.09085 0.72072
 C1774 C 0.68727 0.08737 0.72291
 C1775 C 0.67388 0.10690 0.72432
 N1776 N 0.68363 0.12787 0.72484
 C1777 C 0.71505 0.15490 0.72682
 N1778 N 0.70194 0.16945 0.74024
 C1779 C 0.70835 0.19120 0.74524
 C1780 C 0.72920 0.19986 0.73635
 C1781 C 0.74301 0.18516 0.72217
 C1782 C 0.73603 0.16266 0.71741
 H1783 H 0.72230 0.07680 0.71871
 H1784 H 0.65575 0.10586 0.72692
 H1785 H 0.69724 0.20137 0.75680
 H1786 H 0.75927 0.19090 0.71493
 H1787 H 0.73871 0.11492 0.71981
 H1788 H 0.74682 0.15165 0.70636
 C1789 C 0.78456 0.13297 0.28460
 C1790 C 0.80647 0.12846 0.29305
 C1791 C 0.81449 0.10652 0.29118
 C1792 C 0.80061 0.08904 0.28133
 C1793 C 0.77808 0.09373 0.27540
 N1794 N 0.77077 0.11548 0.27668
 C1795 C 0.77817 0.15653 0.27987
 N1796 N 0.75705 0.16400 0.28553
 C1797 C 0.75063 0.18548 0.28017
 C1798 C 0.76568 0.20055 0.26783
 C1799 C 0.78721 0.19256 0.26127
 C1800 C 0.79355 0.17091 0.26749
 H1801 H 0.83197 0.10342 0.29591
 H1802 H 0.76695 0.08051 0.26779
 H1803 H 0.73370 0.19059 0.28522
 H1804 H 0.79916 0.20267 0.25055
 H1805 H 0.81777 0.14206 0.29947
 H1806 H 0.81013 0.16515 0.26177
 C1807 C 0.28354 0.61999 0.76773
 C1808 C 0.28497 0.60607 0.78889
 C1809 C 0.29443 0.58457 0.78607
 C1810 C 0.30204 0.57699 0.76215
 C1811 C 0.29867 0.59099 0.74131
 N1812 N 0.29016 0.61196 0.74468
 C1813 C 0.27744 0.64394 0.76977
 N1814 N 0.29062 0.65921 0.75730
 C1815 C 0.28538 0.68136 0.75594
 C1816 C 0.26509 0.68932 0.76650
 C1817 C 0.25153 0.67388 0.78026
 C1818 C 0.25778 0.65118 0.78214
 H1819 H 0.29677 0.57442 0.80270
 H1820 H 0.30348 0.58563 0.72239
 H1821 H 0.29657 0.69229 0.74520
 H1822 H 0.23580 0.67911 0.78893
 H1823 H 0.28006 0.61222 0.80751
 H1824 H 0.24688 0.63926 0.79203
 C1825 C 0.28673 0.35781 0.72425
 C1826 C 0.27301 0.37664 0.72118
 C1827 C 0.28297 0.39838 0.72073
 C1828 C 0.30669 0.40156 0.72317
 C1829 C 0.31965 0.38187 0.72525
 N1830 N 0.30949 0.36110 0.72611
 C1831 C 0.27755 0.33462 0.72812
 N1832 N 0.29054 0.32022 0.74124
 C1833 C 0.28376 0.29878 0.74651
 C1834 C 0.26258 0.29023 0.73831
 C1835 C 0.24889 0.30475 0.72443
 C1836 C 0.25627 0.32695 0.71933
 H1837 H 0.27190 0.41251 0.71817
 H1838 H 0.33775 0.38272 0.72798
 H1839 H 0.29488 0.28880 0.75779
 H1840 H 0.23240 0.29908 0.71770
 H1841 H 0.25478 0.37481 0.72003
 H1842 H 0.24553 0.33779 0.70852
 C1843 C 0.78743 0.86823 0.22285
 C1844 C 0.77292 0.88621 0.21789
 C1845 C 0.78157 0.90849 0.21832
 C1846 C 0.80458 0.91286 0.22353
 C1847 C 0.81848 0.89434 0.22785
 N1848 N 0.80966 0.87296 0.22762
 C1849 C 0.77942 0.84444 0.22536
 N1850 N 0.79266 0.83033 0.23858
 C1851 C 0.78677 0.80843 0.24286
 C1852 C 0.76624 0.79919 0.23360
 C1853 C 0.75241 0.81335 0.21944
 C1854 C 0.75892 0.83594 0.21526
 H1855 H 0.77025 0.92228 0.21483
 H1856 H 0.83621 0.89683 0.23244
 H1857 H 0.79797 0.79863 0.25424
 H1858 H 0.73641 0.80713 0.21184
 H1859 H 0.75503 0.88333 0.21461
 H1860 H 0.74803 0.84644 0.20422
 C1861 C 0.71057 0.86994 0.77351
 C1862 C 0.72279 0.89012 0.77887
 C1863 C 0.71205 0.91100 0.77665
 C1864 C 0.68933 0.91184 0.76854
 C1865 C 0.67756 0.89101 0.76507
 N1866 N 0.68834 0.87118 0.76734
 C1867 C 0.72071 0.84723 0.77179
 N1868 N 0.70821 0.83079 0.75980
 C1869 C 0.71559 0.80954 0.75586
 C1870 C 0.73710 0.80327 0.76417
 C1871 C 0.75040 0.81988 0.77696
 C1872 C 0.74230 0.84191 0.78079
 H1873 H 0.72209 0.92635 0.77960
 H1874 H 0.65971 0.89023 0.76064
 H1875 H 0.70471 0.79795 0.74532
 H1876 H 0.76713 0.81598 0.78373
 H1877 H 0.74057 0.89001 0.78362
 H1878 H 0.75282 0.85440 0.79061
 C1879 C 0.21320 0.37661 0.28283
 C1880 C 0.19031 0.38075 0.28795
 C1881 C 0.18209 0.40245 0.28506
 C1882 C 0.19668 0.42010 0.27758
 C1883 C 0.21984 0.41582 0.27485
 N1884 N 0.22743 0.39429 0.27708
 C1885 C 0.22096 0.35310 0.27986
 N1886 N 0.24198 0.34717 0.28755
 C1887 C 0.24984 0.32577 0.28391
 C1888 C 0.23645 0.30907 0.27135
 C1889 C 0.21501 0.31537 0.26280
 C1890 C 0.20720 0.33704 0.26722
 H1891 H 0.16412 0.40526 0.28739
 H1892 H 0.23152 0.42918 0.26915
 H1893 H 0.26664 0.32199 0.29049
 H1894 H 0.20428 0.30381 0.25199
 H1895 H 0.17864 0.36709 0.29283
 H1896 H 0.19079 0.34143 0.25988
 C1897 C 0.12403 0.23583 0.78875
 C1898 C 0.10727 0.24935 0.77824
 C1899 C 0.08607 0.25066 0.79004
 C1900 C 0.08148 0.23854 0.81222
 C1901 C 0.09860 0.22503 0.82185
 N1902 N 0.11908 0.22419 0.81018
 C1903 C 0.14752 0.23496 0.77883
 N1904 N 0.16374 0.22727 0.79451
 C1905 C 0.18594 0.22683 0.78797
 C1906 C 0.19324 0.23455 0.76419
 C1907 C 0.17672 0.24195 0.74731
 C1908 C 0.15388 0.24213 0.75449
 H1909 H 0.07331 0.26120 0.78188
 H1910 H 0.09602 0.21568 0.83911
 H1911 H 0.19782 0.22070 0.80166
 H1912 H 0.18145 0.24805 0.72879
 H1913 H 0.11052 0.25936 0.76161
 H1914 H 0.14155 0.24791 0.74113
 C1915 C 0.62805 0.74351 0.27910
 C1916 C 0.61727 0.76424 0.28265
 C1917 C 0.59668 0.76483 0.29576
 C1918 C 0.58654 0.74472 0.30484
 C1919 C 0.59743 0.72419 0.29941
 N1920 N 0.61783 0.72418 0.28746
 C1921 C 0.65151 0.74263 0.26983
 N1922 N 0.66686 0.73171 0.28397
 C1923 C 0.68917 0.73149 0.27790
 C1924 C 0.69729 0.74235 0.25603
 C1925 C 0.68152 0.75329 0.24081
 C1926 C 0.65865 0.75368 0.24782
 H1927 H 0.58933 0.78116 0.29968
 H1928 H 0.59008 0.70813 0.30509
 H1929 H 0.70056 0.72315 0.29055
 H1930 H 0.68689 0.76218 0.22399
 H1931 H 0.62535 0.77993 0.27670
 H1932 H 0.64670 0.76259 0.23632
 C1933 C 0.63146 0.26228 0.21468
 C1934 C 0.62386 0.28128 0.20180
 C1935 C 0.60267 0.28053 0.19031
 C1936 C 0.58888 0.26094 0.19166
 C1937 C 0.59664 0.24268 0.20580
 N1938 N 0.61751 0.24373 0.21671
 C1939 C 0.65504 0.26143 0.22385
 N1940 N 0.66005 0.25061 0.24568
 C1941 C 0.68176 0.24878 0.25406
 C1942 C 0.69996 0.25771 0.23984
 C1943 C 0.69490 0.26849 0.21704
 C1944 C 0.67267 0.27059 0.20923
 H1945 H 0.59748 0.29498 0.17955
 H1946 H 0.58632 0.22744 0.20776
 H1947 H 0.68478 0.24002 0.27152
 H1948 H 0.70812 0.27539 0.20500
 H1949 H 0.63443 0.29640 0.20012
 H1950 H 0.66940 0.27867 0.19139
 C1951 C 0.12947 0.75324 0.71668
 C1952 C 0.11285 0.76833 0.72520
 C1953 C 0.09294 0.77045 0.71116
 C1954 C 0.08964 0.75772 0.68868
 C1955 C 0.10651 0.74267 0.68114
 N1956 N 0.12558 0.74088 0.69507
 C1957 C 0.15145 0.75014 0.72954
 N1958 N 0.16429 0.73277 0.72109
 C1959 C 0.18561 0.72944 0.72927
 C1960 C 0.19589 0.74456 0.74687
 C1961 C 0.18252 0.76196 0.75704
 C1962 C 0.16037 0.76494 0.74833
 H1963 H 0.08028 0.78224 0.71765
 H1964 H 0.10449 0.73213 0.66431
 H1965 H 0.19467 0.71547 0.72086
 H1966 H 0.18948 0.77407 0.77055
 H1967 H 0.11498 0.77831 0.74240
 H1968 H 0.15097 0.77920 0.75550
 C1969 C 0.87597 0.74864 0.71457
 C1970 C 0.88603 0.72865 0.70614
 C1971 C 0.90684 0.72967 0.69372
 C1972 C 0.91787 0.75072 0.68911
 C1973 C 0.90764 0.77026 0.69959
 N1974 N 0.88717 0.76875 0.71150
 C1975 C 0.85234 0.74822 0.72371
 N1976 N 0.84611 0.76029 0.74475
 C1977 C 0.82417 0.76073 0.75295
 C1978 C 0.80702 0.74906 0.73929
 C1979 C 0.81335 0.73706 0.71721
 C1980 C 0.83585 0.73627 0.70971
 H1981 H 0.91413 0.71373 0.68805
 H1982 H 0.91485 0.78701 0.69696
 H1983 H 0.82012 0.77057 0.76978
 H1984 H 0.80093 0.72816 0.70554
 H1985 H 0.87760 0.71236 0.70872
 H1986 H 0.84024 0.72700 0.69257
 C1987 C 0.37579 0.25500 0.22292
 C1988 C 0.39225 0.27182 0.22873
 C1989 C 0.41272 0.27226 0.21522
 C1990 C 0.41674 0.25606 0.19600
 C1991 C 0.40024 0.23903 0.19166
 N1992 N 0.38046 0.23912 0.20476
 C1993 C 0.35255 0.25509 0.23349
 N1994 N 0.33604 0.24461 0.21954
 C1995 C 0.31398 0.24451 0.22647
 C1996 C 0.30708 0.25539 0.24903
 C1997 C 0.32387 0.26592 0.26420
 C1998 C 0.34665 0.26586 0.25648
 H1999 H 0.42497 0.28578 0.21907
 H2000 H 0.40284 0.22586 0.17750
 H2001 H 0.30191 0.23601 0.21403
 H2002 H 0.31941 0.27451 0.28174
 H2003 H 0.38903 0.28508 0.24259
 H2004 H 0.35933 0.27411 0.26836
 C2005 C 0.36769 0.76206 0.29564
 C2006 C 0.37169 0.76677 0.32144
 C2007 C 0.39260 0.76217 0.33190
 C2008 C 0.40967 0.75240 0.31709
 C2009 C 0.40506 0.74774 0.29139
 N2010 N 0.38445 0.75251 0.28149
 C2011 C 0.34525 0.76600 0.28406
 N2012 N 0.33898 0.75427 0.26267
 C2013 C 0.31771 0.75529 0.25283
 C2014 C 0.30104 0.76813 0.26519
 C2015 C 0.30763 0.78098 0.28667
 C2016 C 0.32965 0.78052 0.29561
 H2017 H 0.39539 0.76646 0.35167
 H2018 H 0.41765 0.74001 0.27928
 H2019 H 0.31355 0.74500 0.23628
 H2020 H 0.29556 0.79089 0.29734
 H2021 H 0.35880 0.77347 0.33388
 H2022 H 0.33394 0.79099 0.31194
 C2023 C 0.86718 0.25798 0.78385
 C2024 C 0.88435 0.24425 0.77380
 C2025 C 0.90497 0.24292 0.78663
 C2026 C 0.90844 0.25505 0.80942
 C2027 C 0.89122 0.26915 0.81824
 N2028 N 0.87136 0.27008 0.80556
 C2029 C 0.84390 0.25848 0.77342
 N2030 N 0.82777 0.26827 0.78812
 C2031 C 0.80561 0.26822 0.78169
 C2032 C 0.79818 0.25765 0.75907
 C2033 C 0.81458 0.24800 0.74310
 C2034 C 0.83745 0.24844 0.75011
 H2035 H 0.91783 0.23175 0.77928
 H2036 H 0.89336 0.27915 0.83547
 H2037 H 0.79382 0.27601 0.79474
 H2038 H 0.80974 0.23951 0.72557
 H2039 H 0.88183 0.23399 0.75687
 H2040 H 0.84962 0.24068 0.73754
 C2041 C 0.55354 0.96195 0.61183
 C2042 C 0.54206 0.96992 0.63338
 C2043 C 0.55404 0.97365 0.65590
 C2044 C 0.57727 0.96903 0.65701
 C2045 C 0.58745 0.95908 0.63557
 N2046 N 0.57569 0.95642 0.61368
 C2047 C 0.54332 0.96354 0.58656
 N2048 N 0.52096 0.95857 0.58276
 C2049 C 0.51057 0.96277 0.56038
 C2050 C 0.52255 0.97361 0.54073
 C2051 C 0.54565 0.97872 0.54463
 C2052 C 0.55616 0.97312 0.56705
 H2053 H 0.54544 0.98142 0.67186
 H2054 H 0.60506 0.95438 0.63578
 H2055 H 0.49265 0.95890 0.55864
 H2056 H 0.55554 0.98819 0.53100
 H2057 H 0.52454 0.97485 0.63229
 H2058 H 0.57380 0.97788 0.56983
 C2059 C 0.06790 0.46697 1.10672
 C2060 C 0.09088 0.46206 1.10809
 C2061 C 0.10244 0.46576 1.13072
 C2062 C 0.09137 0.47463 1.15248
 C2063 C 0.06756 0.47709 1.15054
 N2064 N 0.05684 0.47375 1.12800
 C2065 C 0.05653 0.46842 1.08205
 N2066 N 0.03418 0.46268 1.07964
 C2067 C 0.02241 0.46672 1.05809
 C2068 C 0.03293 0.47812 1.03786
 C2069 C 0.05597 0.48422 1.04039
 C2070 C 0.06785 0.47896 1.06200
 H2071 H 0.12006 0.46124 1.13077
 H2072 H 0.05741 0.48360 1.16591
 H2073 H 0.00458 0.46216 1.05741
 H2074 H 0.06480 0.49408 1.02623
 H2075 H 0.10001 0.45605 1.09155
 H2076 H 0.08534 0.48463 1.06370
 C2077 C -0.06618 0.03460 1.11051
 C2078 C -0.05606 0.03958 1.13397
 C2079 C -0.06880 0.03712 1.15622
 C2080 C -0.09171 0.02961 1.15542
 C2081 C -0.10123 0.02596 1.13117
 N2082 N -0.08840 0.02820 1.11002
 C2083 C -0.05337 0.03283 1.08640
 N2084 N -0.06358 0.02108 1.06716
 C2085 C -0.05283 0.01566 1.04532
 C2086 C -0.02996 0.02189 1.04162
 C2087 C -0.01923 0.03501 1.06075
 C2088 C -0.03087 0.04060 1.08313
 H2089 H -0.06044 0.04132 1.17389
 H2090 H -0.11835 0.01966 1.12855
 H2091 H -0.06193 0.00507 1.03178
 H2092 H -0.00155 0.03994 1.05908
 H2093 H -0.03838 0.04449 1.13546
 H2094 H -0.02205 0.05019 1.09778
 C2095 C 0.43827 0.53094 0.60849
 C2096 C 0.41569 0.53733 0.61147
 C2097 C 0.40435 0.53267 0.63402
 C2098 C 0.41541 0.52158 0.65361
 C2099 C 0.43856 0.51713 0.65060
 N2100 N 0.44918 0.52153 0.62825
 C2101 C 0.44901 0.53049 0.58325
 N2102 N 0.47161 0.53490 0.58072
 C2103 C 0.48288 0.53086 0.55859
 C2104 C 0.47158 0.52052 0.53784
 C2105 C 0.44816 0.51624 0.54028
 C2106 C 0.43682 0.52168 0.56255
 H2107 H 0.38671 0.53710 0.63581
 H2108 H 0.44782 0.50881 0.66529
 H2109 H 0.50096 0.53414 0.55796
 H2110 H 0.43867 0.50709 0.52583
 H2111 H 0.40664 0.54496 0.59610
 H2112 H 0.41904 0.51707 0.56427
 C2113 C 0.43921 0.46249 -0.11716
 C2114 C 0.45000 0.46063 -0.14085
 C2115 C 0.43737 0.46317 -0.16295
 C2116 C 0.41410 0.46754 -0.16145
 C2117 C 0.40382 0.46795 -0.13748
 N2118 N 0.41648 0.46581 -0.11633
 C2119 C 0.45191 0.46466 -0.09313
 N2120 N 0.44217 0.47672 -0.07405
 C2121 C 0.45313 0.48224 -0.05231
 C2122 C 0.47560 0.47565 -0.04853
 C2123 C 0.48574 0.46223 -0.06752
 C2124 C 0.47396 0.45670 -0.08986
 H2125 H 0.44599 0.46289 -0.18108
 H2126 H 0.38584 0.47071 -0.13547
 H2127 H 0.44448 0.49286 -0.03866
 H2128 H 0.50306 0.45688 -0.06567
 H2129 H 0.46812 0.45866 -0.14240
 H2130 H 0.48223 0.44681 -0.10448
 C2131 C -0.06791 0.96940 0.38524
 C2132 C -0.05712 0.96692 0.36161
 C2133 C -0.06944 0.97024 0.33943
 C2134 C -0.09236 0.97605 0.34084
 C2135 C -0.10275 0.97693 0.36472
 N2136 N -0.09039 0.97401 0.38594
 C2137 C -0.05531 0.97096 0.40937
 N2138 N -0.06464 0.98347 0.42836
 C2139 C -0.05367 0.98845 0.45023
 C2140 C -0.03160 0.98078 0.45426
 C2141 C -0.02193 0.96690 0.43538
 C2142 C -0.03371 0.96197 0.41288
 H2143 H -0.06079 0.96950 0.32132
 H2144 H -0.12052 0.98081 0.36662
 H2145 H -0.06195 0.99941 0.46384
 H2146 H -0.00494 0.96069 0.43746
 H2147 H -0.03916 0.96388 0.36017
 H2148 H -0.02578 0.95170 0.39833
 C2149 C 0.06802 0.52250 0.38917
 C2150 C 0.08049 0.50309 0.38329
 C2151 C 0.09086 0.50093 0.35979
 C2152 C 0.08875 0.51788 0.34177
 C2153 C 0.07577 0.53692 0.34810
 N2154 N 0.06572 0.53869 0.37134
 C2155 C 0.05727 0.52494 0.41437
 N2156 N 0.03604 0.53337 0.41685
 C2157 C 0.02432 0.53248 0.43917
 C2158 C 0.03369 0.52192 0.46031
 C2159 C 0.05603 0.51429 0.45809
 C2160 C 0.06793 0.51629 0.43560
 H2161 H 0.10087 0.48609 0.35589
 H2162 H 0.07354 0.55025 0.33457
 H2163 H 0.00717 0.53856 0.43982
 H2164 H 0.06409 0.50531 0.47312
 H2165 H 0.08211 0.48954 0.39668
 H2166 H 0.08497 0.50989 0.43450
 C2167 C 0.56394 0.03746 -0.11148
 C2168 C 0.55210 0.03844 -0.13446
 C2169 C 0.56350 0.03408 -0.15724
 C2170 C 0.58657 0.02876 -0.15715
 C2171 C 0.59800 0.02935 -0.13393
 N2172 N 0.58650 0.03323 -0.11205
 C2173 C 0.55226 0.03678 -0.08667
 N2174 N 0.56228 0.02500 -0.06808
 C2175 C 0.55176 0.02015 -0.04597
 C2176 C 0.52941 0.02697 -0.04140
 C2177 C 0.51920 0.04046 -0.05966
 C2178 C 0.53055 0.04540 -0.08233
 H2179 H 0.55401 0.03366 -0.17475
 H2180 H 0.61591 0.02592 -0.13304
 H2181 H 0.56046 0.00947 -0.03292
 H2182 H 0.50200 0.04609 -0.05715
 H2183 H 0.53404 0.04105 -0.13488
 H2184 H 0.52210 0.05514 -0.09651
 C2185 C 0.62153 0.54050 -0.03410
 C2186 C 0.62656 0.56294 -0.04080
 C2187 C 0.64894 0.57080 -0.04068
 C2188 C 0.66643 0.55636 -0.03397
 C2189 C 0.66080 0.53362 -0.02883
 N2190 N 0.63875 0.52637 -0.02882
 C2191 C 0.59785 0.53298 -0.02988
 N2192 N 0.59068 0.51168 -0.03678
 C2193 C 0.56914 0.50400 -0.03213
 C2194 C 0.55357 0.51789 -0.01929
 C2195 C 0.56114 0.53968 -0.01158
 C2196 C 0.58295 0.54730 -0.01706
 H2197 H 0.65239 0.58851 -0.04455
 H2198 H 0.67384 0.52184 -0.02401
 H2199 H 0.56438 0.48692 -0.03805
 H2200 H 0.55060 0.55078 -0.00044
 H2201 H 0.61322 0.57453 -0.04524
 H2202 H 0.58839 0.56399 -0.01040
 C2203 C 0.11535 1.04141 0.46755
 C2204 C 0.12042 1.06385 0.46087
 C2205 C 0.14285 1.07156 0.46061
 C2206 C 0.16033 1.05697 0.46694
 C2207 C 0.15464 1.03420 0.47192
 N2208 N 0.13254 1.02711 0.47232
 C2209 C 0.09172 1.03418 0.47258
 N2210 N 0.08388 1.01323 0.46520
 C2211 C 0.06231 1.00591 0.47042
 C2212 C 0.04748 1.01982 0.48432
 C2213 C 0.05581 1.04116 0.49261
 C2214 C 0.07760 1.04844 0.48655
 H2215 H 0.14636 1.08928 0.45688
 H2216 H 0.16766 1.02231 0.47644
 H2217 H 0.05694 0.98916 0.46398
 H2218 H 0.04581 1.05224 0.50444
 H2219 H 0.10707 1.07557 0.45688
 H2220 H 0.08363 1.06483 0.49354
 C2221 C 0.11574 -0.03806 1.02513
 C2222 C 0.12079 -0.05803 1.03752
 C2223 C 0.14269 -0.06620 1.03646
 C2224 C 0.15986 -0.05485 1.02254
 C2225 C 0.15422 -0.03376 1.01207
 N2226 N 0.13258 -0.02627 1.01325
 C2227 C 0.09200 -0.03164 1.02187
 N2228 N 0.08527 -0.01010 1.02684
 C2229 C 0.06352 -0.00367 1.02299
 C2230 C 0.04731 -0.01919 1.01293
 C2231 C 0.05447 -0.04127 1.00714
 C2232 C 0.07649 -0.04761 1.01200
 H2233 H 0.14588 -0.08149 1.04671
 H2234 H 0.16630 -0.02394 1.00121
 H2235 H 0.05911 0.01369 1.02721
 H2236 H 0.04351 -0.05359 0.99780
 H2237 H 0.10770 -0.06755 1.04740
 H2238 H 0.08164 -0.06464 1.00707
 C2239 C 0.61435 0.45489 0.52632
 C2240 C 0.61842 0.43188 0.52961
 C2241 C 0.64050 0.42431 0.53009
 C2242 C 0.65915 0.43958 0.52784
 C2243 C 0.65407 0.46291 0.52665
 N2244 N 0.63220 0.46979 0.52561
 C2245 C 0.59118 0.46263 0.52130
 N2246 N 0.58453 0.48363 0.52901
 C2247 C 0.56348 0.49145 0.52388
 C2248 C 0.54789 0.47797 0.50986
 C2249 C 0.55487 0.45647 0.50152
 C2250 C 0.57622 0.44881 0.50718
 H2251 H 0.64234 0.40619 0.53059
 H2252 H 0.66723 0.47587 0.52640
 H2253 H 0.55911 0.50827 0.53045
 H2254 H 0.54420 0.44560 0.48979
 H2255 H 0.60460 0.41959 0.53090
 H2256 H 0.58118 0.43246 0.49970
 C2257 C -0.11802 0.47127 0.48803
 C2258 C -0.13206 0.47420 0.46698
 C2259 C -0.15454 0.46606 0.46777
 C2260 C -0.16300 0.45551 0.48962
 C2261 C -0.14847 0.45343 0.51033
 N2262 N -0.12668 0.46099 0.50890
 C2263 C -0.09367 0.47745 0.48811
 N2264 N -0.07989 0.46498 0.50260
 C2265 C -0.05754 0.46985 0.50532
 C2266 C -0.04755 0.48884 0.49359
 C2267 C -0.06142 0.50181 0.47807
 C2268 C -0.08446 0.49610 0.47516
 H2269 H -0.16523 0.46785 0.45136
 H2270 H -0.15414 0.44504 0.52736
 H2271 H -0.04785 0.45900 0.51723
 H2272 H -0.05465 0.51661 0.46859
 H2273 H -0.12560 0.48190 0.44989
 H2274 H -0.09503 0.50661 0.46372
 C2275 C 0.38089 -0.03314 -0.02699
 C2276 C 0.36294 -0.01829 -0.02268
 C2277 C 0.34076 -0.02702 -0.02146
 C2278 C 0.33648 -0.05037 -0.02493
 C2279 C 0.35484 -0.06440 -0.03023
 N2280 N 0.37625 -0.05563 -0.03067
 C2281 C 0.40480 -0.02576 -0.02440
 N2282 N 0.41945 -0.04069 -0.01465
 C2283 C 0.44146 -0.03526 -0.01009
 C2284 C 0.45026 -0.01352 -0.01553
 C2285 C 0.43544 0.00207 -0.02615
 C2286 C 0.41271 -0.00394 -0.03051
 H2287 H 0.32702 -0.01567 -0.01730
 H2288 H 0.35234 -0.08252 -0.03270
 H2289 H 0.45157 -0.04769 -0.00092
 H2290 H 0.44120 0.01910 -0.03053
 H2291 H 0.36605 -0.00041 -0.01899
 H2292 H 0.40152 0.00833 -0.03848
 C2293 C 0.37906 1.03708 0.51589
 C2294 C 0.35975 1.02387 0.52198
 C2295 C 0.33834 1.03364 0.52123
 C2296 C 0.33616 1.05644 0.51454
 C2297 C 0.35591 1.06895 0.50878
 N2298 N 0.37639 1.05909 0.50949
 C2299 C 0.40228 1.02808 0.51438
 N2300 N 0.41818 1.04105 0.50251
 C2301 C 0.43982 1.03455 0.49920
 C2302 C 0.44696 1.01354 0.50803
 C2303 C 0.43092 0.99990 0.52080
 C2304 C 0.40859 1.00709 0.52405
 H2305 H 0.32352 1.02339 0.52587
 H2306 H 0.35512 1.08641 0.50297
 H2307 H 0.45105 1.04565 0.48876
 H2308 H 0.43547 0.98354 0.52796
 H2309 H 0.36091 1.00619 0.52669
 H2310 H 0.39666 0.99628 0.53398
 C2311 C -0.11334 0.53837 1.01382
 C2312 C -0.13238 0.52512 1.02076
 C2313 C -0.15399 0.53449 1.01971
 C2314 C -0.15659 0.55695 1.01191
 C2315 C -0.13709 0.56947 1.00523
 N2316 N -0.11645 0.56000 1.00627
 C2317 C -0.08993 0.52982 1.01266
 N2318 N -0.07435 0.54271 1.00018
 C2319 C -0.05258 0.53662 0.99708
 C2320 C -0.04488 0.51614 1.00680
 C2321 C -0.06057 0.50260 1.02022
 C2322 C -0.08308 0.50936 1.02324
 H2323 H -0.16860 0.52424 1.02505
 H2324 H -0.13822 0.58664 0.99854
 H2325 H -0.04165 0.54762 0.98615
 H2326 H -0.05562 0.48660 1.02801
 H2327 H -0.13087 0.50771 1.02641
 H2328 H -0.09476 0.49863 1.03363
 C2329 C 0.01511 0.62655 0.53540
 C2330 C 0.00008 0.64282 0.52669
 C2331 C -0.00071 0.66404 0.53890
 C2332 C 0.01337 0.66907 0.55973
 C2333 C 0.02872 0.65264 0.56712
 N2334 N 0.02899 0.63211 0.55517
 C2335 C 0.01487 0.60274 0.52597
 N2336 N 0.02326 0.58688 0.54152
 C2337 C 0.02247 0.56444 0.53581
 C2338 C 0.01270 0.55641 0.51302
 C2339 C 0.00461 0.57251 0.49615
 C2340 C 0.00564 0.59568 0.50254
 H2341 H -0.01298 0.67613 0.53272
 H2342 H 0.04023 0.65592 0.58270
 H2343 H 0.02918 0.55292 0.54946
 H2344 H -0.00302 0.56721 0.47836
 H2345 H -0.01168 0.63900 0.51151
 H2346 H -0.00084 0.60774 0.48935
 C2347 C 0.50459 0.12016 0.04927
 C2348 C 0.50372 0.12259 0.07576
 C2349 C 0.50228 0.14404 0.08683
 C2350 C 0.50129 0.16331 0.07174
 C2351 C 0.50172 0.16020 0.04525
 N2352 N 0.50327 0.13899 0.03480
 C2353 C 0.50679 0.09742 0.03722
 N2354 N 0.49709 0.09260 0.01430
 C2355 C 0.49723 0.07135 0.00363
 C2356 C 0.50725 0.05341 0.01641
 C2357 C 0.51795 0.05849 0.03962
 C2358 C 0.51811 0.08031 0.04974
 H2359 H 0.50226 0.14552 0.10729
 H2360 H 0.50067 0.17458 0.03289
 H2361 H 0.48881 0.06835 -0.01431
 H2362 H 0.52608 0.04552 0.05038
 H2363 H 0.50396 0.10807 0.08798
 H2364 H 0.52679 0.08356 0.06747
 C2365 C -0.00843 0.11662 0.95949
 C2366 C -0.00507 0.13658 0.97405
 C2367 C -0.00560 0.15763 0.96223
 C2368 C -0.00961 0.15885 0.93608
 C2369 C -0.01292 0.13853 0.92236
 N2370 N -0.01226 0.11837 0.93421
 C2371 C -0.00815 0.09351 0.97006
 N2372 N -0.01511 0.07610 0.95463
 C2373 C -0.01476 0.05416 0.96162
 C2374 C -0.00691 0.04834 0.98570
 C2375 C 0.00021 0.06600 1.00218
 C2376 C -0.00037 0.08859 0.99447
 H2377 H -0.00319 0.17294 0.97357
 H2378 H -0.01565 0.13856 0.90211
 H2379 H -0.02063 0.04138 0.94814
 H2380 H 0.00660 0.06238 1.02081
 H2381 H -0.00233 0.13618 0.99425
 H2382 H 0.00571 0.10175 1.00734
 C2383 C 0.49467 0.61682 0.45954
 C2384 C 0.50930 0.63421 0.46850
 C2385 C 0.50986 0.65510 0.45629
 C2386 C 0.49593 0.65862 0.43527
 C2387 C 0.48095 0.64108 0.42768
 N2388 N 0.48092 0.62092 0.43960
 C2389 C 0.49508 0.59341 0.46903
 N2390 N 0.48802 0.57652 0.45299
 C2391 C 0.48828 0.55439 0.45920
 C2392 C 0.49583 0.54787 0.48318
 C2393 C 0.50288 0.56503 0.50034
 C2394 C 0.50260 0.58784 0.49334
 H2395 H 0.52182 0.66813 0.46264
 H2396 H 0.46952 0.64320 0.41198
 H2397 H 0.48240 0.54202 0.44526
 H2398 H 0.50878 0.56085 0.51904
 H2399 H 0.52089 0.63149 0.48390
 H2400 H 0.50800 0.60082 0.50683
 C2401 C 0.50401 0.87378 0.46362
 C2402 C 0.48626 0.85824 0.46843
 C2403 C 0.48616 0.83702 0.45626
 C2404 C 0.50386 0.83120 0.43971
 C2405 C 0.52176 0.84683 0.43637
 N2406 N 0.52118 0.86757 0.44786
 C2407 C 0.50329 0.89759 0.47249
 N2408 N 0.51229 0.91369 0.45715
 C2409 C 0.51149 0.93611 0.46287
 C2410 C 0.50141 0.94370 0.48559
 C2411 C 0.49233 0.92733 0.50200
 C2412 C 0.49313 0.90425 0.49547
 H2413 H 0.47206 0.82535 0.45932
 H2414 H 0.53562 0.84305 0.42360
 H2415 H 0.51886 0.94790 0.44955
 H2416 H 0.48438 0.93231 0.51968
 H2417 H 0.47205 0.86280 0.48034
 H2418 H 0.48602 0.89183 0.50826
 C2419 C 0.00854 0.37572 0.96501
 C2420 C -0.00928 0.36084 0.97168
 C2421 C -0.01094 0.33948 0.95995
 C2422 C 0.00524 0.33283 0.94189
 C2423 C 0.02334 0.34780 0.93667
 N2424 N 0.02427 0.36869 0.94784
 C2425 C 0.00922 0.39971 0.97346
 N2426 N 0.01824 0.41520 0.95737
 C2427 C 0.01836 0.43775 0.96254
 C2428 C 0.00916 0.44616 0.98537
 C2429 C 0.00021 0.43042 1.00262
 C2430 C 0.00015 0.40719 0.99671
 H2431 H -0.02514 0.32834 0.96452
 H2432 H 0.03605 0.34341 0.92272
 H2433 H 0.02560 0.44903 0.94860
 H2434 H -0.00709 0.43601 1.02041
 H2435 H -0.02244 0.36602 0.98473
 H2436 H -0.00692 0.39530 1.01014
 C2437 C 0.49936 0.37870 0.03051
 C2438 C 0.51797 0.36455 0.02688
 C2439 C 0.51870 0.34401 0.03971
 C2440 C 0.50081 0.33745 0.05579
 C2441 C 0.48224 0.35177 0.05819
 N2442 N 0.48216 0.37185 0.04602
 C2443 C 0.49889 0.40191 0.02043
 N2444 N 0.48805 0.41795 0.03435
 C2445 C 0.48772 0.43999 0.02762
 C2446 C 0.49862 0.44724 0.00534
 C2447 C 0.50946 0.43084 -0.00974
 C2448 C 0.50970 0.40817 -0.00223
 H2449 H 0.53331 0.33340 0.03733
 H2450 H 0.46822 0.34749 0.07061
 H2451 H 0.47925 0.45184 0.04008
 H2452 H 0.51823 0.43555 -0.02696
 H2453 H 0.53223 0.36968 0.01523
 H2454 H 0.51827 0.39580 -0.01395
 C2455 C -0.01125 0.88196 0.53157
 C2456 C -0.03008 0.87169 0.54338
 C2457 C -0.02771 0.85102 0.55534
 C2458 C -0.00665 0.84047 0.55555
 C2459 C 0.01145 0.85069 0.54230
 N2460 N 0.00879 0.87100 0.53094
 C2461 C -0.01221 0.90549 0.52263
 N2462 N -0.00044 0.91203 0.50163
 C2463 C 0.00044 0.93401 0.49403
 C2464 C -0.01034 0.95098 0.50838
 C2465 C -0.02222 0.94434 0.53028
 C2466 C -0.02350 0.92178 0.53715
 H2467 H -0.04210 0.84381 0.56538
 H2468 H 0.02784 0.84284 0.54155
 H2469 H 0.01018 0.93828 0.47731
 H2470 H -0.03032 0.95663 0.54255
 H2471 H -0.04629 0.87991 0.54402
 H2472 H -0.03233 0.91733 0.55444
 C2473 C 0.21669 0.31295 0.14253
 C2474 C 0.22152 0.30094 0.12007
 C2475 C 0.22446 0.31275 0.09752
 C2476 C 0.22230 0.33644 0.09724
 C2477 C 0.21582 0.34746 0.11986
 N2478 N 0.21379 0.33572 0.14167
 C2479 C 0.21878 0.30240 0.16750
 N2480 N 0.22949 0.31462 0.18604
 C2481 C 0.23493 0.30563 0.20858
 C2482 C 0.22949 0.28284 0.21382
 C2483 C 0.21750 0.27015 0.19526
 C2484 C 0.21225 0.27982 0.17202
 H2485 H 0.22967 0.30348 0.08070
 H2486 H 0.21318 0.36554 0.12050
 H2487 H 0.24468 0.31610 0.22170
 H2488 H 0.21319 0.25246 0.19811
 H2489 H 0.22459 0.28292 0.12024
 H2490 H 0.20372 0.26964 0.15758
 C2491 C 0.71332 0.80832 0.63657
 C2492 C 0.70373 0.82974 0.63480
 C2493 C 0.70610 0.84176 0.61244
 C2494 C 0.71824 0.83261 0.59188
 C2495 C 0.72599 0.81032 0.59379
 N2496 N 0.72374 0.79904 0.61596
 C2497 C 0.71658 0.79824 0.66154
 N2498 N 0.71171 0.77592 0.66557
 C2499 C 0.71720 0.76570 0.68764
 C2500 C 0.72927 0.77784 0.70662
 C2501 C 0.73458 0.80080 0.70223
 C2502 C 0.72776 0.81110 0.68024
 H2503 H 0.69922 0.85859 0.61161
 H2504 H 0.73529 0.80250 0.57839
 H2505 H 0.71325 0.74784 0.68971
 H2506 H 0.74496 0.81079 0.71522
 H2507 H 0.69555 0.83755 0.65103
 H2508 H 0.73261 0.82865 0.67710
 C2509 C 0.28658 0.68096 0.63795
 C2510 C 0.29088 0.65775 0.63536
 C2511 C 0.28937 0.64727 0.61159
 C2512 C 0.28369 0.65986 0.59031
 C2513 C 0.28112 0.68337 0.59345
 N2514 N 0.28235 0.69318 0.61692
 C2515 C 0.28323 0.69144 0.66321
 N2516 N 0.28958 0.71345 0.66783
 C2517 C 0.28452 0.72437 0.69005
 C2518 C 0.27160 0.71329 0.70878
 C2519 C 0.26472 0.69067 0.70389
 C2520 C 0.27086 0.67965 0.68159
 H2521 H 0.29139 0.62910 0.61014
 H2522 H 0.27725 0.69378 0.57741
 H2523 H 0.28964 0.74197 0.69247
 H2524 H 0.25383 0.68152 0.71687
 H2525 H 0.29440 0.64761 0.65174
 H2526 H 0.26470 0.66247 0.67812
 C2527 C 0.78704 0.19069 0.13758
 C2528 C 0.77465 0.20036 0.11820
 C2529 C 0.77094 0.18814 0.09571
 C2530 C 0.78018 0.16649 0.09207
 C2531 C 0.79389 0.15824 0.11153
 N2532 N 0.79638 0.17005 0.13372
 C2533 C 0.78648 0.20085 0.16317
 N2534 N 0.79209 0.22312 0.16704
 C2535 C 0.78810 0.23398 0.18953
 C2536 C 0.77654 0.22270 0.20918
 C2537 C 0.77098 0.19958 0.20532
 C2538 C 0.77652 0.18852 0.18276
 H2539 H 0.75986 0.19532 0.08188
 H2540 H 0.80217 0.14215 0.10956
 H2541 H 0.79245 0.25184 0.19125
 H2542 H 0.76098 0.19022 0.21893
 H2543 H 0.76655 0.21650 0.12114
 H2544 H 0.77124 0.17098 0.17981
 C2545 C 0.71494 0.18871 0.86611
 C2546 C 0.72142 0.20033 0.88843
 C2547 C 0.72555 0.18807 0.91028
 C2548 C 0.72266 0.16443 0.91004
 C2549 C 0.71503 0.15360 0.88775
 N2550 N 0.71195 0.16577 0.86646
 C2551 C 0.71521 0.20021 0.84154
 N2552 N 0.72537 0.18962 0.82166
 C2553 C 0.72931 0.19999 0.79932
 C2554 C 0.72288 0.22256 0.79578
 C2555 C 0.71131 0.23344 0.81575
 C2556 C 0.70760 0.22239 0.83870
 H2557 H 0.73150 0.19693 0.92719
 H2558 H 0.71273 0.13535 0.88690
 H2559 H 0.73882 0.19090 0.78504
 H2560 H 0.70624 0.25088 0.81421
 H2561 H 0.72462 0.21847 0.88856
 H2562 H 0.69949 0.23127 0.85426
 C2563 C 0.21718 0.69462 0.36901
 C2564 C 0.22115 0.70526 0.39259
 C2565 C 0.22474 0.69196 0.41384
 C2566 C 0.22387 0.66821 0.41165
 C2567 C 0.21856 0.65834 0.38803
 N2568 N 0.21593 0.67158 0.36751
 C2569 C 0.21848 0.70734 0.34524
 N2570 N 0.22992 0.69778 0.32562
 C2571 C 0.23433 0.70886 0.30388
 C2572 C 0.22687 0.73112 0.30053
 C2573 C 0.21429 0.74110 0.32030
 C2574 C 0.21020 0.72932 0.34278
 H2575 H 0.22875 0.70017 0.43181
 H2576 H 0.21787 0.64010 0.38552
 H2577 H 0.24470 0.70048 0.28983
 H2578 H 0.20851 0.75832 0.31891
 H2579 H 0.22292 0.72352 0.39429
 H2580 H 0.20108 0.73742 0.35815
 C2581 C 0.78147 0.81552 0.36236
 C2582 C 0.78436 0.80489 0.38573
 C2583 C 0.78064 0.81714 0.40824
 C2584 C 0.77401 0.83983 0.40748
 C2585 C 0.77254 0.85009 0.38381
 N2586 N 0.77593 0.83779 0.36225
 C2587 C 0.78080 0.80285 0.33792
 N2588 N 0.76887 0.81199 0.31884
 C2589 C 0.76463 0.80080 0.29674
 C2590 C 0.77239 0.77866 0.29265
 C2591 C 0.78578 0.76925 0.31157
 C2592 C 0.79007 0.78128 0.33422
 H2593 H 0.78181 0.80856 0.42613
 H2594 H 0.76799 0.86769 0.38238
 H2595 H 0.75408 0.80891 0.28304
 H2596 H 0.79207 0.75222 0.30945
 H2597 H 0.78813 0.78709 0.38679
 H2598 H 0.79999 0.77349 0.34873
 C2599 C 0.28074 0.30721 0.86637
 C2600 C 0.28267 0.29680 0.89000
 C2601 C 0.27941 0.30964 0.91221
 C2602 C 0.27420 0.33270 0.91088
 C2603 C 0.27370 0.34264 0.88698
 N2604 N 0.27659 0.32980 0.86573
 C2605 C 0.27950 0.29420 0.84219
 N2606 N 0.26799 0.30360 0.82297
 C2607 C 0.26324 0.29231 0.80107
 C2608 C 0.27004 0.26979 0.79729
 C2609 C 0.28296 0.26003 0.81641
 C2610 C 0.28776 0.27217 0.83887
 H2611 H 0.27984 0.30130 0.93031
 H2612 H 0.27029 0.36048 0.88511
 H2613 H 0.25291 0.30067 0.78736
 H2614 H 0.28841 0.24268 0.81460
 H2615 H 0.28532 0.27880 0.89145
 H2616 H 0.29726 0.26413 0.85357
 C2617 C 0.78413 0.36993 0.77614
 C2618 C 0.77054 0.38837 0.78293
 C2619 C 0.78000 0.41036 0.78311
 C2620 C 0.80290 0.41397 0.77666
 C2621 C 0.81583 0.39501 0.77034
 N2622 N 0.80625 0.37396 0.77010
 C2623 C 0.77539 0.34630 0.77331
 N2624 N 0.78839 0.33156 0.76001
 C2625 C 0.78207 0.30970 0.75554
 C2626 C 0.76126 0.30110 0.76464
 C2627 C 0.74759 0.31593 0.77882
 C2628 C 0.75457 0.33851 0.78322
 H2629 H 0.76941 0.42451 0.78813
 H2630 H 0.83339 0.39690 0.76468
 H2631 H 0.79319 0.29941 0.74414
 H2632 H 0.73140 0.31023 0.78629
 H2633 H 0.75276 0.38610 0.78735
 H2634 H 0.74379 0.34949 0.79427
 C2635 C 0.28062 0.88120 0.27770
 C2636 C 0.26802 0.89802 0.26642
 C2637 C 0.27742 0.91983 0.26417
 C2638 C 0.29932 0.92528 0.27368
 C2639 C 0.31039 0.90789 0.28671
 N2640 N 0.30125 0.88661 0.28752
 C2641 C 0.27370 0.85719 0.27549
 N2642 N 0.28834 0.84265 0.26436
 C2643 C 0.28309 0.82042 0.26041
 C2644 C 0.26211 0.81124 0.26842
 C2645 C 0.24672 0.82611 0.28006
 C2646 C 0.25237 0.84915 0.28337
 H2647 H 0.26713 0.93233 0.25525
 H2648 H 0.32731 0.91018 0.29411
 H2649 H 0.29521 0.81023 0.25029
 H2650 H 0.23017 0.82011 0.28616
 H2651 H 0.25159 0.89405 0.25825
 H2652 H 0.24033 0.86051 0.29204
 C2653 C 0.21417 0.85835 0.73323
 C2654 C 0.22094 0.87580 0.75020
 C2655 C 0.21086 0.89689 0.74909
 C2656 C 0.19391 0.90082 0.73127
 C2657 C 0.18779 0.88306 0.71443
 N2658 N 0.19781 0.86256 0.71593
 C2659 C 0.22301 0.83506 0.73502
 N2660 N 0.21071 0.81734 0.72498
 C2661 C 0.21665 0.79538 0.72797
 C2662 C 0.23552 0.79014 0.74271
 C2663 C 0.24950 0.80829 0.75125
 C2664 C 0.24333 0.83062 0.74751
 H2665 H 0.21570 0.90984 0.76291
 H2666 H 0.17489 0.88537 0.70027
 H2667 H 0.20634 0.78214 0.71920
 H2668 H 0.26489 0.80538 0.76164
 H2669 H 0.23315 0.87313 0.76497
 H2670 H 0.25435 0.84409 0.75464
 C2671 C 0.71541 0.36788 0.22425
 C2672 C 0.72920 0.38682 0.21849
 C2673 C 0.71956 0.40830 0.21767
 C2674 C 0.69630 0.41087 0.22243
 C2675 C 0.68316 0.39138 0.22747
 N2676 N 0.69293 0.37087 0.22844
 C2677 C 0.72423 0.34496 0.22830
 N2678 N 0.71090 0.33046 0.24169
 C2679 C 0.71706 0.30917 0.24707
 C2680 C 0.73800 0.30085 0.23874
 C2681 C 0.75212 0.31546 0.22462
 C2682 C 0.74533 0.33754 0.21937
 H2683 H 0.73032 0.42289 0.21364
 H2684 H 0.66529 0.39246 0.23177
 H2685 H 0.70553 0.29903 0.25829
 H2686 H 0.76840 0.30992 0.21771
 H2687 H 0.74724 0.38533 0.21555
 H2688 H 0.75637 0.34841 0.20831
 C2689 C 0.71620 0.62961 0.27574
 C2690 C 0.69515 0.62353 0.28623
 C2691 C 0.68782 0.60095 0.28528
 C2692 C 0.70133 0.58449 0.27363
 C2693 C 0.72282 0.59109 0.26455
 N2694 N 0.72961 0.61327 0.26565
 C2695 C 0.72230 0.65363 0.27215
 N2696 N 0.74303 0.66204 0.27910
 C2697 C 0.74942 0.68399 0.27486
 C2698 C 0.73481 0.69862 0.26230
 C2699 C 0.71366 0.68972 0.25444
 C2700 C 0.70723 0.66754 0.25974
 H2701 H 0.67104 0.59659 0.29225
 H2702 H 0.73377 0.57879 0.25566
 H2703 H 0.76610 0.68976 0.28080
 H2704 H 0.70219 0.69953 0.24340
 H2705 H 0.68412 0.63630 0.29411
 H2706 H 0.69095 0.66100 0.25324
 C2707 C 0.21014 0.12071 0.77730
 C2708 C 0.22470 0.10295 0.77103
 C2709 C 0.21595 0.08079 0.76897
 C2710 C 0.19289 0.07632 0.77364
 C2711 C 0.17915 0.09443 0.78086
 N2712 N 0.18789 0.11589 0.78201
 C2713 C 0.21754 0.14470 0.77580
 N2714 N 0.20272 0.15973 0.76657
 C2715 C 0.20838 0.18181 0.76285
 C2716 C 0.23025 0.19025 0.76867
 C2717 C 0.24571 0.17502 0.77882
 C2718 C 0.23947 0.15226 0.78228
 H2719 H 0.22704 0.06723 0.76326
 H2720 H 0.16123 0.09170 0.78434
 H2721 H 0.19605 0.19219 0.75390
 H2722 H 0.26284 0.18045 0.78341
 H2723 H 0.24234 0.10626 0.76650
 H2724 H 0.25167 0.14072 0.78979
 C2725 C 0.29825 0.14358 0.23075
 C2726 C 0.32158 0.13955 0.23066
 C2727 C 0.32920 0.11749 0.22853
 C2728 C 0.31379 0.09918 0.22565
 C2729 C 0.29059 0.10406 0.22423
 N2730 N 0.28349 0.12580 0.22701
 C2731 C 0.28958 0.16656 0.23621
 N2732 N 0.26891 0.17264 0.22750
 C2733 C 0.26019 0.19349 0.23250
 C2734 C 0.27241 0.20960 0.24725
 C2735 C 0.29359 0.20328 0.25655
 C2736 C 0.30207 0.18200 0.25129
 H2737 H 0.34721 0.11487 0.23011
 H2738 H 0.27807 0.09063 0.22140
 H2739 H 0.24374 0.19738 0.22499
 H2740 H 0.30368 0.21459 0.26843
 H2741 H 0.33397 0.15321 0.23267
 H2742 H 0.31805 0.17764 0.25963
 C2743 C 0.79101 0.63480 0.72606
 C2744 C 0.81311 0.62946 0.71859
 C2745 C 0.81988 0.60701 0.71884
 C2746 C 0.80472 0.58983 0.72655
 C2747 C 0.78239 0.59573 0.73260
 N2748 N 0.77618 0.61782 0.73234
 C2749 C 0.78444 0.65862 0.72959
 N2750 N 0.76329 0.66523 0.72327
 C2751 C 0.75632 0.68688 0.72728
 C2752 C 0.77084 0.70319 0.73885
 C2753 C 0.79250 0.69625 0.74599
 C2754 C 0.79941 0.67426 0.74112
 H2755 H 0.83731 0.60328 0.71424
 H2756 H 0.77012 0.58290 0.73830
 H2757 H 0.73932 0.69113 0.72183
 H2758 H 0.80405 0.70752 0.75611
 H2759 H 0.82522 0.64261 0.71333
 H2760 H 0.81603 0.66930 0.74727
 C2761 C 0.87217 0.75468 0.21233
 C2762 C 0.89111 0.74674 0.22510
 C2763 C 0.91190 0.74527 0.21239
 C2764 C 0.91423 0.75151 0.18664
 C2765 C 0.89459 0.75995 0.17508
 N2766 N 0.87475 0.76121 0.18795
 C2767 C 0.84912 0.75594 0.22359
 N2768 N 0.83298 0.76591 0.20961
 C2769 C 0.81093 0.76639 0.21666
 C2770 C 0.80357 0.75611 0.23915
 C2771 C 0.81999 0.74624 0.25441
 C2772 C 0.84277 0.74612 0.24675
 H2773 H 0.92561 0.73805 0.22279
 H2774 H 0.89477 0.76659 0.15618
 H2775 H 0.79913 0.77423 0.20407
 H2776 H 0.81517 0.73786 0.27175
 H2777 H 0.89009 0.74149 0.24458
 H2778 H 0.85483 0.73768 0.25846
 C2779 C 0.36779 0.25089 0.71639
 C2780 C 0.38499 0.23638 0.72391
 C2781 C 0.40580 0.23682 0.71109
 C2782 C 0.40951 0.25164 0.69083
 C2783 C 0.39213 0.26637 0.68460
 N2784 N 0.37203 0.26545 0.69713
 C2785 C 0.34444 0.24963 0.72673
 N2786 N 0.32760 0.25754 0.71208
 C2787 C 0.30552 0.25640 0.71897
 C2788 C 0.29893 0.24691 0.74221
 C2789 C 0.31605 0.23900 0.75801
 C2790 C 0.33882 0.24031 0.75035
 H2791 H 0.41863 0.22497 0.71636
 H2792 H 0.39435 0.27842 0.66953
 H2793 H 0.29318 0.26290 0.70604
 H2794 H 0.31186 0.23151 0.77604
 H2795 H 0.38220 0.22414 0.73867
 H2796 H 0.35171 0.23416 0.76282
 C2797 C 0.37185 0.73455 0.78555
 C2798 C 0.38848 0.74984 0.77650
 C2799 C 0.40964 0.75126 0.78831
 C2800 C 0.41424 0.73764 0.80913
 C2801 C 0.39747 0.72208 0.81696
 N2802 N 0.37702 0.72112 0.80533
 C2803 C 0.34818 0.73383 0.77622
 N2804 N 0.33215 0.72399 0.79122
 C2805 C 0.30980 0.72374 0.78549
 C2806 C 0.30214 0.73401 0.76337
 C2807 C 0.31843 0.74366 0.74711
 C2808 C 0.34144 0.74354 0.75338
 H2809 H 0.42204 0.76366 0.78183
 H2810 H 0.40043 0.71094 0.83263
 H2811 H 0.29807 0.71588 0.79863
 H2812 H 0.31343 0.75177 0.72985
 H2813 H 0.38507 0.76127 0.76128
 H2814 H 0.35358 0.75115 0.74054
 C2815 C 0.87259 0.24021 0.29145
 C2816 C 0.87960 0.22316 0.30774
 C2817 C 0.90064 0.22510 0.31939
 C2818 C 0.91500 0.24373 0.31455
 C2819 C 0.90815 0.25955 0.29668
 N2820 N 0.88723 0.25762 0.28596
 C2821 C 0.84892 0.24061 0.28233
 N2822 N 0.84389 0.24993 0.25962
 C2823 C 0.82213 0.25154 0.25129
 C2824 C 0.80393 0.24394 0.26642
 C2825 C 0.80902 0.23459 0.29000
 C2826 C 0.83125 0.23280 0.29786
 H2827 H 0.90557 0.21224 0.33256
 H2828 H 0.91891 0.27404 0.29227
 H2829 H 0.81908 0.25908 0.23312
 H2830 H 0.79584 0.22857 0.30264
 H2831 H 0.86872 0.20871 0.31195
 H2832 H 0.83443 0.22606 0.31641
 C2833 C 0.13136 0.26538 0.29156
 C2834 C 0.12197 0.28470 0.30298
 C2835 C 0.10052 0.28324 0.31398
 C2836 C 0.08833 0.26259 0.31363
 C2837 C 0.09778 0.24399 0.30072
 N2838 N 0.11886 0.24576 0.29030
 C2839 C 0.15537 0.26543 0.28364
 N2840 N 0.16205 0.25377 0.26249
 C2841 C 0.18427 0.25267 0.25540
 C2842 C 0.20122 0.26324 0.27036
 C2843 C 0.19441 0.27482 0.29254
 C2844 C 0.17170 0.27620 0.29898
 H2845 H 0.09395 0.29799 0.32378
 H2846 H 0.08869 0.22789 0.29956
 H2847 H 0.18865 0.24326 0.23839
 H2848 H 0.20662 0.28304 0.30507
 H2849 H 0.13144 0.30060 0.30408
 H2850 H 0.16705 0.28500 0.31633
 C2851 C 0.63204 0.75936 0.78573
 C2852 C 0.62255 0.77865 0.79710
 C2853 C 0.60097 0.77715 0.80784
 C2854 C 0.58885 0.75646 0.80737
 C2855 C 0.59849 0.73784 0.79470
 N2856 N 0.61962 0.73969 0.78443
 C2857 C 0.65598 0.75956 0.77756
 N2858 N 0.66245 0.74818 0.75614
 C2859 C 0.68456 0.74723 0.74869
 C2860 C 0.70168 0.75765 0.76354
 C2861 C 0.69514 0.76897 0.78598
 C2862 C 0.67248 0.77023 0.79279
 H2863 H 0.59421 0.79188 0.81748
 H2864 H 0.58947 0.72170 0.79356
 H2865 H 0.68874 0.73804 0.73146
 H2866 H 0.70752 0.77706 0.79839
 H2867 H 0.63197 0.79457 0.79825
 H2868 H 0.66798 0.77885 0.81030
 C2869 C 0.62303 0.24273 0.71753
 C2870 C 0.60901 0.26141 0.72133
 C2871 C 0.58840 0.26219 0.70845
 C2872 C 0.58161 0.24429 0.69215
 C2873 C 0.59575 0.22558 0.68966
 N2874 N 0.61595 0.22546 0.70186
 C2875 C 0.64640 0.24243 0.72747
 N2876 N 0.66236 0.23192 0.71321
 C2877 C 0.68455 0.23213 0.71966
 C2878 C 0.69206 0.24331 0.74194
 C2879 C 0.67573 0.25369 0.75743
 C2880 C 0.65290 0.25336 0.75023
 H2881 H 0.57792 0.27691 0.71092
 H2882 H 0.59123 0.21152 0.67712
 H2883 H 0.69632 0.22391 0.70693
 H2884 H 0.68061 0.26259 0.77471
 H2885 H 0.61432 0.27573 0.73309
 H2886 H 0.64059 0.26167 0.76223
 C2887 C 0.12667 0.74685 0.22190
 C2888 C 0.11213 0.76523 0.22489
 C2889 C 0.09167 0.76514 0.21166
 C2890 C 0.08555 0.74666 0.19587
 C2891 C 0.10012 0.72823 0.19429
 N2892 N 0.12020 0.72898 0.20677
 C2893 C 0.15000 0.74761 0.23189
 N2894 N 0.16642 0.73776 0.21771
 C2895 C 0.18858 0.73901 0.22417
 C2896 C 0.19557 0.75062 0.24639
 C2897 C 0.17878 0.76037 0.26179
 C2898 C 0.15599 0.75899 0.25455
 H2899 H 0.08082 0.77966 0.21337
 H2900 H 0.09609 0.71375 0.18217
 H2901 H 0.20072 0.73125 0.21152
 H2902 H 0.18326 0.76956 0.27901
 H2903 H 0.11698 0.77999 0.23621
 H2904 H 0.14329 0.76684 0.26642
   
