data_POSCAR
  _audit_creation_date              2014-09-24
  _audit_creation_method            'ToBaCCo'
  _symmetry_space_group_name_H-M    'P1'
  _symmetry_Int_Tables_number       1
  _symmetry_cell_setting            triclinic
  loop_
  _symmetry_equiv_pos_as_xyz
 x,y,z
_cell_length_a 47.5114
_cell_length_b 47.5811
_cell_length_c 47.6596
_cell_angle_alpha 90.043000
_cell_angle_beta 90.051300
_cell_angle_gamma 89.906700
loop_
  _atom_site_label
  _atom_site_type_symbol
  _atom_site_fract_x
  _atom_site_fract_y
  _atom_site_fract_z
C1 C 0.23584 0.99489 -0.01102
 C2 C 0.23652 0.99593 0.01754
 C3 C 0.23634 0.96970 0.03445
 C4 C 0.23761 1.02275 0.03383
 C5 C 0.23455 1.02022 -0.02912
 C6 C 0.23716 0.96787 -0.02662
 C7 C 0.21467 0.96548 0.05390
 C8 C 0.21446 0.94158 0.07081
 C9 C 0.23591 0.92134 0.06861
 C10 C 0.25764 0.92552 0.04900
 C11 C 0.25794 0.94963 0.03219
 C12 C 0.21934 1.04534 0.02852
 C13 C 0.22048 1.06979 0.04492
 C14 C 0.23924 1.07197 0.06801
 C15 C 0.25694 1.04865 0.07341
 C16 C 0.25635 1.02478 0.05645
 C17 C 0.25581 1.04068 -0.02872
 C18 C 0.25601 1.06210 -0.04889
 C19 C 0.23538 1.06289 -0.07007
 C20 C 0.21371 1.04289 -0.06981
 C21 C 0.21332 1.02182 -0.04954
 C22 C 0.21631 0.94716 -0.02374
 C23 C 0.21696 0.92305 -0.04061
 C24 C 0.23818 0.91964 -0.06090
 C25 C 0.25912 0.94024 -0.06338
 C26 C 0.25867 0.96402 -0.04636
 H27 H 0.19794 0.98082 0.05605
 H28 H 0.19750 0.93900 0.08576
 H29 H 0.27488 0.91073 0.04730
 H30 H 0.27520 0.95285 0.01773
 H31 H 0.20374 1.04394 0.01202
 H32 H 0.20541 1.08602 0.03992
 H33 H 0.27060 1.00764 0.06122
 H34 H 0.27268 1.03951 -0.01348
 H35 H 0.27290 1.07735 -0.04864
 H36 H 0.19716 1.04338 -0.08543
 H37 H 0.19678 1.00619 -0.05024
 H38 H 0.19919 0.95004 -0.00902
 H39 H 0.20026 0.90774 -0.03862
 H40 H 0.27574 0.93811 -0.07880
 H41 H 0.27487 0.97980 -0.04898
 H42 H 0.27191 1.04874 0.09057
 C43 C 0.74108 0.49451 0.47824
 C44 C 0.74433 0.49587 0.50651
 C45 C 0.74771 0.47037 0.52423
 C46 C 0.74333 0.52295 0.52162
 C47 C 0.73812 0.52006 0.46050
 C48 C 0.74066 0.46731 0.46311
 C49 C 0.72987 0.46659 0.54734
 C50 C 0.73310 0.44342 0.56490
 C51 C 0.75412 0.42333 0.55967
 C52 C 0.77195 0.42690 0.53642
 C53 C 0.76894 0.45042 0.51899
 C54 C 0.71752 0.53650 0.52629
 C55 C 0.71614 0.55970 0.54425
 C56 C 0.74066 0.56992 0.55716
 C57 C 0.76664 0.55720 0.55127
 C58 C 0.76789 0.53354 0.53399
 C59 C 0.75875 0.54117 0.46049
 C60 C 0.75737 0.56323 0.44113
 C61 C 0.73575 0.56417 0.42101
 C62 C 0.71472 0.54345 0.42157
 C63 C 0.71592 0.52164 0.44110
 C64 C 0.75984 0.46291 0.44127
 C65 C 0.75862 0.43850 0.42524
 C66 C 0.73815 0.41794 0.43068
 C67 C 0.71928 0.42201 0.45304
 C68 C 0.72044 0.44664 0.46906
 H69 H 0.71334 0.48162 0.55185
 H70 H 0.71905 0.44118 0.58264
 H71 H 0.78873 0.41206 0.53224
 H72 H 0.78339 0.45324 0.50167
 H73 H 0.69837 0.52831 0.51706
 H74 H 0.69592 0.56932 0.54851
 H75 H 0.78789 0.52308 0.53072
 H76 H 0.77652 0.53999 0.47467
 H77 H 0.77390 0.57888 0.44108
 H78 H 0.69746 0.54393 0.40673
 H79 H 0.69983 0.50554 0.44067
 H80 H 0.77555 0.47864 0.43637
 H81 H 0.77347 0.43590 0.40819
 H82 H 0.70291 0.40683 0.45737
 H83 H 0.70514 0.44995 0.48557
 H84 H 0.78573 0.56470 0.56119
 C85 C 0.76011 0.97976 0.99189
 C86 C 0.75674 1.00817 0.99360
 C87 C 0.75498 1.02337 1.02088
 C88 C 0.75484 1.02611 0.96801
 C89 C 0.76037 0.96478 0.96450
 C90 C 0.76339 0.96127 1.01693
 C91 C 0.73235 1.04179 1.02541
 C92 C 0.73108 1.05822 1.04961
 C93 C 0.75234 1.05657 1.07003
 C94 C 0.77481 1.03770 1.06585
 C95 C 0.77624 1.02140 1.04134
 C96 C 0.73435 1.02160 0.94717
 C97 C 0.73278 1.03932 0.92372
 C98 C 0.75131 1.06220 0.92103
 C99 C 0.77151 1.06677 0.94209
 C100 C 0.77330 1.04891 0.96522
 C101 C 0.78085 0.97026 0.94398
 C102 C 0.78207 0.95388 0.91955
 C103 C 0.76310 0.93153 0.91557
 C104 C 0.74249 0.92645 0.93603
 C105 C 0.74110 0.94292 0.96016
 C106 C 0.78512 0.94130 1.01700
 C107 C 0.78680 0.92093 1.03793
 C108 C 0.76684 0.92001 1.05982
 C109 C 0.74593 0.94118 1.06051
 C110 C 0.74385 0.96115 1.03900
 H111 H 0.71578 1.04376 1.00990
 H112 H 0.71351 1.07252 1.05222
 H113 H 0.79182 1.03636 1.08091
 H114 H 0.79425 1.00783 1.03801
 H115 H 0.71937 1.00460 0.94923
 H116 H 0.71656 1.03562 0.90820
 H117 H 0.78914 1.05292 0.98108
 H118 H 0.79630 0.98665 0.94723
 H119 H 0.79852 0.95798 0.90441
 H120 H 0.72755 0.90946 0.93351
 H121 H 0.72526 0.93827 0.97581
 H122 H 0.80063 0.94111 1.00035
 H123 H 0.80429 0.90643 1.03693
 H124 H 0.73015 0.94151 1.07690
 H125 H 0.72648 0.97591 1.03916
 H126 H 0.78605 1.08422 0.94064
 C127 C 0.25104 0.50930 0.50393
 C128 C 0.25265 0.48084 0.50285
 C129 C 0.25744 0.46349 0.52824
 C130 C 0.24981 0.46463 0.47642
 C131 C 0.24844 0.52689 0.47832
 C132 C 0.25181 0.52448 0.53110
 C133 C 0.28073 0.44534 0.52892
 C134 C 0.28345 0.42539 0.55018
 C135 C 0.26290 0.42327 0.57120
 C136 C 0.24019 0.44225 0.57121
 C137 C 0.23727 0.46198 0.54966
 C138 C 0.27001 0.46626 0.45499
 C139 C 0.26944 0.44701 0.43268
 C140 C 0.24894 0.42572 0.43184
 C141 C 0.22789 0.42531 0.45252
 C142 C 0.22842 0.44447 0.47460
 C143 C 0.22660 0.52284 0.45879
 C144 C 0.22424 0.54035 0.43527
 C145 C 0.24338 0.56250 0.43123
 C146 C 0.26504 0.56651 0.45087
 C147 C 0.26760 0.54886 0.47404
 C148 C 0.22651 0.53329 0.54346
 C149 C 0.22679 0.54917 0.56813
 C150 C 0.25243 0.55727 0.58033
 C151 C 0.27778 0.54848 0.56794
 C152 C 0.27747 0.53179 0.54371
 H153 H 0.29639 0.44605 0.51242
 H154 H 0.30145 0.41141 0.54996
 H155 H 0.22402 0.44094 0.58716
 H156 H 0.21867 0.47510 0.54904
 H157 H 0.28687 0.48149 0.45624
 H158 H 0.28582 0.44784 0.41692
 H159 H 0.21263 0.44294 0.49092
 H160 H 0.21112 0.50649 0.46200
 H161 H 0.20696 0.53713 0.42082
 H162 H 0.28011 0.58337 0.44827
 H163 H 0.28463 0.55245 0.48870
 H164 H 0.20655 0.52803 0.53380
 H165 H 0.20701 0.55607 0.57710
 H166 H 0.29777 0.55467 0.57695
 H167 H 0.29718 0.52528 0.53431
 H168 H 0.21135 0.40968 0.45202
 C169 C 0.99854 0.23991 0.02193
 C170 C 1.00031 0.24278 -0.00643
 C171 C 0.97476 0.24540 -0.02427
 C172 C 1.02763 0.24330 -0.02169
 C173 C 1.02379 0.23785 0.04030
 C174 C 0.97096 0.23910 0.03663
 C175 C 0.97179 0.22765 -0.04748
 C176 C 0.94891 0.23048 -0.06549
 C177 C 0.92788 0.25090 -0.06058
 C178 C 0.93091 0.26862 -0.03695
 C179 C 0.95433 0.26616 -0.01932
 C180 C 1.04797 0.22214 -0.01826
 C181 C 1.07264 0.22230 -0.03432
 C182 C 1.07709 0.24318 -0.05495
 C183 C 1.05636 0.26421 -0.05817
 C184 C 1.03223 0.26438 -0.04164
 C185 C 1.04574 0.25753 0.03905
 C186 C 1.06833 0.25590 0.05785
 C187 C 1.06876 0.23543 0.07926
 C188 C 1.04681 0.21549 0.07993
 C189 C 1.02479 0.21668 0.06068
 C190 C 0.96595 0.25815 0.05850
 C191 C 0.94091 0.25712 0.07362
 C192 C 0.92021 0.23711 0.06712
 C193 C 0.92501 0.21816 0.04497
 C194 C 0.95035 0.21898 0.03000
 H195 H 0.98740 0.21159 -0.05179
 H196 H 0.94767 0.21621 -0.08316
 H197 H 0.91618 0.28535 -0.03253
 H198 H 0.95672 0.28073 -0.00202
 H199 H 1.04448 0.20512 -0.00360
 H200 H 1.08717 0.20508 -0.03138
 H201 H 1.01680 0.28089 -0.04475
 H202 H 1.04516 0.27447 0.02392
 H203 H 1.08468 0.27167 0.05643
 H204 H 1.04667 0.19832 0.09475
 H205 H 1.00825 0.20108 0.06185
 H206 H 0.98160 0.27376 0.06400
 H207 H 0.93777 0.27198 0.09057
 H208 H 0.90968 0.20213 0.03989
 H209 H 0.95408 0.20370 0.01357
 H210 H 1.05871 0.28088 -0.07344
 C211 C 0.49723 0.75109 0.48336
 C212 C 0.49860 0.75310 0.51165
 C213 C 0.52585 0.75249 0.52662
 C214 C 0.47287 0.75359 0.52927
 C215 C 0.47012 0.74999 0.46831
 C216 C 0.52252 0.74923 0.46537
 C217 C 0.53987 0.72691 0.53095
 C218 C 0.56324 0.72571 0.54874
 C219 C 0.57325 0.75022 0.56177
 C220 C 0.56013 0.77604 0.55617
 C221 C 0.53626 0.77709 0.53904
 C222 C 0.46949 0.73331 0.55033
 C223 C 0.44577 0.73364 0.56749
 C224 C 0.42478 0.75411 0.56384
 C225 C 0.42804 0.77442 0.54270
 C226 C 0.45206 0.77431 0.52572
 C227 C 0.46123 0.77349 0.45297
 C228 C 0.43809 0.77154 0.43508
 C229 C 0.42420 0.74579 0.43160
 C230 C 0.43262 0.72243 0.44756
 C231 C 0.45531 0.72462 0.46609
 C232 C 0.54217 0.77119 0.46444
 C233 C 0.56334 0.77117 0.44406
 C234 C 0.56470 0.74951 0.42405
 C235 C 0.54574 0.72701 0.42581
 C236 C 0.52490 0.72686 0.44631
 H237 H 0.53189 0.70773 0.52164
 H238 H 0.57313 0.70561 0.55288
 H239 H 0.56746 0.79509 0.56624
 H240 H 0.52548 0.79693 0.53600
 H241 H 0.48520 0.71712 0.55349
 H242 H 0.44380 0.71776 0.58365
 H243 H 0.45460 0.79063 0.51013
 H244 H 0.47275 0.79308 0.45429
 H245 H 0.43193 0.78973 0.42287
 H246 H 0.42198 0.70245 0.44527
 H247 H 0.46222 0.70626 0.47763
 H248 H 0.54036 0.78891 0.47859
 H249 H 0.57783 0.78869 0.44312
 H250 H 0.54681 0.70968 0.41110
 H251 H 0.51005 0.70963 0.44676
 H252 H 0.41253 0.79087 0.53988
 C253 C 0.01091 0.73932 -0.00255
 C254 C -0.01728 0.74452 -0.00389
 C255 C -0.03251 0.74538 -0.03121
 C256 C -0.03524 0.74929 0.02130
 C257 C 0.02691 0.73722 0.02425
 C258 C 0.02843 0.73721 -0.02839
 C259 C -0.02533 0.76447 -0.05245
 C260 C -0.04059 0.76523 -0.07760
 C261 C -0.06402 0.74739 -0.08180
 C262 C -0.07121 0.72868 -0.05996
 C263 C -0.05561 0.72761 -0.03522
 C264 C -0.05394 0.77210 0.02111
 C265 C -0.07452 0.77496 0.04172
 C266 C -0.07703 0.75506 0.06352
 C267 C -0.05686 0.73318 0.06471
 C268 C -0.03655 0.73003 0.04356
 C269 C 0.04540 0.71445 0.02784
 C270 C 0.06505 0.71436 0.04958
 C271 C 0.06656 0.73698 0.06842
 C272 C 0.04695 0.75901 0.06600
 C273 C 0.02746 0.75933 0.04383
 C274 C 0.02314 0.71723 -0.04944
 C275 C 0.04018 0.71596 -0.07342
 C276 C 0.06346 0.73422 -0.07654
 C277 C 0.06871 0.75376 -0.05482
 C278 C 0.05141 0.75529 -0.03133
 H279 H -0.00808 0.77902 -0.04943
 H280 H -0.03443 0.78074 -0.09292
 H281 H -0.08886 0.71444 -0.06190
 H282 H -0.06168 0.71288 -0.01900
 H283 H -0.05311 0.78748 0.00437
 H284 H -0.08803 0.79319 0.04043
 H285 H -0.02268 0.71196 0.04400
 H286 H 0.04544 0.69723 0.01296
 H287 H 0.07953 0.69684 0.05129
 H288 H 0.04771 0.77668 0.08032
 H289 H 0.01387 0.77742 0.04118
 H290 H 0.00588 0.70256 -0.04725
 H291 H 0.03537 0.69993 -0.08873
 H292 H 0.08610 0.76839 -0.05593
 H293 H 0.05598 0.77080 -0.01531
 H294 H -0.05765 0.71749 0.08113
 C295 C 0.51336 0.25092 0.50761
 C296 C 0.48473 0.25110 0.50670
 C297 C 0.46872 0.24950 0.47990
 C298 C 0.46755 0.25376 0.53252
 C299 C 0.52917 0.25358 0.53450
 C300 C 0.53091 0.24823 0.48185
 C301 C 0.44889 0.27046 0.47369
 C302 C 0.43287 0.26909 0.44921
 C303 C 0.43633 0.24678 0.43019
 C304 C 0.45632 0.22577 0.43629
 C305 C 0.47224 0.22703 0.46105
 C306 C 0.46255 0.28018 0.54465
 C307 C 0.44325 0.28294 0.56668
 C308 C 0.42929 0.25921 0.57731
 C309 C 0.43527 0.23266 0.56594
 C310 C 0.45386 0.23004 0.54335
 C311 C 0.52599 0.23393 0.55626
 C312 C 0.54331 0.23512 0.58005
 C313 C 0.56446 0.25570 0.58228
 C314 C 0.56734 0.27545 0.56058
 C315 C 0.54985 0.27445 0.53704
 C316 C 0.55163 0.22723 0.48080
 C317 C 0.57008 0.22553 0.45811
 C318 C 0.56832 0.24489 0.43592
 C319 C 0.54698 0.26538 0.43643
 C320 C 0.52861 0.26726 0.45939
 H321 H 0.44578 0.28802 0.48780
 H322 H 0.41772 0.28563 0.44512
 H323 H 0.45907 0.20795 0.42244
 H324 H 0.48702 0.21032 0.46568
 H325 H 0.47276 0.29871 0.53633
 H326 H 0.43899 0.30360 0.57525
 H327 H 0.45730 0.20956 0.53401
 H328 H 0.51093 0.21701 0.55436
 H329 H 0.54099 0.21913 0.59602
 H330 H 0.58344 0.29151 0.56165
 H331 H 0.55289 0.28963 0.52039
 H332 H 0.55377 0.21231 0.49783
 H333 H 0.58592 0.20915 0.45807
 H334 H 0.54524 0.28060 0.41963
 H335 H 0.51312 0.28396 0.45995
 H336 H 0.42462 0.21414 0.57374
 C337 C 0.99773 0.02596 0.23678
 C338 C 0.99823 -0.00259 0.23878
 C339 C 0.97191 -0.01952 0.24007
 C340 C 1.02479 -0.01916 0.24042
 C341 C 1.02377 0.04323 0.23610
 C342 C 0.97070 0.04155 0.23604
 C343 C 0.96920 -0.04004 0.26098
 C344 C 0.94665 -0.05869 0.26073
 C345 C 0.92554 -0.05687 0.24001
 C346 C 0.92792 -0.03557 0.21948
 C347 C 0.95113 -0.01754 0.21923
 C348 C 1.04537 -0.01370 0.26085
 C349 C 1.06820 -0.03203 0.26438
 C350 C 1.07034 -0.05689 0.24822
 C351 C 1.04970 -0.06184 0.22755
 C352 C 1.02757 -0.04309 0.22349
 C353 C 1.04539 0.03805 0.21665
 C354 C 1.06988 0.05440 0.21689
 C355 C 1.07296 0.07649 0.23632
 C356 C 1.05097 0.08196 0.25524
 C357 C 1.02671 0.06550 0.25516
 C358 C 0.96260 0.05557 0.21146
 C359 C 0.93683 0.06971 0.21019
 C360 C 0.91908 0.07062 0.23375
 C361 C 0.92755 0.05710 0.25856
 C362 C 0.95306 0.04241 0.25962
 H363 H 0.98508 -0.04212 0.27718
 H364 H 0.94575 -0.07446 0.27709
 H365 H 0.91307 -0.03374 0.20240
 H366 H 0.95332 -0.00273 0.20216
 H367 H 1.04322 0.00411 0.27484
 H368 H 1.08283 -0.02742 0.28111
 H369 H 1.01190 -0.04782 0.20765
 H370 H 1.04328 0.02142 0.20128
 H371 H 1.08607 0.05011 0.20151
 H372 H 1.05265 0.09884 0.27040
 H373 H 1.01030 0.06998 0.27028
 H374 H 0.97609 0.05520 0.19316
 H375 H 0.93109 0.08048 0.19101
 H376 H 0.91432 0.05774 0.27704
 H377 H 0.95916 0.03185 0.27881
 H378 H 1.05050 -0.08034 0.21431
 C379 C 0.50744 0.51726 0.74256
 C380 C 0.50651 0.48873 0.74161
 C381 C 0.47983 0.47300 0.74519
 C382 C 0.53185 0.47094 0.73805
 C383 C 0.53413 0.53337 0.73989
 C384 C 0.48136 0.53423 0.74582
 C385 C 0.47782 0.45331 0.76695
 C386 C 0.45382 0.43684 0.76982
 C387 C 0.43125 0.43974 0.75102
 C388 C 0.43307 0.45976 0.72937
 C389 C 0.45729 0.47617 0.72638
 C390 C 0.55386 0.47136 0.75769
 C391 C 0.57501 0.45088 0.75664
 C392 C 0.57407 0.42949 0.73629
 C393 C 0.55279 0.43005 0.71586
 C394 C 0.53187 0.45055 0.71678
 C395 C 0.55274 0.52920 0.71732
 C396 C 0.57650 0.54633 0.71427
 C397 C 0.58166 0.56827 0.73339
 C398 C 0.56307 0.57226 0.75591
 C399 C 0.53970 0.55493 0.75920
 C400 C 0.47512 0.55485 0.72578
 C401 C 0.45097 0.57128 0.72835
 C402 C 0.43241 0.56726 0.75090
 C403 C 0.43862 0.54664 0.77107
 C404 C 0.46313 0.53047 0.76873
 H405 H 0.49506 0.45052 0.78159
 H406 H 0.45300 0.42161 0.78668
 H407 H 0.41630 0.46204 0.71415
 H408 H 0.45873 0.49088 0.70912
 H409 H 0.55394 0.48665 0.77453
 H410 H 0.59129 0.45091 0.77257
 H411 H 0.51503 0.44993 0.70145
 H412 H 0.54848 0.51328 0.70166
 H413 H 0.59018 0.54313 0.69639
 H414 H 0.56657 0.58896 0.77097
 H415 H 0.52559 0.55866 0.77666
 H416 H 0.48898 0.55818 0.70806
 H417 H 0.44671 0.58711 0.71258
 H418 H 0.42501 0.54360 0.78902
 H419 H 0.46795 0.51515 0.78483
 H420 H 0.55197 0.41431 0.69946
 C421 C 1.02178 1.00067 0.76651
 C422 C 0.99326 1.00319 0.76560
 C423 C 0.97445 0.97827 0.76634
 C424 C 0.97843 1.03067 0.76339
 C425 C 1.04107 1.02526 0.76778
 C426 C 1.03585 0.97276 0.76539
 C427 C 0.97497 0.95778 0.74510
 C428 C 0.95478 0.93639 0.74467
 C429 C 0.93339 0.93563 0.76502
 C430 C 0.93343 0.95571 0.78662
 C431 C 0.95374 0.97679 0.78725
 C432 C 0.95726 1.03353 0.74309
 C433 C 0.93996 1.05712 0.74263
 C434 C 0.94363 1.07914 0.76209
 C435 C 0.96581 1.07673 0.78180
 C436 C 0.98267 1.05253 0.78271
 C437 C 1.06176 1.02589 0.78879
 C438 C 1.08226 1.04681 0.78902
 C439 C 1.08258 1.06766 0.76819
 C440 C 1.06132 1.06769 0.74764
 C441 C 1.04092 1.04641 0.74719
 C442 C 1.03108 0.95198 0.78569
 C443 C 1.04551 0.92628 0.78446
 C444 C 1.06554 0.92100 0.76309
 C445 C 1.06990 0.94223 0.74284
 C446 C 1.05530 0.96758 0.74400
 H447 H 0.99042 0.95888 0.72845
 H448 H 0.95514 0.92115 0.72778
 H449 H 0.91755 0.95530 0.80290
 H450 H 0.95295 0.99246 0.80374
 H451 H 0.95355 1.01696 0.72794
 H452 H 0.92360 1.05797 0.72681
 H453 H 0.99832 1.05047 0.79911
 H454 H 1.06232 1.00978 0.80484
 H455 H 1.09800 1.04657 0.80547
 H456 H 1.06115 1.08353 0.73134
 H457 H 1.02554 1.04603 0.73042
 H458 H 1.01653 0.95582 0.80274
 H459 H 1.04146 0.91140 0.80103
 H460 H 1.08476 0.93948 0.72584
 H461 H 1.05931 0.98337 0.72813
 H462 H 0.96927 1.09246 0.79778
 C463 C 0.51303 0.50877 0.25988
 C464 C 0.48453 0.51068 0.25848
 C465 C 0.46699 0.48556 0.25335
 C466 C 0.46861 0.53712 0.26248
 C467 C 0.53170 0.53337 0.26456
 C468 C 0.52742 0.48125 0.25612
 C469 C 0.45860 0.47866 0.22601
 C470 C 0.44022 0.45619 0.22140
 C471 C 0.43036 0.44013 0.24408
 C472 C 0.43933 0.44673 0.27136
 C473 C 0.45710 0.46961 0.27600
 C474 C 0.45931 0.55225 0.23897
 C475 C 0.43835 0.57277 0.24168
 C476 C 0.42562 0.57787 0.26780
 C477 C 0.43580 0.56349 0.29154
 C478 C 0.45714 0.54333 0.28888
 C479 C 0.55214 0.53204 0.28582
 C480 C 0.57336 0.55226 0.28758
 C481 C 0.57473 0.57428 0.26799
 C482 C 0.55348 0.57640 0.24751
 C483 C 0.53234 0.55596 0.24561
 C484 C 0.52545 0.46021 0.27663
 C485 C 0.53988 0.43477 0.27336
 C486 C 0.55701 0.43012 0.24973
 C487 C 0.55920 0.45144 0.22943
 C488 C 0.54449 0.47673 0.23257
 H489 H 0.46588 0.49099 0.20836
 H490 H 0.43367 0.45139 0.20016
 H491 H 0.43176 0.43479 0.28915
 H492 H 0.46295 0.47507 0.29729
 H493 H 0.46719 0.54711 0.21828
 H494 H 0.43089 0.58344 0.22303
 H495 H 0.46356 0.53139 0.30715
 H496 H 0.55219 0.51473 0.30057
 H497 H 0.58895 0.55036 0.30405
 H498 H 0.55403 0.59309 0.23209
 H499 H 0.51750 0.55699 0.22843
 H500 H 0.51329 0.46373 0.29549
 H501 H 0.53844 0.41921 0.28985
 H502 H 0.57241 0.44857 0.21114
 H503 H 0.54656 0.49290 0.21672
 H504 H 0.42675 0.56728 0.31204
 O505 O 0.25701 0.17690 0.21167
 O506 O 0.28276 0.16933 0.25446
 O507 O 0.18318 0.22014 0.24557
 O508 O 0.17375 0.26022 0.26741
 O509 O 0.22517 0.25122 0.16978
 O510 O 0.26827 0.27687 0.16284
 O511 O 0.25716 0.29685 0.31428
 O512 O 0.22061 0.26171 0.32145
 O513 O 0.32838 0.24953 0.29007
 O514 O 0.33674 0.21420 0.25233
 O515 O 0.30381 0.32103 0.24287
 O516 O 0.26650 0.33049 0.20831
 O517 O 0.26408 0.32757 0.27846
 O518 O 0.23515 0.33543 0.23592
 O519 O 0.33438 0.28500 0.25048
 O520 O 0.34228 0.24253 0.22156
 O521 O 0.29220 0.25707 0.32029
 O522 O 0.25329 0.22970 0.32997
 O523 O 0.25958 0.20788 0.17537
 O524 O 0.29580 0.24236 0.16764
 O525 O 0.18932 0.25387 0.20132
 O526 O 0.18325 0.29166 0.23645
 O527 O 0.21344 0.18305 0.24668
 O528 O 0.24888 0.17400 0.28179
 Zr529 Zr 0.25353 0.20221 0.24785
 O530 O 0.27980 0.22607 0.27436
 Zr531 Zr 0.20898 0.25552 0.24069
 O532 O 0.23322 0.28176 0.26671
 Zr533 Zr 0.26137 0.24736 0.19526
 O534 O 0.28819 0.27306 0.21942
 Zr535 Zr 0.25613 0.25710 0.29508
 O536 O 0.22917 0.23081 0.27141
 Zr537 Zr 0.30882 0.24886 0.25020
 O538 O 0.28457 0.22242 0.22366
 Zr539 Zr 0.26396 0.30204 0.24235
 O540 O 0.23733 0.27840 0.21566
 O541 O 0.23149 0.22552 0.21833
 O542 O 0.28627 0.27923 0.27238
 C543 C 0.25862 0.18283 0.18539
 C544 C 0.18851 0.19368 0.24671
 C545 C 0.19893 0.25280 0.17619
 C546 C 0.26078 0.32176 0.30457
 C547 C 0.31841 0.25360 0.31483
 C548 C 0.32864 0.31116 0.24691
 H549 H 0.28937 0.21343 0.28778
 H550 H 0.30166 0.28258 0.20685
 H551 H 0.21928 0.21353 0.20651
 H552 H 0.22077 0.29517 0.27659
 H553 H 0.20709 0.24677 0.31619
 H554 H 0.18021 0.27032 0.28435
 H555 H 0.34011 0.25630 0.20618
 H556 H 0.30877 0.22878 0.17666
 H557 H 0.25923 0.21086 0.32359
 H558 H 0.23415 0.18198 0.29415
 H559 H 0.28188 0.32407 0.19587
 H560 H 0.25596 0.29318 0.16692
 H561 H 0.29922 0.17348 0.24245
 H562 H 0.33093 0.20235 0.26834
 H563 H 0.19089 0.30271 0.22060
 H564 H 0.22010 0.33375 0.25013
 O565 O 0.75573 0.82826 0.21396
 O566 O 0.72895 0.83963 0.25433
 O567 O 0.82957 0.79058 0.25467
 O568 O 0.83810 0.75379 0.28237
 O569 O 0.79263 0.75203 0.18120
 O570 O 0.75140 0.72318 0.17470
 O571 O 0.75249 0.72018 0.32828
 O572 O 0.78834 0.75506 0.33358
 O573 O 0.68291 0.76049 0.29486
 O574 O 0.67643 0.79413 0.25349
 O575 O 0.71007 0.68709 0.25808
 O576 O 0.74898 0.67442 0.22618
 O577 O 0.74819 0.68563 0.29559
 O578 O 0.77963 0.67349 0.25528
 O579 O 0.67898 0.72336 0.25639
 O580 O 0.67177 0.76256 0.22589
 O581 O 0.71749 0.76075 0.32787
 O582 O 0.75719 0.78935 0.33549
 O583 O 0.75575 0.79391 0.18072
 O584 O 0.72218 0.75662 0.17393
 O585 O 0.82655 0.74959 0.21486
 O586 O 0.83140 0.71825 0.25450
 O587 O 0.79797 0.82643 0.25083
 O588 O 0.76125 0.83784 0.28364
 Zr589 Zr 0.75863 0.80656 0.25221
 O590 O 0.73135 0.78521 0.27948
 Zr591 Zr 0.80472 0.75393 0.25295
 O592 O 0.77927 0.73013 0.28024
 Zr593 Zr 0.75481 0.75627 0.20411
 O594 O 0.72701 0.73263 0.22927
 Zr595 Zr 0.75462 0.75732 0.30463
 O596 O 0.78242 0.78128 0.27974
 Zr597 Zr 0.70430 0.75944 0.25608
 O598 O 0.72948 0.78340 0.22835
 Zr599 Zr 0.74995 0.70670 0.25675
 O600 O 0.77782 0.72798 0.22919
 O601 O 0.78295 0.78099 0.22640
 O602 O 0.72589 0.73229 0.28284
 C603 C 0.75512 0.81983 0.18837
 C604 C 0.82313 0.81683 0.25302
 C605 C 0.81837 0.74921 0.18918
 C606 C 0.74976 0.69432 0.32109
 C607 C 0.69158 0.76125 0.32042
 C608 C 0.68489 0.69706 0.25749
 H609 H 0.72074 0.79903 0.29079
 H610 H 0.71438 0.72165 0.21697
 H611 H 0.79548 0.79189 0.21389
 H612 H 0.79125 0.71806 0.29219
 H613 H 0.80277 0.76866 0.32724
 H614 H 0.83147 0.74370 0.29925
 H615 H 0.67641 0.74947 0.21044
 H616 H 0.70848 0.77104 0.18012
 H617 H 0.74650 0.80580 0.32865
 H618 H 0.77516 0.83111 0.29760
 H619 H 0.73473 0.67964 0.21197
 H620 H 0.76356 0.70777 0.18167
 H621 H 0.71246 0.83353 0.24319
 H622 H 0.67889 0.80569 0.27058
 H623 H 0.82385 0.70444 0.24090
 H624 H 0.79321 0.67633 0.27076
 O625 O 0.75365 0.18040 0.78961
 O626 O 0.72137 0.17469 0.75071
 O627 O 0.82872 0.20969 0.74940
 O628 O 0.84005 0.24435 0.71962
 O629 O 0.79780 0.25175 0.82240
 O630 O 0.75999 0.28472 0.83050
 O631 O 0.75958 0.29254 0.67752
 O632 O 0.79030 0.25236 0.67031
 O633 O 0.68532 0.25809 0.71125
 O634 O 0.67466 0.22799 0.75108
 O635 O 0.72474 0.32821 0.75042
 O636 O 0.76604 0.33347 0.78164
 O637 O 0.76060 0.32562 0.71191
 O638 O 0.79467 0.33211 0.75068
 O639 O 0.68859 0.29703 0.74835
 O640 O 0.67741 0.25730 0.78146
 O641 O 0.71923 0.25838 0.67765
 O642 O 0.75079 0.22383 0.66819
 O643 O 0.75622 0.21468 0.82280
 O644 O 0.72753 0.25498 0.83099
 O645 O 0.83100 0.24803 0.78819
 O646 O 0.83961 0.28036 0.74922
 O647 O 0.79285 0.17803 0.74907
 O648 O 0.75087 0.17143 0.71990
 Zr649 Zr 0.75588 0.20269 0.75112
 O650 O 0.73134 0.22869 0.72481
 Zr651 Zr 0.80832 0.24875 0.75043
 O652 O 0.78599 0.27676 0.72444
 Zr653 Zr 0.75939 0.25226 0.80018
 O654 O 0.73462 0.28006 0.77636
 Zr655 Zr 0.75715 0.25432 0.69986
 O656 O 0.78194 0.22550 0.72335
 Zr657 Zr 0.70813 0.25723 0.74930
 O658 O 0.73042 0.22919 0.77587
 Zr659 Zr 0.76096 0.30307 0.74958
 O660 O 0.78608 0.27746 0.77574
 O661 O 0.78356 0.22441 0.77682
 O662 O 0.73284 0.28217 0.72328
 C663 C 0.75421 0.18883 0.81531
 C664 C 0.81914 0.18451 0.74871
 C665 C 0.82342 0.24960 0.81399
 C666 C 0.75995 0.31819 0.68605
 C667 C 0.69339 0.25906 0.68552
 C668 C 0.69847 0.32216 0.74927
 H669 H 0.71911 0.21680 0.71293
 H670 H 0.72389 0.29239 0.78917
 H671 H 0.79490 0.21165 0.78872
 H672 H 0.79921 0.28747 0.71257
 H673 H 0.80163 0.23550 0.67497
 H674 H 0.83458 0.25615 0.70343
 H675 H 0.68158 0.27314 0.79425
 H676 H 0.71152 0.24368 0.82397
 H677 H 0.76040 0.20659 0.67460
 H678 H 0.76664 0.17346 0.70653
 H679 H 0.75052 0.33101 0.79524
 H680 H 0.77450 0.29831 0.82441
 H681 H 0.70755 0.18207 0.76440
 H682 H 0.67888 0.21282 0.73752
 H683 H 0.83470 0.29432 0.76383
 H684 H 0.80767 0.32744 0.73516
 O685 O 0.24673 0.82133 0.78703
 O686 O 0.27677 0.83034 0.74827
 O687 O 0.17531 0.78212 0.74840
 O688 O 0.16790 0.74459 0.72074
 O689 O 0.21126 0.74819 0.82308
 O690 O 0.25101 0.71914 0.83263
 O691 O 0.25783 0.70721 0.67940
 O692 O 0.22156 0.73989 0.66959
 O693 O 0.32409 0.74928 0.71389
 O694 O 0.33026 0.78313 0.75276
 O695 O 0.29414 0.67722 0.75224
 O696 O 0.25409 0.66686 0.78356
 O697 O 0.25641 0.67399 0.71367
 O698 O 0.22418 0.66500 0.75381
 O699 O 0.32538 0.71334 0.75160
 O700 O 0.33087 0.75441 0.78367
 O701 O 0.29150 0.74734 0.67900
 O702 O 0.24958 0.77696 0.66938
 O703 O 0.24802 0.78894 0.82214
 O704 O 0.28148 0.75143 0.83140
 O705 O 0.17752 0.74397 0.78944
 O706 O 0.17374 0.70973 0.75083
 O707 O 0.20761 0.81735 0.74603
 O708 O 0.24708 0.82714 0.71680
 Zr709 Zr 0.24686 0.79754 0.74987
 O710 O 0.27522 0.77452 0.72513
 Zr711 Zr 0.20027 0.74547 0.75125
 O712 O 0.22654 0.72021 0.72566
 Zr713 Zr 0.24917 0.75010 0.80089
 O714 O 0.27710 0.72439 0.77815
 Zr715 Zr 0.25282 0.74545 0.70069
 O716 O 0.22384 0.77066 0.72330
 Zr717 Zr 0.30083 0.74981 0.75115
 O718 O 0.27507 0.77584 0.77614
 Zr719 Zr 0.25451 0.69744 0.75132
 O720 O 0.22631 0.72063 0.77706
 O721 O 0.22179 0.77382 0.77647
 O722 O 0.28002 0.72141 0.72514
 C723 C 0.24750 0.81438 0.81309
 C724 C 0.18224 0.80813 0.74588
 C725 C 0.18556 0.74575 0.81519
 C726 C 0.25844 0.68161 0.68786
 C727 C 0.31702 0.74825 0.68793
 C728 C 0.31932 0.68710 0.75172
 H729 H 0.28639 0.78761 0.71357
 H730 H 0.28916 0.71382 0.79135
 H731 H 0.20896 0.78572 0.78776
 H732 H 0.21496 0.70769 0.71380
 H733 H 0.20551 0.75205 0.67496
 H734 H 0.17473 0.73308 0.70485
 H735 H 0.32840 0.73865 0.79696
 H736 H 0.29516 0.76572 0.82499
 H737 H 0.26454 0.79101 0.67267
 H738 H 0.23492 0.81938 0.70180
 H739 H 0.26798 0.67261 0.79791
 H740 H 0.23942 0.70319 0.82598
 H741 H 0.29239 0.82475 0.76085
 H742 H 0.32605 0.79610 0.73709
 H743 H 0.17998 0.69737 0.76634
 H744 H 0.21077 0.66757 0.73812
 O745 O 0.25840 0.32915 0.72607
 O746 O 0.22877 0.33922 0.76473
 O747 O 0.32972 0.29057 0.76866
 O748 O 0.33692 0.25333 0.79630
 O749 O 0.29682 0.25503 0.69282
 O750 O 0.25715 0.22548 0.68315
 O751 O 0.25081 0.21798 0.83687
 O752 O 0.28345 0.25487 0.84536
 O753 O 0.18077 0.26029 0.79964
 O754 O 0.17564 0.29215 0.75927
 O755 O 0.21163 0.18621 0.76362
 O756 O 0.25125 0.17403 0.73430
 O757 O 0.24814 0.18414 0.80331
 O758 O 0.28194 0.17415 0.76341
 O759 O 0.17994 0.22198 0.76151
 O760 O 0.17521 0.26250 0.72959
 O761 O 0.21261 0.25477 0.83486
 O762 O 0.24666 0.28672 0.84548
 O763 O 0.25895 0.29586 0.69180
 O764 O 0.22662 0.25776 0.68239
 O765 O 0.32885 0.25075 0.72811
 O766 O 0.33190 0.21869 0.76842
 O767 O 0.29830 0.32649 0.76478
 O768 O 0.25835 0.33715 0.79588
 Zr769 Zr 0.25884 0.30644 0.76372
 O770 O 0.23002 0.28397 0.78847
 Zr771 Zr 0.30506 0.25411 0.76532
 O772 O 0.27842 0.22952 0.79067
 Zr773 Zr 0.25794 0.25747 0.71394
 O774 O 0.22934 0.23258 0.73679
 Zr775 Zr 0.25168 0.25555 0.81421
 O776 O 0.28106 0.28048 0.79189
 Zr777 Zr 0.20474 0.25857 0.76266
 O778 O 0.23125 0.28381 0.73750
 Zr779 Zr 0.25108 0.20625 0.76494
 O780 O 0.27995 0.22860 0.73933
 O781 O 0.28455 0.28176 0.73845
 O782 O 0.22490 0.23078 0.78996
 C783 C 0.25836 0.32154 0.70024
 C784 C 0.32343 0.31682 0.76740
 C785 C 0.32207 0.25181 0.70200
 C786 C 0.24900 0.19226 0.82907
 C787 C 0.18738 0.25778 0.82564
 C788 C 0.18635 0.19574 0.76222
 H789 H 0.21882 0.29728 0.79988
 H790 H 0.21764 0.22167 0.72356
 H791 H 0.29758 0.29309 0.72689
 H792 H 0.29010 0.21743 0.80291
 H793 H 0.29647 0.27056 0.84119
 H794 H 0.32805 0.24663 0.81380
 H795 H 0.17885 0.24720 0.71599
 H796 H 0.21245 0.27189 0.68818
 H797 H 0.25760 0.30316 0.83924
 H798 H 0.27468 0.33346 0.80826
 H799 H 0.23994 0.18070 0.71820
 H800 H 0.26901 0.20997 0.69041
 H801 H 0.21334 0.33353 0.75197
 H802 H 0.17959 0.30557 0.77463
 H803 H 0.32631 0.20552 0.75333
 H804 H 0.29393 0.17600 0.78029
 O805 O 0.75574 0.68224 0.68949
 O806 O 0.78467 0.66833 0.72846
 O807 O 0.68432 0.71856 0.73118
 O808 O 0.67408 0.75543 0.75739
 O809 O 0.72575 0.76109 0.66004
 O810 O 0.76745 0.78913 0.65738
 O811 O 0.75887 0.78298 0.81058
 O812 O 0.72305 0.74859 0.81291
 O813 O 0.82983 0.74405 0.77799
 O814 O 0.83857 0.71364 0.73632
 O815 O 0.80403 0.81970 0.74504
 O816 O 0.76726 0.83494 0.71222
 O817 O 0.76397 0.81959 0.78040
 O818 O 0.73478 0.83402 0.73921
 O819 O 0.83521 0.78353 0.74248
 O820 O 0.84240 0.74498 0.70846
 O821 O 0.79371 0.74216 0.80919
 O822 O 0.75212 0.71302 0.81266
 O823 O 0.76273 0.71848 0.65909
 O824 O 0.79634 0.75595 0.65646
 O825 O 0.68984 0.75850 0.69151
 O826 O 0.68422 0.79120 0.73226
 O827 O 0.71505 0.68205 0.72740
 O828 O 0.75224 0.66810 0.75851
 Zr829 Zr 0.75488 0.70137 0.72926
 O830 O 0.78137 0.72071 0.75894
 Zr831 Zr 0.70971 0.75466 0.73081
 O832 O 0.73395 0.77613 0.76097
 Zr833 Zr 0.76206 0.75456 0.68469
 O834 O 0.78863 0.77638 0.71260
 Zr835 Zr 0.75738 0.74731 0.78472
 O836 O 0.73030 0.72552 0.75710
 Zr837 Zr 0.80980 0.74761 0.73860
 O838 O 0.78559 0.72551 0.70844
 Zr839 Zr 0.76435 0.80070 0.74040
 O840 O 0.73790 0.78160 0.71002
 O841 O 0.73242 0.72888 0.70393
 O842 O 0.78715 0.77335 0.76591
 C843 C 0.75953 0.69227 0.66476
 C844 C 0.69005 0.69220 0.72945
 C845 C 0.69948 0.76123 0.66649
 C846 C 0.76151 0.80929 0.80519
 C847 C 0.81998 0.74181 0.80300
 C848 C 0.82916 0.80972 0.74498
 H849 H 0.79128 0.70610 0.76987
 H850 H 0.80186 0.78802 0.70165
 H851 H 0.72017 0.71860 0.69062
 H852 H 0.72148 0.78751 0.77308
 H853 H 0.70789 0.73707 0.80450
 H854 H 0.68040 0.76238 0.77590
 H855 H 0.84061 0.76137 0.69583
 H856 H 0.80967 0.74112 0.66248
 H857 H 0.76585 0.69822 0.80761
 H858 H 0.73898 0.67433 0.77327
 H859 H 0.78204 0.83041 0.69833
 H860 H 0.75544 0.80446 0.66475
 H861 H 0.80090 0.67523 0.71745
 H862 H 0.83268 0.69929 0.75010
 H863 H 0.69116 0.80408 0.71751
 H864 H 0.72012 0.83007 0.75339
 O865 O 0.24076 0.67984 0.29996
 O866 O 0.21122 0.66880 0.26094
 O867 O 0.31166 0.71782 0.25484
 O868 O 0.32068 0.75581 0.23063
 O869 O 0.27613 0.75797 0.33135
 O870 O 0.23480 0.78407 0.34005
 O871 O 0.23232 0.78918 0.18593
 O872 O 0.26698 0.75343 0.17858
 O873 O 0.16320 0.74835 0.22222
 O874 O 0.15651 0.71718 0.26208
 O875 O 0.19422 0.82233 0.25848
 O876 O 0.23432 0.83399 0.28832
 O877 O 0.22971 0.82307 0.21949
 O878 O 0.26386 0.83398 0.25820
 O879 O 0.16222 0.78687 0.25760
 O880 O 0.15720 0.74663 0.29275
 O881 O 0.19597 0.74927 0.18752
 O882 O 0.23593 0.71936 0.17825
 O883 O 0.24063 0.71467 0.33271
 O884 O 0.20602 0.75117 0.34001
 O885 O 0.30986 0.75564 0.29751
 O886 O 0.31283 0.79028 0.25763
 O887 O 0.28102 0.68158 0.26061
 O888 O 0.24203 0.67069 0.22946
 Zr889 Zr 0.24115 0.70161 0.26131
 O890 O 0.21265 0.72361 0.23527
 Zr891 Zr 0.28701 0.75409 0.25954
 O892 O 0.26094 0.77796 0.23284
 Zr893 Zr 0.23830 0.75202 0.30950
 O894 O 0.21029 0.77641 0.28556
 Zr895 Zr 0.23475 0.75148 0.20911
 O896 O 0.26362 0.72726 0.23306
 Zr897 Zr 0.18661 0.74983 0.25954
 O898 O 0.21254 0.72496 0.28588
 Zr899 Zr 0.23321 0.80172 0.25773
 O900 O 0.26132 0.78009 0.28445
 O901 O 0.26598 0.72709 0.28653
 O902 O 0.20764 0.77682 0.23235
 C903 C 0.24091 0.68865 0.32550
 C904 C 0.30593 0.69154 0.25679
 C905 C 0.30182 0.75812 0.32314
 C906 C 0.22999 0.81493 0.19382
 C907 C 0.17037 0.74854 0.19627
 C908 C 0.16893 0.81305 0.25748
 H909 H 0.20141 0.71001 0.22434
 H910 H 0.19829 0.78768 0.29823
 H911 H 0.27899 0.71598 0.29840
 H912 H 0.27265 0.78984 0.22049
 H913 H 0.28197 0.74030 0.18470
 H914 H 0.31278 0.76251 0.21264
 H915 H 0.15837 0.76402 0.30407
 H916 H 0.19246 0.73660 0.33396
 H917 H 0.22413 0.70361 0.18483
 H918 H 0.25496 0.67772 0.21477
 H919 H 0.22017 0.82944 0.30283
 H920 H 0.24566 0.80029 0.33289
 H921 H 0.19544 0.67513 0.27296
 H922 H 0.16193 0.70250 0.24840
 H923 H 0.30779 0.80228 0.27385
 H924 H 0.27616 0.83142 0.24165
 O925 O 0.73554 0.31862 0.27967
 O926 O 0.76832 0.32540 0.24308
 O927 O 0.66291 0.28797 0.23614
 O928 O 0.65365 0.25179 0.20690
 O929 O 0.69012 0.24744 0.31188
 O930 O 0.72653 0.21616 0.32356
 O931 O 0.73849 0.20651 0.16992
 O932 O 0.71011 0.24422 0.15881
 O933 O 0.80962 0.24092 0.21025
 O934 O 0.81686 0.27254 0.24999
 O935 O 0.77032 0.17125 0.24425
 O936 O 0.72702 0.16454 0.27291
 O937 O 0.73583 0.17259 0.20335
 O938 O 0.69971 0.16584 0.24054
 O939 O 0.80485 0.20392 0.24938
 O940 O 0.81214 0.24464 0.28046
 O941 O 0.77936 0.24126 0.17330
 O942 O 0.74218 0.27674 0.16196
 O943 O 0.73107 0.28595 0.31420
 O944 O 0.75978 0.24488 0.32468
 O945 O 0.65848 0.24904 0.27609
 O946 O 0.65374 0.21609 0.23661
 O947 O 0.69864 0.31975 0.23712
 O948 O 0.74046 0.32536 0.20965
 Zr949 Zr 0.73531 0.29568 0.24223
 O950 O 0.76286 0.27031 0.21897
 Zr951 Zr 0.68376 0.24881 0.23950
 O952 O 0.70901 0.22149 0.21500
 Zr953 Zr 0.72952 0.24739 0.29220
 O954 O 0.75611 0.21934 0.27060
 Zr955 Zr 0.73929 0.24429 0.19234
 O956 O 0.71148 0.27188 0.21364
 Zr957 Zr 0.78412 0.24265 0.24595
 O958 O 0.75943 0.27078 0.26972
 Zr959 Zr 0.73301 0.19534 0.24145
 O960 O 0.70561 0.22084 0.26602
 O961 O 0.70629 0.27426 0.26681
 O962 O 0.76256 0.21703 0.21762
 C963 C 0.73412 0.31138 0.30556
 C964 C 0.67249 0.31326 0.23522
 C965 C 0.66487 0.24805 0.30235
 C966 C 0.73733 0.18072 0.17766
 C967 C 0.80428 0.24071 0.18388
 C968 C 0.79611 0.17850 0.24792
 H969 H 0.77606 0.28240 0.20851
 H970 H 0.76601 0.20740 0.28441
 H971 H 0.69402 0.28706 0.27774
 H972 H 0.69688 0.21054 0.20218
 H973 H 0.69485 0.25739 0.16407
 H974 H 0.66046 0.24007 0.19116
 H975 H 0.80657 0.22993 0.29401
 H976 H 0.77481 0.25846 0.31998
 H977 H 0.75901 0.28823 0.16610
 H978 H 0.72827 0.31916 0.19398
 H979 H 0.74132 0.16768 0.28767
 H980 H 0.71532 0.20067 0.31535
 H981 H 0.78260 0.31803 0.25631
 H982 H 0.81452 0.28664 0.23493
 H983 H 0.65813 0.20254 0.25175
 H984 H 0.68764 0.17030 0.22422
 C985 C 0.25647 0.11489 0.12833
 C986 C 0.24342 0.14042 0.12177
 N987 N 0.22908 0.14289 0.09727
 C988 C 0.22699 0.12095 0.07901
 C989 C 0.24035 0.09497 0.08522
 N990 N 0.25491 0.09321 0.10994
 N991 N 0.27002 0.11193 0.15324
 C992 C 0.27106 0.13347 0.17198
 C993 C 0.25838 0.15932 0.16532
 N994 N 0.24490 0.16218 0.14021
 H995 H 0.21579 0.12460 0.05966
 H996 H 0.28188 0.13053 0.19177
 C997 C 0.75789 0.63393 0.59813
 C998 C 0.73977 0.63113 0.62121
 N999 N 0.72134 0.60940 0.62214
 C1000 C 0.72041 0.59010 0.60114
 C1001 C 0.73916 0.59228 0.57846
 N1002 N 0.75752 0.61423 0.57752
 N1003 N 0.77576 0.65615 0.59689
 C1004 C 0.77644 0.67562 0.61781
 C1005 C 0.75897 0.67230 0.64134
 N1006 N 0.74099 0.65010 0.64239
 H1007 H 0.70587 0.57267 0.60262
 H1008 H 0.79089 0.69313 0.61640
 C1009 C 0.75329 0.88248 0.12556
 C1010 C 0.76720 0.85688 0.12100
 N1011 N 0.78087 0.85254 0.09645
 C1012 C 0.78150 0.87265 0.07622
 C1013 C 0.76734 0.89855 0.08043
 N1014 N 0.75337 0.90241 0.10517
 N1015 N 0.74027 0.88717 0.15046
 C1016 C 0.74058 0.86738 0.17104
 C1017 C 0.75414 0.84149 0.16637
 N1018 N 0.76707 0.83686 0.14130
 H1019 H 0.79200 0.86764 0.05678
 H1020 H 0.73011 0.87169 0.19075
 C1021 C 0.25677 0.38598 0.63931
 C1022 C 0.26545 0.35867 0.63217
 N1023 N 0.27357 0.35303 0.60547
 C1024 C 0.27341 0.37347 0.58555
 C1025 C 0.26446 0.40083 0.59255
 N1026 N 0.25624 0.40630 0.61936
 N1027 N 0.24899 0.39176 0.66606
 C1028 C 0.24948 0.37146 0.68607
 C1029 C 0.25785 0.34395 0.67897
 N1030 N 0.26561 0.33825 0.65206
 H1031 H 0.27959 0.36822 0.56434
 H1032 H 0.24309 0.37671 0.70723
 C1033 C 0.75471 0.12917 0.88125
 C1034 C 0.74763 0.12083 0.85390
 N1035 N 0.74125 0.09343 0.84889
 C1036 C 0.74172 0.07405 0.86997
 C1037 C 0.74924 0.08236 0.89735
 N1038 N 0.75552 0.10985 0.90210
 N1039 N 0.76089 0.15641 0.88659
 C1040 C 0.76043 0.17586 0.86580
 C1041 C 0.75372 0.16775 0.83814
 N1042 N 0.74746 0.14024 0.83286
 H1043 H 0.73693 0.05234 0.86523
 H1044 H 0.76568 0.19740 0.87087
 C1045 C 0.24564 0.62927 0.39127
 C1046 C 0.23697 0.62093 0.36438
 N1047 N 0.23000 0.59362 0.35975
 C1048 C 0.23136 0.57429 0.38081
 C1049 C 0.24043 0.58259 0.40770
 N1050 N 0.24733 0.60999 0.41208
 N1051 N 0.25230 0.65649 0.39621
 C1052 C 0.25073 0.67592 0.37545
 C1053 C 0.24234 0.66775 0.34830
 N1054 N 0.23569 0.64029 0.34341
 H1055 H 0.22603 0.55263 0.37642
 H1056 H 0.25631 0.69747 0.38008
 C1057 C 0.24654 0.88010 0.87265
 C1058 C 0.23870 0.85278 0.88039
 N1059 N 0.23042 0.84767 0.90719
 C1060 C 0.22966 0.86869 0.92661
 C1061 C 0.23787 0.89603 0.91894
 N1062 N 0.24612 0.90089 0.89204
 N1063 N 0.25438 0.88549 0.84585
 C1064 C 0.25477 0.86473 0.82630
 C1065 C 0.24724 0.83720 0.83394
 N1066 N 0.23941 0.83189 0.86094
 H1067 H 0.22325 0.86398 0.94787
 H1068 H 0.26116 0.86967 0.80508
 C1069 C 0.74019 0.37716 0.36468
 C1070 C 0.73134 0.35038 0.37317
 N1071 N 0.72464 0.34594 0.40054
 C1072 C 0.72640 0.36712 0.41974
 C1073 C 0.73549 0.39393 0.41118
 N1074 N 0.74213 0.39806 0.38376
 N1075 N 0.74668 0.38197 0.33747
 C1076 C 0.74474 0.36115 0.31816
 C1077 C 0.73605 0.33412 0.32643
 N1078 N 0.72957 0.32935 0.35390
 H1079 H 0.72121 0.36291 0.44142
 H1080 H 0.75019 0.36571 0.29659
 C1081 C 0.13635 0.24973 0.11344
 C1082 C 0.13225 0.23747 0.13982
 N1083 N 0.10772 0.22431 0.14562
 C1084 C 0.08688 0.22274 0.12622
 C1085 C 0.09039 0.23549 0.09964
 N1086 N 0.11526 0.24885 0.09419
 N1087 N 0.16136 0.26227 0.10755
 C1088 C 0.18237 0.26321 0.12704
 C1089 C 0.17784 0.25164 0.15377
 N1090 N 0.15282 0.23903 0.15937
 H1091 H 0.06743 0.21283 0.13239
 H1092 H 0.20208 0.27337 0.12195
 C1093 C 0.63913 0.76415 0.60145
 C1094 C 0.63503 0.74743 0.62536
 N1095 N 0.61159 0.73135 0.62751
 C1096 C 0.59188 0.73132 0.60686
 C1097 C 0.59549 0.74855 0.58322
 N1098 N 0.61907 0.76469 0.58109
 N1099 N 0.66313 0.77945 0.59901
 C1100 C 0.68318 0.77885 0.61947
 C1101 C 0.67869 0.76271 0.64374
 N1102 N 0.65466 0.74738 0.64600
 H1103 H 0.57321 0.71852 0.60917
 H1104 H 0.70217 0.79115 0.61703
 C1105 C 0.12569 0.74759 0.88055
 C1106 C 0.11991 0.73273 0.85584
 N1107 N 0.09530 0.71841 0.85365
 C1108 C 0.07628 0.71814 0.87508
 C1109 C 0.08194 0.73324 0.90009
 N1110 N 0.10669 0.74761 0.90164
 N1111 N 0.15035 0.76152 0.88335
 C1112 C 0.16974 0.76116 0.86251
 C1113 C 0.16417 0.74640 0.83752
 N1114 N 0.13917 0.73260 0.83467
 H1115 H 0.05688 0.70679 0.87197
 H1116 H 0.18927 0.77252 0.86537
 C1117 C 0.60161 0.24914 0.36505
 C1118 C 0.62988 0.24370 0.37159
 N1119 N 0.63750 0.23888 0.39856
 C1120 C 0.61810 0.23908 0.41944
 C1121 C 0.58963 0.24448 0.41319
 N1122 N 0.58210 0.24960 0.38599
 N1123 N 0.59421 0.25376 0.33785
 C1124 C 0.61384 0.25324 0.31696
 C1125 C 0.64225 0.24806 0.32360
 N1126 N 0.64938 0.24344 0.35088
 H1127 H 0.62497 0.23550 0.44079
 H1128 H 0.60737 0.25712 0.29553
 C1129 C 0.88239 0.74301 0.12786
 C1130 C 0.85781 0.75849 0.12265
 N1131 N 0.85509 0.77256 0.09811
 C1132 C 0.87588 0.77214 0.07855
 C1133 C 0.90084 0.75653 0.08345
 N1134 N 0.90303 0.74211 0.10814
 N1135 N 0.88547 0.72956 0.15278
 C1136 C 0.86509 0.73101 0.17278
 C1137 C 0.84026 0.74629 0.16750
 N1138 N 0.83721 0.75959 0.14239
 H1139 H 0.87208 0.78306 0.05906
 H1140 H 0.86818 0.72026 0.19255
 C1141 C 0.38758 0.24688 0.64215
 C1142 C 0.36468 0.26513 0.63814
 N1143 N 0.36386 0.28177 0.61502
 C1144 C 0.38482 0.28087 0.59561
 C1145 C 0.40741 0.26208 0.59915
 N1146 N 0.40818 0.24544 0.62241
 N1147 N 0.38886 0.23093 0.66574
 C1148 C 0.36822 0.23233 0.68548
 C1149 C 0.34488 0.25002 0.68118
 N1150 N 0.34372 0.26603 0.65750
 H1151 H 0.38351 0.29414 0.57722
 H1152 H 0.36976 0.21942 0.70411
 C1153 C 0.88750 0.24307 0.87479
 C1154 C 0.86264 0.25771 0.88084
 N1155 N 0.85956 0.27004 0.90634
 C1156 C 0.88028 0.26854 0.92605
 C1157 C 0.90536 0.25356 0.92018
 N1158 N 0.90786 0.24117 0.89451
 N1159 N 0.89112 0.23120 0.84920
 C1160 C 0.87088 0.23332 0.82923
 C1161 C 0.84570 0.24767 0.83524
 N1162 N 0.84210 0.25946 0.86106
 H1163 H 0.87648 0.27823 0.94619
 H1164 H 0.87428 0.22351 0.80900
 C1165 C 0.36225 0.76254 0.38750
 C1166 C 0.36352 0.74120 0.36714
 N1167 N 0.38376 0.72113 0.36895
 C1168 C 0.40295 0.72153 0.39010
 C1169 C 0.40216 0.74327 0.41008
 N1170 N 0.38180 0.76332 0.40821
 N1171 N 0.34144 0.78206 0.38627
 C1172 C 0.32177 0.78120 0.36557
 C1173 C 0.32339 0.76027 0.34486
 N1174 N 0.34426 0.74071 0.34612
 H1175 H 0.41917 0.70554 0.39085
 H1176 H 0.30515 0.79679 0.36514
 C1177 C 0.11808 0.13948 0.24586
 C1178 C 0.14488 0.12929 0.23885
 N1179 N 0.14788 0.10202 0.23091
 C1180 C 0.12526 0.08450 0.22961
 C1181 C 0.09831 0.09466 0.23670
 N1182 N 0.09561 0.12200 0.24476
 N1183 N 0.11484 0.16674 0.25348
 C1184 C 0.13721 0.18444 0.25428
 C1185 C 0.16421 0.17443 0.24727
 N1186 N 0.16738 0.14692 0.23980
 H1187 H 0.12844 0.06280 0.22361
 H1188 H 0.13389 0.20612 0.26031
 C1189 C 0.62244 0.63468 0.73379
 C1190 C 0.64913 0.62578 0.72487
 N1191 N 0.65326 0.59833 0.71811
 C1192 C 0.63192 0.57934 0.72003
 C1193 C 0.60527 0.58813 0.72954
 N1194 N 0.60133 0.61571 0.73612
 N1195 N 0.61808 0.66209 0.74028
 C1196 C 0.63930 0.68109 0.73847
 C1197 C 0.66632 0.67226 0.73012
 N1198 N 0.67052 0.64468 0.72345
 H1199 H 0.63591 0.55755 0.71489
 H1200 H 0.63517 0.70277 0.74402
 C1201 C 0.87940 0.11927 0.74839
 C1202 C 0.88516 0.14498 0.76142
 N1203 N 0.91022 0.14873 0.77458
 C1204 C 0.92983 0.12785 0.77545
 C1205 C 0.92439 0.10189 0.76204
 N1206 N 0.89912 0.09869 0.74874
 N1207 N 0.85402 0.11508 0.73596
 C1208 C 0.83407 0.13560 0.73594
 C1209 C 0.83996 0.16166 0.74850
 N1210 N 0.86550 0.16570 0.76092
 H1211 H 0.94963 0.13212 0.78572
 H1212 H 0.81400 0.13175 0.72589
 C1213 C 0.37667 0.63742 0.25341
 C1214 C 0.35356 0.63084 0.27053
 N1215 N 0.35465 0.60756 0.28696
 C1216 C 0.37773 0.59055 0.28703
 C1217 C 0.40085 0.59688 0.26964
 N1218 N 0.39953 0.62023 0.25313
 N1219 N 0.37596 0.66101 0.23746
 C1220 C 0.35327 0.67844 0.23794
 C1221 C 0.32993 0.67188 0.25487
 N1222 N 0.33063 0.64805 0.27075
 H1223 H 0.37770 0.57190 0.30000
 H1224 H 0.35342 0.69724 0.22517
 C1225 C 0.12229 0.87325 0.74274
 C1226 C 0.11787 0.85001 0.76017
 N1227 N 0.09543 0.84997 0.77779
 C1228 C 0.07747 0.87231 0.77914
 C1229 C 0.08212 0.89617 0.76198
 N1230 N 0.10443 0.89538 0.74401
 N1231 N 0.14506 0.87399 0.72566
 C1232 C 0.16400 0.85263 0.72557
 C1233 C 0.15997 0.82939 0.74328
 N1234 N 0.13675 0.82846 0.76006
 H1235 H 0.05986 0.87094 0.79333
 H1236 H 0.18232 0.85398 0.71214
 C1237 C 0.61727 0.38297 0.23336
 C1238 C 0.60813 0.35703 0.24397
 N1239 N 0.58208 0.35510 0.25552
 C1240 C 0.56491 0.37800 0.25727
 C1241 C 0.57419 0.40417 0.24702
 N1242 N 0.60016 0.40576 0.23505
 N1243 N 0.64348 0.38524 0.22241
 C1244 C 0.66122 0.36283 0.22194
 C1245 C 0.65241 0.33683 0.23290
 N1246 N 0.62584 0.33451 0.24347
 H1247 H 0.54425 0.37573 0.26651
 H1248 H 0.68216 0.36541 0.21340
 C1249 C 0.88726 0.87798 0.25343
 C1250 C 0.86181 0.88277 0.23942
 N1251 N 0.85767 0.90739 0.22572
 C1252 C 0.87794 0.92753 0.22522
 C1253 C 0.90360 0.92312 0.23963
 N1254 N 0.90723 0.89826 0.25349
 N1255 N 0.89174 0.85301 0.26650
 C1256 C 0.87173 0.83259 0.26628
 C1257 C 0.84588 0.83763 0.25283
 N1258 N 0.84160 0.86270 0.23972
 H1259 H 0.87332 0.94702 0.21455
 H1260 H 0.87572 0.81292 0.27697
 C1261 C 0.39027 0.37503 0.76493
 C1262 C 0.36291 0.38312 0.75738
 N1263 N 0.35810 0.40967 0.74809
 C1264 C 0.37951 0.42850 0.74584
 C1265 C 0.40703 0.42041 0.75330
 N1266 N 0.41155 0.39380 0.76281
 N1267 N 0.39525 0.34840 0.77381
 C1268 C 0.37407 0.32932 0.77530
 C1269 C 0.34659 0.33726 0.76763
 N1270 N 0.34171 0.36412 0.75896
 H1271 H 0.37499 0.44958 0.73864
 H1272 H 0.37871 0.30817 0.78225
 C1273 C 0.12083 0.25889 0.88410
 C1274 C 0.14529 0.24338 0.88955
 N1275 N 0.14706 0.22801 0.91346
 C1276 C 0.12539 0.22725 0.93214
 C1277 C 0.10066 0.24303 0.92690
 N1278 N 0.09949 0.25855 0.90287
 N1279 N 0.11849 0.27366 0.85989
 C1280 C 0.13961 0.27357 0.84072
 C1281 C 0.16439 0.25834 0.84619
 N1282 N 0.16668 0.24364 0.87064
 H1283 H 0.12813 0.21511 0.95107
 H1284 H 0.13719 0.28551 0.82154
 C1285 C 0.63132 0.76145 0.38539
 C1286 C 0.62400 0.75303 0.35809
 N1287 N 0.59754 0.74381 0.35278
 C1288 C 0.57808 0.74243 0.37358
 C1289 C 0.58534 0.75076 0.40100
 N1290 N 0.61184 0.76031 0.40613
 N1291 N 0.65793 0.77018 0.39083
 C1292 C 0.67766 0.77068 0.37022
 C1293 C 0.67041 0.76223 0.34284
 N1294 N 0.64362 0.75373 0.33745
 H1295 H 0.55705 0.73524 0.36866
 H1296 H 0.69878 0.77758 0.37521
 C1297 C 0.87584 0.73590 0.87166
 C1298 C 0.88398 0.74985 0.84713
 N1299 N 0.90949 0.76260 0.84616
 C1300 C 0.92717 0.76229 0.86869
 C1301 C 0.91909 0.74830 0.89364
 N1302 N 0.89351 0.73531 0.89395
 N1303 N 0.85012 0.72371 0.87315
 C1304 C 0.83197 0.72501 0.85117
 C1305 C 0.83998 0.73894 0.82642
 N1306 N 0.86599 0.75093 0.82493
 H1307 H 0.94738 0.77234 0.86652
 H1308 H 0.81149 0.71525 0.85301
 C1309 C 0.37370 0.25598 0.38444
 C1310 C 0.38259 0.24422 0.35893
 N1311 N 0.40893 0.23320 0.35703
 C1312 C 0.42674 0.23339 0.37949
 C1313 C 0.41788 0.24533 0.40508
 N1314 N 0.39147 0.25636 0.40667
 N1315 N 0.34739 0.26677 0.38668
 C1316 C 0.32939 0.26628 0.36457
 C1317 C 0.33807 0.25458 0.33883
 N1318 N 0.36466 0.24388 0.33662
 H1319 H 0.44770 0.22480 0.37717
 H1320 H 0.30854 0.27511 0.36710
 C1321 C 0.10475 0.74731 0.13596
 C1322 C 0.13240 0.73995 0.12850
 N1323 N 0.13801 0.73190 0.10178
 C1324 C 0.11723 0.73072 0.08219
 C1325 C 0.08947 0.73813 0.08950
 N1326 N 0.08399 0.74647 0.11631
 N1327 N 0.09906 0.75482 0.16283
 C1328 C 0.11972 0.75527 0.18261
 C1329 C 0.14753 0.74812 0.17520
 N1330 N 0.15314 0.74072 0.14816
 H1331 H 0.12241 0.72439 0.06099
 H1332 H 0.11447 0.76136 0.20385
 C1333 C 0.63186 0.26315 0.62129
 C1334 C 0.62442 0.25472 0.64849
 N1335 N 0.59742 0.24705 0.65383
 C1336 C 0.57756 0.24724 0.63317
 C1337 C 0.58498 0.25563 0.60581
 N1338 N 0.61207 0.26352 0.60077
 N1339 N 0.65886 0.27039 0.61568
 C1340 C 0.67891 0.26945 0.63600
 C1341 C 0.67169 0.26097 0.66336
 N1342 N 0.64442 0.25394 0.66895
 H1343 H 0.55621 0.24119 0.63815
 H1344 H 0.70028 0.27533 0.63080
 C1345 C 0.87497 0.24076 0.13018
 C1346 C 0.84822 0.23432 0.11948
 N1347 N 0.84538 0.22825 0.09174
 C1348 C 0.86808 0.22845 0.07426
 C1349 C 0.89483 0.23537 0.08496
 N1350 N 0.89741 0.24130 0.11275
 N1351 N 0.87818 0.24657 0.15779
 C1352 C 0.85579 0.24634 0.17537
 C1353 C 0.82874 0.24028 0.16487
 N1354 N 0.82560 0.23439 0.13701
 H1355 H 0.86515 0.22391 0.05220
 H1356 H 0.85911 0.25124 0.19731
 C1357 C 0.38375 0.74740 0.62949
 C1358 C 0.35647 0.75480 0.62090
 N1359 N 0.35186 0.76215 0.59373
 C1360 C 0.37334 0.76245 0.57480
 C1361 C 0.40066 0.75478 0.58339
 N1362 N 0.40500 0.74740 0.61061
 N1363 N 0.38868 0.74048 0.65660
 C1364 C 0.36754 0.74065 0.67569
 C1365 C 0.34005 0.74786 0.66728
 N1366 N 0.33514 0.75469 0.63992
 H1367 H 0.36901 0.76811 0.55324
 H1368 H 0.37220 0.73504 0.69719
 C1369 C 0.24626 0.13083 0.89312
 C1370 C 0.23928 0.12387 0.86533
 N1371 N 0.23127 0.09724 0.85910
 C1372 C 0.22978 0.07726 0.87942
 C1373 C 0.23676 0.08414 0.90734
 N1374 N 0.24502 0.11085 0.91339
 N1375 N 0.25392 0.15752 0.89946
 C1376 C 0.25490 0.17764 0.87927
 C1377 C 0.24808 0.17077 0.85132
 N1378 N 0.24049 0.14389 0.84506
 H1379 H 0.22361 0.05613 0.87373
 H1380 H 0.26112 0.19874 0.88503
 C1381 C 0.74597 0.63283 0.38509
 C1382 C 0.73803 0.62639 0.35746
 N1383 N 0.72907 0.60009 0.35114
 C1384 C 0.72768 0.57985 0.37120
 C1385 C 0.73587 0.58608 0.39894
 N1386 N 0.74494 0.61254 0.40510
 N1387 N 0.75467 0.65923 0.39144
 C1388 C 0.75586 0.67952 0.37138
 C1389 C 0.74829 0.67306 0.34354
 N1390 N 0.73953 0.64652 0.33735
 H1391 H 0.72091 0.55895 0.36536
 H1392 H 0.76296 0.70036 0.37708
 C1393 C 0.73924 0.12125 0.11166
 C1394 C 0.74903 0.11383 0.13844
 N1395 N 0.75996 0.08772 0.14256
 C1396 C 0.76156 0.06878 0.12111
 C1397 C 0.75153 0.07616 0.09428
 N1398 N 0.74056 0.10233 0.09045
 N1399 N 0.72882 0.14737 0.10711
 C1400 C 0.72784 0.16660 0.12812
 C1401 C 0.73751 0.15942 0.15511
 N1402 N 0.74780 0.13300 0.15968
 H1403 H 0.77014 0.04809 0.12511
 H1404 H 0.71947 0.18732 0.12376
 C1405 C 0.26647 0.62022 0.62414
 C1406 C 0.25014 0.61483 0.64809
 N1407 N 0.23551 0.59038 0.64982
 C1408 C 0.23627 0.57122 0.62860
 C1409 C 0.25264 0.57657 0.60462
 N1410 N 0.26750 0.60096 0.60312
 N1411 N 0.28018 0.64509 0.62179
 C1412 C 0.27814 0.66497 0.64218
 C1413 C 0.26185 0.65971 0.66624
 N1414 N 0.24838 0.63455 0.66871
 H1415 H 0.22415 0.55206 0.63033
 H1416 H 0.28916 0.68471 0.63965
 C1417 C 0.75979 0.86598 0.87354
 C1418 C 0.76762 0.87521 0.84673
 N1419 N 0.77440 0.90266 0.84279
 C1420 C 0.77359 0.92133 0.86448
 C1421 C 0.76534 0.91218 0.89132
 N1422 N 0.75868 0.88460 0.89501
 N1423 N 0.75321 0.83859 0.87769
 C1424 C 0.75397 0.81989 0.85618
 C1425 C 0.76140 0.82901 0.82909
 N1426 N 0.76810 0.85660 0.82507
 H1427 H 0.77872 0.94313 0.86061
 H1428 H 0.74846 0.79820 0.86018
 C1429 C 0.25945 0.38789 0.36408
 C1430 C 0.25270 0.36022 0.37169
 N1431 N 0.24518 0.35442 0.39847
 C1432 C 0.24385 0.37508 0.41806
 C1433 C 0.25034 0.40298 0.41063
 N1434 N 0.25828 0.40864 0.38372
 N1435 N 0.26677 0.39355 0.33712
 C1436 C 0.26753 0.37280 0.31742
 C1437 C 0.26074 0.34503 0.32504
 N1438 N 0.25358 0.33956 0.35212
 H1439 H 0.23815 0.36964 0.43935
 H1440 H 0.27338 0.37794 0.29609
 C1441 C 0.22541 0.87976 0.13353
 C1442 C 0.23682 0.85351 0.12634
 N1443 N 0.24750 0.84958 0.10019
 C1444 C 0.24746 0.87079 0.08099
 C1445 C 0.23616 0.89721 0.08825
 N1446 N 0.22528 0.90078 0.11441
 N1447 N 0.21511 0.88405 0.15967
 C1448 C 0.21593 0.86333 0.17919
 C1449 C 0.22755 0.83699 0.17229
 N1450 N 0.23757 0.83263 0.14582
 H1451 H 0.25590 0.86692 0.06027
 H1452 H 0.20765 0.86746 0.19995
 C1453 C 0.75505 0.38388 0.62662
 C1454 C 0.76233 0.35661 0.61802
 N1455 N 0.76752 0.35159 0.59042
 C1456 C 0.76564 0.37260 0.57106
 C1457 C 0.75787 0.39985 0.57966
 N1458 N 0.75282 0.40463 0.60734
 N1459 N 0.75008 0.38924 0.65407
 C1460 C 0.75196 0.36852 0.67348
 C1461 C 0.75888 0.34096 0.66510
 N1462 N 0.76388 0.33566 0.63740
 H1463 H 0.76950 0.36791 0.54918
 H1464 H 0.74764 0.37351 0.69522
 C1465 C 0.12049 0.13579 0.76094
 C1466 C 0.14826 0.12787 0.76725
 N1467 N 0.15411 0.10068 0.77345
 C1468 C 0.13343 0.08099 0.77380
 C1469 C 0.10549 0.08875 0.76758
 N1470 N 0.09979 0.11608 0.76106
 N1471 N 0.11467 0.16313 0.75512
 C1472 C 0.13534 0.18291 0.75538
 C1473 C 0.16325 0.17502 0.76157
 N1474 N 0.16891 0.14754 0.76730
 H1475 H 0.13884 0.05942 0.77859
 H1476 H 0.13003 0.20453 0.75067
 C1477 C 0.61629 0.64016 0.25950
 C1478 C 0.64358 0.63120 0.26649
 N1479 N 0.64789 0.60408 0.27416
 C1480 C 0.62618 0.58549 0.27520
 C1481 C 0.59873 0.59429 0.26807
 N1482 N 0.59462 0.62155 0.26024
 N1483 N 0.61190 0.66734 0.25209
 C1484 C 0.63353 0.68600 0.25135
 C1485 C 0.66102 0.67712 0.25809
 N1486 N 0.66531 0.64976 0.26549
 H1487 H 0.63049 0.56391 0.28092
 H1488 H 0.62928 0.70753 0.24534
 C1489 C 0.10633 0.87518 0.24761
 C1490 C 0.13167 0.88136 0.26125
 N1491 N 0.13640 0.90783 0.27071
 C1492 C 0.11689 0.92851 0.26723
 C1493 C 0.09146 0.92266 0.25294
 N1494 N 0.08719 0.89590 0.24351
 N1495 N 0.10123 0.84858 0.23867
 C1496 C 0.12056 0.82783 0.24252
 C1497 C 0.14641 0.83414 0.25542
 N1498 N 0.15129 0.86086 0.26449
 H1499 H 0.12197 0.94936 0.27461
 H1500 H 0.11614 0.80689 0.23484
 C1501 C 0.64058 0.38958 0.74636
 C1502 C 0.63209 0.36204 0.74004
 N1503 N 0.60506 0.35702 0.73247
 C1504 C 0.58607 0.37833 0.73084
 C1505 C 0.59444 0.40601 0.73718
 N1506 N 0.62158 0.41086 0.74498
 N1507 N 0.66771 0.39461 0.75363
 C1508 C 0.68680 0.37333 0.75483
 C1509 C 0.67833 0.34566 0.74866
 N1510 N 0.65105 0.34075 0.74144
 H1511 H 0.56454 0.37356 0.72519
 H1512 H 0.70832 0.37801 0.76065
 C1513 C 0.86280 0.12060 0.25455
 C1514 C 0.84513 0.12037 0.23089
 N1515 N 0.85140 0.10323 0.20897
 C1516 C 0.87471 0.08657 0.20947
 C1517 C 0.89261 0.08698 0.23303
 N1518 N 0.88594 0.10386 0.25512
 N1519 N 0.85731 0.13853 0.27599
 C1520 C 0.83517 0.15657 0.27472
 C1521 C 0.81754 0.15656 0.25105
 N1522 N 0.82283 0.13830 0.22966
 H1523 H 0.87929 0.07321 0.19165
 H1524 H 0.83160 0.17117 0.29179
 C1525 C 0.38841 0.63136 0.74759
 C1526 C 0.36211 0.62172 0.75686
 N1527 N 0.35923 0.59439 0.76460
 C1528 C 0.38147 0.57630 0.76340
 C1529 C 0.40772 0.58593 0.75370
 N1530 N 0.41036 0.61331 0.74605
 N1531 N 0.39169 0.65863 0.74024
 C1532 C 0.36980 0.67685 0.74167
 C1533 C 0.34321 0.66738 0.75061
 N1534 N 0.33997 0.63988 0.75797
 H1535 H 0.37853 0.55457 0.76938
 H1536 H 0.37313 0.69849 0.73557
 C1537 C 0.89552 0.86839 0.75254
 C1538 C 0.86761 0.87608 0.75842
 N1539 N 0.86171 0.90276 0.76654
 C1540 C 0.88248 0.92217 0.76911
 C1541 C 0.91052 0.91468 0.76308
 N1542 N 0.91629 0.88786 0.75478
 N1543 N 0.90138 0.84158 0.74471
 C1544 C 0.88056 0.82211 0.74239
 C1545 C 0.85249 0.82986 0.74790
 N1546 N 0.84680 0.85678 0.75580
 H1547 H 0.87703 0.94339 0.77525
 H1548 H 0.88586 0.80092 0.73599
 C1549 C 0.39324 0.37187 0.25129
 C1550 C 0.36906 0.37651 0.23501
 N1551 N 0.36597 0.40115 0.22101
 C1552 C 0.38588 0.42155 0.22277
 C1553 C 0.40974 0.41738 0.23975
 N1554 N 0.41282 0.39251 0.25362
 N1555 N 0.39649 0.34699 0.26487
 C1556 C 0.37649 0.32661 0.26313
 C1557 C 0.35182 0.33159 0.24757
 N1558 N 0.34881 0.35649 0.23383
 H1559 H 0.38267 0.44119 0.21177
 H1560 H 0.37944 0.30710 0.27443
   
