data_POSCAR
  _audit_creation_date              2014-09-24
  _audit_creation_method            'ToBaCCo'
  _symmetry_space_group_name_H-M    'P1'
  _symmetry_Int_Tables_number       1
  _symmetry_cell_setting            triclinic
  loop_
  _symmetry_equiv_pos_as_xyz
 x,y,z
_cell_length_a 76.0071
_cell_length_b 76.3398
_cell_length_c 71.6946
_cell_angle_alpha 89.937400
_cell_angle_beta 89.754700
_cell_angle_gamma 90.015400
loop_
  _atom_site_label
  _atom_site_type_symbol
  _atom_site_fract_x
  _atom_site_fract_y
  _atom_site_fract_z
C1 C 0.35256 0.35369 0.32675
 C2 C 0.36803 0.34639 0.31927
 C3 C 0.37613 0.33190 0.32790
 C4 C 0.36891 0.32535 0.34463
 C5 C 0.35319 0.33211 0.35188
 C6 C 0.34487 0.34621 0.34283
 C7 C 0.34443 0.36810 0.31816
 C8 C 0.32845 0.37486 0.32514
 C9 C 0.32058 0.36679 0.34076
 C10 C 0.32872 0.35264 0.34971
 C11 C 0.32078 0.34460 0.36522
 C12 C 0.32896 0.33044 0.37430
 C13 C 0.34541 0.32458 0.36773
 H14 H 0.37334 0.35160 0.30637
 H15 H 0.37530 0.31464 0.35186
 H16 H 0.35069 0.37414 0.30618
 H17 H 0.30798 0.37140 0.34589
 H18 H 0.30800 0.34915 0.36992
 H19 H 0.35209 0.31395 0.37478
 C20 C 0.35307 0.85418 -0.17510
 C21 C 0.36817 0.84643 -0.18285
 C22 C 0.37487 0.83040 -0.17592
 C23 C 0.36589 0.82243 -0.16080
 C24 C 0.35096 0.83018 -0.15276
 C25 C 0.34455 0.84612 -0.15990
 C26 C 0.34638 0.86989 -0.18240
 C27 C 0.33100 0.87771 -0.17496
 C28 C 0.32289 0.86952 -0.15943
 C29 C 0.32953 0.85392 -0.15193
 C30 C 0.32113 0.84586 -0.13671
 C31 C 0.32730 0.82985 -0.12954
 C32 C 0.34220 0.82206 -0.13780
 H33 H 0.37492 0.85337 -0.19393
 H34 H 0.36992 0.80976 -0.15558
 H35 H 0.35357 0.87612 -0.19366
 H36 H 0.31073 0.87455 -0.15365
 H37 H 0.30985 0.85220 -0.13035
 H38 H 0.34691 0.80953 -0.13274
 C39 C 0.85318 0.35375 -0.17326
 C40 C 0.86909 0.34717 -0.18038
 C41 C 0.87686 0.33184 -0.17298
 C42 C 0.86847 0.32374 -0.15755
 C43 C 0.85268 0.33031 -0.15020
 C44 C 0.84489 0.34523 -0.15822
 C45 C 0.84544 0.36873 -0.18109
 C46 C 0.82916 0.37526 -0.17444
 C47 C 0.82097 0.36631 -0.15944
 C48 C 0.82873 0.35152 -0.15130
 C49 C 0.82037 0.34274 -0.13650
 C50 C 0.82813 0.32793 -0.12820
 C51 C 0.84439 0.32190 -0.13514
 H52 H 0.87548 0.35438 -0.19151
 H53 H 0.87348 0.31165 -0.15177
 H54 H 0.85256 0.37549 -0.19204
 H55 H 0.80813 0.37025 -0.15441
 H56 H 0.80768 0.34734 -0.13162
 H57 H 0.85070 0.31069 -0.12874
 C58 C 0.85208 0.85300 0.32554
 C59 C 0.86746 0.84567 0.31784
 C60 C 0.87562 0.83113 0.32629
 C61 C 0.86852 0.82448 0.34303
 C62 C 0.85291 0.83127 0.35051
 C63 C 0.84459 0.84551 0.34169
 C64 C 0.84394 0.86751 0.31714
 C65 C 0.82813 0.87465 0.32443
 C66 C 0.82055 0.86640 0.34024
 C67 C 0.82866 0.85207 0.34889
 C68 C 0.82080 0.84393 0.36441
 C69 C 0.82892 0.82956 0.37320
 C70 C 0.84524 0.82364 0.36637
 H71 H 0.87267 0.85094 0.30491
 H72 H 0.87494 0.81370 0.35011
 H73 H 0.85051 0.87352 0.30535
 H74 H 0.80791 0.87058 0.34562
 H75 H 0.80813 0.84854 0.36933
 H76 H 0.85190 0.81287 0.37320
 C77 C 0.64828 0.64787 0.32300
 C78 C 0.63275 0.65504 0.31566
 C79 C 0.62456 0.66950 0.32429
 C80 C 0.63183 0.67621 0.34085
 C81 C 0.64761 0.66958 0.34796
 C82 C 0.65597 0.65545 0.33894
 C83 C 0.65642 0.63342 0.31447
 C84 C 0.67236 0.62666 0.32140
 C85 C 0.68024 0.63483 0.33687
 C86 C 0.67211 0.64906 0.34576
 C87 C 0.68000 0.65715 0.36119
 C88 C 0.67177 0.67133 0.37026
 C89 C 0.65536 0.67718 0.36371
 H90 H 0.62742 0.64972 0.30288
 H91 H 0.62539 0.68690 0.34809
 H92 H 0.65015 0.62729 0.30260
 H93 H 0.69280 0.63019 0.34198
 H94 H 0.69274 0.65259 0.36588
 H95 H 0.64864 0.68782 0.37075
 C96 C 0.65064 0.14912 -0.17786
 C97 C 0.63543 0.15663 -0.18558
 C98 C 0.62723 0.17110 -0.17701
 C99 C 0.63416 0.17756 -0.16019
 C100 C 0.64960 0.17056 -0.15267
 C101 C 0.65794 0.15634 -0.16156
 C102 C 0.65874 0.13463 -0.18634
 C103 C 0.67433 0.12721 -0.17899
 C104 C 0.68176 0.13518 -0.16301
 C105 C 0.67368 0.14952 -0.15428
 C106 C 0.68133 0.15737 -0.13855
 C107 C 0.67318 0.17170 -0.12966
 C108 C 0.65706 0.17789 -0.13663
 H109 H 0.63035 0.15153 -0.19858
 H110 H 0.62772 0.18831 -0.15305
 H111 H 0.65227 0.12881 -0.19823
 H112 H 0.69423 0.13074 -0.15754
 H113 H 0.69384 0.15254 -0.13352
 H114 H 0.65036 0.18861 -0.12971
 C115 C 0.14895 0.64841 -0.17395
 C116 C 0.13428 0.65623 -0.18242
 C117 C 0.12744 0.67219 -0.17570
 C118 C 0.13568 0.68036 -0.16046
 C119 C 0.15011 0.67255 -0.15165
 C120 C 0.15667 0.65645 -0.15832
 C121 C 0.15619 0.63286 -0.18112
 C122 C 0.17107 0.62493 -0.17278
 C123 C 0.17782 0.63271 -0.15638
 C124 C 0.17102 0.64846 -0.14942
 C125 C 0.17865 0.65646 -0.13383
 C126 C 0.17260 0.67279 -0.12739
 C127 C 0.15823 0.68072 -0.13641
 H128 H 0.12806 0.64974 -0.19409
 H129 H 0.13094 0.69291 -0.15550
 H130 H 0.15066 0.62770 -0.19385
 H131 H 0.18831 0.62654 -0.14864
 H132 H 0.18946 0.65000 -0.12681
 H133 H 0.15354 0.69341 -0.13181
 C134 C 0.14744 0.14708 0.32753
 C135 C 0.13276 0.15476 0.31891
 C136 C 0.12532 0.17052 0.32574
 C137 C 0.13341 0.17856 0.34128
 C138 C 0.14794 0.17095 0.35008
 C139 C 0.15484 0.15506 0.34333
 C140 C 0.15499 0.13168 0.32032
 C141 C 0.16988 0.12387 0.32878
 C142 C 0.17637 0.13165 0.34530
 C143 C 0.16927 0.14725 0.35229
 C144 C 0.17672 0.15535 0.36794
 C145 C 0.17042 0.17161 0.37433
 C146 C 0.15590 0.17925 0.36534
 H147 H 0.12682 0.14788 0.30735
 H148 H 0.12896 0.19117 0.34629
 H149 H 0.14969 0.12654 0.30747
 H150 H 0.18689 0.12560 0.35310
 H151 H 0.18763 0.14907 0.37495
 H152 H 0.15100 0.19187 0.36992
 C153 C 0.64587 0.35606 0.67174
 C154 C 0.62988 0.34949 0.67866
 C155 C 0.62267 0.33389 0.67154
 C156 C 0.63127 0.32542 0.65664
 C157 C 0.64708 0.33204 0.64933
 C158 C 0.65460 0.34721 0.65714
 C159 C 0.65344 0.37113 0.67948
 C160 C 0.66992 0.37724 0.67323
 C161 C 0.67857 0.36824 0.65871
 C162 C 0.67095 0.35339 0.65053
 C163 C 0.67957 0.34447 0.63603
 C164 C 0.67195 0.32957 0.62777
 C165 C 0.65564 0.32349 0.63457
 H166 H 0.62320 0.35642 0.68981
 H167 H 0.62606 0.31328 0.65113
 H168 H 0.64651 0.37805 0.69046
 H169 H 0.69141 0.37257 0.65397
 H170 H 0.69234 0.34906 0.63134
 H171 H 0.64946 0.31218 0.62826
 C172 C 0.64632 0.85143 1.17477
 C173 C 0.63177 0.84320 1.18316
 C174 C 0.62457 0.82757 1.17574
 C175 C 0.63280 0.82028 1.15977
 C176 C 0.64717 0.82850 1.15112
 C177 C 0.65378 0.84425 1.15847
 C178 C 0.65369 0.86663 1.18260
 C179 C 0.66826 0.87491 1.17413
 C180 C 0.67489 0.86812 1.15727
 C181 C 0.66805 0.85270 1.14965
 C182 C 0.67564 0.84535 1.13363
 C183 C 0.66967 0.82922 1.12661
 C184 C 0.65529 0.82095 1.13541
 H185 H 0.62577 0.84957 1.19506
 H186 H 0.62857 0.80779 1.15426
 H187 H 0.64845 0.87162 1.19562
 H188 H 0.68568 0.87463 1.15019
 H189 H 0.68642 0.85211 1.12678
 H190 H 0.65063 0.80843 1.13034
 C191 C 0.14745 0.35095 1.17369
 C192 C 0.13289 0.34293 1.18229
 C193 C 0.12563 0.32720 1.17520
 C194 C 0.13384 0.31953 1.15943
 C195 C 0.14824 0.32751 1.15061
 C196 C 0.15489 0.34341 1.15756
 C197 C 0.15485 0.36630 1.18113
 C198 C 0.16940 0.37440 1.17243
 C199 C 0.17602 0.36722 1.15574
 C200 C 0.16917 0.35163 1.14853
 C201 C 0.17675 0.34389 1.13271
 C202 C 0.17077 0.32759 1.12615
 C203 C 0.15636 0.31958 1.13514
 H204 H 0.12691 0.34953 1.19406
 H205 H 0.12956 0.30694 1.15423
 H206 H 0.14961 0.37156 1.19404
 H207 H 0.18681 0.37357 1.14849
 H208 H 0.18754 0.35048 1.12570
 H209 H 0.15168 0.30693 1.13041
 C210 C 0.14681 0.85427 0.67422
 C211 C 0.13154 0.84669 0.68180
 C212 C 0.12489 0.83061 0.67499
 C213 C 0.13401 0.82249 0.66006
 C214 C 0.14913 0.83008 0.65220
 C215 C 0.15559 0.84598 0.65933
 C216 C 0.15352 0.86997 0.68147
 C217 C 0.16917 0.87730 0.67434
 C218 C 0.17769 0.86900 0.65928
 C219 C 0.17095 0.85350 0.65167
 C220 C 0.17950 0.84528 0.63667
 C221 C 0.17316 0.82937 0.62942
 C222 C 0.15803 0.82179 0.63747
 H223 H 0.12467 0.85377 0.69267
 H224 H 0.12997 0.80981 0.65491
 H225 H 0.14661 0.87641 0.69280
 H226 H 0.18989 0.87429 0.65380
 H227 H 0.19100 0.85143 0.63052
 H228 H 0.15324 0.80931 0.63241
 C229 C 0.35287 0.64573 0.67587
 C230 C 0.36810 0.65328 0.68339
 C231 C 0.37431 0.66957 0.67690
 C232 C 0.36518 0.67809 0.66245
 C233 C 0.35018 0.67050 0.65451
 C234 C 0.34392 0.65432 0.66131
 C235 C 0.34631 0.62985 0.68288
 C236 C 0.33064 0.62260 0.67588
 C237 C 0.32201 0.63112 0.66107
 C238 C 0.32862 0.64682 0.65366
 C239 C 0.32002 0.65524 0.63887
 C240 C 0.32626 0.67132 0.63184
 C241 C 0.34124 0.67896 0.63999
 H242 H 0.37511 0.64645 0.69434
 H243 H 0.36958 0.69079 0.65754
 H244 H 0.35335 0.62323 0.69395
 H245 H 0.30982 0.62587 0.65566
 H246 H 0.30861 0.64909 0.63268
 H247 H 0.34593 0.69157 0.63513
 C248 C 0.35275 0.14827 1.17620
 C249 C 0.36810 0.15578 1.18365
 C250 C 0.37609 0.17062 1.17526
 C251 C 0.36864 0.17705 1.15854
 C252 C 0.35312 0.16998 1.15128
 C253 C 0.34506 0.15564 1.16020
 C254 C 0.34485 0.13364 1.18473
 C255 C 0.32911 0.12626 1.17767
 C256 C 0.32135 0.13437 1.16196
 C257 C 0.32921 0.14881 1.15319
 C258 C 0.32124 0.15672 1.13768
 C259 C 0.32917 0.17112 1.12869
 C260 C 0.34537 0.17735 1.13539
 H261 H 0.37303 0.15050 1.19661
 H262 H 0.37490 0.18751 1.15078
 H263 H 0.35155 0.12771 1.19642
 H264 H 0.30876 0.12998 1.15674
 H265 H 0.30866 0.15186 1.13287
 H266 H 0.35190 0.18816 1.12840
 C267 C 0.85296 0.64929 1.17370
 C268 C 0.86800 0.65702 1.18147
 C269 C 0.87408 0.67342 1.17517
 C270 C 0.86496 0.68193 1.16070
 C271 C 0.85018 0.67415 1.15247
 C272 C 0.84415 0.65779 1.15902
 C273 C 0.84658 0.63324 1.18051
 C274 C 0.83121 0.62545 1.17309
 C275 C 0.82289 0.63402 1.15798
 C276 C 0.82924 0.64998 1.15095
 C277 C 0.82067 0.65837 1.13612
 C278 C 0.82655 0.67471 1.12944
 C279 C 0.84126 0.68257 1.13789
 H280 H 0.87499 0.65019 1.19243
 H281 H 0.86922 0.69473 1.15594
 H282 H 0.85397 0.62675 1.19137
 H283 H 0.81079 0.62898 1.15219
 H284 H 0.80952 0.65200 1.12963
 H285 H 0.84574 0.69533 1.13323
 C286 C 0.85370 0.14759 0.67207
 C287 C 0.86874 0.15522 0.67992
 C288 C 0.87480 0.17167 0.67377
 C289 C 0.86579 0.18025 0.65928
 C290 C 0.85099 0.17258 0.65101
 C291 C 0.84484 0.15625 0.65750
 C292 C 0.84722 0.13159 0.67883
 C293 C 0.83167 0.12429 0.67160
 C294 C 0.82316 0.13285 0.65674
 C295 C 0.82971 0.14868 0.64957
 C296 C 0.82118 0.15720 0.63481
 C297 C 0.82728 0.17347 0.62811
 C298 C 0.84211 0.18113 0.63651
 H299 H 0.87568 0.14834 0.69088
 H300 H 0.87011 0.19306 0.65463
 H301 H 0.85420 0.12495 0.68992
 H302 H 0.81107 0.12753 0.65113
 H303 H 0.80988 0.15101 0.62841
 H304 H 0.84669 0.19388 0.63192
 C305 C 0.35277 0.35294 0.67644
 C306 C 0.34527 0.36810 0.68417
 C307 C 0.32897 0.37443 0.67778
 C308 C 0.32037 0.36548 0.66329
 C309 C 0.32789 0.35056 0.65515
 C310 C 0.34410 0.34420 0.66180
 C311 C 0.36867 0.34624 0.68331
 C312 C 0.37588 0.33069 0.67601
 C313 C 0.36729 0.32230 0.66113
 C314 C 0.35156 0.32901 0.65391
 C315 C 0.34305 0.32059 0.63909
 C316 C 0.32690 0.32689 0.63227
 C317 C 0.31933 0.34180 0.64060
 H318 H 0.35215 0.37496 0.69517
 H319 H 0.30764 0.36996 0.65848
 H320 H 0.37533 0.35307 0.69448
 H321 H 0.37251 0.31019 0.65551
 H322 H 0.34917 0.30925 0.63273
 H323 H 0.30668 0.34654 0.63588
 C324 C 0.35377 0.85487 0.17499
 C325 C 0.34726 0.87069 0.18221
 C326 C 0.33165 0.87813 0.17523
 C327 C 0.32304 0.86986 0.16028
 C328 C 0.32958 0.85423 0.15269
 C329 C 0.34481 0.84653 0.16028
 C330 C 0.36893 0.84711 0.18246
 C331 C 0.37504 0.83086 0.17577
 C332 C 0.36589 0.82261 0.16118
 C333 C 0.35096 0.83040 0.15330
 C334 C 0.34199 0.82219 0.13867
 C335 C 0.32706 0.83000 0.13060
 C336 C 0.32094 0.84605 0.13779
 H337 H 0.35427 0.87710 0.19343
 H338 H 0.31089 0.87524 0.15489
 H339 H 0.37595 0.85374 0.19352
 H340 H 0.37018 0.80993 0.15613
 H341 H 0.34658 0.80959 0.13368
 H342 H 0.30957 0.85234 0.13167
 C343 C 0.85412 0.35229 0.17421
 C344 C 0.84750 0.36822 0.18103
 C345 C 0.83187 0.37541 0.17384
 C346 C 0.82333 0.36675 0.15908
 C347 C 0.82997 0.35099 0.15190
 C348 C 0.84524 0.34357 0.15970
 C349 C 0.86935 0.34483 0.18186
 C350 C 0.87562 0.32852 0.17554
 C351 C 0.86653 0.31986 0.16117
 C352 C 0.85153 0.32735 0.15311
 C353 C 0.84263 0.31873 0.13869
 C354 C 0.82765 0.32624 0.13042
 C355 C 0.82142 0.34242 0.13719
 H356 H 0.85446 0.37492 0.19208
 H357 H 0.81117 0.37195 0.15353
 H358 H 0.87632 0.35175 0.19276
 H359 H 0.87095 0.30713 0.15642
 H360 H 0.84732 0.30606 0.13404
 H361 H 0.81003 0.34851 0.13089
 C362 C 0.85318 0.85171 0.67408
 C363 C 0.84651 0.86762 0.68089
 C364 C 0.83083 0.87473 0.67373
 C365 C 0.82229 0.86602 0.65901
 C366 C 0.82899 0.85028 0.65184
 C367 C 0.84430 0.84293 0.65961
 C368 C 0.86846 0.84434 0.68170
 C369 C 0.87478 0.82804 0.67539
 C370 C 0.86570 0.81932 0.66106
 C371 C 0.85065 0.82672 0.65302
 C372 C 0.84174 0.81805 0.63863
 C373 C 0.82670 0.82549 0.63040
 C374 C 0.82044 0.84166 0.63717
 H375 H 0.85347 0.87437 0.69191
 H376 H 0.81009 0.87116 0.65349
 H377 H 0.87542 0.85132 0.69255
 H378 H 0.87018 0.80660 0.65632
 H379 H 0.84647 0.80539 0.63397
 H380 H 0.80901 0.84771 0.63088
 C381 C 0.64547 0.64503 0.67446
 C382 C 0.65317 0.62998 0.68216
 C383 C 0.66955 0.62385 0.67563
 C384 C 0.67800 0.63287 0.66098
 C385 C 0.67026 0.64768 0.65285
 C386 C 0.65398 0.65384 0.65967
 C387 C 0.62953 0.65157 0.68153
 C388 C 0.62214 0.66706 0.67431
 C389 C 0.63056 0.67551 0.65925
 C390 C 0.64632 0.66894 0.65182
 C391 C 0.65468 0.67744 0.63687
 C392 C 0.67091 0.67136 0.62989
 C393 C 0.67868 0.65654 0.63818
 H394 H 0.64640 0.62307 0.69327
 H395 H 0.69078 0.62855 0.65606
 H396 H 0.62300 0.64469 0.69283
 H397 H 0.62521 0.68757 0.65368
 H398 H 0.64839 0.68870 0.63055
 H399 H 0.69140 0.65197 0.63335
 C400 C 0.64424 0.14479 0.17376
 C401 C 0.65154 0.12948 0.18134
 C402 C 0.66782 0.12303 0.17484
 C403 C 0.67656 0.13201 0.16036
 C404 C 0.66923 0.14708 0.15236
 C405 C 0.65306 0.15355 0.15913
 C406 C 0.62842 0.15166 0.18081
 C407 C 0.62146 0.16741 0.17372
 C408 C 0.63017 0.17578 0.15881
 C409 C 0.64581 0.16891 0.15142
 C410 C 0.65448 0.17739 0.13665
 C411 C 0.67063 0.17103 0.12975
 C412 C 0.67798 0.15593 0.13788
 H413 H 0.64455 0.12262 0.19233
 H414 H 0.68928 0.12746 0.15549
 H415 H 0.62167 0.14484 0.19200
 H416 H 0.62517 0.18804 0.15336
 H417 H 0.64850 0.18886 0.13043
 H418 H 0.69062 0.15112 0.13311
 C419 C 0.14592 0.64581 0.17345
 C420 C 0.15251 0.62988 0.18026
 C421 C 0.16828 0.62278 0.17314
 C422 C 0.17696 0.63151 0.15844
 C423 C 0.17034 0.64726 0.15124
 C424 C 0.15495 0.65460 0.15899
 C425 C 0.13060 0.65324 0.18108
 C426 C 0.12441 0.66959 0.17479
 C427 C 0.13364 0.67830 0.16046
 C428 C 0.14871 0.67085 0.15241
 C429 C 0.15775 0.67952 0.13803
 C430 C 0.17282 0.67205 0.12979
 C431 C 0.17904 0.65589 0.13658
 H432 H 0.14543 0.62311 0.19126
 H433 H 0.18923 0.62640 0.15296
 H434 H 0.12354 0.64628 0.19196
 H435 H 0.12928 0.69106 0.15573
 H436 H 0.15308 0.69219 0.13336
 H437 H 0.19053 0.64986 0.13031
 C438 C 0.14400 0.14484 0.67373
 C439 C 0.15160 0.12968 0.68129
 C440 C 0.16801 0.12360 0.67482
 C441 C 0.17659 0.13274 0.66035
 C442 C 0.16896 0.14768 0.65238
 C443 C 0.15266 0.15382 0.65915
 C444 C 0.12805 0.15135 0.68077
 C445 C 0.12080 0.16699 0.67375
 C446 C 0.12936 0.17561 0.65891
 C447 C 0.14514 0.16907 0.65150
 C448 C 0.15367 0.17777 0.63678
 C449 C 0.16992 0.17171 0.62985
 C450 C 0.17754 0.15672 0.63793
 H451 H 0.14474 0.12266 0.69227
 H452 H 0.18939 0.12844 0.65549
 H453 H 0.12140 0.14435 0.69191
 H454 H 0.12412 0.18779 0.65351
 H455 H 0.14751 0.18918 0.63062
 H456 H 0.19027 0.15215 0.63313
 C457 C 0.35089 0.64521 0.32518
 C458 C 0.34339 0.63001 0.31752
 C459 C 0.32868 0.62200 0.32602
 C460 C 0.32204 0.62908 0.34276
 C461 C 0.32901 0.64453 0.35020
 C462 C 0.34339 0.65272 0.34132
 C463 C 0.36558 0.65320 0.31678
 C464 C 0.37263 0.66884 0.32403
 C465 C 0.36454 0.67655 0.33970
 C466 C 0.35010 0.66855 0.34846
 C467 C 0.34211 0.67630 0.36409
 C468 C 0.32770 0.66823 0.37303
 C469 C 0.32150 0.65212 0.36615
 H470 H 0.34867 0.62483 0.30460
 H471 H 0.31116 0.62276 0.34988
 H472 H 0.37163 0.64706 0.30474
 H473 H 0.36938 0.68890 0.34506
 H474 H 0.34691 0.68883 0.36901
 H475 H 0.31065 0.64555 0.37307
 C476 C 0.35675 0.14452 0.82608
 C477 C 0.34918 0.12942 0.81837
 C478 C 0.33279 0.12322 0.82480
 C479 C 0.32420 0.13220 0.83935
 C480 C 0.33180 0.14707 0.84746
 C481 C 0.34809 0.15332 0.84075
 C482 C 0.37268 0.15115 0.81908
 C483 C 0.37991 0.16674 0.82623
 C484 C 0.37135 0.17516 0.84119
 C485 C 0.35559 0.16850 0.84856
 C486 C 0.34706 0.17700 0.86339
 C487 C 0.33081 0.17083 0.87026
 C488 C 0.32321 0.15593 0.86200
 H489 H 0.35604 0.12253 0.80732
 H490 H 0.31141 0.12782 0.84418
 H491 H 0.37933 0.14427 0.80787
 H492 H 0.37658 0.18729 0.84671
 H493 H 0.35320 0.18834 0.86968
 H494 H 0.31048 0.15128 0.86674
 C495 C 0.85485 0.64523 0.82661
 C496 C 0.84821 0.62939 0.81968
 C497 C 0.83241 0.62230 0.82672
 C498 C 0.82377 0.63091 0.84151
 C499 C 0.83045 0.64658 0.84882
 C500 C 0.84586 0.65394 0.84112
 C501 C 0.87018 0.65265 0.81902
 C502 C 0.87643 0.66894 0.82536
 C503 C 0.86726 0.67758 0.83977
 C504 C 0.85215 0.67012 0.84779
 C505 C 0.84312 0.67873 0.86221
 C506 C 0.82798 0.67125 0.87037
 C507 C 0.82176 0.65513 0.86351
 H508 H 0.85525 0.62270 0.80861
 H509 H 0.81149 0.62578 0.84694
 H510 H 0.87722 0.64573 0.80811
 H511 H 0.87169 0.69029 0.84456
 H512 H 0.84781 0.69136 0.86694
 H513 H 0.81025 0.64908 0.86973
 C514 C 0.85286 0.14473 0.32537
 C515 C 0.84523 0.12956 0.31786
 C516 C 0.82881 0.12349 0.32434
 C517 C 0.82023 0.13268 0.33876
 C518 C 0.82788 0.14762 0.34669
 C519 C 0.84421 0.15373 0.33992
 C520 C 0.86887 0.15119 0.31836
 C521 C 0.87621 0.16677 0.32541
 C522 C 0.86762 0.17541 0.34020
 C523 C 0.85178 0.16894 0.34756
 C524 C 0.84328 0.17764 0.36228
 C525 C 0.82701 0.17162 0.36922
 C526 C 0.81933 0.15667 0.36114
 H527 H 0.85210 0.12251 0.30693
 H528 H 0.80742 0.12840 0.34364
 H529 H 0.87552 0.14416 0.30726
 H530 H 0.87292 0.18755 0.34563
 H531 H 0.84950 0.18900 0.36845
 H532 H 0.80659 0.15212 0.36595
 C533 C 0.64696 0.35501 0.32413
 C534 C 0.65443 0.37020 0.31638
 C535 C 0.67078 0.37651 0.32266
 C536 C 0.67946 0.36749 0.33709
 C537 C 0.67198 0.35252 0.34524
 C538 C 0.65571 0.34620 0.33869
 C539 C 0.63100 0.34833 0.31735
 C540 C 0.62382 0.33273 0.32465
 C541 C 0.63251 0.32429 0.33945
 C542 C 0.64829 0.33097 0.34657
 C543 C 0.65688 0.32246 0.36128
 C544 C 0.67310 0.32866 0.36800
 C545 C 0.68062 0.34364 0.35971
 H546 H 0.64747 0.37710 0.30545
 H547 H 0.69222 0.37195 0.34182
 H548 H 0.62428 0.35520 0.30624
 H549 H 0.62735 0.31214 0.34506
 H550 H 0.65076 0.31110 0.36764
 H551 H 0.69331 0.34835 0.36437
 C552 C 0.64723 0.85391 0.82312
 C553 C 0.65386 0.86974 0.81603
 C554 C 0.66953 0.87700 0.82305
 C555 C 0.67810 0.86850 0.83791
 C556 C 0.67144 0.85285 0.84538
 C557 C 0.65613 0.84536 0.83774
 C558 C 0.63195 0.84639 0.81565
 C559 C 0.62565 0.83018 0.82228
 C560 C 0.63476 0.82169 0.83675
 C561 C 0.64981 0.82924 0.84463
 C562 C 0.65871 0.82081 0.85920
 C563 C 0.67370 0.82843 0.86734
 C564 C 0.67999 0.84447 0.86024
 H565 H 0.64687 0.87632 0.80490
 H566 H 0.69029 0.87376 0.84334
 H567 H 0.62496 0.85320 0.80467
 H568 H 0.63030 0.80903 0.84175
 H569 H 0.65397 0.80823 0.86411
 H570 H 0.69141 0.85062 0.86642
 C571 C 0.14523 0.35356 0.82799
 C572 C 0.15167 0.36961 0.82131
 C573 C 0.16734 0.37679 0.82841
 C574 C 0.17602 0.36806 0.84303
 C575 C 0.16953 0.35218 0.85009
 C576 C 0.15428 0.34472 0.84231
 C577 C 0.13007 0.34604 0.82029
 C578 C 0.12405 0.32954 0.82636
 C579 C 0.13326 0.32079 0.84058
 C580 C 0.14820 0.32833 0.84869
 C581 C 0.15729 0.31959 0.86291
 C582 C 0.17226 0.32714 0.87116
 C583 C 0.17827 0.34348 0.86460
 H584 H 0.14459 0.37638 0.81038
 H585 H 0.18821 0.37327 0.84851
 H586 H 0.12299 0.35303 0.80951
 H587 H 0.12900 0.30793 0.84515
 H588 H 0.15277 0.30680 0.86740
 H589 H 0.18966 0.34958 0.87089
 C590 C 0.14788 0.85289 0.32663
 C591 C 0.15454 0.86882 0.31979
 C592 C 0.17024 0.87594 0.32690
 C593 C 0.17881 0.86721 0.34159
 C594 C 0.17214 0.85146 0.34880
 C595 C 0.15680 0.84411 0.34109
 C596 C 0.13259 0.84550 0.31905
 C597 C 0.12629 0.82918 0.32538
 C598 C 0.13540 0.82047 0.33972
 C599 C 0.15046 0.82789 0.34772
 C600 C 0.15939 0.81924 0.36213
 C601 C 0.17444 0.82672 0.37032
 C602 C 0.18072 0.84285 0.36347
 H603 H 0.14755 0.87558 0.30878
 H604 H 0.19103 0.87234 0.34708
 H605 H 0.12560 0.85249 0.30821
 H606 H 0.13094 0.80774 0.34449
 H607 H 0.15465 0.80661 0.36688
 H608 H 0.19216 0.84890 0.36972
 O609 O 0.24732 1.01804 0.27612
 O610 O 0.27309 0.98365 0.25286
 O611 O 0.27334 1.01799 0.25286
 O612 O 0.24672 0.98394 0.27619
 O613 O 0.22869 0.98349 0.25215
 O614 O 0.25443 1.01845 0.22960
 O615 O 0.25501 0.98446 0.22887
 O616 O 0.22816 1.01775 0.25309
 Cu617 Cu 0.26200 1.00084 0.26686
 Cu618 Cu 0.23968 1.00106 0.23859
 C619 C 0.23339 1.02382 0.26861
 C620 C 0.26853 0.97823 0.23685
 C621 C 0.26827 1.02422 0.23734
 C622 C 0.23327 0.97776 0.26804
 O623 O 0.25376 0.51643 0.72893
 O624 O 0.22674 0.48290 0.75227
 O625 O 0.22734 0.51716 0.75235
 O626 O 0.25315 0.48247 0.72917
 O627 O 0.27116 0.48168 0.75322
 O628 O 0.24632 0.51724 0.77556
 O629 O 0.24473 0.48321 0.77636
 O630 O 0.27240 0.51595 0.75246
 Cu631 Cu 0.23836 0.49978 0.73833
 Cu632 Cu 0.26052 0.49945 0.76676
 C633 C 0.26769 0.52193 0.73671
 C634 C 0.23111 0.47731 0.76829
 C635 C 0.23264 0.52332 0.76781
 C636 C 0.26646 0.47603 0.73735
 O637 O 0.75213 -0.01828 0.27326
 O638 O 0.72606 0.01620 0.25047
 O639 O 0.72575 -0.01806 0.25009
 O640 O 0.75230 0.01580 0.27356
 O641 O 0.77038 0.01648 0.24940
 O642 O 0.74503 -0.01858 0.22697
 O643 O 0.74409 0.01556 0.22628
 O644 O 0.77106 -0.01783 0.24985
 Cu645 Cu 0.73717 -0.00110 0.26421
 Cu646 Cu 0.75951 -0.00103 0.23575
 C647 C 0.76603 -0.02399 0.26546
 C648 C 0.73061 0.02177 0.23446
 C649 C 0.73112 -0.02436 0.23468
 C650 C 0.76574 0.02210 0.26535
 O651 O 0.75411 0.48264 0.77392
 O652 O 0.72840 0.51737 0.75127
 O653 O 0.72801 0.48301 0.75073
 O654 O 0.75485 0.51655 0.77418
 O655 O 0.77309 0.51682 0.75015
 O656 O 0.74647 0.48315 0.72688
 O657 O 0.74666 0.51707 0.72725
 O658 O 0.77262 0.48249 0.75013
 Cu659 Cu 0.73944 0.49991 0.76488
 Cu660 Cu 0.76161 0.49989 0.73625
 C661 C 0.76773 0.47657 0.76591
 C662 C 0.73313 0.52319 0.73542
 C663 C 0.73274 0.47727 0.73484
 C664 C 0.76852 0.52247 0.76611
 O665 O 0.25211 0.48171 0.27207
 O666 O 0.22605 0.51568 0.24843
 O667 O 0.22626 0.48154 0.24812
 O668 O 0.25155 0.51593 0.27200
 O669 O 0.27106 0.51592 0.24909
 O670 O 0.24572 0.48159 0.22517
 O671 O 0.24511 0.51580 0.22511
 O672 O 0.27115 0.48172 0.24872
 Cu673 Cu 0.23708 0.49863 0.26249
 Cu674 Cu 0.26019 0.49887 0.23468
 C675 C 0.26597 0.47577 0.26436
 C676 C 0.23119 0.52163 0.23279
 C677 C 0.23179 0.47558 0.23263
 C678 C 0.26552 0.52189 0.26457
 O679 O 0.75565 1.01705 0.72353
 O680 O 0.72830 0.98367 0.74677
 O681 O 0.72914 1.01813 0.74653
 O682 O 0.75506 0.98315 0.72400
 O683 O 0.77295 0.98272 0.74815
 O684 O 0.74722 1.01773 0.77052
 O685 O 0.74622 0.98378 0.77091
 O686 O 0.77367 1.01706 0.74760
 Cu687 Cu 0.74015 1.00051 0.73285
 Cu688 Cu 0.76187 1.00028 0.76166
 C689 C 0.76929 1.02283 0.73164
 C690 C 0.73262 0.97795 0.76276
 C691 C 0.73387 1.02402 0.76231
 C692 C 0.76841 0.97693 0.73228
 O693 O 0.75612 0.51759 0.22369
 O694 O 0.72913 0.48375 0.24672
 O695 O 0.72943 0.51824 0.24638
 O696 O 0.75592 0.48366 0.22397
 O697 O 0.77374 0.48342 0.24819
 O698 O 0.74735 0.51803 0.27053
 O699 O 0.74700 0.48404 0.27089
 O700 O 0.77409 0.51776 0.24777
 Cu701 Cu 0.74078 0.50079 0.23283
 Cu702 Cu 0.76238 0.50082 0.26173
 C703 C 0.76969 0.52352 0.23182
 C704 C 0.73352 0.47802 0.26269
 C705 C 0.73396 0.52415 0.26222
 C706 C 0.76932 0.47758 0.23229
 O707 O 0.24600 -0.01634 0.72621
 O708 O 0.27269 0.01779 0.74872
 O709 O 0.27271 -0.01653 0.74887
 O710 O 0.24599 0.01755 0.72619
 O711 O 0.22803 0.01777 0.75046
 O712 O 0.25467 -0.01632 0.77306
 O713 O 0.25472 0.01755 0.77299
 O714 O 0.22802 -0.01656 0.75047
 Cu715 Cu 0.26121 0.00060 0.73510
 Cu716 Cu 0.23949 0.00061 0.76413
 C717 C 0.23247 -0.02231 0.73451
 C718 C 0.26824 0.02353 0.76468
 C719 C 0.26824 -0.02226 0.76485
 C720 C 0.23249 0.02354 0.73450
 O721 O 0.24973 0.27077 0.98072
 O722 O 0.27357 0.24701 1.01740
 O723 O 0.27392 0.24706 0.98089
 O724 O 0.24938 0.27083 1.01717
 O725 O 0.22884 0.25037 1.01703
 O726 O 0.25365 0.22633 0.98097
 O727 O 0.25330 0.22629 1.01724
 O728 O 0.22918 0.25031 0.98082
 Cu729 Cu 0.26370 0.26097 0.99907
 Cu730 Cu 0.23920 0.23624 0.99902
 C731 C 0.23541 0.26457 0.97447
 C732 C 0.26750 0.23264 1.02363
 C733 C 0.26793 0.23270 0.97465
 C734 C 0.23494 0.26468 1.02332
 O735 O 0.25012 0.77092 0.48217
 O736 O 0.27271 0.74638 0.51928
 O737 O 0.27311 0.74571 0.48324
 O738 O 0.24990 0.77172 0.51886
 O739 O 0.22806 0.75264 0.51888
 O740 O 0.25132 0.72659 0.48334
 O741 O 0.25087 0.72732 0.51996
 O742 O 0.22833 0.75180 0.48282
 Cu743 Cu 0.26358 0.76068 0.50084
 Cu744 Cu 0.23752 0.73760 0.50128
 C745 C 0.23540 0.76551 0.47611
 C746 C 0.26561 0.73269 0.52600
 C747 C 0.26615 0.73173 0.47717
 C748 C 0.23506 0.76658 0.52501
 O749 O 0.27231 0.75515 -0.01722
 O750 O 0.24931 0.73008 0.01931
 O751 O 0.24906 0.73017 -0.01730
 O752 O 0.27228 0.75526 0.01884
 O753 O 0.25062 0.77452 0.01928
 O754 O 0.22743 0.74946 -0.01692
 O755 O 0.22762 0.74931 0.01912
 O756 O 0.25068 0.77445 -0.01741
 Cu757 Cu 0.26286 0.74066 0.00089
 Cu758 Cu 0.23698 0.76396 0.00103
 C759 C 0.26540 0.76904 -0.02361
 C760 C 0.23458 0.73543 0.02550
 C761 C 0.23431 0.73555 -0.02332
 C762 C 0.26535 0.76913 0.02531
 O763 O 0.27165 0.25289 0.48399
 O764 O 0.24633 0.22837 0.51924
 O765 O 0.24730 0.22933 0.48301
 O766 O 0.27100 0.25188 0.52051
 O767 O 0.25145 0.27327 0.52001
 O768 O 0.22661 0.24960 0.48388
 O769 O 0.22682 0.24977 0.52034
 O770 O 0.25131 0.27352 0.48386
 Cu771 Cu 0.26112 0.23855 0.50169
 Cu772 Cu 0.23699 0.26362 0.50200
 C773 C 0.26571 0.26729 0.47775
 C774 C 0.23238 0.23501 0.52601
 C775 C 0.23287 0.23553 0.47710
 C776 C 0.26533 0.26644 0.52663
 O777 O 0.74880 0.77288 0.97968
 O778 O 0.77160 0.74859 1.01676
 O779 O 0.77197 0.74790 0.98068
 O780 O 0.74801 0.77327 1.01632
 O781 O 0.72659 0.75374 1.01613
 O782 O 0.75047 0.72844 0.98047
 O783 O 0.75018 0.72906 1.01717
 O784 O 0.72729 0.75344 0.98007
 Cu785 Cu 0.76218 0.76269 0.99836
 Cu786 Cu 0.73655 0.73913 0.99848
 C787 C 0.73421 0.76729 0.97348
 C788 C 0.76477 0.73472 1.02334
 C789 C 0.76522 0.73388 0.97439
 C790 C 0.73324 0.76781 1.02235
 O791 O 0.74739 0.27326 0.48032
 O792 O 0.77197 0.24903 0.51625
 O793 O 0.77163 0.24936 0.47974
 O794 O 0.74758 0.27315 0.51648
 O795 O 0.72700 0.25273 0.51638
 O796 O 0.75186 0.22819 0.48081
 O797 O 0.75106 0.22896 0.51712
 O798 O 0.72754 0.25215 0.47976
 Cu799 Cu 0.76172 0.26324 0.49821
 Cu800 Cu 0.73729 0.23846 0.49849
 C801 C 0.73340 0.26668 0.47370
 C802 C 0.76554 0.23503 0.52306
 C803 C 0.76586 0.23471 0.47401
 C804 C 0.73318 0.26698 0.52271
 O805 O 0.72780 0.24781 -0.01783
 O806 O 0.75142 0.27094 0.01944
 O807 O 0.75227 0.27168 -0.01687
 O808 O 0.72716 0.24741 0.01874
 O809 O 0.74756 0.22682 0.01897
 O810 O 0.77190 0.25039 -0.01779
 O811 O 0.77218 0.25072 0.01872
 O812 O 0.74751 0.22658 -0.01718
 Cu813 Cu 0.73761 0.26152 0.00081
 Cu814 Cu 0.76186 0.23658 0.00070
 C815 C 0.73354 0.23321 -0.02381
 C816 C 0.76584 0.26477 0.02546
 C817 C 0.76626 0.26508 -0.02358
 C818 C 0.73320 0.23311 0.02513
 O819 O 0.77106 0.75085 0.48167
 O820 O 0.74655 0.72702 0.51813
 O821 O 0.74668 0.72693 0.48196
 O822 O 0.77121 0.75082 0.51813
 O823 O 0.75046 0.77105 0.51891
 O824 O 0.72695 0.74812 0.48136
 O825 O 0.72615 0.74760 0.51795
 O826 O 0.75140 0.77211 0.48262
 Cu827 Cu 0.76094 0.73685 0.49996
 Cu828 Cu 0.73668 0.76178 0.50013
 C829 C 0.76547 0.76560 0.47599
 C830 C 0.73219 0.73329 0.52430
 C831 C 0.73271 0.73355 0.47534
 C832 C 0.76485 0.76483 0.52494
 O833 O 0.98334 0.24373 0.27360
 O834 O 1.01744 0.27058 0.25059
 O835 O 0.98288 0.27027 0.25078
 O836 O 1.01740 0.24424 0.27349
 O837 O 1.01774 0.22603 0.24960
 O838 O 0.98339 0.25234 0.22666
 O839 O 1.01753 0.25239 0.22670
 O840 O 0.98325 0.22581 0.24946
 Cu841 Cu 1.00022 0.25908 0.26447
 Cu842 Cu 1.00048 0.23729 0.23573
 C843 C 0.97742 0.23022 0.26541
 C844 C 1.02345 0.26595 0.23477
 C845 C 0.97718 0.26573 0.23487
 C846 C 1.02353 0.23074 0.26544
 O847 O 0.51761 0.27330 0.74898
 O848 O 0.48526 0.24527 0.77302
 O849 O 0.51946 0.24710 0.77156
 O850 O 0.48328 0.27181 0.75024
 O851 O 0.48400 0.25423 0.72582
 O852 O 0.51900 0.22829 0.74819
 O853 O 0.48459 0.22771 0.74860
 O854 O 0.51805 0.25491 0.72524
 Cu855 Cu 0.50133 0.26118 0.76336
 Cu856 Cu 0.50143 0.23941 0.73459
 C857 C 0.52351 0.26878 0.73310
 C858 C 0.47923 0.23181 0.76482
 C859 C 0.52544 0.23352 0.76354
 C860 C 0.47757 0.26738 0.73430
 O861 O 0.01643 0.25398 0.77393
 O862 O -0.01869 0.22879 0.75108
 O863 O 0.01575 0.22765 0.75100
 O864 O -0.01760 0.25494 0.77421
 O865 O -0.01723 0.27323 0.75036
 O866 O 0.01601 0.24576 0.72698
 O867 O -0.01798 0.24704 0.72720
 O868 O 0.01722 0.27211 0.74994
 Cu869 Cu -0.00108 0.23946 0.76492
 Cu870 Cu -0.00043 0.26143 0.73626
 C871 C 0.02287 0.26733 0.76580
 C872 C -0.02436 0.23364 0.73525
 C873 C 0.02160 0.23204 0.73504
 C874 C -0.02315 0.26873 0.76627
 O875 O 0.51623 0.24676 0.22681
 O876 O 0.48312 0.27382 0.25125
 O877 O 0.51743 0.27293 0.25001
 O878 O 0.48198 0.24794 0.22782
 O879 O 0.48291 0.22835 0.25044
 O880 O 0.51646 0.25514 0.27427
 O881 O 0.48211 0.25417 0.27385
 O882 O 0.51721 0.22894 0.25103
 Cu883 Cu 0.49972 0.26224 0.23661
 Cu884 Cu 0.49972 0.23979 0.26478
 C885 C 0.52258 0.23337 0.23491
 C886 C 0.47663 0.26829 0.26653
 C887 C 0.52290 0.26844 0.26602
 C888 C 0.47642 0.23385 0.23521
 O889 O 0.98372 0.75349 0.72632
 O890 O 1.01855 0.72767 0.74897
 O891 O 0.98398 0.72713 0.74929
 O892 O 1.01783 0.75402 0.72612
 O893 O 1.01772 0.77218 0.75004
 O894 O 0.98401 0.74517 0.77332
 O895 O 1.01812 0.74576 0.77296
 O896 O 0.98322 0.77151 0.75037
 Cu897 Cu 1.00103 0.73870 0.73532
 Cu898 Cu 1.00075 0.76052 0.76404
 C899 C 0.97745 0.76686 0.73452
 C900 C 1.02438 0.73238 0.76477
 C901 C 0.97813 0.73161 0.76522
 C902 C 1.02364 0.76765 0.73416
 O903 O 0.51581 0.77095 0.25009
 O904 O 0.48185 0.74418 0.27346
 O905 O 0.51619 0.74500 0.27303
 O906 O 0.48135 0.77063 0.25055
 O907 O 0.48204 0.75285 0.22631
 O908 O 0.51569 0.72595 0.24989
 O909 O 0.48118 0.72646 0.24917
 O910 O 0.51625 0.75226 0.22664
 Cu911 Cu 0.49873 0.75952 0.26417
 Cu912 Cu 0.49880 0.73750 0.23565
 C913 C 0.52205 0.76599 0.23449
 C914 C 0.47549 0.73093 0.26515
 C915 C 0.52200 0.73120 0.26530
 C916 C 0.47577 0.76621 0.23456
 O917 O -0.01638 0.77374 0.25044
 O918 O 0.01730 0.74689 0.22667
 O919 O -0.01690 0.74769 0.22689
 O920 O 0.01808 0.77295 0.24995
 O921 O 0.01713 0.75484 0.27393
 O922 O -0.01693 0.72879 0.25021
 O923 O 0.01755 0.72873 0.25063
 O924 O -0.01721 0.75448 0.27342
 Cu925 Cu 0.00056 0.76222 0.23615
 Cu926 Cu 0.00016 0.73984 0.26440
 C927 C -0.02283 0.76841 0.26582
 C928 C 0.02333 0.73334 0.23472
 C929 C -0.02293 0.73396 0.23463
 C930 C 0.02361 0.76821 0.26587
 O931 O 0.51628 0.74515 0.72658
 O932 O 0.48259 0.77240 0.74957
 O933 O 0.51715 0.77197 0.74894
 O934 O 0.48227 0.74576 0.72702
 O935 O 0.48208 0.72794 0.75128
 O936 O 0.51679 0.75434 0.77336
 O937 O 0.48265 0.75453 0.77377
 O938 O 0.51655 0.72753 0.75101
 Cu939 Cu 0.49959 0.76068 0.73564
 Cu940 Cu 0.49953 0.73927 0.76477
 C941 C 0.52220 0.73171 0.73491
 C942 C 0.47672 0.76801 0.76553
 C943 C 0.52299 0.76760 0.76486
 C944 C 0.47619 0.73240 0.73541
 C945 C 0.41967 0.30522 0.30199
 C946 C 0.41829 0.32347 0.30009
 C947 C 0.40424 0.33227 0.30880
 C948 C 0.39142 0.32286 0.31902
 C949 C 0.39298 0.30448 0.32044
 C950 C 0.40716 0.29566 0.31222
 C951 C 0.43442 0.29588 0.29300
 C952 C 0.43590 0.27767 0.29523
 C953 C 0.44996 0.26885 0.28678
 C954 C 0.46227 0.27803 0.27576
 C955 C 0.46052 0.29628 0.27346
 C956 C 0.44669 0.30532 0.28227
 C957 C 0.40900 0.27742 0.31398
 C958 C 0.42320 0.26859 0.30573
 C959 C 0.43095 0.33251 0.28945
 C960 C 0.44485 0.32358 0.28060
 H961 H 0.39942 0.26992 0.32187
 H962 H 0.42418 0.25453 0.30748
 H963 H 0.43005 0.34659 0.28783
 H964 H 0.45425 0.33104 0.27242
 H965 H 0.40337 0.34639 0.30768
 H966 H 0.38303 0.29691 0.32771
 H967 H 0.45113 0.25478 0.28843
 H968 H 0.47000 0.30340 0.26504
 C969 C 0.41946 0.80565 0.79975
 C970 C 0.41524 0.80240 0.81848
 C971 C 0.40071 0.81084 0.82654
 C972 C 0.39003 0.82240 0.81599
 C973 C 0.39478 0.82553 0.79712
 C974 C 0.40941 0.81724 0.78901
 C975 C 0.43456 0.79653 0.79115
 C976 C 0.43870 0.79966 0.77233
 C977 C 0.45283 0.79065 0.76410
 C978 C 0.46261 0.77841 0.77452
 C979 C 0.45837 0.77560 0.79344
 C980 C 0.44439 0.78466 0.80183
 C981 C 0.41401 0.82011 0.77024
 C982 C 0.42843 0.81150 0.76205
 C983 C 0.42560 0.79067 0.82883
 C984 C 0.43989 0.78190 0.82063
 H985 H 0.40636 0.82903 0.76176
 H986 H 0.43146 0.81403 0.74752
 H987 H 0.42252 0.78808 0.84334
 H988 H 0.44741 0.77281 0.82904
 H989 H 0.39820 0.80868 0.84122
 H990 H 0.38673 0.83370 0.78826
 H991 H 0.45593 0.79285 0.74951
 H992 H 0.46584 0.76628 0.80161
 C993 C -0.07865 0.30763 0.80196
 C994 C -0.08918 0.31886 0.79131
 C995 C -0.10362 0.32717 0.79974
 C996 C -0.10774 0.32439 0.81884
 C997 C -0.09644 0.31340 0.82933
 C998 C -0.08212 0.30489 0.82096
 C999 C -0.06393 0.29825 0.79296
 C1000 C -0.05374 0.28660 0.80353
 C1001 C -0.04023 0.27718 0.79476
 C1002 C -0.03680 0.27944 0.77558
 C1003 C -0.04688 0.29150 0.76527
 C1004 C -0.06059 0.30082 0.77387
 C1005 C -0.07133 0.29346 0.83119
 C1006 C -0.05742 0.28441 0.82260
 C1007 C -0.08533 0.32124 0.77227
 C1008 C -0.07124 0.31242 0.76372
 H1009 H -0.07383 0.29127 0.84590
 H1010 H -0.04959 0.27552 0.83093
 H1011 H -0.09335 0.32989 0.76387
 H1012 H -0.06881 0.31453 0.74898
 H1013 H -0.11212 0.33493 0.79092
 H1014 H -0.09842 0.31159 0.84416
 H1015 H -0.03246 0.26801 0.80283
 H1016 H -0.04439 0.29326 0.75049
 C1017 C -0.08059 0.80482 0.30043
 C1018 C -0.08209 0.82307 0.29857
 C1019 C -0.09627 0.83174 0.30719
 C1020 C -0.10908 0.82221 0.31730
 C1021 C -0.10742 0.80383 0.31862
 C1022 C -0.09312 0.79514 0.31049
 C1023 C -0.06565 0.79564 0.29161
 C1024 C -0.06403 0.77743 0.29384
 C1025 C -0.04977 0.76876 0.28561
 C1026 C -0.03740 0.77806 0.27480
 C1027 C -0.03929 0.79628 0.27245
 C1028 C -0.05333 0.80520 0.28106
 C1029 C -0.09115 0.77692 0.31223
 C1030 C -0.07678 0.76823 0.30415
 C1031 C -0.06938 0.83223 0.28809
 C1032 C -0.05532 0.82344 0.27940
 H1033 H -0.10075 0.76932 0.31999
 H1034 H -0.07570 0.75417 0.30589
 H1035 H -0.07038 0.84631 0.28651
 H1036 H -0.04589 0.83100 0.27136
 H1037 H -0.09722 0.84586 0.30615
 H1038 H -0.11736 0.79618 0.32580
 H1039 H -0.04850 0.75470 0.28727
 H1040 H -0.02976 0.80349 0.26417
 C1041 C 0.58021 0.69534 0.29926
 C1042 C 0.58194 0.67712 0.29735
 C1043 C 0.59627 0.66860 0.30575
 C1044 C 0.60903 0.67826 0.31566
 C1045 C 0.60713 0.69661 0.31706
 C1046 C 0.59267 0.70514 0.30916
 C1047 C 0.56514 0.70437 0.29064
 C1048 C 0.56330 0.72254 0.29291
 C1049 C 0.54893 0.73107 0.28484
 C1050 C 0.53665 0.72167 0.27415
 C1051 C 0.53876 0.70347 0.27176
 C1052 C 0.55291 0.69470 0.28022
 C1053 C 0.59048 0.72333 0.31095
 C1054 C 0.57597 0.73187 0.30307
 C1055 C 0.56931 0.66783 0.28703
 C1056 C 0.55511 0.67648 0.27851
 H1057 H 0.60001 0.73103 0.31860
 H1058 H 0.57472 0.74591 0.30485
 H1059 H 0.57048 0.65377 0.28540
 H1060 H 0.54576 0.66884 0.27057
 H1061 H 0.59738 0.65450 0.30466
 H1062 H 0.61702 0.70437 0.32408
 H1063 H 0.54750 0.74511 0.28653
 H1064 H 0.52930 0.69618 0.26356
 C1065 C 0.58355 0.19741 0.79731
 C1066 C 0.58513 0.17918 0.79540
 C1067 C 0.59927 0.17053 0.80398
 C1068 C 0.61198 0.18005 0.81408
 C1069 C 0.61025 0.19841 0.81548
 C1070 C 0.59598 0.20710 0.80738
 C1071 C 0.56862 0.20657 0.78857
 C1072 C 0.56689 0.22475 0.79088
 C1073 C 0.55257 0.23338 0.78280
 C1074 C 0.54027 0.22405 0.77209
 C1075 C 0.54230 0.20586 0.76961
 C1076 C 0.55638 0.19700 0.77807
 C1077 C 0.59392 0.22530 0.80918
 C1078 C 0.57955 0.23397 0.80117
 C1079 C 0.57252 0.17000 0.78495
 C1080 C 0.55846 0.17877 0.77634
 H1081 H 0.60344 0.23291 0.81694
 H1082 H 0.57838 0.24801 0.80298
 H1083 H 0.57358 0.15593 0.78333
 H1084 H 0.54909 0.17121 0.76833
 H1085 H 0.60025 0.15641 0.80290
 H1086 H 0.62012 0.20605 0.82269
 H1087 H 0.55116 0.24741 0.78457
 H1088 H 0.53280 0.19862 0.76143
 C1089 C 1.08243 0.69642 0.79894
 C1090 C 1.09454 0.68737 0.78769
 C1091 C 1.10923 0.67947 0.79600
 C1092 C 1.11173 0.68036 0.81547
 C1093 C 1.09920 0.68925 0.82653
 C1094 C 1.08467 0.69746 0.81833
 C1095 C 1.06722 0.70515 0.79024
 C1096 C 1.05542 0.71465 0.80145
 C1097 C 1.04130 0.72340 0.79304
 C1098 C 1.03880 0.72247 0.77361
 C1099 C 1.05054 0.71256 0.76262
 C1100 C 1.06492 0.70404 0.77085
 C1101 C 1.07239 0.70681 0.82912
 C1102 C 1.05806 0.71534 0.82081
 C1103 C 1.09179 0.68654 0.76834
 C1104 C 1.07719 0.69466 0.76007
 H1105 H 1.07397 0.70770 0.84410
 H1106 H 1.04901 0.72258 0.82962
 H1107 H 1.10102 0.67957 0.75950
 H1108 H 1.07558 0.69373 0.74510
 H1109 H 1.11885 0.67293 0.78725
 H1110 H 1.10070 0.68975 0.84154
 H1111 H 1.03226 0.73093 0.80159
 H1112 H 1.04878 0.71190 0.74764
 C1113 C 1.08087 0.19432 0.30046
 C1114 C 1.08437 0.19738 0.31935
 C1115 C 1.09886 0.18923 0.32767
 C1116 C 1.11024 0.17820 0.31726
 C1117 C 1.10621 0.17520 0.29822
 C1118 C 1.09160 0.18319 0.28983
 C1119 C 1.06578 0.20312 0.29160
 C1120 C 1.06231 0.20016 0.27264
 C1121 C 1.04815 0.20887 0.26419
 C1122 C 1.03771 0.22066 0.27454
 C1123 C 1.04131 0.22331 0.29359
 C1124 C 1.05528 0.21454 0.30220
 C1125 C 1.08767 0.18048 0.27090
 C1126 C 1.07325 0.18878 0.26247
 C1127 C 1.07335 0.20864 0.32959
 C1128 C 1.05909 0.21712 0.32114
 H1129 H 1.09584 0.17191 0.26251
 H1130 H 1.07074 0.18639 0.24783
 H1131 H 1.07589 0.21107 0.34422
 H1132 H 1.05104 0.22585 0.32948
 H1133 H 1.10078 0.19120 0.34246
 H1134 H 1.11477 0.16737 0.28950
 H1135 H 1.04554 0.20681 0.24951
 H1136 H 1.03330 0.23227 0.30171
 C1137 C 0.57839 0.30856 0.69741
 C1138 C 0.59017 0.31815 0.70843
 C1139 C 0.60439 0.32668 0.69985
 C1140 C 0.60679 0.32588 0.68033
 C1141 C 0.59448 0.31659 0.66947
 C1142 C 0.58041 0.30771 0.67797
 C1143 C 0.56390 0.29887 0.70647
 C1144 C 0.55254 0.28867 0.69554
 C1145 C 0.53922 0.27893 0.70431
 C1146 C 0.53707 0.27958 0.72382
 C1147 C 0.54832 0.29019 0.73452
 C1148 C 0.56190 0.29970 0.72594
 C1149 C 0.56852 0.29772 0.66744
 C1150 C 0.55487 0.28828 0.67609
 C1151 C 0.58770 0.31874 0.72785
 C1152 C 0.57375 0.30974 0.73645
 H1153 H 0.56993 0.29696 0.65242
 H1154 H 0.54615 0.28054 0.66749
 H1155 H 0.59669 0.32614 0.73649
 H1156 H 0.57236 0.31047 0.75148
 H1157 H 0.61389 0.33344 0.70847
 H1158 H 0.59593 0.31610 0.65444
 H1159 H 0.53052 0.27086 0.69599
 H1160 H 0.54682 0.29064 0.74956
 C1161 C 0.58012 0.80265 0.20042
 C1162 C 0.58392 0.79988 0.18151
 C1163 C 0.59845 0.80832 0.17340
 C1164 C 0.60958 0.81936 0.18405
 C1165 C 0.60531 0.82190 0.20315
 C1166 C 0.59065 0.81368 0.21130
 C1167 C 0.56490 0.79369 0.20902
 C1168 C 0.56109 0.79645 0.22797
 C1169 C 0.54675 0.78771 0.23614
 C1170 C 0.53646 0.77604 0.22556
 C1171 C 0.54044 0.77351 0.20654
 C1172 C 0.55459 0.78237 0.19818
 C1173 C 0.58641 0.81612 0.23023
 C1174 C 0.57186 0.80771 0.23841
 C1175 C 0.57311 0.78869 0.17103
 C1176 C 0.55874 0.78002 0.17924
 H1177 H 0.59443 0.82461 0.23883
 H1178 H 0.56909 0.80994 0.25305
 H1179 H 0.57587 0.78647 0.15639
 H1180 H 0.55086 0.77137 0.17070
 H1181 H 0.60054 0.80661 0.15858
 H1182 H 0.61370 0.82962 0.21210
 H1183 H 0.54387 0.78965 0.25082
 H1184 H 0.53256 0.76462 0.19826
 C1185 C 1.08111 0.30278 0.20021
 C1186 C 1.09170 0.31386 0.21097
 C1187 C 1.10636 0.32199 0.20270
 C1188 C 1.11058 0.31923 0.18362
 C1189 C 1.09936 0.30819 0.17309
 C1190 C 1.08482 0.29989 0.18131
 C1191 C 1.06594 0.29387 0.20895
 C1192 C 1.05557 0.28251 0.19822
 C1193 C 1.04151 0.27364 0.20670
 C1194 C 1.03768 0.27616 0.22576
 C1195 C 1.04799 0.28790 0.23623
 C1196 C 1.06224 0.29668 0.22792
 C1197 C 1.07395 0.28867 0.17094
 C1198 C 1.05961 0.28008 0.17927
 C1199 C 1.08755 0.31640 0.22992
 C1200 C 1.07305 0.30800 0.23823
 H1201 H 1.07665 0.28637 0.15629
 H1202 H 1.05168 0.27139 0.17082
 H1203 H 1.09562 0.32492 0.23841
 H1204 H 1.07037 0.31028 0.25288
 H1205 H 1.11480 0.32977 0.21153
 H1206 H 1.10141 0.30637 0.15828
 H1207 H 1.03362 0.26471 0.19849
 H1208 H 1.04521 0.28985 0.25093
 C1209 C 1.08043 0.80571 0.69947
 C1210 C 1.09033 0.81752 0.71008
 C1211 C 1.10488 0.82590 0.70189
 C1212 C 1.10971 0.82263 0.68307
 C1213 C 1.09915 0.81089 0.67265
 C1214 C 1.08470 0.80235 0.68078
 C1215 C 1.06545 0.79646 0.70819
 C1216 C 1.05579 0.78435 0.69765
 C1217 C 1.04194 0.77517 0.70615
 C1218 C 1.03765 0.77809 0.72504
 C1219 C 1.04727 0.79056 0.73530
 C1220 C 1.06127 0.79969 0.72696
 C1221 C 1.07450 0.79039 0.67058
 C1222 C 1.06033 0.78150 0.67888
 C1223 C 1.08568 0.82049 0.72881
 C1224 C 1.07138 0.81176 0.73710
 H1225 H 1.07762 0.78772 0.65610
 H1226 H 1.05293 0.77223 0.67058
 H1227 H 1.09322 0.82959 0.73718
 H1228 H 1.06831 0.81438 0.75160
 H1229 H 1.11283 0.83423 0.71067
 H1230 H 1.10171 0.80862 0.65799
 H1231 H 1.03458 0.76567 0.69810
 H1232 H 1.04414 0.79285 0.74986
 C1233 C 0.41905 0.69470 0.70164
 C1234 C 0.41640 0.69606 0.68233
 C1235 C 0.40201 0.68748 0.67427
 C1236 C 0.39007 0.67788 0.68541
 C1237 C 0.39303 0.67664 0.70478
 C1238 C 0.40755 0.68493 0.71294
 C1239 C 0.43403 0.70391 0.71023
 C1240 C 0.43671 0.70254 0.72955
 C1241 C 0.45083 0.71154 0.73768
 C1242 C 0.46196 0.72212 0.72667
 C1243 C 0.45910 0.72329 0.70731
 C1244 C 0.44522 0.71412 0.69900
 C1245 C 0.41068 0.68383 0.73222
 C1246 C 0.42506 0.69243 0.74036
 C1247 C 0.42807 0.70613 0.67150
 C1248 C 0.44219 0.71507 0.67970
 H1249 H 0.40191 0.67631 0.74109
 H1250 H 0.42697 0.69129 0.75528
 H1251 H 0.42616 0.70727 0.65658
 H1252 H 0.45077 0.72285 0.67088
 H1253 H 0.40011 0.68829 0.65932
 H1254 H 0.38384 0.66956 0.71359
 H1255 H 0.45287 0.71067 0.75261
 H1256 H 0.46767 0.73133 0.69872
 C1257 C 0.41937 0.19688 0.20026
 C1258 C 0.41635 0.17920 0.20451
 C1259 C 0.40221 0.17042 0.19606
 C1260 C 0.39080 0.17923 0.18354
 C1261 C 0.39421 0.19717 0.17977
 C1262 C 0.40844 0.20591 0.18787
 C1263 C 0.43416 0.20619 0.20909
 C1264 C 0.43717 0.22387 0.20470
 C1265 C 0.45120 0.23269 0.21310
 C1266 C 0.46204 0.22408 0.22609
 C1267 C 0.45880 0.20635 0.23045
 C1268 C 0.44493 0.19730 0.22185
 C1269 C 0.41181 0.22363 0.18391
 C1270 C 0.42599 0.23244 0.19211
 C1271 C 0.42755 0.17065 0.21717
 C1272 C 0.44154 0.17956 0.22574
 H1273 H 0.40344 0.23076 0.17435
 H1274 H 0.42815 0.24609 0.18865
 H1275 H 0.42541 0.15699 0.22058
 H1276 H 0.44976 0.17250 0.23551
 H1277 H 0.40063 0.15660 0.19895
 H1278 H 0.38543 0.20485 0.17120
 H1279 H 0.45348 0.24636 0.20978
 H1280 H 0.46711 0.19961 0.24039
 C1281 C -0.08097 0.69806 0.20027
 C1282 C -0.08382 0.69995 0.18104
 C1283 C -0.09833 0.69165 0.17287
 C1284 C -0.11021 0.68178 0.18383
 C1285 C -0.10711 0.68010 0.20315
 C1286 C -0.09246 0.68809 0.21139
 C1287 C -0.06578 0.70684 0.20896
 C1288 C -0.06289 0.70486 0.22818
 C1289 C -0.04853 0.71338 0.23641
 C1290 C -0.03736 0.72414 0.22563
 C1291 C -0.04045 0.72596 0.20636
 C1292 C -0.05458 0.71723 0.19793
 C1293 C -0.08913 0.68642 0.23058
 C1294 C -0.07456 0.69460 0.23882
 C1295 C -0.07215 0.71022 0.17040
 C1296 C -0.05783 0.71878 0.17872
 H1297 H -0.09788 0.67874 0.23932
 H1298 H -0.07249 0.69299 0.25366
 H1299 H -0.07419 0.71178 0.15555
 H1300 H -0.04925 0.72671 0.17003
 H1301 H -0.10031 0.69283 0.15796
 H1302 H -0.11624 0.67284 0.21185
 H1303 H -0.04634 0.71204 0.25127
 H1304 H -0.03187 0.73416 0.19796
 C1305 C -0.08115 0.19682 0.69982
 C1306 C -0.08349 0.19847 0.68049
 C1307 C -0.09768 0.18994 0.67199
 C1308 C -0.10972 0.18007 0.68273
 C1309 C -0.10711 0.17857 0.70214
 C1310 C -0.09280 0.18682 0.71073
 C1311 C -0.06635 0.20591 0.70886
 C1312 C -0.06396 0.20420 0.72819
 C1313 C -0.04995 0.21301 0.73673
 C1314 C -0.03862 0.22373 0.72611
 C1315 C -0.04121 0.22528 0.70674
 C1316 C -0.05499 0.21629 0.69801
 C1317 C -0.08999 0.18542 0.73004
 C1318 C -0.07577 0.19390 0.73861
 C1319 C -0.07168 0.20876 0.67006
 C1320 C -0.05771 0.21758 0.67869
 H1321 H -0.09887 0.17772 0.73860
 H1322 H -0.07409 0.19249 0.75353
 H1323 H -0.07334 0.21013 0.65513
 H1324 H -0.04899 0.22551 0.67017
 H1325 H -0.09932 0.19097 0.65703
 H1326 H -0.11640 0.17130 0.71065
 H1327 H -0.04810 0.21184 0.75167
 H1328 H -0.03248 0.23342 0.69845
 C1329 C 0.30297 0.41887 0.29928
 C1330 C 0.31227 0.40688 0.28814
 C1331 C 0.32057 0.39253 0.29662
 C1332 C 0.31987 0.39025 0.31614
 C1333 C 0.31073 0.40267 0.32708
 C1334 C 0.30209 0.41685 0.31871
 C1335 C 0.29384 0.43372 0.29040
 C1336 C 0.28408 0.44540 0.30149
 C1337 C 0.27500 0.45921 0.29291
 C1338 C 0.27595 0.46156 0.27345
 C1339 C 0.28608 0.44993 0.26259
 C1340 C 0.29488 0.43585 0.27097
 C1341 C 0.29245 0.42898 0.32938
 C1342 C 0.28352 0.44295 0.32090
 C1343 C 0.31297 0.40942 0.26874
 C1344 C 0.30450 0.42371 0.26031
 H1345 H 0.29167 0.42755 0.34440
 H1346 H 0.27609 0.45190 0.32962
 H1347 H 0.32013 0.40029 0.25999
 H1348 H 0.30536 0.42518 0.24530
 H1349 H 0.32727 0.38300 0.28795
 H1350 H 0.31036 0.40137 0.34213
 H1351 H 0.26730 0.46817 0.30135
 H1352 H 0.28672 0.45157 0.24757
 C1353 C 0.30678 -0.07801 0.80008
 C1354 C 0.31791 -0.08863 0.78933
 C1355 C 0.32623 -0.10301 0.79771
 C1356 C 0.32354 -0.10698 0.81685
 C1357 C 0.31265 -0.09560 0.82743
 C1358 C 0.30414 -0.08133 0.81911
 C1359 C 0.29742 -0.06331 0.79116
 C1360 C 0.28591 -0.05299 0.80185
 C1361 C 0.27656 -0.03944 0.79318
 C1362 C 0.27875 -0.03610 0.77398
 C1363 C 0.29065 -0.04634 0.76354
 C1364 C 0.29991 -0.06008 0.77204
 C1365 C 0.29283 -0.07045 0.82946
 C1366 C 0.28381 -0.05656 0.82095
 C1367 C 0.32019 -0.08491 0.77026
 C1368 C 0.31138 -0.07085 0.76177
 H1369 H 0.29073 -0.07284 0.84420
 H1370 H 0.27503 -0.04863 0.82938
 H1371 H 0.32876 -0.09300 0.76178
 H1372 H 0.31342 -0.06851 0.74702
 H1373 H 0.33394 -0.11157 0.78885
 H1374 H 0.31093 -0.09747 0.84229
 H1375 H 0.26753 -0.03156 0.80137
 H1376 H 0.29237 -0.04391 0.74874
 C1377 C 0.80449 0.41936 0.80068
 C1378 C 0.81637 0.40936 0.79017
 C1379 C 0.82460 0.39487 0.79845
 C1380 C 0.82113 0.39023 0.81729
 C1381 C 0.80925 0.40083 0.82759
 C1382 C 0.80086 0.41522 0.81935
 C1383 C 0.79549 0.43435 0.79190
 C1384 C 0.78335 0.44416 0.80235
 C1385 C 0.77449 0.45810 0.79382
 C1386 C 0.77775 0.46233 0.77498
 C1387 C 0.79021 0.45254 0.76478
 C1388 C 0.79903 0.43844 0.77315
 C1389 C 0.78884 0.42553 0.82946
 C1390 C 0.78019 0.43973 0.82109
 C1391 C 0.81963 0.41388 0.77145
 C1392 C 0.81114 0.42820 0.76310
 H1393 H 0.78596 0.42251 0.84392
 H1394 H 0.77089 0.44723 0.82932
 H1395 H 0.82878 0.40626 0.76316
 H1396 H 0.81399 0.43119 0.74863
 H1397 H 0.83301 0.38685 0.78976
 H1398 H 0.80679 0.39838 0.84223
 H1399 H 0.76499 0.46560 0.80182
 H1400 H 0.79276 0.45563 0.75026
 C1401 C 0.80316 -0.08126 0.29972
 C1402 C 0.81445 -0.09165 0.28889
 C1403 C 0.82274 -0.10617 0.29706
 C1404 C 0.81997 -0.11044 0.31613
 C1405 C 0.80872 -0.09941 0.32673
 C1406 C 0.80022 -0.08503 0.31860
 C1407 C 0.79409 -0.06622 0.29107
 C1408 C 0.78250 -0.05606 0.30186
 C1409 C 0.77352 -0.04211 0.29346
 C1410 C 0.77619 -0.03818 0.27445
 C1411 C 0.78814 -0.04831 0.26393
 C1412 C 0.79701 -0.06245 0.27214
 C1413 C 0.78877 -0.07436 0.32903
 C1414 C 0.78000 -0.06017 0.32078
 C1415 C 0.81706 -0.08744 0.26997
 C1416 C 0.80854 -0.07307 0.26176
 H1417 H 0.78642 -0.07710 0.34366
 H1418 H 0.77114 -0.05239 0.32928
 H1419 H 0.82575 -0.09535 0.26142
 H1420 H 0.81089 -0.07032 0.24713
 H1421 H 0.83067 -0.11446 0.28816
 H1422 H 0.80686 -0.10149 0.34153
 H1423 H 0.76442 -0.03435 0.30169
 H1424 H 0.79020 -0.04547 0.24926
 C1425 C 0.30617 0.57780 0.70142
 C1426 C 0.31563 0.58962 0.71250
 C1427 C 0.32381 0.60407 0.70404
 C1428 C 0.32281 0.60664 0.68457
 C1429 C 0.31363 0.59431 0.67364
 C1430 C 0.30510 0.58002 0.68202
 C1431 C 0.29688 0.56303 0.71036
 C1432 C 0.28681 0.55161 0.69938
 C1433 C 0.27741 0.53803 0.70805
 C1434 C 0.27828 0.53568 0.72751
 C1435 C 0.28879 0.54698 0.73826
 C1436 C 0.29794 0.56083 0.72978
 C1437 C 0.29524 0.56807 0.67143
 C1438 C 0.28618 0.55416 0.67998
 C1439 C 0.31646 0.58695 0.73187
 C1440 C 0.30784 0.57274 0.74035
 H1441 H 0.29432 0.56963 0.65645
 H1442 H 0.27852 0.54540 0.67133
 H1443 H 0.32377 0.59596 0.74056
 H1444 H 0.30875 0.57120 0.75534
 H1445 H 0.33050 0.61355 0.71272
 H1446 H 0.31299 0.59590 0.65864
 H1447 H 0.26941 0.52931 0.69969
 H1448 H 0.28939 0.54534 0.75327
 C1449 C 0.30482 1.08184 0.20270
 C1450 C 0.31597 1.09241 0.21341
 C1451 C 0.32406 1.10703 0.20512
 C1452 C 0.32122 1.11122 0.18608
 C1453 C 0.31013 1.10001 0.17560
 C1454 C 0.30184 1.08553 0.18384
 C1455 C 0.29592 1.06672 0.21146
 C1456 C 0.28447 1.05639 0.20080
 C1457 C 0.27564 1.04236 0.20930
 C1458 C 0.27832 1.03851 0.22830
 C1459 C 0.29014 1.04880 0.23871
 C1460 C 0.29886 1.06303 0.23038
 C1461 C 0.29053 1.07469 0.17352
 C1462 C 0.28194 1.06041 0.18188
 C1463 C 0.31862 1.08827 0.23231
 C1464 C 0.31026 1.07381 0.24064
 H1465 H 0.28816 1.07737 0.15890
 H1466 H 0.27319 1.05250 0.17348
 H1467 H 0.32720 1.09632 0.24077
 H1468 H 0.31263 1.07113 0.25525
 H1469 H 0.33189 1.11545 0.21393
 H1470 H 0.30825 1.10203 0.16081
 H1471 H 0.26665 1.03447 0.20115
 H1472 H 0.29220 1.04600 0.25337
 C1473 C 0.80767 0.58023 0.19719
 C1474 C 0.81886 0.59065 0.20800
 C1475 C 0.82695 0.60534 0.19988
 C1476 C 0.82397 0.60984 0.18094
 C1477 C 0.81301 0.59866 0.17027
 C1478 C 0.80474 0.58407 0.17834
 C1479 C 0.79854 0.56522 0.20588
 C1480 C 0.78694 0.55510 0.19517
 C1481 C 0.77776 0.54127 0.20366
 C1482 C 0.78019 0.53747 0.22272
 C1483 C 0.79220 0.54751 0.23316
 C1484 C 0.80130 0.56150 0.22483
 C1485 C 0.79336 0.57338 0.16795
 C1486 C 0.78456 0.55918 0.17624
 C1487 C 0.82143 0.58642 0.22689
 C1488 C 0.81284 0.57207 0.23515
 H1489 H 0.79102 0.57616 0.15335
 H1490 H 0.77571 0.55142 0.16779
 H1491 H 0.83005 0.59436 0.23541
 H1492 H 0.81509 0.56936 0.24978
 H1493 H 0.83470 0.61371 0.20883
 H1494 H 0.81106 0.60094 0.15553
 H1495 H 0.76863 0.53358 0.19548
 H1496 H 0.79411 0.54474 0.24784
 C1497 C 0.80743 1.07920 0.69681
 C1498 C 0.81665 1.09111 0.70800
 C1499 C 0.82472 1.10567 0.69965
 C1500 C 0.82386 1.10826 0.68017
 C1501 C 0.81489 1.09588 0.66913
 C1502 C 0.80647 1.08145 0.67741
 C1503 C 0.79827 1.06428 0.70564
 C1504 C 0.78845 1.05275 0.69454
 C1505 C 0.77917 1.03903 0.70310
 C1506 C 0.77988 1.03667 0.72257
 C1507 C 0.79016 1.04808 0.73344
 C1508 C 0.79921 1.06206 0.72506
 C1509 C 0.79686 1.06939 0.66671
 C1510 C 0.78793 1.05534 0.67514
 C1511 C 0.81736 1.08841 0.72737
 C1512 C 0.80887 1.07408 0.73575
 H1513 H 0.79603 1.07098 0.65172
 H1514 H 0.78046 1.04649 0.66641
 H1515 H 0.82448 1.09750 0.73615
 H1516 H 0.80967 1.07252 0.75075
 H1517 H 0.83122 1.11521 0.70841
 H1518 H 0.81435 1.09749 0.65413
 H1519 H 0.77135 1.03023 0.69465
 H1520 H 0.79065 1.04643 0.74845
 C1521 C 0.69727 0.58194 0.29614
 C1522 C 0.69806 0.58418 0.31554
 C1523 C 0.68966 0.59863 0.32369
 C1524 C 0.68081 0.61108 0.31258
 C1525 C 0.68020 0.60858 0.29309
 C1526 C 0.68829 0.59397 0.28482
 C1527 C 0.70618 0.56680 0.28748
 C1528 C 0.70531 0.56448 0.26808
 C1529 C 0.71399 0.55016 0.25991
 C1530 C 0.72383 0.53850 0.27097
 C1531 C 0.72452 0.54102 0.29042
 C1532 C 0.71560 0.55507 0.29876
 C1533 C 0.68771 0.59121 0.26545
 C1534 C 0.69600 0.57668 0.25724
 C1535 C 0.70734 0.57198 0.32640
 C1536 C 0.71605 0.55773 0.31814
 H1537 H 0.68080 0.60038 0.25656
 H1538 H 0.69525 0.57506 0.24225
 H1539 H 0.70804 0.57357 0.34139
 H1540 H 0.72322 0.54874 0.32700
 H1541 H 0.68995 0.60011 0.33872
 H1542 H 0.67370 0.61812 0.28430
 H1543 H 0.71352 0.54839 0.24492
 H1544 H 0.73199 0.53205 0.29903
 C1545 C 0.69839 1.08258 0.79628
 C1546 C 0.70120 1.08618 0.81519
 C1547 C 0.69310 1.10082 0.82330
 C1548 C 0.68232 1.11221 0.81267
 C1549 C 0.67975 1.10816 0.79355
 C1550 C 0.68765 1.09341 0.78538
 C1551 C 0.70700 1.06723 0.78767
 C1552 C 0.70422 1.06362 0.76871
 C1553 C 0.71266 1.04916 0.76054
 C1554 C 0.72403 1.03855 0.77116
 C1555 C 0.72653 1.04232 0.79020
 C1556 C 0.71800 1.05660 0.79854
 C1557 C 0.68517 1.08937 0.76644
 C1558 C 0.69327 1.07471 0.75826
 C1559 C 0.71208 1.07506 0.82568
 C1560 C 0.72040 1.06056 0.81748
 H1561 H 0.67691 1.09763 0.75784
 H1562 H 0.69103 1.07210 0.74361
 H1563 H 0.71433 1.07767 0.84033
 H1564 H 0.72881 1.05242 0.82603
 H1565 H 0.69482 1.10278 0.83812
 H1566 H 0.67223 1.11676 0.78461
 H1567 H 0.71073 1.04644 0.74585
 H1568 H 0.73518 1.03420 0.79852
 C1569 C 0.19660 0.58106 0.80256
 C1570 C 0.20593 0.59199 0.81467
 C1571 C 0.19742 0.60640 0.82270
 C1572 C 0.17942 0.60998 0.81914
 C1573 C 0.17029 0.59850 0.80697
 C1574 C 0.17885 0.58421 0.79856
 C1575 C 0.20568 0.56610 0.79375
 C1576 C 0.19649 0.55535 0.78124
 C1577 C 0.20533 0.54133 0.77264
 C1578 C 0.22311 0.53792 0.77681
 C1579 C 0.23201 0.54874 0.78955
 C1580 C 0.22342 0.56294 0.79791
 C1581 C 0.17000 0.57301 0.78617
 C1582 C 0.17869 0.55888 0.77759
 C1583 C 0.22372 0.58846 0.81840
 C1584 C 0.23229 0.57412 0.81024
 H1585 H 0.15627 0.57526 0.78296
 H1586 H 0.17141 0.55066 0.76803
 H1587 H 0.23107 0.59684 0.82774
 H1588 H 0.24601 0.57184 0.81351
 H1589 H 0.20533 0.61517 0.83102
 H1590 H 0.15641 0.60019 0.80430
 H1591 H 0.19838 0.53300 0.76290
 H1592 H 0.24574 0.54632 0.79270
 C1593 C 0.19616 1.08046 0.30405
 C1594 C 0.17841 1.08344 0.29989
 C1595 C 0.16961 1.09756 0.30834
 C1596 C 0.17848 1.10906 0.32070
 C1597 C 0.19649 1.10565 0.32444
 C1598 C 0.20524 1.09140 0.31637
 C1599 C 0.20551 1.06571 0.29516
 C1600 C 0.22327 1.06275 0.29944
 C1601 C 0.23214 1.04880 0.29094
 C1602 C 0.22351 1.03803 0.27792
 C1603 C 0.20570 1.04121 0.27369
 C1604 C 0.19659 1.05498 0.28242
 C1605 C 0.22303 1.08806 0.32024
 C1606 C 0.23187 1.07391 0.31200
 C1607 C 0.16982 1.07224 0.28730
 C1608 C 0.17877 1.05832 0.27864
 H1609 H 0.23020 1.09643 0.32975
 H1610 H 0.24559 1.07178 0.31537
 H1611 H 0.15609 1.07435 0.28396
 H1612 H 0.17169 1.05012 0.26889
 H1613 H 0.15573 1.09910 0.30553
 H1614 H 0.20421 1.11444 0.33292
 H1615 H 0.24588 1.04656 0.29415
 H1616 H 0.19896 1.03294 0.26373
 C1617 C 0.69507 0.42123 0.69925
 C1618 C 0.68499 0.40969 0.71015
 C1619 C 0.67674 0.39539 0.70157
 C1620 C 0.67831 0.39272 0.68216
 C1621 C 0.68825 0.40467 0.67142
 C1622 C 0.69680 0.41883 0.67992
 C1623 C 0.70422 0.43597 0.70829
 C1624 C 0.71476 0.44720 0.69746
 C1625 C 0.72391 0.46083 0.70622
 C1626 C 0.72238 0.46341 0.72561
 C1627 C 0.71144 0.45227 0.73620
 C1628 C 0.70248 0.43839 0.72763
 C1629 C 0.70719 0.43054 0.66950
 C1630 C 0.71609 0.44444 0.67814
 C1631 C 0.68352 0.41255 0.72946
 C1632 C 0.69206 0.42670 0.73804
 H1633 H 0.70862 0.42884 0.65457
 H1634 H 0.72413 0.45305 0.66962
 H1635 H 0.67574 0.40374 0.73802
 H1636 H 0.69062 0.42840 0.75297
 H1637 H 0.66942 0.38617 0.71009
 H1638 H 0.68934 0.40298 0.65646
 H1639 H 0.73222 0.46941 0.69796
 H1640 H 0.71031 0.45409 0.75115
 C1641 C 0.69467 -0.08175 0.20016
 C1642 C 0.67635 -0.08330 0.20211
 C1643 C 0.66765 -0.09735 0.19346
 C1644 C 0.67723 -0.10997 0.18322
 C1645 C 0.69568 -0.10827 0.18181
 C1646 C 0.70440 -0.09411 0.18998
 C1647 C 0.70388 -0.06693 0.20899
 C1648 C 0.72216 -0.06525 0.20666
 C1649 C 0.73085 -0.05108 0.21488
 C1650 C 0.72150 -0.03888 0.22578
 C1651 C 0.70321 -0.04085 0.22823
 C1652 C 0.69427 -0.05478 0.21963
 C1653 C 0.72270 -0.09209 0.18815
 C1654 C 0.73141 -0.07783 0.19625
 C1655 C 0.66714 -0.07078 0.21270
 C1656 C 0.67596 -0.05683 0.22140
 H1657 H 0.73033 -0.10155 0.18030
 H1658 H 0.74553 -0.07669 0.19442
 H1659 H 0.65300 -0.07182 0.21435
 H1660 H 0.66836 -0.04753 0.22951
 H1661 H 0.65346 -0.09833 0.19456
 H1662 H 0.70336 -0.11808 0.17452
 H1663 H 0.74496 -0.04974 0.21313
 H1664 H 0.69595 -0.03144 0.23657
 C1665 C 0.19562 0.41827 0.19768
 C1666 C 0.17731 0.41663 0.19967
 C1667 C 0.16868 0.40247 0.19118
 C1668 C 0.17831 0.38977 0.18111
 C1669 C 0.19674 0.39158 0.17960
 C1670 C 0.20540 0.40589 0.18759
 C1671 C 0.20477 0.43316 0.20645
 C1672 C 0.22304 0.43490 0.20414
 C1673 C 0.23168 0.44908 0.21243
 C1674 C 0.22228 0.46119 0.22338
 C1675 C 0.20398 0.45918 0.22574
 C1676 C 0.19510 0.44527 0.21708
 C1677 C 0.22369 0.40800 0.18573
 C1678 C 0.23234 0.42234 0.19376
 C1679 C 0.16804 0.42916 0.21018
 C1680 C 0.17680 0.44317 0.21884
 H1681 H 0.23137 0.39853 0.17794
 H1682 H 0.24646 0.42352 0.19195
 H1683 H 0.15391 0.42806 0.21186
 H1684 H 0.16917 0.45245 0.22694
 H1685 H 0.15450 0.40142 0.19234
 H1686 H 0.20448 0.38174 0.17243
 H1687 H 0.24580 0.45046 0.21075
 H1688 H 0.19668 0.46853 0.23412
 C1689 C 0.19388 -0.07818 0.69979
 C1690 C 0.18465 -0.09018 0.71099
 C1691 C 0.17635 -0.10453 0.70257
 C1692 C 0.17704 -0.10684 0.68305
 C1693 C 0.18598 -0.09433 0.67203
 C1694 C 0.19461 -0.08013 0.68034
 C1695 C 0.20327 -0.06349 0.70864
 C1696 C 0.21306 -0.05187 0.69750
 C1697 C 0.22250 -0.03832 0.70605
 C1698 C 0.22197 -0.03620 0.72555
 C1699 C 0.21176 -0.04772 0.73649
 C1700 C 0.20255 -0.06154 0.72811
 C1701 C 0.20421 -0.06800 0.66961
 C1702 C 0.21336 -0.05416 0.67806
 C1703 C 0.18416 -0.08776 0.73041
 C1704 C 0.19289 -0.07363 0.73882
 H1705 H 0.20487 -0.06935 0.65459
 H1706 H 0.22080 -0.04523 0.66930
 H1707 H 0.17705 -0.09691 0.73920
 H1708 H 0.19224 -0.07229 0.75385
 H1709 H 0.16982 -0.11415 0.71130
 H1710 H 0.18637 -0.09572 0.65699
 H1711 H 0.23024 -0.02942 0.69754
 H1712 H 0.21139 -0.04623 0.75152
 C1713 C 0.30279 0.30375 0.41937
 C1714 C 0.31322 0.29418 0.40682
 C1715 C 0.32168 0.30297 0.39215
 C1716 C 0.32009 0.32130 0.39014
 C1717 C 0.30973 0.33071 0.40308
 C1718 C 0.30090 0.32196 0.41759
 C1719 C 0.29352 0.29448 0.43456
 C1720 C 0.28265 0.30396 0.44680
 C1721 C 0.27353 0.29500 0.46094
 C1722 C 0.27554 0.27676 0.46308
 C1723 C 0.28672 0.26751 0.45088
 C1724 C 0.29558 0.27628 0.43644
 C1725 C 0.29012 0.33105 0.43029
 C1726 C 0.28108 0.32218 0.44458
 C1727 C 0.31490 0.27597 0.40910
 C1728 C 0.30631 0.26719 0.42373
 H1729 H 0.28855 0.34511 0.42907
 H1730 H 0.27278 0.32966 0.45397
 H1731 H 0.32295 0.26845 0.39951
 H1732 H 0.30797 0.25314 0.42501
 H1733 H 0.32922 0.29545 0.38212
 H1734 H 0.30857 0.34481 0.40194
 H1735 H 0.26501 0.30220 0.47037
 H1736 H 0.28820 0.25346 0.45235
 C1737 C 0.30090 0.80483 -0.08352
 C1738 C 0.31927 0.80359 -0.08510
 C1739 C 0.32784 0.81198 -0.09999
 C1740 C 0.31815 0.82124 -0.11354
 C1741 C 0.29967 0.82221 -0.11174
 C1742 C 0.29102 0.81418 -0.09668
 C1743 C 0.29183 0.79605 -0.06787
 C1744 C 0.27347 0.79746 -0.06617
 C1745 C 0.26490 0.78898 -0.05132
 C1746 C 0.27454 0.77881 -0.03855
 C1747 C 0.29294 0.77753 -0.04049
 C1748 C 0.30168 0.78626 -0.05503
 C1749 C 0.27266 0.81525 -0.09455
 C1750 C 0.26404 0.80711 -0.07950
 C1751 C 0.32871 0.79392 -0.07178
 C1752 C 0.32005 0.78532 -0.05707
 H1753 H 0.26488 0.82246 -0.10460
 H1754 H 0.24987 0.80826 -0.07838
 H1755 H 0.34289 0.79286 -0.07284
 H1756 H 0.32780 0.77785 -0.04721
 H1757 H 0.34206 0.81137 -0.10092
 H1758 H 0.29197 0.82898 -0.12218
 H1759 H 0.25071 0.78989 -0.04999
 H1760 H 0.30044 0.76980 -0.03063
 C1761 C 0.80231 0.30119 -0.08293
 C1762 C 0.81203 0.29151 -0.09602
 C1763 C 0.82030 0.30028 -0.11085
 C1764 C 0.81922 0.31868 -0.11246
 C1765 C 0.80955 0.32817 -0.09900
 C1766 C 0.80091 0.31947 -0.08435
 C1767 C 0.79332 0.29198 -0.06750
 C1768 C 0.78319 0.30161 -0.05469
 C1769 C 0.77435 0.29274 -0.04030
 C1770 C 0.77589 0.27443 -0.03848
 C1771 C 0.78636 0.26502 -0.05126
 C1772 C 0.79493 0.27371 -0.06594
 C1773 C 0.79087 0.32869 -0.07110
 C1774 C 0.78207 0.31990 -0.05659
 C1775 C 0.81326 0.27323 -0.09406
 C1776 C 0.80493 0.26450 -0.07922
 H1777 H 0.78968 0.34280 -0.07204
 H1778 H 0.77435 0.32748 -0.04676
 H1779 H 0.82075 0.26562 -0.10406
 H1780 H 0.80623 0.25039 -0.07820
 H1781 H 0.82736 0.29273 -0.12124
 H1782 H 0.80883 0.34232 -0.09981
 H1783 H 0.76638 0.30006 -0.03045
 H1784 H 0.78747 0.25091 -0.05003
 C1785 C 0.80271 0.80250 0.41800
 C1786 C 0.81296 0.79300 0.40522
 C1787 C 0.82146 0.80192 0.39066
 C1788 C 0.82008 0.82030 0.38898
 C1789 C 0.80991 0.82962 0.40215
 C1790 C 0.80105 0.82076 0.41656
 C1791 C 0.79339 0.79310 0.43308
 C1792 C 0.78271 0.80252 0.44555
 C1793 C 0.77355 0.79345 0.45959
 C1794 C 0.77531 0.77516 0.46138
 C1795 C 0.78630 0.76596 0.44893
 C1796 C 0.79522 0.77485 0.43461
 C1797 C 0.79045 0.82977 0.42949
 C1798 C 0.78137 0.82080 0.44367
 C1799 C 0.81442 0.77474 0.40716
 C1800 C 0.80577 0.76583 0.42168
 H1801 H 0.78905 0.84387 0.42853
 H1802 H 0.77322 0.82823 0.45324
 H1803 H 0.82232 0.76727 0.39739
 H1804 H 0.80725 0.75174 0.42269
 H1805 H 0.82886 0.79447 0.38045
 H1806 H 0.80891 0.84375 0.40126
 H1807 H 0.76519 0.80062 0.46920
 H1808 H 0.78761 0.75187 0.45014
 C1809 C 0.69779 0.30292 0.58250
 C1810 C 0.69935 0.32118 0.58403
 C1811 C 0.69077 0.32983 0.59873
 C1812 C 0.68100 0.32033 0.61213
 C1813 C 0.67984 0.30194 0.61044
 C1814 C 0.68801 0.29322 0.59556
 C1815 C 0.70663 0.29376 0.56697
 C1816 C 0.70480 0.27553 0.56526
 C1817 C 0.71320 0.26689 0.55045
 C1818 C 0.72371 0.27632 0.53770
 C1819 C 0.72550 0.29458 0.53968
 C1820 C 0.71681 0.30341 0.55419
 C1821 C 0.68661 0.27497 0.59347
 C1822 C 0.69478 0.26629 0.57851
 C1823 C 0.70945 0.33041 0.57082
 C1824 C 0.71813 0.32166 0.55622
 H1825 H 0.67908 0.26734 0.60344
 H1826 H 0.69332 0.25221 0.57739
 H1827 H 0.71076 0.34451 0.57185
 H1828 H 0.72590 0.32926 0.54643
 H1829 H 0.69157 0.34398 0.59958
 H1830 H 0.67272 0.29436 0.62079
 H1831 H 0.71192 0.25281 0.54909
 H1832 H 0.73352 0.30190 0.52985
 C1833 C 0.69657 0.80422 1.08097
 C1834 C 0.70619 0.81414 1.09384
 C1835 C 0.69732 0.82223 1.10869
 C1836 C 0.67888 0.82076 1.11058
 C1837 C 0.66944 0.81092 1.09731
 C1838 C 0.67824 0.80248 1.08261
 C1839 C 0.70591 0.79529 1.06561
 C1840 C 0.69636 0.78489 1.05308
 C1841 C 0.70538 0.77600 1.03885
 C1842 C 0.72375 0.77772 1.03693
 C1843 C 0.73307 0.78850 1.04938
 C1844 C 0.72423 0.79715 1.06390
 C1845 C 0.66910 0.79220 1.06959
 C1846 C 0.67802 0.78348 1.05514
 C1847 C 0.72451 0.81568 1.09170
 C1848 C 0.73337 0.80740 1.07693
 H1849 H 0.65495 0.79075 1.07069
 H1850 H 0.67050 0.77555 1.04552
 H1851 H 0.73208 0.82334 1.10154
 H1852 H 0.74751 0.80891 1.07579
 H1853 H 0.70487 0.82938 1.11896
 H1854 H 0.65525 0.80987 1.09836
 H1855 H 0.69812 0.76780 1.02924
 H1856 H 0.74723 0.78976 1.04807
 C1857 C 0.19790 0.30128 1.08153
 C1858 C 0.20744 0.31160 1.09412
 C1859 C 0.19849 0.32009 1.10864
 C1860 C 0.18005 0.31867 1.11045
 C1861 C 0.17068 0.30840 1.09748
 C1862 C 0.17957 0.29953 1.08312
 C1863 C 0.20733 0.29201 1.06647
 C1864 C 0.19788 0.28127 1.05417
 C1865 C 0.20698 0.27223 1.04008
 C1866 C 0.22532 0.27419 1.03808
 C1867 C 0.23454 0.28520 1.05038
 C1868 C 0.22564 0.29398 1.06475
 C1869 C 0.17053 0.28886 1.07039
 C1870 C 0.17954 0.27981 1.05622
 C1871 C 0.22576 0.31316 1.09202
 C1872 C 0.23469 0.30458 1.07751
 H1873 H 0.15639 0.28739 1.07146
 H1874 H 0.17208 0.27163 1.04678
 H1875 H 0.23325 0.32112 1.10165
 H1876 H 0.24882 0.30616 1.07635
 H1877 H 0.20598 0.32756 1.11870
 H1878 H 0.15650 0.30735 1.09848
 H1879 H 0.19981 0.26385 1.03057
 H1880 H 0.24867 0.28664 1.04901
 C1881 C 0.19959 0.80371 0.58390
 C1882 C 0.20951 0.81297 0.59708
 C1883 C 0.20084 0.82125 0.61196
 C1884 C 0.18234 0.82061 0.61355
 C1885 C 0.17262 0.81147 0.59994
 C1886 C 0.18118 0.80282 0.58525
 C1887 C 0.20866 0.79460 0.56848
 C1888 C 0.19876 0.78487 0.55564
 C1889 C 0.20749 0.77580 0.54135
 C1890 C 0.22593 0.77671 0.53966
 C1891 C 0.23563 0.78684 0.55239
 C1892 C 0.22706 0.79564 0.56701
 C1893 C 0.17171 0.79322 0.57193
 C1894 C 0.18036 0.78430 0.55744
 C1895 C 0.22791 0.81367 0.59517
 C1896 C 0.23653 0.80524 0.58033
 H1897 H 0.15750 0.79243 0.57282
 H1898 H 0.17258 0.77689 0.54758
 H1899 H 0.23571 0.82082 0.60524
 H1900 H 0.25073 0.80610 0.57938
 H1901 H 0.20856 0.82795 0.62244
 H1902 H 0.15839 0.81112 0.60070
 H1903 H 0.19996 0.76810 0.53151
 H1904 H 0.24985 0.78745 0.55125
 C1905 C 0.30032 0.69685 0.58610
 C1906 C 0.31869 0.69792 0.58763
 C1907 C 0.32708 0.68938 0.60245
 C1908 C 0.31723 0.68013 0.61597
 C1909 C 0.29876 0.67933 0.61422
 C1910 C 0.29026 0.68752 0.59923
 C1911 C 0.29144 0.70576 0.57049
 C1912 C 0.27308 0.70449 0.56879
 C1913 C 0.26470 0.71301 0.55393
 C1914 C 0.27453 0.72307 0.54112
 C1915 C 0.29292 0.72425 0.54308
 C1916 C 0.30147 0.71548 0.55764
 C1917 C 0.27191 0.68662 0.59712
 C1918 C 0.26347 0.69489 0.58211
 C1919 C 0.32830 0.70755 0.57434
 C1920 C 0.31983 0.71627 0.55966
 H1921 H 0.26400 0.67944 0.60715
 H1922 H 0.24930 0.69384 0.58099
 H1923 H 0.34249 0.70848 0.57538
 H1924 H 0.32771 0.72367 0.54980
 H1925 H 0.34130 0.68984 0.60332
 H1926 H 0.29094 0.67254 0.62463
 H1927 H 0.25052 0.71218 0.55258
 H1928 H 0.30057 0.73189 0.53319
 C1929 C 0.30336 0.19713 1.08318
 C1930 C 0.31331 0.20695 1.09587
 C1931 C 0.32159 0.19838 1.11072
 C1932 C 0.32034 0.18003 1.11276
 C1933 C 0.31043 0.17038 1.09971
 C1934 C 0.30176 0.17889 1.08502
 C1935 C 0.29433 0.20616 1.06774
 C1936 C 0.28396 0.19643 1.05533
 C1937 C 0.27511 0.20515 1.04090
 C1938 C 0.27693 0.22339 1.03866
 C1939 C 0.28759 0.23290 1.05107
 C1940 C 0.29616 0.22438 1.06577
 C1941 C 0.29147 0.16956 1.07217
 C1942 C 0.28264 0.17819 1.05765
 C1943 C 0.31473 0.22517 1.09351
 C1944 C 0.30638 0.23373 1.07865
 H1945 H 0.29011 0.15548 1.07344
 H1946 H 0.27473 0.17051 1.04813
 H1947 H 0.32239 0.23288 1.10321
 H1948 H 0.30784 0.24779 1.07731
 H1949 H 0.32877 0.20608 1.12083
 H1950 H 0.30953 0.15626 1.10089
 H1951 H 0.26699 0.19776 1.03133
 H1952 H 0.28890 0.24697 1.04951
 C1953 C 0.80015 0.69981 1.08367
 C1954 C 0.81846 0.70149 1.08541
 C1955 C 0.82702 0.69317 1.10028
 C1956 C 0.81737 0.68349 1.11363
 C1957 C 0.79894 0.68213 1.11170
 C1958 C 0.79031 0.69010 1.09667
 C1959 C 0.79111 0.70843 1.06798
 C1960 C 0.77282 0.70655 1.06608
 C1961 C 0.76428 0.71482 1.05115
 C1962 C 0.77388 0.72524 1.03847
 C1963 C 0.79221 0.72702 1.04062
 C1964 C 0.80091 0.71851 1.05526
 C1965 C 0.77201 0.68859 1.09437
 C1966 C 0.76343 0.69659 1.07928
 C1967 C 0.82786 0.71148 1.07224
 C1968 C 0.81922 0.71993 1.05748
 H1969 H 0.76426 0.68111 1.10429
 H1970 H 0.74931 0.69507 1.07802
 H1971 H 0.84199 0.71289 1.07343
 H1972 H 0.82694 0.72762 1.04772
 H1973 H 0.84120 0.69410 1.10131
 H1974 H 0.79126 0.67503 1.12199
 H1975 H 0.75015 0.71352 1.04966
 H1976 H 0.79969 0.73494 1.03085
 C1977 C 0.80100 0.19957 0.58294
 C1978 C 0.79110 0.18979 0.59583
 C1979 C 0.79971 0.18144 0.61064
 C1980 C 0.81817 0.18249 0.61242
 C1981 C 0.82787 0.19223 0.59916
 C1982 C 0.81934 0.20095 0.58453
 C1983 C 0.79197 0.20858 0.56748
 C1984 C 0.80182 0.21871 0.55483
 C1985 C 0.79311 0.22747 0.54033
 C1986 C 0.77478 0.22580 0.53825
 C1987 C 0.76515 0.21541 0.55093
 C1988 C 0.77366 0.20693 0.56571
 C1989 C 0.82878 0.21103 0.57147
 C1990 C 0.82015 0.21984 0.55694
 C1991 C 0.77278 0.18858 0.59368
 C1992 C 0.76421 0.19692 0.57881
 H1993 H 0.84294 0.21221 0.57256
 H1994 H 0.82791 0.22757 0.54724
 H1995 H 0.76499 0.18105 0.60353
 H1996 H 0.75007 0.19559 0.57762
 H1997 H 0.79199 0.17432 0.62087
 H1998 H 0.84208 0.19292 0.60008
 H1999 H 0.80059 0.23539 0.53055
 H2000 H 0.75101 0.21421 0.54951
 C2001 C 0.69714 0.69771 0.41581
 C2002 C 0.69907 0.67951 0.41391
 C2003 C 0.69058 0.67089 0.39919
 C2004 C 0.68047 0.68039 0.38617
 C2005 C 0.67886 0.69871 0.38829
 C2006 C 0.68699 0.70738 0.40315
 C2007 C 0.70601 0.70684 0.43127
 C2008 C 0.70389 0.72502 0.43329
 C2009 C 0.71237 0.73364 0.44799
 C2010 C 0.72322 0.72427 0.46035
 C2011 C 0.72526 0.70605 0.45808
 C2012 C 0.71654 0.69724 0.44365
 C2013 C 0.68525 0.72557 0.40557
 C2014 C 0.69348 0.73422 0.42043
 C2015 C 0.70953 0.67031 0.42674
 C2016 C 0.71819 0.67903 0.44130
 H2017 H 0.67743 0.73318 0.39590
 H2018 H 0.69178 0.74825 0.42180
 H2019 H 0.71114 0.65626 0.42544
 H2020 H 0.72623 0.67147 0.45079
 H2021 H 0.69176 0.65679 0.39797
 H2022 H 0.67149 0.70630 0.37821
 H2023 H 0.71085 0.74769 0.44956
 H2024 H 0.73351 0.69873 0.46761
 C2025 C 0.69816 0.19771 -0.08365
 C2026 C 0.69984 0.17947 -0.08547
 C2027 C 0.69144 0.17096 -0.10033
 C2028 C 0.68172 0.18060 -0.11356
 C2029 C 0.68037 0.19895 -0.11151
 C2030 C 0.68838 0.20752 -0.09651
 C2031 C 0.70694 0.20673 -0.06807
 C2032 C 0.70508 0.22495 -0.06615
 C2033 C 0.71350 0.23348 -0.05135
 C2034 C 0.72405 0.22398 -0.03881
 C2035 C 0.72583 0.20573 -0.04098
 C2036 C 0.71716 0.19700 -0.05550
 C2037 C 0.68689 0.22573 -0.09418
 C2038 C 0.69502 0.23429 -0.07919
 C2039 C 0.70995 0.17015 -0.07244
 C2040 C 0.71855 0.17877 -0.05777
 H2041 H 0.67935 0.23344 -0.10400
 H2042 H 0.69352 0.24835 -0.07789
 H2043 H 0.71136 0.15607 -0.07369
 H2044 H 0.72634 0.17110 -0.04814
 H2045 H 0.69242 0.15685 -0.10151
 H2046 H 0.67332 0.20665 -0.12174
 H2047 H 0.71220 0.24756 -0.04986
 H2048 H 0.73387 0.19833 -0.03131
 C2049 C 0.19878 0.69880 -0.08217
 C2050 C 0.20864 0.68878 -0.09484
 C2051 C 0.20002 0.68042 -0.10961
 C2052 C 0.18160 0.68171 -0.11159
 C2053 C 0.17191 0.69169 -0.09856
 C2054 C 0.18046 0.70040 -0.08395
 C2055 C 0.20784 0.70792 -0.06684
 C2056 C 0.19804 0.71835 -0.05446
 C2057 C 0.20678 0.72734 -0.04019
 C2058 C 0.22513 0.72569 -0.03807
 C2059 C 0.23470 0.71492 -0.05040
 C2060 C 0.22614 0.70617 -0.06496
 C2061 C 0.17107 0.71074 -0.07112
 C2062 C 0.17973 0.71964 -0.05668
 C2063 C 0.22694 0.68739 -0.09256
 C2064 C 0.23553 0.69586 -0.07781
 H2065 H 0.15693 0.71209 -0.07233
 H2066 H 0.17201 0.72760 -0.04719
 H2067 H 0.23469 0.67966 -0.10224
 H2068 H 0.24966 0.69443 -0.07653
 H2069 H 0.20774 0.67314 -0.11970
 H2070 H 0.15774 0.69261 -0.09970
 H2071 H 0.19932 0.73553 -0.03067
 H2072 H 0.24884 0.71371 -0.04893
 C2073 C 0.19684 0.19884 0.41857
 C2074 C 0.17848 0.20016 0.41708
 C2075 C 0.16983 0.19102 0.40282
 C2076 C 0.17946 0.18088 0.38987
 C2077 C 0.19792 0.17990 0.39156
 C2078 C 0.20664 0.18867 0.40596
 C2079 C 0.20601 0.20832 0.43357
 C2080 C 0.22434 0.20671 0.43522
 C2081 C 0.23298 0.21558 0.44961
 C2082 C 0.22348 0.22628 0.46207
 C2083 C 0.20513 0.22796 0.46009
 C2084 C 0.19629 0.21883 0.44595
 C2085 C 0.22498 0.18752 0.40796
 C2086 C 0.23367 0.19632 0.42241
 C2087 C 0.16917 0.21066 0.42984
 C2088 C 0.17793 0.21990 0.44397
 H2089 H 0.23268 0.17970 0.39832
 H2090 H 0.24782 0.19502 0.42352
 H2091 H 0.15500 0.21181 0.42884
 H2092 H 0.17026 0.22791 0.45346
 H2093 H 0.15563 0.19173 0.40190
 H2094 H 0.20560 0.17253 0.38150
 H2095 H 0.24713 0.21435 0.45096
 H2096 H 0.19775 0.23610 0.46971
 C2097 C 0.30380 0.41894 0.70296
 C2098 C 0.31357 0.40741 0.71413
 C2099 C 0.32190 0.39299 0.70583
 C2100 C 0.32070 0.39014 0.68644
 C2101 C 0.31112 0.40210 0.67542
 C2102 C 0.30250 0.41639 0.68363
 C2103 C 0.29456 0.43382 0.71170
 C2104 C 0.28438 0.44504 0.70059
 C2105 C 0.27523 0.45889 0.70905
 C2106 C 0.27645 0.46169 0.72842
 C2107 C 0.28698 0.45048 0.73930
 C2108 C 0.29592 0.43640 0.73103
 C2109 C 0.29243 0.42808 0.67293
 C2110 C 0.28345 0.44212 0.68128
 C2111 C 0.31463 0.41044 0.73343
 C2112 C 0.30602 0.42473 0.74172
 H2113 H 0.29132 0.42625 0.65799
 H2114 H 0.27569 0.45072 0.67255
 H2115 H 0.32215 0.40166 0.74220
 H2116 H 0.30715 0.42657 0.75665
 H2117 H 0.32896 0.38378 0.71454
 H2118 H 0.31034 0.40029 0.66046
 H2119 H 0.26724 0.46753 0.70057
 H2120 H 0.28788 0.45246 0.75423
 C2121 C 0.30695 0.92254 0.20119
 C2122 C 0.30610 0.92064 0.18174
 C2123 C 0.31476 0.90649 0.17324
 C2124 C 0.32383 0.89400 0.18409
 C2125 C 0.32463 0.89627 0.20360
 C2126 C 0.31632 0.91056 0.21219
 C2127 C 0.29754 0.93715 0.21024
 C2128 C 0.29839 0.93905 0.22970
 C2129 C 0.28921 0.95280 0.23827
 C2130 C 0.27889 0.96434 0.22758
 C2131 C 0.27818 0.96226 0.20807
 C2132 C 0.28761 0.94876 0.19931
 C2133 C 0.31692 0.91292 0.23161
 C2134 C 0.30819 0.92698 0.24021
 C2135 C 0.29635 0.93274 0.17122
 C2136 C 0.28719 0.94651 0.17987
 H2137 H 0.32414 0.90379 0.24025
 H2138 H 0.30893 0.92829 0.25523
 H2139 H 0.29560 0.93142 0.15620
 H2140 H 0.27964 0.95542 0.17127
 H2141 H 0.31427 0.90515 0.15821
 H2142 H 0.33125 0.88666 0.21220
 H2143 H 0.28971 0.95424 0.25331
 H2144 H 0.27034 0.97116 0.19974
 C2145 C 0.80735 0.42062 0.19844
 C2146 C 0.81662 0.40887 0.20981
 C2147 C 0.82482 0.39429 0.20167
 C2148 C 0.82401 0.39149 0.18223
 C2149 C 0.81501 0.40374 0.17101
 C2150 C 0.80647 0.41818 0.17907
 C2151 C 0.79808 0.43557 0.20704
 C2152 C 0.78827 0.44696 0.19574
 C2153 C 0.77898 0.46079 0.20407
 C2154 C 0.77967 0.46341 0.22350
 C2155 C 0.78990 0.45208 0.23457
 C2156 C 0.79896 0.43801 0.22643
 C2157 C 0.79684 0.43008 0.16817
 C2158 C 0.78782 0.44417 0.17638
 C2159 C 0.81725 0.41177 0.22915
 C2160 C 0.80864 0.42614 0.23731
 H2161 H 0.79606 0.42835 0.15320
 H2162 H 0.78036 0.45291 0.16750
 H2163 H 0.82439 0.40282 0.23808
 H2164 H 0.80941 0.42786 0.25228
 H2165 H 0.83138 0.38488 0.21056
 H2166 H 0.81452 0.40199 0.15603
 H2167 H 0.77122 0.46952 0.19545
 H2168 H 0.79039 0.45393 0.24955
 C2169 C 0.80619 0.91984 0.69837
 C2170 C 0.81552 0.90812 0.70972
 C2171 C 0.82375 0.89356 0.70156
 C2172 C 0.82292 0.89078 0.68213
 C2173 C 0.81385 0.90298 0.67092
 C2174 C 0.80529 0.91740 0.67900
 C2175 C 0.79693 0.93479 0.70698
 C2176 C 0.78709 0.94617 0.69571
 C2177 C 0.77783 0.96001 0.70405
 C2178 C 0.77861 0.96266 0.72347
 C2179 C 0.78884 0.95132 0.73452
 C2180 C 0.79786 0.93723 0.72636
 C2181 C 0.79561 0.92928 0.66812
 C2182 C 0.78659 0.94337 0.67635
 C2183 C 0.81618 0.91102 0.72906
 C2184 C 0.80758 0.92538 0.73723
 H2185 H 0.79481 0.92755 0.65315
 H2186 H 0.77911 0.95210 0.66748
 H2187 H 0.82336 0.90208 0.73797
 H2188 H 0.80838 0.92711 0.75220
 H2189 H 0.83036 0.88418 0.71044
 H2190 H 0.81334 0.90123 0.65594
 H2191 H 0.77008 0.96875 0.69544
 H2192 H 0.78940 0.95319 0.74949
 C2193 C 0.69523 0.57975 0.70093
 C2194 C 0.68529 0.59119 0.71209
 C2195 C 0.67682 0.60550 0.70375
 C2196 C 0.67805 0.60831 0.68433
 C2197 C 0.68782 0.59644 0.67334
 C2198 C 0.69658 0.58227 0.68158
 C2199 C 0.70459 0.56498 0.70970
 C2200 C 0.71495 0.55385 0.69860
 C2201 C 0.72422 0.54013 0.70709
 C2202 C 0.72296 0.53736 0.72648
 C2203 C 0.71224 0.54846 0.73735
 C2204 C 0.70317 0.56242 0.72905
 C2205 C 0.70683 0.57067 0.67089
 C2206 C 0.71593 0.55675 0.67927
 C2207 C 0.68418 0.58819 0.73140
 C2208 C 0.69290 0.57401 0.73973
 H2209 H 0.70798 0.57247 0.65594
 H2210 H 0.72383 0.54821 0.67055
 H2211 H 0.67652 0.59691 0.74017
 H2212 H 0.69173 0.57219 0.75467
 H2213 H 0.66963 0.61464 0.71245
 H2214 H 0.68863 0.59821 0.65836
 H2215 H 0.73236 0.53158 0.69862
 H2216 H 0.71130 0.54649 0.75229
 C2217 C 0.69277 0.07839 0.19995
 C2218 C 0.68288 0.08986 0.21113
 C2219 C 0.67459 0.10430 0.20285
 C2220 C 0.67596 0.10724 0.18346
 C2221 C 0.68563 0.09531 0.17243
 C2222 C 0.69422 0.08100 0.18062
 C2223 C 0.70202 0.06353 0.20869
 C2224 C 0.71238 0.05240 0.19759
 C2225 C 0.72161 0.03863 0.20606
 C2226 C 0.72033 0.03584 0.22544
 C2227 C 0.70958 0.04693 0.23630
 C2228 C 0.70055 0.06092 0.22802
 C2229 C 0.70443 0.06938 0.16992
 C2230 C 0.71342 0.05537 0.17827
 C2231 C 0.68168 0.08678 0.23043
 C2232 C 0.69030 0.07251 0.23871
 H2233 H 0.70565 0.07124 0.15499
 H2234 H 0.72131 0.04683 0.16953
 H2235 H 0.67407 0.09551 0.23921
 H2236 H 0.68908 0.07065 0.25365
 H2237 H 0.66747 0.11347 0.21158
 H2238 H 0.68655 0.09717 0.15747
 H2239 H 0.72978 0.03011 0.19759
 H2240 H 0.70863 0.04496 0.25125
 C2241 C 0.19312 0.57800 0.19813
 C2242 C 0.19432 0.58044 0.17876
 C2243 C 0.18563 0.59470 0.17055
 C2244 C 0.17619 0.60678 0.18163
 C2245 C 0.17507 0.60397 0.20106
 C2246 C 0.18339 0.58956 0.20934
 C2247 C 0.20251 0.56324 0.20689
 C2248 C 0.20126 0.56079 0.22626
 C2249 C 0.21037 0.54688 0.23456
 C2250 C 0.22102 0.53572 0.22369
 C2251 C 0.22217 0.53837 0.20428
 C2252 C 0.21280 0.55204 0.19577
 C2253 C 0.18243 0.58666 0.22868
 C2254 C 0.19113 0.57246 0.23698
 C2255 C 0.20443 0.56874 0.16804
 C2256 C 0.21359 0.55484 0.17641
 H2257 H 0.17493 0.59547 0.23748
 H2258 H 0.19009 0.57072 0.25194
 H2259 H 0.20546 0.57047 0.15307
 H2260 H 0.22141 0.54625 0.16766
 H2261 H 0.18637 0.59644 0.15557
 H2262 H 0.16818 0.61327 0.20986
 H2263 H 0.20954 0.54501 0.24953
 H2264 H 0.23027 0.52977 0.19583
 C2265 C 0.19377 0.07953 0.70003
 C2266 C 0.18376 0.09089 0.71121
 C2267 C 0.17522 0.10516 0.70289
 C2268 C 0.17646 0.10801 0.68348
 C2269 C 0.18627 0.09620 0.67246
 C2270 C 0.19510 0.08207 0.68068
 C2271 C 0.20327 0.06486 0.70880
 C2272 C 0.21372 0.05382 0.69769
 C2273 C 0.22317 0.04023 0.70617
 C2274 C 0.22202 0.03750 0.72557
 C2275 C 0.21119 0.04848 0.73645
 C2276 C 0.20193 0.06231 0.72815
 C2277 C 0.20542 0.07055 0.66998
 C2278 C 0.21464 0.05671 0.67835
 C2279 C 0.18270 0.08790 0.73052
 C2280 C 0.19157 0.07380 0.73884
 H2281 H 0.20654 0.07236 0.65503
 H2282 H 0.22261 0.04824 0.66962
 H2283 H 0.17499 0.09656 0.73930
 H2284 H 0.19044 0.07198 0.75379
 H2285 H 0.16798 0.11427 0.71160
 H2286 H 0.18709 0.09802 0.65749
 H2287 H 0.23139 0.03177 0.69769
 H2288 H 0.21034 0.04653 0.75141
 C2289 C 0.30210 0.57867 0.30010
 C2290 C 0.29241 0.59104 0.31030
 C2291 C 0.30118 0.60517 0.31850
 C2292 C 0.31964 0.60682 0.31710
 C2293 C 0.32918 0.59413 0.30691
 C2294 C 0.32043 0.58014 0.29821
 C2295 C 0.29283 0.56395 0.29113
 C2296 C 0.30242 0.55184 0.28042
 C2297 C 0.29344 0.53807 0.27160
 C2298 C 0.27512 0.53620 0.27389
 C2299 C 0.26579 0.54832 0.28491
 C2300 C 0.27453 0.56236 0.29335
 C2301 C 0.32962 0.56762 0.28760
 C2302 C 0.32075 0.55378 0.27876
 C2303 C 0.27409 0.58909 0.31205
 C2304 C 0.26532 0.57492 0.30383
 H2305 H 0.34376 0.56859 0.28600
 H2306 H 0.32832 0.54450 0.27060
 H2307 H 0.26648 0.59856 0.31992
 H2308 H 0.25119 0.57386 0.30558
 H2309 H 0.29352 0.61502 0.32576
 H2310 H 0.34337 0.59503 0.30583
 H2311 H 0.30068 0.52872 0.26319
 H2312 H 0.25165 0.54705 0.28654
 C2313 C 0.30706 0.07929 0.79936
 C2314 C 0.31703 0.09075 0.78823
 C2315 C 0.32558 0.10497 0.79662
 C2316 C 0.32438 0.10767 0.81605
 C2317 C 0.31462 0.09575 0.82702
 C2318 C 0.30579 0.08167 0.81873
 C2319 C 0.29754 0.06467 0.79053
 C2320 C 0.28712 0.05355 0.80160
 C2321 C 0.27765 0.04002 0.79306
 C2322 C 0.27874 0.03744 0.77364
 C2323 C 0.28953 0.04851 0.76279
 C2324 C 0.29882 0.06228 0.77115
 C2325 C 0.29550 0.07005 0.82939
 C2326 C 0.28626 0.05627 0.82096
 C2327 C 0.31804 0.08791 0.76889
 C2328 C 0.30915 0.07387 0.76051
 H2329 H 0.29442 0.07175 0.84435
 H2330 H 0.27832 0.04773 0.82965
 H2331 H 0.32572 0.09665 0.76015
 H2332 H 0.31024 0.07217 0.74554
 H2333 H 0.33279 0.11416 0.78796
 H2334 H 0.31383 0.09745 0.84200
 H2335 H 0.26945 0.03149 0.80152
 H2336 H 0.29035 0.04667 0.74782
 C2337 C 0.80739 0.57795 0.80124
 C2338 C 0.80633 0.58008 0.82065
 C2339 C 0.81507 0.59421 0.82901
 C2340 C 0.82444 0.60645 0.81805
 C2341 C 0.82543 0.60396 0.79857
 C2342 C 0.81704 0.58969 0.79012
 C2343 C 0.79789 0.56336 0.79232
 C2344 C 0.79894 0.56124 0.77289
 C2345 C 0.78966 0.54753 0.76444
 C2346 C 0.77904 0.53626 0.77524
 C2347 C 0.77816 0.53854 0.79472
 C2348 C 0.78768 0.55200 0.80335
 C2349 C 0.81784 0.58711 0.77074
 C2350 C 0.80902 0.57307 0.76227
 C2351 C 0.79630 0.56821 0.83128
 C2352 C 0.78706 0.55447 0.82276
 H2353 H 0.82528 0.59606 0.76201
 H2354 H 0.80992 0.57159 0.74727
 H2355 H 0.79539 0.56971 0.84628
 H2356 H 0.77930 0.54575 0.83144
 H2357 H 0.81442 0.59574 0.84402
 H2358 H 0.83228 0.61339 0.78987
 H2359 H 0.79029 0.54593 0.74943
 H2360 H 0.77010 0.52984 0.80312
 C2361 C 0.80337 0.07904 0.29947
 C2362 C 0.81339 0.09036 0.28824
 C2363 C 0.82177 0.10478 0.29644
 C2364 C 0.82038 0.10782 0.31580
 C2365 C 0.81051 0.09606 0.32688
 C2366 C 0.80183 0.08177 0.31876
 C2367 C 0.79409 0.06416 0.29082
 C2368 C 0.78364 0.05312 0.30198
 C2369 C 0.77445 0.03929 0.29360
 C2370 C 0.77587 0.03633 0.27426
 C2371 C 0.78667 0.04734 0.26335
 C2372 C 0.79567 0.06139 0.27153
 C2373 C 0.79150 0.07027 0.32952
 C2374 C 0.78250 0.05624 0.32126
 C2375 C 0.81467 0.08716 0.26898
 C2376 C 0.80602 0.07287 0.26078
 H2377 H 0.79022 0.07224 0.34443
 H2378 H 0.77453 0.04779 0.33003
 H2379 H 0.82239 0.09579 0.26016
 H2380 H 0.80732 0.07090 0.24588
 H2381 H 0.82904 0.11383 0.28767
 H2382 H 0.80956 0.09801 0.34182
 H2383 H 0.76624 0.03082 0.30211
 H2384 H 0.78774 0.04524 0.24843
 C2385 C 0.69568 0.42124 0.29735
 C2386 C 0.68581 0.40977 0.28624
 C2387 C 0.67758 0.39526 0.29458
 C2388 C 0.67900 0.39228 0.31395
 C2389 C 0.68868 0.40419 0.32490
 C2390 C 0.69719 0.41857 0.31665
 C2391 C 0.70484 0.43618 0.28856
 C2392 C 0.71517 0.44733 0.29960
 C2393 C 0.72435 0.46115 0.29108
 C2394 C 0.72308 0.46399 0.27171
 C2395 C 0.71234 0.45291 0.26092
 C2396 C 0.70334 0.43886 0.26925
 C2397 C 0.70736 0.43021 0.32729
 C2398 C 0.71626 0.44430 0.31889
 C2399 C 0.68457 0.41291 0.26697
 C2400 C 0.69312 0.42725 0.25864
 H2401 H 0.70862 0.42830 0.34220
 H2402 H 0.72413 0.45284 0.32757
 H2403 H 0.67697 0.40417 0.25824
 H2404 H 0.69187 0.42915 0.24372
 H2405 H 0.67044 0.38611 0.28591
 H2406 H 0.68963 0.40229 0.33984
 H2407 H 0.73251 0.46965 0.29950
 H2408 H 0.71139 0.45492 0.24598
 C2409 C 0.69404 0.92188 0.79768
 C2410 C 0.68471 0.91002 0.78652
 C2411 C 0.67650 0.89555 0.79492
 C2412 C 0.67737 0.89298 0.81440
 C2413 C 0.68643 0.90534 0.82539
 C2414 C 0.69497 0.91967 0.81709
 C2415 C 0.70335 0.93669 0.78882
 C2416 C 0.71326 0.94816 0.79990
 C2417 C 0.72267 0.96180 0.79131
 C2418 C 0.72198 0.96414 0.77183
 C2419 C 0.71161 0.95278 0.76099
 C2420 C 0.70244 0.93889 0.76939
 C2421 C 0.70469 0.93166 0.82776
 C2422 C 0.71375 0.94561 0.81930
 C2423 C 0.68403 0.91269 0.76714
 C2424 C 0.69267 0.92693 0.75873
 H2425 H 0.70550 0.93011 0.84275
 H2426 H 0.72129 0.95442 0.82801
 H2427 H 0.67683 0.90365 0.75838
 H2428 H 0.69189 0.92846 0.74373
 H2429 H 0.66989 0.88605 0.78619
 H2430 H 0.68696 0.90376 0.84040
 H2431 H 0.73054 0.97055 0.79976
 H2432 H 0.71114 0.95441 0.74598
 C2433 C 0.19210 0.42160 0.80325
 C2434 C 0.19310 0.41928 0.82264
 C2435 C 0.18443 0.40501 0.83091
 C2436 C 0.17519 0.39282 0.81988
 C2437 C 0.17424 0.39551 0.80043
 C2438 C 0.18256 0.40991 0.79208
 C2439 C 0.20157 0.43631 0.79440
 C2440 C 0.20059 0.43858 0.77500
 C2441 C 0.20990 0.45237 0.76661
 C2442 C 0.22046 0.46356 0.77743
 C2443 C 0.22124 0.46114 0.79689
 C2444 C 0.21170 0.44760 0.80548
 C2445 C 0.18182 0.41267 0.77272
 C2446 C 0.19061 0.42682 0.76433
 C2447 C 0.20304 0.43110 0.83331
 C2448 C 0.21225 0.44496 0.82487
 H2449 H 0.17446 0.40376 0.76396
 H2450 H 0.18977 0.42842 0.74934
 H2451 H 0.20391 0.42946 0.84829
 H2452 H 0.21996 0.45362 0.83358
 H2453 H 0.18504 0.40332 0.84590
 H2454 H 0.16751 0.38611 0.79168
 H2455 H 0.20934 0.45406 0.75161
 H2456 H 0.22928 0.46977 0.80532
 C2457 C 0.19506 0.92098 0.30218
 C2458 C 0.18561 0.90934 0.29086
 C2459 C 0.17728 0.89483 0.29906
 C2460 C 0.17815 0.89200 0.31849
 C2461 C 0.18732 0.90414 0.32966
 C2462 C 0.19598 0.91851 0.32155
 C2463 C 0.20445 0.93585 0.29353
 C2464 C 0.21443 0.94713 0.30476
 C2465 C 0.22381 0.96090 0.29638
 C2466 C 0.22300 0.96357 0.27695
 C2467 C 0.21263 0.95233 0.26596
 C2468 C 0.20349 0.93832 0.27415
 C2469 C 0.20580 0.93029 0.33239
 C2470 C 0.21494 0.94430 0.32412
 C2471 C 0.18492 0.91227 0.27153
 C2472 C 0.19364 0.92657 0.26332
 H2473 H 0.20662 0.92853 0.34736
 H2474 H 0.22253 0.95295 0.33296
 H2475 H 0.17764 0.90341 0.26264
 H2476 H 0.19282 0.92832 0.24835
 H2477 H 0.17059 0.88550 0.29020
 H2478 H 0.18786 0.90236 0.34464
 H2479 H 0.23168 0.96956 0.30494
 H2480 H 0.21204 0.95421 0.25098
 C2481 C 0.42075 0.30564 0.70063
 C2482 C 0.40888 0.31482 0.71205
 C2483 C 0.39443 0.32324 0.70389
 C2484 C 0.39189 0.32272 0.68442
 C2485 C 0.40426 0.31382 0.67316
 C2486 C 0.41856 0.30508 0.68121
 C2487 C 0.43556 0.29616 0.70921
 C2488 C 0.44708 0.28648 0.69785
 C2489 C 0.46083 0.27706 0.70614
 C2490 C 0.46324 0.27753 0.72560
 C2491 C 0.45175 0.28756 0.73674
 C2492 C 0.43776 0.29675 0.72864
 C2493 C 0.43057 0.29554 0.67026
 C2494 C 0.44454 0.28633 0.67845
 C2495 C 0.41153 0.31513 0.73143
 C2496 C 0.42578 0.30633 0.73957
 H2497 H 0.42903 0.29501 0.65525
 H2498 H 0.45339 0.27897 0.66952
 H2499 H 0.40248 0.32220 0.74039
 H2500 H 0.42732 0.30687 0.75458
 H2501 H 0.38491 0.32973 0.71280
 H2502 H 0.40269 0.31356 0.65815
 H2503 H 0.46970 0.26947 0.69746
 H2504 H 0.45347 0.28789 0.75174
 C2505 C 0.41926 0.80475 0.20055
 C2506 C 0.41667 0.80359 0.18122
 C2507 C 0.40248 0.81251 0.17314
 C2508 C 0.39067 0.82225 0.18428
 C2509 C 0.39357 0.82328 0.20367
 C2510 C 0.40789 0.81466 0.21185
 C2511 C 0.43402 0.79521 0.20917
 C2512 C 0.43665 0.79643 0.22849
 C2513 C 0.45059 0.78720 0.23665
 C2514 C 0.46164 0.77652 0.22567
 C2515 C 0.45881 0.77544 0.20629
 C2516 C 0.44509 0.78488 0.19795
 C2517 C 0.41095 0.81557 0.23114
 C2518 C 0.42513 0.80668 0.23931
 C2519 C 0.42820 0.79336 0.17040
 C2520 C 0.44212 0.78410 0.17863
 H2521 H 0.40229 0.82320 0.24000
 H2522 H 0.42701 0.80771 0.25424
 H2523 H 0.42634 0.79236 0.15547
 H2524 H 0.45059 0.77622 0.16981
 H2525 H 0.40065 0.81183 0.15818
 H2526 H 0.38447 0.83045 0.21249
 H2527 H 0.45258 0.78801 0.25158
 H2528 H 0.46731 0.76732 0.19774
 C2529 C 0.92029 0.30344 0.20057
 C2530 C 0.90882 0.31334 0.21176
 C2531 C 0.89434 0.32165 0.20350
 C2532 C 0.89139 0.32028 0.18414
 C2533 C 0.90332 0.31058 0.17311
 C2534 C 0.91765 0.30198 0.18127
 C2535 C 0.93519 0.29420 0.20927
 C2536 C 0.94634 0.28386 0.19816
 C2537 C 0.96016 0.27466 0.20659
 C2538 C 0.96300 0.27595 0.22595
 C2539 C 0.95189 0.28667 0.23682
 C2540 C 0.93784 0.29568 0.22858
 C2541 C 0.92929 0.29178 0.17056
 C2542 C 0.94334 0.28281 0.17887
 C2543 C 0.91192 0.31454 0.23102
 C2544 C 0.92624 0.30592 0.23928
 H2545 H 0.92740 0.29056 0.15564
 H2546 H 0.95189 0.27492 0.17014
 H2547 H 0.90319 0.32216 0.23981
 H2548 H 0.92813 0.30715 0.25419
 H2549 H 0.88517 0.32881 0.21223
 H2550 H 0.90144 0.30967 0.15817
 H2551 H 0.96871 0.26652 0.19811
 H2552 H 0.95391 0.28763 0.25175
 C2553 C 0.91983 0.80356 0.70035
 C2554 C 0.91711 0.80195 0.68108
 C2555 C 0.90262 0.81030 0.67294
 C2556 C 0.89064 0.81993 0.68398
 C2557 C 0.89365 0.82142 0.70332
 C2558 C 0.90827 0.81335 0.71155
 C2559 C 0.93492 0.79460 0.70902
 C2560 C 0.93766 0.79623 0.72830
 C2561 C 0.95190 0.78748 0.73652
 C2562 C 0.96310 0.77688 0.72564
 C2563 C 0.96018 0.77544 0.70631
 C2564 C 0.94617 0.78437 0.69791
 C2565 C 0.91147 0.81471 0.73078
 C2566 C 0.92596 0.80636 0.73901
 C2567 C 0.92884 0.79186 0.67036
 C2568 C 0.94308 0.78315 0.67864
 H2569 H 0.90267 0.82226 0.73957
 H2570 H 0.92791 0.80770 0.75390
 H2571 H 0.92689 0.79052 0.65547
 H2572 H 0.95170 0.77535 0.66991
 H2573 H 0.90068 0.80930 0.65802
 H2574 H 0.88444 0.82852 0.71206
 H2575 H 0.95398 0.78856 0.75142
 H2576 H 0.96879 0.76738 0.69782
 C2577 C 0.57915 0.30732 0.30003
 C2578 C 0.58139 0.30664 0.31943
 C2579 C 0.59559 0.31554 0.32751
 C2580 C 0.60782 0.32471 0.31627
 C2581 C 0.60520 0.32535 0.29681
 C2582 C 0.59085 0.31678 0.28865
 C2583 C 0.56447 0.29765 0.29142
 C2584 C 0.56224 0.29837 0.27200
 C2585 C 0.54839 0.28902 0.26385
 C2586 C 0.53706 0.27870 0.27492
 C2587 C 0.53950 0.27809 0.29438
 C2588 C 0.55313 0.28768 0.30272
 C2589 C 0.58815 0.31721 0.26928
 C2590 C 0.57404 0.30823 0.26110
 C2591 C 0.56955 0.29681 0.33034
 C2592 C 0.55571 0.28742 0.32211
 H2593 H 0.59707 0.32449 0.26034
 H2594 H 0.57246 0.30887 0.24611
 H2595 H 0.57113 0.29618 0.34534
 H2596 H 0.54701 0.27984 0.33101
 H2597 H 0.59720 0.31518 0.34251
 H2598 H 0.61460 0.33204 0.28791
 H2599 H 0.54668 0.28947 0.24886
 H2600 H 0.53077 0.27026 0.30299
 C2601 C 0.58056 0.80517 0.79802
 C2602 C 0.58335 0.80390 0.81731
 C2603 C 0.59784 0.81245 0.82521
 C2604 C 0.60976 0.82193 0.81393
 C2605 C 0.60667 0.82310 0.79457
 C2606 C 0.59204 0.81483 0.78657
 C2607 C 0.56548 0.79599 0.78960
 C2608 C 0.56267 0.79728 0.77030
 C2609 C 0.54845 0.78831 0.76233
 C2610 C 0.53733 0.77783 0.77347
 C2611 C 0.54033 0.77674 0.79282
 C2612 C 0.55432 0.78589 0.80097
 C2613 C 0.58878 0.81584 0.76732
 C2614 C 0.57430 0.80728 0.75933
 C2615 C 0.57170 0.79394 0.82829
 C2616 C 0.55747 0.78502 0.82025
 H2617 H 0.59752 0.82328 0.75834
 H2618 H 0.57230 0.80836 0.74442
 H2619 H 0.57370 0.79287 0.84320
 H2620 H 0.54892 0.77733 0.82918
 H2621 H 0.59983 0.81170 0.84015
 H2622 H 0.61583 0.83008 0.78565
 H2623 H 0.54632 0.78912 0.74741
 H2624 H 0.53177 0.76878 0.80151
 C2625 C 0.07976 0.30440 0.80076
 C2626 C 0.08232 0.30269 0.82006
 C2627 C 0.09656 0.31126 0.82841
 C2628 C 0.10844 0.32122 0.81757
 C2629 C 0.10559 0.32282 0.79821
 C2630 C 0.09122 0.31453 0.78977
 C2631 C 0.06493 0.29524 0.79187
 C2632 C 0.06234 0.29699 0.77257
 C2633 C 0.04831 0.28811 0.76415
 C2634 C 0.03716 0.27726 0.77485
 C2635 C 0.03996 0.27566 0.79419
 C2636 C 0.05376 0.28472 0.80279
 C2637 C 0.08820 0.31599 0.77050
 C2638 C 0.07395 0.30743 0.76206
 C2639 C 0.07069 0.29228 0.83058
 C2640 C 0.05669 0.28338 0.82208
 H2641 H 0.09693 0.32379 0.76187
 H2642 H 0.07211 0.30887 0.74716
 H2643 H 0.07252 0.29086 0.84548
 H2644 H 0.04813 0.27536 0.83066
 H2645 H 0.09839 0.31016 0.84335
 H2646 H 0.11474 0.33019 0.78963
 H2647 H 0.04632 0.28932 0.74924
 H2648 H 0.03137 0.26742 0.80253
 C2649 C 0.08128 0.80464 0.30033
 C2650 C 0.08404 0.80288 0.31958
 C2651 C 0.09852 0.81123 0.32776
 C2652 C 0.11045 0.82102 0.31677
 C2653 C 0.10740 0.82264 0.29745
 C2654 C 0.09279 0.81458 0.28919
 C2655 C 0.06618 0.79572 0.29162
 C2656 C 0.06340 0.79753 0.27236
 C2657 C 0.04916 0.78885 0.26411
 C2658 C 0.03797 0.77812 0.27490
 C2659 C 0.04094 0.77647 0.29421
 C2660 C 0.05497 0.78535 0.30266
 C2661 C 0.08955 0.81610 0.26997
 C2662 C 0.07507 0.80779 0.26172
 C2663 C 0.07236 0.79264 0.33024
 C2664 C 0.05812 0.78396 0.32191
 H2665 H 0.09832 0.82376 0.26122
 H2666 H 0.07308 0.80927 0.24684
 H2667 H 0.07434 0.79118 0.34511
 H2668 H 0.04953 0.77606 0.33060
 H2669 H 0.10048 0.81011 0.34267
 H2670 H 0.11657 0.82984 0.28873
 H2671 H 0.04706 0.79008 0.24922
 H2672 H 0.03235 0.76831 0.30263
 C2673 C 0.57761 0.69217 0.69990
 C2674 C 0.57955 0.69272 0.68043
 C2675 C 0.59371 0.68391 0.67206
 C2676 C 0.60619 0.67497 0.68305
 C2677 C 0.60387 0.67442 0.70258
 C2678 C 0.58956 0.68290 0.71105
 C2679 C 0.56302 0.70180 0.70882
 C2680 C 0.56111 0.70128 0.72830
 C2681 C 0.54741 0.71073 0.73674
 C2682 C 0.53597 0.72099 0.72586
 C2683 C 0.53805 0.72133 0.70633
 C2684 C 0.55149 0.71164 0.69772
 C2685 C 0.58716 0.68261 0.73050
 C2686 C 0.57312 0.69156 0.73897
 C2687 C 0.56749 0.70237 0.66975
 C2688 C 0.55374 0.71175 0.67826
 H2689 H 0.59628 0.67547 0.73926
 H2690 H 0.57180 0.69106 0.75402
 H2691 H 0.56884 0.70290 0.65471
 H2692 H 0.54488 0.71922 0.66953
 H2693 H 0.59511 0.68419 0.65702
 H2694 H 0.61347 0.66790 0.71128
 H2695 H 0.54596 0.71051 0.75179
 H2696 H 0.52921 0.72911 0.69786
 C2697 C 0.57763 0.19359 0.19948
 C2698 C 0.57963 0.19428 0.18002
 C2699 C 0.59354 0.18513 0.17158
 C2700 C 0.60572 0.17569 0.18250
 C2701 C 0.60334 0.17503 0.20201
 C2702 C 0.58928 0.18386 0.21055
 C2703 C 0.56328 0.20351 0.20847
 C2704 C 0.56129 0.20278 0.22793
 C2705 C 0.54774 0.21237 0.23644
 C2706 C 0.53646 0.22293 0.22568
 C2707 C 0.53867 0.22355 0.20617
 C2708 C 0.55199 0.21374 0.19747
 C2709 C 0.58684 0.18342 0.22998
 C2710 C 0.57302 0.19265 0.23852
 C2711 C 0.56786 0.20438 0.16944
 C2712 C 0.55433 0.21401 0.17802
 H2713 H 0.59572 0.17594 0.23867
 H2714 H 0.57162 0.19200 0.25355
 H2715 H 0.56925 0.20503 0.15441
 H2716 H 0.54566 0.22178 0.16936
 H2717 H 0.59498 0.18552 0.15655
 H2718 H 0.61272 0.16813 0.21066
 H2719 H 0.54620 0.21190 0.25148
 H2720 H 0.52997 0.23156 0.19778
 C2721 C 0.07984 0.69501 0.20002
 C2722 C 0.08259 0.69652 0.18072
 C2723 C 0.09685 0.68777 0.17248
 C2724 C 0.10861 0.67787 0.18344
 C2725 C 0.10553 0.67643 0.20280
 C2726 C 0.09112 0.68489 0.21113
 C2727 C 0.06504 0.70444 0.20881
 C2728 C 0.06228 0.70291 0.22812
 C2729 C 0.04833 0.71208 0.23645
 C2730 C 0.03743 0.72302 0.22566
 C2731 C 0.04038 0.72437 0.20630
 C2732 C 0.05410 0.71500 0.19778
 C2733 C 0.08790 0.68365 0.23041
 C2734 C 0.07368 0.69244 0.23874
 C2735 C 0.07116 0.70695 0.17008
 C2736 C 0.05720 0.71610 0.17848
 H2737 H 0.09649 0.67586 0.23914
 H2738 H 0.07171 0.69117 0.25366
 H2739 H 0.07314 0.70821 0.15517
 H2740 H 0.04882 0.72415 0.16980
 H2741 H 0.09883 0.68874 0.15753
 H2742 H 0.11456 0.66912 0.21149
 H2743 H 0.04624 0.71106 0.25138
 H2744 H 0.03199 0.73269 0.19789
 C2745 C 0.07646 0.19217 0.69957
 C2746 C 0.08825 0.18260 0.71061
 C2747 C 0.10248 0.17408 0.70206
 C2748 C 0.10488 0.17488 0.68254
 C2749 C 0.09254 0.18411 0.67165
 C2750 C 0.07846 0.19297 0.68011
 C2751 C 0.06198 0.20188 0.70859
 C2752 C 0.05062 0.21204 0.69762
 C2753 C 0.03731 0.22181 0.70634
 C2754 C 0.03519 0.22123 0.72586
 C2755 C 0.04644 0.21064 0.73661
 C2756 C 0.06001 0.20111 0.72806
 C2757 C 0.06656 0.20293 0.66955
 C2758 C 0.05293 0.21238 0.67816
 C2759 C 0.08580 0.18206 0.73004
 C2760 C 0.07186 0.19108 0.73861
 H2761 H 0.06796 0.20365 0.65452
 H2762 H 0.04419 0.22010 0.66953
 H2763 H 0.09479 0.17468 0.73871
 H2764 H 0.07049 0.19039 0.75364
 H2765 H 0.11199 0.16733 0.71069
 H2766 H 0.09399 0.18459 0.65662
 H2767 H 0.02862 0.22984 0.69798
 H2768 H 0.04495 0.21024 0.75165
 C2769 C 0.41757 0.69392 0.29896
 C2770 C 0.40547 0.68513 0.28756
 C2771 C 0.39082 0.67693 0.29577
 C2772 C 0.38836 0.67724 0.31529
 C2773 C 0.40091 0.68585 0.32649
 C2774 C 0.41539 0.69438 0.31839
 C2775 C 0.43272 0.70299 0.29036
 C2776 C 0.44452 0.71224 0.30172
 C2777 C 0.45859 0.72129 0.29342
 C2778 C 0.46106 0.72085 0.27395
 C2779 C 0.44931 0.71120 0.26281
 C2780 C 0.43498 0.70241 0.27093
 C2781 C 0.42765 0.70350 0.32933
 C2782 C 0.44191 0.71236 0.32113
 C2783 C 0.40817 0.68487 0.26816
 C2784 C 0.42273 0.69328 0.25999
 H2785 H 0.42611 0.70395 0.34436
 H2786 H 0.45095 0.71939 0.33006
 H2787 H 0.39895 0.67811 0.25920
 H2788 H 0.42431 0.69277 0.24498
 H2789 H 0.38121 0.67063 0.28692
 H2790 H 0.39947 0.68590 0.34153
 H2791 H 0.46763 0.72862 0.30208
 H2792 H 0.45104 0.71093 0.24779
 C2793 C 0.42421 0.19209 0.80040
 C2794 C 0.41235 0.18262 0.78935
 C2795 C 0.39812 0.17409 0.79791
 C2796 C 0.39578 0.17477 0.81744
 C2797 C 0.40815 0.18394 0.82833
 C2798 C 0.42225 0.19281 0.81986
 C2799 C 0.43873 0.20177 0.79137
 C2800 C 0.45019 0.21181 0.80234
 C2801 C 0.46355 0.22153 0.79361
 C2802 C 0.46562 0.22103 0.77408
 C2803 C 0.45426 0.21056 0.76334
 C2804 C 0.44065 0.20107 0.77189
 C2805 C 0.43423 0.20266 0.83042
 C2806 C 0.44791 0.21208 0.82180
 C2807 C 0.41475 0.18217 0.76992
 C2808 C 0.42872 0.19116 0.76134
 H2809 H 0.43287 0.20332 0.84545
 H2810 H 0.45671 0.21971 0.83043
 H2811 H 0.40571 0.17487 0.76124
 H2812 H 0.43005 0.19054 0.74630
 H2813 H 0.38858 0.16741 0.78928
 H2814 H 0.40674 0.18434 0.84336
 H2815 H 0.47232 0.22948 0.80197
 H2816 H 0.45569 0.21021 0.74829
 C2817 C 0.92128 0.69383 0.80002
 C2818 C 0.91856 0.69539 0.81933
 C2819 C 0.90415 0.68689 0.82760
 C2820 C 0.89224 0.67717 0.81666
 C2821 C 0.89526 0.67573 0.79729
 C2822 C 0.90981 0.68394 0.78893
 C2823 C 0.93625 0.70298 0.79120
 C2824 C 0.93897 0.70143 0.77189
 C2825 C 0.95304 0.71042 0.76352
 C2826 C 0.96410 0.72119 0.77429
 C2827 C 0.96123 0.72252 0.79366
 C2828 C 0.94738 0.71335 0.80221
 C2829 C 0.91298 0.68265 0.76966
 C2830 C 0.92736 0.69118 0.76129
 C2831 C 0.93019 0.70560 0.82994
 C2832 C 0.94432 0.71449 0.82151
 H2833 H 0.90425 0.67502 0.76095
 H2834 H 0.92930 0.68990 0.74637
 H2835 H 0.92825 0.70689 0.84485
 H2836 H 0.95285 0.72239 0.83017
 H2837 H 0.90220 0.68787 0.84254
 H2838 H 0.88610 0.66857 0.78863
 H2839 H 0.95508 0.70943 0.74858
 H2840 H 0.96973 0.73072 0.80205
 C2841 C 0.92123 0.19141 0.30015
 C2842 C 0.90943 0.18202 0.28895
 C2843 C 0.89495 0.17370 0.29732
 C2844 C 0.89232 0.17452 0.31680
 C2845 C 0.90466 0.18358 0.32784
 C2846 C 0.91898 0.19224 0.31956
 C2847 C 0.93601 0.20087 0.29132
 C2848 C 0.94741 0.21082 0.30245
 C2849 C 0.96104 0.22033 0.29391
 C2850 C 0.96345 0.21970 0.27443
 C2851 C 0.95212 0.20933 0.26353
 C2852 C 0.93824 0.20006 0.27188
 C2853 C 0.93091 0.20200 0.33028
 C2854 C 0.94483 0.21121 0.32186
 C2855 C 0.91214 0.18144 0.26956
 C2856 C 0.92635 0.19023 0.26118
 H2857 H 0.92933 0.20274 0.34529
 H2858 H 0.95359 0.21877 0.33061
 H2859 H 0.90314 0.17421 0.26076
 H2860 H 0.92792 0.18952 0.24617
 H2861 H 0.88547 0.16707 0.28856
 H2862 H 0.90303 0.18407 0.34285
 H2863 H 0.96977 0.22819 0.30239
 H2864 H 0.95382 0.20888 0.24851
 C2865 C 0.30106 0.30110 0.58671
 C2866 C 0.29998 0.31939 0.58833
 C2867 C 0.30860 0.32775 0.60309
 C2868 C 0.31795 0.31793 0.61648
 C2869 C 0.31872 0.29954 0.61468
 C2870 C 0.31047 0.29110 0.59973
 C2871 C 0.29212 0.29226 0.57113
 C2872 C 0.29345 0.27399 0.56935
 C2873 C 0.28494 0.26565 0.55449
 C2874 C 0.27483 0.27541 0.54177
 C2875 C 0.27354 0.29371 0.54382
 C2876 C 0.28233 0.30223 0.55839
 C2877 C 0.31140 0.27283 0.59755
 C2878 C 0.30311 0.26443 0.58256
 C2879 C 0.29026 0.32895 0.57515
 C2880 C 0.28149 0.32050 0.56050
 H2881 H 0.31864 0.26496 0.60749
 H2882 H 0.30419 0.25032 0.58136
 H2883 H 0.28931 0.34307 0.57626
 H2884 H 0.27403 0.32835 0.55072
 H2885 H 0.30815 0.34190 0.60403
 H2886 H 0.32556 0.29175 0.62500
 H2887 H 0.28584 0.25154 0.55306
 H2888 H 0.26586 0.30129 0.53400
 C2889 C 0.30072 0.80496 0.08488
 C2890 C 0.31909 0.80376 0.08630
 C2891 C 0.32762 0.81217 0.10109
 C2892 C 0.31790 0.82140 0.11471
 C2893 C 0.29942 0.82234 0.11307
 C2894 C 0.29080 0.81429 0.09809
 C2895 C 0.29168 0.79616 0.06932
 C2896 C 0.27332 0.79752 0.06777
 C2897 C 0.26478 0.78903 0.05300
 C2898 C 0.27447 0.77889 0.04017
 C2899 C 0.29287 0.77764 0.04196
 C2900 C 0.30157 0.78639 0.05642
 C2901 C 0.27244 0.81532 0.09611
 C2902 C 0.26386 0.80715 0.08115
 C2903 C 0.32856 0.79412 0.07293
 C2904 C 0.31993 0.78549 0.05830
 H2905 H 0.26463 0.82251 0.10620
 H2906 H 0.24968 0.80827 0.08014
 H2907 H 0.34274 0.79310 0.07388
 H2908 H 0.32771 0.77805 0.04840
 H2909 H 0.34184 0.81160 0.10190
 H2910 H 0.29171 0.82911 0.12356
 H2911 H 0.25060 0.78991 0.05178
 H2912 H 0.30039 0.76993 0.03206
 C2913 C 0.80133 0.30009 0.08534
 C2914 C 0.81968 0.29882 0.08685
 C2915 C 0.82822 0.30754 0.10146
 C2916 C 0.81852 0.31717 0.11479
 C2917 C 0.80005 0.31810 0.11309
 C2918 C 0.79143 0.30976 0.09830
 C2919 C 0.79229 0.29110 0.06990
 C2920 C 0.77397 0.29267 0.06819
 C2921 C 0.76545 0.28423 0.05341
 C2922 C 0.77508 0.27394 0.04066
 C2923 C 0.79343 0.27234 0.04268
 C2924 C 0.80214 0.28108 0.05718
 C2925 C 0.77309 0.31088 0.09623
 C2926 C 0.76452 0.30256 0.08136
 C2927 C 0.82912 0.28885 0.07373
 C2928 C 0.82049 0.28004 0.05921
 H2929 H 0.76530 0.31831 0.10612
 H2930 H 0.75036 0.30382 0.08022
 H2931 H 0.84330 0.28775 0.07475
 H2932 H 0.82825 0.27240 0.04946
 H2933 H 0.84244 0.30694 0.10230
 H2934 H 0.79232 0.32513 0.12337
 H2935 H 0.75130 0.28537 0.05204
 H2936 H 0.80091 0.26451 0.03284
 C2937 C 0.80034 0.79955 0.58521
 C2938 C 0.79045 0.80911 0.59827
 C2939 C 0.79908 0.81733 0.61312
 C2940 C 0.81756 0.81641 0.61479
 C2941 C 0.82725 0.80685 0.60139
 C2942 C 0.81870 0.79824 0.58672
 C2943 C 0.79130 0.79072 0.56967
 C2944 C 0.80115 0.78081 0.55685
 C2945 C 0.79243 0.77223 0.54225
 C2946 C 0.77409 0.77388 0.54023
 C2947 C 0.76446 0.78406 0.55308
 C2948 C 0.77298 0.79234 0.56796
 C2949 C 0.82813 0.78837 0.57350
 C2950 C 0.81949 0.77972 0.55888
 C2951 C 0.77211 0.81028 0.59619
 C2952 C 0.76354 0.80212 0.58123
 H2953 H 0.84230 0.78725 0.57452
 H2954 H 0.82725 0.77216 0.54906
 H2955 H 0.76433 0.81764 0.60616
 H2956 H 0.74939 0.80341 0.58010
 H2957 H 0.79136 0.82430 0.62345
 H2958 H 0.84147 0.80625 0.60222
 H2959 H 0.79991 0.76448 0.53234
 H2960 H 0.75031 0.78523 0.55170
 C2961 C 0.30164 0.69400 0.41871
 C2962 C 0.29173 0.68411 0.40604
 C2963 C 0.30031 0.67573 0.39119
 C2964 C 0.31876 0.67687 0.38911
 C2965 C 0.32850 0.68663 0.40221
 C2966 C 0.31998 0.69537 0.41689
 C2967 C 0.29260 0.70327 0.43402
 C2968 C 0.30244 0.71363 0.44634
 C2969 C 0.29372 0.72285 0.46052
 C2970 C 0.27533 0.72151 0.46262
 C2971 C 0.26570 0.71077 0.45039
 C2972 C 0.27425 0.70179 0.43591
 C2973 C 0.32942 0.70560 0.42970
 C2974 C 0.32079 0.71465 0.44411
 C2975 C 0.27339 0.68295 0.40836
 C2976 C 0.26482 0.69157 0.42310
 H2977 H 0.34359 0.70677 0.42845
 H2978 H 0.32854 0.72255 0.45356
 H2979 H 0.26560 0.67534 0.39869
 H2980 H 0.25066 0.69035 0.42438
 H2981 H 0.29256 0.66861 0.38107
 H2982 H 0.34269 0.68742 0.40102
 H2983 H 0.30121 0.73102 0.46997
 H2984 H 0.25153 0.70980 0.45184
 C2985 C 0.30443 0.19718 0.91535
 C2986 C 0.30320 0.17889 0.91388
 C2987 C 0.31203 0.17034 0.89930
 C2988 C 0.32173 0.17996 0.88594
 C2989 C 0.32265 0.19836 0.88761
 C2990 C 0.31419 0.20699 0.90238
 C2991 C 0.29525 0.20623 0.93072
 C2992 C 0.29674 0.22449 0.93237
 C2993 C 0.28803 0.23303 0.94704
 C2994 C 0.27755 0.22348 0.95970
 C2995 C 0.27608 0.20518 0.95777
 C2996 C 0.28508 0.19646 0.94341
 C2997 C 0.31527 0.22527 0.90441
 C2998 C 0.30677 0.23386 0.91922
 C2999 C 0.29310 0.16953 0.92699
 C3000 C 0.28411 0.17817 0.94144
 H3001 H 0.32279 0.23299 0.89451
 H3002 H 0.30797 0.24797 0.92031
 H3003 H 0.29204 0.15541 0.92600
 H3004 H 0.27636 0.17048 0.95117
 H3005 H 0.31145 0.15618 0.89848
 H3006 H 0.32974 0.20602 0.87730
 H3007 H 0.28907 0.24714 0.94836
 H3008 H 0.26810 0.19777 0.96755
 C3009 C 0.80121 0.69732 0.91542
 C3010 C 0.81960 0.69845 0.91404
 C3011 C 0.82828 0.68976 0.89945
 C3012 C 0.81869 0.68028 0.88600
 C3013 C 0.80019 0.67945 0.88757
 C3014 C 0.79142 0.68778 0.90235
 C3015 C 0.79202 0.70637 0.93080
 C3016 C 0.77364 0.70502 0.93233
 C3017 C 0.76497 0.71370 0.94695
 C3018 C 0.77452 0.72401 0.95966
 C3019 C 0.79293 0.72527 0.95787
 C3020 C 0.80178 0.71632 0.94356
 C3021 C 0.77303 0.68681 0.90429
 C3022 C 0.76431 0.69520 0.91909
 C3023 C 0.82894 0.70831 0.92726
 C3024 C 0.82017 0.71718 0.94170
 H3025 H 0.76532 0.67947 0.89431
 H3026 H 0.75012 0.69410 0.92009
 H3027 H 0.84313 0.70930 0.92634
 H3028 H 0.82785 0.72477 0.95150
 H3029 H 0.84251 0.69027 0.89870
 H3030 H 0.79255 0.67253 0.87720
 H3031 H 0.75077 0.71282 0.94816
 H3032 H 0.80036 0.73312 0.96768
 C3033 C 0.80130 0.19851 0.41441
 C3034 C 0.79989 0.18022 0.41309
 C3035 C 0.80844 0.17150 0.39842
 C3036 C 0.81805 0.18095 0.38486
 C3037 C 0.81911 0.19936 0.38635
 C3038 C 0.81094 0.20816 0.40119
 C3039 C 0.79246 0.20774 0.42989
 C3040 C 0.79411 0.22601 0.43137
 C3041 C 0.78569 0.23472 0.44612
 C3042 C 0.77534 0.22533 0.45904
 C3043 C 0.77374 0.20702 0.45730
 C3044 C 0.78243 0.19813 0.44284
 C3045 C 0.81219 0.22644 0.40307
 C3046 C 0.80400 0.23520 0.41796
 C3047 C 0.78994 0.17103 0.42646
 C3048 C 0.78128 0.17984 0.44102
 H3049 H 0.81961 0.23404 0.39297
 H3050 H 0.80533 0.24930 0.41892
 H3051 H 0.78874 0.15691 0.42560
 H3052 H 0.77363 0.17227 0.45095
 H3053 H 0.80773 0.15734 0.39772
 H3054 H 0.82613 0.20689 0.37589
 H3055 H 0.78684 0.24883 0.44729
 H3056 H 0.76586 0.19972 0.46726
 C3057 C 0.69864 0.30223 0.41344
 C3058 C 0.70003 0.32051 0.41189
 C3059 C 0.69160 0.32909 0.39710
 C3060 C 0.68211 0.31949 0.38366
 C3061 C 0.68112 0.30109 0.38536
 C3062 C 0.68917 0.29244 0.40032
 C3063 C 0.70730 0.29316 0.42909
 C3064 C 0.70564 0.27491 0.43082
 C3065 C 0.71387 0.26635 0.44574
 C3066 C 0.72405 0.27589 0.45858
 C3067 C 0.72565 0.29417 0.45658
 C3068 C 0.71714 0.30291 0.44196
 C3069 C 0.68792 0.27417 0.40243
 C3070 C 0.69593 0.26557 0.41748
 C3071 C 0.70981 0.32984 0.42518
 C3072 C 0.71831 0.32118 0.43990
 H3073 H 0.68063 0.26647 0.39241
 H3074 H 0.69460 0.25148 0.41863
 H3075 H 0.71099 0.34395 0.42414
 H3076 H 0.72582 0.32886 0.44976
 H3077 H 0.69226 0.34324 0.39623
 H3078 H 0.67422 0.29345 0.37498
 H3079 H 0.71273 0.25225 0.44710
 H3080 H 0.73341 0.30159 0.46648
 C3081 C 0.69955 0.80296 0.91321
 C3082 C 0.70963 0.81232 0.90013
 C3083 C 0.70117 0.82049 0.88509
 C3084 C 0.68270 0.81965 0.88326
 C3085 C 0.67283 0.81036 0.89676
 C3086 C 0.68120 0.80184 0.91160
 C3087 C 0.70841 0.79407 0.92886
 C3088 C 0.69837 0.78431 0.94166
 C3089 C 0.70690 0.77556 0.95626
 C3090 C 0.72527 0.77683 0.95831
 C3091 C 0.73510 0.78694 0.94555
 C3092 C 0.72675 0.79542 0.93064
 C3093 C 0.67157 0.79216 0.92485
 C3094 C 0.68002 0.78346 0.93956
 C3095 C 0.72797 0.81329 0.90231
 C3096 C 0.73638 0.80506 0.91737
 H3097 H 0.65739 0.79119 0.92375
 H3098 H 0.67212 0.77602 0.94938
 H3099 H 0.73590 0.82050 0.89232
 H3100 H 0.75054 0.80616 0.91855
 H3101 H 0.70901 0.82729 0.87471
 H3102 H 0.65862 0.80987 0.89583
 H3103 H 0.69925 0.76788 0.96611
 H3104 H 0.74927 0.78785 0.94697
 C3105 C 0.19921 0.30059 0.91555
 C3106 C 0.18085 0.29919 0.91422
 C3107 C 0.17210 0.30804 0.89983
 C3108 C 0.18161 0.31793 0.88655
 C3109 C 0.20009 0.31899 0.88805
 C3110 C 0.20892 0.31052 0.90262
 C3111 C 0.20846 0.29145 0.93075
 C3112 C 0.22679 0.29314 0.93230
 C3113 C 0.23550 0.28453 0.94686
 C3114 C 0.22605 0.27397 0.95952
 C3115 C 0.20770 0.27227 0.95767
 C3116 C 0.19879 0.28116 0.94342
 C3117 C 0.22727 0.31176 0.90453
 C3118 C 0.23604 0.30330 0.91918
 C3119 C 0.17160 0.28895 0.92729
 C3120 C 0.18043 0.28001 0.94158
 H3121 H 0.23491 0.31940 0.89465
 H3122 H 0.25020 0.30465 0.92019
 H3123 H 0.15743 0.28776 0.92639
 H3124 H 0.17282 0.27216 0.95129
 H3125 H 0.15789 0.30734 0.89913
 H3126 H 0.20766 0.32624 0.87778
 H3127 H 0.24966 0.28574 0.94812
 H3128 H 0.20035 0.26423 0.96746
 C3129 C 0.20052 0.80104 0.41590
 C3130 C 0.21053 0.81040 0.40276
 C3131 C 0.20199 0.81856 0.38777
 C3132 C 0.18351 0.81774 0.38606
 C3133 C 0.17371 0.80841 0.39956
 C3134 C 0.18215 0.79989 0.41437
 C3135 C 0.20945 0.79222 0.43154
 C3136 C 0.19947 0.78249 0.44441
 C3137 C 0.20805 0.77380 0.45901
 C3138 C 0.22644 0.77508 0.46098
 C3139 C 0.23622 0.78515 0.44814
 C3140 C 0.22780 0.79358 0.43324
 C3141 C 0.17259 0.79024 0.42768
 C3142 C 0.18111 0.78160 0.44239
 C3143 C 0.22888 0.81138 0.40486
 C3144 C 0.23736 0.80320 0.41989
 H3145 H 0.15841 0.78925 0.42665
 H3146 H 0.17326 0.77418 0.45227
 H3147 H 0.23676 0.81859 0.39482
 H3148 H 0.25153 0.80432 0.42101
 H3149 H 0.20978 0.82539 0.37737
 H3150 H 0.15949 0.80791 0.39871
 H3151 H 0.20044 0.76615 0.46891
 H3152 H 0.25039 0.78606 0.44949
 C3153 C 0.69648 0.69771 0.58419
 C3154 C 0.68678 0.70750 0.59721
 C3155 C 0.67863 0.69887 0.61220
 C3156 C 0.67976 0.68050 0.61403
 C3157 C 0.68940 0.67089 0.60063
 C3158 C 0.69794 0.67945 0.58583
 C3159 C 0.70535 0.70676 0.56859
 C3160 C 0.71548 0.69703 0.55587
 C3161 C 0.72424 0.70577 0.54133
 C3162 C 0.72259 0.72403 0.53927
 C3163 C 0.71212 0.73355 0.55195
 C3164 C 0.70365 0.72500 0.56679
 C3165 C 0.70796 0.67012 0.57266
 C3166 C 0.71667 0.67877 0.55800
 C3167 C 0.68548 0.72575 0.59501
 C3168 C 0.69368 0.73434 0.58000
 H3169 H 0.70920 0.65602 0.57378
 H3170 H 0.72439 0.67110 0.54824
 H3171 H 0.67801 0.73346 0.60496
 H3172 H 0.69232 0.74842 0.57879
 H3173 H 0.67160 0.70652 0.62253
 H3174 H 0.69014 0.65675 0.60158
 H3175 H 0.73223 0.69838 0.53155
 H3176 H 0.71095 0.74765 0.55054
 C3177 C 0.69703 0.19748 0.08465
 C3178 C 0.68744 0.20728 0.09776
 C3179 C 0.67906 0.19862 0.11257
 C3180 C 0.67983 0.18020 0.11413
 C3181 C 0.68938 0.17059 0.10067
 C3182 C 0.69817 0.17918 0.08605
 C3183 C 0.70610 0.20657 0.06920
 C3184 C 0.71609 0.19681 0.05638
 C3185 C 0.72500 0.20556 0.04195
 C3186 C 0.72359 0.22387 0.04009
 C3187 C 0.71327 0.23342 0.05287
 C3188 C 0.70467 0.22485 0.06762
 C3189 C 0.70809 0.16984 0.07280
 C3190 C 0.71699 0.17851 0.05829
 C3191 C 0.68645 0.22557 0.09579
 C3192 C 0.69483 0.23420 0.08091
 H3193 H 0.70909 0.15570 0.07374
 H3194 H 0.72461 0.17083 0.04846
 H3195 H 0.67907 0.23328 0.10580
 H3196 H 0.69368 0.24831 0.07987
 H3197 H 0.67211 0.20627 0.12297
 H3198 H 0.68986 0.15643 0.10142
 H3199 H 0.73286 0.19816 0.03208
 H3200 H 0.71230 0.24754 0.05160
 C3201 C 0.19923 0.69842 0.08466
 C3202 C 0.18084 0.69941 0.08614
 C3203 C 0.17229 0.69058 0.10073
 C3204 C 0.18201 0.68112 0.11411
 C3205 C 0.20050 0.68040 0.11243
 C3206 C 0.20915 0.68888 0.09764
 C3207 C 0.20827 0.70764 0.06929
 C3208 C 0.22665 0.70645 0.06765
 C3209 C 0.23519 0.71527 0.05301
 C3210 C 0.22548 0.72554 0.04038
 C3211 C 0.20707 0.72665 0.04228
 C3212 C 0.19837 0.71758 0.05661
 C3213 C 0.22753 0.68807 0.09560
 C3214 C 0.23613 0.69663 0.08080
 C3215 C 0.17136 0.70926 0.07301
 C3216 C 0.17999 0.71828 0.05856
 H3217 H 0.23534 0.68073 0.10551
 H3218 H 0.25031 0.69564 0.07972
 H3219 H 0.15716 0.71012 0.07400
 H3220 H 0.17220 0.72584 0.04883
 H3221 H 0.15806 0.69098 0.10156
 H3222 H 0.20822 0.67346 0.12274
 H3223 H 0.24938 0.71448 0.05170
 H3224 H 0.19953 0.73446 0.03252
 C3225 C 0.19606 0.19869 0.58498
 C3226 C 0.18643 0.20833 0.59819
 C3227 C 0.17807 0.19949 0.61290
 C3228 C 0.17896 0.18107 0.61428
 C3229 C 0.18854 0.17163 0.60071
 C3230 C 0.19727 0.18038 0.58617
 C3231 C 0.20513 0.20796 0.56966
 C3232 C 0.21515 0.19836 0.55673
 C3233 C 0.22406 0.20728 0.54242
 C3234 C 0.22269 0.22561 0.54082
 C3235 C 0.21234 0.23500 0.55371
 C3236 C 0.20369 0.22626 0.56831
 C3237 C 0.20721 0.17120 0.57282
 C3238 C 0.21608 0.18004 0.55841
 C3239 C 0.18540 0.22664 0.59644
 C3240 C 0.19380 0.23544 0.58169
 H3241 H 0.20825 0.15706 0.57359
 H3242 H 0.22372 0.17248 0.54848
 H3243 H 0.17798 0.23423 0.60653
 H3244 H 0.19264 0.24956 0.58083
 H3245 H 0.17107 0.20699 0.62338
 H3246 H 0.18910 0.15746 0.60134
 H3247 H 0.23194 0.19998 0.53247
 H3248 H 0.21137 0.24914 0.55264
   
