data_POSCAR
  _audit_creation_date              2014-09-24
  _audit_creation_method            'ToBaCCo'
  _symmetry_space_group_name_H-M    'P1'
  _symmetry_Int_Tables_number       1
  _symmetry_cell_setting            triclinic
  loop_
  _symmetry_equiv_pos_as_xyz
 x,y,z
_cell_length_a 56.4320
_cell_length_b 56.5148
_cell_length_c 56.1940
_cell_angle_alpha 89.922400
_cell_angle_beta 90.070900
_cell_angle_gamma 90.154700
loop_
  _atom_site_label
  _atom_site_type_symbol
  _atom_site_fract_x
  _atom_site_fract_y
  _atom_site_fract_z
C1 C 0.30272 0.44731 0.91516
 C2 C 0.32270 0.45779 0.92564
 C3 C 0.33362 0.44772 0.94586
 C4 C 0.32365 0.42700 0.95562
 C5 C 0.30348 0.41633 0.94546
 C6 C 0.29329 0.42652 0.92513
 H7 H 0.32972 0.47347 0.91722
 H8 H 0.33234 0.41866 0.97061
 H9 H 0.27850 0.41762 0.91670
 C10 C 0.44790 0.83545 0.44629
 C11 C 0.42661 0.82527 0.45476
 C12 C 0.41715 0.80470 0.44426
 C13 C 0.42871 0.79467 0.42469
 C14 C 0.44954 0.80468 0.41558
 C15 C 0.45929 0.82469 0.42683
 H16 H 0.41667 0.83362 0.46871
 H17 H 0.42112 0.77921 0.41614
 H18 H 0.47583 0.83205 0.42043
 C19 C 0.94034 0.91183 0.80577
 C20 C 0.91943 0.92173 0.79633
 C21 C 0.90855 0.94119 0.80742
 C22 C 0.91927 0.95134 0.82752
 C23 C 0.94042 0.94203 0.83720
 C24 C 0.95061 0.92221 0.82603
 H25 H 0.91199 0.91484 0.78005
 H26 H 0.91038 0.96616 0.83559
 H27 H 0.96674 0.91461 0.83323
 C28 C 0.44514 -0.08719 0.30573
 C29 C 0.45505 -0.07744 0.32651
 C30 C 0.44563 -0.05677 0.33665
 C31 C 0.42577 -0.04616 0.32605
 C32 C 0.41548 -0.05573 0.30535
 C33 C 0.42530 -0.07628 0.29545
 H34 H 0.46909 -0.08673 0.33559
 H35 H 0.41799 -0.03093 0.33462
 H36 H 0.41724 -0.08404 0.27975
 C37 C 0.80525 0.30261 0.33565
 C38 C 0.79623 0.32356 0.32560
 C39 C 0.80628 0.33332 0.30494
 C40 C 0.82600 0.32213 0.29460
 C41 C 0.83562 0.30157 0.30471
 C42 C 0.82484 0.29172 0.32500
 H43 H 0.78179 0.33282 0.33411
 H44 H 0.83476 0.32988 0.27935
 H45 H 0.83155 0.27550 0.33269
 C46 C -0.18976 0.83583 0.80565
 C47 C -0.20140 0.82595 0.82567
 C48 C -0.19176 0.80623 0.83789
 C49 C -0.17060 0.79625 0.82929
 C50 C -0.15912 0.80555 0.80921
 C51 C -0.16871 0.82529 0.79777
 H52 H -0.21741 0.83392 0.83204
 H53 H -0.16268 0.78160 0.83881
 H54 H -0.15945 0.83263 0.78251
 C55 C 0.94518 0.33567 0.44556
 C56 C 0.92577 0.32421 0.45636
 C57 C 0.91713 0.30259 0.44754
 C58 C 0.92846 0.29216 0.42789
 C59 C 0.94721 0.30380 0.41619
 C60 C 0.95556 0.32536 0.42537
 H61 H 0.91665 0.33233 0.47115
 H62 H 0.92299 0.27484 0.42195
 H63 H 0.97010 0.33435 0.41654
 C64 C 0.44474 0.44549 0.83641
 C65 C 0.42470 0.45606 0.82592
 C66 C 0.41427 0.44679 0.80523
 C67 C 0.42403 0.42638 0.79488
 C68 C 0.44427 0.41569 0.80470
 C69 C 0.45446 0.42530 0.82534
 H70 H 0.41678 0.47150 0.83413
 H71 H 0.41511 0.41804 0.78010
 H72 H 0.46971 0.41637 0.83261
 C73 C 0.80576 0.91361 0.94862
 C74 C 0.79458 0.92487 0.92932
 C75 C 0.80409 0.94556 0.91932
 C76 C 0.82524 0.95493 0.92872
 C77 C 0.83669 0.94396 0.94797
 C78 C 0.82684 0.92321 0.95771
 H79 H 0.77895 0.91717 0.92126
 H80 H 0.83349 0.97024 0.92062
 H81 H 0.83592 0.91382 0.97179
 C82 C 0.30634 0.83581 0.29810
 C83 C 0.32713 0.82535 0.28894
 C84 C 0.33723 0.80538 0.29990
 C85 C 0.32649 0.79589 0.32026
 C86 C 0.30579 0.80578 0.32968
 C87 C 0.29590 0.82574 0.31852
 H88 H 0.33643 0.83337 0.27431
 H89 H 0.33453 0.78082 0.32907
 H90 H 0.28052 0.83418 0.32619
 C91 C 0.80464 0.41489 0.44711
 C92 C 0.79432 0.42538 0.42701
 C93 C 0.80376 0.44610 0.41709
 C94 C 0.82344 0.45686 0.42805
 C95 C 0.83446 0.44659 0.44803
 C96 C 0.82488 0.42538 0.45733
 H97 H 0.77912 0.41701 0.41867
 H98 H 0.83034 0.47334 0.42104
 H99 H 0.83357 0.41623 0.47167
 C100 C 0.94741 0.83531 -0.05604
 C101 C 0.92714 0.82498 -0.04567
 C102 C 0.91622 0.80495 -0.05577
 C103 C 0.92566 0.79525 -0.07662
 C104 C 0.94606 0.80490 -0.08719
 C105 C 0.95677 0.82484 -0.07683
 H106 H 0.91934 0.83325 -0.03020
 H107 H 0.91650 0.78056 -0.08488
 H108 H 0.97211 0.83210 -0.08568
 C109 C 0.30399 0.33853 0.80451
 C110 C 0.32418 0.32823 0.79436
 C111 C 0.33408 0.30753 0.80385
 C112 C 0.32355 0.29714 0.82401
 C113 C 0.30333 0.30709 0.83444
 C114 C 0.29375 0.32792 0.82470
 H115 H 0.33249 0.33664 0.77913
 H116 H 0.33147 0.28182 0.83236
 H117 H 0.27938 0.33666 0.83375
 C118 C 0.16236 0.55872 0.55631
 C119 C 0.17265 0.54939 0.57712
 C120 C 0.19320 0.55955 0.58692
 C121 C 0.20330 0.57949 0.57583
 C122 C 0.19335 0.58891 0.55493
 C123 C 0.17284 0.57851 0.54548
 H124 H 0.16438 0.53474 0.58635
 H125 H 0.21794 0.58855 0.58421
 H126 H 0.16480 0.58607 0.52968
 C127 C 0.58913 0.69207 0.05577
 C128 C 0.57872 0.70237 0.07591
 C129 C 0.55779 0.69318 0.08574
 C130 C 0.54731 0.67317 0.07521
 C131 C 0.55733 0.66259 0.05505
 C132 C 0.57837 0.67204 0.04549
 H133 H 0.58719 0.71750 0.08422
 H134 H 0.53180 0.66505 0.08307
 H135 H 0.58710 0.66293 0.03110
 C136 C 0.69412 0.19415 0.66639
 C137 C 0.70494 0.17465 0.67751
 C138 C 0.69356 0.16236 0.69618
 C139 C 0.67173 0.17110 0.70459
 C140 C 0.66125 0.19140 0.69452
 C141 C 0.67252 0.20254 0.67527
 H142 H 0.72227 0.16944 0.67157
 H143 H 0.66263 0.16155 0.71856
 H144 H 0.66425 0.21773 0.66691
 C145 C 1.08933 0.05839 0.19211
 C146 C 1.07897 0.07849 0.20245
 C147 C 1.05767 0.08778 0.19348
 C148 C 1.04702 0.07708 0.17360
 C149 C 1.05735 0.05719 0.16248
 C150 C 1.07847 0.04805 0.17217
 H151 H 1.08814 0.08767 0.21655
 H152 H 1.03098 0.08498 0.16685
 H153 H 1.08682 0.03286 0.16394
 C154 C 0.05486 0.16395 1.05393
 C155 C 0.04399 0.17430 1.07390
 C156 C 0.05373 0.19469 1.08475
 C157 C 0.07455 0.20452 1.07501
 C158 C 0.08555 0.19440 1.05502
 C159 C 0.07563 0.17407 1.04482
 H160 H 0.02890 0.16549 1.08158
 H161 H 0.08264 0.21959 1.08368
 H162 H 0.08432 0.16587 1.02974
 C163 C 0.16785 0.69985 0.69321
 C164 C 0.17683 0.67853 0.70229
 C165 C 0.19617 0.66723 0.69153
 C166 C 0.20631 0.67739 0.67102
 C167 C 0.19761 0.69871 0.66165
 C168 C 0.17887 0.71021 0.67332
 H169 H 0.16848 0.67050 0.71769
 H170 H 0.22040 0.66843 0.66165
 H171 H 0.17314 0.72736 0.66714
 C172 C 1.19895 0.16736 0.19742
 C173 C 1.18010 0.17875 0.20904
 C174 C 1.16860 0.19813 0.19842
 C175 C 1.17715 0.20696 0.17671
 C176 C 1.19652 0.19644 0.16528
 C177 C 1.20719 0.17647 0.17572
 H178 H 1.17461 0.17272 0.22642
 H179 H 1.16840 0.22193 0.16845
 H180 H 1.22131 0.16724 0.16665
 C181 C 0.66379 1.05677 0.55879
 C182 C 0.67532 1.07694 0.54939
 C183 C 0.69500 1.08733 0.56087
 C184 C 0.70354 1.07671 0.58199
 C185 C 0.69263 1.05632 0.59145
 C186 C 0.67278 1.04678 0.57988
 H187 H 0.66888 1.08529 0.53338
 H188 H 0.71793 1.08460 0.59177
 H189 H 0.66416 1.03138 0.58756
 C190 C 0.55397 0.55315 0.16690
 C191 C 0.54453 0.57388 0.17677
 C192 C 0.55469 0.58420 0.19716
 C193 C 0.57464 0.57357 0.20752
 C194 C 0.58438 0.55281 0.19788
 C195 C 0.57399 0.54282 0.17755
 H196 H 0.52986 0.58237 0.16781
 H197 H 0.58304 0.58220 0.22250
 H198 H 0.58229 0.52753 0.16961
 C199 C 0.66591 0.69255 0.19601
 C200 C 0.67596 0.70225 0.17534
 C201 C 0.69588 0.69182 0.16462
 C202 C 0.70552 0.67128 0.17473
 C203 C 0.69577 0.66125 0.19546
 C204 C 0.67590 0.67195 0.20589
 H205 H 0.66754 0.71743 0.16725
 H206 H 0.72012 0.66275 0.16574
 H207 H 0.66783 0.66354 0.22117
 C208 C 0.16904 0.05254 1.04799
 C209 C 0.17936 0.04157 1.06798
 C210 C 0.19968 0.05100 1.07897
 C211 C 0.21027 0.07129 1.06933
 C212 C 0.20025 0.08282 1.04958
 C213 C 0.17991 0.07320 1.03885
 H214 H 0.17152 0.02545 1.07485
 H215 H 0.22629 0.07807 1.07748
 H216 H 0.17258 0.08251 1.02378
 C217 C 0.58770 0.19223 0.55679
 C218 C 0.57771 0.20309 0.57682
 C219 C 0.55693 0.19410 0.58728
 C220 C 0.54630 0.17381 0.57755
 C221 C 0.55605 0.16263 0.55750
 C222 C 0.57679 0.17191 0.54733
 H223 H 0.58680 0.21806 0.58463
 H224 H 0.53093 0.16639 0.58633
 H225 H 0.58475 0.16262 0.53256
 C226 C 0.08347 0.55204 0.69641
 C227 C 0.07434 0.57316 0.70566
 C228 C 0.05461 0.58420 0.69507
 C229 C 0.04442 0.57394 0.67471
 C230 C 0.05334 0.55283 0.66515
 C231 C 0.07237 0.54157 0.67664
 H232 H 0.08339 0.58133 0.72051
 H233 H 0.02967 0.58267 0.66600
 H234 H 0.07834 0.52453 0.67042
 C235 C 0.66638 0.55130 0.05113
 C236 C 0.67786 0.57066 0.04036
 C237 C 0.69722 0.58179 0.05152
 C238 C 0.70601 0.57238 0.07291
 C239 C 0.69537 0.55239 0.08348
 C240 C 0.67547 0.54218 0.07250
 H241 H 0.67197 0.57683 0.02316
 H242 H 0.72058 0.58135 0.08162
 H243 H 0.66676 0.52720 0.08085
 C244 C 0.05356 0.69957 0.58038
 C245 C 0.07316 0.70992 0.56887
 C246 C 0.08449 0.69826 0.54993
 C247 C 0.07508 0.67678 0.54166
 C248 C 0.05501 0.66655 0.55231
 C249 C 0.04450 0.67804 0.57183
 H250 H 0.07934 0.72716 0.57437
 H251 H 0.08366 0.66777 0.52700
 H252 H 0.02979 0.66996 0.58114
 C253 C 0.54950 1.05415 0.66721
 C254 C 0.53974 1.07516 0.67663
 C255 C 0.55009 1.08651 0.69625
 C256 C 0.57049 1.07681 0.70665
 C257 C 0.58029 1.05581 0.69800
 C258 C 0.56976 1.04463 0.67828
 H259 H 0.52449 1.08351 0.66866
 H260 H 0.57942 1.08590 0.72104
 H261 H 0.57792 1.02901 0.67079
 C262 C 0.44443 0.33670 0.94487
 C263 C 0.45451 0.32644 0.92432
 C264 C 0.44440 0.30623 0.91376
 C265 C 0.42387 0.29632 0.92372
 C266 C 0.41356 0.30607 0.94423
 C267 C 0.42394 0.32619 0.95454
 H268 H 0.46927 0.33472 0.91553
 H269 H 0.41560 0.28149 0.91480
 H270 H 0.41569 0.33392 0.97012
 C271 C 0.94627 0.44536 0.33302
 C272 C 0.92655 0.45605 0.32233
 C273 C 0.91547 0.44578 0.30241
 C274 C 0.92499 0.42504 0.29265
 C275 C 0.94487 0.41410 0.30305
 C276 C 0.95516 0.42424 0.32337
 H277 H 0.91995 0.47242 0.32972
 H278 H 0.91605 0.41694 0.27769
 H279 H 0.96969 0.41513 0.33194
 C280 C 0.30726 0.94444 0.41069
 C281 C 0.29756 0.92402 0.42150
 C282 C 0.30856 0.91329 0.44113
 C283 C 0.32951 0.92322 0.45029
 C284 C 0.33936 0.94372 0.44022
 C285 C 0.32820 0.95408 0.42037
 H286 H 0.28180 0.91563 0.41459
 H287 H 0.33876 0.91470 0.46481
 H288 H 0.33623 0.96924 0.41175
 O289 O 0.31339 0.50320 0.78082
 O290 O 0.30435 0.54441 0.77877
 O291 O 0.25140 0.47402 0.81364
 O292 O 0.21274 0.47249 0.80671
 O293 O 0.28139 0.44116 0.75120
 O294 O 0.27990 0.45011 0.70978
 O295 O 0.18799 0.53346 0.74822
 O296 O 0.19489 0.52969 0.78955
 O297 O 0.24770 0.56559 0.71931
 O298 O 0.29026 0.55821 0.72071
 O299 O 0.21983 0.50459 0.68788
 O300 O 0.22185 0.46226 0.69647
 O301 O 0.18841 0.50501 0.71965
 O302 O 0.19757 0.46152 0.72269
 O303 O 0.24776 0.53365 0.68766
 O304 O 0.29154 0.53188 0.69672
 O305 O 0.21904 0.56526 0.74771
 O306 O 0.22230 0.55751 0.79083
 O307 O 0.31403 0.47488 0.75207
 O308 O 0.30534 0.47733 0.70987
 O309 O 0.25304 0.44061 0.77996
 O310 O 0.21028 0.44928 0.77586
 O311 O 0.27971 0.50279 0.81379
 O312 O 0.27746 0.54451 0.80454
 Zr313 Zr 0.27880 0.51700 0.77912
 O314 O 0.25784 0.53940 0.75783
 Zr315 Zr 0.23783 0.47463 0.77884
 O316 O 0.21475 0.49551 0.75815
 Zr317 Zr 0.27972 0.47563 0.73724
 O318 O 0.25827 0.49590 0.71433
 Zr319 Zr 0.22188 0.53160 0.76353
 O320 O 0.24277 0.51081 0.78682
 Zr321 Zr 0.26344 0.53197 0.72166
 O322 O 0.28690 0.51174 0.74293
 Zr323 Zr 0.22231 0.48975 0.72202
 O324 O 0.24381 0.46700 0.74272
 O325 O 0.27363 0.48109 0.77326
 O326 O 0.22749 0.52586 0.72736
 C327 C 0.32381 0.48687 0.76890
 C328 C 0.26771 0.48624 0.82390
 C329 C 0.26959 0.43080 0.76774
 C330 C 0.17834 0.52188 0.73112
 C331 C 0.23053 0.57524 0.73071
 C332 C 0.23099 0.52168 0.67784
 H333 H 0.26165 0.55606 0.76156
 H334 H 0.26213 0.49199 0.69765
 H335 H 0.28379 0.47115 0.78357
 H336 H 0.19811 0.49170 0.76213
 H337 H 0.20194 0.52198 0.80372
 H338 H 0.19914 0.48251 0.80214
 H339 H 0.28893 0.51850 0.68568
 H340 H 0.31323 0.49293 0.71132
 H341 H 0.23608 0.56805 0.78827
 H342 H 0.26180 0.54329 0.81238
 H343 H 0.23649 0.46363 0.68691
 H344 H 0.26415 0.44236 0.71008
 H345 H 0.31177 0.54409 0.76282
 H346 H 0.28934 0.56731 0.73570
 H347 H 0.21333 0.44006 0.76122
 H348 H 0.18639 0.46439 0.73590
 O349 O 0.25486 -0.02948 0.30967
 O350 O 0.21314 -0.02738 0.30120
 O351 O 0.28243 -0.06244 0.24720
 O352 O 0.28270 -0.05554 0.20800
 O353 O 0.31625 -0.00087 0.27670
 O354 O 0.30768 0.04079 0.27432
 O355 O 0.22200 0.00283 0.18427
 O356 O 0.22623 -0.03851 0.19101
 O357 O 0.19093 0.03098 0.24457
 O358 O 0.19976 0.02890 0.28796
 O359 O 0.25110 0.06276 0.21589
 O360 O 0.29402 0.05426 0.21760
 O361 O 0.25069 0.03116 0.18411
 O362 O 0.29399 0.02880 0.19256
 O363 O 0.22264 0.06254 0.24447
 O364 O 0.22492 0.05412 0.28777
 O365 O 0.19079 0.00274 0.21579
 O366 O 0.19851 -0.03984 0.21866
 O367 O 0.28309 -0.00063 0.30984
 O368 O 0.28129 0.04095 0.30084
 O369 O 0.31602 -0.02930 0.24805
 O370 O 0.30689 -0.02505 0.20551
 O371 O 0.25417 -0.06246 0.27608
 O372 O 0.21269 -0.05350 0.27470
 Zr373 Zr 0.24018 -0.02802 0.27520
 O374 O 0.21733 -0.00712 0.25439
 Zr375 Zr 0.28171 -0.02786 0.23331
 O376 O 0.26053 -0.00712 0.21049
 Zr377 Zr 0.28189 0.01360 0.27523
 O378 O 0.26094 0.03632 0.25425
 Zr379 Zr 0.22455 -0.01268 0.21816
 O380 O 0.24560 -0.03579 0.23894
 Zr381 Zr 0.22490 0.02881 0.26002
 O382 O 0.24585 0.00795 0.28318
 Zr383 Zr 0.26637 0.02887 0.21803
 O384 O 0.28961 0.00811 0.23904
 O385 O 0.27603 -0.02221 0.26934
 O386 O 0.23034 0.02329 0.22380
 C387 C 0.27135 -0.01740 0.31986
 C388 C 0.27047 -0.07256 0.26385
 C389 C 0.32620 -0.01751 0.26473
 C390 C 0.23350 0.01982 0.17434
 C391 C 0.18099 0.01959 0.22743
 C392 C 0.23409 0.07248 0.22742
 H393 H 0.20073 -0.01093 0.25843
 H394 H 0.26486 0.05293 0.25812
 H395 H 0.28607 -0.03245 0.27946
 H396 H 0.26403 -0.01100 0.19371
 H397 H 0.23383 -0.05265 0.19808
 H398 H 0.27331 -0.05040 0.19406
 H399 H 0.23895 0.06442 0.28564
 H400 H 0.26556 0.04017 0.30858
 H401 H 0.18856 -0.03774 0.23295
 H402 H 0.21318 -0.06102 0.25881
 H403 H 0.29250 0.06407 0.23208
 H404 H 0.31543 0.03981 0.25856
 H405 H 0.21400 -0.01164 0.30888
 H406 H 0.18938 0.01491 0.28592
 H407 H 0.31584 -0.01019 0.20815
 H408 H 0.29161 0.01495 0.18208
 O409 O 0.50520 0.68694 0.22051
 O410 O 0.46377 0.69485 0.22110
 O411 O 0.53289 0.74949 0.18646
 O412 O 0.53302 0.78830 0.19294
 O413 O 0.56609 0.72111 0.24938
 O414 O 0.55708 0.72383 0.29090
 O415 O 0.47036 0.81147 0.25010
 O416 O 0.47509 0.80429 0.20893
 O417 O 0.43997 0.75095 0.27922
 O418 O 0.44952 0.70837 0.27836
 O419 O 0.49919 0.78167 0.31124
 O420 O 0.54192 0.78091 0.30371
 O421 O 0.49873 0.81262 0.27883
 O422 O 0.54249 0.80474 0.27704
 O423 O 0.47130 0.75258 0.31145
 O424 O 0.47474 0.70921 0.30356
 O425 O 0.43966 0.77911 0.25029
 O426 O 0.44824 0.77599 0.20753
 O427 O 0.53318 0.68764 0.24971
 O428 O 0.53078 0.69735 0.29147
 O429 O 0.56600 0.74924 0.22037
 O430 O 0.55604 0.79170 0.22404
 O431 O 0.50540 0.71993 0.18658
 O432 O 0.46348 0.72112 0.19484
 Zr433 Zr 0.49052 0.72110 0.22091
 O434 O 0.46709 0.74149 0.24144
 Zr435 Zr 0.53149 0.76343 0.22107
 O436 O 0.50953 0.78599 0.24112
 Zr437 Zr 0.53154 0.72228 0.26339
 O438 O 0.51009 0.74317 0.28563
 Zr439 Zr 0.47374 0.77756 0.23527
 O440 O 0.49556 0.75713 0.21264
 Zr441 Zr 0.47428 0.73658 0.27780
 O442 O 0.49572 0.71370 0.25730
 Zr443 Zr 0.51500 0.77917 0.27749
 O444 O 0.53888 0.75833 0.25743
 O445 O 0.52621 0.72756 0.22720
 O446 O 0.47913 0.77263 0.27162
 C447 C 0.52151 0.67717 0.23312
 C448 C 0.52152 0.73249 0.17641
 C449 C 0.57617 0.73295 0.23263
 C450 C 0.48157 0.82187 0.26700
 C451 C 0.42982 0.76742 0.26726
 C452 C 0.48228 0.77001 0.32114
 H453 H 0.45062 0.73701 0.23748
 H454 H 0.51386 0.73970 0.30245
 H455 H 0.53649 0.71746 0.21722
 H456 H 0.51282 0.80268 0.23694
 H457 H 0.48330 0.79740 0.19501
 H458 H 0.52269 0.80171 0.19733
 H459 H 0.48820 0.71219 0.31446
 H460 H 0.51528 0.68917 0.29044
 H461 H 0.43845 0.76163 0.20981
 H462 H 0.46436 0.73664 0.18669
 H463 H 0.54102 0.76626 0.31331
 H464 H 0.56433 0.73978 0.29006
 H465 H 0.46395 0.68769 0.23719
 H466 H 0.43969 0.70955 0.26383
 H467 H 0.56519 0.78908 0.23885
 H468 H 0.53973 0.81537 0.26332
 O469 O 0.06432 0.72001 0.74609
 O470 O 0.05646 0.72134 0.78776
 O471 O 0.00156 0.68672 0.71855
 O472 O -0.03726 0.69345 0.71830
 O473 O 0.03056 0.74899 0.68487
 O474 O 0.02839 0.79030 0.69372
 O475 O -0.06015 0.75088 0.78073
 O476 O -0.05331 0.70989 0.77648
 O477 O 0.00067 0.77962 0.81124
 O478 O 0.04305 0.77886 0.80180
 O479 O -0.03048 0.81095 0.75197
 O480 O -0.02873 0.80366 0.70872
 O481 O -0.06116 0.77892 0.75168
 O482 O -0.05272 0.77711 0.70786
 O483 O -0.00129 0.81141 0.77986
 O484 O 0.04263 0.80340 0.77576
 O485 O -0.02814 0.75141 0.81156
 O486 O -0.02489 0.70854 0.80344
 O487 O 0.06388 0.74876 0.71768
 O488 O 0.05485 0.79062 0.72037
 O489 O 0.00229 0.72019 0.68510
 O490 O -0.04032 0.72421 0.69498
 O491 O 0.03101 0.68675 0.74628
 O492 O 0.02968 0.69549 0.78845
 Zr493 Zr 0.03013 0.72107 0.76096
 O494 O 0.00983 0.74189 0.78427
 Zr495 Zr -0.01211 0.72125 0.71970
 O496 O -0.03461 0.74149 0.74155
 Zr497 Zr 0.02947 0.76305 0.71950
 O498 O 0.00859 0.78554 0.74076
 Zr499 Zr -0.02632 0.73590 0.77758
 O500 O -0.00601 0.71308 0.75586
 Zr501 Zr 0.01500 0.77798 0.77677
 O502 O 0.03786 0.75719 0.75553
 Zr503 Zr -0.02748 0.77757 0.73576
 O504 O -0.00665 0.75730 0.71202
 O505 O 0.02380 0.72715 0.72509
 O506 O -0.02108 0.77194 0.77181
 C507 C 0.07412 0.73204 0.72935
 C508 C 0.01844 0.67664 0.73007
 C509 C 0.01874 0.73223 0.67486
 C510 C -0.07046 0.76753 0.76911
 C511 C -0.01623 0.76820 0.82136
 C512 C -0.01903 0.82081 0.76909
 H513 H 0.01421 0.73808 0.80086
 H514 H 0.01215 0.80224 0.73690
 H515 H 0.03377 0.71704 0.71483
 H516 H -0.05133 0.73738 0.73823
 H517 H -0.04651 0.69593 0.76837
 H518 H -0.05059 0.69791 0.72876
 H519 H 0.03912 0.81471 0.76279
 H520 H 0.06305 0.78940 0.73590
 H521 H -0.01085 0.71121 0.81365
 H522 H 0.01410 0.68744 0.78752
 H523 H -0.01442 0.81368 0.71027
 H524 H 0.01226 0.78994 0.68679
 H525 H 0.06384 0.73724 0.78730
 H526 H 0.04228 0.76409 0.81123
 H527 H -0.03740 0.73871 0.68551
 H528 H -0.06340 0.76346 0.71054
 O529 O 0.00461 0.06249 0.02731
 O530 O -0.03685 0.05378 0.02673
 O531 O 0.03330 0.00093 0.06162
 O532 O 0.03301 -0.03819 0.05550
 O533 O 0.06586 0.02899 -0.00153
 O534 O 0.05663 0.02620 -0.04301
 O535 O -0.02896 -0.06272 -0.00210
 O536 O -0.02404 -0.05540 0.03922
 O537 O -0.06015 -0.00251 -0.03093
 O538 O -0.05084 0.04009 -0.03047
 O539 O -0.00065 -0.03268 -0.06320
 O540 O 0.04249 -0.03072 -0.05529
 O541 O -0.00066 -0.06340 -0.03084
 O542 O 0.04281 -0.05510 -0.02908
 O543 O -0.02918 -0.00438 -0.06314
 O544 O -0.02573 0.03931 -0.05579
 O545 O -0.06001 -0.03088 -0.00219
 O546 O -0.05150 -0.02770 0.04042
 O547 O 0.03270 0.06208 -0.00172
 O548 O 0.03008 0.05236 -0.04346
 O549 O 0.06613 0.00087 0.02750
 O550 O 0.05651 -0.04148 0.02454
 O551 O 0.00548 0.03001 0.06127
 O552 O -0.03651 0.02763 0.05330
 Zr553 Zr -0.00969 0.02809 0.02706
 O554 O -0.03293 0.00723 0.00661
 Zr555 Zr 0.03166 -0.01358 0.02713
 O556 O 0.00998 -0.03656 0.00700
 Zr557 Zr 0.03123 0.02742 -0.01542
 O558 O 0.00993 0.00615 -0.03765
 Zr559 Zr -0.02590 -0.02875 0.01282
 O560 O -0.00432 -0.00784 0.03547
 Zr561 Zr -0.02591 0.01217 -0.02976
 O562 O -0.00466 0.03547 -0.00935
 Zr563 Zr 0.01527 -0.02973 -0.02942
 O564 O 0.03891 -0.00850 -0.00927
 O565 O 0.02604 0.02216 0.02078
 O566 O -0.02063 -0.02376 -0.02352
 C567 C 0.02094 0.07243 0.01483
 C568 C 0.02192 0.01797 0.07151
 C569 C 0.07613 0.01723 0.01515
 C570 C -0.01775 -0.07290 -0.01910
 C571 C -0.07006 -0.01923 -0.01906
 C572 C -0.01800 -0.02160 -0.07291
 H573 H -0.04943 0.01146 0.01057
 H574 H 0.01358 0.00962 -0.05448
 H575 H 0.03633 0.03244 0.03063
 H576 H 0.01345 -0.05319 0.01120
 H577 H -0.01615 -0.04823 0.05322
 H578 H 0.02329 -0.05202 0.05085
 H579 H -0.01257 0.03616 -0.06695
 H580 H 0.01439 0.06010 -0.04255
 H581 H -0.06102 -0.01316 0.03848
 H582 H -0.03530 0.01219 0.06153
 H583 H 0.04070 -0.01665 -0.06562
 H584 H 0.06398 0.01033 -0.04220
 H585 H -0.03655 0.06114 0.01074
 H586 H -0.06052 0.03895 -0.01584
 H587 H 0.06520 -0.03920 0.00941
 H588 H 0.04040 -0.06549 -0.01510
 O589 O -0.06282 0.50020 0.46737
 O590 O -0.05402 0.54177 0.46897
 O591 O -0.00066 0.47206 0.43409
 O592 O 0.03839 0.47184 0.44099
 O593 O -0.02994 0.43880 0.49641
 O594 O -0.02747 0.44784 0.53825
 O595 O 0.06246 0.53265 0.49904
 O596 O 0.05544 0.52817 0.45753
 O597 O 0.00254 0.56429 0.52736
 O598 O -0.04092 0.55539 0.52516
 O599 O 0.03084 0.50466 0.55966
 O600 O 0.02878 0.46142 0.55147
 O601 O 0.06240 0.50448 0.52797
 O602 O 0.05405 0.46144 0.52619
 O603 O 0.00226 0.53292 0.55952
 O604 O -0.04057 0.53084 0.55107
 O605 O 0.03110 0.56405 0.49885
 O606 O 0.02820 0.55602 0.45622
 O607 O -0.06282 0.47206 0.49638
 O608 O -0.05392 0.47407 0.53813
 O609 O -0.00155 0.43877 0.46768
 O610 O 0.04077 0.44781 0.47178
 O611 O -0.02938 0.50029 0.43401
 O612 O -0.02777 0.54177 0.44262
 Zr613 Zr -0.02835 0.51460 0.46852
 O614 O -0.00746 0.53756 0.48929
 Zr615 Zr 0.01322 0.47303 0.46885
 O616 O 0.03606 0.49430 0.48954
 Zr617 Zr -0.02838 0.47329 0.51066
 O618 O -0.00744 0.49444 0.53332
 Zr619 Zr 0.02858 0.53019 0.48366
 O620 O 0.00773 0.50904 0.46064
 Zr621 Zr -0.01305 0.53039 0.52551
 O622 O -0.03620 0.50925 0.50476
 Zr623 Zr 0.02859 0.48889 0.52581
 O624 O 0.00762 0.46550 0.50511
 O625 O -0.02263 0.47882 0.47459
 O626 O 0.02300 0.52482 0.51992
 C627 C -0.07293 0.48382 0.47961
 C628 C -0.01725 0.48395 0.42390
 C629 C -0.01809 0.42869 0.47973
 C630 C 0.07228 0.52137 0.51625
 C631 C 0.01958 0.57406 0.51572
 C632 C 0.01932 0.52165 0.56946
 H633 H -0.01143 0.55411 0.48532
 H634 H -0.01127 0.49069 0.55006
 H635 H -0.03278 0.46873 0.46440
 H636 H 0.05274 0.49071 0.48564
 H637 H 0.04827 0.52050 0.44340
 H638 H 0.05237 0.48110 0.44615
 H639 H -0.03891 0.51656 0.56112
 H640 H -0.06159 0.48979 0.53726
 H641 H 0.01385 0.56583 0.45811
 H642 H -0.01197 0.54114 0.43502
 H643 H 0.01474 0.46348 0.56177
 H644 H -0.01177 0.44012 0.53733
 H645 H -0.06159 0.54116 0.48484
 H646 H -0.03848 0.56602 0.51138
 H647 H 0.03826 0.43917 0.48691
 H648 H 0.06417 0.46336 0.51196
 O649 O 0.56446 0.03039 0.50301
 O650 O 0.55637 0.02825 0.46087
 O651 O 0.50217 0.06251 0.53067
 O652 O 0.46313 0.05555 0.53041
 O653 O 0.53119 0.00034 0.56395
 O654 O 0.52937 -0.04111 0.55443
 O655 O 0.43971 -0.00227 0.46887
 O656 O 0.44645 0.03913 0.47381
 O657 O 0.49996 -0.02975 0.43743
 O658 O 0.54320 -0.02757 0.44647
 O659 O 0.47143 -0.06238 0.49732
 O660 O 0.47296 -0.05437 0.54061
 O661 O 0.43967 -0.03099 0.49725
 O662 O 0.44787 -0.02918 0.54073
 O663 O 0.50003 -0.06186 0.46888
 O664 O 0.54296 -0.05322 0.47128
 O665 O 0.47131 -0.00154 0.43762
 O666 O 0.47385 0.04072 0.44584
 O667 O 0.56456 0.00117 0.53093
 O668 O 0.55598 -0.04048 0.52816
 O669 O 0.50269 0.02875 0.56383
 O670 O 0.46055 0.02484 0.55444
 O671 O 0.53087 0.06297 0.50224
 O672 O 0.52999 0.05441 0.46050
 Zr673 Zr 0.53028 0.02867 0.48784
 O674 O 0.50961 0.00802 0.46455
 Zr675 Zr 0.48833 0.02791 0.52929
 O676 O 0.46572 0.00731 0.50774
 Zr677 Zr 0.53022 -0.01342 0.52913
 O678 O 0.50947 -0.03596 0.50769
 Zr679 Zr 0.47346 0.01335 0.47173
 O680 O 0.49411 0.03628 0.49317
 Zr681 Zr 0.51529 -0.02800 0.47162
 O682 O 0.53827 -0.00733 0.49305
 Zr683 Zr 0.47337 -0.02871 0.51313
 O684 O 0.49413 -0.00813 0.53678
 O685 O 0.52425 0.02243 0.52374
 O686 O 0.47918 -0.02269 0.47704
 C687 C 0.57452 0.01825 0.51957
 C688 C 0.51870 0.07282 0.51875
 C689 C 0.51911 0.01673 0.57408
 C690 C 0.42986 -0.01945 0.48021
 C691 C 0.48293 -0.01823 0.42758
 C692 C 0.48306 -0.07196 0.48022
 H693 H 0.51368 0.01206 0.44795
 H694 H 0.51335 -0.05259 0.51143
 H695 H 0.53417 0.03259 0.53407
 H696 H 0.44900 0.01107 0.51126
 H697 H 0.45355 0.05325 0.48147
 H698 H 0.44920 0.05039 0.52104
 H699 H 0.54113 -0.06338 0.48550
 H700 H 0.56382 -0.03931 0.51245
 H701 H 0.48838 0.03909 0.43618
 H702 H 0.51414 0.06187 0.46093
 H703 H 0.48718 -0.06438 0.53875
 H704 H 0.51359 -0.04047 0.56208
 H705 H 0.56421 0.01263 0.46185
 H706 H 0.54117 -0.01343 0.43629
 H707 H 0.46296 0.00975 0.56305
 H708 H 0.43742 -0.01532 0.53855
 O709 O 0.56095 0.52961 0.00331
 O710 O 0.55226 0.52742 -0.03856
 O711 O 0.49917 0.56328 0.03113
 O712 O 0.46005 0.55677 0.03132
 O713 O 0.52752 0.50124 0.06533
 O714 O 0.52543 0.45972 0.05653
 O715 O 0.43555 0.49827 -0.02886
 O716 O 0.44291 0.53969 -0.02491
 O717 O 0.49522 0.46944 -0.06040
 O718 O 0.53848 0.47117 -0.05176
 O719 O 0.46658 0.43819 0.00020
 O720 O 0.46879 0.44695 0.04341
 O721 O 0.43528 0.47008 0.00005
 O722 O 0.44392 0.47237 0.04327
 O723 O 0.49507 0.43794 -0.02834
 O724 O 0.53820 0.44611 -0.02644
 O725 O 0.46693 0.49800 -0.06058
 O726 O 0.46991 0.54021 -0.05322
 O727 O 0.56083 0.50117 0.03203
 O728 O 0.55175 0.45960 0.03007
 O729 O 0.49945 0.53008 0.06498
 O730 O 0.45724 0.52655 0.05583
 O731 O 0.52806 0.56279 0.00290
 O732 O 0.52614 0.55388 -0.03882
 Zr733 Zr 0.52656 0.52840 -0.01125
 O734 O 0.50552 0.50757 -0.03403
 Zr735 Zr 0.48493 0.52883 0.03051
 O736 O 0.46196 0.50812 0.00947
 Zr737 Zr 0.52631 0.48698 0.03074
 O738 O 0.50514 0.46431 0.00986
 Zr739 Zr 0.46951 0.51345 -0.02670
 O740 O 0.49053 0.53653 -0.00579
 Zr741 Zr 0.51079 0.47162 -0.02637
 O742 O 0.53416 0.49239 -0.00549
 Zr743 Zr 0.46918 0.47210 0.01545
 O744 O 0.49035 0.49284 0.03858
 O745 O 0.52075 0.52281 0.02481
 O746 O 0.47479 0.47744 -0.02080
 C747 C 0.57097 0.51771 0.02006
 C748 C 0.51596 0.57312 0.01922
 C749 C 0.51568 0.51792 0.07531
 C750 C 0.42552 0.48150 -0.01709
 C751 C 0.47829 0.48099 -0.07039
 C752 C 0.47801 0.42822 -0.01677
 H753 H 0.50953 0.51127 -0.05073
 H754 H 0.50885 0.44770 0.01385
 H755 H 0.53091 0.53295 0.03493
 H756 H 0.44531 0.51217 0.01307
 H757 H 0.45029 0.55386 -0.01763
 H758 H 0.44607 0.55167 0.02200
 H759 H 0.53623 0.43607 -0.01214
 H760 H 0.55943 0.46037 0.01426
 H761 H 0.48467 0.53864 -0.06252
 H762 H 0.51049 0.56171 -0.03808
 H763 H 0.48275 0.43659 0.04145
 H764 H 0.50967 0.46055 0.06420
 H765 H 0.55978 0.51164 -0.03767
 H766 H 0.53656 0.48514 -0.06219
 H767 H 0.45953 0.51159 0.06472
 H768 H 0.43373 0.48642 0.04105
 O769 O 0.81379 0.25131 0.47196
 O770 O 0.80572 0.20961 0.47528
 O771 O 0.75210 0.27763 0.43719
 O772 O 0.71299 0.27745 0.44326
 O773 O 0.77975 0.31293 0.49914
 O774 O 0.77753 0.30490 0.54102
 O775 O 0.68852 0.21833 0.50312
 O776 O 0.69611 0.22132 0.46160
 O777 O 0.74831 0.18823 0.53380
 O778 O 0.79127 0.19705 0.53234
 O779 O 0.71856 0.24866 0.56312
 O780 O 0.72072 0.29144 0.55367
 O781 O 0.68780 0.24778 0.53066
 O782 O 0.69632 0.29091 0.52749
 O783 O 0.74715 0.22043 0.56430
 O784 O 0.79091 0.22337 0.55657
 O785 O 0.72020 0.18721 0.50479
 O786 O 0.72367 0.19377 0.46182
 O787 O 0.81331 0.28023 0.50012
 O788 O 0.80403 0.27875 0.54195
 O789 O 0.75192 0.31179 0.46982
 O790 O 0.70964 0.30222 0.47319
 O791 O 0.78093 0.24956 0.43839
 O792 O 0.77956 0.20820 0.44858
 Zr793 Zr 0.77959 0.23628 0.47340
 O794 O 0.75865 0.21379 0.49471
 Zr795 Zr 0.73763 0.27738 0.47167
 O796 O 0.71471 0.25656 0.49266
 Zr797 Zr 0.77874 0.27877 0.51417
 O798 O 0.75754 0.25828 0.53723
 Zr799 Zr 0.72261 0.22055 0.48824
 O800 O 0.74356 0.24119 0.46479
 Zr801 Zr 0.76355 0.22219 0.53076
 O802 O 0.78689 0.24273 0.50958
 Zr803 Zr 0.72161 0.26334 0.52882
 O804 O 0.74276 0.28614 0.50772
 O805 O 0.77344 0.27216 0.47821
 O806 O 0.72758 0.22727 0.52432
 C807 C 0.82359 0.26830 0.48365
 C808 C 0.76890 0.26561 0.42761
 C809 C 0.76798 0.32244 0.48201
 C810 C 0.67827 0.23038 0.51952
 C811 C 0.73145 0.17795 0.52235
 C812 C 0.72974 0.23180 0.57351
 H813 H 0.76282 0.19715 0.49144
 H814 H 0.76104 0.26258 0.55390
 H815 H 0.78353 0.28214 0.46786
 H816 H 0.69807 0.25988 0.48831
 H817 H 0.70339 0.22857 0.44731
 H818 H 0.69912 0.26799 0.44835
 H819 H 0.78793 0.23706 0.56708
 H820 H 0.81179 0.26307 0.54158
 H821 H 0.73804 0.18413 0.46439
 H822 H 0.76389 0.20850 0.44064
 H823 H 0.73464 0.28984 0.56426
 H824 H 0.76166 0.31224 0.54000
 H825 H 0.81305 0.21089 0.49124
 H826 H 0.78997 0.18682 0.51813
 H827 H 0.71192 0.31158 0.48790
 H828 H 0.68605 0.28816 0.51348
 O829 O 0.75472 0.77964 -0.06150
 O830 O 0.71320 0.77757 -0.05260
 O831 O 0.78386 0.81062 0.00140
 O832 O 0.78543 0.80276 0.04013
 O833 O 0.81601 0.74881 -0.03013
 O834 O 0.80657 0.70752 -0.02895
 O835 O 0.72366 0.74522 0.06384
 O836 O 0.72823 0.78646 0.05761
 O837 O 0.69074 0.71844 0.00323
 O838 O 0.69856 0.72037 -0.03960
 O839 O 0.75108 0.68535 0.03084
 O840 O 0.79378 0.69307 0.02862
 O841 O 0.75177 0.71648 0.06301
 O842 O 0.79521 0.71866 0.05349
 O843 O 0.72187 0.68635 0.00298
 O844 O 0.72410 0.69565 -0.04081
 O845 O 0.69172 0.74601 0.03265
 O846 O 0.70018 0.78856 0.03043
 O847 O 0.78211 0.75017 -0.06283
 O848 O 0.77946 0.70824 -0.05460
 O849 O 0.81689 0.77696 -0.00121
 O850 O 0.80850 0.77183 0.04160
 O851 O 0.75519 0.81159 -0.02711
 O852 O 0.71342 0.80295 -0.02527
 Zr853 Zr 0.74057 0.77730 -0.02688
 O854 O 0.71778 0.75621 -0.00611
 Zr855 Zr 0.78292 0.77570 0.01426
 O856 O 0.76174 0.75495 0.03708
 Zr857 Zr 0.78134 0.73509 -0.02850
 O858 O 0.76054 0.71223 -0.00741
 Zr859 Zr 0.72572 0.76107 0.03009
 O860 O 0.74686 0.78427 0.00943
 Zr861 Zr 0.72456 0.72024 -0.01241
 O862 O 0.74528 0.74139 -0.03563
 Zr863 Zr 0.76682 0.71905 0.02883
 O864 O 0.78998 0.73976 0.00764
 O865 O 0.77641 0.77086 -0.02178
 O866 O 0.73077 0.72512 0.02380
 C867 C 0.77071 0.76749 -0.07225
 C868 C 0.77179 0.82126 -0.01476
 C869 C 0.82653 0.76511 -0.01815
 C870 C 0.73511 0.72799 0.07333
 C871 C 0.68133 0.72964 0.02071
 C872 C 0.73356 0.67603 0.01967
 H873 H 0.70118 0.76029 -0.00984
 H874 H 0.76409 0.69564 -0.01159
 H875 H 0.78646 0.78120 -0.03182
 H876 H 0.76565 0.75853 0.05384
 H877 H 0.73613 0.80055 0.05071
 H878 H 0.77562 0.79787 0.05386
 H879 H 0.73727 0.68439 -0.03831
 H880 H 0.76366 0.70960 -0.06215
 H881 H 0.68989 0.78678 0.01629
 H882 H 0.71458 0.81038 -0.00937
 H883 H 0.79213 0.68386 0.01376
 H884 H 0.81437 0.70764 -0.01316
 H885 H 0.71370 0.76201 -0.06065
 H886 H 0.68961 0.73534 -0.03830
 H887 H 0.81745 0.75718 0.03818
 H888 H 0.79289 0.73194 0.06470
 O889 O 1.06425 0.22064 0.24737
 O890 O 1.05607 0.22244 0.28914
 O891 O 1.00155 0.18765 0.21974
 O892 O 0.96261 0.19463 0.21974
 O893 O 1.03079 0.24948 0.18563
 O894 O 1.02932 0.29089 0.19440
 O895 O 0.93987 0.25319 0.28095
 O896 O 0.94632 0.21194 0.27706
 O897 O 1.00037 0.28174 0.31158
 O898 O 1.04312 0.27965 0.30283
 O899 O 0.97139 0.31294 0.25112
 O900 O 0.97250 0.30422 0.20816
 O901 O 0.93961 0.28146 0.25212
 O902 O 0.94755 0.27869 0.20848
 O903 O 1.00025 0.31308 0.27938
 O904 O 1.04359 0.30397 0.27670
 O905 O 0.97141 0.25370 0.31193
 O906 O 0.97435 0.21069 0.30446
 O907 O 1.06427 0.24915 0.21872
 O908 O 1.05571 0.29092 0.22084
 O909 O 1.00244 0.22077 0.18613
 O910 O 0.96000 0.22513 0.19565
 O911 O 1.03086 0.18770 0.24762
 O912 O 1.02918 0.19656 0.28964
 Zr913 Zr 1.03000 0.22207 0.26210
 O914 O 1.00970 0.24324 0.28514
 Zr915 Zr 0.98797 0.22226 0.22065
 O916 O 0.96556 0.24305 0.24210
 Zr917 Zr 1.02998 0.26367 0.22023
 O918 O 1.00933 0.28650 0.24124
 Zr919 Zr 0.97353 0.23771 0.27821
 O920 O 0.99379 0.21442 0.25691
 Zr921 Zr 1.01541 0.27917 0.27740
 O922 O 1.03814 0.25803 0.25637
 Zr923 Zr 0.97318 0.27899 0.23603
 O924 O 0.99384 0.25819 0.21263
 O925 O 1.02392 0.22788 0.22613
 O926 O 0.97927 0.27364 0.27219
 C927 C 1.07429 0.23250 0.23061
 C928 C 1.01840 0.17759 0.23132
 C929 C 1.01885 0.23278 0.17574
 C930 C 0.92999 0.27020 0.26947
 C931 C 0.98315 0.27068 0.32161
 C932 C 0.98323 0.32291 0.26789
 H933 H 1.01385 0.23954 0.30181
 H934 H 1.01323 0.30307 0.23716
 H935 H 1.03386 0.21767 0.21595
 H936 H 0.94880 0.23916 0.23875
 H937 H 0.95311 0.19778 0.26928
 H938 H 0.94902 0.19963 0.22961
 H939 H 1.04105 0.31462 0.26296
 H940 H 1.06385 0.28978 0.23641
 H941 H 0.98837 0.21325 0.31471
 H942 H 1.01339 0.18893 0.28888
 H943 H 0.98692 0.31412 0.20957
 H944 H 1.01343 0.29032 0.18694
 H945 H 1.06359 0.23827 0.28856
 H946 H 1.04160 0.26526 0.31275
 H947 H 0.96279 0.23982 0.18644
 H948 H 0.93691 0.26501 0.21118
 O949 O 0.74443 1.06140 0.72512
 O950 O 0.78598 1.04994 0.72820
 O951 O 0.71218 1.00018 0.69500
 O952 O 0.71110 0.96110 0.70368
 O953 O 0.68111 1.03358 0.75555
 O954 O 0.69033 1.03322 0.79775
 O955 O 0.76777 0.93609 0.76507
 O956 O 0.76397 0.94161 0.72198
 O957 O 0.80438 0.99557 0.78905
 O958 O 0.79877 1.03883 0.78430
 O959 O 0.74240 0.97319 0.82260
 O960 O 0.69886 0.97883 0.81345
 O961 O 0.73892 0.94005 0.79299
 O962 O 0.69748 0.95129 0.79076
 O963 O 0.77293 0.99946 0.82086
 O964 O 0.77389 1.04204 0.80984
 O965 O 0.80179 0.96493 0.76300
 O966 O 0.79693 0.96608 0.72320
 O967 O 0.71648 1.06476 0.75409
 O968 O 0.71766 1.05836 0.79571
 O969 O 0.67940 1.00369 0.72847
 O970 O 0.68576 0.96160 0.73362
 O971 O 0.74215 1.02715 0.69383
 O972 O 0.78432 1.02363 0.70276
 Zr973 Zr 0.75690 1.02627 0.72827
 O974 O 0.77814 1.00477 0.75031
 Zr975 Zr 0.71279 0.98747 0.73033
 O976 O 0.73185 0.96456 0.75296
 Zr977 Zr 0.71552 1.03116 0.77001
 O978 O 0.73519 1.01048 0.79406
 Zr979 Zr 0.76829 0.96903 0.74723
 O980 O 0.74924 0.99012 0.72237
 Zr981 Zr 0.77152 1.01307 0.78609
 O982 O 0.75202 1.03636 0.76397
 Zr983 Zr 0.72673 0.97472 0.78860
 O984 O 0.70519 0.99562 0.76613
 O985 O 0.72078 1.02310 0.73438
 O986 O 0.76312 0.97731 0.78289
 C987 C 0.72868 1.07312 0.73675
 C988 C 0.72486 1.01579 0.68419
 C989 C 0.67027 1.02125 0.73967
 C990 C 0.75520 0.92826 0.78253
 C991 C 0.81279 0.97702 0.77893
 C992 C 0.76034 0.98388 0.83173
 H993 H 0.79499 1.00695 0.74597
 H994 H 0.73174 1.01557 0.81051
 H995 H 0.71123 1.03329 0.72374
 H996 H 0.72695 0.94801 0.75006
 H997 H 0.75974 0.94927 0.70669
 H998 H 0.71940 0.94698 0.70989
 H999 H 0.75990 1.04149 0.82041
 H1000 H 0.73419 1.06427 0.79533
 H1001 H 0.79303 0.97630 0.70950
 H1002 H 0.78077 1.00969 0.69273
 H1003 H 0.70304 0.99208 0.82416
 H1004 H 0.68099 1.01837 0.79720
 H1005 H 0.78497 1.05918 0.74311
 H1006 H 0.80847 1.03541 0.77008
 H1007 H 0.67740 0.96483 0.74875
 H1008 H 0.69790 0.94095 0.77658
 O1009 O 0.68520 0.52546 0.24944
 O1010 O 0.69454 0.52354 0.29095
 O1011 O 0.74689 0.55920 0.22044
 O1012 O 0.78596 0.55248 0.21955
 O1013 O 0.71725 0.49749 0.18673
 O1014 O 0.71955 0.45595 0.19525
 O1015 O 0.81062 0.49372 0.27994
 O1016 O 0.80389 0.53500 0.27602
 O1017 O 0.75105 0.46497 0.31197
 O1018 O 0.70780 0.46695 0.30384
 O1019 O 0.77879 0.43388 0.25111
 O1020 O 0.77627 0.44279 0.20787
 O1021 O 0.81040 0.46558 0.25107
 O1022 O 0.80144 0.46813 0.20783
 O1023 O 0.75054 0.43360 0.27993
 O1024 O 0.70741 0.44211 0.27834
 O1025 O 0.77978 0.49325 0.31165
 O1026 O 0.77669 0.53604 0.30419
 O1027 O 0.68468 0.49699 0.22082
 O1028 O 0.69372 0.45545 0.22211
 O1029 O 0.74558 0.52621 0.18660
 O1030 O 0.78806 0.52225 0.19506
 O1031 O 0.71847 0.55878 0.24915
 O1032 O 0.72103 0.54966 0.29085
 Zr1033 Zr 0.71985 0.52430 0.26325
 O1034 O 0.74091 0.50328 0.28577
 Zr1035 Zr 0.76081 0.52467 0.22083
 O1036 O 0.78390 0.50386 0.24166
 Zr1037 Zr 0.71917 0.48296 0.22123
 O1038 O 0.74041 0.46017 0.24183
 Zr1039 Zr 0.77685 0.50908 0.27793
 O1040 O 0.75585 0.53229 0.25722
 Zr1041 Zr 0.73518 0.46738 0.27812
 O1042 O 0.71182 0.48834 0.25755
 Zr1043 Zr 0.77638 0.46785 0.23584
 O1044 O 0.75507 0.48870 0.21292
 O1045 O 0.72503 0.51877 0.22710
 O1046 O 0.77116 0.47312 0.27211
 C1047 C 0.67480 0.51341 0.23305
 C1048 C 0.73041 0.56911 0.23268
 C1049 C 0.72896 0.51420 0.17655
 C1050 C 0.82035 0.47682 0.26824
 C1051 C 0.76834 0.47625 0.32164
 C1052 C 0.76739 0.42387 0.26820
 H1053 H 0.73716 0.50694 0.30252
 H1054 H 0.73650 0.44358 0.23787
 H1055 H 0.71474 0.52897 0.21721
 H1056 H 0.80055 0.50786 0.23791
 H1057 H 0.79678 0.54916 0.26850
 H1058 H 0.79998 0.54735 0.22877
 H1059 H 0.70936 0.43185 0.26423
 H1060 H 0.68619 0.45611 0.23800
 H1061 H 0.76276 0.53362 0.31457
 H1062 H 0.73679 0.55733 0.28992
 H1063 H 0.76221 0.43250 0.20994
 H1064 H 0.73525 0.45678 0.18744
 H1065 H 0.68702 0.50771 0.29042
 H1066 H 0.70998 0.48087 0.31427
 H1067 H 0.78540 0.50736 0.18618
 H1068 H 0.81169 0.48220 0.20992
 O1069 O 0.43472 0.25487 0.77757
 O1070 O 0.44221 0.21310 0.77530
 O1071 O 0.49732 0.28056 0.81233
 O1072 O 0.53648 0.27976 0.80595
 O1073 O 0.46998 0.31591 0.75022
 O1074 O 0.47234 0.30784 0.70844
 O1075 O 0.55903 0.21923 0.74623
 O1076 O 0.55218 0.22334 0.78785
 O1077 O 0.49794 0.19038 0.71713
 O1078 O 0.45526 0.20052 0.71858
 O1079 O 0.52906 0.25000 0.68633
 O1080 O 0.52848 0.29302 0.69563
 O1081 O 0.56038 0.24841 0.71837
 O1082 O 0.55343 0.29166 0.72121
 O1083 O 0.49956 0.22254 0.68564
 O1084 O 0.45656 0.22592 0.69366
 O1085 O 0.52618 0.18903 0.74599
 O1086 O 0.52383 0.19641 0.78862
 O1087 O 0.43587 0.28368 0.74924
 O1088 O 0.44526 0.28219 0.70748
 O1089 O 0.49804 0.31458 0.77931
 O1090 O 0.54007 0.30439 0.77575
 O1091 O 0.46761 0.25324 0.81134
 O1092 O 0.46816 0.21192 0.80195
 Zr1093 Zr 0.46871 0.23959 0.77660
 O1094 O 0.48898 0.21658 0.75553
 Zr1095 Zr 0.51163 0.27992 0.77771
 O1096 O 0.53398 0.25848 0.75679
 Zr1097 Zr 0.47044 0.28176 0.73538
 O1098 O 0.49093 0.26063 0.71249
 Zr1099 Zr 0.52524 0.22270 0.76166
 O1100 O 0.50489 0.24390 0.78499
 Zr1101 Zr 0.48393 0.22476 0.71944
 O1102 O 0.46130 0.24596 0.74043
 Zr1103 Zr 0.52707 0.26493 0.72056
 O1104 O 0.50664 0.28839 0.74155
 O1105 O 0.47566 0.27531 0.77139
 O1106 O 0.52013 0.22905 0.72550
 C1107 C 0.42522 0.27176 0.76554
 C1108 C 0.48017 0.26897 0.82200
 C1109 C 0.48200 0.32534 0.76722
 C1110 C 0.56949 0.23077 0.72951
 C1111 C 0.51428 0.17974 0.72887
 C1112 C 0.51701 0.23358 0.67609
 H1113 H 0.48435 0.20009 0.75911
 H1114 H 0.48739 0.26489 0.69580
 H1115 H 0.46573 0.28548 0.78165
 H1116 H 0.55075 0.26146 0.76094
 H1117 H 0.54530 0.23094 0.80212
 H1118 H 0.55022 0.27026 0.80075
 H1119 H 0.45917 0.24007 0.68360
 H1120 H 0.43691 0.26677 0.70806
 H1121 H 0.50893 0.18737 0.78670
 H1122 H 0.48383 0.21210 0.80991
 H1123 H 0.51450 0.29162 0.68509
 H1124 H 0.48838 0.31491 0.70949
 H1125 H 0.43459 0.21441 0.75948
 H1126 H 0.45664 0.19007 0.73265
 H1127 H 0.53808 0.31337 0.76074
 H1128 H 0.56340 0.28904 0.73545
 O1129 O 0.31393 0.75014 0.46386
 O1130 O 0.30467 0.70873 0.46535
 O1131 O 0.25217 0.77924 0.43058
 O1132 O 0.21310 0.77967 0.43730
 O1133 O 0.28168 0.81183 0.49310
 O1134 O 0.27948 0.80278 0.53468
 O1135 O 0.18845 0.71863 0.49562
 O1136 O 0.19527 0.72330 0.45414
 O1137 O 0.24831 0.68682 0.52388
 O1138 O 0.29151 0.69511 0.52207
 O1139 O 0.22036 0.74665 0.55610
 O1140 O 0.22262 0.78978 0.54779
 O1141 O 0.18887 0.74675 0.52452
 O1142 O 0.19747 0.78999 0.52231
 O1143 O 0.24861 0.71806 0.55600
 O1144 O 0.29174 0.72008 0.54748
 O1145 O 0.21963 0.68721 0.49542
 O1146 O 0.22253 0.69537 0.45265
 O1147 O 0.31432 0.77821 0.49287
 O1148 O 0.30537 0.77608 0.53473
 O1149 O 0.25313 0.81232 0.46446
 O1150 O 0.21073 0.80348 0.46813
 O1151 O 0.28055 0.75068 0.43052
 O1152 O 0.27827 0.70910 0.43908
 Zr1153 Zr 0.27930 0.73618 0.46498
 O1154 O 0.25829 0.71342 0.48583
 Zr1155 Zr 0.23817 0.77814 0.46529
 O1156 O 0.21513 0.75701 0.48594
 Zr1157 Zr 0.27987 0.77733 0.50716
 O1158 O 0.25868 0.75647 0.52983
 Zr1159 Zr 0.22229 0.72106 0.48015
 O1160 O 0.24327 0.74209 0.45710
 Zr1161 Zr 0.26403 0.72055 0.52204
 O1162 O 0.28735 0.74135 0.50121
 Zr1163 Zr 0.22269 0.76233 0.52220
 O1164 O 0.24393 0.78551 0.50156
 O1165 O 0.27398 0.77201 0.47108
 O1166 O 0.22802 0.72638 0.51638
 C1167 C 0.32427 0.76632 0.47615
 C1168 C 0.26865 0.76723 0.42042
 C1169 C 0.26978 0.82216 0.47657
 C1170 C 0.17883 0.72986 0.51295
 C1171 C 0.23116 0.67718 0.51232
 C1172 C 0.23168 0.72950 0.56591
 H1173 H 0.26213 0.69684 0.48189
 H1174 H 0.26255 0.76019 0.54657
 H1175 H 0.28422 0.78206 0.46095
 H1176 H 0.19846 0.76072 0.48202
 H1177 H 0.20240 0.73094 0.43997
 H1178 H 0.19910 0.77037 0.44233
 H1179 H 0.28976 0.73399 0.55795
 H1180 H 0.31303 0.76038 0.53368
 H1181 H 0.23670 0.68531 0.45470
 H1182 H 0.26253 0.71008 0.43135
 H1183 H 0.23671 0.78770 0.55806
 H1184 H 0.26373 0.81043 0.53406
 H1185 H 0.31227 0.70915 0.48124
 H1186 H 0.28939 0.68494 0.50792
 H1187 H 0.21321 0.81198 0.48333
 H1188 H 0.18693 0.78776 0.50841
 O1189 O 0.31222 0.25326 0.96995
 O1190 O 0.30401 0.21165 0.97222
 O1191 O 0.25032 0.28006 0.93510
 O1192 O 0.21124 0.28003 0.94115
 O1193 O 0.27797 0.31460 0.99756
 O1194 O 0.27537 0.30610 1.03931
 O1195 O 0.18683 0.21967 0.99974
 O1196 O 0.19460 0.22357 0.95834
 O1197 O 0.24655 0.18936 1.03006
 O1198 O 0.28969 0.19840 1.02882
 O1199 O 0.21709 0.24946 1.06068
 O1200 O 0.21842 0.29217 1.05155
 O1201 O 0.18601 0.24827 1.02815
 O1202 O 0.19399 0.29158 1.02549
 O1203 O 0.24593 0.22148 1.06157
 O1204 O 0.28905 0.22379 1.05371
 O1205 O 0.21862 0.18870 1.00087
 O1206 O 0.22217 0.19604 0.95820
 O1207 O 0.31148 0.28185 0.99843
 O1208 O 0.30187 0.28002 1.04016
 O1209 O 0.25011 0.31388 0.96825
 O1210 O 0.20785 0.30423 0.97147
 O1211 O 0.27943 0.25227 0.93605
 O1212 O 0.27806 0.21081 0.94543
 Zr1213 Zr 0.27794 0.23841 0.97078
 O1214 O 0.25699 0.21555 0.99160
 Zr1215 Zr 0.23586 0.27943 0.96957
 O1216 O 0.21291 0.25820 0.99013
 Zr1217 Zr 0.27681 0.28028 1.01217
 O1218 O 0.25562 0.25934 1.03478
 Zr1219 Zr 0.22097 0.22233 0.98510
 O1220 O 0.24194 0.24339 0.96210
 Zr1221 Zr 0.26179 0.22337 1.02779
 O1222 O 0.28511 0.24435 1.00707
 Zr1223 Zr 0.21965 0.26433 1.02643
 O1224 O 0.24081 0.28759 1.00579
 O1225 O 0.27169 0.27421 0.97610
 O1226 O 0.22578 0.22836 1.02137
 C1227 C 0.32196 0.26998 0.98206
 C1228 C 0.26724 0.26828 0.92543
 C1229 C 0.26621 0.32435 0.98056
 C1230 C 0.17653 0.23112 1.01650
 C1231 C 0.22988 0.17917 1.01825
 C1232 C 0.22873 0.23292 1.07107
 H1233 H 0.26123 0.19898 0.98805
 H1234 H 0.25913 0.26346 1.05150
 H1235 H 0.28186 0.28432 0.96594
 H1236 H 0.19627 0.26152 0.98580
 H1237 H 0.20196 0.23106 0.94421
 H1238 H 0.19740 0.27042 0.94602
 H1239 H 0.28684 0.23802 1.06368
 H1240 H 0.30989 0.26448 1.03949
 H1241 H 0.23667 0.18652 0.96052
 H1242 H 0.26245 0.21125 0.93738
 H1243 H 0.23264 0.29090 1.06178
 H1244 H 0.25956 0.31356 1.03815
 H1245 H 0.31120 0.21252 0.98827
 H1246 H 0.28806 0.18799 1.01478
 H1247 H 0.20998 0.31319 0.98645
 H1248 H 0.18378 0.28893 1.01142
 C1249 C 0.29552 0.36145 0.79485
 C1250 C 0.27359 0.36993 0.79836
 C1251 C 0.26587 0.39374 0.79069
 C1252 C 0.27642 0.40632 0.77343
 H1253 H 0.26076 0.35973 0.80832
 H1254 H 0.25070 0.40106 0.79986
 H1255 H 0.30827 0.37178 0.78490
 H1256 H 0.29079 0.39880 0.76325
 C1257 C 0.29625 -0.14328 0.28874
 C1258 C 0.30356 -0.13200 0.26890
 C1259 C 0.29475 -0.10862 0.26091
 C1260 C 0.27629 -0.09710 0.27040
 H1261 H 0.31746 -0.13917 0.25795
 H1262 H 0.30482 -0.10023 0.24681
 H1263 H 0.28186 -0.13572 0.29880
 H1264 H 0.26554 -0.10511 0.28411
 C1265 C 0.80253 0.85631 0.79347
 C1266 C 0.78301 0.86881 0.79843
 C1267 C 0.77812 0.89121 0.78584
 C1268 C 0.75957 0.90440 0.79204
 H1269 H 0.77077 0.86337 0.81216
 H1270 H 0.79037 0.89749 0.77237
 H1271 H 0.81361 0.86288 0.77910
 H1272 H 0.74775 0.89807 0.80588
 C1273 C 0.45378 0.89025 0.29543
 C1274 C 0.47580 0.88194 0.29886
 C1275 C 0.48407 0.85852 0.29063
 C1276 C 0.47365 0.84587 0.27334
 H1277 H 0.48844 0.89207 0.30915
 H1278 H 0.49969 0.85159 0.29939
 H1279 H 0.44122 0.88017 0.28499
 H1280 H 0.45874 0.85296 0.26359
 C1281 C -0.04776 0.89088 0.79503
 C1282 C -0.05871 0.87536 0.78059
 C1283 C -0.04783 0.85361 0.77069
 C1284 C -0.02713 0.84415 0.77772
 H1285 H -0.07706 0.87803 0.77582
 H1286 H -0.05851 0.84418 0.75775
 H1287 H -0.02952 0.88791 0.80006
 H1288 H -0.01655 0.85261 0.79132
 C1289 C -0.04335 -0.14380 -0.04566
 C1290 C -0.02425 -0.13176 -0.05355
 C1291 C -0.01592 -0.10872 -0.04405
 C1292 C -0.02563 -0.09692 -0.02578
 H1293 H -0.01398 -0.13815 -0.06834
 H1294 H -0.00117 -0.10078 -0.05350
 H1295 H -0.05282 -0.13692 -0.03049
 H1296 H -0.04025 -0.10429 -0.01583
 C1297 C -0.04581 0.35909 0.45371
 C1298 C -0.04982 0.36817 0.47544
 C1299 C -0.04206 0.39210 0.48301
 C1300 C -0.02421 0.40420 0.47292
 H1301 H -0.06008 0.35832 0.48831
 H1302 H -0.05154 0.39983 0.49782
 H1303 H -0.03563 0.36921 0.44095
 H1304 H -0.01386 0.39628 0.45885
 C1305 C 0.45789 -0.14353 0.45563
 C1306 C 0.44937 -0.13130 0.47432
 C1307 C 0.45861 -0.10814 0.48262
 C1308 C 0.47639 -0.09597 0.47246
 H1309 H 0.43444 -0.13774 0.48438
 H1310 H 0.44938 -0.10043 0.49760
 H1311 H 0.47343 -0.13683 0.44666
 H1312 H 0.48602 -0.10304 0.45750
 C1313 C 0.45312 0.35767 -0.04448
 C1314 C 0.47294 0.36927 -0.05112
 C1315 C 0.48074 0.39244 -0.04159
 C1316 C 0.47047 0.40416 -0.02359
 H1317 H 0.48431 0.36236 -0.06483
 H1318 H 0.49570 0.40044 -0.05064
 H1319 H 0.44265 0.36491 -0.03017
 H1320 H 0.45580 0.39659 -0.01387
 C1321 C 0.79502 0.39191 0.45561
 C1322 C 0.79817 0.38356 0.47779
 C1323 C 0.79051 0.35976 0.48570
 C1324 C 0.77365 0.34691 0.47490
 H1325 H 0.80780 0.39393 0.49075
 H1326 H 0.79936 0.35268 0.50127
 H1327 H 0.78531 0.38148 0.44273
 H1328 H 0.76381 0.35417 0.46008
 C1329 C 0.79726 0.89070 -0.04170
 C1330 C 0.77496 0.88271 -0.04409
 C1331 C 0.76729 0.85881 -0.03661
 C1332 C 0.77833 0.84596 -0.01990
 H1333 H 0.76180 0.89330 -0.05311
 H1334 H 0.75182 0.85164 -0.04550
 H1335 H 0.81031 0.87986 -0.03275
 H1336 H 0.79298 0.85337 -0.00993
 C1337 C 0.79603 0.29258 0.35826
 C1338 C 0.77419 0.29671 0.36674
 C1339 C 0.76589 0.28870 0.39041
 C1340 C 0.77583 0.27108 0.40293
 H1341 H 0.76196 0.30753 0.35671
 H1342 H 0.75097 0.29817 0.39783
 H1343 H 0.80820 0.28176 0.36838
 H1344 H 0.79005 0.26072 0.39541
 C1345 C 0.79839 0.79642 -0.14111
 C1346 C 0.77844 0.80370 -0.13020
 C1347 C 0.76998 0.79441 -0.10696
 C1348 C 0.77751 0.77431 -0.09668
 H1349 H 0.76808 0.81807 -0.13730
 H1350 H 0.75710 0.80523 -0.09777
 H1351 H 0.80833 0.78228 -0.13287
 H1352 H 0.78983 0.76281 -0.10571
 C1353 C 0.29371 0.45752 0.89259
 C1354 C 0.27172 0.45404 0.88417
 C1355 C 0.26381 0.46246 0.86053
 C1356 C 0.27404 0.48038 0.84863
 H1357 H 0.25917 0.44348 0.89412
 H1358 H 0.24901 0.45308 0.85261
 H1359 H 0.30618 0.46794 0.88238
 H1360 H 0.28803 0.49071 0.85676
 C1361 C 0.29772 -0.04501 0.38995
 C1362 C 0.27769 -0.05195 0.37883
 C1363 C 0.26937 -0.04267 0.35560
 C1364 C 0.27835 -0.02371 0.34434
 H1365 H 0.26687 -0.06603 0.38589
 H1366 H 0.25536 -0.05274 0.34712
 H1367 H 0.30784 -0.03066 0.38227
 H1368 H 0.29193 -0.01295 0.35252
 C1369 C -0.04845 -0.04885 -0.14212
 C1370 C -0.05560 -0.02956 -0.13001
 C1371 C -0.04508 -0.02092 -0.10741
 C1372 C -0.02584 -0.02987 -0.09658
 H1373 H -0.07045 -0.01923 -0.13606
 H1374 H -0.05443 -0.00645 -0.09901
 H1375 H -0.03320 -0.05841 -0.13562
 H1376 H -0.01595 -0.04417 -0.10450
 C1377 C -0.04430 0.45574 0.35534
 C1378 C -0.02245 0.45161 0.36386
 C1379 C -0.01413 0.45994 0.38739
 C1380 C -0.02384 0.47805 0.39927
 H1381 H -0.01031 0.44053 0.35407
 H1382 H 0.00050 0.45033 0.39527
 H1383 H -0.05638 0.46674 0.36530
 H1384 H -0.03771 0.48854 0.39121
 C1385 C 0.45472 -0.04694 0.35939
 C1386 C 0.47674 -0.05074 0.36767
 C1387 C 0.48523 -0.04256 0.39120
 C1388 C 0.47549 -0.02465 0.40331
 H1389 H 0.48910 -0.06122 0.35749
 H1390 H 0.50027 -0.05185 0.39867
 H1391 H 0.44244 -0.03647 0.36968
 H1392 H 0.46121 -0.01446 0.39559
 C1393 C 0.45351 0.45514 -0.14207
 C1394 C 0.47218 0.44677 -0.12965
 C1395 C 0.48013 0.45574 -0.10615
 C1396 C 0.47078 0.47426 -0.09460
 H1397 H 0.48232 0.43197 -0.13605
 H1398 H 0.49431 0.44587 -0.09777
 H1399 H 0.44395 0.47008 -0.13501
 H1400 H 0.45675 0.48462 -0.10244
 C1401 C 0.46029 0.79393 0.39408
 C1402 C 0.47357 0.80620 0.37852
 C1403 C 0.48278 0.79664 0.35585
 C1404 C 0.47433 0.77722 0.34502
 H1405 H 0.47775 0.82457 0.38193
 H1406 H 0.49611 0.80729 0.34698
 H1407 H 0.45596 0.77563 0.39054
 H1408 H 0.46019 0.76698 0.35295
 C1409 C -0.04434 0.79591 0.88995
 C1410 C -0.04837 0.77401 0.88155
 C1411 C -0.04038 0.76577 0.85790
 C1412 C -0.02243 0.77555 0.84571
 H1413 H -0.05890 0.76160 0.89169
 H1414 H -0.04985 0.75083 0.85040
 H1415 H -0.03387 0.80822 0.87960
 H1416 H -0.01204 0.78970 0.85342
 C1417 C 0.36016 0.79527 0.29198
 C1418 C 0.36882 0.79778 0.26986
 C1419 C 0.39270 0.78989 0.26256
 C1420 C 0.40536 0.77340 0.27407
 H1421 H 0.35871 0.80708 0.25646
 H1422 H 0.39998 0.79819 0.24679
 H1423 H 0.37033 0.78588 0.30527
 H1424 H 0.39790 0.76399 0.28907
 C1425 C -0.13626 0.79625 0.80037
 C1426 C -0.12864 0.77406 0.80398
 C1427 C -0.10549 0.76552 0.79529
 C1428 C -0.09442 0.77471 0.77629
 H1429 H -0.13908 0.76174 0.81434
 H1430 H -0.09752 0.75095 0.80493
 H1431 H -0.12539 0.80847 0.79030
 H1432 H -0.10280 0.78840 0.76578
 C1433 C 0.89598 0.29178 0.45908
 C1434 C 0.88132 0.27666 0.44787
 C1435 C 0.85880 0.26732 0.45770
 C1436 C 0.84781 0.27576 0.47708
 H1437 H 0.88517 0.27115 0.42988
 H1438 H 0.85006 0.25388 0.44711
 H1439 H 0.89190 0.29763 0.47690
 H1440 H 0.85566 0.28983 0.48745
 C1441 C 0.89384 0.79481 -0.04635
 C1442 C 0.88647 0.79733 -0.02379
 C1443 C 0.86319 0.78883 -0.01518
 C1444 C 0.85087 0.77121 -0.02538
 H1445 H 0.89710 0.80712 -0.01115
 H1446 H 0.85599 0.79775 0.00024
 H1447 H 0.88294 0.78514 -0.05887
 H1448 H 0.85837 0.76131 -0.04001
 C1449 C -0.14012 -0.04647 -0.04405
 C1450 C -0.13063 -0.05076 -0.02254
 C1451 C -0.10669 -0.04287 -0.01519
 C1452 C -0.09451 -0.02543 -0.02585
 H1453 H -0.14018 -0.06138 -0.00972
 H1454 H -0.09895 -0.05200 -0.00012
 H1455 H -0.13052 -0.03579 -0.05680
 H1456 H -0.10235 -0.01535 -0.04019
 C1457 C -0.14472 0.45744 0.45691
 C1458 C -0.13252 0.45024 0.47622
 C1459 C -0.10922 0.45982 0.48375
 C1460 C -0.09743 0.47751 0.47300
 H1461 H -0.13896 0.43598 0.48723
 H1462 H -0.10098 0.45078 0.49862
 H1463 H -0.13807 0.47240 0.44697
 H1464 H -0.10512 0.48711 0.45829
 C1465 C 0.36225 -0.04742 0.44988
 C1466 C 0.37046 -0.02530 0.44664
 C1467 C 0.39390 -0.01704 0.45517
 C1468 C 0.40586 -0.02709 0.47317
 H1469 H 0.36027 -0.01264 0.43652
 H1470 H 0.40134 -0.00175 0.44623
 H1471 H 0.37272 -0.05996 0.45991
 H1472 H 0.39814 -0.04160 0.48307
 C1473 C 0.35472 0.45666 -0.04391
 C1474 C 0.36646 0.47611 -0.05136
 C1475 C 0.38981 0.48396 -0.04220
 C1476 C 0.40132 0.47427 -0.02373
 H1477 H 0.35972 0.48690 -0.06564
 H1478 H 0.39810 0.49833 -0.05191
 H1479 H 0.36209 0.44653 -0.02939
 H1480 H 0.39346 0.46020 -0.01337
 C1481 C 0.39203 0.45768 0.79625
 C1482 C 0.38399 0.45506 0.77389
 C1483 C 0.36061 0.46358 0.76558
 C1484 C 0.34823 0.48090 0.77608
 H1485 H 0.39413 0.44502 0.76112
 H1486 H 0.35333 0.45483 0.75006
 H1487 H 0.38181 0.46777 0.80893
 H1488 H 0.35572 0.49062 0.79086
 C1489 C 0.39346 -0.04605 0.29460
 C1490 C 0.38552 -0.02394 0.29821
 C1491 C 0.36236 -0.01522 0.28946
 C1492 C 0.35049 -0.02470 0.27109
 H1493 H 0.39552 -0.01180 0.30917
 H1494 H 0.35482 -0.00035 0.29892
 H1495 H 0.38322 -0.05809 0.28371
 H1496 H 0.35827 -0.03882 0.26077
 C1497 C 0.10501 0.54180 0.70749
 C1498 C 0.12047 0.52836 0.69543
 C1499 C 0.14328 0.51978 0.70505
 C1500 C 0.15429 0.52908 0.72404
 H1501 H 0.11692 0.52364 0.67713
 H1502 H 0.15211 0.50625 0.69473
 H1503 H 0.10868 0.54670 0.72572
 H1504 H 0.14634 0.54340 0.73392
 C1505 C 0.11238 0.04871 0.20044
 C1506 C 0.12126 0.05232 0.22235
 C1507 C 0.14488 0.04406 0.23024
 C1508 C 0.15687 0.02634 0.21999
 H1509 H 0.11143 0.06259 0.23517
 H1510 H 0.15247 0.05303 0.24549
 H1511 H 0.12234 0.03842 0.18771
 H1512 H 0.14908 0.01646 0.20547
 C1513 C 0.64378 0.70325 0.20534
 C1514 C 0.63572 0.70012 0.22761
 C1515 C 0.61246 0.70884 0.23597
 C1516 C 0.60062 0.72682 0.22587
 H1517 H 0.64568 0.68955 0.24014
 H1518 H 0.60478 0.69966 0.25104
 H1519 H 0.63359 0.71374 0.19292
 H1520 H 0.60854 0.73690 0.21156
 C1521 C 0.14673 0.71046 0.70473
 C1522 C 0.13161 0.72484 0.69322
 C1523 C 0.10903 0.73377 0.70308
 C1524 C 0.09833 0.72509 0.72254
 H1525 H 0.13512 0.72995 0.67502
 H1526 H 0.10000 0.74699 0.69247
 H1527 H 0.14305 0.70505 0.72280
 H1528 H 0.10646 0.71115 0.73286
 C1529 C 0.61053 0.20153 0.54761
 C1530 C 0.61889 0.19726 0.52566
 C1531 C 0.64241 0.20536 0.51734
 C1532 C 0.65406 0.22384 0.52672
 H1533 H 0.60883 0.18654 0.51333
 H1534 H 0.65021 0.19562 0.50275
 H1535 H 0.62091 0.21209 0.55984
 H1536 H 0.64595 0.23449 0.54044
 C1537 C 0.61219 0.70159 0.04735
 C1538 C 0.62086 0.69802 0.02540
 C1539 C 0.64458 0.70604 0.01752
 C1540 C 0.65712 0.72325 0.02815
 H1541 H 0.61077 0.68794 0.01255
 H1542 H 0.65182 0.69728 0.00203
 H1543 H 0.62239 0.71167 0.06012
 H1544 H 0.64975 0.73298 0.04294
 C1545 C 0.14783 0.04273 0.03882
 C1546 C 0.13559 0.05107 0.02000
 C1547 C 0.11208 0.04209 0.01221
 C1548 C 0.10072 0.02337 0.02160
 H1549 H 0.14203 0.06596 0.00987
 H1550 H 0.10340 0.05229 -0.00160
 H1551 H 0.14080 0.02764 0.04829
 H1552 H 0.10885 0.01264 0.03523
 C1553 C 0.13981 0.54957 0.54625
 C1554 C 0.13127 0.52774 0.55034
 C1555 C 0.10798 0.51934 0.54160
 C1556 C 0.09634 0.52892 0.52312
 H1557 H 0.14102 0.51553 0.56143
 H1558 H 0.10025 0.50446 0.55099
 H1559 H 0.12984 0.56171 0.53525
 H1560 H 0.10426 0.54305 0.51283
 C1561 C 0.64315 0.04657 0.54866
 C1562 C 0.63245 0.05386 0.52846
 C1563 C 0.60953 0.04457 0.51942
 C1564 C 0.59871 0.02483 0.52717
 H1565 H 0.63959 0.06826 0.51810
 H1566 H 0.60097 0.05517 0.50585
 H1567 H 0.63515 0.03216 0.55845
 H1568 H 0.60704 0.01358 0.54028
 C1569 C 0.64466 0.54040 0.04092
 C1570 C 0.62961 0.55220 0.02667
 C1571 C 0.60661 0.54294 0.01802
 C1572 C 0.59539 0.52399 0.02703
 H1573 H 0.63361 0.57016 0.02138
 H1574 H 0.59779 0.55359 0.00465
 H1575 H 0.64050 0.52256 0.04651
 H1576 H 0.60334 0.51365 0.04111
 C1577 C 0.04819 0.04653 0.14159
 C1578 C 0.02827 0.05321 0.13016
 C1579 C 0.02016 0.04365 0.10695
 C1580 C 0.02919 0.02466 0.09586
 H1581 H 0.01738 0.06728 0.13697
 H1582 H 0.00608 0.05350 0.09837
 H1583 H 0.05853 0.03235 0.13402
 H1584 H 0.04287 0.01413 0.10413
 C1585 C 0.04261 0.54326 0.64300
 C1586 C 0.05460 0.52946 0.62772
 C1587 C 0.04535 0.52073 0.60469
 C1588 C 0.02620 0.52936 0.59355
 H1589 H 0.07262 0.52436 0.63170
 H1590 H 0.05598 0.50741 0.59591
 H1591 H 0.02474 0.54875 0.63887
 H1592 H 0.01591 0.54340 0.60145
 C1593 C 0.54083 0.04294 0.64646
 C1594 C 0.52161 0.04981 0.63404
 C1595 C 0.51437 0.04013 0.61066
 C1596 C 0.52550 0.02283 0.59877
 H1597 H 0.51052 0.06400 0.64026
 H1598 H 0.49941 0.04888 0.60238
 H1599 H 0.55092 0.02807 0.63998
 H1600 H 0.54031 0.01350 0.60649
 C1601 C 0.54383 0.54424 0.14424
 C1602 C 0.54685 0.52210 0.13612
 C1603 C 0.53883 0.51411 0.11238
 C1604 C 0.52150 0.52459 0.09993
 H1605 H 0.55672 0.50936 0.14646
 H1606 H 0.54788 0.49895 0.10494
 H1607 H 0.53403 0.55688 0.13367
 H1608 H 0.51147 0.53895 0.10762
 C1609 C 0.20236 0.55010 0.60979
 C1610 C 0.22458 0.55365 0.61768
 C1611 C 0.23310 0.54580 0.64128
 C1612 C 0.22337 0.52796 0.65360
 H1613 H 0.23708 0.56365 0.60712
 H1614 H 0.24823 0.55516 0.64855
 H1615 H 0.18997 0.54015 0.62056
 H1616 H 0.20907 0.51764 0.64601
 C1617 C 0.21023 0.04040 0.10071
 C1618 C 0.19768 0.02769 0.11651
 C1619 C 0.20714 0.01871 0.13935
 C1620 C 0.22640 0.02745 0.15029
 H1621 H 0.17921 0.02380 0.11318
 H1622 H 0.19650 0.00542 0.14828
 H1623 H 0.22867 0.04435 0.10421
 H1624 H 0.23655 0.04162 0.14229
 C1625 C 0.70473 0.20595 0.64526
 C1626 C 0.71922 0.19468 0.63009
 C1627 C 0.72902 0.20484 0.60791
 C1628 C 0.72130 0.22467 0.59731
 H1629 H 0.72402 0.17647 0.63337
 H1630 H 0.74232 0.19421 0.59910
 H1631 H 0.69940 0.22397 0.64170
 H1632 H 0.70728 0.23504 0.60515
 C1633 C 0.70589 0.70056 0.14182
 C1634 C 0.70305 0.72272 0.13365
 C1635 C 0.71141 0.73088 0.11007
 C1636 C 0.72861 0.72033 0.09754
 H1637 H 0.69324 0.73549 0.14397
 H1638 H 0.70286 0.74650 0.10294
 H1639 H 0.71569 0.68789 0.13134
 H1640 H 0.73818 0.70546 0.10489
 C1641 C 0.54868 0.70372 0.10810
 C1642 C 0.52643 0.70076 0.11607
 C1643 C 0.51824 0.70897 0.13962
 C1644 C 0.52846 0.72660 0.15187
 H1645 H 0.51374 0.69069 0.10580
 H1646 H 0.50309 0.69980 0.14709
 H1647 H 0.56125 0.71375 0.11860
 H1648 H 0.54276 0.73678 0.14411
 C1649 C 0.04234 0.71035 0.60166
 C1650 C 0.05391 0.72493 0.61658
 C1651 C 0.04434 0.73391 0.63937
 C1652 C 0.02513 0.72521 0.65043
 H1653 H 0.07194 0.73016 0.61273
 H1654 H 0.05501 0.74721 0.64824
 H1655 H 0.02444 0.70484 0.60567
 H1656 H 0.01474 0.71122 0.64246
 C1657 C 0.54649 0.60718 0.20682
 C1658 C 0.52471 0.61597 0.20319
 C1659 C 0.51731 0.63989 0.21074
 C1660 C 0.52814 0.65256 0.22778
 H1661 H 0.51179 0.60597 0.19315
 H1662 H 0.50213 0.64727 0.20158
 H1663 H 0.55933 0.61729 0.21689
 H1664 H 0.54254 0.64504 0.23799
 C1665 C 0.04530 0.60727 0.70357
 C1666 C 0.04920 0.61597 0.72549
 C1667 C 0.04171 0.63982 0.73328
 C1668 C 0.02405 0.65211 0.72322
 H1669 H 0.05934 0.60593 0.73829
 H1670 H 0.05131 0.64737 0.74816
 H1671 H 0.03519 0.61754 0.69088
 H1672 H 0.01351 0.64433 0.70916
 C1673 C 0.04640 0.14137 0.04342
 C1674 C 0.02410 0.13328 0.04544
 C1675 C 0.01646 0.10959 0.03728
 C1676 C 0.02757 0.09704 0.02042
 H1677 H 0.01092 0.14359 0.05470
 H1678 H 0.00091 0.10226 0.04588
 H1679 H 0.05945 0.13088 0.03414
 H1680 H 0.04231 0.10461 0.01072
 C1681 C 0.04665 0.64318 0.54348
 C1682 C 0.02488 0.63435 0.54754
 C1683 C 0.01699 0.61053 0.53982
 C1684 C 0.02705 0.59825 0.52212
 H1685 H 0.01217 0.64438 0.55771
 H1686 H 0.00189 0.60310 0.54910
 H1687 H 0.05926 0.63293 0.53337
 H1688 H 0.04140 0.60588 0.51191
 C1689 C 0.54645 0.14015 0.54783
 C1690 C 0.52425 0.13231 0.55148
 C1691 C 0.51577 0.10891 0.54327
 C1692 C 0.52524 0.09730 0.52482
 H1693 H 0.51194 0.14256 0.56193
 H1694 H 0.50125 0.10103 0.55310
 H1695 H 0.55864 0.12948 0.53762
 H1696 H 0.53892 0.10550 0.51413
 C1697 C 0.54651 0.64043 0.04599
 C1698 C 0.54947 0.63232 0.02376
 C1699 C 0.54050 0.60909 0.01562
 C1700 C 0.52233 0.59754 0.02576
 H1701 H 0.56006 0.64221 0.01116
 H1702 H 0.54966 0.60121 0.00068
 H1703 H 0.53601 0.63034 0.05852
 H1704 H 0.51223 0.60569 0.03988
 C1705 C 0.70451 0.10841 0.55098
 C1706 C 0.72321 0.12066 0.55953
 C1707 C 0.73174 0.14368 0.54986
 C1708 C 0.72379 0.15407 0.52987
 H1709 H 0.73281 0.11454 0.57494
 H1710 H 0.74512 0.15266 0.56036
 H1711 H 0.69551 0.11529 0.53550
 H1712 H 0.71065 0.14555 0.51882
 C1713 C 0.70845 0.60349 0.04162
 C1714 C 0.69683 0.61888 0.02760
 C1715 C 0.70658 0.64163 0.01882
 C1716 C 0.72626 0.65209 0.02719
 H1717 H 0.67871 0.61530 0.02247
 H1718 H 0.69591 0.65080 0.00571
 H1719 H 0.72641 0.60722 0.04718
 H1720 H 0.73671 0.64378 0.04097
 C1721 C 0.20412 0.64413 0.70134
 C1722 C 0.22568 0.63489 0.69743
 C1723 C 0.23334 0.61130 0.70598
 C1724 C 0.22296 0.59925 0.72375
 H1725 H 0.23842 0.64444 0.68675
 H1726 H 0.24860 0.60378 0.69713
 H1727 H 0.19146 0.63452 0.71210
 H1728 H 0.20837 0.60688 0.73353
 C1729 C 0.21012 0.14563 0.20707
 C1730 C 0.19851 0.13024 0.22109
 C1731 C 0.20814 0.10738 0.22943
 C1732 C 0.22705 0.09649 0.22003
 H1733 H 0.18055 0.13396 0.22658
 H1734 H 0.19793 0.09847 0.24310
 H1735 H 0.22794 0.14179 0.20125
 H1736 H 0.23693 0.10452 0.20566
 C1737 C 0.70263 1.14132 0.70640
 C1738 C 0.72222 1.12978 0.69904
 C1739 C 0.73004 1.10659 0.70854
 C1740 C 0.72304 1.09750 0.72942
 H1741 H 0.73248 1.13607 0.68415
 H1742 H 0.74189 1.09647 0.69735
 H1743 H 0.69223 1.13345 0.72050
 H1744 H 0.71172 1.10753 0.74115
 C1745 C 0.70440 0.63851 0.20549
 C1746 C 0.72618 0.62979 0.20158
 C1747 C 0.73399 0.60605 0.20944
 C1748 C 0.72375 0.59368 0.22705
 H1749 H 0.73879 0.63970 0.19106
 H1750 H 0.74889 0.59852 0.19999
 H1751 H 0.69188 0.62849 0.21603
 H1752 H 0.70960 0.60137 0.23742
 C1753 C 0.54034 0.10955 0.70404
 C1754 C 0.54348 0.11836 0.72599
 C1755 C 0.53597 0.14228 0.73332
 C1756 C 0.51981 0.15534 0.72176
 H1757 H 0.55299 0.10825 0.73924
 H1758 H 0.54435 0.14928 0.74917
 H1759 H 0.53067 0.11959 0.69085
 H1760 H 0.51032 0.14825 0.70663
 C1761 C 1.04709 0.10989 0.20302
 C1762 C 1.05108 0.11811 0.22510
 C1763 C 1.04268 0.14137 0.23371
 C1764 C 1.02433 0.15319 0.22429
 H1765 H 1.06216 0.10825 0.23726
 H1766 H 1.05243 0.14906 0.24842
 H1767 H 1.03602 0.11989 0.19095
 H1768 H 1.01374 0.14528 0.21035
 C1769 C 0.20265 0.61075 0.54367
 C1770 C 0.22514 0.61821 0.54603
 C1771 C 0.23385 0.64114 0.53687
 C1772 C 0.22350 0.65321 0.51914
 H1773 H 0.23768 0.60792 0.55623
 H1774 H 0.24952 0.64830 0.54540
 H1775 H 0.19016 0.62111 0.53345
 H1776 H 0.20861 0.64576 0.50959
 C1777 C 0.21025 0.10514 1.03981
 C1778 C 0.22285 0.12062 1.05287
 C1779 C 0.23140 0.14385 1.04413
 C1780 C 0.22253 0.15506 1.02506
 H1781 H 0.22701 0.11665 1.07122
 H1782 H 0.24457 0.15268 1.05502
 H1783 H 0.20603 0.10923 1.02149
 H1784 H 0.20850 0.14710 1.01465
 C1785 C 0.20831 0.70823 0.63946
 C1786 C 0.19640 0.72213 0.62418
 C1787 C 0.20568 0.73073 0.60111
 C1788 C 0.22471 0.72185 0.59000
 H1789 H 0.17845 0.72743 0.62820
 H1790 H 0.19522 0.74419 0.59229
 H1791 H 0.22611 0.70257 0.63532
 H1792 H 0.23483 0.70766 0.59792
 C1793 C 0.20392 0.20574 1.14171
 C1794 C 0.22548 0.20217 1.13230
 C1795 C 0.23262 0.20996 1.10820
 C1796 C 0.22145 0.22666 1.09546
 H1797 H 0.23864 0.19232 1.14213
 H1798 H 0.24818 0.20148 1.10088
 H1799 H 0.19083 0.21573 1.13188
 H1800 H 0.20657 0.23614 1.10285
 C1801 C 0.70334 0.54266 0.10674
 C1802 C 0.72507 0.54615 0.11590
 C1803 C 0.73253 0.53797 0.13981
 C1804 C 0.72196 0.52046 0.15203
 H1805 H 0.73802 0.55639 0.10614
 H1806 H 0.74771 0.54693 0.14748
 H1807 H 0.69048 0.53241 0.11665
 H1808 H 0.70752 0.51054 0.14420
 C1809 C 0.70029 1.04546 0.61435
 C1810 C 0.72232 1.04742 0.62322
 C1811 C 0.72962 1.03861 0.64697
 C1812 C 0.71814 1.02186 0.65949
 H1813 H 0.73570 1.05703 0.61338
 H1814 H 0.74540 1.04668 0.65442
 H1815 H 0.68700 1.03571 0.62419
 H1816 H 0.70297 1.01283 0.65195
 C1817 C 0.54689 0.20403 0.60950
 C1818 C 0.55108 0.22611 0.61731
 C1819 C 0.54253 0.23506 0.64047
 C1820 C 0.52371 0.22613 0.65195
 H1821 H 0.56218 0.23802 0.60718
 H1822 H 0.55235 0.24962 0.64825
 H1823 H 0.53594 0.19223 0.61995
 H1824 H 0.51301 0.21242 0.64382
 C1825 C 1.04447 0.20502 0.10567
 C1826 C 1.02438 0.19827 0.11676
 C1827 C 1.01639 0.20747 0.14010
 C1828 C 1.02550 0.22645 0.15121
 H1829 H 1.01328 0.18448 0.10955
 H1830 H 1.00251 0.19738 0.14876
 H1831 H 1.05482 0.21912 0.11349
 H1832 H 1.03891 0.23726 0.14282
 C1833 C 0.63792 0.20072 0.70252
 C1834 C 0.62829 0.19620 0.72394
 C1835 C 0.60468 0.20477 0.73162
 C1836 C 0.59342 0.22337 0.72200
 H1837 H 0.63753 0.18511 0.73655
 H1838 H 0.59655 0.19539 0.74633
 H1839 H 0.62846 0.21179 0.69002
 H1840 H 0.60174 0.23360 0.70802
 C1841 C 1.14734 0.20929 0.20909
 C1842 C 1.13242 0.19765 0.22362
 C1843 C 1.10968 0.20711 0.23252
 C1844 C 1.09855 0.22605 0.22348
 H1845 H 1.13628 0.17967 0.22890
 H1846 H 1.10092 0.19661 0.24607
 H1847 H 1.14334 0.22715 0.20352
 H1848 H 1.10642 0.23625 0.20925
 C1849 C 0.10627 0.70779 0.53848
 C1850 C 0.12157 0.72221 0.54974
 C1851 C 0.14434 0.73078 0.53983
 C1852 C 0.15488 0.72223 0.52024
 H1853 H 0.11787 0.72789 0.56771
 H1854 H 0.15347 0.74405 0.55033
 H1855 H 0.11015 0.70164 0.52071
 H1856 H 0.14663 0.70834 0.50993
 C1857 C 0.10836 0.20333 1.04537
 C1858 C 0.11642 0.22548 1.04853
 C1859 C 0.13993 0.23377 1.04034
 C1860 C 0.15238 0.22348 1.02287
 H1861 H 0.10606 0.23813 1.05844
 H1862 H 0.14708 0.24923 1.04920
 H1863 H 0.11891 0.19078 1.03550
 H1864 H 0.14500 0.20879 1.01300
 C1865 C 0.60667 0.54235 0.20697
 C1866 C 0.61498 0.54562 0.22912
 C1867 C 0.63846 0.53718 0.23711
 C1868 C 0.65019 0.51932 0.22682
 H1869 H 0.60509 0.55609 0.24174
 H1870 H 0.64639 0.54648 0.25197
 H1871 H 0.61680 0.53200 0.19442
 H1872 H 0.64201 0.50906 0.21278
 C1873 C 0.60270 1.04736 0.70875
 C1874 C 0.60993 1.02480 0.70795
 C1875 C 0.63321 1.01686 0.71691
 C1876 C 0.64607 1.02854 0.73325
 H1877 H 0.59913 1.01154 0.69927
 H1878 H 0.63994 1.00056 0.70943
 H1879 H 0.61363 1.06055 0.71740
 H1880 H 0.63908 1.04411 0.74191
 C1881 C 0.89361 0.45578 0.29168
 C1882 C 0.87812 0.46900 0.30396
 C1883 C 0.85529 0.47777 0.29453
 C1884 C 0.84437 0.46922 0.27513
 H1885 H 0.88174 0.47353 0.32229
 H1886 H 0.84641 0.49093 0.30530
 H1887 H 0.88983 0.45102 0.27343
 H1888 H 0.85232 0.45526 0.26475
 C1889 C 0.88607 0.95172 0.79850
 C1890 C 0.86964 0.93947 0.78631
 C1891 C 0.84649 0.94911 0.77836
 C1892 C 0.83659 0.96912 0.78653
 H1893 H 0.87286 0.92115 0.78187
 H1894 H 0.83671 0.93828 0.76583
 H1895 H 0.88276 0.96996 0.80318
 H1896 H 0.84551 0.97973 0.79981
 C1897 C 0.35653 0.29861 0.79350
 C1898 C 0.36453 0.27643 0.79648
 C1899 C 0.38808 0.26829 0.78839
 C1900 C 0.40081 0.27892 0.77128
 H1901 H 0.35420 0.26370 0.80642
 H1902 H 0.39513 0.25280 0.79724
 H1903 H 0.36700 0.31124 0.78355
 H1904 H 0.39356 0.29366 0.76141
 C1905 C 0.85723 0.29129 0.29385
 C1906 C 0.87295 0.27829 0.30613
 C1907 C 0.89557 0.26937 0.29641
 C1908 C 0.90618 0.27792 0.27684
 H1909 H 0.86969 0.27407 0.32461
 H1910 H 0.90458 0.25616 0.30706
 H1911 H 0.86063 0.29565 0.27543
 H1912 H 0.89812 0.29198 0.26662
 C1913 C 0.39419 0.79438 0.45195
 C1914 C 0.38528 0.79699 0.47393
 C1915 C 0.36140 0.78887 0.48110
 C1916 C 0.34891 0.77212 0.46971
 H1917 H 0.39519 0.80661 0.48728
 H1918 H 0.35388 0.79737 0.49662
 H1919 H 0.38431 0.78463 0.43868
 H1920 H 0.35658 0.76259 0.45494
 C1921 C 0.39093 0.29708 0.95431
 C1922 C 0.38249 0.27513 0.95064
 C1923 C 0.35887 0.26694 0.95871
 C1924 C 0.34647 0.27705 0.97631
 H1925 H 0.39252 0.26266 0.94016
 H1926 H 0.35147 0.25185 0.94941
 H1927 H 0.38075 0.30945 0.96478
 H1928 H 0.35403 0.29140 0.98654
 C1929 C 0.79281 0.45572 0.39508
 C1930 C 0.80483 0.46882 0.37918
 C1931 C 0.79512 0.47737 0.35628
 C1932 C 0.77569 0.46862 0.34563
 H1933 H 0.82311 0.47349 0.38254
 H1934 H 0.80565 0.49060 0.34713
 H1935 H 0.77462 0.45078 0.39156
 H1936 H 0.76554 0.45458 0.35386
 C1937 C 0.79257 0.95541 0.89775
 C1938 C 0.79565 0.97767 0.88997
 C1939 C 0.78614 0.98637 0.86706
 C1940 C 0.76724 0.97696 0.85603
 H1941 H 0.80682 0.98982 0.89974
 H1942 H 0.79551 1.00104 0.85894
 H1943 H 0.78153 0.94338 0.88765
 H1944 H 0.75693 0.96318 0.86452
 C1945 C 0.29632 0.79590 0.35226
 C1946 C 0.27415 0.79940 0.36020
 C1947 C 0.26575 0.79128 0.38379
 C1948 C 0.27543 0.77323 0.39584
 H1949 H 0.26175 0.80971 0.34988
 H1950 H 0.25099 0.80082 0.39143
 H1951 H 0.30860 0.78573 0.36293
 H1952 H 0.28937 0.76278 0.38789
 C1953 C 0.29424 0.29660 0.85684
 C1954 C 0.27201 0.29960 0.86478
 C1955 C 0.26371 0.29133 0.88832
 C1956 C 0.27412 0.27401 0.90083
 H1957 H 0.25946 0.30973 0.85442
 H1958 H 0.24843 0.30031 0.89561
 H1959 H 0.30674 0.28648 0.86728
 H1960 H 0.28864 0.26407 0.89333
 C1961 C 0.45340 0.29636 0.89103
 C1962 C 0.47571 0.29929 0.88317
 C1963 C 0.48390 0.29158 0.85941
 C1964 C 0.47338 0.27448 0.84667
 H1965 H 0.48849 0.30888 0.89379
 H1966 H 0.49924 0.30064 0.85223
 H1967 H 0.44072 0.28677 0.88026
 H1968 H 0.45879 0.26448 0.85410
 C1969 C 0.95835 0.29415 0.39428
 C1970 C 0.94700 0.27945 0.37928
 C1971 C 0.95658 0.27055 0.35644
 C1972 C 0.97620 0.27866 0.34563
 H1973 H 0.92915 0.27375 0.38329
 H1974 H 0.94583 0.25734 0.34753
 H1975 H 0.97597 0.30040 0.39004
 H1976 H 0.98680 0.29245 0.35367
 C1977 C 0.45410 0.39324 0.79527
 C1978 C 0.45104 0.38573 0.77281
 C1979 C 0.45903 0.36233 0.76422
 C1980 C 0.47646 0.34976 0.77440
 H1981 H 0.44115 0.39635 0.76027
 H1982 H 0.44984 0.35525 0.74886
 H1983 H 0.46389 0.38242 0.80773
 H1984 H 0.48661 0.35709 0.78899
 C1985 C 0.95427 0.39114 0.29453
 C1986 C 0.95089 0.38268 0.27247
 C1987 C 0.95907 0.35910 0.26464
 C1988 C 0.97679 0.34712 0.27502
 H1989 H 0.94085 0.39276 0.25960
 H1990 H 0.95001 0.35152 0.24944
 H1991 H 0.96419 0.38080 0.30731
 H1992 H 0.98686 0.35495 0.28940
 C1993 C 0.29861 0.89063 0.45010
 C1994 C 0.30282 0.88178 0.47189
 C1995 C 0.29440 0.85822 0.47985
 C1996 C 0.27607 0.84663 0.47001
 H1997 H 0.31388 0.89139 0.48429
 H1998 H 0.30401 0.85019 0.49445
 H1999 H 0.28767 0.88077 0.43778
 H2000 H 0.26559 0.85485 0.45618
 C2001 C 0.29381 0.39345 0.95417
 C2002 C 0.29715 0.38509 0.97631
 C2003 C 0.28928 0.36135 0.98425
 C2004 C 0.27198 0.34886 0.97371
 H2005 H 0.30709 0.39532 0.98915
 H2006 H 0.29837 0.35399 0.99954
 H2007 H 0.28390 0.38305 0.94143
 H2008 H 0.26193 0.35641 0.95918
 C2009 C 0.79679 0.35614 0.29595
 C2010 C 0.80037 0.36447 0.27383
 C2011 C 0.79210 0.38794 0.26558
 C2012 C 0.77408 0.39976 0.27552
 H2013 H 0.81063 0.35440 0.26120
 H2014 H 0.80131 0.39555 0.25049
 H2015 H 0.78667 0.36653 0.30847
 H2016 H 0.76395 0.39187 0.28982
   
