data_POSCAR
  _audit_creation_date              2014-09-24
  _audit_creation_method            'ToBaCCo'
  _symmetry_space_group_name_H-M    'P1'
  _symmetry_Int_Tables_number       1
  _symmetry_cell_setting            triclinic
  loop_
  _symmetry_equiv_pos_as_xyz
 x,y,z
_cell_length_a 64.6762
_cell_length_b 64.5377
_cell_length_c 64.5676
_cell_angle_alpha 89.258000
_cell_angle_beta 89.265600
_cell_angle_gamma 89.275300
loop_
  _atom_site_label
  _atom_site_type_symbol
  _atom_site_fract_x
  _atom_site_fract_y
  _atom_site_fract_z
C1 C 0.75387 0.61928 0.99971
 C2 C 0.74951 0.37779 0.50057
 C3 C 0.25093 -0.12180 0.00072
 C4 C 0.25262 0.11881 0.49979
 C5 C 0.12041 0.49964 0.25297
 C6 C -0.11964 0.00090 0.24959
 C7 C 0.37957 0.50095 0.74844
 C8 C 0.62048 0.99985 0.75423
 C9 C 0.00162 0.24956 -0.12026
 C10 C 0.49884 0.25368 0.12047
 C11 C 0.99831 0.75268 0.62033
 C12 C 0.50147 0.75063 0.38069
 C13 C 0.40739 -0.01952 0.27270
 H14 H 0.40776 -0.00460 0.28012
 C15 C 0.41887 -0.03619 0.28076
 H16 H 0.42820 -0.03411 0.29437
 C17 C 0.39407 -0.04080 0.24646
 H18 H 0.38398 -0.04274 0.23346
 C19 C 0.40530 -0.05784 0.25400
 H20 H 0.40397 -0.07274 0.24663
 N21 N 0.39531 -0.02209 0.25584
 C22 C 0.38348 0.03927 0.22914
 H23 H 0.36681 0.03853 0.22817
 C24 C 0.39376 0.05682 0.22187
 H25 H 0.38502 0.06967 0.21528
 C26 C 0.41524 0.02336 0.23883
 H27 H 0.42353 0.01021 0.24528
 C28 C 0.42617 0.04068 0.23172
 H29 H 0.44287 0.04090 0.23281
 Zn30 Zn 0.37832 0.00038 0.24702
 N31 N 0.39424 0.02311 0.23764
 C32 C 0.36282 0.02791 0.27743
 N33 N 0.36166 0.00833 0.26998
 C34 C 0.34969 -0.00621 0.27956
 C35 C 0.33810 -0.00119 0.29727
 C36 C 0.35150 0.03356 0.29505
 C37 C 0.37223 -0.01204 0.20654
 C38 C 0.36143 -0.01814 0.18913
 C39 C 0.32952 -0.01465 0.20876
 C40 C 0.34095 -0.00859 0.22585
 N41 N 0.36195 -0.00769 0.22450
 H42 H 0.37282 0.03911 0.27001
 H43 H 0.34936 -0.02177 0.27355
 H44 H 0.32871 -0.01287 0.30490
 H45 H 0.35266 0.04914 0.30095
 H46 H 0.38890 -0.01091 0.20584
 H47 H 0.36978 -0.02181 0.17497
 H48 H 0.31283 -0.01555 0.20996
 H49 H 0.33304 -0.00465 0.24013
 C50 C 0.41528 0.05758 0.22325
 C51 C 0.41769 -0.05555 0.27138
 C52 C 0.33990 -0.01955 0.19028
 C53 C 0.33909 0.01888 0.30509
 C54 C 0.09172 1.01827 0.77549
 H55 H 0.09074 1.00334 0.78322
 C56 C 0.08054 1.03523 0.78322
 H57 H 0.07082 1.03336 0.79689
 C58 C 0.10626 1.03927 0.74877
 H59 H 0.11670 1.04097 0.73571
 C60 C 0.09535 1.05659 0.75598
 H61 H 0.09729 1.07147 0.74830
 N62 N 0.10426 1.02057 0.75855
 C63 C 0.11477 0.95887 0.73332
 H64 H 0.13148 0.95891 0.73253
 C65 C 0.10399 0.94187 0.72614
 H66 H 0.11242 0.92874 0.71982
 C67 C 0.08333 0.97608 0.74227
 H68 H 0.07537 0.98955 0.74832
 C69 C 0.07193 0.95935 0.73522
 H70 H 0.05519 0.95991 0.73599
 Zn71 Zn 0.12078 0.99765 0.75016
 N72 N 0.10438 0.97543 0.74136
 C73 C 0.13520 0.96972 0.78116
 N74 N 0.13681 0.98927 0.77321
 C75 C 0.14890 1.00360 0.78228
 C76 C 0.16021 0.99837 0.79994
 C77 C 0.14623 0.96385 0.79877
 C78 C 0.12812 1.01010 0.70938
 C79 C 0.13950 1.01607 0.69185
 C80 C 0.17085 1.01154 0.71148
 C81 C 0.15885 1.00563 0.72869
 N82 N 0.13786 1.00533 0.72740
 H83 H 0.12511 0.95871 0.77412
 H84 H 0.14959 1.01915 0.77587
 H85 H 0.16972 1.00986 0.80714
 H86 H 0.14476 0.94829 0.80506
 H87 H 0.11143 1.00945 0.70874
 H88 H 0.13158 1.02012 0.67765
 H89 H 0.18753 1.01200 0.71264
 H90 H 0.16633 1.00136 0.74301
 C91 C 0.08239 0.94209 0.72713
 C92 C 0.08249 1.05458 0.77343
 C93 C 0.16104 1.01691 0.69295
 C94 C 0.15881 0.97831 0.80826
 C95 C 0.59239 0.51947 0.27584
 H96 H 0.59131 0.50451 0.28351
 C97 C 0.58163 0.53655 0.28387
 H98 H 0.57214 0.53476 0.29770
 C99 C 0.60684 0.54039 0.24901
 H100 H 0.61710 0.54201 0.23580
 C101 C 0.59635 0.55783 0.25651
 H102 H 0.59843 0.57274 0.24891
 N103 N 0.60471 0.52167 0.25872
 C104 C 0.61429 0.46003 0.23306
 H105 H 0.63100 0.45997 0.23203
 C106 C 0.60331 0.44316 0.22594
 H107 H 0.61156 0.43001 0.21942
 C108 C 0.58310 0.47738 0.24257
 H109 H 0.57532 0.49087 0.24883
 C110 C 0.57148 0.46077 0.23560
 H111 H 0.55476 0.46142 0.23662
 Zn112 Zn 0.62086 0.49862 0.25001
 N113 N 0.60413 0.47661 0.24135
 C114 C 0.63540 0.47038 0.28068
 N115 N 0.63713 0.48996 0.27279
 C116 C 0.64957 0.50407 0.28172
 C117 C 0.66112 0.49859 0.29915
 C118 C 0.64667 0.46428 0.29805
 C119 C 0.62775 0.51113 0.20919
 C120 C 0.63894 0.51700 0.19151
 C121 C 0.67054 0.51205 0.21065
 C122 C 0.65873 0.50626 0.22803
 N123 N 0.63771 0.50620 0.22705
 H124 H 0.62503 0.45955 0.27377
 H125 H 0.65035 0.51964 0.27537
 H126 H 0.67093 0.50992 0.30623
 H127 H 0.64512 0.44870 0.30429
 H128 H 0.61104 0.51066 0.20879
 H129 H 0.63086 0.52115 0.17743
 H130 H 0.68725 0.51231 0.21156
 H131 H 0.66637 0.50186 0.24222
 C132 C 0.58172 0.44350 0.22725
 C133 C 0.58376 0.55593 0.27417
 C134 C 0.66051 0.51757 0.19228
 C135 C 0.65961 0.47851 0.30738
 C136 C 0.90706 0.47935 0.77208
 H137 H 0.90751 0.49430 0.77944
 C138 C 0.91866 0.46272 0.78005
 H139 H 0.92818 0.46487 0.79352
 C140 C 0.89339 0.45794 0.74613
 H141 H 0.88312 0.45594 0.73328
 C142 C 0.90474 0.44095 0.75358
 H143 H 0.90332 0.42601 0.74630
 N144 N 0.89474 0.47669 0.75541
 C145 C 0.88243 0.53796 0.72868
 H146 H 0.86575 0.53721 0.72797
 C147 C 0.89260 0.55552 0.72125
 H148 H 0.88375 0.56836 0.71479
 C149 C 0.91435 0.52210 0.73793
 H150 H 0.92274 0.50896 0.74429
 C151 C 0.92517 0.53942 0.73064
 H152 H 0.94188 0.53965 0.73150
 Zn153 Zn 0.87758 0.49910 0.74678
 N154 N 0.89333 0.52182 0.73705
 C155 C 0.86257 0.52674 0.77734
 N156 N 0.86131 0.50712 0.76999
 C157 C 0.84954 0.49258 0.77984
 C158 C 0.83826 0.49764 0.79773
 C159 C 0.85154 0.53242 0.79513
 C160 C 0.87074 0.48646 0.70648
 C161 C 0.85960 0.48022 0.68934
 C162 C 0.82808 0.48377 0.70957
 C163 C 0.83983 0.48996 0.72638
 N164 N 0.86080 0.49091 0.72461
 H165 H 0.87241 0.53793 0.76970
 H166 H 0.84915 0.47700 0.77390
 H167 H 0.82903 0.48597 0.80557
 H168 H 0.85277 0.54802 0.80095
 H169 H 0.88740 0.48762 0.70544
 H170 H 0.86768 0.47647 0.67504
 H171 H 0.81142 0.48283 0.71111
 H172 H 0.83220 0.49397 0.74078
 C173 C 0.91414 0.55631 0.72232
 C174 C 0.91737 0.44332 0.77077
 C175 C 0.83810 0.47876 0.69093
 C176 C 0.83933 0.51775 0.80544
 C177 C 0.27271 0.40824 -0.02029
 H178 H 0.28010 0.40899 -0.00539
 C179 C 0.28088 0.41917 -0.03727
 H180 H 0.29455 0.42847 -0.03546
 C181 C 0.24646 0.39442 -0.04120
 H182 H 0.23343 0.38433 -0.04286
 C183 C 0.25411 0.40511 -0.05854
 H184 H 0.24679 0.40335 -0.07340
 N185 N 0.25581 0.39614 -0.02253
 C186 C 0.22910 0.38573 0.03905
 H187 H 0.22812 0.36901 0.03869
 C188 C 0.22183 0.39644 0.05634
 H189 H 0.21523 0.38797 0.06937
 C190 C 0.23882 0.41720 0.02243
 H191 H 0.24529 0.42520 0.00911
 C192 C 0.23170 0.42855 0.03948
 H193 H 0.23280 0.44528 0.03931
 Zn194 Zn 0.24697 0.37967 0.00033
 N195 N 0.23761 0.39615 0.02266
 C196 C 0.27731 0.36473 0.02820
 N197 N 0.26988 0.36314 0.00867
 C198 C 0.27943 0.35082 -0.00560
 C199 C 0.29709 0.33930 -0.00032
 C200 C 0.29488 0.35349 0.03410
 C201 C 0.20656 0.37326 -0.01195
 C202 C 0.18922 0.36228 -0.01790
 C203 C 0.20885 0.33040 -0.01376
 C204 C 0.22588 0.34200 -0.00788
 N205 N 0.22450 0.36306 -0.00737
 H206 H 0.26991 0.37501 0.03916
 H207 H 0.27345 0.35016 -0.02114
 H208 H 0.30470 0.32963 -0.01177
 H209 H 0.30077 0.35499 0.04964
 H210 H 0.20584 0.38998 -0.01115
 H211 H 0.17508 0.37056 -0.02176
 H212 H 0.21007 0.31367 -0.01437
 H213 H 0.24013 0.33417 -0.00377
 C214 C 0.22322 0.41802 0.05660
 C215 C 0.27156 0.41746 -0.05660
 C216 C 0.19041 0.34068 -0.01891
 C217 C 0.30489 0.34072 0.01971
 C218 C 0.77506 0.09448 1.01984
 H219 H 0.78270 0.09347 1.00487
 C220 C 0.78299 0.08347 1.03682
 H221 H 0.79671 0.07385 1.03494
 C222 C 0.74844 0.10902 1.04090
 H223 H 0.73535 0.11942 1.04262
 C224 C 0.75584 0.09828 1.05824
 H225 H 0.74828 0.10030 1.07316
 N226 N 0.75809 0.10697 1.02216
 C227 C 0.73255 0.11747 0.96064
 H228 H 0.73167 0.13422 0.96076
 C229 C 0.72536 0.10672 0.94364
 H230 H 0.71895 0.11519 0.93058
 C231 C 0.74176 0.08593 0.97765
 H232 H 0.74795 0.07793 0.99104
 C233 C 0.73471 0.07455 0.96090
 H234 H 0.73560 0.05778 0.96136
 Zn235 Zn 0.74957 0.12347 0.99927
 N236 N 0.74073 0.10702 0.97710
 C237 C 0.78035 0.13798 0.97118
 N238 N 0.77250 0.13959 0.99076
 C239 C 0.78160 0.15174 1.00502
 C240 C 0.79919 0.16310 0.99970
 C241 C 0.79788 0.14906 0.96523
 C242 C 0.70889 0.13071 1.01187
 C243 C 0.69139 0.14206 1.01789
 C244 C 0.71087 0.17354 1.01326
 C245 C 0.72806 0.16157 1.00731
 N246 N 0.72684 0.14053 1.00702
 H247 H 0.77328 0.12784 0.96022
 H248 H 0.77527 0.15243 1.02060
 H249 H 0.80641 0.17266 1.01114
 H250 H 0.80409 0.14759 0.94964
 H251 H 0.70830 0.11398 1.01123
 H252 H 0.67725 0.13408 1.02199
 H253 H 0.71198 0.19026 1.01370
 H254 H 0.74232 0.16911 1.00298
 C255 C 0.72649 0.08508 0.94374
 C256 C 0.77335 0.08553 1.05622
 C257 C 0.69242 0.16365 1.01871
 C258 C 0.80740 0.16169 0.97961
 C259 C 0.27452 0.59429 0.51867
 H260 H 0.28225 0.59342 0.50375
 C261 C 0.28236 0.58317 0.53562
 H262 H 0.29612 0.57360 0.53375
 C263 C 0.24771 0.60859 0.53966
 H264 H 0.23458 0.61894 0.54138
 C265 C 0.25502 0.59774 0.55697
 H266 H 0.24735 0.59962 0.57186
 N267 N 0.25750 0.60672 0.52098
 C268 C 0.23229 0.61757 0.45938
 H269 H 0.23136 0.63431 0.45961
 C270 C 0.22525 0.60691 0.44226
 H271 H 0.21888 0.61545 0.42921
 C272 C 0.24151 0.58595 0.47623
 H273 H 0.24764 0.57788 0.48961
 C274 C 0.23461 0.57466 0.45936
 H275 H 0.23554 0.55789 0.45972
 Zn276 Zn 0.24907 0.62336 0.49815
 N277 N 0.24041 0.60704 0.47582
 C278 C 0.27997 0.63812 0.47034
 N279 N 0.27201 0.63959 0.48989
 C280 C 0.28101 0.65166 0.50429
 C281 C 0.29861 0.66308 0.49913
 C282 C 0.29751 0.64927 0.46456
 C283 C 0.20831 0.63040 0.51056
 C284 C 0.19075 0.64165 0.51660
 C285 C 0.21017 0.67322 0.51233
 C286 C 0.22742 0.66134 0.50636
 N287 N 0.22625 0.64030 0.50589
 H288 H 0.27299 0.62805 0.45927
 H289 H 0.27460 0.65223 0.51983
 H290 H 0.30575 0.67257 0.51069
 H291 H 0.30381 0.64792 0.44900
 H292 H 0.20776 0.61368 0.50978
 H293 H 0.17661 0.63360 0.52056
 H294 H 0.21123 0.68994 0.51292
 H295 H 0.24168 0.66895 0.50217
 C296 C 0.22645 0.58528 0.44222
 C297 C 0.27258 0.58504 0.55497
 C298 C 0.19172 0.66324 0.51761
 C299 C 0.30692 0.66182 0.47908
 C300 C 0.77267 0.90913 0.48077
 H301 H 0.78012 0.90981 0.49565
 C302 C 0.78088 0.92001 0.46377
 H303 H 0.79462 0.92920 0.46555
 C304 C 0.74626 0.89553 0.45993
 H305 H 0.73315 0.88553 0.45830
 C306 C 0.75394 0.90616 0.44257
 H307 H 0.74657 0.90447 0.42773
 N308 N 0.75568 0.89716 0.47857
 C309 C 0.72909 0.88688 0.54022
 H310 H 0.72798 0.87017 0.53985
 C311 C 0.72195 0.89762 0.55754
 H312 H 0.71532 0.88919 0.57059
 C313 C 0.73899 0.91829 0.52361
 H314 H 0.74549 0.92626 0.51028
 C315 C 0.73201 0.92967 0.54069
 H316 H 0.73324 0.94640 0.54054
 Zn317 Zn 0.74679 0.88073 0.50144
 N318 N 0.73763 0.89725 0.52383
 C319 C 0.77713 0.86556 0.52920
 N320 N 0.76961 0.86404 0.50969
 C321 C 0.77903 0.85167 0.49538
 C322 C 0.79664 0.84004 0.50058
 C323 C 0.79465 0.85420 0.53503
 C324 C 0.70629 0.87462 0.48926
 C325 C 0.68885 0.86376 0.48338
 C326 C 0.70827 0.83175 0.48749
 C327 C 0.72540 0.84323 0.49333
 N328 N 0.72417 0.86430 0.49381
 H329 H 0.76983 0.87587 0.54020
 H330 H 0.77298 0.85107 0.47986
 H331 H 0.80415 0.83033 0.48909
 H332 H 0.80061 0.85564 0.55054
 H333 H 0.70569 0.89135 0.49005
 H334 H 0.67476 0.87213 0.47953
 H335 H 0.70938 0.81501 0.48691
 H336 H 0.73960 0.83530 0.49741
 C337 C 0.72350 0.91919 0.55783
 C338 C 0.77149 0.91838 0.44447
 C339 C 0.68988 0.84215 0.48237
 C340 C 0.80452 0.84138 0.52059
 C341 C -0.01923 0.27217 0.40789
 H342 H -0.00435 0.27958 0.40860
 C343 C -0.03606 0.28012 0.41919
 H344 H -0.03414 0.29363 0.42873
 C345 C -0.04024 0.24607 0.39391
 H346 H -0.04200 0.23316 0.38364
 C347 C -0.05743 0.25351 0.40494
 H348 H -0.07227 0.24615 0.40328
 N349 N -0.02159 0.25543 0.39557
 C350 C 0.03983 0.22874 0.38471
 H351 H 0.03946 0.22794 0.36799
 C352 C 0.05710 0.22134 0.39534
 H353 H 0.07010 0.21481 0.38680
 C354 C 0.02326 0.23814 0.41628
 H355 H 0.00997 0.24452 0.42436
 C356 C 0.04028 0.23088 0.42754
 H357 H 0.04012 0.23180 0.44428
 Zn358 Zn 0.00113 0.24671 0.37890
 N359 N 0.02348 0.23716 0.39522
 C360 C 0.02894 0.27719 0.36407
 N361 N 0.00941 0.26979 0.36253
 C362 C -0.00486 0.27946 0.35032
 C363 C 0.00041 0.29719 0.33885
 C364 C 0.03483 0.29482 0.35287
 C365 C -0.01123 0.20628 0.37220
 C366 C -0.01722 0.18901 0.36109
 C367 C -0.01316 0.20897 0.32939
 C368 C -0.00722 0.22591 0.34111
 N369 N -0.00666 0.22434 0.36215
 H370 H 0.03991 0.26969 0.37425
 H371 H -0.02039 0.27350 0.34969
 H372 H -0.01105 0.30488 0.32925
 H373 H 0.05037 0.30067 0.35430
 H374 H -0.01038 0.20540 0.38891
 H375 H -0.02109 0.17477 0.36925
 H376 H -0.01381 0.21035 0.31267
 H377 H -0.00312 0.24026 0.33340
 C378 C 0.05737 0.22250 0.41693
 C379 C -0.05535 0.27075 0.41758
 C380 C -0.01830 0.19040 0.33951
 C381 C 0.02044 0.30493 0.34019
 C382 C 1.02001 0.77432 0.09088
 H383 H 1.00512 0.78206 0.08979
 C384 C 1.03697 0.78193 0.07965
 H385 H 1.03516 0.79551 0.06978
 C386 C 1.04089 0.74772 0.10578
 H387 H 1.04254 0.73475 0.11638
 C388 C 1.05821 0.75481 0.09483
 H389 H 1.07305 0.74713 0.09689
 N390 N 1.02225 0.75750 0.10363
 C391 C 0.96067 0.73235 0.11426
 H392 H 0.96067 0.73174 0.13101
 C393 C 0.94373 0.72505 0.10351
 H394 H 0.93060 0.71882 0.11199
 C395 C 0.97791 0.74098 0.08271
 H396 H 0.99137 0.74697 0.07470
 C397 C 0.96124 0.73381 0.07133
 H398 H 0.96183 0.73440 0.05456
 Zn399 Zn 0.99933 0.74928 0.12020
 N400 N 0.97721 0.74030 0.10380
 C401 C 0.97141 0.78046 0.13417
 N402 N 0.99091 0.77250 0.13597
 C403 C 1.00514 0.78169 0.14808
 C404 C 0.99986 0.79947 0.15921
 C405 C 0.96551 0.79817 0.14502
 C406 C 1.01167 0.70856 0.12797
 C407 C 1.01757 0.69112 0.13954
 C408 C 1.01299 0.71104 0.17075
 C409 C 1.00716 0.72816 0.15857
 N410 N 1.00691 0.72668 0.13756
 H411 H 0.96048 0.77332 0.12407
 H412 H 1.02065 0.77528 0.14892
 H413 H 1.01128 0.80675 0.16875
 H414 H 0.94999 0.80446 0.14341
 H415 H 1.01107 0.70777 0.11126
 H416 H 1.02161 0.67684 0.13175
 H417 H 1.01340 0.71235 0.18745
 H418 H 1.00289 0.74256 0.16592
 C419 C 0.94399 0.72582 0.08187
 C420 C 1.05627 0.77214 0.08176
 C421 C 1.01835 0.69241 0.16111
 C422 C 0.97986 0.80778 0.15761
 C423 C 0.51892 0.27351 0.59109
 H424 H 0.50403 0.28125 0.59009
 C425 C 0.53580 0.28106 0.57968
 H426 H 0.53390 0.29461 0.56977
 C427 C 0.53993 0.24699 0.60595
 H428 H 0.54167 0.23409 0.61662
 C429 C 0.55716 0.25402 0.59483
 H430 H 0.57202 0.24637 0.59682
 N431 N 0.52127 0.25676 0.60392
 C432 C 0.45976 0.23183 0.61567
 H433 H 0.46007 0.23131 0.63242
 C434 C 0.44259 0.22456 0.60529
 H435 H 0.42959 0.21843 0.61404
 C436 C 0.47645 0.24027 0.58378
 H437 H 0.48978 0.24618 0.57549
 C438 C 0.45953 0.23312 0.57276
 H439 H 0.45979 0.23366 0.55598
 Zn440 Zn 0.49853 0.24874 0.62086
 N441 N 0.47615 0.23968 0.60487
 C442 C 0.47088 0.28010 0.63491
 N443 N 0.49039 0.27213 0.63654
 C444 C 0.50479 0.28141 0.64836
 C445 C 0.49970 0.29932 0.65936
 C446 C 0.46516 0.29795 0.64564
 C447 C 0.51088 0.20804 0.62882
 C448 C 0.51687 0.19069 0.64047
 C449 C 0.51279 0.21090 0.67155
 C450 C 0.50685 0.22793 0.65929
 N451 N 0.50630 0.22627 0.63830
 H452 H 0.45980 0.27289 0.62502
 H453 H 0.52030 0.27497 0.64906
 H454 H 0.51126 0.30668 0.66867
 H455 H 0.44964 0.30426 0.64415
 H456 H 0.51004 0.20710 0.61214
 H457 H 0.52075 0.17632 0.63276
 H458 H 0.51344 0.21236 0.68822
 H459 H 0.50273 0.24241 0.66656
 C460 C 0.44244 0.22525 0.58365
 C461 C 0.55511 0.27130 0.58170
 C462 C 0.51795 0.19216 0.66200
 C463 C 0.47969 0.30766 0.65794
 C464 C 0.48154 0.77156 0.90786
 H465 H 0.49643 0.77898 0.90831
 C466 C 0.46490 0.77950 0.91944
 H467 H 0.46697 0.79302 0.92893
 C468 C 0.46029 0.74546 0.89422
 H469 H 0.45836 0.73257 0.88397
 C470 C 0.44329 0.75289 0.90554
 H471 H 0.42842 0.74554 0.90411
 N472 N 0.47896 0.75484 0.89556
 C473 C 0.54014 0.72827 0.88317
 H474 H 0.53932 0.72750 0.86647
 C475 C 0.55769 0.72086 0.89331
 H476 H 0.57047 0.71437 0.88441
 C477 C 0.52442 0.73760 0.91518
 H478 H 0.51134 0.74397 0.92362
 C479 C 0.54175 0.73034 0.92596
 H480 H 0.54205 0.73124 0.94270
 Zn481 Zn 0.50135 0.74626 0.87837
 N482 N 0.52407 0.73666 0.89413
 C483 C 0.52879 0.77692 0.86331
 N484 N 0.50926 0.76947 0.86200
 C485 C 0.49474 0.77925 0.85017
 C486 C 0.49972 0.79719 0.83890
 C487 C 0.53440 0.79477 0.85230
 C488 C 0.48900 0.70585 0.87177
 C489 C 0.48290 0.68857 0.86075
 C490 C 0.48617 0.70864 0.82903
 C491 C 0.49224 0.72560 0.84067
 N492 N 0.49325 0.72397 0.86168
 H493 H 0.53996 0.76934 0.87320
 H494 H 0.47921 0.77324 0.84974
 H495 H 0.48806 0.80500 0.82965
 H496 H 0.54993 0.80068 0.85359
 H497 H 0.49022 0.70493 0.88845
 H498 H 0.47932 0.67428 0.86895
 H499 H 0.48518 0.71005 0.81233
 H500 H 0.49609 0.73999 0.83291
 C501 C 0.55856 0.72199 0.91488
 C502 C 0.44557 0.77014 0.91814
 C503 C 0.48138 0.69000 0.83921
 C504 C 0.51974 0.80503 0.84006
 C505 C 0.49510 -0.23176 0.36760
 C506 C 0.48978 -0.21689 0.35739
 C507 C 0.48329 -0.19881 0.34580
 C508 C 0.49531 -0.18093 0.34581
 C509 C 0.48850 -0.16296 0.33551
 C510 C 0.46953 -0.16265 0.32507
 C511 C 0.45770 -0.18080 0.32492
 C512 C 0.46453 -0.19874 0.33524
 C513 C 0.46182 -0.14333 0.31488
 C514 C 0.45177 -0.14406 0.29570
 C515 C 0.44377 -0.12596 0.28655
 C516 C 0.44571 -0.10691 0.29642
 C517 C 0.45591 -0.10598 0.31535
 C518 C 0.46395 -0.12405 0.32452
 C519 C 0.43646 -0.08851 0.28751
 C520 C 0.42821 -0.07333 0.28013
 H521 H 0.50985 -0.18080 0.35396
 H522 H 0.49807 -0.14932 0.33571
 H523 H 0.44290 -0.18097 0.31728
 H524 H 0.45504 -0.21245 0.33526
 H525 H 0.45012 -0.15861 0.28777
 H526 H 0.43589 -0.12687 0.27189
 H527 H 0.45738 -0.09133 0.32318
 H528 H 0.47134 -0.12301 0.33941
 C529 C 0.99527 0.26722 0.86671
 C530 C 0.98997 0.28211 0.85652
 C531 C 0.98349 0.30021 0.84495
 C532 C 0.96495 0.30015 0.83403
 C533 C 0.95811 0.31809 0.82372
 C534 C 0.96972 0.33638 0.82424
 C535 C 0.98849 0.33619 0.83504
 C536 C 0.99531 0.31822 0.84533
 C537 C 0.96197 0.35569 0.81408
 C538 C 0.96367 0.37491 0.82395
 C539 C 0.95557 0.39297 0.81480
 C540 C 0.94571 0.39208 0.79568
 C541 C 0.94420 0.37310 0.78560
 C542 C 0.95227 0.35502 0.79471
 C543 C 0.93636 0.41044 0.78680
 C544 C 0.92801 0.42559 0.77946
 H545 H 0.95562 0.28633 0.83376
 H546 H 0.94347 0.31781 0.81579
 H547 H 0.99789 0.34994 0.83552
 H548 H 1.00968 0.31845 0.85376
 H549 H 0.97078 0.37590 0.83899
 H550 H 0.95671 0.40755 0.82281
 H551 H 0.93658 0.37223 0.77079
 H552 H 0.95094 0.34052 0.78662
 C553 C 0.00781 1.23197 0.86684
 C554 C 0.01293 1.21709 0.85679
 C555 C 0.01914 1.19898 0.84541
 C556 C 0.03818 1.19844 0.83489
 C557 C 0.04471 1.18042 0.82479
 C558 C 0.03229 1.16266 0.82516
 C559 C 0.01304 1.16346 0.83555
 C560 C 0.00653 1.18150 0.84561
 C561 C 0.03968 1.14323 0.81527
 C562 C 0.03669 1.12394 0.82521
 C563 C 0.04446 1.10572 0.81637
 C564 C 0.05526 1.10653 0.79747
 C565 C 0.05805 1.12560 0.78731
 C566 C 0.05031 1.14383 0.79613
 C567 C 0.06423 1.08795 0.78890
 C568 C 0.07226 1.07259 0.78182
 H569 H 0.04812 1.21183 0.83476
 H570 H 0.05972 1.18021 0.81718
 H571 H 0.00303 1.15014 0.83590
 H572 H -0.00823 1.18175 0.85375
 H573 H 0.02882 1.12298 0.84009
 H574 H 0.04232 1.09106 0.82443
 H575 H 0.06640 1.12640 0.77267
 H576 H 0.05264 1.15840 0.78798
 C577 C 0.50796 0.73309 0.36785
 C578 C 0.51339 0.71827 0.35787
 C579 C 0.52005 0.70023 0.34661
 C580 C 0.50969 0.68148 0.34946
 C581 C 0.51683 0.66361 0.33950
 C582 C 0.53449 0.66426 0.32657
 C583 C 0.54461 0.68327 0.32354
 C584 C 0.53743 0.70112 0.33352
 C585 C 0.54271 0.64507 0.31681
 C586 C 0.56414 0.64111 0.31598
 C587 C 0.57192 0.62289 0.30722
 C588 C 0.55842 0.60835 0.29917
 C589 C 0.53707 0.61215 0.29983
 C590 C 0.52924 0.63039 0.30861
 C591 C 0.56664 0.58959 0.29028
 C592 C 0.57411 0.57409 0.28291
 H593 H 0.49629 0.68059 0.35967
 H594 H 0.50886 0.64918 0.34236
 H595 H 0.55807 0.68434 0.31347
 H596 H 0.54558 0.71555 0.33121
 H597 H 0.57489 0.65193 0.32244
 H598 H 0.58847 0.62008 0.30683
 H599 H 0.52649 0.60102 0.29358
 H600 H 0.51269 0.63309 0.30883
 C601 C 0.50445 0.27093 0.13375
 C602 C 0.50922 0.28546 0.14415
 C603 C 0.51514 0.30311 0.15599
 C604 C 0.50281 0.32109 0.15586
 C605 C 0.50918 0.33871 0.16629
 C606 C 0.52801 0.33857 0.17698
 C607 C 0.54012 0.32029 0.17730
 C608 C 0.53372 0.30270 0.16685
 C609 C 0.53544 0.35761 0.18705
 C610 C 0.54550 0.35643 0.20624
 C611 C 0.55359 0.37421 0.21506
 C612 C 0.55172 0.39340 0.20487
 C613 C 0.54139 0.39481 0.18598
 C614 C 0.53327 0.37706 0.17714
 C615 C 0.56149 0.41136 0.21314
 C616 C 0.57034 0.42618 0.21974
 H617 H 0.48840 0.32158 0.14748
 H618 H 0.49941 0.35246 0.16596
 H619 H 0.55482 0.31977 0.18513
 H620 H 0.54345 0.28891 0.16693
 H621 H 0.54720 0.34174 0.21436
 H622 H 0.56160 0.37293 0.22967
 H623 H 0.54000 0.40956 0.17787
 H624 H 0.52587 0.37845 0.16223
 C625 C 0.00410 0.76982 0.63366
 C626 C 0.00905 0.78427 0.64409
 C627 C 0.01522 0.80184 0.65592
 C628 C 0.00284 0.81978 0.65626
 C629 C 0.00944 0.83734 0.66666
 C630 C 0.02856 0.83717 0.67683
 C631 C 0.04071 0.81893 0.67670
 C632 C 0.03409 0.80140 0.66628
 C633 C 0.03619 0.85615 0.68687
 C634 C 0.04672 0.85483 0.70579
 C635 C 0.05493 0.87257 0.71459
 C636 C 0.05270 0.89185 0.70464
 C637 C 0.04191 0.89339 0.68602
 C638 C 0.03368 0.87568 0.67720
 C639 C 0.06245 0.90982 0.71292
 C640 C 0.07120 0.92467 0.71956
 H641 H -0.01179 0.82030 0.64827
 H642 H -0.00037 0.85105 0.66669
 H643 H 0.05563 0.81839 0.68412
 H644 H 0.04386 0.78764 0.66599
 H645 H 0.04869 0.84007 0.71373
 H646 H 0.06328 0.87120 0.72899
 H647 H 0.04023 0.90821 0.67811
 H648 H 0.02591 0.87717 0.66249
 C649 C 0.99207 0.73472 0.63294
 C650 C 0.98688 0.71956 0.64271
 C651 C 0.98055 0.70111 0.65369
 C652 C 0.96810 0.70253 0.67152
 C653 C 0.96112 0.68452 0.68151
 C654 C 0.96648 0.66485 0.67376
 C655 C 0.97928 0.66362 0.65602
 C656 C 0.98624 0.68164 0.64606
 C657 C 0.95815 0.64573 0.68363
 C658 C 0.97053 0.62772 0.68554
 C659 C 0.96231 0.60947 0.69398
 C660 C 0.94163 0.60900 0.70061
 C661 C 0.92929 0.62690 0.69901
 C662 C 0.93746 0.64513 0.69060
 C663 C 0.93276 0.59009 0.70849
 C664 C 0.92466 0.57451 0.71489
 H665 H 0.96361 0.71753 0.67756
 H666 H 0.95150 0.68598 0.69528
 H667 H 0.98344 0.64875 0.64949
 H668 H 0.99578 0.68037 0.63221
 H669 H 0.98658 0.62775 0.68054
 H670 H 0.97201 0.59571 0.69516
 H671 H 0.91323 0.62667 0.70401
 H672 H 0.92744 0.65861 0.68906
 C673 C 0.49269 0.23574 0.13314
 C674 C 0.48761 0.22057 0.14296
 C675 C 0.48142 0.20212 0.15401
 C676 C 0.48596 0.18266 0.14566
 C677 C 0.47917 0.16467 0.15576
 C678 C 0.46770 0.16589 0.17437
 C679 C 0.46349 0.18553 0.18282
 C680 C 0.47031 0.20352 0.17268
 C681 C 0.45950 0.14681 0.18446
 C682 C 0.43932 0.14664 0.19283
 C683 C 0.43116 0.12845 0.20137
 C684 C 0.44305 0.11018 0.20169
 C685 C 0.46326 0.11023 0.19369
 C686 C 0.47145 0.12843 0.18513
 C687 C 0.43410 0.09131 0.20957
 C688 C 0.42592 0.07575 0.21592
 H689 H 0.49447 0.18141 0.13115
 H690 H 0.48240 0.14983 0.14869
 H691 H 0.45491 0.18697 0.19725
 H692 H 0.46673 0.21851 0.17929
 H693 H 0.42961 0.16043 0.19228
 H694 H 0.41546 0.12855 0.20742
 H695 H 0.47259 0.09617 0.19387
 H696 H 0.48712 0.12813 0.17903
 C697 C 0.36667 0.49443 -0.23389
 C698 C 0.35662 0.48892 -0.21898
 C699 C 0.34524 0.48213 -0.20089
 C700 C 0.33302 0.46443 -0.20165
 C701 C 0.32295 0.45713 -0.18376
 C702 C 0.32500 0.46744 -0.16483
 C703 C 0.33705 0.48543 -0.16431
 C704 C 0.34712 0.49269 -0.18222
 C705 C 0.31514 0.45912 -0.14560
 C706 C 0.30592 0.47251 -0.13101
 C707 C 0.29697 0.46457 -0.11277
 C708 C 0.29715 0.44319 -0.10887
 C709 C 0.30625 0.42977 -0.12329
 C710 C 0.31518 0.43765 -0.14152
 C711 C 0.28803 0.43484 -0.09015
 C712 C 0.28049 0.42727 -0.07469
 H713 H 0.33148 0.45612 -0.21602
 H714 H 0.31356 0.44341 -0.18473
 H715 H 0.33915 0.49356 -0.14994
 H716 H 0.35664 0.50634 -0.18143
 H717 H 0.30545 0.48909 -0.13381
 H718 H 0.28990 0.47510 -0.10174
 H719 H 0.30653 0.41319 -0.12041
 H720 H 0.32243 0.42696 -0.15226
 C721 C 0.86737 0.99447 0.26724
 C722 C 0.85726 0.98906 0.28213
 C723 C 0.84580 0.98241 0.30023
 C724 C 0.84823 0.99260 0.31903
 C725 C 0.83806 0.98545 0.33693
 C726 C 0.82535 0.96794 0.33626
 C727 C 0.82276 0.95800 0.31720
 C728 C 0.83293 0.96519 0.29932
 C729 C 0.81537 0.95970 0.35546
 C730 C 0.81467 0.93820 0.35924
 C731 C 0.80566 0.93038 0.37745
 C732 C 0.79721 0.94390 0.39216
 C733 C 0.79775 0.96532 0.38855
 C734 C 0.80679 0.97319 0.37032
 C735 C 0.78805 0.93563 0.41090
 C736 C 0.78047 0.92811 0.42636
 H737 H 0.85826 1.00587 0.31993
 H738 H 0.84059 0.99328 0.35139
 H739 H 0.81287 0.94465 0.31612
 H740 H 0.83095 0.95717 0.28486
 H741 H 0.82142 0.92742 0.34828
 H742 H 0.80537 0.91377 0.38011
 H743 H 0.79120 0.97592 0.39981
 H744 H 0.80689 0.98980 0.36776
 C745 C 0.86746 0.00762 1.23220
 C746 C 0.85743 0.01325 1.21749
 C747 C 0.84610 0.02012 1.19959
 C748 C 0.83302 0.03752 1.20073
 C749 C 0.82296 0.04490 1.18302
 C750 C 0.82589 0.03498 1.16389
 C751 C 0.83881 0.01730 1.16299
 C752 C 0.84885 0.00995 1.18072
 C753 C 0.81604 0.04342 1.14485
 C754 C 0.80781 0.03008 1.13005
 C755 C 0.79896 0.03812 1.11193
 C756 C 0.79826 0.05956 1.10837
 C757 C 0.80633 0.07292 1.12303
 C758 C 0.81516 0.06494 1.14113
 C759 C 0.78937 0.06799 1.08971
 C760 C 0.78203 0.07564 1.07429
 H761 H 0.83079 0.04552 1.21526
 H762 H 0.81290 0.05837 1.18428
 H763 H 0.84160 0.00948 1.14846
 H764 H 0.85905 -0.00345 1.17963
 H765 H 0.80805 0.01346 1.13257
 H766 H 0.79270 0.02764 1.10072
 H767 H 0.80592 0.08954 1.12040
 H768 H 0.82164 0.07559 1.15204
 C769 C 0.36658 0.50736 0.73099
 C770 C 0.35650 0.51277 0.71625
 C771 C 0.34512 0.51944 0.69830
 C772 C 0.34909 0.51019 0.67915
 C773 C 0.33899 0.51745 0.66141
 C774 C 0.32479 0.53411 0.66260
 C775 C 0.32064 0.54306 0.68201
 C776 C 0.33076 0.53577 0.69973
 C777 C 0.31490 0.54255 0.64359
 C778 C 0.31259 0.56409 0.64065
 C779 C 0.30381 0.57213 0.62255
 C780 C 0.29720 0.55880 0.60712
 C781 C 0.29931 0.53734 0.60991
 C782 C 0.30812 0.52925 0.62802
 C783 C 0.28842 0.56732 0.58844
 C784 C 0.28117 0.57505 0.57302
 H785 H 0.36027 0.49762 0.67785
 H786 H 0.34272 0.51040 0.64668
 H787 H 0.30960 0.55572 0.68348
 H788 H 0.32758 0.54305 0.71448
 H789 H 0.31795 0.57475 0.65217
 H790 H 0.30230 0.58878 0.62053
 H791 H 0.29420 0.52688 0.59809
 H792 H 0.30949 0.51260 0.62993
 C793 C 0.13334 0.50548 0.27038
 C794 C 0.14343 0.51045 0.28505
 C795 C 0.15484 0.51664 0.30287
 C796 C 0.14636 0.51374 0.32273
 C797 C 0.15684 0.52067 0.34007
 C798 C 0.17597 0.53064 0.33778
 C799 C 0.18454 0.53317 0.31776
 C800 C 0.17402 0.52622 0.30043
 C801 C 0.18648 0.53908 0.35612
 C802 C 0.19583 0.55864 0.35500
 C803 C 0.20472 0.56714 0.37253
 C804 C 0.20443 0.55623 0.39140
 C805 C 0.19549 0.53662 0.39262
 C806 C 0.18658 0.52807 0.37509
 C807 C 0.21256 0.56567 0.40961
 C808 C 0.21905 0.57423 0.42463
 H809 H 0.13147 0.50644 0.32478
 H810 H 0.14968 0.51875 0.35521
 H811 H 0.19935 0.54057 0.31551
 H812 H 0.18073 0.52853 0.28512
 H813 H 0.19574 0.56764 0.34074
 H814 H 0.21149 0.58239 0.37144
 H815 H 0.19517 0.52805 0.40715
 H816 H 0.17972 0.51288 0.37639
 C817 C 0.63319 0.00560 0.77184
 C818 C 0.64312 0.01051 0.78664
 C819 C 0.65437 0.01663 0.80459
 C820 C 0.64494 0.01551 0.82419
 C821 C 0.65538 0.02232 0.84160
 C822 C 0.67543 0.03039 0.83964
 C823 C 0.68491 0.03116 0.81990
 C824 C 0.67443 0.02433 0.80249
 C825 C 0.68602 0.03868 0.85800
 C826 C 0.69718 0.05723 0.85641
 C827 C 0.70616 0.06570 0.87390
 C828 C 0.70418 0.05577 0.89320
 C829 C 0.69343 0.03713 0.89491
 C830 C 0.68442 0.02862 0.87742
 C831 C 0.71239 0.06530 0.91132
 C832 C 0.71897 0.07394 0.92627
 H833 H 0.62938 0.00967 0.82597
 H834 H 0.64753 0.02180 0.85651
 H835 H 0.70042 0.03706 0.81792
 H836 H 0.68189 0.02525 0.78739
 H837 H 0.69844 0.06551 0.84177
 H838 H 0.71434 0.08021 0.87243
 H839 H 0.69179 0.02933 0.90978
 H840 H 0.67614 0.01420 0.87910
 C841 C 0.63367 0.99413 0.73654
 C842 C 0.64393 0.98938 0.72157
 C843 C 0.65549 0.98360 0.70331
 C844 C 0.65571 0.99677 0.68592
 C845 C 0.66576 0.99059 0.66768
 C846 C 0.67572 0.97112 0.66660
 C847 C 0.67574 0.95815 0.68430
 C848 C 0.66566 0.96436 0.70252
 C849 C 0.68534 0.96397 0.64689
 C850 C 0.70412 0.95273 0.64695
 C851 C 0.71249 0.94493 0.62851
 C852 C 0.70224 0.94829 0.60979
 C853 C 0.68376 0.95980 0.60950
 C854 C 0.67537 0.96763 0.62791
 C855 C 0.71003 0.93887 0.59113
 C856 C 0.71629 0.93029 0.57576
 H857 H 0.64785 1.01168 0.68636
 H858 H 0.66568 1.00101 0.65440
 H859 H 0.68301 0.94296 0.68388
 H860 H 0.66546 0.95398 0.71584
 H861 H 0.71228 0.94987 0.66126
 H862 H 0.72678 0.93600 0.62892
 H863 H 0.67561 0.96235 0.59511
 H864 H 0.66076 0.97597 0.62738
 C865 C 0.13339 0.49362 0.23522
 C866 C 0.14350 0.48869 0.22020
 C867 C 0.15491 0.48273 0.20191
 C868 C 0.15502 0.49576 0.18442
 C869 C 0.16501 0.48947 0.16618
 C870 C 0.17502 0.47001 0.16521
 C871 C 0.17513 0.45718 0.18301
 C872 C 0.16511 0.46350 0.20122
 C873 C 0.18464 0.46277 0.14554
 C874 C 0.20348 0.45161 0.14564
 C875 C 0.21189 0.44380 0.12724
 C876 C 0.20164 0.44704 0.10849
 C877 C 0.18310 0.45845 0.10816
 C878 C 0.17466 0.46629 0.12654
 C879 C 0.20952 0.43764 0.08985
 C880 C 0.21588 0.42909 0.07451
 H881 H 0.14715 0.51068 0.18478
 H882 H 0.16487 0.49979 0.15283
 H883 H 0.18244 0.44200 0.18268
 H884 H 0.16501 0.45324 0.21463
 H885 H 0.21165 0.44886 0.15997
 H886 H 0.22623 0.43495 0.12768
 H887 H 0.17495 0.46091 0.09376
 H888 H 0.16000 0.47456 0.12598
 C889 C -0.23274 0.36493 0.49421
 C890 C -0.21775 0.35492 0.48892
 C891 C -0.19953 0.34357 0.48249
 C892 C -0.19930 0.33284 0.46380
 C893 C -0.18124 0.32275 0.45702
 C894 C -0.16312 0.32331 0.46885
 C895 C -0.16360 0.33393 0.48775
 C896 C -0.18168 0.34399 0.49451
 C897 C -0.14369 0.31337 0.46119
 C898 C -0.12461 0.32335 0.46323
 C899 C -0.10643 0.31439 0.45528
 C900 C -0.10705 0.29533 0.44524
 C901 C -0.12590 0.28514 0.44338
 C902 C -0.14410 0.29408 0.45130
 C903 C -0.08854 0.28660 0.43611
 C904 C -0.07325 0.27936 0.42796
 H905 H -0.21299 0.33253 0.45431
 H906 H -0.18130 0.31496 0.44227
 H907 H -0.14999 0.33443 0.49732
 H908 H -0.18168 0.35228 0.50899
 H909 H -0.12381 0.33834 0.47050
 H910 H -0.09194 0.32247 0.45670
 H911 H -0.12656 0.27038 0.43562
 H912 H -0.15849 0.28589 0.44971
 C913 C 0.26871 0.86529 0.99452
 C914 C 0.28369 0.85520 0.98935
 C915 C 0.30190 0.84376 0.98306
 C916 C 0.30202 0.83256 0.96465
 C917 C 0.32005 0.82234 0.95799
 C918 C 0.33825 0.82323 0.96967
 C919 C 0.33788 0.83431 0.98830
 C920 C 0.31982 0.84450 0.99493
 C921 C 0.35765 0.81316 0.96211
 C922 C 0.37671 0.82326 0.96373
 C923 C 0.39485 0.81420 0.95580
 C924 C 0.39419 0.79491 0.94620
 C925 C 0.37537 0.78459 0.94479
 C926 C 0.35721 0.79363 0.95269
 C927 C 0.41262 0.78610 0.93697
 C928 C 0.42781 0.77880 0.92871
 H929 H 0.28827 0.83199 0.95527
 H930 H 0.31991 0.81419 0.94344
 H931 H 0.35155 0.83508 0.99775
 H932 H 0.31990 0.85315 1.00920
 H933 H 0.37752 0.83843 0.97063
 H934 H 0.40931 0.82238 0.95685
 H935 H 0.37468 0.76965 0.93737
 H936 H 0.34283 0.78535 0.95144
 C937 C 1.23347 0.86516 0.00689
 C938 C 1.21867 0.85502 0.01202
 C939 C 1.20063 0.84358 0.01824
 C940 C 1.18336 0.84336 0.00541
 C941 C 1.16535 0.83331 0.01194
 C942 C 1.16438 0.82335 0.03144
 C943 C 1.18195 0.82339 0.04409
 C944 C 1.19993 0.83347 0.03753
 C945 C 1.14496 0.81352 0.03885
 C946 C 1.14552 0.79461 0.04994
 C947 C 1.12728 0.78587 0.05769
 C948 C 1.10825 0.79587 0.05445
 C949 C 1.10748 0.81453 0.04319
 C950 C 1.12570 0.82329 0.03542
 C951 C 1.08966 0.78741 0.06344
 C952 C 1.07429 0.78042 0.07149
 H953 H 1.18372 0.85117 -0.00955
 H954 H 1.15218 0.83334 0.00176
 H955 H 1.18160 0.81612 0.05929
 H956 H 1.21316 0.83368 0.04764
 H957 H 1.16007 0.78659 0.05262
 H958 H 1.12805 0.77142 0.06639
 H959 H 1.09284 0.82246 0.04070
 H960 H 1.12477 0.83800 0.02719
 C961 C 0.73207 0.36471 0.50675
 C962 C 0.71728 0.35455 0.51185
 C963 C 0.69925 0.34308 0.51803
 C964 C 0.68188 0.34310 0.50532
 C965 C 0.66389 0.33300 0.51182
 C966 C 0.66302 0.32275 0.53117
 C967 C 0.68068 0.32254 0.54370
 C968 C 0.69865 0.33267 0.53717
 C969 C 0.64361 0.31287 0.53856
 C970 C 0.64420 0.29381 0.54939
 C971 C 0.62599 0.28501 0.55714
 C972 C 0.60696 0.29511 0.55418
 C973 C 0.60617 0.31391 0.54318
 C974 C 0.62436 0.32274 0.53539
 C975 C 0.58841 0.28660 0.56322
 C976 C 0.57308 0.27959 0.57133
 H977 H 0.68217 0.35114 0.49048
 H978 H 0.65065 0.33323 0.50172
 H979 H 0.68042 0.31503 0.55879
 H980 H 0.71196 0.33268 0.54720
 H981 H 0.65875 0.28571 0.55185
 H982 H 0.62678 0.27044 0.56565
 H983 H 0.59153 0.32193 0.54091
 H984 H 0.62341 0.33755 0.52738
 C985 C 0.27007 0.13169 0.50557
 C986 C 0.28477 0.14175 0.51049
 C987 C 0.30262 0.15316 0.51660
 C988 C 0.32244 0.14491 0.51308
 C989 C 0.33982 0.15537 0.51990
 C990 C 0.33760 0.17427 0.53039
 C991 C 0.31761 0.18261 0.53355
 C992 C 0.30024 0.17211 0.52671
 C993 C 0.35601 0.18476 0.53867
 C994 C 0.35524 0.19365 0.55845
 C995 C 0.37283 0.20259 0.56674
 C996 C 0.39141 0.20280 0.55541
 C997 C 0.39228 0.19427 0.53559
 C998 C 0.37470 0.18532 0.52725
 C999 C 0.40969 0.21104 0.56456
 C1000 C 0.42478 0.21766 0.57288
 H1001 H 0.32445 0.13019 0.50536
 H1002 H 0.35495 0.14839 0.51748
 H1003 H 0.31540 0.19724 0.54135
 H1004 H 0.28496 0.17864 0.52950
 H1005 H 0.34121 0.19319 0.56776
 H1006 H 0.37201 0.20902 0.58215
 H1007 H 0.40659 0.19435 0.52668
 H1008 H 0.37572 0.17880 0.51190
 C1009 C 0.77120 0.63243 0.00528
 C1010 C 0.78578 0.64274 0.01003
 C1011 C 0.80348 0.65446 0.01596
 C1012 C 0.82146 0.65413 0.00367
 C1013 C 0.83910 0.66448 0.01004
 C1014 C 0.83898 0.67529 0.02883
 C1015 C 0.82070 0.67581 0.04090
 C1016 C 0.80309 0.66545 0.03450
 C1017 C 0.85801 0.68531 0.03624
 C1018 C 0.85692 0.70460 0.04613
 C1019 C 0.87470 0.71342 0.05417
 C1020 C 0.89380 0.70311 0.05241
 C1021 C 0.89512 0.68411 0.04225
 C1022 C 0.87736 0.67527 0.03419
 C1023 C 0.91178 0.71144 0.06204
 C1024 C 0.92662 0.71814 0.07072
 H1025 H 0.82193 0.64565 -0.01071
 H1026 H 0.85285 0.66398 0.00031
 H1027 H 0.82019 0.68374 0.05558
 H1028 H 0.78929 0.66568 0.04420
 H1029 H 0.84230 0.71283 0.04773
 H1030 H 0.87350 0.72812 0.06204
 H1031 H 0.90979 0.67591 0.04094
 H1032 H 0.87868 0.66028 0.02692
 C1033 C 0.73617 0.63209 0.99327
 C1034 C 0.72122 0.64206 0.98792
 C1035 C 0.70304 0.65330 0.98139
 C1036 C 0.68369 0.64820 0.98982
 C1037 C 0.66582 0.65821 0.98268
 C1038 C 0.66706 0.67345 0.96695
 C1039 C 0.68664 0.67874 0.95884
 C1040 C 0.70450 0.66870 0.96601
 C1041 C 0.64796 0.68317 0.95848
 C1042 C 0.64607 0.68658 0.93701
 C1043 C 0.62784 0.69495 0.92887
 C1044 C 0.61123 0.70005 0.94203
 C1045 C 0.61299 0.69692 0.96342
 C1046 C 0.63124 0.68853 0.97162
 C1047 C 0.59233 0.70806 0.93334
 C1048 C 0.57675 0.71453 0.92534
 H1049 H 0.68239 0.63621 1.00165
 H1050 H 0.65098 0.65359 0.98904
 H1051 H 0.68812 0.69060 0.94692
 H1052 H 0.71940 0.67277 0.95938
 H1053 H 0.65850 0.68231 0.92645
 H1054 H 0.62660 0.69721 0.91228
 H1055 H 0.60024 0.70084 0.97375
 H1056 H 0.63231 0.68628 0.98822
 C1057 C 0.23499 0.13187 0.49365
 C1058 C 0.22008 0.14205 0.48857
 C1059 C 0.20191 0.15354 0.48242
 C1060 C 0.20135 0.16352 0.46307
 C1061 C 0.18326 0.17360 0.45656
 C1062 C 0.16545 0.17377 0.46933
 C1063 C 0.16629 0.16397 0.48890
 C1064 C 0.18440 0.15392 0.49538
 C1065 C 0.14590 0.18346 0.46191
 C1066 C 0.12685 0.17364 0.46550
 C1067 C 0.10858 0.18215 0.45753
 C1068 C 0.10908 0.20060 0.44593
 C1069 C 0.12788 0.21070 0.44260
 C1070 C 0.14617 0.20221 0.45054
 C1071 C 0.09053 0.20858 0.43648
 C1072 C 0.07524 0.21503 0.42794
 H1073 H 0.21477 0.16319 0.45285
 H1074 H 0.18302 0.18073 0.44130
 H1075 H 0.15292 0.16404 0.49917
 H1076 H 0.18467 0.14621 0.51038
 H1077 H 0.12616 0.15905 0.47394
 H1078 H 0.09414 0.17412 0.46007
 H1079 H 0.12844 0.22498 0.43361
 H1080 H 0.16054 0.21026 0.44774
 C1081 C 0.60736 0.01754 0.74824
 C1082 C 0.59706 0.03234 0.74295
 C1083 C 0.58537 0.05022 0.73618
 C1084 C 0.57495 0.04988 0.71734
 C1085 C 0.56477 0.06769 0.71001
 C1086 C 0.56492 0.08611 0.72142
 C1087 C 0.57511 0.08618 0.74055
 C1088 C 0.58528 0.06834 0.74786
 C1089 C 0.55530 0.10537 0.71292
 C1090 C 0.56538 0.12447 0.71454
 C1091 C 0.55704 0.14238 0.70533
 C1092 C 0.53851 0.14146 0.69446
 C1093 C 0.52813 0.12264 0.69314
 C1094 C 0.53644 0.10471 0.70232
 C1095 C 0.53081 0.15955 0.68366
 C1096 C 0.52475 0.17453 0.67408
 H1097 H 0.57505 0.03598 0.70811
 H1098 H 0.55733 0.06721 0.69509
 H1099 H 0.57530 0.10005 0.74980
 H1100 H 0.59333 0.06877 0.76246
 H1101 H 0.58005 0.12545 0.72233
 H1102 H 0.56528 0.15684 0.70632
 H1103 H 0.51379 0.12176 0.68473
 H1104 H 0.52820 0.09029 0.70103
 C1105 C 1.10737 0.51736 0.24692
 C1106 C 1.09712 0.53219 0.24159
 C1107 C 1.08547 0.55009 0.23481
 C1108 C 1.07535 0.54989 0.21580
 C1109 C 1.06520 0.56772 0.20848
 C1110 C 1.06508 0.58603 0.22009
 C1111 C 1.07497 0.58595 0.23938
 C1112 C 1.08511 0.56809 0.24667
 C1113 C 1.05547 0.60532 0.21165
 C1114 C 1.06540 0.62446 0.21363
 C1115 C 1.05709 0.64241 0.20451
 C1116 C 1.03873 0.64151 0.19335
 C1117 C 1.02849 0.62264 0.19166
 C1118 C 1.03678 0.60466 0.20076
 C1119 C 1.03108 0.65966 0.18263
 C1120 C 1.02507 0.67470 0.17311
 H1121 H 1.07567 0.53608 0.20643
 H1122 H 1.05800 0.56736 0.19344
 H1123 H 1.07495 0.59973 0.24878
 H1124 H 1.09293 0.56841 0.26140
 H1125 H 1.07995 0.62543 0.22165
 H1126 H 1.06522 0.65691 0.20579
 H1127 H 1.01429 0.62177 0.18302
 H1128 H 1.02865 0.59021 0.19918
 C1129 C 0.89336 0.98334 0.24307
 C1130 C 0.90351 0.96862 0.23742
 C1131 C 0.91498 0.95077 0.23034
 C1132 C 0.93142 0.95310 0.21624
 C1133 C 0.94165 0.93563 0.20834
 C1134 C 0.93551 0.91558 0.21443
 C1135 C 0.91921 0.91344 0.22892
 C1136 C 0.90902 0.93092 0.23679
 C1137 C 0.94538 0.89697 0.20506
 C1138 C 0.94934 0.87906 0.21711
 C1139 C 0.95744 0.86114 0.20795
 C1140 C 0.96171 0.86090 0.18665
 C1141 C 0.95820 0.87874 0.17461
 C1142 C 0.95012 0.89667 0.18373
 C1143 C 0.96872 0.84211 0.17690
 C1144 C 0.97408 0.82642 0.16833
 H1145 H 0.93614 0.96840 0.21112
 H1146 H 0.95428 0.93779 0.19739
 H1147 H 0.91391 0.89824 0.23368
 H1148 H 0.89622 0.92894 0.24759
 H1149 H 0.94609 0.87888 0.23361
 H1150 H 0.96009 0.84740 0.21741
 H1151 H 0.96132 0.87868 0.15808
 H1152 H 0.94697 0.91008 0.17397
 C1153 C 0.39285 0.48356 0.74204
 C1154 C 0.40322 0.46893 0.73652
 C1155 C 0.41490 0.45115 0.72960
 C1156 C 0.40947 0.43133 0.73663
 C1157 C 0.41980 0.41387 0.72889
 C1158 C 0.43569 0.41600 0.71396
 C1159 C 0.44133 0.43603 0.70731
 C1160 C 0.43097 0.45348 0.71508
 C1161 C 0.44562 0.39735 0.70469
 C1162 C 0.44980 0.39671 0.68327
 C1163 C 0.45787 0.37871 0.67428
 C1164 C 0.46191 0.36113 0.68654
 C1165 C 0.45822 0.36173 0.70793
 C1166 C 0.45014 0.37973 0.71697
 C1167 C 0.46884 0.34223 0.67696
 C1168 C 0.47408 0.32643 0.66852
 H1169 H 0.39696 0.42935 0.74778
 H1170 H 0.41488 0.39868 0.73410
 H1171 H 0.45366 0.43818 0.69602
 H1172 H 0.43528 0.46876 0.70952
 H1173 H 0.44622 0.40989 0.67335
 H1174 H 0.46055 0.37837 0.65768
 H1175 H 0.46128 0.34820 0.71757
 H1176 H 0.44732 0.37982 0.73353
 C1177 C 0.39221 0.51847 0.75457
 C1178 C 0.40206 0.53319 0.75986
 C1179 C 0.41319 0.55103 0.76650
 C1180 C 0.40447 0.57083 0.76396
 C1181 C 0.41462 0.58815 0.77141
 C1182 C 0.43366 0.58588 0.78155
 C1183 C 0.44247 0.56593 0.78373
 C1184 C 0.43228 0.54862 0.77625
 C1185 C 0.44379 0.60416 0.79057
 C1186 C 0.45286 0.60271 0.81023
 C1187 C 0.46134 0.62016 0.81929
 C1188 C 0.46091 0.63928 0.80885
 C1189 C 0.45226 0.64084 0.78912
 C1190 C 0.44376 0.62339 0.78002
 C1191 C 0.46853 0.65741 0.81884
 C1192 C 0.47456 0.67240 0.82780
 H1193 H 0.38963 0.57285 0.75655
 H1194 H 0.40728 0.60324 0.76977
 H1195 H 0.45721 0.56371 0.79125
 H1196 H 0.43916 0.53335 0.77831
 H1197 H 0.45287 0.58822 0.81889
 H1198 H 0.46789 0.61881 0.83462
 H1199 H 0.45185 0.65557 0.78090
 H1200 H 0.43712 0.62494 0.76476
 C1201 C -0.10668 0.01814 0.25584
 C1202 C -0.09653 0.03260 0.26125
 C1203 C -0.08501 0.05012 0.26806
 C1204 C -0.08384 0.06802 0.25565
 C1205 C -0.07382 0.08554 0.26286
 C1206 C -0.06485 0.08538 0.28261
 C1207 C -0.06580 0.06717 0.29480
 C1208 C -0.07584 0.04968 0.28756
 C1209 C -0.05531 0.10434 0.29085
 C1210 C -0.03714 0.10300 0.30259
 C1211 C -0.02891 0.12072 0.31139
 C1212 C -0.03868 0.14000 0.30855
 C1213 C -0.05652 0.14157 0.29658
 C1214 C -0.06478 0.12387 0.28775
 C1215 C -0.03107 0.15796 0.31885
 C1216 C -0.02506 0.17286 0.32798
 H1217 H -0.09092 0.06853 0.24053
 H1218 H -0.07314 0.09924 0.25302
 H1219 H -0.05933 0.06664 0.31018
 H1220 H -0.07678 0.03595 0.29735
 H1221 H -0.02936 0.08823 0.30504
 H1222 H -0.01510 0.11934 0.32066
 H1223 H -0.06429 0.15639 0.29440
 H1224 H -0.07892 0.12538 0.27905
 C1225 C 0.10747 0.48214 0.25931
 C1226 C 0.09724 0.46751 0.26476
 C1227 C 0.08557 0.44980 0.27156
 C1228 C 0.07846 0.44839 0.29208
 C1229 C 0.06824 0.43064 0.29910
 C1230 C 0.06503 0.41401 0.28568
 C1231 C 0.07191 0.41573 0.26497
 C1232 C 0.08212 0.43351 0.25797
 C1233 C 0.05538 0.39463 0.29354
 C1234 C 0.06340 0.37519 0.28762
 C1235 C 0.05525 0.35695 0.29607
 C1236 C 0.03894 0.35787 0.31049
 C1237 C 0.03054 0.37710 0.31614
 C1238 C 0.03868 0.39537 0.30772
 C1239 C 0.03171 0.33917 0.32039
 C1240 C 0.02625 0.32352 0.32916
 H1241 H 0.08118 0.46086 0.30276
 H1242 H 0.06342 0.42968 0.31520
 H1243 H 0.06946 0.40330 0.25421
 H1244 H 0.08758 0.43444 0.24205
 H1245 H 0.07643 0.37410 0.27698
 H1246 H 0.06197 0.34215 0.29170
 H1247 H 0.01794 0.37799 0.32733
 H1248 H 0.03201 0.41008 0.31239
 C1249 C 0.60762 0.98217 0.76022
 C1250 C 0.59750 0.96734 0.76530
 C1251 C 0.58598 0.94936 0.77159
 C1252 C 0.59342 0.92958 0.76655
 C1253 C 0.58295 0.91199 0.77357
 C1254 C 0.56487 0.91393 0.78578
 C1255 C 0.55730 0.93390 0.79047
 C1256 C 0.56781 0.95149 0.78342
 C1257 C 0.55454 0.89520 0.79432
 C1258 C 0.54713 0.89480 0.81491
 C1259 C 0.53873 0.87673 0.82346
 C1260 C 0.53756 0.85882 0.81157
 C1261 C 0.54445 0.85917 0.79093
 C1262 C 0.55286 0.87724 0.78234
 C1263 C 0.53051 0.83982 0.82099
 C1264 C 0.52524 0.82392 0.82939
 H1265 H 0.60753 0.92776 0.75749
 H1266 H 0.58935 0.89686 0.76996
 H1267 H 0.54330 0.93591 0.79964
 H1268 H 0.56192 0.96674 0.78741
 H1269 H 0.54847 0.90825 0.82463
 H1270 H 0.53360 0.87658 0.83950
 H1271 H 0.54365 0.84537 0.78160
 H1272 H 0.55819 0.87713 0.76638
 C1273 C 0.74778 0.60665 0.01773
 C1274 C 0.74243 0.59675 0.03279
 C1275 C 0.73562 0.58554 0.05097
 C1276 C 0.72606 0.56633 0.04912
 C1277 C 0.71834 0.55608 0.06674
 C1278 C 0.72006 0.56495 0.08643
 C1279 C 0.73004 0.58408 0.08815
 C1280 C 0.73775 0.59430 0.07052
 C1281 C 0.71070 0.55479 0.10501
 C1282 C 0.72082 0.55489 0.12418
 C1283 C 0.71136 0.54641 0.14190
 C1284 C 0.69172 0.53770 0.14067
 C1285 C 0.68170 0.53719 0.12161
 C1286 C 0.69111 0.54565 0.10389
 C1287 C 0.68135 0.53016 0.15906
 C1288 C 0.67214 0.52422 0.17431
 H1289 H 0.72432 0.55943 0.03405
 H1290 H 0.71094 0.54126 0.06495
 H1291 H 0.73133 0.59147 0.10303
 H1292 H 0.74501 0.60922 0.07210
 H1293 H 0.73600 0.56159 0.12548
 H1294 H 0.71925 0.54689 0.15658
 H1295 H 0.66643 0.53060 0.12052
 H1296 H 0.68279 0.54559 0.08945
 C1297 C 0.24647 1.10588 0.51758
 C1298 C 0.24107 1.09571 0.53244
 C1299 C 0.23422 1.08413 0.55037
 C1300 C 0.21512 1.07420 0.55025
 C1301 C 0.20779 1.06408 0.56809
 C1302 C 0.21947 1.06381 0.58634
 C1303 C 0.23883 1.07352 0.58619
 C1304 C 0.24614 1.08362 0.56831
 C1305 C 0.21104 1.05420 0.60564
 C1306 C 0.21322 1.06407 0.62478
 C1307 C 0.20415 1.05575 0.64276
 C1308 C 0.19285 1.03745 0.64186
 C1309 C 0.19095 1.02727 0.62299
 C1310 C 0.20000 1.03557 0.60498
 C1311 C 0.18225 1.02976 0.66006
 C1312 C 0.17286 1.02370 0.67516
 H1313 H 0.20571 1.07463 0.53648
 H1314 H 0.19270 1.05702 0.56779
 H1315 H 0.24828 1.07336 0.59992
 H1316 H 0.26094 1.09129 0.56858
 H1317 H 0.22136 1.07857 0.62576
 H1318 H 0.20559 1.06382 0.65727
 H1319 H 0.18221 1.01311 0.62212
 H1320 H 0.19827 1.02749 0.59053
 C1321 C 0.24475 0.89143 0.98320
 C1322 C 0.23930 0.90174 0.96850
 C1323 C 0.23239 0.91335 0.95067
 C1324 C 0.23831 0.90700 0.93080
 C1325 C 0.23047 0.91728 0.91336
 C1326 C 0.21653 0.93405 0.91556
 C1327 C 0.21101 0.94060 0.93562
 C1328 C 0.21888 0.93028 0.95305
 C1329 C 0.20707 0.94397 0.89701
 C1330 C 0.18590 0.94928 0.89706
 C1331 C 0.17664 0.95736 0.87921
 C1332 C 0.18839 0.96027 0.86108
 C1333 C 0.20954 0.95543 0.86097
 C1334 C 0.21884 0.94734 0.87882
 C1335 C 0.17845 0.96725 0.84239
 C1336 C 0.16972 0.97256 0.82678
 H1337 H 0.24866 0.89382 0.92878
 H1338 H 0.23480 0.91167 0.89816
 H1339 H 0.20051 0.95361 0.93782
 H1340 H 0.21418 0.93531 0.96837
 H1341 H 0.17634 0.94659 0.91070
 H1342 H 0.16023 0.96093 0.87943
 H1343 H 0.21878 0.95761 0.84701
 H1344 H 0.23521 0.94363 0.87837
 C1345 C 0.74324 0.39112 0.48315
 C1346 C 0.73773 0.40156 0.46856
 C1347 C 0.73074 0.41338 0.45090
 C1348 C 0.71043 0.42106 0.45043
 C1349 C 0.70310 0.43126 0.43272
 C1350 C 0.71600 0.43388 0.41518
 C1351 C 0.73654 0.42646 0.41597
 C1352 C 0.74384 0.41627 0.43372
 C1353 C 0.70774 0.44342 0.39589
 C1354 C 0.71277 0.43490 0.37649
 C1355 C 0.70394 0.44298 0.35842
 C1356 C 0.69001 0.45970 0.35947
 C1357 C 0.68522 0.46858 0.37863
 C1358 C 0.69404 0.46052 0.39674
 C1359 C 0.67978 0.46696 0.34105
 C1360 C 0.67081 0.47251 0.32565
 H1361 H 0.70011 0.41877 0.46359
 H1362 H 0.68713 0.43651 0.43250
 H1363 H 0.74692 0.42845 0.40282
 H1364 H 0.75959 0.41035 0.43391
 H1365 H 0.72302 0.42156 0.37534
 H1366 H 0.70763 0.43590 0.34369
 H1367 H 0.67442 0.48151 0.37963
 H1368 H 0.69005 0.46756 0.41140
 C1369 C 0.75543 0.39048 0.51813
 C1370 C 0.76060 0.40044 0.53282
 C1371 C 0.76716 0.41177 0.55056
 C1372 C 0.78584 0.42247 0.54983
 C1373 C 0.79291 0.43240 0.56745
 C1374 C 0.78138 0.43171 0.58609
 C1375 C 0.76244 0.42121 0.58656
 C1376 C 0.75540 0.41130 0.56890
 C1377 C 0.78954 0.44119 0.60511
 C1378 C 0.78788 0.43077 0.62434
 C1379 C 0.79665 0.43906 0.64204
 C1380 C 0.80714 0.45787 0.64079
 C1381 C 0.80853 0.46855 0.62183
 C1382 C 0.79978 0.46029 0.60411
 C1383 C 0.81741 0.46562 0.65869
 C1384 C 0.82655 0.47179 0.67351
 H1385 H 0.79514 0.42281 0.53576
 H1386 H 0.80769 0.44008 0.56667
 H1387 H 0.75311 0.42061 0.60059
 H1388 H 0.74092 0.40304 0.56964
 H1389 H 0.78035 0.41591 0.62558
 H1390 H 0.79561 0.43059 0.65661
 H1391 H 0.81665 0.48312 0.62069
 H1392 H 0.80110 0.46879 0.58959
 C1393 C 0.25677 -0.10905 0.01827
 C1394 C 0.26185 -0.09910 0.03300
 C1395 C 0.26828 -0.08786 0.05086
 C1396 C 0.26543 -0.09647 0.07067
 C1397 C 0.27274 -0.08626 0.08802
 C1398 C 0.28305 -0.06728 0.08577
 C1399 C 0.28552 -0.05857 0.06580
 C1400 C 0.27819 -0.06882 0.04846
 C1401 C 0.29196 -0.05713 0.10408
 C1402 C 0.31169 -0.04823 0.10279
 C1403 C 0.32064 -0.03975 0.12029
 C1404 C 0.31002 -0.04001 0.13930
 C1405 C 0.29024 -0.04849 0.14070
 C1406 C 0.28124 -0.05699 0.12320
 C1407 C 0.31988 -0.03239 0.15749
 C1408 C 0.32870 -0.02636 0.17256
 H1409 H 0.25789 -0.11128 0.07268
 H1410 H 0.27086 -0.09353 0.10312
 H1411 H 0.29318 -0.04387 0.06359
 H1412 H 0.28049 -0.06202 0.03319
 H1413 H 0.32047 -0.04836 0.08840
 H1414 H 0.33602 -0.03333 0.11907
 H1415 H 0.28189 -0.04877 0.15535
 H1416 H 0.26594 -0.06350 0.12463
 C1417 C 0.25889 0.10569 0.48240
 C1418 C 0.26427 0.09534 0.46783
 C1419 C 0.27097 0.08353 0.45017
 C1420 C 0.29154 0.07671 0.44855
 C1421 C 0.29846 0.06641 0.43080
 C1422 C 0.28488 0.06284 0.41440
 C1423 C 0.26412 0.06942 0.41636
 C1424 C 0.25723 0.07971 0.43413
 C1425 C 0.29262 0.05316 0.39500
 C1426 C 0.28633 0.06100 0.37561
 C1427 C 0.29469 0.05288 0.35732
 C1428 C 0.30939 0.03680 0.35815
 C1429 C 0.31540 0.02858 0.37735
 C1430 C 0.30706 0.03668 0.39566
 C1431 C 0.31926 0.02972 0.33940
 C1432 C 0.32802 0.02443 0.32371
 H1433 H 0.30233 0.07971 0.46082
 H1434 H 0.31459 0.06183 0.42965
 H1435 H 0.25325 0.06669 0.40411
 H1436 H 0.24128 0.08495 0.43523
 H1437 H 0.27548 0.07387 0.37457
 H1438 H 0.29005 0.05947 0.34255
 H1439 H 0.32681 0.01617 0.37817
 H1440 H 0.31202 0.03016 0.41034
 C1441 C 0.76029 0.60588 0.98258
 C1442 C 0.76574 0.59532 0.96819
 C1443 C 0.77248 0.58330 0.95070
 C1444 C 0.75848 0.57831 0.93525
 C1445 C 0.76533 0.56783 0.91757
 C1446 C 0.78631 0.56224 0.91512
 C1447 C 0.80018 0.56698 0.93095
 C1448 C 0.79330 0.57746 0.94860
 C1449 C 0.79394 0.55239 0.89576
 C1450 C 0.80920 0.53667 0.89639
 C1451 C 0.81737 0.52846 0.87805
 C1452 C 0.81037 0.53582 0.85886
 C1453 C 0.79487 0.55111 0.85808
 C1454 C 0.78668 0.55934 0.87639
 C1455 C 0.82001 0.52868 0.84001
 C1456 C 0.82855 0.52335 0.82422
 H1457 H 0.74233 0.58278 0.93672
 H1458 H 0.75424 0.56419 0.90577
 H1459 H 0.81647 0.56316 0.92940
 H1460 H 0.80429 0.58137 0.96040
 H1461 H 0.81492 0.53083 0.91106
 H1462 H 0.82940 0.51665 0.87883
 H1463 H 0.78946 0.55704 0.84331
 H1464 H 0.77517 0.57162 0.87536
 C1465 C 0.01609 0.74679 0.60733
 C1466 C 0.03097 0.74161 0.59711
 C1467 C 0.04892 0.73500 0.58547
 C1468 C 0.04890 0.71601 0.57527
 C1469 C 0.06677 0.70888 0.56510
 C1470 C 0.08494 0.72066 0.56504
 C1471 C 0.08468 0.73992 0.57502
 C1472 C 0.06678 0.74702 0.58518
 C1473 C 0.10426 0.71244 0.55537
 C1474 C 0.12334 0.71454 0.56532
 C1475 C 0.14134 0.70565 0.55692
 C1476 C 0.14054 0.69461 0.53845
 C1477 C 0.12173 0.69279 0.52820
 C1478 C 0.10370 0.70165 0.53658
 C1479 C 0.15877 0.68418 0.53065
 C1480 C 0.17389 0.67492 0.52450
 H1481 H 0.03520 0.70652 0.57553
 H1482 H 0.06655 0.69386 0.55783
 H1483 H 0.09835 0.74944 0.57504
 H1484 H 0.06697 0.76174 0.59306
 H1485 H 0.12424 0.72248 0.57994
 H1486 H 0.15580 0.70703 0.56505
 H1487 H 0.12093 0.68425 0.51390
 H1488 H 0.08930 0.69999 0.52843
 C1489 C 0.51671 0.24785 1.10756
 C1490 C 0.53164 0.24268 1.09741
 C1491 C 0.54965 0.23607 1.08586
 C1492 C 0.54954 0.21725 1.07536
 C1493 C 0.56744 0.21009 1.06527
 C1494 C 0.58573 0.22165 1.06561
 C1495 C 0.58558 0.24075 1.07590
 C1496 C 0.56764 0.24789 1.08597
 C1497 C 0.60508 0.21335 1.05605
 C1498 C 0.62405 0.21507 1.06628
 C1499 C 0.64205 0.20609 1.05798
 C1500 C 0.64135 0.19533 1.03933
 C1501 C 0.62265 0.19390 1.02881
 C1502 C 0.60462 0.20286 1.03709
 C1503 C 0.65955 0.18479 1.03162
 C1504 C 0.67464 0.17544 1.02554
 H1505 H 0.53574 0.20791 1.07531
 H1506 H 0.56714 0.19519 1.05776
 H1507 H 0.59935 0.25010 1.07623
 H1508 H 0.56790 0.26247 1.09409
 H1509 H 0.62486 0.22278 1.08104
 H1510 H 0.65641 0.20716 1.06633
 H1511 H 0.62194 0.18558 1.01437
 H1512 H 0.59031 0.20150 1.02873
 C1513 C 0.98423 0.24340 0.89311
 C1514 C 0.96962 0.23800 0.90356
 C1515 C 0.95191 0.23118 0.91537
 C1516 C 0.93506 0.24463 0.91858
 C1517 C 0.91724 0.23751 0.92873
 C1518 C 0.91604 0.21682 0.93576
 C1519 C 0.93324 0.20357 0.93284
 C1520 C 0.95104 0.21071 0.92268
 C1521 C 0.89663 0.20878 0.94521
 C1522 C 0.89724 0.19470 0.96203
 C1523 C 0.87901 0.18610 0.96998
 C1524 C 0.85995 0.19147 0.96125
 C1525 C 0.85914 0.20578 0.94481
 C1526 C 0.87734 0.21441 0.93685
 C1527 C 0.84137 0.18146 0.96835
 C1528 C 0.82584 0.17267 0.97377
 H1529 H 0.93557 0.26050 0.91294
 H1530 H 0.90434 0.24815 0.93096
 H1531 H 0.93271 0.18749 0.93779
 H1532 H 0.96394 0.20013 0.92014
 H1533 H 0.91182 0.19026 0.96895
 H1534 H 0.87981 0.17501 0.98269
 H1535 H 0.84448 0.20993 0.93784
 H1536 H 0.87637 0.22495 0.92371
 C1537 C 0.48400 0.74431 0.39389
 C1538 C 0.46935 0.73881 0.40421
 C1539 C 0.45160 0.73187 0.41588
 C1540 C 0.45067 0.71131 0.42292
 C1541 C 0.43285 0.70408 0.43296
 C1542 C 0.41567 0.71734 0.43604
 C1543 C 0.41692 0.73811 0.42927
 C1544 C 0.43477 0.74531 0.41924
 C1545 C 0.39624 0.70922 0.44538
 C1546 C 0.37696 0.71500 0.43708
 C1547 C 0.35874 0.70631 0.44492
 C1548 C 0.35952 0.69179 0.46118
 C1549 C 0.37856 0.68626 0.46985
 C1550 C 0.39681 0.69493 0.46202
 C1551 C 0.34091 0.68171 0.46813
 C1552 C 0.32537 0.67287 0.47341
 H1553 H 0.46355 0.70074 0.42026
 H1554 H 0.43227 0.68794 0.43770
 H1555 H 0.40404 0.74874 0.43163
 H1556 H 0.43532 0.76125 0.41382
 H1557 H 0.37601 0.72572 0.42408
 H1558 H 0.34409 0.71058 0.43800
 H1559 H 0.37934 0.67501 0.48242
 H1560 H 0.41138 0.69037 0.46890
 C1561 C 0.51883 0.75684 0.39348
 C1562 C 0.53341 0.76222 0.40345
 C1563 C 0.55108 0.76899 0.41472
 C1564 C 0.54844 0.77995 0.43314
 C1565 C 0.56564 0.78759 0.44336
 C1566 C 0.58571 0.78437 0.43524
 C1567 C 0.58820 0.77300 0.41691
 C1568 C 0.57100 0.76539 0.40673
 C1569 C 0.60391 0.79356 0.44530
 C1570 C 0.62280 0.78255 0.44645
 C1571 C 0.64022 0.79173 0.45486
 C1572 C 0.63898 0.81201 0.46224
 C1573 C 0.62018 0.82295 0.46149
 C1574 C 0.60276 0.81380 0.45311
 C1575 C 0.65712 0.82199 0.46977
 C1576 C 0.67216 0.83089 0.47571
 H1577 H 0.53308 0.78283 0.43946
 H1578 H 0.56323 0.79606 0.45757
 H1579 H 0.60340 0.77052 0.41009
 H1580 H 0.57320 0.75703 0.39240
 H1581 H 0.62411 0.76686 0.44079
 H1582 H 0.65470 0.78313 0.45536
 H1583 H 0.61908 0.83870 0.46706
 H1584 H 0.58855 0.82280 0.45218
 C1585 C 0.01916 0.25562 -0.10764
 C1586 C 0.03386 0.26090 -0.09778
 C1587 C 0.05164 0.26757 -0.08663
 C1588 C 0.07142 0.26494 -0.09531
 C1589 C 0.08869 0.27245 -0.08516
 C1590 C 0.08640 0.28274 -0.06618
 C1591 C 0.06647 0.28499 -0.05739
 C1592 C 0.04921 0.27746 -0.06758
 C1593 C 0.10463 0.29184 -0.05609
 C1594 C 0.10319 0.31159 -0.04716
 C1595 C 0.12061 0.32073 -0.03876
 C1596 C 0.13969 0.31027 -0.03910
 C1597 C 0.14123 0.29047 -0.04760
 C1598 C 0.12381 0.28129 -0.05603
 C1599 C 0.15778 0.32032 -0.03156
 C1600 C 0.17277 0.32930 -0.02561
 H1601 H 0.07346 0.25742 -0.11011
 H1602 H 0.10376 0.27074 -0.09248
 H1603 H 0.06424 0.29262 -0.04268
 H1604 H 0.03396 0.27958 -0.06073
 H1605 H 0.08874 0.32025 -0.04724
 H1606 H 0.11928 0.33612 -0.03233
 H1607 H 0.15593 0.28224 -0.04797
 H1608 H 0.12536 0.26598 -0.06258
 C1609 C 0.48154 0.26015 0.10736
 C1610 C 0.46703 0.26566 0.09701
 C1611 C 0.44943 0.27248 0.08522
 C1612 C 0.43347 0.25872 0.08118
 C1613 C 0.41576 0.26569 0.07087
 C1614 C 0.41381 0.28655 0.06447
 C1615 C 0.43013 0.30015 0.06827
 C1616 C 0.44780 0.29315 0.07859
 C1617 C 0.39450 0.29435 0.05472
 C1618 C 0.39524 0.30894 0.03835
 C1619 C 0.37699 0.31730 0.03016
 C1620 C 0.35779 0.31115 0.03817
 C1621 C 0.35688 0.29630 0.05413
 C1622 C 0.37509 0.28793 0.06234
 C1623 C 0.33909 0.32099 0.03095
 C1624 C 0.32346 0.32971 0.02550
 H1625 H 0.43457 0.24268 0.08627
 H1626 H 0.40357 0.25480 0.06797
 H1627 H 0.42897 0.31636 0.06383
 H1628 H 0.46002 0.30396 0.08176
 H1629 H 0.40993 0.31400 0.03199
 H1630 H 0.37787 0.32882 0.01783
 H1631 H 0.34210 0.29155 0.06056
 H1632 H 0.37399 0.27695 0.07512
 C1633 C 0.98100 0.75934 0.60732
 C1634 C 0.96649 0.76500 0.59705
 C1635 C 0.94889 0.77199 0.58536
 C1636 C 0.94734 0.79272 0.57891
 C1637 C 0.92967 0.79989 0.56868
 C1638 C 0.91328 0.78639 0.56481
 C1639 C 0.91515 0.76548 0.57104
 C1640 C 0.93285 0.75834 0.58125
 C1641 C 0.89398 0.79436 0.55515
 C1642 C 0.87456 0.78797 0.56276
 C1643 C 0.85637 0.79649 0.55464
 C1644 C 0.85732 0.81145 0.53879
 C1645 C 0.87654 0.81758 0.53080
 C1646 C 0.89476 0.80908 0.53890
 C1647 C 0.83865 0.82142 0.53167
 C1648 C 0.82305 0.83025 0.52629
 H1649 H 0.95960 0.80345 0.58214
 H1650 H 0.92857 0.81613 0.56438
 H1651 H 0.90290 0.75467 0.56808
 H1652 H 0.93389 0.74226 0.58620
 H1653 H 0.87343 0.77690 0.57545
 H1654 H 0.84158 0.79176 0.56106
 H1655 H 0.87745 0.82919 0.51856
 H1656 H 0.90946 0.81411 0.53254
   
