data_POSCAR
  _audit_creation_date              2014-09-24
  _audit_creation_method            'ToBaCCo'
  _symmetry_space_group_name_H-M    'P1'
  _symmetry_Int_Tables_number       1
  _symmetry_cell_setting            triclinic
  loop_
  _symmetry_equiv_pos_as_xyz
 x,y,z
_cell_length_a 69.3959
_cell_length_b 68.4622
_cell_length_c 68.0305
_cell_angle_alpha 90.789300
_cell_angle_beta 90.770200
_cell_angle_gamma 92.859400
loop_
  _atom_site_label
  _atom_site_type_symbol
  _atom_site_fract_x
  _atom_site_fract_y
  _atom_site_fract_z
N1 N 0.18077 0.22103 0.22851
 N2 N 0.18587 0.20587 0.23862
 C3 C 0.17319 0.20263 0.25315
 C4 C 0.15939 0.21653 0.25212
 C5 C 0.16472 0.22799 0.23629
 H6 H 0.17393 0.19099 0.26365
 H7 H 0.15724 0.24019 0.23051
 Cu8 Cu 0.20823 0.19156 0.23143
 Cu9 Cu 0.19481 0.23013 0.20557
 Cu10 Cu 0.23466 0.20459 0.19223
 N11 N 0.23065 0.17750 0.22394
 N12 N 0.24092 0.18261 0.20860
 C13 C 0.25534 0.17034 0.20657
 C14 C 0.25404 0.15673 0.22145
 C15 C 0.23818 0.16179 0.23219
 H16 H 0.26579 0.17114 0.19494
 H17 H 0.23252 0.15460 0.24507
 N18 N 0.22594 0.22727 0.17765
 N19 N 0.21085 0.23703 0.18283
 C20 C 0.20851 0.25155 0.17003
 C21 C 0.22280 0.25095 0.15606
 C22 C 0.23358 0.23533 0.16139
 H23 H 0.19704 0.26163 0.17067
 H24 H 0.24613 0.23024 0.15403
 H25 H 0.20548 0.20340 0.19794
 H26 H 0.22126 0.22000 0.21395
 N27 N 0.68433 0.71997 0.72681
 N28 N 0.69015 0.70517 0.73701
 C29 C 0.67824 0.70213 0.75223
 C30 C 0.66415 0.71574 0.75153
 C31 C 0.66852 0.72684 0.73515
 H32 H 0.67961 0.69070 0.76288
 H33 H 0.66089 0.73907 0.72970
 Cu34 Cu 0.71257 0.69120 0.72930
 Cu35 Cu 0.69757 0.72922 0.70344
 Cu36 Cu 0.73807 0.70497 0.68974
 N37 N 0.73552 0.67806 0.72169
 N38 N 0.74537 0.68344 0.70615
 C39 C 0.76029 0.67183 0.70404
 C40 C 0.75981 0.65841 0.71909
 C41 C 0.74387 0.66284 0.73002
 H42 H 0.77072 0.67314 0.69242
 H43 H 0.73856 0.65535 0.74289
 N44 N 0.72836 0.72709 0.67506
 N45 N 0.71296 0.73633 0.68028
 C46 C 0.71011 0.75074 0.66747
 C47 C 0.72440 0.75060 0.65347
 C48 C 0.73570 0.73537 0.65878
 H49 H 0.69840 0.76054 0.66823
 H50 H 0.74849 0.73081 0.65149
 H51 H 0.70893 0.70289 0.69583
 H52 H 0.72438 0.72002 0.71164
 N53 N 0.31683 0.76846 0.74375
 N54 N 0.30974 0.78295 0.75373
 C55 C 0.32135 0.78750 0.76931
 C56 C 0.33644 0.77503 0.76921
 C57 C 0.33308 0.76312 0.75277
 H58 H 0.31894 0.79895 0.77998
 H59 H 0.34209 0.75180 0.74747
 Cu60 Cu 0.28592 0.79427 0.74551
 Cu61 Cu 0.30490 0.75826 0.71936
 Cu62 Cu 0.26540 0.78219 0.70168
 N63 N 0.26636 0.80990 0.73384
 N64 N 0.25791 0.80492 0.71700
 C65 C 0.24476 0.81809 0.71264
 C66 C 0.24508 0.83228 0.72753
 C67 C 0.25909 0.82646 0.74069
 H68 H 0.23598 0.81752 0.69938
 H69 H 0.26369 0.83357 0.75436
 N70 N 0.27550 0.75897 0.68846
 N71 N 0.29080 0.75019 0.69500
 C72 C 0.29488 0.73578 0.68229
 C73 C 0.28149 0.73535 0.66704
 C74 C 0.26935 0.75020 0.67149
 H75 H 0.30681 0.72634 0.68392
 H76 H 0.25737 0.75472 0.66262
 H77 H 0.29356 0.78474 0.71211
 H78 H 0.27700 0.76630 0.72413
 N79 N 0.81082 0.26778 0.23000
 N80 N 0.80703 0.28491 0.23754
 C81 C 0.81990 0.28964 0.25201
 C82 C 0.83246 0.27457 0.25386
 C83 C 0.82608 0.26087 0.23962
 H84 H 0.81993 0.30300 0.26062
 H85 H 0.83230 0.24713 0.23602
 Cu86 Cu 0.78544 0.29928 0.22794
 Cu87 Cu 0.79602 0.25605 0.20784
 Cu88 Cu 0.76165 0.28472 0.18672
 N89 N 0.76328 0.31286 0.21848
 N90 N 0.75417 0.30720 0.20217
 C91 C 0.73957 0.31897 0.19882
 C92 C 0.73947 0.33286 0.21383
 C93 C 0.75478 0.32850 0.22604
 H94 H 0.72980 0.31752 0.18632
 H95 H 0.75928 0.33599 0.23954
 N96 N 0.77103 0.26122 0.17380
 N97 N 0.78366 0.24992 0.18198
 C98 C 0.78700 0.23508 0.16942
 C99 C 0.77595 0.23721 0.15251
 C100 C 0.76601 0.25392 0.15592
 H101 H 0.79712 0.22390 0.17215
 H102 H 0.75576 0.26028 0.14611
 H103 H 0.79018 0.28289 0.19677
 H104 H 0.77047 0.27050 0.21124
 N105 N 0.80274 0.72783 0.27043
 N106 N 0.79646 0.71198 0.26076
 C107 C 0.80929 0.70775 0.24686
 C108 C 0.82449 0.72167 0.24780
 C109 C 0.81977 0.73421 0.26300
 H110 H 0.80758 0.69547 0.23673
 H111 H 0.82811 0.74698 0.26837
 Cu112 Cu 0.77217 0.69834 0.26732
 Cu113 Cu 0.78845 0.73890 0.29209
 Cu114 Cu 0.74491 0.71492 0.30367
 N115 N 0.74783 0.68493 0.27412
 N116 N 0.73706 0.69172 0.28813
 C117 C 0.72132 0.67965 0.29014
 C118 C 0.72227 0.66435 0.27672
 C119 C 0.73933 0.66822 0.26680
 H120 H 0.71033 0.68151 0.30103
 H121 H 0.74519 0.65942 0.25522
 N122 N 0.75526 0.73855 0.31777
 N123 N 0.77181 0.74773 0.31348
 C124 C 0.77510 0.76280 0.32627
 C125 C 0.75994 0.76303 0.33931
 C126 C 0.74764 0.74747 0.33338
 H127 H 0.78787 0.77252 0.32648
 H128 H 0.73418 0.74282 0.34007
 H129 H 0.77441 0.71303 0.30018
 H130 H 0.76162 0.72848 0.28230
 N131 N 0.31157 0.23433 -0.22800
 N132 N 0.30729 0.21805 -0.23792
 C133 C 0.32071 0.21567 -0.25174
 C134 C 0.33428 0.23129 -0.25047
 C135 C 0.32788 0.24282 -0.23512
 H136 H 0.32061 0.20334 -0.26181
 H137 H 0.33447 0.25643 -0.22948
 Cu138 Cu 0.28478 0.20140 -0.23148
 Cu139 Cu 0.29564 0.24330 -0.20658
 Cu140 Cu 0.25504 0.21401 -0.19549
 N141 N 0.26207 0.18501 -0.22512
 N142 N 0.25037 0.19013 -0.21113
 C143 C 0.23613 0.17619 -0.20946
 C144 C 0.23908 0.16143 -0.22308
 C145 C 0.25570 0.16758 -0.23276
 H146 H 0.22479 0.17651 -0.19874
 H147 H 0.26268 0.15988 -0.24443
 N148 N 0.26225 0.23869 -0.18133
 N149 N 0.27769 0.24983 -0.18548
 C150 C 0.27887 0.26525 -0.17291
 C151 C 0.26347 0.26375 -0.16017
 C152 C 0.25324 0.24672 -0.16603
 H153 H 0.29036 0.27650 -0.17275
 H154 H 0.24025 0.24050 -0.15955
 H155 H 0.28470 0.21599 -0.19857
 H156 H 0.27017 0.22958 -0.21661
 N157 N 0.68241 0.27638 -0.23385
 N158 N 0.68676 0.29411 -0.24007
 C159 C 0.67309 0.29933 -0.25290
 C160 C 0.65933 0.28397 -0.25505
 C161 C 0.66587 0.26961 -0.24267
 H162 H 0.67348 0.31319 -0.26032
 H163 H 0.65902 0.25541 -0.23993
 Cu164 Cu 0.71008 0.30873 -0.23143
 Cu165 Cu 0.69820 0.26385 -0.21419
 Cu166 Cu 0.74294 0.28647 -0.20397
 N167 N 0.73660 0.31899 -0.22894
 N168 N 0.74946 0.31021 -0.21836
 C169 C 0.76645 0.32054 -0.21906
 C170 C 0.76415 0.33672 -0.23075
 C171 C 0.74494 0.33518 -0.23677
 H172 H 0.77939 0.31671 -0.21132
 H173 H 0.73750 0.34505 -0.24614
 N174 N 0.73353 0.26240 -0.19094
 N175 N 0.71643 0.25378 -0.19471
 C176 C 0.71399 0.23815 -0.18299
 C177 C 0.73040 0.23685 -0.17131
 C178 C 0.74244 0.25250 -0.17682
 H179 H 0.70118 0.22851 -0.18292
 H180 H 0.75649 0.25670 -0.17065
 H181 H 0.71317 0.28835 -0.20265
 H182 H 0.72296 0.27706 -0.22549
 N183 N 0.18026 0.77358 0.26015
 N184 N 0.18439 0.79090 0.25279
 C185 C 0.17186 0.79416 0.23806
 C186 C 0.15906 0.77803 0.23611
 C187 C 0.16490 0.76525 0.25041
 H188 H 0.17182 0.80749 0.22974
 H189 H 0.15842 0.75100 0.25365
 Cu190 Cu 0.20518 0.80796 0.26355
 Cu191 Cu 0.19458 0.76360 0.28236
 Cu192 Cu 0.23579 0.79068 0.29724
 N193 N 0.22995 0.82118 0.26963
 N194 N 0.24203 0.81435 0.28253
 C195 C 0.25779 0.82661 0.28397
 C196 C 0.25544 0.84214 0.27132
 C197 C 0.23751 0.83801 0.26243
 H198 H 0.26977 0.82453 0.29389
 H199 H 0.23031 0.84654 0.25159
 N200 N 0.22680 0.76636 0.31020
 N201 N 0.21105 0.75610 0.30454
 C202 C 0.20818 0.74094 0.31673
 C203 C 0.22282 0.74164 0.33080
 C204 C 0.23439 0.75796 0.32613
 H205 H 0.19618 0.73030 0.31555
 H206 H 0.24706 0.76367 0.33410
 H207 H 0.20609 0.78984 0.29411
 H208 H 0.21990 0.77832 0.27392
 N209 N 0.47142 0.43159 0.48710
 N210 N 0.45633 0.43604 0.49739
 C211 C 0.45354 0.42270 0.51157
 C212 C 0.46763 0.40910 0.51013
 C213 C 0.47875 0.41530 0.49438
 H214 H 0.44207 0.42289 0.52214
 H215 H 0.49104 0.40830 0.48840
 Cu216 Cu 0.44157 0.45860 0.49094
 Cu217 Cu 0.48011 0.44702 0.46469
 Cu218 Cu 0.45412 0.48746 0.45318
 N219 N 0.42715 0.48142 0.48456
 N220 N 0.43214 0.49260 0.46975
 C221 C 0.41976 0.50705 0.46829
 C222 C 0.40621 0.50488 0.48300
 C223 C 0.41142 0.48842 0.49305
 H224 H 0.42061 0.51829 0.45729
 H225 H 0.40410 0.48184 0.50542
 N226 N 0.47679 0.47981 0.43821
 N227 N 0.48663 0.46442 0.44259
 C228 C 0.50094 0.46284 0.42957
 C229 C 0.50014 0.47795 0.41627
 C230 C 0.48461 0.48842 0.42228
 H231 H 0.51115 0.45145 0.42977
 H232 H 0.47918 0.50119 0.41537
 H233 H 0.46954 0.47313 0.47428
 H234 H 0.45359 0.45761 0.45744
 N235 N -0.02149 -0.07238 0.98329
 N236 N -0.03650 -0.06634 0.99277
 C237 C -0.04002 -0.07813 1.00813
 C238 C -0.02649 -0.09239 1.00835
 C239 C -0.01494 -0.08819 0.99231
 H240 H -0.05176 -0.07658 1.01819
 H241 H -0.00285 -0.09617 0.98730
 Cu242 Cu -0.05044 -0.04417 0.98353
 Cu243 Cu -0.01197 -0.05970 0.95956
 Cu244 Cu -0.03665 -0.02007 0.94304
 N245 N -0.06417 -0.02185 0.97433
 N246 N -0.05873 -0.01258 0.95840
 C247 C -0.07071 0.00190 0.95500
 C248 C -0.08449 0.00176 0.96958
 C249 C -0.07983 -0.01354 0.98162
 H250 H -0.06939 0.01184 0.94284
 H251 H -0.08745 -0.01844 0.99454
 N252 N -0.01396 -0.02989 0.92955
 N253 N -0.00459 -0.04495 0.93586
 C254 C 0.00990 -0.04825 0.92348
 C255 C 0.00973 -0.03465 0.90857
 C256 C -0.00564 -0.02323 0.91299
 H257 H 0.01979 -0.05982 0.92519
 H258 H -0.01059 -0.01111 0.90463
 H259 H -0.02188 -0.03238 0.96589
 H260 H -0.03804 -0.04921 0.95057
 N261 N 1.03043 0.58013 0.97473
 N262 N 1.04637 0.57661 0.98441
 C263 C 1.04799 0.58878 1.00024
 C264 C 1.03211 0.60039 1.00041
 C265 C 1.02143 0.59445 0.98391
 H266 H 1.05962 0.58894 1.01099
 H267 H 1.00805 0.60017 0.97884
 Cu268 Cu 1.06293 0.55607 0.97529
 Cu269 Cu 1.02179 0.56584 0.95121
 Cu270 Cu 1.04931 0.52834 0.93543
 N271 N 1.07772 0.53403 0.96648
 N272 N 1.07219 0.52349 0.95092
 C273 C 1.08423 0.50896 0.94837
 C274 C 1.09814 0.51022 0.96312
 C275 C 1.09362 0.52642 0.97435
 H276 H 1.08279 0.49811 0.93669
 H277 H 1.10097 0.53185 0.98759
 N278 N 1.02565 0.53543 0.92166
 N279 N 1.01521 0.54984 0.92771
 C280 C 0.99985 0.55102 0.91560
 C281 C 1.00059 0.53664 0.90117
 C282 C 1.01718 0.52702 0.90551
 H283 H 0.98877 0.56140 0.91737
 H284 H 1.02272 0.51483 0.89748
 H285 H 1.03486 0.54033 0.95860
 H286 H 1.04871 0.55767 0.94235
 N287 N 0.54129 0.08911 0.47464
 N288 N 0.55719 0.08437 0.48372
 C289 C 0.56161 0.09783 0.49798
 C290 C 0.54778 0.11180 0.49760
 C291 C 0.53516 0.10572 0.48260
 H292 H 0.57392 0.09754 0.50785
 H293 H 0.52213 0.11256 0.47815
 Cu294 Cu 0.57038 0.06105 0.47573
 Cu295 Cu 0.52889 0.07312 0.45384
 Cu296 Cu 0.55094 0.03091 0.44039
 N297 N 0.58247 0.03698 0.46805
 N298 N 0.57467 0.02543 0.45423
 C299 C 0.58549 0.00989 0.45176
 C300 C 0.60102 0.01162 0.46474
 C301 C 0.59866 0.02908 0.47486
 H302 H 0.58227 -0.00179 0.44121
 H303 H 0.60784 0.03537 0.48650
 N304 N 0.52687 0.03893 0.42806
 N305 N 0.51848 0.05506 0.43315
 C306 C 0.50240 0.05654 0.42210
 C307 C 0.50056 0.04057 0.40938
 C308 C 0.51637 0.02973 0.41361
 H309 H 0.49287 0.06851 0.42306
 H310 H 0.51995 0.01609 0.40673
 H311 H 0.53966 0.04707 0.46297
 H312 H 0.55367 0.06090 0.44392
 N313 N -0.03183 0.08878 0.53211
 N314 N -0.04609 0.08137 0.52102
 C315 C -0.04948 0.09373 0.50632
 C316 C -0.03666 0.10984 0.50817
 C317 C -0.02565 0.10614 0.52479
 H318 H -0.06030 0.09098 0.49493
 H319 H -0.01388 0.11524 0.53102
 Cu320 Cu -0.05870 0.05611 0.52643
 Cu321 Cu -0.02213 0.07499 0.55486
 Cu322 Cu -0.04500 0.03010 0.56517
 N323 N -0.07151 0.03109 0.53250
 N324 N -0.06610 0.02097 0.54769
 C325 C -0.07735 0.00443 0.54863
 C326 C -0.09061 0.00415 0.53319
 C327 C -0.08642 0.02135 0.52327
 H328 H -0.07613 -0.00640 0.55993
 H329 H -0.09366 0.02640 0.51029
 N330 N -0.02338 0.04175 0.58110
 N331 N -0.01454 0.05874 0.57720
 C332 C -0.00010 0.06227 0.59045
 C333 C 0.00010 0.04677 0.60335
 C334 C -0.01488 0.03408 0.59691
 H335 H 0.00957 0.07514 0.59066
 H336 H -0.01900 0.02002 0.60300
 H337 H -0.03015 0.04716 0.54487
 H338 H -0.04777 0.05970 0.56054
 N339 N 0.47177 0.58100 0.02957
 N340 N 0.45613 0.57464 0.01988
 C341 C 0.45385 0.58556 0.00384
 C342 C 0.46876 0.59973 0.00340
 C343 C 0.47987 0.59643 0.02006
 H344 H 0.44214 0.58335 -0.00670
 H345 H 0.49305 0.60437 0.02467
 Cu346 Cu 0.44007 0.55273 0.02894
 Cu347 Cu 0.48070 0.56798 0.05326
 Cu348 Cu 0.45494 0.52516 0.06578
 N349 N 0.42744 0.52748 0.03410
 N350 N 0.43313 0.51680 0.04876
 C351 C 0.42166 0.50038 0.04947
 C352 C 0.40805 0.50074 0.03436
 C353 C 0.41226 0.51820 0.02489
 H354 H 0.42295 0.48921 0.06041
 H355 H 0.40485 0.52382 0.01226
 N356 N 0.47738 0.53605 0.08109
 N357 N 0.48717 0.55236 0.07655
 C358 C 0.50170 0.55558 0.08978
 C359 C 0.50107 0.54049 0.10319
 C360 C 0.48541 0.52847 0.09720
 H361 H 0.51222 0.56776 0.08942
 H362 H 0.48020 0.51516 0.10412
 H363 H 0.46912 0.54106 0.04406
 H364 H 0.45471 0.55516 0.06177
 N365 N 0.52886 -0.07667 0.02452
 N366 N 0.54616 -0.07324 0.01735
 C367 C 0.54807 -0.08453 0.00119
 C368 C 0.53097 -0.09558 -0.00194
 C369 C 0.51913 -0.09013 0.01316
 H370 H 0.56095 -0.08470 -0.00756
 H371 H 0.50471 -0.09597 0.01606
 Cu372 Cu 0.56471 -0.05475 0.03008
 Cu373 Cu 0.52064 -0.06446 0.04868
 Cu374 Cu 0.55058 -0.02727 0.06850
 N375 N 0.57962 -0.03152 0.03925
 N376 N 0.57402 -0.02072 0.05402
 C377 C 0.58671 -0.00534 0.05666
 C378 C 0.60110 -0.00659 0.04281
 C379 C 0.59608 -0.02344 0.03204
 H380 H 0.58549 0.00594 0.06778
 H381 H 0.60351 -0.02912 0.01948
 N382 N 0.52617 -0.03632 0.08080
 N383 N 0.51481 -0.05050 0.07308
 C384 C 0.49926 -0.05330 0.08446
 C385 C 0.50077 -0.04023 0.10015
 C386 C 0.51810 -0.02970 0.09736
 H387 H 0.48770 -0.06415 0.08154
 H388 H 0.52422 -0.01788 0.10652
 H389 H 0.53717 -0.03888 0.04355
 H390 H 0.54754 -0.05653 0.06112
 N391 N 1.03738 0.41683 0.52078
 N392 N 1.05355 0.42210 0.51208
 C393 C 1.05559 0.41052 0.49615
 C394 C 1.03980 0.39725 0.49481
 C395 C 1.02857 0.40179 0.51075
 H396 H 1.06772 0.41160 0.48638
 H397 H 1.01498 0.39473 0.51485
 Cu398 Cu 1.07019 0.44361 0.52262
 Cu399 Cu 1.02885 0.42969 0.54448
 Cu400 Cu 1.05811 0.46804 0.56366
 N401 N 1.08654 0.46516 0.53347
 N402 N 1.08172 0.47474 0.54940
 C403 C 1.09519 0.48918 0.55329
 C404 C 1.10927 0.48862 0.53904
 C405 C 1.10325 0.47315 0.52673
 H406 H 1.09471 0.49935 0.56554
 H407 H 1.11026 0.46838 0.51355
 N408 N 1.03360 0.45891 0.57580
 N409 N 1.02254 0.44435 0.56832
 C410 C 1.00668 0.44187 0.57930
 C411 C 1.00766 0.45552 0.59448
 C412 C 1.02500 0.46606 0.59185
 H413 H 0.99519 0.43095 0.57641
 H414 H 1.03067 0.47834 0.60067
 H415 H 1.04285 0.45670 0.53964
 H416 H 1.05606 0.43912 0.55493
 C417 C 0.36609 0.02284 0.24555
 C418 C 0.35343 0.00417 0.24871
 C419 C 0.36339 -0.01182 0.25336
 C420 C 0.38541 -0.00778 0.25401
 C421 C 0.37858 0.02525 0.26418
 C422 C 0.38860 0.00931 0.26885
 C423 C 0.38002 0.01689 0.22945
 C424 C 0.39016 0.00094 0.23378
 H425 H 0.33791 0.00357 0.24665
 H426 H 0.39350 -0.02084 0.25763
 H427 H 0.37951 0.03872 0.27274
 H428 H 0.38136 0.02408 0.21548
 C429 C 0.14055 -0.02724 0.74244
 C430 C 0.15194 -0.00781 0.74711
 C431 C 0.14077 0.00757 0.75094
 C432 C 0.11898 0.00217 0.74966
 C433 C 0.12736 -0.03010 0.76022
 C434 C 0.11600 -0.01486 0.76401
 C435 C 0.12692 -0.02248 0.72549
 C436 C 0.11551 -0.00727 0.72915
 H437 H 0.16745 -0.00619 0.74787
 H438 H 0.10964 0.01449 0.75275
 H439 H 0.12757 -0.04288 0.76941
 H440 H 0.12640 -0.03064 0.71172
 C441 C 0.63231 0.46904 0.25099
 C442 C 0.64441 0.48773 0.25604
 C443 C 0.63405 0.50363 0.26012
 C444 C 0.61207 0.49938 0.25855
 C445 C 0.61853 0.46627 0.26828
 C446 C 0.60794 0.48204 0.27235
 C447 C 0.61899 0.47463 0.23397
 C448 C 0.60846 0.49047 0.23784
 H449 H 0.66002 0.48833 0.25569
 H450 H 0.60330 0.51214 0.26173
 H451 H 0.61707 0.45279 0.27638
 H452 H 0.61673 0.46600 0.22064
 C453 C 0.87046 0.52242 0.73529
 C454 C 0.85633 0.50494 0.73846
 C455 C 0.86476 0.48800 0.74284
 C456 C 0.88693 0.48995 0.74344
 C457 C 0.88320 0.52361 0.75386
 C458 C 0.89158 0.50665 0.75847
 C459 C 0.88403 0.51557 0.71928
 C460 C 0.89255 0.49854 0.72333
 H461 H 0.84085 0.50600 0.73711
 H462 H 0.89373 0.47608 0.74694
 H463 H 0.88558 0.53699 0.76240
 H464 H 0.88807 0.52412 0.70664
 C465 C 0.23902 0.37051 0.02052
 C466 C 0.23877 0.35922 0.00088
 C467 C 0.24238 0.37055 -0.01507
 C468 C 0.24562 0.39247 -0.01000
 C469 C 0.25848 0.38198 0.02125
 C470 C 0.26218 0.39339 0.00537
 C471 C 0.22410 0.38601 0.01734
 C472 C 0.22744 0.39753 0.00146
 H473 H 0.23630 0.34350 -0.00021
 H474 H 0.24823 0.40162 -0.02311
 H475 H 0.26824 0.38141 0.03375
 H476 H 0.21138 0.38724 0.02615
 C477 C 0.75281 0.12618 -0.03012
 C478 C 0.75569 0.13915 -0.01165
 C479 C 0.75877 0.12922 0.00522
 C480 C 0.75893 0.10693 0.00211
 C481 C 0.77092 0.11410 -0.03054
 C482 C 0.77424 0.10412 -0.01373
 C483 C 0.73645 0.11136 -0.02495
 C484 C 0.73939 0.10140 -0.00805
 H485 H 0.75568 0.15496 -0.01209
 H486 H 0.76146 0.09891 0.01588
 H487 H 0.78039 0.11313 -0.04289
 H488 H 0.72359 0.10905 -0.03405
 C489 C 0.24929 0.63945 0.47821
 C490 C 0.25588 0.65069 0.49694
 C491 C 0.25921 0.63921 0.51267
 C492 C 0.25588 0.61721 0.50822
 C493 C 0.26483 0.62474 0.47470
 C494 C 0.26842 0.61313 0.49027
 C495 C 0.23160 0.62667 0.48459
 C496 C 0.23502 0.61510 0.50029
 H497 H 0.25624 0.66651 0.49801
 H498 H 0.25876 0.60783 0.52099
 H499 H 0.27252 0.62383 0.46099
 H500 H 0.21785 0.62575 0.47697
 C501 C 0.74226 0.87197 0.51991
 C502 C 0.74215 0.86037 0.50046
 C503 C 0.74579 0.87145 0.48433
 C504 C 0.74893 0.89343 0.48905
 C505 C 0.76170 0.88350 0.52055
 C506 C 0.76541 0.89466 0.50449
 C507 C 0.72732 0.88739 0.51639
 C508 C 0.73068 0.89861 0.50029
 H509 H 0.73970 0.84463 0.49961
 H510 H 0.75160 0.90236 0.47579
 H511 H 0.77142 0.88318 0.53312
 H512 H 0.71460 0.88882 0.52513
 C513 C 0.01235 0.24064 0.34989
 C514 C -0.00607 0.24598 0.33906
 C515 C -0.02105 0.24965 0.35101
 C516 C -0.01628 0.24779 0.37300
 C517 C 0.01665 0.25751 0.36457
 C518 C 0.00178 0.26136 0.37665
 C519 C 0.00595 0.22333 0.36293
 C520 C -0.00896 0.22710 0.37502
 H521 H -0.00742 0.24573 0.32317
 H522 H -0.02853 0.25077 0.38274
 H523 H 0.03038 0.26575 0.36520
 H524 H 0.01338 0.20992 0.36412
 C525 C -0.02983 0.74527 0.14345
 C526 C -0.01117 0.74857 0.15559
 C527 C 0.00502 0.75158 0.14474
 C528 C 0.00110 0.75120 0.12244
 C529 C -0.03040 0.76294 0.13000
 C530 C -0.01442 0.76612 0.11891
 C531 C -0.02555 0.72806 0.12959
 C532 C -0.00937 0.73113 0.11860
 H533 H -0.01075 0.74752 0.17146
 H534 H 0.01418 0.75375 0.11347
 H535 H -0.04266 0.77212 0.12936
 H536 H -0.03325 0.71398 0.12969
 C537 C 0.47757 0.24645 0.64244
 C538 C 0.49505 0.25366 0.65498
 C539 C 0.51130 0.25785 0.64458
 C540 C 0.50855 0.25488 0.62229
 C541 C 0.47512 0.26240 0.62711
 C542 C 0.49127 0.26699 0.61666
 C543 C 0.48471 0.22913 0.63030
 C544 C 0.50098 0.23347 0.61986
 H545 H 0.49496 0.25368 0.67090
 H546 H 0.52179 0.25857 0.61386
 H547 H 0.46171 0.26953 0.62486
 H548 H 0.47693 0.21512 0.62877
 C549 C 0.52068 0.74343 0.85384
 C550 C 0.50089 0.74801 0.84512
 C551 C 0.48729 0.75137 0.85880
 C552 C 0.49464 0.75010 0.88012
 C553 C 0.52580 0.76105 0.86743
 C554 C 0.51238 0.76448 0.88131
 C555 C 0.51651 0.72639 0.86776
 C556 C 0.50302 0.72980 0.88160
 H557 H 0.49771 0.74901 0.82960
 H558 H 0.48344 0.75291 0.89116
 H559 H 0.53880 0.77029 0.86585
 H560 H 0.52448 0.71319 0.86732
 C561 C 0.13613 0.20289 0.27691
 C562 C 0.11983 0.20446 0.28852
 C563 C 0.10924 0.22137 0.28815
 C564 C 0.11562 0.23698 0.27623
 C565 C 0.13191 0.23540 0.26459
 C566 C 0.14229 0.21830 0.26471
 C567 C 0.09205 0.22223 0.30074
 C568 C 0.07781 0.23445 0.29775
 C569 C 0.06087 0.23518 0.31066
 C570 C 0.05152 0.25276 0.31248
 C571 C 0.03582 0.25415 0.32494
 C572 C 0.02899 0.23797 0.33587
 C573 C 0.03787 0.22007 0.33325
 C574 C 0.05363 0.21872 0.32083
 H575 H 0.14369 0.18946 0.27736
 H576 H 0.11534 0.19229 0.29770
 H577 H 0.10837 0.25059 0.27604
 H578 H 0.13645 0.24772 0.25568
 H579 H 0.09112 0.21216 0.31285
 H580 H 0.07863 0.24472 0.28583
 H581 H 0.05660 0.26556 0.30452
 H582 H 0.02908 0.26803 0.32625
 H583 H 0.03285 0.20692 0.34049
 H584 H 0.05990 0.20466 0.31905
 C585 C 0.64720 0.70771 0.78300
 C586 C 0.63180 0.70962 0.79576
 C587 C 0.61662 0.72153 0.79093
 C588 C 0.61736 0.73187 0.77321
 C589 C 0.63276 0.72996 0.76045
 C590 C 0.64785 0.71781 0.76515
 C591 C 0.60077 0.72346 0.80507
 C592 C 0.58315 0.72891 0.79984
 C593 C 0.56743 0.73167 0.81397
 C594 C 0.54840 0.73156 0.80680
 C595 C 0.53317 0.73502 0.81940
 C596 C 0.53668 0.73912 0.83952
 C597 C 0.55576 0.73859 0.84674
 C598 C 0.57097 0.73519 0.83413
 H599 H 0.65865 0.69843 0.78729
 H600 H 0.63171 0.70172 0.80945
 H601 H 0.60632 0.74176 0.76925
 H602 H 0.63273 0.73802 0.74689
 H603 H 0.60367 0.71953 0.82013
 H604 H 0.57976 0.73095 0.78445
 H605 H 0.54525 0.72872 0.79135
 H606 H 0.51881 0.73421 0.81311
 H607 H 0.55897 0.74115 0.86221
 H608 H 0.58543 0.73581 0.84027
 C609 C 0.35942 0.79198 0.79334
 C610 C 0.37567 0.79200 0.80572
 C611 C 0.38547 0.77482 0.80855
 C612 C 0.37880 0.75756 0.79864
 C613 C 0.36276 0.75762 0.78600
 C614 C 0.35296 0.77484 0.78316
 C615 C 0.40359 0.77569 0.82031
 C616 C 0.40992 0.76034 0.83008
 C617 C 0.42947 0.76022 0.83904
 C618 C 0.43285 0.74786 0.85490
 C619 C 0.45162 0.74577 0.86210
 C620 C 0.46733 0.75566 0.85322
 C621 C 0.46391 0.76846 0.83775
 C622 C 0.44519 0.77076 0.83075
 H623 H 0.35228 0.80552 0.79127
 H624 H 0.38073 0.80552 0.81297
 H625 H 0.38634 0.74418 0.80005
 H626 H 0.35808 0.74418 0.77841
 H627 H 0.41201 0.78945 0.82074
 H628 H 0.40065 0.74722 0.83129
 H629 H 0.42099 0.73947 0.86141
 H630 H 0.45396 0.73570 0.87394
 H631 H 0.47581 0.77632 0.83073
 H632 H 0.44323 0.78006 0.81822
 C633 C -0.14542 0.29010 0.27857
 C634 C -0.12924 0.28950 0.29093
 C635 C -0.11916 0.27238 0.29251
 C636 C -0.12542 0.25582 0.28131
 C637 C -0.14138 0.25649 0.26861
 C638 C -0.15166 0.27367 0.26697
 C639 C -0.10136 0.27267 0.30472
 C640 C -0.09556 0.25697 0.31427
 C641 C -0.07681 0.25689 0.32489
 C642 C -0.07484 0.24477 0.34121
 C643 C -0.05683 0.24318 0.35041
 C644 C -0.04043 0.25330 0.34308
 C645 C -0.04245 0.26569 0.32700
 C646 C -0.06046 0.26754 0.31803
 H647 H -0.15259 0.30373 0.27782
 H648 H -0.12453 0.30251 0.29928
 H649 H -0.11763 0.24252 0.28187
 H650 H -0.14557 0.24344 0.26016
 H651 H -0.09299 0.28642 0.30616
 H652 H -0.10487 0.24380 0.31450
 H653 H -0.08720 0.23630 0.34663
 H654 H -0.05555 0.23335 0.36265
 H655 H -0.02998 0.27363 0.32111
 H656 H -0.06136 0.27665 0.30521
 C657 C -0.15439 0.70754 0.22202
 C658 C -0.13809 0.70861 0.21017
 C659 C -0.12512 0.72499 0.21111
 C660 C -0.12864 0.74019 0.22455
 C661 C -0.14496 0.73912 0.23641
 C662 C -0.15810 0.72282 0.23526
 C663 C -0.10799 0.72527 0.19823
 C664 C -0.09765 0.74160 0.19355
 C665 C -0.08060 0.74172 0.18061
 C666 C -0.06687 0.75738 0.18228
 C667 C -0.05067 0.75821 0.17032
 C668 C -0.04771 0.74341 0.15626
 C669 C -0.06184 0.72797 0.15420
 C670 C -0.07804 0.72712 0.16625
 H671 H -0.16397 0.69462 0.22077
 H672 H -0.13566 0.69659 0.20013
 H673 H -0.11874 0.75281 0.22628
 H674 H -0.14720 0.75114 0.24646
 H675 H -0.10400 0.71134 0.19225
 H676 H -0.10147 0.75556 0.19955
 H677 H -0.06861 0.76901 0.19298
 H678 H -0.04036 0.77055 0.17200
 H679 H -0.06087 0.71664 0.14314
 H680 H -0.08872 0.71524 0.16387
 C681 C 0.36373 0.25086 0.74158
 C682 C 0.38013 0.25405 0.73013
 C683 C 0.38422 0.24113 0.71474
 C684 C 0.37126 0.22504 0.71081
 C685 C 0.35491 0.22178 0.72230
 C686 C 0.35084 0.23460 0.73794
 C687 C 0.40167 0.24535 0.70281
 C688 C 0.40986 0.23197 0.69144
 C689 C 0.42722 0.23615 0.67934
 C690 C 0.43749 0.22037 0.67242
 C691 C 0.45366 0.22346 0.66062
 C692 C 0.45978 0.24248 0.65501
 C693 C 0.44976 0.25831 0.66245
 C694 C 0.43355 0.25522 0.67417
 H695 H 0.36138 0.26123 0.75332
 H696 H 0.38973 0.26668 0.73338
 H697 H 0.37338 0.21508 0.69866
 H698 H 0.34544 0.20922 0.71859
 H699 H 0.40834 0.25993 0.70420
 H700 H 0.40415 0.21698 0.69141
 H701 H 0.43310 0.20554 0.67632
 H702 H 0.46141 0.21084 0.65630
 H703 H 0.45443 0.27321 0.65911
 H704 H 0.42598 0.26786 0.67883
 C705 C 0.63662 0.30002 0.72320
 C706 C 0.61976 0.29938 0.71169
 C707 C 0.60860 0.28191 0.70920
 C708 C 0.61435 0.26508 0.71881
 C709 C 0.63101 0.26575 0.73064
 C710 C 0.64250 0.28323 0.73300
 C711 C 0.59060 0.28184 0.69728
 C712 C 0.58418 0.26634 0.68641
 C713 C 0.56586 0.26586 0.67496
 C714 C 0.56403 0.25411 0.65791
 C715 C 0.54650 0.25223 0.64753
 C716 C 0.53034 0.26172 0.65429
 C717 C 0.53219 0.27366 0.67122
 C718 C 0.54980 0.27579 0.68144
 H719 H 0.64471 0.31388 0.72463
 H720 H 0.61549 0.31258 0.70458
 H721 H 0.60575 0.25147 0.71754
 H722 H 0.63482 0.25243 0.73775
 H723 H 0.58294 0.29523 0.69683
 H724 H 0.59293 0.25370 0.68530
 H725 H 0.57615 0.24618 0.65275
 H726 H 0.54538 0.24267 0.63470
 H727 H 0.51990 0.28111 0.67673
 H728 H 0.55058 0.28460 0.69478
 C729 C 0.13999 0.78809 0.20657
 C730 C 0.12374 0.78603 0.19417
 C731 C 0.10941 0.77125 0.19729
 C732 C 0.11163 0.75863 0.21325
 C733 C 0.12786 0.76066 0.22559
 C734 C 0.14221 0.77546 0.22248
 C735 C 0.09189 0.77022 0.18446
 C736 C 0.08024 0.75408 0.18240
 C737 C 0.06144 0.75356 0.17180
 C738 C 0.04697 0.74002 0.17784
 C739 C 0.02872 0.73941 0.16899
 C740 C 0.02458 0.75215 0.15368
 C741 C 0.03923 0.76520 0.14703
 C742 C 0.05752 0.76601 0.15609
 H743 H 0.15075 0.79962 0.20364
 H744 H 0.12233 0.79607 0.18213
 H745 H 0.10064 0.74753 0.21675
 H746 H 0.12885 0.75088 0.23788
 H747 H 0.08833 0.78343 0.17696
 H748 H 0.08387 0.74083 0.18977
 H749 H 0.04968 0.73011 0.18973
 H750 H 0.01785 0.72883 0.17407
 H751 H 0.03644 0.77504 0.13513
 H752 H 0.06851 0.77623 0.15066
 C753 C 0.26117 0.12553 0.23836
 C754 C 0.27291 0.10990 0.24164
 C755 C 0.29040 0.10859 0.23176
 C756 C 0.29578 0.12312 0.21817
 C757 C 0.28401 0.13876 0.21487
 C758 C 0.26659 0.14018 0.22496
 C759 C 0.30217 0.09157 0.23565
 C760 C 0.32111 0.09125 0.23209
 C761 C 0.33252 0.07399 0.23596
 C762 C 0.34910 0.07128 0.22493
 C763 C 0.36007 0.05498 0.22786
 C764 C 0.35457 0.04084 0.24186
 C765 C 0.33856 0.04428 0.25369
 C766 C 0.32759 0.06054 0.25072
 H767 H 0.24776 0.12591 0.24624
 H768 H 0.26833 0.09880 0.25202
 H769 H 0.30882 0.12237 0.20975
 H770 H 0.28866 0.14971 0.20441
 H771 H 0.29478 0.07886 0.24191
 H772 H 0.32862 0.10378 0.22568
 H773 H 0.35353 0.08177 0.21388
 H774 H 0.37295 0.05387 0.21929
 H775 H 0.33451 0.03432 0.26533
 H776 H 0.31551 0.06267 0.26026
 C777 C 0.77333 0.63282 0.74059
 C778 C 0.78561 0.61759 0.74367
 C779 C 0.79805 0.61175 0.72885
 C780 C 0.79781 0.62139 0.71071
 C781 C 0.78554 0.63666 0.70764
 C782 C 0.77313 0.64252 0.72252
 C783 C 0.81034 0.59510 0.73271
 C784 C 0.82610 0.59133 0.72239
 C785 C 0.83774 0.57419 0.72607
 C786 C 0.84805 0.56636 0.71050
 C787 C 0.85878 0.54984 0.71318
 C788 C 0.85981 0.54100 0.73173
 C789 C 0.84950 0.54904 0.74733
 C790 C 0.83878 0.56551 0.74463
 H791 H 0.76408 0.63698 0.75244
 H792 H 0.78541 0.61036 0.75774
 H793 H 0.80664 0.61699 0.69862
 H794 H 0.78555 0.64354 0.69343
 H795 H 0.80602 0.58558 0.74460
 H796 H 0.83047 0.60063 0.71036
 H797 H 0.84742 0.57275 0.69604
 H798 H 0.86571 0.54397 0.70047
 H799 H 0.84967 0.54244 0.76171
 H800 H 0.83150 0.57141 0.75717
 C801 C 0.79834 0.35087 0.76977
 C802 C 0.81190 0.36619 0.76623
 C803 C 0.80616 0.38364 0.75792
 C804 C 0.78669 0.38516 0.75240
 C805 C 0.77316 0.36987 0.75588
 C806 C 0.77874 0.35262 0.76484
 C807 C 0.82066 0.39997 0.75513
 C808 C 0.81595 0.41871 0.75609
 C809 C 0.82969 0.43574 0.75363
 C810 C 0.82412 0.45404 0.76033
 C811 C 0.83577 0.47085 0.75726
 C812 C 0.85326 0.46982 0.74723
 C813 C 0.85917 0.45148 0.74092
 C814 C 0.84746 0.43455 0.74399
 H815 H 0.80327 0.33772 0.77641
 H816 H 0.82686 0.36456 0.77036
 H817 H 0.78184 0.39811 0.74528
 H818 H 0.75829 0.37179 0.75173
 H819 H 0.83557 0.39641 0.75348
 H820 H 0.80126 0.42193 0.75964
 H821 H 0.81057 0.45539 0.76783
 H822 H 0.83100 0.48472 0.76269
 H823 H 0.87249 0.45030 0.73297
 H824 H 0.85208 0.42078 0.73823
 C825 C 0.26247 -0.12591 0.25644
 C826 C 0.27440 -0.10908 0.25442
 C827 C 0.29231 -0.10714 0.26415
 C828 C 0.29812 -0.12244 0.27607
 C829 C 0.28609 -0.13927 0.27829
 C830 C 0.26797 -0.14124 0.26861
 C831 C 0.30381 -0.08848 0.26244
 C832 C 0.32305 -0.08668 0.26470
 C833 C 0.33372 -0.06755 0.26276
 C834 C 0.35223 -0.06667 0.25467
 C835 C 0.36207 -0.04858 0.25180
 C836 C 0.35362 -0.03111 0.25723
 C837 C 0.33545 -0.03212 0.26614
 C838 C 0.32562 -0.05011 0.26888
 H839 H 0.24877 -0.12650 0.24867
 H840 H 0.26954 -0.09743 0.24524
 H841 H 0.31167 -0.12124 0.28415
 H842 H 0.29109 -0.15057 0.28777
 H843 H 0.29606 -0.07578 0.25828
 H844 H 0.33126 -0.09953 0.26683
 H845 H 0.35884 -0.07994 0.25003
 H846 H 0.37600 -0.04830 0.24482
 H847 H 0.32881 -0.01898 0.27107
 H848 H 0.31170 -0.05033 0.27589
 C849 C 0.23746 -0.13711 0.74422
 C850 C 0.22660 -0.12056 0.74566
 C851 C 0.21161 -0.11755 0.73222
 C852 C 0.20790 -0.13135 0.71697
 C853 C 0.21894 -0.14787 0.71535
 C854 C 0.23390 -0.15107 0.72901
 C855 C 0.20090 -0.09944 0.73420
 C856 C 0.18276 -0.09767 0.72767
 C857 C 0.17237 -0.07946 0.73062
 C858 C 0.15227 -0.08059 0.73264
 C859 C 0.14226 -0.06370 0.73624
 C860 C 0.15207 -0.04520 0.73789
 C861 C 0.17213 -0.04408 0.73471
 C862 C 0.18212 -0.06097 0.73122
 H863 H 0.24885 -0.13859 0.75501
 H864 H 0.22989 -0.11004 0.75742
 H865 H 0.19676 -0.12928 0.70602
 H866 H 0.21557 -0.15809 0.70339
 H867 H 0.20800 -0.08743 0.74245
 H868 H 0.17481 -0.11021 0.72117
 H869 H 0.14433 -0.09462 0.73184
 H870 H 0.12675 -0.06513 0.73794
 H871 H 0.18042 -0.03035 0.73455
 H872 H 0.19750 -0.05942 0.72874
 C873 C 0.70873 0.34883 0.20515
 C874 C 0.69593 0.36378 0.20759
 C875 C 0.69991 0.37896 0.22133
 C876 C 0.71726 0.37913 0.23230
 C877 C 0.73005 0.36417 0.22988
 C878 C 0.72591 0.34879 0.21633
 C879 C 0.68596 0.39459 0.22332
 C880 C 0.68466 0.40574 0.23959
 C881 C 0.67076 0.42139 0.24178
 C882 C 0.66654 0.42801 0.26075
 C883 C 0.65400 0.44310 0.26355
 C884 C 0.64506 0.45186 0.24743
 C885 C 0.64984 0.44562 0.22836
 C886 C 0.66243 0.43053 0.22556
 H887 H 0.70499 0.33725 0.19461
 H888 H 0.68277 0.36338 0.19882
 H889 H 0.72125 0.39093 0.24251
 H890 H 0.74330 0.36487 0.23847
 H891 H 0.67587 0.39619 0.21127
 H892 H 0.69356 0.40283 0.25230
 H893 H 0.67309 0.42158 0.27351
 H894 H 0.65146 0.44811 0.27841
 H895 H 0.64446 0.45268 0.21545
 H896 H 0.66603 0.42657 0.21067
 C897 C 0.68983 0.64732 0.28171
 C898 C 0.67729 0.63069 0.28016
 C899 C 0.68347 0.61335 0.27165
 C900 C 0.70217 0.61318 0.26395
 C901 C 0.71462 0.62983 0.26533
 C902 C 0.70870 0.64701 0.27445
 C903 C 0.67014 0.59575 0.27075
 C904 C 0.67656 0.57766 0.27208
 C905 C 0.66413 0.55942 0.27074
 C906 C 0.67164 0.54216 0.27772
 C907 C 0.66146 0.52422 0.27503
 C908 C 0.64356 0.52303 0.26506
 C909 C 0.63557 0.54041 0.25885
 C910 C 0.64579 0.55844 0.26154
 H911 H 0.68470 0.66040 0.28855
 H912 H 0.66286 0.63127 0.28595
 H913 H 0.70717 0.60024 0.25671
 H914 H 0.72901 0.62904 0.25954
 H915 H 0.65480 0.59789 0.26998
 H916 H 0.69181 0.57600 0.27477
 H917 H 0.68564 0.54249 0.28498
 H918 H 0.66782 0.51121 0.28053
 H919 H 0.62185 0.54003 0.25115
 H920 H 0.63961 0.57136 0.25566
 C921 C 0.23549 0.12683 0.76432
 C922 C 0.22491 0.10903 0.76208
 C923 C 0.20608 0.10674 0.76923
 C924 C 0.19804 0.12266 0.77887
 C925 C 0.20869 0.14046 0.78123
 C926 C 0.22756 0.14274 0.77401
 C927 C 0.19580 0.08731 0.76710
 C928 C 0.17653 0.08443 0.76718
 C929 C 0.16694 0.06474 0.76435
 C930 C 0.14886 0.06283 0.75487
 C931 C 0.14008 0.04431 0.75092
 C932 C 0.14918 0.02732 0.75651
 C933 C 0.16677 0.02935 0.76705
 C934 C 0.17555 0.04782 0.77091
 H935 H 0.25004 0.12793 0.75878
 H936 H 0.23151 0.09696 0.75475
 H937 H 0.18374 0.12133 0.78500
 H938 H 0.20212 0.15242 0.78873
 H939 H 0.20458 0.07495 0.76431
 H940 H 0.16747 0.09683 0.76794
 H941 H 0.14178 0.07568 0.74996
 H942 H 0.12651 0.04337 0.74297
 H943 H 0.17382 0.01666 0.77236
 H944 H 0.18906 0.04879 0.77910
 C945 C 0.23823 0.25925 0.12384
 C946 C 0.24076 0.27153 0.10774
 C947 C 0.23098 0.28892 0.10653
 C948 C 0.21827 0.29362 0.12162
 C949 C 0.21573 0.28135 0.13770
 C950 C 0.22569 0.26403 0.13903
 C951 C 0.23388 0.30134 0.08905
 C952 C 0.23085 0.32055 0.08905
 C953 C 0.23319 0.33295 0.07149
 C954 C 0.22348 0.35039 0.07076
 C955 C 0.22514 0.36255 0.05449
 C956 C 0.23645 0.35743 0.03835
 C957 C 0.24692 0.34037 0.03960
 C958 C 0.24524 0.32822 0.05586
 H959 H 0.24597 0.24593 0.12419
 H960 H 0.25045 0.26745 0.09620
 H961 H 0.20991 0.30652 0.12096
 H962 H 0.20594 0.28556 0.14906
 H963 H 0.23878 0.29425 0.07586
 H964 H 0.22605 0.32762 0.10230
 H965 H 0.21454 0.35466 0.08287
 H966 H 0.21779 0.37606 0.05500
 H967 H 0.25659 0.33649 0.02798
 H968 H 0.25376 0.31543 0.05624
 C969 C 0.73987 0.75956 0.62149
 C970 C 0.74252 0.77219 0.60570
 C971 C 0.73268 0.78955 0.60477
 C972 C 0.71972 0.79384 0.61977
 C973 C 0.71704 0.78119 0.63555
 C974 C 0.72714 0.76394 0.63665
 C975 C 0.73587 0.80239 0.58765
 C976 C 0.73275 0.82157 0.58795
 C977 C 0.73562 0.83428 0.57069
 C978 C 0.72547 0.85143 0.56962
 C979 C 0.72747 0.86372 0.55349
 C980 C 0.73962 0.85905 0.53785
 C981 C 0.75056 0.84236 0.53953
 C982 C 0.74853 0.83006 0.55565
 H983 H 0.74771 0.74630 0.62165
 H984 H 0.75240 0.76842 0.59422
 H985 H 0.71132 0.80671 0.61929
 H986 H 0.70709 0.78507 0.64689
 H987 H 0.74115 0.79563 0.57444
 H988 H 0.72746 0.82834 0.60114
 H989 H 0.71585 0.85530 0.58131
 H990 H 0.71965 0.87694 0.55371
 H991 H 0.76078 0.83881 0.52830
 H992 H 0.75738 0.81752 0.55638
 C993 C 0.74487 0.77073 0.37154
 C994 C 0.74275 0.78284 0.38792
 C995 C 0.75323 0.80084 0.38975
 C996 C 0.76616 0.80640 0.37482
 C997 C 0.76837 0.79416 0.35839
 C998 C 0.75769 0.77620 0.35655
 C999 C 0.75050 0.81275 0.40778
 C1000 C 0.75511 0.83197 0.40973
 C1001 C 0.75159 0.84297 0.42819
 C1002 C 0.76367 0.85934 0.43341
 C1003 C 0.76141 0.86913 0.45140
 C1004 C 0.74698 0.86269 0.46441
 C1005 C 0.73424 0.84701 0.45870
 C1006 C 0.73641 0.83735 0.44075
 H1007 H 0.73661 0.75691 0.37086
 H1008 H 0.73282 0.77809 0.39926
 H1009 H 0.77485 0.81994 0.37586
 H1010 H 0.77839 0.79882 0.34713
 H1011 H 0.74407 0.80507 0.42006
 H1012 H 0.76203 0.83985 0.39787
 H1013 H 0.77528 0.86416 0.42386
 H1014 H 0.77142 0.88119 0.45547
 H1015 H 0.72263 0.84212 0.46820
 H1016 H 0.72616 0.82546 0.43683
 C1017 C 0.24583 0.27087 -0.12912
 C1018 C 0.24225 0.28290 -0.11299
 C1019 C 0.25188 0.30131 -0.11063
 C1020 C 0.26530 0.30746 -0.12489
 C1021 C 0.26894 0.29537 -0.14106
 C1022 C 0.25930 0.27689 -0.14334
 C1023 C 0.24796 0.31295 -0.09267
 C1024 C 0.25258 0.33213 -0.09013
 C1025 C 0.24870 0.34282 -0.07156
 C1026 C 0.26054 0.35930 -0.06608
 C1027 C 0.25808 0.36884 -0.04800
 C1028 C 0.24368 0.36206 -0.03512
 C1029 C 0.23117 0.34626 -0.04106
 C1030 C 0.23355 0.33683 -0.05911
 H1031 H 0.23824 0.25671 -0.13017
 H1032 H 0.23193 0.27770 -0.10220
 H1033 H 0.27338 0.32133 -0.12350
 H1034 H 0.27937 0.30053 -0.15172
 H1035 H 0.24095 0.30503 -0.08087
 H1036 H 0.26001 0.34022 -0.10153
 H1037 H 0.27213 0.36440 -0.07552
 H1038 H 0.26794 0.38097 -0.04376
 H1039 H 0.21960 0.34108 -0.03165
 H1040 H 0.22348 0.32484 -0.06318
 C1041 C 0.75294 0.22059 -0.14829
 C1042 C 0.75652 0.20727 -0.13348
 C1043 C 0.74145 0.19550 -0.12569
 C1044 C 0.72268 0.19696 -0.13345
 C1045 C 0.71909 0.21026 -0.14835
 C1046 C 0.73416 0.22235 -0.15585
 C1047 C 0.74608 0.18171 -0.10988
 C1048 C 0.73317 0.17461 -0.09696
 C1049 C 0.73837 0.16169 -0.08057
 C1050 C 0.72705 0.16130 -0.06365
 C1051 C 0.73181 0.14970 -0.04773
 C1052 C 0.74798 0.13805 -0.04827
 C1053 C 0.75893 0.13802 -0.06559
 C1054 C 0.75415 0.14962 -0.08150
 H1055 H 0.76498 0.22938 -0.15386
 H1056 H 0.77115 0.20630 -0.12795
 H1057 H 0.71075 0.18772 -0.12829
 H1058 H 0.70446 0.21115 -0.15383
 H1059 H 0.76108 0.17836 -0.10813
 H1060 H 0.71854 0.17939 -0.09747
 H1061 H 0.71465 0.17024 -0.06262
 H1062 H 0.72291 0.14995 -0.03478
 H1063 H 0.77120 0.12915 -0.06728
 H1064 H 0.76278 0.14888 -0.09459
 C1065 C 0.20974 0.71551 0.35323
 C1066 C 0.21174 0.70320 0.36925
 C1067 C 0.22902 0.70346 0.38022
 C1068 C 0.24449 0.71616 0.37452
 C1069 C 0.24247 0.72851 0.35849
 C1070 C 0.22505 0.72838 0.34768
 C1071 C 0.23023 0.69002 0.39709
 C1072 C 0.24366 0.69185 0.41148
 C1073 C 0.24437 0.67837 0.42834
 C1074 C 0.26202 0.67634 0.43815
 C1075 C 0.26330 0.66386 0.45412
 C1076 C 0.24693 0.65305 0.46082
 C1077 C 0.22909 0.65559 0.45128
 C1078 C 0.22784 0.66807 0.43526
 H1079 H 0.19606 0.71503 0.34539
 H1080 H 0.19961 0.69354 0.37321
 H1081 H 0.25829 0.71648 0.38208
 H1082 H 0.25468 0.73797 0.35446
 H1083 H 0.21932 0.67820 0.39765
 H1084 H 0.25485 0.70339 0.41099
 H1085 H 0.27494 0.68432 0.43332
 H1086 H 0.27720 0.66255 0.46129
 H1087 H 0.21587 0.64834 0.45605
 H1088 H 0.21378 0.66987 0.42867
 C1089 C 0.29810 0.71472 0.64244
 C1090 C 0.29791 0.70334 0.62522
 C1091 C 0.28065 0.69923 0.61468
 C1092 C 0.26354 0.70697 0.62155
 C1093 C 0.26378 0.71864 0.63862
 C1094 C 0.28107 0.72263 0.64924
 C1095 C 0.28116 0.68791 0.59599
 C1096 C 0.26627 0.67634 0.58930
 C1097 C 0.26629 0.66597 0.57003
 C1098 C 0.25467 0.64874 0.56729
 C1099 C 0.25310 0.63949 0.54883
 C1100 C 0.26282 0.64756 0.53265
 C1101 C 0.27473 0.66459 0.53543
 C1102 C 0.27650 0.67370 0.55393
 H1103 H 0.31169 0.71773 0.65014
 H1104 H 0.31131 0.69773 0.62010
 H1105 H 0.25006 0.70450 0.61349
 H1106 H 0.25044 0.72452 0.64351
 H1107 H 0.29449 0.68870 0.58788
 H1108 H 0.25370 0.67401 0.59841
 H1109 H 0.24653 0.64260 0.57941
 H1110 H 0.24359 0.62655 0.54703
 H1111 H 0.28239 0.67108 0.52318
 H1112 H 0.28521 0.68721 0.55534
 C1113 C 0.76756 0.23205 0.11688
 C1114 C 0.76616 0.22039 0.09991
 C1115 C 0.77209 0.20110 0.09998
 C1116 C 0.77993 0.19383 0.11748
 C1117 C 0.78141 0.20559 0.13452
 C1118 C 0.77504 0.22477 0.13445
 C1119 C 0.76971 0.18948 0.08143
 C1120 C 0.77113 0.17004 0.07979
 C1121 C 0.76744 0.15939 0.06086
 C1122 C 0.77715 0.14231 0.05681
 C1123 C 0.77423 0.13233 0.03881
 C1124 C 0.76143 0.13920 0.02462
 C1125 C 0.75120 0.15587 0.02900
 C1126 C 0.75409 0.16580 0.04691
 H1127 H 0.76283 0.24684 0.11610
 H1128 H 0.76023 0.22648 0.08665
 H1129 H 0.78505 0.17921 0.11817
 H1130 H 0.78729 0.19955 0.14780
 H1131 H 0.76620 0.19756 0.06839
 H1132 H 0.77531 0.16160 0.09230
 H1133 H 0.78731 0.13693 0.06741
 H1134 H 0.78236 0.11955 0.03583
 H1135 H 0.74076 0.16115 0.01863
 H1136 H 0.74565 0.17835 0.04986
 C1137 C 0.45524 0.38523 0.53525
 C1138 C 0.45716 0.36857 0.54659
 C1139 C 0.47379 0.35778 0.54552
 C1140 C 0.48848 0.36395 0.53260
 C1141 C 0.48654 0.38064 0.52119
 C1142 C 0.46989 0.39150 0.52238
 C1143 C 0.47476 0.33996 0.55764
 C1144 C 0.49109 0.33118 0.56218
 C1145 C 0.49133 0.31383 0.57505
 C1146 C 0.50799 0.31051 0.58624
 C1147 C 0.50822 0.29495 0.59939
 C1148 C 0.49180 0.28236 0.60150
 C1149 C 0.47549 0.28509 0.58958
 C1150 C 0.47527 0.30057 0.57645
 H1151 H 0.44210 0.39297 0.53647
 H1152 H 0.44555 0.36409 0.55629
 H1153 H 0.50133 0.35582 0.53093
 H1154 H 0.49813 0.38497 0.51145
 H1155 H 0.46134 0.33449 0.56395
 H1156 H 0.50485 0.33752 0.55756
 H1157 H 0.52064 0.32035 0.58525
 H1158 H 0.52099 0.29322 0.60839
 H1159 H 0.46283 0.27526 0.59043
 H1160 H 0.46249 0.30204 0.56742
 C1161 C -0.03887 0.88832 0.03714
 C1162 C -0.03815 0.87242 0.04973
 C1163 C -0.02377 0.85886 0.04785
 C1164 C -0.01003 0.86155 0.03297
 C1165 C -0.01076 0.87748 0.02033
 C1166 C -0.02526 0.89103 0.02217
 C1167 C -0.02434 0.84177 0.06105
 C1168 C -0.00939 0.83050 0.06449
 C1169 C -0.01077 0.81351 0.07781
 C1170 C 0.00588 0.80759 0.08756
 C1171 C 0.00484 0.79200 0.10070
 C1172 C -0.01289 0.78197 0.10426
 C1173 C -0.02939 0.78739 0.09386
 C1174 C -0.02835 0.80290 0.08076
 H1175 H -0.05028 0.89830 0.03914
 H1176 H -0.04899 0.87067 0.06097
 H1177 H 0.00101 0.85119 0.03066
 H1178 H -0.00004 0.87894 0.00899
 H1179 H -0.03764 0.83887 0.06887
 H1180 H 0.00455 0.83429 0.05828
 H1181 H 0.01966 0.81534 0.08533
 H1182 H 0.01781 0.78818 0.10842
 H1183 H -0.04315 0.77953 0.09572
 H1184 H -0.04133 0.80637 0.07284
 C1185 C 0.00802 0.62189 0.01532
 C1186 C 0.00306 0.63693 0.02796
 C1187 C 0.01684 0.64621 0.04064
 C1188 C 0.03587 0.63988 0.04050
 C1189 C 0.04087 0.62472 0.02772
 C1190 C 0.02702 0.61572 0.01482
 C1191 C 0.01043 0.66251 0.05319
 C1192 C 0.02024 0.67048 0.06869
 C1193 C 0.01237 0.68612 0.08115
 C1194 C 0.02513 0.69916 0.09156
 C1195 C 0.01812 0.71393 0.10354
 C1196 C -0.00184 0.71583 0.10552
 C1197 C -0.01461 0.70265 0.09528
 C1198 C -0.00763 0.68790 0.08335
 H1199 H -0.00320 0.61512 0.00595
 H1200 H -0.01172 0.64136 0.02780
 H1201 H 0.04704 0.64675 0.04983
 H1202 H 0.05565 0.62037 0.02763
 H1203 H -0.00344 0.66807 0.04938
 H1204 H 0.03443 0.66571 0.07243
 H1205 H 0.04058 0.69795 0.09037
 H1206 H 0.02835 0.72357 0.11158
 H1207 H -0.03007 0.70372 0.09644
 H1208 H -0.01801 0.67774 0.07623
 C1209 C 0.53509 0.14468 0.50459
 C1210 C 0.53214 0.16040 0.51727
 C1211 C 0.53975 0.16079 0.53647
 C1212 C 0.55129 0.14553 0.54243
 C1213 C 0.55441 0.12982 0.52963
 C1214 C 0.54599 0.12905 0.51072
 C1215 C 0.53501 0.17718 0.54974
 C1216 C 0.53401 0.17554 0.56933
 C1217 C 0.52651 0.19094 0.58230
 C1218 C 0.51827 0.18539 0.60023
 C1219 C 0.51010 0.19919 0.61246
 C1220 C 0.51014 0.21895 0.60711
 C1221 C 0.51894 0.22467 0.58949
 C1222 C 0.52709 0.21083 0.57721
 H1223 H 0.52873 0.14475 0.48998
 H1224 H 0.52341 0.17208 0.51221
 H1225 H 0.55791 0.14564 0.55692
 H1226 H 0.56297 0.11806 0.53474
 H1227 H 0.53027 0.19030 0.54287
 H1228 H 0.53699 0.16173 0.57601
 H1229 H 0.51782 0.17022 0.60463
 H1230 H 0.50380 0.19440 0.62615
 H1231 H 0.51919 0.23976 0.58494
 H1232 H 0.53383 0.21582 0.56382
 C1233 C -0.01971 0.14115 0.49723
 C1234 C -0.01747 0.15648 0.48392
 C1235 C -0.03004 0.15762 0.46770
 C1236 C -0.04547 0.14364 0.46554
 C1237 C -0.04776 0.12839 0.47884
 C1238 C -0.03473 0.12672 0.49469
 C1239 C -0.02665 0.17340 0.45327
 C1240 C -0.03145 0.17112 0.43418
 C1241 C -0.02655 0.18596 0.41920
 C1242 C -0.02336 0.17963 0.39987
 C1243 C -0.01794 0.19303 0.38544
 C1244 C -0.01596 0.21310 0.38998
 C1245 C -0.01990 0.21957 0.40911
 C1246 C -0.02510 0.20612 0.42365
 H1247 H -0.00946 0.14053 0.50928
 H1248 H -0.00559 0.16721 0.48604
 H1249 H -0.05589 0.14446 0.45364
 H1250 H -0.05976 0.11791 0.47652
 H1251 H -0.01856 0.18653 0.45823
 H1252 H -0.03773 0.15719 0.42892
 H1253 H -0.02462 0.16420 0.39604
 H1254 H -0.01523 0.18771 0.37072
 H1255 H -0.01843 0.23498 0.41298
 H1256 H -0.02799 0.21153 0.43828
 C1257 C 0.46270 0.61257 0.96969
 C1258 C 0.46576 0.62652 0.95516
 C1259 C 0.47808 0.64309 0.95865
 C1260 C 0.48758 0.64528 0.97704
 C1261 C 0.48458 0.63123 0.99160
 C1262 C 0.47206 0.61473 0.98809
 C1263 C 0.48123 0.65706 0.94240
 C1264 C 0.48783 0.67569 0.94490
 C1265 C 0.49106 0.68921 0.92825
 C1266 C 0.49092 0.70946 0.93176
 C1267 C 0.49440 0.72264 0.91653
 C1268 C 0.49830 0.71583 0.89749
 C1269 C 0.49849 0.69558 0.89397
 C1270 C 0.49501 0.68241 0.90917
 H1271 H 0.45319 0.59994 0.96628
 H1272 H 0.45844 0.62434 0.94107
 H1273 H 0.49762 0.65756 0.98015
 H1274 H 0.49202 0.63334 1.00561
 H1275 H 0.47710 0.65181 0.92779
 H1276 H 0.49026 0.68162 0.95960
 H1277 H 0.48817 0.71509 0.94635
 H1278 H 0.49457 0.73816 0.91983
 H1279 H 0.50139 0.68988 0.87945
 H1280 H 0.49591 0.66698 0.90594
 C1281 C 0.50737 0.88300 0.97833
 C1282 C 0.50323 0.86795 0.96462
 C1283 C 0.51818 0.85855 0.95529
 C1284 C 0.53740 0.86510 0.95931
 C1285 C 0.54154 0.88025 0.97292
 C1286 C 0.52658 0.88916 0.98280
 C1287 C 0.51325 0.84230 0.94123
 C1288 C 0.52491 0.82755 0.93820
 C1289 C 0.52085 0.81128 0.92389
 C1290 C 0.53635 0.80036 0.91786
 C1291 C 0.53354 0.78512 0.90416
 C1292 C 0.51509 0.78033 0.89624
 C1293 C 0.49943 0.79084 0.90260
 C1294 C 0.50224 0.80619 0.91630
 H1295 H 0.49549 0.88980 0.98540
 H1296 H 0.48831 0.86338 0.96154
 H1297 H 0.54930 0.85870 0.95188
 H1298 H 0.55648 0.88469 0.97594
 H1299 H 0.49949 0.84250 0.93362
 H1300 H 0.53845 0.82746 0.94629
 H1301 H 0.55077 0.80376 0.92363
 H1302 H 0.54583 0.77698 0.89987
 H1303 H 0.48505 0.78745 0.89672
 H1304 H 0.48979 0.81382 0.92094
 C1305 C 0.04808 0.37937 0.46376
 C1306 C 0.04457 0.36424 0.45000
 C1307 C 0.02871 0.35090 0.45190
 C1308 C 0.01645 0.35293 0.46801
 C1309 C 0.01998 0.36804 0.48179
 C1310 C 0.03587 0.38144 0.47989
 C1311 C 0.02612 0.33456 0.43745
 C1312 C 0.00933 0.32438 0.43411
 C1313 C 0.00744 0.30779 0.41990
 C1314 C -0.01043 0.30326 0.41056
 C1315 C -0.01244 0.28796 0.39670
 C1316 C 0.00340 0.27684 0.39207
 C1317 C 0.02104 0.28088 0.40203
 C1318 C 0.02304 0.29612 0.41582
 H1319 H 0.06043 0.38935 0.46169
 H1320 H 0.05432 0.36292 0.43780
 H1321 H 0.00442 0.34261 0.47038
 H1322 H 0.01032 0.36893 0.49407
 H1323 H 0.03855 0.33126 0.42878
 H1324 H -0.00366 0.32878 0.44122
 H1325 H -0.02274 0.31187 0.41368
 H1326 H -0.02620 0.28521 0.38923
 H1327 H 0.03334 0.27216 0.39926
 H1328 H 0.03678 0.29856 0.42339
 C1329 C 0.37920 0.51551 0.50439
 C1330 C 0.36346 0.52704 0.50784
 C1331 C 0.35755 0.54033 0.49372
 C1332 C 0.36811 0.54226 0.47628
 C1333 C 0.38385 0.53079 0.47285
 C1334 C 0.38957 0.51719 0.48681
 C1335 C 0.34077 0.55233 0.49782
 C1336 C 0.32971 0.55931 0.48345
 C1337 C 0.31316 0.57189 0.48659
 C1338 C 0.30069 0.57469 0.47058
 C1339 C 0.28582 0.58757 0.47202
 C1340 C 0.28305 0.59810 0.48953
 C1341 C 0.29505 0.59491 0.50583
 C1342 C 0.31006 0.58201 0.50438
 H1343 H 0.38329 0.50541 0.51561
 H1344 H 0.35575 0.52546 0.52151
 H1345 H 0.36449 0.55284 0.46533
 H1346 H 0.39143 0.53258 0.45916
 H1347 H 0.33711 0.55468 0.51304
 H1348 H 0.33260 0.55529 0.46837
 H1349 H 0.30265 0.56710 0.45672
 H1350 H 0.27659 0.58946 0.45930
 H1351 H 0.29337 0.60300 0.51944
 H1352 H 0.31952 0.58061 0.51698
 C1353 C 0.89405 0.02692 -0.04399
 C1354 C 0.87895 0.03951 -0.04208
 C1355 C 0.86860 0.04052 -0.02454
 C1356 C 0.87386 0.02867 -0.00878
 C1357 C 0.88899 0.01601 -0.01072
 C1358 C 0.89930 0.01501 -0.02834
 C1359 C 0.85292 0.05448 -0.02339
 C1360 C 0.83914 0.05417 -0.00969
 C1361 C 0.82319 0.06788 -0.00971
 C1362 C 0.80587 0.06244 -0.00032
 C1363 C 0.79013 0.07445 -0.00107
 C1364 C 0.79137 0.09215 -0.01125
 C1365 C 0.80904 0.09809 -0.01971
 C1366 C 0.82479 0.08619 -0.01888
 H1367 H 0.90147 0.02650 -0.05786
 H1368 H 0.87530 0.04847 -0.05445
 H1369 H 0.86667 0.02930 0.00519
 H1370 H 0.89275 0.00725 0.00175
 H1371 H 0.85229 0.06492 -0.03515
 H1372 H 0.83861 0.04277 0.00116
 H1373 H 0.80434 0.04861 0.00718
 H1374 H 0.77686 0.06951 0.00576
 H1375 H 0.81072 0.11200 -0.02702
 H1376 H 0.83814 0.09149 -0.02541
 C1377 C 0.61753 0.02679 0.04673
 C1378 C 0.63270 0.04028 0.04267
 C1379 C 0.64848 0.03472 0.03158
 C1380 C 0.64878 0.01529 0.02460
 C1381 C 0.63354 0.00184 0.02854
 C1382 C 0.61767 0.00746 0.03951
 C1383 C 0.66355 0.04981 0.02635
 C1384 C 0.68164 0.04570 0.02167
 C1385 C 0.69613 0.06069 0.01490
 C1386 C 0.71582 0.05764 0.01765
 C1387 C 0.72987 0.07100 0.01054
 C1388 C 0.72454 0.08751 0.00015
 C1389 C 0.70479 0.09062 -0.00250
 C1390 C 0.69075 0.07737 0.00474
 H1391 H 0.60547 0.03169 0.05508
 H1392 H 0.63202 0.05519 0.04806
 H1393 H 0.66042 0.01054 0.01557
 H1394 H 0.63418 -0.01294 0.02284
 H1395 H 0.65957 0.06490 0.02674
 H1396 H 0.68626 0.03092 0.02319
 H1397 H 0.72035 0.04482 0.02529
 H1398 H 0.74486 0.06808 0.01281
 H1399 H 0.70012 0.10335 -0.01015
 H1400 H 0.67574 0.07999 0.00186
 C1401 C 0.14156 0.49701 0.52435
 C1402 C 0.15748 0.50994 0.52160
 C1403 C 0.15873 0.52829 0.53107
 C1404 C 0.14401 0.53316 0.54403
 C1405 C 0.12809 0.52018 0.54684
 C1406 C 0.12655 0.50206 0.53682
 C1407 C 0.17550 0.54186 0.52696
 C1408 C 0.17490 0.56138 0.52849
 C1409 C 0.19085 0.57503 0.52224
 C1410 C 0.18636 0.59381 0.51622
 C1411 C 0.20073 0.60687 0.50932
 C1412 C 0.21999 0.60153 0.50850
 C1413 C 0.22467 0.58303 0.51523
 C1414 C 0.21024 0.56987 0.52203
 H1415 H 0.14107 0.48307 0.51664
 H1416 H 0.16872 0.50571 0.51173
 H1417 H 0.14473 0.54691 0.55210
 H1418 H 0.11687 0.52454 0.55663
 H1419 H 0.18813 0.53552 0.52086
 H1420 H 0.16162 0.56778 0.53281
 H1421 H 0.17160 0.59825 0.51647
 H1422 H 0.19675 0.62119 0.50463
 H1423 H 0.23939 0.57851 0.51477
 H1424 H 0.21436 0.55576 0.52713
 C1425 C 0.11202 0.47758 -0.04224
 C1426 C 0.12619 0.46422 -0.03900
 C1427 C 0.14237 0.46922 -0.02711
 C1428 C 0.14403 0.48799 -0.01831
 C1429 C 0.12971 0.50139 -0.02145
 C1430 C 0.11355 0.49632 -0.03348
 C1431 C 0.15635 0.45398 -0.02341
 C1432 C 0.17477 0.45768 -0.01776
 C1433 C 0.18802 0.44182 -0.01367
 C1434 C 0.20797 0.44527 -0.01599
 C1435 C 0.22079 0.43070 -0.01165
 C1436 C 0.21392 0.41253 -0.00458
 C1437 C 0.19394 0.40905 -0.00242
 C1438 C 0.18115 0.42351 -0.00679
 H1439 H 0.09968 0.47297 -0.05133
 H1440 H 0.12443 0.44981 -0.04578
 H1441 H 0.15607 0.49220 -0.00863
 H1442 H 0.13130 0.51570 -0.01448
 H1443 H 0.15127 0.43899 -0.02624
 H1444 H 0.18059 0.47263 -0.01676
 H1445 H 0.21364 0.45929 -0.02111
 H1446 H 0.23606 0.43390 -0.01328
 H1447 H 0.18813 0.39511 0.00277
 H1448 H 0.16596 0.42042 -0.00426
 C1449 C 0.61372 0.97836 0.45955
 C1450 C 0.62786 0.96482 0.46210
 C1451 C 0.64505 0.96997 0.47237
 C1452 C 0.64776 0.98906 0.48023
 C1453 C 0.63352 1.00266 0.47772
 C1454 C 0.61633 0.99745 0.46735
 C1455 C 0.65903 0.95460 0.47552
 C1456 C 0.67775 0.95817 0.48008
 C1457 C 0.69100 0.94231 0.48417
 C1458 C 0.71091 0.94570 0.48151
 C1459 C 0.72381 0.93131 0.48615
 C1460 C 0.71706 0.91336 0.49385
 C1461 C 0.69710 0.90987 0.49621
 C1462 C 0.68425 0.92419 0.49158
 H1463 H 0.60061 0.97364 0.45172
 H1464 H 0.62529 0.95016 0.45610
 H1465 H 0.66058 0.99345 0.48870
 H1466 H 0.63601 1.01721 0.48393
 H1467 H 0.65359 0.93962 0.47339
 H1468 H 0.68380 0.97305 0.48035
 H1469 H 0.71650 0.95959 0.47597
 H1470 H 0.73905 0.93450 0.48429
 H1471 H 0.69137 0.89608 0.50181
 H1472 H 0.66910 0.92112 0.49439
 C1473 C 0.89347 0.97085 0.53791
 C1474 C 0.87847 0.95690 0.53408
 C1475 C 0.86352 0.96071 0.52080
 C1476 C 0.86391 0.97888 0.51135
 C1477 C 0.87893 0.99284 0.51518
 C1478 C 0.89382 0.98906 0.52861
 C1479 C 0.84734 0.94585 0.51828
 C1480 C 0.83452 0.94540 0.50330
 C1481 C 0.81756 0.93136 0.50228
 C1482 C 0.80080 0.93673 0.49241
 C1483 C 0.78401 0.92456 0.49255
 C1484 C 0.78365 0.90674 0.50255
 C1485 C 0.80083 0.90083 0.51136
 C1486 C 0.81759 0.91296 0.51120
 H1487 H 0.90473 0.96730 0.54821
 H1488 H 0.87850 0.94307 0.54164
 H1489 H 0.85244 0.98275 0.50147
 H1490 H 0.87853 1.00677 0.50792
 H1491 H 0.84580 0.93508 0.52972
 H1492 H 0.83571 0.95621 0.49189
 H1493 H 0.80049 0.95069 0.48513
 H1494 H 0.77121 0.92951 0.48540
 H1495 H 0.80134 0.88683 0.51848
 H1496 H 0.83050 0.90783 0.51810
 C1497 C 0.39132 0.46779 0.03902
 C1498 C 0.37596 0.45423 0.03527
 C1499 C 0.36100 0.45849 0.02217
 C1500 C 0.36176 0.47673 0.01283
 C1501 C 0.37715 0.49030 0.01659
 C1502 C 0.39206 0.48606 0.02983
 C1503 C 0.34450 0.44397 0.01968
 C1504 C 0.33158 0.44387 0.00480
 C1505 C 0.31450 0.42995 0.00365
 C1506 C 0.29778 0.43548 -0.00621
 C1507 C 0.28093 0.42337 -0.00625
 C1508 C 0.28047 0.40544 0.00356
 C1509 C 0.29761 0.39937 0.01233
 C1510 C 0.31443 0.41143 0.01235
 H1511 H 0.40256 0.46389 0.04919
 H1512 H 0.37572 0.44036 0.04275
 H1513 H 0.35032 0.48093 0.00308
 H1514 H 0.37704 0.50429 0.00941
 H1515 H 0.34288 0.43309 0.03100
 H1516 H 0.33284 0.45480 -0.00648
 H1517 H 0.29756 0.44952 -0.01336
 H1518 H 0.26818 0.42843 -0.01338
 H1519 H 0.29806 0.38527 0.01928
 H1520 H 0.32729 0.40615 0.01919
 C1521 C 0.51196 0.49910 0.38840
 C1522 C 0.52371 0.50236 0.37207
 C1523 C 0.53637 0.48822 0.36588
 C1524 C 0.53750 0.47100 0.37680
 C1525 C 0.52581 0.46775 0.39311
 C1526 C 0.51277 0.48168 0.39908
 C1527 C 0.54852 0.49196 0.34838
 C1528 C 0.55461 0.47740 0.33699
 C1529 C 0.56729 0.47996 0.31969
 C1530 C 0.56933 0.46370 0.30725
 C1531 C 0.58213 0.46459 0.29163
 C1532 C 0.59333 0.48179 0.28804
 C1533 C 0.59096 0.49833 0.30005
 C1534 C 0.57814 0.49742 0.31583
 H1535 H 0.50232 0.51030 0.39264
 H1536 H 0.52275 0.51587 0.36409
 H1537 H 0.54759 0.46006 0.37300
 H1538 H 0.52700 0.45421 0.40090
 H1539 H 0.55174 0.50702 0.34450
 H1540 H 0.54974 0.46252 0.34021
 H1541 H 0.56117 0.45009 0.30979
 H1542 H 0.58334 0.45171 0.28241
 H1543 H 0.59955 0.51171 0.29770
 H1544 H 0.57732 0.51021 0.32521
 C1545 C 0.03654 -0.04712 0.88810
 C1546 C 0.04859 -0.04589 0.87184
 C1547 C 0.04739 -0.03053 0.85850
 C1548 C 0.03366 -0.01642 0.86174
 C1549 C 0.02157 -0.01765 0.87804
 C1550 C 0.02281 -0.03305 0.89143
 C1551 C 0.06015 -0.03039 0.84114
 C1552 C 0.06419 -0.01462 0.83012
 C1553 C 0.07715 -0.01500 0.81293
 C1554 C 0.08671 0.00247 0.80702
 C1555 C 0.09924 0.00258 0.79106
 C1556 C 0.10237 -0.01478 0.78061
 C1557 C 0.09242 -0.03216 0.78619
 C1558 C 0.07989 -0.03227 0.80209
 H1559 H 0.03796 -0.05928 0.89789
 H1560 H 0.05891 -0.05706 0.86965
 H1561 H 0.03186 -0.00463 0.85158
 H1562 H 0.01120 -0.00654 0.87999
 H1563 H 0.06714 -0.04382 0.83788
 H1564 H 0.05873 -0.00065 0.83430
 H1565 H 0.08472 0.01601 0.81498
 H1566 H 0.10679 0.01618 0.78721
 H1567 H 0.09413 -0.04567 0.77809
 H1568 H 0.07219 -0.04588 0.80559
 C1569 C 0.03140 0.05475 0.62152
 C1570 C 0.04463 0.05107 0.63657
 C1571 C 0.04061 0.03627 0.65020
 C1572 C 0.02266 0.02580 0.64903
 C1573 C 0.00946 0.02946 0.63402
 C1574 C 0.01377 0.04376 0.61988
 C1575 C 0.05534 0.03214 0.66542
 C1576 C 0.05660 0.01447 0.67352
 C1577 C 0.07178 0.00956 0.68793
 C1578 C 0.07599 -0.01014 0.69002
 C1579 C 0.09017 -0.01555 0.70334
 C1580 C 0.10039 -0.00139 0.71508
 C1581 C 0.09587 0.01829 0.71334
 C1582 C 0.08174 0.02375 0.69990
 H1583 H 0.03521 0.06591 0.61095
 H1584 H 0.05826 0.05951 0.63728
 H1585 H 0.01864 0.01486 0.65975
 H1586 H -0.00417 0.02107 0.63359
 H1587 H 0.06618 0.04362 0.66890
 H1588 H 0.04682 0.00256 0.66852
 H1589 H 0.06835 -0.02141 0.68120
 H1590 H 0.09291 -0.03091 0.70465
 H1591 H 0.10338 0.02954 0.72217
 H1592 H 0.07852 0.03902 0.69918
 C1593 C 0.52649 0.55258 0.12788
 C1594 C 0.53888 0.54929 0.14381
 C1595 C 0.53945 0.53068 0.15219
 C1596 C 0.52764 0.51529 0.14393
 C1597 C 0.51524 0.51859 0.12814
 C1598 C 0.51442 0.53727 0.11996
 C1599 C 0.55311 0.52755 0.16877
 C1600 C 0.55098 0.51251 0.18116
 C1601 C 0.56550 0.50774 0.19630
 C1602 C 0.56648 0.48814 0.20181
 C1603 C 0.58032 0.48263 0.21544
 C1604 C 0.59328 0.49667 0.22415
 C1605 C 0.59190 0.51640 0.21928
 C1606 C 0.57819 0.52193 0.20536
 H1607 H 0.52624 0.56714 0.12192
 H1608 H 0.54800 0.56135 0.14967
 H1609 H 0.52820 0.50050 0.14918
 H1610 H 0.50658 0.50630 0.12213
 H1611 H 0.56543 0.53779 0.17046
 H1612 H 0.53855 0.50242 0.17962
 H1613 H 0.55675 0.47695 0.19521
 H1614 H 0.58088 0.46734 0.21920
 H1615 H 0.60173 0.52747 0.22582
 H1616 H 0.57751 0.53724 0.20187
 C1617 C 0.46773 -0.04627 0.11394
 C1618 C 0.45411 -0.04366 0.12852
 C1619 C 0.45895 -0.03269 0.14558
 C1620 C 0.47778 -0.02421 0.14771
 C1621 C 0.49142 -0.02678 0.13306
 C1622 C 0.48654 -0.03780 0.11597
 C1623 C 0.44360 -0.02940 0.16000
 C1624 C 0.44704 -0.02426 0.17886
 C1625 C 0.43153 -0.01947 0.19265
 C1626 C 0.43513 -0.02032 0.21297
 C1627 C 0.42139 -0.01442 0.22639
 C1628 C 0.40389 -0.00728 0.21976
 C1629 C 0.40006 -0.00695 0.19943
 C1630 C 0.41374 -0.01283 0.18603
 H1631 H 0.46328 -0.05463 0.10091
 H1632 H 0.43966 -0.05015 0.12638
 H1633 H 0.48193 -0.01516 0.16037
 H1634 H 0.50575 -0.02004 0.13514
 H1635 H 0.42886 -0.03178 0.15479
 H1636 H 0.46167 -0.02373 0.18462
 H1637 H 0.44875 -0.02524 0.21847
 H1638 H 0.42483 -0.01474 0.24188
 H1639 H 0.38657 -0.00182 0.19382
 H1640 H 0.41050 -0.01143 0.17054
 C1641 C 0.97384 0.45081 0.60652
 C1642 C 0.95966 0.45386 0.62041
 C1643 C 0.96410 0.46450 0.63776
 C1644 C 0.98308 0.47226 0.64088
 C1645 C 0.99729 0.46930 0.62689
 C1646 C 0.99282 0.45854 0.60954
 C1647 C 0.94826 0.46825 0.65145
 C1648 C 0.95098 0.47252 0.67060
 C1649 C 0.93502 0.47760 0.68369
 C1650 C 0.93708 0.47505 0.70403
 C1651 C 0.92291 0.48107 0.71690
 C1652 C 0.90657 0.49008 0.70973
 C1653 C 0.90427 0.49214 0.68931
 C1654 C 0.91835 0.48609 0.67645
 H1655 H 0.96973 0.44271 0.59324
 H1656 H 0.94511 0.44795 0.61753
 H1657 H 0.98692 0.48105 0.65382
 H1658 H 1.01175 0.47546 0.62967
 H1659 H 0.93372 0.46688 0.64546
 H1660 H 0.96526 0.47199 0.67710
 H1661 H 0.94983 0.46865 0.70999
 H1662 H 0.92519 0.47931 0.73245
 H1663 H 0.89170 0.49877 0.68325
 H1664 H 0.91639 0.48879 0.66094
 C1665 C 0.97278 0.54612 0.88016
 C1666 C 0.95953 0.54238 0.86482
 C1667 C 0.95961 0.52495 0.85374
 C1668 C 0.97341 0.51125 0.85836
 C1669 C 0.98672 0.51503 0.87375
 C1670 C 0.98655 0.53251 0.88483
 C1671 C 0.94533 0.52225 0.83739
 C1672 C 0.94210 0.50579 0.82663
 C1673 C 0.92799 0.50468 0.81007
 C1674 C 0.93129 0.49257 0.79378
 C1675 C 0.91911 0.49262 0.77722
 C1676 C 0.90344 0.50482 0.77663
 C1677 C 0.89940 0.51586 0.79354
 C1678 C 0.91147 0.51575 0.81007
 H1679 H 0.97227 0.55984 0.88815
 H1680 H 0.94917 0.55325 0.86159
 H1681 H 0.97424 0.49772 0.85016
 H1682 H 0.99706 0.50415 0.87698
 H1683 H 0.93722 0.53487 0.83386
 H1684 H 0.95047 0.49316 0.82912
 H1685 H 0.94369 0.48357 0.79360
 H1686 H 0.92244 0.48360 0.76475
 H1687 H 0.88691 0.52471 0.79401
 H1688 H 0.90783 0.52442 0.82278
 C1689 C 0.46826 0.04656 0.39425
 C1690 C 0.45416 0.04298 0.37963
 C1691 C 0.45665 0.02899 0.36474
 C1692 C 0.47365 0.01860 0.36477
 C1693 C 0.48775 0.02218 0.37941
 C1694 C 0.48529 0.03629 0.39425
 C1695 C 0.44175 0.02663 0.34895
 C1696 C 0.43972 0.01100 0.33684
 C1697 C 0.42570 0.00978 0.32020
 C1698 C 0.42970 -0.00179 0.30372
 C1699 C 0.41747 -0.00233 0.28721
 C1700 C 0.40093 0.00869 0.28683
 C1701 C 0.39640 0.01945 0.30378
 C1702 C 0.40860 0.01997 0.32028
 H1703 H 0.46574 0.05741 0.40551
 H1704 H 0.44126 0.05126 0.37991
 H1705 H 0.47650 0.00815 0.35326
 H1706 H 0.50078 0.01417 0.37874
 H1707 H 0.43233 0.03862 0.34714
 H1708 H 0.44917 -0.00099 0.33839
 H1709 H 0.44263 -0.01002 0.30341
 H1710 H 0.42135 -0.01095 0.27464
 H1711 H 0.38336 0.02745 0.30437
 H1712 H 0.40448 0.02828 0.33305
   
