data_POSCAR
  _audit_creation_date              2014-09-24
  _audit_creation_method            'ToBaCCo'
  _symmetry_space_group_name_H-M    'P1'
  _symmetry_Int_Tables_number       1
  _symmetry_cell_setting            triclinic
  loop_
  _symmetry_equiv_pos_as_xyz
 x,y,z
_cell_length_a 62.0853
_cell_length_b 61.5576
_cell_length_c 64.0483
_cell_angle_alpha 90.048200
_cell_angle_beta 90.210000
_cell_angle_gamma 90.561900
loop_
  _atom_site_label
  _atom_site_type_symbol
  _atom_site_fract_x
  _atom_site_fract_y
  _atom_site_fract_z
C1 C 0.39124 0.29696 -0.00299
 C2 C 0.39197 0.29798 0.01838
 C3 C 0.37223 0.30581 0.02474
 N4 N 0.35933 0.30935 0.00805
 C5 C 0.37086 0.30374 -0.00896
 C6 C 0.36596 0.30835 0.04573
 C7 C 0.34781 0.32039 0.05173
 C8 C 0.33873 0.32018 0.07148
 C9 C 0.32272 0.33547 0.07139
 C10 C 0.32252 0.34455 0.05158
 N11 N 0.33785 0.33527 0.03971
 C12 C 0.30960 0.36211 0.04537
 C13 C 0.30687 0.36810 0.02429
 C14 C 0.29811 0.38749 0.01764
 C15 C 0.29726 0.38648 -0.00372
 C16 C 0.30511 0.36626 -0.00939
 N17 N 0.31117 0.35513 0.00780
 C18 C 0.30569 0.35786 -0.02999
 C19 C 0.31820 0.33941 -0.03497
 C20 C 0.31455 0.32591 -0.05200
 C21 C 0.33058 0.31073 -0.05191
 C22 C 0.34368 0.31530 -0.03483
 N23 N 0.33581 0.33262 -0.02435
 C24 C 0.36273 0.30388 -0.02968
 H25 H 0.40429 0.29186 -0.01295
 H26 H 0.40554 0.29364 0.02813
 H27 H 0.34328 0.34068 -0.01192
 H28 H 0.34339 0.31030 0.08469
 H29 H 0.31262 0.33967 0.08450
 H30 H 0.29302 0.40101 0.02718
 H31 H 0.29153 0.39922 -0.01389
 H32 H 0.33229 0.29766 -0.06309
 H33 H 0.34292 0.34059 0.02511
 H34 H 0.30155 0.32677 -0.06326
 C35 C 0.62952 0.72449 -0.01668
 C36 C 0.63013 0.72636 0.00461
 C37 C 0.64144 0.70864 0.01195
 N38 N 0.64755 0.69584 -0.00414
 C39 C 0.64020 0.70548 -0.02171
 C40 C 0.64467 0.70390 0.03329
 C41 C 0.65839 0.68740 0.04052
 C42 C 0.65885 0.67954 0.06080
 C43 C 0.67531 0.66477 0.06175
 C44 C 0.68449 0.66410 0.04205
 N45 N 0.67417 0.67808 0.02927
 C46 C 0.70280 0.65187 0.03673
 C47 C 0.70996 0.64909 0.01602
 C48 C 0.72914 0.63936 0.01047
 C49 C 0.72918 0.63813 -0.01089
 C50 C 0.70990 0.64691 -0.01770
 N51 N 0.69819 0.65363 -0.00122
 C52 C 0.70249 0.64654 -0.03859
 C53 C 0.68396 0.65771 -0.04547
 C54 C 0.67349 0.65377 -0.06426
 C55 C 0.65656 0.66794 -0.06531
 C56 C 0.65719 0.68037 -0.04720
 N57 N 0.67403 0.67404 -0.03521
 C58 C 0.64235 0.69704 -0.04224
 H59 H 0.62209 0.73591 -0.02726
 H60 H 0.62306 0.73931 0.01365
 H61 H 0.67954 0.68166 -0.02169
 H62 H 0.64857 0.68415 0.07364
 H63 H 0.68017 0.65584 0.07550
 H64 H 0.74166 0.63345 0.02073
 H65 H 0.74178 0.63112 -0.02031
 H66 H 0.64490 0.66870 -0.07787
 H67 H 0.67911 0.68289 0.01449
 H68 H 0.67744 0.64170 -0.07590
 C69 C 0.64498 0.26433 1.00562
 C70 C 0.64594 0.26421 0.98426
 C71 C 0.65414 0.28428 0.97843
 N72 N 0.65791 0.29682 0.99543
 C73 C 0.65206 0.28473 1.01213
 C74 C 0.65629 0.29136 0.95764
 C75 C 0.66856 0.30977 0.95195
 C76 C 0.66789 0.31982 0.93260
 C77 C 0.68325 0.33608 0.93301
 C78 C 0.69293 0.33536 0.95255
 N79 N 0.68392 0.31922 0.96396
 C80 C 0.71036 0.34863 0.95909
 C81 C 0.71646 0.35063 0.98027
 C82 C 0.73513 0.36074 0.98738
 C83 C 0.73379 0.36125 1.00875
 C84 C 0.71435 0.35142 1.01394
 N85 N 0.70381 0.34488 0.99654
 C86 C 0.70552 0.35079 1.03420
 C87 C 0.68763 0.33751 1.03942
 C88 C 0.67514 0.34003 1.05711
 C89 C 0.65999 0.32359 1.05682
 C90 C 0.66378 0.31127 1.03905
 N91 N 0.68063 0.31996 1.02847
 C92 C 0.65189 0.29241 1.03305
 H93 H 0.63953 0.25094 1.01524
 H94 H 0.64119 0.25089 0.97416
 H95 H 0.68817 0.31317 1.01555
 H96 H 0.65753 0.31575 0.91951
 H97 H 0.68694 0.34706 0.92031
 H98 H 0.74818 0.36736 0.97813
 H99 H 0.74559 0.36839 1.01924
 H100 H 0.64743 0.32121 1.06828
 H101 H 0.68947 0.31342 0.97824
 H102 H 0.67661 0.35256 1.06891
 C103 C 0.27622 0.62842 1.00925
 C104 C 0.27594 0.62771 0.98788
 C105 C 0.28487 0.64713 0.98109
 N106 N 0.29038 0.65983 0.99756
 C107 C 0.28489 0.64849 1.01484
 C108 C 0.28665 0.65334 0.95997
 C109 C 0.30010 0.67057 0.95333
 C110 C 0.29991 0.67966 0.93353
 C111 C 0.31665 0.69448 0.93291
 C112 C 0.32651 0.69399 0.95237
 N113 N 0.31634 0.67939 0.96469
 C114 C 0.34541 0.70557 0.95786
 C115 C 0.35250 0.70793 0.97870
 C116 C 0.37276 0.71534 0.98455
 C117 C 0.37278 0.71646 1.00591
 C118 C 0.35237 0.71006 1.01241
 N119 N 0.34004 0.70465 0.99572
 C120 C 0.34503 0.71026 1.03335
 C121 C 0.32615 0.69869 1.03938
 C122 C 0.31419 0.70299 1.05714
 C123 C 0.29781 0.68786 1.05777
 C124 C 0.30010 0.67469 1.04035
 N125 N 0.31728 0.68156 1.02905
 C126 C 0.28669 0.65655 1.03552
 H127 H 0.27067 0.61557 1.01948
 H128 H 0.27002 0.61434 0.97840
 H129 H 0.32376 0.67372 1.01612
 H130 H 0.28909 0.67575 0.92075
 H131 H 0.32124 0.70424 0.91958
 H132 H 0.38616 0.71941 0.97447
 H133 H 0.38632 0.72141 1.01554
 H134 H 0.28543 0.68688 1.06959
 H135 H 0.32177 0.67390 0.97912
 H136 H 0.31680 0.71588 1.06839
 C137 C 0.00883 0.29709 0.38009
 C138 C -0.01321 0.29784 0.38049
 C139 C -0.01987 0.30398 0.36065
 N140 N -0.00256 0.30750 0.34830
 C141 C 0.01496 0.30322 0.36018
 C142 C -0.04159 0.30513 0.35381
 C143 C -0.04719 0.31632 0.33520
 C144 C -0.06589 0.31269 0.32374
 C145 C -0.06558 0.32708 0.30738
 C146 C -0.04670 0.33919 0.30921
 N147 N -0.03541 0.33233 0.32608
 C148 C -0.04050 0.35636 0.29564
 C149 C -0.01868 0.36313 0.29398
 C150 C -0.01162 0.38257 0.28527
 C151 C 0.01042 0.38195 0.28507
 C152 C 0.01613 0.36236 0.29402
 N153 N -0.00165 0.35087 0.29953
 C154 C 0.03741 0.35475 0.29569
 C155 C 0.04310 0.33730 0.30876
 C156 C 0.06259 0.32652 0.30825
 C157 C 0.06227 0.31186 0.32448
 C158 C 0.04262 0.31421 0.33443
 N159 N 0.03106 0.32973 0.32475
 C160 C 0.03638 0.30338 0.35287
 H161 H 0.01918 0.29266 0.39301
 H162 H -0.02319 0.29423 0.39389
 H163 H 0.01686 0.33652 0.33020
 H164 H -0.07835 0.30067 0.32666
 H165 H -0.07776 0.32824 0.29531
 H166 H -0.02132 0.39584 0.27960
 H167 H 0.02105 0.39450 0.27910
 H168 H 0.07517 0.30097 0.32867
 H169 H -0.02145 0.33952 0.33212
 H170 H 0.07576 0.32913 0.29749
 C171 C 0.02244 0.70278 0.61111
 C172 C 0.00042 0.70425 0.61185
 C173 C -0.00594 0.69485 0.63052
 N174 N 0.01140 0.68773 0.64120
 C175 C 0.02877 0.69243 0.62932
 C176 C -0.02724 0.69443 0.63811
 C177 C -0.03350 0.68328 0.65642
 C178 C -0.05253 0.68695 0.66703
 C179 C -0.05311 0.67257 0.68337
 C180 C -0.03455 0.66022 0.68218
 N181 N -0.02262 0.66694 0.66570
 C182 C -0.02934 0.64299 0.69598
 C183 C -0.00806 0.63491 0.69792
 C184 C -0.00254 0.61582 0.70806
 C185 C 0.01942 0.61447 0.70743
 C186 C 0.02671 0.63243 0.69641
 N187 N 0.00990 0.64500 0.69072
 C188 C 0.04866 0.63756 0.69291
 C189 C 0.05569 0.65399 0.67904
 C190 C 0.07676 0.66151 0.67741
 C191 C 0.07722 0.67598 0.66108
 C192 C 0.05645 0.67686 0.65311
 N193 N 0.04348 0.66329 0.66405
 C194 C 0.05036 0.68893 0.63532
 H195 H 0.03262 0.70888 0.59871
 H196 H -0.00971 0.71169 0.60013
 H197 H 0.02789 0.65869 0.66002
 H198 H -0.06467 0.69891 0.66347
 H199 H -0.06575 0.67147 0.69493
 H200 H -0.01320 0.60397 0.71516
 H201 H 0.02885 0.60160 0.71427
 H202 H 0.09136 0.68456 0.65549
 H203 H -0.00902 0.65933 0.65988
 H204 H 0.09053 0.65679 0.68669
 C205 C 0.98147 0.62977 0.28065
 C206 C 1.00349 0.62947 0.27970
 C207 C 1.01112 0.63933 0.29784
 N208 N 0.99441 0.64608 0.30959
 C209 C 0.97632 0.64025 0.29906
 C210 C 1.03316 0.64123 0.30368
 C211 C 1.04017 0.65579 0.31963
 C212 C 1.05997 0.65494 0.32968
 C213 C 1.06108 0.67245 0.34293
 C214 C 1.04165 0.68331 0.34123
 N215 N 1.02905 0.67306 0.32686
 C216 C 1.03672 0.70320 0.35138
 C217 C 1.01538 0.71105 0.35313
 C218 C 1.00960 0.73031 0.36288
 C219 C 0.98757 0.73036 0.36390
 C220 C 0.98050 0.71112 0.35486
 N221 N 0.99749 0.69932 0.34842
 C222 C 0.95884 0.70390 0.35459
 C223 C 0.95168 0.68495 0.34414
 C224 C 0.93139 0.67559 0.34635
 C225 C 0.93035 0.65832 0.33273
 C226 C 0.95003 0.65765 0.32261
 N227 N 0.96286 0.67399 0.32953
 C228 C 0.95516 0.64318 0.30636
 H229 H 0.97048 0.62323 0.26903
 H230 H 1.01279 0.62282 0.26700
 H231 H 0.97741 0.67880 0.32293
 H232 H 1.07250 0.64305 0.32761
 H233 H 1.07488 0.67666 0.35251
 H234 H 1.02004 0.74272 0.36946
 H235 H 0.97793 0.74282 0.37111
 H236 H 0.91659 0.64766 0.33036
 H237 H 1.01475 0.67889 0.32058
 H238 H 0.91854 0.68081 0.35650
 C239 C 0.99308 0.36594 0.72452
 C240 C 1.01503 0.36424 0.72334
 C241 C 1.01916 0.34564 0.71189
 N242 N 1.00047 0.33595 0.70602
 C243 C 0.98447 0.34845 0.71355
 C244 C 1.03987 0.33712 0.70842
 C245 C 1.04384 0.31906 0.69543
 C246 C 1.06253 0.30696 0.69595
 C247 C 1.06054 0.29146 0.68060
 C248 C 1.04084 0.29475 0.67080
 N249 N 1.03070 0.31157 0.68007
 C250 C 1.03291 0.28265 0.65343
 C251 C 1.01082 0.28293 0.64765
 C252 C 1.00264 0.27610 0.62852
 C253 C 0.98072 0.27787 0.62960
 C254 C 0.97618 0.28610 0.64920
 N255 N 0.99457 0.28923 0.66025
 C256 C 0.95517 0.28940 0.65690
 C257 C 0.95075 0.30212 0.67470
 C258 C 0.93088 0.30326 0.68441
 C259 C 0.93280 0.31872 0.69984
 C260 C 0.95388 0.32644 0.69930
 N261 N 0.96462 0.31633 0.68379
 C262 C 0.96222 0.34348 0.71191
 H263 H 0.98454 0.37849 0.73283
 H264 H 1.02661 0.37526 0.73044
 H265 H 0.97970 0.32063 0.67809
 H266 H 1.07610 0.30897 0.70644
 H267 H 1.07228 0.27909 0.67717
 H268 H 1.01152 0.27054 0.61506
 H269 H 0.96941 0.27378 0.61728
 H270 H 0.91996 0.32385 0.71003
 H271 H 1.01669 0.31897 0.67483
 H272 H 0.91637 0.29422 0.68052
 C273 C 0.36677 0.02110 0.27183
 C274 C 0.36917 -0.00099 0.27174
 C275 C 0.36028 -0.00862 0.29020
 N276 N 0.35240 0.00807 0.30145
 C277 C 0.35624 0.02624 0.29020
 C278 C 0.36096 -0.03043 0.29700
 C279 C 0.34968 -0.03822 0.31468
 C280 C 0.35283 -0.05836 0.32377
 C281 C 0.33786 -0.06044 0.33939
 C282 C 0.32610 -0.04134 0.33975
 N283 N 0.33334 -0.02801 0.32444
 C284 C 0.30788 -0.03748 0.35257
 C285 C 0.29868 -0.01659 0.35514
 C286 C 0.28086 -0.01208 0.36742
 C287 C 0.27869 0.01005 0.36766
 C288 C 0.29525 0.01848 0.35561
 N289 N 0.30753 0.00221 0.34814
 C290 C 0.29976 0.04090 0.35322
 C291 C 0.31576 0.04936 0.33973
 C292 C 0.32291 0.07079 0.33968
 C293 C 0.33771 0.07268 0.32384
 C294 C 0.33919 0.05237 0.31462
 N295 N 0.32557 0.03834 0.32423
 C296 C 0.35206 0.04757 0.29709
 H297 H 0.37237 0.03212 0.25981
 H298 H 0.37687 -0.01032 0.25959
 H299 H 0.32154 0.02282 0.31911
 H300 H 0.36442 -0.07053 0.31935
 H301 H 0.33573 -0.07473 0.34899
 H302 H 0.27083 -0.02341 0.37599
 H303 H 0.26661 0.01892 0.37621
 H304 H 0.34625 0.08740 0.31950
 H305 H 0.32584 -0.01401 0.31923
 H306 H 0.31789 0.08380 0.34989
 C307 C 0.61788 -0.01100 0.71134
 C308 C 0.61638 0.01121 0.71096
 C309 C 0.62622 0.01811 0.69269
 N310 N 0.63384 0.00089 0.68201
 C311 C 0.62878 -0.01689 0.69342
 C312 C 0.62653 0.03975 0.68529
 C313 C 0.63902 0.04640 0.66799
 C314 C 0.63629 0.06557 0.65698
 C315 C 0.65214 0.06626 0.64199
 C316 C 0.66417 0.04756 0.64439
 N317 N 0.65611 0.03559 0.66029
 C318 C 0.68293 0.04254 0.63303
 C319 C 0.69263 0.02192 0.63382
 C320 C 0.71362 0.01777 0.62791
 C321 C 0.71626 -0.00424 0.62943
 C322 C 0.69661 -0.01290 0.63574
 N323 N 0.68224 0.00320 0.63868
 C324 C 0.69175 -0.03538 0.63772
 C325 C 0.67319 -0.04258 0.64870
 C326 C 0.66334 -0.06281 0.64640
 C327 C 0.64662 -0.06364 0.66038
 C328 C 0.64646 -0.04380 0.67058
 N329 N 0.66264 -0.03101 0.66337
 C330 C 0.63235 -0.03844 0.68696
 H331 H 0.61153 -0.02162 0.72335
 H332 H 0.60866 0.02110 0.72268
 H333 H 0.66758 -0.01615 0.66963
 H334 H 0.62414 0.07778 0.65949
 H335 H 0.65464 0.07917 0.63078
 H336 H 0.72579 0.02943 0.62311
 H337 H 0.73098 -0.01285 0.62619
 H338 H 0.63575 -0.07728 0.66269
 H339 H 0.66324 0.02200 0.66691
 H340 H 0.66765 -0.07565 0.63570
 C341 C 0.28965 0.98723 0.61874
 C342 C 0.28863 1.00942 0.61828
 C343 C 0.29654 1.01683 0.63734
 N344 N 0.30282 0.99983 0.64922
 C345 C 0.29862 0.98175 0.63783
 C346 C 0.29729 1.03891 0.64374
 C347 C 0.30960 1.04575 0.66132
 C348 C 0.30673 1.06511 0.67205
 C349 C 0.32217 1.06598 0.68744
 C350 C 0.33387 1.04699 0.68593
 N351 N 0.32615 1.03473 0.66999
 C352 C 0.35189 1.04208 0.69852
 C353 C 0.36045 1.02103 0.70058
 C354 C 0.37920 1.01618 0.71132
 C355 C 0.38102 0.99402 0.71104
 C356 C 0.36338 0.98602 0.69998
 N357 N 0.35073 1.00260 0.69378
 C358 C 0.35846 0.96371 0.69713
 C359 C 0.34090 0.95611 0.68489
 C360 C 0.33311 0.93490 0.68473
 C361 C 0.31685 0.93399 0.67008
 C362 C 0.31530 0.95460 0.66152
 N363 N 0.33008 0.96791 0.67054
 C364 C 0.30166 0.96021 0.64472
 H365 H 0.28462 0.97636 0.60632
 H366 H 0.28284 1.01896 0.60528
 H367 H 0.33413 0.98343 0.66547
 H368 H 0.29467 1.07734 0.66921
 H369 H 0.32445 1.07906 0.69856
 H370 H 0.39027 1.02741 0.71887
 H371 H 0.39372 0.98491 0.71848
 H372 H 0.30754 0.91967 0.66589
 H373 H 0.33321 1.02081 0.66398
 H374 H 0.33867 0.92137 0.69401
 C375 C 0.62230 0.98413 0.29121
 C376 C 0.62319 1.00638 0.29064
 C377 C 0.64229 1.01260 0.30042
 N378 N 0.65313 0.99480 0.30668
 C379 C 0.64092 0.97741 0.30116
 C380 C 0.65078 1.03405 0.30108
 C381 C 0.66995 1.03960 0.31208
 C382 C 0.68144 1.05892 0.30979
 C383 C 0.69758 1.05886 0.32448
 C384 C 0.69531 1.03978 0.33580
 N385 N 0.67854 1.02804 0.32802
 C386 C 0.70805 1.03402 0.35338
 C387 C 0.70916 1.01222 0.36045
 C388 C 0.71727 1.00570 0.37966
 C389 C 0.71663 0.98346 0.37980
 C390 C 0.70771 0.97709 0.36090
 N391 N 0.70313 0.99465 0.34906
 C392 C 0.70520 0.95531 0.35439
 C393 C 0.69151 0.94902 0.33778
 C394 C 0.69115 0.92865 0.32852
 C395 C 0.67457 0.92868 0.31420
 C396 C 0.66534 0.94909 0.31509
 N397 N 0.67569 0.96133 0.32958
 C398 C 0.64719 0.95554 0.30337
 H399 H 0.60964 0.97403 0.28458
 H400 H 0.61141 1.01667 0.28322
 H401 H 0.67081 0.97634 0.33518
 H402 H 0.67844 1.07199 0.29894
 H403 H 0.70952 1.07160 0.32667
 H404 H 0.72298 1.01587 0.39235
 H405 H 0.72190 0.97314 0.39247
 H406 H 0.66979 0.91517 0.30434
 H407 H 0.67178 1.01426 0.33486
 H408 H 0.70158 0.91510 0.33187
 O409 O 0.85246 0.82108 0.48400
 O410 O 0.82603 0.85477 0.52355
 O411 O 0.85646 0.82562 0.52408
 O412 O 0.82238 0.84992 0.48349
 O413 O 0.79787 0.82423 0.48826
 O414 O 0.83205 0.79989 0.52904
 O415 O 0.80158 0.82905 0.52841
 O416 O 0.82817 0.79519 0.48887
 Cu417 Cu 0.84179 0.84044 0.50339
 Cu418 Cu 0.81248 0.80950 0.50920
 C419 C 0.84489 0.80236 0.47967
 C420 C 0.80907 0.84787 0.53250
 C421 C 0.85027 0.80842 0.53330
 C422 C 0.80430 0.84130 0.47892
 O423 O 0.16819 0.14099 0.51751
 O424 O 0.13813 0.17202 0.47844
 O425 O 0.16739 0.14208 0.47699
 O426 O 0.13960 0.17157 0.51898
 O427 O 0.16525 0.19661 0.51879
 O428 O 0.19310 0.16706 0.47700
 O429 O 0.16366 0.19718 0.47815
 O430 O 0.19396 0.16591 0.51764
 Cu431 Cu 0.15077 0.15418 0.49798
 Cu432 Cu 0.18157 0.18420 0.49787
 C433 C 0.18622 0.14800 0.52424
 C434 C 0.14560 0.18992 0.47164
 C435 C 0.18511 0.14946 0.46991
 C436 C 0.14764 0.18919 0.52602
 O437 O 0.18743 0.84695 0.47301
 O438 O 0.15949 0.81704 0.51429
 O439 O 0.18996 0.84621 0.51353
 O440 O 0.15825 0.81634 0.47381
 O441 O 0.18332 0.79124 0.47270
 O442 O 0.21467 0.82073 0.51262
 O443 O 0.18403 0.79140 0.51330
 O444 O 0.21269 0.82204 0.47194
 Cu445 Cu 0.17133 0.83417 0.49374
 Cu446 Cu 0.20120 0.80383 0.49251
 C447 C 0.20484 0.83983 0.46544
 C448 C 0.16676 0.79910 0.52083
 C449 C 0.20774 0.83851 0.51992
 C450 C 0.16533 0.79856 0.46657
 O451 O 0.83965 0.18789 0.52214
 O452 O 0.81273 0.15801 0.47964
 O453 O 0.84389 0.18652 0.48181
 O454 O 0.80848 0.15949 0.51978
 O455 O 0.78517 0.18617 0.51706
 O456 O 0.82037 0.21287 0.47816
 O457 O 0.78892 0.18419 0.47658
 O458 O 0.81657 0.21467 0.51868
 Cu459 Cu 0.82855 0.17037 0.50115
 Cu460 Cu 0.80041 0.20215 0.49726
 C461 C 0.83284 0.20641 0.52765
 C462 C 0.79606 0.16579 0.47100
 C463 C 0.83827 0.20431 0.47348
 C464 C 0.79076 0.16811 0.52492
 O465 O 0.48184 0.85008 0.81767
 O466 O 0.52334 0.81910 0.84583
 O467 O 0.52343 0.84739 0.81606
 O468 O 0.48158 0.82219 0.84854
 O469 O 0.47805 0.79530 0.82597
 O470 O 0.51952 0.82119 0.79276
 O471 O 0.51975 0.79237 0.82306
 O472 O 0.47768 0.82297 0.79538
 Cu473 Cu 0.50282 0.83733 0.83434
 Cu474 Cu 0.49846 0.80526 0.80700
 C475 C 0.47271 0.84182 0.80169
 C476 C 0.52867 0.80045 0.83921
 C477 C 0.52855 0.83875 0.79881
 C478 C 0.47271 0.80442 0.84296
 O479 O 0.53184 0.18156 0.15814
 O480 O 0.48791 0.15607 0.18823
 O481 O 0.49025 0.18264 0.15682
 O482 O 0.52972 0.15378 0.18877
 O483 O 0.53064 0.18091 0.21128
 O484 O 0.49096 0.21016 0.17889
 O485 O 0.48891 0.18344 0.21048
 O486 O 0.53288 0.20883 0.18050
 Cu487 Cu 0.50987 0.16576 0.17081
 Cu488 Cu 0.51097 0.19860 0.19752
 C489 C 0.53972 0.19970 0.16405
 C490 C 0.48093 0.16538 0.20456
 C491 C 0.48390 0.20134 0.16221
 C492 C 0.53683 0.16220 0.20555
 O493 O 0.51838 0.15240 0.81632
 O494 O 0.48168 0.17886 0.85319
 O495 O 0.47736 0.15065 0.82311
 O496 O 0.52290 0.18046 0.84660
 O497 O 0.51784 0.20751 0.82461
 O498 O 0.47280 0.17714 0.80040
 O499 O 0.47659 0.20543 0.83067
 O500 O 0.51423 0.17943 0.79412
 Cu501 Cu 0.50057 0.16293 0.83705
 Cu502 Cu 0.49489 0.19505 0.81017
 C503 C 0.52253 0.16130 0.79889
 C504 C 0.47291 0.19672 0.84830
 C505 C 0.46742 0.15864 0.80759
 C506 C 0.52797 0.19921 0.83986
 O507 O 0.47656 0.81987 0.14843
 O508 O 0.51966 0.84917 0.17631
 O509 O 0.51834 0.81893 0.14787
 O510 O 0.47800 0.84965 0.17738
 O511 O 0.47762 0.82420 0.20162
 O512 O 0.51822 0.79365 0.17225
 O513 O 0.51963 0.82409 0.20088
 O514 O 0.47640 0.79442 0.17265
 Cu515 Cu 0.49815 0.83692 0.16006
 Cu516 Cu 0.49800 0.80656 0.18932
 C517 C 0.46918 0.80208 0.15560
 C518 C 0.52692 0.84184 0.19344
 C519 C 0.52505 0.80092 0.15491
 C520 C 0.47097 0.84223 0.19459
 O521 O 0.83400 0.48463 0.85841
 O522 O 0.86297 0.52631 0.82865
 O523 O 0.83182 0.52646 0.85571
 O524 O 0.86433 0.48440 0.83011
 O525 O 0.83956 0.48107 0.80546
 O526 O 0.80803 0.52438 0.83010
 O527 O 0.83936 0.52334 0.80297
 O528 O 0.80932 0.48220 0.83362
 Cu529 Cu 0.85069 0.50567 0.84574
 Cu530 Cu 0.82163 0.50248 0.81551
 C531 C 0.81655 0.47652 0.85138
 C532 C 0.85641 0.53181 0.81066
 C533 C 0.81436 0.53262 0.84727
 C534 C 0.85750 0.47561 0.81334
 O535 O 0.18146 0.48612 0.15391
 O536 O 0.15319 0.52631 0.18571
 O537 O 0.18115 0.52820 0.15556
 O538 O 0.15381 0.48433 0.18438
 O539 O 0.18031 0.48408 0.20742
 O540 O 0.20787 0.52784 0.17834
 O541 O 0.17978 0.52636 0.20865
 O542 O 0.20805 0.48555 0.17682
 Cu543 Cu 0.16477 0.50627 0.16759
 Cu544 Cu 0.19669 0.50593 0.19511
 C545 C 0.19961 0.47899 0.15980
 C546 C 0.16149 0.53314 0.20266
 C547 C 0.19926 0.53544 0.16190
 C548 C 0.16224 0.47683 0.20095
 O549 O 0.81100 0.52269 0.15461
 O550 O 0.84110 0.48180 0.18443
 O551 O 0.81211 0.48058 0.15487
 O552 O 0.84013 0.52404 0.18372
 O553 O 0.81479 0.52329 0.20778
 O554 O 0.78659 0.47960 0.17873
 O555 O 0.81557 0.48112 0.20829
 O556 O 0.78535 0.52193 0.17834
 Cu557 Cu 0.82865 0.50231 0.16704
 Cu558 Cu 0.79799 0.50145 0.19566
 C559 C 0.79296 0.52924 0.16131
 C560 C 0.83358 0.47455 0.20152
 C561 C 0.79453 0.47271 0.16173
 C562 C 0.83236 0.53105 0.20071
 O563 O 0.17410 0.51585 0.85180
 O564 O 0.14599 0.46905 0.82815
 O565 O 0.17458 0.47417 0.85749
 O566 O 0.14518 0.51054 0.82229
 O567 O 0.17142 0.50842 0.79924
 O568 O 0.20041 0.47102 0.83416
 O569 O 0.17164 0.46639 0.80458
 O570 O 0.20022 0.51287 0.82876
 Cu571 Cu 0.15738 0.49275 0.84227
 Cu572 Cu 0.18852 0.48940 0.81432
 C573 C 0.19212 0.52219 0.84455
 C574 C 0.15388 0.45980 0.81223
 C575 C 0.19252 0.46636 0.85190
 C576 C 0.15317 0.51558 0.80471
 C577 C 0.30953 0.38747 0.07596
 C578 C 0.29854 0.39976 0.09080
 C579 C 0.27592 0.39942 0.09153
 C580 C 0.26453 0.38590 0.07745
 C581 C 0.27553 0.37376 0.06253
 C582 C 0.29806 0.37460 0.06160
 C583 C 0.26495 0.41327 0.10716
 C584 C 0.24431 0.41935 0.10540
 C585 C 0.23329 0.43420 0.12012
 C586 C 0.21365 0.44324 0.11381
 C587 C 0.20267 0.45756 0.12677
 C588 C 0.21104 0.46320 0.14647
 C589 C 0.23050 0.45390 0.15304
 C590 C 0.24148 0.43945 0.14007
 H591 H 0.32696 0.38820 0.07548
 H592 H 0.30774 0.40981 0.10156
 H593 H 0.24718 0.38440 0.07791
 H594 H 0.26649 0.36365 0.05170
 H595 H 0.27477 0.41963 0.11977
 H596 H 0.23511 0.41429 0.09185
 H597 H 0.20685 0.43940 0.09863
 H598 H 0.18770 0.46439 0.12123
 H599 H 0.23725 0.45777 0.16822
 H600 H 0.25619 0.43242 0.14591
 C601 C 0.73321 0.64891 0.06233
 C602 C 0.74478 0.63709 0.07718
 C603 C 0.73749 0.61650 0.08366
 C604 C 0.71838 0.60790 0.07489
 C605 C 0.70694 0.61967 0.05995
 C606 C 0.71434 0.64016 0.05353
 C607 C 0.75090 0.60381 0.09835
 C608 C 0.74288 0.58820 0.11078
 C609 C 0.75648 0.57431 0.12423
 C610 C 0.74730 0.56447 0.14189
 C611 C 0.75927 0.55022 0.15423
 C612 C 0.78061 0.54524 0.14896
 C613 C 0.78984 0.55513 0.13132
 C614 C 0.77793 0.56950 0.11908
 H615 H 0.73918 0.66467 0.05737
 H616 H 0.75955 0.64395 0.08352
 H617 H 0.71261 0.59182 0.07896
 H618 H 0.69250 0.61264 0.05307
 H619 H 0.76790 0.60784 0.09915
 H620 H 0.72562 0.58566 0.11154
 H621 H 0.73075 0.56773 0.14608
 H622 H 0.75165 0.54278 0.16766
 H623 H 0.80621 0.55155 0.12677
 H624 H 0.78537 0.57622 0.10524
 C625 C 0.73229 0.35241 0.92636
 C626 C 0.74326 0.36524 0.91175
 C627 C 0.74426 0.38789 0.91409
 C628 C 0.73335 0.39760 0.93085
 C629 C 0.72221 0.38482 0.94528
 C630 C 0.72184 0.36212 0.94333
 C631 C 0.75662 0.40110 0.89891
 C632 C 0.76738 0.41910 0.90470
 C633 C 0.78032 0.43257 0.89023
 C634 C 0.79769 0.44460 0.89839
 C635 C 0.80973 0.45840 0.88561
 C636 C 0.80441 0.46081 0.86439
 C637 C 0.78702 0.44875 0.85614
 C638 C 0.77511 0.43467 0.86893
 H639 H 0.73207 0.33491 0.92454
 H640 H 0.75137 0.35744 0.89885
 H641 H 0.73322 0.41508 0.93271
 H642 H 0.71390 0.39262 0.95806
 H643 H 0.75798 0.39510 0.88308
 H644 H 0.76772 0.42364 0.92105
 H645 H 0.80191 0.44338 0.91478
 H646 H 0.82294 0.46757 0.89249
 H647 H 0.78249 0.45035 0.83988
 H648 H 0.76148 0.42599 0.86227
 C649 C 0.25121 0.64180 0.94478
 C650 C 0.23896 0.62915 0.93097
 C651 C 0.24895 0.61556 0.91634
 C652 C 0.27167 0.61529 0.91560
 C653 C 0.28390 0.62808 0.92938
 C654 C 0.27375 0.64118 0.94421
 C655 C 0.23496 0.60119 0.90326
 C656 C 0.24203 0.58837 0.88780
 C657 C 0.22806 0.57260 0.87636
 C658 C 0.23533 0.56418 0.85729
 C659 C 0.22345 0.54819 0.84668
 C660 C 0.20401 0.54018 0.85497
 C661 C 0.19656 0.54878 0.87390
 C662 C 0.20847 0.56468 0.88456
 H663 H 0.24313 0.65181 0.95619
 H664 H 0.22156 0.62969 0.93201
 H665 H 0.28023 0.60494 0.90494
 H666 H 0.30132 0.62732 0.92887
 H667 H 0.21795 0.60125 0.90681
 H668 H 0.25868 0.58927 0.88303
 H669 H 0.25042 0.56981 0.85068
 H670 H 0.22967 0.54186 0.83214
 H671 H 0.18176 0.54280 0.88083
 H672 H 0.20254 0.57007 0.89951
 C673 C 0.07035 0.30204 0.37421
 C674 C 0.08517 0.29054 0.38633
 C675 C 0.08259 0.26809 0.38948
 C676 C 0.06536 0.25718 0.37950
 C677 C 0.05057 0.26867 0.36743
 C678 C 0.05280 0.29119 0.36490
 C679 C 0.09812 0.25657 0.40312
 C680 C 0.09279 0.23849 0.41370
 C681 C 0.10740 0.22645 0.42790
 C682 C 0.10059 0.20592 0.43491
 C683 C 0.11314 0.19403 0.44883
 C684 C 0.13287 0.20239 0.45622
 C685 C 0.13987 0.22287 0.44915
 C686 C 0.12728 0.23483 0.43516
 H687 H 0.07235 0.31942 0.37235
 H688 H 0.09843 0.29928 0.39362
 H689 H 0.06328 0.23977 0.38078
 H690 H 0.03728 0.26001 0.36009
 H691 H 0.11397 0.26376 0.40486
 H692 H 0.07659 0.23203 0.41216
 H693 H 0.08538 0.19903 0.42966
 H694 H 0.10722 0.17831 0.45394
 H695 H 0.15496 0.22981 0.45465
 H696 H 0.13308 0.25070 0.43054
 C697 C 0.07604 0.68889 0.60535
 C698 C 0.09166 0.69924 0.59312
 C699 C 0.09893 0.72030 0.59812
 C700 C 0.09086 0.73047 0.61616
 C701 C 0.07517 0.72015 0.62829
 C702 C 0.06755 0.69943 0.62283
 C703 C 0.11463 0.73119 0.58409
 C704 C 0.11621 0.75287 0.58245
 C705 C 0.13008 0.76422 0.56707
 C706 C 0.12468 0.78548 0.56140
 C707 C 0.13674 0.79678 0.54658
 C708 C 0.15470 0.78716 0.53716
 C709 C 0.16055 0.76608 0.54321
 C710 C 0.14837 0.75469 0.55804
 H711 H 0.07033 0.67281 0.60104
 H712 H 0.09775 0.69096 0.57945
 H713 H 0.09661 0.74631 0.62104
 H714 H 0.06890 0.72832 0.64193
 H715 H 0.12374 0.72099 0.57365
 H716 H 0.10558 0.76294 0.59155
 H717 H 0.11081 0.79329 0.56823
 H718 H 0.13186 0.81306 0.54240
 H719 H 0.17440 0.75831 0.53634
 H720 H 0.15344 0.73857 0.56247
 C721 C 0.93298 0.73445 0.35861
 C722 C 0.91905 0.74675 0.37087
 C723 C 0.91481 0.74080 0.39162
 C724 C 0.92489 0.72231 0.39995
 C725 C 0.93890 0.71012 0.38773
 C726 C 0.94306 0.71618 0.36705
 C727 C 0.90113 0.75500 0.40455
 C728 C 0.89023 0.74788 0.42127
 C729 C 0.87802 0.76246 0.43519
 C730 C 0.86094 0.75385 0.44694
 C731 C 0.84984 0.76689 0.46110
 C732 C 0.85586 0.78876 0.46400
 C733 C 0.87297 0.79738 0.45221
 C734 C 0.88395 0.78439 0.43798
 H735 H 0.93622 0.73938 0.34269
 H736 H 0.91169 0.76105 0.36418
 H737 H 0.92259 0.71761 0.41607
 H738 H 0.94682 0.69616 0.39447
 H739 H 0.89975 0.77181 0.39981
 H740 H 0.88981 0.73068 0.42479
 H741 H 0.85622 0.73695 0.44524
 H742 H 0.83681 0.75974 0.47003
 H743 H 0.87808 0.81413 0.45416
 H744 H 0.89747 0.79143 0.42970
 C745 C 0.93580 0.25586 0.64495
 C746 C 0.91999 0.24552 0.63289
 C747 C 0.90519 0.25767 0.62121
 C748 C 0.90589 0.28052 0.62271
 C749 C 0.92174 0.29087 0.63484
 C750 C 0.93701 0.27859 0.64572
 C751 C 0.88997 0.24571 0.60733
 C752 C 0.87964 0.25464 0.59107
 C753 C 0.86699 0.24163 0.57579
 C754 C 0.85032 0.25156 0.56456
 C755 C 0.83890 0.24005 0.54919
 C756 C 0.84417 0.21844 0.54451
 C757 C 0.86088 0.20851 0.55574
 C758 C 0.87219 0.21995 0.57116
 H759 H 0.94745 0.24616 0.65333
 H760 H 0.91975 0.22793 0.63218
 H761 H 0.89442 0.29053 0.61453
 H762 H 0.92242 0.30845 0.63537
 H763 H 0.88823 0.22843 0.61004
 H764 H 0.88074 0.27193 0.58830
 H765 H 0.84619 0.26832 0.56765
 H766 H 0.82618 0.24820 0.54073
 H767 H 0.86545 0.19193 0.55243
 H768 H 0.88543 0.21195 0.57889
 C769 C 0.35491 0.07407 0.26760
 C770 C 0.36703 0.08889 0.25586
 C771 C 0.38755 0.09567 0.26269
 C772 C 0.39559 0.08757 0.28172
 C773 C 0.38353 0.07265 0.29334
 C774 C 0.36328 0.06561 0.28621
 C775 C 0.40093 0.10944 0.24877
 C776 C 0.41714 0.12210 0.25571
 C777 C 0.43214 0.13383 0.24165
 C778 C 0.44296 0.15239 0.24912
 C779 C 0.45842 0.16296 0.23688
 C780 C 0.46365 0.15494 0.21699
 C781 C 0.45273 0.13642 0.20944
 C782 C 0.43713 0.12597 0.22162
 H783 H 0.33939 0.06853 0.26179
 H784 H 0.36059 0.09471 0.24118
 H785 H 0.41157 0.09184 0.28720
 H786 H 0.39030 0.06596 0.30753
 H787 H 0.39721 0.10906 0.23224
 H788 H 0.41953 0.12421 0.27234
 H789 H 0.43958 0.15862 0.26458
 H790 H 0.46662 0.17713 0.24319
 H791 H 0.45647 0.12980 0.19422
 H792 H 0.42960 0.11133 0.21557
 C793 C 0.59017 0.05231 0.69676
 C794 C 0.57726 0.06599 0.70866
 C795 C 0.58633 0.08376 0.71938
 C796 C 0.60860 0.08790 0.71761
 C797 C 0.62156 0.07403 0.70586
 C798 C 0.61250 0.05588 0.69573
 C799 C 0.57248 0.09626 0.73371
 C800 C 0.57639 0.11690 0.73936
 C801 C 0.56276 0.12821 0.75477
 C802 C 0.55882 0.15049 0.75253
 C803 C 0.54573 0.16133 0.76684
 C804 C 0.53680 0.15016 0.78393
 C805 C 0.54129 0.12800 0.78647
 C806 C 0.55406 0.11711 0.77202
 H807 H 0.58288 0.03845 0.68895
 H808 H 0.56019 0.06243 0.70983
 H809 H 0.61620 0.10116 0.72602
 H810 H 0.63878 0.07697 0.70531
 H811 H 0.55820 0.08811 0.73961
 H812 H 0.58930 0.12603 0.73203
 H813 H 0.56557 0.15940 0.73949
 H814 H 0.54266 0.17846 0.76456
 H815 H 0.53471 0.11895 0.79950
 H816 H 0.55733 0.10006 0.77451
 C817 C 0.39322 0.94393 0.70105
 C818 C 0.40708 0.93074 0.71254
 C819 C 0.39999 0.92056 0.73089
 C820 C 0.37868 0.92377 0.73757
 C821 C 0.36495 0.93736 0.72630
 C822 C 0.37218 0.94763 0.70804
 C823 C 0.41556 0.90803 0.74347
 C824 C 0.41001 0.89042 0.75455
 C825 C 0.42598 0.87821 0.76693
 C826 C 0.42500 0.85545 0.76723
 C827 C 0.44025 0.84358 0.77847
 C828 C 0.45633 0.85433 0.79016
 C829 C 0.45689 0.87714 0.79038
 C830 C 0.44198 0.88899 0.77872
 H831 H 0.39909 0.95189 0.68708
 H832 H 0.42346 0.92861 0.70718
 H833 H 0.37291 0.91651 0.75192
 H834 H 0.34885 0.94028 0.73204
 H835 H 0.43236 0.91295 0.74281
 H836 H 0.39372 0.88402 0.75356
 H837 H 0.41269 0.84684 0.75840
 H838 H 0.43938 0.82601 0.77816
 H839 H 0.46911 0.88582 0.79926
 H840 H 0.44280 0.90656 0.77909
 C841 C 0.62064 0.92469 0.30260
 C842 C 0.60814 0.90947 0.29160
 C843 C 0.60948 0.90797 0.26974
 C844 C 0.62432 0.92151 0.25919
 C845 C 0.63668 0.93680 0.27019
 C846 C 0.63472 0.93864 0.29190
 C847 C 0.59514 0.89227 0.25863
 C848 C 0.58990 0.89417 0.23836
 C849 C 0.57429 0.87980 0.22721
 C850 C 0.56606 0.88695 0.20800
 C851 C 0.55095 0.87449 0.19699
 C852 C 0.54369 0.85443 0.20486
 C853 C 0.55224 0.84694 0.22386
 C854 C 0.56745 0.85943 0.23491
 H855 H 0.61908 0.92586 0.31940
 H856 H 0.59707 0.89912 0.30016
 H857 H 0.62659 0.92036 0.24251
 H858 H 0.64773 0.94730 0.26179
 H859 H 0.58759 0.87974 0.26797
 H860 H 0.59620 0.90779 0.22957
 H861 H 0.57112 0.90245 0.20158
 H862 H 0.54477 0.88074 0.18237
 H863 H 0.54711 0.83146 0.23026
 H864 H 0.57380 0.85293 0.24931
 C865 C 0.37660 0.30076 0.93450
 C866 C 0.38728 0.28907 0.91902
 C867 C 0.39505 0.26816 0.92306
 C868 C 0.39128 0.25887 0.94279
 C869 C 0.38063 0.27056 0.95829
 C870 C 0.37333 0.29182 0.95451
 C871 C 0.40665 0.25658 0.90621
 C872 C 0.42065 0.24051 0.90980
 C873 C 0.43300 0.22933 0.89321
 C874 C 0.44213 0.20911 0.89783
 C875 C 0.45472 0.19835 0.88313
 C876 C 0.45863 0.20764 0.86345
 C877 C 0.44942 0.22783 0.85874
 C878 C 0.43680 0.23861 0.87345
 H879 H 0.37143 0.31711 0.93097
 H880 H 0.38980 0.29656 0.90391
 H881 H 0.39610 0.24245 0.94630
 H882 H 0.37759 0.26269 0.97312
 H883 H 0.40383 0.26206 0.89041
 H884 H 0.42349 0.23516 0.92565
 H885 H 0.43960 0.20165 0.91294
 H886 H 0.46162 0.18285 0.88730
 H887 H 0.45228 0.23552 0.84379
 H888 H 0.43067 0.25443 0.86940
 C889 C 0.60620 0.70606 0.94504
 C890 C 0.59268 0.71485 0.92985
 C891 C 0.60124 0.72345 0.91138
 C892 C 0.62352 0.72213 0.90785
 C893 C 0.63705 0.71278 0.92283
 C894 C 0.62861 0.70510 0.94187
 C895 C 0.58656 0.73381 0.89624
 C896 C 0.59173 0.75230 0.88637
 C897 C 0.57595 0.76429 0.87353
 C898 C 0.57590 0.78705 0.87433
 C899 C 0.56052 0.79881 0.86319
 C900 C 0.54527 0.78802 0.85055
 C901 C 0.54580 0.76525 0.84915
 C902 C 0.56089 0.75346 0.86068
 H903 H 0.59911 0.69982 0.95929
 H904 H 0.57552 0.71549 0.93277
 H905 H 0.63047 0.72830 0.89353
 H906 H 0.65421 0.71233 0.91990
 H907 H 0.57029 0.72738 0.89499
 H908 H 0.60717 0.76003 0.88950
 H909 H 0.58745 0.79573 0.88404
 H910 H 0.56059 0.81636 0.86441
 H911 H 0.53427 0.75653 0.83949
 H912 H 0.56085 0.73591 0.85945
 C913 C 0.36328 0.74427 0.04370
 C914 C 0.37503 0.75653 0.05820
 C915 C 0.38040 0.74786 0.07775
 C916 C 0.37298 0.72687 0.08287
 C917 C 0.36106 0.71461 0.06840
 C918 C 0.35636 0.72296 0.04841
 C919 C 0.39374 0.76134 0.09211
 C920 C 0.40645 0.75312 0.10710
 C921 C 0.42155 0.76658 0.11982
 C922 C 0.42907 0.75839 0.13894
 C923 C 0.44422 0.77005 0.15081
 C924 C 0.45234 0.79010 0.14370
 C925 C 0.44477 0.79833 0.12461
 C926 C 0.42966 0.78670 0.11276
 H927 H 0.35934 0.75161 0.02882
 H928 H 0.38024 0.77278 0.05396
 H929 H 0.37622 0.71984 0.09801
 H930 H 0.35610 0.69828 0.07262
 H931 H 0.39378 0.77867 0.08935
 H932 H 0.40631 0.73582 0.11002
 H933 H 0.42328 0.74284 0.14465
 H934 H 0.44980 0.76321 0.16541
 H935 H 0.45083 0.81363 0.11856
 H936 H 0.42500 0.79331 0.09780
 C937 C 0.61761 0.27491 0.04290
 C938 C 0.60502 0.26341 0.05718
 C939 C 0.61297 0.25852 0.07711
 C940 C 0.63392 0.26545 0.08254
 C941 C 0.64662 0.27691 0.06819
 C942 C 0.63878 0.28156 0.04800
 C943 C 0.59921 0.24543 0.09127
 C944 C 0.60113 0.24547 0.11213
 C945 C 0.58634 0.23284 0.12569
 C946 C 0.58124 0.24091 0.14553
 C947 C 0.56639 0.22997 0.15820
 C948 C 0.55658 0.21053 0.15136
 C949 C 0.56240 0.20197 0.13186
 C950 C 0.57713 0.21298 0.11916
 H951 H 0.61065 0.27880 0.02784
 H952 H 0.58891 0.25835 0.05262
 H953 H 0.64082 0.26151 0.09758
 H954 H 0.66293 0.28139 0.07261
 H955 H 0.58614 0.23627 0.08412
 H956 H 0.61271 0.25621 0.11962
 H957 H 0.58832 0.25604 0.15100
 H958 H 0.56236 0.23691 0.17321
 H959 H 0.55530 0.18693 0.12621
 H960 H 0.58128 0.20589 0.10426
 C961 C 0.29417 0.07450 0.62649
 C962 C 0.28235 0.08927 0.61459
 C963 C 0.26113 0.08442 0.60846
 C964 C 0.25157 0.06491 0.61537
 C965 C 0.26337 0.05012 0.62718
 C966 C 0.28500 0.05445 0.63259
 C967 C 0.24945 0.10004 0.59499
 C968 C 0.23335 0.09395 0.58216
 C969 C 0.22151 0.10886 0.56812
 C970 C 0.20147 0.10191 0.56029
 C971 C 0.18994 0.11478 0.54633
 C972 C 0.19827 0.13491 0.53969
 C973 C 0.21832 0.14199 0.54754
 C974 C 0.22987 0.12910 0.56160
 H975 H 0.31079 0.07841 0.63026
 H976 H 0.29001 0.10430 0.60970
 H977 H 0.23491 0.06102 0.61193
 H978 H 0.25545 0.03533 0.63236
 H979 H 0.25484 0.11680 0.59533
 H980 H 0.22836 0.07707 0.58172
 H981 H 0.19470 0.08637 0.56494
 H982 H 0.17458 0.10878 0.54058
 H983 H 0.22522 0.15737 0.54261
 H984 H 0.24549 0.13485 0.56680
 C985 C 0.74199 0.04691 0.36927
 C986 C 0.75376 0.06263 0.38027
 C987 C 0.74423 0.08222 0.38628
 C988 C 0.72279 0.08614 0.38028
 C989 C 0.71099 0.07041 0.36922
 C990 C 0.72028 0.05038 0.36385
 C991 C 0.75727 0.09779 0.39889
 C992 C 0.74886 0.11342 0.41091
 C993 C 0.76199 0.12722 0.42520
 C994 C 0.75388 0.14736 0.43160
 C995 C 0.76516 0.16020 0.44608
 C996 C 0.78470 0.15301 0.45466
 C997 C 0.79288 0.13292 0.44815
 C998 C 0.78166 0.12013 0.43366
 H999 H 0.74997 0.03205 0.36480
 H1000 H 0.77034 0.05929 0.38440
 H1001 H 0.71497 0.10125 0.38400
 H1002 H 0.69431 0.07368 0.36543
 H1003 H 0.77452 0.09548 0.39889
 H1004 H 0.73168 0.11613 0.41084
 H1005 H 0.73867 0.15310 0.42549
 H1006 H 0.75836 0.17555 0.45085
 H1007 H 0.80780 0.12681 0.45458
 H1008 H 0.78814 0.10441 0.42977
 C1009 C 0.71109 0.92983 0.63815
 C1010 C 0.72423 0.91462 0.62834
 C1011 C 0.73199 0.91837 0.60813
 C1012 C 0.72582 0.93736 0.59761
 C1013 C 0.71259 0.95249 0.60732
 C1014 C 0.70514 0.94912 0.62784
 C1015 C 0.74568 0.90185 0.59804
 C1016 C 0.76049 0.90703 0.58364
 C1017 C 0.77357 0.89086 0.57234
 C1018 C 0.79272 0.89785 0.56279
 C1019 C 0.80465 0.88367 0.55046
 C1020 C 0.79756 0.86218 0.54722
 C1021 C 0.77862 0.85501 0.55712
 C1022 C 0.76671 0.86919 0.56953
 H1023 H 0.70595 0.92672 0.65402
 H1024 H 0.72860 0.90000 0.63669
 H1025 H 0.73073 0.94035 0.58167
 H1026 H 0.70767 0.96660 0.59847
 H1027 H 0.74395 0.88520 0.60322
 H1028 H 0.76355 0.92399 0.58015
 H1029 H 0.79829 0.91449 0.56460
 H1030 H 0.81913 0.88975 0.54302
 H1031 H 0.77265 0.83858 0.55483
 H1032 H 0.75176 0.86331 0.57615
 C1033 C 0.31004 0.93547 0.38045
 C1034 C 0.30043 0.91892 0.39224
 C1035 C 0.27940 0.91173 0.38772
 C1036 C 0.26848 0.92079 0.37054
 C1037 C 0.27803 0.93737 0.35883
 C1038 C 0.29883 0.94500 0.36377
 C1039 C 0.26928 0.89514 0.40144
 C1040 C 0.24788 0.89345 0.40395
 C1041 C 0.23733 0.87878 0.41923
 C1042 C 0.21654 0.88395 0.42593
 C1043 C 0.20601 0.87116 0.44074
 C1044 C 0.21595 0.85267 0.44910
 C1045 C 0.23656 0.84706 0.44201
 C1046 C 0.24718 0.85998 0.42719
 H1047 H 0.32602 0.94121 0.38468
 H1048 H 0.30924 0.91214 0.40528
 H1049 H 0.25259 0.91514 0.36601
 H1050 H 0.26919 0.94431 0.34587
 H1051 H 0.27987 0.88545 0.41102
 H1052 H 0.23749 0.90460 0.39574
 H1053 H 0.20849 0.89820 0.41994
 H1054 H 0.19008 0.87588 0.44573
 H1055 H 0.24456 0.83282 0.44805
 H1056 H 0.26295 0.85508 0.42195
 C1057 C 0.07301 0.36046 0.70859
 C1058 C 0.08902 0.37208 0.71934
 C1059 C 0.09056 0.37086 0.74120
 C1060 C 0.07654 0.35668 0.75198
 C1061 C 0.06048 0.34515 0.74122
 C1062 C 0.05834 0.34736 0.71954
 C1063 C 0.10642 0.38512 0.75210
 C1064 C 0.10404 0.39158 0.77198
 C1065 C 0.11792 0.40816 0.78237
 C1066 C 0.10997 0.41849 0.80026
 C1067 C 0.12181 0.43497 0.81011
 C1068 C 0.14199 0.44149 0.80236
 C1069 C 0.15033 0.43073 0.78483
 C1070 C 0.13848 0.41417 0.77497
 H1071 H 0.07158 0.36224 0.69182
 H1072 H 0.09974 0.38265 0.71062
 H1073 H 0.07772 0.35454 0.76870
 H1074 H 0.04940 0.33486 0.74983
 H1075 H 0.11919 0.39206 0.74273
 H1076 H 0.09017 0.38596 0.78069
 H1077 H 0.09430 0.41410 0.80643
 H1078 H 0.11494 0.44283 0.82364
 H1079 H 0.16594 0.43521 0.77862
 H1080 H 0.14557 0.40619 0.76166
 C1081 C 0.04415 0.60555 0.29036
 C1082 C 0.05845 0.59263 0.27924
 C1083 C 0.07766 0.60143 0.27136
 C1084 C 0.08245 0.62349 0.27502
 C1085 C 0.06804 0.63651 0.28603
 C1086 C 0.04846 0.62782 0.29359
 C1087 C 0.09133 0.58749 0.25816
 C1088 C 0.11247 0.59079 0.25518
 C1089 C 0.12516 0.57660 0.24129
 C1090 C 0.14674 0.57222 0.24612
 C1091 C 0.15872 0.55823 0.23352
 C1092 C 0.14940 0.54871 0.21564
 C1093 C 0.12801 0.55377 0.21045
 C1094 C 0.11604 0.56755 0.22310
 H1095 H 0.02961 0.59807 0.29645
 H1096 H 0.05441 0.57568 0.27667
 H1097 H 0.09686 0.63097 0.26870
 H1098 H 0.07178 0.65364 0.28782
 H1099 H 0.08362 0.57343 0.25106
 H1100 H 0.12093 0.60339 0.26381
 H1101 H 0.15418 0.57924 0.25992
 H1102 H 0.17521 0.55476 0.23785
 H1103 H 0.12039 0.54687 0.19670
 H1104 H 0.09966 0.57119 0.21854
 C1105 C 0.94780 0.37074 0.26164
 C1106 C 0.93281 0.38168 0.24935
 C1107 C 0.91335 0.38880 0.25787
 C1108 C 0.90872 0.38381 0.27884
 C1109 C 0.92370 0.37276 0.29117
 C1110 C 0.94371 0.36648 0.28289
 C1111 C 0.89865 0.40145 0.24432
 C1112 C 0.88375 0.41514 0.25160
 C1113 C 0.87068 0.42936 0.23791
 C1114 C 0.85100 0.43717 0.24537
 C1115 C 0.83874 0.45152 0.23342
 C1116 C 0.84605 0.45858 0.21379
 C1117 C 0.86575 0.45075 0.20629
 C1118 C 0.87797 0.43636 0.21821
 H1119 H 0.96260 0.36544 0.25443
 H1120 H 0.93665 0.38494 0.23316
 H1121 H 0.89361 0.38835 0.28586
 H1122 H 0.91993 0.36984 0.30743
 H1123 H 0.90104 0.40008 0.22764
 H1124 H 0.88108 0.41647 0.26822
 H1125 H 0.84512 0.43223 0.26057
 H1126 H 0.82368 0.45732 0.23970
 H1127 H 0.87193 0.45601 0.19131
 H1128 H 0.89339 0.43137 0.21216
 C1129 C 0.93437 0.62713 0.69980
 C1130 C 0.91871 0.61685 0.71206
 C1131 C 0.92241 0.61311 0.73338
 C1132 C 0.94164 0.62099 0.74245
 C1133 C 0.95733 0.63109 0.73021
 C1134 C 0.95417 0.63387 0.70860
 C1135 C 0.90606 0.60079 0.74555
 C1136 C 0.91107 0.58954 0.76280
 C1137 C 0.89562 0.57612 0.77490
 C1138 C 0.90122 0.57060 0.79543
 C1139 C 0.88817 0.55671 0.80714
 C1140 C 0.86919 0.54781 0.79854
 C1141 C 0.86329 0.55358 0.77809
 C1142 C 0.87638 0.56759 0.76633
 H1143 H 0.93135 0.62899 0.68323
 H1144 H 0.90392 0.61122 0.70474
 H1145 H 0.94469 0.61952 0.75902
 H1146 H 0.97197 0.63692 0.73768
 H1147 H 0.88976 0.60037 0.73954
 H1148 H 0.92750 0.58980 0.76849
 H1149 H 0.91596 0.57685 0.80239
 H1150 H 0.89322 0.55263 0.82284
 H1151 H 0.84882 0.54688 0.77099
 H1152 H 0.87172 0.57100 0.75040
 C1153 C 0.71472 0.60975 0.95026
 C1154 C 0.72726 0.59640 0.93770
 C1155 C 0.73886 0.60509 0.92086
 C1156 C 0.73738 0.62747 0.91657
 C1157 C 0.72496 0.64090 0.92933
 C1158 C 0.71387 0.63217 0.94648
 C1159 C 0.75349 0.59061 0.90925
 C1160 C 0.75947 0.59387 0.88941
 C1161 C 0.77418 0.57883 0.87859
 C1162 C 0.77107 0.57438 0.85731
 C1163 C 0.78422 0.55949 0.84703
 C1164 C 0.80106 0.54916 0.85776
 C1165 C 0.80466 0.55428 0.87888
 C1166 C 0.79133 0.56890 0.88921
 H1167 H 0.70619 0.60273 0.96339
 H1168 H 0.72818 0.57925 0.94134
 H1169 H 0.74646 0.63479 0.90398
 H1170 H 0.72455 0.65819 0.92626
 H1171 H 0.75890 0.57614 0.91725
 H1172 H 0.75249 0.60698 0.88047
 H1173 H 0.75809 0.58202 0.84878
 H1174 H 0.78115 0.55599 0.83071
 H1175 H 0.81756 0.54667 0.88755
 H1176 H 0.79452 0.57249 0.90548
 C1177 C 0.30147 0.37159 0.93415
 C1178 C 0.28915 0.38187 0.91882
 C1179 C 0.26805 0.38845 0.92305
 C1180 C 0.25915 0.38368 0.94270
 C1181 C 0.27145 0.37347 0.95804
 C1182 C 0.29295 0.36760 0.95417
 C1183 C 0.25585 0.40007 0.90660
 C1184 C 0.23968 0.41367 0.91087
 C1185 C 0.22770 0.42613 0.89487
 C1186 C 0.20756 0.43457 0.90029
 C1187 C 0.19600 0.44728 0.88621
 C1188 C 0.20441 0.45203 0.86638
 C1189 C 0.22453 0.44352 0.86085
 C1190 C 0.23610 0.43075 0.87495
 H1191 H 0.31796 0.36745 0.93056
 H1192 H 0.29632 0.38513 0.90374
 H1193 H 0.24260 0.38747 0.94629
 H1194 H 0.26395 0.36977 0.97289
 H1195 H 0.26095 0.39774 0.89064
 H1196 H 0.23485 0.41607 0.92691
 H1197 H 0.20077 0.43139 0.91556
 H1198 H 0.18058 0.45362 0.89100
 H1199 H 0.23151 0.44702 0.84574
 H1200 H 0.25181 0.42513 0.87031
 C1201 C 0.25245 0.64122 0.04834
 C1202 C 0.24061 0.63042 0.06369
 C1203 C 0.25022 0.62463 0.08269
 C1204 C 0.27174 0.63091 0.08649
 C1205 C 0.28359 0.64187 0.07116
 C1206 C 0.27430 0.64669 0.05161
 C1207 C 0.23728 0.61182 0.09781
 C1208 C 0.24592 0.59842 0.11200
 C1209 C 0.23296 0.58351 0.12526
 C1210 C 0.24221 0.57525 0.14360
 C1211 C 0.23112 0.56002 0.15579
 C1212 C 0.21055 0.55254 0.14977
 C1213 C 0.20120 0.56092 0.13150
 C1214 C 0.21227 0.57615 0.11934
 H1215 H 0.24443 0.64543 0.03386
 H1216 H 0.22395 0.62614 0.06050
 H1217 H 0.27953 0.62741 0.10122
 H1218 H 0.30033 0.64581 0.07432
 H1219 H 0.21996 0.61262 0.09619
 H1220 H 0.26324 0.59768 0.11373
 H1221 H 0.25820 0.58046 0.14842
 H1222 H 0.23882 0.55382 0.16974
 H1223 H 0.18546 0.55537 0.12632
 H1224 H 0.20479 0.58145 0.10498
 C1225 C 0.71473 0.38848 0.04607
 C1226 C 0.72448 0.40287 0.06012
 C1227 C 0.73374 0.39524 0.07869
 C1228 C 0.73288 0.37283 0.08307
 C1229 C 0.72328 0.35837 0.06885
 C1230 C 0.71441 0.36608 0.05011
 C1231 C 0.74546 0.41092 0.09218
 C1232 C 0.74845 0.40828 0.11275
 C1233 C 0.76068 0.42437 0.12538
 C1234 C 0.75454 0.42852 0.14605
 C1235 C 0.76553 0.44418 0.15798
 C1236 C 0.78315 0.45565 0.14954
 C1237 C 0.78970 0.45094 0.12906
 C1238 C 0.77859 0.43551 0.11711
 H1239 H 0.70783 0.39476 0.03176
 H1240 H 0.72501 0.42002 0.05636
 H1241 H 0.74028 0.36634 0.09702
 H1242 H 0.72326 0.34112 0.07218
 H1243 H 0.75125 0.42572 0.08485
 H1244 H 0.74088 0.39474 0.12074
 H1245 H 0.74093 0.41995 0.15281
 H1246 H 0.76021 0.44734 0.17376
 H1247 H 0.80330 0.45937 0.12214
 H1248 H 0.78415 0.43219 0.10144
 C1249 C 0.93976 0.69668 0.61580
 C1250 C 0.92421 0.70872 0.60520
 C1251 C 0.92484 0.73155 0.60553
 C1252 C 0.94122 0.74209 0.61716
 C1253 C 0.95684 0.73001 0.62764
 C1254 C 0.95626 0.70726 0.62691
 C1255 C 0.90807 0.74350 0.59370
 C1256 C 0.90960 0.76461 0.58860
 C1257 C 0.89352 0.77601 0.57546
 C1258 C 0.89990 0.79513 0.56520
 C1259 C 0.88571 0.80594 0.55191
 C1260 C 0.86470 0.79790 0.54864
 C1261 C 0.85801 0.77919 0.55948
 C1262 C 0.87220 0.76841 0.57285
 H1263 H 0.93903 0.67910 0.61525
 H1264 H 0.91173 0.70014 0.59656
 H1265 H 0.94201 0.75957 0.61851
 H1266 H 0.96933 0.73837 0.63645
 H1267 H 0.89457 0.73398 0.58795
 H1268 H 0.92388 0.77378 0.59286
 H1269 H 0.91612 0.80150 0.56709
 H1270 H 0.89136 0.82036 0.54386
 H1271 H 0.84184 0.77274 0.55749
 H1272 H 0.86631 0.75424 0.58106
 C1273 C 0.92223 0.30412 0.36955
 C1274 C 0.90655 0.29352 0.38155
 C1275 C 0.91025 0.27272 0.38967
 C1276 C 0.92966 0.26231 0.38474
 C1277 C 0.94534 0.27290 0.37283
 C1278 C 0.94209 0.29413 0.36532
 C1279 C 0.89347 0.26230 0.40290
 C1280 C 0.89795 0.24688 0.41705
 C1281 C 0.88174 0.23620 0.43071
 C1282 C 0.88725 0.21650 0.44025
 C1283 C 0.87302 0.20605 0.45385
 C1284 C 0.85292 0.21515 0.45842
 C1285 C 0.84729 0.23487 0.44888
 C1286 C 0.86155 0.24533 0.43518
 H1287 H 0.91910 0.32047 0.36418
 H1288 H 0.89164 0.30181 0.38489
 H1289 H 0.93276 0.24586 0.38974
 H1290 H 0.95994 0.26422 0.36912
 H1291 H 0.87716 0.26800 0.40113
 H1292 H 0.91440 0.24155 0.41890
 H1293 H 0.90271 0.20914 0.43720
 H1294 H 0.87792 0.19092 0.46096
 H1295 H 0.83198 0.24238 0.45218
 H1296 H 0.85683 0.26075 0.42863
 C1297 C 0.04164 0.24812 0.63624
 C1298 C 0.05518 0.23564 0.62381
 C1299 C 0.07466 0.24425 0.61635
 C1300 C 0.08083 0.26541 0.62241
 C1301 C 0.06730 0.27792 0.63494
 C1302 C 0.04728 0.26962 0.64173
 C1303 C 0.08784 0.23060 0.60229
 C1304 C 0.10218 0.23867 0.58865
 C1305 C 0.11395 0.22509 0.57339
 C1306 C 0.13327 0.23314 0.56497
 C1307 C 0.14438 0.22136 0.54983
 C1308 C 0.13627 0.20131 0.54260
 C1309 C 0.11691 0.19323 0.55100
 C1310 C 0.10583 0.20499 0.56617
 H1311 H 0.02672 0.24088 0.64170
 H1312 H 0.05018 0.21927 0.61967
 H1313 H 0.09603 0.27244 0.61758
 H1314 H 0.07220 0.29440 0.63872
 H1315 H 0.08477 0.21327 0.60270
 H1316 H 0.10542 0.25596 0.58825
 H1317 H 0.13978 0.24866 0.57008
 H1318 H 0.15921 0.22810 0.54363
 H1319 H 0.11013 0.17793 0.54564
 H1320 H 0.09063 0.19851 0.57167
 C1321 C 0.05924 0.73578 0.35481
 C1322 C 0.07422 0.74821 0.36610
 C1323 C 0.08371 0.73998 0.38433
 C1324 C 0.07793 0.71895 0.39106
 C1325 C 0.06290 0.70655 0.37981
 C1326 C 0.05334 0.71486 0.36161
 C1327 C 0.09829 0.75429 0.39668
 C1328 C 0.11314 0.74675 0.41001
 C1329 C 0.12677 0.76100 0.42339
 C1330 C 0.14636 0.75298 0.43097
 C1331 C 0.15910 0.76537 0.44461
 C1332 C 0.15238 0.78601 0.45119
 C1333 C 0.13280 0.79412 0.44354
 C1334 C 0.12010 0.78175 0.42981
 H1335 H 0.05195 0.74262 0.34093
 H1336 H 0.07821 0.76443 0.36070
 H1337 H 0.08427 0.71231 0.40542
 H1338 H 0.05814 0.69074 0.38574
 H1339 H 0.09696 0.77163 0.39426
 H1340 H 0.11594 0.72945 0.41091
 H1341 H 0.15177 0.73699 0.42643
 H1342 H 0.17405 0.75859 0.45027
 H1343 H 0.12709 0.80989 0.44842
 H1344 H 0.10479 0.78825 0.42483
 C1345 C 0.59761 0.94234 0.69469
 C1346 C 0.58589 0.92593 0.70472
 C1347 C 0.59633 0.91097 0.71771
 C1348 C 0.61890 0.91218 0.71983
 C1349 C 0.63063 0.92849 0.70964
 C1350 C 0.62001 0.94383 0.69725
 C1351 C 0.58320 0.89458 0.72897
 C1352 C 0.58860 0.88717 0.74793
 C1353 C 0.57399 0.87340 0.76057
 C1354 C 0.57401 0.87612 0.78229
 C1355 C 0.55947 0.86457 0.79470
 C1356 C 0.54491 0.84965 0.78568
 C1357 C 0.54554 0.84613 0.76401
 C1358 C 0.55988 0.85801 0.75152
 H1359 H 0.58922 0.95398 0.68502
 H1360 H 0.56857 0.92523 0.70271
 H1361 H 0.62751 0.90052 0.72925
 H1362 H 0.64796 0.92931 0.71156
 H1363 H 0.56762 0.89027 0.72241
 H1364 H 0.60309 0.89328 0.75545
 H1365 H 0.58487 0.88774 0.78963
 H1366 H 0.55948 0.86746 0.81139
 H1367 H 0.53454 0.83467 0.75667
 H1368 H 0.55987 0.85517 0.73484
 C1369 C 0.39723 0.95810 0.28436
 C1370 C 0.41026 0.94457 0.27244
 C1371 C 0.40135 0.92673 0.26171
 C1372 C 0.37904 0.92268 0.26306
 C1373 C 0.36595 0.93640 0.27481
 C1374 C 0.37494 0.95429 0.28540
 C1375 C 0.41557 0.91353 0.24838
 C1376 C 0.41190 0.89250 0.24413
 C1377 C 0.42661 0.87971 0.23093
 C1378 C 0.42972 0.85765 0.23535
 C1379 C 0.44406 0.84539 0.22350
 C1380 C 0.45521 0.85489 0.20670
 C1381 C 0.45152 0.87680 0.20185
 C1382 C 0.43741 0.88911 0.21387
 H1383 H 0.40443 0.97182 0.29247
 H1384 H 0.42737 0.94807 0.27154
 H1385 H 0.37156 0.90939 0.25457
 H1386 H 0.34875 0.93334 0.27534
 H1387 H 0.43018 0.92123 0.24270
 H1388 H 0.39858 0.88403 0.25150
 H1389 H 0.42138 0.85003 0.24828
 H1390 H 0.44645 0.82850 0.22751
 H1391 H 0.45978 0.88454 0.18894
 H1392 H 0.43486 0.90592 0.20968
 C1393 C 0.64942 0.05820 0.27091
 C1394 C 0.63853 0.07356 0.25891
 C1395 C 0.61847 0.08142 0.26530
 C1396 C 0.60934 0.07344 0.28390
 C1397 C 0.62015 0.05796 0.29583
 C1398 C 0.64031 0.05024 0.28946
 C1399 C 0.60684 0.09664 0.25148
 C1400 C 0.59201 0.11060 0.25836
 C1401 C 0.57916 0.12439 0.24415
 C1402 C 0.57049 0.14384 0.25170
 C1403 C 0.55721 0.15652 0.23901
 C1404 C 0.55207 0.14978 0.21861
 C1405 C 0.56086 0.13036 0.21104
 C1406 C 0.57422 0.11780 0.22364
 H1407 H 0.66477 0.05218 0.26551
 H1408 H 0.64574 0.07921 0.24450
 H1409 H 0.59359 0.07859 0.28897
 H1410 H 0.61274 0.05186 0.30998
 H1411 H 0.61106 0.09653 0.23509
 H1412 H 0.58933 0.11234 0.27497
 H1413 H 0.57389 0.14914 0.26752
 H1414 H 0.55057 0.17133 0.24534
 H1415 H 0.55712 0.12465 0.19543
 H1416 H 0.58001 0.10258 0.21747
 C1417 C 0.37445 0.07583 0.70061
 C1418 C 0.38526 0.09180 0.71221
 C1419 C 0.38391 0.09209 0.73410
 C1420 C 0.37059 0.07664 0.74410
 C1421 C 0.35988 0.06062 0.73248
 C1422 C 0.36204 0.05992 0.71073
 C1423 C 0.39697 0.10837 0.74579
 C1424 C 0.40297 0.10575 0.76578
 C1425 C 0.41836 0.12039 0.77680
 C1426 C 0.42922 0.11233 0.79436
 C1427 C 0.44481 0.12492 0.80461
 C1428 C 0.44983 0.14597 0.79757
 C1429 C 0.43841 0.15441 0.78047
 C1430 C 0.42275 0.14180 0.77023
 H1431 H 0.37614 0.07554 0.68378
 H1432 H 0.39519 0.10361 0.70409
 H1433 H 0.36837 0.07678 0.76083
 H1434 H 0.35008 0.04858 0.74044
 H1435 H 0.40340 0.12189 0.73694
 H1436 H 0.39801 0.09124 0.77405
 H1437 H 0.42602 0.09599 0.79990
 H1438 H 0.45321 0.11796 0.81781
 H1439 H 0.44173 0.17068 0.77483
 H1440 H 0.41422 0.14896 0.75724
 C1441 C 0.64149 0.73590 0.05702
 C1442 C 0.62971 0.74846 0.07105
 C1443 C 0.60905 0.74179 0.07737
 C1444 C 0.60025 0.72239 0.06918
 C1445 C 0.61197 0.70994 0.05503
 C1446 C 0.63261 0.71665 0.04889
 C1447 C 0.59666 0.75600 0.09150
 C1448 C 0.58138 0.74845 0.10440
 C1449 C 0.56818 0.76271 0.11776
 C1450 C 0.55901 0.75410 0.13599
 C1451 C 0.54546 0.76668 0.14837
 C1452 C 0.54053 0.78809 0.14258
 C1453 C 0.54979 0.79677 0.12438
 C1454 C 0.56347 0.78423 0.11209
 H1455 H 0.65737 0.74131 0.05226
 H1456 H 0.63673 0.76343 0.07695
 H1457 H 0.58412 0.71709 0.07318
 H1458 H 0.60488 0.69521 0.04865
 H1459 H 0.60083 0.77312 0.09167
 H1460 H 0.57876 0.73109 0.10576
 H1461 H 0.56223 0.73751 0.14059
 H1462 H 0.53848 0.75947 0.16223
 H1463 H 0.54621 0.81316 0.11943
 H1464 H 0.56972 0.79124 0.09783
 C1465 C 0.39117 0.30972 0.07631
 C1466 C 0.40363 0.29933 0.09145
 C1467 C 0.40394 0.27654 0.09268
 C1468 C 0.39088 0.26437 0.07881
 C1469 C 0.37859 0.27477 0.06359
 C1470 C 0.37878 0.29747 0.06216
 C1471 C 0.41793 0.26617 0.10859
 C1472 C 0.42484 0.24565 0.10693
 C1473 C 0.43965 0.23492 0.12190
 C1474 C 0.44819 0.21477 0.11616
 C1475 C 0.46235 0.20388 0.12934
 C1476 C 0.46840 0.21287 0.14867
 C1477 C 0.45972 0.23292 0.15465
 C1478 C 0.44540 0.24382 0.14146
 H1479 H 0.39135 0.32729 0.07544
 H1480 H 0.41332 0.30911 0.10205
 H1481 H 0.38986 0.24686 0.07971
 H1482 H 0.36882 0.26514 0.05294
 H1483 H 0.42353 0.27633 0.12129
 H1484 H 0.42034 0.23626 0.09330
 H1485 H 0.44400 0.20743 0.10129
 H1486 H 0.46872 0.18845 0.12423
 H1487 H 0.46397 0.24018 0.16953
 H1488 H 0.43891 0.25903 0.14684
 C1489 C 0.65409 0.26375 0.92903
 C1490 C 0.64214 0.25203 0.91419
 C1491 C 0.62018 0.25632 0.91112
 C1492 C 0.61029 0.27236 0.92337
 C1493 C 0.62218 0.28387 0.93832
 C1494 C 0.64409 0.27960 0.94123
 C1495 C 0.60763 0.24287 0.89618
 C1496 C 0.59020 0.25030 0.88617
 C1497 C 0.57604 0.23643 0.87302
 C1498 C 0.56332 0.24622 0.85760
 C1499 C 0.54825 0.23397 0.84624
 C1500 C 0.54537 0.21172 0.85035
 C1501 C 0.55838 0.20182 0.86553
 C1502 C 0.57357 0.21403 0.87675
 H1503 H 0.67100 0.26023 0.93126
 H1504 H 0.65002 0.23958 0.90512
 H1505 H 0.59325 0.27559 0.92190
 H1506 H 0.61426 0.29595 0.94782
 H1507 H 0.61314 0.22652 0.89323
 H1508 H 0.58607 0.26730 0.88754
 H1509 H 0.56479 0.26349 0.85458
 H1510 H 0.53839 0.24209 0.83472
 H1511 H 0.55649 0.18472 0.86911
 H1512 H 0.58266 0.20603 0.88891
 C1513 C 0.36929 0.70318 0.92653
 C1514 C 0.38251 0.71298 0.91155
 C1515 C 0.38507 0.73568 0.91092
 C1516 C 0.37335 0.74844 0.92511
 C1517 C 0.36025 0.73862 0.94014
 C1518 C 0.35834 0.71594 0.94110
 C1519 C 0.40004 0.74530 0.89534
 C1520 C 0.40908 0.76509 0.89750
 C1521 C 0.42505 0.77469 0.88284
 C1522 C 0.43656 0.79326 0.88931
 C1523 C 0.45191 0.80294 0.87633
 C1524 C 0.45615 0.79428 0.85650
 C1525 C 0.44448 0.77584 0.84983
 C1526 C 0.42901 0.76620 0.86279
 H1527 H 0.36791 0.68563 0.92704
 H1528 H 0.39112 0.70276 0.90068
 H1529 H 0.37410 0.76599 0.92469
 H1530 H 0.35166 0.74868 0.95115
 H1531 H 0.40466 0.73501 0.88247
 H1532 H 0.40560 0.77452 0.91132
 H1533 H 0.43379 0.80028 0.90457
 H1534 H 0.46057 0.81716 0.88195
 H1535 H 0.44723 0.76890 0.83454
 H1536 H 0.42017 0.75231 0.85683
 C1537 C 0.74051 0.93959 0.36501
 C1538 C 0.75266 0.92490 0.37656
 C1539 C 0.74255 0.90892 0.38882
 C1540 C 0.71988 0.90733 0.38851
 C1541 C 0.70771 0.92207 0.37690
 C1542 C 0.71795 0.93850 0.36535
 C1543 C 0.75637 0.89488 0.40197
 C1544 C 0.74934 0.88361 0.41857
 C1545 C 0.76408 0.87216 0.43301
 C1546 C 0.75625 0.85442 0.44457
 C1547 C 0.76941 0.84406 0.45920
 C1548 C 0.79059 0.85147 0.46277
 C1549 C 0.79841 0.86924 0.45121
 C1550 C 0.78532 0.87950 0.43654
 H1551 H 0.74867 0.95212 0.35608
 H1552 H 0.77006 0.92642 0.37636
 H1553 H 0.71140 0.89489 0.39719
 H1554 H 0.69029 0.92095 0.37722
 H1555 H 0.77339 0.89485 0.39836
 H1556 H 0.73237 0.88298 0.42224
 H1557 H 0.73987 0.84864 0.44233
 H1558 H 0.76287 0.83049 0.46795
 H1559 H 0.81460 0.87545 0.45369
 H1560 H 0.79172 0.89360 0.42853
 C1561 C 0.26719 0.94133 0.63558
 C1562 C 0.25534 0.92684 0.62319
 C1563 C 0.26563 0.91357 0.60849
 C1564 C 0.28829 0.91470 0.60695
 C1565 C 0.30015 0.92915 0.61949
 C1566 C 0.28961 0.94278 0.63359
 C1567 C 0.25191 0.90018 0.59430
 C1568 C 0.25936 0.88508 0.58112
 C1569 C 0.24539 0.87319 0.56601
 C1570 C 0.25236 0.85319 0.55815
 C1571 C 0.24007 0.84185 0.54333
 C1572 C 0.22056 0.85036 0.53589
 C1573 C 0.21361 0.87045 0.54366
 C1574 C 0.22591 0.88180 0.55847
 H1575 H 0.25883 0.95190 0.64630
 H1576 H 0.23796 0.92643 0.62471
 H1577 H 0.29699 0.90519 0.59566
 H1578 H 0.31745 0.93033 0.61761
 H1579 H 0.23476 0.90303 0.59489
 H1580 H 0.27617 0.88071 0.58149
 H1581 H 0.26739 0.84630 0.56349
 H1582 H 0.24593 0.82644 0.53761
 H1583 H 0.19877 0.87756 0.53811
 H1584 H 0.22031 0.89753 0.56351
 C1585 C 0.29656 0.06295 0.38578
 C1586 C 0.28508 0.07690 0.39875
 C1587 C 0.26456 0.08418 0.39290
 C1588 C 0.25601 0.07775 0.37341
 C1589 C 0.26760 0.06390 0.36038
 C1590 C 0.28784 0.05631 0.36658
 C1591 C 0.25280 0.09863 0.40735
 C1592 C 0.23123 0.09972 0.40799
 C1593 C 0.21956 0.11312 0.42344
 C1594 C 0.19877 0.10668 0.42952
 C1595 C 0.18749 0.11854 0.44448
 C1596 C 0.19668 0.13731 0.45349
 C1597 C 0.21726 0.14412 0.44695
 C1598 C 0.22858 0.13219 0.43207
 H1599 H 0.31221 0.05721 0.39073
 H1600 H 0.29209 0.08175 0.41357
 H1601 H 0.24054 0.08354 0.36809
 H1602 H 0.26075 0.05895 0.34551
 H1603 H 0.26229 0.10742 0.41884
 H1604 H 0.22166 0.08928 0.39792
 H1605 H 0.19138 0.09219 0.42295
 H1606 H 0.17163 0.11293 0.44908
 H1607 H 0.22472 0.15860 0.45344
 H1608 H 0.24426 0.13807 0.42726
 C1609 C 0.69504 0.05440 0.59768
 C1610 C 0.70641 0.06855 0.58467
 C1611 C 0.71544 0.08785 0.59258
 C1612 C 0.71245 0.09301 0.61380
 C1613 C 0.70117 0.07869 0.62690
 C1614 C 0.69270 0.05912 0.61898
 C1615 C 0.72940 0.10097 0.57864
 C1616 C 0.73374 0.12217 0.58130
 C1617 C 0.74866 0.13403 0.56725
 C1618 C 0.74477 0.15582 0.56221
 C1619 C 0.75843 0.16702 0.54847
 C1620 C 0.77649 0.15671 0.53990
 C1621 C 0.78071 0.13511 0.54553
 C1622 C 0.76696 0.12389 0.55901
 H1623 H 0.68862 0.03937 0.59128
 H1624 H 0.70855 0.06416 0.56843
 H1625 H 0.71960 0.10751 0.62054
 H1626 H 0.69971 0.08248 0.64335
 H1627 H 0.73608 0.09272 0.56522
 H1628 H 0.72557 0.13126 0.59333
 H1629 H 0.73091 0.16403 0.56857
 H1630 H 0.75485 0.18371 0.54455
 H1631 H 0.79455 0.12673 0.53932
 H1632 H 0.77080 0.10731 0.56312
 C1633 C 0.93565 0.60793 0.30111
 C1634 C 0.91953 0.59542 0.29151
 C1635 C 0.90540 0.60485 0.27704
 C1636 C 0.90712 0.62728 0.27297
 C1637 C 0.92309 0.63983 0.28278
 C1638 C 0.93759 0.63015 0.29669
 C1639 C 0.88924 0.59085 0.26643
 C1640 C 0.88285 0.59430 0.24671
 C1641 C 0.86886 0.57880 0.23517
 C1642 C 0.87208 0.57610 0.21368
 C1643 C 0.86004 0.56075 0.20246
 C1644 C 0.84418 0.54811 0.21244
 C1645 C 0.84031 0.55144 0.23380
 C1646 C 0.85262 0.56657 0.24511
 H1647 H 0.94671 0.60029 0.31189
 H1648 H 0.91842 0.57823 0.29499
 H1649 H 0.89610 0.63514 0.26232
 H1650 H 0.92435 0.65702 0.27936
 H1651 H 0.88412 0.57616 0.27437
 H1652 H 0.88977 0.60772 0.23800
 H1653 H 0.88437 0.58548 0.20566
 H1654 H 0.86325 0.55868 0.18597
 H1655 H 0.82813 0.54198 0.24187
 H1656 H 0.84939 0.56871 0.26158
 C1657 C 0.93709 0.34798 0.74218
 C1658 C 0.92324 0.36071 0.75414
 C1659 C 0.91966 0.38248 0.74881
 C1660 C 0.92944 0.39110 0.73083
 C1661 C 0.94281 0.37821 0.71857
 C1662 C 0.94695 0.35666 0.72431
 C1663 C 0.90547 0.39588 0.76193
 C1664 C 0.91051 0.41648 0.76675
 C1665 C 0.89656 0.43032 0.77972
 C1666 C 0.90608 0.44564 0.79319
 C1667 C 0.89332 0.45982 0.80475
 C1668 C 0.87081 0.45935 0.80255
 C1669 C 0.86125 0.44400 0.78907
 C1670 C 0.87400 0.42946 0.77789
 H1671 H 0.94016 0.33138 0.74684
 H1672 H 0.91573 0.35374 0.76786
 H1673 H 0.92657 0.40773 0.72616
 H1674 H 0.95025 0.38511 0.70478
 H1675 H 0.89132 0.38827 0.76868
 H1676 H 0.92584 0.42322 0.76176
 H1677 H 0.92345 0.44668 0.79469
 H1678 H 0.90110 0.47163 0.81487
 H1679 H 0.84393 0.44335 0.78705
 H1680 H 0.86625 0.41810 0.76728
 C1681 C 0.07573 0.63460 0.72182
 C1682 C 0.09049 0.62257 0.73347
 C1683 C 0.09436 0.60078 0.72844
 C1684 C 0.08408 0.59149 0.71094
 C1685 C 0.06974 0.60370 0.69900
 C1686 C 0.06514 0.62518 0.70462
 C1687 C 0.10879 0.58789 0.74184
 C1688 C 0.10361 0.56760 0.74755
 C1689 C 0.11674 0.55496 0.76236
 C1690 C 0.10629 0.54166 0.77699
 C1691 C 0.11820 0.52929 0.79108
 C1692 C 0.14080 0.52948 0.79035
 C1693 C 0.15131 0.54254 0.77549
 C1694 C 0.13937 0.55539 0.76173
 H1695 H 0.07237 0.65120 0.72631
 H1696 H 0.09836 0.63003 0.74683
 H1697 H 0.08714 0.57482 0.70654
 H1698 H 0.06179 0.59626 0.68567
 H1699 H 0.12279 0.59586 0.74864
 H1700 H 0.08833 0.56063 0.74255
 H1701 H 0.08886 0.54101 0.77762
 H1702 H 0.10972 0.51918 0.80224
 H1703 H 0.16873 0.54290 0.77460
 H1704 H 0.14779 0.56525 0.75033
 C1705 C 0.05320 0.36445 0.26106
 C1706 C 0.06799 0.37601 0.24890
 C1707 C 0.08417 0.38887 0.25828
 C1708 C 0.08551 0.38944 0.28028
 C1709 C 0.07074 0.37774 0.29243
 C1710 C 0.05432 0.36546 0.28289
 C1711 C 0.09811 0.40233 0.24446
 C1712 C 0.11518 0.41413 0.25094
 C1713 C 0.12740 0.42915 0.23710
 C1714 C 0.14825 0.43576 0.24304
 C1715 C 0.15978 0.45091 0.23112
 C1716 C 0.15064 0.45987 0.21300
 C1717 C 0.12984 0.45315 0.20695
 C1718 C 0.11830 0.43809 0.21889
 H1719 H 0.04057 0.35506 0.25347
 H1720 H 0.06647 0.37526 0.23206
 H1721 H 0.09737 0.39931 0.28833
 H1722 H 0.07169 0.37879 0.30929
 H1723 H 0.09383 0.40251 0.22808
 H1724 H 0.12075 0.41287 0.26688
 H1725 H 0.15558 0.42932 0.25708
 H1726 H 0.17574 0.45580 0.23625
 H1727 H 0.12223 0.45992 0.19321
 H1728 H 0.10202 0.43413 0.21408
   
