data_POSCAR
  _audit_creation_date              2014-09-24
  _audit_creation_method            'ToBaCCo'
  _symmetry_space_group_name_H-M    'P1'
  _symmetry_Int_Tables_number       1
  _symmetry_cell_setting            triclinic
  loop_
  _symmetry_equiv_pos_as_xyz
 x,y,z
_cell_length_a 73.0859
_cell_length_b 72.7093
_cell_length_c 74.0021
_cell_angle_alpha 89.923200
_cell_angle_beta 89.644100
_cell_angle_gamma 89.822800
loop_
  _atom_site_label
  _atom_site_type_symbol
  _atom_site_fract_x
  _atom_site_fract_y
  _atom_site_fract_z
N1 N 0.16759 0.21930 0.21753
 N2 N 0.17295 0.20662 0.22900
 C3 C 0.16078 0.20563 0.24270
 C4 C 0.14695 0.21839 0.23963
 C5 C 0.15181 0.22676 0.22344
 H6 H 0.16188 0.19620 0.25393
 H7 H 0.14452 0.23751 0.21638
 Cu8 Cu 0.19493 0.19215 0.22436
 Cu9 Cu 0.18130 0.22478 0.19553
 Cu10 Cu 0.22678 0.21111 0.19740
 N11 N 0.21851 0.18036 0.22038
 N12 N 0.23104 0.18797 0.21001
 C13 C 0.24613 0.17732 0.20992
 C14 C 0.24284 0.16206 0.22069
 C15 C 0.22514 0.16450 0.22712
 H16 H 0.25841 0.18032 0.20226
 H17 H 0.21769 0.15551 0.23617
 N18 N 0.21765 0.22969 0.18021
 N19 N 0.20025 0.23442 0.17914
 C20 C 0.19820 0.24669 0.16568
 C21 C 0.21515 0.24984 0.15776
 C22 C 0.22715 0.23877 0.16738
 H23 H 0.18529 0.25294 0.16207
 H24 H 0.24165 0.23705 0.16496
 H25 H 0.20053 0.20318 0.19362
 H26 H 0.20374 0.22151 0.21095
 N27 N 0.67333 0.71746 0.71897
 N28 N 0.67750 0.70327 0.72918
 C29 C 0.66519 0.70198 0.74271
 C30 C 0.65256 0.71612 0.74096
 C31 C 0.65823 0.72569 0.72570
 H32 H 0.66545 0.69153 0.75309
 H33 H 0.65177 0.73762 0.71975
 Cu34 Cu 0.69834 0.68762 0.72354
 Cu35 Cu 0.68768 0.72393 0.69753
 Cu36 Cu 0.72506 0.69597 0.68751
 N37 N 0.71924 0.67204 0.71791
 N38 N 0.72969 0.67538 0.70378
 C39 C 0.74287 0.66244 0.70276
 C40 C 0.74055 0.65023 0.71699
 C41 C 0.72539 0.65683 0.72632
 H42 H 0.75315 0.66181 0.69221
 H43 H 0.71927 0.65100 0.73834
 N44 N 0.71811 0.71744 0.67273
 N45 N 0.70394 0.72809 0.67649
 C46 C 0.70273 0.74130 0.66375
 C47 C 0.71680 0.73885 0.65133
 C48 C 0.72626 0.72358 0.65753
 H49 H 0.69219 0.75174 0.66339
 H50 H 0.73823 0.71737 0.65144
 H51 H 0.69713 0.69771 0.69214
 H52 H 0.71202 0.71266 0.70625
 N53 N 0.32438 0.77931 0.72389
 N54 N 0.32061 0.79490 0.73206
 C55 C 0.33195 0.79697 0.74618
 C56 C 0.34344 0.78179 0.74694
 C57 C 0.33820 0.77087 0.73256
 H58 H 0.33175 0.80859 0.75527
 H59 H 0.34421 0.75792 0.72846
 Cu60 Cu 0.30135 0.81116 0.72351
 Cu61 Cu 0.31150 0.77137 0.70236
 Cu62 Cu 0.27342 0.79678 0.69032
 N63 N 0.27827 0.82342 0.71847
 N64 N 0.26739 0.81777 0.70558
 C65 C 0.25267 0.82890 0.70486
 C66 C 0.25432 0.84238 0.71806
 C67 C 0.27083 0.83832 0.72645
 H68 H 0.24172 0.82727 0.69526
 H69 H 0.27716 0.84563 0.73744
 N70 N 0.28190 0.77512 0.67661
 N71 N 0.29663 0.76564 0.68103
 C72 C 0.29939 0.75230 0.66870
 C73 C 0.28568 0.75336 0.65592
 C74 C 0.27482 0.76798 0.66140
 H75 H 0.31056 0.74254 0.66898
 H76 H 0.26294 0.77335 0.65451
 H77 H 0.30146 0.79662 0.69382
 H78 H 0.28743 0.78379 0.71092
 N79 N 0.82630 0.27804 0.22369
 N80 N 0.82289 0.29365 0.23197
 C81 C 0.83491 0.29573 0.24555
 C82 C 0.84644 0.28046 0.24593
 C83 C 0.84043 0.26957 0.23176
 H84 H 0.83494 0.30731 0.25467
 H85 H 0.84594 0.25649 0.22742
 Cu86 Cu 0.80271 0.30953 0.22460
 Cu87 Cu 0.81232 0.26973 0.20301
 Cu88 Cu 0.77296 0.29408 0.19342
 N89 N 0.78089 0.32346 0.21799
 N90 N 0.76941 0.31735 0.20582
 C91 C 0.75545 0.32932 0.20418
 C92 C 0.75823 0.34379 0.21601
 C93 C 0.77456 0.33956 0.22455
 H94 H 0.74398 0.32739 0.19525
 H95 H 0.78132 0.34755 0.23484
 N96 N 0.78107 0.27268 0.17921
 N97 N 0.79622 0.26352 0.18274
 C98 C 0.79829 0.24998 0.17051
 C99 C 0.78374 0.25064 0.15861
 C100 C 0.77311 0.26526 0.16458
 H101 H 0.80970 0.24051 0.17017
 H102 H 0.76053 0.27022 0.15870
 H103 H 0.80114 0.29485 0.19520
 H104 H 0.78899 0.28138 0.21328
 N105 N 0.82913 0.72217 0.27583
 N106 N 0.82511 0.70731 0.26662
 C107 C 0.83669 0.70583 0.25248
 C108 C 0.84868 0.72057 0.25277
 C109 C 0.84341 0.73065 0.26786
 H110 H 0.83640 0.69481 0.24272
 H111 H 0.84950 0.74318 0.27280
 Cu112 Cu 0.80516 0.69134 0.27406
 Cu113 Cu 0.81555 0.72932 0.29750
 Cu114 Cu 0.77974 0.70093 0.31081
 N115 N 0.78519 0.67547 0.28161
 N116 N 0.77516 0.67932 0.29591
 C117 C 0.76229 0.66625 0.29798
 C118 C 0.76441 0.65345 0.28426
 C119 C 0.77909 0.65980 0.27413
 H120 H 0.75229 0.66600 0.30880
 H121 H 0.78478 0.65358 0.26209
 N122 N 0.78658 0.72340 0.32406
 N123 N 0.80018 0.73418 0.31901
 C124 C 0.80145 0.74822 0.33078
 C125 C 0.78800 0.74626 0.34393
 C126 C 0.77886 0.73032 0.33917
 H127 H 0.81142 0.75911 0.32978
 H128 H 0.76749 0.72409 0.34626
 H129 H 0.80728 0.70314 0.30478
 H130 H 0.79122 0.71682 0.29056
 N131 N 0.32470 0.22173 -0.22054
 N132 N 0.31957 0.20769 -0.23041
 C133 C 0.33129 0.20573 -0.24438
 C134 C 0.34456 0.21935 -0.24331
 C135 C 0.33982 0.22922 -0.22789
 H136 H 0.33017 0.19515 -0.25453
 H137 H 0.34680 0.24094 -0.22226
 Cu138 Cu 0.29807 0.19332 -0.22402
 Cu139 Cu 0.31150 0.22919 -0.19880
 Cu140 Cu 0.27353 0.20336 -0.18668
 N141 N 0.27697 0.17873 -0.21683
 N142 N 0.26741 0.18273 -0.20227
 C143 C 0.25371 0.17051 -0.20044
 C144 C 0.25472 0.15812 -0.21464
 C145 C 0.26969 0.16381 -0.22476
 H146 H 0.24390 0.17057 -0.18946
 H147 H 0.27488 0.15762 -0.23703
 N148 N 0.28193 0.22476 -0.17268
 N149 N 0.29638 0.23457 -0.17728
 C150 C 0.29858 0.24813 -0.16512
 C151 C 0.28486 0.24686 -0.15216
 C152 C 0.27457 0.23183 -0.15747
 H153 H 0.30943 0.25817 -0.16567
 H154 H 0.26255 0.22642 -0.15080
 H155 H 0.30117 0.20341 -0.19279
 H156 H 0.28627 0.21907 -0.20630
 N157 N 0.67312 0.27750 -0.21462
 N158 N 0.67805 0.29111 -0.22523
 C159 C 0.66539 0.29324 -0.23825
 C160 C 0.65169 0.28023 -0.23564
 C161 C 0.65719 0.27054 -0.22041
 H162 H 0.66614 0.30354 -0.24876
 H163 H 0.65036 0.25908 -0.21403
 Cu164 Cu 0.70057 0.30462 -0.22085
 Cu165 Cu 0.68780 0.26931 -0.19433
 Cu166 Cu 0.72783 0.29307 -0.18600
 N167 N 0.72267 0.31840 -0.21541
 N168 N 0.73341 0.31358 -0.20203
 C169 C 0.74768 0.32520 -0.20134
 C170 C 0.74576 0.33812 -0.21496
 C171 C 0.72969 0.33338 -0.22361
 H172 H 0.75844 0.32455 -0.19140
 H173 H 0.72364 0.34027 -0.23507
 N174 N 0.71973 0.27196 -0.17130
 N175 N 0.70442 0.26300 -0.17446
 C176 C 0.70252 0.24953 -0.16212
 C177 C 0.71732 0.24997 -0.15055
 C178 C 0.72796 0.26441 -0.15682
 H179 H 0.69103 0.24023 -0.16146
 H180 H 0.74077 0.26908 -0.15127
 H181 H 0.69987 0.29455 -0.18942
 H182 H 0.71272 0.27825 -0.20434
 N183 N 0.17441 0.78180 0.28220
 N184 N 0.17901 0.79607 0.27227
 C185 C 0.16670 0.79810 0.25892
 C186 C 0.15365 0.78438 0.26064
 C187 C 0.15907 0.77431 0.27558
 H188 H 0.16703 0.80891 0.24888
 H189 H 0.15242 0.76233 0.28121
 Cu190 Cu 0.20042 0.81071 0.27818
 Cu191 Cu 0.18844 0.77394 0.30308
 Cu192 Cu 0.22703 0.79930 0.31341
 N193 N 0.22229 0.82470 0.28399
 N194 N 0.23259 0.82013 0.29777
 C195 C 0.24651 0.83210 0.29905
 C196 C 0.24493 0.84506 0.28531
 C197 C 0.22932 0.83978 0.27600
 H198 H 0.25684 0.83141 0.30940
 H199 H 0.22335 0.84646 0.26440
 N200 N 0.21911 0.77776 0.32759
 N201 N 0.20440 0.76814 0.32366
 C202 C 0.20249 0.75452 0.33586
 C203 C 0.21667 0.75558 0.34813
 C204 C 0.22694 0.77051 0.34242
 H205 H 0.19142 0.74472 0.33592
 H206 H 0.23924 0.77572 0.34858
 H207 H 0.19914 0.79946 0.30923
 H208 H 0.21319 0.78435 0.29416
 N209 N 0.47183 0.41804 0.46416
 N210 N 0.45878 0.42324 0.47533
 C211 C 0.45762 0.41103 0.48898
 C212 C 0.47069 0.39743 0.48628
 C213 C 0.47944 0.40239 0.47033
 H214 H 0.44784 0.41191 0.49995
 H215 H 0.49058 0.39524 0.46369
 Cu216 Cu 0.44427 0.44522 0.47094
 Cu217 Cu 0.47794 0.43194 0.44252
 Cu218 Cu 0.45196 0.47079 0.43357
 N219 N 0.42912 0.46634 0.46493
 N220 N 0.43217 0.47637 0.45045
 C221 C 0.41937 0.48969 0.44947
 C222 C 0.40756 0.48786 0.46409
 C223 C 0.41425 0.47289 0.47360
 H224 H 0.41845 0.49963 0.43864
 H225 H 0.40864 0.46708 0.48588
 N226 N 0.47254 0.46280 0.41810
 N227 N 0.48215 0.44777 0.42133
 C228 C 0.49475 0.44564 0.40814
 C229 C 0.49307 0.46005 0.39604
 C230 C 0.47887 0.47069 0.40281
 H231 H 0.50457 0.43451 0.40748
 H232 H 0.47334 0.48307 0.39683
 H233 H 0.46868 0.45723 0.45164
 H234 H 0.45195 0.44288 0.43892
 N235 N -0.03165 -0.07802 0.96399
 N236 N -0.04610 -0.07338 0.97361
 C237 C -0.04906 -0.08629 0.98635
 C238 C -0.03564 -0.09967 0.98473
 C239 C -0.02481 -0.09395 0.97039
 H240 H -0.05993 -0.08582 0.99631
 H241 H -0.01285 -0.10084 0.96498
 Cu242 Cu -0.05957 -0.05084 0.96882
 Cu243 Cu -0.02254 -0.06289 0.94418
 Cu244 Cu -0.04328 -0.02026 0.93871
 N245 N -0.07332 -0.02893 0.96225
 N246 N -0.06688 -0.01697 0.95056
 C247 C -0.07882 -0.00293 0.94897
 C248 C -0.09366 -0.00629 0.96027
 C249 C -0.08964 -0.02298 0.96845
 H250 H -0.07668 0.00888 0.94035
 H251 H -0.09789 -0.03028 0.97824
 N252 N -0.02273 -0.02885 0.92358
 N253 N -0.01527 -0.04531 0.92521
 C254 C -0.00223 -0.04731 0.91241
 C255 C -0.00141 -0.03132 0.90226
 C256 C -0.01463 -0.01993 0.90975
 H257 H 0.00620 -0.05943 0.91074
 H258 H -0.01841 -0.00632 0.90519
 H259 H -0.03079 -0.03913 0.95621
 H260 H -0.04657 -0.04842 0.93868
 N261 N 1.02917 0.57730 0.96646
 N262 N 1.04333 0.57287 0.97643
 C263 C 1.04541 0.58571 0.98939
 C264 C 1.03182 0.59890 0.98740
 C265 C 1.02178 0.59304 0.97268
 H266 H 1.05612 0.58556 0.99938
 H267 H 1.00986 0.59960 0.96697
 Cu268 Cu 1.05767 0.55081 0.97136
 Cu269 Cu 1.02121 0.56242 0.94619
 Cu270 Cu 1.04691 0.52364 0.93616
 N271 N 1.07227 0.52924 0.96516
 N272 N 1.06800 0.51873 0.95140
 C273 C 1.08018 0.50489 0.95014
 C274 C 1.09288 0.50673 0.96386
 C275 C 1.08737 0.52241 0.97311
 H276 H 1.07979 0.49431 0.93991
 H277 H 1.09381 0.52840 0.98480
 N278 N 1.02508 0.53091 0.92235
 N279 N 1.01529 0.54567 0.92620
 C280 C 1.00130 0.54689 0.91452
 C281 C 1.00226 0.53218 0.90266
 C282 C 1.01756 0.52235 0.90808
 H283 H 0.99111 0.55768 0.91472
 H284 H 1.02291 0.50991 0.90207
 H285 H 1.03173 0.53768 0.95533
 H286 H 1.04683 0.55173 0.94028
 N287 N 0.52762 0.07880 0.46811
 N288 N 0.54210 0.07522 0.47795
 C289 C 0.54307 0.08763 0.49141
 C290 C 0.52842 0.09969 0.48992
 C291 C 0.51892 0.09359 0.47493
 H292 H 0.55379 0.08800 0.50139
 H293 H 0.50655 0.09942 0.46937
 Cu294 Cu 0.55839 0.05485 0.47204
 Cu295 Cu 0.52124 0.06421 0.44704
 Cu296 Cu 0.54965 0.02738 0.43663
 N297 N 0.57401 0.03394 0.46623
 N298 N 0.57050 0.02322 0.45241
 C299 C 0.58338 0.00999 0.45137
 C300 C 0.59573 0.01252 0.46530
 C301 C 0.58927 0.02788 0.47445
 H302 H 0.58383 -0.00052 0.44107
 H303 H 0.59520 0.03415 0.48627
 N304 N 0.52790 0.03385 0.42230
 N305 N 0.51708 0.04785 0.42626
 C306 C 0.50368 0.04883 0.41388
 C307 C 0.50615 0.03478 0.40146
 C308 C 0.52167 0.02557 0.40729
 H309 H 0.49308 0.05921 0.41376
 H310 H 0.52799 0.01370 0.40107
 H311 H 0.53343 0.04016 0.45588
 H312 H 0.54747 0.05539 0.44096
 N313 N -0.03109 0.07120 0.52806
 N314 N -0.04392 0.06529 0.51716
 C315 C -0.04454 0.07630 0.50252
 C316 C -0.03146 0.08990 0.50438
 C317 C -0.02320 0.08621 0.52079
 H318 H -0.05410 0.07484 0.49153
 H319 H -0.01222 0.09382 0.52698
 Cu320 Cu -0.05899 0.04424 0.52364
 Cu321 Cu -0.02556 0.05904 0.55092
 Cu322 Cu -0.05215 0.02124 0.56232
 N323 N -0.07389 0.02306 0.53013
 N324 N -0.07114 0.01419 0.54535
 C325 C -0.08332 0.00042 0.54680
 C326 C -0.09441 0.00062 0.53167
 C327 C -0.08797 0.01524 0.52138
 H328 H -0.08416 -0.00884 0.55820
 H329 H -0.09317 0.01990 0.50853
 N330 N -0.03228 0.03047 0.57771
 N331 N -0.02212 0.04481 0.57341
 C332 C -0.00962 0.04740 0.58647
 C333 C -0.01202 0.03406 0.59966
 C334 C -0.02653 0.02360 0.59360
 H335 H 0.00049 0.05821 0.58637
 H336 H -0.03230 0.01162 0.60011
 H337 H -0.03484 0.03338 0.54358
 H338 H -0.05148 0.04881 0.55537
 N339 N 0.47092 0.57873 0.03127
 N340 N 0.45654 0.57546 0.02121
 C341 C 0.45562 0.58826 0.00807
 C342 C 0.47020 0.60026 0.00997
 C343 C 0.47960 0.59371 0.02488
 H344 H 0.44500 0.58890 -0.00200
 H345 H 0.49190 0.59934 0.03069
 Cu346 Cu 0.44035 0.55489 0.02642
 Cu347 Cu 0.47725 0.56345 0.05198
 Cu348 Cu 0.44899 0.52632 0.06112
 N349 N 0.42482 0.53378 0.03152
 N350 N 0.42830 0.52266 0.04508
 C351 C 0.41550 0.50940 0.04568
 C352 C 0.40326 0.51231 0.03172
 C353 C 0.40967 0.52795 0.02302
 H354 H 0.41507 0.49859 0.05570
 H355 H 0.40379 0.53458 0.01133
 N356 N 0.47059 0.53229 0.07579
 N357 N 0.48137 0.54640 0.07232
 C358 C 0.49472 0.54687 0.08478
 C359 C 0.49226 0.53237 0.09672
 C360 C 0.47680 0.52344 0.09053
 H361 H 0.50532 0.55719 0.08525
 H362 H 0.47052 0.51134 0.09631
 H363 H 0.46529 0.53972 0.04236
 H364 H 0.45104 0.55446 0.05759
 N365 N 0.52876 -0.07638 0.03398
 N366 N 0.54383 -0.07269 0.02492
 C367 C 0.54664 -0.08596 0.01250
 C368 C 0.53262 -0.09870 0.01393
 C369 C 0.52154 -0.09210 0.02773
 H370 H 0.55813 -0.08641 0.00324
 H371 H 0.50903 -0.09816 0.03278
 Cu372 Cu 0.55830 -0.05094 0.03030
 Cu373 Cu 0.51961 -0.06072 0.05331
 Cu374 Cu 0.54429 -0.02135 0.06259
 N375 N 0.57153 -0.02830 0.03528
 N376 N 0.56582 -0.01671 0.04773
 C377 C 0.57723 -0.00225 0.04828
 C378 C 0.59092 -0.00489 0.03554
 C379 C 0.58686 -0.02160 0.02755
 H380 H 0.57584 0.00918 0.05751
 H381 H 0.59442 -0.02829 0.01680
 N382 N 0.52213 -0.02838 0.07615
 N383 N 0.51254 -0.04322 0.07240
 C384 C 0.49828 -0.04427 0.08396
 C385 C 0.49900 -0.02945 0.09564
 C386 C 0.51432 -0.01968 0.09028
 H387 H 0.48836 -0.05527 0.08422
 H388 H 0.51937 -0.00714 0.09624
 H389 H 0.53097 -0.03676 0.04327
 H390 H 0.54458 -0.04971 0.06043
 N391 N 1.03411 0.42592 0.52879
 N392 N 1.04743 0.43146 0.51812
 C393 C 1.04894 0.41975 0.50409
 C394 C 1.03584 0.40611 0.50604
 C395 C 1.02669 0.41056 0.52192
 H396 H 1.05894 0.42103 0.49336
 H397 H 1.01554 0.40315 0.52819
 Cu398 Cu 1.06173 0.45325 0.52371
 Cu399 Cu 1.02754 0.43876 0.55096
 Cu400 Cu 1.05349 0.47681 0.56203
 N401 N 1.07646 0.47438 0.53052
 N402 N 1.07314 0.48349 0.54551
 C403 C 1.08531 0.49722 0.54706
 C404 C 1.09698 0.49678 0.53224
 C405 C 1.09092 0.48203 0.52203
 H406 H 1.08572 0.50666 0.55831
 H407 H 1.09658 0.47719 0.50938
 N408 N 1.03302 0.46799 0.57707
 N409 N 1.02304 0.45357 0.57283
 C410 C 1.01016 0.45111 0.58572
 C411 C 1.01217 0.46462 0.59873
 C412 C 1.02681 0.47506 0.59274
 H413 H 1.00020 0.44016 0.58573
 H414 H 1.03243 0.48706 0.59924
 H415 H 1.03693 0.46430 0.54313
 H416 H 1.05340 0.44913 0.55540
 C417 C 0.35151 -0.01379 0.25085
 C418 C 0.36056 0.00306 0.24903
 C419 C 0.35054 0.01915 0.24563
 C420 C 0.33140 0.01851 0.24403
 C421 C 0.32248 0.00151 0.24601
 C422 C 0.33239 -0.01471 0.24934
 C423 C 0.38062 0.00373 0.25013
 C424 C 0.39125 0.00003 0.23474
 C425 C 0.41045 0.00032 0.23561
 C426 C 0.41880 0.00428 0.25221
 C427 C 0.40829 0.00770 0.26782
 C428 C 0.38912 0.00757 0.26662
 H429 H 0.35941 -0.02620 0.25317
 H430 H 0.35773 0.03205 0.24390
 H431 H 0.38450 -0.00333 0.22218
 H432 H 0.38078 0.01002 0.27854
 H433 H 0.30768 0.00095 0.24538
 H434 H 0.43357 0.00506 0.25296
 C435 C 0.14752 -0.01528 0.74602
 C436 C 0.13751 0.00116 0.74696
 C437 C 0.14668 0.01801 0.74802
 C438 C 0.16589 0.01855 0.74824
 C439 C 0.17578 0.00198 0.74716
 C440 C 0.16674 -0.01501 0.74601
 C441 C 0.11738 0.00070 0.74702
 C442 C 0.10793 -0.00510 0.76252
 C443 C 0.08873 -0.00575 0.76270
 C444 C 0.07912 -0.00075 0.74705
 C445 C 0.08844 0.00499 0.73135
 C446 C 0.10766 0.00583 0.73154
 H447 H 0.14030 -0.02826 0.74538
 H448 H 0.13883 0.03067 0.74867
 H449 H 0.11555 -0.00915 0.77440
 H450 H 0.11512 0.00999 0.71952
 H451 H 0.19060 0.00230 0.74725
 H452 H 0.06430 -0.00089 0.74726
 C453 C 0.64874 0.48496 0.24636
 C454 C 0.63838 0.50102 0.24894
 C455 C 0.64712 0.51761 0.25303
 C456 C 0.66626 0.51831 0.25444
 C457 C 0.67649 0.50211 0.25196
 C458 C 0.66788 0.48536 0.24797
 C459 C 0.61832 0.50044 0.24767
 C460 C 0.60774 0.49779 0.26329
 C461 C 0.58858 0.49724 0.26228
 C462 C 0.58012 0.49954 0.24543
 C463 C 0.59058 0.50238 0.22966
 C464 C 0.60976 0.50274 0.23092
 H465 H 0.64183 0.47214 0.24345
 H466 H 0.63901 0.52997 0.25484
 H467 H 0.61447 0.49593 0.27617
 H468 H 0.61808 0.50472 0.21890
 H469 H 0.69125 0.50255 0.25313
 H470 H 0.56532 0.49970 0.24470
 C471 C 0.85344 0.47870 0.75424
 C472 C 0.86407 0.49413 0.75000
 C473 C 0.85558 0.51093 0.74599
 C474 C 0.83643 0.51245 0.74623
 C475 C 0.82589 0.49682 0.75027
 C476 C 0.83424 0.47988 0.75435
 C477 C 0.88413 0.49270 0.74974
 C478 C 0.89336 0.48929 0.73344
 C479 C 0.91254 0.48808 0.73299
 C480 C 0.92233 0.49027 0.74913
 C481 C 0.91322 0.49375 0.76556
 C482 C 0.89403 0.49493 0.76573
 H483 H 0.86019 0.46586 0.75757
 H484 H 0.86394 0.52285 0.74300
 H485 H 0.88559 0.48788 0.72110
 H486 H 0.88675 0.49749 0.77829
 H487 H 0.81111 0.49777 0.74979
 H488 H 0.93713 0.48940 0.74889
 C489 C 0.24993 0.35775 -0.01491
 C490 C 0.24712 0.36757 0.00116
 C491 C 0.24245 0.35820 0.01708
 C492 C 0.24053 0.33899 0.01707
 C493 C 0.24336 0.32929 0.00088
 C494 C 0.24798 0.33853 -0.01520
 C495 C 0.24849 0.38774 0.00118
 C496 C 0.23279 0.39847 -0.00151
 C497 C 0.23387 0.41776 -0.00148
 C498 C 0.25093 0.42614 0.00127
 C499 C 0.26679 0.41551 0.00397
 C500 C 0.26542 0.39624 0.00391
 H501 H 0.25322 0.36515 -0.02722
 H502 H 0.24001 0.36596 0.02936
 H503 H 0.21972 0.39176 -0.00341
 H504 H 0.27752 0.38781 0.00579
 H505 H 0.24232 0.31443 0.00087
 H506 H 0.25187 0.44100 0.00131
 C507 C 0.74906 0.14069 -0.01171
 C508 C 0.74959 0.13104 0.00467
 C509 C 0.75010 0.14067 0.02104
 C510 C 0.75017 0.15999 0.02116
 C511 C 0.74950 0.16953 0.00464
 C512 C 0.74891 0.16001 -0.01186
 C513 C 0.74994 0.11082 0.00468
 C514 C 0.76627 0.10147 0.00069
 C515 C 0.76690 0.08219 0.00110
 C516 C 0.75085 0.07237 0.00511
 C517 C 0.73436 0.08156 0.00906
 C518 C 0.73407 0.10089 0.00892
 H519 H 0.74889 0.13311 -0.02431
 H520 H 0.75045 0.13309 0.03365
 H521 H 0.77855 0.10927 -0.00223
 H522 H 0.72158 0.10826 0.01219
 H523 H 0.74949 0.18442 0.00463
 H524 H 0.75116 0.05748 0.00477
 C525 C 0.25220 0.64467 0.48453
 C526 C 0.25387 0.63443 0.50047
 C527 C 0.25552 0.64345 0.51710
 C528 C 0.25576 0.66275 0.51784
 C529 C 0.25403 0.67289 0.50176
 C530 C 0.25217 0.66398 0.48504
 C531 C 0.25452 0.61425 0.49962
 C532 C 0.27111 0.60533 0.49587
 C533 C 0.27191 0.58607 0.49476
 C534 C 0.25579 0.57588 0.49727
 C535 C 0.23901 0.58469 0.50087
 C536 C 0.23853 0.60396 0.50215
 H537 H 0.25117 0.63755 0.47172
 H538 H 0.25707 0.63543 0.52935
 H539 H 0.28342 0.61342 0.49406
 H540 H 0.22570 0.61103 0.50472
 H541 H 0.25369 0.68777 0.50234
 H542 H 0.25630 0.56102 0.49637
 C543 C 0.75153 0.85357 0.48267
 C544 C 0.74807 0.86406 0.49819
 C545 C 0.74458 0.85531 0.51473
 C546 C 0.74460 0.83602 0.51591
 C547 C 0.74801 0.82563 0.50022
 C548 C 0.75145 0.83426 0.48354
 C549 C 0.74783 0.88425 0.49707
 C550 C 0.73134 0.89354 0.49393
 C551 C 0.73091 0.91283 0.49288
 C552 C 0.74729 0.92267 0.49498
 C553 C 0.76393 0.91350 0.49813
 C554 C 0.76406 0.89420 0.49917
 H555 H 0.75396 0.86048 0.46990
 H556 H 0.74210 0.86357 0.52668
 H557 H 0.71883 0.88571 0.49255
 H558 H 0.77678 0.88687 0.50142
 H559 H 0.74796 0.81076 0.50100
 H560 H 0.74706 0.93755 0.49420
 C561 C -0.01890 0.25506 0.35966
 C562 C -0.00319 0.24991 0.36917
 C563 C 0.01302 0.24583 0.35977
 C564 C 0.01370 0.24708 0.34081
 C565 C -0.00214 0.25242 0.33144
 C566 C -0.01847 0.25640 0.34075
 C567 C -0.00346 0.24986 0.38905
 C568 C -0.00663 0.23352 0.39864
 C569 C -0.00737 0.23362 0.41764
 C570 C -0.00462 0.25031 0.42681
 C571 C -0.00154 0.26676 0.41733
 C572 C -0.00097 0.26640 0.39839
 H573 H -0.03135 0.25840 0.36702
 H574 H 0.02519 0.24220 0.36728
 H575 H -0.00891 0.22088 0.39126
 H576 H 0.00114 0.27902 0.39084
 H577 H -0.00192 0.25311 0.31681
 H578 H -0.00452 0.25047 0.44145
 C579 C -0.01234 0.75251 0.14274
 C580 C 0.00389 0.75436 0.13272
 C581 C 0.02046 0.75755 0.14157
 C582 C 0.02095 0.75885 0.16049
 C583 C 0.00459 0.75705 0.17040
 C584 C -0.01213 0.75390 0.16167
 C585 C 0.00352 0.75306 0.11290
 C586 C 0.00020 0.76883 0.10252
 C587 C -0.00037 0.76772 0.08360
 C588 C 0.00249 0.75064 0.07520
 C589 C 0.00594 0.73473 0.08546
 C590 C 0.00644 0.73609 0.10440
 H591 H -0.02512 0.75023 0.13575
 H592 H 0.03297 0.75877 0.13372
 H593 H -0.00212 0.78189 0.10921
 H594 H 0.00887 0.72395 0.11256
 H595 H 0.00487 0.75807 0.18500
 H596 H 0.00255 0.74985 0.06058
 C597 C 0.48469 0.24871 0.64926
 C598 C 0.50071 0.25117 0.63904
 C599 C 0.51735 0.25450 0.64771
 C600 C 0.51814 0.25525 0.66664
 C601 C 0.50200 0.25278 0.67676
 C602 C 0.48519 0.24960 0.66821
 C603 C 0.50002 0.25045 0.61921
 C604 C 0.49689 0.26657 0.60932
 C605 C 0.49633 0.26609 0.59036
 C606 C 0.49887 0.24920 0.58146
 C607 C 0.50202 0.23293 0.59125
 C608 C 0.50261 0.23370 0.61021
 H609 H 0.47184 0.24643 0.64241
 H610 H 0.52969 0.25625 0.63970
 H611 H 0.49517 0.27949 0.61642
 H612 H 0.50487 0.22128 0.61800
 H613 H 0.50254 0.25337 0.69137
 H614 H 0.49845 0.24873 0.56684
 C615 C 0.48426 0.75909 0.85534
 C616 C 0.50081 0.75477 0.86383
 C617 C 0.51681 0.75267 0.85352
 C618 C 0.51644 0.75496 0.83467
 C619 C 0.49979 0.75944 0.82631
 C620 C 0.48365 0.76156 0.83653
 C621 C 0.50161 0.75345 0.88364
 C622 C 0.49812 0.73671 0.89238
 C623 C 0.49907 0.73545 0.91132
 C624 C 0.50339 0.75127 0.92133
 C625 C 0.50682 0.76814 0.91269
 C626 C 0.50596 0.76907 0.89377
 H627 H 0.47200 0.76101 0.86345
 H628 H 0.52960 0.74962 0.86025
 H629 H 0.49498 0.72465 0.88441
 H630 H 0.50837 0.78200 0.88686
 H631 H 0.49930 0.76088 0.81175
 H632 H 0.50405 0.75045 0.93593
 C633 C 0.11712 0.23477 0.24523
 C634 C 0.10165 0.23833 0.25584
 C635 C 0.09911 0.22948 0.27253
 C636 C 0.11235 0.21666 0.27825
 C637 C 0.12786 0.21309 0.26761
 C638 C 0.13048 0.22214 0.25098
 C639 C 0.08232 0.23384 0.28312
 C640 C 0.07997 0.22992 0.30072
 C641 C 0.06306 0.23473 0.31087
 C642 C 0.05814 0.22419 0.32603
 C643 C 0.04219 0.22820 0.33582
 C644 C 0.03090 0.24300 0.33074
 C645 C 0.03609 0.25385 0.31585
 C646 C 0.05200 0.24982 0.30605
 H647 H 0.11846 0.24195 0.23250
 H648 H 0.09163 0.24815 0.25100
 H649 H 0.11079 0.20910 0.29073
 H650 H 0.13773 0.20319 0.27250
 H651 H 0.07147 0.24082 0.27593
 H652 H 0.09049 0.22265 0.30806
 H653 H 0.06652 0.21261 0.33014
 H654 H 0.03852 0.21952 0.34717
 H655 H 0.02796 0.26564 0.31189
 H656 H 0.05570 0.25877 0.29494
 C657 C 0.63092 0.70699 0.76586
 C658 C 0.61570 0.71038 0.77688
 C659 C 0.60561 0.72671 0.77516
 C660 C 0.61095 0.73955 0.76188
 C661 C 0.62620 0.73615 0.75084
 C662 C 0.63641 0.71984 0.75271
 C663 C 0.58938 0.72935 0.78707
 C664 C 0.58127 0.74563 0.79014
 C665 C 0.56494 0.74779 0.80196
 C666 C 0.55298 0.76257 0.79881
 C667 C 0.53730 0.76495 0.80947
 C668 C 0.53335 0.75271 0.82367
 C669 C 0.54557 0.73820 0.82715
 C670 C 0.56121 0.73576 0.81644
 H671 H 0.63820 0.69416 0.76764
 H672 H 0.61182 0.70016 0.78685
 H673 H 0.60329 0.75207 0.75966
 H674 H 0.62994 0.74637 0.74085
 H675 H 0.58402 0.71717 0.79362
 H676 H 0.58628 0.75788 0.78350
 H677 H 0.55565 0.77217 0.78791
 H678 H 0.52830 0.77646 0.80666
 H679 H 0.54288 0.72854 0.83799
 H680 H 0.57041 0.72458 0.81972
 C681 C 0.36539 0.76030 0.76215
 C682 C 0.37987 0.75695 0.77395
 C683 C 0.38791 0.77142 0.78355
 C684 C 0.38068 0.78927 0.78165
 C685 C 0.36607 0.79260 0.76996
 C686 C 0.35842 0.77819 0.75990
 C687 C 0.40370 0.76736 0.79537
 C688 C 0.41690 0.77963 0.79874
 C689 C 0.43360 0.77506 0.80909
 C690 C 0.44981 0.78457 0.80513
 C691 C 0.46601 0.78024 0.81411
 C692 C 0.46628 0.76650 0.82747
 C693 C 0.44993 0.75737 0.83188
 C694 C 0.43373 0.76158 0.82276
 H695 H 0.35964 0.74882 0.75486
 H696 H 0.38505 0.74305 0.77534
 H697 H 0.38617 0.80067 0.78926
 H698 H 0.36101 0.80653 0.76860
 H699 H 0.40522 0.75336 0.80014
 H700 H 0.41631 0.79306 0.79243
 H701 H 0.45001 0.79515 0.79481
 H702 H 0.47836 0.78770 0.81066
 H703 H 0.44976 0.74674 0.84214
 H704 H 0.42136 0.75436 0.82653
 C705 C -0.13019 0.25948 0.25785
 C706 C -0.11594 0.25571 0.26978
 C707 C -0.10984 0.26913 0.28185
 C708 C -0.11861 0.28634 0.28215
 C709 C -0.13314 0.29006 0.27044
 C710 C -0.13909 0.27673 0.25796
 C711 C -0.09462 0.26455 0.29416
 C712 C -0.08220 0.27693 0.29942
 C713 C -0.06621 0.27181 0.31054
 C714 C -0.04949 0.28076 0.30755
 C715 C -0.03397 0.27575 0.31737
 C716 C -0.03501 0.26199 0.33067
 C717 C -0.05188 0.25343 0.33409
 C718 C -0.06733 0.25822 0.32405
 H719 H -0.13429 0.24863 0.24879
 H720 H -0.10948 0.24228 0.26942
 H721 H -0.11447 0.29686 0.29161
 H722 H -0.13944 0.30351 0.27113
 H723 H -0.09279 0.25023 0.29781
 H724 H -0.08287 0.29084 0.29422
 H725 H -0.04834 0.29138 0.29732
 H726 H -0.02115 0.28269 0.31465
 H727 H -0.05301 0.24280 0.34429
 H728 H -0.08015 0.25138 0.32696
 C729 C -0.13221 0.71240 0.22555
 C730 C -0.11782 0.71596 0.21355
 C731 C -0.10684 0.73159 0.21563
 C732 C -0.11091 0.74393 0.22974
 C733 C -0.12533 0.74038 0.24175
 C734 C -0.13611 0.72451 0.23989
 C735 C -0.09157 0.73460 0.20266
 C736 C -0.07666 0.74452 0.20658
 C737 C -0.06085 0.74704 0.19412
 C738 C -0.04833 0.76111 0.19790
 C739 C -0.03274 0.76355 0.18718
 C740 C -0.02922 0.75190 0.17243
 C741 C -0.04180 0.73794 0.16846
 C742 C -0.05741 0.73545 0.17922
 H743 H -0.14015 0.70007 0.22353
 H744 H -0.11510 0.70632 0.20270
 H745 H -0.10323 0.75648 0.23144
 H746 H -0.12800 0.75019 0.25242
 H747 H -0.09261 0.72784 0.18971
 H748 H -0.07572 0.75107 0.21966
 H749 H -0.05059 0.77022 0.20927
 H750 H -0.02340 0.77457 0.19044
 H751 H -0.03929 0.72857 0.15735
 H752 H -0.06632 0.72409 0.17604
 C753 C 0.36268 0.21086 0.72985
 C754 C 0.37755 0.21384 0.71826
 C755 C 0.38977 0.22830 0.72135
 C756 C 0.38651 0.24009 0.73608
 C757 C 0.37166 0.23713 0.74770
 C758 C 0.35951 0.22240 0.74486
 C759 C 0.40542 0.23084 0.70872
 C760 C 0.42086 0.23960 0.71326
 C761 C 0.43674 0.24214 0.70092
 C762 C 0.44947 0.25589 0.70506
 C763 C 0.46501 0.25848 0.69430
 C764 C 0.46827 0.24726 0.67917
 C765 C 0.45551 0.23355 0.67491
 C766 C 0.43993 0.23094 0.68569
 H767 H 0.35381 0.19940 0.72691
 H768 H 0.37963 0.20466 0.70690
 H769 H 0.39515 0.25184 0.73858
 H770 H 0.36981 0.24660 0.75880
 H771 H 0.40412 0.22492 0.69540
 H772 H 0.42212 0.24535 0.72666
 H773 H 0.44739 0.26469 0.71670
 H774 H 0.47446 0.26933 0.69780
 H775 H 0.45783 0.22449 0.66351
 H776 H 0.43081 0.21982 0.68228
 C777 C 0.62291 0.26390 0.75908
 C778 C 0.60729 0.26087 0.74879
 C779 C 0.60416 0.27088 0.73293
 C780 C 0.61687 0.28440 0.72771
 C781 C 0.63250 0.28757 0.73809
 C782 C 0.63586 0.27729 0.75392
 C783 C 0.58724 0.26707 0.72269
 C784 C 0.58519 0.27054 0.70500
 C785 C 0.56822 0.26599 0.69506
 C786 C 0.56391 0.27591 0.67935
 C787 C 0.54779 0.27228 0.66991
 C788 C 0.53571 0.25857 0.67598
 C789 C 0.54032 0.24823 0.69133
 C790 C 0.55643 0.25180 0.70071
 H791 H 0.62457 0.25569 0.77114
 H792 H 0.59763 0.25049 0.75321
 H793 H 0.61468 0.29280 0.71585
 H794 H 0.64189 0.29808 0.73353
 H795 H 0.57618 0.26070 0.73017
 H796 H 0.59609 0.27712 0.69747
 H797 H 0.57287 0.28675 0.67458
 H798 H 0.54456 0.28048 0.65812
 H799 H 0.53150 0.23725 0.69603
 H800 H 0.55963 0.24323 0.71222
 C801 C 0.12312 0.76981 0.25549
 C802 C 0.10771 0.76673 0.24490
 C803 C 0.10610 0.77484 0.22778
 C804 C 0.12019 0.78646 0.22157
 C805 C 0.13562 0.78960 0.23223
 C806 C 0.13730 0.78123 0.24929
 C807 C 0.08932 0.77109 0.21726
 C808 C 0.08788 0.77340 0.19933
 C809 C 0.07091 0.76907 0.18932
 C810 C 0.06722 0.77843 0.17313
 C811 C 0.05112 0.77499 0.16360
 C812 C 0.03845 0.76200 0.17003
 C813 C 0.04244 0.75219 0.18590
 C814 C 0.05851 0.75561 0.19539
 H815 H 0.12374 0.76334 0.26865
 H816 H 0.09700 0.75788 0.25010
 H817 H 0.11931 0.79341 0.20868
 H818 H 0.14626 0.79850 0.22703
 H819 H 0.07770 0.76590 0.22481
 H820 H 0.09923 0.77888 0.19161
 H821 H 0.07666 0.78870 0.16804
 H822 H 0.04838 0.78278 0.15143
 H823 H 0.03317 0.74174 0.19089
 H824 H 0.06122 0.74748 0.20733
 C825 C 0.27426 0.14798 0.22105
 C826 C 0.28598 0.13309 0.22420
 C827 C 0.27902 0.11622 0.23031
 C828 C 0.26014 0.11470 0.23380
 C829 C 0.24846 0.12962 0.23080
 C830 C 0.25535 0.14639 0.22425
 C831 C 0.29176 0.10063 0.23329
 C832 C 0.28665 0.08305 0.23132
 C833 C 0.29903 0.06714 0.23413
 C834 C 0.29487 0.05047 0.22561
 C835 C 0.30559 0.03484 0.22853
 C836 C 0.32063 0.03544 0.24026
 C837 C 0.32493 0.05219 0.24870
 C838 C 0.31423 0.06789 0.24570
 H839 H 0.28007 0.16077 0.21625
 H840 H 0.30050 0.13467 0.22163
 H841 H 0.25436 0.10208 0.23905
 H842 H 0.23399 0.12789 0.23343
 H843 H 0.30589 0.10383 0.23618
 H844 H 0.27296 0.08008 0.22664
 H845 H 0.28323 0.04951 0.21667
 H846 H 0.30209 0.02224 0.22159
 H847 H 0.33624 0.05303 0.25804
 H848 H 0.31757 0.08035 0.25290
 C849 C 0.74504 0.62055 0.73372
 C850 C 0.75514 0.60469 0.73748
 C851 C 0.77197 0.60138 0.72885
 C852 C 0.77841 0.61427 0.71611
 C853 C 0.76826 0.63015 0.71231
 C854 C 0.75146 0.63350 0.72110
 C855 C 0.78187 0.58410 0.73322
 C856 C 0.79967 0.58110 0.72974
 C857 C 0.80906 0.56363 0.73444
 C858 C 0.82454 0.55823 0.72442
 C859 C 0.83355 0.54169 0.72828
 C860 C 0.82731 0.53028 0.74236
 C861 C 0.81214 0.53595 0.75271
 C862 C 0.80316 0.55245 0.74886
 H863 H 0.73209 0.62245 0.74063
 H864 H 0.74976 0.59495 0.74723
 H865 H 0.79105 0.61209 0.70876
 H866 H 0.77366 0.63978 0.70250
 H867 H 0.77394 0.57343 0.73978
 H868 H 0.80773 0.59146 0.72290
 H869 H 0.82948 0.56668 0.71336
 H870 H 0.84515 0.53765 0.72002
 H871 H 0.80732 0.52768 0.76395
 H872 H 0.79180 0.55649 0.75743
 C873 C 0.77632 0.35357 0.78666
 C874 C 0.78785 0.36840 0.78290
 C875 C 0.78127 0.38389 0.77366
 C876 C 0.76302 0.38404 0.76772
 C877 C 0.75154 0.36911 0.77129
 C878 C 0.75802 0.35378 0.78092
 C879 C 0.79384 0.39940 0.77002
 C880 C 0.78808 0.41688 0.76890
 C881 C 0.80053 0.43256 0.76555
 C882 C 0.79548 0.45001 0.77194
 C883 C 0.80657 0.46527 0.76860
 C884 C 0.82285 0.46347 0.75851
 C885 C 0.82788 0.44598 0.75207
 C886 C 0.81686 0.43068 0.75554
 H887 H 0.78181 0.34186 0.79388
 H888 H 0.80191 0.36788 0.78743
 H889 H 0.75764 0.39553 0.76009
 H890 H 0.73752 0.36972 0.76669
 H891 H 0.80835 0.39638 0.76934
 H892 H 0.77380 0.42004 0.77146
 H893 H 0.78295 0.45183 0.77964
 H894 H 0.80241 0.47848 0.77400
 H895 H 0.84012 0.44418 0.74393
 H896 H 0.82090 0.41753 0.74994
 C897 C 0.27157 -0.13601 0.29294
 C898 C 0.28259 -0.12066 0.28981
 C899 C 0.27891 -0.10859 0.27551
 C900 C 0.26375 -0.11211 0.26443
 C901 C 0.25269 -0.12745 0.26753
 C902 C 0.25634 -0.13966 0.28190
 C903 C 0.29062 -0.09211 0.27321
 C904 C 0.29222 -0.08277 0.25763
 C905 C 0.30318 -0.06574 0.25564
 C906 C 0.29868 -0.05342 0.24175
 C907 C 0.30825 -0.03695 0.23962
 C908 C 0.32269 -0.03251 0.25125
 C909 C 0.32758 -0.04507 0.26485
 C910 C 0.31797 -0.06154 0.26702
 H911 H 0.27508 -0.14483 0.30417
 H912 H 0.29409 -0.11819 0.29866
 H913 H 0.26002 -0.10285 0.25362
 H914 H 0.24117 -0.12945 0.25868
 H915 H 0.29807 -0.08759 0.28497
 H916 H 0.28478 -0.08729 0.24587
 H917 H 0.28751 -0.05641 0.23266
 H918 H 0.30438 -0.02770 0.22880
 H919 H 0.33866 -0.04202 0.27401
 H920 H 0.32230 -0.07091 0.27751
 C921 C 0.22609 -0.14040 0.71169
 C922 C 0.21439 -0.12555 0.71510
 C923 C 0.21845 -0.11268 0.72856
 C924 C 0.23424 -0.11533 0.73902
 C925 C 0.24597 -0.13018 0.73565
 C926 C 0.24222 -0.14290 0.72180
 C927 C 0.20581 -0.09690 0.73133
 C928 C 0.21095 -0.08091 0.73876
 C929 C 0.19872 -0.06470 0.74088
 C930 C 0.20374 -0.05094 0.75317
 C931 C 0.19320 -0.03500 0.75508
 C932 C 0.17742 -0.03236 0.74463
 C933 C 0.17228 -0.04616 0.73241
 C934 C 0.18283 -0.06213 0.73049
 H935 H 0.22239 -0.14975 0.70099
 H936 H 0.20221 -0.12396 0.70696
 H937 H 0.23755 -0.10615 0.75000
 H938 H 0.25795 -0.13151 0.74404
 H939 H 0.19197 -0.09851 0.72650
 H940 H 0.22484 -0.07935 0.74347
 H941 H 0.21592 -0.05250 0.76130
 H942 H 0.19740 -0.02471 0.76476
 H943 H 0.16038 -0.04436 0.72394
 H944 H 0.17873 -0.07204 0.72044
 C945 C 0.73164 0.36380 0.20723
 C946 C 0.72002 0.37880 0.21028
 C947 C 0.72261 0.39039 0.22517
 C948 C 0.73697 0.38645 0.23719
 C949 C 0.74859 0.37143 0.23414
 C950 C 0.74608 0.35992 0.21912
 C951 C 0.70976 0.40603 0.22788
 C952 C 0.71381 0.42104 0.23759
 C953 C 0.70120 0.43689 0.24020
 C954 C 0.70471 0.44912 0.25441
 C955 C 0.69372 0.46464 0.25710
 C956 C 0.67899 0.46839 0.24554
 C957 C 0.67534 0.45612 0.23138
 C958 C 0.68635 0.44057 0.22866
 H959 H 0.72928 0.35536 0.19546
 H960 H 0.70903 0.38143 0.20086
 H961 H 0.73909 0.39460 0.24920
 H962 H 0.75934 0.36873 0.24377
 H963 H 0.69665 0.40507 0.22127
 H964 H 0.72700 0.42195 0.24407
 H965 H 0.71603 0.44668 0.26348
 H966 H 0.69675 0.47371 0.26827
 H967 H 0.66426 0.45883 0.22208
 H968 H 0.68342 0.43188 0.21721
 C969 C 0.76029 0.62278 0.26949
 C970 C 0.75004 0.60701 0.26615
 C971 C 0.73271 0.60468 0.27405
 C972 C 0.72598 0.61838 0.28579
 C973 C 0.73630 0.63418 0.28921
 C974 C 0.75352 0.63661 0.28099
 C975 C 0.72251 0.58763 0.26986
 C976 C 0.70436 0.58566 0.27194
 C977 C 0.69462 0.56853 0.26698
 C978 C 0.67816 0.56416 0.27584
 C979 C 0.66880 0.54796 0.27168
 C980 C 0.67568 0.53588 0.25846
 C981 C 0.69186 0.54055 0.24921
 C982 C 0.70119 0.55670 0.25335
 H983 H 0.77360 0.62400 0.26314
 H984 H 0.75565 0.59661 0.25720
 H985 H 0.71292 0.61693 0.29257
 H986 H 0.73067 0.64453 0.29816
 H987 H 0.73046 0.57631 0.26444
 H988 H 0.69624 0.59671 0.27761
 H989 H 0.67270 0.57314 0.28624
 H990 H 0.65640 0.54469 0.27908
 H991 H 0.69722 0.53176 0.23861
 H992 H 0.71337 0.55996 0.24562
 C993 C 0.22619 0.13985 0.79160
 C994 C 0.21485 0.12479 0.78827
 C995 C 0.21953 0.11176 0.77505
 C996 C 0.23603 0.11396 0.76539
 C997 C 0.24734 0.12902 0.76868
 C998 C 0.24258 0.14218 0.78182
 C999 C 0.20735 0.09572 0.77234
 C1000 C 0.20702 0.08583 0.75704
 C1001 C 0.19569 0.06912 0.75468
 C1002 C 0.20126 0.05606 0.74181
 C1003 C 0.19144 0.03978 0.73953
 C1004 C 0.17570 0.03629 0.74995
 C1005 C 0.16974 0.04963 0.76240
 C1006 C 0.17960 0.06590 0.76474
 H1007 H 0.22199 0.14967 0.80179
 H1008 H 0.20231 0.12335 0.79602
 H1009 H 0.24056 0.10389 0.75558
 H1010 H 0.25998 0.13011 0.76108
 H1011 H 0.19848 0.09202 0.78351
 H1012 H 0.21586 0.08959 0.74587
 H1013 H 0.21345 0.05830 0.73371
 H1014 H 0.19618 0.02990 0.72959
 H1015 H 0.15766 0.04730 0.77063
 H1016 H 0.17449 0.07587 0.77436
 C1017 C 0.23761 0.26616 0.13752
 C1018 C 0.24156 0.27737 0.12265
 C1019 C 0.22746 0.28455 0.11194
 C1020 C 0.20921 0.28070 0.11674
 C1021 C 0.20525 0.26952 0.13163
 C1022 C 0.21939 0.26199 0.14215
 C1023 C 0.23229 0.29621 0.09616
 C1024 C 0.22141 0.29819 0.08174
 C1025 C 0.22650 0.30910 0.06554
 C1026 C 0.21822 0.30483 0.04902
 C1027 C 0.22272 0.31458 0.03334
 C1028 C 0.23548 0.32897 0.03387
 C1029 C 0.24347 0.33357 0.05048
 C1030 C 0.23902 0.32376 0.06618
 H1031 H 0.24887 0.26086 0.14540
 H1032 H 0.25573 0.28029 0.11937
 H1033 H 0.19791 0.28644 0.10922
 H1034 H 0.19106 0.26672 0.13475
 H1035 H 0.24575 0.30236 0.09604
 H1036 H 0.20873 0.29058 0.08114
 H1037 H 0.20837 0.29376 0.04819
 H1038 H 0.21609 0.31093 0.02080
 H1039 H 0.25337 0.34458 0.05129
 H1040 H 0.24526 0.32785 0.07875
 C1041 C 0.73310 0.74327 0.62169
 C1042 C 0.73673 0.75346 0.60608
 C1043 C 0.72820 0.77051 0.60316
 C1044 C 0.71567 0.77707 0.61620
 C1045 C 0.71201 0.76683 0.63184
 C1046 C 0.72071 0.74982 0.63480
 C1047 C 0.73244 0.78051 0.58614
 C1048 C 0.72912 0.79847 0.58342
 C1049 C 0.73360 0.80801 0.56621
 C1050 C 0.72364 0.82381 0.56145
 C1051 C 0.72726 0.83300 0.54520
 C1052 C 0.74106 0.82665 0.53343
 C1053 C 0.75136 0.81114 0.53843
 C1054 C 0.74775 0.80195 0.55465
 H1055 H 0.73991 0.73016 0.62330
 H1056 H 0.74631 0.74797 0.59622
 H1057 H 0.70839 0.78988 0.61434
 H1058 H 0.70237 0.77234 0.64159
 H1059 H 0.73873 0.77253 0.57544
 H1060 H 0.72258 0.80658 0.59387
 H1061 H 0.71279 0.82887 0.57018
 H1062 H 0.71902 0.84486 0.54168
 H1063 H 0.76240 0.80621 0.52987
 H1064 H 0.75627 0.79032 0.55815
 C1065 C 0.79608 0.77312 0.36373
 C1066 C 0.79260 0.78453 0.37856
 C1067 C 0.77740 0.78150 0.38981
 C1068 C 0.76542 0.76702 0.38564
 C1069 C 0.76888 0.75562 0.37079
 C1070 C 0.78429 0.75845 0.35967
 C1071 C 0.77427 0.79399 0.40538
 C1072 C 0.76474 0.78913 0.42020
 C1073 C 0.76155 0.80134 0.43601
 C1074 C 0.74768 0.79658 0.44835
 C1075 C 0.74432 0.80733 0.46366
 C1076 C 0.75483 0.82308 0.46706
 C1077 C 0.76873 0.82788 0.45476
 C1078 C 0.77214 0.81711 0.43944
 H1079 H 0.80809 0.77583 0.35556
 H1080 H 0.80197 0.79568 0.38136
 H1081 H 0.75316 0.76460 0.39353
 H1082 H 0.75929 0.74470 0.36802
 H1083 H 0.78042 0.80746 0.40453
 H1084 H 0.75885 0.77552 0.42095
 H1085 H 0.73935 0.78451 0.44612
 H1086 H 0.73337 0.80337 0.47278
 H1087 H 0.77727 0.83975 0.45720
 H1088 H 0.78333 0.82104 0.43067
 C1089 C 0.29319 0.27415 -0.13303
 C1090 C 0.29043 0.28536 -0.11792
 C1091 C 0.27620 0.28174 -0.10564
 C1092 C 0.26498 0.26635 -0.10859
 C1093 C 0.26776 0.25511 -0.12367
 C1094 C 0.28188 0.25887 -0.13614
 C1095 C 0.27398 0.29384 -0.08963
 C1096 C 0.25814 0.29576 -0.08055
 C1097 C 0.25590 0.30725 -0.06412
 C1098 C 0.24123 0.30344 -0.05240
 C1099 C 0.23862 0.31364 -0.03661
 C1100 C 0.25057 0.32804 -0.03223
 C1101 C 0.26503 0.33219 -0.04415
 C1102 C 0.26768 0.32194 -0.05995
 H1103 H 0.30424 0.27755 -0.14221
 H1104 H 0.29940 0.29699 -0.11587
 H1105 H 0.25428 0.26263 -0.09913
 H1106 H 0.25889 0.24338 -0.12537
 H1107 H 0.28593 0.30139 -0.08538
 H1108 H 0.24621 0.28827 -0.08496
 H1109 H 0.23183 0.29237 -0.05536
 H1110 H 0.22716 0.31033 -0.02787
 H1111 H 0.27446 0.34321 -0.04112
 H1112 H 0.27881 0.32574 -0.06886
 C1113 C 0.71028 0.22187 -0.13206
 C1114 C 0.71315 0.21069 -0.11698
 C1115 C 0.72661 0.21507 -0.10428
 C1116 C 0.73710 0.23107 -0.10693
 C1117 C 0.73423 0.24228 -0.12203
 C1118 C 0.72074 0.23785 -0.13475
 C1119 C 0.72858 0.20307 -0.08819
 C1120 C 0.74364 0.20240 -0.07792
 C1121 C 0.74508 0.19088 -0.06144
 C1122 C 0.75733 0.19619 -0.04790
 C1123 C 0.75872 0.18608 -0.03190
 C1124 C 0.74801 0.17030 -0.02916
 C1125 C 0.73616 0.16462 -0.04294
 C1126 C 0.73473 0.17476 -0.05893
 H1127 H 0.69986 0.21788 -0.14158
 H1128 H 0.70480 0.19852 -0.11524
 H1129 H 0.74720 0.23533 -0.09720
 H1130 H 0.74237 0.25459 -0.12347
 H1131 H 0.71699 0.19450 -0.08477
 H1132 H 0.75523 0.21101 -0.08120
 H1133 H 0.76565 0.20838 -0.04959
 H1134 H 0.76824 0.19059 -0.02167
 H1135 H 0.72773 0.15251 -0.04121
 H1136 H 0.72561 0.16980 -0.06928
 C1137 C 0.20994 0.72721 0.36638
 C1138 C 0.21287 0.71599 0.38143
 C1139 C 0.22593 0.72070 0.39441
 C1140 C 0.23586 0.73710 0.39216
 C1141 C 0.23294 0.74833 0.37710
 C1142 C 0.21994 0.74353 0.36401
 C1143 C 0.22821 0.70855 0.41035
 C1144 C 0.24345 0.70799 0.42036
 C1145 C 0.24551 0.69621 0.43660
 C1146 C 0.25843 0.70123 0.44963
 C1147 C 0.26067 0.69073 0.46529
 C1148 C 0.25013 0.67486 0.46819
 C1149 C 0.23750 0.66956 0.45496
 C1150 C 0.23523 0.68007 0.43930
 H1151 H 0.19986 0.72296 0.35661
 H1152 H 0.20494 0.70350 0.38289
 H1153 H 0.24558 0.74162 0.40216
 H1154 H 0.24071 0.76092 0.37595
 H1155 H 0.21680 0.69975 0.41377
 H1156 H 0.25486 0.71679 0.41692
 H1157 H 0.26669 0.71344 0.44779
 H1158 H 0.27075 0.69497 0.47510
 H1159 H 0.22917 0.65741 0.45682
 H1160 H 0.22558 0.67535 0.42934
 C1161 C 0.29866 0.73253 0.63210
 C1162 C 0.29677 0.72212 0.61637
 C1163 C 0.27971 0.72053 0.60796
 C1164 C 0.26455 0.72981 0.61544
 C1165 C 0.26648 0.74041 0.63106
 C1166 C 0.28355 0.74188 0.63956
 C1167 C 0.27843 0.70995 0.59094
 C1168 C 0.26311 0.70149 0.58561
 C1169 C 0.26187 0.69137 0.56831
 C1170 C 0.24963 0.67661 0.56690
 C1171 C 0.24784 0.66709 0.55060
 C1172 C 0.25800 0.67241 0.53530
 C1173 C 0.27013 0.68727 0.53667
 C1174 C 0.27207 0.69666 0.55299
 H1175 H 0.31205 0.73357 0.63816
 H1176 H 0.30869 0.71526 0.61075
 H1177 H 0.25129 0.72930 0.60903
 H1178 H 0.25457 0.74742 0.63648
 H1179 H 0.29081 0.70852 0.58292
 H1180 H 0.25127 0.70130 0.59448
 H1181 H 0.24149 0.67241 0.57846
 H1182 H 0.23823 0.65580 0.54984
 H1183 H 0.27817 0.69162 0.52509
 H1184 H 0.28126 0.70830 0.55344
 C1185 C 0.79088 0.22245 0.14022
 C1186 C 0.78791 0.21117 0.12527
 C1187 C 0.77438 0.21555 0.11260
 C1188 C 0.76400 0.23170 0.11508
 C1189 C 0.76696 0.24299 0.13005
 C1190 C 0.78045 0.23852 0.14281
 C1191 C 0.77213 0.20337 0.09670
 C1192 C 0.75686 0.20269 0.08675
 C1193 C 0.75503 0.19105 0.07042
 C1194 C 0.74243 0.19632 0.05714
 C1195 C 0.74067 0.18612 0.04127
 C1196 C 0.75135 0.17028 0.03841
 C1197 C 0.76354 0.16463 0.05195
 C1198 C 0.76535 0.17487 0.06782
 H1199 H 0.80134 0.21847 0.14974
 H1200 H 0.79620 0.19889 0.12362
 H1201 H 0.75389 0.23599 0.10534
 H1202 H 0.75884 0.25537 0.13139
 H1203 H 0.78365 0.19469 0.09318
 H1204 H 0.74532 0.21138 0.09019
 H1205 H 0.73414 0.20858 0.05891
 H1206 H 0.73093 0.19063 0.03121
 H1207 H 0.77195 0.15249 0.05012
 H1208 H 0.77474 0.16996 0.07798
 C1209 C 0.48643 0.36721 0.49197
 C1210 C 0.48986 0.35187 0.50282
 C1211 C 0.48148 0.35006 0.51983
 C1212 C 0.46929 0.36388 0.52567
 C1213 C 0.46585 0.37923 0.51481
 C1214 C 0.47439 0.38113 0.49783
 C1215 C 0.48547 0.33335 0.53067
 C1216 C 0.48258 0.33204 0.54856
 C1217 C 0.48657 0.31516 0.55909
 C1218 C 0.47688 0.31201 0.57522
 C1219 C 0.48008 0.29615 0.58544
 C1220 C 0.49319 0.28317 0.57980
 C1221 C 0.50322 0.28654 0.56388
 C1222 C 0.50002 0.30237 0.55366
 H1223 H 0.49315 0.36801 0.47894
 H1224 H 0.49918 0.34136 0.49790
 H1225 H 0.46206 0.36283 0.53841
 H1226 H 0.45646 0.38958 0.51983
 H1227 H 0.49114 0.32171 0.52344
 H1228 H 0.47675 0.34351 0.55591
 H1229 H 0.46657 0.32172 0.57979
 H1230 H 0.47206 0.29389 0.59759
 H1231 H 0.51375 0.27703 0.55945
 H1232 H 0.50833 0.30465 0.54174
 C1233 C -0.04811 0.87638 0.00578
 C1234 C -0.04581 0.86086 0.01670
 C1235 C -0.02853 0.85266 0.01853
 C1236 C -0.01363 0.85996 0.00879
 C1237 C -0.01598 0.87535 -0.00231
 C1238 C -0.03322 0.88380 -0.00382
 C1239 C -0.02661 0.83620 0.03015
 C1240 C -0.01119 0.83221 0.03907
 C1241 C -0.00920 0.81574 0.05069
 C1242 C 0.00306 0.81626 0.06520
 C1243 C 0.00567 0.80079 0.07612
 C1244 C -0.00370 0.78438 0.07252
 C1245 C -0.01590 0.78381 0.05794
 C1246 C -0.01865 0.79933 0.04713
 H1247 H -0.06161 0.88242 0.00471
 H1248 H -0.05753 0.85534 0.02389
 H1249 H -0.00022 0.85365 0.00950
 H1250 H -0.00423 0.88074 -0.00953
 H1251 H -0.03861 0.82772 0.03214
 H1252 H 0.00016 0.84175 0.03856
 H1253 H 0.01063 0.82869 0.06808
 H1254 H 0.01533 0.80151 0.08713
 H1255 H -0.02331 0.77132 0.05490
 H1256 H -0.02784 0.79827 0.03577
 C1257 C 0.01677 0.62954 -0.00768
 C1258 C 0.01355 0.64523 0.00272
 C1259 C 0.02190 0.64741 0.01959
 C1260 C 0.03393 0.63361 0.02572
 C1261 C 0.03721 0.61789 0.01526
 C1262 C 0.02859 0.61563 -0.00153
 C1263 C 0.01789 0.66445 0.02994
 C1264 C 0.02101 0.66658 0.04768
 C1265 C 0.01652 0.68381 0.05748
 C1266 C 0.02663 0.68848 0.07286
 C1267 C 0.02308 0.70487 0.08213
 C1268 C 0.00919 0.71686 0.07627
 C1269 C -0.00134 0.71187 0.06125
 C1270 C 0.00222 0.69551 0.05200
 H1271 H 0.01007 0.62848 -0.02062
 H1272 H 0.00437 0.65570 -0.00244
 H1273 H 0.04107 0.63489 0.03839
 H1274 H 0.04642 0.60750 0.02043
 H1275 H 0.01185 0.67570 0.02244
 H1276 H 0.02738 0.65566 0.05535
 H1277 H 0.03758 0.67960 0.07749
 H1278 H 0.03149 0.70839 0.09361
 H1279 H -0.01245 0.72058 0.05671
 H1280 H -0.00643 0.69202 0.04071
 C1281 C 0.51078 0.12869 0.49628
 C1282 C 0.50688 0.14397 0.50707
 C1283 C 0.51603 0.14670 0.52345
 C1284 C 0.52942 0.13384 0.52874
 C1285 C 0.53334 0.11855 0.51792
 C1286 C 0.52408 0.11578 0.50155
 C1287 C 0.51166 0.16345 0.53411
 C1288 C 0.51546 0.16548 0.55172
 C1289 C 0.51130 0.18254 0.56194
 C1290 C 0.52174 0.18670 0.57725
 C1291 C 0.51860 0.20292 0.58694
 C1292 C 0.50483 0.21527 0.58157
 C1293 C 0.49398 0.21081 0.56660
 C1294 C 0.49711 0.19462 0.55692
 H1295 H 0.50348 0.12720 0.48371
 H1296 H 0.49663 0.15373 0.50257
 H1297 H 0.53721 0.13564 0.54096
 H1298 H 0.54367 0.10896 0.52246
 H1299 H 0.50497 0.17454 0.52693
 H1300 H 0.52231 0.15457 0.55899
 H1301 H 0.53262 0.17756 0.58151
 H1302 H 0.52723 0.20602 0.59837
 H1303 H 0.48296 0.21982 0.56244
 H1304 H 0.48823 0.19156 0.54570
 C1305 C -0.03293 0.10449 0.47365
 C1306 C -0.02965 0.11928 0.46197
 C1307 C -0.02135 0.13537 0.46832
 C1308 C -0.01574 0.13614 0.48645
 C1309 C -0.01884 0.12130 0.49808
 C1310 C -0.02765 0.10539 0.49188
 C1311 C -0.01850 0.15101 0.45577
 C1312 C -0.01916 0.16854 0.46135
 C1313 C -0.01676 0.18456 0.44919
 C1314 C -0.02460 0.20140 0.45430
 C1315 C -0.02195 0.21714 0.44380
 C1316 C -0.01108 0.21650 0.42806
 C1317 C -0.00337 0.19957 0.42280
 C1318 C -0.00616 0.18374 0.43326
 H1319 H -0.03950 0.09234 0.46837
 H1320 H -0.03389 0.11828 0.44801
 H1321 H -0.00880 0.14813 0.49166
 H1322 H -0.01459 0.12246 0.51201
 H1323 H -0.01702 0.14799 0.44151
 H1324 H -0.02253 0.17141 0.47534
 H1325 H -0.03281 0.20241 0.46650
 H1326 H -0.02841 0.22985 0.44805
 H1327 H 0.00529 0.19867 0.41091
 H1328 H 0.00048 0.17109 0.42916
 C1329 C 0.48812 0.62914 1.00418
 C1330 C 0.49214 0.64464 0.99372
 C1331 C 0.48291 0.64801 0.97747
 C1332 C 0.46930 0.63557 0.97201
 C1333 C 0.46526 0.62006 0.98249
 C1334 C 0.47461 0.61663 0.99872
 C1335 C 0.48752 0.66493 0.96715
 C1336 C 0.48335 0.66772 0.94971
 C1337 C 0.48799 0.68488 0.93983
 C1338 C 0.47741 0.69001 0.92486
 C1339 C 0.48110 0.70630 0.91544
 C1340 C 0.49556 0.71775 0.92075
 C1341 C 0.50649 0.71233 0.93538
 C1342 C 0.50282 0.69607 0.94478
 H1343 H 0.49551 0.62716 1.01664
 H1344 H 0.50257 0.65405 0.99836
 H1345 H 0.46145 0.63782 0.95988
 H1346 H 0.45476 0.61080 0.97780
 H1347 H 0.49477 0.67551 0.97444
 H1348 H 0.47589 0.65738 0.94232
 H1349 H 0.46603 0.68156 0.92064
 H1350 H 0.47238 0.71014 0.90427
 H1351 H 0.51803 0.72061 0.93948
 H1352 H 0.51180 0.69224 0.95572
 C1353 C 0.51759 0.87078 1.00900
 C1354 C 0.51483 0.85491 0.99880
 C1355 C 0.52417 0.85224 0.98240
 C1356 C 0.53680 0.86564 0.97663
 C1357 C 0.53961 0.88152 0.98689
 C1358 C 0.52994 0.88434 1.00314
 C1359 C 0.52051 0.83519 0.97206
 C1360 C 0.52373 0.83333 0.95428
 C1361 C 0.51926 0.81641 0.94405
 C1362 C 0.52874 0.81275 0.92789
 C1363 C 0.52478 0.79708 0.91772
 C1364 C 0.51111 0.78479 0.92345
 C1365 C 0.50142 0.78858 0.93947
 C1366 C 0.50538 0.80424 0.94963
 H1367 H 0.51009 0.87228 1.02157
 H1368 H 0.50518 0.84473 1.00367
 H1369 H 0.54473 0.86390 0.96437
 H1370 H 0.54928 0.89163 0.98197
 H1371 H 0.51447 0.82390 0.97951
 H1372 H 0.52992 0.84447 0.94676
 H1373 H 0.53938 0.82198 0.92320
 H1374 H 0.53256 0.79447 0.90549
 H1375 H 0.49050 0.77962 0.94399
 H1376 H 0.49722 0.80690 0.96158
 C1377 C 0.04334 0.38719 0.47847
 C1378 C 0.04032 0.37200 0.46733
 C1379 C 0.02632 0.35945 0.47128
 C1380 C 0.01556 0.36225 0.48688
 C1381 C 0.01859 0.37741 0.49803
 C1382 C 0.03252 0.39011 0.49400
 C1383 C 0.02391 0.34327 0.45934
 C1384 C 0.00820 0.33385 0.45819
 C1385 C 0.00596 0.31703 0.44712
 C1386 C -0.00795 0.30466 0.45190
 C1387 C -0.01042 0.28842 0.44219
 C1388 C 0.00088 0.28426 0.42731
 C1389 C 0.01451 0.29685 0.42218
 C1390 C 0.01704 0.31308 0.43197
 H1391 H 0.05425 0.39654 0.47487
 H1392 H 0.04895 0.37007 0.45551
 H1393 H 0.00506 0.35259 0.49085
 H1394 H 0.01003 0.37899 0.50989
 H1395 H 0.03563 0.33907 0.45134
 H1396 H -0.00352 0.33815 0.46613
 H1397 H -0.01682 0.30745 0.46336
 H1398 H -0.02125 0.27914 0.44626
 H1399 H 0.02341 0.29399 0.41076
 H1400 H 0.02754 0.32251 0.42747
 C1401 C 0.37803 0.49249 0.48092
 C1402 C 0.36231 0.50273 0.48481
 C1403 C 0.35919 0.51972 0.47638
 C1404 C 0.37208 0.52617 0.46366
 C1405 C 0.38781 0.51588 0.45971
 C1406 C 0.39099 0.49893 0.46833
 C1407 C 0.34209 0.52979 0.48086
 C1408 C 0.33962 0.54789 0.47822
 C1409 C 0.32236 0.55758 0.48296
 C1410 C 0.31790 0.57389 0.47381
 C1411 C 0.30160 0.58325 0.47770
 C1412 C 0.28949 0.57653 0.49095
 C1413 C 0.29418 0.56049 0.50045
 C1414 C 0.31046 0.55115 0.49659
 H1415 H 0.37981 0.47941 0.48766
 H1416 H 0.35255 0.49734 0.49452
 H1417 H 0.36998 0.53893 0.45644
 H1418 H 0.39746 0.52126 0.44993
 H1419 H 0.33116 0.52177 0.48682
 H1420 H 0.35038 0.55601 0.47208
 H1421 H 0.32691 0.57924 0.46338
 H1422 H 0.29831 0.59554 0.47009
 H1423 H 0.28533 0.55525 0.51106
 H1424 H 0.31374 0.53911 0.50453
 C1425 C 0.88700 0.02141 -0.04711
 C1426 C 0.87164 0.03254 -0.04404
 C1427 C 0.85902 0.02817 -0.03035
 C1428 C 0.86180 0.01211 -0.02009
 C1429 C 0.87711 0.00099 -0.02316
 C1430 C 0.88997 0.00552 -0.03665
 C1431 C 0.84282 0.04021 -0.02758
 C1432 C 0.83381 0.04133 -0.01176
 C1433 C 0.81697 0.05238 -0.00887
 C1434 C 0.80535 0.04751 0.00550
 C1435 C 0.78916 0.05721 0.00872
 C1436 C 0.78429 0.07218 -0.00228
 C1437 C 0.79610 0.07739 -0.01643
 C1438 C 0.81229 0.06759 -0.01972
 H1439 H 0.89644 0.02530 -0.05774
 H1440 H 0.86968 0.04469 -0.05230
 H1441 H 0.85205 0.00781 -0.00989
 H1442 H 0.87876 -0.01114 -0.01488
 H1443 H 0.83835 0.04832 -0.03900
 H1444 H 0.83855 0.03334 -0.00036
 H1445 H 0.80871 0.03599 0.01419
 H1446 H 0.78050 0.05309 0.01993
 H1447 H 0.79268 0.08889 -0.02510
 H1448 H 0.82112 0.07215 -0.03060
 C1449 C 0.60607 0.02599 0.03667
 C1450 C 0.62102 0.03746 0.03330
 C1451 C 0.63696 0.03050 0.02514
 C1452 C 0.63744 0.01193 0.01983
 C1453 C 0.62243 0.00049 0.02304
 C1454 C 0.60664 0.00735 0.03165
 C1455 C 0.65264 0.04298 0.02203
 C1456 C 0.67004 0.03708 0.02212
 C1457 C 0.68597 0.04932 0.01933
 C1458 C 0.70294 0.04392 0.02635
 C1459 C 0.71851 0.05461 0.02341
 C1460 C 0.71753 0.07085 0.01311
 C1461 C 0.70050 0.07634 0.00617
 C1462 C 0.68487 0.06569 0.00922
 H1463 H 0.59403 0.03179 0.04308
 H1464 H 0.62024 0.05177 0.03731
 H1465 H 0.64931 0.00624 0.01300
 H1466 H 0.62333 -0.01378 0.01899
 H1467 H 0.64975 0.05754 0.02077
 H1468 H 0.67288 0.02279 0.02523
 H1469 H 0.70416 0.03137 0.03416
 H1470 H 0.73135 0.05013 0.02918
 H1471 H 0.69936 0.08859 -0.00209
 H1472 H 0.67214 0.07002 0.00315
 C1473 C 0.11563 0.52490 0.53902
 C1474 C 0.13054 0.53639 0.53562
 C1475 C 0.14296 0.53242 0.52163
 C1476 C 0.13982 0.51692 0.51071
 C1477 C 0.12489 0.50542 0.51410
 C1478 C 0.11267 0.50917 0.52839
 C1479 C 0.15873 0.54493 0.51877
 C1480 C 0.17427 0.53984 0.51040
 C1481 C 0.19030 0.55208 0.50796
 C1482 C 0.20303 0.54785 0.49432
 C1483 C 0.21868 0.55856 0.49188
 C1484 C 0.22206 0.57369 0.50315
 C1485 C 0.20931 0.57799 0.51681
 C1486 C 0.19363 0.56728 0.51926
 H1487 H 0.10645 0.52845 0.54999
 H1488 H 0.13250 0.54834 0.54411
 H1489 H 0.14864 0.51369 0.49937
 H1490 H 0.12305 0.49355 0.50552
 H1491 H 0.15748 0.55867 0.52423
 H1492 H 0.17552 0.52609 0.50497
 H1493 H 0.20085 0.53621 0.48548
 H1494 H 0.22812 0.55503 0.48108
 H1495 H 0.21172 0.58937 0.52591
 H1496 H 0.18451 0.57069 0.53032
 C1497 C 0.11171 0.47835 -0.04221
 C1498 C 0.12665 0.46693 -0.03856
 C1499 C 0.13913 0.47144 -0.02496
 C1500 C 0.13611 0.48750 -0.01476
 C1501 C 0.12115 0.49893 -0.01841
 C1502 C 0.10878 0.49456 -0.03223
 C1503 C 0.15476 0.45880 -0.02163
 C1504 C 0.17031 0.46396 -0.01354
 C1505 C 0.18609 0.45146 -0.01048
 C1506 C 0.19888 0.45620 0.00277
 C1507 C 0.21425 0.44518 0.00584
 C1508 C 0.21726 0.42918 -0.00439
 C1509 C 0.20449 0.42440 -0.01769
 C1510 C 0.18911 0.43543 -0.02078
 H1511 H 0.10249 0.47434 -0.05285
 H1512 H 0.12854 0.45456 -0.04651
 H1513 H 0.14500 0.49120 -0.00373
 H1514 H 0.11936 0.51117 -0.01030
 H1515 H 0.15333 0.44484 -0.02641
 H1516 H 0.17173 0.47793 -0.00879
 H1517 H 0.19695 0.46849 0.01085
 H1518 H 0.22372 0.44912 0.01633
 H1519 H 0.20663 0.41235 -0.02603
 H1520 H 0.17999 0.43155 -0.03155
 C1521 C 0.62538 1.00788 0.48168
 C1522 C 0.64107 0.99756 0.48539
 C1523 C 0.64407 0.98051 0.47702
 C1524 C 0.63109 0.97409 0.46456
 C1525 C 0.61539 0.98443 0.46083
 C1526 C 0.61232 1.00145 0.46936
 C1527 C 0.66116 0.97032 0.48123
 C1528 C 0.66348 0.95220 0.47848
 C1529 C 0.68073 0.94230 0.48267
 C1530 C 0.68468 0.92586 0.47348
 C1531 C 0.70088 0.91621 0.47686
 C1532 C 0.71345 0.92275 0.48961
 C1533 C 0.70929 0.93895 0.49914
 C1534 C 0.69310 0.94859 0.49578
 H1535 H 0.62367 1.02099 0.48837
 H1536 H 0.65091 1.00293 0.49490
 H1537 H 0.63307 0.96131 0.45737
 H1538 H 0.60569 0.97901 0.45125
 H1539 H 0.67218 0.97825 0.48697
 H1540 H 0.65258 0.94420 0.47263
 H1541 H 0.67532 0.92062 0.46344
 H1542 H 0.70374 0.90382 0.46923
 H1543 H 0.71849 0.94406 0.50938
 H1544 H 0.69026 0.96075 0.50372
 C1545 C 0.88639 0.97281 0.53861
 C1546 C 0.87158 0.96130 0.53499
 C1547 C 0.85991 0.96494 0.52044
 C1548 C 0.86372 0.98009 0.50918
 C1549 C 0.87856 0.99159 0.51278
 C1550 C 0.89002 0.98819 0.52763
 C1551 C 0.84420 0.95245 0.51734
 C1552 C 0.82906 0.95748 0.50839
 C1553 C 0.81299 0.94535 0.50570
 C1554 C 0.80051 0.94992 0.49205
 C1555 C 0.78478 0.93943 0.48941
 C1556 C 0.78107 0.92415 0.50046
 C1557 C 0.79357 0.91947 0.51407
 C1558 C 0.80932 0.92998 0.51674
 H1559 H 0.89496 0.96953 0.55003
 H1560 H 0.86910 0.94961 0.54375
 H1561 H 0.85550 0.98304 0.49743
 H1562 H 0.88092 1.00317 0.50390
 H1563 H 0.84513 0.93883 0.52315
 H1564 H 0.82817 0.97116 0.50269
 H1565 H 0.80294 0.96170 0.48339
 H1566 H 0.77552 0.94327 0.47866
 H1567 H 0.79090 0.90796 0.52300
 H1568 H 0.81820 0.92626 0.52779
 C1569 C 0.37398 0.50785 0.01467
 C1570 C 0.35834 0.49765 0.01068
 C1571 C 0.35511 0.48064 0.01906
 C1572 C 0.36785 0.47411 0.03176
 C1573 C 0.38350 0.48432 0.03576
 C1574 C 0.38676 0.50133 0.02728
 C1575 C 0.33802 0.47066 0.01463
 C1576 C 0.33530 0.45268 0.01783
 C1577 C 0.31792 0.44315 0.01362
 C1578 C 0.31325 0.42728 0.02343
 C1579 C 0.29678 0.41816 0.02018
 C1580 C 0.28467 0.42465 0.00692
 C1581 C 0.28961 0.44019 -0.00329
 C1582 C 0.30606 0.44930 -0.00005
 H1583 H 0.37584 0.52094 0.00797
 H1584 H 0.34870 0.50312 0.00097
 H1585 H 0.36572 0.46135 0.03896
 H1586 H 0.39298 0.47881 0.04555
 H1587 H 0.32725 0.47867 0.00843
 H1588 H 0.34588 0.44457 0.02420
 H1589 H 0.32221 0.42214 0.03390
 H1590 H 0.29332 0.40627 0.02833
 H1591 H 0.28079 0.44522 -0.01392
 H1592 H 0.30949 0.46099 -0.00846
 C1593 C 0.51316 0.44847 0.37095
 C1594 C 0.52341 0.45135 0.35521
 C1595 C 0.52500 0.46901 0.34774
 C1596 C 0.51572 0.48374 0.35609
 C1597 C 0.50528 0.48082 0.37173
 C1598 C 0.50398 0.46317 0.37939
 C1599 C 0.53588 0.47142 0.33098
 C1600 C 0.54456 0.48709 0.32678
 C1601 C 0.55576 0.48926 0.31017
 C1602 C 0.57047 0.50161 0.31023
 C1603 C 0.58126 0.50407 0.29475
 C1604 C 0.57734 0.49443 0.27880
 C1605 C 0.56245 0.48226 0.27866
 C1606 C 0.55177 0.47968 0.29417
 H1607 H 0.51223 0.43466 0.37634
 H1608 H 0.53026 0.43976 0.34892
 H1609 H 0.51623 0.49745 0.35041
 H1610 H 0.49837 0.49243 0.37790
 H1611 H 0.53765 0.45949 0.32239
 H1612 H 0.54436 0.49842 0.33627
 H1613 H 0.57370 0.50929 0.32233
 H1614 H 0.59250 0.51373 0.29515
 H1615 H 0.55914 0.47464 0.26655
 H1616 H 0.54022 0.47044 0.29348
 C1617 C 0.01398 -0.00909 0.88122
 C1618 C 0.02534 -0.00530 0.86643
 C1619 C 0.03348 -0.01964 0.85657
 C1620 C 0.03045 -0.03790 0.86210
 C1621 C 0.01921 -0.04169 0.87699
 C1622 C 0.01074 -0.02733 0.88664
 C1623 C 0.04532 -0.01501 0.84090
 C1624 C 0.04763 -0.02620 0.82667
 C1625 C 0.05865 -0.02105 0.81059
 C1626 C 0.05398 -0.02839 0.79372
 C1627 C 0.06378 -0.02349 0.77818
 C1628 C 0.07867 -0.01138 0.77925
 C1629 C 0.08369 -0.00443 0.79622
 C1630 C 0.07378 -0.00919 0.81174
 H1631 H 0.00789 0.00231 0.88850
 H1632 H 0.02761 0.00889 0.86256
 H1633 H 0.03693 -0.04929 0.85512
 H1634 H 0.01703 -0.05589 0.88079
 H1635 H 0.05128 -0.00139 0.84060
 H1636 H 0.04016 -0.03902 0.82611
 H1637 H 0.04252 -0.03772 0.79252
 H1638 H 0.05978 -0.02925 0.76531
 H1639 H 0.09510 0.00495 0.79743
 H1640 H 0.07811 -0.00370 0.82460
 C1641 C -0.00754 0.01922 0.62996
 C1642 C 0.00275 0.01615 0.64551
 C1643 C 0.01966 0.02487 0.64793
 C1644 C 0.02585 0.03720 0.63454
 C1645 C 0.01552 0.04030 0.61896
 C1646 C -0.00123 0.03122 0.61640
 C1647 C 0.03006 0.02071 0.66463
 C1648 C 0.04787 0.02444 0.66698
 C1649 C 0.05794 0.01929 0.68359
 C1650 C 0.07338 0.02951 0.68853
 C1651 C 0.08330 0.02493 0.70402
 C1652 C 0.07807 0.00989 0.71481
 C1653 C 0.06282 -0.00055 0.70966
 C1654 C 0.05290 0.00403 0.69422
 H1655 H -0.02048 0.01219 0.62868
 H1656 H -0.00248 0.00673 0.65565
 H1657 H 0.03852 0.04465 0.63599
 H1658 H 0.02081 0.04969 0.60887
 H1659 H 0.02260 0.01387 0.67538
 H1660 H 0.05551 0.03162 0.65661
 H1661 H 0.07766 0.04121 0.68049
 H1662 H 0.09491 0.03332 0.70768
 H1663 H 0.05872 -0.01251 0.71742
 H1664 H 0.04156 -0.00467 0.69048
 C1665 C 0.49721 0.51465 0.12546
 C1666 C 0.50762 0.51033 0.14066
 C1667 C 0.52460 0.51873 0.14355
 C1668 C 0.53088 0.53180 0.13092
 C1669 C 0.52045 0.53614 0.11570
 C1670 C 0.50347 0.52763 0.11277
 C1671 C 0.53482 0.51393 0.16020
 C1672 C 0.55276 0.51702 0.16253
 C1673 C 0.56252 0.51249 0.17951
 C1674 C 0.57835 0.52239 0.18386
 C1675 C 0.58763 0.51895 0.19999
 C1676 C 0.58135 0.50540 0.21206
 C1677 C 0.56586 0.49506 0.20742
 C1678 C 0.55657 0.49851 0.19131
 H1679 H 0.48415 0.50792 0.12385
 H1680 H 0.50234 0.50036 0.15024
 H1681 H 0.54362 0.53903 0.13281
 H1682 H 0.52575 0.54621 0.10628
 H1683 H 0.52702 0.50755 0.17097
 H1684 H 0.56066 0.52357 0.15195
 H1685 H 0.58332 0.53311 0.17493
 H1686 H 0.59945 0.52724 0.20323
 H1687 H 0.56096 0.48422 0.21623
 H1688 H 0.54491 0.49003 0.18812
 C1689 C 0.46864 -0.03243 0.11130
 C1690 C 0.45695 -0.02875 0.12589
 C1691 C 0.46302 -0.01827 0.14056
 C1692 C 0.48081 -0.01098 0.14012
 C1693 C 0.49241 -0.01446 0.12544
 C1694 C 0.48651 -0.02536 0.11095
 C1695 C 0.45043 -0.01486 0.15594
 C1696 C 0.45638 -0.01317 0.17294
 C1697 C 0.44401 -0.01010 0.18855
 C1698 C 0.44936 -0.01648 0.20561
 C1699 C 0.43833 -0.01339 0.22078
 C1700 C 0.42183 -0.00351 0.21930
 C1701 C 0.41650 0.00294 0.20219
 C1702 C 0.42745 -0.00034 0.18696
 H1703 H 0.46360 -0.04067 0.10023
 H1704 H 0.44322 -0.03433 0.12585
 H1705 H 0.48574 -0.00241 0.15099
 H1706 H 0.50610 -0.00882 0.12559
 H1707 H 0.43588 -0.01489 0.15328
 H1708 H 0.47078 -0.01510 0.17576
 H1709 H 0.46207 -0.02400 0.20717
 H1710 H 0.44272 -0.01884 0.23368
 H1711 H 0.40407 0.01091 0.20062
 H1712 H 0.42318 0.00523 0.17408
 C1713 C 1.00764 0.47879 0.62930
 C1714 C 0.99733 0.48149 0.64502
 C1715 C 0.98027 0.47298 0.64727
 C1716 C 0.97388 0.46129 0.63355
 C1717 C 0.98424 0.45854 0.61781
 C1718 C 1.00120 0.46734 0.61546
 C1719 C 0.96998 0.47641 0.66428
 C1720 C 0.95190 0.47381 0.66627
 C1721 C 0.94196 0.47786 0.68335
 C1722 C 0.92566 0.46843 0.68719
 C1723 C 0.91602 0.47178 0.70324
 C1724 C 0.92243 0.48477 0.71572
 C1725 C 0.93848 0.49455 0.71165
 C1726 C 0.94810 0.49122 0.69563
 H1727 H 1.02073 0.48559 0.62815
 H1728 H 1.00268 0.49040 0.65545
 H1729 H 0.96108 0.45401 0.63492
 H1730 H 0.97886 0.44960 0.60746
 H1731 H 0.97777 0.48165 0.67553
 H1732 H 0.94398 0.46833 0.65524
 H1733 H 0.92053 0.45822 0.67786
 H1734 H 0.90372 0.46398 0.70604
 H1735 H 0.94348 0.50500 0.72078
 H1736 H 0.96013 0.49938 0.69283
 C1737 C 0.97561 0.54026 0.88278
 C1738 C 0.96384 0.53632 0.86850
 C1739 C 0.96591 0.52008 0.85848
 C1740 C 0.97976 0.50757 0.86336
 C1741 C 0.99152 0.51150 0.87766
 C1742 C 0.98967 0.52794 0.88752
 C1743 C 0.95316 0.51660 0.84335
 C1744 C 0.95741 0.50591 0.82915
 C1745 C 0.94518 0.50275 0.81350
 C1746 C 0.94946 0.48830 0.80162
 C1747 C 0.93892 0.48517 0.78625
 C1748 C 0.92383 0.49648 0.78236
 C1749 C 0.91939 0.51084 0.79429
 C1750 C 0.92997 0.51403 0.80964
 H1751 H 0.97366 0.55305 0.88997
 H1752 H 0.95320 0.54612 0.86512
 H1753 H 0.98140 0.49459 0.85642
 H1754 H 1.00195 0.50151 0.88101
 H1755 H 0.94012 0.52362 0.84390
 H1756 H 0.97063 0.49917 0.82870
 H1757 H 0.96108 0.47941 0.80419
 H1758 H 0.94257 0.47388 0.77740
 H1759 H 0.90803 0.51998 0.79145
 H1760 H 0.92638 0.52565 0.81803
 C1761 C 0.50123 0.01827 0.37212
 C1762 C 0.49085 0.01465 0.35676
 C1763 C 0.47387 0.02328 0.35416
 C1764 C 0.46756 0.03585 0.36725
 C1765 C 0.47797 0.03949 0.38263
 C1766 C 0.49495 0.03076 0.38526
 C1767 C 0.46367 0.01912 0.33736
 C1768 C 0.44580 0.02263 0.33493
 C1769 C 0.43613 0.01825 0.31790
 C1770 C 0.42051 0.02845 0.31324
 C1771 C 0.41130 0.02496 0.29708
 C1772 C 0.41749 0.01109 0.28532
 C1773 C 0.43277 0.00050 0.29027
 C1774 C 0.44195 0.00396 0.30639
 H1775 H 0.51429 0.01139 0.37349
 H1776 H 0.49613 0.00501 0.34685
 H1777 H 0.45481 0.04321 0.36563
 H1778 H 0.47265 0.04919 0.39242
 H1779 H 0.47144 0.01276 0.32655
 H1780 H 0.43789 0.02927 0.34546
 H1781 H 0.41562 0.03939 0.32196
 H1782 H 0.39958 0.03336 0.29361
 H1783 H 0.43755 -0.01062 0.28172
 H1784 H 0.45340 -0.00478 0.30985
   
