data_POSCAR
  _audit_creation_date              2014-09-24
  _audit_creation_method            'ToBaCCo'
  _symmetry_space_group_name_H-M    'P1'
  _symmetry_Int_Tables_number       1
  _symmetry_cell_setting            triclinic
  loop_
  _symmetry_equiv_pos_as_xyz
 x,y,z
_cell_length_a 54.3324
_cell_length_b 54.5792
_cell_length_c 54.5123
_cell_angle_alpha 89.985000
_cell_angle_beta 89.970500
_cell_angle_gamma 90.017400
loop_
  _atom_site_label
  _atom_site_type_symbol
  _atom_site_fract_x
  _atom_site_fract_y
  _atom_site_fract_z
C1 C 0.26231 1.06692 0.00105
 C2 C 0.26419 1.05333 0.02287
 C3 C 0.26235 1.02773 0.02125
 C4 C 0.25631 1.01586 -0.00093
 C5 C 0.25423 1.03023 -0.02242
 C6 C 0.25846 1.05577 -0.02193
 C7 C 0.25255 0.98854 -0.00122
 C8 C 0.25552 0.97457 -0.02284
 C9 C 0.25211 0.94902 -0.02267
 C10 C 0.24745 0.93714 -0.00029
 C11 C 0.24454 0.95047 0.02146
 C12 C 0.24604 0.97608 0.02057
 H13 H 0.26170 1.08667 0.00212
 H14 H 0.26647 1.01695 0.03733
 H15 H 0.25011 1.02145 -0.03963
 H16 H 0.26030 0.98332 -0.03995
 H17 H 0.24659 0.91732 0.00023
 H18 H 0.24188 0.98614 0.03713
 C19 C 0.76878 0.57180 0.50493
 C20 C 0.76327 0.55991 0.52699
 C21 C 0.75908 0.53452 0.52687
 C22 C 0.76199 0.52068 0.50512
 C23 C 0.76858 0.53317 0.48338
 C24 C 0.77133 0.55869 0.48307
 C25 C 0.75851 0.49339 0.50500
 C26 C 0.75249 0.48091 0.48312
 C27 C 0.75099 0.45524 0.48235
 C28 C 0.75366 0.44200 0.50424
 C29 C 0.75861 0.45394 0.52648
 C30 C 0.76169 0.47947 0.52658
 H31 H 0.77043 0.59159 0.50468
 H32 H 0.75374 0.52578 0.54385
 H33 H 0.77199 0.52328 0.46654
 H34 H 0.74876 0.49099 0.46647
 H35 H 0.75206 0.42224 0.50396
 H36 H 0.76718 0.48819 0.54351
 C37 C 0.73964 1.00598 1.07269
 C38 C 0.73755 0.98327 1.06073
 C39 C 0.74085 0.98268 1.03508
 C40 C 0.74702 1.00402 1.02165
 C41 C 0.74975 1.02634 1.03474
 C42 C 0.74487 1.02787 1.06012
 C43 C 0.74981 1.00315 0.99404
 C44 C 0.74726 1.02468 0.97973
 C45 C 0.75057 1.02432 0.95418
 C46 C 0.75481 1.00188 0.94251
 C47 C 0.75699 0.98009 0.95588
 C48 C 0.75494 0.98087 0.98160
 H49 H 0.73935 1.00633 1.09251
 H50 H 0.73737 0.96570 1.02556
 H51 H 0.75487 1.04278 1.02510
 H52 H 0.74282 1.04199 0.98816
 H53 H 0.75595 1.00130 0.92267
 H54 H 0.75788 0.96406 0.99163
 C55 C 0.25289 0.49658 0.56304
 C56 C 0.24907 0.47519 0.54941
 C57 C 0.25120 0.47607 0.52376
 C58 C 0.25760 0.49811 0.51168
 C59 C 0.26153 0.51932 0.52602
 C60 C 0.25841 0.51885 0.55155
 C61 C 0.25957 0.49923 0.48427
 C62 C 0.25510 0.52135 0.47162
 C63 C 0.25750 0.52283 0.44604
 C64 C 0.26326 0.50159 0.43278
 C65 C 0.26709 0.47914 0.44475
 C66 C 0.26576 0.47824 0.47047
 H67 H 0.25175 0.49584 0.58287
 H68 H 0.24716 0.45967 0.51337
 H69 H 0.26665 0.53642 0.51743
 H70 H 0.24917 0.53752 0.48142
 H71 H 0.26461 0.50250 0.41298
 H72 H 0.26996 0.46115 0.47960
 C73 C 1.06723 0.25517 -0.00445
 C74 C 1.05566 0.25397 0.01866
 C75 C 1.02995 0.25772 0.01956
 C76 C 1.01616 0.26363 -0.00170
 C77 C 1.02875 0.26500 -0.02436
 C78 C 1.05402 0.25996 -0.02597
 C79 C 0.98878 0.26811 -0.00017
 C80 C 0.97333 0.26523 -0.02098
 C81 C 0.94783 0.27047 -0.01994
 C82 C 0.93779 0.27670 0.00302
 C83 C 0.95242 0.27925 0.02392
 C84 C 0.97784 0.27554 0.02215
 H85 H 1.08702 0.25365 -0.00590
 H86 H 1.02052 0.25481 0.03674
 H87 H 1.01912 0.26980 -0.04098
 H88 H 0.98125 0.25953 -0.03814
 H89 H 0.91807 0.27824 0.00529
 H90 H 0.98885 0.27880 0.03833
 C91 C 0.56039 0.75081 0.50070
 C92 C 0.54740 0.75425 0.52270
 C93 C 0.52160 0.75483 0.52205
 C94 C 0.50848 0.75010 0.50024
 C95 C 0.52200 0.74608 0.47854
 C96 C 0.54786 0.74712 0.47843
 C97 C 0.48087 0.74928 0.50032
 C98 C 0.46714 0.75478 0.47899
 C99 C 0.44128 0.75439 0.47932
 C100 C 0.42906 0.74914 0.50137
 C101 C 0.44217 0.74434 0.52295
 C102 C 0.46794 0.74354 0.52206
 H103 H 0.58031 0.75100 0.50091
 H104 H 0.51190 0.75934 0.53876
 H105 H 0.51258 0.74167 0.46164
 H106 H 0.47634 0.76009 0.46222
 H107 H 0.40913 0.74862 0.50172
 H108 H 0.47778 0.73892 0.53864
 C109 C -0.00850 0.75690 -0.06671
 C110 C 0.01414 0.76278 -0.05573
 C111 C 0.01504 0.76740 -0.03044
 C112 C -0.00606 0.76469 -0.01575
 C113 C -0.02827 0.75783 -0.02709
 C114 C -0.03022 0.75505 -0.05266
 C115 C -0.00520 0.76830 0.01143
 C116 C -0.02673 0.77477 0.02430
 C117 C -0.02755 0.77506 0.05009
 C118 C -0.00528 0.77145 0.06283
 C119 C 0.01686 0.76688 0.05039
 C120 C 0.01661 0.76453 0.02479
 H121 H -0.00905 0.75448 -0.08637
 H122 H 0.03226 0.77332 -0.02246
 H123 H -0.04402 0.75351 -0.01578
 H124 H -0.04290 0.78006 0.01408
 H125 H -0.00505 0.77059 0.08264
 H126 H 0.03347 0.75971 0.01546
 C127 C 0.50231 0.24343 0.43366
 C128 C 0.52453 0.24686 0.44621
 C129 C 0.52514 0.24356 0.47179
 C130 C 0.50400 0.23574 0.48477
 C131 C 0.48225 0.23132 0.47128
 C132 C 0.48103 0.23592 0.44603
 C133 C 0.50434 0.23226 0.51215
 C134 C 0.48220 0.23297 0.52582
 C135 C 0.48199 0.22832 0.55111
 C136 C 0.50435 0.22477 0.56329
 C137 C 0.52669 0.22465 0.55049
 C138 C 0.52657 0.22793 0.52492
 H139 H 0.50160 0.24653 0.41405
 H140 H 0.54210 0.24760 0.48133
 H141 H 0.46608 0.22389 0.48008
 H142 H 0.46486 0.23684 0.51700
 H143 H 0.50438 0.22259 0.58305
 H144 H 0.54387 0.22656 0.51523
 C145 C 1.06133 0.00379 0.24362
 C146 C 1.04819 0.02569 0.24763
 C147 C 1.02237 0.02486 0.24543
 C148 C 1.00994 0.00359 0.23750
 C149 C 1.02377 -0.01785 0.23331
 C150 C 1.04938 -0.01791 0.23665
 C151 C 0.98272 0.00439 0.23304
 C152 C 0.96779 -0.01670 0.23555
 C153 C 0.94214 -0.01578 0.23101
 C154 C 0.93167 0.00720 0.22546
 C155 C 0.94605 0.02830 0.22305
 C156 C 0.97150 0.02662 0.22611
 H157 H 1.08118 0.00349 0.24488
 H158 H 1.01172 0.04072 0.25068
 H159 H 1.01497 -0.03436 0.22671
 H160 H 0.97634 -0.03385 0.24043
 H161 H 0.91190 0.00928 0.22444
 H162 H 0.98244 0.04288 0.22294
 C163 C 0.56545 0.49685 0.73923
 C164 C 0.55096 0.51780 0.73587
 C165 C 0.52538 0.51523 0.73382
 C166 C 0.51389 0.49222 0.73690
 C167 C 0.52891 0.47143 0.74071
 C168 C 0.55472 0.47356 0.74160
 C169 C 0.48633 0.49035 0.73700
 C170 C 0.47419 0.46861 0.72974
 C171 C 0.44834 0.46729 0.72960
 C172 C 0.43457 0.48792 0.73636
 C173 C 0.44610 0.50962 0.74373
 C174 C 0.47187 0.51054 0.74445
 H175 H 0.58529 0.49876 0.73983
 H176 H 0.51451 0.53147 0.73046
 H177 H 0.52067 0.45366 0.74384
 H178 H 0.48460 0.45285 0.72365
 H179 H 0.41466 0.48702 0.73594
 H180 H 0.48046 0.52702 0.75137
 C181 C 1.00193 1.05525 0.75379
 C182 C 0.97943 1.04331 0.74900
 C183 C 0.97912 1.01748 0.74977
 C184 C 1.00007 1.00385 0.75664
 C185 C 1.02195 1.01656 0.76214
 C186 C 1.02317 1.04213 0.76015
 C187 C 0.99897 0.97644 0.75772
 C188 C 1.02014 0.96208 0.75347
 C189 C 1.01942 0.93623 0.75486
 C190 C 0.99632 0.92502 0.75874
 C191 C 0.97496 0.93887 0.76275
 C192 C 0.97663 0.96447 0.76297
 H193 H 1.00309 1.07500 0.75335
 H194 H 0.96279 1.00785 0.74390
 H195 H 1.03811 1.00681 0.76832
 H196 H 1.03732 0.97125 0.74985
 H197 H 0.99448 0.90534 0.75745
 H198 H 0.96037 0.97497 0.76749
 C199 C 0.49622 0.56856 0.24127
 C200 C 0.47451 0.55498 0.23901
 C201 C 0.47577 0.52936 0.23974
 C202 C 0.49817 0.51705 0.24448
 C203 C 0.51979 0.53136 0.24681
 C204 C 0.51903 0.55697 0.24422
 C205 C 0.49872 0.48953 0.24657
 C206 C 0.52073 0.47609 0.24339
 C207 C 0.52102 0.45041 0.24545
 C208 C 0.49873 0.43789 0.24890
 C209 C 0.47658 0.45065 0.25199
 C210 C 0.47696 0.47633 0.25180
 H211 H 0.49539 0.58839 0.24101
 H212 H 0.45906 0.51927 0.23613
 H213 H 0.53738 0.52290 0.25029
 H214 H 0.53785 0.48532 0.23959
 H215 H 0.49862 0.41805 0.24879
 H216 H 0.46005 0.48578 0.25613
 O217 O 0.24887 0.18813 0.21273
 O218 O 0.27687 0.17889 0.24485
 O219 O 0.18577 0.21580 0.25305
 O220 O 0.17975 0.24480 0.28014
 O221 O 0.21313 0.25212 0.18805
 O222 O 0.24404 0.28127 0.18181
 O223 O 0.25557 0.28026 0.31514
 O224 O 0.22625 0.24844 0.32165
 O225 O 0.31571 0.24722 0.27956
 O226 O 0.32190 0.22369 0.24419
 O227 O 0.28413 0.31329 0.25424
 O228 O 0.25020 0.31994 0.22479
 O229 O 0.25432 0.31120 0.28719
 O230 O 0.21988 0.31696 0.25643
 O231 O 0.31317 0.28337 0.25205
 O232 O 0.31539 0.25215 0.21580
 O233 O 0.28827 0.24684 0.31111
 O234 O 0.25728 0.21894 0.31922
 O235 O 0.24834 0.21934 0.18515
 O236 O 0.27617 0.25462 0.18060
 O237 O 0.18486 0.25086 0.21890
 O238 O 0.18263 0.27985 0.25433
 O239 O 0.21566 0.18679 0.24976
 O240 O 0.25316 0.17733 0.27299
 Zr241 Zr 0.24908 0.20592 0.24705
 O242 O 0.27323 0.22570 0.26955
 Zr243 Zr 0.20595 0.24876 0.25160
 O244 O 0.22856 0.27030 0.27474
 Zr245 Zr 0.24707 0.25136 0.20641
 O246 O 0.27097 0.27326 0.22747
 Zr247 Zr 0.25348 0.24806 0.29388
 O248 O 0.22886 0.22601 0.27320
 Zr249 Zr 0.29380 0.25031 0.24819
 O250 O 0.27171 0.22829 0.22523
 Zr251 Zr 0.25079 0.29340 0.25325
 O252 O 0.22645 0.27358 0.23027
 O253 O 0.22527 0.22738 0.22664
 O254 O 0.27499 0.27182 0.27342
 C255 C 0.24940 0.19649 0.19068
 C256 C 0.19313 0.19338 0.25258
 C257 C 0.19083 0.25197 0.19601
 C258 C 0.25601 0.30310 0.30926
 C259 C 0.31035 0.24619 0.30249
 C260 C 0.30661 0.30588 0.25420
 H261 H 0.28373 0.21395 0.27857
 H262 H 0.28065 0.28422 0.21667
 H263 H 0.21436 0.21715 0.21633
 H264 H 0.21830 0.28000 0.28617
 H265 H 0.21351 0.23648 0.31662
 H266 H 0.18431 0.25643 0.29328
 H267 H 0.33115 0.26039 0.21978
 H268 H 0.26981 0.25053 0.16403
 H269 H 0.24469 0.20661 0.31492
 H270 H 0.24003 0.17932 0.28540
 H271 H 0.25426 0.33614 0.23196
 H272 H 0.23341 0.29365 0.18979
 H273 H 0.28932 0.18506 0.23310
 H274 H 0.31706 0.20923 0.25400
 H275 H 0.16559 0.27465 0.25040
 H276 H 0.22559 0.33305 0.26265
 O277 O 0.74771 0.81492 0.21953
 O278 O 0.72186 0.82141 0.25564
 O279 O 0.81399 0.78674 0.25438
 O280 O 0.82242 0.75683 0.27956
 O281 O 0.78464 0.75385 0.18890
 O282 O 0.75347 0.72421 0.18262
 O283 O 0.75269 0.71636 0.31582
 O284 O 0.77906 0.75043 0.32309
 O285 O 0.68702 0.74664 0.28693
 O286 O 0.67925 0.77558 0.25769
 O287 O 0.71965 0.68619 0.25502
 O288 O 0.75142 0.68257 0.22321
 O289 O 0.75216 0.68714 0.28605
 O290 O 0.78408 0.68498 0.25232
 O291 O 0.68911 0.71469 0.25409
 O292 O 0.68337 0.74811 0.22304
 O293 O 0.71709 0.74646 0.31599
 O294 O 0.74903 0.77693 0.32473
 O295 O 0.74928 0.78575 0.18981
 O296 O 0.72084 0.75065 0.18511
 O297 O 0.81387 0.75436 0.21880
 O298 O 0.81955 0.72332 0.25153
 O299 O 0.78345 0.81532 0.25384
 O300 O 0.74909 0.82129 0.28132
 Zr301 Zr 0.75029 0.79510 0.25278
 O302 O 0.72814 0.77283 0.27533
 Zr303 Zr 0.79485 0.75345 0.25228
 O304 O 0.77474 0.72965 0.27504
 Zr305 Zr 0.75151 0.75252 0.20914
 O306 O 0.72977 0.72846 0.23022
 Zr307 Zr 0.75041 0.74987 0.29685
 O308 O 0.77268 0.77410 0.27626
 Zr309 Zr 0.70716 0.74877 0.25389
 O310 O 0.72699 0.77325 0.23094
 Zr311 Zr 0.75209 0.70729 0.25326
 O312 O 0.77420 0.72948 0.23026
 O313 O 0.77353 0.77572 0.22987
 O314 O 0.72849 0.72647 0.27634
 C315 C 0.74756 0.80812 0.19690
 C316 C 0.80631 0.80901 0.25462
 C317 C 0.80720 0.75457 0.19618
 C318 C 0.75292 0.69392 0.30859
 C319 C 0.69442 0.74545 0.30935
 C320 C 0.69683 0.69243 0.25475
 H321 H 0.71721 0.78328 0.28538
 H322 H 0.71995 0.71792 0.21915
 H323 H 0.78352 0.78689 0.21960
 H324 H 0.78622 0.71976 0.28505
 H325 H 0.79121 0.76270 0.31739
 H326 H 0.81945 0.74391 0.29194
 H327 H 0.66671 0.74349 0.22889
 H328 H 0.72618 0.75575 0.16846
 H329 H 0.73583 0.78867 0.32058
 H330 H 0.76025 0.81524 0.29433
 H331 H 0.74871 0.66577 0.22962
 H332 H 0.76516 0.71184 0.18896
 H333 H 0.70966 0.81753 0.24276
 H334 H 0.68173 0.78754 0.24429
 H335 H 0.83618 0.72955 0.24734
 H336 H 0.77961 0.66829 0.25796
 O337 O 0.75835 0.18224 0.78018
 O338 O 0.73256 0.17346 0.74519
 O339 O 0.82124 0.21555 0.74625
 O340 O 0.82827 0.24617 0.72198
 O341 O 0.78805 0.24748 0.81132
 O342 O 0.75456 0.27246 0.81779
 O343 O 0.75503 0.27951 0.68330
 O344 O 0.78411 0.24851 0.67654
 O345 O 0.69226 0.24352 0.71206
 O346 O 0.68604 0.21601 0.74251
 O347 O 0.71942 0.30818 0.74407
 O348 O 0.75062 0.31524 0.77499
 O349 O 0.75274 0.30938 0.71228
 O350 O 0.78376 0.31425 0.74684
 O351 O 0.69099 0.27760 0.74323
 O352 O 0.68746 0.24513 0.77574
 O353 O 0.72233 0.24605 0.68308
 O354 O 0.75782 0.21845 0.67602
 O355 O 0.75546 0.21121 0.81001
 O356 O 0.72388 0.24462 0.81360
 O357 O 0.81825 0.24802 0.78234
 O358 O 0.82154 0.27947 0.74927
 O359 O 0.79318 0.18459 0.74575
 O360 O 0.75902 0.17605 0.71859
 Zr361 Zr 0.75862 0.20217 0.74722
 O362 O 0.73488 0.22228 0.72443
 Zr363 Zr 0.79965 0.24725 0.74839
 O364 O 0.77804 0.26883 0.72470
 Zr365 Zr 0.75543 0.24477 0.79061
 O366 O 0.73251 0.26719 0.76888
 Zr367 Zr 0.75559 0.24650 0.70286
 O368 O 0.77968 0.22473 0.72407
 Zr369 Zr 0.71180 0.24499 0.74527
 O370 O 0.73314 0.22210 0.76854
 Zr371 Zr 0.75340 0.28976 0.74569
 O372 O 0.77648 0.26957 0.76963
 O373 O 0.77984 0.22339 0.77053
 O374 O 0.73157 0.26854 0.72261
 C375 C 0.75674 0.18880 0.80276
 C376 C 0.81541 0.19275 0.74510
 C377 C 0.81081 0.24844 0.80475
 C378 C 0.75400 0.30209 0.68985
 C379 C 0.69966 0.24437 0.68965
 C380 C 0.69710 0.30039 0.74327
 H381 H 0.72504 0.21073 0.71448
 H382 H 0.72177 0.27714 0.77965
 H383 H 0.79071 0.21324 0.78097
 H384 H 0.78884 0.27941 0.71463
 H385 H 0.79788 0.23851 0.68296
 H386 H 0.82430 0.25834 0.70913
 H387 H 0.67063 0.24835 0.76951
 H388 H 0.72874 0.23885 0.83017
 H389 H 0.74445 0.20656 0.67913
 H390 H 0.77052 0.18233 0.70597
 H391 H 0.74708 0.33168 0.76810
 H392 H 0.76237 0.28710 0.81045
 H393 H 0.71980 0.17693 0.75765
 H394 H 0.68945 0.20471 0.75628
 H395 H 0.83849 0.27487 0.75421
 H396 H 0.77848 0.33034 0.74025
 O397 O 0.24852 0.80441 0.79062
 O398 O 0.27369 0.81233 0.75546
 O399 O 0.18498 0.76956 0.75853
 O400 O 0.17855 0.73885 0.73338
 O401 O 0.21872 0.74029 0.82307
 O402 O 0.25286 0.71382 0.82886
 O403 O 0.25324 0.70450 0.69562
 O404 O 0.22164 0.73417 0.68876
 O405 O 0.31405 0.74169 0.72260
 O406 O 0.32259 0.76832 0.75397
 O407 O 0.28731 0.67781 0.75711
 O408 O 0.25645 0.67193 0.78880
 O409 O 0.25448 0.67582 0.72590
 O410 O 0.22349 0.67130 0.76016
 O411 O 0.31556 0.70849 0.75546
 O412 O 0.31814 0.74538 0.78710
 O413 O 0.28333 0.74032 0.69425
 O414 O 0.24730 0.76502 0.68644
 O415 O 0.25052 0.77543 0.82058
 O416 O 0.28242 0.74346 0.82539
 O417 O 0.18872 0.73798 0.79399
 O418 O 0.18513 0.70599 0.76185
 O419 O 0.21249 0.80103 0.75685
 O420 O 0.24634 0.80941 0.72871
 Zr421 Zr 0.24745 0.78380 0.75780
 O422 O 0.27115 0.76333 0.73514
 Zr423 Zr 0.20698 0.73820 0.76000
 O424 O 0.22860 0.71613 0.73690
 Zr425 Zr 0.25129 0.74179 0.80194
 O426 O 0.27463 0.71938 0.78072
 Zr427 Zr 0.25058 0.73818 0.71436
 O428 O 0.22654 0.76049 0.73515
 Zr429 Zr 0.29477 0.74126 0.75624
 O430 O 0.27316 0.76427 0.77914
 Zr431 Zr 0.25349 0.69620 0.75849
 O432 O 0.23015 0.71655 0.78184
 O433 O 0.22674 0.76261 0.78151
 O434 O 0.27497 0.71692 0.73456
 C435 C 0.24955 0.79778 0.81327
 C436 C 0.19036 0.79245 0.75732
 C437 C 0.19598 0.73913 0.81642
 C438 C 0.25427 0.68219 0.70322
 C439 C 0.30611 0.74164 0.70035
 C440 C 0.30956 0.68568 0.75609
 H441 H 0.28056 0.77476 0.72466
 H442 H 0.28560 0.70992 0.79171
 H443 H 0.21595 0.77293 0.79185
 H444 H 0.21797 0.70511 0.72714
 H445 H 0.20802 0.74475 0.69454
 H446 H 0.18193 0.72560 0.72146
 H447 H 0.33342 0.73594 0.78408
 H448 H 0.27688 0.74831 0.84205
 H449 H 0.25858 0.77865 0.69045
 H450 H 0.23418 0.80314 0.71673
 H451 H 0.26020 0.65526 0.78261
 H452 H 0.24197 0.70043 0.82320
 H453 H 0.28719 0.80794 0.76683
 H454 H 0.31493 0.78311 0.74684
 H455 H 0.16810 0.71081 0.76629
 H456 H 0.22920 0.65500 0.75451
 O457 O 0.24937 0.30507 0.70518
 O458 O 0.22678 0.31530 0.74137
 O459 O 0.31477 0.27148 0.73567
 O460 O 0.32184 0.24218 0.76217
 O461 O 0.27720 0.23900 0.67447
 O462 O 0.24258 0.21307 0.67163
 O463 O 0.24958 0.21012 0.80490
 O464 O 0.28067 0.24057 0.80918
 O465 O 0.18690 0.24777 0.77880
 O466 O 0.17783 0.27295 0.74553
 O467 O 0.21107 0.18120 0.74756
 O468 O 0.24000 0.17332 0.71402
 O469 O 0.24486 0.18001 0.77645
 O470 O 0.27457 0.17351 0.74107
 O471 O 0.18371 0.21265 0.74929
 O472 O 0.17950 0.24639 0.71492
 O473 O 0.21846 0.24453 0.80604
 O474 O 0.25478 0.27120 0.81104
 O475 O 0.24604 0.27501 0.67648
 O476 O 0.21353 0.24324 0.67511
 O477 O 0.30856 0.23669 0.70214
 O478 O 0.31362 0.20765 0.73654
 O479 O 0.28726 0.30298 0.73645
 O480 O 0.25575 0.31320 0.76638
 Zr481 Zr 0.25233 0.28621 0.73879
 O482 O 0.22949 0.26740 0.76363
 Zr483 Zr 0.29220 0.24020 0.73698
 O484 O 0.27131 0.21957 0.76219
 Zr485 Zr 0.24583 0.24231 0.69698
 O486 O 0.22324 0.22132 0.72043
 Zr487 Zr 0.25065 0.24297 0.78464
 O488 O 0.27401 0.26383 0.76159
 Zr489 Zr 0.20469 0.24484 0.74459
 O490 O 0.22542 0.26625 0.71956
 Zr491 Zr 0.24506 0.19893 0.74289
 O492 O 0.26755 0.21783 0.71749
 O493 O 0.27171 0.26369 0.71511
 O494 O 0.22512 0.22130 0.76655
 C495 C 0.24710 0.29764 0.68290
 C496 C 0.30936 0.29445 0.73559
 C497 C 0.30009 0.23660 0.68010
 C498 C 0.24697 0.18751 0.79868
 C499 C 0.19547 0.24654 0.80076
 C500 C 0.18918 0.18973 0.75003
 H501 H 0.22070 0.27942 0.77398
 H502 H 0.21156 0.21144 0.71061
 H503 H 0.28210 0.27317 0.70360
 H504 H 0.28226 0.20889 0.77198
 H505 H 0.29395 0.25092 0.80228
 H506 H 0.31855 0.23013 0.77533
 H507 H 0.16405 0.23817 0.72001
 H508 H 0.21825 0.24713 0.65795
 H509 H 0.24238 0.28400 0.80762
 H510 H 0.26772 0.30676 0.77847
 H511 H 0.23622 0.15709 0.72129
 H512 H 0.25324 0.19966 0.67767
 H513 H 0.21243 0.31056 0.73124
 H514 H 0.18530 0.28720 0.75387
 H515 H 0.33049 0.21189 0.73101
 H516 H 0.26886 0.15762 0.74779
 O517 O 0.73204 0.68896 0.72315
 O518 O 0.75798 0.67836 0.75680
 O519 O 0.67005 0.72314 0.75576
 O520 O 0.66454 0.75266 0.78282
 O521 O 0.70675 0.75707 0.69401
 O522 O 0.74093 0.78031 0.68892
 O523 O 0.73974 0.78278 0.82390
 O524 O 0.70788 0.75397 0.82861
 O525 O 0.79969 0.74343 0.79360
 O526 O 0.80720 0.71963 0.75993
 O527 O 0.77617 0.81191 0.76454
 O528 O 0.74540 0.82119 0.73318
 O529 O 0.74364 0.81314 0.79557
 O530 O 0.71221 0.82063 0.76157
 O531 O 0.80269 0.77972 0.76527
 O532 O 0.80498 0.74695 0.73009
 O533 O 0.77011 0.74679 0.82303
 O534 O 0.73602 0.72143 0.82870
 O535 O 0.73742 0.71899 0.69473
 O536 O 0.77018 0.75128 0.69250
 O537 O 0.67558 0.75799 0.72198
 O538 O 0.67249 0.78711 0.75702
 O539 O 0.69752 0.69169 0.75793
 O540 O 0.73271 0.67957 0.78351
 Zr541 Zr 0.73258 0.70772 0.75678
 O542 O 0.75654 0.72596 0.78071
 Zr543 Zr 0.69326 0.75418 0.75656
 O544 O 0.71561 0.77418 0.78137
 Zr545 Zr 0.73838 0.75182 0.71516
 O546 O 0.76191 0.77249 0.73780
 Zr547 Zr 0.73693 0.75045 0.80298
 O548 O 0.71211 0.73019 0.78066
 Zr549 Zr 0.78086 0.74821 0.76068
 O550 O 0.75904 0.72723 0.73649
 Zr551 Zr 0.74148 0.79486 0.76158
 O552 O 0.71786 0.77646 0.73672
 O553 O 0.71267 0.73060 0.73384
 O554 O 0.76208 0.77186 0.78402
 C555 C 0.73493 0.69639 0.70098
 C556 C 0.67552 0.70025 0.75739
 C557 C 0.68395 0.75925 0.69984
 C558 C 0.74252 0.80541 0.81785
 C559 C 0.79255 0.74356 0.81602
 C560 C 0.79792 0.80276 0.76616
 H561 H 0.76523 0.71354 0.79069
 H562 H 0.77334 0.78233 0.72763
 H563 H 0.70156 0.72144 0.72275
 H564 H 0.70527 0.78493 0.79173
 H565 H 0.69432 0.74349 0.82258
 H566 H 0.66880 0.76424 0.79611
 H567 H 0.82083 0.75460 0.73483
 H568 H 0.76536 0.74613 0.67572
 H569 H 0.72206 0.71076 0.82412
 H570 H 0.71906 0.68292 0.79504
 H571 H 0.74978 0.83716 0.74068
 H572 H 0.73393 0.79511 0.69671
 H573 H 0.77122 0.68278 0.74512
 H574 H 0.79937 0.70507 0.76739
 H575 H 0.65543 0.78323 0.75186
 H576 H 0.71829 0.83619 0.76870
 O577 O 0.24741 0.68849 0.28117
 O578 O 0.22472 0.67791 0.24915
 O579 O 0.31076 0.72193 0.24323
 O580 O 0.31624 0.75265 0.21901
 O581 O 0.28248 0.75340 0.31087
 O582 O 0.25048 0.77773 0.32052
 O583 O 0.23775 0.78597 0.18597
 O584 O 0.26733 0.75609 0.17630
 O585 O 0.17929 0.75219 0.22007
 O586 O 0.17572 0.72275 0.25084
 O587 O 0.20949 0.81473 0.24797
 O588 O 0.24281 0.82172 0.27759
 O589 O 0.23980 0.81588 0.21497
 O590 O 0.27384 0.82059 0.24692
 O591 O 0.18088 0.78446 0.25102
 O592 O 0.17987 0.75214 0.28370
 O593 O 0.20667 0.75252 0.18842
 O594 O 0.24236 0.72454 0.17882
 O595 O 0.24956 0.71688 0.31157
 O596 O 0.21878 0.75105 0.31787
 O597 O 0.31058 0.75427 0.27989
 O598 O 0.31124 0.78587 0.24634
 O599 O 0.28275 0.69102 0.24548
 O600 O 0.24573 0.68456 0.21834
 Zr601 Zr 0.24826 0.70870 0.24862
 O602 O 0.22243 0.72894 0.22831
 Zr603 Zr 0.28946 0.75358 0.24727
 O604 O 0.26605 0.77520 0.22521
 Zr605 Zr 0.24858 0.75081 0.29266
 O606 O 0.22430 0.77381 0.27311
 Zr607 Zr 0.24162 0.75303 0.20525
 O608 O 0.26763 0.73136 0.22426
 Zr609 Zr 0.20158 0.75178 0.25133
 O610 O 0.22463 0.72846 0.27215
 Zr611 Zr 0.24342 0.79621 0.24821
 O612 O 0.26806 0.77578 0.27035
 O613 O 0.27132 0.72947 0.27064
 O614 O 0.21972 0.77504 0.22720
 C615 C 0.24800 0.69461 0.30388
 C616 C 0.30485 0.69915 0.24287
 C617 C 0.30469 0.75463 0.30278
 C618 C 0.23736 0.80853 0.19266
 C619 C 0.18464 0.75272 0.19712
 C620 C 0.18712 0.80713 0.24910
 H621 H 0.21161 0.71763 0.21912
 H622 H 0.21456 0.78387 0.28469
 H623 H 0.28265 0.71909 0.28035
 H624 H 0.27588 0.78579 0.21420
 H625 H 0.28203 0.74667 0.18142
 H626 H 0.31095 0.76433 0.20618
 H627 H 0.16256 0.75525 0.27884
 H628 H 0.22457 0.74447 0.33383
 H629 H 0.22820 0.71358 0.18192
 H630 H 0.25908 0.68907 0.20682
 H631 H 0.23847 0.83806 0.27091
 H632 H 0.25547 0.79313 0.31234
 H633 H 0.20776 0.68442 0.24893
 H634 H 0.18027 0.71158 0.26441
 H635 H 0.32844 0.78143 0.25054
 H636 H 0.26803 0.83668 0.24082
 O637 O 0.75200 0.31981 0.29002
 O638 O 0.77861 0.33141 0.25611
 O639 O 0.69059 0.28771 0.25278
 O640 O 0.68528 0.25950 0.22478
 O641 O 0.72266 0.25181 0.31535
 O642 O 0.75654 0.22688 0.32081
 O643 O 0.76142 0.22912 0.18619
 O644 O 0.73136 0.25987 0.18047
 O645 O 0.82172 0.26340 0.22037
 O646 O 0.82576 0.29006 0.25239
 O647 O 0.79400 0.19774 0.24437
 O648 O 0.76312 0.18774 0.27559
 O649 O 0.76133 0.19791 0.21383
 O650 O 0.72994 0.19009 0.24733
 O651 O 0.82211 0.22834 0.24872
 O652 O 0.82382 0.25843 0.28365
 O653 O 0.79294 0.26431 0.19002
 O654 O 0.75647 0.29089 0.18328
 O655 O 0.75324 0.28837 0.31739
 O656 O 0.78628 0.25631 0.31988
 O657 O 0.69331 0.25280 0.28552
 O658 O 0.69139 0.22405 0.24977
 O659 O 0.71796 0.31930 0.25428
 O660 O 0.75282 0.33033 0.22875
 Zr661 Zr 0.75297 0.30226 0.25549
 O662 O 0.77794 0.28407 0.23219
 Zr663 Zr 0.71284 0.25647 0.25210
 O664 O 0.73567 0.23703 0.22764
 Zr665 Zr 0.75561 0.25654 0.29579
 O666 O 0.77969 0.23610 0.27355
 Zr667 Zr 0.75865 0.26102 0.20806
 O668 O 0.73331 0.28090 0.23001
 Zr669 Zr 0.80066 0.26037 0.25239
 O670 O 0.77809 0.28127 0.27630
 Zr671 Zr 0.75981 0.21517 0.24817
 O672 O 0.73553 0.23306 0.27260
 O673 O 0.73153 0.27892 0.27645
 O674 O 0.78209 0.23823 0.22744
 C675 C 0.75210 0.31128 0.31205
 C676 C 0.69590 0.31064 0.25342
 C677 C 0.70015 0.25115 0.30812
 C678 C 0.76183 0.20618 0.19177
 C679 C 0.81536 0.26478 0.19773
 C680 C 0.81621 0.20578 0.24513
 H681 H 0.78798 0.29642 0.22346
 H682 H 0.79027 0.22553 0.28387
 H683 H 0.72013 0.28804 0.28725
 H684 H 0.72545 0.22698 0.21650
 H685 H 0.71697 0.26887 0.18702
 H686 H 0.68966 0.24808 0.21138
 H687 H 0.84094 0.25613 0.27779
 H688 H 0.78052 0.26049 0.33664
 H689 H 0.76912 0.30304 0.18798
 H690 H 0.74175 0.32477 0.21545
 H691 H 0.76739 0.17202 0.26752
 H692 H 0.74871 0.21282 0.31242
 H693 H 0.79097 0.32735 0.26879
 H694 H 0.82189 0.30009 0.26700
 H695 H 0.67423 0.22816 0.25445
 H696 H 0.73570 0.17449 0.24002
 C697 C 0.25727 0.05482 0.06773
 C698 C 0.25652 0.06827 0.08958
 C699 C 0.26499 0.09242 0.09017
 C700 C 0.27593 0.10246 0.06915
 C701 C 0.27691 0.08910 0.04741
 C702 C 0.26660 0.06538 0.04588
 N703 N 0.26105 0.10701 0.11164
 N704 N 0.26305 0.13020 0.11056
 C705 C 0.25900 0.14604 0.13100
 C706 C 0.25948 0.17128 0.12690
 C707 C 0.25578 0.18758 0.14620
 C708 C 0.25174 0.17889 0.17016
 C709 C 0.25108 0.15342 0.17424
 C710 C 0.25460 0.13707 0.15476
 H711 H 0.24880 0.03689 0.06782
 H712 H 0.24816 0.06027 0.10574
 H713 H 0.28335 0.12087 0.06936
 H714 H 0.28589 0.09760 0.03186
 H715 H 0.26280 0.17834 0.10863
 H716 H 0.25651 0.20703 0.14233
 H717 H 0.24802 0.14613 0.19247
 H718 H 0.25413 0.11756 0.15827
 C719 C 0.77977 0.59294 0.55401
 C720 C 0.77766 0.60866 0.57400
 C721 C 0.75814 0.60619 0.59046
 C722 C 0.74094 0.58721 0.58716
 C723 C 0.74293 0.57147 0.56694
 C724 C 0.76212 0.57455 0.54989
 N725 N 0.75579 0.62400 0.60953
 N726 N 0.74018 0.62232 0.62684
 C727 C 0.73824 0.64125 0.64492
 C728 C 0.72592 0.63650 0.66695
 C729 C 0.72467 0.65447 0.68520
 C730 C 0.73532 0.67768 0.68141
 C731 C 0.74703 0.68261 0.65898
 C732 C 0.74865 0.66452 0.64097
 H733 H 0.79503 0.59544 0.54146
 H734 H 0.79108 0.62314 0.57646
 H735 H 0.72565 0.58504 0.59972
 H736 H 0.72900 0.55755 0.56415
 H737 H 0.71771 0.61871 0.67016
 H738 H 0.71536 0.65022 0.70226
 H739 H 0.75544 0.70028 0.65556
 H740 H 0.75805 0.66871 0.62397
 C741 C 0.72009 0.96306 0.09723
 C742 C 0.71874 0.94299 0.11296
 C743 C 0.73002 0.92091 0.10680
 C744 C 0.74151 0.91859 0.08380
 C745 C 0.74278 0.93872 0.06780
 C746 C 0.73305 0.96172 0.07476
 N747 N 0.73066 0.90190 0.12491
 N748 N 0.74063 0.88112 0.12130
 C749 C 0.74189 0.86307 0.14042
 C750 C 0.75011 0.83947 0.13477
 C751 C 0.75187 0.82162 0.15309
 C752 C 0.74572 0.82717 0.17758
 C753 C 0.73769 0.85099 0.18325
 C754 C 0.73566 0.86874 0.16483
 H755 H 0.71084 0.97970 0.10288
 H756 H 0.70940 0.94486 0.13042
 H757 H 0.75026 0.90155 0.07858
 H758 H 0.75302 0.93656 0.05091
 H759 H 0.75512 0.83488 0.11610
 H760 H 0.75828 0.80350 0.14810
 H761 H 0.73277 0.85585 0.20187
 H762 H 0.72943 0.88693 0.16973
 C763 C 0.22633 0.45263 0.58230
 C764 C 0.22327 0.43211 0.59723
 C765 C 0.23652 0.41067 0.59263
 C766 C 0.25212 0.40952 0.57207
 C767 C 0.25528 0.43016 0.55707
 C768 C 0.24295 0.45214 0.56252
 N769 N 0.23517 0.39127 0.61025
 N770 N 0.24549 0.37057 0.60723
 C771 C 0.24499 0.35231 0.62613
 C772 C 0.25236 0.32836 0.62069
 C773 C 0.25271 0.31043 0.63905
 C774 C 0.24613 0.31637 0.66331
 C775 C 0.23886 0.34047 0.66872
 C776 C 0.23813 0.35823 0.65029
 H777 H 0.21626 0.46919 0.58668
 H778 H 0.21113 0.43317 0.61296
 H779 H 0.26259 0.39310 0.56819
 H780 H 0.26828 0.42932 0.54203
 H781 H 0.25785 0.32359 0.60221
 H782 H 0.25855 0.29205 0.63436
 H783 H 0.23362 0.34557 0.68720
 H784 H 0.23257 0.37668 0.65503
 C785 C 0.73316 0.06611 0.94400
 C786 C 0.73263 0.08710 0.92915
 C787 C 0.74896 0.08950 0.90938
 C788 C 0.76638 0.07097 0.90511
 C789 C 0.76710 0.05022 0.92001
 C790 C 0.75024 0.04727 0.93938
 N791 N 0.74729 0.11039 0.89346
 N792 N 0.75866 0.11070 0.87303
 C793 C 0.75790 0.13079 0.85617
 C794 C 0.76774 0.12730 0.83275
 C795 C 0.76724 0.14613 0.81547
 C796 C 0.75716 0.16910 0.82144
 C797 C 0.74761 0.17277 0.84517
 C798 C 0.74778 0.15366 0.86239
 H799 H 0.71982 0.06438 0.95866
 H800 H 0.71911 0.10124 0.93268
 H801 H 0.77946 0.07248 0.89019
 H802 H 0.78091 0.03641 0.91631
 H803 H 0.77568 0.10978 0.82780
 H804 H 0.77497 0.14276 0.79747
 H805 H 0.73972 0.19027 0.85027
 H806 H 0.74018 0.15677 0.88048
 C807 C 0.26445 0.56830 0.44266
 C808 C 0.26307 0.59027 0.42945
 C809 C 0.25159 0.59092 0.40648
 C810 C 0.24070 0.56944 0.39723
 C811 C 0.24199 0.54755 0.41042
 C812 C 0.25427 0.54660 0.43308
 N813 N 0.25209 0.61311 0.39235
 N814 N 0.24415 0.61337 0.37039
 C815 C 0.24468 0.63449 0.35485
 C816 C 0.23729 0.63158 0.33052
 C817 C 0.23835 0.65117 0.31420
 C818 C 0.24667 0.67433 0.32193
 C819 C 0.25367 0.67745 0.34660
 C820 C 0.25282 0.65758 0.36297
 H821 H 0.27420 0.56812 0.45999
 H822 H 0.27155 0.60665 0.43681
 H823 H 0.23149 0.56944 0.37963
 H824 H 0.23353 0.53130 0.40277
 H825 H 0.23096 0.61389 0.32410
 H826 H 0.23256 0.64810 0.29545
 H827 H 0.26014 0.69506 0.35309
 H828 H 0.25861 0.66020 0.38178
 C829 C 0.27017 0.93937 0.93565
 C830 C 0.27099 0.92481 0.91447
 C831 C 0.25475 0.90507 0.91167
 C832 C 0.23709 0.90055 0.92996
 C833 C 0.23610 0.91514 0.95090
 C834 C 0.25287 0.93446 0.95426
 N835 N 0.25681 0.88931 0.89071
 N836 N 0.24576 0.86875 0.89041
 C837 C 0.24687 0.85182 0.87043
 C838 C 0.23779 0.82820 0.87428
 C839 C 0.23879 0.81077 0.85566
 C840 C 0.24855 0.81678 0.83255
 C841 C 0.25721 0.84073 0.82843
 C842 C 0.25661 0.85813 0.84737
 H843 H 0.28345 0.95402 0.93772
 H844 H 0.28469 0.92853 0.90052
 H845 H 0.22408 0.88564 0.92814
 H846 H 0.22212 0.91125 0.96453
 H847 H 0.23014 0.82321 0.89194
 H848 H 0.23169 0.79258 0.85932
 H849 H 0.26480 0.84581 0.81077
 H850 H 0.26359 0.87641 0.84400
 C851 C 0.76043 0.45036 0.43743
 C852 C 0.75994 0.43659 0.41579
 C853 C 0.74739 0.41423 0.41494
 C854 C 0.73418 0.40636 0.43567
 C855 C 0.73437 0.42024 0.45721
 C856 C 0.74804 0.44210 0.45858
 N857 N 0.74932 0.39929 0.39340
 N858 N 0.74243 0.37701 0.39350
 C859 C 0.74464 0.36129 0.37260
 C860 C 0.73965 0.33635 0.37558
 C861 C 0.74230 0.32017 0.35596
 C862 C 0.74975 0.32870 0.33276
 C863 C 0.75444 0.35387 0.32966
 C864 C 0.75207 0.37005 0.34949
 H865 H 0.77137 0.46693 0.43787
 H866 H 0.77019 0.44288 0.39995
 H867 H 0.72403 0.38929 0.43537
 H868 H 0.72414 0.41361 0.47291
 H869 H 0.73391 0.32941 0.39330
 H870 H 0.73827 0.30096 0.35895
 H871 H 0.76016 0.36100 0.31201
 H872 H 0.75599 0.38931 0.34676
 C873 C 0.09245 0.23679 0.03894
 C874 C 0.10774 0.23469 0.05936
 C875 C 0.10102 0.24497 0.08179
 C876 C 0.07811 0.25665 0.08394
 C877 C 0.06260 0.25880 0.06344
 C878 C 0.06985 0.24959 0.04023
 N879 N 0.11856 0.24425 0.10141
 N880 N 0.11444 0.25222 0.12298
 C881 C 0.13349 0.25185 0.14126
 C882 C 0.12785 0.25742 0.16573
 C883 C 0.14635 0.25739 0.18370
 C884 C 0.17091 0.25214 0.17735
 C885 C 0.17644 0.24669 0.15273
 C886 C 0.15798 0.24644 0.13495
 H887 H 0.09846 0.22794 0.02223
 H888 H 0.12520 0.22528 0.05758
 H889 H 0.07254 0.26477 0.10119
 H890 H 0.04573 0.26909 0.06565
 H891 H 0.10910 0.26172 0.17089
 H892 H 0.14148 0.26168 0.20248
 H893 H 0.19508 0.24238 0.14716
 H894 H 0.16294 0.24220 0.11619
 C895 C 0.55137 0.74492 0.56769
 C896 C 0.56418 0.74606 0.58990
 C897 C 0.58653 0.75868 0.59145
 C898 C 0.59573 0.77065 0.57050
 C899 C 0.58287 0.76961 0.54828
 C900 C 0.56063 0.75653 0.54653
 N901 N 0.59996 0.75827 0.61412
 N902 N 0.62123 0.76786 0.61592
 C903 C 0.63560 0.76704 0.63794
 C904 C 0.65979 0.77561 0.63697
 C905 C 0.67518 0.77354 0.65731
 C906 C 0.66657 0.76306 0.67928
 C907 C 0.64193 0.75526 0.68062
 C908 C 0.62655 0.75707 0.66000
 H909 H 0.53450 0.73438 0.56694
 H910 H 0.55694 0.73666 0.60584
 H911 H 0.61294 0.78062 0.57121
 H912 H 0.59034 0.77906 0.53248
 H913 H 0.66695 0.78338 0.62012
 H914 H 0.69399 0.77994 0.65575
 H915 H 0.63484 0.74704 0.69727
 H916 H 0.60784 0.75036 0.66117
 C917 C 0.03669 0.77391 0.90565
 C918 C 0.05755 0.77273 0.89076
 C919 C 0.07905 0.76148 0.89920
 C920 C 0.07979 0.75192 0.92310
 C921 C 0.05886 0.75298 0.93802
 C922 C 0.03695 0.76363 0.92928
 N923 N 0.09922 0.75887 0.88255
 N924 N 0.12005 0.75011 0.88865
 C925 C 0.13902 0.74689 0.87066
 C926 C 0.16314 0.74157 0.87804
 C927 C 0.18186 0.73872 0.86054
 C928 C 0.17651 0.74075 0.83537
 C929 C 0.15214 0.74564 0.82814
 C930 C 0.13367 0.74877 0.84554
 H931 H 0.02027 0.78263 0.89856
 H932 H 0.05683 0.78021 0.87237
 H933 H 0.09622 0.74305 0.92995
 H934 H 0.05955 0.74471 0.95607
 H935 H 0.16748 0.73997 0.89736
 H936 H 0.20044 0.73503 0.86668
 H937 H 0.14730 0.74753 0.80896
 H938 H 0.11517 0.75265 0.83929
 C939 C 0.54605 0.26960 0.41246
 C940 C 0.56599 0.27227 0.39652
 C941 C 0.58740 0.25848 0.39993
 C942 C 0.58914 0.24274 0.42028
 C943 C 0.56912 0.23999 0.43625
 C944 C 0.54711 0.25288 0.43207
 N945 N 0.60626 0.25968 0.38160
 N946 N 0.62666 0.24839 0.38359
 C947 C 0.64471 0.24896 0.36441
 C948 C 0.66847 0.24033 0.36918
 C949 C 0.68647 0.24079 0.35084
 C950 C 0.68082 0.24949 0.32720
 C951 C 0.65679 0.25768 0.32232
 C952 C 0.63893 0.25757 0.34079
 H953 H 0.52948 0.28007 0.40900
 H954 H 0.56449 0.28456 0.38100
 H955 H 0.60554 0.23189 0.42330
 H956 H 0.57040 0.22684 0.45108
 H957 H 0.67311 0.23350 0.38725
 H958 H 0.70481 0.23432 0.35515
 H959 H 0.65191 0.26465 0.30437
 H960 H 0.62061 0.26414 0.33658
 C961 C 0.92723 0.76997 0.05199
 C962 C 0.90548 0.76909 0.06568
 C963 C 0.90560 0.77542 0.09047
 C964 C 0.92734 0.78439 0.10106
 C965 C 0.94902 0.78553 0.08745
 C966 C 0.94973 0.77737 0.06287
 N967 N 0.88413 0.77106 0.10506
 N968 N 0.88580 0.77069 0.12831
 C969 C 0.86557 0.76595 0.14433
 C970 C 0.87054 0.76384 0.16931
 C971 C 0.85163 0.75943 0.18590
 C972 C 0.82711 0.75723 0.17783
 C973 C 0.82212 0.75908 0.15255
 C974 C 0.84128 0.76334 0.13584
 H975 H 0.92642 0.76303 0.03343
 H976 H 0.88880 0.76219 0.05729
 H977 H 0.92772 0.79011 0.12008
 H978 H 0.96512 0.79293 0.09644
 H979 H 0.88922 0.76574 0.17597
 H980 H 0.85629 0.75818 0.20518
 H981 H 0.80345 0.75758 0.14576
 H982 H 0.83712 0.76488 0.11649
 C983 C 0.45581 0.20807 0.58293
 C984 C 0.43438 0.20654 0.59689
 C985 C 0.41508 0.22298 0.59305
 C986 C 0.41724 0.24095 0.57470
 C987 C 0.43885 0.24264 0.56075
 C988 C 0.45851 0.22638 0.56497
 N989 N 0.39435 0.22178 0.60915
 N990 N 0.37479 0.23425 0.60618
 C991 C 0.35539 0.23320 0.62398
 C992 C 0.33280 0.24460 0.61914
 C993 C 0.31425 0.24498 0.63702
 C994 C 0.31831 0.23430 0.66014
 C995 C 0.34081 0.22251 0.66472
 C996 C 0.35909 0.22182 0.64682
 H997 H 0.47036 0.19493 0.58627
 H998 H 0.43289 0.19263 0.61098
 H999 H 0.40255 0.25398 0.57159
 H1000 H 0.44043 0.25705 0.54719
 H1001 H 0.32973 0.25350 0.60165
 H1002 H 0.29712 0.25434 0.63309
 H1003 H 0.34440 0.21400 0.68232
 H1004 H 0.37636 0.21293 0.65111
 C1005 C 0.91036 0.28353 0.95814
 C1006 C 0.89414 0.28182 0.93846
 C1007 C 0.89928 0.26654 0.91869
 C1008 C 0.92132 0.25310 0.91851
 C1009 C 0.93768 0.25458 0.93841
 C1010 C 0.93227 0.26948 0.95899
 N1011 N 0.88138 0.26479 0.89949
 N1012 N 0.88514 0.25359 0.87937
 C1013 C 0.86627 0.25212 0.86103
 C1014 C 0.87233 0.24404 0.83744
 C1015 C 0.85435 0.24295 0.81910
 C1016 C 0.82982 0.24956 0.82420
 C1017 C 0.82371 0.25727 0.84803
 C1018 C 0.84177 0.25870 0.86623
 H1019 H 0.90575 0.29656 0.97236
 H1020 H 0.87740 0.29260 0.93859
 H1021 H 0.92562 0.24106 0.90333
 H1022 H 0.95379 0.24300 0.93793
 H1023 H 0.89108 0.23883 0.83319
 H1024 H 0.85962 0.23674 0.80097
 H1025 H 0.80502 0.26251 0.85253
 H1026 H 0.83656 0.26486 0.88437
 C1027 C 0.40523 0.77394 0.45841
 C1028 C 0.38975 0.77656 0.43817
 C1029 C 0.39538 0.76509 0.41595
 C1030 C 0.41731 0.75158 0.41386
 C1031 C 0.43287 0.74888 0.43421
 C1032 C 0.42665 0.75956 0.45687
 N1033 N 0.37763 0.76622 0.39656
 N1034 N 0.38124 0.75726 0.37529
 C1035 C 0.36222 0.75767 0.35703
 C1036 C 0.36765 0.75061 0.33293
 C1037 C 0.34911 0.75001 0.31507
 C1038 C 0.32470 0.75611 0.32121
 C1039 C 0.31938 0.76327 0.34541
 C1040 C 0.33793 0.76417 0.36309
 H1041 H 0.40017 0.78277 0.47547
 H1042 H 0.37295 0.78709 0.43997
 H1043 H 0.42200 0.74250 0.39684
 H1044 H 0.44918 0.73760 0.43252
 H1045 H 0.38625 0.74544 0.32802
 H1046 H 0.35378 0.74431 0.29662
 H1047 H 0.30082 0.76821 0.35073
 H1048 H 0.33317 0.76957 0.38160
 C1049 C 0.05048 0.07095 0.24560
 C1050 C 0.06405 0.09264 0.24775
 C1051 C 0.08804 0.09221 0.25689
 C1052 C 0.09793 0.06993 0.26513
 C1053 C 0.08448 0.04825 0.26308
 C1054 C 0.06073 0.04809 0.25252
 N1055 N 0.10261 0.11412 0.25626
 N1056 N 0.12541 0.11347 0.26148
 C1057 C 0.14134 0.13430 0.26018
 C1058 C 0.16639 0.13059 0.26438
 C1059 C 0.18301 0.14985 0.26199
 C1060 C 0.17486 0.17344 0.25549
 C1061 C 0.14953 0.17736 0.25180
 C1062 C 0.13284 0.15784 0.25398
 H1063 H 0.03266 0.07219 0.23688
 H1064 H 0.05620 0.10970 0.24130
 H1065 H 0.11629 0.06914 0.27280
 H1066 H 0.09286 0.03173 0.27014
 H1067 H 0.17311 0.11253 0.26917
 H1068 H 0.20232 0.14619 0.26526
 H1069 H 0.14272 0.19533 0.24680
 H1070 H 0.11348 0.16108 0.25063
 C1071 C 0.55550 0.56096 0.71973
 C1072 C 0.56632 0.58427 0.72092
 C1073 C 0.58401 0.58956 0.73885
 C1074 C 0.59082 0.57114 0.75557
 C1075 C 0.58020 0.54791 0.75431
 C1076 C 0.56247 0.54250 0.73637
 N1077 N 0.59547 0.61327 0.73947
 N1078 N 0.61075 0.61854 0.75635
 C1079 C 0.62414 0.64108 0.75779
 C1080 C 0.64212 0.64310 0.77597
 C1081 C 0.65793 0.66315 0.77645
 C1082 C 0.65577 0.68187 0.75894
 C1083 C 0.63679 0.68071 0.74147
 C1084 C 0.62110 0.66024 0.74075
 H1085 H 0.54194 0.55727 0.70566
 H1086 H 0.56097 0.59820 0.70782
 H1087 H 0.60447 0.57461 0.76961
 H1088 H 0.58562 0.53423 0.76765
 H1089 H 0.64460 0.62847 0.78917
 H1090 H 0.67246 0.66368 0.79005
 H1091 H 0.63504 0.69486 0.72765
 H1092 H 0.60726 0.65901 0.72653
 C1093 C 0.93415 0.04763 0.75048
 C1094 C 0.91309 0.06225 0.74859
 C1095 C 0.91488 0.08647 0.74050
 C1096 C 0.93780 0.09556 0.73297
 C1097 C 0.95883 0.08104 0.73471
 C1098 C 0.95766 0.05701 0.74434
 N1099 N 0.89359 0.10191 0.74130
 N1100 N 0.89534 0.12484 0.73748
 C1101 C 0.87482 0.14116 0.73890
 C1102 C 0.87912 0.16623 0.73610
 C1103 C 0.85984 0.18296 0.73819
 C1104 C 0.83574 0.17483 0.74299
 C1105 C 0.83140 0.14953 0.74558
 C1106 C 0.85082 0.13280 0.74363
 H1107 H 0.93192 0.02959 0.75840
 H1108 H 0.89548 0.05501 0.75443
 H1109 H 0.93959 0.11407 0.72604
 H1110 H 0.97590 0.08884 0.72814
 H1111 H 0.89757 0.17285 0.73249
 H1112 H 0.86386 0.20226 0.73596
 H1113 H 0.81308 0.14267 0.74932
 H1114 H 0.84711 0.11344 0.74591
 C1115 C 0.42968 0.55950 0.24946
 C1116 C 0.40784 0.57307 0.24919
 C1117 C 0.40652 0.59514 0.23619
 C1118 C 0.42693 0.60289 0.22237
 C1119 C 0.44865 0.58927 0.22244
 C1120 C 0.45051 0.56777 0.23651
 N1121 N 0.38497 0.61008 0.23841
 N1122 N 0.38483 0.63204 0.23057
 C1123 C 0.36412 0.64800 0.23309
 C1124 C 0.36704 0.67260 0.22670
 C1125 C 0.34777 0.68915 0.22989
 C1126 C 0.32501 0.68127 0.23934
 C1127 C 0.32192 0.65638 0.24534
 C1128 C 0.34141 0.63986 0.24239
 H1129 H 0.43057 0.54311 0.26062
 H1130 H 0.39224 0.56689 0.25991
 H1131 H 0.42627 0.61973 0.21189
 H1132 H 0.46416 0.59582 0.21182
 H1133 H 0.38447 0.67904 0.21952
 H1134 H 0.35071 0.70813 0.22489
 H1135 H 0.30461 0.64978 0.25267
 H1136 H 0.33879 0.62085 0.24744
 C1137 C 0.06250 0.93038 0.74055
 C1138 C 0.08395 0.91619 0.73949
 C1139 C 0.08479 0.89313 0.75057
 C1140 C 0.06385 0.88435 0.76281
 C1141 C 0.04250 0.89843 0.76402
 C1142 C 0.04121 0.92182 0.75291
 N1143 N 0.10690 0.87884 0.74931
 N1144 N 0.10735 0.85707 0.75765
 C1145 C 0.12865 0.84171 0.75725
 C1146 C 0.12598 0.81745 0.76489
 C1147 C 0.14604 0.80160 0.76482
 C1148 C 0.16940 0.80978 0.75727
 C1149 C 0.17220 0.83433 0.74986
 C1150 C 0.15190 0.85021 0.74972
 H1151 H 0.06264 0.94763 0.73083
 H1152 H 0.09991 0.92311 0.72980
 H1153 H 0.06405 0.86668 0.77183
 H1154 H 0.02747 0.89113 0.77479
 H1155 H 0.10817 0.81078 0.77085
 H1156 H 0.14322 0.78291 0.77091
 H1157 H 0.18996 0.84116 0.74396
 H1158 H 0.15435 0.86900 0.74384
 C1159 C 0.56382 0.44292 0.22878
 C1160 C 0.58580 0.42947 0.22858
 C1161 C 0.58881 0.40931 0.24419
 C1162 C 0.56972 0.40302 0.26041
 C1163 C 0.54794 0.41651 0.26080
 C1164 C 0.54456 0.43647 0.24483
 N1165 N 0.61103 0.39516 0.24314
 N1166 N 0.61252 0.37470 0.25423
 C1167 C 0.63398 0.35953 0.25402
 C1168 C 0.63192 0.33575 0.26325
 C1169 C 0.65209 0.32000 0.26303
 C1170 C 0.67495 0.32791 0.25390
 C1171 C 0.67722 0.35204 0.24511
 C1172 C 0.65678 0.36774 0.24496
 H1173 H 0.56177 0.45805 0.21611
 H1174 H 0.60035 0.43451 0.21596
 H1175 H 0.57162 0.38770 0.27288
 H1176 H 0.53378 0.41141 0.27382
 H1177 H 0.61447 0.32931 0.27039
 H1178 H 0.64980 0.30161 0.27017
 H1179 H 0.69463 0.35859 0.23797
 H1180 H 0.65877 0.38616 0.23788
 C1181 C 0.90457 0.96210 0.21884
 C1182 C 0.88850 0.94237 0.22108
 C1183 C 0.89418 0.92273 0.23634
 C1184 C 0.91662 0.92265 0.24909
 C1185 C 0.93284 0.94256 0.24703
 C1186 C 0.92685 0.96305 0.23227
 N1187 N 0.87639 0.90357 0.23879
 N1188 N 0.88029 0.88377 0.25046
 C1189 C 0.86141 0.86553 0.25248
 C1190 C 0.86751 0.84200 0.26062
 C1191 C 0.84956 0.82363 0.26163
 C1192 C 0.82507 0.82868 0.25487
 C1193 C 0.81889 0.85252 0.24737
 C1194 C 0.83690 0.87073 0.24605
 H1195 H 0.89951 0.97631 0.20597
 H1196 H 0.87144 0.94239 0.21082
 H1197 H 0.92134 0.90755 0.26108
 H1198 H 0.94932 0.94221 0.25813
 H1199 H 0.88629 0.83776 0.26572
 H1200 H 0.85488 0.80546 0.26759
 H1201 H 0.80025 0.85699 0.24195
 H1202 H 0.83165 0.88884 0.23986
 C1203 C 0.41445 0.44539 0.70770
 C1204 C 0.39901 0.42512 0.70525
 C1205 C 0.40389 0.40349 0.71808
 C1206 C 0.42539 0.40181 0.73236
 C1207 C 0.44095 0.42216 0.73482
 C1208 C 0.43512 0.44440 0.72317
 N1209 N 0.38557 0.38461 0.71796
 N1210 N 0.38822 0.36413 0.72880
 C1211 C 0.36855 0.34660 0.72964
 C1212 C 0.37319 0.32283 0.73812
 C1213 C 0.35404 0.30572 0.73988
 C1214 C 0.32981 0.31231 0.73362
 C1215 C 0.32524 0.33623 0.72518
 C1216 C 0.34441 0.35315 0.72307
 H1217 H 0.40969 0.46223 0.69832
 H1218 H 0.38256 0.42661 0.69414
 H1219 H 0.42953 0.38524 0.74246
 H1220 H 0.45668 0.42099 0.74696
 H1221 H 0.39166 0.31757 0.74338
 H1222 H 0.35814 0.28745 0.74648
 H1223 H 0.30683 0.34184 0.72003
 H1224 H 0.34027 0.37146 0.71665
 C1225 C 0.06223 0.27662 0.93142
 C1226 C 0.07580 0.27638 0.90950
 C1227 C 0.09449 0.25906 0.90587
 C1228 C 0.09882 0.24135 0.92406
 C1229 C 0.08518 0.24139 0.94573
 C1230 C 0.06706 0.25932 0.94997
 N1231 N 0.10936 0.26003 0.88411
 N1232 N 0.12936 0.24795 0.88278
 C1233 C 0.14521 0.24797 0.86177
 C1234 C 0.16855 0.23749 0.86412
 C1235 C 0.18484 0.23721 0.84434
 C1236 C 0.17791 0.24711 0.82155
 C1237 C 0.15425 0.25732 0.81904
 C1238 C 0.13805 0.25795 0.83910
 H1239 H 0.04851 0.29075 0.93412
 H1240 H 0.07220 0.29012 0.89563
 H1241 H 0.11287 0.22750 0.92161
 H1242 H 0.08894 0.22740 0.95930
 H1243 H 0.17421 0.22965 0.88148
 H1244 H 0.20280 0.22897 0.84683
 H1245 H 0.14840 0.26507 0.80171
 H1246 H 0.12000 0.26603 0.83686
 C1247 C 0.55328 0.75633 0.43351
 C1248 C 0.56722 0.75563 0.41193
 C1249 C 0.58993 0.74357 0.41142
 C1250 C 0.59821 0.73146 0.43265
 C1251 C 0.58425 0.73203 0.45418
 C1252 C 0.56180 0.74482 0.45502
 N1253 N 0.60474 0.74474 0.38964
 N1254 N 0.62658 0.73634 0.38936
 C1255 C 0.64248 0.73777 0.36845
 C1256 C 0.66691 0.73038 0.37125
 C1257 C 0.68356 0.73271 0.35193
 C1258 C 0.67603 0.74231 0.32919
 C1259 C 0.65124 0.74909 0.32609
 C1260 C 0.63457 0.74701 0.34567
 H1261 H 0.53620 0.76655 0.43358
 H1262 H 0.56063 0.76507 0.39574
 H1263 H 0.61562 0.72182 0.43272
 H1264 H 0.59113 0.72257 0.47023
 H1265 H 0.67318 0.72318 0.38867
 H1266 H 0.70242 0.72700 0.35487
 H1267 H 0.64492 0.75651 0.30877
 H1268 H 0.61569 0.75279 0.34310
 C1269 C 0.92465 0.76003 0.94730
 C1270 C 0.90186 0.75755 0.93575
 C1271 C 0.90010 0.74591 0.91306
 C1272 C 0.92142 0.73625 0.90216
 C1273 C 0.94428 0.73883 0.91353
 C1274 C 0.94647 0.75105 0.93625
 N1275 N 0.87686 0.74539 0.90071
 N1276 N 0.87450 0.73445 0.88027
 C1277 C 0.85232 0.73475 0.86625
 C1278 C 0.85252 0.72304 0.84353
 C1279 C 0.83259 0.72528 0.82772
 C1280 C 0.81191 0.73923 0.83443
 C1281 C 0.81107 0.75000 0.85782
 C1282 C 0.83130 0.74791 0.87365
 H1283 H 0.92510 0.77033 0.96425
 H1284 H 0.88560 0.76531 0.94422
 H1285 H 0.92052 0.72700 0.88462
 H1286 H 0.96002 0.73063 0.90459
 H1287 H 0.86860 0.71286 0.83769
 H1288 H 0.83360 0.71650 0.80993
 H1289 H 0.79534 0.76086 0.86336
 H1290 H 0.83084 0.75713 0.89122
 C1291 C 0.43538 0.24255 0.44302
 C1292 C 0.41361 0.24291 0.42934
 C1293 C 0.41348 0.23469 0.40505
 C1294 C 0.43516 0.22491 0.39491
 C1295 C 0.45684 0.22434 0.40859
 C1296 C 0.45736 0.23372 0.43258
 N1297 N 0.39167 0.23753 0.39058
 N1298 N 0.39223 0.23428 0.36749
 C1299 C 0.37125 0.23735 0.35199
 C1300 C 0.37464 0.23542 0.32669
 C1301 C 0.35490 0.23858 0.31072
 C1302 C 0.33118 0.24357 0.31980
 C1303 C 0.32775 0.24546 0.34533
 C1304 C 0.34769 0.24247 0.36134
 H1305 H 0.43523 0.25009 0.46139
 H1306 H 0.39703 0.25046 0.43737
 H1307 H 0.43547 0.21811 0.37626
 H1308 H 0.47330 0.21691 0.40023
 H1309 H 0.39274 0.23152 0.31932
 H1310 H 0.35827 0.23687 0.29121
 H1311 H 0.30973 0.24930 0.35290
 H1312 H 0.34470 0.24407 0.38091
 C1313 C 0.05764 0.74627 0.05842
 C1314 C 0.07882 0.74334 0.07275
 C1315 C 0.08251 0.75797 0.09351
 C1316 C 0.06527 0.77623 0.09931
 C1317 C 0.04437 0.77939 0.08490
 C1318 C 0.04003 0.76417 0.06456
 N1319 N 0.10342 0.75373 0.10889
 N1320 N 0.10415 0.76255 0.13047
 C1321 C 0.12452 0.75927 0.14666
 C1322 C 0.12169 0.76611 0.17118
 C1323 C 0.14113 0.76353 0.18763
 C1324 C 0.16395 0.75436 0.17968
 C1325 C 0.16685 0.74762 0.15495
 C1326 C 0.14718 0.74987 0.13854
 H1327 H 0.05476 0.73412 0.04301
 H1328 H 0.09200 0.72922 0.06808
 H1329 H 0.06790 0.78804 0.11505
 H1330 H 0.03149 0.79374 0.08975
 H1331 H 0.10432 0.77348 0.17754
 H1332 H 0.13841 0.76918 0.20649
 H1333 H 0.18425 0.74055 0.14833
 H1334 H 0.14974 0.74461 0.11957
 C1335 C 0.55136 0.20485 0.58379
 C1336 C 0.57154 0.20482 0.59960
 C1337 C 0.59076 0.22151 0.59626
 C1338 C 0.59022 0.23755 0.57607
 C1339 C 0.56993 0.23766 0.56022
 C1340 C 0.54998 0.22179 0.56440
 N1341 N 0.60951 0.22287 0.61462
 N1342 N 0.62826 0.23672 0.61272
 C1343 C 0.64589 0.23858 0.63216
 C1344 C 0.66865 0.24968 0.62760
 C1345 C 0.68616 0.25166 0.64629
 C1346 C 0.68094 0.24296 0.67003
 C1347 C 0.65787 0.23228 0.67468
 C1348 C 0.64057 0.22993 0.65588
 H1349 H 0.53642 0.19216 0.58721
 H1350 H 0.57182 0.19230 0.61501
 H1351 H 0.60491 0.25063 0.57315
 H1352 H 0.56927 0.25100 0.54553
 H1353 H 0.67290 0.25658 0.60946
 H1354 H 0.70373 0.26011 0.64220
 H1355 H 0.65335 0.22533 0.69274
 H1356 H 0.62299 0.22151 0.65993
 C1357 C 0.92140 0.30207 0.04893
 C1358 C 0.90620 0.30351 0.06951
 C1359 C 0.90960 0.28756 0.08927
 C1360 C 0.92950 0.27107 0.08894
 C1361 C 0.94476 0.26958 0.06827
 C1362 C 0.94024 0.28446 0.04772
 N1363 N 0.89128 0.28700 0.10816
 N1364 N 0.89304 0.27347 0.12709
 C1365 C 0.87354 0.27200 0.14474
 C1366 C 0.87804 0.26093 0.16744
 C1367 C 0.85916 0.25871 0.18474
 C1368 C 0.83528 0.26711 0.17937
 C1369 C 0.83073 0.27794 0.15644
 C1370 C 0.84973 0.28054 0.13934
 H1371 H 0.91769 0.31391 0.03342
 H1372 H 0.89100 0.31635 0.06960
 H1373 H 0.93248 0.25856 0.10406
 H1374 H 0.95904 0.25575 0.06773
 H1375 H 0.89623 0.25407 0.17174
 H1376 H 0.86317 0.25011 0.20220
 H1377 H 0.81255 0.28465 0.15184
 H1378 H 0.84573 0.28892 0.12178
 C1379 C 0.43616 0.72464 0.56452
 C1380 C 0.42355 0.72298 0.58691
 C1381 C 0.40347 0.73832 0.59173
 C1382 C 0.39632 0.75560 0.57398
 C1383 C 0.40891 0.75735 0.55179
 C1384 C 0.42886 0.74181 0.54666
 N1385 N 0.39015 0.73593 0.61435
 N1386 N 0.37021 0.74772 0.61749
 C1387 C 0.35540 0.74640 0.63912
 C1388 C 0.33214 0.75718 0.63830
 C1389 C 0.31642 0.75575 0.65839
 C1390 C 0.32385 0.74381 0.67997
 C1391 C 0.34757 0.73357 0.68119
 C1392 C 0.36325 0.73465 0.66072
 H1393 H 0.45138 0.71231 0.56107
 H1394 H 0.42925 0.70954 0.60038
 H1395 H 0.38100 0.76785 0.57724
 H1396 H 0.40319 0.77119 0.53874
 H1397 H 0.32600 0.76638 0.62179
 H1398 H 0.29835 0.76403 0.65701
 H1399 H 0.35365 0.72422 0.69763
 H1400 H 0.38129 0.72631 0.66171
 C1401 C 0.27244 0.09242 0.95580
 C1402 C 0.27193 0.10777 0.93545
 C1403 C 0.25807 0.10166 0.91488
 C1404 C 0.24498 0.07948 0.91455
 C1405 C 0.24535 0.06393 0.93507
 C1406 C 0.25867 0.07040 0.95642
 N1407 N 0.25736 0.11883 0.89507
 N1408 N 0.24666 0.11482 0.87472
 C1409 C 0.24639 0.13324 0.85595
 C1410 C 0.23807 0.12726 0.83242
 C1411 C 0.23822 0.14486 0.81374
 C1412 C 0.24644 0.16888 0.81844
 C1413 C 0.25435 0.17491 0.84221
 C1414 C 0.25444 0.15726 0.86074
 H1415 H 0.28428 0.09778 0.97082
 H1416 H 0.28242 0.12465 0.93571
 H1417 H 0.23406 0.07444 0.89873
 H1418 H 0.23411 0.04760 0.93441
 H1419 H 0.23172 0.10886 0.82849
 H1420 H 0.23182 0.13968 0.79566
 H1421 H 0.26078 0.19320 0.84647
 H1422 H 0.26080 0.16244 0.87883
 C1423 C 0.79157 0.59230 0.45920
 C1424 C 0.79226 0.60765 0.43876
 C1425 C 0.77704 0.60308 0.41862
 C1426 C 0.76201 0.58211 0.41849
 C1427 C 0.76125 0.56674 0.43899
 C1428 C 0.77545 0.57215 0.45984
 N1429 N 0.77568 0.62109 0.39964
 N1430 N 0.76261 0.61824 0.38051
 C1431 C 0.76032 0.63733 0.36268
 C1432 C 0.74997 0.63201 0.33981
 C1433 C 0.74741 0.65043 0.32217
 C1434 C 0.75476 0.67458 0.32742
 C1435 C 0.76467 0.67995 0.35059
 C1436 C 0.76759 0.66146 0.36801
 H1437 H 0.80298 0.59667 0.47489
 H1438 H 0.80398 0.62370 0.43899
 H1439 H 0.75008 0.57824 0.40308
 H1440 H 0.74854 0.55145 0.43907
 H1441 H 0.74410 0.61353 0.33559
 H1442 H 0.73959 0.64580 0.30450
 H1443 H 0.77059 0.69836 0.35510
 H1444 H 0.77537 0.66607 0.38570
 C1445 C 0.73063 0.05315 0.09467
 C1446 C 0.73188 0.07417 0.10900
 C1447 C 0.74717 0.09355 0.10243
 C1448 C 0.76082 0.09209 0.08059
 C1449 C 0.75971 0.07080 0.06604
 C1450 C 0.74512 0.05050 0.07326
 N1451 N 0.74911 0.11356 0.11929
 N1452 N 0.76007 0.13376 0.11512
 C1453 C 0.76141 0.15187 0.13423
 C1454 C 0.76715 0.17631 0.12866
 C1455 C 0.76743 0.19418 0.14723
 C1456 C 0.76237 0.18771 0.17175
 C1457 C 0.75727 0.16304 0.17721
 C1458 C 0.75669 0.14543 0.15874
 H1459 H 0.71777 0.03913 0.10042
 H1460 H 0.72097 0.07527 0.12560
 H1461 H 0.77286 0.10696 0.07523
 H1462 H 0.77144 0.06995 0.05003
 H1463 H 0.77095 0.18159 0.10989
 H1464 H 0.77156 0.21299 0.14243
 H1465 H 0.75331 0.15728 0.19581
 H1466 H 0.75248 0.12668 0.16370
 C1467 C 0.27742 0.55989 0.56177
 C1468 C 0.27865 0.58083 0.57663
 C1469 C 0.26245 0.58364 0.59643
 C1470 C 0.24440 0.56572 0.60068
 C1471 C 0.24295 0.54509 0.58577
 C1472 C 0.25972 0.54163 0.56643
 N1473 N 0.26473 0.60435 0.61240
 N1474 N 0.25449 0.60406 0.63340
 C1475 C 0.25536 0.62398 0.65034
 C1476 C 0.24734 0.61976 0.67431
 C1477 C 0.24730 0.63864 0.69148
 C1478 C 0.25492 0.66233 0.68483
 C1479 C 0.26288 0.66665 0.66064
 C1480 C 0.26328 0.64752 0.64351
 H1481 H 0.29064 0.55774 0.54707
 H1482 H 0.29262 0.59454 0.57310
 H1483 H 0.23136 0.56765 0.61558
 H1484 H 0.22861 0.53179 0.58941
 H1485 H 0.24109 0.60169 0.67969
 H1486 H 0.24091 0.63474 0.70990
 H1487 H 0.26893 0.68472 0.65505
 H1488 H 0.26942 0.65115 0.62496
 C1489 C 0.77743 0.95605 0.92242
 C1490 C 0.77831 0.93574 0.90687
 C1491 C 0.76291 0.91560 0.91087
 C1492 C 0.74732 0.91551 0.93150
 C1493 C 0.74638 0.93594 0.94714
 C1494 C 0.76093 0.95673 0.94230
 N1495 N 0.76238 0.89655 0.89273
 N1496 N 0.74989 0.87694 0.89501
 C1497 C 0.74884 0.85901 0.87573
 C1498 C 0.73834 0.83604 0.88040
 C1499 C 0.73651 0.81849 0.86173
 C1500 C 0.74478 0.82379 0.83783
 C1501 C 0.75527 0.84690 0.83318
 C1502 C 0.75743 0.86426 0.85195
 H1503 H 0.78911 0.97163 0.91841
 H1504 H 0.79048 0.93603 0.89114
 H1505 H 0.73522 0.90013 0.93497
 H1506 H 0.73339 0.93602 0.96221
 H1507 H 0.73154 0.83174 0.89858
 H1508 H 0.72828 0.80090 0.86591
 H1509 H 0.76198 0.85153 0.81505
 H1510 H 0.76549 0.88192 0.84776
 C1511 C 0.28629 0.45737 0.40894
 C1512 C 0.28795 0.43705 0.39347
 C1513 C 0.27510 0.41552 0.39890
 C1514 C 0.26118 0.41417 0.42059
 C1515 C 0.25940 0.43456 0.43607
 C1516 C 0.27149 0.45658 0.43010
 N1517 N 0.27510 0.39614 0.38119
 N1518 N 0.26484 0.37551 0.38495
 C1519 C 0.26382 0.35718 0.36613
 C1520 C 0.25531 0.33364 0.37186
 C1521 C 0.25310 0.31580 0.35351
 C1522 C 0.25896 0.32146 0.32902
 C1523 C 0.26765 0.34508 0.32340
 C1524 C 0.27017 0.36271 0.34176
 H1525 H 0.29618 0.47390 0.40406
 H1526 H 0.29879 0.43828 0.37684
 H1527 H 0.25101 0.39772 0.42512
 H1528 H 0.24769 0.43343 0.45211
 H1529 H 0.25025 0.32916 0.39055
 H1530 H 0.24634 0.29778 0.35839
 H1531 H 0.27256 0.34995 0.30476
 H1532 H 0.27669 0.38079 0.33679
 C1533 C 0.25312 0.94575 0.06653
 C1534 C 0.25138 0.93254 0.08846
 C1535 C 0.23759 0.91093 0.08954
 C1536 C 0.22475 0.90309 0.06856
 C1537 C 0.22636 0.91633 0.04667
 C1538 C 0.24093 0.93758 0.04526
 N1539 N 0.23803 0.89656 0.11157
 N1540 N 0.22792 0.87555 0.11250
 C1541 C 0.22893 0.86006 0.13368
 C1542 C 0.21977 0.83625 0.13165
 C1543 C 0.22217 0.81976 0.15102
 C1544 C 0.23363 0.82687 0.17302
 C1545 C 0.24199 0.85114 0.17548
 C1546 C 0.23984 0.86761 0.15583
 H1547 H 0.26472 0.96187 0.06602
 H1548 H 0.26143 0.93875 0.10444
 H1549 H 0.21381 0.88652 0.06894
 H1550 H 0.21639 0.90979 0.03077
 H1551 H 0.21127 0.83026 0.11470
 H1552 H 0.21522 0.80130 0.14867
 H1553 H 0.25084 0.85712 0.19224
 H1554 H 0.24701 0.88601 0.15781
 C1555 C 0.74942 0.44834 0.57136
 C1556 C 0.74895 0.43375 0.59248
 C1557 C 0.75912 0.41020 0.59215
 C1558 C 0.77085 0.40182 0.57074
 C1559 C 0.77153 0.41642 0.54975
 C1560 C 0.76029 0.43961 0.54961
 N1561 N 0.75649 0.39466 0.61319
 N1562 N 0.76129 0.37190 0.61171
 C1563 C 0.75888 0.35519 0.63175
 C1564 C 0.76241 0.33031 0.62706
 C1565 C 0.76039 0.31318 0.64587
 C1566 C 0.75498 0.32063 0.67000
 C1567 C 0.75135 0.34573 0.67473
 C1568 C 0.75318 0.36293 0.65569
 H1569 H 0.74047 0.46606 0.57179
 H1570 H 0.73991 0.44046 0.60886
 H1571 H 0.77920 0.38382 0.57010
 H1572 H 0.78059 0.40940 0.53351
 H1573 H 0.76678 0.32418 0.60867
 H1574 H 0.76343 0.29406 0.64148
 H1575 H 0.74716 0.35206 0.69309
 H1576 H 0.75037 0.38215 0.65968
 C1577 C 0.06864 0.04656 0.75321
 C1578 C 0.09003 0.06085 0.75347
 C1579 C 0.08983 0.08419 0.76410
 C1580 C 0.06841 0.09250 0.77590
 C1581 C 0.04714 0.07817 0.77587
 C1582 C 0.04676 0.05540 0.76379
 N1583 N 0.11090 0.09973 0.76129
 N1584 N 0.10992 0.12244 0.76648
 C1585 C 0.13029 0.13868 0.76297
 C1586 C 0.12669 0.16377 0.76666
 C1587 C 0.14576 0.18037 0.76234
 C1588 C 0.16895 0.17208 0.75441
 C1589 C 0.17264 0.14677 0.75108
 C1590 C 0.15343 0.13020 0.75521
 H1591 H 0.06890 0.02916 0.74366
 H1592 H 0.10644 0.05421 0.74438
 H1593 H 0.06791 0.11032 0.78459
 H1594 H 0.03076 0.08521 0.78471
 H1595 H 0.10892 0.17049 0.77262
 H1596 H 0.14234 0.19969 0.76533
 H1597 H 0.19028 0.13977 0.74506
 H1598 H 0.15663 0.11085 0.75224
 C1599 C 0.54373 0.59144 0.22685
 C1600 C 0.56424 0.60673 0.22684
 C1601 C 0.58351 0.60277 0.24328
 C1602 C 0.58231 0.58291 0.25967
 C1603 C 0.56155 0.56760 0.25987
 C1604 C 0.54186 0.57198 0.24367
 N1605 N 0.60329 0.62005 0.24348
 N1606 N 0.62313 0.61720 0.25553
 C1607 C 0.64156 0.63602 0.25539
 C1608 C 0.66531 0.63094 0.26397
 C1609 C 0.68352 0.64915 0.26362
 C1610 C 0.67800 0.67286 0.25508
 C1611 C 0.65405 0.67791 0.24681
 C1612 C 0.63608 0.65969 0.24683
 H1613 H 0.52919 0.59498 0.21374
 H1614 H 0.56504 0.62193 0.21409
 H1615 H 0.59703 0.57963 0.27263
 H1616 H 0.56061 0.55284 0.27310
 H1617 H 0.66977 0.61281 0.27071
 H1618 H 0.70178 0.64477 0.27025
 H1619 H 0.64921 0.69594 0.24006
 H1620 H 0.61783 0.66420 0.24027
 C1621 C 0.08637 0.96084 0.21946
 C1622 C 0.10216 0.94071 0.21851
 C1623 C 0.09611 0.91893 0.23058
 C1624 C 0.07338 0.91707 0.24281
 C1625 C 0.05748 0.93729 0.24377
 C1626 C 0.06418 0.95957 0.23266
 N1627 N 0.11414 0.89982 0.23140
 N1628 N 0.11048 0.87918 0.24165
 C1629 C 0.12968 0.86119 0.24310
 C1630 C 0.12422 0.83757 0.25154
 C1631 C 0.14281 0.81990 0.25352
 C1632 C 0.16730 0.82573 0.24743
 C1633 C 0.17269 0.84952 0.23907
 C1634 C 0.15409 0.86702 0.23683
 H1635 H 0.09182 0.97766 0.21041
 H1636 H 0.11956 0.94232 0.20894
 H1637 H 0.06832 0.90038 0.25228
 H1638 H 0.04052 0.93588 0.25413
 H1639 H 0.10552 0.83285 0.25653
 H1640 H 0.13804 0.80174 0.25998
 H1641 H 0.19129 0.85459 0.23400
 H1642 H 0.15887 0.88517 0.23038
 C1643 C 0.59174 0.45347 0.76041
 C1644 C 0.60824 0.43396 0.76220
 C1645 C 0.60411 0.41222 0.74929
 C1646 C 0.58274 0.40993 0.73493
 C1647 C 0.56619 0.42957 0.73299
 C1648 C 0.57077 0.45175 0.74536
 N1649 N 0.62252 0.39344 0.75034
 N1650 N 0.61989 0.37234 0.74073
 C1651 C 0.63930 0.35450 0.74153
 C1652 C 0.63448 0.33029 0.73450
 C1653 C 0.65316 0.31260 0.73514
 C1654 C 0.67717 0.31897 0.74247
 C1655 C 0.68198 0.34337 0.74925
 C1656 C 0.66325 0.36091 0.74892
 H1657 H 0.59557 0.47006 0.77060
 H1658 H 0.62457 0.43591 0.77343
 H1659 H 0.57918 0.39328 0.72474
 H1660 H 0.55030 0.42772 0.72115
 H1661 H 0.61616 0.32510 0.72865
 H1662 H 0.64887 0.29401 0.72969
 H1663 H 0.70021 0.34890 0.75506
 H1664 H 0.66755 0.37952 0.75429
 C1665 C 0.91408 0.05420 0.20248
 C1666 C 0.90006 0.07558 0.20146
 C1667 C 0.90562 0.09543 0.21669
 C1668 C 0.92631 0.09422 0.23211
 C1669 C 0.94039 0.07279 0.23316
 C1670 C 0.93392 0.05230 0.21890
 N1671 N 0.88858 0.11535 0.21784
 N1672 N 0.89200 0.13427 0.23105
 C1673 C 0.87336 0.15270 0.23327
 C1674 C 0.87873 0.17473 0.24530
 C1675 C 0.86030 0.19231 0.24893
 C1676 C 0.83611 0.18780 0.24096
 C1677 C 0.83089 0.16575 0.22870
 C1678 C 0.84933 0.14845 0.22478
 H1679 H 0.90890 0.03881 0.19105
 H1680 H 0.88417 0.07634 0.18950
 H1681 H 0.93090 0.10935 0.24410
 H1682 H 0.95547 0.07176 0.24611
 H1683 H 0.89715 0.17818 0.25204
 H1684 H 0.86485 0.20916 0.25838
 H1685 H 0.81251 0.16186 0.22206
 H1686 H 0.84463 0.13152 0.21556
 C1687 C 0.40926 0.52868 0.76384
 C1688 C 0.39366 0.54863 0.76767
 C1689 C 0.39945 0.57164 0.75799
 C1690 C 0.42160 0.57477 0.74505
 C1691 C 0.43728 0.55477 0.74117
 C1692 C 0.43100 0.53140 0.75011
 N1693 N 0.38178 0.59095 0.76041
 N1694 N 0.38541 0.61262 0.75254
 C1695 C 0.36659 0.63096 0.75428
 C1696 C 0.37188 0.65518 0.74759
 C1697 C 0.35351 0.67317 0.74841
 C1698 C 0.32941 0.66707 0.75567
 C1699 C 0.32424 0.64274 0.76242
 C1700 C 0.34261 0.62491 0.76183
 H1701 H 0.40412 0.51101 0.77129
 H1702 H 0.37667 0.54603 0.77774
 H1703 H 0.42643 0.59241 0.73735
 H1704 H 0.45381 0.55737 0.73036
 H1705 H 0.39025 0.66008 0.74162
 H1706 H 0.35805 0.69173 0.74300
 H1707 H 0.30594 0.63741 0.76822
 H1708 H 0.33796 0.60632 0.76699
 C1709 C 0.92946 0.93592 0.75465
 C1710 C 0.90716 0.92317 0.75594
 C1711 C 0.90575 0.90073 0.76827
 C1712 C 0.92678 0.89158 0.78018
 C1713 C 0.94902 0.90437 0.77907
 C1714 C 0.95077 0.92645 0.76588
 N1715 N 0.88327 0.88700 0.76743
 N1716 N 0.88215 0.86515 0.77551
 C1717 C 0.86034 0.85051 0.77418
 C1718 C 0.86192 0.82581 0.78073
 C1719 C 0.84157 0.81043 0.77830
 C1720 C 0.81905 0.81957 0.76947
 C1721 C 0.81724 0.84460 0.76356
 C1722 C 0.83780 0.85995 0.76574
 H1723 H 0.93022 0.95274 0.74414
 H1724 H 0.89111 0.93041 0.74666
 H1725 H 0.92613 0.87437 0.79004
 H1726 H 0.96494 0.89683 0.78832
 H1727 H 0.87917 0.81836 0.78730
 H1728 H 0.84353 0.79132 0.78329
 H1729 H 0.80013 0.85217 0.75676
 H1730 H 0.83615 0.87905 0.76063
 C1731 C 0.43148 0.44548 0.24293
 C1732 C 0.40972 0.43182 0.24396
 C1733 C 0.40902 0.40953 0.25659
 C1734 C 0.43019 0.40144 0.26903
 C1735 C 0.45189 0.41515 0.26818
 C1736 C 0.45295 0.43712 0.25473
 N1737 N 0.38718 0.39482 0.25551
 N1738 N 0.38699 0.37301 0.26374
 C1739 C 0.36601 0.35724 0.26227
 C1740 C 0.36899 0.33269 0.26881
 C1741 C 0.34960 0.31618 0.26628
 C1742 C 0.32660 0.32401 0.25739
 C1743 C 0.32331 0.34889 0.25154
 C1744 C 0.34298 0.36541 0.25377
 H1745 H 0.43172 0.46217 0.23218
 H1746 H 0.39358 0.43824 0.23424
 H1747 H 0.43009 0.38436 0.27913
 H1748 H 0.46791 0.40843 0.27788
 H1749 H 0.38662 0.32622 0.27544
 H1750 H 0.35265 0.29722 0.27130
 H1751 H 0.30578 0.35543 0.24474
 H1752 H 0.34027 0.38439 0.24868
   
