data_POSCAR
  _audit_creation_date              2014-09-24
  _audit_creation_method            'ToBaCCo'
  _symmetry_space_group_name_H-M    'P1'
  _symmetry_Int_Tables_number       1
  _symmetry_cell_setting            triclinic
  loop_
  _symmetry_equiv_pos_as_xyz
 x,y,z
_cell_length_a 105.2591
_cell_length_b 105.3389
_cell_length_c 105.5515
_cell_angle_alpha 89.984300
_cell_angle_beta 89.985000
_cell_angle_gamma 89.952100
loop_
  _atom_site_label
  _atom_site_type_symbol
  _atom_site_fract_x
  _atom_site_fract_y
  _atom_site_fract_z
N1 N 0.35600 0.32095 0.32981
 N2 N 0.35584 0.32977 0.32101
 C3 C 0.36567 0.32785 0.31306
 C4 C 0.37237 0.31723 0.31707
 C5 C 0.36590 0.31314 0.32776
 H6 H 0.36776 0.33375 0.30496
 H7 H 0.36818 0.30508 0.33367
 Cu8 Cu 0.34269 0.34276 0.32077
 Cu9 Cu 0.34332 0.32011 0.34324
 Cu10 Cu 0.32001 0.34341 0.34323
 N11 N 0.32969 0.35591 0.32100
 N12 N 0.32085 0.35606 0.32979
 C13 C 0.31304 0.36596 0.32774
 C14 C 0.31714 0.37242 0.31704
 C15 C 0.32777 0.36572 0.31304
 H16 H 0.30496 0.36824 0.33363
 H17 H 0.33368 0.36780 0.30494
 N18 N 0.32081 0.32977 0.35599
 N19 N 0.32967 0.32091 0.35599
 C20 C 0.32765 0.31303 0.36583
 C21 C 0.31698 0.31708 0.37239
 C22 C 0.31292 0.32775 0.36583
 H23 H 0.33356 0.30495 0.36804
 H24 H 0.30482 0.33365 0.36804
 H25 H 0.32890 0.32899 0.33330
 H26 H 0.33922 0.33932 0.34336
 N27 N 0.35635 0.82122 -0.17021
 N28 N 0.35603 0.82983 -0.17920
 C29 C 0.36555 0.82758 -0.18743
 C30 C 0.37231 0.81697 -0.18336
 C31 C 0.36607 0.81320 -0.17238
 H32 H 0.36744 0.83333 -0.19567
 H33 H 0.36844 0.80535 -0.16624
 Cu34 Cu 0.34338 0.84338 -0.17910
 Cu35 Cu 0.34458 0.82145 -0.15599
 Cu36 Cu 0.32014 0.84345 -0.15709
 N37 N 0.33002 0.85621 -0.17909
 N38 N 0.32099 0.85615 -0.17050
 C39 C 0.31305 0.86592 -0.17266
 C40 C 0.31726 0.87257 -0.18324
 C41 C 0.32810 0.86603 -0.18704
 H42 H 0.30482 0.86796 -0.16690
 H43 H 0.33419 0.86821 -0.19498
 N44 N 0.32107 0.82985 -0.14427
 N45 N 0.33038 0.82149 -0.14383
 C46 C 0.32838 0.81355 -0.13403
 C47 C 0.31726 0.81710 -0.12791
 C48 C 0.31291 0.82748 -0.13473
 H49 H 0.33462 0.80581 -0.13151
 H50 H 0.30444 0.83297 -0.13288
 H51 H 0.33007 0.82927 -0.16655
 H52 H 0.33935 0.84050 -0.15645
 N53 N 0.85575 0.32127 -0.17031
 N54 N 0.85567 0.33017 -0.17902
 C55 C 0.86548 0.32824 -0.18701
 C56 C 0.87208 0.31752 -0.18310
 C57 C 0.86557 0.31339 -0.17244
 H58 H 0.86765 0.33423 -0.19503
 H59 H 0.86779 0.30526 -0.16661
 Cu60 Cu 0.84282 0.34347 -0.17899
 Cu61 Cu 0.84315 0.32051 -0.15681
 Cu62 Cu 0.81986 0.34383 -0.15679
 N63 N 0.82954 0.35633 -0.17901
 N64 N 0.82064 0.35643 -0.17029
 C65 C 0.81277 0.36626 -0.17241
 C66 C 0.81690 0.37279 -0.18309
 C67 C 0.82762 0.36613 -0.18700
 H68 H 0.80467 0.36844 -0.16652
 H69 H 0.83365 0.36823 -0.19501
 N70 N 0.82071 0.33024 -0.14398
 N71 N 0.82957 0.32138 -0.14399
 C72 C 0.82754 0.31348 -0.13418
 C73 C 0.81687 0.31753 -0.12761
 C74 C 0.81281 0.32820 -0.13416
 H75 H 0.83341 0.30535 -0.13201
 H76 H 0.80469 0.33408 -0.13197
 H77 H 0.82892 0.32961 -0.16673
 H78 H 0.83911 0.33977 -0.15642
 N79 N 0.85591 0.82130 0.32985
 N80 N 0.85586 0.83023 0.32116
 C81 C 0.86569 0.82832 0.31320
 C82 C 0.87228 0.81759 0.31710
 C83 C 0.86576 0.81344 0.32773
 H84 H 0.86784 0.83430 0.30516
 H85 H 0.86796 0.80530 0.33356
 Cu86 Cu 0.84276 0.84328 0.32110
 Cu87 Cu 0.84320 0.82040 0.34325
 Cu88 Cu 0.81987 0.84372 0.34325
 N89 N 0.82970 0.85637 0.32115
 N90 N 0.82077 0.85643 0.32984
 C91 C 0.81289 0.86626 0.32772
 C92 C 0.81705 0.87281 0.31706
 C93 C 0.82781 0.86618 0.31319
 H94 H 0.80476 0.86841 0.33358
 H95 H 0.83383 0.86828 0.30517
 N96 N 0.82064 0.83003 0.35597
 N97 N 0.82950 0.82117 0.35597
 C98 C 0.82747 0.81327 0.36579
 C99 C 0.81679 0.81732 0.37235
 C100 C 0.81274 0.82799 0.36580
 H101 H 0.83338 0.80519 0.36800
 H102 H 0.80465 0.83390 0.36803
 H103 H 0.82888 0.82942 0.33335
 H104 H 0.83907 0.83961 0.34362
 N105 N 0.64390 0.67919 0.32995
 N106 N 0.64406 0.67036 0.32117
 C107 C 0.63426 0.67229 0.31319
 C108 C 0.62756 0.68291 0.31719
 C109 C 0.63401 0.68701 0.32789
 H110 H 0.63222 0.66642 0.30505
 H111 H 0.63173 0.69508 0.33377
 Cu112 Cu 0.65722 0.65738 0.32091
 Cu113 Cu 0.65656 0.68002 0.34338
 Cu114 Cu 0.67988 0.65673 0.34338
 N115 N 0.67021 0.64423 0.32117
 N116 N 0.67905 0.64408 0.32995
 C117 C 0.68688 0.63419 0.32788
 C118 C 0.68278 0.62775 0.31718
 C119 C 0.67214 0.63444 0.31319
 H120 H 0.69496 0.63192 0.33376
 H121 H 0.66627 0.63241 0.30505
 N122 N 0.67905 0.67034 0.35615
 N123 N 0.67018 0.67919 0.35615
 C124 C 0.67222 0.68710 0.36595
 C125 C 0.68290 0.68307 0.37250
 C126 C 0.68696 0.67239 0.36596
 H127 H 0.66635 0.69523 0.36812
 H128 H 0.69509 0.66653 0.36814
 H129 H 0.67102 0.67117 0.33340
 H130 H 0.66071 0.66086 0.34348
 N131 N 0.64409 0.17906 -0.17032
 N132 N 0.64429 0.17027 -0.17915
 C133 C 0.63448 0.17222 -0.18713
 C134 C 0.62776 0.18282 -0.18310
 C135 C 0.63420 0.18689 -0.17239
 H136 H 0.63241 0.16633 -0.19525
 H137 H 0.63193 0.19495 -0.16649
 Cu138 Cu 0.65731 0.15713 -0.17915
 Cu139 Cu 0.65665 0.17981 -0.15678
 Cu140 Cu 0.68001 0.15652 -0.15680
 N141 N 0.67048 0.14414 -0.17917
 N142 N 0.67928 0.14395 -0.17035
 C143 C 0.68712 0.13407 -0.17242
 C144 C 0.68305 0.12760 -0.18316
 C145 C 0.67242 0.13435 -0.18716
 H146 H 0.69518 0.13186 -0.16650
 H147 H 0.66648 0.13234 -0.19525
 N148 N 0.67909 0.17008 -0.14393
 N149 N 0.67021 0.17892 -0.14393
 C150 C 0.67221 0.18681 -0.13410
 C151 C 0.68289 0.18278 -0.12754
 C152 C 0.68697 0.17212 -0.13410
 H153 H 0.66632 0.19492 -0.13193
 H154 H 0.69511 0.16627 -0.13191
 H155 H 0.67108 0.17094 -0.16668
 H156 H 0.66081 0.16064 -0.15658
 N157 N 0.14417 0.67932 -0.17024
 N158 N 0.14402 0.67023 -0.17875
 C159 C 0.13391 0.67189 -0.18640
 C160 C 0.12736 0.68265 -0.18251
 C161 C 0.13419 0.68708 -0.17218
 H162 H 0.13162 0.66580 -0.19430
 H163 H 0.13224 0.69544 -0.16659
 Cu164 Cu 0.15734 0.65740 -0.17934
 Cu165 Cu 0.15774 0.68090 -0.15783
 Cu166 Cu 0.17979 0.65651 -0.15657
 N167 N 0.17035 0.64427 -0.17902
 N168 N 0.17901 0.64393 -0.17007
 C169 C 0.18678 0.63400 -0.17210
 C170 C 0.18281 0.62769 -0.18293
 C171 C 0.17232 0.63452 -0.18705
 H172 H 0.19476 0.63162 -0.16612
 H173 H 0.16656 0.63260 -0.19529
 N174 N 0.17897 0.67020 -0.14387
 N175 N 0.17059 0.67950 -0.14436
 C176 C 0.17260 0.68741 -0.13454
 C177 C 0.18280 0.68293 -0.12753
 C178 C 0.18655 0.67197 -0.13376
 H179 H 0.16708 0.69587 -0.13274
 H180 H 0.19429 0.66574 -0.13120
 H181 H 0.17195 0.67076 -0.16720
 H182 H 0.16078 0.66158 -0.15695
 N183 N 0.14388 0.17914 0.32986
 N184 N 0.14396 0.17024 0.32114
 C185 C 0.13417 0.17219 0.31316
 C186 C 0.12755 0.18289 0.31707
 C187 C 0.13405 0.18703 0.32772
 H188 H 0.13203 0.16624 0.30510
 H189 H 0.13186 0.19518 0.33353
 Cu190 Cu 0.15679 0.15694 0.32117
 Cu191 Cu 0.15652 0.17995 0.34329
 Cu192 Cu 0.17984 0.15667 0.34328
 N193 N 0.17012 0.14412 0.32113
 N194 N 0.17903 0.14403 0.32984
 C195 C 0.18692 0.13422 0.32770
 C196 C 0.18278 0.12773 0.31704
 C197 C 0.17206 0.13434 0.31314
 H198 H 0.19508 0.13203 0.33350
 H199 H 0.16610 0.13221 0.30509
 N200 N 0.17901 0.17027 0.35606
 N201 N 0.17014 0.17912 0.35606
 C202 C 0.17219 0.18703 0.36587
 C203 C 0.18288 0.18300 0.37240
 C204 C 0.18693 0.17232 0.36586
 H205 H 0.16630 0.19514 0.36805
 H206 H 0.19505 0.16645 0.36805
 H207 H 0.17072 0.17085 0.33329
 H208 H 0.16058 0.16071 0.34370
 N209 N 0.64395 0.32094 0.67013
 N210 N 0.64408 0.32979 0.67889
 C211 C 0.63432 0.32785 0.68690
 C212 C 0.62758 0.31726 0.68290
 C213 C 0.63404 0.31314 0.67220
 H214 H 0.63217 0.33383 0.69493
 H215 H 0.63177 0.30507 0.66633
 Cu216 Cu 0.65695 0.34307 0.67886
 Cu217 Cu 0.65656 0.32016 0.65663
 Cu218 Cu 0.67989 0.34345 0.65663
 N219 N 0.67025 0.35592 0.67889
 N220 N 0.67911 0.35605 0.67014
 C221 C 0.68692 0.36595 0.67221
 C222 C 0.68279 0.37240 0.68291
 C223 C 0.67219 0.36567 0.68691
 H224 H 0.69501 0.36822 0.66634
 H225 H 0.66620 0.36780 0.69493
 N226 N 0.67904 0.32984 0.64383
 N227 N 0.67018 0.32100 0.64383
 C228 C 0.67220 0.31312 0.63399
 C229 C 0.68287 0.31714 0.62744
 C230 C 0.68692 0.32781 0.63398
 H231 H 0.66629 0.30504 0.63178
 H232 H 0.69501 0.33370 0.63176
 H233 H 0.67088 0.32915 0.66652
 H234 H 0.66068 0.33936 0.65627
 N235 N 0.64398 0.82102 1.17022
 N236 N 0.64406 0.82992 1.17893
 C237 C 0.63425 0.82800 1.18691
 C238 C 0.62764 0.81731 1.18300
 C239 C 0.63415 0.81316 1.17235
 H240 H 0.63207 0.83400 1.19491
 H241 H 0.63193 0.80504 1.16651
 Cu242 Cu 0.65691 0.84317 1.17889
 Cu243 Cu 0.65658 0.82024 1.15671
 Cu244 Cu 0.67989 0.84349 1.15671
 N245 N 0.67020 0.85600 1.17892
 N246 N 0.67911 0.85607 1.17021
 C247 C 0.68699 0.86588 1.17234
 C248 C 0.68284 0.87237 1.18299
 C249 C 0.67212 0.86579 1.18690
 H250 H 0.69512 0.86809 1.16651
 H251 H 0.66612 0.86797 1.19491
 N252 N 0.67903 0.82993 1.14390
 N253 N 0.67017 0.82109 1.14390
 C254 C 0.67221 0.81320 1.13408
 C255 C 0.68289 0.81724 1.12753
 C256 C 0.68694 0.82790 1.13408
 H257 H 0.66634 0.80509 1.13190
 H258 H 0.69506 0.83376 1.13191
 H259 H 0.67080 0.82930 1.16664
 H260 H 0.66063 0.83949 1.15632
 N261 N 0.14399 0.32102 1.17020
 N262 N 0.14416 0.32984 1.17900
 C263 C 0.13438 0.32791 1.18701
 C264 C 0.12769 0.31728 1.18303
 C265 C 0.13412 0.31320 1.17230
 H266 H 0.13229 0.33383 1.19509
 H267 H 0.13179 0.30519 1.16636
 Cu268 Cu 0.15710 0.34302 1.17897
 Cu269 Cu 0.15655 0.32028 1.15666
 Cu270 Cu 0.17987 0.34357 1.15664
 N271 N 0.17029 0.35596 1.17897
 N272 N 0.17912 0.35612 1.17017
 C273 C 0.18695 0.36598 1.17225
 C274 C 0.18287 0.37241 1.18297
 C275 C 0.17224 0.36572 1.18697
 H276 H 0.19497 0.36830 1.16630
 H277 H 0.16631 0.36782 1.19505
 N278 N 0.17897 0.33002 1.14381
 N279 N 0.17012 0.32117 1.14382
 C280 C 0.17212 0.31330 1.13396
 C281 C 0.18279 0.31736 1.12740
 C282 C 0.18684 0.32801 1.13395
 H283 H 0.16624 0.30521 1.13177
 H284 H 0.19494 0.33389 1.13175
 H285 H 0.17095 0.32921 1.16659
 H286 H 0.16068 0.33948 1.15641
 N287 N 0.14391 0.82117 0.66996
 N288 N 0.14409 0.82997 0.67877
 C289 C 0.13426 0.82808 0.68673
 C290 C 0.12755 0.81748 0.68273
 C291 C 0.13401 0.81338 0.67202
 H292 H 0.13217 0.83399 0.69483
 H293 H 0.13174 0.80531 0.66614
 Cu294 Cu 0.15724 0.84294 0.67900
 Cu295 Cu 0.15659 0.82032 0.65653
 Cu296 Cu 0.17989 0.84358 0.65651
 N297 N 0.17023 0.85606 0.67875
 N298 N 0.17903 0.85623 0.66994
 C299 C 0.18684 0.86612 0.67199
 C300 C 0.18274 0.87257 0.68269
 C301 C 0.17213 0.86588 0.68670
 H302 H 0.19491 0.86839 0.66610
 H303 H 0.16622 0.86798 0.69481
 N304 N 0.17910 0.82994 0.64378
 N305 N 0.17024 0.82110 0.64378
 C306 C 0.17226 0.81323 0.63393
 C307 C 0.18292 0.81728 0.62737
 C308 C 0.18698 0.82793 0.63393
 H309 H 0.16633 0.80517 0.63171
 H310 H 0.19504 0.83385 0.63170
 H311 H 0.17101 0.82918 0.66644
 H312 H 0.16067 0.83952 0.65642
 N313 N 0.35603 0.67920 0.67004
 N314 N 0.35588 0.67032 0.67877
 C315 C 0.36567 0.67222 0.68678
 C316 C 0.37233 0.68289 0.68288
 C317 C 0.36587 0.68704 0.67218
 H318 H 0.36773 0.66628 0.69486
 H319 H 0.36811 0.69516 0.66635
 Cu320 Cu 0.34282 0.65723 0.67878
 Cu321 Cu 0.34339 0.68003 0.65658
 Cu322 Cu 0.32003 0.65666 0.65656
 N323 N 0.32973 0.64416 0.67875
 N324 N 0.32086 0.64401 0.67001
 C325 C 0.31302 0.63416 0.67214
 C326 C 0.31717 0.62770 0.68284
 C327 C 0.32784 0.63437 0.68675
 H328 H 0.30490 0.63192 0.66631
 H329 H 0.33377 0.63230 0.69484
 N330 N 0.32089 0.67031 0.64378
 N331 N 0.32974 0.67917 0.64379
 C332 C 0.32771 0.68706 0.63396
 C333 C 0.31705 0.68301 0.62741
 C334 C 0.31301 0.67234 0.63394
 H335 H 0.33359 0.69515 0.63175
 H336 H 0.30491 0.66646 0.63173
 H337 H 0.32893 0.67111 0.66639
 H338 H 0.33916 0.66091 0.65620
 N339 N 0.35611 0.17909 1.17002
 N340 N 0.35594 0.17022 1.17877
 C341 C 0.36578 0.17205 1.18673
 C342 C 0.37245 0.18271 1.18283
 C343 C 0.36597 0.18690 1.17216
 H344 H 0.36789 0.16606 1.19476
 H345 H 0.36821 0.19505 1.16635
 Cu346 Cu 0.34290 0.15714 1.17880
 Cu347 Cu 0.34347 0.17992 1.15657
 Cu348 Cu 0.32011 0.15658 1.15657
 N349 N 0.32981 0.14410 1.17876
 N350 N 0.32094 0.14395 1.17001
 C351 C 0.31311 0.13410 1.17214
 C352 C 0.31728 0.12762 1.18280
 C353 C 0.32795 0.13427 1.18671
 H354 H 0.30496 0.13188 1.16632
 H355 H 0.33394 0.13216 1.19475
 N356 N 0.32097 0.17021 1.14381
 N357 N 0.32982 0.17907 1.14380
 C358 C 0.32775 0.18698 1.13400
 C359 C 0.31708 0.18293 1.12747
 C360 C 0.31304 0.17227 1.13401
 H361 H 0.33358 0.19512 1.13183
 H362 H 0.30490 0.16643 1.13186
 H363 H 0.32899 0.17102 1.16645
 H364 H 0.33925 0.16077 1.15628
 N365 N 0.85567 0.67935 1.17037
 N366 N 0.85592 0.67015 1.17878
 C367 C 0.86599 0.67182 1.18646
 C368 C 0.87243 0.68268 1.18269
 C369 C 0.86555 0.68717 1.17241
 H370 H 0.86842 0.66560 1.19423
 H371 H 0.86745 0.69558 1.16687
 Cu372 Cu 0.84293 0.65699 1.17885
 Cu373 Cu 0.84221 0.68079 1.15778
 Cu374 Cu 0.82009 0.65649 1.15654
 N375 N 0.82961 0.64420 1.17899
 N376 N 0.82082 0.64400 1.17015
 C377 C 0.81296 0.63418 1.17227
 C378 C 0.81699 0.62779 1.18304
 C379 C 0.82761 0.63448 1.18704
 H380 H 0.80491 0.63189 1.16636
 H381 H 0.83351 0.63240 1.19515
 N382 N 0.82098 0.67014 1.14379
 N383 N 0.82938 0.67942 1.14426
 C384 C 0.82738 0.68732 1.13443
 C385 C 0.81718 0.68285 1.12742
 C386 C 0.81341 0.67191 1.13368
 H387 H 0.83291 0.69575 1.13260
 H388 H 0.80566 0.66571 1.13113
 H389 H 0.82821 0.67050 1.16713
 H390 H 0.83917 0.66145 1.15654
 N391 N 0.85598 0.17903 0.67000
 N392 N 0.85582 0.17021 0.67880
 C393 C 0.86562 0.17213 0.68678
 C394 C 0.87231 0.18274 0.68278
 C395 C 0.86586 0.18684 0.67207
 H396 H 0.86768 0.16625 0.69491
 H397 H 0.86813 0.19491 0.66618
 Cu398 Cu 0.84269 0.15723 0.67902
 Cu399 Cu 0.84332 0.17986 0.65656
 Cu400 Cu 0.82003 0.15657 0.65655
 N401 N 0.82971 0.14409 0.67879
 N402 N 0.82089 0.14392 0.66999
 C403 C 0.81308 0.13404 0.67205
 C404 C 0.81717 0.12760 0.68276
 C405 C 0.82779 0.13429 0.68677
 H406 H 0.80501 0.13177 0.66616
 H407 H 0.83366 0.13224 0.69490
 N408 N 0.82084 0.17019 0.64379
 N409 N 0.82968 0.17905 0.64379
 C410 C 0.82764 0.18694 0.63396
 C411 C 0.81697 0.18288 0.62741
 C412 C 0.81294 0.17221 0.63397
 H413 H 0.83352 0.19503 0.63176
 H414 H 0.80484 0.16632 0.63177
 H415 H 0.82887 0.17100 0.66650
 H416 H 0.83921 0.16069 0.65645
 N417 N 0.32090 0.35620 0.66992
 N418 N 0.32984 0.35614 0.67860
 C419 C 0.32793 0.36593 0.68659
 C420 C 0.31720 0.37253 0.68269
 C421 C 0.31303 0.36603 0.67205
 H422 H 0.33390 0.36807 0.69462
 H423 H 0.30485 0.36821 0.66626
 Cu424 Cu 0.34294 0.34309 0.67852
 Cu425 Cu 0.31999 0.34351 0.65650
 Cu426 Cu 0.34334 0.32016 0.65651
 N427 N 0.35598 0.32999 0.67861
 N428 N 0.35604 0.32106 0.66994
 C429 C 0.36587 0.31318 0.67208
 C430 C 0.37237 0.31734 0.68272
 C431 C 0.36578 0.32807 0.68661
 H432 H 0.36804 0.30501 0.66629
 H433 H 0.36792 0.33404 0.69464
 N434 N 0.32966 0.32097 0.64378
 N435 N 0.32079 0.32983 0.64378
 C436 C 0.31289 0.32778 0.63396
 C437 C 0.31693 0.31710 0.62743
 C438 C 0.32761 0.31306 0.63398
 H439 H 0.30479 0.33368 0.63176
 H440 H 0.33350 0.30496 0.63178
 H441 H 0.32901 0.32920 0.66641
 H442 H 0.33919 0.33935 0.65606
 N443 N 0.32092 0.85624 0.16990
 N444 N 0.32973 0.85607 0.17870
 C445 C 0.32782 0.86589 0.18665
 C446 C 0.31721 0.87260 0.18263
 C447 C 0.31312 0.86615 0.17194
 H448 H 0.33373 0.86799 0.19474
 H449 H 0.30505 0.86844 0.16605
 Cu450 Cu 0.34270 0.84291 0.17900
 Cu451 Cu 0.32013 0.84362 0.15643
 Cu452 Cu 0.34342 0.82032 0.15646
 N453 N 0.35586 0.82993 0.17874
 N454 N 0.35603 0.82112 0.16994
 C455 C 0.36593 0.81331 0.17200
 C456 C 0.37238 0.81740 0.18270
 C457 C 0.36568 0.82802 0.18670
 H458 H 0.36822 0.80524 0.16612
 H459 H 0.36777 0.83394 0.19479
 N460 N 0.32983 0.82115 0.14366
 N461 N 0.32097 0.83001 0.14365
 C462 C 0.31310 0.82800 0.13380
 C463 C 0.31717 0.81734 0.12724
 C464 C 0.32783 0.81327 0.13382
 H465 H 0.30501 0.83389 0.13158
 H466 H 0.33372 0.80518 0.13163
 H467 H 0.32894 0.82915 0.16637
 H468 H 0.33931 0.83949 0.15640
 N469 N 0.82081 0.35621 0.17001
 N470 N 0.82960 0.35601 0.17883
 C471 C 0.82767 0.36580 0.18682
 C472 C 0.81706 0.37252 0.18280
 C473 C 0.81298 0.36609 0.17209
 H474 H 0.83357 0.36786 0.19493
 H475 H 0.80491 0.36837 0.16619
 Cu476 Cu 0.84275 0.34302 0.17883
 Cu477 Cu 0.82006 0.34366 0.15646
 Cu478 Cu 0.84337 0.32033 0.15647
 N479 N 0.85574 0.32987 0.17884
 N480 N 0.85593 0.32108 0.17002
 C481 C 0.86581 0.31324 0.17211
 C482 C 0.87224 0.31732 0.18283
 C483 C 0.86553 0.32793 0.18684
 H484 H 0.86808 0.30517 0.16622
 H485 H 0.86760 0.33382 0.19495
 N486 N 0.82982 0.32125 0.14362
 N487 N 0.82096 0.33011 0.14361
 C488 C 0.81307 0.32809 0.13378
 C489 C 0.81713 0.31741 0.12723
 C490 C 0.82780 0.31336 0.13379
 H491 H 0.80495 0.33395 0.13160
 H492 H 0.83367 0.30524 0.13162
 H493 H 0.82895 0.32924 0.16637
 H494 H 0.83924 0.33951 0.15626
 N495 N 0.82091 0.85639 0.66995
 N496 N 0.82980 0.85628 0.67869
 C497 C 0.82797 0.86616 0.68657
 C498 C 0.81729 0.87281 0.68264
 C499 C 0.81310 0.86630 0.67201
 H500 H 0.83398 0.86833 0.69457
 H501 H 0.80499 0.86854 0.66616
 Cu502 Cu 0.84280 0.84312 0.67896
 Cu503 Cu 0.82008 0.84372 0.65654
 Cu504 Cu 0.84339 0.82041 0.65655
 N505 N 0.85596 0.83012 0.67869
 N506 N 0.85607 0.82124 0.66996
 C507 C 0.86597 0.81342 0.67202
 C508 C 0.87249 0.81760 0.68266
 C509 C 0.86585 0.82828 0.68658
 H510 H 0.86820 0.80531 0.66618
 H511 H 0.86803 0.83429 0.69458
 N512 N 0.82973 0.82121 0.64382
 N513 N 0.82087 0.83007 0.64381
 C514 C 0.81297 0.82802 0.63400
 C515 C 0.81703 0.81735 0.62745
 C516 C 0.82769 0.81330 0.63401
 H517 H 0.80485 0.83390 0.63180
 H518 H 0.83357 0.80519 0.63183
 H519 H 0.82904 0.82937 0.66646
 H520 H 0.83938 0.83970 0.65637
 N521 N 0.67914 0.64404 0.67026
 N522 N 0.67046 0.64436 0.67920
 C523 C 0.67245 0.63463 0.68726
 C524 C 0.68299 0.62784 0.68317
 C525 C 0.68695 0.63415 0.67233
 H526 H 0.66665 0.63265 0.69547
 H527 H 0.69492 0.63177 0.66634
 Cu528 Cu 0.65732 0.65738 0.67910
 Cu529 Cu 0.67985 0.65652 0.65660
 Cu530 Cu 0.65769 0.68089 0.65783
 N531 N 0.64411 0.67035 0.67899
 N532 N 0.64424 0.67944 0.67047
 C533 C 0.63431 0.68722 0.67247
 C534 C 0.62750 0.68280 0.68283
 C535 C 0.63403 0.67202 0.68669
 H536 H 0.63233 0.69556 0.66685
 H537 H 0.63171 0.66589 0.69456
 N538 N 0.67049 0.67945 0.64428
 N539 N 0.67890 0.67017 0.64381
 C540 C 0.68645 0.67192 0.63366
 C541 C 0.68266 0.68285 0.62739
 C542 C 0.67246 0.68733 0.63442
 H543 H 0.69421 0.66571 0.63111
 H544 H 0.66693 0.69577 0.63260
 H545 H 0.67193 0.67078 0.66708
 H546 H 0.66084 0.66161 0.65676
 N547 N 0.67913 0.14373 0.16996
 N548 N 0.67029 0.14388 0.17875
 C549 C 0.67219 0.13405 0.18670
 C550 C 0.68283 0.12736 0.18270
 C551 C 0.68694 0.13383 0.17201
 H552 H 0.66626 0.13195 0.19478
 H553 H 0.69500 0.13155 0.16612
 Cu554 Cu 0.65726 0.15700 0.17889
 Cu555 Cu 0.67998 0.15640 0.15652
 Cu556 Cu 0.65666 0.17972 0.15654
 N557 N 0.64414 0.17002 0.17877
 N558 N 0.64399 0.17886 0.16999
 C559 C 0.63409 0.18667 0.17205
 C560 C 0.62762 0.18257 0.18274
 C561 C 0.63431 0.17193 0.18672
 H562 H 0.63181 0.19474 0.16615
 H563 H 0.63221 0.16600 0.19481
 N564 N 0.67031 0.17893 0.14379
 N565 N 0.67917 0.17007 0.14377
 C566 C 0.68706 0.17210 0.13393
 C567 C 0.68301 0.18278 0.12740
 C568 C 0.67233 0.18682 0.13396
 H569 H 0.69514 0.16619 0.13170
 H570 H 0.66640 0.19489 0.13175
 H571 H 0.67101 0.17074 0.16638
 H572 H 0.66072 0.16047 0.15627
 N573 N 0.17891 0.64396 0.16984
 N574 N 0.17007 0.64412 0.17862
 C575 C 0.17196 0.63431 0.18659
 C576 C 0.18260 0.62761 0.18261
 C577 C 0.18673 0.63407 0.17193
 H578 H 0.16605 0.63224 0.19470
 H579 H 0.19485 0.63183 0.16609
 Cu580 Cu 0.15705 0.65725 0.17878
 Cu581 Cu 0.17977 0.65663 0.15641
 Cu582 Cu 0.15646 0.67996 0.15642
 N583 N 0.14393 0.67027 0.17863
 N584 N 0.14378 0.67912 0.16986
 C585 C 0.13390 0.68695 0.17196
 C586 C 0.12743 0.68282 0.18264
 C587 C 0.13412 0.67218 0.18661
 H588 H 0.13167 0.69507 0.16613
 H589 H 0.13204 0.66627 0.19472
 N590 N 0.17011 0.67914 0.14366
 N591 N 0.17896 0.67028 0.14365
 C592 C 0.18688 0.67232 0.13384
 C593 C 0.18285 0.68302 0.12730
 C594 C 0.17216 0.68705 0.13385
 H595 H 0.19498 0.66643 0.13164
 H596 H 0.16627 0.69516 0.13166
 H597 H 0.17084 0.67102 0.16630
 H598 H 0.16054 0.66075 0.15620
 N599 N 0.17887 0.14375 0.67008
 N600 N 0.17001 0.14385 0.67884
 C601 C 0.17198 0.13408 0.68685
 C602 C 0.18266 0.12743 0.68285
 C603 C 0.18674 0.13391 0.67217
 H604 H 0.16609 0.13197 0.69497
 H605 H 0.19484 0.13170 0.66631
 Cu606 Cu 0.15688 0.15687 0.67895
 Cu607 Cu 0.17972 0.15640 0.65662
 Cu608 Cu 0.15640 0.17971 0.65664
 N609 N 0.14385 0.17000 0.67885
 N610 N 0.14376 0.17887 0.67011
 C611 C 0.13392 0.18674 0.67220
 C612 C 0.12745 0.18266 0.68289
 C613 C 0.13408 0.17198 0.68687
 H614 H 0.13172 0.19484 0.66635
 H615 H 0.13197 0.16609 0.69499
 N616 N 0.17003 0.17890 0.64384
 N617 N 0.17890 0.17004 0.64383
 C618 C 0.18677 0.17206 0.63398
 C619 C 0.18272 0.18274 0.62744
 C620 C 0.17204 0.18678 0.63400
 H621 H 0.19487 0.16616 0.63175
 H622 H 0.16613 0.19487 0.63180
 H623 H 0.17076 0.17075 0.66653
 H624 H 0.16053 0.16055 0.65632
 N625 N 0.32073 0.64405 0.32959
 N626 N 0.32952 0.64423 0.32076
 C627 C 0.32758 0.63445 0.31277
 C628 C 0.31697 0.62775 0.31679
 C629 C 0.31290 0.63418 0.32751
 H630 H 0.33348 0.63237 0.30465
 H631 H 0.30483 0.63192 0.33341
 Cu632 Cu 0.34268 0.65721 0.32077
 Cu633 Cu 0.31998 0.65660 0.34314
 Cu634 Cu 0.34329 0.67989 0.34314
 N635 N 0.35566 0.67036 0.32076
 N636 N 0.35584 0.67914 0.32958
 C637 C 0.36571 0.68697 0.32751
 C638 C 0.37216 0.68290 0.31680
 C639 C 0.36545 0.67230 0.31277
 H640 H 0.36797 0.69503 0.33341
 H641 H 0.36754 0.66642 0.30465
 N642 N 0.32974 0.67899 0.35599
 N643 N 0.32088 0.67014 0.35600
 C644 C 0.31299 0.67217 0.36584
 C645 C 0.31704 0.68283 0.37238
 C646 C 0.32771 0.68687 0.36583
 H647 H 0.30487 0.66631 0.36802
 H648 H 0.33358 0.69499 0.36800
 H649 H 0.32887 0.67101 0.33324
 H650 H 0.33917 0.66072 0.34333
 N651 N 0.32073 0.14387 0.82982
 N652 N 0.32965 0.14396 0.82111
 C653 C 0.32775 0.13416 0.81313
 C654 C 0.31704 0.12755 0.81703
 C655 C 0.31288 0.13403 0.82769
 H656 H 0.33376 0.13199 0.80512
 H657 H 0.30478 0.13178 0.83355
 Cu658 Cu 0.34287 0.15688 0.82113
 Cu659 Cu 0.31993 0.15648 0.84330
 Cu660 Cu 0.34323 0.17978 0.84329
 N661 N 0.35578 0.17010 0.82110
 N662 N 0.35585 0.17900 0.82981
 C663 C 0.36569 0.18686 0.82769
 C664 C 0.37219 0.18272 0.81703
 C665 C 0.36559 0.17201 0.81313
 H666 H 0.36793 0.19495 0.83355
 H667 H 0.36778 0.16601 0.80512
 N668 N 0.32962 0.17893 0.85608
 N669 N 0.32077 0.17008 0.85608
 C670 C 0.31289 0.17209 0.86593
 C671 C 0.31695 0.18274 0.87249
 C672 C 0.32760 0.18680 0.86592
 H673 H 0.30479 0.16620 0.86814
 H674 H 0.33349 0.19489 0.86812
 H675 H 0.32893 0.17077 0.83333
 H676 H 0.33913 0.16059 0.84364
 N677 N 0.82101 0.64391 0.82999
 N678 N 0.82982 0.64411 0.82118
 C679 C 0.82793 0.63432 0.81320
 C680 C 0.81733 0.62757 0.81720
 C681 C 0.81320 0.63402 0.82790
 H682 H 0.83379 0.63232 0.80505
 H683 H 0.80505 0.63180 0.83373
 Cu684 Cu 0.84280 0.65728 0.82091
 Cu685 Cu 0.82020 0.65655 0.84342
 Cu686 Cu 0.84350 0.67987 0.84340
 N687 N 0.85596 0.67027 0.82116
 N688 N 0.85614 0.67909 0.82996
 C689 C 0.86602 0.68691 0.82786
 C690 C 0.87248 0.68279 0.81716
 C691 C 0.86575 0.67219 0.81317
 H692 H 0.86822 0.69505 0.83368
 H693 H 0.86777 0.66633 0.80502
 N694 N 0.82991 0.67900 0.85620
 N695 N 0.82106 0.67015 0.85621
 C696 C 0.81310 0.67226 0.86597
 C697 C 0.81711 0.68295 0.87248
 C698 C 0.82780 0.68697 0.86595
 H699 H 0.80491 0.66647 0.86810
 H700 H 0.83359 0.69516 0.86805
 H701 H 0.82903 0.67104 0.83346
 H702 H 0.83941 0.66069 0.84347
 N703 N 0.82091 0.14385 0.32972
 N704 N 0.82982 0.14393 0.32101
 C705 C 0.82790 0.13413 0.31302
 C706 C 0.81719 0.12752 0.31694
 C707 C 0.81304 0.13403 0.32759
 H708 H 0.83389 0.13197 0.30499
 H709 H 0.80491 0.13182 0.33342
 Cu710 Cu 0.84309 0.15679 0.32102
 Cu711 Cu 0.82013 0.15644 0.34322
 Cu712 Cu 0.84339 0.17974 0.34319
 N713 N 0.85593 0.17008 0.32098
 N714 N 0.85598 0.17898 0.32969
 C715 C 0.86579 0.18687 0.32755
 C716 C 0.87231 0.18273 0.31690
 C717 C 0.86572 0.17202 0.31299
 H718 H 0.86799 0.19500 0.33337
 H719 H 0.86790 0.16604 0.30496
 N720 N 0.82981 0.17888 0.35602
 N721 N 0.82097 0.17002 0.35603
 C722 C 0.81306 0.17206 0.36585
 C723 C 0.81709 0.18273 0.37239
 C724 C 0.82776 0.18678 0.36583
 H725 H 0.80494 0.16619 0.36803
 H726 H 0.83362 0.19491 0.36799
 H727 H 0.82918 0.17067 0.33325
 H728 H 0.83938 0.16050 0.34358
 N729 N 0.67897 0.35620 0.32978
 N730 N 0.67014 0.35606 0.32099
 C731 C 0.67207 0.36585 0.31300
 C732 C 0.68270 0.37254 0.31700
 C733 C 0.68679 0.36608 0.32770
 H734 H 0.66620 0.36791 0.30486
 H735 H 0.69488 0.36832 0.33357
 Cu736 Cu 0.65715 0.34292 0.32077
 Cu737 Cu 0.67984 0.34353 0.34320
 Cu738 Cu 0.65656 0.32023 0.34319
 N739 N 0.64403 0.32992 0.32097
 N740 N 0.64388 0.32109 0.32976
 C741 C 0.63402 0.31327 0.32768
 C742 C 0.62755 0.31736 0.31698
 C743 C 0.63423 0.32799 0.31299
 H744 H 0.63177 0.30518 0.33355
 H745 H 0.63218 0.33386 0.30485
 N746 N 0.67020 0.32103 0.35595
 N747 N 0.67905 0.32989 0.35595
 C748 C 0.68693 0.32786 0.36578
 C749 C 0.68290 0.31718 0.37232
 C750 C 0.67222 0.31314 0.36578
 H751 H 0.69501 0.33377 0.36800
 H752 H 0.66632 0.30507 0.36799
 H753 H 0.67097 0.32913 0.33326
 H754 H 0.66067 0.33940 0.34336
 N755 N 0.67909 0.85624 0.82987
 N756 N 0.67018 0.85616 0.82116
 C757 C 0.67210 0.86595 0.81318
 C758 C 0.68282 0.87255 0.81706
 C759 C 0.68697 0.86606 0.82773
 H760 H 0.66609 0.86813 0.80518
 H761 H 0.69509 0.86828 0.83357
 Cu762 Cu 0.65689 0.84330 0.82119
 Cu763 Cu 0.67989 0.84362 0.84333
 Cu764 Cu 0.65657 0.82033 0.84334
 N765 N 0.64402 0.83002 0.82117
 N766 N 0.64394 0.82112 0.82988
 C767 C 0.63410 0.81325 0.82775
 C768 C 0.62761 0.81740 0.81708
 C769 C 0.63422 0.82811 0.81319
 H770 H 0.63188 0.80513 0.83360
 H771 H 0.63204 0.83412 0.80519
 N772 N 0.67020 0.82116 0.85611
 N773 N 0.67906 0.83001 0.85611
 C774 C 0.68692 0.82801 0.86597
 C775 C 0.68286 0.81736 0.87254
 C776 C 0.67220 0.81331 0.86598
 H777 H 0.69498 0.83393 0.86821
 H778 H 0.66628 0.80525 0.86823
 H779 H 0.67083 0.82937 0.83338
 H780 H 0.66065 0.83955 0.84372
 N781 N 0.17886 0.35618 0.82989
 N782 N 0.17003 0.35602 0.82110
 C783 C 0.17195 0.36582 0.81311
 C784 C 0.18257 0.37252 0.81710
 C785 C 0.18668 0.36605 0.82780
 H786 H 0.16607 0.36788 0.80497
 H787 H 0.19476 0.36830 0.83367
 Cu788 Cu 0.15702 0.34289 0.82090
 Cu789 Cu 0.17969 0.34352 0.84332
 Cu790 Cu 0.15637 0.32023 0.84334
 N791 N 0.14388 0.32989 0.82111
 N792 N 0.14371 0.32107 0.82991
 C793 C 0.13384 0.31325 0.82782
 C794 C 0.12737 0.31736 0.81713
 C795 C 0.13407 0.32798 0.81313
 H796 H 0.13159 0.30517 0.83370
 H797 H 0.13202 0.33385 0.80499
 N798 N 0.17000 0.32105 0.85611
 N799 N 0.17886 0.32990 0.85611
 C800 C 0.18678 0.32784 0.86591
 C801 C 0.18274 0.31716 0.87245
 C802 C 0.17206 0.31313 0.86592
 H803 H 0.19490 0.33370 0.86809
 H804 H 0.16620 0.30502 0.86810
 H805 H 0.17082 0.32907 0.83341
 H806 H 0.16053 0.33936 0.84348
 N807 N 0.17895 0.85628 0.32964
 N808 N 0.17020 0.85605 0.32077
 C809 C 0.17219 0.86578 0.31273
 C810 C 0.18279 0.87249 0.31675
 C811 C 0.18681 0.86611 0.32752
 H812 H 0.16632 0.86783 0.30458
 H813 H 0.19487 0.86839 0.33343
 Cu814 Cu 0.15696 0.84316 0.32091
 Cu815 Cu 0.17970 0.84377 0.34327
 Cu816 Cu 0.15756 0.81945 0.34205
 N817 N 0.14388 0.83009 0.32102
 N818 N 0.14409 0.82093 0.32947
 C819 C 0.13419 0.81312 0.32744
 C820 C 0.12733 0.81759 0.31715
 C821 C 0.13379 0.82843 0.31335
 H822 H 0.13230 0.80471 0.33298
 H823 H 0.13139 0.83462 0.30554
 N824 N 0.17040 0.82084 0.35558
 N825 N 0.17880 0.83011 0.35603
 C826 C 0.18639 0.82833 0.36614
 C827 C 0.18260 0.81740 0.37242
 C828 C 0.17240 0.81294 0.36541
 H829 H 0.19416 0.83452 0.36866
 H830 H 0.16689 0.80448 0.36722
 H831 H 0.17167 0.82963 0.33272
 H832 H 0.16068 0.83872 0.34322
 O833 O 0.24860 1.01258 0.26587
 O834 O 0.26610 0.98770 0.24867
 O835 O 0.26611 1.01256 0.24871
 O836 O 0.24862 0.98769 0.26587
 O837 O 0.23390 0.98772 0.25101
 O838 O 0.25137 1.01258 0.23386
 O839 O 0.25138 0.98773 0.23381
 O840 O 0.23387 1.01260 0.25101
 Cu841 Cu 0.25883 1.00013 0.25877
 Cu842 Cu 0.24115 1.00016 0.24093
 C843 C 0.23838 1.01703 0.26126
 C844 C 0.26161 0.98329 0.23840
 C845 C 0.26161 1.01699 0.23845
 C846 C 0.23839 0.98328 0.26126
 O847 O 0.24855 0.51247 0.76595
 O848 O 0.26604 0.48762 0.74871
 O849 O 0.26604 0.51250 0.74877
 O850 O 0.24857 0.48758 0.76592
 O851 O 0.23383 0.48760 0.75108
 O852 O 0.25129 0.51251 0.73393
 O853 O 0.25130 0.48765 0.73387
 O854 O 0.23381 0.51249 0.75110
 Cu855 Cu 0.25877 0.50004 0.75883
 Cu856 Cu 0.24108 0.50006 0.74101
 C857 C 0.23831 0.51691 0.76136
 C858 C 0.26154 0.48321 0.73845
 C859 C 0.26152 0.51694 0.73852
 C860 C 0.23834 0.48315 0.76132
 O861 O 0.74873 -0.01260 0.23400
 O862 O 0.76616 0.01227 0.25124
 O863 O 0.76618 -0.01262 0.25122
 O864 O 0.74872 0.01227 0.23399
 O865 O 0.73397 0.01230 0.24884
 O866 O 0.75143 -0.01260 0.26607
 O867 O 0.75142 0.01230 0.26608
 O868 O 0.73398 -0.01257 0.24885
 Cu869 Cu 0.75893 -0.00016 0.24113
 Cu870 Cu 0.74123 -0.00014 0.25895
 C871 C 0.73848 -0.01701 0.23859
 C872 C 0.76166 0.01671 0.26149
 C873 C 0.76167 -0.01705 0.26147
 C874 C 0.73847 0.01671 0.23858
 O875 O 0.73394 0.51244 0.74891
 O876 O 0.75143 0.48755 0.76613
 O877 O 0.75144 0.51243 0.76607
 O878 O 0.73398 0.48755 0.74888
 O879 O 0.74872 0.48754 0.73402
 O880 O 0.76618 0.51244 0.75121
 O881 O 0.76616 0.48755 0.75127
 O882 O 0.74868 0.51243 0.73405
 Cu883 Cu 0.74122 0.49999 0.75898
 Cu884 Cu 0.75891 0.49999 0.74115
 C885 C 0.73844 0.51688 0.73865
 C886 C 0.76166 0.48312 0.76153
 C887 C 0.76167 0.51687 0.76146
 C888 C 0.73848 0.48311 0.73863
 O889 O 0.23379 0.51251 0.24869
 O890 O 0.25126 0.48761 0.26591
 O891 O 0.25127 0.51251 0.26588
 O892 O 0.23379 0.48763 0.24871
 O893 O 0.24852 0.48762 0.23385
 O894 O 0.26601 0.51250 0.25102
 O895 O 0.26599 0.48760 0.25105
 O896 O 0.24852 0.51249 0.23382
 Cu897 Cu 0.24106 0.50007 0.25879
 Cu898 Cu 0.25874 0.50005 0.24095
 C899 C 0.23828 0.51692 0.23842
 C900 C 0.26148 0.48316 0.26130
 C901 C 0.26151 0.51693 0.26128
 C902 C 0.23829 0.48320 0.23845
 O903 O 0.75124 1.01268 0.73400
 O904 O 0.73377 0.98785 0.75125
 O905 O 0.73378 1.01275 0.75122
 O906 O 0.75124 0.98781 0.73404
 O907 O 0.76599 0.98780 0.74888
 O908 O 0.74852 1.01275 0.76607
 O909 O 0.74851 0.98785 0.76609
 O910 O 0.76598 1.01267 0.74885
 Cu911 Cu 0.74103 1.00027 0.74114
 Cu912 Cu 0.75872 1.00027 0.75896
 C913 C 0.76148 1.01709 0.73859
 C914 C 0.73828 0.98342 0.76150
 C915 C 0.73829 1.01720 0.76146
 C916 C 0.76148 0.98337 0.73863
 O917 O 0.75127 0.51257 0.23392
 O918 O 0.73382 0.48770 0.25115
 O919 O 0.73381 0.51258 0.25114
 O920 O 0.75130 0.48770 0.23394
 O921 O 0.76603 0.48767 0.24879
 O922 O 0.74855 0.51256 0.26598
 O923 O 0.74856 0.48767 0.26600
 O924 O 0.76601 0.51254 0.24877
 Cu925 Cu 0.74107 0.50013 0.24105
 Cu926 Cu 0.75876 0.50011 0.25888
 C927 C 0.76150 0.51698 0.23852
 C928 C 0.73832 0.48325 0.26140
 C929 C 0.73832 0.51701 0.26138
 C930 C 0.76154 0.48326 0.23853
 O931 O 0.26621 0.01227 0.75118
 O932 O 0.24876 -0.01258 0.73392
 O933 O 0.24872 0.01230 0.73398
 O934 O 0.26623 -0.01265 0.75113
 O935 O 0.25149 -0.01267 0.76599
 O936 O 0.23399 0.01229 0.74884
 O937 O 0.23402 -0.01259 0.74878
 O938 O 0.25147 0.01224 0.76604
 Cu939 Cu 0.25896 -0.00016 0.74107
 Cu940 Cu 0.24128 -0.00019 0.75890
 C941 C 0.26170 0.01669 0.76143
 C942 C 0.23852 -0.01700 0.73851
 C943 C 0.23848 0.01673 0.73858
 C944 C 0.26172 -0.01711 0.76138
 O945 O 0.23382 0.25135 1.01240
 O946 O 0.25113 0.23394 0.98757
 O947 O 0.25113 0.23394 1.01240
 O948 O 0.23379 0.25132 0.98757
 O949 O 0.24863 0.26608 0.98754
 O950 O 0.26597 0.24870 1.01238
 O951 O 0.26597 0.24870 0.98754
 O952 O 0.24866 0.26611 1.01237
 Cu953 Cu 0.24098 0.24116 0.99998
 Cu954 Cu 0.25880 0.25888 0.99995
 C955 C 0.23840 0.26159 1.01681
 C956 C 0.26139 0.23846 0.98313
 C957 C 0.26140 0.23847 1.01682
 C958 C 0.23836 0.26155 0.98313
 O959 O 0.24871 0.76623 0.48737
 O960 O 0.26607 0.74887 0.51224
 O961 O 0.26606 0.74886 0.48739
 O962 O 0.24873 0.76626 0.51220
 O963 O 0.23390 0.75148 0.51223
 O964 O 0.25123 0.73408 0.48742
 O965 O 0.25124 0.73410 0.51226
 O966 O 0.23388 0.75144 0.48740
 Cu967 Cu 0.25888 0.75903 0.49980
 Cu968 Cu 0.24108 0.74129 0.49983
 C969 C 0.23844 0.76168 0.48296
 C970 C 0.26150 0.73864 0.51669
 C971 C 0.26148 0.73862 0.48298
 C972 C 0.23847 0.76173 0.51663
 O973 O 0.26626 0.75133 -0.01264
 O974 O 0.24886 0.73405 0.01223
 O975 O 0.24884 0.73404 -0.01261
 O976 O 0.26622 0.75137 0.01221
 O977 O 0.25143 0.76621 0.01218
 O978 O 0.23405 0.74888 -0.01262
 O979 O 0.23406 0.74888 0.01222
 O980 O 0.25146 0.76616 -0.01266
 Cu981 Cu 0.25903 0.74121 -0.00020
 Cu982 Cu 0.24127 0.75902 -0.00023
 C983 C 0.26172 0.76159 -0.01708
 C984 C 0.23861 0.73863 0.01666
 C985 C 0.23859 0.73861 -0.01703
 C986 C 0.26167 0.76164 0.01662
 O987 O 0.23378 0.24873 0.48756
 O988 O 0.25113 0.26608 0.51237
 O989 O 0.25114 0.26607 0.48754
 O990 O 0.23378 0.24873 0.51240
 O991 O 0.24860 0.23392 0.51240
 O992 O 0.26596 0.25126 0.48754
 O993 O 0.26596 0.25126 0.51238
 O994 O 0.24860 0.23392 0.48756
 Cu995 Cu 0.24097 0.25888 0.49997
 Cu996 Cu 0.25876 0.24111 0.49997
 C997 C 0.23835 0.23848 0.48313
 C998 C 0.26140 0.26152 0.51680
 C999 C 0.26140 0.26151 0.48311
 C1000 C 0.23834 0.23848 0.51683
 O1001 O 0.73392 0.75144 1.01238
 O1002 O 0.75127 0.73407 0.98755
 O1003 O 0.75125 0.73405 1.01239
 O1004 O 0.73392 0.75144 0.98756
 O1005 O 0.74875 0.76622 0.98756
 O1006 O 0.76608 0.74883 1.01239
 O1007 O 0.76610 0.74884 0.98756
 O1008 O 0.74876 0.76622 1.01238
 Cu1009 Cu 0.74110 0.74127 0.99997
 Cu1010 Cu 0.75891 0.75901 0.99997
 C1011 C 0.73850 0.76168 1.01681
 C1012 C 0.76153 0.73860 0.98313
 C1013 C 0.76150 0.73859 1.01682
 C1014 C 0.73849 0.76169 0.98313
 O1015 O 0.73380 0.25124 0.51227
 O1016 O 0.75114 0.23387 0.48744
 O1017 O 0.75113 0.23385 0.51226
 O1018 O 0.73381 0.25126 0.48744
 O1019 O 0.74865 0.26603 0.48745
 O1020 O 0.76597 0.24862 0.51226
 O1021 O 0.76598 0.24865 0.48744
 O1022 O 0.74864 0.26601 0.51228
 Cu1023 Cu 0.74098 0.24107 0.49985
 Cu1024 Cu 0.75880 0.25881 0.49986
 C1025 C 0.73838 0.26147 0.51671
 C1026 C 0.76141 0.23841 0.48302
 C1027 C 0.76140 0.23838 0.51668
 C1028 C 0.73839 0.26150 0.48302
 O1029 O 0.74869 0.23408 0.01229
 O1030 O 0.76598 0.25147 -0.01255
 O1031 O 0.76600 0.25145 0.01228
 O1032 O 0.74866 0.23410 -0.01254
 O1033 O 0.73380 0.24888 -0.01252
 O1034 O 0.75115 0.26623 0.01231
 O1035 O 0.75112 0.26625 -0.01252
 O1036 O 0.73383 0.24885 0.01232
 Cu1037 Cu 0.75882 0.24129 -0.00013
 Cu1038 Cu 0.74099 0.25903 -0.00010
 C1039 C 0.73843 0.23861 0.01674
 C1040 C 0.76139 0.26172 -0.01696
 C1041 C 0.76142 0.26169 0.01672
 C1042 C 0.73838 0.23864 -0.01696
 O1043 O 0.76597 0.75148 0.48757
 O1044 O 0.74864 0.73413 0.51244
 O1045 O 0.74863 0.73411 0.48760
 O1046 O 0.76600 0.75147 0.51241
 O1047 O 0.75117 0.76627 0.51242
 O1048 O 0.73380 0.74891 0.48761
 O1049 O 0.73381 0.74894 0.51245
 O1050 O 0.75114 0.76628 0.48759
 Cu1051 Cu 0.75880 0.74132 0.50001
 Cu1052 Cu 0.74100 0.75908 0.50002
 C1053 C 0.76140 0.76173 0.48315
 C1054 C 0.73839 0.73869 0.51688
 C1055 C 0.73837 0.73867 0.48318
 C1056 C 0.76144 0.76172 0.51684
 O1057 O 0.98744 0.24877 0.26597
 O1058 O 1.01236 0.26626 0.24882
 O1059 O 0.98746 0.26625 0.24878
 O1060 O 1.01234 0.24874 0.26597
 O1061 O 1.01237 0.23404 0.25109
 O1062 O 0.98750 0.25155 0.23390
 O1063 O 1.01240 0.25156 0.23395
 O1064 O 0.98748 0.23408 0.25109
 Cu1065 Cu 0.99990 0.25897 0.25888
 Cu1066 Cu 0.99994 0.24134 0.24102
 C1067 C 0.98302 0.23855 0.26135
 C1068 C 1.01682 0.26178 0.23856
 C1069 C 0.98305 0.26177 0.23850
 C1070 C 1.01679 0.23852 0.26136
 O1071 O 0.48747 0.25136 0.73398
 O1072 O 0.51236 0.23388 0.75119
 O1073 O 0.48745 0.23389 0.75117
 O1074 O 0.51236 0.25133 0.73397
 O1075 O 0.51235 0.26605 0.74882
 O1076 O 0.48742 0.24861 0.76602
 O1077 O 0.51233 0.24859 0.76605
 O1078 O 0.48745 0.26609 0.74883
 Cu1079 Cu 0.49991 0.24114 0.74109
 Cu1080 Cu 0.49989 0.25881 0.75892
 C1081 C 0.48303 0.26160 0.73857
 C1082 C 0.51678 0.23837 0.76145
 C1083 C 0.48299 0.23839 0.76141
 C1084 C 0.51679 0.26156 0.73857
 O1085 O 0.01224 0.25144 0.76603
 O1086 O -0.01266 0.23398 0.74885
 O1087 O 0.01225 0.23396 0.74884
 O1088 O -0.01267 0.25147 0.76603
 O1089 O -0.01265 0.26617 0.75116
 O1090 O 0.01224 0.24866 0.73396
 O1091 O -0.01266 0.24869 0.73398
 O1092 O 0.01225 0.26614 0.75115
 Cu1093 Cu -0.00021 0.24124 0.75893
 Cu1094 Cu -0.00021 0.25889 0.74108
 C1095 C 0.01668 0.26166 0.76141
 C1096 C -0.01710 0.23847 0.73859
 C1097 C 0.01667 0.23843 0.73856
 C1098 C -0.01710 0.26169 0.76141
 O1099 O 0.48758 0.26600 0.25112
 O1100 O 0.51247 0.24852 0.23391
 O1101 O 0.48760 0.24851 0.23398
 O1102 O 0.51248 0.26599 0.25110
 O1103 O 0.51252 0.25129 0.26598
 O1104 O 0.48760 0.23380 0.24885
 O1105 O 0.51250 0.23381 0.24879
 O1106 O 0.48761 0.25130 0.26600
 Cu1107 Cu 0.50003 0.25872 0.24104
 Cu1108 Cu 0.50006 0.24108 0.25890
 C1109 C 0.48315 0.26151 0.26138
 C1110 C 0.51691 0.23829 0.23851
 C1111 C 0.48317 0.23829 0.23859
 C1112 C 0.51693 0.26151 0.26136
 O1113 O 0.98760 0.75160 0.73397
 O1114 O 1.01249 0.73414 0.75120
 O1115 O 0.98759 0.73412 0.75115
 O1116 O 1.01250 0.75157 0.73396
 O1117 O 1.01247 0.76630 0.74882
 O1118 O 0.98757 0.74885 0.76601
 O1119 O 1.01246 0.74887 0.76606
 O1120 O 0.98756 0.76632 0.74882
 Cu1121 Cu 1.00005 0.74139 0.74109
 Cu1122 Cu 1.00001 0.75906 0.75891
 C1123 C 0.98315 0.76183 0.73856
 C1124 C 1.01691 0.73864 0.76146
 C1125 C 0.98314 0.73862 0.76140
 C1126 C 1.01692 0.76180 0.73857
 O1127 O 0.48752 0.75155 0.23395
 O1128 O 0.51239 0.73405 0.25116
 O1129 O 0.48748 0.73405 0.25112
 O1130 O 0.51241 0.75152 0.23397
 O1131 O 0.51236 0.76622 0.24884
 O1132 O 0.48745 0.74875 0.26600
 O1133 O 0.51234 0.74876 0.26603
 O1134 O 0.48747 0.76625 0.24883
 Cu1135 Cu 0.49995 0.74132 0.24106
 Cu1136 Cu 0.49990 0.75896 0.25892
 C1137 C 0.48306 0.76177 0.23856
 C1138 C 0.51680 0.73854 0.26143
 C1139 C 0.48303 0.73853 0.26137
 C1140 C 0.51682 0.76174 0.23858
 O1141 O 0.01229 0.74875 0.23391
 O1142 O -0.01259 0.76625 0.25112
 O1143 O 0.01232 0.76621 0.25111
 O1144 O -0.01261 0.74876 0.23394
 O1145 O -0.01259 0.73405 0.24881
 O1146 O 0.01233 0.75150 0.26598
 O1147 O -0.01258 0.75154 0.26599
 O1148 O 0.01231 0.73404 0.24878
 Cu1149 Cu -0.00015 0.75896 0.24103
 Cu1150 Cu -0.00013 0.74131 0.25888
 C1151 C 0.01673 0.73852 0.23851
 C1152 C -0.01702 0.76176 0.26138
 C1153 C 0.01677 0.76171 0.26137
 C1154 C -0.01704 0.73854 0.23855
 O1155 O 0.48739 0.76632 0.75127
 O1156 O 0.51234 0.74886 0.73406
 O1157 O 0.48744 0.74884 0.73409
 O1158 O 0.51230 0.76633 0.75124
 O1159 O 0.51232 0.75161 0.76610
 O1160 O 0.48744 0.73411 0.74894
 O1161 O 0.51235 0.73413 0.74891
 O1162 O 0.48741 0.75159 0.76613
 Cu1163 Cu 0.49986 0.75906 0.74117
 Cu1164 Cu 0.49988 0.74139 0.75901
 C1165 C 0.48296 0.76182 0.76153
 C1166 C 0.51679 0.73864 0.73866
 C1167 C 0.48301 0.73861 0.73868
 C1168 C 0.51675 0.76183 0.76149
 C1169 C 0.40599 0.30069 0.30033
 C1170 C 0.40043 0.29528 0.31116
 C1171 C 0.38953 0.30060 0.31654
 C1172 C 0.38389 0.31149 0.31124
 C1173 C 0.38941 0.31684 0.30033
 C1174 C 0.40032 0.31151 0.29495
 C1175 C 0.41765 0.29511 0.29472
 N1176 N 0.42310 0.30033 0.28427
 N1177 N 0.43359 0.29533 0.27927
 C1178 C 0.43910 0.28491 0.28451
 N1179 N 0.43365 0.27970 0.29495
 N1180 N 0.42316 0.28469 0.29995
 C1181 C 0.45071 0.27925 0.27888
 C1182 C 0.45628 0.26838 0.28427
 C1183 C 0.46699 0.26280 0.27877
 C1184 C 0.47240 0.26797 0.26774
 C1185 C 0.46696 0.27895 0.26245
 C1186 C 0.45625 0.28453 0.26796
 H1187 H 0.40451 0.28692 0.31554
 H1188 H 0.38559 0.29613 0.32487
 H1189 H 0.38537 0.32516 0.29590
 H1190 H 0.40432 0.31591 0.28659
 H1191 H 0.45227 0.26405 0.29267
 H1192 H 0.47089 0.25431 0.28304
 H1193 H 0.47086 0.28312 0.25392
 H1194 H 0.45222 0.29289 0.26354
 C1195 C 0.40557 0.80079 0.80032
 C1196 C 0.40006 0.79546 0.81120
 C1197 C 0.38908 0.80071 0.81652
 C1198 C 0.38325 0.81149 0.81110
 C1199 C 0.38877 0.81672 0.80010
 C1200 C 0.39976 0.81146 0.79481
 C1201 C 0.41732 0.79529 0.79480
 N1202 N 0.42275 0.80048 0.78433
 N1203 N 0.43332 0.79554 0.77941
 C1204 C 0.43891 0.78522 0.78474
 N1205 N 0.43348 0.78004 0.79521
 N1206 N 0.42293 0.78497 0.80013
 C1207 C 0.45056 0.77959 0.77914
 C1208 C 0.45617 0.76874 0.78453
 C1209 C 0.46686 0.76315 0.77899
 C1210 C 0.47223 0.76829 0.76792
 C1211 C 0.46677 0.77926 0.76265
 C1212 C 0.45607 0.78485 0.76819
 H1213 H 0.40425 0.78723 0.81570
 H1214 H 0.38529 0.79624 0.82491
 H1215 H 0.38474 0.82496 0.79550
 H1216 H 0.40373 0.81581 0.78640
 H1217 H 0.45220 0.76442 0.79296
 H1218 H 0.47079 0.75466 0.78326
 H1219 H 0.47062 0.78343 0.75409
 H1220 H 0.45202 0.79320 0.76378
 C1221 C -0.09426 0.30097 0.80024
 C1222 C -0.09984 0.29557 0.81106
 C1223 C -0.11075 0.30090 0.81641
 C1224 C -0.11638 0.31179 0.81109
 C1225 C -0.11083 0.31713 0.80020
 C1226 C -0.09991 0.31179 0.79485
 C1227 C -0.08259 0.29538 0.79465
 N1228 N -0.07713 0.30060 0.78422
 N1229 N -0.06662 0.29561 0.77923
 C1230 C -0.06112 0.28519 0.78448
 N1231 N -0.06659 0.27997 0.79491
 N1232 N -0.07709 0.28496 0.79989
 C1233 C -0.04950 0.27953 0.77887
 C1234 C -0.04397 0.26865 0.78428
 C1235 C -0.03327 0.26304 0.77879
 C1236 C -0.02784 0.26818 0.76777
 C1237 C -0.03323 0.27918 0.76247
 C1238 C -0.04394 0.28479 0.76796
 H1239 H -0.09578 0.28721 0.81546
 H1240 H -0.11470 0.29644 0.82474
 H1241 H -0.11484 0.32546 0.79575
 H1242 H -0.09588 0.31618 0.78649
 H1243 H -0.04800 0.26434 0.79268
 H1244 H -0.02939 0.25454 0.78308
 H1245 H -0.02932 0.28334 0.75394
 H1246 H -0.04795 0.29316 0.76353
 C1247 C -0.09419 0.80096 0.30028
 C1248 C -0.09980 0.79550 0.31106
 C1249 C -0.11067 0.80086 0.31646
 C1250 C -0.11623 0.81183 0.31125
 C1251 C -0.11064 0.81723 0.30040
 C1252 C -0.09977 0.81187 0.29500
 C1253 C -0.08255 0.79535 0.29466
 N1254 N -0.07705 0.80061 0.28426
 N1255 N -0.06656 0.79560 0.27927
 C1256 C -0.06110 0.78513 0.28447
 N1257 N -0.06661 0.77987 0.29485
 N1258 N -0.07710 0.78488 0.29984
 C1259 C -0.04948 0.77948 0.27886
 C1260 C -0.04394 0.76858 0.28423
 C1261 C -0.03321 0.76303 0.27874
 C1262 C -0.02777 0.76822 0.26775
 C1263 C -0.03318 0.77923 0.26249
 C1264 C -0.04391 0.78480 0.26798
 H1265 H -0.09580 0.78708 0.31537
 H1266 H -0.11466 0.79633 0.32475
 H1267 H -0.11461 0.82563 0.29604
 H1268 H -0.09572 0.81631 0.28667
 H1269 H -0.04797 0.76423 0.29261
 H1270 H -0.02932 0.75452 0.28300
 H1271 H -0.02925 0.78344 0.25398
 H1272 H -0.04792 0.79318 0.26359
 C1273 C 0.59393 0.69940 0.30041
 C1274 C 0.59948 0.70482 0.31124
 C1275 C 0.61038 0.69951 0.31663
 C1276 C 0.61603 0.68863 0.31134
 C1277 C 0.61052 0.68326 0.30046
 C1278 C 0.59961 0.68858 0.29506
 C1279 C 0.58228 0.70498 0.29480
 N1280 N 0.57683 0.69977 0.28436
 N1281 N 0.56633 0.70476 0.27937
 C1282 C 0.56082 0.71518 0.28461
 N1283 N 0.56627 0.72040 0.29504
 N1284 N 0.57676 0.71540 0.30003
 C1285 C 0.54920 0.72083 0.27899
 C1286 C 0.54363 0.73171 0.28436
 C1287 C 0.53292 0.73727 0.27884
 C1288 C 0.52753 0.73209 0.26782
 C1289 C 0.53297 0.72111 0.26255
 C1290 C 0.54368 0.71554 0.26807
 H1291 H 0.59539 0.71318 0.31561
 H1292 H 0.61428 0.70398 0.32498
 H1293 H 0.61455 0.67491 0.29606
 H1294 H 0.59562 0.68417 0.28670
 H1295 H 0.54762 0.73605 0.29276
 H1296 H 0.52900 0.74577 0.28309
 H1297 H 0.52910 0.71693 0.25401
 H1298 H 0.54773 0.70718 0.26367
 C1299 C 0.59399 0.19924 0.80033
 C1300 C 0.59951 0.20460 0.81120
 C1301 C 0.61047 0.19932 0.81652
 C1302 C 0.61620 0.18853 0.81112
 C1303 C 0.61071 0.18323 0.80019
 C1304 C 0.59974 0.18851 0.79487
 C1305 C 0.58229 0.20478 0.79478
 N1306 N 0.57686 0.19960 0.78431
 N1307 N 0.56635 0.20458 0.77934
 C1308 C 0.56079 0.21495 0.78464
 N1309 N 0.56621 0.22012 0.79511
 N1310 N 0.57672 0.21514 0.80007
 C1311 C 0.54917 0.22061 0.77902
 C1312 C 0.54359 0.23147 0.78440
 C1313 C 0.53290 0.23706 0.77887
 C1314 C 0.52752 0.23191 0.76783
 C1315 C 0.53297 0.22093 0.76255
 C1316 C 0.54367 0.21534 0.76808
 H1317 H 0.59536 0.21287 0.81567
 H1318 H 0.61435 0.20374 0.82490
 H1319 H 0.61480 0.17497 0.79569
 H1320 H 0.59576 0.18414 0.78648
 H1321 H 0.54758 0.23579 0.79282
 H1322 H 0.52898 0.24555 0.78314
 H1323 H 0.52911 0.21677 0.75400
 H1324 H 0.54771 0.20699 0.76367
 C1325 C 1.09388 0.69934 0.80063
 C1326 C 1.09947 0.70477 0.81143
 C1327 C 1.11030 0.69937 0.81688
 C1328 C 1.11584 0.68839 0.81167
 C1329 C 1.11026 0.68300 0.80082
 C1330 C 1.09943 0.68841 0.79537
 C1331 C 1.08231 0.70501 0.79493
 N1332 N 1.07685 0.69976 0.78452
 N1333 N 1.06641 0.70480 0.77946
 C1334 C 1.06096 0.71530 0.78460
 N1335 N 1.06644 0.72055 0.79501
 N1336 N 1.07688 0.71552 0.80006
 C1337 C 1.04937 0.72096 0.77895
 C1338 C 1.04383 0.73186 0.78430
 C1339 C 1.03310 0.73741 0.77881
 C1340 C 1.02766 0.73220 0.76783
 C1341 C 1.03308 0.72119 0.76257
 C1342 C 1.04381 0.71564 0.76807
 H1343 H 1.09548 0.71321 0.81573
 H1344 H 1.11426 0.70385 0.82519
 H1345 H 1.11420 0.67459 0.79646
 H1346 H 1.09539 0.68398 0.78704
 H1347 H 1.04786 0.73622 0.79267
 H1348 H 1.02921 0.74592 0.78305
 H1349 H 1.02917 0.71699 0.75407
 H1350 H 1.04783 0.70725 0.76368
 C1351 C 1.09393 0.19939 0.30032
 C1352 C 1.09953 0.20486 0.31109
 C1353 C 1.11044 0.19956 0.31648
 C1354 C 1.11603 0.18862 0.31124
 C1355 C 1.11045 0.18319 0.30042
 C1356 C 1.09954 0.18850 0.29504
 C1357 C 1.08229 0.20498 0.29469
 N1358 N 1.07682 0.19972 0.28429
 N1359 N 1.06633 0.20472 0.27929
 C1360 C 1.06086 0.21519 0.28448
 N1361 N 1.06635 0.22045 0.29486
 N1362 N 1.07683 0.21545 0.29987
 C1363 C 1.04923 0.22082 0.27886
 C1364 C 1.04367 0.23171 0.28423
 C1365 C 1.03295 0.23726 0.27873
 C1366 C 1.02753 0.23206 0.26773
 C1367 C 1.03295 0.22106 0.26248
 C1368 C 1.04367 0.21550 0.26798
 H1369 H 1.09548 0.21326 0.31543
 H1370 H 1.11440 0.20408 0.32477
 H1371 H 1.11443 0.17480 0.29606
 H1372 H 1.09548 0.18402 0.28674
 H1373 H 1.04769 0.23607 0.29261
 H1374 H 1.02904 0.24576 0.28299
 H1375 H 1.02904 0.21685 0.25397
 H1376 H 1.04770 0.20712 0.26359
 C1377 C 0.59388 0.30080 0.69959
 C1378 C 0.59954 0.31161 0.70497
 C1379 C 0.61047 0.31693 0.69961
 C1380 C 0.61603 0.31157 0.68873
 C1381 C 0.61038 0.30070 0.68342
 C1382 C 0.59946 0.29540 0.68877
 C1383 C 0.58223 0.29520 0.70520
 N1384 N 0.57675 0.28477 0.69997
 N1385 N 0.56626 0.27977 0.70496
 C1386 C 0.56079 0.28498 0.71540
 N1387 N 0.56628 0.29540 0.72064
 N1388 N 0.57677 0.30040 0.71564
 C1389 C 0.54918 0.27932 0.72102
 C1390 C 0.54362 0.28461 0.73193
 C1391 C 0.53292 0.27903 0.73744
 C1392 C 0.52752 0.26803 0.73218
 C1393 C 0.53293 0.26287 0.72115
 C1394 C 0.54363 0.26845 0.71564
 H1395 H 0.59550 0.31602 0.71331
 H1396 H 0.61448 0.32526 0.70404
 H1397 H 0.61432 0.29623 0.67508
 H1398 H 0.59539 0.28706 0.68436
 H1399 H 0.54763 0.29298 0.73633
 H1400 H 0.52901 0.28321 0.74597
 H1401 H 0.52904 0.25437 0.71689
 H1402 H 0.54764 0.26412 0.70724
 C1403 C 0.59397 0.80084 0.19967
 C1404 C 0.59963 0.81164 0.20505
 C1405 C 0.61055 0.81695 0.19970
 C1406 C 0.61610 0.81160 0.18881
 C1407 C 0.61046 0.80073 0.18350
 C1408 C 0.59955 0.79543 0.18885
 C1409 C 0.58229 0.79530 0.20526
 N1410 N 0.57678 0.78489 0.20003
 N1411 N 0.56627 0.77994 0.20502
 C1412 C 0.56082 0.78517 0.21545
 N1413 N 0.56633 0.79558 0.22069
 N1414 N 0.57684 0.80054 0.21569
 C1415 C 0.54921 0.77953 0.22108
 C1416 C 0.54366 0.78481 0.23200
 C1417 C 0.53296 0.77921 0.23751
 C1418 C 0.52756 0.76822 0.23223
 C1419 C 0.53297 0.76307 0.22119
 C1420 C 0.54367 0.76866 0.21569
 H1421 H 0.59561 0.81604 0.21342
 H1422 H 0.61458 0.82527 0.20416
 H1423 H 0.61441 0.79626 0.17517
 H1424 H 0.59548 0.78708 0.18446
 H1425 H 0.54766 0.79317 0.23641
 H1426 H 0.52905 0.78338 0.24604
 H1427 H 0.52909 0.75458 0.21691
 H1428 H 0.54768 0.76435 0.20728
 C1429 C 1.09392 0.30095 0.19962
 C1430 C 1.09945 0.29558 0.18875
 C1431 C 1.11039 0.30085 0.18343
 C1432 C 1.11612 0.31163 0.18882
 C1433 C 1.11062 0.31695 0.19975
 C1434 C 1.09967 0.31168 0.20508
 C1435 C 1.08223 0.29541 0.20519
 N1436 N 1.07681 0.30059 0.21567
 N1437 N 1.06630 0.29561 0.22064
 C1438 C 1.06076 0.28524 0.21536
 N1439 N 1.06619 0.28007 0.20488
 N1440 N 1.07669 0.28505 0.19990
 C1441 C 1.04917 0.27958 0.22099
 C1442 C 1.04361 0.26872 0.21560
 C1443 C 1.03293 0.26312 0.22113
 C1444 C 1.02755 0.26825 0.23219
 C1445 C 1.03297 0.27922 0.23748
 C1446 C 1.04366 0.28482 0.23195
 H1447 H 1.09532 0.28730 0.18431
 H1448 H 1.11428 0.29641 0.17505
 H1449 H 1.11471 0.32521 0.20424
 H1450 H 1.09569 0.31604 0.21349
 H1451 H 1.04760 0.26441 0.20718
 H1452 H 1.02903 0.25463 0.21686
 H1453 H 1.02910 0.28337 0.24604
 H1454 H 1.04769 0.29317 0.23636
 C1455 C 1.09396 0.80096 0.69949
 C1456 C 1.09952 0.79554 0.68866
 C1457 C 1.11042 0.80085 0.68329
 C1458 C 1.11605 0.81174 0.68857
 C1459 C 1.11052 0.81709 0.69948
 C1460 C 1.09962 0.81177 0.70486
 C1461 C 1.08231 0.79540 0.70512
 N1462 N 1.07687 0.80064 0.71556
 N1463 N 1.06639 0.79566 0.72059
 C1464 C 1.06088 0.78523 0.71538
 N1465 N 1.06632 0.78000 0.70494
 N1466 N 1.07680 0.78498 0.69991
 C1467 C 1.04929 0.77958 0.72104
 C1468 C 1.04376 0.76870 0.71566
 C1469 C 1.03306 0.76312 0.72117
 C1470 C 1.02765 0.76827 0.73220
 C1471 C 1.03306 0.77926 0.73748
 C1472 C 1.04375 0.78486 0.73196
 H1473 H 1.09545 0.78719 0.68428
 H1474 H 1.11437 0.79637 0.67496
 H1475 H 1.11455 0.82541 0.70392
 H1476 H 1.09561 0.81618 0.71322
 H1477 H 1.04777 0.76438 0.70726
 H1478 H 1.02918 0.75463 0.71690
 H1479 H 1.02915 0.78344 0.74601
 H1480 H 1.04776 0.79322 0.73637
 C1481 C 0.40597 0.69941 0.69963
 C1482 C 0.40039 0.70480 0.68880
 C1483 C 0.38949 0.69948 0.68345
 C1484 C 0.38385 0.68860 0.68875
 C1485 C 0.38941 0.68324 0.69964
 C1486 C 0.40032 0.68858 0.70501
 C1487 C 0.41763 0.70503 0.70521
 N1488 N 0.42311 0.69984 0.71564
 N1489 N 0.43359 0.70487 0.72062
 C1490 C 0.43907 0.71529 0.71536
 N1491 N 0.43359 0.72048 0.70493
 N1492 N 0.42310 0.71546 0.69995
 C1493 C 0.45067 0.72095 0.72101
 C1494 C 0.45624 0.73184 0.71567
 C1495 C 0.46693 0.73739 0.72124
 C1496 C 0.47229 0.73218 0.73227
 C1497 C 0.46685 0.72119 0.73750
 C1498 C 0.45617 0.71564 0.73193
 H1499 H 0.40445 0.71314 0.68440
 H1500 H 0.38557 0.70394 0.67510
 H1501 H 0.38540 0.67490 0.70406
 H1502 H 0.40436 0.68418 0.71337
 H1503 H 0.45227 0.73620 0.70727
 H1504 H 0.47085 0.74590 0.71702
 H1505 H 0.47070 0.71698 0.74604
 H1506 H 0.45213 0.70727 0.73630
 C1507 C 0.40606 0.19920 0.19962
 C1508 C 0.40048 0.20461 0.18880
 C1509 C 0.38960 0.19928 0.18343
 C1510 C 0.38397 0.18839 0.18871
 C1511 C 0.38950 0.18304 0.19962
 C1512 C 0.40040 0.18838 0.20500
 C1513 C 0.41773 0.20478 0.20519
 N1514 N 0.42321 0.19957 0.21561
 N1515 N 0.43372 0.20455 0.22058
 C1516 C 0.43921 0.21497 0.21532
 N1517 N 0.43374 0.22018 0.20489
 N1518 N 0.42323 0.21519 0.19993
 C1519 C 0.45081 0.22061 0.22096
 C1520 C 0.45639 0.23149 0.21561
 C1521 C 0.46707 0.23705 0.22117
 C1522 C 0.47244 0.23185 0.23221
 C1523 C 0.46700 0.22087 0.23746
 C1524 C 0.45631 0.21531 0.23190
 H1525 H 0.40453 0.21297 0.18442
 H1526 H 0.38567 0.20375 0.17509
 H1527 H 0.38547 0.17470 0.20405
 H1528 H 0.40441 0.18399 0.21338
 H1529 H 0.45242 0.23585 0.20721
 H1530 H 0.47100 0.24555 0.21694
 H1531 H 0.47086 0.21668 0.24600
 H1532 H 0.45227 0.20695 0.23629
 C1533 C -0.09402 0.69926 0.19948
 C1534 C -0.09958 0.68834 0.20475
 C1535 C -0.11044 0.68298 0.19934
 C1536 C -0.11603 0.68839 0.18849
 C1537 C -0.11048 0.69935 0.18327
 C1538 C -0.09962 0.70471 0.18868
 C1539 C -0.08241 0.70488 0.20513
 N1540 N -0.07698 0.71536 0.19998
 N1541 N -0.06652 0.72038 0.20500
 C1542 C -0.06103 0.71511 0.21540
 N1543 N -0.06647 0.70463 0.22057
 N1544 N -0.07693 0.69962 0.21554
 C1545 C -0.04943 0.72078 0.22104
 C1546 C -0.04386 0.71548 0.23193
 C1547 C -0.03316 0.72106 0.23744
 C1548 C -0.02778 0.73208 0.23219
 C1549 C -0.03322 0.73726 0.22118
 C1550 C -0.04392 0.73168 0.21568
 H1551 H -0.09553 0.68390 0.21308
 H1552 H -0.11441 0.67459 0.20372
 H1553 H -0.11445 0.70384 0.17496
 H1554 H -0.09562 0.71313 0.18437
 H1555 H -0.04785 0.70709 0.23632
 H1556 H -0.02924 0.71686 0.24595
 H1557 H -0.02935 0.74578 0.21693
 H1558 H -0.04794 0.73603 0.20729
 C1559 C -0.09410 0.19926 0.69955
 C1560 C -0.09976 0.18844 0.70491
 C1561 C -0.11065 0.18311 0.69952
 C1562 C -0.11618 0.18847 0.68862
 C1563 C -0.11054 0.19935 0.68333
 C1564 C -0.09965 0.20467 0.68871
 C1565 C -0.08246 0.20484 0.70518
 N1566 N -0.07696 0.21527 0.69996
 N1567 N -0.06649 0.22026 0.70497
 C1568 C -0.06105 0.21505 0.71541
 N1569 N -0.06655 0.20462 0.72064
 N1570 N -0.07702 0.19962 0.71563
 C1571 C -0.04946 0.22070 0.72105
 C1572 C -0.04393 0.21543 0.73198
 C1573 C -0.03323 0.22102 0.73750
 C1574 C -0.02782 0.23201 0.73222
 C1575 C -0.03322 0.23716 0.72118
 C1576 C -0.04391 0.23158 0.71567
 H1577 H -0.09575 0.18403 0.71328
 H1578 H -0.11467 0.17477 0.70394
 H1579 H -0.11446 0.20382 0.67498
 H1580 H -0.09558 0.21302 0.68433
 H1581 H -0.04795 0.20707 0.73639
 H1582 H -0.02934 0.21685 0.74604
 H1583 H -0.02932 0.24565 0.71691
 H1584 H -0.04791 0.23590 0.70726
 C1585 C 0.30058 0.40599 0.30025
 C1586 C 0.29516 0.40044 0.31108
 C1587 C 0.30049 0.38956 0.31648
 C1588 C 0.31140 0.38392 0.31119
 C1589 C 0.31675 0.38943 0.30029
 C1590 C 0.31142 0.40032 0.29489
 C1591 C 0.29500 0.41764 0.29463
 N1592 N 0.30024 0.42308 0.28419
 N1593 N 0.29525 0.43357 0.27918
 C1594 C 0.28481 0.43908 0.28441
 N1595 N 0.27958 0.43363 0.29484
 N1596 N 0.28457 0.42315 0.29984
 C1597 C 0.27917 0.45069 0.27878
 C1598 C 0.26829 0.45626 0.28416
 C1599 C 0.26274 0.46699 0.27867
 C1600 C 0.26793 0.47240 0.26766
 C1601 C 0.27892 0.46696 0.26238
 C1602 C 0.28447 0.45623 0.26787
 H1603 H 0.28679 0.40452 0.31545
 H1604 H 0.29601 0.38563 0.32481
 H1605 H 0.32509 0.38540 0.29587
 H1606 H 0.31583 0.40431 0.28652
 H1607 H 0.26394 0.45225 0.29255
 H1608 H 0.25423 0.47090 0.28294
 H1609 H 0.28311 0.47086 0.25386
 H1610 H 0.29284 0.45220 0.26346
 C1611 C 0.30095 -0.09434 0.80024
 C1612 C 0.29551 -0.09994 0.81102
 C1613 C 0.30082 -0.11084 0.81642
 C1614 C 0.31180 -0.11649 0.81121
 C1615 C 0.31719 -0.11085 0.80034
 C1616 C 0.31184 -0.09995 0.79495
 C1617 C 0.29535 -0.08269 0.79461
 N1618 N 0.30058 -0.07721 0.78419
 N1619 N 0.29557 -0.06672 0.77920
 C1620 C 0.28512 -0.06124 0.78442
 N1621 N 0.27988 -0.06673 0.79483
 N1622 N 0.28489 -0.07722 0.79982
 C1623 C 0.27945 -0.04961 0.77882
 C1624 C 0.26856 -0.04406 0.78420
 C1625 C 0.26299 -0.03334 0.77872
 C1626 C 0.26817 -0.02789 0.76772
 C1627 C 0.27917 -0.03331 0.76244
 C1628 C 0.28475 -0.04404 0.76792
 H1629 H 0.28711 -0.09589 0.81536
 H1630 H 0.29625 -0.11470 0.82473
 H1631 H 0.32557 -0.11475 0.79588
 H1632 H 0.31629 -0.09591 0.78662
 H1633 H 0.26422 -0.04809 0.79259
 H1634 H 0.25448 -0.02944 0.78299
 H1635 H 0.28337 -0.02940 0.75392
 H1636 H 0.29313 -0.04805 0.76352
 C1637 C 0.80069 0.40594 0.80049
 C1638 C 0.79526 0.40037 0.81129
 C1639 C 0.80055 0.38945 0.81665
 C1640 C 0.81148 0.38375 0.81138
 C1641 C 0.81683 0.38935 0.80047
 C1642 C 0.81151 0.40027 0.79512
 C1643 C 0.79515 0.41761 0.79489
 N1644 N 0.80040 0.42305 0.78446
 N1645 N 0.79545 0.43356 0.77946
 C1646 C 0.78503 0.43910 0.78469
 N1647 N 0.77978 0.43365 0.79511
 N1648 N 0.78473 0.42314 0.80011
 C1649 C 0.77941 0.45071 0.77906
 C1650 C 0.76853 0.45628 0.78444
 C1651 C 0.76296 0.46699 0.77893
 C1652 C 0.76813 0.47239 0.76790
 C1653 C 0.77913 0.46696 0.76263
 C1654 C 0.78471 0.45625 0.76814
 H1655 H 0.78689 0.40444 0.81566
 H1656 H 0.79598 0.38559 0.82497
 H1657 H 0.82516 0.38540 0.79596
 H1658 H 0.81592 0.40429 0.78677
 H1659 H 0.76419 0.45228 0.79283
 H1660 H 0.75445 0.47089 0.78320
 H1661 H 0.78332 0.47085 0.75410
 H1662 H 0.79308 0.45222 0.76374
 C1663 C 0.80069 -0.09423 0.30045
 C1664 C 0.79519 -0.09985 0.31119
 C1665 C 0.80053 -0.11071 0.31662
 C1666 C 0.81158 -0.11629 0.31149
 C1667 C 0.81700 -0.11064 0.30064
 C1668 C 0.81164 -0.09978 0.29522
 C1669 C 0.79510 -0.08260 0.29481
 N1670 N 0.80040 -0.07710 0.28443
 N1671 N 0.79541 -0.06661 0.27943
 C1672 C 0.78492 -0.06116 0.28459
 N1673 N 0.77961 -0.06667 0.29495
 N1674 N 0.78459 -0.07716 0.29995
 C1675 C 0.77929 -0.04953 0.27897
 C1676 C 0.76839 -0.04398 0.28432
 C1677 C 0.76286 -0.03324 0.27882
 C1678 C 0.76810 -0.02781 0.26784
 C1679 C 0.77911 -0.03323 0.26260
 C1680 C 0.78465 -0.04397 0.26810
 H1681 H 0.78672 -0.09587 0.31545
 H1682 H 0.79589 -0.11462 0.32488
 H1683 H 0.82543 -0.11450 0.29624
 H1684 H 0.81611 -0.09572 0.28692
 H1685 H 0.76400 -0.04801 0.29268
 H1686 H 0.75434 -0.02934 0.28307
 H1687 H 0.78335 -0.02931 0.25411
 H1688 H 0.79304 -0.04799 0.26373
 C1689 C 0.30067 0.59404 0.69955
 C1690 C 0.29528 0.59962 0.68873
 C1691 C 0.30060 0.61053 0.68338
 C1692 C 0.31147 0.61617 0.68870
 C1693 C 0.31683 0.61061 0.69959
 C1694 C 0.31150 0.59969 0.70494
 C1695 C 0.29506 0.58237 0.70512
 N1696 N 0.30025 0.57689 0.71555
 N1697 N 0.29523 0.56640 0.72051
 C1698 C 0.28481 0.56093 0.71525
 N1699 N 0.27961 0.56641 0.70482
 N1700 N 0.28463 0.57690 0.69986
 C1701 C 0.27916 0.54932 0.72088
 C1702 C 0.26827 0.54374 0.71554
 C1703 C 0.26273 0.53304 0.72109
 C1704 C 0.26795 0.52767 0.73212
 C1705 C 0.27894 0.53312 0.73735
 C1706 C 0.28448 0.54381 0.73180
 H1707 H 0.28694 0.59556 0.68432
 H1708 H 0.29613 0.61446 0.67504
 H1709 H 0.32517 0.61463 0.70401
 H1710 H 0.31590 0.59565 0.71330
 H1711 H 0.26390 0.54772 0.70714
 H1712 H 0.25423 0.52912 0.71687
 H1713 H 0.28315 0.52925 0.74588
 H1714 H 0.29285 0.54785 0.73618
 C1715 C 0.30074 1.09404 0.19954
 C1716 C 0.29534 1.09964 0.18874
 C1717 C 0.30068 1.11052 0.18338
 C1718 C 0.31158 1.11611 0.18867
 C1719 C 0.31693 1.11057 0.19957
 C1720 C 0.31157 1.09967 0.20494
 C1721 C 0.29515 1.08237 0.20508
 N1722 N 0.30037 1.07687 0.21549
 N1723 N 0.29538 1.06636 0.22044
 C1724 C 0.28496 1.06089 0.21518
 N1725 N 0.27974 1.06638 0.20476
 N1726 N 0.28474 1.07689 0.19982
 C1727 C 0.27931 1.04930 0.22081
 C1728 C 0.26841 1.04375 0.21547
 C1729 C 0.26285 1.03307 0.22103
 C1730 C 0.26805 1.02770 0.23206
 C1731 C 0.27905 1.03312 0.23730
 C1732 C 0.28461 1.04380 0.23173
 H1733 H 0.28697 1.09561 0.18435
 H1734 H 0.29621 1.11447 0.17505
 H1735 H 0.32527 1.11458 0.20401
 H1736 H 0.31596 1.09564 0.21330
 H1737 H 0.26405 1.04773 0.20707
 H1738 H 0.25433 1.02917 0.21681
 H1739 H 0.28325 1.02926 0.24584
 H1740 H 0.29299 1.04783 0.23612
 C1741 C 0.80059 0.59410 0.19965
 C1742 C 0.79518 0.59966 0.18882
 C1743 C 0.80045 0.61059 0.18349
 C1744 C 0.81129 0.61626 0.18884
 C1745 C 0.81665 0.61073 0.19973
 C1746 C 0.81136 0.59979 0.20506
 C1747 C 0.79506 0.58241 0.20520
 N1748 N 0.80029 0.57695 0.21564
 N1749 N 0.79533 0.56643 0.22060
 C1750 C 0.78494 0.56091 0.21533
 N1751 N 0.77972 0.56637 0.20489
 N1752 N 0.78467 0.57688 0.19993
 C1753 C 0.77929 0.54930 0.22094
 C1754 C 0.76841 0.54376 0.21556
 C1755 C 0.76282 0.53308 0.22109
 C1756 C 0.76798 0.52769 0.23213
 C1757 C 0.77898 0.53310 0.23740
 C1758 C 0.78457 0.54378 0.23187
 H1759 H 0.78686 0.59556 0.18439
 H1760 H 0.79598 0.61452 0.17515
 H1761 H 0.82495 0.61477 0.20419
 H1762 H 0.81577 0.59578 0.21342
 H1763 H 0.76409 0.54776 0.20715
 H1764 H 0.75432 0.52919 0.21682
 H1765 H 0.78315 0.52921 0.24594
 H1766 H 0.79295 0.54779 0.23627
 C1767 C 0.80068 1.09401 0.69948
 C1768 C 0.79526 1.09957 0.68866
 C1769 C 0.80056 1.11046 0.68329
 C1770 C 0.81145 1.11609 0.68859
 C1771 C 0.81681 1.11056 0.69948
 C1772 C 0.81150 1.09966 0.70485
 C1773 C 0.79511 1.08236 0.70508
 N1774 N 0.80034 1.07692 0.71552
 N1775 N 0.79535 1.06644 0.72053
 C1776 C 0.78493 1.06094 0.71531
 N1777 N 0.77970 1.06639 0.70487
 N1778 N 0.78469 1.07686 0.69986
 C1779 C 0.77927 1.04937 0.72096
 C1780 C 0.76838 1.04383 0.71560
 C1781 C 0.76279 1.03316 0.72114
 C1782 C 0.76796 1.02778 0.73218
 C1783 C 0.77897 1.03318 0.73743
 C1784 C 0.78456 1.04385 0.73189
 H1785 H 0.78690 1.09550 0.68427
 H1786 H 0.79609 1.11440 0.67495
 H1787 H 0.82515 1.11458 0.70391
 H1788 H 0.81591 1.09565 0.71321
 H1789 H 0.76404 1.04782 0.70719
 H1790 H 0.75428 1.02927 0.71690
 H1791 H 0.78314 1.02931 0.74598
 H1792 H 0.79293 1.04787 0.73628
 C1793 C 0.69929 0.59417 0.30036
 C1794 C 0.68845 0.59985 0.29502
 C1795 C 0.68312 0.61073 0.30043
 C1796 C 0.68850 0.61624 0.31132
 C1797 C 0.69939 0.61058 0.31660
 C1798 C 0.70471 0.59970 0.31119
 C1799 C 0.70486 0.58252 0.29473
 N1800 N 0.71529 0.57701 0.29995
 N1801 N 0.72028 0.56652 0.29496
 C1802 C 0.71504 0.56107 0.28454
 N1803 N 0.70461 0.56659 0.27931
 N1804 N 0.69963 0.57708 0.28430
 C1805 C 0.72067 0.54945 0.27892
 C1806 C 0.71536 0.54393 0.26801
 C1807 C 0.72091 0.53322 0.26249
 C1808 C 0.73189 0.52776 0.26775
 C1809 C 0.73710 0.53315 0.27876
 C1810 C 0.73156 0.54387 0.28428
 H1811 H 0.68402 0.59587 0.28666
 H1812 H 0.67476 0.61476 0.29605
 H1813 H 0.70387 0.61448 0.32495
 H1814 H 0.71308 0.59562 0.31555
 H1815 H 0.70699 0.54798 0.26362
 H1816 H 0.71671 0.52934 0.25396
 H1817 H 0.74561 0.52924 0.28300
 H1818 H 0.73592 0.54786 0.29267
 C1819 C 0.69923 1.09442 0.80042
 C1820 C 0.70458 1.09990 0.81130
 C1821 C 0.69930 1.11083 0.81667
 C1822 C 0.68848 1.11663 0.81132
 C1823 C 0.68320 1.11112 0.80034
 C1824 C 0.68850 1.10019 0.79498
 C1825 C 0.70478 1.08274 0.79482
 N1826 N 0.69959 1.07735 0.78434
 N1827 N 0.70457 1.06685 0.77934
 C1828 C 0.71495 1.06128 0.78462
 N1829 N 0.72013 1.06668 0.79510
 N1830 N 0.71515 1.07717 0.80009
 C1831 C 0.72059 1.04966 0.77899
 C1832 C 0.73146 1.04406 0.78438
 C1833 C 0.73702 1.03335 0.77886
 C1834 C 0.73185 1.02797 0.76783
 C1835 C 0.72088 1.03343 0.76254
 C1836 C 0.71531 1.04415 0.76806
 H1837 H 0.71285 1.09573 0.81575
 H1838 H 0.70380 1.11460 0.82506
 H1839 H 0.67494 1.11515 0.79577
 H1840 H 0.68413 1.09624 0.78658
 H1841 H 0.73579 1.04804 0.79279
 H1842 H 0.74551 1.02942 0.78314
 H1843 H 0.71670 1.02957 0.75401
 H1844 H 0.70695 1.04820 0.76365
 C1845 C 0.19927 0.59403 0.80037
 C1846 C 0.20468 0.59956 0.81121
 C1847 C 0.19938 0.61048 0.81657
 C1848 C 0.18852 0.61616 0.81125
 C1849 C 0.18316 0.61065 0.80035
 C1850 C 0.18847 0.59973 0.79498
 C1851 C 0.20482 0.58237 0.79476
 N1852 N 0.19959 0.57695 0.78432
 N1853 N 0.20455 0.56645 0.77932
 C1854 C 0.21496 0.56091 0.78455
 N1855 N 0.22019 0.56633 0.79499
 N1856 N 0.21523 0.57683 0.79999
 C1857 C 0.22059 0.54929 0.77892
 C1858 C 0.23146 0.54371 0.78429
 C1859 C 0.23703 0.53302 0.77877
 C1860 C 0.23185 0.52764 0.76774
 C1861 C 0.22086 0.53308 0.76247
 C1862 C 0.21528 0.54378 0.76800
 H1863 H 0.21301 0.59545 0.81562
 H1864 H 0.20384 0.61439 0.82492
 H1865 H 0.17483 0.61469 0.79592
 H1866 H 0.18406 0.59574 0.78662
 H1867 H 0.23580 0.54770 0.79269
 H1868 H 0.24553 0.52910 0.78302
 H1869 H 0.21667 0.52921 0.75394
 H1870 H 0.20691 0.54782 0.76360
 C1871 C 0.19929 1.09416 0.30024
 C1872 C 0.20478 1.09975 0.31101
 C1873 C 0.19947 1.11064 0.31641
 C1874 C 0.18851 1.11623 0.31120
 C1875 C 0.18306 1.11065 0.30037
 C1876 C 0.18838 1.09976 0.29497
 C1877 C 0.20488 1.08253 0.29460
 N1878 N 0.19961 1.07706 0.28420
 N1879 N 0.20461 1.06658 0.27919
 C1880 C 0.21509 1.06111 0.28437
 N1881 N 0.22037 1.06660 0.29475
 N1882 N 0.21537 1.07708 0.29976
 C1883 C 0.22072 1.04949 0.27876
 C1884 C 0.23161 1.04393 0.28411
 C1885 C 0.23715 1.03321 0.27862
 C1886 C 0.23193 1.02778 0.26763
 C1887 C 0.22092 1.03321 0.26238
 C1888 C 0.21537 1.04393 0.26788
 H1889 H 0.21319 1.09570 0.31533
 H1890 H 0.20400 1.11459 0.32470
 H1891 H 0.17466 1.11463 0.29603
 H1892 H 0.18390 1.09571 0.28668
 H1893 H 0.23599 1.04795 0.29248
 H1894 H 0.24567 1.02930 0.28286
 H1895 H 0.21670 1.02929 0.25389
 H1896 H 0.20699 1.04795 0.26351
 C1897 C 0.69926 0.40605 0.69964
 C1898 C 0.68843 0.40040 0.70500
 C1899 C 0.68312 0.38948 0.69964
 C1900 C 0.68849 0.38394 0.68875
 C1901 C 0.69937 0.38959 0.68345
 C1902 C 0.70467 0.40049 0.68881
 C1903 C 0.70487 0.41769 0.70526
 N1904 N 0.71530 0.42318 0.70004
 N1905 N 0.72031 0.43365 0.70504
 C1906 C 0.71509 0.43910 0.71548
 N1907 N 0.70466 0.43361 0.72072
 N1908 N 0.69965 0.42314 0.71571
 C1909 C 0.72074 0.45071 0.72110
 C1910 C 0.71545 0.45626 0.73201
 C1911 C 0.72102 0.46696 0.73752
 C1912 C 0.73202 0.47238 0.73225
 C1913 C 0.73719 0.46697 0.72122
 C1914 C 0.73162 0.45627 0.71572
 H1915 H 0.68401 0.40442 0.71335
 H1916 H 0.67477 0.38547 0.70406
 H1917 H 0.70384 0.38566 0.67511
 H1918 H 0.71302 0.40457 0.68441
 H1919 H 0.70707 0.45225 0.73642
 H1920 H 0.71683 0.47087 0.74604
 H1921 H 0.74569 0.47087 0.71695
 H1922 H 0.73596 0.45226 0.70732
 C1923 C 0.69935 -0.09402 0.19966
 C1924 C 0.68853 -0.09967 0.20505
 C1925 C 0.68321 -0.11057 0.19970
 C1926 C 0.68857 -0.11611 0.18881
 C1927 C 0.69946 -0.11050 0.18350
 C1928 C 0.70478 -0.09961 0.18885
 C1929 C 0.70491 -0.08237 0.20525
 N1930 N 0.71533 -0.07687 0.20002
 N1931 N 0.72029 -0.06637 0.20500
 C1932 C 0.71505 -0.06092 0.21542
 N1933 N 0.70462 -0.06642 0.22066
 N1934 N 0.69966 -0.07691 0.21567
 C1935 C 0.72069 -0.04932 0.22105
 C1936 C 0.71540 -0.04378 0.23196
 C1937 C 0.72099 -0.03310 0.23748
 C1938 C 0.73201 -0.02771 0.23221
 C1939 C 0.73717 -0.03312 0.22119
 C1940 C 0.73158 -0.04379 0.21567
 H1941 H 0.68413 -0.09564 0.21340
 H1942 H 0.67488 -0.11459 0.20414
 H1943 H 0.70394 -0.11445 0.17517
 H1944 H 0.71314 -0.09555 0.18446
 H1945 H 0.70701 -0.04779 0.23637
 H1946 H 0.71681 -0.02920 0.24601
 H1947 H 0.74568 -0.02924 0.21692
 H1948 H 0.73591 -0.04781 0.20727
 C1949 C 0.19920 0.40615 0.19952
 C1950 C 0.18849 0.40040 0.20501
 C1951 C 0.18321 0.38945 0.19969
 C1952 C 0.18853 0.38397 0.18875
 C1953 C 0.19930 0.38970 0.18334
 C1954 C 0.20457 0.40064 0.18865
 C1955 C 0.20473 0.41784 0.20508
 N1956 N 0.21509 0.42340 0.19977
 N1957 N 0.22006 0.43390 0.20474
 C1958 C 0.21488 0.43931 0.21522
 N1959 N 0.20451 0.43375 0.22052
 N1960 N 0.19955 0.42325 0.21555
 C1961 C 0.22053 0.45090 0.22085
 C1962 C 0.21526 0.45638 0.23181
 C1963 C 0.22085 0.46705 0.23735
 C1964 C 0.23183 0.47249 0.23207
 C1965 C 0.23698 0.46713 0.22101
 C1966 C 0.23139 0.45647 0.21547
 H1967 H 0.18413 0.40436 0.21342
 H1968 H 0.17496 0.38535 0.20421
 H1969 H 0.20373 0.38582 0.17495
 H1970 H 0.21285 0.40478 0.18418
 H1971 H 0.20690 0.45234 0.23622
 H1972 H 0.21668 0.47090 0.24591
 H1973 H 0.24547 0.47104 0.21674
 H1974 H 0.23572 0.45249 0.20705
 C1975 C 0.19928 -0.09386 0.69939
 C1976 C 0.18846 -0.09951 0.70477
 C1977 C 0.18314 -0.11041 0.69942
 C1978 C 0.18849 -0.11594 0.68852
 C1979 C 0.19939 -0.11033 0.68322
 C1980 C 0.20470 -0.09943 0.68857
 C1981 C 0.20484 -0.08222 0.70500
 N1982 N 0.21527 -0.07672 0.69978
 N1983 N 0.22026 -0.06626 0.70480
 C1984 C 0.21503 -0.06083 0.71525
 N1985 N 0.20460 -0.06633 0.72047
 N1986 N 0.19961 -0.07680 0.71544
 C1987 C 0.22070 -0.04927 0.72091
 C1988 C 0.21542 -0.04375 0.73184
 C1989 C 0.22102 -0.03308 0.73737
 C1990 C 0.23203 -0.02768 0.73211
 C1991 C 0.23718 -0.03307 0.72106
 C1992 C 0.23159 -0.04373 0.71554
 H1993 H 0.18405 -0.09550 0.71313
 H1994 H 0.17482 -0.11444 0.70387
 H1995 H 0.20388 -0.11428 0.67490
 H1996 H 0.21306 -0.09537 0.68418
 H1997 H 0.20704 -0.04777 0.73625
 H1998 H 0.21684 -0.02919 0.74591
 H1999 H 0.24569 -0.02918 0.71679
 H2000 H 0.23591 -0.04773 0.70713
 C2001 C 0.30040 0.30050 0.40601
 C2002 C 0.31123 0.29510 0.40039
 C2003 C 0.31657 0.30043 0.38949
 C2004 C 0.31122 0.31132 0.38391
 C2005 C 0.30032 0.31667 0.38950
 C2006 C 0.29499 0.31133 0.40040
 C2007 C 0.29483 0.29493 0.41767
 N2008 N 0.28439 0.30017 0.42316
 N2009 N 0.27942 0.29520 0.43365
 C2010 C 0.28467 0.28477 0.43913
 N2011 N 0.29510 0.27952 0.43365
 N2012 N 0.30008 0.28450 0.42315
 C2013 C 0.27904 0.27914 0.45074
 C2014 C 0.28438 0.26823 0.45629
 C2015 C 0.27884 0.26269 0.46698
 C2016 C 0.26782 0.26792 0.47239
 C2017 C 0.26258 0.27894 0.46698
 C2018 C 0.26812 0.28448 0.45629
 H2019 H 0.31565 0.28673 0.40442
 H2020 H 0.32492 0.29597 0.38552
 H2021 H 0.29585 0.32501 0.38552
 H2022 H 0.28661 0.31573 0.40443
 H2023 H 0.29278 0.26385 0.45228
 H2024 H 0.28307 0.25416 0.47087
 H2025 H 0.25405 0.28317 0.47087
 H2026 H 0.26374 0.29287 0.45229
 C2027 C 0.30071 0.80045 -0.09429
 C2028 C 0.31164 0.79514 -0.09984
 C2029 C 0.31694 0.80047 -0.11077
 C2030 C 0.31147 0.81126 -0.11644
 C2031 C 0.30048 0.81649 -0.11093
 C2032 C 0.29518 0.81116 -0.10000
 C2033 C 0.29516 0.79489 -0.08260
 N2034 N 0.28467 0.80007 -0.07718
 N2035 N 0.27971 0.79512 -0.06667
 C2036 C 0.28503 0.78476 -0.06111
 N2037 N 0.29553 0.77958 -0.06654
 N2038 N 0.30049 0.78453 -0.07705
 C2039 C 0.27940 0.77916 -0.04948
 C2040 C 0.28477 0.76829 -0.04388
 C2041 C 0.27922 0.76277 -0.03318
 C2042 C 0.26816 0.76799 -0.02781
 C2043 C 0.26291 0.77897 -0.03327
 C2044 C 0.26847 0.78449 -0.04397
 H2045 H 0.31616 0.78688 -0.09572
 H2046 H 0.32535 0.79609 -0.11470
 H2047 H 0.29593 0.82476 -0.11495
 H2048 H 0.28676 0.81551 -0.09601
 H2049 H 0.29319 0.76392 -0.04785
 H2050 H 0.28346 0.75427 -0.02925
 H2051 H 0.25437 0.78320 -0.02941
 H2052 H 0.26407 0.79286 -0.04800
 C2053 C 0.80031 0.30091 -0.09400
 C2054 C 0.81115 0.29551 -0.09963
 C2055 C 0.81647 0.30086 -0.11053
 C2056 C 0.81111 0.31175 -0.11610
 C2057 C 0.80021 0.31709 -0.11050
 C2058 C 0.79489 0.31174 -0.09960
 C2059 C 0.79475 0.29531 -0.08234
 N2060 N 0.78430 0.30053 -0.07685
 N2061 N 0.77933 0.29552 -0.06637
 C2062 C 0.78459 0.28508 -0.06091
 N2063 N 0.79503 0.27986 -0.06641
 N2064 N 0.80000 0.28487 -0.07689
 C2065 C 0.77897 0.27943 -0.04931
 C2066 C 0.78434 0.26852 -0.04379
 C2067 C 0.77881 0.26295 -0.03310
 C2068 C 0.76779 0.26816 -0.02767
 C2069 C 0.76253 0.27918 -0.03306
 C2070 C 0.76805 0.28475 -0.04374
 H2071 H 0.81557 0.28715 -0.09561
 H2072 H 0.82482 0.29641 -0.11452
 H2073 H 0.79575 0.32543 -0.11446
 H2074 H 0.78653 0.31615 -0.09555
 H2075 H 0.79273 0.26415 -0.04780
 H2076 H 0.78306 0.25443 -0.02922
 H2077 H 0.75399 0.28339 -0.02915
 H2078 H 0.76364 0.29313 -0.04773
 C2079 C 0.80028 0.80077 0.40602
 C2080 C 0.81111 0.79536 0.40038
 C2081 C 0.81641 0.80068 0.38946
 C2082 C 0.81104 0.81156 0.38388
 C2083 C 0.80015 0.81691 0.38948
 C2084 C 0.79485 0.81158 0.40040
 C2085 C 0.79474 0.79520 0.41770
 N2086 N 0.78431 0.80044 0.42320
 N2087 N 0.77935 0.79546 0.43370
 C2088 C 0.78461 0.78503 0.43917
 N2089 N 0.79505 0.77979 0.43367
 N2090 N 0.80000 0.78477 0.42317
 C2091 C 0.77899 0.77939 0.45077
 C2092 C 0.78435 0.76848 0.45630
 C2093 C 0.77882 0.76292 0.46699
 C2094 C 0.76780 0.76815 0.47242
 C2095 C 0.76255 0.77916 0.46702
 C2096 C 0.76808 0.78472 0.45633
 H2097 H 0.81553 0.78700 0.40441
 H2098 H 0.82475 0.79621 0.38547
 H2099 H 0.79567 0.82524 0.38550
 H2100 H 0.78649 0.81599 0.40445
 H2101 H 0.79274 0.76410 0.45229
 H2102 H 0.78306 0.75439 0.47087
 H2103 H 0.75401 0.78338 0.47093
 H2104 H 0.76368 0.79311 0.45234
 C2105 C 0.69945 0.30052 0.59382
 C2106 C 0.68862 0.29513 0.59946
 C2107 C 0.68330 0.30046 0.61037
 C2108 C 0.68865 0.31135 0.61593
 C2109 C 0.69956 0.31666 0.61035
 C2110 C 0.70487 0.31133 0.59944
 C2111 C 0.70501 0.29494 0.58216
 N2112 N 0.71546 0.30015 0.57667
 N2113 N 0.72043 0.29516 0.56619
 C2114 C 0.71518 0.28474 0.56072
 N2115 N 0.70473 0.27952 0.56620
 N2116 N 0.69976 0.28451 0.57668
 C2117 C 0.72081 0.27909 0.54911
 C2118 C 0.71544 0.26820 0.54357
 C2119 C 0.72097 0.26266 0.53286
 C2120 C 0.73198 0.26788 0.52744
 C2121 C 0.73724 0.27887 0.53285
 C2122 C 0.73172 0.28441 0.54355
 H2123 H 0.68419 0.28678 0.59543
 H2124 H 0.67497 0.29601 0.61437
 H2125 H 0.70404 0.32498 0.61434
 H2126 H 0.71324 0.31572 0.59540
 H2127 H 0.70705 0.26383 0.54758
 H2128 H 0.71672 0.25416 0.52896
 H2129 H 0.74577 0.28309 0.52894
 H2130 H 0.73613 0.29278 0.54756
 C2131 C 0.69950 0.80067 1.09392
 C2132 C 0.70490 0.81149 1.09954
 C2133 C 0.69956 0.81682 1.11043
 C2134 C 0.68866 0.81148 1.11601
 C2135 C 0.68332 0.80061 1.11042
 C2136 C 0.68866 0.79528 1.09953
 C2137 C 0.70509 0.79509 1.08226
 N2138 N 0.69985 0.78467 1.07678
 N2139 N 0.70484 0.77969 1.06630
 C2140 C 0.71528 0.78492 1.06082
 N2141 N 0.72052 0.79534 1.06630
 N2142 N 0.71554 0.80032 1.07679
 C2143 C 0.72091 0.77929 1.04920
 C2144 C 0.73182 0.78462 1.04365
 C2145 C 0.73735 0.77909 1.03295
 C2146 C 0.73209 0.76809 1.02754
 C2147 C 0.72108 0.76287 1.03295
 C2148 C 0.71555 0.76841 1.04365
 H2149 H 0.71327 0.81589 1.09551
 H2150 H 0.70401 0.82516 1.11441
 H2151 H 0.67496 0.79616 1.11439
 H2152 H 0.68425 0.78692 1.09549
 H2153 H 0.73622 0.79300 1.04766
 H2154 H 0.74588 0.78330 1.02905
 H2155 H 0.71684 0.75436 1.02906
 H2156 H 0.70715 0.76403 1.04766
 C2157 C 0.19945 0.30069 1.09387
 C2158 C 0.18860 0.29531 1.09947
 C2159 C 0.18324 0.30068 1.11034
 C2160 C 0.18857 0.31157 1.11590
 C2161 C 0.19948 0.31690 1.11033
 C2162 C 0.20484 0.31153 1.09946
 C2163 C 0.20505 0.29509 1.08223
 N2164 N 0.21550 0.30030 1.07675
 N2165 N 0.22048 0.29531 1.06628
 C2166 C 0.21524 0.28488 1.06081
 N2167 N 0.20480 0.27965 1.06630
 N2168 N 0.19981 0.28465 1.07678
 C2169 C 0.22085 0.27924 1.04920
 C2170 C 0.21548 0.26835 1.04367
 C2171 C 0.22099 0.26281 1.03296
 C2172 C 0.23201 0.26802 1.02753
 C2173 C 0.23727 0.27902 1.03293
 C2174 C 0.23176 0.28456 1.04363
 H2175 H 0.18420 0.28695 1.09545
 H2176 H 0.17489 0.29623 1.11432
 H2177 H 0.20394 0.32524 1.11430
 H2178 H 0.21321 0.31593 1.09542
 H2179 H 0.20709 0.26398 1.04769
 H2180 H 0.21674 0.25430 1.02908
 H2181 H 0.24579 0.28323 1.02901
 H2182 H 0.23616 0.29293 1.04763
 C2183 C 0.19952 0.80071 0.59375
 C2184 C 0.18869 0.79531 0.59937
 C2185 C 0.18335 0.80064 0.61026
 C2186 C 0.18868 0.81153 0.61584
 C2187 C 0.19958 0.81687 0.61026
 C2188 C 0.20492 0.81153 0.59936
 C2189 C 0.20509 0.79515 0.58208
 N2190 N 0.21552 0.80039 0.57659
 N2191 N 0.22050 0.79542 0.56609
 C2192 C 0.21525 0.78500 0.56061
 N2193 N 0.20482 0.77976 0.56610
 N2194 N 0.19985 0.78473 0.57659
 C2195 C 0.22087 0.77938 0.54899
 C2196 C 0.21551 0.76849 0.54345
 C2197 C 0.22104 0.76295 0.53276
 C2198 C 0.23206 0.76816 0.52734
 C2199 C 0.23731 0.77916 0.53274
 C2200 C 0.23178 0.78471 0.54344
 H2201 H 0.18430 0.78694 0.59534
 H2202 H 0.17501 0.79618 0.61425
 H2203 H 0.20404 0.82520 0.61424
 H2204 H 0.21330 0.81593 0.59534
 H2205 H 0.20712 0.76411 0.54747
 H2206 H 0.21680 0.75443 0.52887
 H2207 H 0.24584 0.78337 0.52884
 H2208 H 0.23618 0.79308 0.54744
 C2209 C 0.30048 0.69960 0.59381
 C2210 C 0.29507 0.68878 0.59942
 C2211 C 0.30039 0.68345 0.61032
 C2212 C 0.31128 0.68879 0.61591
 C2213 C 0.31663 0.69968 0.61033
 C2214 C 0.31131 0.70500 0.59942
 C2215 C 0.29490 0.70519 0.58215
 N2216 N 0.30014 0.71562 0.57668
 N2217 N 0.29516 0.72061 0.56619
 C2218 C 0.28473 0.71538 0.56071
 N2219 N 0.27948 0.70495 0.56619
 N2220 N 0.28446 0.69996 0.57667
 C2221 C 0.27910 0.72102 0.54910
 C2222 C 0.26819 0.71568 0.54355
 C2223 C 0.26267 0.72122 0.53284
 C2224 C 0.26791 0.73222 0.52742
 C2225 C 0.27892 0.73744 0.53284
 C2226 C 0.28445 0.73191 0.54355
 H2227 H 0.28672 0.68436 0.59538
 H2228 H 0.29593 0.67512 0.61431
 H2229 H 0.32496 0.70413 0.61432
 H2230 H 0.31573 0.71335 0.59539
 H2231 H 0.26380 0.70731 0.54756
 H2232 H 0.25414 0.71700 0.52895
 H2233 H 0.28317 0.74595 0.52894
 H2234 H 0.29284 0.73628 0.54755
 C2235 C 0.30045 0.19947 1.09389
 C2236 C 0.29507 0.18864 1.09951
 C2237 C 0.30041 0.18332 1.11040
 C2238 C 0.31129 0.18868 1.11597
 C2239 C 0.31664 0.19955 1.11037
 C2240 C 0.31129 0.20487 1.09948
 C2241 C 0.29485 0.20505 1.08225
 N2242 N 0.30007 0.21548 1.07677
 N2243 N 0.29508 0.22046 1.06629
 C2244 C 0.28464 0.21522 1.06082
 N2245 N 0.27940 0.20480 1.06632
 N2246 N 0.28440 0.19982 1.07680
 C2247 C 0.27901 0.22084 1.04921
 C2248 C 0.26810 0.21551 1.04366
 C2249 C 0.26257 0.22105 1.03296
 C2250 C 0.26781 0.23204 1.02754
 C2251 C 0.27884 0.23726 1.03294
 C2252 C 0.28437 0.23173 1.04364
 H2253 H 0.28672 0.18421 1.09548
 H2254 H 0.29598 0.17496 1.11438
 H2255 H 0.32501 0.20399 1.11432
 H2256 H 0.31572 0.21321 1.09543
 H2257 H 0.26371 0.20713 1.04768
 H2258 H 0.25404 0.21683 1.02907
 H2259 H 0.28308 0.24577 1.02904
 H2260 H 0.29277 0.23610 1.04764
 C2261 C 0.80060 0.69944 1.09381
 C2262 C 0.79530 0.68851 1.09931
 C2263 C 0.80066 0.68315 1.11019
 C2264 C 0.81145 0.68858 1.11587
 C2265 C 0.81670 0.69956 1.11038
 C2266 C 0.81135 0.70492 1.09950
 C2267 C 0.79497 0.70507 1.08220
 N2268 N 0.80012 0.71559 1.07681
 N2269 N 0.79509 0.72061 1.06636
 C2270 C 0.78471 0.71533 1.06083
 N2271 N 0.77955 0.70482 1.06623
 N2272 N 0.78458 0.69980 1.07668
 C2273 C 0.77906 0.72099 1.04924
 C2274 C 0.76819 0.71562 1.04366
 C2275 C 0.76267 0.72116 1.03295
 C2276 C 0.76789 0.73218 1.02756
 C2277 C 0.77887 0.73744 1.03302
 C2278 C 0.78439 0.73191 1.04373
 H2279 H 0.78701 0.68404 1.09521
 H2280 H 0.79626 0.67475 1.11410
 H2281 H 0.82498 0.70407 1.11442
 H2282 H 0.81568 0.71335 1.09555
 H2283 H 0.76382 0.70722 1.04764
 H2284 H 0.75417 0.71691 1.02902
 H2285 H 0.78308 0.74598 1.02915
 H2286 H 0.79275 0.73632 1.04777
 C2287 C 0.80036 0.19942 0.59379
 C2288 C 0.79496 0.18860 0.59942
 C2289 C 0.80030 0.18328 0.61033
 C2290 C 0.81118 0.18864 0.61591
 C2291 C 0.81652 0.19952 0.61031
 C2292 C 0.81118 0.20483 0.59940
 C2293 C 0.79478 0.20497 0.58213
 N2294 N 0.80002 0.21540 0.57664
 N2295 N 0.79504 0.22036 0.56614
 C2296 C 0.78462 0.21511 0.56066
 N2297 N 0.77938 0.20469 0.56615
 N2298 N 0.78435 0.19973 0.57665
 C2299 C 0.77899 0.22073 0.54905
 C2300 C 0.76809 0.21540 0.54350
 C2301 C 0.76256 0.22094 0.53280
 C2302 C 0.76781 0.23195 0.52739
 C2303 C 0.77882 0.23716 0.53280
 C2304 C 0.78435 0.23162 0.54350
 H2305 H 0.78661 0.18417 0.59539
 H2306 H 0.79584 0.17495 0.61432
 H2307 H 0.82485 0.20399 0.61428
 H2308 H 0.81559 0.21318 0.59535
 H2309 H 0.76369 0.20702 0.54751
 H2310 H 0.75403 0.21673 0.52890
 H2311 H 0.78306 0.24568 0.52891
 H2312 H 0.79274 0.23600 0.54751
 C2313 C 0.69945 0.69966 0.40609
 C2314 C 0.70487 0.68883 0.40049
 C2315 C 0.69956 0.68350 0.38959
 C2316 C 0.68867 0.68885 0.38399
 C2317 C 0.68330 0.69973 0.38957
 C2318 C 0.68861 0.70505 0.40048
 C2319 C 0.70501 0.70524 0.41775
 N2320 N 0.69975 0.71567 0.42322
 N2321 N 0.70472 0.72065 0.43371
 C2322 C 0.71515 0.71541 0.43920
 N2323 N 0.72041 0.70498 0.43372
 N2324 N 0.71545 0.70000 0.42324
 C2325 C 0.72077 0.72104 0.45081
 C2326 C 0.73168 0.71570 0.45636
 C2327 C 0.73720 0.72123 0.46705
 C2328 C 0.73196 0.73225 0.47246
 C2329 C 0.72093 0.73747 0.46704
 C2330 C 0.71540 0.73194 0.45635
 H2331 H 0.71322 0.68441 0.40455
 H2332 H 0.70403 0.67516 0.38562
 H2333 H 0.67495 0.70418 0.38560
 H2334 H 0.68417 0.71339 0.40452
 H2335 H 0.73607 0.70731 0.45236
 H2336 H 0.74573 0.71700 0.47095
 H2337 H 0.71669 0.74599 0.47093
 H2338 H 0.70701 0.73632 0.45234
 C2339 C 0.69945 0.19949 -0.09399
 C2340 C 0.68860 0.20485 -0.09961
 C2341 C 0.68327 0.19948 -0.11049
 C2342 C 0.68865 0.18859 -0.11605
 C2343 C 0.69956 0.18328 -0.11045
 C2344 C 0.70488 0.18865 -0.09957
 C2345 C 0.70503 0.20511 -0.08235
 N2346 N 0.71549 0.19991 -0.07687
 N2347 N 0.72047 0.20493 -0.06641
 C2348 C 0.71519 0.21536 -0.06095
 N2349 N 0.70474 0.22056 -0.06643
 N2350 N 0.69977 0.21555 -0.07690
 C2351 C 0.72081 0.22101 -0.04934
 C2352 C 0.71543 0.23190 -0.04380
 C2353 C 0.72095 0.23744 -0.03310
 C2354 C 0.73198 0.23222 -0.02768
 C2355 C 0.73724 0.22122 -0.03309
 C2356 C 0.73173 0.21568 -0.04379
 H2357 H 0.68416 0.21320 -0.09559
 H2358 H 0.67491 0.20391 -0.11447
 H2359 H 0.70404 0.17494 -0.11441
 H2360 H 0.71326 0.18427 -0.09553
 H2361 H 0.70703 0.23627 -0.04781
 H2362 H 0.71670 0.24595 -0.02921
 H2363 H 0.74577 0.21700 -0.02919
 H2364 H 0.73614 0.20730 -0.04779
 C2365 C 0.19936 0.69950 -0.09392
 C2366 C 0.20466 0.68856 -0.09942
 C2367 C 0.19932 0.68322 -0.11031
 C2368 C 0.18853 0.68867 -0.11599
 C2369 C 0.18328 0.69966 -0.11051
 C2370 C 0.18862 0.70499 -0.09962
 C2371 C 0.20498 0.70511 -0.08230
 N2372 N 0.19983 0.71563 -0.07691
 N2373 N 0.20485 0.72064 -0.06646
 C2374 C 0.21523 0.71534 -0.06093
 N2375 N 0.22038 0.70482 -0.06632
 N2376 N 0.21536 0.69981 -0.07677
 C2377 C 0.22090 0.72099 -0.04936
 C2378 C 0.23178 0.71561 -0.04379
 C2379 C 0.23734 0.72115 -0.03311
 C2380 C 0.23216 0.73220 -0.02774
 C2381 C 0.22117 0.73749 -0.03318
 C2382 C 0.21561 0.73195 -0.04386
 H2383 H 0.21295 0.68407 -0.09531
 H2384 H 0.20372 0.67481 -0.11421
 H2385 H 0.17500 0.70418 -0.11456
 H2386 H 0.18428 0.71343 -0.09567
 H2387 H 0.23613 0.70718 -0.04776
 H2388 H 0.24584 0.71688 -0.02919
 H2389 H 0.21699 0.74605 -0.02932
 H2390 H 0.20725 0.73637 -0.04789
 C2391 C 0.19943 0.19956 0.40602
 C2392 C 0.18861 0.20498 0.40039
 C2393 C 0.18330 0.19967 0.38948
 C2394 C 0.18866 0.18878 0.38390
 C2395 C 0.19955 0.18343 0.38948
 C2396 C 0.20486 0.18875 0.40040
 C2397 C 0.20498 0.20511 0.41770
 N2398 N 0.21540 0.19986 0.42319
 N2399 N 0.22036 0.20482 0.43369
 C2400 C 0.21510 0.21525 0.43917
 N2401 N 0.20467 0.22049 0.43368
 N2402 N 0.19971 0.21553 0.42318
 C2403 C 0.22073 0.22087 0.45077
 C2404 C 0.21538 0.23178 0.45631
 C2405 C 0.22092 0.23731 0.46700
 C2406 C 0.23193 0.23207 0.47241
 C2407 C 0.23718 0.22106 0.46701
 C2408 C 0.23164 0.21552 0.45632
 H2409 H 0.18419 0.21334 0.40442
 H2410 H 0.17496 0.20413 0.38549
 H2411 H 0.20403 0.17510 0.38551
 H2412 H 0.21322 0.18434 0.40444
 H2413 H 0.20699 0.23616 0.45230
 H2414 H 0.21669 0.24584 0.47089
 H2415 H 0.24571 0.21683 0.47090
 H2416 H 0.23603 0.20714 0.45232
 C2417 C 0.30066 0.40610 0.69948
 C2418 C 0.31156 0.40050 0.70476
 C2419 C 0.31689 0.38960 0.69937
 C2420 C 0.31145 0.38403 0.68855
 C2421 C 0.30048 0.38960 0.68334
 C2422 C 0.29517 0.40049 0.68873
 C2423 C 0.29507 0.41773 0.70510
 N2424 N 0.28458 0.42319 0.69993
 N2425 N 0.27958 0.43367 0.70493
 C2426 C 0.28485 0.43917 0.71530
 N2427 N 0.29533 0.43371 0.72049
 N2428 N 0.30034 0.42322 0.71549
 C2429 C 0.27921 0.45078 0.72092
 C2430 C 0.28455 0.45634 0.73179
 C2431 C 0.27901 0.46706 0.73730
 C2432 C 0.26799 0.47248 0.73206
 C2433 C 0.26277 0.46706 0.72107
 C2434 C 0.26831 0.45633 0.71557
 H2435 H 0.31604 0.40455 0.71306
 H2436 H 0.32529 0.38563 0.70373
 H2437 H 0.29594 0.38562 0.67506
 H2438 H 0.28675 0.40452 0.68441
 H2439 H 0.29294 0.45232 0.73617
 H2440 H 0.28324 0.47097 0.74579
 H2441 H 0.25425 0.47096 0.71683
 H2442 H 0.26393 0.45231 0.70721
 C2443 C 0.30078 0.90627 0.19933
 C2444 C 0.29539 0.90077 0.18845
 C2445 C 0.30067 0.88985 0.18309
 C2446 C 0.31149 0.88413 0.18846
 C2447 C 0.31679 0.88957 0.19941
 C2448 C 0.31151 0.90050 0.20477
 C2449 C 0.29525 0.91795 0.20491
 N2450 N 0.30045 0.92335 0.21538
 N2451 N 0.29548 0.93385 0.22037
 C2452 C 0.28510 0.93942 0.21510
 N2453 N 0.27992 0.93403 0.20462
 N2454 N 0.28489 0.92353 0.19963
 C2455 C 0.27943 0.95100 0.22075
 C2456 C 0.26855 0.95657 0.21538
 C2457 C 0.26295 0.96724 0.22094
 C2458 C 0.26809 0.97258 0.23200
 C2459 C 0.27908 0.96714 0.23727
 C2460 C 0.28469 0.95647 0.23171
 H2461 H 0.28709 0.90492 0.18403
 H2462 H 0.29622 0.88598 0.17472
 H2463 H 0.32505 0.88546 0.20390
 H2464 H 0.31588 0.90443 0.21318
 H2465 H 0.26423 0.95261 0.20696
 H2466 H 0.25444 0.97115 0.21668
 H2467 H 0.28324 0.97098 0.24583
 H2468 H 0.29305 0.95242 0.23611
 C2469 C 0.80075 0.40628 0.19941
 C2470 C 0.79535 0.40078 0.18854
 C2471 C 0.80059 0.38983 0.18321
 C2472 C 0.81138 0.38407 0.18860
 C2473 C 0.81672 0.38954 0.19952
 C2474 C 0.81148 0.40051 0.20485
 C2475 C 0.79522 0.41798 0.20498
 N2476 N 0.80041 0.42337 0.21546
 N2477 N 0.79542 0.43387 0.22045
 C2478 C 0.78504 0.43942 0.21518
 N2479 N 0.77986 0.43403 0.20470
 N2480 N 0.78485 0.42354 0.19971
 C2481 C 0.77937 0.45100 0.22084
 C2482 C 0.76848 0.45658 0.21548
 C2483 C 0.76287 0.46723 0.22105
 C2484 C 0.76802 0.47257 0.23211
 C2485 C 0.77902 0.46713 0.23737
 C2486 C 0.78463 0.45647 0.23179
 H2487 H 0.78708 0.40496 0.18409
 H2488 H 0.79614 0.38595 0.17484
 H2489 H 0.82499 0.38543 0.20400
 H2490 H 0.81588 0.40447 0.21324
 H2491 H 0.76416 0.45262 0.20705
 H2492 H 0.75437 0.47115 0.21680
 H2493 H 0.78318 0.47097 0.24593
 H2494 H 0.79300 0.45243 0.23619
 C2495 C 0.80078 0.90639 0.69949
 C2496 C 0.79533 0.90083 0.68869
 C2497 C 0.80064 0.88994 0.68328
 C2498 C 0.81156 0.88432 0.68852
 C2499 C 0.81692 0.88980 0.69943
 C2500 C 0.81160 0.90069 0.70484
 C2501 C 0.79523 0.91806 0.70508
 N2502 N 0.80046 0.92352 0.71551
 N2503 N 0.79546 0.93400 0.72051
 C2504 C 0.78502 0.93950 0.71529
 N2505 N 0.77980 0.93406 0.70486
 N2506 N 0.78480 0.92358 0.69986
 C2507 C 0.77932 0.95107 0.72097
 C2508 C 0.76840 0.95661 0.71564
 C2509 C 0.76279 0.96727 0.72120
 C2510 C 0.76796 0.97265 0.73223
 C2511 C 0.77898 0.96723 0.73747
 C2512 C 0.78459 0.95657 0.73190
 H2513 H 0.78694 0.90489 0.68435
 H2514 H 0.79612 0.88601 0.67497
 H2515 H 0.82524 0.88573 0.70386
 H2516 H 0.81601 0.90466 0.71322
 H2517 H 0.76405 0.95262 0.70724
 H2518 H 0.75426 0.97116 0.71697
 H2519 H 0.78316 0.97110 0.74601
 H2520 H 0.79298 0.95255 0.73628
 C2521 C 0.69933 0.59405 0.69973
 C2522 C 0.70469 0.59954 0.68884
 C2523 C 0.69944 0.61050 0.68353
 C2524 C 0.68868 0.61627 0.68896
 C2525 C 0.68337 0.61081 0.69991
 C2526 C 0.68863 0.59984 0.70522
 C2527 C 0.70485 0.58234 0.70528
 N2528 N 0.69967 0.57693 0.71576
 N2529 N 0.70464 0.56641 0.72073
 C2530 C 0.71500 0.56084 0.71542
 N2531 N 0.72017 0.56624 0.70493
 N2532 N 0.71520 0.57675 0.69997
 C2533 C 0.72066 0.54923 0.72105
 C2534 C 0.73153 0.54365 0.71566
 C2535 C 0.73712 0.53297 0.72120
 C2536 C 0.73198 0.52761 0.73226
 C2537 C 0.72100 0.53306 0.73755
 C2538 C 0.71540 0.54375 0.73201
 H2539 H 0.71295 0.59537 0.68437
 H2540 H 0.70387 0.61437 0.67514
 H2541 H 0.67512 0.61492 0.70441
 H2542 H 0.68427 0.59588 0.71363
 H2543 H 0.73584 0.54762 0.70724
 H2544 H 0.74562 0.52905 0.71693
 H2545 H 0.71684 0.52922 0.74611
 H2546 H 0.70704 0.54779 0.73642
 C2547 C 0.69930 0.09372 0.19942
 C2548 C 0.68847 0.09939 0.20478
 C2549 C 0.68316 0.11030 0.19940
 C2550 C 0.68854 0.11583 0.18852
 C2551 C 0.69943 0.11018 0.18322
 C2552 C 0.70473 0.09927 0.18860
 C2553 C 0.70487 0.08208 0.20505
 N2554 N 0.71531 0.07657 0.19985
 N2555 N 0.72031 0.06609 0.20487
 C2556 C 0.71507 0.06066 0.21531
 N2557 N 0.70464 0.06617 0.22052
 N2558 N 0.69964 0.07665 0.21550
 C2559 C 0.72072 0.04906 0.22096
 C2560 C 0.71542 0.04355 0.23187
 C2561 C 0.72099 0.03285 0.23741
 C2562 C 0.73201 0.02743 0.23217
 C2563 C 0.73719 0.03281 0.22113
 C2564 C 0.73162 0.04350 0.21560
 H2565 H 0.68404 0.09539 0.21313
 H2566 H 0.67483 0.11434 0.20383
 H2567 H 0.70393 0.11411 0.17490
 H2568 H 0.71309 0.09518 0.18422
 H2569 H 0.70704 0.04758 0.23626
 H2570 H 0.71679 0.02898 0.24594
 H2571 H 0.74569 0.02889 0.21688
 H2572 H 0.73596 0.04748 0.20719
 C2573 C 0.19907 0.59396 0.19934
 C2574 C 0.18824 0.59962 0.20470
 C2575 C 0.18293 0.61054 0.19933
 C2576 C 0.18830 0.61607 0.18845
 C2577 C 0.19919 0.61042 0.18315
 C2578 C 0.20449 0.59951 0.18851
 C2579 C 0.20466 0.58231 0.20495
 N2580 N 0.21510 0.57681 0.19974
 N2581 N 0.22009 0.56633 0.20475
 C2582 C 0.21486 0.56088 0.21519
 N2583 N 0.20443 0.56639 0.22041
 N2584 N 0.19943 0.57687 0.21540
 C2585 C 0.22051 0.54928 0.22083
 C2586 C 0.21521 0.54376 0.23174
 C2587 C 0.22079 0.53306 0.23728
 C2588 C 0.23180 0.52764 0.23202
 C2589 C 0.23698 0.53302 0.22099
 C2590 C 0.23140 0.54372 0.21546
 H2591 H 0.18381 0.59560 0.21304
 H2592 H 0.17458 0.61457 0.20376
 H2593 H 0.20367 0.61435 0.17481
 H2594 H 0.21284 0.59542 0.18411
 H2595 H 0.20683 0.54778 0.23613
 H2596 H 0.21660 0.52918 0.24580
 H2597 H 0.24549 0.52912 0.21673
 H2598 H 0.23574 0.54771 0.20705
 C2599 C 0.19909 0.09372 0.69948
 C2600 C 0.20454 0.09927 0.68866
 C2601 C 0.19927 0.11022 0.68332
 C2602 C 0.18840 0.11589 0.68864
 C2603 C 0.18301 0.11035 0.69950
 C2604 C 0.18828 0.09940 0.70484
 C2605 C 0.20467 0.08207 0.70510
 N2606 N 0.19947 0.07663 0.71556
 N2607 N 0.20451 0.06617 0.72057
 C2608 C 0.21495 0.06068 0.71534
 N2609 N 0.22015 0.06612 0.70490
 N2610 N 0.21512 0.07658 0.69988
 C2611 C 0.22066 0.04909 0.72099
 C2612 C 0.23156 0.04355 0.71561
 C2613 C 0.23716 0.03286 0.72114
 C2614 C 0.23200 0.02746 0.73218
 C2615 C 0.22099 0.03288 0.73744
 C2616 C 0.21538 0.04356 0.73191
 H2617 H 0.21287 0.09516 0.68427
 H2618 H 0.20378 0.11416 0.67499
 H2619 H 0.17469 0.11440 0.70393
 H2620 H 0.18382 0.09540 0.71318
 H2621 H 0.23588 0.04754 0.70720
 H2622 H 0.24566 0.02896 0.71687
 H2623 H 0.21680 0.02899 0.74597
 H2624 H 0.20700 0.04758 0.73630
 C2625 C 0.30058 0.59404 0.30018
 C2626 C 0.29521 0.59955 0.31106
 C2627 C 0.30048 0.61048 0.31639
 C2628 C 0.31127 0.61621 0.31100
 C2629 C 0.31659 0.61073 0.30006
 C2630 C 0.31132 0.59979 0.29473
 C2631 C 0.29505 0.58235 0.29462
 N2632 N 0.30024 0.57694 0.28414
 N2633 N 0.29527 0.56643 0.27917
 C2634 C 0.28490 0.56088 0.28447
 N2635 N 0.27972 0.56630 0.29494
 N2636 N 0.28469 0.57680 0.29991
 C2637 C 0.27926 0.54928 0.27885
 C2638 C 0.26839 0.54371 0.28424
 C2639 C 0.26281 0.53303 0.27871
 C2640 C 0.26797 0.52766 0.26766
 C2641 C 0.27894 0.53309 0.26237
 C2642 C 0.28453 0.54378 0.26790
 H2643 H 0.28693 0.59539 0.31552
 H2644 H 0.29604 0.61435 0.32478
 H2645 H 0.32486 0.61481 0.29557
 H2646 H 0.31570 0.59582 0.28633
 H2647 H 0.26406 0.54769 0.29266
 H2648 H 0.25431 0.52912 0.28298
 H2649 H 0.28311 0.52924 0.25382
 H2650 H 0.29289 0.54781 0.26349
 C2651 C 0.30057 0.09392 0.80032
 C2652 C 0.29513 0.09949 0.81113
 C2653 C 0.30044 0.11040 0.81649
 C2654 C 0.31132 0.11603 0.81119
 C2655 C 0.31668 0.11051 0.80028
 C2656 C 0.31137 0.09960 0.79492
 C2657 C 0.29504 0.08223 0.79475
 N2658 N 0.30029 0.07678 0.78433
 N2659 N 0.29535 0.06627 0.77935
 C2660 C 0.28494 0.06074 0.78459
 N2661 N 0.27970 0.06618 0.79502
 N2662 N 0.28464 0.07670 0.80000
 C2663 C 0.27933 0.04912 0.77897
 C2664 C 0.26846 0.04354 0.78434
 C2665 C 0.26293 0.03283 0.77883
 C2666 C 0.26813 0.02744 0.76781
 C2667 C 0.27910 0.03290 0.76253
 C2668 C 0.28464 0.04361 0.76804
 H2669 H 0.28677 0.09543 0.81551
 H2670 H 0.29595 0.11433 0.82482
 H2671 H 0.32500 0.11455 0.79583
 H2672 H 0.31576 0.09560 0.78655
 H2673 H 0.26410 0.04754 0.79273
 H2674 H 0.25443 0.02891 0.78308
 H2675 H 0.28329 0.02903 0.75399
 H2676 H 0.29299 0.04766 0.76363
 C2677 C 0.80084 0.59396 0.80042
 C2678 C 0.79545 0.59952 0.81126
 C2679 C 0.80078 0.61039 0.81664
 C2680 C 0.81165 0.61604 0.81134
 C2681 C 0.81703 0.61050 0.80045
 C2682 C 0.81169 0.59960 0.79506
 C2683 C 0.79523 0.58232 0.79482
 N2684 N 0.80043 0.57685 0.78439
 N2685 N 0.79543 0.56636 0.77942
 C2686 C 0.78500 0.56087 0.78467
 N2687 N 0.77979 0.56634 0.79510
 N2688 N 0.78480 0.57683 0.80007
 C2689 C 0.77935 0.54926 0.77905
 C2690 C 0.76847 0.54368 0.78441
 C2691 C 0.76291 0.53299 0.77887
 C2692 C 0.76811 0.52761 0.76784
 C2693 C 0.77911 0.53304 0.76259
 C2694 C 0.78466 0.54374 0.76813
 H2695 H 0.78711 0.59544 0.81566
 H2696 H 0.79632 0.61430 0.82500
 H2697 H 0.82539 0.61451 0.79604
 H2698 H 0.81610 0.59558 0.78671
 H2699 H 0.76411 0.54766 0.79281
 H2700 H 0.75441 0.52908 0.78311
 H2701 H 0.78331 0.52917 0.75406
 H2702 H 0.79304 0.54776 0.76374
 C2703 C 0.80073 0.09386 0.30031
 C2704 C 0.81155 0.09952 0.29492
 C2705 C 0.81685 0.11044 0.30026
 C2706 C 0.81149 0.11599 0.31114
 C2707 C 0.80061 0.11035 0.31646
 C2708 C 0.79531 0.09944 0.31112
 C2709 C 0.79519 0.08219 0.29473
 N2710 N 0.78478 0.07667 0.29997
 N2711 N 0.77982 0.06617 0.29500
 C2712 C 0.78506 0.06070 0.28458
 N2713 N 0.79547 0.06622 0.27933
 N2714 N 0.80043 0.07673 0.28430
 C2715 C 0.77943 0.04909 0.27898
 C2716 C 0.78472 0.04353 0.26807
 C2717 C 0.77913 0.03283 0.26257
 C2718 C 0.76813 0.02744 0.26785
 C2719 C 0.76297 0.03286 0.27888
 C2720 C 0.76855 0.04355 0.28437
 H2721 H 0.81596 0.09549 0.28656
 H2722 H 0.82518 0.11446 0.29581
 H2723 H 0.79614 0.11429 0.32480
 H2724 H 0.78696 0.09536 0.31552
 H2725 H 0.79310 0.04754 0.26366
 H2726 H 0.78332 0.02892 0.25405
 H2727 H 0.75446 0.02897 0.28316
 H2728 H 0.76422 0.04757 0.29277
 C2729 C 0.69926 0.40613 0.30030
 C2730 C 0.68843 0.40050 0.29493
 C2731 C 0.68309 0.38960 0.30029
 C2732 C 0.68844 0.38405 0.31117
 C2733 C 0.69932 0.38967 0.31649
 C2734 C 0.70466 0.40056 0.31114
 C2735 C 0.70484 0.41777 0.29469
 N2736 N 0.71527 0.42327 0.29991
 N2737 N 0.72024 0.43376 0.29491
 C2738 C 0.71500 0.43921 0.28448
 N2739 N 0.70458 0.43371 0.27925
 N2740 N 0.69961 0.42321 0.28425
 C2741 C 0.72061 0.45084 0.27888
 C2742 C 0.71531 0.45639 0.26798
 C2743 C 0.72087 0.46711 0.26248
 C2744 C 0.73186 0.47252 0.26776
 C2745 C 0.73704 0.46710 0.27878
 C2746 C 0.73148 0.45639 0.28427
 H2747 H 0.68403 0.40453 0.28657
 H2748 H 0.67474 0.38561 0.29586
 H2749 H 0.70377 0.38574 0.32484
 H2750 H 0.71300 0.40463 0.31554
 H2751 H 0.70694 0.45238 0.26356
 H2752 H 0.71668 0.47102 0.25396
 H2753 H 0.74554 0.47099 0.28305
 H2754 H 0.73582 0.45237 0.29266
 C2755 C 0.69930 0.90618 0.80031
 C2756 C 0.68848 0.90051 0.79494
 C2757 C 0.68318 0.88959 0.80031
 C2758 C 0.68854 0.88406 0.81121
 C2759 C 0.69943 0.88969 0.81649
 C2760 C 0.70472 0.90060 0.81113
 C2761 C 0.70486 0.91786 0.79475
 N2762 N 0.71528 0.92335 0.80000
 N2763 N 0.72026 0.93386 0.79505
 C2764 C 0.71503 0.93934 0.78463
 N2765 N 0.70462 0.93385 0.77937
 N2766 N 0.69964 0.92334 0.78432
 C2767 C 0.72066 0.95097 0.77903
 C2768 C 0.71534 0.95651 0.76813
 C2769 C 0.72087 0.96724 0.76262
 C2770 C 0.73185 0.97268 0.76788
 C2771 C 0.73706 0.96727 0.77889
 C2772 C 0.73154 0.95655 0.78440
 H2773 H 0.68407 0.90452 0.78658
 H2774 H 0.67486 0.88554 0.79587
 H2775 H 0.70393 0.88575 0.82481
 H2776 H 0.71308 0.90467 0.81551
 H2777 H 0.70698 0.95248 0.76373
 H2778 H 0.71666 0.97112 0.75410
 H2779 H 0.74556 0.97119 0.78314
 H2780 H 0.73590 0.95254 0.79279
 C2781 C 0.19912 0.40612 0.80035
 C2782 C 0.18828 0.40047 0.79499
 C2783 C 0.18294 0.38958 0.80038
 C2784 C 0.18830 0.38404 0.81127
 C2785 C 0.19919 0.38967 0.81657
 C2786 C 0.20452 0.40055 0.81118
 C2787 C 0.20472 0.41775 0.79473
 N2788 N 0.21516 0.42324 0.79995
 N2789 N 0.22016 0.43371 0.79496
 C2790 C 0.21494 0.43918 0.78452
 N2791 N 0.20451 0.43369 0.77929
 N2792 N 0.19951 0.42321 0.78429
 C2793 C 0.22060 0.45078 0.77889
 C2794 C 0.21530 0.45632 0.76798
 C2795 C 0.22088 0.46700 0.76244
 C2796 C 0.23188 0.47242 0.76770
 C2797 C 0.23706 0.46702 0.77872
 C2798 C 0.23149 0.45633 0.78426
 H2799 H 0.18388 0.40448 0.78663
 H2800 H 0.17458 0.38558 0.79597
 H2801 H 0.20364 0.38575 0.82493
 H2802 H 0.21288 0.40461 0.81557
 H2803 H 0.20692 0.45230 0.76358
 H2804 H 0.21669 0.47089 0.75391
 H2805 H 0.24557 0.47091 0.78298
 H2806 H 0.23583 0.45233 0.79265
 C2807 C 0.19925 0.90617 0.30011
 C2808 C 0.20466 0.90060 0.31094
 C2809 C 0.19937 0.88968 0.31627
 C2810 C 0.18852 0.88401 0.31093
 C2811 C 0.18318 0.88955 0.30003
 C2812 C 0.18848 0.90048 0.29469
 C2813 C 0.20478 0.91787 0.29456
 N2814 N 0.19956 0.92333 0.28412
 N2815 N 0.20453 0.93383 0.27915
 C2816 C 0.21493 0.93935 0.28441
 N2817 N 0.22014 0.93390 0.29486
 N2818 N 0.21517 0.92339 0.29982
 C2819 C 0.22059 0.95094 0.27879
 C2820 C 0.23148 0.95647 0.28417
 C2821 C 0.23707 0.96715 0.27866
 C2822 C 0.23192 0.97255 0.26762
 C2823 C 0.22093 0.96715 0.26234
 C2824 C 0.21532 0.95647 0.26786
 H2825 H 0.21299 0.90470 0.31535
 H2826 H 0.20384 0.88575 0.32461
 H2827 H 0.17487 0.88551 0.29557
 H2828 H 0.18408 0.90449 0.28632
 H2829 H 0.23580 0.95246 0.29258
 H2830 H 0.24558 0.97103 0.28292
 H2831 H 0.21676 0.97104 0.25379
 H2832 H 0.20695 0.95246 0.26344
 C2833 C 0.40594 0.30078 0.69952
 C2834 C 0.40035 0.31168 0.70480
 C2835 C 0.38946 0.31702 0.69941
 C2836 C 0.38387 0.31159 0.68858
 C2837 C 0.38943 0.30062 0.68337
 C2838 C 0.40032 0.29530 0.68876
 C2839 C 0.41758 0.29518 0.70514
 N2840 N 0.42303 0.28469 0.69998
 N2841 N 0.43351 0.27968 0.70498
 C2842 C 0.43901 0.28495 0.71536
 N2843 N 0.43356 0.29543 0.72054
 N2844 N 0.42307 0.30044 0.71553
 C2845 C 0.45062 0.27930 0.72099
 C2846 C 0.45618 0.28463 0.73187
 C2847 C 0.46689 0.27907 0.73739
 C2848 C 0.47230 0.26805 0.73217
 C2849 C 0.46688 0.26284 0.72118
 C2850 C 0.45617 0.26839 0.71565
 H2851 H 0.40441 0.31615 0.71310
 H2852 H 0.38548 0.32541 0.70376
 H2853 H 0.38545 0.29609 0.67509
 H2854 H 0.40435 0.28688 0.68445
 H2855 H 0.45217 0.29303 0.73624
 H2856 H 0.47080 0.28329 0.74589
 H2857 H 0.47078 0.25432 0.71694
 H2858 H 0.45215 0.26402 0.70728
 C2859 C 0.40600 0.80091 0.19946
 C2860 C 0.40024 0.81165 0.20489
 C2861 C 0.38933 0.81695 0.19951
 C2862 C 0.38389 0.81166 0.18855
 C2863 C 0.38961 0.80084 0.18320
 C2864 C 0.40052 0.79554 0.18858
 C2865 C 0.41769 0.79538 0.20506
 N2866 N 0.42327 0.78502 0.19978
 N2867 N 0.43378 0.78006 0.20477
 C2868 C 0.43917 0.78524 0.21524
 N2869 N 0.43360 0.79561 0.22052
 N2870 N 0.42309 0.80058 0.21553
 C2871 C 0.45077 0.77958 0.22090
 C2872 C 0.45624 0.78484 0.23185
 C2873 C 0.46690 0.77923 0.23742
 C2874 C 0.47236 0.76825 0.23216
 C2875 C 0.46701 0.76311 0.22109
 C2876 C 0.45635 0.76871 0.21552
 H2877 H 0.40417 0.81601 0.21331
 H2878 H 0.38523 0.82522 0.20398
 H2879 H 0.38574 0.79641 0.17481
 H2880 H 0.40466 0.78723 0.18417
 H2881 H 0.45219 0.79320 0.23625
 H2882 H 0.47074 0.78338 0.24599
 H2883 H 0.47094 0.75462 0.21683
 H2884 H 0.45240 0.76440 0.20709
 C2885 C 0.90598 0.30095 0.19946
 C2886 C 0.90048 0.29557 0.18859
 C2887 C 0.88953 0.30083 0.18325
 C2888 C 0.88379 0.31162 0.18863
 C2889 C 0.88926 0.31694 0.19956
 C2890 C 0.90021 0.31167 0.20490
 C2891 C 0.91767 0.29542 0.20503
 N2892 N 0.92308 0.30060 0.21551
 N2893 N 0.93358 0.29561 0.22049
 C2894 C 0.93915 0.28525 0.21521
 N2895 N 0.93374 0.28007 0.20473
 N2896 N 0.92324 0.28505 0.19975
 C2897 C 0.95074 0.27958 0.22086
 C2898 C 0.95632 0.26871 0.21548
 C2899 C 0.96699 0.26311 0.22103
 C2900 C 0.97234 0.26825 0.23210
 C2901 C 0.96689 0.27923 0.23737
 C2902 C 0.95622 0.28483 0.23181
 H2903 H 0.90465 0.28729 0.18414
 H2904 H 0.88566 0.29639 0.17486
 H2905 H 0.88516 0.32521 0.20404
 H2906 H 0.90418 0.31606 0.21329
 H2907 H 0.95236 0.26440 0.20705
 H2908 H 0.97092 0.25462 0.21677
 H2909 H 0.97073 0.28338 0.24594
 H2910 H 0.95217 0.29318 0.23622
 C2911 C 0.90604 0.80102 0.69952
 C2912 C 0.90035 0.81184 0.70488
 C2913 C 0.88947 0.81718 0.69946
 C2914 C 0.88398 0.81185 0.68854
 C2915 C 0.88960 0.80092 0.68330
 C2916 C 0.90047 0.79558 0.68871
 C2917 C 0.91773 0.79546 0.70510
 N2918 N 0.92325 0.78505 0.69986
 N2919 N 0.93375 0.78007 0.70483
 C2920 C 0.93922 0.78529 0.71526
 N2921 N 0.93371 0.79571 0.72050
 N2922 N 0.92320 0.80069 0.71552
 C2923 C 0.95081 0.77961 0.72091
 C2924 C 0.95632 0.78489 0.73184
 C2925 C 0.96699 0.77929 0.73740
 C2926 C 0.97242 0.76829 0.73216
 C2927 C 0.96705 0.76312 0.72112
 C2928 C 0.95637 0.76871 0.71557
 H2929 H 0.90433 0.81623 0.71327
 H2930 H 0.88542 0.82551 0.70389
 H2931 H 0.88566 0.79643 0.67498
 H2932 H 0.90452 0.78719 0.68438
 H2933 H 0.95229 0.79327 0.73623
 H2934 H 0.97086 0.78347 0.74594
 H2935 H 0.97095 0.75461 0.71689
 H2936 H 0.95239 0.76438 0.70716
 C2937 C 0.59396 0.30079 0.30027
 C2938 C 0.59953 0.29540 0.31111
 C2939 C 0.61042 0.30074 0.31647
 C2940 C 0.61605 0.31161 0.31115
 C2941 C 0.61049 0.31696 0.30026
 C2942 C 0.59959 0.31162 0.29490
 C2943 C 0.58233 0.29519 0.29465
 N2944 N 0.57689 0.30039 0.28420
 N2945 N 0.56641 0.29539 0.27919
 C2946 C 0.56092 0.28497 0.28442
 N2947 N 0.56637 0.27976 0.29486
 N2948 N 0.57685 0.28475 0.29987
 C2949 C 0.54931 0.27932 0.27881
 C2950 C 0.54378 0.26845 0.28422
 C2951 C 0.53308 0.26285 0.27873
 C2952 C 0.52766 0.26800 0.26770
 C2953 C 0.53305 0.27899 0.26240
 C2954 C 0.54375 0.28459 0.26789
 H2955 H 0.59547 0.28705 0.31551
 H2956 H 0.61436 0.29629 0.32482
 H2957 H 0.61448 0.32531 0.29584
 H2958 H 0.59556 0.31602 0.28654
 H2959 H 0.54780 0.26414 0.29262
 H2960 H 0.52921 0.25436 0.28302
 H2961 H 0.52913 0.28315 0.25387
 H2962 H 0.54775 0.29296 0.26347
 C2963 C 0.59391 0.80098 0.80037
 C2964 C 0.59949 0.79555 0.81118
 C2965 C 0.61042 0.80082 0.81653
 C2966 C 0.61607 0.81170 0.81124
 C2967 C 0.61054 0.81707 0.80035
 C2968 C 0.59959 0.81179 0.79499
 C2969 C 0.58223 0.79541 0.79480
 N2970 N 0.57675 0.80062 0.78436
 N2971 N 0.56626 0.79562 0.77939
 C2972 C 0.56077 0.78519 0.78464
 N2973 N 0.56625 0.77999 0.79507
 N2974 N 0.57674 0.78499 0.80004
 C2975 C 0.54917 0.77953 0.77901
 C2976 C 0.54361 0.76864 0.78438
 C2977 C 0.53290 0.76309 0.77887
 C2978 C 0.52749 0.76828 0.76786
 C2979 C 0.53291 0.77926 0.76259
 C2980 C 0.54362 0.78482 0.76810
 H2981 H 0.59541 0.78720 0.81557
 H2982 H 0.61438 0.79632 0.82484
 H2983 H 0.61459 0.82538 0.79591
 H2984 H 0.59558 0.81621 0.78664
 H2985 H 0.54762 0.76429 0.79278
 H2986 H 0.52899 0.75459 0.78313
 H2987 H 0.52902 0.78345 0.75406
 H2988 H 0.54764 0.79319 0.76370
 C2989 C 0.09377 0.30084 0.80039
 C2990 C 0.09942 0.31165 0.79502
 C2991 C 0.11032 0.31699 0.80040
 C2992 C 0.11585 0.31164 0.81130
 C2993 C 0.11021 0.30076 0.81661
 C2994 C 0.09932 0.29544 0.81123
 C2995 C 0.08213 0.29524 0.79478
 N2996 N 0.07663 0.28482 0.80002
 N2997 N 0.06614 0.27983 0.79503
 C2998 C 0.06069 0.28503 0.78459
 N2999 N 0.06619 0.29544 0.77934
 N3000 N 0.07668 0.30044 0.78433
 C3001 C 0.04907 0.27938 0.77896
 C3002 C 0.04355 0.28466 0.76804
 C3003 C 0.03285 0.27909 0.76251
 C3004 C 0.02742 0.26811 0.76779
 C3005 C 0.03281 0.26295 0.77883
 C3006 C 0.04351 0.26852 0.78435
 H3007 H 0.09541 0.31606 0.78665
 H3008 H 0.11432 0.32534 0.79599
 H3009 H 0.11412 0.29631 0.82497
 H3010 H 0.09525 0.28709 0.81562
 H3011 H 0.04758 0.29302 0.76363
 H3012 H 0.02898 0.28326 0.75397
 H3013 H 0.02890 0.25446 0.78310
 H3014 H 0.04750 0.26419 0.79276
 C3015 C 0.09375 0.80103 0.30041
 C3016 C 0.09932 0.81193 0.29511
 C3017 C 0.11020 0.81728 0.30051
 C3018 C 0.11579 0.81188 0.31136
 C3019 C 0.11023 0.80092 0.31659
 C3020 C 0.09937 0.79557 0.31119
 C3021 C 0.08213 0.79542 0.29477
 N3022 N 0.07669 0.78494 0.29994
 N3023 N 0.06624 0.77992 0.29492
 C3024 C 0.06075 0.78516 0.28451
 N3025 N 0.06619 0.79565 0.27934
 N3026 N 0.07664 0.80067 0.28436
 C3027 C 0.04918 0.77947 0.27886
 C3028 C 0.04362 0.78476 0.26796
 C3029 C 0.03291 0.77917 0.26245
 C3030 C 0.02752 0.76817 0.26772
 C3031 C 0.03297 0.76298 0.27872
 C3032 C 0.04367 0.76857 0.28422
 H3033 H 0.09528 0.81636 0.28678
 H3034 H 0.11418 0.82565 0.29612
 H3035 H 0.11421 0.79642 0.32489
 H3036 H 0.09536 0.78716 0.31551
 H3037 H 0.04761 0.79314 0.26356
 H3038 H 0.02899 0.78337 0.25394
 H3039 H 0.02910 0.75447 0.28298
 H3040 H 0.04770 0.76422 0.29261
 C3041 C 0.59382 0.69932 0.69951
 C3042 C 0.59938 0.70471 0.68867
 C3043 C 0.61028 0.69938 0.68329
 C3044 C 0.61592 0.68850 0.68860
 C3045 C 0.61038 0.68314 0.69949
 C3046 C 0.59947 0.68848 0.70487
 C3047 C 0.58218 0.70493 0.70514
 N3048 N 0.57674 0.69973 0.71559
 N3049 N 0.56627 0.70476 0.72062
 C3050 C 0.56079 0.71521 0.71540
 N3051 N 0.56624 0.72041 0.70496
 N3052 N 0.57670 0.71538 0.69993
 C3053 C 0.54920 0.72090 0.72107
 C3054 C 0.54365 0.73180 0.71572
 C3055 C 0.53295 0.73737 0.72125
 C3056 C 0.52754 0.73219 0.73227
 C3057 C 0.53298 0.72119 0.73753
 C3058 C 0.54368 0.71561 0.73199
 H3059 H 0.59531 0.71308 0.68429
 H3060 H 0.61420 0.70383 0.67494
 H3061 H 0.61441 0.67482 0.70393
 H3062 H 0.59547 0.68409 0.71324
 H3063 H 0.54765 0.73614 0.70733
 H3064 H 0.52905 0.74589 0.71701
 H3065 H 0.52909 0.71700 0.74606
 H3066 H 0.54770 0.70723 0.73638
 C3067 C 0.59400 0.19908 0.19948
 C3068 C 0.59966 0.18825 0.20484
 C3069 C 0.61057 0.18293 0.19945
 C3070 C 0.61610 0.18829 0.18856
 C3071 C 0.61046 0.19918 0.18327
 C3072 C 0.59955 0.20450 0.18865
 C3073 C 0.58235 0.20467 0.20510
 N3074 N 0.57685 0.21510 0.19988
 N3075 N 0.56637 0.22010 0.20489
 C3076 C 0.56092 0.21488 0.21532
 N3077 N 0.56642 0.20446 0.22055
 N3078 N 0.57691 0.19946 0.21555
 C3079 C 0.54930 0.22054 0.22095
 C3080 C 0.54377 0.21525 0.23186
 C3081 C 0.53306 0.22082 0.23738
 C3082 C 0.52763 0.23181 0.23211
 C3083 C 0.53302 0.23698 0.22108
 C3084 C 0.54373 0.23141 0.21556
 H3085 H 0.59566 0.18384 0.21320
 H3086 H 0.61460 0.17459 0.20388
 H3087 H 0.61439 0.20366 0.17494
 H3088 H 0.59547 0.21286 0.18427
 H3089 H 0.54780 0.20688 0.23627
 H3090 H 0.52917 0.21663 0.24591
 H3091 H 0.52911 0.24547 0.21681
 H3092 H 0.54774 0.23574 0.20716
 C3093 C 0.09382 0.69936 0.19943
 C3094 C 0.09938 0.70477 0.18859
 C3095 C 0.11027 0.69944 0.18321
 C3096 C 0.11591 0.68855 0.18850
 C3097 C 0.11038 0.68319 0.19939
 C3098 C 0.09947 0.68853 0.20478
 C3099 C 0.08218 0.70495 0.20505
 N3100 N 0.07674 0.69972 0.21550
 N3101 N 0.06624 0.70471 0.22051
 C3102 C 0.06073 0.71513 0.21528
 N3103 N 0.06617 0.72036 0.20485
 N3104 N 0.07666 0.71538 0.19984
 C3105 C 0.04911 0.72077 0.22092
 C3106 C 0.04354 0.73164 0.21555
 C3107 C 0.03284 0.73722 0.22108
 C3108 C 0.02745 0.73205 0.23212
 C3109 C 0.03289 0.72105 0.23738
 C3110 C 0.04359 0.71547 0.23184
 H3111 H 0.09529 0.71312 0.18420
 H3112 H 0.11419 0.70391 0.17486
 H3113 H 0.11439 0.67484 0.20381
 H3114 H 0.09545 0.68411 0.21313
 H3115 H 0.04752 0.73598 0.20714
 H3116 H 0.02893 0.74572 0.21682
 H3117 H 0.02901 0.71687 0.24592
 H3118 H 0.04762 0.70710 0.23624
 C3119 C 0.09377 0.19917 0.69955
 C3120 C 0.09945 0.18835 0.70491
 C3121 C 0.11038 0.18306 0.69956
 C3122 C 0.11592 0.18843 0.68868
 C3123 C 0.11026 0.19931 0.68337
 C3124 C 0.09933 0.20459 0.68872
 C3125 C 0.08212 0.20474 0.70516
 N3126 N 0.07662 0.21517 0.69993
 N3127 N 0.06614 0.22018 0.70493
 C3128 C 0.06068 0.21498 0.71537
 N3129 N 0.06618 0.20455 0.72061
 N3130 N 0.07667 0.19954 0.71561
 C3131 C 0.04907 0.22066 0.72099
 C3132 C 0.04354 0.21538 0.73191
 C3133 C 0.03284 0.22097 0.73744
 C3134 C 0.02740 0.23196 0.73217
 C3135 C 0.03280 0.23711 0.72113
 C3136 C 0.04350 0.23153 0.71560
 H3137 H 0.09544 0.18391 0.71325
 H3138 H 0.11442 0.17473 0.70398
 H3139 H 0.11420 0.20379 0.67503
 H3140 H 0.09522 0.21293 0.68434
 H3141 H 0.04757 0.20701 0.73631
 H3142 H 0.02895 0.21679 0.74597
 H3143 H 0.02888 0.24561 0.71685
 H3144 H 0.04750 0.23586 0.70719
 C3145 C 0.40589 0.69930 0.30020
 C3146 C 0.40037 0.70466 0.31108
 C3147 C 0.38943 0.69939 0.31641
 C3148 C 0.38371 0.68860 0.31101
 C3149 C 0.38920 0.68330 0.30007
 C3150 C 0.40015 0.68858 0.29474
 C3151 C 0.41758 0.70485 0.29464
 N3152 N 0.42301 0.69968 0.28416
 N3153 N 0.43351 0.70468 0.27919
 C3154 C 0.43905 0.71504 0.28449
 N3155 N 0.43361 0.72020 0.29497
 N3156 N 0.42311 0.71520 0.29994
 C3157 C 0.45065 0.72072 0.27888
 C3158 C 0.45620 0.73158 0.28429
 C3159 C 0.46688 0.73718 0.27878
 C3160 C 0.47229 0.73205 0.26773
 C3161 C 0.46686 0.72109 0.26242
 C3162 C 0.45617 0.71548 0.26794
 H3163 H 0.40452 0.71293 0.31554
 H3164 H 0.38554 0.70381 0.32480
 H3165 H 0.38512 0.67503 0.29558
 H3166 H 0.40413 0.68420 0.28635
 H3167 H 0.45219 0.73588 0.29271
 H3168 H 0.47078 0.74567 0.28307
 H3169 H 0.47074 0.71695 0.25387
 H3170 H 0.45215 0.70714 0.26350
 C3171 C 0.40586 0.19921 0.80035
 C3172 C 0.40020 0.18841 0.79495
 C3173 C 0.38927 0.18310 0.80030
 C3174 C 0.38372 0.18844 0.81119
 C3175 C 0.38934 0.19933 0.81650
 C3176 C 0.40026 0.20464 0.81115
 C3177 C 0.41754 0.20477 0.79478
 N3178 N 0.42304 0.21519 0.80001
 N3179 N 0.43353 0.22018 0.79502
 C3180 C 0.43900 0.21497 0.78459
 N3181 N 0.43351 0.20454 0.77936
 N3182 N 0.42302 0.19955 0.78435
 C3183 C 0.45059 0.22064 0.77895
 C3184 C 0.45613 0.21536 0.76803
 C3185 C 0.46683 0.22095 0.76250
 C3186 C 0.47224 0.23194 0.76777
 C3187 C 0.46681 0.23712 0.77879
 C3188 C 0.45612 0.23153 0.78431
 H3189 H 0.40422 0.18402 0.78659
 H3190 H 0.38525 0.17478 0.79585
 H3191 H 0.38538 0.20381 0.82481
 H3192 H 0.40430 0.21300 0.81553
 H3193 H 0.45212 0.20699 0.76362
 H3194 H 0.47073 0.21677 0.75398
 H3195 H 0.47069 0.24562 0.78304
 H3196 H 0.45209 0.23587 0.79270
 C3197 C 0.90605 0.69936 0.80035
 C3198 C 0.90049 0.70472 0.81120
 C3199 C 0.88962 0.69937 0.81659
 C3200 C 0.88400 0.68849 0.81130
 C3201 C 0.88955 0.68314 0.80040
 C3202 C 0.90043 0.68851 0.79500
 C3203 C 0.91769 0.70499 0.79475
 N3204 N 0.92318 0.69981 0.78431
 N3205 N 0.93367 0.70483 0.77934
 C3206 C 0.93914 0.71525 0.78460
 N3207 N 0.93365 0.72044 0.79503
 N3208 N 0.92316 0.71542 0.80000
 C3209 C 0.95075 0.72092 0.77898
 C3210 C 0.95630 0.73180 0.78434
 C3211 C 0.96700 0.73736 0.77881
 C3212 C 0.97240 0.73218 0.76778
 C3213 C 0.96698 0.72119 0.76252
 C3214 C 0.95628 0.71563 0.76806
 H3215 H 0.90455 0.71307 0.81560
 H3216 H 0.88571 0.70381 0.82495
 H3217 H 0.88556 0.67478 0.79600
 H3218 H 0.90447 0.68411 0.78664
 H3219 H 0.95231 0.73613 0.79275
 H3220 H 0.97091 0.74587 0.78305
 H3221 H 0.97086 0.71701 0.75399
 H3222 H 0.95227 0.70725 0.76367
 C3223 C 0.90595 0.19927 0.30022
 C3224 C 0.90036 0.20466 0.31104
 C3225 C 0.88946 0.19934 0.31640
 C3226 C 0.88384 0.18846 0.31108
 C3227 C 0.88940 0.18312 0.30020
 C3228 C 0.90031 0.18845 0.29484
 C3229 C 0.91760 0.20484 0.29462
 N3230 N 0.92307 0.19963 0.28418
 N3231 N 0.93357 0.20461 0.27919
 C3232 C 0.93906 0.21503 0.28444
 N3233 N 0.93359 0.22024 0.29487
 N3234 N 0.92310 0.21526 0.29986
 C3235 C 0.95066 0.22069 0.27882
 C3236 C 0.95618 0.23157 0.28422
 C3237 C 0.96686 0.23719 0.27873
 C3238 C 0.97230 0.23206 0.26770
 C3239 C 0.96692 0.22106 0.26240
 C3240 C 0.95623 0.21544 0.26790
 H3241 H 0.90442 0.21302 0.31544
 H3242 H 0.88552 0.20380 0.32474
 H3243 H 0.88539 0.17479 0.29576
 H3244 H 0.90434 0.18405 0.28648
 H3245 H 0.95215 0.23587 0.29263
 H3246 H 0.97073 0.24568 0.28302
 H3247 H 0.97084 0.21691 0.25387
 H3248 H 0.95224 0.20707 0.26348
 C3249 C 0.30037 0.30053 0.59382
 C3250 C 0.29495 0.31135 0.59943
 C3251 C 0.30027 0.31668 0.61034
 C3252 C 0.31116 0.31133 0.61593
 C3253 C 0.31651 0.30044 0.61036
 C3254 C 0.31119 0.29511 0.59945
 C3255 C 0.29482 0.29497 0.58216
 N3256 N 0.30007 0.28454 0.57668
 N3257 N 0.29511 0.27956 0.56620
 C3258 C 0.28467 0.28481 0.56071
 N3259 N 0.27942 0.29524 0.56618
 N3260 N 0.28439 0.30022 0.57667
 C3261 C 0.27904 0.27917 0.54911
 C3262 C 0.26813 0.28452 0.54357
 C3263 C 0.26259 0.27897 0.53289
 C3264 C 0.26782 0.26794 0.52750
 C3265 C 0.27884 0.26271 0.53291
 C3266 C 0.28439 0.26826 0.54358
 H3267 H 0.28659 0.31577 0.59539
 H3268 H 0.29580 0.32502 0.61431
 H3269 H 0.32485 0.29597 0.61434
 H3270 H 0.31561 0.28675 0.59543
 H3271 H 0.26374 0.29291 0.54756
 H3272 H 0.25406 0.28319 0.52899
 H3273 H 0.28307 0.25418 0.52902
 H3274 H 0.29278 0.26388 0.54759
 C3275 C 0.30061 0.80071 0.09365
 C3276 C 0.31144 0.79532 0.09927
 C3277 C 0.31678 0.80067 0.11016
 C3278 C 0.31143 0.81157 0.11572
 C3279 C 0.30054 0.81692 0.11012
 C3280 C 0.29521 0.81156 0.09923
 C3281 C 0.29501 0.79510 0.08202
 N3282 N 0.28458 0.80033 0.07653
 N3283 N 0.27960 0.79533 0.06606
 C3284 C 0.28484 0.78488 0.06062
 N3285 N 0.29527 0.77964 0.06611
 N3286 N 0.30025 0.78464 0.07658
 C3287 C 0.27923 0.77924 0.04901
 C3288 C 0.28459 0.76833 0.04348
 C3289 C 0.27907 0.76280 0.03278
 C3290 C 0.26808 0.76805 0.02734
 C3291 C 0.26283 0.77907 0.03272
 C3292 C 0.26834 0.78460 0.04343
 H3293 H 0.31586 0.78695 0.09526
 H3294 H 0.32512 0.79621 0.11414
 H3295 H 0.29608 0.82527 0.11407
 H3296 H 0.28685 0.81598 0.09518
 H3297 H 0.29296 0.76394 0.04751
 H3298 H 0.28331 0.75427 0.02890
 H3299 H 0.25432 0.78332 0.02880
 H3300 H 0.26395 0.79300 0.04741
 C3301 C 0.80050 0.30076 0.09369
 C3302 C 0.81135 0.29537 0.09930
 C3303 C 0.81669 0.30073 0.11018
 C3304 C 0.81134 0.31162 0.11575
 C3305 C 0.80043 0.31696 0.11017
 C3306 C 0.79509 0.31160 0.09929
 C3307 C 0.79490 0.29516 0.08206
 N3308 N 0.78444 0.30038 0.07660
 N3309 N 0.77944 0.29539 0.06614
 C3310 C 0.78469 0.28495 0.06066
 N3311 N 0.79514 0.27972 0.06613
 N3312 N 0.80014 0.28472 0.07660
 C3313 C 0.77906 0.27932 0.04907
 C3314 C 0.78442 0.26842 0.04352
 C3315 C 0.77888 0.26289 0.03282
 C3316 C 0.76785 0.26811 0.02743
 C3317 C 0.76260 0.27912 0.03284
 C3318 C 0.76813 0.28466 0.04353
 H3319 H 0.81577 0.28701 0.09527
 H3320 H 0.82505 0.29628 0.11415
 H3321 H 0.79597 0.32530 0.11413
 H3322 H 0.78672 0.31601 0.09526
 H3323 H 0.79282 0.26404 0.04751
 H3324 H 0.78312 0.25437 0.02892
 H3325 H 0.75407 0.28335 0.02895
 H3326 H 0.76374 0.29304 0.04754
 C3327 C 0.80050 0.80079 0.59381
 C3328 C 0.79510 0.81163 0.59940
 C3329 C 0.80044 0.81698 0.61028
 C3330 C 0.81131 0.81162 0.61589
 C3331 C 0.81669 0.80075 0.61030
 C3332 C 0.81135 0.79540 0.59942
 C3333 C 0.79491 0.79518 0.58218
 N3334 N 0.80016 0.78475 0.57671
 N3335 N 0.79517 0.77976 0.56623
 C3336 C 0.78474 0.78500 0.56075
 N3337 N 0.77948 0.79543 0.56622
 N3338 N 0.78447 0.80042 0.57670
 C3339 C 0.77910 0.77937 0.54915
 C3340 C 0.76818 0.78471 0.54362
 C3341 C 0.76263 0.77916 0.53294
 C3342 C 0.76786 0.76814 0.52754
 C3343 C 0.77889 0.76291 0.53294
 C3344 C 0.78445 0.76846 0.54361
 H3345 H 0.78673 0.81603 0.59536
 H3346 H 0.79598 0.82534 0.61423
 H3347 H 0.82505 0.79631 0.61426
 H3348 H 0.81576 0.78703 0.59540
 H3349 H 0.76380 0.79310 0.54762
 H3350 H 0.75409 0.78338 0.52906
 H3351 H 0.78312 0.75439 0.52905
 H3352 H 0.79285 0.76408 0.54761
 C3353 C 0.30040 0.69949 0.40593
 C3354 C 0.29501 0.68865 0.40034
 C3355 C 0.30035 0.68330 0.38946
 C3356 C 0.31126 0.68862 0.38388
 C3357 C 0.31660 0.69952 0.38944
 C3358 C 0.31125 0.70487 0.40032
 C3359 C 0.29481 0.70510 0.41757
 N3360 N 0.30006 0.71553 0.42302
 N3361 N 0.29508 0.72053 0.43349
 C3362 C 0.28464 0.71531 0.43899
 N3363 N 0.27939 0.70488 0.43353
 N3364 N 0.28437 0.69988 0.42305
 C3365 C 0.27903 0.72096 0.45059
 C3366 C 0.26812 0.71564 0.45616
 C3367 C 0.26261 0.72119 0.46686
 C3368 C 0.26787 0.73219 0.47225
 C3369 C 0.27889 0.73740 0.46682
 C3370 C 0.28440 0.73185 0.45612
 H3371 H 0.28664 0.68425 0.40438
 H3372 H 0.29590 0.67496 0.38550
 H3373 H 0.32495 0.70396 0.38547
 H3374 H 0.31566 0.71323 0.40435
 H3375 H 0.26372 0.70726 0.45217
 H3376 H 0.25409 0.71698 0.47078
 H3377 H 0.28313 0.74591 0.47070
 H3378 H 0.29279 0.73621 0.45209
 C3379 C 0.30034 0.19935 0.90608
 C3380 C 0.31118 0.20473 0.90047
 C3381 C 0.31654 0.19937 0.88960
 C3382 C 0.31120 0.18849 0.88402
 C3383 C 0.30030 0.18315 0.88961
 C3384 C 0.29494 0.18851 0.90048
 C3385 C 0.29475 0.20494 0.91772
 N3386 N 0.28431 0.19972 0.92321
 N3387 N 0.27934 0.20471 0.93370
 C3388 C 0.28460 0.21512 0.93918
 N3389 N 0.29504 0.22035 0.93368
 N3390 N 0.30000 0.21537 0.92319
 C3391 C 0.27899 0.22076 0.95079
 C3392 C 0.28436 0.23165 0.95632
 C3393 C 0.27883 0.23722 0.96700
 C3394 C 0.26780 0.23202 0.97242
 C3395 C 0.26254 0.22102 0.96703
 C3396 C 0.26807 0.21545 0.95634
 H3397 H 0.31559 0.21310 0.90449
 H3398 H 0.32490 0.20381 0.88563
 H3399 H 0.29586 0.17481 0.88565
 H3400 H 0.28657 0.18412 0.90451
 H3401 H 0.29276 0.23601 0.95231
 H3402 H 0.28307 0.24573 0.97088
 H3403 H 0.25401 0.21682 0.97093
 H3404 H 0.26367 0.20707 0.95235
 C3405 C 0.80056 0.69953 0.90609
 C3406 C 0.81139 0.70493 0.90046
 C3407 C 0.81668 0.69963 0.88953
 C3408 C 0.81131 0.68876 0.88394
 C3409 C 0.80044 0.68341 0.88955
 C3410 C 0.79514 0.68871 0.90048
 C3411 C 0.79500 0.70510 0.91775
 N3412 N 0.78455 0.69988 0.92323
 N3413 N 0.77956 0.70488 0.93371
 C3414 C 0.78481 0.71530 0.93918
 N3415 N 0.79525 0.72052 0.93370
 N3416 N 0.80024 0.71553 0.92322
 C3417 C 0.77917 0.72094 0.95078
 C3418 C 0.78453 0.73183 0.95633
 C3419 C 0.77899 0.73738 0.96702
 C3420 C 0.76796 0.73217 0.97242
 C3421 C 0.76271 0.72117 0.96702
 C3422 C 0.76826 0.71562 0.95633
 H3423 H 0.81585 0.71324 0.90452
 H3424 H 0.82504 0.70406 0.88555
 H3425 H 0.79598 0.67507 0.88559
 H3426 H 0.78682 0.68427 0.90456
 H3427 H 0.79293 0.73620 0.95233
 H3428 H 0.78323 0.74589 0.97091
 H3429 H 0.75418 0.71695 0.97091
 H3430 H 0.76386 0.70724 0.95233
 C3431 C 0.80049 0.19932 0.40600
 C3432 C 0.81132 0.20472 0.40038
 C3433 C 0.81666 0.19939 0.38948
 C3434 C 0.81131 0.18851 0.38389
 C3435 C 0.80042 0.18317 0.38948
 C3436 C 0.79509 0.18849 0.40039
 C3437 C 0.79490 0.20490 0.41766
 N3438 N 0.78446 0.19968 0.42313
 N3439 N 0.77946 0.20467 0.43361
 C3440 C 0.78470 0.21510 0.43908
 N3441 N 0.79514 0.22033 0.43360
 N3442 N 0.80014 0.21533 0.42313
 C3443 C 0.77905 0.22075 0.45068
 C3444 C 0.78440 0.23164 0.45622
 C3445 C 0.77886 0.23719 0.46690
 C3446 C 0.76783 0.23198 0.47231
 C3447 C 0.76259 0.22098 0.46690
 C3448 C 0.76813 0.21542 0.45622
 H3449 H 0.81574 0.21307 0.40442
 H3450 H 0.82500 0.20385 0.38550
 H3451 H 0.79597 0.17483 0.38551
 H3452 H 0.78674 0.18408 0.40443
 H3453 H 0.79280 0.23601 0.45221
 H3454 H 0.78309 0.24571 0.47079
 H3455 H 0.75405 0.21677 0.47080
 H3456 H 0.76374 0.20705 0.45222
 C3457 C 0.69948 0.30060 0.40594
 C3458 C 0.68866 0.29519 0.40031
 C3459 C 0.68334 0.30051 0.38940
 C3460 C 0.68868 0.31140 0.38382
 C3461 C 0.69957 0.31674 0.38940
 C3462 C 0.70489 0.31142 0.40032
 C3463 C 0.70504 0.29502 0.41760
 N3464 N 0.71548 0.30025 0.42309
 N3465 N 0.72045 0.29526 0.43358
 C3466 C 0.71520 0.28483 0.43904
 N3467 N 0.70477 0.27960 0.43356
 N3468 N 0.69980 0.28460 0.42307
 C3469 C 0.72083 0.27917 0.45064
 C3470 C 0.71547 0.26827 0.45617
 C3471 C 0.72099 0.26272 0.46687
 C3472 C 0.73200 0.26793 0.47230
 C3473 C 0.73726 0.27893 0.46690
 C3474 C 0.73174 0.28449 0.45620
 H3475 H 0.68424 0.28684 0.40435
 H3476 H 0.67502 0.29604 0.38540
 H3477 H 0.70405 0.32506 0.38541
 H3478 H 0.71325 0.31583 0.40436
 H3479 H 0.70708 0.26390 0.45216
 H3480 H 0.71674 0.25420 0.47076
 H3481 H 0.74578 0.28314 0.47081
 H3482 H 0.73614 0.29287 0.45221
 C3483 C 0.69948 0.80078 0.90612
 C3484 C 0.68864 0.79538 0.90052
 C3485 C 0.68328 0.80073 0.88964
 C3486 C 0.68862 0.81162 0.88406
 C3487 C 0.69952 0.81695 0.88962
 C3488 C 0.70488 0.81160 0.90050
 C3489 C 0.70506 0.79520 0.91777
 N3490 N 0.71550 0.80043 0.92324
 N3491 N 0.72048 0.79544 0.93372
 C3492 C 0.71524 0.78502 0.93920
 N3493 N 0.70480 0.77979 0.93373
 N3494 N 0.69982 0.78478 0.92325
 C3495 C 0.72087 0.77937 0.95080
 C3496 C 0.71551 0.76848 0.95634
 C3497 C 0.72105 0.76292 0.96702
 C3498 C 0.73207 0.76813 0.97243
 C3499 C 0.73732 0.77913 0.96702
 C3500 C 0.73179 0.78469 0.95634
 H3501 H 0.68426 0.78700 0.90454
 H3502 H 0.67495 0.79626 0.88567
 H3503 H 0.70399 0.82528 0.88564
 H3504 H 0.71327 0.81599 0.90451
 H3505 H 0.70711 0.76411 0.95233
 H3506 H 0.71681 0.75440 0.97091
 H3507 H 0.74586 0.78333 0.97091
 H3508 H 0.73618 0.79307 0.95233
 C3509 C 0.19931 0.30059 0.90608
 C3510 C 0.18848 0.29519 0.90047
 C3511 C 0.18317 0.30050 0.88955
 C3512 C 0.18853 0.31138 0.88395
 C3513 C 0.19942 0.31672 0.88953
 C3514 C 0.20473 0.31140 0.90045
 C3515 C 0.20488 0.29502 0.91775
 N3516 N 0.21533 0.30025 0.92321
 N3517 N 0.22031 0.29527 0.93370
 C3518 C 0.21506 0.28485 0.93919
 N3519 N 0.20462 0.27963 0.93372
 N3520 N 0.19964 0.28461 0.92324
 C3521 C 0.22070 0.27922 0.95079
 C3522 C 0.21535 0.26832 0.95634
 C3523 C 0.22090 0.26278 0.96703
 C3524 C 0.23193 0.26798 0.97242
 C3525 C 0.23718 0.27898 0.96700
 C3526 C 0.23163 0.28454 0.95631
 H3527 H 0.18405 0.28686 0.90453
 H3528 H 0.17483 0.29605 0.88558
 H3529 H 0.20388 0.32505 0.88555
 H3530 H 0.21307 0.31583 0.90451
 H3531 H 0.20695 0.26396 0.95235
 H3532 H 0.21666 0.25426 0.97093
 H3533 H 0.24571 0.28320 0.97088
 H3534 H 0.23602 0.29291 0.95230
 C3535 C 0.19921 0.80081 0.40602
 C3536 C 0.18845 0.79534 0.40034
 C3537 C 0.18308 0.80070 0.38947
 C3538 C 0.18834 0.81167 0.38397
 C3539 C 0.19914 0.81710 0.38964
 C3540 C 0.20450 0.81174 0.40051
 C3541 C 0.20485 0.79519 0.41763
 N3542 N 0.21524 0.80047 0.42314
 N3543 N 0.22027 0.79546 0.43359
 C3544 C 0.21511 0.78496 0.43901
 N3545 N 0.20472 0.77967 0.43350
 N3546 N 0.19970 0.78468 0.42304
 C3547 C 0.22078 0.77931 0.45059
 C3548 C 0.21547 0.76837 0.45611
 C3549 C 0.22103 0.76284 0.46680
 C3550 C 0.23202 0.76809 0.47223
 C3551 C 0.23722 0.77913 0.46684
 C3552 C 0.23167 0.78467 0.45615
 H3553 H 0.18412 0.78690 0.40430
 H3554 H 0.17478 0.79620 0.38545
 H3555 H 0.20352 0.82551 0.38573
 H3556 H 0.21280 0.81621 0.40460
 H3557 H 0.20710 0.76397 0.45210
 H3558 H 0.21682 0.75430 0.47068
 H3559 H 0.24573 0.78337 0.47075
 H3560 H 0.23602 0.79307 0.45216
 C3561 C 0.69926 0.69950 0.59382
 C3562 C 0.70455 0.68855 0.59930
 C3563 C 0.69919 0.68317 0.61016
 C3564 C 0.68838 0.68859 0.61585
 C3565 C 0.68313 0.69959 0.61038
 C3566 C 0.68849 0.70497 0.59951
 C3567 C 0.70489 0.70515 0.58222
 N3568 N 0.69973 0.71568 0.57684
 N3569 N 0.70475 0.72071 0.56640
 C3570 C 0.71515 0.71543 0.56087
 N3571 N 0.72031 0.70491 0.56626
 N3572 N 0.71529 0.69988 0.57670
 C3573 C 0.72079 0.72108 0.54928
 C3574 C 0.73167 0.71571 0.54369
 C3575 C 0.73720 0.72124 0.53299
 C3576 C 0.73198 0.73228 0.52761
 C3577 C 0.72100 0.73755 0.53307
 C3578 C 0.71547 0.73202 0.54377
 H3579 H 0.71286 0.68408 0.59520
 H3580 H 0.70359 0.67476 0.61406
 H3581 H 0.67483 0.70409 0.61442
 H3582 H 0.68416 0.71342 0.59558
 H3583 H 0.73604 0.70730 0.54767
 H3584 H 0.74570 0.71698 0.52906
 H3585 H 0.71678 0.74609 0.52920
 H3586 H 0.70710 0.73643 0.54781
 C3587 C 0.69956 0.19942 0.09379
 C3588 C 0.68873 0.20481 0.09942
 C3589 C 0.68340 0.19947 0.11032
 C3590 C 0.68876 0.18857 0.11588
 C3591 C 0.69967 0.18324 0.11029
 C3592 C 0.70499 0.18859 0.09939
 C3593 C 0.70512 0.20502 0.08213
 N3594 N 0.71556 0.19980 0.07663
 N3595 N 0.72053 0.20481 0.06616
 C3596 C 0.71527 0.21525 0.06071
 N3597 N 0.70482 0.22046 0.06620
 N3598 N 0.69985 0.21545 0.07668
 C3599 C 0.72089 0.22092 0.04911
 C3600 C 0.71551 0.23183 0.04360
 C3601 C 0.72103 0.23739 0.03291
 C3602 C 0.73204 0.23218 0.02747
 C3603 C 0.73732 0.22117 0.03285
 C3604 C 0.73181 0.21560 0.04355
 H3605 H 0.68431 0.21319 0.09541
 H3606 H 0.67507 0.20393 0.11432
 H3607 H 0.70415 0.17491 0.11426
 H3608 H 0.71337 0.18421 0.09535
 H3609 H 0.70712 0.23619 0.04762
 H3610 H 0.71677 0.24591 0.02903
 H3611 H 0.74585 0.21696 0.02894
 H3612 H 0.73622 0.20722 0.04753
 C3613 C 0.19944 0.69960 0.09369
 C3614 C 0.18862 0.70502 0.09932
 C3615 C 0.18329 0.69970 0.11023
 C3616 C 0.18863 0.68880 0.11581
 C3617 C 0.19953 0.68345 0.11021
 C3618 C 0.20485 0.68877 0.09930
 C3619 C 0.20503 0.70518 0.08203
 N3620 N 0.21547 0.69994 0.07655
 N3621 N 0.22048 0.70493 0.06608
 C3622 C 0.21526 0.71538 0.06062
 N3623 N 0.20481 0.72063 0.06609
 N3624 N 0.19981 0.71563 0.07656
 C3625 C 0.22092 0.72103 0.04903
 C3626 C 0.21560 0.73195 0.04349
 C3627 C 0.22116 0.73749 0.03280
 C3628 C 0.23218 0.73223 0.02739
 C3629 C 0.23739 0.72120 0.03280
 C3630 C 0.23184 0.71567 0.04349
 H3631 H 0.18421 0.71338 0.09528
 H3632 H 0.17496 0.70418 0.11422
 H3633 H 0.20399 0.67511 0.11419
 H3634 H 0.21320 0.68435 0.09526
 H3635 H 0.20722 0.73636 0.04749
 H3636 H 0.21695 0.74602 0.02890
 H3637 H 0.24591 0.71696 0.02890
 H3638 H 0.23621 0.70727 0.04749
 C3639 C 0.19932 0.19941 0.59386
 C3640 C 0.20474 0.18858 0.59946
 C3641 C 0.19941 0.18323 0.61035
 C3642 C 0.18850 0.18855 0.61594
 C3643 C 0.18316 0.19946 0.61038
 C3644 C 0.18849 0.20481 0.59949
 C3645 C 0.20488 0.20499 0.58220
 N3646 N 0.19963 0.21543 0.57673
 N3647 N 0.20461 0.22043 0.56625
 C3648 C 0.21505 0.21519 0.56077
 N3649 N 0.22030 0.20475 0.56623
 N3650 N 0.21532 0.19976 0.57671
 C3651 C 0.22070 0.22084 0.54918
 C3652 C 0.23162 0.21550 0.54364
 C3653 C 0.23716 0.22105 0.53295
 C3654 C 0.23192 0.23207 0.52755
 C3655 C 0.22091 0.23731 0.53297
 C3656 C 0.21536 0.23176 0.54365
 H3657 H 0.21311 0.18419 0.59541
 H3658 H 0.20390 0.17489 0.61432
 H3659 H 0.17483 0.20393 0.61438
 H3660 H 0.18408 0.21319 0.59548
 H3661 H 0.23600 0.20711 0.54764
 H3662 H 0.24569 0.21682 0.52906
 H3663 H 0.21668 0.24584 0.52908
 H3664 H 0.20696 0.23614 0.54766
   
