data_POSCAR
  _audit_creation_date              2014-09-24
  _audit_creation_method            'ToBaCCo'
  _symmetry_space_group_name_H-M    'P1'
  _symmetry_Int_Tables_number       1
  _symmetry_cell_setting            triclinic
  loop_
  _symmetry_equiv_pos_as_xyz
 x,y,z
_cell_length_a 46.1246
_cell_length_b 45.2943
_cell_length_c 46.3880
_cell_angle_alpha 90.936500
_cell_angle_beta 89.896600
_cell_angle_gamma 91.373700
loop_
  _atom_site_label
  _atom_site_type_symbol
  _atom_site_fract_x
  _atom_site_fract_y
  _atom_site_fract_z
C1 C 0.36059 0.32826 0.34616
 C2 C 0.33909 0.32908 0.36807
 C3 C 0.32015 0.35247 0.36918
 C4 C 0.32209 0.37505 0.34891
 C5 C 0.34304 0.37424 0.32778
 C6 C 0.36224 0.35090 0.32641
 C7 C 0.38169 0.30831 0.33796
 N8 N 0.39552 0.31869 0.31395
 C9 C 0.38361 0.34459 0.30697
 C10 C 0.33913 0.39802 0.31028
 N11 N 0.31611 0.41325 0.32012
 C12 C 0.30556 0.39940 0.34394
 C13 C 0.30110 0.34760 0.39142
 N14 N 0.30758 0.32196 0.40429
 C15 C 0.33082 0.31029 0.39019
 H16 H 0.38604 0.28764 0.34829
 H17 H 0.38982 0.35777 0.28858
 H18 H 0.35160 0.40338 0.29118
 H19 H 0.28698 0.40599 0.35652
 H20 H 0.28340 0.36165 0.39765
 H21 H 0.34074 0.28959 0.39519
 C22 C 0.37477 0.82308 -0.16180
 C23 C 0.35402 0.82307 -0.13984
 C24 C 0.33273 0.84417 -0.13890
 C25 C 0.33233 0.86596 -0.16048
 C26 C 0.35320 0.86568 -0.18205
 C27 C 0.37435 0.84416 -0.18281
 C28 C 0.39645 0.80402 -0.16878
 N29 N 0.40907 0.81287 -0.19374
 C30 C 0.39574 0.83764 -0.20248
 C31 C 0.34760 0.88795 -0.20062
 N32 N 0.32379 0.90221 -0.19134
 C33 C 0.31412 0.88896 -0.16670
 C34 C 0.31490 0.83706 -0.11574
 N35 N 0.32515 0.81234 -0.10310
 C36 C 0.34894 0.80383 -0.11784
 H37 H 0.40203 0.78447 -0.15703
 H38 H 0.40045 0.84968 -0.22194
 H39 H 0.35983 0.89318 -0.21991
 H40 H 0.29521 0.89510 -0.15437
 H41 H 0.29558 0.84852 -0.10926
 H42 H 0.36137 0.78449 -0.11320
 C43 C 0.85673 0.32069 -0.15432
 C44 C 0.83519 0.32370 -0.13294
 C45 C 0.81516 0.34587 -0.13502
 C46 C 0.81611 0.36522 -0.15826
 C47 C 0.83723 0.36236 -0.17916
 C48 C 0.85768 0.33997 -0.17717
 C49 C 0.87873 0.30087 -0.15870
 N50 N 0.89299 0.30761 -0.18357
 C51 C 0.88008 0.33163 -0.19491
 C52 C 0.83232 0.38359 -0.19944
 N53 N 0.80867 0.39914 -0.19143
 C54 C 0.79864 0.38800 -0.16610
 C55 C 0.79641 0.34325 -0.11215
 N56 N 0.80428 0.32006 -0.09607
 C57 C 0.82806 0.30787 -0.10859
 H58 H 0.88380 0.28265 -0.14489
 H59 H 0.88593 0.34243 -0.21476
 H60 H 0.84483 0.38714 -0.21892
 H61 H 0.77994 0.39542 -0.15418
 H62 H 0.77794 0.35694 -0.10775
 H63 H 0.83915 0.28872 -0.10102
 C64 C 0.86249 0.82428 0.34046
 C65 C 0.84224 0.82815 0.36285
 C66 C 0.82241 0.85049 0.36133
 C67 C 0.82233 0.86913 0.33762
 C68 C 0.84211 0.86543 0.31557
 C69 C 0.86236 0.84285 0.31705
 C70 C 0.88382 0.80395 0.33544
 N71 N 0.89665 0.80972 0.30964
 C72 C 0.88348 0.83356 0.29830
 C73 C 0.83597 0.88587 0.29484
 N74 N 0.81282 0.90173 0.30395
 C75 C 0.80449 0.89155 0.33010
 C76 C 0.80441 0.84825 0.38480
 N77 N 0.81260 0.82506 0.40068
 C78 C 0.83584 0.81258 0.38746
 H79 H 0.88945 0.78610 0.34947
 H80 H 0.88836 0.84368 0.27787
 H81 H 0.84729 0.88833 0.27455
 H82 H 0.78634 0.89958 0.34259
 H83 H 0.78598 0.86190 0.38952
 H84 H 0.84673 0.79307 0.39443
 C85 C 0.64647 0.67142 0.34330
 C86 C 0.66772 0.67228 0.36509
 C87 C 0.68962 0.65200 0.36449
 C88 C 0.69096 0.63092 0.34231
 C89 C 0.67035 0.63002 0.32072
 C90 C 0.64778 0.65043 0.32126
 C91 C 0.62292 0.68868 0.33786
 N92 N 0.60981 0.67870 0.31312
 C93 C 0.62498 0.65539 0.30287
 C94 C 0.67823 0.60795 0.30157
 N95 N 0.70308 0.59573 0.31125
 C96 C 0.71086 0.60971 0.33615
 C97 C 0.70778 0.65829 0.38723
 N98 N 0.69777 0.68210 0.40177
 C99 C 0.67313 0.69086 0.38848
 H100 H 0.61627 0.70730 0.35095
 H101 H 0.61992 0.64307 0.28325
 H102 H 0.66690 0.60185 0.28189
 H103 H 0.73001 0.60510 0.34862
 H104 H 0.72739 0.64684 0.39244
 H105 H 0.66025 0.70951 0.39488
 C106 C 0.63811 0.17317 -0.14951
 C107 C 0.65994 0.17127 -0.12872
 C108 C 0.68076 0.14984 -0.13123
 C109 C 0.67991 0.12981 -0.15481
 C110 C 0.65824 0.13175 -0.17522
 C111 C 0.63728 0.15349 -0.17251
 C112 C 0.61616 0.19284 -0.15346
 N113 N 0.60203 0.18555 -0.17834
 C114 C 0.61490 0.16132 -0.19004
 C115 C 0.66321 0.11079 -0.19628
 N116 N 0.68736 0.09592 -0.18938
 C117 C 0.69778 0.10743 -0.16391
 C118 C 0.69987 0.15451 -0.10865
 N119 N 0.69116 0.17816 -0.09270
 C120 C 0.66665 0.18844 -0.10489
 H121 H 0.61128 0.21154 -0.13958
 H122 H 0.60936 0.15036 -0.21022
 H123 H 0.65036 0.10691 -0.21555
 H124 H 0.71711 0.10070 -0.15290
 H125 H 0.71914 0.14207 -0.10451
 H126 H 0.65460 0.20731 -0.09756
 C127 C 0.14104 0.67242 -0.15165
 C128 C 0.16253 0.67183 -0.13017
 C129 C 0.18255 0.64953 -0.13073
 C130 C 0.18165 0.62786 -0.15254
 C131 C 0.16073 0.62858 -0.17367
 C132 C 0.14030 0.65092 -0.17321
 C133 C 0.11916 0.69166 -0.15748
 N134 N 0.10529 0.68220 -0.18205
 C135 C 0.11828 0.65740 -0.19174
 C136 C 0.16614 0.60608 -0.19302
 N137 N 0.19009 0.59174 -0.18410
 C138 C 0.19955 0.60492 -0.15926
 C139 C 0.20182 0.65506 -0.10877
 N140 N 0.19433 0.68021 -0.09476
 C141 C 0.17021 0.69074 -0.10760
 H142 H 0.11427 0.71118 -0.14483
 H143 H 0.11219 0.64498 -0.21105
 H144 H 0.15379 0.60131 -0.21239
 H145 H 0.21864 0.59879 -0.14739
 H146 H 0.22065 0.64221 -0.10390
 H147 H 0.15960 0.71102 -0.10174
 C148 C 0.14367 0.16816 0.34857
 C149 C 0.16416 0.16728 0.37097
 C150 C 0.18456 0.14530 0.37102
 C151 C 0.18478 0.12394 0.34875
 C152 C 0.16454 0.12483 0.32695
 C153 C 0.14400 0.14696 0.32686
 C154 C 0.12216 0.18754 0.34171
 N155 N 0.10967 0.17853 0.31637
 C156 C 0.12304 0.15358 0.30728
 C157 C 0.17054 0.10273 0.30743
 N158 N 0.19422 0.08831 0.31673
 C159 C 0.20300 0.10113 0.34206
 C160 C 0.20251 0.15075 0.39425
 N161 N 0.19366 0.17543 0.40836
 C162 C 0.17015 0.18570 0.39424
 H163 H 0.11637 0.20708 0.35398
 H164 H 0.11855 0.14104 0.28771
 H165 H 0.15879 0.09839 0.28762
 H166 H 0.22173 0.09480 0.35436
 H167 H 0.22118 0.13810 0.40008
 H168 H 0.15853 0.20544 0.39981
 C169 C 0.63684 0.31406 0.64248
 C170 C 0.65652 0.31576 0.61968
 C171 C 0.67813 0.33738 0.61959
 C172 C 0.68004 0.35800 0.64246
 C173 C 0.66039 0.35650 0.66510
 C174 C 0.63862 0.33411 0.66521
 C175 C 0.61517 0.29386 0.64850
 N176 N 0.60348 0.30086 0.67441
 C177 C 0.61763 0.32556 0.68492
 C178 C 0.66823 0.37863 0.68453
 N179 N 0.69200 0.39349 0.67417
 C180 C 0.69944 0.38080 0.64861
 C181 C 0.69533 0.33192 0.59582
 N182 N 0.68442 0.30748 0.58177
 C183 C 0.66067 0.29766 0.59621
 H184 H 0.60877 0.27490 0.63526
 H185 H 0.61364 0.33617 0.70555
 H186 H 0.65771 0.38293 0.70498
 H187 H 0.71779 0.38761 0.63551
 H188 H 0.71484 0.34417 0.59001
 H189 H 0.64804 0.27792 0.59065
 C190 C 0.62188 0.81896 1.15361
 C191 C 0.64133 0.81882 1.13047
 C192 C 0.66306 0.84027 1.12879
 C193 C 0.66534 0.86242 1.15023
 C194 C 0.64602 0.86255 1.17310
 C195 C 0.62421 0.84057 1.17487
 C196 C 0.60048 0.79928 1.16182
 N197 N 0.58981 0.80820 1.18771
 C198 C 0.60413 0.83365 1.19585
 C199 C 0.65452 0.88519 1.19153
 N200 N 0.67845 0.89884 1.18047
 C201 C 0.68527 0.88501 1.15516
 C202 C 0.68004 0.83314 1.10534
 N203 N 0.66901 0.80785 1.09295
 C204 C 0.64529 0.79911 1.10813
 H205 H 0.59390 0.77923 1.15030
 H206 H 0.60117 0.84582 1.21584
 H207 H 0.64448 0.89088 1.21193
 H208 H 0.70370 0.89023 1.14158
 H209 H 0.69924 0.84521 1.09837
 H210 H 0.63242 0.77923 1.10375
 C211 C 0.13360 0.33207 1.16141
 C212 C 0.15514 0.33597 1.14051
 C213 C 0.17475 0.35950 1.14249
 C214 C 0.17268 0.37981 1.16573
 C215 C 0.15099 0.37598 1.18615
 C216 C 0.13148 0.35196 1.18404
 C217 C 0.11364 0.30964 1.16606
 N218 N 0.09949 0.31544 1.19124
 C219 C 0.11018 0.34145 1.20220
 C220 C 0.15479 0.39748 1.20700
 N221 N 0.17828 0.41440 1.20011
 C222 C 0.18947 0.40386 1.17483
 C223 C 0.19425 0.35603 1.12004
 N224 N 0.18675 0.33110 1.10473
 C225 C 0.16280 0.31881 1.11732
 H226 H 0.11066 0.29023 1.15242
 H227 H 0.10372 0.35140 1.22254
 H228 H 0.14185 0.40015 1.22633
 H229 H 0.20861 0.41248 1.16407
 H230 H 0.21292 0.37016 1.11559
 H231 H 0.15184 0.29842 1.11091
 C232 C 0.11177 0.84133 0.66332
 C233 C 0.13191 0.84199 0.64081
 C234 C 0.15535 0.86152 0.64190
 C235 C 0.15858 0.88106 0.66559
 C236 C 0.13853 0.88044 0.68785
 C237 C 0.11508 0.86019 0.68686
 C238 C 0.08961 0.82177 0.66940
 N239 N 0.07951 0.82789 0.69621
 C240 C 0.09480 0.85156 0.70712
 C241 C 0.14816 0.90016 0.70876
 N242 N 0.17356 0.91279 0.69989
 C243 C 0.18013 0.90110 0.67344
 C244 C 0.17309 0.85454 0.61891
 N245 N 0.16081 0.83117 0.60416
 C246 C 0.13560 0.82358 0.61739
 H247 H 0.08264 0.80305 0.65610
 H248 H 0.09270 0.86071 0.72868
 H249 H 0.13774 0.90455 0.72928
 H250 H 0.19920 0.90621 0.66072
 H251 H 0.19390 0.86490 0.61426
 H252 H 0.12170 0.80491 0.61126
 C253 C 0.35613 0.67946 0.65327
 C254 C 0.33399 0.68429 0.63344
 C255 C 0.31105 0.66431 0.63083
 C256 C 0.30999 0.63916 0.64799
 C257 C 0.33179 0.63445 0.66774
 C258 C 0.35509 0.65483 0.67047
 C259 C 0.38015 0.69603 0.66112
 N260 N 0.39397 0.68209 0.68270
 C261 C 0.37867 0.65695 0.68873
 C262 C 0.32431 0.60917 0.68228
 N263 N 0.29847 0.59850 0.67182
 C264 C 0.28968 0.61670 0.65081
 C265 C 0.29230 0.67519 0.61082
 N266 N 0.30342 0.70138 0.60130
 C267 C 0.32895 0.70700 0.61496
 H268 H 0.38627 0.71729 0.65240
 H269 H 0.38407 0.64163 0.70545
 H270 H 0.33670 0.59978 0.69948
 H271 H 0.26954 0.61416 0.63896
 H272 H 0.27214 0.66467 0.60393
 H273 H 0.34266 0.72645 0.61192
 C274 C 0.35852 0.17755 1.15130
 C275 C 0.33537 0.17554 1.13168
 C276 C 0.31601 0.15182 1.13275
 C277 C 0.31942 0.12994 1.15340
 C278 C 0.34203 0.13200 1.17284
 C279 C 0.36178 0.15592 1.17170
 C280 C 0.37979 0.19880 1.15645
 N281 N 0.39580 0.19057 1.17936
 C282 C 0.38487 0.16432 1.18886
 C283 C 0.33865 0.10895 1.19165
 N284 N 0.31454 0.09289 1.18407
 C285 C 0.30273 0.10565 1.16052
 C286 C 0.29492 0.15629 1.11249
 N287 N 0.30088 0.18214 1.09911
 C288 C 0.32568 0.19413 1.11071
 H289 H 0.38297 0.21917 1.14483
 H290 H 0.39242 0.15244 1.20730
 H291 H 0.35230 0.10465 1.21002
 H292 H 0.28285 0.09890 1.14975
 H293 H 0.27615 0.14208 1.10821
 H294 H 0.33572 0.21503 1.10499
 C295 C 0.87007 0.67456 1.13029
 C296 C 0.84865 0.67347 1.10908
 C297 C 0.82687 0.65209 1.10976
 C298 C 0.82654 0.63111 1.13152
 C299 C 0.84767 0.63207 1.15275
 C300 C 0.86968 0.65426 1.15225
 C301 C 0.89176 0.69497 1.13598
 N302 N 0.90478 0.68797 1.16097
 C303 C 0.89152 0.66298 1.17119
 C304 C 0.84041 0.61014 1.17196
 N305 N 0.81557 0.59605 1.16268
 C306 C 0.80701 0.60890 1.13808
 C307 C 0.80722 0.65862 1.08864
 N308 N 0.81675 0.68358 1.07540
 C309 C 0.84218 0.69256 1.08756
 H310 H 0.89694 0.71437 1.12345
 H311 H 0.89643 0.65252 1.19134
 H312 H 0.85215 0.60542 1.19144
 H313 H 0.78758 0.60284 1.12608
 H314 H 0.78705 0.64676 1.08420
 H315 H 0.85419 0.71258 1.08221
 C316 C 0.86329 0.17560 0.64229
 C317 C 0.84211 0.17277 0.62076
 C318 C 0.82193 0.14986 0.62160
 C319 C 0.82256 0.12949 0.64391
 C320 C 0.84329 0.13213 0.66541
 C321 C 0.86401 0.15555 0.66452
 C322 C 0.88461 0.19669 0.64741
 N323 N 0.89852 0.19021 0.67217
 C324 C 0.88604 0.16498 0.68285
 C325 C 0.83701 0.11012 0.68506
 N326 N 0.81307 0.09455 0.67568
 C327 C 0.80429 0.10634 0.65061
 C328 C 0.80285 0.15364 0.59932
 N329 N 0.81093 0.17832 0.58493
 C330 C 0.83503 0.19023 0.59790
 H331 H 0.88934 0.21577 0.63428
 H332 H 0.89185 0.15441 0.70268
 H333 H 0.84843 0.10646 0.70499
 H334 H 0.78532 0.09905 0.63849
 H335 H 0.78387 0.13994 0.59443
 H336 H 0.84609 0.21058 0.59202
 C337 C 0.33171 0.36227 0.66056
 C338 C 0.33312 0.33989 0.63941
 C339 C 0.35472 0.31930 0.64044
 C340 C 0.37537 0.32102 0.66269
 C341 C 0.37398 0.34318 0.68349
 C342 C 0.35201 0.36388 0.68242
 C343 C 0.31200 0.38400 0.66596
 N344 N 0.31995 0.39870 0.69063
 C345 C 0.34439 0.38651 0.70077
 C346 C 0.39553 0.33859 0.70323
 N347 N 0.41012 0.31425 0.69498
 C348 C 0.39786 0.30329 0.67019
 C349 C 0.34955 0.29924 0.61821
 N350 N 0.32550 0.30730 0.60371
 C351 C 0.31528 0.33214 0.61669
 H352 H 0.29292 0.38797 0.65323
 H353 H 0.35537 0.39317 0.72053
 H354 H 0.39991 0.35163 0.72257
 H355 H 0.40401 0.28341 0.65874
 H356 H 0.36199 0.27982 0.61331
 H357 H 0.29572 0.34333 0.61095
 C358 C 0.33868 0.86325 0.15919
 C359 C 0.33920 0.84381 0.13571
 C360 C 0.35703 0.81972 0.13559
 C361 C 0.37541 0.81541 0.15945
 C362 C 0.37488 0.83502 0.18279
 C363 C 0.35608 0.85904 0.18277
 C364 C 0.32115 0.88646 0.16520
 N365 N 0.32702 0.89663 0.19227
 C366 C 0.34866 0.88021 0.20315
 C367 C 0.39413 0.82525 0.20294
 N368 N 0.40666 0.80029 0.19256
 C369 C 0.39514 0.79405 0.16609
 C370 C 0.35000 0.80331 0.11093
 N371 N 0.32843 0.81724 0.09673
 C372 C 0.32202 0.84199 0.11179
 H373 H 0.30489 0.89467 0.15083
 H374 H 0.35746 0.88270 0.22470
 H375 H 0.39851 0.83589 0.22354
 H376 H 0.40087 0.77539 0.15254
 H377 H 0.35879 0.78219 0.10481
 H378 H 0.30483 0.85684 0.10646
 C379 C 0.84003 0.35593 0.16128
 C380 C 0.83819 0.33347 0.14011
 C381 C 0.85752 0.31062 0.14029
 C382 C 0.87900 0.30996 0.16165
 C383 C 0.88077 0.33213 0.18251
 C384 C 0.86114 0.35528 0.18234
 C385 C 0.82329 0.38000 0.16713
 N386 N 0.83372 0.39406 0.19129
 C387 C 0.85688 0.37901 0.20069
 C388 C 0.90282 0.32526 0.20094
 N389 N 0.91455 0.29956 0.19182
 C390 C 0.90006 0.28998 0.16777
 C391 C 0.84979 0.29143 0.11812
 N392 N 0.82631 0.30207 0.10446
 C393 C 0.81905 0.32783 0.11785
 H394 H 0.80446 0.38604 0.15493
 H395 H 0.86931 0.38458 0.21988
 H396 H 0.90967 0.33787 0.21987
 H397 H 0.90400 0.26982 0.15574
 H398 H 0.86014 0.27088 0.11264
 H399 H 0.80080 0.34124 0.11252
 C400 C 0.83149 0.85670 0.66449
 C401 C 0.83201 0.83550 0.64196
 C402 C 0.85176 0.81297 0.64263
 C403 C 0.87116 0.81114 0.66565
 C404 C 0.87066 0.83187 0.68778
 C405 C 0.85080 0.85481 0.68716
 C406 C 0.81422 0.88062 0.67035
 N407 N 0.82277 0.89313 0.69596
 C408 C 0.84508 0.87743 0.70624
 C409 C 0.89130 0.82420 0.70750
 N410 N 0.90425 0.79922 0.69782
 C411 C 0.89211 0.79120 0.67218
 C412 C 0.84674 0.79502 0.61893
 N413 N 0.82445 0.80594 0.60374
 C414 C 0.81525 0.83076 0.61768
 H415 H 0.79659 0.88792 0.65710
 H416 H 0.85609 0.88192 0.72650
 H417 H 0.89644 0.83620 0.72725
 H418 H 0.89800 0.77208 0.65932
 H419 H 0.85804 0.77501 0.61344
 H420 H 0.79723 0.84401 0.61132
 C421 C 0.67412 0.62924 0.65035
 C422 C 0.67803 0.64938 0.62772
 C423 C 0.65726 0.67023 0.62293
 C424 C 0.63273 0.67167 0.64039
 C425 C 0.62892 0.65227 0.66276
 C426 C 0.64967 0.63077 0.66771
 C427 C 0.69104 0.60732 0.66127
 N428 N 0.67738 0.59556 0.68470
 C429 C 0.65219 0.60993 0.68874
 C430 C 0.60467 0.66092 0.67772
 N431 N 0.59397 0.68522 0.66486
 C432 C 0.61095 0.69170 0.64191
 C433 C 0.66692 0.68811 0.60130
 N434 N 0.69337 0.67896 0.59257
 C435 C 0.70032 0.65515 0.60849
 H436 H 0.71195 0.60102 0.65296
 H437 H 0.63694 0.60577 0.70607
 H438 H 0.59641 0.65088 0.69715
 H439 H 0.60846 0.71060 0.62821
 H440 H 0.65544 0.70671 0.59310
 H441 H 0.72047 0.64348 0.60677
 C442 C 0.67271 0.13354 0.15878
 C443 C 0.67250 0.15580 0.13835
 C444 C 0.65202 0.17766 0.13961
 C445 C 0.63091 0.17703 0.16178
 C446 C 0.63129 0.15472 0.18197
 C447 C 0.65238 0.13292 0.18052
 C448 C 0.69130 0.11082 0.16310
 N449 N 0.68282 0.09623 0.18717
 C450 C 0.65896 0.10960 0.19794
 C451 C 0.60936 0.15976 0.20132
 N452 N 0.59535 0.18439 0.19367
 C453 C 0.60837 0.19527 0.16950
 C454 C 0.65864 0.19684 0.11734
 N455 N 0.68243 0.18671 0.10307
 C456 C 0.69078 0.16170 0.11585
 H457 H 0.70999 0.10603 0.14990
 H458 H 0.64763 0.10322 0.21743
 H459 H 0.60410 0.14653 0.21994
 H460 H 0.60235 0.21511 0.15855
 H461 H 0.64725 0.21671 0.11232
 H462 H 0.70938 0.14894 0.10950
 C463 C 0.18669 0.64780 0.15997
 C464 C 0.18453 0.66880 0.13812
 C465 C 0.16134 0.68772 0.13801
 C466 C 0.13994 0.68583 0.15959
 C467 C 0.14214 0.66514 0.18095
 C468 C 0.16557 0.64610 0.18110
 C469 C 0.20709 0.62708 0.16641
 N470 N 0.19868 0.61293 0.19076
 C471 C 0.17331 0.62465 0.19988
 C472 C 0.11912 0.66873 0.19948
 N473 N 0.10281 0.69107 0.18997
 C474 C 0.11546 0.70175 0.16553
 C475 C 0.16545 0.70642 0.11519
 N476 N 0.19036 0.69935 0.10134
 C477 C 0.20225 0.67634 0.11526
 H478 H 0.22673 0.62275 0.15440
 H479 H 0.16139 0.61872 0.21910
 H480 H 0.11473 0.65623 0.21877
 H481 H 0.10800 0.72011 0.15316
 H482 H 0.15154 0.72428 0.10933
 H483 H 0.22263 0.66630 0.10984
 C484 C 0.18054 0.13916 0.66790
 C485 C 0.18048 0.16002 0.64586
 C486 C 0.15878 0.18068 0.64452
 C487 C 0.13648 0.18047 0.66558
 C488 C 0.13677 0.15972 0.68720
 C489 C 0.15881 0.13911 0.68834
 C490 C 0.19928 0.11707 0.67497
 N491 N 0.18923 0.10377 0.69927
 C492 C 0.16451 0.11717 0.70747
 C493 C 0.11355 0.16464 0.70503
 N494 N 0.09874 0.18781 0.69511
 C495 C 0.11256 0.19778 0.67092
 C496 C 0.16519 0.19827 0.62098
 N497 N 0.19004 0.18857 0.60831
 C498 C 0.19932 0.16527 0.62347
 H499 H 0.21884 0.11150 0.66341
 H500 H 0.15173 0.11152 0.72629
 H501 H 0.10797 0.15238 0.72419
 H502 H 0.10622 0.21648 0.65838
 H503 H 0.15272 0.21671 0.61386
 H504 H 0.21870 0.15308 0.61865
 C505 C 0.32262 0.64601 0.36763
 C506 C 0.32137 0.66875 0.38862
 C507 C 0.34449 0.68863 0.39164
 C508 C 0.36890 0.68640 0.37388
 C509 C 0.37010 0.66420 0.35327
 C510 C 0.34694 0.64387 0.35021
 C511 C 0.30293 0.62455 0.35810
 N512 N 0.31493 0.60968 0.33545
 C513 C 0.34173 0.62145 0.33058
 C514 C 0.39478 0.66915 0.33721
 N515 N 0.40851 0.69403 0.34758
 C516 C 0.39288 0.70456 0.37013
 C517 C 0.33700 0.70928 0.41205
 N518 N 0.30992 0.70268 0.42168
 C519 C 0.30003 0.67787 0.40749
 H520 H 0.28130 0.62080 0.36653
 H521 H 0.35614 0.61463 0.31339
 H522 H 0.40119 0.65631 0.31852
 H523 H 0.39778 0.72491 0.38191
 H524 H 0.35009 0.72823 0.41902
 H525 H 0.27885 0.66749 0.41014
 C526 C 0.32467 0.14390 0.85558
 C527 C 0.32507 0.16762 0.87530
 C528 C 0.34706 0.18882 0.87439
 C529 C 0.36909 0.18648 0.85360
 C530 C 0.36872 0.16307 0.83401
 C531 C 0.34630 0.14158 0.83507
 C532 C 0.30501 0.12110 0.85067
 N533 N 0.31409 0.10489 0.82771
 C534 C 0.33940 0.11729 0.81797
 C535 C 0.39192 0.16726 0.81561
 N536 N 0.40632 0.19264 0.82365
 C537 C 0.39249 0.20442 0.84683
 C538 C 0.34096 0.20985 0.89523
 N539 N 0.31590 0.20180 0.90872
 C540 C 0.30603 0.17596 0.89650
 H541 H 0.28508 0.11701 0.86248
 H542 H 0.35154 0.11001 0.79932
 H543 H 0.39745 0.15306 0.79757
 H544 H 0.39873 0.22497 0.85765
 H545 H 0.35357 0.22981 0.89996
 H546 H 0.28611 0.16423 0.90187
 C547 C 0.82418 0.62813 0.84798
 C548 C 0.82263 0.64880 0.87092
 C549 C 0.84674 0.66619 0.87764
 C550 C 0.87214 0.66394 0.86164
 C551 C 0.87361 0.64441 0.83858
 C552 C 0.84948 0.62600 0.83188
 C553 C 0.80417 0.60862 0.83587
 N554 N 0.81668 0.59448 0.81302
 C555 C 0.84426 0.60527 0.81031
 C556 C 0.89944 0.65066 0.82456
 N557 N 0.91319 0.67356 0.83879
 C558 C 0.89674 0.68137 0.86165
 C559 C 0.83914 0.68596 0.89867
 N560 N 0.81085 0.68144 0.90516
 C561 C 0.80033 0.65859 0.88844
 H562 H 0.78212 0.60535 0.84330
 H563 H 0.85946 0.59844 0.79384
 H564 H 0.90651 0.64058 0.80454
 H565 H 0.90123 0.70014 0.87586
 H566 H 0.85296 0.70334 0.90788
 H567 H 0.77810 0.65045 0.88813
 C568 C 0.83509 0.12273 0.34204
 C569 C 0.83697 0.14473 0.36365
 C570 C 0.86138 0.16298 0.36545
 C571 C 0.88410 0.15961 0.34581
 C572 C 0.88224 0.13811 0.32439
 C573 C 0.85757 0.11950 0.32253
 C574 C 0.81315 0.10335 0.33364
 N575 N 0.82171 0.08858 0.30952
 C576 C 0.84892 0.09834 0.30259
 C577 C 0.90562 0.14245 0.30635
 N578 N 0.92145 0.16617 0.31640
 C579 C 0.90849 0.17660 0.34060
 C580 C 0.85622 0.18421 0.38612
 N581 N 0.82930 0.17940 0.39701
 C582 C 0.81728 0.15522 0.38342
 H583 H 0.79212 0.10074 0.34384
 H584 H 0.86155 0.09108 0.28426
 H585 H 0.90965 0.13023 0.28659
 H586 H 0.91537 0.19630 0.35251
 H587 H 0.87053 0.20263 0.39200
 H588 H 0.79541 0.14669 0.38645
 C589 C 0.68055 0.36528 0.32978
 C590 C 0.68334 0.34523 0.35228
 C591 C 0.66157 0.32449 0.35728
 C592 C 0.63675 0.32349 0.33993
 C593 C 0.63399 0.34322 0.31771
 C594 C 0.65611 0.36429 0.31252
 C595 C 0.69888 0.38683 0.31922
 N596 N 0.68619 0.39917 0.29599
 C597 C 0.66009 0.38534 0.29164
 C598 C 0.60869 0.33575 0.30341
 N599 N 0.59613 0.31197 0.31648
 C600 C 0.61319 0.30438 0.33879
 C601 C 0.67053 0.30712 0.37942
 N602 N 0.69732 0.31685 0.38806
 C603 C 0.70526 0.34018 0.37156
 H604 H 0.72027 0.39225 0.32754
 H605 H 0.64525 0.39006 0.27434
 H606 H 0.60093 0.34614 0.28416
 H607 H 0.60923 0.28561 0.35254
 H608 H 0.65839 0.28858 0.38809
 H609 H 0.72575 0.35226 0.37318
 C610 C 0.66708 0.86889 0.84811
 C611 C 0.66179 0.84923 0.87059
 C612 C 0.63871 0.82939 0.86894
 C613 C 0.62082 0.82860 0.84477
 C614 C 0.62604 0.84759 0.82216
 C615 C 0.64942 0.86823 0.82395
 C616 C 0.68920 0.88905 0.84342
 N617 N 0.68551 0.90109 0.81720
 C618 C 0.66129 0.88840 0.80495
 C619 C 0.60676 0.83925 0.80054
 N620 N 0.59035 0.81579 0.80984
 C621 C 0.59887 0.80935 0.83683
 C622 C 0.64077 0.81060 0.89169
 N623 N 0.66487 0.81822 0.90690
 C624 C 0.67773 0.84215 0.89439
 H625 H 0.70706 0.89428 0.85789
 H626 H 0.65328 0.89270 0.78357
 H627 H 0.60555 0.84900 0.77947
 H628 H 0.59033 0.79117 0.84940
 H629 H 0.62703 0.79135 0.89562
 H630 H 0.69799 0.85270 0.90092
 C631 C 0.16930 0.36842 0.84753
 C632 C 0.16870 0.34846 0.87019
 C633 C 0.14718 0.32674 0.87156
 C634 C 0.12562 0.32509 0.85007
 C635 C 0.12625 0.34502 0.82769
 C636 C 0.14835 0.36673 0.82632
 C637 C 0.18886 0.39027 0.84011
 N638 N 0.18047 0.40189 0.81481
 C639 C 0.15558 0.38768 0.80614
 C640 C 0.10379 0.33750 0.80934
 N641 N 0.08940 0.31349 0.81997
 C642 C 0.10265 0.30575 0.84480
 C643 C 0.15348 0.30953 0.89502
 N644 N 0.17823 0.32054 0.90763
 C645 C 0.18748 0.34433 0.89256
 H646 H 0.20832 0.39677 0.85186
 H647 H 0.14390 0.39166 0.78645
 H648 H 0.09898 0.34839 0.78940
 H649 H 0.09636 0.28699 0.85776
 H650 H 0.14125 0.29019 0.90182
 H651 H 0.20705 0.35725 0.89711
 C652 C 0.16479 0.87064 0.35030
 C653 C 0.16035 0.85184 0.37363
 C654 C 0.13680 0.83239 0.37378
 C655 C 0.11737 0.83144 0.35057
 C656 C 0.12172 0.84992 0.32747
 C657 C 0.14564 0.86966 0.32738
 C658 C 0.18681 0.89038 0.34357
 N659 N 0.18154 0.90142 0.31715
 C660 C 0.15632 0.88881 0.30710
 C661 C 0.10101 0.84237 0.30706
 N662 N 0.08431 0.81971 0.31736
 C663 C 0.09420 0.81300 0.34392
 C664 C 0.13933 0.81517 0.39771
 N665 N 0.16388 0.82357 0.41200
 C666 C 0.17685 0.84614 0.39746
 H667 H 0.20562 0.89593 0.35669
 H668 H 0.14639 0.89271 0.28648
 H669 H 0.09922 0.85185 0.28591
 H670 H 0.08581 0.79512 0.35699
 H671 H 0.12504 0.79694 0.40365
 H672 H 0.19729 0.85696 0.40294
 O673 O 0.23924 1.02186 0.27360
 O674 O 0.28045 0.96460 0.23641
 O675 O 0.27679 1.02213 0.23159
 O676 O 0.23619 0.96442 0.27215
 O677 O 0.20362 0.96230 0.23726
 O678 O 0.24327 1.01870 0.19765
 O679 O 0.24735 0.96191 0.20206
 O680 O 0.20590 1.01958 0.23947
 Cu681 Cu 0.26154 0.99341 0.25679
 Cu682 Cu 0.22185 0.99033 0.21574
 C683 C 0.21566 1.03054 0.26305
 C684 C 0.27098 0.95343 0.21295
 C685 C 0.26641 1.03031 0.20761
 C686 C 0.21268 0.95379 0.26135
 O687 O 0.23380 0.52332 0.77405
 O688 O 0.27401 0.46576 0.73541
 O689 O 0.27815 0.52288 0.73980
 O690 O 0.23177 0.46615 0.77257
 O691 O 0.20098 0.46760 0.73627
 O692 O 0.24747 0.52563 0.70347
 O693 O 0.24347 0.46805 0.69894
 O694 O 0.20294 0.52499 0.73778
 Cu695 Cu 0.25750 0.49422 0.75909
 Cu696 Cu 0.22069 0.49672 0.71536
 C697 C 0.21149 0.53397 0.76242
 C698 C 0.26558 0.45716 0.71052
 C699 C 0.27063 0.53423 0.71628
 C700 C 0.20852 0.45723 0.76035
 O701 O 0.76763 -0.03297 0.26186
 O702 O 0.72697 0.02548 0.22705
 O703 O 0.72600 -0.03214 0.22423
 O704 O 0.76954 0.02429 0.26380
 O705 O 0.80156 0.02468 0.22834
 O706 O 0.75794 -0.03145 0.18872
 O707 O 0.75898 0.02611 0.19159
 O708 O 0.79958 -0.03271 0.22636
 Cu709 Cu 0.74427 -0.00390 0.24777
 Cu710 Cu 0.78267 -0.00322 0.20513
 C711 C 0.79048 -0.04279 0.25019
 C712 C 0.73617 0.03586 0.20338
 C713 C 0.73467 -0.04154 0.19981
 C714 C 0.79311 0.03395 0.25282
 O715 O 0.77684 0.52522 0.75954
 O716 O 0.73860 0.46567 0.71707
 O717 O 0.74595 0.52319 0.71211
 O718 O 0.77561 0.46734 0.75943
 O719 O 0.73753 0.47063 0.78808
 O720 O 0.70768 0.52752 0.74037
 O721 O 0.70059 0.47029 0.74564
 O722 O 0.73828 0.52831 0.78760
 Cu723 Cu 0.76296 0.49506 0.73419
 Cu724 Cu 0.71730 0.49958 0.76816
 C725 C 0.76375 0.53679 0.78102
 C726 C 0.71299 0.45774 0.72458
 C727 C 0.72203 0.53506 0.71804
 C728 C 0.76172 0.45918 0.78164
 O729 O 0.24116 0.48200 0.30360
 O730 O 0.20585 0.53926 0.26249
 O731 O 0.21070 0.48247 0.25651
 O732 O 0.23950 0.53942 0.30745
 O733 O 0.27840 0.54392 0.27996
 O734 O 0.24952 0.48789 0.22900
 O735 O 0.24462 0.54487 0.23490
 O736 O 0.28006 0.48635 0.27603
 Cu737 Cu 0.22041 0.51029 0.28522
 Cu738 Cu 0.26712 0.51634 0.25233
 C739 C 0.26645 0.47414 0.29674
 C740 C 0.21893 0.55182 0.24184
 C741 C 0.22519 0.47550 0.23412
 C742 C 0.26410 0.55139 0.30221
 O743 O 0.75558 1.02174 0.79004
 O744 O 0.78701 0.96405 0.74398
 O745 O 0.79451 1.02155 0.74919
 O746 O 0.74456 0.96539 0.78120
 O747 O 0.71227 0.97368 0.74738
 O748 O 0.76163 1.02884 0.71575
 O749 O 0.75448 0.97148 0.71022
 O750 O 0.72276 1.02991 0.75670
 Cu751 Cu 0.77365 0.99233 0.76939
 Cu752 Cu 0.73465 1.00187 0.72917
 C753 C 0.73388 1.03571 0.78135
 C754 C 0.77614 0.95759 0.71950
 C755 C 0.78624 1.03491 0.72684
 C756 C 0.71991 0.96000 0.76959
 O757 O 0.76750 0.52574 0.20381
 O758 O 0.72637 0.46793 0.24396
 O759 O 0.72075 0.52428 0.23673
 O760 O 0.76195 0.46737 0.20034
 O761 O 0.79524 0.46908 0.23452
 O762 O 0.75389 0.52835 0.27096
 O763 O 0.75925 0.47231 0.27845
 O764 O 0.80011 0.52754 0.23861
 Cu765 Cu 0.74142 0.49631 0.21782
 Cu766 Cu 0.78034 0.49939 0.25854
 C767 C 0.79094 0.53653 0.21476
 C768 C 0.73618 0.46055 0.26849
 C769 C 0.72994 0.53614 0.25990
 C770 C 0.78511 0.45803 0.21101
 O771 O 0.25512 -0.02322 0.79245
 O772 O 0.22559 0.03517 0.74776
 O773 O 0.22090 -0.02227 0.74760
 O774 O 0.26462 0.03394 0.78806
 O775 O 0.30041 0.02813 0.75694
 O776 O 0.25677 -0.02661 0.71633
 O777 O 0.26148 0.03073 0.71656
 O778 O 0.29068 -0.02869 0.76107
 Cu779 Cu 0.23804 0.00638 0.77211
 Cu780 Cu 0.28092 0.00033 0.73473
 C781 C 0.27783 -0.03615 0.78429
 C782 C 0.23830 0.04305 0.72473
 C783 C 0.23152 -0.03381 0.72482
 C784 C 0.28998 0.04075 0.77905
 O785 O 0.22833 0.28685 0.97595
 O786 O 0.27607 0.25634 1.03105
 O787 O 0.27228 0.25162 0.97512
 O788 O 0.23261 0.29210 1.03229
 O789 O 0.20219 0.25392 1.03577
 O790 O 0.24189 0.21357 0.97988
 O791 O 0.24564 0.21830 1.03554
 O792 O 0.19815 0.24857 0.97988
 Cu793 Cu 0.25530 0.27564 1.00313
 Cu794 Cu 0.21891 0.22983 1.00827
 C795 C 0.20532 0.27284 0.96825
 C796 C 0.26898 0.23203 1.04266
 C797 C 0.26380 0.22561 0.96793
 C798 C 0.21062 0.27960 1.04381
 O799 O 0.19709 0.77765 0.53771
 O800 O 0.22922 0.72883 0.48238
 O801 O 0.22730 0.72977 0.53829
 O802 O 0.19735 0.77545 0.48158
 O803 O 0.23696 0.80383 0.48213
 O804 O 0.26714 0.75783 0.53893
 O805 O 0.26875 0.75729 0.48321
 O806 O 0.23691 0.80570 0.53834
 Cu807 Cu 0.20866 0.75020 0.50998
 Cu808 Cu 0.25641 0.78404 0.51073
 C809 C 0.21155 0.79990 0.54750
 C810 C 0.25472 0.73481 0.47349
 C811 C 0.25243 0.73579 0.54807
 C812 C 0.21202 0.79726 0.47204
 O813 O 0.27231 0.78521 0.03039
 O814 O 0.21912 0.75464 -0.02251
 O815 O 0.22729 0.74968 0.03302
 O816 O 0.25957 0.79596 -0.02367
 O817 O 0.29004 0.76062 -0.03451
 O818 O 0.25790 0.71422 0.02297
 O819 O 0.24988 0.71932 -0.03245
 O820 O 0.30271 0.74982 0.01945
 Cu821 Cu 0.24166 0.77494 0.00537
 Cu822 Cu 0.27809 0.73255 -0.00729
 C823 C 0.29633 0.77245 0.03425
 C824 C 0.22574 0.73141 -0.03656
 C825 C 0.23707 0.72430 0.03793
 C826 C 0.28005 0.78616 -0.03903
 O827 O 0.21006 0.25444 0.47647
 O828 O 0.25366 0.29593 0.53011
 O829 O 0.25619 0.28857 0.47411
 O830 O 0.20944 0.25921 0.53285
 O831 O 0.23833 0.22133 0.53641
 O832 O 0.28543 0.25108 0.47855
 O833 O 0.28261 0.25820 0.53483
 O834 O 0.23929 0.21674 0.47968
 Cu835 Cu 0.22950 0.27825 0.50299
 Cu836 Cu 0.26423 0.23303 0.50780
 C837 C 0.21742 0.22879 0.46851
 C838 C 0.27524 0.28424 0.54189
 C839 C 0.27870 0.27477 0.46622
 C840 C 0.21615 0.23524 0.54483
 O841 O 0.74166 0.78792 0.96727
 O842 O 0.77388 0.73869 1.01880
 O843 O 0.77013 0.73905 0.96377
 O844 O 0.74228 0.78510 1.02301
 O845 O 0.70240 0.75713 1.02332
 O846 O 0.73012 0.71130 0.96362
 O847 O 0.73422 0.71039 1.01936
 O848 O 0.70141 0.76049 0.96751
 Cu849 Cu 0.76097 0.76551 0.99310
 Cu850 Cu 0.71287 0.73213 0.99345
 C851 C 0.71599 0.78279 0.95873
 C852 C 0.76003 0.71606 1.02762
 C853 C 0.75533 0.71703 0.95400
 C854 C 0.71743 0.77881 1.03332
 O855 O 0.72203 0.25536 0.51658
 O856 O 0.75409 0.20536 0.46322
 O857 O 0.76062 0.21478 0.51813
 O858 O 0.71596 0.24659 0.46150
 O859 O 0.75033 0.28025 0.45349
 O860 O 0.79504 0.24848 0.51040
 O861 O 0.78875 0.23878 0.45541
 O862 O 0.75639 0.28912 0.50895
 Cu863 Cu 0.73467 0.22720 0.49066
 Cu864 Cu 0.77610 0.26756 0.48110
 C865 C 0.73364 0.28053 0.52208
 C866 C 0.77711 0.21349 0.45038
 C867 C 0.78539 0.22622 0.52399
 C868 C 0.72549 0.26886 0.44788
 O869 O 0.70870 0.25576 -0.02325
 O870 O 0.75209 0.29550 0.03212
 O871 O 0.75430 0.29038 -0.02417
 O872 O 0.70579 0.26135 0.03284
 O873 O 0.73361 0.22258 0.03586
 O874 O 0.78259 0.25205 -0.02006
 O875 O 0.77989 0.25679 0.03621
 O876 O 0.73709 0.21735 -0.02031
 Cu877 Cu 0.72748 0.27965 0.00402
 Cu878 Cu 0.76107 0.23333 0.00843
 C879 C 0.71572 0.23006 -0.03157
 C880 C 0.77322 0.28286 0.04381
 C881 C 0.77644 0.27608 -0.03207
 C882 C 0.71154 0.23682 0.04408
 O883 O 0.79320 0.75545 0.47502
 O884 O 0.74680 0.72001 0.52866
 O885 O 0.74433 0.72344 0.47184
 O886 O 0.78536 0.76205 0.53033
 O887 O 0.75554 0.79924 0.52708
 O888 O 0.71444 0.76069 0.47027
 O889 O 0.71614 0.75666 0.52633
 O890 O 0.76256 0.79193 0.47121
 Cu891 Cu 0.76994 0.73676 0.50122
 Cu892 Cu 0.73434 0.78077 0.49860
 C893 C 0.78587 0.77930 0.46357
 C894 C 0.72369 0.73215 0.53684
 C895 C 0.72221 0.73565 0.46117
 C896 C 0.77696 0.78738 0.53882
 O897 O 0.98486 0.22381 0.20076
 O898 O 1.04410 0.18810 0.23888
 O899 O 0.98789 0.18204 0.23824
 O900 O 1.04110 0.22859 0.19975
 O901 O 1.03912 0.26227 0.23462
 O902 O 0.98632 0.21573 0.27314
 O903 O 1.04241 0.22185 0.27372
 O904 O 0.98298 0.25746 0.23567
 Cu905 Cu 1.01478 0.20222 0.21590
 Cu906 Cu 1.01253 0.24272 0.25781
 C907 C 0.97380 0.24678 0.21180
 C908 C 1.05328 0.19875 0.26276
 C909 C 0.97798 0.19105 0.26225
 C910 C 1.04903 0.25340 0.21052
 O911 O 0.53515 0.28012 0.74979
 O912 O 0.47779 0.23608 0.78409
 O913 O 0.53456 0.23429 0.78337
 O914 O 0.47882 0.27488 0.74319
 O915 O 0.48150 0.24171 0.70789
 O916 O 0.53516 0.20151 0.74761
 O917 O 0.47851 0.20307 0.74860
 O918 O 0.53731 0.24736 0.71413
 Cu919 Cu 0.50641 0.25955 0.76860
 Cu920 Cu 0.50840 0.22017 0.72619
 C921 C 0.54606 0.27149 0.72618
 C922 C 0.46796 0.21247 0.77234
 C923 C 0.54428 0.21074 0.77187
 C924 C 0.47074 0.26485 0.71853
 O925 O 0.02114 0.26306 0.78040
 O926 O -0.03218 0.21412 0.74449
 O927 O 0.02438 0.22341 0.73933
 O928 O -0.03580 0.26065 0.77868
 O929 O -0.03789 0.29200 0.74285
 O930 O 0.02008 0.25480 0.70378
 O931 O -0.03603 0.24556 0.70893
 O932 O 0.01888 0.29466 0.74480
 Cu933 Cu -0.00536 0.23717 0.76409
 Cu934 Cu -0.00913 0.27481 0.72170
 C935 C 0.02954 0.28689 0.76876
 C936 C -0.04350 0.22138 0.72090
 C937 C 0.03263 0.23324 0.71489
 C938 C -0.04698 0.28303 0.76702
 O939 O 0.47043 0.20990 0.24969
 O940 O 0.52523 0.25908 0.28451
 O941 O 0.46973 0.24794 0.29256
 O942 O 0.52647 0.21836 0.24461
 O943 O 0.51832 0.25276 0.21266
 O944 O 0.46126 0.28227 0.26065
 O945 O 0.51648 0.29342 0.25263
 O946 O 0.46226 0.24440 0.21783
 Cu947 Cu 0.49878 0.23038 0.27104
 Cu948 Cu 0.48862 0.27162 0.23281
 C949 C 0.45695 0.21892 0.22779
 C950 C 0.53045 0.28450 0.27416
 C951 C 0.45569 0.27017 0.28471
 C952 C 0.53237 0.23053 0.22073
 O953 O 0.97376 0.75450 0.73864
 O954 O 1.03640 0.72133 0.77445
 O955 O 0.98157 0.70711 0.76847
 O956 O 1.02908 0.76445 0.73886
 O957 O 1.02266 0.79361 0.77682
 O958 O 0.97495 0.73522 0.80715
 O959 O 1.02969 0.75040 0.81244
 O960 O 0.96716 0.78262 0.77735
 Cu961 Cu 1.00597 0.73398 0.75134
 Cu962 Cu 0.99793 0.76818 0.79735
 C963 C 0.95996 0.77452 0.75205
 C964 C 1.04372 0.73043 0.79961
 C965 C 0.96993 0.71140 0.79281
 C966 C 1.03370 0.78880 0.75211
 O967 O 0.52952 0.79025 0.26879
 O968 O 0.47684 0.74333 0.30771
 O969 O 0.53344 0.74867 0.30649
 O970 O 0.47339 0.78494 0.26995
 O971 O 0.47424 0.75165 0.23467
 O972 O 0.53520 0.71529 0.27136
 O973 O 0.47830 0.70986 0.27264
 O974 O 0.53043 0.75685 0.23361
 Cu975 Cu 0.50314 0.77002 0.29183
 Cu976 Cu 0.50468 0.72995 0.24964
 C977 C 0.53881 0.78154 0.24441
 C978 C 0.46838 0.71876 0.29668
 C979 C 0.54486 0.72608 0.29508
 C980 C 0.46367 0.77478 0.24609
 O981 O -0.03632 0.79241 0.23475
 O982 O 0.02316 0.75600 0.19777
 O983 O -0.03260 0.74585 0.20126
 O984 O 0.02012 0.79702 0.23745
 O985 O 0.02231 0.76582 0.27339
 O986 O -0.02913 0.71490 0.23728
 O987 O 0.02724 0.72497 0.23369
 O988 O -0.03415 0.76162 0.27106
 Cu989 Cu -0.00681 0.77582 0.21430
 Cu990 Cu -0.00318 0.73870 0.25733
 C991 C -0.04546 0.78365 0.25895
 C992 C 0.03571 0.73469 0.20932
 C993 C -0.03982 0.72161 0.21323
 C994 C 0.03023 0.78986 0.26181
 O995 O 0.47478 0.79297 0.72923
 O996 O 0.52893 0.74293 0.69720
 O997 O 0.47340 0.75009 0.69094
 O998 O 0.53128 0.79201 0.72760
 O999 O 0.52685 0.76279 0.76507
 O1000 O 0.46794 0.72037 0.72795
 O1001 O 0.52368 0.71368 0.73457
 O1002 O 0.47087 0.76278 0.76598
 Cu1003 Cu 0.50256 0.77232 0.70752
 Cu1004 Cu 0.49703 0.73695 0.75197
 C1005 C 0.46364 0.78607 0.75343
 C1006 C 0.53541 0.71969 0.71070
 C1007 C 0.46057 0.72854 0.70290
 C1008 C 0.53880 0.78491 0.75269
 C1009 C 0.41794 0.30577 0.29654
 C1010 C 0.43264 0.28186 0.30377
 H1011 H 0.42347 0.31662 0.27654
 H1012 H 0.42800 0.27083 0.32382
 C1013 C 0.43033 0.79760 0.79278
 C1014 C 0.44190 0.80498 0.76719
 H1015 H 0.43779 0.77792 0.80323
 H1016 H 0.43525 0.82438 0.75591
 C1017 C -0.08426 0.29211 0.80534
 C1018 C -0.07090 0.29944 0.78057
 H1019 H -0.07687 0.27304 0.81682
 H1020 H -0.07780 0.31834 0.76873
 C1021 C -0.08132 0.79372 0.29795
 C1022 C -0.06941 0.79998 0.27227
 H1023 H -0.07313 0.77530 0.30989
 H1024 H -0.07713 0.81814 0.25986
 C1025 C 0.58480 0.69042 0.29893
 C1026 C 0.56975 0.71300 0.30991
 H1027 H 0.57816 0.68062 0.27844
 H1028 H 0.57604 0.72299 0.33033
 C1029 C 0.57988 0.20125 0.81052
 C1030 C 0.56670 0.19341 0.78574
 H1031 H 0.57304 0.22101 0.82188
 H1032 H 0.57277 0.17367 0.77412
 C1033 C 1.08251 0.69442 0.80422
 C1034 C 1.06865 0.71801 0.81454
 H1035 H 1.07493 0.68417 0.78423
 H1036 H 1.07499 0.72834 0.83479
 C1037 C 1.08796 0.19288 0.30288
 C1038 C 1.07672 0.18358 0.27748
 H1039 H 1.07954 0.21263 0.31306
 H1040 H 1.08459 0.16410 0.26662
 C1041 C 0.58089 0.28321 0.68756
 C1042 C 0.56908 0.29000 0.71306
 H1043 H 0.57323 0.26349 0.67608
 H1044 H 0.57617 0.30971 0.72475
 C1045 C 0.56944 0.79238 0.20253
 C1046 C 0.55972 0.80031 0.22873
 H1047 H 0.56108 0.77200 0.19272
 H1048 H 0.56722 0.82053 0.23925
 C1049 C 1.07925 0.29833 0.20488
 C1050 C 1.07005 0.27184 0.19468
 H1051 H 1.07061 0.30636 0.22524
 H1052 H 1.07806 0.26298 0.17451
 C1053 C 1.05902 0.80889 0.71050
 C1054 C 1.05218 0.81153 0.73848
 H1055 H 1.04984 0.79052 0.69798
 H1056 H 1.06036 0.82990 0.75150
 C1057 C 0.41920 0.69289 0.69811
 C1058 C 0.43656 0.71396 0.68711
 H1059 H 0.42379 0.68406 0.71914
 H1060 H 0.43254 0.72194 0.66568
 C1061 C 0.41897 0.20832 0.19174
 C1062 C 0.43459 0.19962 0.21428
 H1063 H 0.42346 0.22983 0.18260
 H1064 H 0.43070 0.17819 0.22364
 C1065 C -0.07300 0.70650 0.17405
 C1066 C -0.06112 0.70101 0.19960
 H1067 H -0.06620 0.72629 0.16278
 H1068 H -0.06742 0.68136 0.21122
 C1069 C -0.07966 0.20760 0.68357
 C1070 C -0.06587 0.20143 0.70807
 H1071 H -0.07338 0.22759 0.67235
 H1072 H -0.07129 0.18157 0.71973
 C1073 C 0.30480 0.43846 0.30583
 C1074 C 0.27938 0.45015 0.31304
 H1075 H 0.31682 0.44731 0.28769
 H1076 H 0.26677 0.44118 0.33064
 C1077 C 0.31274 -0.07481 0.79396
 C1078 C 0.28903 -0.06024 0.80195
 H1079 H 0.32381 -0.06809 0.77438
 H1080 H 0.27730 -0.06607 0.82133
 C1081 C 0.79760 0.42139 0.79274
 C1082 C 0.77346 0.43596 0.80004
 H1083 H 0.80870 0.42727 0.77293
 H1084 H 0.76147 0.43058 0.81936
 C1085 C 0.79884 -0.07641 0.29019
 C1086 C 0.80674 -0.06618 0.26427
 H1087 H 0.78025 -0.06685 0.30087
 H1088 H 0.82532 -0.07477 0.25299
 C1089 C 0.28160 0.57350 0.68158
 C1090 C 0.28913 0.55799 0.70456
 H1091 H 0.26147 0.56794 0.67051
 H1092 H 0.30883 0.56353 0.71620
 C1093 C 0.30389 1.06936 0.19912
 C1094 C 0.28019 1.05390 0.19071
 H1095 H 0.31473 1.06327 0.21881
 H1096 H 0.26938 1.05892 0.17083
 C1097 C 0.79940 0.57238 0.17604
 C1098 C 0.80796 0.55992 0.20038
 H1099 H 0.77934 0.56469 0.16598
 H1100 H 0.82787 0.56732 0.21073
 C1101 C 0.79702 1.07101 0.68933
 C1102 C 0.80508 1.05800 0.71372
 H1103 H 0.77696 1.06367 0.67905
 H1104 H 0.82522 1.06440 0.72428
 C1105 C 0.71997 0.57284 0.29814
 C1106 C 0.71231 0.55917 0.27351
 H1107 H 0.73980 0.56667 0.30876
 H1108 H 0.69254 0.56489 0.26267
 C1109 C 0.69838 1.07401 0.79358
 C1110 C 0.72206 1.05897 0.80039
 H1111 H 0.68737 1.06847 0.77349
 H1112 H 0.73338 1.06350 0.82041
 C1113 C 0.20390 0.56907 0.80254
 C1114 C 0.19525 0.55725 0.77721
 H1115 H 0.22317 0.56068 0.81265
 H1116 H 0.17628 0.56504 0.76633
 C1117 C 0.20822 1.06582 0.30320
 C1118 C 0.19937 1.05377 0.27792
 H1119 H 0.22758 1.05758 0.31323
 H1120 H 0.17999 1.06100 0.26739
 C1121 C 0.70793 0.41774 0.68764
 C1122 C 0.69698 0.43348 0.70957
 H1123 H 0.72928 0.42355 0.67938
 H1124 H 0.67534 0.42836 0.71733
 C1125 C 0.69399 -0.07735 0.19491
 C1126 C 0.71805 -0.06469 0.18402
 H1127 H 0.68601 -0.06990 0.21572
 H1128 H 0.72640 -0.07173 0.16332
 C1129 C 0.18890 0.43819 0.21836
 C1130 C 0.21411 0.45256 0.21383
 H1131 H 0.17615 0.44390 0.23721
 H1132 H 0.22739 0.44704 0.19538
 C1133 C 0.18904 -0.06682 0.71586
 C1134 C 0.21485 -0.05573 0.70751
 H1135 H 0.18017 -0.05953 0.73638
 H1136 H 0.22471 -0.06294 0.68755
 C1137 C 0.29079 0.31045 0.42807
 C1138 C 0.29717 0.28590 0.44229
 H1139 H 0.27188 0.32260 0.43475
 H1140 H 0.31602 0.27345 0.43622
 C1141 C 0.31338 0.79552 -0.07954
 C1142 C 0.29179 0.80466 -0.06256
 H1143 H 0.32290 0.77436 -0.07532
 H1144 H 0.28229 0.82592 -0.06599
 C1145 C 0.78821 0.31050 -0.07113
 C1146 C 0.79495 0.28675 -0.05592
 H1147 H 0.76920 0.32279 -0.06507
 H1148 H 0.81368 0.27398 -0.06165
 C1149 C 0.79670 0.81499 0.42547
 C1150 C 0.80435 0.79154 0.44058
 H1151 H 0.77706 0.82635 0.43131
 H1152 H 0.82385 0.77990 0.43516
 C1153 C 0.69627 0.29164 0.55767
 C1154 C 0.72095 0.29968 0.54444
 H1155 H 0.68500 0.27147 0.55077
 H1156 H 0.73252 0.31985 0.55057
 C1157 C 0.68011 0.79136 1.06884
 C1158 C 0.70617 0.79700 1.05717
 H1159 H 0.66700 0.77295 1.06055
 H1160 H 0.71985 0.81491 1.06541
 C1161 C 0.20269 0.31924 1.08056
 C1162 C 0.19420 0.29410 1.06701
 H1163 H 0.22243 0.33060 1.07378
 H1164 H 0.17468 0.28247 1.07362
 C1165 C 0.17249 0.81443 0.58045
 C1166 C 0.19923 0.81915 0.57003
 H1167 H 0.15929 0.79638 0.57156
 H1168 H 0.21288 0.83693 0.57861
 C1169 C 0.29126 0.72060 0.58044
 C1170 C 0.26442 0.71651 0.56999
 H1171 H 0.30446 0.73918 0.57318
 H1172 H 0.25076 0.69840 0.57728
 C1173 C 0.28255 0.19412 1.07734
 C1174 C 0.28829 0.21997 1.06463
 H1175 H 0.26316 0.18156 1.07122
 H1176 H 0.30755 0.23283 1.07027
 C1177 C 0.80229 0.70031 1.05412
 C1178 C 0.77420 0.69625 1.04765
 H1179 H 0.81459 0.71815 1.04419
 H1180 H 0.76133 0.67880 1.05738
 C1181 C 0.79459 0.18998 0.56153
 C1182 C 0.80321 0.21392 0.54696
 H1183 H 0.77428 0.17887 0.55580
 H1184 H 0.82362 0.22506 0.55193
 C1185 C 0.71269 0.69535 0.42607
 C1186 C 0.70535 0.72127 0.43774
 H1187 H 0.73141 0.68426 0.43440
 H1188 H 0.68704 0.73293 0.42945
 C1189 C 0.70666 0.19050 -0.06819
 C1190 C 0.69881 0.21566 -0.05497
 H1191 H 0.72591 0.17954 -0.06099
 H1192 H 0.68004 0.22723 -0.06223
 C1193 C 0.21164 0.69316 -0.07195
 C1194 C 0.20550 0.71853 -0.05822
 H1195 H 0.23117 0.68179 -0.06617
 H1196 H 0.18600 0.73022 -0.06316
 C1197 C 0.20865 0.18850 0.43282
 C1198 C 0.20044 0.21374 0.44549
 H1199 H 0.22793 0.17789 0.44050
 H1200 H 0.18146 0.22480 0.43797
 C1201 C 0.30500 0.42196 0.70536
 C1202 C 0.28123 0.43413 0.69469
 H1203 H 0.31338 0.42964 0.72605
 H1204 H 0.27272 0.42713 0.67393
 C1205 C 0.31204 0.91956 0.20761
 C1206 C 0.28711 0.93035 0.19778
 H1207 H 0.32089 0.92766 0.22795
 H1208 H 0.27752 0.92184 0.17803
 C1209 C 0.82192 0.41931 0.20606
 C1210 C 0.79944 0.43382 0.19555
 H1211 H 0.83119 0.42621 0.22661
 H1212 H 0.79008 0.42722 0.17505
 C1213 C 0.81076 0.91782 0.71141
 C1214 C 0.78844 0.93341 0.70185
 H1215 H 0.82023 0.92366 0.73217
 H1216 H 0.77857 0.92814 0.68121
 C1217 C 0.68715 0.57270 0.70339
 C1218 C 0.71154 0.55793 0.69855
 H1219 H 0.67410 0.56739 0.72215
 H1220 H 0.72472 0.56280 0.67985
 C1221 C 0.69695 0.07194 0.20049
 C1222 C 0.72072 0.05968 0.18921
 H1223 H 0.68817 0.06373 0.22059
 H1224 H 0.72974 0.06743 0.16913
 C1225 C 0.21469 0.59017 0.20454
 C1226 C 0.20341 0.57468 0.22642
 H1227 H 0.23633 0.58550 0.19685
 H1228 H 0.18159 0.57865 0.23374
 C1229 C 0.20169 0.08017 0.71512
 C1230 C 0.22620 0.06682 0.70731
 H1231 H 0.19052 0.07310 0.73449
 H1232 H 0.23775 0.07333 0.68804
 C1233 C 0.30235 0.58662 0.31754
 C1234 C 0.27605 0.57435 0.32207
 H1235 H 0.31504 0.57905 0.29928
 H1236 H 0.26304 0.58117 0.34030
 C1237 C 0.29768 0.08044 0.81538
 C1238 C 0.30770 0.06396 0.79353
 H1239 H 0.27615 0.07576 0.82382
 H1240 H 0.32922 0.06812 0.78504
 C1241 C 0.80397 0.57183 0.79444
 C1242 C 0.77740 0.56028 0.79910
 H1243 H 0.81660 0.56365 0.77642
 H1244 H 0.76470 0.56807 0.81714
 C1245 C 0.80394 0.06700 0.29431
 C1246 C 0.81124 0.05605 0.26837
 H1247 H 0.78372 0.05980 0.30419
 H1248 H 0.83102 0.06339 0.25790
 C1249 C 0.69829 0.42201 0.27800
 C1250 C 0.72163 0.43806 0.28622
 H1251 H 0.68816 0.42617 0.25745
 H1252 H 0.73124 0.43452 0.30707
 C1253 C 0.70540 0.92263 0.80528
 C1254 C 0.69960 0.93766 0.78149
 H1255 H 0.72559 0.92725 0.81660
 H1256 H 0.67923 0.93387 0.77036
 C1257 C 0.19698 0.42444 0.80033
 C1258 C 0.19011 0.43461 0.77431
 H1259 H 0.21626 0.43317 0.81112
 H1260 H 0.17100 0.42638 0.76304
 C1261 C 0.20027 0.92249 0.30295
 C1262 C 0.19492 0.93151 0.27626
 H1263 H 0.21907 0.93135 0.31443
 H1264 H 0.17626 0.92286 0.26458
 C1265 C 0.43324 0.30204 0.71141
 C1266 C 0.44841 0.27924 0.70160
 H1267 H 0.43812 0.31150 0.73252
 H1268 H 0.44397 0.26986 0.68045
 C1269 C 0.42879 0.78326 0.20620
 C1270 C 0.44008 0.79076 0.23206
 H1271 H 0.43687 0.76407 0.19479
 H1272 H 0.43233 0.80990 0.24363
 C1273 C 0.93782 0.28553 0.20648
 C1274 C 0.95006 0.26088 0.19644
 H1275 H 0.94571 0.29561 0.22641
 H1276 H 0.94281 0.25066 0.17643
 C1277 C 0.92725 0.78358 0.71126
 C1278 C 0.93557 0.78927 0.73845
 H1279 H 0.93802 0.76659 0.69881
 H1280 H 0.92459 0.80569 0.75132
 C1281 C 0.57110 0.29492 0.30721
 C1282 C 0.55361 0.30375 0.28624
 H1283 H 0.56697 0.27369 0.31708
 H1284 H 0.55708 0.32507 0.27650
 C1285 C 0.56845 0.79859 0.79480
 C1286 C 0.56146 0.80295 0.76733
 H1287 H 0.55737 0.78107 0.80645
 H1288 H 0.57210 0.82036 0.75527
 C1289 C 0.06547 0.29717 0.80707
 C1290 C 0.05242 0.30539 0.78269
 H1291 H 0.05823 0.27700 0.81740
 H1292 H 0.05908 0.32550 0.77207
 C1293 C 0.06179 0.80288 0.30280
 C1294 C 0.05178 0.80937 0.27656
 H1295 H 0.05301 0.78360 0.31363
 H1296 H 0.05971 0.82876 0.26547
 C1297 C 0.57089 0.70368 0.67450
 C1298 C 0.55702 0.69930 0.69937
 H1299 H 0.56559 0.72256 0.66162
 H1300 H 0.56209 0.68069 0.71258
 C1301 C 0.57164 0.19604 0.21026
 C1302 C 0.55601 0.21913 0.20229
 H1303 H 0.56625 0.18525 0.23033
 H1304 H 0.56069 0.23013 0.18223
 C1305 C 0.07751 0.70158 0.20485
 C1306 C 0.06056 0.72209 0.19382
 H1307 H 0.07232 0.69266 0.22583
 H1308 H 0.06536 0.73094 0.17280
 C1309 C 0.07367 0.19927 0.70978
 C1310 C 0.05736 0.22046 0.69900
 H1311 H 0.06795 0.19025 0.73059
 H1312 H 0.06260 0.22953 0.67815
 C1313 C 0.43305 0.70956 0.33543
 C1314 C 0.44614 0.70053 0.31116
 H1315 H 0.44003 0.73023 0.34561
 H1316 H 0.43952 0.68006 0.30057
 C1317 C 0.43118 0.20648 0.81029
 C1318 C 0.44368 0.19613 0.78609
 H1319 H 0.43960 0.22681 0.82010
 H1320 H 0.43562 0.17607 0.77567
 C1321 C 0.93767 0.69125 0.82982
 C1322 C 0.94949 0.68881 0.80366
 H1323 H 0.94491 0.70918 0.84404
 H1324 H 0.94276 0.67112 0.78905
 C1325 C 0.94543 0.18117 0.30282
 C1326 C 0.95603 0.17288 0.27716
 H1327 H 0.95419 0.20096 0.31339
 H1328 H 0.94788 0.15313 0.26623
 C1329 C 0.31244 0.29067 0.58016
 C1330 C 0.29095 0.30146 0.56435
 H1331 H 0.32005 0.26865 0.57550
 H1332 H 0.28368 0.32365 0.56841
 C1333 C 0.31132 0.80743 0.07241
 C1334 C 0.31671 0.78318 0.05679
 H1335 H 0.29249 0.82018 0.06713
 H1336 H 0.33565 0.77036 0.06116
 C1337 C 0.81147 0.28695 0.08102
 C1338 C 0.78952 0.29889 0.06673
 H1339 H 0.81832 0.26496 0.07500
 H1340 H 0.78268 0.32096 0.07212
 C1341 C 0.81229 0.79147 0.57855
 C1342 C 0.79130 0.80330 0.56297
 H1343 H 0.82016 0.76988 0.57247
 H1344 H 0.78338 0.82492 0.56856
 C1345 C 0.29545 0.72060 0.44280
 C1346 C 0.26822 0.71535 0.45176
 H1347 H 0.30748 0.73948 0.45169
 H1348 H 0.25567 0.69669 0.44332
 C1349 C 0.30217 0.21887 0.93114
 C1350 C 0.27889 0.20860 0.94546
 H1351 H 0.31109 0.24062 0.93648
 H1352 H 0.27016 0.18670 0.94079
 C1353 C 0.79621 0.70006 0.92549
 C1354 C 0.76802 0.69742 0.93191
 H1355 H 0.80920 0.71716 0.93630
 H1356 H 0.75453 0.68026 0.92198
 C1357 C 0.81608 0.19891 0.41755
 C1358 C 0.79024 0.19306 0.42951
 H1359 H 0.82783 0.21909 0.42360
 H1360 H 0.77853 0.17267 0.42446
 C1361 C 0.71527 0.30490 0.41014
 C1362 C 0.70713 0.28125 0.42541
 H1363 H 0.73620 0.31550 0.41431
 H1364 H 0.68638 0.27033 0.42159
 C1365 C 0.67605 0.80051 0.92945
 C1366 C 0.70357 0.80309 0.93815
 H1367 H 0.66214 0.78316 0.93811
 H1368 H 0.71792 0.81993 0.92946
 C1369 C 0.19412 0.30944 0.93165
 C1370 C 0.18691 0.28443 0.94520
 H1371 H 0.21350 0.32170 0.93835
 H1372 H 0.16780 0.27165 0.93885
 C1373 C 0.17457 0.80850 0.43666
 C1374 C 0.20042 0.81494 0.44862
 H1375 H 0.16146 0.79038 0.44503
 H1376 H 0.21396 0.83281 0.44063
 C1377 C 0.71166 0.69240 0.57104
 C1378 C 0.70517 0.71808 0.55873
 H1379 H 0.73148 0.68147 0.56501
 H1380 H 0.68584 0.72963 0.56480
 C1381 C 0.69832 0.19904 0.07924
 C1382 C 0.69268 0.22496 0.06725
 H1383 H 0.71656 0.18666 0.07118
 H1384 H 0.67470 0.23791 0.07479
 C1385 C 0.20208 0.71557 0.07736
 C1386 C 0.22465 0.70641 0.06152
 H1387 H 0.19198 0.73614 0.07200
 H1388 H 0.23453 0.68556 0.06597
 C1389 C 0.20560 0.19981 0.58361
 C1390 C 0.19820 0.22391 0.56909
 H1391 H 0.22486 0.18826 0.57690
 H1392 H 0.17929 0.23609 0.57546
   
