data_POSCAR
  _audit_creation_date              2014-09-24
  _audit_creation_method            'ToBaCCo'
  _symmetry_space_group_name_H-M    'P1'
  _symmetry_Int_Tables_number       1
  _symmetry_cell_setting            triclinic
  loop_
  _symmetry_equiv_pos_as_xyz
 x,y,z
_cell_length_a 41.5178
_cell_length_b 43.8873
_cell_length_c 40.0965
_cell_angle_alpha 90.088800
_cell_angle_beta 87.721700
_cell_angle_gamma 90.198100
loop_
  _atom_site_label
  _atom_site_type_symbol
  _atom_site_fract_x
  _atom_site_fract_y
  _atom_site_fract_z
C1 C 0.36312 0.33313 0.38107
 N2 N 0.33872 0.32585 0.40335
 C3 C 0.31197 0.34382 0.40581
 N4 N 0.30972 0.36866 0.38577
 C5 C 0.33406 0.37578 0.36362
 N6 N 0.36046 0.35794 0.36143
 C7 C 0.39337 0.84707 -0.16170
 N8 N 0.37014 0.83204 -0.14291
 C9 C 0.34189 0.84668 -0.13438
 N10 N 0.33668 0.87525 -0.14595
 C11 C 0.35965 0.89005 -0.16452
 N12 N 0.38797 0.87608 -0.17156
 C13 C 0.83401 0.34582 -0.19127
 N14 N 0.82498 0.33660 -0.15974
 C15 C 0.79824 0.34882 -0.14432
 N16 N 0.78067 0.36954 -0.16064
 C17 C 0.78933 0.37866 -0.19192
 N18 N 0.81623 0.36695 -0.20710
 C19 C 0.87763 0.85325 0.28883
 N20 N 0.86397 0.87698 0.27318
 C21 C 0.84082 0.89403 0.28838
 N22 N 0.83089 0.88731 0.32001
 C23 C 0.84398 0.86348 0.33633
 N24 N 0.86757 0.84623 0.32079
 C25 C 0.63820 0.66782 0.30965
 N26 N 0.65695 0.64247 0.30977
 C27 C 0.68327 0.64162 0.32892
 N28 N 0.69088 0.66627 0.34773
 C29 C 0.67250 0.69174 0.34736
 N30 N 0.64621 0.69233 0.32834
 C31 C 0.63624 0.17223 -0.17277
 N32 N 0.63714 0.14280 -0.18423
 C33 C 0.65631 0.12204 -0.16909
 N34 N 0.67455 0.13093 -0.14346
 C35 C 0.67461 0.16018 -0.13310
 N36 N 0.65528 0.18051 -0.14752
 C37 C 0.13435 0.67969 -0.16473
 N38 N 0.13737 0.65295 -0.18173
 C39 C 0.16164 0.63338 -0.17512
 N40 N 0.18311 0.64095 -0.15179
 C41 C 0.18023 0.66751 -0.13467
 N42 N 0.15569 0.68676 -0.14103
 C43 C 0.12668 0.16057 0.32129
 N44 N 0.14685 0.13621 0.31959
 C45 C 0.16629 0.12997 0.34518
 N46 N 0.16607 0.14876 0.37220
 C47 C 0.14617 0.17321 0.37399
 N48 N 0.12628 0.17881 0.34866
 C49 C 0.61987 0.34116 0.65035
 N50 N 0.63361 0.31833 0.63214
 C51 C 0.65914 0.32378 0.61091
 N52 N 0.67083 0.35259 0.60759
 C53 C 0.65721 0.37568 0.62588
 N54 N 0.63194 0.36986 0.64755
 C55 C 0.64145 0.81450 1.13918
 N56 N 0.66557 0.80942 1.11625
 C57 C 0.69028 0.82953 1.11212
 N58 N 0.69064 0.85539 1.13096
 C59 C 0.66631 0.86066 1.15406
 N60 N 0.64207 0.84003 1.15820
 C61 C 0.10054 0.33770 1.18504
 N62 N 0.11854 0.31954 1.16461
 C63 C 0.14998 0.32590 1.15753
 N64 N 0.16411 0.35055 1.17181
 C65 C 0.14610 0.36862 1.19305
 N66 N 0.11444 0.36210 1.19917
 C67 C 0.14734 0.84807 0.67653
 N68 N 0.16725 0.87090 0.68630
 C69 C 0.19354 0.87886 0.66703
 N70 N 0.19948 0.86430 0.63779
 C71 C 0.18027 0.84142 0.62778
 N72 N 0.15411 0.83300 0.64722
 C73 C 0.36570 0.65275 0.68824
 N74 N 0.35970 0.67097 0.66190
 C75 C 0.33573 0.66403 0.64110
 N76 N 0.31784 0.63842 0.64652
 C77 C 0.32376 0.61987 0.67270
 N78 N 0.34759 0.62722 0.69365
 C79 C 0.37067 0.17611 1.20264
 N80 N 0.36526 0.19510 1.17671
 C81 C 0.34246 0.18818 1.15455
 N82 N 0.32479 0.16226 1.15859
 C83 C 0.32989 0.14321 1.18452
 N84 N 0.35294 0.15020 1.20639
 C85 C 0.89343 0.65250 1.17129
 N86 N 0.88908 0.66819 1.14269
 C87 C 0.86449 0.66097 1.12281
 N88 N 0.84414 0.63775 1.13169
 C89 C 0.84842 0.62168 1.16020
 N90 N 0.87304 0.62929 1.18000
 C91 C 0.87849 0.15842 0.68320
 N92 N 0.85502 0.13879 0.69474
 C93 C 0.82860 0.13374 0.67614
 N94 N 0.82547 0.14920 0.64714
 C95 C 0.84859 0.16877 0.63586
 N96 N 0.87531 0.17273 0.65354
 C97 C 0.32365 0.35784 0.69543
 N98 N 0.29940 0.34975 0.67562
 C99 C 0.30151 0.32453 0.65618
 N100 N 0.32846 0.30708 0.65646
 C101 C 0.35295 0.31479 0.67654
 N102 N 0.35043 0.34018 0.69609
 C103 C 0.34721 0.88611 0.16818
 N104 N 0.32472 0.87296 0.14922
 C105 C 0.33110 0.84605 0.13336
 N106 N 0.35992 0.83184 0.13730
 C107 C 0.38235 0.84507 0.15655
 N108 N 0.37591 0.87222 0.17136
 C109 C 0.82635 0.35797 0.19174
 N110 N 0.80579 0.35513 0.16635
 C111 C 0.80529 0.32908 0.14818
 N112 N 0.82498 0.30579 0.15579
 C113 C 0.84524 0.30809 0.18132
 N114 N 0.84620 0.33443 0.19917
 C115 C 0.84663 0.88096 0.66987
 N116 N 0.87136 0.86150 0.67489
 C117 C 0.87741 0.83798 0.65333
 N118 N 0.85850 0.83401 0.62658
 C119 C 0.83371 0.85344 0.62155
 N120 N 0.82801 0.87672 0.64327
 C121 C 0.68180 0.64359 0.62405
 N122 N 0.68656 0.66629 0.60138
 C123 C 0.66595 0.69037 0.60125
 N124 N 0.64075 0.69168 0.62399
 C125 C 0.63605 0.66913 0.64683
 N126 N 0.65663 0.64525 0.64668
 C127 C 0.63208 0.13400 0.17379
 N128 N 0.65361 0.13979 0.14819
 C129 C 0.65364 0.16702 0.13229
 N130 N 0.63194 0.18863 0.14211
 C131 C 0.61061 0.18320 0.16799
 N132 N 0.61085 0.15590 0.18395
 C133 C 0.17525 0.60762 0.16494
 N134 N 0.15690 0.62421 0.18674
 C135 C 0.15087 0.65403 0.18044
 N136 N 0.16460 0.66774 0.15264
 C137 C 0.18399 0.65100 0.13132
 N138 N 0.18861 0.62111 0.13759
 C139 C 0.14876 0.11993 0.69829
 N140 N 0.13088 0.13427 0.72254
 C141 C 0.11779 0.16177 0.71680
 N142 N 0.12172 0.17453 0.68622
 C143 C 0.13958 0.16054 0.66169
 N144 N 0.15338 0.13305 0.66765
 C145 C 0.34346 0.62180 0.31315
 N146 N 0.32536 0.62558 0.34186
 C147 C 0.33031 0.64998 0.36189
 N148 N 0.35343 0.67068 0.35305
 C149 C 0.37162 0.66706 0.32446
 N150 N 0.36656 0.64260 0.30451
 C151 C 0.32624 0.13572 0.85335
 N152 N 0.31946 0.15707 0.87709
 C153 C 0.33947 0.18135 0.88058
 N154 N 0.36628 0.18409 0.86035
 C155 C 0.37334 0.16260 0.83684
 N156 N 0.35316 0.13861 0.83327
 C157 C 0.84076 0.61045 0.79438
 N158 N 0.86850 0.62447 0.78457
 C159 C 0.87923 0.64941 0.80064
 N160 N 0.86223 0.66015 0.82793
 C161 C 0.83449 0.64560 0.83851
 N162 N 0.82376 0.62094 0.82145
 C163 C 0.82148 0.11933 0.30921
 N164 N 0.85170 0.11463 0.29629
 C165 C 0.87752 0.12426 0.31290
 N166 N 0.87308 0.14022 0.34161
 C167 C 0.84296 0.14586 0.35439
 N168 N 0.81692 0.13525 0.33819
 C169 C 0.68414 0.37626 0.35317
 N170 N 0.65587 0.37459 0.33700
 C171 C 0.63707 0.34918 0.34015
 N172 N 0.64684 0.32560 0.35888
 C173 C 0.67485 0.32692 0.37479
 N174 N 0.69347 0.35236 0.37209
 C175 C 0.68471 0.85730 0.83428
 N176 N 0.69273 0.83741 0.85846
 C177 C 0.67658 0.81069 0.86248
 N178 N 0.65215 0.80387 0.84223
 C179 C 0.64412 0.82342 0.81771
 N180 N 0.66051 0.85016 0.81371
 C181 C 0.15562 0.37557 0.86755
 N182 N 0.12832 0.37071 0.85075
 C183 C 0.10935 0.34601 0.85778
 N184 N 0.11824 0.32576 0.88136
 C185 C 0.14563 0.33049 0.89822
 N186 N 0.16406 0.35547 0.89132
 C187 C 0.18845 0.86688 0.34104
 N188 N 0.16394 0.86369 0.31972
 C189 C 0.14355 0.83949 0.32261
 N190 N 0.14784 0.81842 0.34674
 C191 C 0.17243 0.82114 0.36777
 N192 N 0.19276 0.84541 0.36487
 O193 O 0.22791 0.97070 0.27835
 O194 O 0.25446 1.03402 0.22474
 O195 O 0.26882 0.97633 0.22740
 O196 O 0.21981 1.03053 0.27998
 O197 O 0.26090 1.03557 0.31289
 O198 O 0.31013 0.98652 0.25868
 O199 O 0.29487 1.04355 0.25748
 O200 O 0.27030 0.97685 0.30927
 Cu201 Cu 0.23850 1.00202 0.24964
 Cu202 Cu 0.28803 1.01138 0.28781
 C203 C 0.24479 0.96238 0.30232
 C204 C 0.27885 1.04975 0.23191
 C205 C 0.29833 0.97290 0.23415
 C206 C 0.23249 1.04230 0.30545
 O207 O 0.23080 0.53267 0.79647
 O208 O 0.28764 0.47136 0.77122
 O209 O 0.27850 0.52809 0.75347
 O210 O 0.24079 0.47662 0.81612
 O211 O 0.20605 0.46061 0.77958
 O212 O 0.24413 0.51212 0.71652
 O213 O 0.25290 0.45541 0.73467
 O214 O 0.19655 0.51642 0.75953
 Cu215 Cu 0.26284 0.50368 0.78809
 Cu216 Cu 0.22158 0.48437 0.74387
 C217 C 0.20438 0.53534 0.78175
 C218 C 0.27964 0.45278 0.74864
 C219 C 0.26724 0.52939 0.72455
 C220 C 0.21721 0.45979 0.80863
 O221 O 0.67632 0.02667 0.24663
 O222 O 0.74459 -0.02333 0.26603
 O223 O 0.73211 0.03455 0.27204
 O224 O 0.68807 -0.03214 0.24130
 O225 O 0.71129 -0.02639 0.19117
 O226 O 0.75080 0.04326 0.22052
 O227 O 0.76641 -0.01381 0.21595
 O228 O 0.69668 0.03178 0.19517
 Cu229 Cu 0.70792 0.00047 0.26158
 Cu230 Cu 0.73330 0.00927 0.20053
 C231 C 0.67558 0.03840 0.21772
 C232 C 0.76736 -0.02660 0.24420
 C233 C 0.74830 0.05070 0.25113
 C234 C 0.69289 -0.04112 0.21141
 O235 O 0.79351 0.51706 0.70350
 O236 O 0.74220 0.47292 0.65112
 O237 O 0.75747 0.53072 0.65375
 O238 O 0.76858 0.46308 0.70897
 O239 O 0.72661 0.47873 0.73987
 O240 O 0.71426 0.54210 0.68508
 O241 O 0.69943 0.48375 0.68342
 O242 O 0.75198 0.53265 0.73507
 Cu243 Cu 0.76940 0.49459 0.67620
 Cu244 Cu 0.71893 0.51084 0.71361
 C245 C 0.78224 0.53223 0.72803
 C246 C 0.71250 0.46996 0.65834
 C247 C 0.73334 0.54789 0.66059
 C248 C 0.74925 0.46007 0.73438
 O249 O 0.24404 0.44781 0.22281
 O250 O 0.29991 0.51250 0.23674
 O251 O 0.29800 0.45557 0.25480
 O252 O 0.24858 0.50292 0.20301
 O253 O 0.22050 0.51891 0.24765
 O254 O 0.26781 0.46726 0.29959
 O255 O 0.27150 0.52448 0.28262
 O256 O 0.21483 0.46336 0.26682
 Cu257 Cu 0.27585 0.47813 0.22504
 Cu258 Cu 0.24086 0.49476 0.27884
 C259 C 0.21890 0.44586 0.24189
 C260 C 0.29500 0.52942 0.26224
 C261 C 0.29151 0.45321 0.28579
 C262 C 0.22614 0.51886 0.21623
 O263 O 0.71958 0.96141 0.76552
 O264 O 0.74882 1.02664 0.71493
 O265 O 0.76487 0.96872 0.71967
 O266 O 0.70097 1.01790 0.75746
 O267 O 0.73402 1.03039 0.79718
 O268 O 0.79798 0.98202 0.75896
 O269 O 0.78214 1.03992 0.75403
 O270 O 0.75311 0.97469 0.80448
 Cu271 Cu 0.73040 0.99243 0.73528
 Cu272 Cu 0.77014 1.00831 0.78245
 C273 C 0.73184 0.95681 0.79362
 C274 C 0.77002 1.04457 0.72598
 C275 C 0.79188 0.96636 0.73327
 C276 C 0.70669 1.03223 0.78408
 O277 O 0.76315 0.52544 0.21834
 O278 O 0.72827 0.47405 0.28165
 O279 O 0.73124 0.53305 0.27491
 O280 O 0.77312 0.46687 0.23431
 O281 O 0.81501 0.47570 0.26516
 O282 O 0.77299 0.53830 0.30684
 O283 O 0.77141 0.47949 0.31172
 O284 O 0.80556 0.53396 0.24856
 Cu285 Cu 0.74562 0.49901 0.24916
 Cu286 Cu 0.79541 0.50811 0.28545
 C287 C 0.78969 0.53892 0.22250
 C288 C 0.74405 0.46715 0.30693
 C289 C 0.74541 0.54670 0.29837
 C290 C 0.80106 0.45966 0.24384
 O291 O 0.27391 -0.02629 0.79960
 O292 O 0.20915 0.01861 0.76436
 O293 O 0.23139 -0.03532 0.75477
 O294 O 0.24962 0.02763 0.81204
 O295 O 0.28455 0.04626 0.77431
 O296 O 0.26594 -0.01580 0.71717
 O297 O 0.24371 0.03881 0.72723
 O298 O 0.30837 -0.00688 0.76186
 Cu299 Cu 0.23754 -0.00563 0.78670
 Cu300 Cu 0.27910 0.01761 0.74134
 C301 C 0.30217 -0.02437 0.78644
 C302 C 0.21528 0.03599 0.73962
 C303 C 0.24546 -0.03603 0.72611
 C304 C 0.27051 0.04742 0.80296
 O305 O 0.23093 0.29248 0.99009
 O306 O 0.29224 0.26842 1.04882
 O307 O 0.28894 0.26892 0.98402
 O308 O 0.23565 0.29272 1.05512
 O309 O 0.21498 0.24624 1.05682
 O310 O 0.26672 0.22310 0.98562
 O311 O 0.27088 0.22221 1.05023
 O312 O 0.20912 0.24652 0.99261
 Cu313 Cu 0.26410 0.28533 1.01906
 Cu314 Cu 0.23826 0.22989 1.02126
 C315 C 0.20940 0.27363 0.98163
 C316 C 0.29155 0.24132 1.05994
 C317 C 0.28694 0.24190 0.97292
 C318 C 0.21672 0.27305 1.06846
 O319 O 0.21397 0.74746 0.53837
 O320 O 0.24866 0.69017 0.47978
 O321 O 0.25915 0.70579 0.54183
 O322 O 0.20730 0.73452 0.47578
 O323 O 0.24600 0.76633 0.45891
 O324 O 0.29641 0.73916 0.52550
 O325 O 0.28679 0.72270 0.46346
 O326 O 0.25089 0.78030 0.51969
 Cu327 Cu 0.22864 0.71601 0.51071
 Cu328 Cu 0.27425 0.75513 0.49070
 C329 C 0.22584 0.77413 0.53767
 C330 C 0.27315 0.69687 0.46125
 C331 C 0.28668 0.71801 0.54493
 C332 C 0.21783 0.75559 0.45641
 O333 O 0.29793 0.76937 -0.03375
 O334 O 0.26759 0.71577 0.03029
 O335 O 0.26927 0.71680 -0.03395
 O336 O 0.29450 0.76948 0.03222
 O337 O 0.24640 0.79081 0.03248
 O338 O 0.22111 0.73816 -0.03265
 O339 O 0.21947 0.73717 0.03238
 O340 O 0.24972 0.79051 -0.03319
 Cu341 Cu 0.28726 0.74087 -0.00119
 Cu342 Cu 0.22948 0.76659 -0.00010
 C343 C 0.27851 0.78861 -0.04512
 C344 C 0.23872 0.71681 0.04188
 C345 C 0.24085 0.71854 -0.04444
 C346 C 0.27437 0.78889 0.04388
 O347 O 0.16324 0.25632 0.48958
 O348 O 0.20059 0.29093 0.56125
 O349 O 0.20534 0.29897 0.49747
 O350 O 0.16077 0.24615 0.55290
 O351 O 0.20147 0.21383 0.55050
 O352 O 0.24524 0.26596 0.49178
 O353 O 0.24188 0.25940 0.55648
 O354 O 0.20231 0.22234 0.48518
 Cu355 Cu 0.17853 0.27630 0.52582
 Cu356 Cu 0.22673 0.23692 0.52046
 C357 C 0.17607 0.23345 0.47518
 C358 C 0.22756 0.28169 0.57090
 C359 C 0.23281 0.29154 0.48510
 C360 C 0.17347 0.22124 0.56147
 O361 O 0.76335 0.76523 0.94903
 O362 O 0.82322 0.73473 1.00621
 O363 O 0.80766 0.72340 0.94414
 O364 O 0.78280 0.78045 1.00772
 O365 O 0.74581 0.74832 1.02770
 O366 O 0.77120 0.69130 0.96522
 O367 O 0.78648 0.70276 1.02695
 O368 O 0.72746 0.73226 0.96962
 Cu369 Cu 0.79812 0.75406 0.97476
 Cu370 Cu 0.75440 0.71533 0.99972
 C371 C 0.73519 0.75361 0.94959
 C372 C 0.81477 0.71369 1.02658
 C373 C 0.79300 0.69801 0.94332
 C374 C 0.75949 0.77427 1.02799
 O375 O 0.75480 0.27231 0.45973
 O376 O 0.80714 0.24392 0.52345
 O377 O 0.80537 0.23713 0.45917
 O378 O 0.75129 0.27204 0.52428
 O379 O 0.72445 0.22851 0.52763
 O380 O 0.77607 0.19502 0.46181
 O381 O 0.77955 0.20082 0.52681
 O382 O 0.72563 0.23013 0.46316
 Cu383 Cu 0.78258 0.26050 0.49140
 Cu384 Cu 0.74875 0.20931 0.49512
 C385 C 0.73107 0.25648 0.45093
 C386 C 0.80254 0.21777 0.53599
 C387 C 0.79949 0.21016 0.44926
 C388 C 0.72829 0.25586 0.53673
 O389 O 0.70738 0.23848 -0.03379
 O390 O 0.72679 0.29145 0.03413
 O391 O 0.73185 0.29346 -0.03024
 O392 O 0.70162 0.23778 0.03103
 O393 O 0.75004 0.21711 0.03227
 O394 O 0.78035 0.27287 -0.03102
 O395 O 0.77536 0.27106 0.03485
 O396 O 0.75575 0.21786 -0.03171
 Cu397 Cu 0.71203 0.26734 -0.00016
 Cu398 Cu 0.77046 0.24294 0.00110
 C399 C 0.72800 0.21874 -0.04365
 C400 C 0.75445 0.28974 0.04637
 C401 C 0.76094 0.29293 -0.04099
 C402 C 0.72061 0.21807 0.04228
 O403 O 0.79220 0.79346 0.44442
 O404 O 0.73960 0.75170 0.50592
 O405 O 0.74428 0.75365 0.44066
 O406 O 0.78474 0.79318 0.51035
 O407 O 0.74751 0.82893 0.50908
 O408 O 0.70983 0.79176 0.43906
 O409 O 0.70330 0.78822 0.50359
 O410 O 0.75685 0.83097 0.44562
 Cu411 Cu 0.76891 0.76928 0.47526
 Cu412 Cu 0.72580 0.81353 0.47393
 C413 C 0.78363 0.81985 0.43539
 C414 C 0.71251 0.76293 0.51512
 C415 C 0.71986 0.76620 0.42831
 C416 C 0.77238 0.81784 0.52170
 O417 O 0.95370 0.22563 0.19702
 O418 O 1.03109 0.19685 0.22349
 O419 O 0.97322 0.17612 0.22574
 O420 O 1.01198 0.24837 0.19877
 O421 O 1.00095 0.26827 0.24858
 O422 O 0.96426 0.19675 0.27562
 O423 O 1.02231 0.21728 0.27342
 O424 O 0.94353 0.24646 0.24650
 Cu425 Cu 0.99338 0.20998 0.20605
 Cu426 Cu 0.98170 0.23419 0.26603
 C427 C 0.93554 0.24098 0.21678
 C428 C 1.03957 0.20132 0.25310
 C429 C 0.96302 0.17423 0.25594
 C430 C 1.01284 0.27056 0.21919
 O431 O 0.51819 0.29287 0.74452
 O432 O 0.46766 0.23368 0.78384
 O433 O 0.52862 0.24854 0.78507
 O434 O 0.45923 0.27502 0.73893
 O435 O 0.47301 0.24318 0.69813
 O436 O 0.54138 0.21500 0.74563
 O437 O 0.48021 0.20142 0.74303
 O438 O 0.53300 0.26049 0.70458
 Cu439 Cu 0.49212 0.26557 0.76728
 Cu440 Cu 0.50831 0.22684 0.71868
 C441 C 0.53438 0.28675 0.71797
 C442 C 0.46471 0.20787 0.77005
 C443 C 0.54680 0.22747 0.77340
 C444 C 0.45433 0.26347 0.71051
 O445 O 0.00350 0.27704 0.81798
 O446 O -0.04602 0.21751 0.77735
 O447 O 0.01282 0.22256 0.79550
 O448 O -0.05813 0.27296 0.80122
 O449 O -0.04540 0.29061 0.75085
 O450 O 0.02743 0.24423 0.74746
 O451 O -0.02966 0.23652 0.72855
 O452 O 0.01368 0.29822 0.76874
 Cu453 Cu -0.02381 0.24596 0.80322
 Cu454 Cu -0.00745 0.26963 0.74406
 C455 C 0.01740 0.29742 0.79993
 C456 C -0.04448 0.21619 0.74562
 C457 C 0.03212 0.22494 0.77028
 C458 C -0.06404 0.28997 0.77663
 O459 O 0.53597 0.27867 0.30929
 O460 O 0.47540 0.22212 0.28532
 O461 O 0.53362 0.23504 0.26505
 O462 O 0.47818 0.26214 0.33247
 O463 O 0.45860 0.29560 0.29758
 O464 O 0.51488 0.26929 0.23051
 O465 O 0.45647 0.25551 0.24990
 O466 O 0.51610 0.31245 0.27497
 Cu467 Cu 0.50797 0.24633 0.30169
 Cu468 Cu 0.48451 0.28672 0.25993
 C469 C 0.53664 0.30498 0.29598
 C470 C 0.45579 0.22926 0.26314
 C471 C 0.53348 0.24720 0.23636
 C472 C 0.45831 0.28300 0.32614
 O473 O 0.98806 0.75985 0.69331
 O474 O 1.04708 0.72878 0.75105
 O475 O 0.98974 0.71418 0.73495
 O476 O 1.04767 0.77318 0.70834
 O477 O 1.02865 0.80293 0.74894
 O478 O 0.96864 0.74372 0.77468
 O479 O 1.02671 0.75850 0.79106
 O480 O 0.96878 0.79024 0.73315
 Cu481 Cu 1.01990 0.74115 0.71769
 Cu482 Cu 0.99602 0.77704 0.76572
 C483 C 0.96827 0.78022 0.70347
 C484 C 1.04679 0.73841 0.78099
 C485 C 0.96991 0.71832 0.75938
 C486 C 1.04885 0.79774 0.72491
 O487 O 0.47858 0.74737 0.27305
 O488 O 0.54417 0.77143 0.21516
 O489 O 0.48545 0.78636 0.22344
 O490 O 0.53924 0.73227 0.26236
 O491 O 0.52554 0.69671 0.22649
 O492 O 0.46940 0.75110 0.18832
 O493 O 0.52993 0.73635 0.17888
 O494 O 0.46476 0.71141 0.23774
 Cu495 Cu 0.51283 0.76277 0.24748
 Cu496 Cu 0.49563 0.72022 0.20442
 C497 C 0.46069 0.72516 0.26545
 C498 C 0.54820 0.75811 0.18723
 C499 C 0.46914 0.77846 0.19876
 C500 C 0.54252 0.70564 0.25035
 O501 O 0.04147 0.77440 0.28293
 O502 O -0.01377 0.71411 0.25778
 O503 O 0.04852 0.71915 0.26147
 O504 O -0.02113 0.77098 0.27605
 O505 O -0.01423 0.78575 0.22363
 O506 O 0.05405 0.73462 0.20913
 O507 O -0.00849 0.72934 0.20536
 O508 O 0.04767 0.79005 0.23071
 Cu509 Cu 0.01317 0.74314 0.27483
 Cu510 Cu 0.02019 0.76152 0.21199
 C511 C 0.05446 0.79206 0.26128
 C512 C -0.02068 0.71145 0.22741
 C513 C 0.06316 0.71829 0.23297
 C514 C -0.02943 0.78723 0.25163
 O515 O 0.54278 0.75071 0.78534
 O516 O 0.47437 0.69976 0.76810
 O517 O 0.53677 0.69963 0.75329
 O518 O 0.48122 0.75228 0.79959
 O519 O 0.47768 0.77860 0.75293
 O520 O 0.53202 0.72657 0.70725
 O521 O 0.46744 0.72474 0.72128
 O522 O 0.53583 0.77561 0.73826
 Cu523 Cu 0.50917 0.72275 0.78116
 Cu524 Cu 0.50097 0.75269 0.72501
 C525 C 0.55082 0.77187 0.76496
 C526 C 0.45930 0.70362 0.74155
 C527 C 0.54476 0.70489 0.72286
 C528 C 0.47161 0.77552 0.78402
 N529 N 0.42548 0.27659 0.37953
 N530 N 0.39970 0.28951 0.39399
 C531 C 0.39151 0.31364 0.37547
 C532 C 0.41284 0.31620 0.34827
 C533 C 0.43383 0.29227 0.35156
 H534 H 0.41217 0.33233 0.32790
 H535 H 0.43627 0.25675 0.38803
 H536 H 0.38766 0.28146 0.41560
 N537 N 0.46737 0.82996 0.79558
 N538 N 0.44564 0.84998 0.81087
 C539 C 0.42199 0.83345 0.82630
 C540 C 0.42868 0.80240 0.82211
 C541 C 0.45694 0.80149 0.80191
 H542 H 0.41323 0.78338 0.82915
 H543 H 0.48690 0.83641 0.77989
 H544 H 0.44683 0.87364 0.80825
 N545 N -0.10044 0.32753 0.75191
 N546 N -0.12723 0.34216 0.76032
 C547 C -0.13705 0.33363 0.79136
 C548 C -0.11556 0.31256 0.80333
 C549 C -0.09268 0.30942 0.77741
 H550 H -0.11635 0.30132 0.82736
 H551 H -0.08775 0.33007 0.72906
 H552 H -0.13843 0.35777 0.74497
 N553 N -0.06448 0.82605 0.22852
 N554 N -0.09019 0.84426 0.23887
 C555 C -0.09800 0.83752 0.27100
 C556 C -0.07750 0.81470 0.28189
 C557 C -0.05672 0.80847 0.25439
 H558 H -0.07713 0.80465 0.30650
 H559 H -0.05321 0.82676 0.20477
 H560 H -0.10081 0.86046 0.22375
 N561 N 0.57392 0.65707 0.25324
 N562 N 0.59946 0.64717 0.26870
 C563 C 0.60950 0.66930 0.28925
 C564 C 0.58937 0.69420 0.28695
 C565 C 0.56721 0.68561 0.26381
 H566 H 0.59131 0.71598 0.29943
 H567 H 0.56186 0.64471 0.23526
 H568 H 0.61011 0.62588 0.26467
 N569 N 0.58787 0.23763 0.81460
 N570 N 0.61313 0.22243 0.82892
 C571 C 0.61502 0.19420 0.81556
 C572 C 0.59147 0.19102 0.79184
 C573 C 0.57491 0.21874 0.79238
 H574 H 0.58617 0.17096 0.77728
 H575 H 0.58050 0.25976 0.82067
 H576 H 0.62694 0.23155 0.84776
 N577 N 1.07596 0.73961 0.83403
 N578 N 1.09915 0.72437 0.84817
 C579 C 1.10840 0.70118 0.82797
 C580 C 1.09041 0.70177 0.79954
 C581 C 1.07019 0.72663 0.80437
 H582 H 1.09219 0.68667 0.77818
 H583 H 1.06471 0.75887 0.84437
 H584 H 1.10847 0.72991 0.87124
 N585 N 1.08414 0.16412 0.24610
 N586 N 1.10785 0.15187 0.26569
 C587 C 1.10676 0.16693 0.29500
 C588 C 1.08261 0.18888 0.29485
 C589 C 1.06889 0.18616 0.26397
 H590 H 1.07506 0.20394 0.31508
 H591 H 1.07838 0.15605 0.22255
 H592 H 1.12315 0.13398 0.25849
 N593 N 0.55643 0.33954 0.71339
 N594 N 0.57901 0.35408 0.69545
 C595 C 0.59264 0.33427 0.67349
 C596 C 0.57805 0.30605 0.67736
 C597 C 0.55533 0.31035 0.70294
 H598 H 0.58379 0.28513 0.66409
 H599 H 0.54239 0.34942 0.73268
 H600 H 0.58525 0.37693 0.69871
 N601 N 0.58640 0.75216 0.13820
 N602 N 0.61320 0.76801 0.12507
 C603 C 0.61672 0.79329 0.14377
 C604 C 0.59282 0.79421 0.16879
 C605 C 0.57465 0.76810 0.16465
 H606 H 0.58964 0.81120 0.18826
 H607 H 0.57823 0.73115 0.12961
 H608 H 0.62779 0.76086 0.10474
 N609 N 1.02539 0.32510 0.22717
 N610 N 1.05087 0.34430 0.21758
 C611 C 1.06936 0.32917 0.19474
 C612 C 1.05562 0.30106 0.18812
 C613 C 1.02893 0.29903 0.20966
 H614 H 1.06631 0.28269 0.17344
 H615 H 1.00914 0.32915 0.24723
 H616 H 1.05620 0.36489 0.22928
 N617 N 1.08194 0.84352 0.73681
 N618 N 1.11024 0.85687 0.72378
 C619 C 1.11971 0.84112 0.69620
 C620 C 1.09791 0.81760 0.69105
 C621 C 1.07482 0.81980 0.71708
 H622 H 1.09922 0.80049 0.67158
 H623 H 1.06976 0.85014 0.75892
 H624 H 1.12170 0.87566 0.73416
 N625 N 0.42283 0.65909 0.75283
 N626 N 0.39832 0.64555 0.73872
 C627 C 0.39161 0.66086 0.71075
 C628 C 0.41281 0.68521 0.70687
 C629 C 0.43224 0.68324 0.73409
 H630 H 0.41402 0.70190 0.68701
 H631 H 0.43296 0.65174 0.77484
 H632 H 0.38648 0.62619 0.74819
 N633 N 0.42603 0.18006 0.26810
 N634 N 0.40185 0.16525 0.25107
 C635 C 0.39397 0.18328 0.22547
 C636 C 0.41242 0.20968 0.22564
 C637 C 0.43202 0.20680 0.25263
 H638 H 0.41170 0.22862 0.20840
 H639 H 0.43698 0.17164 0.28919
 H640 H 0.39214 0.14395 0.25742
 N641 N -0.05424 0.66525 0.23876
 N642 N -0.07681 0.64955 0.22393
 C643 C -0.08108 0.66178 0.19364
 C644 C -0.06005 0.68613 0.18880
 C645 C -0.04363 0.68765 0.21813
 H646 H -0.05825 0.70157 0.16777
 H647 H -0.04688 0.66108 0.26294
 H648 H -0.08969 0.63143 0.23490
 N649 N -0.04233 0.17920 0.69981
 N650 N -0.06429 0.16230 0.68214
 C651 C -0.09279 0.16255 0.69939
 C652 C -0.08959 0.17971 0.72853
 C653 C -0.05779 0.19025 0.72730
 H654 H -0.10899 0.18802 0.74490
 H655 H -0.01933 0.18539 0.69062
 H656 H -0.06013 0.15466 0.65765
 N657 N 0.34297 0.42739 0.29544
 N658 N 0.35439 0.40732 0.31628
 C659 C 0.33129 0.40079 0.33975
 C660 C 0.30403 0.41788 0.33400
 C661 C 0.31249 0.43416 0.30538
 H662 H 0.28073 0.41681 0.34706
 H663 H 0.35561 0.43556 0.27423
 H664 H 0.37716 0.39737 0.31348
 N665 N 0.35878 -0.04211 0.78748
 N666 N 0.37496 -0.06643 0.80145
 C667 C 0.35351 -0.08178 0.82125
 C668 C 0.32377 -0.06748 0.82105
 C669 C 0.32796 -0.04324 0.79916
 H670 H 0.30132 -0.07528 0.83284
 H671 H 0.36867 -0.02731 0.76943
 H672 H 0.39881 -0.07242 0.79537
 N673 N 0.73086 0.43242 0.78493
 N674 N 0.74236 0.41024 0.80599
 C675 C 0.77048 0.40008 0.79241
 C676 C 0.77751 0.41522 0.76237
 C677 C 0.75223 0.43558 0.75898
 H678 H 0.79892 0.41300 0.74626
 H679 H 0.71001 0.44517 0.78985
 H680 H 0.73102 0.40364 0.82857
 N681 N 0.82025 -0.04957 0.22894
 N682 N 0.83949 -0.07055 0.24050
 C683 C 0.82700 -0.08063 0.26999
 C684 C 0.79857 -0.06524 0.27777
 C685 C 0.79510 -0.04593 0.25080
 H686 H 0.78199 -0.06880 0.29893
 H687 H 0.82394 -0.03863 0.20598
 H688 H 0.86042 -0.07825 0.22790
 N689 N 0.26823 0.55715 0.67030
 N690 N 0.28273 0.58131 0.65690
 C691 C 0.30423 0.59212 0.67832
 C692 C 0.30350 0.57392 0.70657
 C693 C 0.28019 0.55209 0.70053
 H694 H 0.31690 0.57698 0.72896
 H695 H 0.24980 0.54497 0.65925
 H696 H 0.27746 0.59049 0.63373
 N697 N 0.27283 1.08268 0.18229
 N698 N 0.28721 1.10893 0.16896
 C699 C 0.31096 1.11716 0.18911
 C700 C 0.31245 1.09654 0.21532
 C701 C 0.28814 1.07550 0.21020
 H702 H 0.32857 1.09717 0.23589
 H703 H 0.25328 1.07129 0.17232
 H704 H 0.27997 1.12011 0.14755
 N705 N 0.78595 0.56600 0.16844
 N706 N 0.80222 0.58929 0.15113
 C707 C 0.82724 0.59799 0.16933
 C708 C 0.82765 0.58045 0.19833
 C709 C 0.80134 0.56085 0.19684
 H710 H 0.84434 0.58228 0.21832
 H711 H 0.76506 0.55525 0.16065
 H712 H 0.79535 0.59834 0.12842
 N713 N 0.76418 1.08009 0.67891
 N714 N 0.78021 1.10542 0.66556
 C715 C 0.80553 1.11149 0.68460
 C716 C 0.80595 1.09062 0.71072
 C717 C 0.77984 1.07124 0.70592
 H718 H 0.82359 1.08892 0.72980
 H719 H 0.74388 1.06992 0.66900
 H720 H 0.77389 1.11654 0.64376
 N721 N 0.74396 0.58601 0.34273
 N722 N 0.72789 0.61102 0.35065
 C723 C 0.70412 0.61458 0.32915
 C724 C 0.70487 0.59047 0.30654
 C725 C 0.73082 0.57301 0.31597
 H726 H 0.69005 0.58717 0.28523
 H727 H 0.76422 0.57854 0.35496
 H728 H 0.73376 0.62575 0.37000
 N729 N 0.67167 1.04375 0.83309
 N730 N 0.65670 1.06961 0.84634
 C731 C 0.65673 1.09123 0.82247
 C732 C 0.67175 1.07950 0.79345
 C733 C 0.68120 1.04997 0.80144
 H734 H 0.68018 1.09246 0.77185
 H735 H 0.67845 1.02493 0.84708
 H736 H 0.65111 1.07278 0.87174
 N737 N 0.15602 0.56748 0.77340
 N738 N 0.14440 0.59550 0.78505
 C739 C 0.16471 0.60568 0.80800
 C740 C 0.18929 0.58467 0.81164
 C741 C 0.18310 0.56130 0.78952
 H742 H 0.20970 0.58662 0.82750
 H743 H 0.14593 0.55460 0.75452
 H744 H 0.12390 0.60639 0.77667
 N745 N 0.22477 1.07246 0.35728
 N746 N 0.20671 1.09750 0.36815
 C747 C 0.18665 1.10472 0.34381
 C748 C 0.19091 1.08427 0.31734
 C749 C 0.21520 1.06471 0.32669
 H750 H 0.17940 1.08478 0.29359
 H751 H 0.24355 1.06284 0.37021
 H752 H 0.20964 1.10896 0.39069
 N753 N 0.70421 0.44162 0.60624
 N754 N 0.69020 0.41590 0.59774
 C755 C 0.67107 0.40640 0.62353
 C756 C 0.67241 0.42733 0.64945
 C757 C 0.69428 0.44905 0.63762
 H758 H 0.66279 0.42468 0.67477
 H759 H 0.72224 0.45253 0.59173
 H760 H 0.69540 0.40412 0.57552
 N761 N 0.65251 -0.08278 0.21739
 N762 N 0.64559 -0.10857 0.20225
 C763 C 0.66614 -0.11221 0.17567
 C764 C 0.68689 -0.08741 0.17351
 C765 C 0.67736 -0.06932 0.20056
 H766 H 0.70664 -0.08355 0.15557
 H767 H 0.64058 -0.07481 0.23909
 H768 H 0.62747 -0.12364 0.21051
 N769 N 0.16339 0.42734 0.25050
 N770 N 0.14271 0.40692 0.23577
 C771 C 0.15963 0.39203 0.21146
 C772 C 0.19132 0.40276 0.20984
 C773 C 0.19247 0.42491 0.23474
 H774 H 0.21070 0.39576 0.19269
 H775 H 0.15657 0.44259 0.26951
 H776 H 0.11853 0.40381 0.24327
 N777 N 0.25473 -0.06488 0.67361
 N778 N 0.24000 -0.08877 0.65712
 C779 C 0.21438 -0.09798 0.67630
 C780 C 0.21232 -0.08068 0.70533
 C781 C 0.23793 -0.06026 0.70253
 H782 H 0.19426 -0.08227 0.72548
 H783 H 0.27493 -0.05281 0.66450
 H784 H 0.24766 -0.09722 0.63377
 N785 N 0.23781 0.34036 0.45424
 N786 N 0.25865 0.35414 0.43361
 C787 C 0.28463 0.33614 0.42874
 C788 C 0.28016 0.30958 0.44713
 C789 C 0.25001 0.31322 0.46285
 H790 H 0.29616 0.29023 0.44838
 H791 H 0.21549 0.34938 0.46197
 H792 H 0.25487 0.37544 0.42288
 N793 N 0.26974 0.82964 -0.08616
 N794 N 0.28620 0.84424 -0.11001
 C795 C 0.31632 0.83285 -0.11268
 C796 C 0.31918 0.80978 -0.08931
 C797 C 0.28900 0.80873 -0.07284
 H798 H 0.34038 0.79658 -0.08414
 H799 H 0.24581 0.83434 -0.07893
 H800 H 0.27697 0.86218 -0.12377
 N801 N 0.75758 0.34438 -0.06464
 N802 N 0.76740 0.35906 -0.09179
 C803 C 0.78770 0.34109 -0.10991
 C804 C 0.79151 0.31369 -0.09312
 C805 C 0.77145 0.31674 -0.06466
 H806 H 0.80412 0.29351 -0.10194
 H807 H 0.74048 0.35274 -0.04715
 H808 H 0.75906 0.38056 -0.09844
 N809 N 0.80532 0.86949 0.41662
 N810 N 0.82187 0.88093 0.39086
 C811 C 0.83242 0.85800 0.37097
 C812 C 0.82245 0.83039 0.38509
 C813 C 0.80486 0.83895 0.41389
 H814 H 0.82418 0.80793 0.37402
 H815 H 0.79314 0.88257 0.43486
 H816 H 0.82413 0.90424 0.38598
 N817 N 0.68189 0.25133 0.57700
 N818 N 0.66344 0.26917 0.59601
 C819 C 0.67427 0.29802 0.59295
 C820 C 0.70107 0.29863 0.57108
 C821 C 0.70497 0.26840 0.56152
 H822 H 0.71520 0.31818 0.56286
 H823 H 0.67839 0.22787 0.57448
 H824 H 0.64365 0.26156 0.61064
 N825 N 0.76023 0.82517 1.05666
 N826 N 0.74176 0.84000 1.07892
 C827 C 0.71672 0.82189 1.08819
 C828 C 0.71949 0.79444 1.07145
 C829 C 0.74727 0.79738 1.05175
 H830 H 0.70323 0.77511 1.07302
 H831 H 0.78113 0.83406 1.04496
 H832 H 0.74615 0.86214 1.08725
 N833 N 0.17701 0.25996 1.11345
 N834 N 0.15992 0.27385 1.13721
 C835 C 0.16822 0.30353 1.13749
 C836 C 0.19188 0.30895 1.11281
 C837 C 0.19635 0.28058 1.09790
 H838 H 0.20250 0.33055 1.10529
 H839 H 0.17465 0.23691 1.10746
 H840 H 0.14213 0.26322 1.15230
 N841 N 0.21250 0.82825 0.54611
 N842 N 0.19907 0.84586 0.56930
 C843 C 0.18760 0.82838 0.59470
 C844 C 0.19370 0.79795 0.58716
 C845 C 0.21003 0.79912 0.55620
 H846 H 0.19025 0.77839 0.60333
 H847 H 0.22434 0.83628 0.52436
 H848 H 0.19964 0.86966 0.56862
 N849 N 0.33563 0.72204 0.57839
 N850 N 0.34848 0.70795 0.60368
 C851 C 0.32923 0.68449 0.61313
 C852 C 0.30280 0.68363 0.59300
 C853 C 0.30783 0.70796 0.57133
 H854 H 0.28269 0.66785 0.59419
 H855 H 0.34570 0.74115 0.56644
 H856 H 0.37006 0.71444 0.61424
 N857 N 0.33792 0.25000 1.09658
 N858 N 0.35127 0.23601 1.12172
 C859 C 0.33615 0.20912 1.12696
 C860 C 0.31237 0.20570 1.10400
 C861 C 0.31418 0.23220 1.08532
 H862 H 0.29511 0.18727 1.10223
 H863 H 0.34446 0.27170 1.08800
 H864 H 0.36980 0.24518 1.13551
 N865 N 0.86735 0.71394 1.05465
 N866 N 0.88033 0.70013 1.08011
 C867 C 0.85931 0.67922 1.09266
 C868 C 0.83171 0.67971 1.07433
 C869 C 0.83774 0.70222 1.05059
 H870 H 0.80983 0.66657 1.07860
 H871 H 0.87833 0.73164 1.04097
 H872 H 0.90297 0.70543 1.08905
 N873 N 0.85245 0.22123 0.56781
 N874 N 0.86477 0.20820 0.59404
 C875 C 0.84448 0.18610 0.60510
 C876 C 0.81826 0.18468 0.58481
 C877 C 0.82423 0.20751 0.56160
 H878 H 0.79712 0.17026 0.58759
 H879 H 0.86295 0.23963 0.55490
 H880 H 0.88619 0.21506 0.60468
 N881 N 0.67709 0.76476 0.38688
 N882 N 0.66443 0.74525 0.36600
 C883 C 0.68085 0.71889 0.36698
 C884 C 0.70535 0.72182 0.38951
 C885 C 0.70194 0.75137 0.40167
 H886 H 0.72244 0.70472 0.39672
 H887 H 0.66839 0.78678 0.39123
 H888 H 0.64460 0.74995 0.35163
 N889 N 0.73602 0.16988 -0.07406
 N890 N 0.72148 0.15399 -0.09709
 C891 C 0.69582 0.16990 -0.10679
 C892 C 0.69369 0.19696 -0.08908
 C893 C 0.71965 0.19598 -0.06859
 H894 H 0.67588 0.21477 -0.09089
 H895 H 0.75658 0.16273 -0.06212
 H896 H 0.72931 0.13285 -0.10619
 N897 N 0.24761 0.67343 -0.08184
 N898 N 0.23145 0.65985 -0.10544
 C899 C 0.20400 0.67541 -0.10984
 C900 C 0.20249 0.69985 -0.08799
 C901 C 0.23063 0.69772 -0.07069
 H902 H 0.18375 0.71685 -0.08523
 H903 H 0.26983 0.66607 -0.07360
 H904 H 0.23933 0.64044 -0.11843
 N905 N 0.13285 0.23238 0.43428
 N906 N 0.12492 0.21664 0.40777
 C907 C 0.14655 0.19420 0.40257
 C908 C 0.16941 0.19568 0.42694
 C909 C 0.15982 0.22041 0.44647
 H910 H 0.19041 0.18145 0.42948
 H911 H 0.12017 0.25133 0.44347
 H912 H 0.10518 0.22154 0.39334
 N913 N 0.33009 0.42164 0.75118
 N914 N 0.34173 0.39638 0.73722
 C915 C 0.32023 0.38571 0.71572
 C916 C 0.29394 0.40499 0.71592
 C917 C 0.30106 0.42743 0.73868
 H918 H 0.27238 0.40277 0.70177
 H919 H 0.34176 0.43443 0.76909
 H920 H 0.36385 0.38663 0.74258
 N921 N 0.35225 0.95409 0.21649
 N922 N 0.36511 0.93129 0.19928
 C923 C 0.34138 0.91520 0.18553
 C924 C 0.31186 0.92863 0.19401
 C925 C 0.32000 0.95309 0.21410
 H926 H 0.28800 0.92045 0.18860
 H927 H 0.36541 0.96944 0.23055
 H928 H 0.38973 0.92637 0.19799
 N929 N 0.84488 0.42130 0.24401
 N930 N 0.85119 0.39416 0.23113
 C931 C 0.82768 0.38676 0.21040
 C932 C 0.80538 0.41027 0.20998
 C933 C 0.81718 0.43170 0.23181
 H934 H 0.78323 0.41115 0.19666
 H935 H 0.85897 0.43208 0.26157
 H936 H 0.87114 0.38096 0.23673
 N937 N 0.84384 0.93782 0.73453
 N938 N 0.85804 0.91493 0.71828
 C939 C 0.83951 0.90644 0.69304
 C940 C 0.81235 0.92482 0.69318
 C941 C 0.81596 0.94435 0.71998
 H942 H 0.79224 0.92342 0.67687
 H943 H 0.85278 0.94818 0.75574
 H944 H 0.87980 0.90512 0.72476
 N945 N 0.74417 0.58689 0.61523
 N946 N 0.73037 0.61249 0.60561
 C947 C 0.70369 0.61732 0.62523
 C948 C 0.70038 0.59398 0.64799
 C949 C 0.72638 0.57522 0.64103
 H950 H 0.68182 0.59131 0.66753
 H951 H 0.76549 0.57797 0.60459
 H952 H 0.73933 0.62645 0.58630
 N953 N 0.62886 0.07237 0.23224
 N954 N 0.61751 0.09824 0.22061
 C955 C 0.63341 0.10480 0.19152
 C956 C 0.65518 0.08189 0.18398
 C957 C 0.65192 0.06198 0.21055
 H958 H 0.67335 0.08149 0.16385
 H959 H 0.62234 0.06315 0.25555
 H960 H 0.60066 0.11199 0.23345
 N961 N 0.20697 0.53294 0.16095
 N962 N 0.19284 0.55639 0.14728
 C963 C 0.18344 0.57597 0.17160
 C964 C 0.19144 0.56434 0.20228
 C965 C 0.20694 0.53728 0.19419
 H966 H 0.19017 0.57576 0.22624
 H967 H 0.21814 0.51526 0.14745
 H968 H 0.19170 0.55981 0.12158
 N969 N 0.15755 0.04645 0.73250
 N970 N 0.13987 0.06836 0.72035
 C971 C 0.15947 0.08901 0.70512
 C972 C 0.19117 0.07981 0.70746
 C973 C 0.18877 0.05288 0.72548
 H974 H 0.21278 0.09265 0.70083
 H975 H 0.14836 0.02836 0.74690
 H976 H 0.11494 0.07017 0.72449
 N977 N 0.34137 0.56466 0.24904
 N978 N 0.35414 0.58919 0.26260
 C979 C 0.33741 0.59568 0.29125
 C980 C 0.31307 0.57448 0.29614
 C981 C 0.31633 0.55528 0.26885
 H982 H 0.29512 0.57345 0.31644
 H983 H 0.34951 0.55485 0.22651
 H984 H 0.37375 0.60131 0.25220
 N985 N 0.26372 0.07909 0.85474
 N986 N 0.27855 0.10261 0.86812
 C987 C 0.30394 0.11041 0.84788
 C988 C 0.30524 0.09135 0.82049
 C989 C 0.27935 0.07192 0.82570
 H990 H 0.32250 0.09170 0.79953
 H991 H 0.24320 0.06844 0.86521
 H992 H 0.27133 0.11301 0.89062
 N993 N 0.83765 0.54461 0.74295
 N994 N 0.85306 0.56511 0.76026
 C995 C 0.83131 0.58288 0.77656
 C996 C 0.80036 0.57313 0.76957
 C997 C 0.80568 0.54894 0.74762
 H998 H 0.77764 0.58359 0.77705
 H999 H 0.84905 0.52862 0.72722
 H1000 H 0.87813 0.56740 0.75998
 N1001 N 0.77341 0.10130 0.24136
 N1002 N 0.79173 0.12043 0.25758
 C1003 C 0.79452 0.11034 0.28904
 C1004 C 0.77708 0.08353 0.29310
 C1005 C 0.76438 0.07850 0.26210
 H1006 H 0.77724 0.06791 0.31395
 H1007 H 0.76883 0.10298 0.21600
 H1008 H 0.80425 0.13869 0.24645
 N1009 N 0.74706 0.43242 0.35591
 N1010 N 0.73145 0.40820 0.36776
 C1011 C 0.70535 0.40322 0.34950
 C1012 C 0.70418 0.42546 0.32507
 C1013 C 0.73128 0.44339 0.32982
 H1014 H 0.68739 0.42704 0.30518
 H1015 H 0.76888 0.44041 0.36471
 H1016 H 0.73923 0.39477 0.38735
 N1017 N 0.73554 0.92270 0.84266
 N1018 N 0.72350 0.89636 0.85309
 C1019 C 0.70219 0.88642 0.83101
 C1020 C 0.70049 0.90744 0.80533
 C1021 C 0.72220 0.93006 0.81369
 H1022 H 0.68629 0.90604 0.78332
 H1023 H 0.75307 0.93504 0.85495
 H1024 H 0.73009 0.88534 0.87485
 N1025 N 0.21635 0.43377 0.86372
 N1026 N 0.20035 0.41147 0.87910
 C1027 C 0.17678 0.40175 0.85950
 C1028 C 0.17781 0.41864 0.83022
 C1029 C 0.20348 0.43858 0.83386
 H1030 H 0.16306 0.41584 0.80877
 H1031 H 0.23635 0.44482 0.87321
 H1032 H 0.20595 0.40277 0.90240
 N1033 N 0.25039 0.92372 0.34750
 N1034 N 0.23560 0.89839 0.35754
 C1035 C 0.21037 0.89330 0.33809
 C1036 C 0.20895 0.91642 0.31478
 C1037 C 0.23477 0.93521 0.32156
 H1038 H 0.19193 0.91891 0.29521
 H1039 H 0.27100 0.93265 0.35804
 H1040 H 0.24295 0.88477 0.37715
 N1041 N 0.41593 0.25963 0.66434
 N1042 N 0.38901 0.27292 0.65562
 C1043 C 0.38182 0.29546 0.67749
 C1044 C 0.40516 0.29655 0.70123
 C1045 C 0.42627 0.27335 0.69205
 H1046 H 0.40615 0.31153 0.72264
 H1047 H 0.42658 0.24110 0.65185
 H1048 H 0.37574 0.26640 0.63518
 N1049 N 0.46249 0.83128 0.17996
 N1050 N 0.43995 0.84871 0.16801
 C1051 C 0.41403 0.83142 0.16171
 C1052 C 0.42059 0.80122 0.16960
 C1053 C 0.45158 0.80241 0.18162
 H1054 H 0.40405 0.78210 0.17033
 H1055 H 0.48446 0.83938 0.18831
 H1056 H 0.44167 0.87240 0.16612
 N1057 N 0.88970 0.23845 0.17950
 N1058 N 0.86619 0.25617 0.17002
 C1059 C 0.86631 0.28205 0.18815
 C1060 C 0.89079 0.28048 0.21079
 C1061 C 0.90515 0.25241 0.20415
 H1062 H 0.89852 0.29802 0.22773
 H1063 H 0.89565 0.21755 0.16843
 H1064 H 0.85111 0.25093 0.15056
 N1065 N 0.93894 0.78049 0.65022
 N1066 N 0.91485 0.79542 0.63719
 C1067 C 0.90429 0.81689 0.65903
 C1068 C 0.92249 0.81548 0.68730
 C1069 C 0.94417 0.79202 0.68071
 H1070 H 0.92002 0.82927 0.70966
 H1071 H 0.95125 0.76246 0.63849
 H1072 H 0.90583 0.79085 0.61374
 N1073 N 0.56662 0.35463 0.29136
 N1074 N 0.59344 0.36642 0.30283
 C1075 C 0.60642 0.34598 0.32337
 C1076 C 0.58703 0.32030 0.32518
 C1077 C 0.56218 0.32658 0.30452
 H1078 H 0.59104 0.29945 0.33879
 H1079 H 0.55208 0.36541 0.27431
 H1080 H 0.60285 0.38776 0.29618
 N1081 N 0.58570 0.81755 0.75443
 N1082 N 0.61007 0.83136 0.76849
 C1083 C 0.61790 0.81539 0.79564
 C1084 C 0.59759 0.79035 0.79908
 C1085 C 0.57752 0.79259 0.77245
 H1086 H 0.59736 0.77305 0.81830
 H1087 H 0.57480 0.82529 0.73301
 H1088 H 0.62108 0.85131 0.75949
 N1089 N 0.04605 0.34705 0.79971
 N1090 N 0.07057 0.35968 0.81458
 C1091 C 0.08006 0.34090 0.83882
 C1092 C 0.06016 0.31531 0.83983
 C1093 C 0.03906 0.32009 0.81433
 H1094 H 0.06254 0.29504 0.85486
 H1095 H 0.03523 0.35623 0.77891
 H1096 H 0.08141 0.38022 0.80718
 N1097 N 0.09186 0.83661 0.25311
 N1098 N 0.11539 0.84940 0.26961
 C1099 C 0.11772 0.83493 0.29905
 C1100 C 0.09447 0.81238 0.30160
 C1101 C 0.07871 0.81405 0.27197
 H1102 H 0.09087 0.79576 0.32134
 H1103 H 0.08568 0.84267 0.22901
 H1104 H 0.13038 0.86678 0.26018
 N1105 N 0.58186 0.66038 0.71816
 N1106 N 0.60582 0.65101 0.69807
 C1107 C 0.60977 0.67090 0.67262
 C1108 C 0.58700 0.69381 0.67651
 C1109 C 0.56987 0.68631 0.70581
 H1110 H 0.58427 0.71381 0.66112
 H1111 H 0.57437 0.64947 0.74029
 H1112 H 0.61975 0.63172 0.70232
 N1113 N 0.56159 0.24959 0.18032
 N1114 N 0.58202 0.23269 0.16227
 C1115 C 0.58840 0.20727 0.17958
 C1116 C 0.57157 0.20808 0.21004
 C1117 C 0.55498 0.23534 0.20953
 H1118 H 0.57161 0.19136 0.22986
 H1119 H 0.55267 0.27061 0.17279
 H1120 H 0.59133 0.23855 0.13855
 N1121 N 0.10102 0.67810 0.25021
 N1122 N 0.12435 0.66148 0.23633
 C1123 C 0.12977 0.67061 0.20450
 C1124 C 0.10894 0.69419 0.19775
 C1125 C 0.09086 0.69795 0.22741
 H1126 H 0.10588 0.70553 0.17414
 H1127 H 0.09157 0.67509 0.27453
 H1128 H 0.13566 0.64354 0.24827
 N1129 N 0.06665 0.18168 0.78722
 N1130 N 0.08950 0.16472 0.77280
 C1131 C 0.09709 0.17643 0.74242
 C1132 C 0.07879 0.20202 0.73745
 C1133 C 0.05957 0.20437 0.76618
 H1134 H 0.07764 0.21551 0.71494
 H1135 H 0.05517 0.17687 0.81027
 H1136 H 0.09852 0.14475 0.78300
 N1137 N 0.42764 0.72919 0.31843
 N1138 N 0.40414 0.71383 0.33403
 C1139 C 0.39644 0.68969 0.31510
 C1140 C 0.41571 0.68970 0.28613
 C1141 C 0.43515 0.71512 0.28928
 H1142 H 0.41580 0.67338 0.26585
 H1143 H 0.43832 0.74886 0.32774
 H1144 H 0.39382 0.71978 0.35730
 N1145 N 0.43526 0.15824 0.77234
 N1146 N 0.41079 0.14631 0.79000
 C1147 C 0.40171 0.16617 0.81425
 C1148 C 0.42130 0.19161 0.81220
 C1149 C 0.44204 0.18580 0.78516
 H1150 H 0.41940 0.21226 0.82694
 H1151 H 0.44622 0.14811 0.75122
 H1152 H 0.39995 0.12543 0.78477
 N1153 N 0.95446 0.66419 0.75783
 N1154 N 0.93111 0.64617 0.76907
 C1155 C 0.91021 0.66246 0.78842
 C1156 C 0.92102 0.69250 0.78989
 C1157 C 0.94912 0.69251 0.76961
 H1158 H 0.90918 0.71174 0.80194
 H1159 H 0.97337 0.65717 0.74168
 H1160 H 0.92916 0.62316 0.76270
 N1161 N 0.96062 0.13293 0.29675
 N1162 N 0.93655 0.11941 0.31340
 C1163 C 0.90949 0.12345 0.29665
 C1164 C 0.91681 0.13962 0.26778
 C1165 C 0.94930 0.14599 0.26919
 H1166 H 0.89976 0.15128 0.25256
 H1167 H 0.98326 0.13677 0.30649
 H1168 H 0.93795 0.11105 0.33768
 N1169 N 0.22662 0.32068 0.61544
 N1170 N 0.24602 0.33203 0.63755
 C1171 C 0.27409 0.31671 0.63562
 C1172 C 0.27246 0.29433 0.61114
 C1173 C 0.24184 0.29785 0.59887
 H1174 H 0.29108 0.27856 0.60280
 H1175 H 0.20349 0.32888 0.61151
 H1176 H 0.24009 0.35024 0.65340
 N1177 N 0.26283 0.83074 0.08422
 N1178 N 0.27753 0.84542 0.10802
 C1179 C 0.30720 0.83362 0.11083
 C1180 C 0.31167 0.81031 0.08767
 C1181 C 0.28290 0.80939 0.07120
 H1182 H 0.33296 0.79655 0.08298
 H1183 H 0.23952 0.83555 0.07690
 H1184 H 0.26739 0.86348 0.12177
 N1185 N 0.74562 0.33327 0.08610
 N1186 N 0.75923 0.34382 0.11312
 C1187 C 0.78455 0.32596 0.11961
 C1188 C 0.78747 0.30343 0.09564
 C1189 C 0.76242 0.30883 0.07491
 H1190 H 0.80499 0.28522 0.09393
 H1191 H 0.72515 0.34255 0.07578
 H1192 H 0.75090 0.36251 0.12708
 N1193 N 0.77382 0.86147 0.56055
 N1194 N 0.78969 0.87074 0.58650
 C1195 C 0.81255 0.85015 0.59303
 C1196 C 0.81123 0.82647 0.56986
 C1197 C 0.78605 0.83467 0.54975
 H1198 H 0.82582 0.80610 0.56837
 H1199 H 0.75462 0.87333 0.55069
 H1200 H 0.78459 0.89084 0.59964
 N1201 N 0.27217 0.64741 0.43044
 N1202 N 0.28711 0.63511 0.40399
 C1203 C 0.31009 0.65459 0.39243
 C1204 C 0.30991 0.68031 0.41247
 C1205 C 0.28540 0.67492 0.43615
 H1206 H 0.32451 0.70066 0.40931
 H1207 H 0.25270 0.63743 0.44367
 H1208 H 0.28109 0.61407 0.39369
 N1209 N 0.33319 0.24815 0.93184
 N1210 N 0.34734 0.23189 0.90769
 C1211 C 0.33152 0.20515 0.90523
 C1212 C 0.30635 0.20425 0.92877
 C1213 C 0.30827 0.23191 0.94511
 H1214 H 0.28903 0.18608 0.93332
 H1215 H 0.34062 0.26986 0.93907
 H1216 H 0.36729 0.23917 0.89310
 N1217 N 0.78295 0.65053 0.91193
 N1218 N 0.79321 0.63729 0.88397
 C1219 C 0.81708 0.65429 0.86974
 C1220 C 0.82234 0.67961 0.88963
 C1221 C 0.80002 0.67628 0.91614
 H1222 H 0.83945 0.69796 0.88518
 H1223 H 0.76416 0.64222 0.92749
 H1224 H 0.78390 0.61688 0.87491
 N1225 N 0.85094 0.20413 0.41612
 N1226 N 0.86255 0.18643 0.39188
 C1227 C 0.83923 0.16699 0.38277
 C1228 C 0.81159 0.17232 0.40231
 C1229 C 0.82014 0.19606 0.42313
 H1230 H 0.78846 0.16099 0.40116
 H1231 H 0.86401 0.22127 0.42767
 H1232 H 0.88588 0.18822 0.38129
 N1233 N 0.68274 0.25530 0.41623
 N1234 N 0.66781 0.27413 0.39641
 C1235 C 0.68465 0.30044 0.39419
 C1236 C 0.71152 0.29829 0.41326
 C1237 C 0.70931 0.26932 0.42687
 H1238 H 0.72965 0.31555 0.41729
 H1239 H 0.67452 0.23348 0.42265
 H1240 H 0.64629 0.26903 0.38492
 N1241 N 0.68296 0.75016 0.92154
 N1242 N 0.66761 0.76498 0.89837
 C1243 C 0.68563 0.78911 0.88840
 C1244 C 0.71380 0.78965 0.90585
 C1245 C 0.71115 0.76445 0.92653
 H1246 H 0.73356 0.80574 0.90345
 H1247 H 0.67439 0.73035 0.93330
 H1248 H 0.64522 0.75855 0.88959
 N1249 N 0.15892 0.26598 0.95075
 N1250 N 0.14188 0.28106 0.92905
 C1251 C 0.15629 0.30811 0.92276
 C1252 C 0.18363 0.31042 0.94141
 C1253 C 0.18446 0.28318 0.95875
 H1254 H 0.20089 0.32895 0.94171
 H1255 H 0.15322 0.24419 0.95963
 H1256 H 0.12109 0.27264 0.91838
 N1257 N 0.16825 0.75707 0.42323
 N1258 N 0.15629 0.77451 0.39992
 C1259 C 0.17726 0.79736 0.39286
 C1260 C 0.20381 0.79424 0.41231
 C1261 C 0.19715 0.76837 0.43115
 H1262 H 0.22496 0.80871 0.41271
 H1263 H 0.15678 0.73779 0.43338
 H1264 H 0.13410 0.77078 0.38919
 N1265 N 0.66283 0.75786 0.55141
 N1266 N 0.65061 0.73886 0.57410
 C1267 C 0.67109 0.71540 0.57723
 C1268 C 0.69759 0.71961 0.55550
 C1269 C 0.69138 0.74693 0.53969
 H1270 H 0.71865 0.70528 0.55226
 H1271 H 0.65190 0.77817 0.54449
 H1272 H 0.62875 0.74219 0.58738
 N1273 N 0.72312 0.17070 0.07644
 N1274 N 0.70502 0.15692 0.09978
 C1275 C 0.67832 0.17372 0.10604
 C1276 C 0.67929 0.19911 0.08567
 C1277 C 0.70808 0.19634 0.06735
 H1278 H 0.66190 0.21739 0.08486
 H1279 H 0.74535 0.16267 0.06711
 H1280 H 0.71128 0.13674 0.11164
 N1281 N 0.24344 0.66601 0.06663
 N1282 N 0.22879 0.64879 0.08938
 C1283 C 0.20378 0.66425 0.10357
 C1284 C 0.20221 0.69287 0.08873
 C1285 C 0.22806 0.69284 0.06535
 H1286 H 0.18525 0.71101 0.09435
 H1287 H 0.26362 0.65926 0.05210
 H1288 H 0.23635 0.62685 0.09534
 N1289 N 0.12288 0.20423 0.59005
 N1290 N 0.11395 0.18790 0.61638
 C1291 C 0.14006 0.17418 0.62831
 C1292 C 0.16700 0.18188 0.60839
 C1293 C 0.15492 0.20143 0.58466
 H1294 H 0.19200 0.17709 0.61294
 H1295 H 0.10745 0.21840 0.57722
 H1296 H 0.09061 0.18764 0.62713
   
