data_POSCAR
  _audit_creation_date              2014-09-24
  _audit_creation_method            'ToBaCCo'
  _symmetry_space_group_name_H-M    'P1'
  _symmetry_Int_Tables_number       1
  _symmetry_cell_setting            triclinic
  loop_
  _symmetry_equiv_pos_as_xyz
 x,y,z
_cell_length_a 52.7506
_cell_length_b 53.0701
_cell_length_c 36.7872
_cell_angle_alpha 90.353100
_cell_angle_beta 89.640900
_cell_angle_gamma 89.802200
loop_
  _atom_site_label
  _atom_site_type_symbol
  _atom_site_fract_x
  _atom_site_fract_y
  _atom_site_fract_z
Zr1 Zr -0.04964 -0.00184 -0.01474
 O2 O -0.07691 -0.02132 -0.04612
 O3 O -0.07264 0.02112 0.01828
 O4 O -0.07182 -0.02601 0.01784
 O5 O -0.03805 0.04536 -0.07719
 O6 O -0.04256 -0.04961 0.04778
 O7 O -0.06920 0.02253 -0.04963
 O8 O -0.04442 0.04011 0.05626
 O9 O -0.03056 -0.00438 0.03479
 O10 O -0.02825 0.03110 -0.00996
 O11 O -0.02786 -0.03495 -0.01884
 O12 O -0.02646 -0.00068 -0.06174
 Zr13 Zr 0.03848 -0.00300 -0.01002
 Zr14 Zr -0.00726 -0.03625 0.02955
 Zr15 Zr -0.00396 0.03154 -0.05467
 Zr16 Zr -0.00828 0.02789 0.03825
 O17 O -0.00089 0.03106 -0.11204
 O18 O -0.01107 0.01846 0.09405
 O19 O 0.01690 0.03049 -0.00618
 O20 O 0.01509 -0.00408 0.03639
 O21 O 0.01751 -0.03619 -0.01510
 O22 O 0.01899 -0.00035 -0.05920
 C23 C -0.06703 0.03625 0.04442
 C24 C -0.06153 0.03972 -0.07163
 C25 C -0.06557 -0.04349 0.04028
 O26 O -0.00700 -0.03607 0.08706
 O27 O 0.02660 -0.05291 0.04745
 O28 O 0.05815 -0.03024 0.02072
 C29 C 0.05015 -0.04827 0.04112
 O30 O -0.03541 -0.04540 -0.09153
 Zr31 Zr -0.00284 -0.03271 -0.06315
 O32 O 0.06162 -0.02419 -0.04503
 O33 O -0.00938 -0.07562 0.02064
 O34 O -0.00352 -0.07251 -0.05856
 O35 O 0.00128 -0.02542 -0.11949
 O36 O 0.03331 -0.04626 -0.07916
 C37 C 0.05606 -0.04053 -0.06959
 O38 O 0.06551 0.01442 0.02414
 O39 O -0.00513 0.07101 -0.04621
 O40 O 0.06056 0.02336 -0.03866
 O41 O 0.03141 0.04757 -0.06801
 O42 O -0.00898 0.06782 0.03629
 O43 O 0.02441 0.04314 0.06360
 C44 C 0.05439 0.04175 -0.05958
 H45 H -0.03854 0.04673 -0.00976
 H46 H 0.02530 -0.00505 0.05883
 H47 H 0.03033 0.00108 -0.08062
 H48 H -0.03884 -0.04992 -0.02162
 H49 H -0.01641 0.03389 0.10739
 H50 H -0.00827 -0.05387 0.09482
 H51 H -0.00936 -0.08366 0.04488
 H52 H 0.00222 -0.07964 -0.08219
 H53 H -0.01419 0.07406 0.06067
 H54 H -0.00477 0.07888 -0.07057
 H55 H 0.00006 0.04888 -0.11981
 H56 H 0.00613 -0.04151 -0.13151
 H57 H 0.01925 0.05263 0.08571
 H58 H 0.08251 0.00872 0.01572
 H59 H -0.09388 -0.01534 -0.03801
 H60 H -0.03046 -0.05895 -0.10882
 Zr61 Zr 0.53845 0.49702 0.49007
 O62 O 0.56545 0.51455 0.52414
 O63 O 0.56160 0.47568 0.45528
 O64 O 0.55807 0.46988 0.52109
 O65 O 0.53149 0.54735 0.43163
 O66 O 0.52647 0.44735 0.54795
 O67 O 0.56057 0.52322 0.46124
 O68 O 0.53332 0.45352 0.42122
 O69 O 0.51746 0.46382 0.48522
 O70 O 0.51900 0.49948 0.44083
 O71 O 0.51500 0.49614 0.53644
 O72 O 0.51689 0.53053 0.49358
 Zr73 Zr 0.45034 0.49822 0.48515
 Zr74 Zr 0.49264 0.46396 0.52982
 Zr75 Zr 0.49608 0.53142 0.44504
 Zr76 Zr 0.49716 0.46712 0.43710
 O77 O 0.49493 0.57092 0.45319
 O78 O 0.49647 0.42734 0.44203
 O79 O 0.47356 0.49918 0.43819
 O80 O 0.47209 0.46507 0.48137
 O81 O 0.46936 0.49586 0.53474
 O82 O 0.47174 0.53117 0.48970
 C83 C 0.55606 0.45928 0.43080
 C84 C 0.55445 0.54153 0.44014
 C85 C 0.55003 0.45195 0.54164
 O86 O 0.49050 0.42455 0.52123
 O87 O 0.45731 0.45069 0.54808
 O88 O 0.42811 0.47421 0.51788
 C89 C 0.43431 0.45680 0.54048
 O90 O 0.52434 0.54348 0.56322
 Zr91 Zr 0.49167 0.52813 0.53798
 O92 O 0.42731 0.52132 0.51794
 O93 O 0.49283 0.46437 0.58733
 O94 O 0.48885 0.51895 0.59386
 O95 O 0.49095 0.56805 0.53568
 O96 O 0.45552 0.54040 0.55586
 C97 C 0.43292 0.53650 0.54402
 O98 O 0.42309 0.47863 0.45388
 O99 O 0.49922 0.53072 0.38768
 O100 O 0.43083 0.52244 0.44998
 O101 O 0.46202 0.54515 0.42231
 O102 O 0.50131 0.47418 0.38070
 O103 O 0.46460 0.45434 0.40876
 C104 C 0.43853 0.53952 0.42784
 H105 H 0.53036 0.50083 0.41942
 H106 H 0.46110 0.45010 0.47869
 H107 H 0.46145 0.54679 0.48976
 H108 H 0.52519 0.49524 0.55891
 H109 H 0.50223 0.42012 0.41847
 H110 H 0.49049 0.41661 0.54554
 H111 H 0.49154 0.44660 0.59523
 H112 H 0.48351 0.53443 0.60706
 H113 H 0.50616 0.45804 0.36881
 H114 H 0.50018 0.54851 0.37977
 H115 H 0.49532 0.57869 0.42877
 H116 H 0.48572 0.57438 0.56001
 H117 H 0.46956 0.44070 0.39163
 H118 H 0.40611 0.48465 0.46190
 H119 H 0.58245 0.50881 0.51581
 H120 H 0.51918 0.55308 0.58523
 Zr121 Zr 0.54585 -0.00154 0.50466
 O122 O 0.57546 0.01965 0.48068
 O123 O 0.56635 -0.02550 0.53955
 O124 O 0.56388 0.02283 0.54201
 O125 O 0.54124 -0.04393 0.43324
 O126 O 0.53124 0.04374 0.56979
 O127 O 0.56919 -0.02326 0.46972
 O128 O 0.53525 -0.04717 0.56899
 O129 O 0.52230 -0.00221 0.55070
 O130 O 0.52538 -0.03510 0.50131
 O131 O 0.52302 0.03098 0.50089
 O132 O 0.52683 -0.00038 0.45419
 Zr133 Zr 0.45755 -0.00295 0.49422
 Zr134 Zr 0.49833 0.02914 0.54557
 Zr135 Zr 0.50513 -0.03342 0.45298
 Zr136 Zr 0.50094 -0.03510 0.54586
 O137 O 0.50627 -0.02986 0.39573
 O138 O 0.49782 -0.02906 0.60275
 O139 O 0.48006 -0.03580 0.49739
 O140 O 0.47670 -0.00385 0.54420
 O141 O 0.47761 0.03093 0.49728
 O142 O 0.48128 -0.00221 0.44853
 C143 C 0.55869 -0.04203 0.56268
 C144 C 0.56391 -0.03836 0.44329
 C145 C 0.55502 0.03949 0.56442
 O146 O 0.49416 0.02537 0.60250
 O147 O 0.46242 0.04309 0.56099
 O148 O 0.43447 0.02208 0.52478
 C149 C 0.43987 0.03851 0.54952
 O150 O 0.53628 0.04591 0.43125
 Zr151 Zr 0.50209 0.03081 0.45268
 O152 O 0.43682 0.01981 0.45883
 O153 O 0.49856 0.06893 0.54206
 O154 O 0.50136 0.07024 0.46241
 O155 O 0.50286 0.02625 0.39537
 O156 O 0.46703 0.04485 0.43339
 C157 C 0.44379 0.03812 0.43839
 O158 O 0.42823 -0.02271 0.52121
 O159 O 0.50805 -0.07313 0.45621
 O160 O 0.43932 -0.02883 0.45919
 O161 O 0.47211 -0.05038 0.43269
 O162 O 0.50362 -0.07468 0.53840
 O163 O 0.46681 -0.05277 0.56289
 C164 C 0.44830 -0.04617 0.43793
 H165 H 0.53629 -0.05031 0.50120
 H166 H 0.46458 -0.00450 0.56484
 H167 H 0.47183 -0.00279 0.42537
 H168 H 0.53344 0.04645 0.50157
 H169 H 0.50230 -0.04509 0.61482
 H170 H 0.49374 0.04266 0.61280
 H171 H 0.49627 0.07558 0.56711
 H172 H 0.49745 0.07855 0.43905
 H173 H 0.50672 -0.08228 0.56253
 H174 H 0.51007 -0.07953 0.43098
 H175 H 0.50681 -0.04718 0.38556
 H176 H 0.49810 0.04267 0.38463
 H177 H 0.47029 -0.06372 0.58399
 H178 H 0.41196 -0.01699 0.51061
 H179 H 0.59169 0.01357 0.49106
 H180 H 0.53225 0.05979 0.41433
 Zr181 Zr -0.04260 0.49678 -0.00851
 O182 O -0.07186 0.47687 0.01839
 O183 O -0.06343 0.51961 -0.04365
 O184 O -0.06569 0.52166 0.02230
 O185 O -0.02811 0.44963 -0.07036
 O186 O -0.03771 0.54261 0.05854
 O187 O -0.06082 0.47100 -0.04371
 O188 O -0.03345 0.54493 -0.06866
 O189 O -0.02263 0.53069 -0.00527
 O190 O -0.01899 0.49772 -0.05429
 O191 O -0.02338 0.49577 0.04140
 O192 O -0.02005 0.46395 -0.00563
 Zr193 Zr 0.04568 0.49831 0.00161
 Zr194 Zr -0.00180 0.52879 0.04291
 Zr195 Zr 0.00493 0.46655 -0.05009
 Zr196 Zr 0.00174 0.53077 -0.04997
 O197 O 0.00789 0.42683 -0.04724
 O198 O 0.00113 0.57017 -0.04001
 O199 O 0.02657 0.49962 -0.04878
 O200 O 0.02278 0.53081 -0.00186
 O201 O 0.02222 0.49746 0.04773
 O202 O 0.02526 0.46473 -0.00185
 C203 C -0.05675 0.53821 -0.06379
 C204 C -0.05199 0.45368 -0.06522
 C205 C -0.06027 0.53801 0.04713
 O206 O -0.00165 0.56859 0.03966
 O207 O 0.03114 0.54337 0.06707
 O208 O 0.06376 0.52261 0.03900
 C209 C 0.05492 0.53918 0.06156
 O210 O -0.03318 0.44676 0.05975
 Zr211 Zr 0.00090 0.46456 0.04277
 O212 O 0.06629 0.47431 0.03633
 O213 O -0.00584 0.52483 0.09983
 O214 O -0.00217 0.47040 0.09971
 O215 O 0.00369 0.42500 0.03508
 O216 O 0.03527 0.45252 0.06574
 C217 C 0.05869 0.45773 0.05941
 O218 O 0.07521 0.51958 -0.02243
 O219 O 0.00602 0.47032 -0.10731
 O220 O 0.06896 0.47663 -0.03346
 O221 O 0.04104 0.45608 -0.06991
 O222 O 0.00220 0.52646 -0.10732
 O223 O 0.03586 0.54591 -0.07160
 C224 C 0.06382 0.46148 -0.05996
 H225 H -0.02850 0.49721 -0.07740
 H226 H 0.03319 0.54629 -0.00113
 H227 H 0.03619 0.44953 -0.00209
 H228 H -0.03546 0.49503 0.06207
 H229 H -0.00290 0.57855 -0.06328
 H230 H -0.00391 0.57516 0.06476
 H231 H -0.00628 0.54210 0.11024
 H232 H 0.00235 0.45433 0.11166
 H233 H -0.00267 0.54292 -0.11784
 H234 H 0.00654 0.45303 -0.11762
 H235 H 0.00986 0.42053 -0.07252
 H236 H 0.00682 0.41734 0.05916
 H237 H 0.03177 0.55980 -0.08846
 H238 H 0.09146 0.51349 -0.01215
 H239 H -0.08815 0.48260 0.00786
 H240 H -0.02965 0.43574 0.08075
 Zr241 Zr 0.04516 0.50918 0.50186
 O242 O 0.07310 0.49064 0.53310
 O243 O 0.06737 0.53217 0.46838
 O244 O 0.06855 0.48603 0.46895
 O245 O 0.03102 0.55432 0.56714
 O246 O 0.04048 0.46239 0.43671
 O247 O 0.06347 0.53419 0.53761
 O248 O 0.03835 0.55140 0.43212
 O249 O 0.02631 0.50689 0.45211
 O250 O 0.02242 0.54141 0.49870
 O251 O 0.02485 0.47523 0.50389
 O252 O 0.02177 0.50853 0.54865
 Zr253 Zr -0.04294 0.50487 0.49632
 Zr254 Zr 0.00452 0.47413 0.45526
 Zr255 Zr -0.00216 0.53995 0.54322
 Zr256 Zr 0.00264 0.53838 0.45027
 O257 O -0.00536 0.53829 0.60052
 O258 O 0.00510 0.53042 0.39381
 O259 O -0.02280 0.53914 0.49457
 O260 O -0.01929 0.50554 0.45010
 O261 O -0.02039 0.47246 0.49962
 O262 O -0.02377 0.50720 0.54580
 C263 C 0.06126 0.54714 0.44250
 C264 C 0.05477 0.55019 0.56106
 C265 C 0.06318 0.46890 0.44528
 O266 O 0.00448 0.47553 0.39779
 O267 O -0.02843 0.45649 0.43624
 O268 O -0.06111 0.47739 0.46397
 C269 C -0.05217 0.46001 0.44280
 O270 O 0.03253 0.46399 0.57637
 Zr271 Zr -0.00043 0.47567 0.54803
 O272 O -0.06517 0.48177 0.52958
 O273 O 0.00836 0.43471 0.46180
 O274 O 0.00259 0.43605 0.54137
 O275 O -0.00559 0.48175 0.60463
 O276 O -0.03587 0.45988 0.56207
 C277 C -0.05885 0.46474 0.55255
 O278 O -0.07075 0.52161 0.46287
 O279 O -0.00270 0.57955 0.53690
 O280 O -0.06618 0.53037 0.52576
 O281 O -0.03810 0.55429 0.55778
 O282 O 0.00237 0.57824 0.45481
 O283 O -0.03073 0.55331 0.42637
 C284 C -0.06076 0.54825 0.54828
 H285 H 0.03221 0.55729 0.49915
 H286 H -0.02938 0.50461 0.42753
 H287 H -0.03533 0.50773 0.56710
 H288 H 0.03647 0.46062 0.50598
 H289 H 0.00974 0.54629 0.38142
 H290 H 0.00656 0.45796 0.38897
 H291 H 0.00888 0.42717 0.43709
 H292 H -0.00284 0.42824 0.56454
 H293 H 0.00736 0.58508 0.43081
 H294 H -0.00337 0.58697 0.56168
 H295 H -0.00702 0.55589 0.60936
 H296 H -0.00983 0.46527 0.61560
 H297 H -0.02603 0.56388 0.40531
 H298 H -0.08746 0.51512 0.47098
 H299 H 0.08984 0.49726 0.52533
 H300 H 0.02810 0.45016 0.59318
 Zr301 Zr 0.45720 0.00476 -0.00378
 O302 O 0.42945 0.02153 -0.03732
 O303 O 0.43491 -0.01840 0.02931
 O304 O 0.43911 -0.02269 -0.03625
 O305 O 0.46187 0.05414 0.05778
 O306 O 0.47184 -0.04357 -0.06390
 O307 O 0.43387 0.03023 0.02560
 O308 O 0.46415 -0.04031 0.06187
 O309 O 0.47975 -0.02764 -0.00044
 O310 O 0.47625 0.00706 0.04579
 O311 O 0.48095 0.00547 -0.04990
 O312 O 0.47732 0.03904 -0.00539
 Zr313 Zr 0.54527 0.00911 0.00214
 Zr314 Zr 0.50476 -0.02594 -0.04470
 Zr315 Zr 0.49785 0.03982 0.04336
 Zr316 Zr 0.49961 -0.02446 0.04807
 O317 O 0.49730 0.07943 0.03712
 O318 O 0.50269 -0.06407 0.04139
 O319 O 0.52178 0.00841 0.04884
 O320 O 0.52498 -0.02486 0.00403
 O321 O 0.52654 0.00684 -0.04771
 O322 O 0.52251 0.04133 -0.00105
 C323 C 0.44119 -0.03547 0.05224
 C324 C 0.43924 0.04810 0.04817
 C325 C 0.44809 -0.04005 -0.05742
 O326 O 0.50855 -0.06537 -0.03819
 O327 O 0.54077 -0.03772 -0.06301
 O328 O 0.56874 -0.01402 -0.03068
 C329 C 0.56343 -0.03120 -0.05431
 O330 O 0.46953 0.05322 -0.07365
 Zr331 Zr 0.50286 0.03832 -0.04959
 O332 O 0.56754 0.03216 -0.03117
 O333 O 0.50487 -0.02448 -0.10216
 O334 O 0.50549 0.03039 -0.10604
 O335 O 0.50250 0.07818 -0.04499
 O336 O 0.53859 0.05144 -0.06749
 C337 C 0.56148 0.04720 -0.05700
 O338 O 0.57316 -0.00944 0.03347
 O339 O 0.49454 0.03810 0.10064
 O340 O 0.56349 0.03409 0.03800
 O341 O 0.53099 0.05419 0.06744
 O342 O 0.49428 -0.01843 0.10465
 O343 O 0.53251 -0.03611 0.07656
 C344 C 0.55474 0.05007 0.06144
 H345 H 0.46464 0.00757 0.06703
 H346 H 0.53659 -0.03946 0.00616
 H347 H 0.53229 0.05721 -0.00053
 H348 H 0.47090 0.00456 -0.07252
 H349 H 0.49723 -0.07190 0.06453
 H350 H 0.50912 -0.07289 -0.06291
 H351 H 0.50697 -0.04204 -0.11100
 H352 H 0.51015 0.04629 -0.11838
 H353 H 0.49003 -0.03493 0.11557
 H354 H 0.49285 0.05570 0.10952
 H355 H 0.49658 0.08682 0.06191
 H356 H 0.50752 0.08505 -0.06895
 H357 H 0.52806 -0.04995 0.09335
 H358 H 0.58991 -0.00280 0.02578
 H359 H 0.41272 0.01502 -0.02930
 H360 H 0.47427 0.06379 -0.09470
 Zr361 Zr 0.45484 0.49617 0.00491
 O362 O 0.42453 0.51504 0.03177
 O363 O 0.43511 0.47346 -0.03248
 O364 O 0.43540 0.52129 -0.02905
 O365 O 0.46165 0.45055 0.07087
 O366 O 0.46657 0.54467 -0.05554
 O367 O 0.43272 0.47203 0.03716
 O368 O 0.46676 0.45392 -0.06438
 O369 O 0.47796 0.49847 -0.04142
 O370 O 0.47674 0.46333 0.00421
 O371 O 0.47600 0.52937 0.01180
 O372 O 0.47389 0.49574 0.05523
 Zr373 Zr 0.54303 0.49783 0.01429
 Zr374 Zr 0.50046 0.53048 -0.03321
 Zr375 Zr 0.49714 0.46368 0.05244
 Zr376 Zr 0.50079 0.46629 -0.04048
 O377 O 0.49611 0.46477 0.10994
 O378 O 0.50314 0.47495 -0.09658
 O379 O 0.52200 0.46436 0.00763
 O380 O 0.52355 0.49831 -0.03552
 O381 O 0.52129 0.53091 0.01506
 O382 O 0.51954 0.49559 0.06014
 C383 C 0.44318 0.45815 -0.05731
 C384 C 0.43873 0.45580 0.06153
 C385 C 0.44311 0.53914 -0.04984
 O386 O 0.50444 0.52947 -0.09045
 O387 O 0.53572 0.54636 -0.04735
 O388 O 0.56492 0.52395 -0.01536
 C389 C 0.55868 0.54140 -0.03787
 O390 O 0.46204 0.53993 0.08298
 Zr391 Zr 0.49702 0.52777 0.05972
 O392 O 0.56274 0.52091 0.05109
 O393 O 0.49844 0.56996 -0.02520
 O394 O 0.49533 0.56754 0.05481
 O395 O 0.49722 0.52079 0.11643
 O396 O 0.53114 0.54274 0.07983
 C397 C 0.55469 0.53795 0.07344
 O398 O 0.57329 0.48008 -0.01415
 O399 O 0.49625 0.42411 0.04493
 O400 O 0.56259 0.47122 0.04643
 O401 O 0.53096 0.44720 0.07043
 O402 O 0.50007 0.42640 -0.03738
 O403 O 0.53558 0.45076 -0.05982
 C404 C 0.55450 0.45253 0.06552
 H405 H 0.46653 0.44776 0.00268
 H406 H 0.53550 0.49893 -0.05635
 H407 H 0.52923 0.49448 0.08304
 H408 H 0.46483 0.54439 0.01296
 H409 H 0.49923 0.45933 -0.11033
 H410 H 0.50396 0.54719 -0.09876
 H411 H 0.50020 0.57778 -0.04948
 H412 H 0.49866 0.57488 0.07915
 H413 H 0.49706 0.41979 -0.06224
 H414 H 0.49464 0.41654 0.06940
 H415 H 0.49640 0.44704 0.11823
 H416 H 0.50082 0.53701 0.12882
 H417 H 0.53244 0.44071 -0.08210
 H418 H 0.58931 0.48605 -0.00309
 H419 H 0.40847 0.50888 0.02102
 H420 H 0.46528 0.55307 0.10159
 Zr421 Zr 0.04296 -0.00198 0.51454
 O422 O 0.07330 -0.01971 0.48626
 O423 O 0.06257 0.02128 0.55122
 O424 O 0.06477 0.02411 0.48470
 O425 O 0.03101 -0.05246 0.57103
 O426 O 0.03550 0.04627 0.45247
 O427 O 0.06258 -0.02845 0.54685
 O428 O 0.03089 0.04311 0.57976
 O429 O 0.02111 0.03103 0.51505
 O430 O 0.01945 -0.00414 0.56038
 O431 O 0.02350 -0.00175 0.46471
 O432 O 0.02204 -0.03554 0.50811
 Zr433 Zr -0.04523 -0.00396 0.50508
 Zr434 Zr 0.00029 0.03035 0.46677
 Zr435 Zr -0.00285 -0.03615 0.55290
 Zr436 Zr -0.00318 0.02796 0.55972
 O437 O -0.00361 -0.07574 0.54568
 O438 O -0.00498 0.06771 0.55452
 O439 O -0.02621 -0.00416 0.55543
 O440 O -0.02418 0.02932 0.51177
 O441 O -0.02209 -0.00175 0.45876
 O442 O -0.02322 -0.03673 0.50465
 C443 C 0.05446 0.03837 0.57344
 C444 C 0.05453 -0.04710 0.56607
 C445 C 0.05847 0.04143 0.46200
 O446 O -0.00182 0.06985 0.47451
 O447 O -0.03363 0.04439 0.44436
 O448 O -0.06474 0.02099 0.47095
 C449 C -0.05707 0.03881 0.45008
 O450 O 0.03569 -0.04934 0.44079
 Zr451 Zr 0.00084 -0.03386 0.45997
 O452 O -0.06486 -0.02687 0.46782
 O453 O 0.00426 0.02915 0.40953
 O454 O 0.00321 -0.02539 0.40380
 O455 O 0.00025 -0.07373 0.46336
 O456 O -0.03312 -0.04641 0.43610
 C457 C -0.05672 -0.04224 0.44309
 O458 O -0.07563 0.01488 0.53177
 O459 O -0.00391 -0.03485 0.61038
 O460 O -0.06729 -0.02806 0.53750
 O461 O -0.03831 -0.04934 0.57138
 O462 O -0.00298 0.02117 0.61647
 O463 O -0.03820 0.04010 0.58286
 C464 C -0.06124 -0.04419 0.56199
 H465 H 0.02914 -0.00515 0.58330
 H466 H -0.03539 0.04431 0.51282
 H467 H -0.03339 -0.05234 0.50321
 H468 H 0.03545 -0.00116 0.44388
 H469 H -0.00169 0.07514 0.57880
 H470 H -0.00008 0.07759 0.45017
 H471 H 0.00373 0.04684 0.40110
 H472 H -0.00063 -0.04107 0.39016
 H473 H 0.00057 0.03743 0.62877
 H474 H -0.00357 -0.05255 0.61881
 H475 H -0.00520 -0.08324 0.57019
 H476 H -0.00273 -0.08045 0.43855
 H477 H -0.03500 0.05331 0.60139
 H478 H -0.09166 0.00863 0.52104
 H479 H 0.08930 -0.01364 0.49731
 H480 H 0.03261 -0.05949 0.41859
 Zr481 Zr 0.75443 0.20578 0.25530
 O482 O 0.73532 0.17771 0.28549
 O483 O 0.77630 0.18405 0.21962
 O484 O 0.72982 0.18493 0.22189
 O485 O 0.80176 0.21479 0.31883
 O486 O 0.70638 0.21495 0.19332
 O487 O 0.77992 0.18497 0.28694
 O488 O 0.79667 0.21307 0.18473
 O489 O 0.75218 0.22644 0.20719
 O490 O 0.78763 0.22706 0.25252
 O491 O 0.72104 0.22713 0.26034
 O492 O 0.75543 0.22676 0.30413
 Zr493 Zr 0.75321 0.29315 0.25750
 Zr494 Zr 0.72010 0.24944 0.21358
 Zr495 Zr 0.78777 0.24950 0.29919
 Zr496 Zr 0.78477 0.24852 0.20587
 O497 O 0.78685 0.25023 0.35668
 O498 O 0.77576 0.24833 0.14979
 O499 O 0.78697 0.27192 0.25229
 O500 O 0.75263 0.27172 0.20922
 O501 O 0.71984 0.27209 0.26026
 O502 O 0.75550 0.27201 0.30512
 C503 C 0.79171 0.19019 0.19407
 C504 C 0.79696 0.19176 0.30987
 C505 C 0.71228 0.19185 0.19986
 O506 O 0.72072 0.25109 0.15614
 O507 O 0.70424 0.28400 0.19693
 O508 O 0.72722 0.31398 0.22651
 C509 C 0.70955 0.30711 0.20464
 O510 O 0.71112 0.21625 0.33243
 Zr511 Zr 0.72310 0.24996 0.30669
 O512 O 0.72980 0.31462 0.29226
 O513 O 0.68042 0.24793 0.22193
 O514 O 0.68305 0.24844 0.30234
 O515 O 0.72993 0.25274 0.36333
 O516 O 0.70831 0.28482 0.32424
 C517 C 0.71293 0.30780 0.31559
 O518 O 0.77170 0.32141 0.22687
 O519 O 0.82753 0.24890 0.29124
 O520 O 0.77883 0.31404 0.28907
 O521 O 0.80359 0.28418 0.31574
 O522 O 0.82491 0.24724 0.20832
 O523 O 0.80062 0.28190 0.18375
 C524 C 0.79738 0.30727 0.30944
 H525 H 0.80331 0.21679 0.25127
 H526 H 0.75201 0.28268 0.18756
 H527 H 0.75648 0.28259 0.32733
 H528 H 0.70597 0.21614 0.26220
 H529 H 0.79133 0.24338 0.13629
 H530 H 0.70285 0.25032 0.14808
 H531 H 0.67251 0.24858 0.19758
 H532 H 0.67583 0.25285 0.32650
 H533 H 0.83127 0.24287 0.18366
 H534 H 0.83528 0.24834 0.31570
 H535 H 0.80471 0.25084 0.36479
 H536 H 0.71351 0.25670 0.37536
 H537 H 0.81042 0.27762 0.16150
 H538 H 0.76572 0.33798 0.23626
 H539 H 0.74116 0.16112 0.27602
 H540 H 0.69775 0.22023 0.35061
 Zr541 Zr 0.74882 0.79423 0.75852
 O542 O 0.76958 0.82338 0.78409
 O543 O 0.72564 0.81477 0.72327
 O544 O 0.77277 0.81312 0.72148
 O545 O 0.70599 0.78776 0.82923
 O546 O 0.79356 0.78130 0.69181
 O547 O 0.72569 0.81657 0.79312
 O548 O 0.70314 0.78444 0.69365
 O549 O 0.74830 0.77146 0.71180
 O550 O 0.71536 0.77334 0.76125
 O551 O 0.78195 0.77216 0.76100
 O552 O 0.75026 0.77480 0.80842
 Zr553 Zr 0.74910 0.70629 0.76646
 Zr554 Zr 0.78017 0.74804 0.71579
 Zr555 Zr 0.71757 0.75242 0.80892
 Zr556 Zr 0.71552 0.74981 0.71600
 O557 O 0.72133 0.75294 0.86615
 O558 O 0.72150 0.74739 0.65903
 O559 O 0.71561 0.72815 0.76379
 O560 O 0.74734 0.72604 0.71700
 O561 O 0.78265 0.72710 0.76359
 O562 O 0.74953 0.72934 0.81271
 C563 C 0.70908 0.80763 0.69990
 C564 C 0.71050 0.81054 0.81925
 C565 C 0.78900 0.80479 0.69791
 O566 O 0.77629 0.74435 0.65880
 O567 O 0.79472 0.71282 0.69903
 O568 O 0.77401 0.68418 0.73429
 C569 C 0.79030 0.69015 0.70956
 O570 O 0.79595 0.78533 0.83105
 Zr571 Zr 0.78217 0.75100 0.80877
 O572 O 0.77390 0.68589 0.80006
 O573 O 0.82019 0.74905 0.71909
 O574 O 0.82188 0.75198 0.79942
 O575 O 0.77787 0.75029 0.86611
 O576 O 0.79784 0.71664 0.82615
 C577 C 0.79243 0.69338 0.82003
 O578 O 0.72952 0.67690 0.73954
 O579 O 0.67755 0.75440 0.80602
 O580 O 0.72362 0.68721 0.80137
 O581 O 0.70115 0.71906 0.82831
 O582 O 0.67574 0.75196 0.72418
 O583 O 0.69792 0.71606 0.69789
 C584 C 0.70584 0.69555 0.82257
 H585 H 0.69990 0.78396 0.76146
 H586 H 0.74674 0.71426 0.69605
 H587 H 0.74933 0.71954 0.83553
 H588 H 0.79731 0.78282 0.76036
 H589 H 0.70536 0.75208 0.64715
 H590 H 0.79364 0.74454 0.64833
 H591 H 0.82682 0.74742 0.69391
 H592 H 0.83032 0.74845 0.82285
 H593 H 0.66794 0.75578 0.70038
 H594 H 0.67113 0.75599 0.83131
 H595 H 0.70392 0.75304 0.87643
 H596 H 0.79468 0.74622 0.87648
 H597 H 0.68656 0.71988 0.67730
 H598 H 0.73579 0.66075 0.74963
 H599 H 0.76335 0.83960 0.77418
 H600 H 0.80976 0.78168 0.84837
 Zr601 Zr 0.25198 0.29288 0.74892
 O602 O 0.23254 0.32017 0.71778
 O603 O 0.27470 0.31566 0.78221
 O604 O 0.22732 0.31530 0.78151
 O605 O 0.29722 0.27974 0.68291
 O606 O 0.20513 0.28632 0.81408
 O607 O 0.27641 0.31166 0.71241
 O608 O 0.29529 0.28735 0.81794
 O609 O 0.25049 0.27404 0.79872
 O610 O 0.28508 0.27115 0.75173
 O611 O 0.21856 0.27138 0.74720
 O612 O 0.25184 0.26933 0.70229
 Zr613 Zr 0.25035 0.20491 0.75477
 Zr614 Zr 0.21832 0.25116 0.79586
 Zr615 Zr 0.28416 0.24645 0.70744
 Zr616 Zr 0.28291 0.25149 0.80026
 O617 O 0.28239 0.24290 0.65018
 O618 O 0.27503 0.25403 0.85676
 O619 O 0.28419 0.22604 0.75616
 O620 O 0.25065 0.22856 0.80084
 O621 O 0.21707 0.22629 0.75164
 O622 O 0.25193 0.22394 0.70520
 C623 C 0.29031 0.31000 0.80766
 C624 C 0.29247 0.30327 0.68865
 C625 C 0.21028 0.30913 0.80514
 O626 O 0.22007 0.25154 0.85331
 O627 O 0.20188 0.21795 0.81566
 O628 O 0.22357 0.18603 0.78769
 C629 C 0.20609 0.19444 0.80926
 O630 O 0.20647 0.27850 0.67489
 Zr631 Zr 0.21953 0.24620 0.70316
 O632 O 0.22761 0.18206 0.72171
 O633 O 0.17851 0.25341 0.78965
 O634 O 0.17962 0.24789 0.71014
 O635 O 0.22578 0.24134 0.64654
 O636 O 0.20476 0.21049 0.68913
 C637 C 0.21031 0.18780 0.69867
 O638 O 0.26822 0.17782 0.78808
 O639 O 0.32402 0.24733 0.71341
 O640 O 0.27657 0.18260 0.72530
 O641 O 0.29980 0.21109 0.69308
 O642 O 0.32297 0.25217 0.79501
 O643 O 0.29905 0.21897 0.82453
 C644 C 0.29442 0.18842 0.70280
 H645 H 0.30074 0.28135 0.75098
 H646 H 0.25017 0.21859 0.82349
 H647 H 0.25276 0.21243 0.68395
 H648 H 0.20343 0.28235 0.74514
 H649 H 0.29090 0.25917 0.86899
 H650 H 0.20238 0.25297 0.86235
 H651 H 0.17100 0.25370 0.81442
 H652 H 0.17185 0.24223 0.68705
 H653 H 0.32995 0.25748 0.81880
 H654 H 0.33139 0.24683 0.68857
 H655 H 0.30012 0.24174 0.64122
 H656 H 0.20938 0.23647 0.63559
 H657 H 0.30966 0.22412 0.84539
 H658 H 0.26218 0.16100 0.78009
 H659 H 0.23877 0.33697 0.72559
 H660 H 0.19277 0.27356 0.65803
 Zr661 Zr 0.24863 0.70876 0.24411
 O662 O 0.26734 0.67813 0.21810
 O663 O 0.22520 0.68993 0.28143
 O664 O 0.27322 0.68925 0.27937
 O665 O 0.20282 0.71577 0.17768
 O666 O 0.29672 0.72034 0.30551
 O667 O 0.22405 0.68698 0.21194
 O668 O 0.20562 0.72194 0.31229
 O669 O 0.25073 0.73214 0.29002
 O670 O 0.21594 0.73115 0.24362
 O671 O 0.28243 0.72914 0.23759
 O672 O 0.24890 0.72732 0.19342
 Zr673 Zr 0.25191 0.79621 0.23335
 Zr674 Zr 0.28338 0.75386 0.28213
 Zr675 Zr 0.21699 0.75107 0.19500
 Zr676 Zr 0.21875 0.75534 0.28795
 O677 O 0.21873 0.74900 0.13760
 O678 O 0.22681 0.75813 0.34423
 O679 O 0.21768 0.77611 0.23946
 O680 O 0.25142 0.77733 0.28346
 O681 O 0.28480 0.77409 0.23355
 O682 O 0.24970 0.77256 0.18780
 C683 C 0.20969 0.69840 0.30579
 C684 C 0.20768 0.69298 0.18760
 C685 C 0.29094 0.69702 0.30062
 O686 O 0.28186 0.75828 0.33929
 O687 O 0.29973 0.78865 0.29625
 O688 O 0.27813 0.81785 0.26333
 C689 C 0.29524 0.81149 0.28645
 O690 O 0.29331 0.71442 0.16683
 Zr691 Zr 0.28165 0.74963 0.18924
 O692 O 0.27590 0.81506 0.19694
 O693 O 0.32313 0.75114 0.27500
 O694 O 0.32156 0.74718 0.19497
 O695 O 0.27535 0.74959 0.13235
 O696 O 0.29762 0.78315 0.16900
 C697 C 0.29313 0.80667 0.17508
 O698 O 0.23401 0.82671 0.26078
 O699 O 0.17712 0.75150 0.20182
 O700 O 0.22648 0.81592 0.19975
 O701 O 0.20170 0.78510 0.17532
 O702 O 0.17865 0.75510 0.28402
 O703 O 0.20345 0.79035 0.30618
 C704 C 0.20792 0.80839 0.17987
 H705 H 0.20007 0.72131 0.24514
 H706 H 0.25201 0.78937 0.30410
 H707 H 0.24912 0.78198 0.16468
 H708 H 0.29735 0.71778 0.23703
 H709 H 0.21087 0.75464 0.35766
 H710 H 0.29959 0.75765 0.34800
 H711 H 0.33078 0.75292 0.29942
 H712 H 0.32924 0.75015 0.17072
 H713 H 0.17171 0.75247 0.30880
 H714 H 0.16970 0.74987 0.17724
 H715 H 0.20100 0.74968 0.12890
 H716 H 0.29191 0.75271 0.12033
 H717 H 0.19299 0.78761 0.32823
 H718 H 0.24048 0.84249 0.24980
 H719 H 0.26080 0.66239 0.22912
 H720 H 0.30684 0.71718 0.14852
 Zr721 Zr 0.25325 0.79325 0.75737
 O722 O 0.27176 0.82150 0.72672
 O723 O 0.22985 0.81475 0.79211
 O724 O 0.22729 0.81409 0.72637
 O725 O 0.30366 0.78426 0.81555
 O726 O 0.20426 0.78413 0.69683
 O727 O 0.27890 0.81413 0.78891
 O728 O 0.20833 0.78496 0.82408
 O729 O 0.21987 0.77222 0.76014
 O730 O 0.25554 0.77213 0.80499
 O731 O 0.25265 0.77182 0.70909
 O732 O 0.28700 0.77200 0.75214
 Zr733 Zr 0.25441 0.70588 0.75518
 Zr734 Zr 0.22010 0.74956 0.71347
 Zr735 Zr 0.28779 0.74959 0.79904
 Zr736 Zr 0.22312 0.75009 0.80657
 O737 O 0.32755 0.74894 0.79109
 O738 O 0.18307 0.74857 0.80225
 O739 O 0.25543 0.72687 0.80401
 O740 O 0.22104 0.72725 0.76023
 O741 O 0.25217 0.72654 0.70707
 O742 O 0.28763 0.72714 0.75238
 C743 C 0.21296 0.80794 0.81542
 C744 C 0.29746 0.80735 0.80924
 C745 C 0.20959 0.80724 0.70453
 O746 O 0.18042 0.74806 0.72184
 O747 O 0.20636 0.71508 0.69320
 O748 O 0.22980 0.68504 0.72176
 C749 C 0.21226 0.69197 0.69972
 O750 O 0.30064 0.78197 0.68362
 Zr751 Zr 0.28477 0.74861 0.70573
 O752 O 0.27627 0.68414 0.71949
 O753 O 0.22071 0.75122 0.65602
 O754 O 0.27575 0.74844 0.64965
 O755 O 0.32491 0.74728 0.70816
 O756 O 0.29662 0.71315 0.68456
 C757 C 0.29165 0.69027 0.69391
 O758 O 0.23529 0.67783 0.78538
 O759 O 0.28688 0.75034 0.85653
 O760 O 0.27991 0.68506 0.78681
 O761 O 0.30175 0.71488 0.81871
 O762 O 0.22996 0.75290 0.86321
 O763 O 0.21114 0.71639 0.83234
 C764 C 0.29695 0.69184 0.80975
 H765 H 0.25653 0.78271 0.82719
 H766 H 0.20596 0.71627 0.76209
 H767 H 0.30330 0.71686 0.75112
 H768 H 0.25203 0.78278 0.68742
 H769 H 0.17585 0.75299 0.82640
 H770 H 0.17251 0.74872 0.69750
 H771 H 0.20283 0.75046 0.64798
 H772 H 0.29131 0.74347 0.63614
 H773 H 0.21354 0.75686 0.87524
 H774 H 0.30474 0.75094 0.86464
 H775 H 0.33530 0.74839 0.81555
 H776 H 0.33125 0.74291 0.68349
 H777 H 0.19778 0.72038 0.85053
 H778 H 0.24112 0.66123 0.77591
 H779 H 0.26579 0.83807 0.73612
 H780 H 0.31044 0.77768 0.66136
 Zr781 Zr 0.24827 0.20628 0.26478
 O782 O 0.22888 0.17687 0.23762
 O783 O 0.27276 0.18591 0.29887
 O784 O 0.27341 0.18416 0.23299
 O785 O 0.19987 0.21908 0.32590
 O786 O 0.29435 0.21278 0.19800
 O787 O 0.22259 0.18721 0.29941
 O788 O 0.29636 0.21670 0.32554
 O789 O 0.28184 0.22709 0.26241
 O790 O 0.24834 0.22938 0.31099
 O791 O 0.24687 0.22601 0.21528
 O792 O 0.21479 0.22813 0.26157
 Zr793 Zr 0.24803 0.29422 0.25673
 Zr794 Zr 0.27970 0.24801 0.21454
 Zr795 Zr 0.21641 0.25243 0.30668
 Zr796 Zr 0.28100 0.25104 0.30754
 O797 O 0.17641 0.25441 0.30310
 O798 O 0.32077 0.25182 0.29872
 O799 O 0.24910 0.27482 0.30667
 O800 O 0.28114 0.27216 0.25974
 O801 O 0.24786 0.27142 0.21004
 O802 O 0.21454 0.27333 0.25897
 C803 C 0.29099 0.19343 0.31937
 C804 C 0.20466 0.19556 0.32034
 C805 C 0.28985 0.19012 0.20846
 O806 O 0.31969 0.24902 0.21846
 O807 O 0.29325 0.28125 0.19071
 O808 O 0.27223 0.31309 0.22000
 C809 C 0.28863 0.30475 0.19669
 O810 O 0.19759 0.21601 0.19540
 Zr811 Zr 0.21506 0.24977 0.21376
 O812 O 0.22510 0.31474 0.22111
 O813 O 0.27624 0.24429 0.15750
 O814 O 0.22145 0.24730 0.15688
 O815 O 0.17521 0.25193 0.22134
 O816 O 0.20286 0.28437 0.19115
 C817 C 0.20873 0.30757 0.19746
 O818 O 0.26861 0.32341 0.28254
 O819 O 0.21968 0.25298 0.36398
 O820 O 0.22470 0.31658 0.29105
 O821 O 0.20472 0.28777 0.32683
 O822 O 0.27624 0.25056 0.36482
 O823 O 0.29474 0.28537 0.32987
 C824 C 0.20934 0.31055 0.31698
 H825 H 0.24796 0.21963 0.33384
 H826 H 0.29650 0.28282 0.25932
 H827 H 0.19909 0.28397 0.25895
 H828 H 0.24642 0.21422 0.19433
 H829 H 0.32904 0.24830 0.32228
 H830 H 0.32650 0.24738 0.19338
 H831 H 0.29367 0.24448 0.14729
 H832 H 0.20540 0.25198 0.14475
 H833 H 0.29295 0.24651 0.37552
 H834 H 0.20219 0.25309 0.37397
 H835 H 0.16979 0.25602 0.32828
 H836 H 0.16760 0.25574 0.19743
 H837 H 0.30849 0.28172 0.34729
 H838 H 0.26245 0.33962 0.27251
 H839 H 0.23507 0.16073 0.24782
 H840 H 0.18636 0.21983 0.17467
 Zr841 Zr 0.75103 0.70406 0.25444
 O842 O 0.76896 0.67692 0.28760
 O843 O 0.72822 0.68127 0.22141
 O844 O 0.72428 0.68515 0.28739
 O845 O 0.80033 0.71028 0.19252
 O846 O 0.70269 0.71707 0.31553
 O847 O 0.77716 0.68176 0.22476
 O848 O 0.70531 0.70976 0.18902
 O849 O 0.71777 0.72547 0.25150
 O850 O 0.75252 0.72316 0.20492
 O851 O 0.75146 0.72765 0.30057
 O852 O 0.78490 0.72516 0.25573
 Zr853 Zr 0.75272 0.79203 0.24880
 Zr854 Zr 0.71914 0.75027 0.29578
 Zr855 Zr 0.78478 0.74563 0.20707
 Zr856 Zr 0.72014 0.74545 0.20307
 O857 O 0.82466 0.74646 0.21288
 O858 O 0.68024 0.74715 0.21024
 O859 O 0.75246 0.76854 0.20212
 O860 O 0.71928 0.77056 0.24718
 O861 O 0.75133 0.77313 0.29856
 O862 O 0.78581 0.77028 0.25142
 C863 C 0.71088 0.68706 0.19846
 C864 C 0.79494 0.68760 0.20217
 C865 C 0.70684 0.69356 0.30904
 O866 O 0.67932 0.75260 0.28977
 O867 O 0.70604 0.78542 0.31420
 O868 O 0.72817 0.81442 0.28159
 C869 C 0.71120 0.80823 0.30531
 O870 O 0.79993 0.71799 0.32397
 Zr871 Zr 0.78374 0.75055 0.29990
 O872 O 0.77550 0.81475 0.28208
 O873 O 0.72101 0.75056 0.35322
 O874 O 0.77599 0.75299 0.35644
 O875 O 0.82379 0.75125 0.29447
 O876 O 0.79614 0.78639 0.31768
 C877 C 0.79113 0.80906 0.30749
 O878 O 0.73323 0.81937 0.21783
 O879 O 0.78290 0.74218 0.14981
 O880 O 0.77708 0.81085 0.21225
 O881 O 0.79782 0.77895 0.18257
 O882 O 0.72625 0.74066 0.14641
 O883 O 0.70704 0.77780 0.17495
 C884 C 0.79309 0.80248 0.18839
 H885 H 0.75329 0.71168 0.18362
 H886 H 0.70415 0.78155 0.24523
 H887 H 0.80148 0.78048 0.25063
 H888 H 0.75101 0.71764 0.32319
 H889 H 0.67242 0.74152 0.18717
 H890 H 0.67186 0.75287 0.31457
 H891 H 0.70334 0.75199 0.36235
 H892 H 0.79189 0.75811 0.36862
 H893 H 0.70982 0.73581 0.13553
 H894 H 0.80061 0.74102 0.14077
 H895 H 0.83198 0.74598 0.18801
 H896 H 0.83082 0.75653 0.31824
 H897 H 0.69329 0.77288 0.15815
 H898 H 0.73948 0.83615 0.22566
 H899 H 0.76288 0.66011 0.27960
 H900 H 0.81060 0.72311 0.34479
 Zr901 Zr 0.75185 0.29700 0.73503
 O902 O 0.73397 0.32750 0.76249
 O903 O 0.77577 0.31585 0.69851
 O904 O 0.77811 0.31868 0.76488
 O905 O 0.70153 0.28582 0.67723
 O906 O 0.79990 0.28952 0.79760
 O907 O 0.72634 0.31667 0.70150
 O908 O 0.79743 0.28392 0.67049
 O909 O 0.78476 0.27491 0.73511
 O910 O 0.74956 0.27332 0.68953
 O911 O 0.75150 0.27815 0.78516
 O912 O 0.71766 0.27687 0.74133
 Zr913 Zr 0.74867 0.20957 0.74591
 Zr914 Zr 0.78348 0.25471 0.78372
 Zr915 Zr 0.71688 0.25181 0.69690
 Zr916 Zr 0.78153 0.25042 0.69084
 O917 O 0.67703 0.25222 0.70391
 O918 O 0.82146 0.24800 0.69639
 O919 O 0.74881 0.22809 0.69520
 O920 O 0.78245 0.22996 0.73921
 O921 O 0.75087 0.23297 0.79179
 O922 O 0.71596 0.23192 0.74555
 C923 C 0.79295 0.30745 0.67657
 C924 C 0.70774 0.30911 0.68170
 C925 C 0.79534 0.31234 0.78783
 O926 O 0.82322 0.25197 0.77642
 O927 O 0.79689 0.22120 0.80709
 O928 O 0.77332 0.19010 0.78111
 C929 C 0.79109 0.19788 0.80226
 O930 O 0.70359 0.29113 0.80816
 Zr931 Zr 0.71885 0.25614 0.78985
 O932 O 0.72532 0.19073 0.78332
 O933 O 0.78210 0.25921 0.84087
 O934 O 0.72705 0.25891 0.84608
 O935 O 0.67875 0.25590 0.78610
 O936 O 0.70576 0.22272 0.81423
 C937 C 0.70983 0.19918 0.80771
 O938 O 0.76737 0.17895 0.71987
 O939 O 0.71849 0.24970 0.63949
 O940 O 0.72406 0.18775 0.71387
 O941 O 0.70271 0.21649 0.67969
 O942 O 0.77512 0.25034 0.63398
 O943 O 0.79316 0.21519 0.66842
 C944 C 0.70763 0.19371 0.68961
 H945 H 0.74892 0.28272 0.66639
 H946 H 0.79737 0.21860 0.73860
 H947 H 0.70010 0.22207 0.74714
 H948 H 0.75214 0.29020 0.80579
 H949 H 0.82908 0.25095 0.67210
 H950 H 0.83093 0.25378 0.80079
 H951 H 0.79985 0.25857 0.84949
 H952 H 0.71115 0.25541 0.85959
 H953 H 0.79164 0.25345 0.62189
 H954 H 0.70074 0.25036 0.63088
 H955 H 0.66955 0.25056 0.67936
 H956 H 0.67186 0.25327 0.81092
 H957 H 0.80665 0.21794 0.65006
 H958 H 0.76087 0.16320 0.73092
 H959 H 0.74041 0.34328 0.75146
 H960 H 0.69320 0.28839 0.83028
 C961 C 0.10886 0.45454 0.93178
 C962 C 0.12872 0.44140 0.91462
 C963 C 0.12366 0.42337 0.88768
 C964 C 0.09851 0.41981 0.87653
 C965 C 0.07867 0.43293 0.89338
 C966 C 0.08333 0.45012 0.92204
 C967 C 0.14454 0.40768 0.87248
 C968 C 0.14095 0.38318 0.86523
 C969 C 0.16081 0.36556 0.85206
 C970 C 0.15774 0.33999 0.85993
 C971 C 0.17442 0.32205 0.84578
 C972 C 0.19454 0.32910 0.82272
 C973 C 0.19809 0.35487 0.81541
 C974 C 0.18139 0.37301 0.83007
 H975 H 0.11363 0.46775 0.95323
 H976 H 0.14801 0.44466 0.92335
 H977 H 0.09408 0.40663 0.85492
 H978 H 0.05959 0.42907 0.88415
 H979 H 0.16331 0.41574 0.87020
 H980 H 0.12262 0.37500 0.87136
 H981 H 0.14206 0.33377 0.87675
 H982 H 0.17097 0.30247 0.85221
 H983 H 0.21335 0.36093 0.79772
 H984 H 0.18401 0.39260 0.82307
 C985 C 0.39320 0.54715 0.41058
 C986 C 0.37435 0.56211 0.39503
 C987 C 0.38061 0.58474 0.37779
 C988 C 0.40631 0.59152 0.37471
 C989 C 0.42521 0.57645 0.38999
 C990 C 0.41884 0.55431 0.40868
 C991 C 0.36002 0.60081 0.36328
 C992 C 0.36173 0.62601 0.36243
 C993 C 0.34156 0.64300 0.34879
 C994 C 0.34259 0.66856 0.35854
 C995 C 0.32542 0.68584 0.34419
 C996 C 0.30678 0.67802 0.31942
 C997 C 0.30516 0.65226 0.31049
 C998 C 0.32242 0.63492 0.32490
 H999 H 0.38759 0.53013 0.42455
 H1000 H 0.35473 0.55633 0.39735
 H1001 H 0.41189 0.60843 0.36050
 H1002 H 0.44476 0.58246 0.38781
 H1003 H 0.34255 0.59167 0.35557
 H1004 H 0.37846 0.63490 0.37355
 H1005 H 0.35710 0.67532 0.37686
 H1006 H 0.32726 0.70549 0.35179
 H1007 H 0.29119 0.64562 0.29127
 H1008 H 0.32125 0.61549 0.31609
 C1009 C 0.89248 0.94890 0.57482
 C1010 C 0.87284 0.93499 0.59057
 C1011 C 0.87822 0.91351 0.61113
 C1012 C 0.90367 0.90681 0.61712
 C1013 C 0.92330 0.92082 0.60171
 C1014 C 0.91794 0.94182 0.57993
 C1015 C 0.85712 0.89840 0.62616
 C1016 C 0.85879 0.87329 0.62894
 C1017 C 0.83862 0.85705 0.64408
 C1018 C 0.83921 0.83133 0.63528
 C1019 C 0.82231 0.81464 0.65153
 C1020 C 0.80447 0.82322 0.67739
 C1021 C 0.80323 0.84917 0.68534
 C1022 C 0.82017 0.86595 0.66890
 H1023 H 0.88768 0.96510 0.55846
 H1024 H 0.85338 0.94066 0.58595
 H1025 H 0.90848 0.89080 0.63385
 H1026 H 0.94267 0.91493 0.60645
 H1027 H 0.83956 0.90800 0.63291
 H1028 H 0.87563 0.86387 0.61859
 H1029 H 0.85322 0.82398 0.61629
 H1030 H 0.82382 0.79483 0.64457
 H1031 H 0.78980 0.85640 0.70524
 H1032 H 0.81944 0.88558 0.67689
 C1033 C 0.56479 0.08392 0.10682
 C1034 C 0.58200 0.10010 0.12358
 C1035 C 0.60803 0.09821 0.11601
 C1036 C 0.61662 0.07948 0.09161
 C1037 C 0.59939 0.06330 0.07477
 C1038 C 0.57323 0.06557 0.08179
 C1039 C 0.62516 0.11725 0.13201
 C1040 C 0.65029 0.11421 0.13524
 C1041 C 0.66662 0.13426 0.15031
 C1042 C 0.68839 0.12768 0.16983
 C1043 C 0.70354 0.14634 0.18551
 C1044 C 0.69737 0.17199 0.18144
 C1045 C 0.67612 0.17851 0.16057
 C1046 C 0.66096 0.15989 0.14514
 H1047 H 0.54480 0.08625 0.11288
 H1048 H 0.57489 0.11443 0.14213
 H1049 H 0.63645 0.07781 0.08432
 H1050 H 0.60654 0.04949 0.05546
 H1051 H 0.61644 0.13437 0.14237
 H1052 H 0.65905 0.09630 0.12849
 H1053 H 0.69332 0.10805 0.17369
 H1054 H 0.71990 0.14066 0.20114
 H1055 H 0.67093 0.19805 0.15653
 H1056 H 0.64486 0.16563 0.12905
 C1057 C 0.89918 0.05685 0.44945
 C1058 C 0.88153 0.07429 0.43675
 C1059 C 0.88741 0.08969 0.40712
 C1060 C 0.91129 0.08733 0.39020
 C1061 C 0.92919 0.07021 0.40338
 C1062 C 0.92337 0.05493 0.43333
 C1063 C 0.86889 0.10898 0.39581
 C1064 C 0.86578 0.11541 0.36105
 C1065 C 0.84712 0.13457 0.34982
 C1066 C 0.83418 0.13113 0.31707
 C1067 C 0.81710 0.14932 0.30501
 C1068 C 0.81315 0.17168 0.32499
 C1069 C 0.82618 0.17520 0.35779
 C1070 C 0.84287 0.15667 0.37030
 H1071 H 0.89422 0.04558 0.47286
 H1072 H 0.86329 0.07591 0.45028
 H1073 H 0.91650 0.09934 0.36770
 H1074 H 0.94771 0.06926 0.39058
 H1075 H 0.85660 0.11714 0.41649
 H1076 H 0.87615 0.10536 0.33993
 H1077 H 0.83733 0.11432 0.30076
 H1078 H 0.80760 0.14623 0.27937
 H1079 H 0.82364 0.19234 0.37356
 H1080 H 0.85303 0.16000 0.39535
 C1081 C 0.38812 0.44868 0.55408
 C1082 C 0.36906 0.43435 0.57069
 C1083 C 0.37533 0.41333 0.59184
 C1084 C 0.40103 0.40757 0.59743
 C1085 C 0.42001 0.42190 0.58110
 C1086 C 0.41384 0.44245 0.55883
 C1087 C 0.35500 0.39776 0.60821
 C1088 C 0.35784 0.37283 0.61251
 C1089 C 0.33895 0.35610 0.62993
 C1090 C 0.34083 0.33014 0.62313
 C1091 C 0.32518 0.31319 0.64131
 C1092 C 0.30732 0.32173 0.66716
 C1093 C 0.30497 0.34784 0.67343
 C1094 C 0.32064 0.36488 0.65502
 H1095 H 0.38270 0.46452 0.53737
 H1096 H 0.34939 0.43935 0.56640
 H1097 H 0.40658 0.39206 0.61466
 H1098 H 0.43957 0.41665 0.58577
 H1099 H 0.33721 0.40682 0.61522
 H1100 H 0.37485 0.36384 0.60193
 H1101 H 0.35482 0.32286 0.60406
 H1102 H 0.32757 0.29327 0.63564
 H1103 H 0.29150 0.35507 0.69327
 H1104 H 0.31899 0.38472 0.66157
 C1105 C 0.61000 0.96267 0.93232
 C1106 C 0.62989 0.94851 0.91701
 C1107 C 0.62483 0.92630 0.89753
 C1108 C 0.59951 0.91925 0.89184
 C1109 C 0.57970 0.93343 0.90675
 C1110 C 0.58466 0.95505 0.92778
 C1111 C 0.64595 0.91040 0.88367
 C1112 C 0.64439 0.88521 0.88436
 C1113 C 0.66399 0.86771 0.87003
 C1114 C 0.66385 0.84287 0.88270
 C1115 C 0.67978 0.82470 0.86726
 C1116 C 0.69615 0.83083 0.83833
 C1117 C 0.69701 0.85597 0.82641
 C1118 C 0.68105 0.87428 0.84211
 H1119 H 0.61447 0.97938 0.94804
 H1120 H 0.64927 0.95446 0.92133
 H1121 H 0.59497 0.90265 0.87592
 H1122 H 0.56046 0.92709 0.90235
 H1123 H 0.66320 0.91949 0.87468
 H1124 H 0.62790 0.87670 0.89694
 H1125 H 0.65088 0.83731 0.90412
 H1126 H 0.67863 0.80561 0.87735
 H1127 H 0.70930 0.86131 0.80409
 H1128 H 0.68133 0.89317 0.83122
 C1129 C 0.06414 0.57430 0.10537
 C1130 C 0.08063 0.59206 0.12023
 C1131 C 0.10658 0.59155 0.11169
 C1132 C 0.11584 0.57237 0.08848
 C1133 C 0.09928 0.55458 0.07346
 C1134 C 0.07312 0.55563 0.08117
 C1135 C 0.12272 0.61234 0.12552
 C1136 C 0.14804 0.61105 0.12837
 C1137 C 0.16337 0.63236 0.14235
 C1138 C 0.18574 0.62727 0.16137
 C1139 C 0.20026 0.64692 0.17572
 C1140 C 0.19296 0.67220 0.17076
 C1141 C 0.17099 0.67732 0.15062
 C1142 C 0.15633 0.65764 0.13661
 H1143 H 0.04416 0.57577 0.11201
 H1144 H 0.07296 0.60660 0.13798
 H1145 H 0.13561 0.57160 0.08060
 H1146 H 0.10685 0.54059 0.05474
 H1147 H 0.11306 0.62923 0.13493
 H1148 H 0.15778 0.59351 0.12243
 H1149 H 0.19173 0.60799 0.16578
 H1150 H 0.21717 0.64227 0.19086
 H1151 H 0.16487 0.69654 0.14612
 H1152 H 0.13962 0.66227 0.12107
 C1153 C 0.39505 0.95493 0.06154
 C1154 C 0.37576 0.93968 0.07535
 C1155 C 0.38167 0.91823 0.09567
 C1156 C 0.40719 0.91287 0.10338
 C1157 C 0.42646 0.92818 0.08985
 C1158 C 0.42065 0.94921 0.06835
 C1159 C 0.36096 0.90192 0.10889
 C1160 C 0.36394 0.87697 0.11235
 C1161 C 0.34402 0.85993 0.12616
 C1162 C 0.34591 0.83418 0.11781
 C1163 C 0.32879 0.81702 0.13259
 C1164 C 0.30948 0.82523 0.15642
 C1165 C 0.30722 0.85113 0.16418
 C1166 C 0.32434 0.86832 0.14929
 H1167 H 0.38989 0.97108 0.04529
 H1168 H 0.35620 0.94433 0.06947
 H1169 H 0.41233 0.89694 0.12006
 H1170 H 0.44593 0.92332 0.09588
 H1171 H 0.34263 0.91052 0.11389
 H1172 H 0.38164 0.86835 0.10366
 H1173 H 0.36095 0.82724 0.10020
 H1174 H 0.33115 0.79723 0.12601
 H1175 H 0.29272 0.85807 0.18268
 H1176 H 0.32265 0.88793 0.15712
 C1177 C 0.60229 0.45508 0.41611
 C1178 C 0.62259 0.44173 0.40077
 C1179 C 0.61834 0.41902 0.38229
 C1180 C 0.59335 0.41058 0.37741
 C1181 C 0.57304 0.42402 0.39238
 C1182 C 0.57734 0.44611 0.41257
 C1183 C 0.64013 0.40396 0.36925
 C1184 C 0.64002 0.37883 0.37183
 C1185 C 0.66106 0.36239 0.35976
 C1186 C 0.66254 0.33815 0.37443
 C1187 C 0.68030 0.32087 0.36131
 C1188 C 0.69690 0.32739 0.33287
 C1189 C 0.69613 0.35202 0.31905
 C1190 C 0.67831 0.36940 0.33232
 H1191 H 0.60618 0.47225 0.43110
 H1192 H 0.64170 0.44866 0.40444
 H1193 H 0.58951 0.39345 0.36229
 H1194 H 0.55404 0.41676 0.38888
 H1195 H 0.65695 0.41374 0.36012
 H1196 H 0.62393 0.36973 0.38462
 H1197 H 0.64946 0.33235 0.39559
 H1198 H 0.68045 0.30211 0.37272
 H1199 H 0.70851 0.35753 0.29690
 H1200 H 0.67736 0.38778 0.31986
 C1201 C 0.89888 0.54499 0.92404
 C1202 C 0.87966 0.55958 0.90874
 C1203 C 0.88551 0.58131 0.88908
 C1204 C 0.91110 0.58752 0.88329
 C1205 C 0.93043 0.57286 0.89827
 C1206 C 0.92469 0.55156 0.91962
 C1207 C 0.86459 0.59722 0.87524
 C1208 C 0.86659 0.62233 0.87311
 C1209 C 0.84588 0.63929 0.86133
 C1210 C 0.84702 0.66469 0.87179
 C1211 C 0.82903 0.68192 0.85960
 C1212 C 0.80946 0.67425 0.83625
 C1213 C 0.80789 0.64865 0.82639
 C1214 C 0.82596 0.63131 0.83873
 H1215 H 0.89328 0.52872 0.93979
 H1216 H 0.86007 0.55426 0.91318
 H1217 H 0.91627 0.60371 0.86715
 H1218 H 0.94984 0.57861 0.89348
 H1219 H 0.84666 0.58821 0.86958
 H1220 H 0.88388 0.63121 0.88233
 H1221 H 0.86214 0.67134 0.88915
 H1222 H 0.83089 0.70145 0.86785
 H1223 H 0.79321 0.64214 0.80819
 H1224 H 0.82474 0.61198 0.82944
 C1225 C 0.06513 0.07275 0.61751
 C1226 C 0.08229 0.08972 0.63256
 C1227 C 0.10806 0.08861 0.62324
 C1228 C 0.11652 0.06974 0.59895
 C1229 C 0.09928 0.05274 0.58371
 C1230 C 0.07330 0.05433 0.59238
 C1231 C 0.12490 0.10863 0.63730
 C1232 C 0.15013 0.10645 0.63992
 C1233 C 0.16592 0.12741 0.65365
 C1234 C 0.18768 0.12208 0.67393
 C1235 C 0.20229 0.14165 0.68834
 C1236 C 0.19561 0.16696 0.68218
 C1237 C 0.17430 0.17221 0.66073
 C1238 C 0.15963 0.15268 0.64662
 H1239 H 0.04530 0.07457 0.62491
 H1240 H 0.07528 0.10411 0.65112
 H1241 H 0.13616 0.06864 0.59048
 H1242 H 0.10618 0.03892 0.56423
 H1243 H 0.11582 0.12577 0.64698
 H1244 H 0.15934 0.08865 0.63389
 H1245 H 0.19305 0.10275 0.67932
 H1246 H 0.21870 0.13693 0.70451
 H1247 H 0.16870 0.19145 0.65516
 H1248 H 0.14343 0.15741 0.63004
 C1249 C 0.10972 0.46256 0.43193
 C1250 C 0.12953 0.44842 0.41634
 C1251 C 0.12432 0.42649 0.39630
 C1252 C 0.09896 0.41972 0.39032
 C1253 C 0.07924 0.43388 0.40553
 C1254 C 0.08434 0.45519 0.42713
 C1255 C 0.14532 0.41053 0.38221
 C1256 C 0.14351 0.38535 0.38240
 C1257 C 0.16299 0.36778 0.36794
 C1258 C 0.16257 0.34286 0.38025
 C1259 C 0.17841 0.32466 0.36472
 C1260 C 0.19498 0.33083 0.33605
 C1261 C 0.19610 0.35604 0.32446
 C1262 C 0.18023 0.37439 0.34027
 H1263 H 0.11430 0.47904 0.44808
 H1264 H 0.14895 0.45415 0.42089
 H1265 H 0.09431 0.40336 0.37397
 H1266 H 0.05996 0.42775 0.40088
 H1267 H 0.16270 0.41953 0.37353
 H1268 H 0.12689 0.37689 0.39470
 H1269 H 0.14945 0.33727 0.40148
 H1270 H 0.17705 0.30552 0.37456
 H1271 H 0.20856 0.36142 0.30235
 H1272 H 0.18072 0.39335 0.32966
 C1273 C 0.39940 0.55727 0.94963
 C1274 C 0.38174 0.57469 0.93690
 C1275 C 0.38760 0.59004 0.90721
 C1276 C 0.41147 0.58766 0.89027
 C1277 C 0.42938 0.57056 0.90348
 C1278 C 0.42357 0.55532 0.93347
 C1279 C 0.36905 0.60929 0.89585
 C1280 C 0.36588 0.61563 0.86106
 C1281 C 0.34717 0.63474 0.84980
 C1282 C 0.33420 0.63123 0.81709
 C1283 C 0.31708 0.64939 0.80500
 C1284 C 0.31314 0.67178 0.82491
 C1285 C 0.32620 0.67536 0.85768
 C1286 C 0.34293 0.65688 0.87022
 H1287 H 0.39445 0.54602 0.97307
 H1288 H 0.36351 0.57633 0.95045
 H1289 H 0.41666 0.59964 0.86772
 H1290 H 0.44789 0.56958 0.89065
 H1291 H 0.35679 0.61749 0.91653
 H1292 H 0.37622 0.60553 0.83997
 H1293 H 0.33734 0.61440 0.80084
 H1294 H 0.30756 0.64625 0.77940
 H1295 H 0.32367 0.69252 0.87339
 H1296 H 0.35311 0.66025 0.89523
 C1297 C 0.56420 0.07465 0.60816
 C1298 C 0.58068 0.09245 0.62295
 C1299 C 0.60661 0.09199 0.61435
 C1300 C 0.61589 0.07279 0.59118
 C1301 C 0.59935 0.05495 0.57624
 C1302 C 0.57320 0.05596 0.58400
 C1303 C 0.62273 0.11283 0.62807
 C1304 C 0.64805 0.11160 0.63079
 C1305 C 0.66336 0.13297 0.64466
 C1306 C 0.68580 0.12794 0.66355
 C1307 C 0.70030 0.14764 0.67780
 C1308 C 0.69292 0.17290 0.67286
 C1309 C 0.67088 0.17795 0.65283
 C1310 C 0.65624 0.15822 0.63893
 H1311 H 0.54422 0.07609 0.61483
 H1312 H 0.57300 0.10701 0.64067
 H1313 H 0.63566 0.07205 0.58325
 H1314 H 0.60693 0.04096 0.55754
 H1315 H 0.61304 0.12970 0.63750
 H1316 H 0.65783 0.09409 0.62484
 H1317 H 0.69185 0.10868 0.66796
 H1318 H 0.71726 0.14304 0.69285
 H1319 H 0.66470 0.19715 0.64836
 H1320 H 0.63947 0.16281 0.62348
 C1321 C 0.88826 0.94825 0.05389
 C1322 C 0.86925 0.93382 0.07046
 C1323 C 0.87558 0.91277 0.09149
 C1324 C 0.90131 0.90705 0.09699
 C1325 C 0.92023 0.92145 0.08071
 C1326 C 0.91400 0.94206 0.05857
 C1327 C 0.85530 0.89713 0.10785
 C1328 C 0.85820 0.87220 0.11210
 C1329 C 0.83939 0.85542 0.12957
 C1330 C 0.84132 0.82946 0.12276
 C1331 C 0.82574 0.81247 0.14098
 C1332 C 0.80789 0.82097 0.16688
 C1333 C 0.80548 0.84707 0.17316
 C1334 C 0.82109 0.86415 0.15472
 H1335 H 0.88279 0.96411 0.03728
 H1336 H 0.84956 0.93880 0.06623
 H1337 H 0.90691 0.89151 0.11413
 H1338 H 0.93981 0.91623 0.08532
 H1339 H 0.83750 0.90615 0.11494
 H1340 H 0.87522 0.86325 0.10145
 H1341 H 0.85529 0.82222 0.10365
 H1342 H 0.82816 0.79256 0.13530
 H1343 H 0.79202 0.85427 0.19304
 H1344 H 0.81940 0.88398 0.16129
 C1345 C 0.89308 0.04760 0.91160
 C1346 C 0.87424 0.06268 0.89628
 C1347 C 0.88054 0.08530 0.87901
 C1348 C 0.90626 0.09193 0.87569
 C1349 C 0.92515 0.07675 0.89074
 C1350 C 0.91876 0.05462 0.90944
 C1351 C 0.85997 0.10148 0.86471
 C1352 C 0.86182 0.12666 0.86375
 C1353 C 0.84169 0.14374 0.85022
 C1354 C 0.84292 0.16932 0.85978
 C1355 C 0.82577 0.18665 0.84550
 C1356 C 0.80695 0.17886 0.82100
 C1357 C 0.80515 0.15309 0.81224
 C1358 C 0.82238 0.13570 0.82658
 H1359 H 0.88746 0.03060 0.92559
 H1360 H 0.85460 0.05701 0.89879
 H1361 H 0.91187 0.10882 0.86144
 H1362 H 0.94472 0.08266 0.88836
 H1363 H 0.84240 0.09242 0.85721
 H1364 H 0.87866 0.13548 0.87466
 H1365 H 0.85757 0.17606 0.87790
 H1366 H 0.82776 0.20632 0.85295
 H1367 H 0.79104 0.14646 0.79323
 H1368 H 0.82105 0.11625 0.81789
 C1369 C 0.06486 0.58404 0.60642
 C1370 C 0.08208 0.60022 0.62316
 C1371 C 0.10810 0.59835 0.61554
 C1372 C 0.11668 0.57964 0.59110
 C1373 C 0.09944 0.56345 0.57428
 C1374 C 0.07328 0.56570 0.58135
 C1375 C 0.12523 0.61739 0.63155
 C1376 C 0.15036 0.61436 0.63480
 C1377 C 0.16667 0.63441 0.64995
 C1378 C 0.18842 0.62782 0.66951
 C1379 C 0.20354 0.64647 0.68527
 C1380 C 0.19736 0.67212 0.68126
 C1381 C 0.17613 0.67865 0.66036
 C1382 C 0.16099 0.66004 0.64485
 H1383 H 0.04488 0.58636 0.61253
 H1384 H 0.07497 0.61454 0.64174
 H1385 H 0.13650 0.57799 0.58379
 H1386 H 0.10658 0.54965 0.55494
 H1387 H 0.11650 0.63450 0.64195
 H1388 H 0.15914 0.59647 0.62801
 H1389 H 0.19336 0.60818 0.67333
 H1390 H 0.21989 0.64078 0.70092
 H1391 H 0.17093 0.69819 0.65636
 H1392 H 0.14490 0.66579 0.62874
 C1393 C 0.61060 0.95356 0.43347
 C1394 C 0.63042 0.94041 0.41620
 C1395 C 0.62524 0.92248 0.38910
 C1396 C 0.60002 0.91904 0.37800
 C1397 C 0.58029 0.93220 0.39503
 C1398 C 0.58523 0.94924 0.42352
 C1399 C 0.64602 0.90677 0.37371
 C1400 C 0.64230 0.88232 0.36626
 C1401 C 0.66205 0.86467 0.35285
 C1402 C 0.65886 0.83908 0.36046
 C1403 C 0.67543 0.82113 0.34609
 C1404 C 0.69556 0.82819 0.32307
 C1405 C 0.69923 0.85398 0.31599
 C1406 C 0.68263 0.87213 0.33089
 H1407 H 0.61513 0.96670 0.45509
 H1408 H 0.64973 0.94354 0.42496
 H1409 H 0.59548 0.90594 0.35634
 H1410 H 0.56108 0.92863 0.38622
 H1411 H 0.66482 0.91476 0.37145
 H1412 H 0.62395 0.87420 0.37239
 H1413 H 0.64316 0.83285 0.37727
 H1414 H 0.67188 0.80154 0.35233
 H1415 H 0.71450 0.86005 0.29834
 H1416 H 0.68535 0.89175 0.32407
 C1417 C 0.39242 0.44886 0.07415
 C1418 C 0.37275 0.43495 0.08981
 C1419 C 0.37810 0.41347 0.11042
 C1420 C 0.40354 0.40680 0.11654
 C1421 C 0.42319 0.42081 0.10120
 C1422 C 0.41788 0.44180 0.07939
 C1423 C 0.35697 0.39835 0.12534
 C1424 C 0.35867 0.37325 0.12821
 C1425 C 0.33846 0.35699 0.14324
 C1426 C 0.33915 0.33126 0.13455
 C1427 C 0.32220 0.31457 0.15068
 C1428 C 0.30420 0.32317 0.17630
 C1429 C 0.30288 0.34912 0.18416
 C1430 C 0.31988 0.36590 0.16783
 H1431 H 0.38764 0.46506 0.05776
 H1432 H 0.35330 0.44060 0.08510
 H1433 H 0.40832 0.39080 0.13331
 H1434 H 0.44256 0.41493 0.10605
 H1435 H 0.33938 0.40793 0.13194
 H1436 H 0.37556 0.36384 0.11800
 H1437 H 0.35326 0.32390 0.11572
 H1438 H 0.32378 0.29475 0.14380
 H1439 H 0.28934 0.35636 0.20388
 H1440 H 0.31907 0.38555 0.17575
 C1441 C 0.56550 0.57211 0.11779
 C1442 C 0.58270 0.58902 0.13287
 C1443 C 0.60845 0.58796 0.12335
 C1444 C 0.61682 0.56919 0.09884
 C1445 C 0.59954 0.55225 0.08357
 C1446 C 0.57359 0.55380 0.09243
 C1447 C 0.62532 0.60795 0.13741
 C1448 C 0.65056 0.60579 0.13978
 C1449 C 0.66638 0.62673 0.15349
 C1450 C 0.68823 0.62137 0.17356
 C1451 C 0.70287 0.64092 0.18796
 C1452 C 0.69614 0.66624 0.18197
 C1453 C 0.67474 0.67152 0.16072
 C1454 C 0.66004 0.65201 0.14663
 H1455 H 0.54569 0.57389 0.12534
 H1456 H 0.57576 0.60334 0.15160
 H1457 H 0.63644 0.56814 0.09021
 H1458 H 0.60638 0.53852 0.06391
 H1459 H 0.61627 0.62505 0.14730
 H1460 H 0.65978 0.58802 0.13354
 H1461 H 0.69364 0.60203 0.17881
 H1462 H 0.71934 0.63617 0.20398
 H1463 H 0.66910 0.69077 0.15529
 H1464 H 0.64377 0.65676 0.13021
 C1465 C 0.10229 0.95527 0.91570
 C1466 C 0.12259 0.94192 0.90036
 C1467 C 0.11833 0.91923 0.88182
 C1468 C 0.09333 0.91083 0.87689
 C1469 C 0.07302 0.92428 0.89186
 C1470 C 0.07733 0.94633 0.91212
 C1471 C 0.14011 0.90415 0.86882
 C1472 C 0.13997 0.87902 0.87137
 C1473 C 0.16103 0.86256 0.85938
 C1474 C 0.16246 0.83832 0.87406
 C1475 C 0.18025 0.82103 0.86101
 C1476 C 0.19691 0.82754 0.83264
 C1477 C 0.19618 0.85217 0.81881
 C1478 C 0.17834 0.86956 0.83201
 H1479 H 0.10619 0.97242 0.93075
 H1480 H 0.14171 0.94883 0.90408
 H1481 H 0.08949 0.89372 0.86173
 H1482 H 0.05402 0.91703 0.88833
 H1483 H 0.15696 0.91391 0.85975
 H1484 H 0.12385 0.86993 0.88410
 H1485 H 0.14934 0.83252 0.89516
 H1486 H 0.18036 0.80227 0.87242
 H1487 H 0.20860 0.85768 0.79671
 H1488 H 0.17742 0.88794 0.81954
 C1489 C 0.39816 0.04463 0.42172
 C1490 C 0.37886 0.05909 0.40634
 C1491 C 0.38445 0.08196 0.38928
 C1492 C 0.40993 0.08950 0.38622
 C1493 C 0.42927 0.07496 0.40137
 C1494 C 0.42358 0.05257 0.41986
 C1495 C 0.36342 0.09762 0.37522
 C1496 C 0.36449 0.12285 0.37530
 C1497 C 0.34379 0.13957 0.36278
 C1498 C 0.34406 0.16480 0.37423
 C1499 C 0.32624 0.18194 0.36130
 C1500 C 0.30770 0.17433 0.33626
 C1501 C 0.30689 0.14886 0.32550
 C1502 C 0.32482 0.13164 0.33851
 H1503 H 0.39309 0.02737 0.43551
 H1504 H 0.35942 0.05275 0.40867
 H1505 H 0.41499 0.10662 0.37212
 H1506 H 0.44862 0.08154 0.39913
 H1507 H 0.34615 0.08816 0.36730
 H1508 H 0.38101 0.13196 0.38667
 H1509 H 0.35843 0.17143 0.39289
 H1510 H 0.32745 0.20136 0.37032
 H1511 H 0.29298 0.14242 0.30605
 H1512 H 0.32426 0.11246 0.32844
 C1513 C 0.89501 0.45535 0.56230
 C1514 C 0.87572 0.44020 0.57633
 C1515 C 0.88162 0.41873 0.59662
 C1516 C 0.90716 0.41326 0.60409
 C1517 C 0.92643 0.42847 0.59033
 C1518 C 0.92062 0.44951 0.56887
 C1519 C 0.86090 0.40252 0.61005
 C1520 C 0.86378 0.37756 0.61344
 C1521 C 0.84383 0.36058 0.62737
 C1522 C 0.84559 0.33484 0.61893
 C1523 C 0.82847 0.31773 0.63380
 C1524 C 0.80928 0.32598 0.65781
 C1525 C 0.80715 0.35188 0.66565
 C1526 C 0.82428 0.36902 0.65066
 H1527 H 0.88985 0.47152 0.54609
 H1528 H 0.85615 0.44494 0.57064
 H1529 H 0.91230 0.39732 0.62073
 H1530 H 0.94592 0.42353 0.59617
 H1531 H 0.84262 0.41121 0.61523
 H1532 H 0.88140 0.36887 0.60457
 H1533 H 0.86054 0.32786 0.60119
 H1534 H 0.83073 0.29794 0.62715
 H1535 H 0.79274 0.35885 0.68428
 H1536 H 0.82269 0.38863 0.65855
 C1537 C 0.89660 0.55800 0.04388
 C1538 C 0.87799 0.57418 0.05826
 C1539 C 0.88097 0.58518 0.09278
 C1540 C 0.90296 0.57972 0.11270
 C1541 C 0.92170 0.56392 0.09812
 C1542 C 0.91884 0.55304 0.06346
 C1543 C 0.86202 0.60378 0.10621
 C1544 C 0.85706 0.60741 0.14167
 C1545 C 0.84002 0.62760 0.15546
 C1546 C 0.82668 0.62396 0.18812
 C1547 C 0.81162 0.64325 0.20295
 C1548 C 0.81012 0.66682 0.18585
 C1549 C 0.82357 0.67048 0.15319
 C1550 C 0.83826 0.65105 0.13805
 H1551 H 0.89400 0.55010 0.01694
 H1552 H 0.86135 0.57833 0.04224
 H1553 H 0.90620 0.58839 0.13896
 H1554 H 0.93867 0.56051 0.11381
 H1555 H 0.85172 0.61457 0.08619
 H1556 H 0.86542 0.59490 0.16147
 H1557 H 0.82797 0.60615 0.20224
 H1558 H 0.80160 0.63988 0.22824
 H1559 H 0.82280 0.68841 0.13934
 H1560 H 0.84883 0.65469 0.11333
 C1561 C 0.56053 0.41523 0.58128
 C1562 C 0.57779 0.39841 0.59644
 C1563 C 0.60388 0.40092 0.59009
 C1564 C 0.61242 0.42081 0.56803
 C1565 C 0.59506 0.43770 0.55264
 C1566 C 0.56887 0.43502 0.55896
 C1567 C 0.62106 0.38165 0.60567
 C1568 C 0.64594 0.38493 0.61126
 C1569 C 0.66202 0.36521 0.62810
 C1570 C 0.68325 0.37238 0.64846
 C1571 C 0.69822 0.35424 0.66571
 C1572 C 0.69242 0.32845 0.66261
 C1573 C 0.67161 0.32127 0.64124
 C1574 C 0.65666 0.33938 0.62411
 H1575 H 0.54055 0.41246 0.58679
 H1576 H 0.57065 0.38323 0.61315
 H1577 H 0.63235 0.42304 0.56177
 H1578 H 0.60213 0.45259 0.53536
 H1579 H 0.61230 0.36433 0.61469
 H1580 H 0.65454 0.40299 0.60566
 H1581 H 0.68798 0.39212 0.65161
 H1582 H 0.71421 0.36048 0.68169
 H1583 H 0.66673 0.30160 0.63781
 H1584 H 0.64104 0.33303 0.60752
 C1585 C 0.10462 0.05242 0.45351
 C1586 C 0.12371 0.06708 0.43762
 C1587 C 0.11757 0.08667 0.41374
 C1588 C 0.09194 0.09081 0.40516
 C1589 C 0.07291 0.07615 0.42086
 C1590 C 0.07894 0.05685 0.44541
 C1591 C 0.13809 0.10228 0.39770
 C1592 C 0.13443 0.12654 0.38904
 C1593 C 0.15401 0.14322 0.37304
 C1594 C 0.15054 0.16931 0.37657
 C1595 C 0.16731 0.18607 0.36017
 C1596 C 0.18798 0.17723 0.33930
 C1597 C 0.19171 0.15103 0.33599
 C1598 C 0.17490 0.13415 0.35273
 H1599 H 0.10999 0.03763 0.47212
 H1600 H 0.14331 0.06334 0.44440
 H1601 H 0.08649 0.10513 0.38589
 H1602 H 0.05341 0.07997 0.41361
 H1603 H 0.15676 0.09395 0.39488
 H1604 H 0.11629 0.13519 0.39540
 H1605 H 0.13458 0.17683 0.39189
 H1606 H 0.16369 0.20606 0.36341
 H1607 H 0.20736 0.14356 0.32002
 H1608 H 0.17789 0.11415 0.34875
 C1609 C 0.43944 0.92379 0.90061
 C1610 C 0.42326 0.90577 0.88590
 C1611 C 0.39740 0.90576 0.89482
 C1612 C 0.38794 0.92437 0.91881
 C1613 C 0.40421 0.94245 0.93371
 C1614 C 0.43022 0.94221 0.92500
 C1615 C 0.38150 0.88527 0.87987
 C1616 C 0.35629 0.88679 0.87619
 C1617 C 0.34128 0.86609 0.85992
 C1618 C 0.31910 0.87194 0.84092
 C1619 C 0.30490 0.85291 0.82441
 C1620 C 0.31243 0.82751 0.82697
 C1621 C 0.33431 0.82162 0.84686
 C1622 C 0.34856 0.84067 0.86320
 H1623 H 0.45934 0.92296 0.89323
 H1624 H 0.43105 0.89161 0.86761
 H1625 H 0.36822 0.92460 0.92705
 H1626 H 0.39653 0.95620 0.95270
 H1627 H 0.39133 0.86870 0.86970
 H1628 H 0.34649 0.90417 0.88288
 H1629 H 0.31296 0.89135 0.83835
 H1630 H 0.28802 0.85814 0.80962
 H1631 H 0.34052 0.80226 0.84975
 H1632 H 0.36508 0.83537 0.87871
 C1633 C 0.06462 0.91507 0.60347
 C1634 C 0.08170 0.89807 0.61847
 C1635 C 0.10786 0.90154 0.61453
 C1636 C 0.11671 0.92264 0.59522
 C1637 C 0.09951 0.93972 0.57990
 C1638 C 0.07323 0.93600 0.58364
 C1639 C 0.12486 0.88192 0.62937
 C1640 C 0.14920 0.88563 0.63807
 C1641 C 0.16492 0.86537 0.65408
 C1642 C 0.18423 0.87171 0.67847
 C1643 C 0.19875 0.85289 0.69491
 C1644 C 0.19442 0.82729 0.68693
 C1645 C 0.17549 0.82102 0.66175
 C1646 C 0.16099 0.83982 0.64541
 H1647 H 0.04456 0.91148 0.60700
 H1648 H 0.07437 0.88197 0.63309
 H1649 H 0.13678 0.92563 0.59095
 H1650 H 0.10678 0.95555 0.56466
 H1651 H 0.11633 0.86384 0.63520
 H1652 H 0.15737 0.90424 0.63583
 H1653 H 0.18778 0.89126 0.68533
 H1654 H 0.21325 0.85843 0.71403
 H1655 H 0.17185 0.80156 0.65455
 H1656 H 0.14687 0.83425 0.62574
 C1657 C 0.60072 0.54931 0.42779
 C1658 C 0.62019 0.56358 0.41224
 C1659 C 0.61465 0.58567 0.39306
 C1660 C 0.58913 0.59279 0.38870
 C1661 C 0.56968 0.57850 0.40404
 C1662 C 0.57521 0.55668 0.42400
 C1663 C 0.63566 0.60072 0.37747
 C1664 C 0.63403 0.62580 0.37402
 C1665 C 0.65436 0.64191 0.35886
 C1666 C 0.65387 0.66764 0.36757
 C1667 C 0.67138 0.68411 0.35222
 C1668 C 0.68979 0.67533 0.32733
 C1669 C 0.69063 0.64943 0.31895
 C1670 C 0.67306 0.63284 0.33454
 H1671 H 0.60567 0.53245 0.44263
 H1672 H 0.63967 0.55754 0.41562
 H1673 H 0.58407 0.60923 0.37302
 H1674 H 0.55027 0.58460 0.40021
 H1675 H 0.65320 0.59107 0.37075
 H1676 H 0.61726 0.63540 0.38425
 H1677 H 0.63965 0.67514 0.38611
 H1678 H 0.67010 0.70389 0.35944
 H1679 H 0.70442 0.64207 0.29967
 H1680 H 0.67367 0.61321 0.32653
 C1681 C 0.39440 0.06429 0.04754
 C1682 C 0.37494 0.07911 0.06263
 C1683 C 0.37852 0.09201 0.09563
 C1684 C 0.40205 0.09004 0.11312
 C1685 C 0.42162 0.07563 0.09775
 C1686 C 0.41806 0.06266 0.06473
 C1687 C 0.35829 0.10888 0.10987
 C1688 C 0.35465 0.11315 0.14551
 C1689 C 0.33635 0.13205 0.15982
 C1690 C 0.32523 0.12846 0.19417
 C1691 C 0.30939 0.14694 0.20953
 C1692 C 0.30491 0.16966 0.19119
 C1693 C 0.31597 0.17318 0.15673
 C1694 C 0.33141 0.15454 0.14111
 H1695 H 0.39114 0.05463 0.02199
 H1696 H 0.35706 0.08058 0.04847
 H1697 H 0.40568 0.10028 0.13808
 H1698 H 0.43962 0.07474 0.11169
 H1699 H 0.34591 0.11779 0.09035
 H1700 H 0.36531 0.10230 0.16509
 H1701 H 0.32900 0.11141 0.20928
 H1702 H 0.30130 0.14378 0.23624
 H1703 H 0.31290 0.19051 0.14195
 H1704 H 0.34020 0.15820 0.11502
 C1705 C 0.94054 0.41924 0.89341
 C1706 C 0.92386 0.40305 0.87569
 C1707 C 0.89761 0.40588 0.87978
 C1708 C 0.88824 0.42550 0.90202
 C1709 C 0.90495 0.44173 0.92015
 C1710 C 0.93150 0.43875 0.91647
 C1711 C 0.88105 0.38686 0.86234
 C1712 C 0.85660 0.39057 0.85405
 C1713 C 0.84100 0.37046 0.83719
 C1714 C 0.82119 0.37690 0.81365
 C1715 C 0.80643 0.35813 0.79726
 C1716 C 0.81097 0.33251 0.80456
 C1717 C 0.83054 0.32618 0.82870
 C1718 C 0.84528 0.34487 0.84487
 H1719 H 0.96065 0.41597 0.88928
 H1720 H 0.93159 0.38804 0.85883
 H1721 H 0.86808 0.42792 0.90642
 H1722 H 0.89693 0.45636 0.93743
 H1723 H 0.88991 0.36913 0.85477
 H1724 H 0.84806 0.40896 0.85806
 H1725 H 0.81734 0.39649 0.80758
 H1726 H 0.79143 0.36370 0.77899
 H1727 H 0.83447 0.30671 0.83534
 H1728 H 0.85978 0.33920 0.86386
 C1729 C 0.60768 0.05417 0.93004
 C1730 C 0.62724 0.06827 0.91449
 C1731 C 0.62172 0.08978 0.89406
 C1732 C 0.59625 0.09625 0.88783
 C1733 C 0.57670 0.08205 0.90302
 C1734 C 0.58219 0.06111 0.92482
 C1735 C 0.64269 0.10518 0.87944
 C1736 C 0.64079 0.13030 0.87709
 C1737 C 0.66076 0.14673 0.86193
 C1738 C 0.66019 0.17241 0.87106
 C1739 C 0.67694 0.18922 0.85470
 C1740 C 0.69455 0.18076 0.82846
 C1741 C 0.69572 0.15487 0.82015
 C1742 C 0.67896 0.13800 0.83667
 H1743 H 0.61253 0.03797 0.94637
 H1744 H 0.64673 0.06276 0.91921
 H1745 H 0.59138 0.11228 0.87117
 H1746 H 0.55730 0.08781 0.89823
 H1747 H 0.66032 0.09577 0.87253
 H1748 H 0.62389 0.13952 0.88765
 H1749 H 0.64633 0.17961 0.89037
 H1750 H 0.67548 0.20900 0.86184
 H1751 H 0.70894 0.14773 0.79990
 H1752 H 0.67963 0.11843 0.82834
 C1753 C 0.39076 0.55759 0.53896
 C1754 C 0.37286 0.57502 0.55166
 C1755 C 0.37583 0.58658 0.58569
 C1756 C 0.39695 0.58034 0.60702
 C1757 C 0.41506 0.56324 0.59410
 C1758 C 0.41227 0.55190 0.55979
 C1759 C 0.35765 0.60620 0.59747
 C1760 C 0.35140 0.60952 0.63242
 C1761 C 0.33451 0.62991 0.64519
 C1762 C 0.31946 0.62573 0.67596
 C1763 C 0.30476 0.64512 0.69070
 C1764 C 0.30530 0.66939 0.67549
 C1765 C 0.32014 0.67353 0.64426
 C1766 C 0.33455 0.65390 0.62908
 H1767 H 0.38834 0.54943 0.51215
 H1768 H 0.35682 0.57973 0.53472
 H1769 H 0.40006 0.58942 0.63303
 H1770 H 0.43155 0.55934 0.61056
 H1771 H 0.34876 0.61765 0.57683
 H1772 H 0.35830 0.59634 0.65249
 H1773 H 0.31928 0.60743 0.68888
 H1774 H 0.29357 0.64121 0.71476
 H1775 H 0.32100 0.69201 0.63200
 H1776 H 0.34645 0.65777 0.60571
 C1777 C 0.06985 0.42649 0.10733
 C1778 C 0.08659 0.40930 0.12275
 C1779 C 0.11178 0.40758 0.11064
 C1780 C 0.12015 0.42410 0.08327
 C1781 C 0.10327 0.44138 0.06763
 C1782 C 0.07776 0.44237 0.07899
 C1783 C 0.12779 0.38713 0.12562
 C1784 C 0.15320 0.38704 0.12542
 C1785 C 0.16792 0.36620 0.14188
 C1786 C 0.19078 0.37155 0.15950
 C1787 C 0.20424 0.35247 0.17711
 C1788 C 0.19533 0.32749 0.17687
 C1789 C 0.17300 0.32197 0.15781
 C1790 C 0.15941 0.34110 0.14056
 H1791 H 0.05041 0.42676 0.11698
 H1792 H 0.07964 0.39687 0.14381
 H1793 H 0.13933 0.42304 0.07277
 H1794 H 0.10993 0.45317 0.04565
 H1795 H 0.11795 0.37181 0.13893
 H1796 H 0.16346 0.40326 0.11551
 H1797 H 0.19788 0.39067 0.16052
 H1798 H 0.22153 0.35734 0.19120
 H1799 H 0.16568 0.30293 0.15684
 H1800 H 0.14225 0.33621 0.12621
 C1801 C 0.93285 0.92561 0.39549
 C1802 C 0.91592 0.90899 0.37912
 C1803 C 0.89019 0.90915 0.38883
 C1804 C 0.88151 0.92687 0.41473
 C1805 C 0.89854 0.94351 0.43134
 C1806 C 0.92452 0.94271 0.42242
 C1807 C 0.87376 0.88917 0.37359
 C1808 C 0.84844 0.89067 0.37147
 C1809 C 0.83323 0.86963 0.35658
 C1810 C 0.81147 0.87482 0.33620
 C1811 C 0.79756 0.85519 0.32052
 C1812 C 0.80490 0.82993 0.32558
 C1813 C 0.82612 0.82478 0.34728
 C1814 C 0.84013 0.84439 0.36256
 H1815 H 0.95267 0.92443 0.38780
 H1816 H 0.92310 0.89552 0.35930
 H1817 H 0.86189 0.92722 0.42344
 H1818 H 0.89149 0.95632 0.45211
 H1819 H 0.88322 0.87259 0.36267
 H1820 H 0.83874 0.90799 0.37880
 H1821 H 0.80561 0.89413 0.33162
 H1822 H 0.78116 0.85980 0.30425
 H1823 H 0.83222 0.80558 0.35197
 H1824 H 0.85635 0.83974 0.37914
 C1825 C 0.89437 0.56437 0.54793
 C1826 C 0.87494 0.57918 0.56314
 C1827 C 0.87862 0.59212 0.59607
 C1828 C 0.90223 0.59023 0.61337
 C1829 C 0.92176 0.57584 0.59789
 C1830 C 0.91811 0.56282 0.56494
 C1831 C 0.85840 0.60895 0.61044
 C1832 C 0.85492 0.61325 0.64611
 C1833 C 0.83664 0.63212 0.66055
 C1834 C 0.82576 0.62858 0.69507
 C1835 C 0.80996 0.64704 0.71055
 C1836 C 0.80529 0.66970 0.69216
 C1837 C 0.81610 0.67318 0.65753
 C1838 C 0.83149 0.65455 0.64179
 H1839 H 0.89103 0.55467 0.52243
 H1840 H 0.85700 0.58059 0.54911
 H1841 H 0.90593 0.60050 0.63828
 H1842 H 0.93982 0.57500 0.61170
 H1843 H 0.84591 0.61779 0.59101
 H1844 H 0.86570 0.60246 0.66561
 H1845 H 0.82969 0.61158 0.71021
 H1846 H 0.80208 0.64393 0.73740
 H1847 H 0.81287 0.69046 0.64272
 H1848 H 0.84010 0.65818 0.61557
 C1849 C 0.56455 0.41443 0.10238
 C1850 C 0.58162 0.39743 0.11742
 C1851 C 0.60779 0.40111 0.11396
 C1852 C 0.61665 0.42239 0.09507
 C1853 C 0.59945 0.43946 0.07973
 C1854 C 0.57317 0.43555 0.08301
 C1855 C 0.62481 0.38154 0.12889
 C1856 C 0.64905 0.38537 0.13804
 C1857 C 0.66480 0.36514 0.15410
 C1858 C 0.68393 0.37152 0.17876
 C1859 C 0.69848 0.35273 0.19523
 C1860 C 0.69435 0.32713 0.18702
 C1861 C 0.67560 0.32084 0.16159
 C1862 C 0.66107 0.33960 0.14521
 H1863 H 0.54449 0.41068 0.10553
 H1864 H 0.57429 0.38118 0.13169
 H1865 H 0.63673 0.42554 0.09118
 H1866 H 0.60673 0.45545 0.06484
 H1867 H 0.61636 0.36337 0.13440
 H1868 H 0.65710 0.40405 0.13611
 H1869 H 0.68732 0.39107 0.18580
 H1870 H 0.71285 0.35830 0.21456
 H1871 H 0.67211 0.30137 0.15421
 H1872 H 0.64711 0.33401 0.12533
 C1873 C 0.43963 0.91663 0.39783
 C1874 C 0.42310 0.90035 0.38000
 C1875 C 0.39684 0.90437 0.38135
 C1876 C 0.38736 0.92524 0.40107
 C1877 C 0.40398 0.94156 0.41924
 C1878 C 0.43033 0.93734 0.41798
 C1879 C 0.38030 0.88537 0.36381
 C1880 C 0.35634 0.88958 0.35335
 C1881 C 0.34073 0.86950 0.33641
 C1882 C 0.32189 0.87592 0.31126
 C1883 C 0.30716 0.85718 0.29473
 C1884 C 0.31079 0.83162 0.30341
 C1885 C 0.32936 0.82535 0.32914
 C1886 C 0.34404 0.84401 0.34551
 H1887 H 0.45976 0.91267 0.39622
 H1888 H 0.43092 0.88436 0.36522
 H1889 H 0.36719 0.92863 0.40342
 H1890 H 0.39617 0.95728 0.43456
 H1891 H 0.38882 0.86718 0.35803
 H1892 H 0.34829 0.90832 0.35559
 H1893 H 0.31878 0.89544 0.30407
 H1894 H 0.29295 0.86272 0.27520
 H1895 H 0.33254 0.80595 0.33691
 H1896 H 0.35770 0.83837 0.36574
 C1897 C 0.10064 0.04978 0.92823
 C1898 C 0.12005 0.06417 0.91276
 C1899 C 0.11441 0.08624 0.89360
 C1900 C 0.08887 0.09324 0.88919
 C1901 C 0.06948 0.07883 0.90444
 C1902 C 0.07510 0.05702 0.92438
 C1903 C 0.13537 0.10140 0.87805
 C1904 C 0.13359 0.12647 0.87450
 C1905 C 0.15382 0.14266 0.85926
 C1906 C 0.15315 0.16842 0.86776
 C1907 C 0.17057 0.18494 0.85233
 C1908 C 0.18908 0.17619 0.82758
 C1909 C 0.19009 0.15026 0.81940
 C1910 C 0.17261 0.13363 0.83506
 H1911 H 0.10565 0.03294 0.94305
 H1912 H 0.13956 0.05823 0.91618
 H1913 H 0.08374 0.10965 0.87351
 H1914 H 0.05005 0.08484 0.90056
 H1915 H 0.15296 0.09184 0.87139
 H1916 H 0.11676 0.13599 0.88466
 H1917 H 0.13885 0.17589 0.88620
 H1918 H 0.16916 0.20474 0.85939
 H1919 H 0.20397 0.14292 0.80024
 H1920 H 0.17337 0.11397 0.82720
 C1921 C 0.06071 0.91486 0.08043
 C1922 C 0.07799 0.89796 0.09536
 C1923 C 0.10407 0.90047 0.08889
 C1924 C 0.11258 0.92043 0.06694
 C1925 C 0.09520 0.93740 0.05179
 C1926 C 0.06901 0.93472 0.05822
 C1927 C 0.12127 0.88113 0.10425
 C1928 C 0.14617 0.88438 0.10976
 C1929 C 0.16226 0.86461 0.12646
 C1930 C 0.18349 0.87173 0.14683
 C1931 C 0.19845 0.85355 0.16400
 C1932 C 0.19264 0.82776 0.16080
 C1933 C 0.17183 0.82064 0.13939
 C1934 C 0.15688 0.83880 0.12234
 H1935 H 0.04074 0.91209 0.08602
 H1936 H 0.07088 0.88272 0.11199
 H1937 H 0.13249 0.92266 0.06060
 H1938 H 0.10224 0.95234 0.03459
 H1939 H 0.11252 0.86379 0.11318
 H1940 H 0.15476 0.90246 0.10425
 H1941 H 0.18823 0.89146 0.15008
 H1942 H 0.21445 0.85974 0.18001
 H1943 H 0.16694 0.80097 0.13588
 H1944 H 0.14126 0.83249 0.10573
 C1945 C 0.93915 0.42382 0.40090
 C1946 C 0.92297 0.40578 0.38625
 C1947 C 0.89712 0.40577 0.39522
 C1948 C 0.88766 0.42439 0.41920
 C1949 C 0.90394 0.44249 0.43405
 C1950 C 0.92994 0.44226 0.42530
 C1951 C 0.88122 0.38526 0.38031
 C1952 C 0.85601 0.38675 0.37662
 C1953 C 0.84104 0.36604 0.36032
 C1954 C 0.81889 0.37188 0.34124
 C1955 C 0.80475 0.35284 0.32465
 C1956 C 0.81230 0.32745 0.32723
 C1957 C 0.83414 0.32157 0.34720
 C1958 C 0.84834 0.34063 0.36362
 H1959 H 0.95904 0.42299 0.39349
 H1960 H 0.93076 0.39162 0.36797
 H1961 H 0.86795 0.42461 0.42746
 H1962 H 0.89627 0.45625 0.45303
 H1963 H 0.89107 0.36869 0.37015
 H1964 H 0.84620 0.40413 0.38331
 H1965 H 0.81274 0.39128 0.33865
 H1966 H 0.78788 0.35805 0.30981
 H1967 H 0.84036 0.30222 0.35011
 H1968 H 0.86484 0.33535 0.37919
 C1969 C 0.39676 0.05850 0.54596
 C1970 C 0.37813 0.07474 0.56014
 C1971 C 0.38105 0.08590 0.59457
 C1972 C 0.40302 0.08053 0.61460
 C1973 C 0.42179 0.06467 0.60021
 C1974 C 0.41897 0.05363 0.56565
 C1975 C 0.36206 0.10452 0.60778
 C1976 C 0.35700 0.10826 0.64319
 C1977 C 0.33985 0.12844 0.65675
 C1978 C 0.32642 0.12485 0.68934
 C1979 C 0.31123 0.14413 0.70394
 C1980 C 0.30970 0.16764 0.68668
 C1981 C 0.32325 0.17125 0.65409
 C1982 C 0.33806 0.15183 0.63917
 H1983 H 0.39420 0.05048 0.51908
 H1984 H 0.36150 0.07881 0.54403
 H1985 H 0.40622 0.08931 0.64079
 H1986 H 0.43873 0.06133 0.61598
 H1987 H 0.35178 0.11521 0.58764
 H1988 H 0.36535 0.09585 0.66313
 H1989 H 0.32772 0.10709 0.70358
 H1990 H 0.30115 0.14080 0.72919
 H1991 H 0.32246 0.18914 0.64012
 H1992 H 0.34870 0.15543 0.61450
 C1993 C 0.60489 0.55197 0.95340
 C1994 C 0.62408 0.56663 0.93773
 C1995 C 0.61804 0.58664 0.91452
 C1996 C 0.59241 0.59122 0.90639
 C1997 C 0.57329 0.57656 0.92187
 C1998 C 0.57922 0.55682 0.94575
 C1999 C 0.63867 0.60218 0.89868
 C2000 C 0.63531 0.62662 0.89083
 C2001 C 0.65503 0.64324 0.87502
 C2002 C 0.65200 0.66932 0.87938
 C2003 C 0.66886 0.68606 0.86312
 C2004 C 0.68919 0.67721 0.84157
 C2005 C 0.69252 0.65101 0.83750
 C2006 C 0.67561 0.63415 0.85408
 H2007 H 0.61020 0.53685 0.97149
 H2008 H 0.64367 0.56255 0.94415
 H2009 H 0.58704 0.60590 0.88764
 H2010 H 0.55379 0.58072 0.91498
 H2011 H 0.65720 0.59363 0.89532
 H2012 H 0.61736 0.63544 0.89771
 H2013 H 0.63629 0.67686 0.89520
 H2014 H 0.66556 0.70605 0.86698
 H2015 H 0.70789 0.64353 0.82098
 H2016 H 0.67827 0.61416 0.84947
 C2017 C 0.43257 0.42608 0.89503
 C2018 C 0.41554 0.40956 0.87866
 C2019 C 0.38981 0.40986 0.88839
 C2020 C 0.38124 0.42763 0.91429
 C2021 C 0.39836 0.44416 0.93089
 C2022 C 0.42434 0.44322 0.92198
 C2023 C 0.37328 0.38995 0.87319
 C2024 C 0.34796 0.39157 0.87111
 C2025 C 0.33263 0.37056 0.85638
 C2026 C 0.31090 0.37578 0.83595
 C2027 C 0.29690 0.35615 0.82041
 C2028 C 0.30413 0.33088 0.82566
 C2029 C 0.32531 0.32571 0.84742
 C2030 C 0.33941 0.34531 0.86256
 H2031 H 0.45238 0.42480 0.88735
 H2032 H 0.42264 0.39605 0.85884
 H2033 H 0.36162 0.42808 0.92301
 H2034 H 0.39138 0.45700 0.95168
 H2035 H 0.38264 0.37331 0.86231
 H2036 H 0.33835 0.40895 0.87839
 H2037 H 0.30515 0.39509 0.83122
 H2038 H 0.28054 0.36078 0.80408
 H2039 H 0.33134 0.30650 0.85226
 H2040 H 0.35561 0.34064 0.87918
 C2041 C 0.89084 0.05738 0.03940
 C2042 C 0.87298 0.07486 0.05210
 C2043 C 0.87597 0.08641 0.08613
 C2044 C 0.89708 0.08012 0.10747
 C2045 C 0.91515 0.06297 0.09455
 C2046 C 0.91234 0.05165 0.06024
 C2047 C 0.85783 0.10608 0.09788
 C2048 C 0.85158 0.10943 0.13282
 C2049 C 0.83467 0.12983 0.14553
 C2050 C 0.81955 0.12565 0.17623
 C2051 C 0.80482 0.14504 0.19089
 C2052 C 0.80540 0.16931 0.17570
 C2053 C 0.82031 0.17346 0.14454
 C2054 C 0.83476 0.15382 0.12943
 H2055 H 0.88840 0.04923 0.01258
 H2056 H 0.85695 0.07960 0.03515
 H2057 H 0.90020 0.08919 0.13348
 H2058 H 0.93163 0.05905 0.11101
 H2059 H 0.84896 0.11753 0.07722
 H2060 H 0.85845 0.09626 0.15292
 H2061 H 0.81934 0.10735 0.18914
 H2062 H 0.79355 0.14112 0.21489
 H2063 H 0.82121 0.19194 0.13229
 H2064 H 0.84671 0.15769 0.10612
 C2065 C 0.56978 0.92667 0.61056
 C2066 C 0.58651 0.90945 0.62600
 C2067 C 0.61171 0.90776 0.61396
 C2068 C 0.62012 0.92432 0.58665
 C2069 C 0.60326 0.94161 0.57101
 C2070 C 0.57773 0.94259 0.58229
 C2071 C 0.62772 0.88731 0.62894
 C2072 C 0.65314 0.88719 0.62865
 C2073 C 0.66790 0.86633 0.64499
 C2074 C 0.69089 0.87165 0.66230
 C2075 C 0.70445 0.85255 0.67970
 C2076 C 0.69552 0.82757 0.67955
 C2077 C 0.67304 0.82208 0.66083
 C2078 C 0.65935 0.84124 0.64379
 H2079 H 0.55032 0.92692 0.62014
 H2080 H 0.57953 0.89700 0.64700
 H2081 H 0.63930 0.92328 0.57619
 H2082 H 0.60994 0.95343 0.54908
 H2083 H 0.61789 0.87199 0.64226
 H2084 H 0.66340 0.90340 0.61871
 H2085 H 0.69801 0.89076 0.66322
 H2086 H 0.72184 0.85740 0.69353
 H2087 H 0.66571 0.80306 0.65995
 H2088 H 0.64210 0.83636 0.62967
 C2089 C 0.10744 0.55392 0.42914
 C2090 C 0.12699 0.56788 0.41331
 C2091 C 0.12146 0.58933 0.39276
 C2092 C 0.09599 0.59586 0.38667
 C2093 C 0.07646 0.58180 0.40214
 C2094 C 0.08195 0.56093 0.42407
 C2095 C 0.14243 0.60462 0.37789
 C2096 C 0.14059 0.62973 0.37550
 C2097 C 0.16058 0.64610 0.36021
 C2098 C 0.16013 0.67176 0.36936
 C2099 C 0.17689 0.68852 0.35293
 C2100 C 0.19439 0.68001 0.32657
 C2101 C 0.19544 0.65412 0.31822
 C2102 C 0.17867 0.63731 0.33482
 H2103 H 0.11230 0.53775 0.44556
 H2104 H 0.14648 0.56232 0.41793
 H2105 H 0.09112 0.61184 0.36992
 H2106 H 0.05705 0.58760 0.39746
 H2107 H 0.16001 0.59515 0.37088
 H2108 H 0.12376 0.63902 0.38615
 H2109 H 0.14635 0.67901 0.38878
 H2110 H 0.17552 0.70830 0.36011
 H2111 H 0.20857 0.64696 0.29787
 H2112 H 0.17923 0.61774 0.32648
   
