data_POSCAR
  _audit_creation_date              2014-09-24
  _audit_creation_method            'ToBaCCo'
  _symmetry_space_group_name_H-M    'P1'
  _symmetry_Int_Tables_number       1
  _symmetry_cell_setting            triclinic
  loop_
  _symmetry_equiv_pos_as_xyz
 x,y,z
_cell_length_a 55.1598
_cell_length_b 55.1292
_cell_length_c 55.0977
_cell_angle_alpha 90.022100
_cell_angle_beta 89.970700
_cell_angle_gamma 89.973700
loop_
  _atom_site_label
  _atom_site_type_symbol
  _atom_site_fract_x
  _atom_site_fract_y
  _atom_site_fract_z
O1 O 0.87577 0.15848 0.81200
 O2 O 0.90192 0.12471 0.80479
 O3 O 0.81238 0.12375 0.84155
 O4 O 0.80343 0.10012 0.87304
 O5 O 0.84202 0.18793 0.87566
 O6 O 0.87579 0.19461 0.90197
 O7 O 0.87635 0.06180 0.90797
 O8 O 0.84797 0.05537 0.87639
 O9 O 0.93803 0.09117 0.87540
 O10 O 0.94557 0.12584 0.84803
 O11 O 0.90891 0.12371 0.93749
 O12 O 0.87441 0.15104 0.94526
 O13 O 0.87644 0.09092 0.93728
 O14 O 0.84850 0.12553 0.94481
 O15 O 0.93806 0.12374 0.90826
 O16 O 0.94531 0.15165 0.87359
 O17 O 0.90891 0.06195 0.87566
 O18 O 0.87548 0.05475 0.84750
 O19 O 0.87602 0.18769 0.84127
 O20 O 0.90274 0.19436 0.87511
 O21 O 0.81273 0.15882 0.87539
 O22 O 0.80730 0.12488 0.90376
 O23 O 0.84144 0.12438 0.81215
 O24 O 0.87522 0.09774 0.80513
 Zr25 Zr 0.87436 0.12565 0.83144
 O26 O 0.89718 0.10302 0.85204
 Zr27 Zr 0.83193 0.12577 0.87426
 O28 O 0.85277 0.10273 0.89657
 Zr29 Zr 0.87470 0.16825 0.87412
 O30 O 0.89727 0.14733 0.89674
 Zr31 Zr 0.87610 0.08141 0.87529
 O32 O 0.85298 0.10214 0.85269
 Zr33 Zr 0.91866 0.12409 0.87539
 O34 O 0.89799 0.14701 0.85253
 Zr35 Zr 0.87607 0.12391 0.91810
 O36 O 0.85328 0.14712 0.89762
 O37 O 0.85197 0.14828 0.85165
 O38 O 0.89881 0.10127 0.89809
 C39 C 0.87649 0.18067 0.81906
 C40 C 0.81931 0.12344 0.81930
 C41 C 0.81981 0.18099 0.87614
 C42 C 0.87652 0.06875 0.93019
 C43 C 0.93108 0.06896 0.87561
 C44 C 0.93108 0.12361 0.93046
 H45 H 0.90725 0.09317 0.84096
 H46 H 0.90727 0.15829 0.90680
 H47 H 0.84159 0.15862 0.84128
 H48 H 0.84191 0.09245 0.90647
 H49 H 0.83552 0.06068 0.86458
 H50 H 0.80879 0.08569 0.88224
 H51 H 0.94217 0.16325 0.88693
 H52 H 0.91542 0.18867 0.86374
 H53 H 0.88832 0.05863 0.83560
 H54 H 0.86402 0.08495 0.81089
 H55 H 0.88711 0.16317 0.94165
 H56 H 0.86488 0.18876 0.91498
 H57 H 0.91505 0.13543 0.81069
 H58 H 0.94205 0.11301 0.83598
 H59 H 0.81227 0.13781 0.91519
 H60 H 0.83697 0.11217 0.94161
 O61 O 0.84136 0.68766 0.37534
 O62 O 0.87506 0.69486 0.40158
 O63 O 0.87630 0.65820 0.31191
 O64 O 0.89995 0.62674 0.30294
 O65 O 0.81212 0.62407 0.34147
 O66 O 0.80539 0.59773 0.37524
 O67 O 0.93812 0.59178 0.37595
 O68 O 0.94456 0.62340 0.34755
 O69 O 0.90858 0.62432 0.43769
 O70 O 0.87388 0.65162 0.44522
 O71 O 0.87623 0.56225 0.40845
 O72 O 0.84899 0.55449 0.37390
 O73 O 0.90905 0.56249 0.37598
 O74 O 0.87452 0.55499 0.34796
 O75 O 0.87610 0.59145 0.43765
 O76 O 0.84812 0.62606 0.44491
 O77 O 0.93785 0.62408 0.40856
 O78 O 0.94512 0.65221 0.37515
 O79 O 0.81221 0.65839 0.37553
 O80 O 0.80553 0.62454 0.40224
 O81 O 0.84129 0.62439 0.31219
 O82 O 0.87524 0.59604 0.30676
 O83 O 0.87554 0.68755 0.34103
 O84 O 0.90205 0.69459 0.37487
 Zr85 Zr 0.87422 0.66826 0.37396
 O86 O 0.89681 0.64766 0.39680
 Zr87 Zr 0.87426 0.62549 0.33145
 O88 O 0.89727 0.60318 0.35231
 Zr89 Zr 0.83170 0.62558 0.37421
 O90 O 0.85258 0.60296 0.39681
 Zr91 Zr 0.91849 0.62444 0.37570
 O92 O 0.89779 0.64706 0.35256
 Zr93 Zr 0.87573 0.62430 0.41826
 O94 O 0.85284 0.64716 0.39757
 Zr95 Zr 0.87606 0.58165 0.37559
 O96 O 0.85289 0.60212 0.35277
 O97 O 0.85169 0.64806 0.35150
 O98 O 0.89861 0.60164 0.39840
 C99 C 0.81920 0.68059 0.37603
 C100 C 0.87656 0.68042 0.31887
 C101 C 0.81912 0.62362 0.31925
 C102 C 0.93120 0.56958 0.37610
 C103 C 0.93078 0.62414 0.43074
 C104 C 0.87628 0.56927 0.43064
 H105 H 0.90662 0.65873 0.40689
 H106 H 0.84162 0.59289 0.40680
 H107 H 0.84136 0.65843 0.34110
 H108 H 0.90758 0.59330 0.34145
 H109 H 0.93926 0.63523 0.33511
 H110 H 0.91437 0.61754 0.30832
 H111 H 0.83657 0.61271 0.44175
 H112 H 0.81118 0.63589 0.41496
 H113 H 0.94115 0.66415 0.38794
 H114 H 0.91488 0.68884 0.36368
 H115 H 0.83683 0.55808 0.38660
 H116 H 0.81128 0.58474 0.36431
 H117 H 0.86428 0.68897 0.41468
 H118 H 0.88665 0.66370 0.44169
 H119 H 0.86231 0.58461 0.31171
 H120 H 0.88790 0.55818 0.33644
 O121 O 0.37519 0.15806 0.31244
 O122 O 0.40152 0.12431 0.30542
 O123 O 0.31185 0.12316 0.34193
 O124 O 0.30292 0.09956 0.37345
 O125 O 0.34123 0.18751 0.37595
 O126 O 0.37488 0.19441 0.40229
 O127 O 0.37582 0.06159 0.40876
 O128 O 0.34748 0.05505 0.37707
 O129 O 0.43748 0.09111 0.37613
 O130 O 0.44504 0.12567 0.34881
 O131 O 0.40814 0.12367 0.43814
 O132 O 0.37354 0.15093 0.44576
 O133 O 0.37574 0.09078 0.43797
 O134 O 0.34769 0.12536 0.44530
 O135 O 0.43734 0.12372 0.40896
 O136 O 0.44455 0.15163 0.37423
 O137 O 0.40844 0.06179 0.37643
 O138 O 0.37517 0.05431 0.34835
 O139 O 0.37529 0.18734 0.34164
 O140 O 0.40194 0.19413 0.37555
 O141 O 0.31203 0.15830 0.37567
 O142 O 0.30659 0.12447 0.40411
 O143 O 0.34099 0.12382 0.31261
 O144 O 0.37485 0.09730 0.30571
 Zr145 Zr 0.37385 0.12525 0.33197
 O146 O 0.39665 0.10275 0.35272
 Zr147 Zr 0.33132 0.12532 0.37469
 O148 O 0.35214 0.10242 0.39716
 Zr149 Zr 0.37396 0.16795 0.37454
 O150 O 0.39652 0.14717 0.39731
 Zr151 Zr 0.37559 0.08112 0.37600
 O152 O 0.35250 0.10172 0.35323
 Zr153 Zr 0.41802 0.12394 0.37606
 O154 O 0.39737 0.14674 0.35306
 Zr155 Zr 0.37534 0.12373 0.41867
 O156 O 0.35255 0.14681 0.39804
 O157 O 0.35135 0.14785 0.35207
 O158 O 0.39820 0.10111 0.39878
 C159 C 0.37583 0.18027 0.31943
 C160 C 0.31884 0.12282 0.31970
 C161 C 0.31905 0.18048 0.37638
 C162 C 0.37590 0.06858 0.43097
 C163 C 0.43058 0.06890 0.37636
 C164 C 0.43032 0.12362 0.43115
 H165 H 0.40677 0.09290 0.34169
 H166 H 0.40646 0.15818 0.40736
 H167 H 0.34096 0.15813 0.34164
 H168 H 0.34130 0.09214 0.40706
 H169 H 0.33510 0.06028 0.36515
 H170 H 0.30827 0.08521 0.38279
 H171 H 0.44140 0.16319 0.38759
 H172 H 0.41464 0.18847 0.36417
 H173 H 0.38782 0.05835 0.33631
 H174 H 0.36368 0.08448 0.31148
 H175 H 0.38622 0.16308 0.44215
 H176 H 0.36401 0.18853 0.41532
 H177 H 0.41453 0.13519 0.31127
 H178 H 0.44145 0.11296 0.33666
 H179 H 0.31153 0.13741 0.41554
 H180 H 0.33621 0.11196 0.44212
 O181 O 0.12439 0.34129 0.31214
 O182 O 0.09816 0.37511 0.30512
 O183 O 0.18781 0.37603 0.34157
 O184 O 0.19688 0.39956 0.37308
 O185 O 0.15819 0.31180 0.37566
 O186 O 0.12448 0.30508 0.40202
 O187 O 0.12408 0.43791 0.40834
 O188 O 0.15245 0.44430 0.37664
 O189 O 0.06232 0.40859 0.37584
 O190 O 0.05465 0.37400 0.34850
 O191 O 0.09154 0.37601 0.43782
 O192 O 0.12601 0.34864 0.44545
 O193 O 0.12403 0.40876 0.43759
 O194 O 0.15198 0.37408 0.44492
 O195 O 0.06233 0.37603 0.40866
 O196 O 0.05498 0.34812 0.37398
 O197 O 0.09148 0.43779 0.37609
 O198 O 0.12481 0.44506 0.34791
 O199 O 0.12416 0.31206 0.34136
 O200 O 0.09746 0.30542 0.37528
 O201 O 0.18750 0.34090 0.37533
 O202 O 0.19305 0.37476 0.40374
 O203 O 0.15868 0.37543 0.31227
 O204 O 0.12490 0.40203 0.30535
 Zr205 Zr 0.12582 0.37412 0.33164
 O206 O 0.10310 0.39675 0.35238
 Zr207 Zr 0.16834 0.37395 0.37434
 O208 O 0.14761 0.39698 0.39678
 Zr209 Zr 0.12554 0.33149 0.37424
 O210 O 0.10306 0.35240 0.39700
 Zr211 Zr 0.12425 0.41833 0.37561
 O212 O 0.14727 0.39760 0.35286
 Zr213 Zr 0.08165 0.37568 0.37575
 O214 O 0.10222 0.35276 0.35276
 Zr215 Zr 0.12433 0.37578 0.41833
 O216 O 0.14703 0.35258 0.39771
 O217 O 0.14824 0.35147 0.35175
 O218 O 0.10157 0.39846 0.39843
 C219 C 0.12367 0.31910 0.31916
 C220 C 0.18083 0.37638 0.31935
 C221 C 0.18039 0.31874 0.37608
 C222 C 0.12394 0.43094 0.43055
 C223 C 0.06932 0.43078 0.37606
 C224 C 0.06936 0.37614 0.43084
 H225 H 0.09302 0.40663 0.34135
 H226 H 0.09307 0.34144 0.40707
 H227 H 0.15859 0.34114 0.34132
 H228 H 0.15849 0.40724 0.40666
 H229 H 0.16482 0.43900 0.36473
 H230 H 0.19156 0.41398 0.38233
 H231 H 0.05813 0.33653 0.38732
 H232 H 0.08478 0.31111 0.36391
 H233 H 0.11204 0.44113 0.33596
 H234 H 0.13609 0.41483 0.31111
 H235 H 0.11329 0.33651 0.44185
 H236 H 0.13538 0.31092 0.41504
 H237 H 0.08510 0.36429 0.31100
 H238 H 0.05825 0.38673 0.33638
 H239 H 0.18808 0.36183 0.41517
 H240 H 0.16348 0.38747 0.44175
 O241 O 0.62458 0.84134 0.31199
 O242 O 0.59842 0.87515 0.30489
 O243 O 0.68798 0.87599 0.34155
 O244 O 0.69688 0.89967 0.37306
 O245 O 0.65829 0.81184 0.37557
 O246 O 0.62455 0.80507 0.40185
 O247 O 0.62402 0.93789 0.40823
 O248 O 0.65243 0.94432 0.37660
 O249 O 0.56234 0.90853 0.37561
 O250 O 0.55471 0.87399 0.34827
 O251 O 0.59143 0.87597 0.43764
 O252 O 0.62595 0.84857 0.44528
 O253 O 0.62393 0.90873 0.43747
 O254 O 0.65184 0.87410 0.44488
 O255 O 0.56229 0.87596 0.40843
 O256 O 0.55511 0.84801 0.37365
 O257 O 0.59147 0.93776 0.37591
 O258 O 0.62484 0.94507 0.34781
 O259 O 0.62432 0.81209 0.34120
 O260 O 0.59756 0.80541 0.37507
 O261 O 0.68758 0.84095 0.37534
 O262 O 0.69308 0.87481 0.40373
 O263 O 0.65892 0.87542 0.31218
 O264 O 0.62514 0.90211 0.30527
 Zr265 Zr 0.62599 0.87416 0.33151
 O266 O 0.60319 0.89673 0.35221
 Zr267 Zr 0.66841 0.87399 0.37428
 O268 O 0.64759 0.89697 0.39671
 Zr269 Zr 0.62562 0.83150 0.37409
 O270 O 0.60307 0.85237 0.39683
 Zr271 Zr 0.62427 0.91832 0.37549
 O272 O 0.64737 0.89764 0.35278
 Zr273 Zr 0.58170 0.87564 0.37554
 O274 O 0.60234 0.85277 0.35257
 Zr275 Zr 0.62428 0.87576 0.41821
 O276 O 0.64705 0.85260 0.39762
 O277 O 0.64836 0.85150 0.35166
 O278 O 0.60155 0.89843 0.39827
 C279 C 0.62386 0.81915 0.31900
 C280 C 0.68106 0.87632 0.31930
 C281 C 0.68048 0.81879 0.37605
 C282 C 0.62384 0.93091 0.43044
 C283 C 0.56932 0.93072 0.37585
 C284 C 0.56926 0.87608 0.43063
 H285 H 0.59312 0.90661 0.34117
 H286 H 0.59307 0.84140 0.40687
 H287 H 0.65874 0.84117 0.34125
 H288 H 0.65844 0.90724 0.40661
 H289 H 0.66484 0.93905 0.36471
 H290 H 0.69155 0.91405 0.38239
 H291 H 0.55815 0.83649 0.38707
 H292 H 0.58491 0.81110 0.36367
 H293 H 0.61214 0.94110 0.33581
 H294 H 0.63639 0.91486 0.31103
 H295 H 0.61319 0.83649 0.44171
 H296 H 0.63539 0.81093 0.41491
 H297 H 0.58531 0.86438 0.31076
 H298 H 0.55838 0.88667 0.33612
 H299 H 0.68806 0.86192 0.41518
 H300 H 0.66339 0.88744 0.44170
 O301 O 0.62460 0.65844 0.18740
 O302 O 0.59826 0.62483 0.19458
 O303 O 0.68805 0.62327 0.15804
 O304 O 0.69673 0.59934 0.12656
 O305 O 0.65868 0.68747 0.12384
 O306 O 0.62489 0.69426 0.09741
 O307 O 0.62438 0.56168 0.09119
 O308 O 0.65280 0.55557 0.12360
 O309 O 0.56240 0.59111 0.12395
 O310 O 0.55492 0.62544 0.15143
 O311 O 0.59156 0.62366 0.06194
 O312 O 0.62625 0.65113 0.05440
 O313 O 0.62409 0.59085 0.06199
 O314 O 0.65190 0.62532 0.05450
 O315 O 0.56242 0.62378 0.09119
 O316 O 0.55528 0.65165 0.12604
 O317 O 0.59148 0.56181 0.12324
 O318 O 0.62075 0.55421 0.15098
 O319 O 0.62460 0.68760 0.15812
 O320 O 0.59801 0.69432 0.12435
 O321 O 0.68782 0.65819 0.12417
 O322 O 0.69335 0.62399 0.09611
 O323 O 0.65898 0.62463 0.18738
 O324 O 0.62384 0.59811 0.19495
 Zr325 Zr 0.62600 0.62548 0.16810
 O326 O 0.60337 0.60283 0.14732
 Zr327 Zr 0.66847 0.62526 0.12537
 O328 O 0.64764 0.60248 0.10280
 Zr329 Zr 0.62589 0.66801 0.12535
 O330 O 0.60324 0.64720 0.10272
 Zr331 Zr 0.62423 0.58121 0.12394
 O332 O 0.64732 0.60167 0.14698
 Zr333 Zr 0.58183 0.62397 0.12405
 O334 O 0.60249 0.64689 0.14692
 Zr335 Zr 0.62443 0.62379 0.08131
 O336 O 0.64731 0.64676 0.10193
 O337 O 0.64848 0.64796 0.14788
 O338 O 0.60161 0.60119 0.10121
 C339 C 0.62402 0.68062 0.18033
 C340 C 0.68111 0.62336 0.18028
 C341 C 0.68084 0.68040 0.12339
 C342 C 0.62416 0.56865 0.06898
 C343 C 0.56933 0.56890 0.12348
 C344 C 0.56939 0.62364 0.06898
 H345 H 0.59356 0.59261 0.15833
 H346 H 0.59325 0.65820 0.09270
 H347 H 0.65888 0.65832 0.15821
 H348 H 0.65852 0.59220 0.09290
 H349 H 0.66370 0.55975 0.13725
 H350 H 0.69073 0.58456 0.11838
 H351 H 0.55835 0.66319 0.11266
 H352 H 0.58522 0.68863 0.13560
 H353 H 0.63073 0.55954 0.16485
 H354 H 0.63802 0.58732 0.19281
 H355 H 0.61325 0.66303 0.05777
 H356 H 0.63596 0.68843 0.08451
 H357 H 0.58530 0.63577 0.18867
 H358 H 0.55877 0.61281 0.16358
 H359 H 0.68844 0.63679 0.08451
 H360 H 0.66360 0.61214 0.05786
 O361 O 0.37519 0.84205 0.68777
 O362 O 0.40144 0.87582 0.69476
 O363 O 0.31178 0.87688 0.65834
 O364 O 0.30282 0.90050 0.62684
 O365 O 0.34126 0.81257 0.62429
 O366 O 0.37493 0.80571 0.59790
 O367 O 0.37567 0.93852 0.59145
 O368 O 0.34731 0.94504 0.62315
 O369 O 0.43737 0.90908 0.62400
 O370 O 0.44499 0.87451 0.65131
 O371 O 0.40808 0.87646 0.56201
 O372 O 0.37351 0.84916 0.55447
 O373 O 0.37563 0.90933 0.56223
 O374 O 0.34764 0.87474 0.55492
 O375 O 0.43729 0.87645 0.59116
 O376 O 0.44455 0.84855 0.62590
 O377 O 0.40828 0.93837 0.62375
 O378 O 0.37497 0.94579 0.65186
 O379 O 0.37534 0.81277 0.65857
 O380 O 0.40198 0.80600 0.62463
 O381 O 0.31202 0.84175 0.62460
 O382 O 0.30652 0.87558 0.59617
 O383 O 0.34091 0.87625 0.68764
 O384 O 0.37474 0.90282 0.69448
 Zr385 Zr 0.37378 0.87486 0.66823
 O386 O 0.39655 0.89738 0.64746
 Zr387 Zr 0.33125 0.87475 0.62556
 O388 O 0.35205 0.89767 0.60307
 Zr389 Zr 0.37397 0.83216 0.62567
 O390 O 0.39650 0.85296 0.60288
 Zr391 Zr 0.37546 0.91900 0.62421
 O392 O 0.35239 0.89838 0.64699
 Zr393 Zr 0.41797 0.87621 0.62409
 O394 O 0.39734 0.85340 0.64711
 Zr395 Zr 0.37528 0.87638 0.58153
 O396 O 0.35253 0.85329 0.60218
 O397 O 0.35132 0.85224 0.64815
 O398 O 0.39810 0.89903 0.60139
 C399 C 0.37587 0.81984 0.68077
 C400 C 0.31875 0.87722 0.68058
 C401 C 0.31907 0.81956 0.62388
 C402 C 0.37577 0.93152 0.56924
 C403 C 0.43043 0.93129 0.62379
 C404 C 0.43027 0.87653 0.56897
 H405 H 0.40666 0.90724 0.65848
 H406 H 0.40646 0.84196 0.59281
 H407 H 0.34096 0.84195 0.65859
 H408 H 0.34119 0.90794 0.59318
 H409 H 0.33493 0.93980 0.63507
 H410 H 0.30814 0.91484 0.61748
 H411 H 0.44141 0.83699 0.61253
 H412 H 0.41469 0.81168 0.63597
 H413 H 0.38765 0.94176 0.66388
 H414 H 0.36353 0.91562 0.68873
 H415 H 0.38623 0.83703 0.55804
 H416 H 0.36403 0.81157 0.58489
 H417 H 0.41449 0.86497 0.68888
 H418 H 0.44139 0.88722 0.66346
 H419 H 0.31149 0.86264 0.58473
 H420 H 0.33612 0.88812 0.55813
 O421 O 0.87553 0.34145 0.68774
 O422 O 0.90171 0.37521 0.69487
 O423 O 0.81212 0.37628 0.65832
 O424 O 0.80310 0.39987 0.62685
 O425 O 0.84170 0.31204 0.62417
 O426 O 0.87543 0.30530 0.59779
 O427 O 0.87600 0.43811 0.59173
 O428 O 0.84762 0.44457 0.62339
 O429 O 0.93770 0.40867 0.62423
 O430 O 0.94527 0.37400 0.65155
 O431 O 0.90849 0.37618 0.56218
 O432 O 0.87399 0.34887 0.55448
 O433 O 0.87603 0.40898 0.56244
 O434 O 0.84807 0.37439 0.55500
 O435 O 0.93767 0.37614 0.59135
 O436 O 0.94498 0.34820 0.62598
 O437 O 0.90857 0.43793 0.62402
 O438 O 0.87519 0.44520 0.65219
 O439 O 0.87574 0.31223 0.65848
 O440 O 0.90241 0.30553 0.62457
 O441 O 0.81242 0.34119 0.62451
 O442 O 0.80694 0.37511 0.59613
 O443 O 0.84122 0.37561 0.68765
 O444 O 0.87500 0.40218 0.69462
 Zr445 Zr 0.87410 0.37428 0.66830
 O446 O 0.89688 0.39689 0.64764
 Zr447 Zr 0.83161 0.37421 0.62557
 O448 O 0.85241 0.39722 0.60320
 Zr449 Zr 0.87438 0.33168 0.62563
 O450 O 0.89691 0.35256 0.60294
 Zr451 Zr 0.87577 0.41852 0.62443
 O452 O 0.85269 0.39781 0.64710
 Zr453 Zr 0.91833 0.37579 0.62425
 O454 O 0.89770 0.35289 0.64716
 Zr455 Zr 0.87568 0.37600 0.58164
 O456 O 0.85293 0.35282 0.60218
 O457 O 0.85168 0.35168 0.64814
 O458 O 0.89845 0.39862 0.60159
 C459 C 0.87624 0.31926 0.68069
 C460 C 0.81908 0.37659 0.68055
 C461 C 0.81950 0.31901 0.62374
 C462 C 0.87614 0.43115 0.56952
 C463 C 0.93073 0.43088 0.62405
 C464 C 0.93066 0.37627 0.56916
 H465 H 0.90696 0.40673 0.65870
 H466 H 0.90690 0.34160 0.59286
 H467 H 0.84132 0.34135 0.65854
 H468 H 0.84154 0.40751 0.59333
 H469 H 0.83520 0.43927 0.63524
 H470 H 0.80845 0.41430 0.61764
 H471 H 0.94182 0.33661 0.61264
 H472 H 0.91511 0.31122 0.63591
 H473 H 0.88798 0.44126 0.66412
 H474 H 0.86380 0.41499 0.68888
 H475 H 0.88670 0.33673 0.55806
 H476 H 0.86451 0.31116 0.58480
 H477 H 0.91480 0.36442 0.68897
 H478 H 0.94174 0.38679 0.66363
 H479 H 0.81190 0.36217 0.58470
 H480 H 0.83655 0.38778 0.55820
 O481 O 0.81254 0.87515 0.15833
 O482 O 0.80542 0.90145 0.12462
 O483 O 0.84189 0.81160 0.12326
 O484 O 0.87334 0.80286 0.09936
 O485 O 0.87603 0.84112 0.18746
 O486 O 0.90238 0.87492 0.19424
 O487 O 0.90875 0.87520 0.06155
 O488 O 0.87637 0.84671 0.05549
 O489 O 0.87603 0.93723 0.09088
 O490 O 0.84857 0.94482 0.12514
 O491 O 0.93792 0.90810 0.12354
 O492 O 0.94541 0.87342 0.15109
 O493 O 0.93790 0.87554 0.09075
 O494 O 0.94532 0.84772 0.12530
 O495 O 0.90872 0.93727 0.12358
 O496 O 0.87385 0.94445 0.15145
 O497 O 0.87675 0.90808 0.06162
 O498 O 0.84903 0.87879 0.05404
 O499 O 0.84176 0.87520 0.18752
 O500 O 0.87550 0.90184 0.19418
 O501 O 0.87572 0.81190 0.15821
 O502 O 0.90374 0.80628 0.12403
 O503 O 0.81259 0.84068 0.12455
 O504 O 0.80505 0.87580 0.09795
 Zr505 Zr 0.83185 0.87368 0.12536
 O506 O 0.85265 0.89627 0.10266
 Zr507 Zr 0.87452 0.83119 0.12523
 O508 O 0.89711 0.85197 0.10241
 Zr509 Zr 0.87452 0.87388 0.16793
 O510 O 0.89716 0.89648 0.14708
 Zr511 Zr 0.87601 0.87535 0.08108
 O512 O 0.85296 0.85230 0.10158
 Zr513 Zr 0.87588 0.91786 0.12378
 O514 O 0.85299 0.89725 0.14674
 Zr515 Zr 0.91856 0.87522 0.12371
 O516 O 0.89792 0.85240 0.14672
 O517 O 0.85203 0.85123 0.14790
 O518 O 0.89871 0.89802 0.10104
 C519 C 0.81958 0.87578 0.18053
 C520 C 0.81967 0.81853 0.12332
 C521 C 0.87650 0.81893 0.18041
 C522 C 0.93094 0.87546 0.06854
 C523 C 0.87653 0.93025 0.06867
 C524 C 0.93090 0.93028 0.12347
 H525 H 0.84167 0.90607 0.09241
 H526 H 0.90716 0.90649 0.15807
 H527 H 0.84169 0.84085 0.15828
 H528 H 0.90700 0.84106 0.09216
 H529 H 0.86273 0.83582 0.05968
 H530 H 0.88155 0.80882 0.08457
 H531 H 0.88725 0.94144 0.16298
 H532 H 0.86424 0.91461 0.18848
 H533 H 0.83517 0.86881 0.05938
 H534 H 0.80721 0.86160 0.08717
 H535 H 0.94206 0.88647 0.16296
 H536 H 0.91529 0.86388 0.18841
 H537 H 0.81132 0.91443 0.13555
 H538 H 0.83641 0.94091 0.11256
 H539 H 0.91534 0.81123 0.13680
 H540 H 0.94200 0.83603 0.11209
 O541 O 0.37543 0.34120 0.18790
 O542 O 0.40169 0.37497 0.19496
 O543 O 0.31210 0.37603 0.15834
 O544 O 0.30311 0.39955 0.12681
 O545 O 0.34170 0.31171 0.12434
 O546 O 0.37545 0.30492 0.09801
 O547 O 0.37600 0.43776 0.09168
 O548 O 0.34761 0.44423 0.12335
 O549 O 0.43770 0.40834 0.12430
 O550 O 0.44524 0.37373 0.15170
 O551 O 0.40857 0.37579 0.06229
 O552 O 0.37412 0.34847 0.05456
 O553 O 0.37606 0.40858 0.06243
 O554 O 0.34811 0.37391 0.05508
 O555 O 0.43771 0.37575 0.09150
 O556 O 0.44498 0.34787 0.12617
 O557 O 0.40858 0.43760 0.12397
 O558 O 0.37520 0.44495 0.15212
 O559 O 0.37568 0.31194 0.15869
 O560 O 0.40244 0.30522 0.12480
 O561 O 0.31243 0.34086 0.12462
 O562 O 0.30698 0.37472 0.09615
 O563 O 0.34118 0.37540 0.18770
 O564 O 0.37496 0.40194 0.19468
 Zr565 Zr 0.37407 0.37402 0.16839
 O566 O 0.39685 0.39660 0.14770
 Zr567 Zr 0.33163 0.37389 0.12561
 O568 O 0.35243 0.39686 0.10321
 Zr569 Zr 0.37438 0.33134 0.12580
 O570 O 0.39693 0.35220 0.10308
 Zr571 Zr 0.37577 0.41820 0.12442
 O572 O 0.35269 0.39752 0.14712
 Zr573 Zr 0.41832 0.37546 0.12437
 O574 O 0.39769 0.35259 0.14731
 Zr575 Zr 0.37573 0.37561 0.08170
 O576 O 0.35297 0.35246 0.10227
 O577 O 0.35167 0.35139 0.14824
 O578 O 0.39848 0.39826 0.10164
 C579 C 0.37613 0.31899 0.18089
 C580 C 0.31904 0.37638 0.18058
 C581 C 0.31951 0.31868 0.12390
 C582 C 0.37615 0.43077 0.06946
 C583 C 0.43074 0.43054 0.12404
 C584 C 0.43073 0.37589 0.06931
 H585 H 0.40692 0.40647 0.15874
 H586 H 0.40693 0.34123 0.09303
 H587 H 0.34129 0.34109 0.15866
 H588 H 0.34157 0.40713 0.09331
 H589 H 0.33520 0.43894 0.13522
 H590 H 0.30847 0.41396 0.11757
 H591 H 0.44182 0.33625 0.11285
 H592 H 0.41510 0.31090 0.13620
 H593 H 0.38797 0.44102 0.16407
 H594 H 0.36382 0.41477 0.18888
 H595 H 0.38678 0.33630 0.05822
 H596 H 0.36457 0.31078 0.08498
 H597 H 0.41474 0.36411 0.18911
 H598 H 0.44168 0.38653 0.16377
 H599 H 0.31194 0.36174 0.08476
 H600 H 0.33662 0.38733 0.05822
 O601 O 0.37539 0.65886 0.81223
 O602 O 0.40168 0.62511 0.80516
 O603 O 0.31202 0.62397 0.84167
 O604 O 0.30302 0.60039 0.87316
 O605 O 0.34143 0.68827 0.87577
 O606 O 0.37512 0.69504 0.90217
 O607 O 0.37591 0.56221 0.90836
 O608 O 0.34759 0.55574 0.87667
 O609 O 0.43763 0.59168 0.87583
 O610 O 0.44516 0.62635 0.84849
 O611 O 0.40828 0.62419 0.93787
 O612 O 0.37377 0.65146 0.94555
 O613 O 0.37585 0.59135 0.93763
 O614 O 0.34781 0.62598 0.94498
 O615 O 0.43750 0.62425 0.90870
 O616 O 0.44480 0.65217 0.87406
 O617 O 0.40855 0.56240 0.87607
 O618 O 0.37522 0.55509 0.84789
 O619 O 0.37552 0.68809 0.84147
 O620 O 0.40216 0.69480 0.87540
 O621 O 0.31221 0.65910 0.87544
 O622 O 0.30678 0.62520 0.90387
 O623 O 0.34116 0.62464 0.81234
 O624 O 0.37500 0.59811 0.80540
 Zr625 Zr 0.37402 0.62602 0.83171
 O626 O 0.39680 0.60344 0.85241
 Zr627 Zr 0.33148 0.62608 0.87443
 O628 O 0.35228 0.60310 0.89683
 Zr629 Zr 0.37416 0.66865 0.87434
 O630 O 0.39670 0.64779 0.89706
 Zr631 Zr 0.37571 0.58179 0.87564
 O632 O 0.35263 0.60248 0.85293
 Zr633 Zr 0.41819 0.62456 0.87579
 O634 O 0.39756 0.64744 0.85284
 Zr635 Zr 0.37549 0.62434 0.91839
 O636 O 0.35273 0.64750 0.89782
 O637 O 0.35153 0.64861 0.85184
 O638 O 0.39833 0.60172 0.89847
 C639 C 0.37605 0.68106 0.81926
 C640 C 0.31901 0.62365 0.81944
 C641 C 0.31924 0.68129 0.87618
 C642 C 0.37601 0.56917 0.93058
 C643 C 0.43071 0.56947 0.87604
 C644 C 0.43047 0.62411 0.93089
 H645 H 0.40691 0.59359 0.84136
 H646 H 0.40666 0.65876 0.90714
 H647 H 0.34116 0.65892 0.84143
 H648 H 0.34142 0.59281 0.90671
 H649 H 0.33519 0.56102 0.86480
 H650 H 0.30837 0.58599 0.88240
 H651 H 0.44159 0.66377 0.88738
 H652 H 0.41488 0.68913 0.86405
 H653 H 0.38801 0.55903 0.83596
 H654 H 0.36384 0.58528 0.81117
 H655 H 0.38640 0.66365 0.94192
 H656 H 0.36419 0.68918 0.91516
 H657 H 0.41473 0.63594 0.81106
 H658 H 0.44166 0.61355 0.83641
 H659 H 0.31169 0.63817 0.91528
 H660 H 0.33636 0.61255 0.94182
 O661 O 0.12428 0.65885 0.68796
 O662 O 0.09804 0.62509 0.69502
 O663 O 0.18770 0.62399 0.65851
 O664 O 0.19673 0.60041 0.62700
 O665 O 0.15819 0.68827 0.62445
 O666 O 0.12451 0.69505 0.59806
 O667 O 0.12390 0.56223 0.59177
 O668 O 0.15223 0.55576 0.62344
 O669 O 0.06215 0.59168 0.62431
 O670 O 0.05452 0.62630 0.65164
 O671 O 0.09145 0.62421 0.56230
 O672 O 0.12597 0.65150 0.55466
 O673 O 0.12392 0.59138 0.56252
 O674 O 0.15190 0.62599 0.55517
 O675 O 0.06223 0.62425 0.59146
 O676 O 0.05491 0.65218 0.62615
 O677 O 0.09126 0.56241 0.62406
 O678 O 0.12459 0.55508 0.65221
 O679 O 0.12411 0.68808 0.65874
 O680 O 0.09746 0.69479 0.62483
 O681 O 0.18745 0.65911 0.62476
 O682 O 0.19296 0.62522 0.59632
 O683 O 0.15856 0.62465 0.68783
 O684 O 0.12475 0.59810 0.69474
 Zr685 Zr 0.12570 0.62601 0.66846
 O686 O 0.10295 0.60344 0.64774
 Zr687 Zr 0.16825 0.62610 0.62575
 O688 O 0.14747 0.60311 0.60332
 Zr689 Zr 0.12550 0.66865 0.62586
 O690 O 0.10299 0.64779 0.60312
 Zr691 Zr 0.12407 0.58181 0.62450
 O692 O 0.14712 0.60249 0.64723
 Zr693 Zr 0.08153 0.62456 0.62437
 O694 O 0.10213 0.64743 0.64735
 Zr695 Zr 0.12424 0.62436 0.58178
 O696 O 0.14697 0.64751 0.60238
 O697 O 0.14816 0.64862 0.64835
 O698 O 0.10143 0.60172 0.60168
 C699 C 0.12359 0.68104 0.68094
 C700 C 0.18072 0.62367 0.68074
 C701 C 0.18039 0.68129 0.62403
 C702 C 0.12379 0.56920 0.56956
 C703 C 0.06911 0.56947 0.62410
 C704 C 0.06927 0.62413 0.56927
 H705 H 0.09285 0.59359 0.65878
 H706 H 0.09302 0.65876 0.59305
 H707 H 0.15851 0.65893 0.65877
 H708 H 0.15835 0.59283 0.59343
 H709 H 0.16461 0.56104 0.63533
 H710 H 0.19140 0.58601 0.61773
 H711 H 0.05807 0.66375 0.61281
 H712 H 0.08476 0.68912 0.63618
 H713 H 0.11183 0.55906 0.66417
 H714 H 0.13595 0.58529 0.68898
 H715 H 0.11328 0.66366 0.55827
 H716 H 0.13544 0.68919 0.58506
 H717 H 0.08498 0.63591 0.68913
 H718 H 0.05810 0.61357 0.66376
 H719 H 0.18802 0.63818 0.58491
 H720 H 0.16340 0.61259 0.55835
 O721 O 0.12449 0.15808 0.18774
 O722 O 0.09818 0.12436 0.19472
 O723 O 0.18792 0.12315 0.15841
 O724 O 0.19696 0.09953 0.12692
 O725 O 0.15860 0.18747 0.12430
 O726 O 0.12498 0.19433 0.09786
 O727 O 0.12410 0.06153 0.09147
 O728 O 0.15239 0.05498 0.12319
 O729 O 0.06238 0.09106 0.12392
 O730 O 0.05476 0.12569 0.15124
 O731 O 0.09187 0.12358 0.06198
 O732 O 0.12648 0.15083 0.05446
 O733 O 0.12425 0.09069 0.06226
 O734 O 0.15233 0.12522 0.05497
 O735 O 0.06259 0.12364 0.09108
 O736 O 0.05525 0.15158 0.12578
 O737 O 0.09145 0.06174 0.12373
 O738 O 0.12470 0.05433 0.15191
 O739 O 0.12444 0.18733 0.15853
 O740 O 0.09789 0.19411 0.12457
 O741 O 0.18781 0.15826 0.12466
 O742 O 0.19333 0.12438 0.09624
 O743 O 0.15872 0.12384 0.18767
 O744 O 0.12485 0.09733 0.19448
 Zr745 Zr 0.12590 0.12526 0.16822
 O746 O 0.10316 0.10274 0.14744
 Zr747 Zr 0.16854 0.12528 0.12561
 O748 O 0.14777 0.10235 0.10311
 Zr749 Zr 0.12587 0.16791 0.12564
 O750 O 0.10337 0.14711 0.10284
 Zr751 Zr 0.12429 0.08108 0.12423
 O752 O 0.14733 0.10170 0.14702
 Zr753 Zr 0.08183 0.12390 0.12404
 O754 O 0.10242 0.14672 0.14707
 Zr755 Zr 0.12462 0.12365 0.08154
 O756 O 0.14735 0.14675 0.10220
 O757 O 0.14844 0.14783 0.14817
 O758 O 0.10173 0.10105 0.10138
 C759 C 0.12385 0.18028 0.18073
 C760 C 0.18089 0.12283 0.18063
 C761 C 0.18078 0.18045 0.12392
 C762 C 0.12404 0.06850 0.06926
 C763 C 0.06930 0.06884 0.12372
 C764 C 0.06967 0.12352 0.06891
 H765 H 0.09301 0.09290 0.15845
 H766 H 0.09344 0.15811 0.09276
 H767 H 0.15879 0.15813 0.15862
 H768 H 0.15864 0.09205 0.09324
 H769 H 0.16477 0.06023 0.13511
 H770 H 0.19164 0.08516 0.11760
 H771 H 0.05845 0.16314 0.11243
 H772 H 0.08514 0.18845 0.13587
 H773 H 0.11195 0.05834 0.16387
 H774 H 0.13605 0.08451 0.18875
 H775 H 0.11376 0.16298 0.05801
 H776 H 0.13592 0.18845 0.08487
 H777 H 0.08516 0.13521 0.18881
 H778 H 0.05829 0.11295 0.16337
 H779 H 0.18841 0.13732 0.08480
 H780 H 0.16380 0.11181 0.05818
 O781 O 0.68808 0.37604 0.84170
 O782 O 0.69514 0.40225 0.87549
 O783 O 0.65889 0.31250 0.87651
 O784 O 0.62750 0.30351 0.90029
 O785 O 0.62469 0.34195 0.81233
 O786 O 0.59824 0.37561 0.80558
 O787 O 0.59211 0.37632 0.93844
 O788 O 0.62382 0.34803 0.94489
 O789 O 0.62443 0.43813 0.90896
 O790 O 0.65166 0.44579 0.87431
 O791 O 0.56252 0.40872 0.87645
 O792 O 0.55503 0.37408 0.84910
 O793 O 0.56287 0.37625 0.90930
 O794 O 0.55549 0.34827 0.87475
 O795 O 0.59158 0.43800 0.87639
 O796 O 0.62624 0.44531 0.84840
 O797 O 0.62430 0.40902 0.93824
 O798 O 0.65246 0.37575 0.94556
 O799 O 0.65886 0.37612 0.81249
 O800 O 0.62493 0.40268 0.80577
 O801 O 0.62509 0.31269 0.84151
 O802 O 0.59681 0.30713 0.87544
 O803 O 0.68811 0.34170 0.87582
 O804 O 0.69491 0.37554 0.90249
 Zr805 Zr 0.66866 0.37456 0.87457
 O806 O 0.64793 0.39733 0.89716
 Zr807 Zr 0.62611 0.33194 0.87453
 O808 O 0.60367 0.35272 0.89753
 Zr809 Zr 0.62605 0.37468 0.83196
 O810 O 0.60331 0.39721 0.85284
 Zr811 Zr 0.62479 0.37618 0.91883
 O812 O 0.64754 0.35312 0.89813
 Zr813 Zr 0.62451 0.41871 0.87607
 O814 O 0.64748 0.39810 0.85317
 Zr815 Zr 0.58207 0.37593 0.87630
 O816 O 0.60268 0.35318 0.85314
 O817 O 0.64859 0.35206 0.85197
 O818 O 0.60191 0.39879 0.89893
 C819 C 0.68104 0.37671 0.81950
 C820 C 0.68109 0.31952 0.87677
 C821 C 0.62432 0.31974 0.81932
 C822 C 0.56992 0.37639 0.93148
 C823 C 0.62427 0.43118 0.93118
 C824 C 0.56943 0.43093 0.87652
 H825 H 0.65894 0.40746 0.90701
 H826 H 0.59322 0.40715 0.84186
 H827 H 0.65901 0.34171 0.84162
 H828 H 0.59383 0.34184 0.90783
 H829 H 0.63574 0.33566 0.93960
 H830 H 0.61815 0.30882 0.91466
 H831 H 0.61287 0.44217 0.83687
 H832 H 0.63620 0.41544 0.81146
 H833 H 0.66444 0.38844 0.94151
 H834 H 0.68923 0.36427 0.91527
 H835 H 0.55850 0.38687 0.83702
 H836 H 0.58530 0.36465 0.81145
 H837 H 0.68920 0.41534 0.86472
 H838 H 0.66380 0.44223 0.88702
 H839 H 0.58533 0.31210 0.86256
 H840 H 0.55880 0.33670 0.88806
 O841 O 0.12411 0.84204 0.81241
 O842 O 0.09783 0.87578 0.80541
 O843 O 0.18747 0.87688 0.84186
 O844 O 0.19640 0.90050 0.87339
 O845 O 0.15807 0.81256 0.87586
 O846 O 0.12437 0.80573 0.90227
 O847 O 0.12349 0.93852 0.90875
 O848 O 0.15181 0.94506 0.87707
 O849 O 0.06180 0.90908 0.87615
 O850 O 0.05427 0.87446 0.84880
 O851 O 0.09111 0.87643 0.93814
 O852 O 0.12572 0.84917 0.94568
 O853 O 0.12355 0.90933 0.93795
 O854 O 0.15154 0.87476 0.94527
 O855 O 0.06191 0.87642 0.90899
 O856 O 0.05469 0.84856 0.87424
 O857 O 0.09086 0.93837 0.87641
 O858 O 0.12420 0.94577 0.84832
 O859 O 0.12399 0.81277 0.84159
 O860 O 0.09736 0.80596 0.87550
 O861 O 0.18728 0.84174 0.87558
 O862 O 0.19270 0.87560 0.90404
 O863 O 0.15835 0.87624 0.81255
 O864 O 0.12449 0.90281 0.80572
 Zr865 Zr 0.12547 0.87485 0.83195
 O866 O 0.10266 0.89737 0.85271
 Zr867 Zr 0.16799 0.87475 0.87463
 O868 O 0.14714 0.89767 0.89711
 Zr869 Zr 0.12533 0.83215 0.87450
 O870 O 0.10275 0.85296 0.89727
 Zr871 Zr 0.12371 0.91899 0.87598
 O872 O 0.14683 0.89837 0.85321
 Zr873 Zr 0.08125 0.87621 0.87606
 O874 O 0.10193 0.85339 0.85305
 Zr875 Zr 0.12393 0.87638 0.91864
 O876 O 0.14673 0.85329 0.89800
 O877 O 0.14796 0.85223 0.85202
 O878 O 0.10108 0.89903 0.89879
 C879 C 0.12346 0.81983 0.81940
 C880 C 0.18050 0.87722 0.81962
 C881 C 0.18026 0.81955 0.87628
 C882 C 0.12341 0.93152 0.93095
 C883 C 0.06871 0.93129 0.87636
 C884 C 0.06893 0.87649 0.93118
 H885 H 0.09255 0.90722 0.84169
 H886 H 0.09280 0.84195 0.90732
 H887 H 0.15834 0.84194 0.84158
 H888 H 0.15799 0.90795 0.90701
 H889 H 0.16422 0.93981 0.86518
 H890 H 0.19105 0.91485 0.88274
 H891 H 0.05787 0.83696 0.88755
 H892 H 0.08463 0.81166 0.86419
 H893 H 0.11151 0.94176 0.83631
 H894 H 0.13570 0.91560 0.81147
 H895 H 0.11303 0.83703 0.94209
 H896 H 0.13532 0.81157 0.91525
 H897 H 0.08478 0.86495 0.81128
 H898 H 0.05783 0.88721 0.83669
 H899 H 0.18775 0.86265 0.91546
 H900 H 0.16308 0.88811 0.94204
 O901 O 0.68776 0.12434 0.65860
 O902 O 0.69473 0.09811 0.62477
 O903 O 0.65851 0.18791 0.62387
 O904 O 0.62707 0.19700 0.60024
 O905 O 0.62443 0.15848 0.68815
 O906 O 0.59799 0.12485 0.69495
 O907 O 0.59162 0.12420 0.56208
 O908 O 0.62332 0.15251 0.55558
 O909 O 0.62400 0.06238 0.59144
 O910 O 0.65129 0.05468 0.62605
 O911 O 0.56214 0.09185 0.62410
 O912 O 0.55465 0.12643 0.65148
 O913 O 0.56242 0.12431 0.59129
 O914 O 0.55516 0.15233 0.62592
 O915 O 0.59119 0.06254 0.62406
 O916 O 0.62584 0.05512 0.65197
 O917 O 0.62382 0.09151 0.56218
 O918 O 0.65198 0.12477 0.55482
 O919 O 0.65859 0.12427 0.68789
 O920 O 0.62465 0.09772 0.69465
 O921 O 0.62479 0.18775 0.65899
 O922 O 0.59642 0.19335 0.62514
 O923 O 0.68772 0.15868 0.62447
 O924 O 0.69451 0.12485 0.59781
 Zr925 Zr 0.66828 0.12585 0.62578
 O926 O 0.64751 0.10314 0.60321
 Zr927 Zr 0.62573 0.16853 0.62595
 O928 O 0.60325 0.14780 0.60298
 Zr929 Zr 0.62574 0.12576 0.66850
 O930 O 0.60296 0.10329 0.64765
 Zr931 Zr 0.62433 0.12433 0.58161
 O932 O 0.64712 0.14733 0.60228
 Zr933 Zr 0.62412 0.08177 0.62435
 O934 O 0.64714 0.10233 0.64722
 Zr935 Zr 0.58169 0.12461 0.62425
 O936 O 0.60234 0.14730 0.64740
 O937 O 0.64825 0.14837 0.64844
 O938 O 0.60150 0.10173 0.60156
 C939 C 0.68076 0.12368 0.68082
 C940 C 0.68070 0.18086 0.62353
 C941 C 0.62406 0.18069 0.68118
 C942 C 0.56944 0.12414 0.56909
 C943 C 0.62380 0.06934 0.56923
 C944 C 0.56905 0.06963 0.62398
 H945 H 0.65850 0.09300 0.59333
 H946 H 0.59288 0.09335 0.65864
 H947 H 0.65870 0.15870 0.65877
 H948 H 0.59340 0.15870 0.59271
 H949 H 0.63525 0.16486 0.56085
 H950 H 0.61774 0.19171 0.58587
 H951 H 0.61251 0.05831 0.66356
 H952 H 0.63593 0.08497 0.68894
 H953 H 0.66394 0.11203 0.55881
 H954 H 0.68879 0.13610 0.58503
 H955 H 0.55818 0.11368 0.66359
 H956 H 0.58503 0.13581 0.68911
 H957 H 0.68883 0.08505 0.63559
 H958 H 0.66339 0.05821 0.61328
 H959 H 0.58498 0.18841 0.63808
 H960 H 0.55838 0.16385 0.61254
 C961 C 0.37711 0.76714 0.73344
 C962 C 0.39031 0.74383 0.72580
 C963 C 0.39034 0.72630 0.74325
 C964 C 0.37716 0.73380 0.76663
 C965 C 0.35165 0.74134 0.75842
 C966 C 0.35163 0.75886 0.74098
 C967 C 0.38942 0.77501 0.75715
 C968 C 0.38945 0.75748 0.77460
 C969 C 0.37697 0.78600 0.71464
 C970 C 0.37662 0.80147 0.69919
 C971 C 0.37708 0.71494 0.78541
 C972 C 0.37676 0.69945 0.80086
 H973 H 0.39889 0.74131 0.70824
 H974 H 0.39894 0.70878 0.74063
 H975 H 0.33507 0.73360 0.76567
 H976 H 0.33502 0.76611 0.73329
 H977 H 0.39742 0.79277 0.75998
 H978 H 0.39747 0.76024 0.79237
 C979 C 0.37705 0.23296 0.26676
 C980 C 0.36441 0.25652 0.27457
 C981 C 0.36446 0.27403 0.25713
 C982 C 0.37714 0.26628 0.23356
 C983 C 0.36428 0.24284 0.22579
 C984 C 0.36423 0.22533 0.24324
 C985 C 0.40258 0.24075 0.25884
 C986 C 0.40263 0.25826 0.24138
 C987 C 0.37691 0.21411 0.28555
 C988 C 0.37655 0.19864 0.30102
 C989 C 0.37710 0.28514 0.21476
 C990 C 0.37681 0.30061 0.19931
 H991 H 0.35614 0.25921 0.29226
 H992 H 0.35623 0.29172 0.25987
 H993 H 0.35594 0.24023 0.20814
 H994 H 0.35585 0.20772 0.24053
 H995 H 0.41915 0.23317 0.26628
 H996 H 0.41924 0.26569 0.23387
 C997 C 0.62277 0.76654 0.26627
 C998 C 0.63521 0.77442 0.24262
 C999 C 0.63524 0.75695 0.22512
 C1000 C 0.62282 0.73331 0.23298
 C1001 C 0.59730 0.74091 0.24113
 C1002 C 0.59728 0.75839 0.25863
 C1003 C 0.63585 0.74317 0.27386
 C1004 C 0.63588 0.72570 0.25637
 C1005 C 0.62284 0.78534 0.28510
 C1006 C 0.62315 0.80079 0.30059
 C1007 C 0.62295 0.71450 0.21415
 C1008 C 0.62329 0.69903 0.19870
 H1009 H 0.64329 0.79216 0.23987
 H1010 H 0.64334 0.75973 0.20738
 H1011 H 0.58072 0.73325 0.23379
 H1012 H 0.58067 0.76570 0.26630
 H1013 H 0.64435 0.74057 0.29144
 H1014 H 0.64440 0.70813 0.25896
 C1015 C 0.12254 0.26636 0.26653
 C1016 C 0.13492 0.27418 0.24284
 C1017 C 0.13495 0.25665 0.22540
 C1018 C 0.12259 0.23301 0.23336
 C1019 C 0.09708 0.24060 0.24153
 C1020 C 0.09705 0.25814 0.25898
 C1021 C 0.13569 0.24304 0.27419
 C1022 C 0.13571 0.22551 0.25675
 C1023 C 0.12262 0.28523 0.28531
 C1024 C 0.12294 0.30072 0.30076
 C1025 C 0.12273 0.21414 0.21458
 C1026 C 0.12309 0.19866 0.19913
 H1027 H 0.14296 0.29193 0.24001
 H1028 H 0.14301 0.25939 0.20763
 H1029 H 0.08050 0.23288 0.23425
 H1030 H 0.08045 0.26544 0.26665
 H1031 H 0.14422 0.24051 0.29176
 H1032 H 0.14427 0.20797 0.25938
 C1033 C 0.12238 0.73378 0.73356
 C1034 C 0.09726 0.74484 0.73825
 C1035 C 0.09724 0.76238 0.75570
 C1036 C 0.12235 0.76713 0.76674
 C1037 C 0.13878 0.77298 0.74502
 C1038 C 0.13880 0.75545 0.72758
 C1039 C 0.13105 0.72478 0.75844
 C1040 C 0.13104 0.74231 0.77589
 C1041 C 0.12250 0.71492 0.71478
 C1042 C 0.12284 0.69943 0.69934
 C1043 C 0.12243 0.78600 0.78552
 C1044 C 0.12275 0.80147 0.80098
 H1045 H 0.08093 0.73938 0.72872
 H1046 H 0.08090 0.77194 0.76111
 H1047 H 0.14947 0.78944 0.74348
 H1048 H 0.14950 0.75690 0.71110
 H1049 H 0.13671 0.70626 0.76205
 H1050 H 0.13669 0.73881 0.79443
 C1051 C 0.87759 0.23333 0.76647
 C1052 C 0.86678 0.25754 0.77500
 C1053 C 0.86674 0.27503 0.75754
 C1054 C 0.87752 0.26660 0.73327
 C1055 C 0.86292 0.24394 0.72635
 C1056 C 0.86296 0.22644 0.74380
 C1057 C 0.90299 0.23967 0.75699
 C1058 C 0.90295 0.25717 0.73953
 C1059 C 0.87752 0.21450 0.78525
 C1060 C 0.87721 0.19904 0.80069
 C1061 C 0.87738 0.28543 0.71449
 C1062 C 0.87701 0.30089 0.69905
 H1063 H 0.85977 0.26066 0.79315
 H1064 H 0.85970 0.29315 0.76074
 H1065 H 0.85339 0.24182 0.70924
 H1066 H 0.85346 0.20933 0.74165
 H1067 H 0.91953 0.23116 0.76343
 H1068 H 0.91946 0.26367 0.73100
 C1069 C 0.76655 0.37797 0.73327
 C1070 C 0.74356 0.36400 0.72615
 C1071 C 0.72617 0.36400 0.74372
 C1072 C 0.73347 0.37798 0.76668
 C1073 C 0.74029 0.40346 0.75777
 C1074 C 0.75769 0.40346 0.74020
 C1075 C 0.77487 0.36646 0.75723
 C1076 C 0.75748 0.36646 0.77479
 C1077 C 0.78527 0.37784 0.71438
 C1078 C 0.80069 0.37745 0.69890
 C1079 C 0.71476 0.37786 0.78558
 C1080 C 0.69937 0.37749 0.80110
 H1081 H 0.74115 0.35491 0.70884
 H1082 H 0.70886 0.35491 0.74146
 H1083 H 0.73217 0.42003 0.76466
 H1084 H 0.76448 0.42003 0.73202
 H1085 H 0.79284 0.35897 0.76013
 H1086 H 0.76055 0.35897 0.79275
 C1087 C 0.26643 0.62223 0.76675
 C1088 C 0.24119 0.62927 0.77617
 C1089 C 0.22377 0.62927 0.75865
 C1090 C 0.23329 0.62224 0.73342
 C1091 C 0.24553 0.59747 0.73695
 C1092 C 0.26296 0.59747 0.75448
 C1093 C 0.27157 0.63996 0.74590
 C1094 C 0.25415 0.63996 0.72838
 C1095 C 0.28519 0.62236 0.78561
 C1096 C 0.30062 0.62276 0.80108
 C1097 C 0.21453 0.62237 0.71457
 C1098 C 0.19910 0.62279 0.69910
 H1099 H 0.23734 0.63384 0.79495
 H1100 H 0.20500 0.63385 0.76242
 H1101 H 0.24092 0.58137 0.72659
 H1102 H 0.27328 0.58136 0.75915
 H1103 H 0.28749 0.65150 0.74497
 H1104 H 0.25515 0.65150 0.71245
 C1105 C 0.26634 0.12137 0.26692
 C1106 C 0.24269 0.13386 0.27465
 C1107 C 0.22532 0.13387 0.25707
 C1108 C 0.23331 0.12138 0.23348
 C1109 C 0.24137 0.09586 0.24117
 C1110 C 0.25875 0.09586 0.25876
 C1111 C 0.27409 0.13441 0.24356
 C1112 C 0.25673 0.13441 0.22598
 C1113 C 0.28505 0.12150 0.28584
 C1114 C 0.30045 0.12192 0.30134
 C1115 C 0.21461 0.12152 0.21455
 C1116 C 0.19923 0.12193 0.19903
 H1117 H 0.23982 0.14199 0.29238
 H1118 H 0.20759 0.14200 0.25974
 H1119 H 0.23408 0.07926 0.23348
 H1120 H 0.26634 0.07925 0.26615
 H1121 H 0.29168 0.14289 0.24104
 H1122 H 0.25944 0.14289 0.20841
 C1123 C 0.76660 0.12221 0.76673
 C1124 C 0.74306 0.13488 0.77454
 C1125 C 0.72561 0.13492 0.75706
 C1126 C 0.73339 0.12230 0.73347
 C1127 C 0.74134 0.09676 0.74121
 C1128 C 0.75880 0.09671 0.75871
 C1129 C 0.77431 0.13511 0.74328
 C1130 C 0.75685 0.13516 0.72579
 C1131 C 0.78540 0.12228 0.78555
 C1132 C 0.80087 0.12263 0.80099
 C1133 C 0.71460 0.12246 0.71464
 C1134 C 0.69915 0.12286 0.69918
 H1135 H 0.74035 0.14309 0.79225
 H1136 H 0.70794 0.14317 0.75979
 H1137 H 0.73390 0.08018 0.73363
 H1138 H 0.76633 0.08009 0.76612
 H1139 H 0.79193 0.14347 0.74064
 H1140 H 0.75952 0.14356 0.70818
 C1141 C 0.73379 0.87739 0.26666
 C1142 C 0.74196 0.90286 0.25892
 C1143 C 0.75941 0.90276 0.24139
 C1144 C 0.76700 0.87719 0.23333
 C1145 C 0.74335 0.86476 0.22554
 C1146 C 0.72590 0.86486 0.24306
 C1147 C 0.75715 0.86430 0.27427
 C1148 C 0.77460 0.86420 0.25676
 C1149 C 0.71499 0.87738 0.28551
 C1150 C 0.69951 0.87708 0.30097
 C1151 C 0.78578 0.87698 0.21446
 C1152 C 0.80122 0.87657 0.19896
 H1153 H 0.73467 0.91950 0.26653
 H1154 H 0.76708 0.91931 0.23399
 H1155 H 0.74055 0.85659 0.20783
 H1156 H 0.70816 0.85678 0.24035
 H1157 H 0.75976 0.85586 0.29188
 H1158 H 0.79215 0.85567 0.25936
 C1159 C 0.76644 0.73306 0.37718
 C1160 C 0.75897 0.74136 0.40271
 C1161 C 0.74143 0.75879 0.40271
 C1162 C 0.73310 0.76618 0.37718
 C1163 C 0.72524 0.74243 0.36496
 C1164 C 0.74277 0.72501 0.36496
 C1165 C 0.77388 0.75636 0.36387
 C1166 C 0.75635 0.77377 0.36387
 C1167 C 0.78531 0.71433 0.37708
 C1168 C 0.80080 0.69892 0.37675
 C1169 C 0.71425 0.78493 0.37708
 C1170 C 0.69880 0.80037 0.37675
 H1171 H 0.76676 0.73419 0.41931
 H1172 H 0.73419 0.76655 0.41931
 H1173 H 0.70747 0.73954 0.35700
 H1174 H 0.74002 0.70720 0.35700
 H1175 H 0.79137 0.75895 0.35521
 H1176 H 0.75882 0.79128 0.35520
 C1177 C 0.76682 0.26644 0.62245
 C1178 C 0.74336 0.27424 0.63527
 C1179 C 0.72582 0.25685 0.63521
 C1180 C 0.73345 0.23335 0.62233
 C1181 C 0.75692 0.22546 0.63505
 C1182 C 0.77446 0.24285 0.63512
 C1183 C 0.75891 0.25870 0.59689
 C1184 C 0.74136 0.24129 0.59683
 C1185 C 0.78569 0.28518 0.62262
 C1186 C 0.80116 0.30061 0.62299
 C1187 C 0.71458 0.21462 0.62239
 C1188 C 0.69908 0.19922 0.62272
 H1189 H 0.74075 0.29187 0.64366
 H1190 H 0.70819 0.25958 0.64354
 H1191 H 0.75953 0.20776 0.64329
 H1192 H 0.79210 0.24006 0.64340
 H1193 H 0.76642 0.26621 0.58030
 H1194 H 0.73384 0.23390 0.58019
 C1195 C 0.73365 0.73284 0.12220
 C1196 C 0.74158 0.74065 0.09666
 C1197 C 0.75913 0.75806 0.09665
 C1198 C 0.76702 0.76594 0.12218
 C1199 C 0.77465 0.74241 0.13497
 C1200 C 0.75711 0.72501 0.13498
 C1201 C 0.72600 0.75640 0.13494
 C1202 C 0.74354 0.77380 0.13493
 C1203 C 0.71477 0.71411 0.12231
 C1204 C 0.69926 0.69872 0.12266
 C1205 C 0.78588 0.78468 0.12227
 C1206 C 0.80135 0.80012 0.12260
 H1207 H 0.73408 0.73317 0.08005
 H1208 H 0.76666 0.76549 0.08003
 H1209 H 0.79227 0.73966 0.14329
 H1210 H 0.75971 0.70736 0.14331
 H1211 H 0.70836 0.75918 0.14325
 H1212 H 0.74092 0.79147 0.14323
 C1213 C 0.26685 0.26610 0.12285
 C1214 C 0.24277 0.27454 0.13403
 C1215 C 0.22525 0.25713 0.13404
 C1216 C 0.23350 0.23298 0.12287
 C1217 C 0.25629 0.22584 0.13717
 C1218 C 0.27382 0.24325 0.13716
 C1219 C 0.26022 0.25695 0.09739
 C1220 C 0.24269 0.23953 0.09740
 C1221 C 0.28570 0.28485 0.12294
 C1222 C 0.30117 0.30028 0.12323
 C1223 C 0.21464 0.21424 0.12297
 C1224 C 0.19916 0.19882 0.12327
 H1225 H 0.23976 0.29260 0.14129
 H1226 H 0.20722 0.26028 0.14131
 H1227 H 0.25847 0.20863 0.14649
 H1228 H 0.29101 0.24095 0.14647
 H1229 H 0.26857 0.26356 0.08081
 H1230 H 0.23601 0.23122 0.08083
 C1231 C 0.26646 0.73387 0.87726
 C1232 C 0.25572 0.73888 0.90248
 C1233 C 0.23816 0.75629 0.90249
 C1234 C 0.23305 0.76698 0.87728
 C1235 C 0.22704 0.74504 0.86121
 C1236 C 0.24459 0.72764 0.86119
 C1237 C 0.27529 0.75864 0.86811
 C1238 C 0.25773 0.77604 0.86812
 C1239 C 0.28536 0.71512 0.87715
 C1240 C 0.30086 0.69969 0.87685
 C1241 C 0.21415 0.78573 0.87720
 C1242 C 0.19865 0.80116 0.87692
 H1243 H 0.26141 0.72959 0.91888
 H1244 H 0.22881 0.76190 0.91890
 H1245 H 0.21045 0.74333 0.85075
 H1246 H 0.24303 0.71103 0.85073
 H1247 H 0.29371 0.76220 0.86215
 H1248 H 0.26112 0.79450 0.86217
 C1249 C 0.26634 0.23300 0.37735
 C1250 C 0.25916 0.24167 0.40284
 C1251 C 0.24162 0.25909 0.40279
 C1252 C 0.23300 0.26612 0.37726
 C1253 C 0.22500 0.24220 0.36547
 C1254 C 0.24253 0.22478 0.36552
 C1255 C 0.27362 0.25610 0.36363
 C1256 C 0.25609 0.27352 0.36358
 C1257 C 0.28519 0.21426 0.37730
 C1258 C 0.30068 0.19884 0.37703
 C1259 C 0.21415 0.28487 0.37712
 C1260 C 0.19870 0.30032 0.37678
 H1261 H 0.26714 0.23473 0.41946
 H1262 H 0.23457 0.26709 0.41937
 H1263 H 0.20713 0.23921 0.35776
 H1264 H 0.23969 0.20687 0.35785
 H1265 H 0.29101 0.25857 0.35473
 H1266 H 0.25846 0.29090 0.35464
 C1267 C 0.51659 0.62341 1.01651
 C1268 C 0.49494 0.60697 1.02250
 C1269 C 0.47738 0.60704 1.00511
 C1270 C 0.48320 0.62354 0.98344
 C1271 C 0.50798 0.61485 0.97418
 C1272 C 0.52554 0.61478 0.99157
 C1273 C 0.50554 0.64855 1.01193
 C1274 C 0.48798 0.64862 0.99455
 C1275 C 0.53548 0.62340 1.03523
 C1276 C 0.55099 0.62349 1.05063
 C1277 C 0.46431 0.62367 0.96471
 C1278 C 0.44883 0.62386 0.94928
 H1279 H 0.49354 0.59621 1.03894
 H1280 H 0.46093 0.59634 1.00665
 H1281 H 0.51143 0.60922 0.95561
 H1282 H 0.54403 0.60910 0.98790
 H1283 H 0.51101 0.66487 1.02151
 H1284 H 0.47842 0.66499 0.98923
 C1285 C 0.48314 0.12340 0.48363
 C1286 C 0.47594 0.10988 0.50689
 C1287 C 0.49354 0.10995 0.52425
 C1288 C 0.51661 0.12355 0.51663
 C1289 C 0.50795 0.14901 0.50942
 C1290 C 0.49036 0.14893 0.49207
 C1291 C 0.50692 0.11148 0.47540
 C1292 C 0.52452 0.11156 0.49276
 C1293 C 0.46421 0.12339 0.46494
 C1294 C 0.44870 0.12347 0.44954
 C1295 C 0.53553 0.12369 0.53532
 C1296 C 0.55105 0.12388 0.55071
 H1297 H 0.45856 0.10101 0.50949
 H1298 H 0.49123 0.10115 0.54172
 H1299 H 0.51502 0.16564 0.51725
 H1300 H 0.48236 0.16550 0.48504
 H1301 H 0.50969 0.10365 0.45753
 H1302 H 0.54236 0.10379 0.48975
 C1303 C 0.51643 0.87667 0.48320
 C1304 C 0.50856 0.85118 0.49118
 C1305 C 0.49101 0.85125 0.50859
 C1306 C 0.48303 0.87678 0.51633
 C1307 C 0.47538 0.88941 0.49271
 C1308 C 0.49294 0.88935 0.47530
 C1309 C 0.52403 0.88956 0.50670
 C1310 C 0.50647 0.88963 0.52411
 C1311 C 0.53533 0.87653 0.46444
 C1312 C 0.55084 0.87634 0.44902
 C1313 C 0.46414 0.87678 0.53509
 C1314 C 0.44865 0.87669 0.55054
 H1315 H 0.51611 0.83455 0.48381
 H1316 H 0.48353 0.83466 0.51613
 H1317 H 0.45774 0.89769 0.48992
 H1318 H 0.49034 0.89758 0.45759
 H1319 H 0.54163 0.89793 0.50940
 H1320 H 0.50904 0.89805 0.54174
 C1321 C 1.01669 0.37667 0.48344
 C1322 C 1.00913 0.35117 0.49166
 C1323 C 0.99160 0.35119 0.50908
 C1324 C 0.98335 0.37671 0.51658
 C1325 C 0.97552 0.38903 0.49287
 C1326 C 0.99305 0.38902 0.47544
 C1327 C 1.02417 0.38987 0.50680
 C1328 C 1.00664 0.38989 0.52423
 C1329 C 1.03554 0.37658 0.46468
 C1330 C 1.05101 0.37641 0.44924
 C1331 C 0.96450 0.37666 0.53534
 C1332 C 0.94902 0.37651 0.55078
 H1333 H 1.01686 0.33456 0.48442
 H1334 H 0.98432 0.33460 0.51678
 H1335 H 0.95778 0.39709 0.49003
 H1336 H 0.99034 0.39705 0.45766
 H1337 H 1.04168 0.39847 0.50941
 H1338 H 1.00912 0.39850 0.54178
 C1339 C -0.01724 0.87615 1.01694
 C1340 C 0.00608 0.88919 1.02477
 C1341 C 0.02363 0.88935 1.00735
 C1342 C 0.01616 0.87647 0.98381
 C1343 C -0.00745 0.88896 0.97595
 C1344 C -0.02501 0.88879 0.99337
 C1345 C -0.00902 0.85072 1.00911
 C1346 C 0.00853 0.85088 0.99170
 C1347 C -0.03614 0.87592 1.03570
 C1348 C -0.05164 0.87569 1.05114
 C1349 C 0.03505 0.87658 0.96505
 C1350 C 0.05055 0.87658 0.94960
 H1351 H 0.00857 0.89757 1.04243
 H1352 H 0.04116 0.89788 1.01009
 H1353 H -0.01013 0.89723 0.95828
 H1354 H -0.04272 0.89692 0.99061
 H1355 H -0.01635 0.83404 1.01659
 H1356 H 0.01623 0.83435 0.98427
 C1357 C -0.01620 0.12314 -0.01698
 C1358 C -0.02583 0.11731 0.00851
 C1359 C -0.00832 0.11730 0.02595
 C1360 C 0.01710 0.12313 0.01620
 C1361 C 0.01439 0.14755 0.00311
 C1362 C -0.00311 0.14756 -0.01433
 C1363 C 0.00402 0.10452 -0.02151
 C1364 C 0.02153 0.10452 -0.00406
 C1365 C -0.03505 0.12321 -0.03575
 C1366 C -0.05053 0.12336 -0.05117
 C1367 C 0.03592 0.12319 0.03499
 C1368 C 0.05136 0.12332 0.05046
 H1369 H -0.04472 0.11349 0.01250
 H1370 H -0.01222 0.11349 0.04489
 H1371 H 0.02528 0.16344 0.00718
 H1372 H -0.00722 0.16345 -0.02520
 H1373 H 0.00452 0.09241 -0.03704
 H1374 H 0.03704 0.09240 -0.00465
 C1375 C 0.12333 1.01700 1.01736
 C1376 C 0.10883 1.02419 0.99470
 C1377 C 0.10873 1.00682 0.97708
 C1378 C 0.12313 0.98398 0.98386
 C1379 C 0.11220 0.97545 1.00802
 C1380 C 0.11230 0.99281 1.02564
 C1381 C 0.14870 1.01051 1.00792
 C1382 C 0.14860 0.99315 0.99031
 C1383 C 0.12352 1.03570 1.03631
 C1384 C 0.12375 1.05110 1.05184
 C1385 C 0.12310 0.96528 0.96491
 C1386 C 0.12319 0.94989 0.94937
 H1387 H 0.09946 1.04139 0.99268
 H1388 H 0.09926 1.00915 0.95997
 H1389 H 0.10498 0.95738 1.01102
 H1390 H 0.10518 0.98962 1.04373
 H1391 H 0.16530 1.01881 1.01449
 H1392 H 0.16510 0.98659 0.98179
 C1393 C 0.12342 0.48352 0.48335
 C1394 C 0.10836 0.50599 0.47675
 C1395 C 0.10834 0.52340 0.49432
 C1396 C 0.12338 0.51663 0.51676
 C1397 C 0.14874 0.51072 0.50692
 C1398 C 0.14876 0.49331 0.48935
 C1399 C 0.11309 0.47480 0.50770
 C1400 C 0.11307 0.49221 0.52527
 C1401 C 0.12351 0.46477 0.46444
 C1402 C 0.12368 0.44934 0.44894
 C1403 C 0.12342 0.53537 0.53566
 C1404 C 0.12356 0.55080 0.55117
 H1405 H 0.09857 0.50804 0.45979
 H1406 H 0.09852 0.54037 0.49241
 H1407 H 0.16523 0.51944 0.51319
 H1408 H 0.16527 0.48713 0.48058
 H1409 H 0.10636 0.45656 0.51087
 H1410 H 0.10632 0.48889 0.54349
 C1411 C 0.37660 0.48338 1.01669
 C1412 C 0.35113 0.49018 1.00774
 C1413 C 0.35111 0.50760 0.99021
 C1414 C 0.37655 0.51653 0.98332
 C1415 C 0.39060 0.49356 0.97618
 C1416 C 0.39062 0.47613 0.99372
 C1417 C 0.38802 0.50742 1.02486
 C1418 C 0.38800 0.52485 1.00732
 C1419 C 0.37655 0.46461 1.03557
 C1420 C 0.37640 0.44917 1.05107
 C1421 C 0.37646 0.53530 0.96444
 C1422 C 0.37628 0.55075 0.94896
 H1423 H 0.33457 0.48202 1.01458
 H1424 H 0.33453 0.51436 0.98203
 H1425 H 0.39974 0.49120 0.95888
 H1426 H 0.39978 0.45884 0.99145
 H1427 H 0.39549 0.51048 1.04283
 H1428 H 0.39545 0.54284 1.01026
 C1429 C 0.87672 0.51679 0.48343
 C1430 C 0.89096 0.49391 0.47643
 C1431 C 0.89094 0.47650 0.49399
 C1432 C 0.87668 0.48371 0.51681
 C1433 C 0.85125 0.49033 0.50765
 C1434 C 0.85127 0.50772 0.49010
 C1435 C 0.88791 0.52522 0.50750
 C1436 C 0.88789 0.50782 0.52506
 C1437 C 0.87667 0.53551 0.46454
 C1438 C 0.87652 0.55092 0.44904
 C1439 C 0.87659 0.46498 0.53569
 C1440 C 0.87641 0.44955 0.55117
 H1441 H 0.90026 0.49158 0.45921
 H1442 H 0.90022 0.45927 0.49182
 H1443 H 0.83468 0.48208 0.51436
 H1444 H 0.83472 0.51438 0.48177
 H1445 H 0.89523 0.54326 0.51048
 H1446 H 0.89519 0.51094 0.54309
 C1447 C 0.87707 1.01608 -0.01722
 C1448 C 0.89048 0.99284 -0.02470
 C1449 C 0.89049 0.97538 -0.00720
 C1450 C 0.87709 0.98288 0.01605
 C1451 C 0.85160 0.99022 0.00764
 C1452 C 0.85159 1.00768 -0.00985
 C1453 C 0.88917 1.02411 0.00654
 C1454 C 0.88918 1.00665 0.02404
 C1455 C 0.87698 1.03487 -0.03603
 C1456 C 0.87681 1.05033 -0.05148
 C1457 C 0.87702 0.96410 0.03487
 C1458 C 0.87684 0.94864 0.05032
 H1459 H 0.89922 0.99033 -0.04219
 H1460 H 0.89924 0.95791 -0.00969
 H1461 H 0.83501 0.98240 0.01480
 H1462 H 0.83499 1.01481 -0.01768
 H1463 H 0.89706 1.04193 0.00937
 H1464 H 0.89708 1.00950 0.04186
 C1465 C 0.62332 -0.01647 0.48317
 C1466 C 0.60818 0.00596 0.47659
 C1467 C 0.60818 0.02340 0.49412
 C1468 C 0.62332 0.01670 0.51652
 C1469 C 0.64866 0.01084 0.50659
 C1470 C 0.64866 -0.00659 0.48906
 C1471 C 0.61311 -0.02517 0.50758
 C1472 C 0.61310 -0.00773 0.52512
 C1473 C 0.62340 -0.03524 0.46430
 C1474 C 0.62357 -0.05069 0.44882
 C1475 C 0.62338 0.03548 0.53538
 C1476 C 0.62354 0.05093 0.55086
 H1477 H 0.59831 0.00795 0.45966
 H1478 H 0.59830 0.04033 0.49222
 H1479 H 0.66515 0.01962 0.51278
 H1480 H 0.66516 -0.01275 0.48024
 H1481 H 0.60644 -0.04341 0.51080
 H1482 H 0.60643 -0.01103 0.54336
 C1483 C 0.48335 1.01644 0.37662
 C1484 C 0.49198 1.00941 0.35108
 C1485 C 0.50948 0.99197 0.35100
 C1486 C 0.51663 0.98327 0.37647
 C1487 C 0.49281 0.97508 0.38830
 C1488 C 0.47530 0.99252 0.38838
 C1489 C 0.50644 1.02380 0.39031
 C1490 C 0.52395 1.00635 0.39023
 C1491 C 0.46452 1.03520 0.37664
 C1492 C 0.44902 1.05060 0.37654
 C1493 C 0.53546 0.96450 0.37632
 C1494 C 0.55093 0.94907 0.37612
 H1495 H 0.48497 1.01743 0.33452
 H1496 H 0.51746 0.98505 0.33436
 H1497 H 0.48994 0.95716 0.39596
 H1498 H 0.45744 0.98956 0.39611
 H1499 H 0.50882 1.04117 0.39929
 H1500 H 0.54133 1.00876 0.39914
 C1501 C -0.01655 -0.01701 0.12313
 C1502 C -0.02582 0.00799 0.11512
 C1503 C -0.00837 0.02549 0.11515
 C1504 C 0.01663 0.01627 0.12319
 C1505 C 0.02227 -0.00508 0.10619
 C1506 C 0.00483 -0.02258 0.10616
 C1507 C -0.00506 -0.01278 0.14815
 C1508 C 0.01238 0.00471 0.14818
 C1509 C -0.03532 -0.03585 0.12317
 C1510 C -0.05075 -0.05132 0.12328
 C1511 C 0.03541 0.03509 0.12329
 C1512 C 0.05087 0.05053 0.12346
 H1513 H -0.04444 0.01163 0.10986
 H1514 H -0.01205 0.04412 0.10992
 H1515 H 0.03853 -0.00632 0.09514
 H1516 H 0.00613 -0.03882 0.09508
 H1517 H -0.01016 -0.02266 0.16440
 H1518 H 0.02221 0.00981 0.16446
 C1519 C 0.51662 0.51635 0.12316
 C1520 C 0.51091 0.50645 0.14856
 C1521 C 0.49344 0.48898 0.14866
 C1522 C 0.48340 0.48312 0.12336
 C1523 C 0.50570 0.47648 0.10805
 C1524 C 0.52317 0.49395 0.10795
 C1525 C 0.49216 0.52502 0.11310
 C1526 C 0.47469 0.50755 0.11320
 C1527 C 0.53543 0.53515 0.12313
 C1528 C 0.55090 0.55058 0.12324
 C1529 C 0.46460 0.46432 0.12353
 C1530 C 0.44914 0.44889 0.12375
 H1531 H 0.51980 0.51261 0.16502
 H1532 H 0.48737 0.48019 0.16521
 H1533 H 0.50759 0.45955 0.09814
 H1534 H 0.54003 0.49200 0.09796
 H1535 H 0.48886 0.54327 0.10646
 H1536 H 0.45642 0.51082 0.10665
 C1537 C -0.01667 0.48353 0.62366
 C1538 C -0.02488 0.50746 0.61202
 C1539 C -0.00745 0.52497 0.61203
 C1540 C 0.01649 0.51683 0.62367
 C1541 C 0.02381 0.49381 0.60979
 C1542 C 0.00638 0.47630 0.60979
 C1543 C -0.00790 0.49052 0.64915
 C1544 C 0.00953 0.50803 0.64916
 C1545 C -0.03543 0.46469 0.62372
 C1546 C -0.05088 0.44923 0.62385
 C1547 C 0.03526 0.53567 0.62374
 C1548 C 0.05071 0.55112 0.62388
 H1549 H -0.04280 0.51039 0.60443
 H1550 H -0.01043 0.54289 0.60444
 H1551 H 0.04115 0.49147 0.60075
 H1552 H 0.00878 0.45896 0.60074
 H1553 H -0.01478 0.48244 0.66575
 H1554 H 0.01757 0.51493 0.66576
 C1555 C 0.48344 0.51684 0.87663
 C1556 C 0.49189 0.50936 0.85115
 C1557 C 0.50935 0.49188 0.85123
 C1558 C 0.51668 0.48356 0.87678
 C1559 C 0.49291 0.47563 0.88891
 C1560 C 0.47544 0.49312 0.88884
 C1561 C 0.50666 0.52435 0.89003
 C1562 C 0.52413 0.50685 0.89011
 C1563 C 0.46463 0.53567 0.87649
 C1564 C 0.44915 0.55112 0.87630
 C1565 C 0.53550 0.46473 0.87680
 C1566 C 0.55098 0.44928 0.87670
 H1567 H 0.48477 0.51713 0.83451
 H1568 H 0.51719 0.48466 0.83465
 H1569 H 0.49006 0.45785 0.89689
 H1570 H 0.45762 0.49032 0.89674
 H1571 H 0.50914 0.54185 0.89871
 H1572 H 0.54158 0.50938 0.89886
 C1573 C 0.62382 0.51703 1.01721
 C1574 C 0.60854 0.52365 0.99489
 C1575 C 0.60855 0.50620 0.97736
 C1576 C 0.62383 0.48385 0.98387
 C1577 C 0.61376 0.47511 1.00834
 C1578 C 0.61376 0.49256 1.02587
 C1579 C 0.64914 0.51129 1.00717
 C1580 C 0.64914 0.49385 0.98965
 C1581 C 0.62387 0.53581 1.03608
 C1582 C 0.62399 0.55125 1.05157
 C1583 C 0.62390 0.46507 0.96502
 C1584 C 0.62404 0.44960 0.94955
 H1585 H 0.59859 0.54054 0.99302
 H1586 H 0.59860 0.50814 0.96047
 H1587 H 0.60720 0.45683 1.01160
 H1588 H 0.60719 0.48923 1.04414
 H1589 H 0.66562 0.52015 1.01328
 H1590 H 0.66563 0.48776 0.98075
 C1591 C 0.37635 1.01706 0.48287
 C1592 C 0.39046 0.99409 0.47586
 C1593 C 0.39044 0.97672 0.49346
 C1594 C 0.37631 0.98402 0.51634
 C1595 C 0.35088 0.99074 0.50727
 C1596 C 0.35090 1.00811 0.48968
 C1597 C 0.38768 1.02548 0.50688
 C1598 C 0.38766 1.00810 0.52448
 C1599 C 0.37630 1.03577 0.46393
 C1600 C 0.37614 1.05119 0.44840
 C1601 C 0.37622 0.96530 0.53529
 C1602 C 0.37604 0.94990 0.55082
 H1603 H 0.39967 0.99169 0.45861
 H1604 H 0.39964 0.95944 0.49128
 H1605 H 0.33430 0.98258 0.51407
 H1606 H 0.33434 1.01481 0.48141
 H1607 H 0.39510 1.04348 0.50980
 H1608 H 0.39506 1.01123 0.54247
 C1609 C -0.01664 0.62374 0.48343
 C1610 C -0.02410 0.61041 0.50672
 C1611 C -0.00660 0.61040 0.52417
 C1612 C 0.01664 0.62372 0.51662
 C1613 C 0.00828 0.64923 0.50923
 C1614 C -0.00921 0.64924 0.49178
 C1615 C 0.00708 0.61154 0.47540
 C1616 C 0.02457 0.61153 0.49285
 C1617 C -0.03546 0.62381 0.46464
 C1618 C -0.05090 0.62394 0.44917
 C1619 C 0.03546 0.62378 0.53541
 C1620 C 0.05092 0.62391 0.55086
 H1621 H -0.04158 0.60172 0.50926
 H1622 H -0.00909 0.60170 0.54167
 H1623 H 0.01546 0.66583 0.51702
 H1624 H -0.01701 0.66584 0.48462
 H1625 H 0.00987 0.60359 0.45758
 H1626 H 0.04236 0.60358 0.48999
 C1627 C 0.48361 0.37651 1.01692
 C1628 C 0.50649 0.39049 1.02440
 C1629 C 0.52412 0.39057 1.00705
 C1630 C 0.51712 0.37667 0.98395
 C1631 C 0.49321 0.38819 0.97557
 C1632 C 0.47558 0.38811 0.99291
 C1633 C 0.49259 0.35107 1.01002
 C1634 C 0.51021 0.35115 0.99268
 C1635 C 0.46467 0.37636 1.03558
 C1636 C 0.44913 0.37616 1.05096
 C1637 C 0.53606 0.37668 0.96528
 C1638 C 0.55157 0.37658 0.94988
 H1639 H 0.50865 0.39954 1.04177
 H1640 H 0.54138 0.39969 1.00956
 H1641 H 0.49037 0.39576 0.95760
 H1642 H 0.45765 0.39561 0.98980
 H1643 H 0.48572 0.33446 1.01804
 H1644 H 0.51843 0.33461 0.98585
 C1645 C 0.48312 -0.01614 0.62341
 C1646 C 0.47505 0.00771 0.61153
 C1647 C 0.49252 0.02519 0.61156
 C1648 C 0.51634 0.01709 0.62347
 C1649 C 0.52374 -0.00605 0.60984
 C1650 C 0.50627 -0.02352 0.60980
 C1651 C 0.49166 -0.00898 0.64893
 C1652 C 0.50912 0.00849 0.64897
 C1653 C 0.46432 -0.03495 0.62345
 C1654 C 0.44885 -0.05038 0.62357
 C1655 C 0.53514 0.03589 0.62357
 C1656 C 0.55061 0.05132 0.62374
 H1657 H 0.45720 0.01062 0.60375
 H1658 H 0.48964 0.04306 0.60381
 H1659 H 0.54115 -0.00848 0.60097
 H1660 H 0.50872 -0.04093 0.60091
 H1661 H 0.48462 -0.01693 0.66552
 H1662 H 0.51703 0.01551 0.66558
 C1663 C -0.01623 0.51691 0.37660
 C1664 C -0.00729 0.51008 0.35111
 C1665 C 0.01010 0.49253 0.35110
 C1666 C 0.01684 0.48353 0.37657
 C1667 C -0.00720 0.47537 0.38799
 C1668 C -0.02459 0.49293 0.38800
 C1669 C 0.00671 0.52399 0.39068
 C1670 C 0.02411 0.50643 0.39067
 C1671 C -0.03496 0.53578 0.37654
 C1672 C -0.05039 0.55125 0.37637
 C1673 C 0.03556 0.46465 0.37649
 C1674 C 0.05096 0.44916 0.37632
 H1675 H -0.01402 0.51831 0.33453
 H1676 H 0.01827 0.48572 0.33451
 H1677 H -0.01028 0.45740 0.39543
 H1678 H -0.04258 0.49000 0.39546
 H1679 H 0.00907 0.54125 0.39987
 H1680 H 0.04138 0.50864 0.39985
 C1681 C -0.01723 1.01724 0.87626
 C1682 C -0.00889 1.00960 0.85080
 C1683 C 0.00856 0.99210 0.85093
 C1684 C 0.01598 0.98394 0.87650
 C1685 C -0.00776 0.97610 0.88877
 C1686 C -0.02522 0.99361 0.88864
 C1687 C 0.00603 1.02482 0.88953
 C1688 C 0.02349 1.00731 0.88966
 C1689 C -0.03604 1.03609 0.87607
 C1690 C -0.05150 1.05157 0.87586
 C1691 C 0.03478 0.96510 0.87657
 C1692 C 0.05026 0.94964 0.87651
 H1693 H -0.01606 1.01727 0.83413
 H1694 H 0.01634 0.98478 0.83437
 H1695 H -0.01059 0.95838 0.89686
 H1696 H -0.04300 0.99088 0.89663
 H1697 H 0.00856 1.04238 0.89810
 H1698 H 0.04097 1.00988 0.89833
 C1699 C 0.76666 0.62237 0.26646
 C1700 C 0.74307 0.63503 0.27410
 C1701 C 0.72570 0.63498 0.25653
 C1702 C 0.73362 0.62228 0.23302
 C1703 C 0.74156 0.59678 0.24091
 C1704 C 0.75894 0.59683 0.25849
 C1705 C 0.77447 0.63519 0.24299
 C1706 C 0.75710 0.63514 0.22542
 C1707 C 0.78536 0.62252 0.28537
 C1708 C 0.80076 0.62288 0.30087
 C1709 C 0.71492 0.62234 0.21412
 C1710 C 0.69950 0.62264 0.19863
 H1711 H 0.74025 0.64331 0.29177
 H1712 H 0.70801 0.64322 0.25914
 H1713 H 0.73419 0.58016 0.23335
 H1714 H 0.76645 0.58025 0.26600
 H1715 H 0.79209 0.64357 0.24041
 H1716 H 0.75985 0.64348 0.20778
 C1717 C 0.26618 0.87864 0.73338
 C1718 C 0.24521 0.86107 0.72828
 C1719 C 0.22781 0.86107 0.74585
 C1720 C 0.23307 0.87864 0.76681
 C1721 C 0.23668 0.90346 0.75470
 C1722 C 0.25408 0.90346 0.73712
 C1723 C 0.27569 0.87140 0.75854
 C1724 C 0.25829 0.87140 0.77611
 C1725 C 0.28492 0.87851 0.71447
 C1726 C 0.30036 0.87811 0.69896
 C1727 C 0.21433 0.87851 0.78573
 C1728 C 0.19890 0.87811 0.80124
 H1729 H 0.24411 0.84963 0.71227
 H1730 H 0.21182 0.84963 0.74488
 H1731 H 0.22646 0.91960 0.75950
 H1732 H 0.25878 0.91960 0.72686
 H1733 H 0.29444 0.86669 0.76223
 H1734 H 0.26214 0.86669 0.79485
 C1735 C 0.23336 0.37780 0.26663
 C1736 C 0.24136 0.40333 0.25891
 C1737 C 0.25877 0.40334 0.24134
 C1738 C 0.26646 0.37782 0.23325
 C1739 C 0.24287 0.36526 0.22550
 C1740 C 0.22546 0.36526 0.24305
 C1741 C 0.25680 0.36483 0.27419
 C1742 C 0.27420 0.36484 0.25664
 C1743 C 0.21463 0.37766 0.28551
 C1744 C 0.19921 0.37725 0.30099
 C1745 C 0.28520 0.37769 0.21438
 C1746 C 0.30064 0.37728 0.19891
 H1747 H 0.23400 0.41992 0.26655
 H1748 H 0.26634 0.41994 0.23394
 H1749 H 0.24008 0.35710 0.20778
 H1750 H 0.20776 0.35709 0.24037
 H1751 H 0.25948 0.35639 0.29179
 H1752 H 0.29180 0.35640 0.25920
 C1753 C 0.87785 0.73298 0.26618
 C1754 C 0.86459 0.75626 0.27378
 C1755 C 0.86456 0.77376 0.25633
 C1756 C 0.87779 0.76626 0.23298
 C1757 C 0.86554 0.74256 0.22501
 C1758 C 0.86557 0.72506 0.24247
 C1759 C 0.90333 0.74128 0.25868
 C1760 C 0.90330 0.75878 0.24122
 C1761 C 0.87776 0.71416 0.28497
 C1762 C 0.87739 0.69873 0.30044
 C1763 C 0.87764 0.78509 0.21421
 C1764 C 0.87727 0.80056 0.19877
 H1765 H 0.85598 0.75879 0.29133
 H1766 H 0.85593 0.79128 0.25892
 H1767 H 0.85755 0.73977 0.20723
 H1768 H 0.85761 0.70728 0.23963
 H1769 H 0.91993 0.73404 0.26640
 H1770 H 0.91988 0.76655 0.23398
 C1771 C 0.62320 0.26694 0.76679
 C1772 C 0.63768 0.27373 0.74398
 C1773 C 0.63764 0.25614 0.72660
 C1774 C 0.62313 0.23348 0.73373
 C1775 C 0.59772 0.24290 0.74014
 C1776 C 0.59776 0.26049 0.75752
 C1777 C 0.63411 0.24279 0.77534
 C1778 C 0.63407 0.22520 0.75796
 C1779 C 0.62333 0.28586 0.78550
 C1780 C 0.62365 0.30137 0.80092
 C1781 C 0.62318 0.21456 0.71501
 C1782 C 0.62344 0.19905 0.69959
 H1783 H 0.64713 0.29085 0.74169
 H1784 H 0.64706 0.25819 0.70942
 H1785 H 0.58117 0.23633 0.73176
 H1786 H 0.58124 0.26900 0.76404
 H1787 H 0.64124 0.23977 0.79345
 H1788 H 0.64117 0.20711 0.76118
 C1789 C 0.76716 0.23370 0.87757
 C1790 C 0.75911 0.24127 0.90315
 C1791 C 0.74159 0.25873 0.90327
 C1792 C 0.73383 0.26689 0.87779
 C1793 C 0.72623 0.24351 0.86471
 C1794 C 0.74375 0.22607 0.86459
 C1795 C 0.77490 0.25737 0.86512
 C1796 C 0.75738 0.27481 0.86524
 C1797 C 0.78601 0.21490 0.87734
 C1798 C 0.80147 0.19943 0.87693
 C1799 C 0.71497 0.28568 0.87780
 C1800 C 0.69948 0.30113 0.87752
 H1801 H 0.76652 0.23361 0.91971
 H1802 H 0.73399 0.26601 0.91993
 H1803 H 0.70864 0.24088 0.85627
 H1804 H 0.74115 0.20851 0.85605
 H1805 H 0.79258 0.26019 0.85694
 H1806 H 0.76007 0.29257 0.85715
 C1807 C 0.26638 0.76700 0.62290
 C1808 C 0.24492 0.77282 0.63966
 C1809 C 0.22739 0.75541 0.63969
 C1810 C 0.23305 0.73388 0.62294
 C1811 C 0.25795 0.72462 0.63123
 C1812 C 0.27547 0.74203 0.63121
 C1813 C 0.25504 0.76259 0.59784
 C1814 C 0.23751 0.74517 0.59786
 C1815 C 0.28524 0.78575 0.62296
 C1816 C 0.30071 0.80118 0.62324
 C1817 C 0.21419 0.71513 0.62305
 C1818 C 0.19873 0.69969 0.62336
 H1819 H 0.24360 0.78918 0.65057
 H1820 H 0.21106 0.75685 0.65061
 H1821 H 0.26151 0.70602 0.63665
 H1822 H 0.29404 0.73835 0.63661
 H1823 H 0.26031 0.77229 0.58153
 H1824 H 0.22776 0.73995 0.58157
   
