data_POSCAR
  _audit_creation_date              2014-09-24
  _audit_creation_method            'ToBaCCo'
  _symmetry_space_group_name_H-M    'P1'
  _symmetry_Int_Tables_number       1
  _symmetry_cell_setting            triclinic
  loop_
  _symmetry_equiv_pos_as_xyz
 x,y,z
_cell_length_a 62.8030
_cell_length_b 62.7691
_cell_length_c 62.5542
_cell_angle_alpha 90.119100
_cell_angle_beta 89.994400
_cell_angle_gamma 89.823000
loop_
  _atom_site_label
  _atom_site_type_symbol
  _atom_site_fract_x
  _atom_site_fract_y
  _atom_site_fract_z
C1 C 0.36092 1.36418 0.33917
 C2 C 0.34384 1.37349 0.35063
 C3 C 0.33500 1.36367 0.36888
 C4 C 0.34394 1.34430 0.37580
 C5 C 0.36063 1.33455 0.36461
 C6 C 0.36915 1.34455 0.34655
 H7 H 0.33709 1.38834 0.34515
 H8 H 0.33725 1.33595 0.38933
 H9 H 0.38242 1.33696 0.33854
 C10 C 0.35943 0.85561 0.82716
 C11 C 0.36899 0.83911 0.83874
 C12 C 0.35970 0.83147 0.85759
 C13 C 0.34055 0.84062 0.86490
 C14 C 0.33040 0.85721 0.85344
 C15 C 0.34030 0.86454 0.83455
 H16 H 0.38365 0.83203 0.83293
 H17 H 0.33331 0.83410 0.87913
 H18 H 0.33350 0.87761 0.82560
 C19 C 0.84902 1.34937 0.82435
 C20 C 0.83073 1.35952 0.83240
 C21 C 0.82037 1.35212 0.85100
 C22 C 0.82902 1.33408 0.86138
 C23 C 0.84716 1.32358 0.85339
 C24 C 0.85709 1.33140 0.83493
 H25 H 0.82500 1.37358 0.82424
 H26 H 0.82131 1.32752 0.87534
 H27 H 0.87106 1.32338 0.82867
 C28 C 0.85986 0.85935 0.33122
 C29 C 0.86760 0.83955 0.33882
 C30 C 0.85850 0.82965 0.35675
 C31 C 0.84160 0.83966 0.36741
 C32 C 0.83355 0.85921 0.36033
 C33 C 0.84273 0.86897 0.34238
 H34 H 0.88099 0.83179 0.33119
 H35 H 0.83447 0.83203 0.38117
 H36 H 0.83574 0.88370 0.33678
 C37 C 0.63774 0.63856 0.33889
 C38 C 0.63035 0.65766 0.34806
 C39 C 0.64047 0.66642 0.36606
 C40 C 0.65785 0.65564 0.37512
 C41 C 0.66545 0.63656 0.36622
 C42 C 0.65532 0.62811 0.34810
 H43 H 0.61728 0.66620 0.34065
 H44 H 0.66578 0.66236 0.38895
 H45 H 0.66099 0.61326 0.34129
 C46 C 0.64077 0.14038 0.83213
 C47 C 0.65931 0.13275 0.84242
 C48 C 0.66722 0.14246 0.86104
 C49 C 0.65639 0.16006 0.86966
 C50 C 0.63792 0.16802 0.85988
 C51 C 0.63019 0.15807 0.84131
 H52 H 0.66727 0.11856 0.83663
 H53 H 0.66249 0.16774 0.88391
 H54 H 0.61666 0.16522 0.83336
 C55 C 1.14937 0.64690 0.82345
 C56 C 1.14064 0.66530 0.83284
 C57 C 1.15008 0.67443 0.85104
 C58 C 1.16817 0.66474 0.86001
 C59 C 1.17700 0.64631 0.85086
 C60 C 1.16744 0.63745 0.83268
 H61 H 1.12702 0.67298 0.82549
 H62 H 1.17559 0.67173 0.87398
 H63 H 1.17396 0.62299 0.82579
 C64 C 1.14550 0.14027 0.32677
 C65 C 1.16408 0.13289 0.33719
 C66 C 1.17226 0.14305 0.35558
 C67 C 1.16119 0.16090 0.36363
 C68 C 1.14263 0.16850 0.35377
 C69 C 1.13483 0.15807 0.33555
 H70 H 1.17235 0.11922 0.33079
 H71 H 1.16633 0.16849 0.37829
 H72 H 1.12116 0.16487 0.32753
 C73 C 0.64425 1.35727 0.67388
 C74 C 0.66096 1.36785 0.66349
 C75 C 0.67024 1.35961 0.64466
 C76 C 0.66197 1.34044 0.63630
 C77 C 0.64508 1.32975 0.64635
 C78 C 0.63618 1.33837 0.66506
 H79 H 0.66725 1.38211 0.67084
 H80 H 0.66792 1.33409 0.62136
 H81 H 0.62356 1.32994 0.67323
 C82 C 0.64280 0.86018 1.16589
 C83 C 0.66209 0.86782 1.15746
 C84 C 0.67155 0.85791 1.13965
 C85 C 0.66138 0.84042 1.13012
 C86 C 0.64219 0.83256 1.13833
 C87 C 0.63299 0.84253 1.15620
 H88 H 0.66987 0.88130 1.16491
 H89 H 0.66861 0.83268 1.11642
 H90 H 0.61829 0.83634 1.16274
 C91 C 1.13461 1.36159 1.16426
 C92 C 1.12524 1.34382 1.15412
 C93 C 1.13429 1.33457 1.13581
 C94 C 1.15289 1.34334 1.12718
 C95 C 1.16257 1.36108 1.13674
 C96 C 1.15344 1.37001 1.15526
 H97 H 1.11161 1.33604 1.16120
 H98 H 1.15997 1.33618 1.11310
 H99 H 1.16062 1.38418 1.16193
 C100 C 1.15303 0.85043 0.67272
 C101 C 1.14410 0.83131 0.66534
 C102 C 1.15288 0.82063 0.64770
 C103 C 1.17058 0.82937 0.63726
 C104 C 1.17989 0.84861 0.64419
 C105 C 1.17069 0.85904 0.66198
 H106 H 1.13078 0.82433 0.67378
 H107 H 1.17634 0.82146 0.62300
 H108 H 1.17764 0.87352 0.66819
 C109 C 0.34970 0.64953 0.67707
 C110 C 0.36015 0.66696 0.66771
 C111 C 0.35233 0.67635 0.64888
 C112 C 0.33384 0.66802 0.63937
 C113 C 0.32319 0.65056 0.64844
 C114 C 0.33128 0.64143 0.66726
 H115 H 0.37400 0.67367 0.67550
 H116 H 0.32797 0.67485 0.62461
 H117 H 0.32312 0.62804 0.67440
 C118 C 0.35853 0.13899 1.16610
 C119 C 0.33996 0.13126 1.15597
 C120 C 0.33110 0.14173 1.13822
 C121 C 0.34114 0.15995 1.13017
 C122 C 0.35965 0.16792 1.13973
 C123 C 0.36822 0.15740 1.15755
 H124 H 0.33139 0.11791 1.16265
 H125 H 0.33466 0.16783 1.11620
 H126 H 0.38275 0.16356 1.16441
 C127 C 0.85692 0.64686 1.17315
 C128 C 0.83815 0.63798 1.16439
 C129 C 0.82887 0.64649 1.14575
 C130 C 0.83890 0.66352 1.13532
 C131 C 0.85779 0.67221 1.14334
 C132 C 0.86657 0.66390 1.16215
 H133 H 0.82982 0.62543 1.17273
 H134 H 0.83215 0.66984 1.12070
 H135 H 0.88134 0.67065 1.16787
 C136 C 0.86152 0.13670 0.66475
 C137 C 0.84404 0.12714 0.65440
 C138 C 0.83319 0.13722 0.63741
 C139 C 0.84060 0.15728 0.63054
 C140 C 0.85816 0.16703 0.64035
 C141 C 0.86845 0.15668 0.65732
 H142 H 0.83740 0.11277 0.66110
 H143 H 0.83303 0.16536 0.61729
 H144 H 0.88250 0.16402 0.66408
 C145 C 1.35647 0.35526 0.67395
 C146 C 1.36641 0.33863 0.66272
 C147 C 1.35714 0.32969 0.64420
 C148 C 1.33747 0.33816 0.63713
 C149 C 1.32745 0.35502 0.64811
 C150 C 1.33714 0.36350 0.66643
 H151 H 1.38102 0.33216 0.66919
 H152 H 1.32996 0.33205 0.62283
 H153 H 1.32949 0.37641 0.67505
 C154 C 1.36464 0.86736 1.16312
 C155 C 1.37384 0.84909 1.15368
 C156 C 1.36399 0.83851 1.13655
 C157 C 1.34454 0.84627 1.12865
 C158 C 1.33501 0.86441 1.13770
 C159 C 1.34526 0.87497 1.15461
 H160 H 1.38893 0.84302 1.15939
 H161 H 1.33666 0.83799 1.11567
 H162 H 1.33737 0.88859 1.16171
 C163 C 0.85531 0.35643 1.17130
 C164 C 0.83785 0.36542 1.16032
 C165 C 0.82946 0.35589 1.14185
 C166 C 0.83849 0.33688 1.13421
 C167 C 0.85593 0.32753 1.14472
 C168 C 0.86434 0.33751 1.16301
 H169 H 0.83085 0.38023 1.16575
 H170 H 0.83185 0.32929 1.12015
 H171 H 0.87748 0.32987 1.17115
 C172 C 0.86276 0.86309 0.66096
 C173 C 0.84518 0.87295 0.65119
 C174 C 0.83506 0.86354 0.63357
 C175 C 0.84278 0.84411 0.62559
 C176 C 0.86022 0.83387 0.63519
 C177 C 0.87023 0.84353 0.65282
 H178 H 0.83909 0.88784 0.65755
 H179 H 0.83491 0.83673 0.61208
 H180 H 0.88363 0.83568 0.66039
 C181 C 0.64231 0.64143 0.67234
 C182 C 0.63251 0.65957 0.66361
 C183 C 0.64006 0.66866 0.64455
 C184 C 0.65763 0.65929 0.63416
 C185 C 0.66747 0.64097 0.64253
 C186 C 0.65968 0.63219 0.66161
 H187 H 0.61942 0.66707 0.67207
 H188 H 0.66336 0.66598 0.61929
 H189 H 0.66730 0.61818 0.66824
 C190 C 0.64621 1.14587 1.16926
 C191 C 0.66534 1.13745 1.16122
 C192 C 0.67581 1.14726 1.14410
 C193 C 0.66687 1.16556 1.13487
 C194 C 0.64772 1.17452 1.14261
 C195 C 0.63747 1.16423 1.15981
 H196 H 0.67223 1.12335 1.16845
 H197 H 0.67458 1.17216 1.12092
 H198 H 0.62337 1.17116 1.16697
 C199 C 0.13589 0.63838 1.16799
 C200 C 0.12761 0.65738 1.15923
 C201 C 0.13716 0.66747 1.14149
 C202 C 0.15509 0.65762 1.13207
 C203 C 0.16361 0.63869 1.14043
 C204 C 0.15402 0.62930 1.15831
 H205 H 0.11374 0.66455 1.16647
 H206 H 0.16313 0.66498 1.11871
 H207 H 0.16065 0.61456 1.16432
 C208 C 0.13766 1.13602 0.66267
 C209 C 0.12971 1.15517 0.65415
 C210 C 0.13978 1.16525 0.63667
 C211 C 0.15789 1.15522 0.62773
 C212 C 0.16595 1.13606 0.63602
 C213 C 0.15571 1.12658 0.65345
 H214 H 0.11616 1.16253 0.66190
 H215 H 0.16541 1.16170 0.61362
 H216 H 0.16233 1.11223 0.66042
 C217 C 1.35812 0.64279 0.33738
 C218 C 1.33904 0.63443 0.34547
 C219 C 1.32838 0.64459 0.36237
 C220 C 1.33707 0.66316 0.37127
 C221 C 1.35612 0.67206 0.36342
 C222 C 1.36657 0.66141 0.34649
 H223 H 1.33234 0.62018 0.33841
 H224 H 1.32921 0.67008 0.38503
 H225 H 1.38057 0.66829 0.33920
 C226 C 1.35750 1.14254 0.83102
 C227 C 1.33878 1.13502 0.84053
 C228 C 1.32992 1.14545 0.85826
 C229 C 1.34006 1.16357 0.86656
 C230 C 1.35893 1.17163 0.85734
 C231 C 1.36753 1.16067 0.83954
 H232 H 1.33065 1.12147 0.83361
 H233 H 1.33355 1.17070 0.88090
 H234 H 1.38160 1.16656 0.83158
 C235 C 0.85445 0.64019 0.83266
 C236 C 0.83564 0.63263 0.84212
 C237 C 0.82713 0.64250 0.86039
 C238 C 0.83781 0.65995 0.86938
 C239 C 0.85663 0.66777 0.86023
 C240 C 0.86481 0.65785 0.84179
 H241 H 0.82718 0.61949 0.83480
 H242 H 0.83132 0.66764 0.88348
 H243 H 0.87948 0.66363 0.83480
 C244 C 0.85376 1.14262 0.32639
 C245 C 0.83556 1.13534 0.33719
 C246 C 0.82777 1.14618 0.35526
 C247 C 0.83850 1.16438 0.36259
 C248 C 0.85671 1.17188 0.35204
 C249 C 0.86424 1.16088 0.33397
 H250 H 0.82733 1.12134 0.33140
 H251 H 0.83252 1.17286 0.37646
 H252 H 0.87819 1.16669 0.32566
 C253 C 0.63626 0.36342 0.33697
 C254 C 0.65638 0.37017 0.34435
 C255 C 0.66645 0.36003 0.36160
 C256 C 0.65636 0.34280 0.37159
 C257 C 0.63634 0.33544 0.36464
 C258 C 0.62645 0.34617 0.34749
 H259 H 0.66426 0.38358 0.33698
 H260 H 0.66393 0.33575 0.38541
 H261 H 0.61205 0.33959 0.34079
 C262 C 0.64265 0.85770 0.82993
 C263 C 0.63241 0.83995 0.83889
 C264 C 0.64015 0.83048 0.85771
 C265 C 0.65825 0.83911 0.86766
 C266 C 0.66869 0.85685 0.85898
 C267 C 0.66070 0.86608 0.84017
 H268 H 0.61886 0.83300 0.83078
 H269 H 0.66438 0.83184 0.88211
 H270 H 0.66838 0.88006 0.83365
 C271 C 0.14634 0.35532 0.82877
 C272 C 0.13837 0.33596 0.83709
 C273 C 0.14853 0.32555 0.85415
 C274 C 0.16681 0.33458 0.86315
 C275 C 0.17519 0.35364 0.85525
 C276 C 0.16484 0.36397 0.83827
 H277 H 0.12397 0.32898 0.83073
 H278 H 0.17439 0.32686 0.87664
 H279 H 0.17222 0.37807 0.83171
 C280 C 0.14217 0.85548 0.32986
 C281 C 0.13300 0.83773 0.34016
 C282 C 0.14219 0.82870 0.35848
 C283 C 0.16089 0.83756 0.36682
 C284 C 0.17048 0.85525 0.35708
 C285 C 0.16117 0.86395 0.33855
 H286 H 0.11929 0.82988 0.33331
 H287 H 0.16803 0.83062 0.38096
 H288 H 0.16823 0.87809 0.33173
 O289 O 1.07744 1.01882 1.10409
 O290 O 1.10229 1.01894 1.12899
 C291 C 1.08489 1.02615 1.12147
 C292 C 1.07344 1.04361 1.13266
 C293 C 1.07999 1.05048 1.15301
 H294 H 1.09295 1.04233 1.16101
 O295 O 0.92560 0.97684 1.10580
 O296 O 0.90084 0.97673 1.13079
 C297 C 0.91811 0.96940 1.12312
 C298 C 0.92934 0.95165 1.13401
 C299 C 0.92176 0.94336 1.15346
 H300 H 0.90781 0.95034 1.16090
 O301 O 1.02148 1.10554 1.07488
 O302 O 1.02169 1.13035 1.09989
 C303 C 1.02890 1.12278 1.08247
 C304 C 1.04654 1.13368 1.07119
 C305 C 1.05436 1.15335 1.07856
 H306 H 1.04707 1.16099 1.09228
 O307 O 0.98094 0.89260 1.07443
 O308 O 0.98092 0.86715 1.09867
 C309 C 0.97347 0.87524 1.08160
 C310 C 0.95555 0.86475 1.07027
 C311 C 0.94696 0.84558 1.07801
 H312 H 0.95378 0.83810 1.09202
 O313 O 1.10724 1.07528 1.01854
 O314 O 1.13228 1.09983 1.01868
 C315 C 1.12464 1.08254 1.02585
 C316 C 1.13575 1.07096 1.04320
 C317 C 1.15602 1.07740 1.05014
 H318 H 1.16398 1.09045 1.04217
 O319 O 0.89488 0.92281 1.01774
 O320 O 0.86991 0.89819 1.01783
 C321 C 0.87761 0.91541 1.02519
 C322 C 0.86679 0.92669 1.04299
 C323 C 0.84650 0.92035 1.04999
 H324 H 0.83826 0.90760 1.04177
 O325 O 0.98031 1.07618 1.10430
 O326 O 0.98037 1.10088 1.12942
 C327 C 0.97324 1.08349 1.12188
 C328 C 0.95631 1.07180 1.13341
 C329 C 0.94924 1.07873 1.15357
 H330 H 0.95644 1.09259 1.16091
 O331 O 1.02312 0.92040 1.10412
 O332 O 1.02347 0.89502 1.12843
 C333 C 1.03070 0.91247 1.12119
 C334 C 1.04843 0.92354 1.13227
 C335 C 1.05703 0.91557 1.15146
 H336 H 1.05040 0.90134 1.15856
 O337 O 1.10693 0.97760 1.07452
 O338 O 1.13205 0.97761 1.09916
 C339 C 1.12445 0.97044 1.08174
 C340 C 1.13574 0.95334 1.06989
 C341 C 1.15616 0.94655 1.07613
 H342 H 1.16410 0.95438 1.08935
 O343 O 0.89661 1.01867 1.07652
 O344 O 0.87182 1.01863 1.10150
 C345 C 0.87923 1.02587 1.08406
 C346 C 0.86768 1.04306 1.07268
 C347 C 0.84768 1.04998 1.07998
 H348 H 0.84054 1.04247 1.09380
 O349 O 0.92294 1.10463 1.01955
 O350 O 0.89786 1.12930 1.02006
 C351 C 0.91538 1.12191 1.02703
 C352 C 0.92690 1.13329 1.04427
 C353 C 0.91992 1.15338 1.05134
 H354 H 0.90621 1.16076 1.04387
 O355 O 1.07810 0.89311 1.01714
 O356 O 1.10294 0.86820 1.01663
 C357 C 1.08563 0.87564 1.02409
 C358 C 1.07435 0.86408 1.04129
 C359 C 1.08134 0.84385 1.04785
 H360 H 1.09497 0.83658 1.04009
 O361 O 0.92596 1.01856 1.10560
 O362 O 0.90128 1.01851 1.13068
 C363 C 0.91849 1.02587 1.12300
 C364 C 0.92961 1.04353 1.13402
 C365 C 0.92276 1.05070 1.15416
 H366 H 0.90984 1.04258 1.16219
 O367 O 1.07812 0.97709 1.10410
 O368 O 1.10310 0.97718 1.12886
 C369 C 1.08590 0.96969 1.12132
 C370 C 1.07525 0.95172 1.13228
 C371 C 1.08350 0.94364 1.15148
 H372 H 1.09696 0.95145 1.15892
 O373 O 1.02250 0.89199 1.07401
 O374 O 1.02261 0.86644 1.09815
 C375 C 1.02971 0.87437 1.08090
 C376 C 1.04694 0.86337 1.06899
 C377 C 1.05407 0.84308 1.07526
 H378 H 1.04619 0.83496 1.08830
 O379 O 0.97981 1.10543 1.07510
 O380 O 0.97991 1.13029 1.10005
 C381 C 0.97248 1.12272 1.08274
 C382 C 0.95478 1.13375 1.07157
 C383 C 0.94749 1.15382 1.07850
 H384 H 0.95539 1.16176 1.09167
 O385 O 0.89454 1.07477 1.01956
 O386 O 0.86932 1.09928 1.02021
 C387 C 0.87726 1.08200 1.02725
 C388 C 0.86665 1.07047 1.04494
 C389 C 0.84669 1.07720 1.05257
 H390 H 0.83857 1.09038 1.04490
 O391 O 1.10697 0.92252 1.01721
 O392 O 1.13194 0.89773 1.01680
 C393 C 1.12439 0.91502 1.02429
 C394 C 1.13570 0.92632 1.04168
 C395 C 1.15610 0.91977 1.04812
 H396 H 1.16376 0.90652 1.04004
 O397 O 0.98158 0.92091 1.10454
 O398 O 0.98176 0.89560 1.12893
 C399 C 0.97446 0.91311 1.12183
 C400 C 0.95701 0.92418 1.13334
 C401 C 0.94931 0.91620 1.15280
 H402 H 0.95705 0.90256 1.16004
 O403 O 1.02171 1.07594 1.10363
 O404 O 1.02183 1.10058 1.12882
 C405 C 1.02900 1.08322 1.12110
 C406 C 1.04620 1.07155 1.13237
 C407 C 1.05302 1.07821 1.15267
 H408 H 1.04552 1.09187 1.16017
 O409 O 0.89685 0.97726 1.07601
 O410 O 0.87196 0.97725 1.10088
 C411 C 0.87939 0.97020 1.08333
 C412 C 0.86777 0.95345 1.07144
 C413 C 0.84747 0.94698 1.07811
 H414 H 0.84018 0.95448 1.09191
 O415 O 1.10677 1.01906 1.07491
 O416 O 1.13177 1.01907 1.09967
 C417 C 1.12417 1.02628 1.08231
 C418 C 1.13547 1.04345 1.07079
 C419 C 1.15575 1.05009 1.07748
 H420 H 1.16328 1.04238 1.09100
 O421 O 0.92446 0.89403 1.01748
 O422 O 0.89962 0.86929 1.01759
 C423 C 0.91696 0.87679 1.02486
 C424 C 0.92805 0.86562 1.04253
 C425 C 0.91981 0.84648 1.05051
 H426 H 0.90600 0.83939 1.04298
 O427 O 1.07801 1.10444 1.01891
 O428 O 1.10292 1.12914 1.01904
 C429 C 1.08556 1.12170 1.02629
 C430 C 1.07430 1.13298 1.04379
 C431 C 1.08186 1.15260 1.05136
 H432 H 1.09545 1.15994 1.04371
 Cu433 Cu 1.08979 0.99815 1.08697
 Cu434 Cu 1.11975 0.99823 1.11671
 Cu435 Cu 0.91381 0.99781 1.08856
 Cu436 Cu 0.88403 0.99776 1.11851
 Cu437 Cu 1.00079 1.08836 1.08692
 Cu438 Cu 1.00096 1.11805 1.11703
 Cu439 Cu 1.00206 0.90901 1.08687
 Cu440 Cu 1.00221 0.87849 1.11597
 C441 C 1.05638 1.05412 1.12258
 H442 H 1.05139 1.04908 1.10679
 C443 C 1.06983 1.06774 1.16317
 C444 C 0.94707 0.94204 1.12423
 H445 H 0.95276 0.94807 1.10906
 C446 C 0.93162 0.92556 1.16295
 C447 C 1.05651 1.12374 1.05368
 H448 H 1.05080 1.10844 1.04811
 C449 C 1.07209 1.16286 1.06876
 C450 C 0.94605 0.87457 1.05241
 H451 H 0.95230 0.88953 1.04655
 C452 C 0.92897 0.83647 1.06831
 C453 C 1.12571 1.05384 1.05351
 H454 H 1.10997 1.04896 1.04843
 C455 C 1.16617 1.06701 1.06724
 C456 C 0.87719 0.94337 1.05373
 H457 H 0.89296 0.94815 1.04864
 C458 C 0.83668 0.93052 1.06747
 C459 C 0.94653 1.05407 1.12388
 H460 H 0.95170 1.04881 1.10820
 C461 C 0.93248 1.06827 1.16408
 C462 C 1.05760 0.94170 1.12294
 H463 H 1.05135 0.94772 1.10798
 C464 C 1.07467 0.92550 1.16114
 C465 C 1.12576 0.94324 1.05253
 H466 H 1.10992 0.94820 1.04778
 C467 C 1.16650 0.92983 1.06525
 C468 C 0.87694 1.05325 1.05500
 H469 H 0.89248 1.04817 1.04944
 C470 C 0.83709 1.06702 1.07006
 C471 C 0.94447 1.12373 1.05434
 H472 H 0.94978 1.10814 1.04910
 C473 C 0.93012 1.16381 1.06839
 C474 C 1.05703 0.87361 1.05183
 H475 H 1.05178 0.88935 1.04706
 C476 C 1.07129 0.83318 1.06479
 O477 O 1.07741 0.97889 0.88987
 O478 O 1.10201 0.97908 0.86472
 C479 C 1.08477 0.97175 0.87233
 C480 C 1.07341 0.95436 0.86111
 C481 C 1.08056 0.94682 0.84118
 H482 H 1.09396 0.95443 0.83346
 O483 O 0.92353 1.02074 0.89111
 O484 O 0.89886 1.02117 0.86604
 C485 C 0.91613 1.02829 0.87382
 C486 C 0.92752 1.04590 0.86307
 C487 C 0.92040 1.05392 0.84335
 H488 H 0.90668 1.04686 0.83562
 O489 O 0.97925 1.10586 0.92232
 O490 O 0.97911 1.13100 0.89775
 C491 C 0.97183 1.12322 0.91499
 C492 C 0.95416 1.13414 0.92632
 C493 C 0.94660 1.15401 0.91929
 H494 H 0.95407 1.16165 0.90572
 O495 O 1.02114 0.89429 0.91939
 O496 O 1.02114 0.86936 0.89450
 C497 C 1.02836 0.87689 0.91191
 C498 C 1.04564 0.86556 0.92329
 C499 C 1.05259 0.84547 0.91624
 H500 H 1.04495 0.83803 0.90263
 O501 O 1.10686 0.92266 0.97547
 O502 O 1.13180 0.89785 0.97510
 C503 C 1.12418 0.91522 0.96802
 C504 C 1.13534 0.92665 0.95065
 C505 C 1.15556 0.91995 0.94382
 H506 H 1.16314 0.90650 0.95156
 O507 O 0.89360 1.07565 0.97771
 O508 O 0.86843 1.10020 0.97829
 C509 C 0.87616 1.08312 0.97057
 C510 C 0.86521 1.07219 0.95265
 C511 C 0.84578 1.08003 0.94464
 H512 H 0.83839 1.09382 0.95202
 O513 O 1.02112 1.07697 0.89285
 O514 O 1.02095 1.10209 0.86825
 C515 C 1.02831 1.08468 0.87554
 C516 C 1.04574 1.07359 0.86402
 C517 C 1.05309 1.08143 0.84438
 H518 H 1.04534 1.09511 0.83721
 O519 O 0.97961 0.92353 0.89014
 O520 O 0.97968 0.89868 0.86516
 C521 C 0.97236 0.91600 0.87275
 C522 C 0.95479 0.92713 0.86161
 C523 C 0.94704 0.91934 0.84209
 H524 H 0.95468 0.90572 0.83464
 O525 O 1.10662 1.01997 0.91963
 O526 O 1.13140 1.02023 0.89466
 C527 C 1.12395 1.02724 0.91221
 C528 C 1.13525 1.04433 0.92392
 C529 C 1.15540 1.05124 0.91718
 H530 H 1.16291 1.04375 0.90349
 O531 O 0.89455 0.97895 0.91983
 O532 O 0.86969 0.97920 0.89493
 C533 C 0.87726 0.97174 0.91223
 C534 C 0.86624 0.95411 0.92334
 C535 C 0.84690 0.94615 0.91548
 H536 H 0.83948 0.95365 0.90178
 O537 O 1.07811 1.10504 0.97733
 O538 O 1.10295 1.12980 0.97738
 C539 C 1.08552 1.12245 0.97022
 C540 C 1.07387 1.13393 0.95315
 C541 C 1.08075 1.15396 0.94596
 H542 H 1.09434 1.16150 0.95345
 O543 O 0.92369 0.89359 0.97571
 O544 O 0.89897 0.86872 0.97576
 C545 C 0.91620 0.87629 0.96834
 C546 C 0.92737 0.86532 0.95054
 C547 C 0.91984 0.84585 0.94236
 H548 H 0.90600 0.83842 0.94948
 O549 O 0.92324 0.97920 0.89012
 O550 O 0.89852 0.97950 0.86509
 C551 C 0.91580 0.97209 0.87262
 C552 C 0.92710 0.95458 0.86139
 C553 C 0.91956 0.94656 0.84177
 H554 H 0.90566 0.95363 0.83435
 O555 O 1.07726 1.02047 0.89065
 O556 O 1.10184 1.02085 0.86548
 C557 C 1.08461 1.02808 0.87337
 C558 C 1.07322 1.04590 0.86279
 C559 C 1.08034 1.05402 0.84312
 H560 H 1.09398 1.04686 0.83527
 O561 O 0.97960 0.89427 0.91926
 O562 O 0.97967 0.86939 0.89431
 C563 C 0.97236 0.87694 0.91168
 C564 C 0.95485 0.86577 0.92285
 C565 C 0.94713 0.84634 0.91496
 H566 H 0.95474 0.83899 0.90125
 O567 O 1.02090 1.10596 0.92242
 O568 O 1.02067 1.13112 0.89787
 C569 C 1.02805 1.12340 0.91510
 C570 C 1.04553 1.13444 0.92640
 C571 C 1.05255 1.15449 0.91949
 H572 H 1.04470 1.16219 0.90615
 O573 O 0.89459 0.92294 0.97593
 O574 O 0.86978 0.89817 0.97599
 C575 C 0.87727 0.91545 0.96864
 C576 C 0.86615 0.92660 0.95097
 C577 C 0.84677 0.91886 0.94285
 H578 H 0.83953 0.90492 0.94994
 O579 O 1.10700 1.07548 0.97680
 O580 O 1.13199 1.10008 0.97692
 C581 C 1.12434 1.08287 0.96951
 C582 C 1.13543 1.07155 0.95192
 C583 C 1.15558 1.07825 0.94495
 H584 H 1.16348 1.09128 0.95307
 O585 O 1.02118 0.92326 0.88992
 O586 O 1.02120 0.89841 0.86494
 C587 C 1.02844 0.91574 0.87249
 C588 C 1.04583 0.92698 0.86122
 C589 C 1.05319 0.91966 0.84131
 H590 H 1.04579 0.90592 0.83394
 O591 O 0.97960 1.07679 0.89285
 O592 O 0.97951 1.10188 0.86822
 C593 C 0.97237 1.08443 0.87552
 C594 C 0.95509 1.07327 0.86401
 C595 C 0.94785 1.08095 0.84427
 H596 H 0.95573 1.09442 0.83696
 O597 O 0.89421 1.02047 0.92020
 O598 O 0.86939 1.02085 0.89528
 C599 C 0.87688 1.02788 0.91279
 C600 C 0.86568 1.04525 0.92434
 C601 C 0.84628 1.05330 0.91661
 H602 H 0.83897 1.04605 0.90271
 O603 O 1.10668 0.97853 0.91901
 O604 O 1.13149 0.97868 0.89406
 C605 C 1.12404 0.97133 0.91144
 C606 C 1.13532 0.95397 0.92285
 C607 C 1.15560 0.94704 0.91623
 H608 H 1.16345 0.95493 0.90304
 O609 O 1.07759 0.89369 0.97551
 O610 O 1.10241 0.86876 0.97500
 C611 C 1.08499 0.87638 0.96800
 C612 C 1.07342 0.86532 0.95063
 C613 C 1.08018 0.84524 0.94334
 H614 H 1.09349 0.83737 0.95103
 O615 O 0.92272 1.10475 0.97794
 O616 O 0.89766 1.12945 0.97840
 C617 C 0.91504 1.12212 0.97093
 C618 C 0.92626 1.13357 0.95358
 C619 C 0.91891 1.15344 0.94632
 H620 H 0.90536 1.16091 0.95403
 Cu621 Cu 1.08951 0.99941 0.90726
 Cu622 Cu 1.11914 0.99974 0.87717
 Cu623 Cu 0.91138 0.99980 0.90778
 Cu624 Cu 0.88160 1.00023 0.87784
 Cu625 Cu 1.09012 1.08757 0.99786
 Cu626 Cu 1.12006 1.11718 0.99802
 Cu627 Cu 1.08990 0.91050 0.99639
 Cu628 Cu 1.11979 0.88065 0.99585
 Cu629 Cu 0.91092 1.08746 0.99863
 Cu630 Cu 0.88075 1.11698 0.99933
 Cu631 Cu 0.91186 0.91084 0.99667
 Cu632 Cu 0.88210 0.88109 0.99683
 Cu633 Cu 1.00023 1.08891 0.91012
 Cu634 Cu 1.00005 1.11905 0.88056
 Cu635 Cu 1.00040 0.91134 0.90717
 Cu636 Cu 1.00044 0.88146 0.87721
 C637 C 1.05590 0.94446 0.87087
 H638 H 1.05049 0.94998 0.88637
 C639 C 1.07054 0.92947 0.83115
 C640 C 0.94499 1.05561 0.87318
 H641 H 0.95035 1.04979 0.88857
 C642 C 0.93045 1.07151 0.83388
 C643 C 0.94401 1.12417 0.94360
 H644 H 0.94959 1.10872 0.94892
 C645 C 0.92900 1.16381 0.92919
 C646 C 1.05600 0.87526 0.94064
 H647 H 1.05089 0.89089 0.94597
 C648 C 1.06983 0.83519 0.92616
 C649 C 1.12545 0.94379 0.94020
 H650 H 1.10972 0.94886 0.94525
 C651 C 1.16590 0.93008 0.92672
 C652 C 0.87491 1.05468 0.94248
 H653 H 0.89005 1.04877 0.94832
 C654 C 0.83626 1.07075 0.92655
 C655 C 1.05579 1.05571 0.87301
 H656 H 1.05039 1.04977 0.88832
 C657 C 1.07040 1.07184 0.83386
 C658 C 0.94485 0.94487 0.87103
 H659 H 0.95056 0.95072 0.88628
 C660 C 0.92940 0.92884 0.83211
 C661 C 1.12550 1.05445 0.94143
 H662 H 1.10983 1.04939 0.94655
 C663 C 1.16571 1.06816 0.92762
 C664 C 0.87563 0.94435 0.94121
 H665 H 0.89072 0.95020 0.94715
 C666 C 0.83709 0.92848 0.92504
 C667 C 1.05613 1.12442 0.94339
 H668 H 1.05094 1.10883 0.94860
 C669 C 1.07012 1.16438 0.92917
 C670 C 0.94500 0.87503 0.94076
 H671 H 0.95070 0.89019 0.94672
 C672 C 0.92958 0.83630 0.92449
 O673 O 0.98165 0.42111 0.39361
 O674 O 0.98190 0.39628 0.36862
 C675 C 0.97472 0.41375 0.37603
 C676 C 0.95781 0.42540 0.36436
 C677 C 0.95098 0.41835 0.34419
 H678 H 0.95836 0.40444 0.33704
 O679 O 1.02389 0.57534 0.39465
 O680 O 1.02499 0.59991 0.36953
 C681 C 1.03174 0.58252 0.37741
 C682 C 1.04923 0.57070 0.36680
 C683 C 1.05730 0.57740 0.34699
 H684 H 1.05044 0.59121 0.33921
 O685 O 0.89591 0.47871 0.42013
 O686 O 0.87180 0.47904 0.39450
 C687 C 0.87867 0.47175 0.41213
 C688 C 0.86677 0.45474 0.42325
 C689 C 0.84659 0.44836 0.41603
 H690 H 0.83949 0.45620 0.40235
 O691 O 1.10720 0.51763 0.42674
 O692 O 1.13288 0.51717 0.40270
 C693 C 1.12491 0.52454 0.41984
 C694 C 1.13609 0.54167 0.43159
 C695 C 1.15630 0.54851 0.42497
 H696 H 1.16396 0.54086 0.41145
 O697 O 0.92249 0.39371 0.47733
 O698 O 0.89745 0.36917 0.47650
 C699 C 0.91512 0.37641 0.46985
 C700 C 0.92702 0.36484 0.45297
 C701 C 0.92025 0.34470 0.44597
 H702 H 0.90641 0.33742 0.45322
 O703 O 1.07803 0.60334 0.48194
 O704 O 1.10309 0.62786 0.48274
 C705 C 1.08598 0.62052 0.47482
 C706 C 1.07558 0.63175 0.45676
 C707 C 1.08391 0.65103 0.44915
 H708 H 1.09738 0.65821 0.45719
 O709 O 0.92658 0.51990 0.39203
 O710 O 0.90257 0.52008 0.36631
 C711 C 0.91967 0.52722 0.37442
 C712 C 0.93129 0.54457 0.36351
 C713 C 0.92457 0.55176 0.34340
 H714 H 0.91103 0.54426 0.33576
 O715 O 1.07860 0.47639 0.39639
 O716 O 1.10423 0.47611 0.37229
 C717 C 1.08663 0.46904 0.37923
 C718 C 1.07569 0.45170 0.36756
 C719 C 1.08343 0.44457 0.34775
 H720 H 1.09682 0.45260 0.34047
 O721 O 1.02204 0.39123 0.42375
 O722 O 1.02245 0.36633 0.39884
 C723 C 1.02934 0.37380 0.41641
 C724 C 1.04645 0.36251 0.42815
 C725 C 1.05486 0.34322 0.42036
 H726 H 1.04842 0.33624 0.40590
 O727 O 0.98204 0.60526 0.42270
 O728 O 0.98312 0.63007 0.39782
 C729 C 0.97525 0.62269 0.41499
 C730 C 0.95766 0.63416 0.42585
 C731 C 0.95102 0.65426 0.41862
 H732 H 0.95912 0.66162 0.40526
 O733 O 0.89492 0.57708 0.47650
 O734 O 0.87023 0.60211 0.47551
 C735 C 0.87788 0.58461 0.46861
 C736 C 0.86724 0.57306 0.45092
 C737 C 0.84740 0.57989 0.44304
 H738 H 0.83955 0.59354 0.45021
 O739 O 1.10477 0.41949 0.48308
 O740 O 1.12951 0.39448 0.48370
 C741 C 1.12223 0.41186 0.47621
 C742 C 1.13378 0.42313 0.45897
 C743 C 1.15357 0.41563 0.45150
 H744 H 1.16079 0.40168 0.45870
 O745 O 0.98247 0.57618 0.39328
 O746 O 0.98341 0.60080 0.36820
 C747 C 0.97576 0.58360 0.37562
 C748 C 0.95857 0.57227 0.36400
 C749 C 0.95160 0.57924 0.34380
 H750 H 0.95938 0.59261 0.33619
 O751 O 1.02309 0.42028 0.39445
 O752 O 1.02347 0.39553 0.36938
 C753 C 1.03070 0.41276 0.37719
 C754 C 1.04844 0.42403 0.36651
 C755 C 1.05649 0.41699 0.34672
 H756 H 1.04943 0.40330 0.33894
 O757 O 1.10618 0.47609 0.42717
 O758 O 1.13184 0.47573 0.40309
 C759 C 1.12365 0.46859 0.42021
 C760 C 1.13433 0.45099 0.43173
 C761 C 1.15411 0.44340 0.42466
 H762 H 1.16203 0.45127 0.41149
 O763 O 0.89672 0.52024 0.42055
 O764 O 0.87263 0.52050 0.39490
 C765 C 0.87969 0.52769 0.41253
 C766 C 0.86823 0.54520 0.42354
 C767 C 0.84842 0.55223 0.41594
 H768 H 0.84107 0.54415 0.40253
 O769 O 0.92406 0.60621 0.47709
 O770 O 0.89956 0.63143 0.47618
 C771 C 0.91702 0.62362 0.46949
 C772 C 0.92908 0.63460 0.45239
 C773 C 0.92263 0.65471 0.44490
 H774 H 0.90914 0.66268 0.45222
 O775 O 1.07567 0.39048 0.48216
 O776 O 1.10028 0.36536 0.48297
 C777 C 1.08332 0.37309 0.47505
 C778 C 1.07281 0.36218 0.45689
 C779 C 1.08098 0.34291 0.44889
 H780 H 1.09437 0.33538 0.45680
 O781 O 1.07868 0.51798 0.39673
 O782 O 1.10433 0.51757 0.37264
 C783 C 1.08682 0.52505 0.37958
 C784 C 1.07611 0.54251 0.36789
 C785 C 1.08385 0.54930 0.34800
 H786 H 1.09710 0.54095 0.34069
 O787 O 0.92628 0.47827 0.39200
 O788 O 0.90226 0.47850 0.36629
 C789 C 0.91928 0.47105 0.37437
 C790 C 0.93076 0.45345 0.36350
 C791 C 0.92424 0.44626 0.34325
 H792 H 0.91136 0.45435 0.33507
 O793 O 1.02360 0.60468 0.42373
 O794 O 1.02481 0.62943 0.39880
 C795 C 1.03148 0.62179 0.41639
 C796 C 1.04897 0.63247 0.42819
 C797 C 1.05757 0.65177 0.42082
 H798 H 1.05104 0.65924 0.40665
 O799 O 0.98056 0.39205 0.42282
 O800 O 0.98082 0.36702 0.39803
 C801 C 0.97324 0.37480 0.41521
 C802 C 0.95541 0.36403 0.42623
 C803 C 0.94839 0.34391 0.41943
 H804 H 0.95662 0.33580 0.40654
 O805 O 1.10686 0.57378 0.48309
 O806 O 1.13203 0.59819 0.48378
 C807 C 1.12449 0.58095 0.47630
 C808 C 1.13593 0.56935 0.45913
 C809 C 1.15611 0.57604 0.45221
 H810 H 1.16383 0.58934 0.46006
 O811 O 0.89322 0.42292 0.47633
 O812 O 0.86804 0.39851 0.47555
 C813 C 0.87600 0.41570 0.46853
 C814 C 0.86546 0.42726 0.45081
 C815 C 0.84530 0.42105 0.44336
 H816 H 0.83697 0.40814 0.45118
 Cu817 Cu 1.00183 0.40865 0.41116
 Cu818 Cu 1.00217 0.37877 0.38121
 Cu819 Cu 1.00288 0.58791 0.41109
 Cu820 Cu 1.00417 0.61757 0.38110
 Cu821 Cu 0.91380 0.49921 0.40874
 Cu822 Cu 0.88492 0.49956 0.37790
 Cu823 Cu 1.09006 0.49709 0.41416
 Cu824 Cu 1.12091 0.49661 0.38527
 C825 C 0.94772 0.44306 0.37380
 H826 H 0.95268 0.44835 0.38952
 C827 C 0.93424 0.42869 0.33347
 C828 C 1.05865 0.55314 0.37703
 H829 H 1.05276 0.54811 0.39249
 C830 C 1.07462 0.56678 0.33744
 C831 C 0.87595 0.44423 0.44077
 H832 H 0.89162 0.44892 0.44625
 C833 C 0.83569 0.43157 0.42602
 C834 C 1.12615 0.55203 0.44883
 H835 H 1.11045 0.54699 0.45384
 C836 C 1.16643 0.56566 0.43516
 C837 C 0.94475 0.37427 0.44314
 H838 H 0.94989 0.38992 0.44829
 C839 C 0.93085 0.33410 0.42924
 C840 C 1.05799 0.62270 0.44629
 H841 H 1.05170 0.60767 0.45189
 C842 C 1.07511 0.66112 0.43115
 C843 C 0.94843 0.55478 0.37359
 H844 H 0.95349 0.54946 0.38925
 C845 C 0.93461 0.56899 0.33333
 C846 C 1.05808 0.44149 0.37668
 H847 H 1.05221 0.44680 0.39209
 C848 C 1.07402 0.42718 0.33722
 C849 C 1.05540 0.37173 0.44654
 H850 H 1.04925 0.38678 0.45243
 C851 C 1.07221 0.33337 0.43057
 C852 C 0.94674 0.62457 0.44288
 H853 H 0.95163 0.60894 0.44835
 C854 C 0.93355 0.66469 0.42805
 C855 C 0.87742 0.55558 0.44116
 H856 H 0.89285 0.55040 0.44692
 C857 C 0.83790 0.56956 0.42553
 C858 C 1.12437 0.44091 0.44904
 H859 H 1.10895 0.44656 0.45439
 C860 C 1.16375 0.42564 0.43423
 O861 O 1.01596 0.42159 0.60755
 O862 O 1.01482 0.39688 0.63253
 C863 C 1.02270 0.41396 0.62510
 C864 C 1.04040 0.42460 0.63656
 C865 C 1.04796 0.41637 0.65599
 H866 H 1.03993 0.40295 0.66323
 O867 O 0.97552 0.57582 0.60625
 O868 O 0.97532 0.60076 0.63113
 C869 C 0.96786 0.58362 0.62338
 C870 C 0.94972 0.57301 0.63406
 C871 C 0.94148 0.58112 0.65328
 H872 H 0.94916 0.59458 0.66089
 O873 O 0.89056 0.52167 0.57463
 O874 O 0.86484 0.52195 0.59862
 C875 C 0.87309 0.52923 0.58158
 C876 C 0.86273 0.54712 0.57005
 C877 C 0.84328 0.55572 0.57724
 H878 H 0.83547 0.54888 0.59104
 O879 O 1.10354 0.47616 0.58055
 O880 O 1.12770 0.47592 0.60614
 C881 C 1.12062 0.46874 0.58851
 C882 C 1.13195 0.45125 0.57729
 C883 C 1.15210 0.44425 0.58418
 H884 H 1.15987 0.45221 0.59743
 O885 O 1.07412 0.39091 0.52387
 O886 O 1.09866 0.36573 0.52476
 C887 C 1.08116 0.37352 0.53145
 C888 C 1.06904 0.36260 0.54854
 C889 C 1.07529 0.34239 0.55584
 H890 H 1.08854 0.33429 0.54823
 O891 O 0.92304 0.60625 0.51875
 O892 O 0.89868 0.63162 0.51795
 C893 C 0.91568 0.62380 0.52574
 C894 C 0.92687 0.63481 0.54342
 C895 C 0.92071 0.65533 0.55006
 H896 H 0.90805 0.66359 0.54170
 O897 O 0.91855 0.47973 0.60462
 O898 O 0.89305 0.47995 0.62885
 C899 C 0.91054 0.47251 0.62177
 C900 C 0.92145 0.45493 0.63325
 C901 C 0.91373 0.44767 0.65302
 H902 H 0.89993 0.45526 0.66015
 O903 O 1.07333 0.51772 0.60881
 O904 O 1.09719 0.51756 0.63468
 C905 C 1.08015 0.52492 0.62650
 C906 C 1.06844 0.54243 0.63730
 C907 C 1.07517 0.55006 0.65730
 H908 H 1.08845 0.54247 0.66534
 O909 O 0.97480 0.39288 0.57724
 O910 O 0.97359 0.36811 0.60215
 C911 C 0.96706 0.37566 0.58450
 C912 C 0.95000 0.36464 0.57245
 C913 C 0.94263 0.34452 0.57888
 H914 H 0.95000 0.33659 0.59235
 O915 O 1.01867 0.60388 0.57824
 O916 O 1.01840 0.62877 0.60318
 C917 C 1.02601 0.62109 0.58600
 C918 C 1.04388 0.63203 0.57522
 C919 C 1.05126 0.65172 0.58287
 H920 H 1.04353 0.65913 0.59648
 O921 O 0.89237 0.42359 0.51804
 O922 O 0.86733 0.39905 0.51728
 C923 C 0.87479 0.41630 0.52482
 C924 C 0.86321 0.42759 0.54213
 C925 C 0.84368 0.41972 0.54954
 H926 H 0.83653 0.40612 0.54168
 O927 O 1.10561 0.57402 0.52480
 O928 O 1.13072 0.59849 0.52553
 C929 C 1.12278 0.58132 0.53265
 C930 C 1.13329 0.57002 0.55059
 C931 C 1.15283 0.57722 0.55874
 H932 H 1.16075 0.59054 0.55118
 O933 O 1.01712 0.57435 0.60711
 O934 O 1.01685 0.59918 0.63209
 C935 C 1.02400 0.58168 0.62472
 C936 C 1.04092 0.57008 0.63644
 C937 C 1.04788 0.57743 0.65645
 H938 H 1.04043 0.59132 0.66358
 O939 O 0.97431 0.42257 0.60615
 O940 O 0.97315 0.39793 0.63119
 C941 C 0.96638 0.41534 0.62333
 C942 C 0.94873 0.42701 0.63397
 C943 C 0.94078 0.42004 0.65373
 H944 H 0.94824 0.40664 0.66168
 O945 O 1.10384 0.51776 0.58096
 O946 O 1.12786 0.51762 0.60666
 C947 C 1.12091 0.52500 0.58909
 C948 C 1.13241 0.54251 0.57821
 C949 C 1.15196 0.55000 0.58617
 H950 H 1.15890 0.54265 0.60019
 O951 O 0.89025 0.48001 0.57456
 O952 O 0.86458 0.48010 0.59861
 C953 C 0.87273 0.47273 0.58151
 C954 C 0.86214 0.45506 0.56991
 C955 C 0.84269 0.44676 0.57723
 H956 H 0.83513 0.45366 0.59120
 O957 O 1.07664 0.60345 0.52368
 O958 O 1.10163 0.62804 0.52454
 C959 C 1.08403 0.62069 0.53127
 C960 C 1.07228 0.63189 0.54850
 C961 C 1.07946 0.65157 0.55641
 H962 H 1.09320 0.65910 0.54923
 O963 O 0.92076 0.39358 0.51899
 O964 O 0.89580 0.36895 0.51812
 C965 C 0.91292 0.37631 0.52599
 C966 C 0.92361 0.36495 0.54375
 C967 C 0.91646 0.34484 0.55037
 H968 H 0.90323 0.33742 0.54216
 O969 O 1.07357 0.47617 0.60897
 O970 O 1.09755 0.47586 0.63471
 C971 C 1.08047 0.46872 0.62653
 C972 C 1.06877 0.45121 0.63722
 C973 C 1.07619 0.44260 0.65658
 H974 H 1.09039 0.44906 0.66394
 O975 O 0.91846 0.52128 0.60508
 O976 O 0.89289 0.52164 0.62923
 C977 C 0.91049 0.52871 0.62222
 C978 C 0.92159 0.54618 0.63361
 C979 C 0.91352 0.55456 0.65288
 H980 H 0.89926 0.54785 0.65987
 O981 O 0.97719 0.60462 0.57665
 O982 O 0.97703 0.62963 0.60147
 C983 C 0.97020 0.62223 0.58384
 C984 C 0.95366 0.63400 0.57177
 C985 C 0.94738 0.65453 0.57811
 H986 H 0.95495 0.66197 0.59176
 O987 O 1.01632 0.39231 0.57837
 O988 O 1.01511 0.36750 0.60325
 C989 C 1.02306 0.37484 0.58610
 C990 C 1.04063 0.36326 0.57526
 C991 C 1.04720 0.34309 0.58245
 H992 H 1.03914 0.33582 0.59588
 O993 O 1.10378 0.41957 0.52469
 O994 O 1.12852 0.39456 0.52538
 C995 C 1.12096 0.41204 0.53235
 C996 C 1.13204 0.42356 0.54975
 C997 C 1.15220 0.41688 0.55675
 H998 H 1.15986 0.40337 0.54913
 O999 O 0.89349 0.57761 0.51820
 O1000 O 0.86896 0.60280 0.51733
 C1001 C 0.87607 0.58544 0.52499
 C1002 C 0.86430 0.57460 0.54239
 C1003 C 0.84485 0.58288 0.54978
 H1004 H 0.83794 0.59666 0.54198
 Cu1005 Cu 0.99543 0.40981 0.58984
 Cu1006 Cu 0.99402 0.38017 0.61982
 Cu1007 Cu 0.99714 0.58715 0.58958
 Cu1008 Cu 0.99688 0.61705 0.61950
 Cu1009 Cu 0.90972 0.41091 0.49772
 Cu1010 Cu 0.87962 0.38148 0.49677
 Cu1011 Cu 1.08711 0.40760 0.50341
 Cu1012 Cu 1.11669 0.37748 0.50434
 Cu1013 Cu 0.91132 0.58928 0.49771
 Cu1014 Cu 0.88187 0.61950 0.49664
 Cu1015 Cu 1.08928 0.58620 0.50331
 Cu1016 Cu 1.11937 0.61562 0.50422
 Cu1017 Cu 0.90699 0.50067 0.58732
 Cu1018 Cu 0.87624 0.50091 0.61622
 Cu1019 Cu 1.08620 0.49696 0.59224
 Cu1020 Cu 1.11497 0.49673 0.62314
 C1021 C 1.05078 0.44217 0.62742
 H1022 H 1.04520 0.44842 0.61229
 C1023 C 1.06595 0.42510 0.66605
 C1024 C 0.93979 0.55543 0.62447
 H1025 H 0.94591 0.54931 0.60947
 C1026 C 0.92334 0.57213 0.66277
 C1027 C 0.87299 0.55660 0.55250
 H1028 H 0.88815 0.55032 0.54707
 C1029 C 0.83427 0.57368 0.56725
 C1030 C 1.12216 0.44090 0.55996
 H1031 H 1.10651 0.44599 0.55475
 C1032 C 1.16241 0.42716 0.57388
 C1033 C 1.05156 0.37278 0.55820
 H1034 H 1.04679 0.38847 0.55280
 C1035 C 1.06448 0.33248 0.57281
 C1036 C 0.94348 0.62438 0.55428
 H1037 H 0.94812 0.60844 0.54947
 C1038 C 0.93099 0.66536 0.56732
 C1039 C 0.93909 0.44459 0.62396
 H1040 H 0.94494 0.44988 0.60858
 C1041 C 0.92328 0.43023 0.66337
 C1042 C 1.05115 0.55243 0.62709
 H1043 H 1.04609 0.54689 0.61149
 C1044 C 1.06501 0.56757 0.66696
 C1045 C 0.94051 0.37461 0.55476
 H1046 H 0.94592 0.39023 0.54988
 C1047 C 0.92591 0.33444 0.56786
 C1048 C 1.05435 0.62236 0.55789
 H1049 H 1.04891 0.60704 0.55211
 C1050 C 1.06903 0.66160 0.57360
 C1051 C 0.87220 0.44542 0.55225
 H1052 H 0.88742 0.45140 0.54679
 C1053 C 0.83341 0.42900 0.56721
 C1054 C 1.12332 0.55253 0.56031
 H1055 H 1.10812 0.54707 0.55428
 C1056 C 1.16230 0.56737 0.57655
 O1057 O 0.48454 0.92483 0.39182
 O1058 O 0.48537 0.89976 0.36709
 C1059 C 0.47788 0.91719 0.37426
 C1060 C 0.46080 0.92836 0.36240
 C1061 C 0.45426 0.92099 0.34227
 H1062 H 0.46264 0.90780 0.33487
 O1063 O 0.52496 1.07746 0.39175
 O1064 O 0.52554 1.10223 0.36682
 C1065 C 0.53271 1.08497 0.37461
 C1066 C 0.55071 1.07380 0.36414
 C1067 C 0.55930 1.08128 0.34481
 H1068 H 0.55231 1.09507 0.33710
 O1069 O 0.39703 0.97941 0.41784
 O1070 O 0.37302 0.97933 0.39212
 C1071 C 0.38003 0.97203 0.40970
 C1072 C 0.36864 0.95442 0.42053
 C1073 C 0.34947 0.94647 0.41217
 H1074 H 0.34247 0.95392 0.39823
 O1075 O 0.60889 1.02209 0.42526
 O1076 O 0.63479 1.02204 0.40145
 C1077 C 0.62653 1.02929 0.41854
 C1078 C 0.63731 1.04658 0.43044
 C1079 C 0.65758 1.05354 0.42419
 H1080 H 0.66553 1.04591 0.41083
 O1081 O 0.42545 0.89600 0.47607
 O1082 O 0.40091 0.87095 0.47531
 C1083 C 0.41845 0.87856 0.46863
 C1084 C 0.43057 0.86734 0.45168
 C1085 C 0.42424 0.84709 0.44464
 H1086 H 0.41100 0.83922 0.45238
 O1087 O 0.57727 1.10710 0.48032
 O1088 O 0.60206 1.13191 0.48086
 C1089 C 0.58501 1.12428 0.47306
 C1090 C 0.57446 1.13519 0.45499
 C1091 C 0.58204 1.15489 0.44778
 H1092 H 0.59498 1.16259 0.45620
 O1093 O 0.42678 1.02140 0.38982
 O1094 O 0.40275 1.02140 0.36412
 C1095 C 0.41975 1.02875 0.37226
 C1096 C 0.43118 1.04636 0.36151
 C1097 C 0.42378 1.05456 0.34197
 H1098 H 0.40979 1.04771 0.33456
 O1099 O 0.58130 0.98041 0.39471
 O1100 O 0.60705 0.98046 0.37073
 C1101 C 0.58953 0.97311 0.37764
 C1102 C 0.57892 0.95547 0.36611
 C1103 C 0.58714 0.94784 0.34669
 H1104 H 0.60079 0.95559 0.33956
 O1105 O 0.52490 0.89577 0.42280
 O1106 O 0.52560 0.87050 0.39825
 C1107 C 0.53221 0.87820 0.41584
 C1108 C 0.54879 0.86678 0.42816
 C1109 C 0.55498 0.84607 0.42236
 H1110 H 0.54735 0.83830 0.40892
 O1111 O 0.48262 1.10631 0.42019
 O1112 O 0.48320 1.13132 0.39548
 C1113 C 0.47557 1.12372 0.41266
 C1114 C 0.45806 1.13500 0.42379
 C1115 C 0.45168 1.15539 0.41720
 H1116 H 0.45986 1.16306 0.40407
 O1117 O 0.39567 1.07747 0.47455
 O1118 O 0.37063 1.10216 0.47363
 C1119 C 0.37841 1.08473 0.46681
 C1120 C 0.36755 1.07300 0.44940
 C1121 C 0.34728 1.07931 0.44233
 H1122 H 0.33912 1.09229 0.45033
 O1123 O 0.60840 0.92413 0.48148
 O1124 O 0.63347 0.89947 0.48202
 C1125 C 0.62592 0.91668 0.47449
 C1126 C 0.63722 0.92784 0.45701
 C1127 C 0.65662 0.91989 0.44893
 H1128 H 0.66373 0.90578 0.45590
 O1129 O 0.48339 1.07709 0.39098
 O1130 O 0.48384 1.10194 0.36612
 C1131 C 0.47641 1.08463 0.37350
 C1132 C 0.45900 1.07354 0.36206
 C1133 C 0.45148 1.08134 0.34244
 H1134 H 0.45934 1.09479 0.33507
 O1135 O 0.52604 0.92423 0.39286
 O1136 O 0.52693 0.89912 0.36818
 C1137 C 0.53393 0.91651 0.37580
 C1138 C 0.55174 0.92771 0.36515
 C1139 C 0.56017 0.92028 0.34567
 H1140 H 0.55329 0.90642 0.33802
 O1141 O 0.60914 0.98050 0.42518
 O1142 O 0.63491 0.98055 0.40122
 C1143 C 0.62674 0.97322 0.41825
 C1144 C 0.63751 0.95557 0.42963
 C1145 C 0.65685 0.94745 0.42189
 H1146 H 0.66444 0.95494 0.40830
 O1147 O 0.39706 1.02096 0.41848
 O1148 O 0.37287 1.02093 0.39293
 C1149 C 0.37988 1.02813 0.41058
 C1150 C 0.36826 1.04534 0.42188
 C1151 C 0.34805 1.05196 0.41491
 H1152 H 0.34079 1.04421 0.40126
 O1153 O 0.42492 1.10661 0.47506
 O1154 O 0.40002 1.13144 0.47405
 C1155 C 0.41764 1.12389 0.46744
 C1156 C 0.42965 1.13507 0.45048
 C1157 C 0.42346 1.15547 0.44365
 H1158 H 0.41018 1.16344 0.45135
 O1159 O 0.57905 0.89529 0.48100
 O1160 O 0.60394 0.87042 0.48165
 C1161 C 0.58670 0.87789 0.47400
 C1162 C 0.57555 0.86657 0.45652
 C1163 C 0.58161 0.84587 0.45044
 H1164 H 0.59420 0.83775 0.45905
 O1165 O 0.58118 1.02197 0.39449
 O1166 O 0.60702 1.02198 0.37062
 C1167 C 0.58935 1.02919 0.37740
 C1168 C 0.57849 1.04652 0.36563
 C1169 C 0.58684 1.05417 0.34631
 H1170 H 0.60078 1.04662 0.33943
 O1171 O 0.42746 0.97988 0.38990
 O1172 O 0.40358 0.97976 0.36406
 C1173 C 0.42071 0.97262 0.37221
 C1174 C 0.43270 0.95535 0.36140
 C1175 C 0.42623 0.94761 0.34135
 H1176 H 0.41249 0.95458 0.33354
 O1177 O 0.52403 1.10647 0.42120
 O1178 O 0.52467 1.13139 0.39640
 C1179 C 0.53142 1.12386 0.41399
 C1180 C 0.54836 1.13507 0.42602
 C1181 C 0.55622 1.15481 0.41899
 H1182 H 0.54958 1.16219 0.40482
 O1183 O 0.48346 0.89588 0.42122
 O1184 O 0.48419 0.87067 0.39661
 C1185 C 0.47643 0.87845 0.41370
 C1186 C 0.45882 0.86733 0.42477
 C1187 C 0.45215 0.84711 0.41787
 H1188 H 0.46010 0.83952 0.40449
 O1189 O 0.60707 1.07855 0.48168
 O1190 O 0.63196 1.10326 0.48227
 C1191 C 0.62467 1.08588 0.47491
 C1192 C 0.63644 1.07430 0.45793
 C1193 C 0.65672 1.08110 0.45138
 H1194 H 0.66424 1.09443 0.45938
 O1195 O 0.39510 0.92401 0.47459
 O1196 O 0.37042 0.89911 0.47392
 C1197 C 0.37811 0.91633 0.46667
 C1198 C 0.36760 0.92723 0.44844
 C1199 C 0.34841 0.91948 0.43982
 H1200 H 0.34090 0.90568 0.44690
 Cu1201 Cu 0.50469 0.91272 0.40962
 Cu1202 Cu 0.50560 0.88249 0.38004
 Cu1203 Cu 0.50373 1.08931 0.40848
 Cu1204 Cu 0.50434 1.11919 0.37866
 Cu1205 Cu 0.41448 1.00041 0.40658
 Cu1206 Cu 0.38564 1.00036 0.37571
 Cu1207 Cu 0.59251 1.00128 0.41230
 Cu1208 Cu 0.62355 1.00129 0.38362
 C1209 C 0.45011 0.94572 0.37171
 H1210 H 0.45493 0.95131 0.38736
 C1211 C 0.43691 0.93040 0.33167
 C1212 C 0.56030 1.05629 0.37428
 H1213 H 0.55399 1.05065 0.38935
 C1214 C 0.57743 1.07159 0.33582
 C1215 C 0.37745 0.94481 0.43876
 H1216 H 0.39238 0.95068 0.44510
 C1217 C 0.33923 0.92896 0.42164
 C1218 C 0.62696 1.05690 0.44748
 H1219 H 0.61120 1.05177 0.45220
 C1220 C 0.66744 1.07075 0.43456
 C1221 C 0.44803 0.87724 0.44179
 H1222 H 0.45286 0.89297 0.44698
 C1223 C 0.43490 0.83686 0.42772
 C1224 C 0.55749 1.12549 0.44414
 H1225 H 0.55177 1.11013 0.44947
 C1226 C 0.57314 1.16477 0.42976
 C1227 C 0.44889 1.05589 0.37135
 H1228 H 0.45443 1.04994 0.38662
 C1229 C 0.43377 1.07210 0.33234
 C1230 C 0.56112 0.94544 0.37509
 H1231 H 0.55490 0.95108 0.39025
 C1232 C 0.57792 0.93023 0.33636
 C1233 C 0.55899 0.87680 0.44539
 H1234 H 0.55441 0.89288 0.44980
 C1235 C 0.57127 0.83545 0.43346
 C1236 C 0.44709 1.12505 0.44057
 H1237 H 0.45179 1.10921 0.44556
 C1238 C 0.43445 1.16578 0.42707
 C1239 C 0.37779 1.05584 0.43924
 H1240 H 0.39352 1.05104 0.44448
 C1241 C 0.33737 1.06888 0.42509
 C1242 C 0.62790 0.94580 0.44732
 H1243 H 0.61278 0.95179 0.45315
 C1244 C 0.66641 0.92952 0.43123
 O1245 O 0.51948 0.92336 0.60512
 O1246 O 0.51869 0.89883 0.63029
 C1247 C 0.52614 0.91610 0.62285
 C1248 C 0.54299 0.92766 0.63472
 C1249 C 0.54970 0.92055 0.65491
 H1250 H 0.54228 0.90669 0.66198
 O1251 O 0.47689 1.07947 0.60438
 O1252 O 0.47597 1.10443 0.62924
 C1253 C 0.46909 1.08701 0.62154
 C1254 C 0.45146 1.07573 0.63235
 C1255 C 0.44311 1.08357 0.65162
 H1256 H 0.45032 1.09735 0.65912
 O1257 O 0.39381 1.02264 0.57328
 O1258 O 0.36825 1.02262 0.59746
 C1259 C 0.37624 1.02989 0.58029
 C1260 C 0.36537 1.04731 0.56860
 C1261 C 0.34565 1.05529 0.57567
 H1262 H 0.33805 1.04833 0.58953
 O1263 O 0.60401 0.98141 0.57942
 O1264 O 0.62815 0.98154 0.60502
 C1265 C 0.62123 0.97431 0.58735
 C1266 C 0.63303 0.95711 0.57619
 C1267 C 0.65296 0.95034 0.58373
 H1268 H 0.66017 0.95843 0.59720
 O1269 O 0.57848 0.89495 0.52262
 O1270 O 0.60365 0.87039 0.52335
 C1271 C 0.58603 0.87771 0.53015
 C1272 C 0.57448 0.86641 0.54738
 C1273 C 0.58243 0.84720 0.55565
 H1274 H 0.59653 0.84008 0.54862
 O1275 O 0.42359 1.10726 0.51675
 O1276 O 0.39862 1.13202 0.51570
 C1277 C 0.41572 1.12463 0.52366
 C1278 C 0.42612 1.13600 0.54159
 C1279 C 0.41779 1.15541 0.54903
 H1280 H 0.40446 1.16266 0.54077
 O1281 O 0.42249 0.98112 0.60306
 O1282 O 0.39712 0.98102 0.62744
 C1283 C 0.41465 0.97379 0.62023
 C1284 C 0.42582 0.95636 0.63163
 C1285 C 0.41871 0.94955 0.65177
 H1286 H 0.40518 0.95736 0.65918
 O1287 O 0.57361 1.02266 0.60812
 O1288 O 0.59756 1.02273 0.63390
 C1289 C 0.58048 1.02998 0.62575
 C1290 C 0.56882 1.04756 0.63649
 C1291 C 0.57508 1.05475 0.65681
 H1292 H 0.58782 1.04662 0.66517
 O1293 O 0.47857 0.89409 0.57496
 O1294 O 0.47768 0.86949 0.60005
 C1295 C 0.47079 0.87702 0.58250
 C1296 C 0.45303 0.86634 0.57111
 C1297 C 0.44404 0.84749 0.57919
 H1298 H 0.45055 0.84033 0.59351
 O1299 O 0.51901 1.10880 0.57635
 O1300 O 0.51805 1.13386 0.60110
 C1301 C 0.52588 1.12624 0.58398
 C1302 C 0.54351 1.13745 0.57308
 C1303 C 0.55046 1.15742 0.58037
 H1304 H 0.54255 1.16488 0.59384
 O1305 O 0.39461 0.92530 0.51641
 O1306 O 0.36979 0.90053 0.51579
 C1307 C 0.37712 0.91790 0.52325
 C1308 C 0.36562 0.92929 0.54055
 C1309 C 0.34564 0.92218 0.54761
 H1310 H 0.33805 0.90889 0.53962
 O1311 O 0.60492 1.07848 0.52335
 O1312 O 0.62974 1.10325 0.52391
 C1313 C 0.62196 1.08604 0.53115
 C1314 C 0.63256 1.07506 0.54917
 C1315 C 0.65192 1.08270 0.55716
 H1316 H 0.65959 1.09607 0.54942
 O1317 O 0.51832 1.07969 0.60567
 O1318 O 0.51746 1.10460 0.63057
 C1319 C 0.52496 1.08720 0.62331
 C1320 C 0.54184 1.07569 0.63522
 C1321 C 0.54841 1.08274 0.65550
 H1322 H 0.54092 1.09662 0.66258
 O1323 O 0.47809 0.92369 0.60385
 O1324 O 0.47727 0.89922 0.62908
 C1325 C 0.47039 0.91657 0.62119
 C1326 C 0.45300 0.92838 0.63204
 C1327 C 0.44571 0.92188 0.65220
 H1328 H 0.45344 0.90868 0.66023
 O1329 O 0.60397 1.02292 0.58011
 O1330 O 0.62806 1.02311 0.60575
 C1331 C 0.62099 1.03034 0.58816
 C1332 C 0.63224 1.04790 0.57712
 C1333 C 0.65169 1.05583 0.58494
 H1334 H 0.65890 1.04878 0.59899
 O1335 O 0.39380 0.98115 0.57330
 O1336 O 0.36829 0.98105 0.59752
 C1337 C 0.37627 0.97388 0.58028
 C1338 C 0.36531 0.95661 0.56847
 C1339 C 0.34538 0.94923 0.57532
 H1340 H 0.33785 0.95648 0.58913
 O1341 O 0.57659 1.10852 0.52202
 O1342 O 0.60132 1.13338 0.52255
 C1343 C 0.58380 1.12598 0.52936
 C1344 C 0.57191 1.13736 0.54638
 C1345 C 0.57867 1.15736 0.55389
 H1346 H 0.59222 1.16504 0.54652
 O1347 O 0.42315 0.89540 0.51774
 O1348 O 0.39841 0.87056 0.51700
 C1349 C 0.41542 0.87812 0.52490
 C1350 C 0.42593 0.86702 0.54301
 C1351 C 0.41726 0.84815 0.55129
 H1352 H 0.40345 0.84114 0.54370
 O1353 O 0.57422 0.98096 0.60800
 O1354 O 0.59819 0.98097 0.63376
 C1355 C 0.58125 0.97355 0.62553
 C1356 C 0.56989 0.95575 0.63608
 C1357 C 0.57640 0.94834 0.65624
 H1358 H 0.58925 0.95628 0.66458
 O1359 O 0.42171 1.02276 0.60374
 O1360 O 0.39626 1.02271 0.62803
 C1361 C 0.41367 1.03010 0.62090
 C1362 C 0.42437 1.04787 0.63220
 C1363 C 0.41618 1.05598 0.65153
 H1364 H 0.40224 1.04879 0.65868
 O1365 O 0.47748 1.10856 0.57513
 O1366 O 0.47643 1.13362 0.59986
 C1367 C 0.46974 1.12586 0.58233
 C1368 C 0.45241 1.13665 0.57040
 C1369 C 0.44373 1.15603 0.57771
 H1370 H 0.45007 1.16344 0.59200
 O1371 O 0.52034 0.89367 0.57631
 O1372 O 0.51959 0.86901 0.60134
 C1373 C 0.52752 0.87647 0.58424
 C1374 C 0.54580 0.86560 0.57380
 C1375 C 0.55407 0.84639 0.58195
 H1376 H 0.54661 0.83900 0.59566
 O1377 O 0.60673 0.92494 0.52316
 O1378 O 0.63204 0.90052 0.52385
 C1379 C 0.62399 0.91778 0.53090
 C1380 C 0.63444 0.92946 0.54861
 C1381 C 0.65435 0.92287 0.55645
 H1382 H 0.66235 0.90935 0.54922
 O1383 O 0.39490 1.07782 0.51625
 O1384 O 0.36987 1.10253 0.51532
 C1385 C 0.37738 1.08536 0.52306
 C1386 C 0.36597 1.07441 0.54058
 C1387 C 0.34628 1.08214 0.54787
 H1388 H 0.33890 1.09560 0.53994
 Cu1389 Cu 0.49922 0.91107 0.58747
 Cu1390 Cu 0.49822 0.88161 0.61765
 Cu1391 Cu 0.49804 1.09166 0.58787
 Cu1392 Cu 0.49691 1.12165 0.61768
 Cu1393 Cu 0.41200 0.91268 0.49627
 Cu1394 Cu 0.38241 0.88281 0.49542
 Cu1395 Cu 0.59068 0.91230 0.50199
 Cu1396 Cu 0.62082 0.88275 0.50279
 Cu1397 Cu 0.41228 1.08981 0.49569
 Cu1398 Cu 0.38227 1.11952 0.49453
 Cu1399 Cu 0.58897 1.09069 0.50180
 Cu1400 Cu 0.61877 1.12044 0.50245
 Cu1401 Cu 0.41053 1.00193 0.58595
 Cu1402 Cu 0.37993 1.00180 0.61506
 Cu1403 Cu 0.58653 1.00199 0.59137
 Cu1404 Cu 0.61537 1.00207 0.62222
 C1405 C 0.55306 0.94539 0.62554
 H1406 H 0.54815 0.95081 0.60986
 C1407 C 0.56637 0.93077 0.66580
 C1408 C 0.44213 1.05776 0.62287
 H1409 H 0.44831 1.05184 0.60782
 C1410 C 0.42541 1.07393 0.66126
 C1411 C 0.37529 1.05687 0.55092
 H1412 H 0.39065 1.05103 0.54558
 C1413 C 0.33605 1.07276 0.56544
 C1414 C 0.62399 0.94671 0.55848
 H1415 H 0.60848 0.95168 0.55276
 C1416 C 0.66372 0.93323 0.57401
 C1417 C 0.55604 0.87534 0.55641
 H1418 H 0.55002 0.89032 0.55028
 C1419 C 0.57247 0.83712 0.57301
 C1420 C 0.44357 1.12687 0.55222
 H1421 H 0.44987 1.11174 0.54672
 C1422 C 0.42633 1.16547 0.56716
 C1423 C 0.44309 0.94578 0.62197
 H1424 H 0.44847 0.95073 0.60630
 C1425 C 0.42858 0.93235 0.66219
 C1426 C 0.55204 1.05799 0.62595
 H1427 H 0.54729 1.05268 0.61017
 C1428 C 0.56500 1.07235 0.66646
 C1429 C 0.44394 0.87587 0.55292
 H1430 H 0.45050 0.89059 0.54682
 C1431 C 0.42606 0.83834 0.56946
 C1432 C 0.55419 1.12768 0.55595
 H1433 H 0.54907 1.11213 0.55046
 C1434 C 0.56799 1.16755 0.57087
 C1435 C 0.37521 0.94667 0.55094
 H1436 H 0.39075 0.95206 0.54580
 C1437 C 0.33540 0.93205 0.56501
 C1438 C 0.62291 1.05755 0.55912
 H1439 H 0.60780 1.05178 0.55317
 C1440 C 0.66156 1.07333 0.57508
 O1441 O 0.57721 0.51980 1.10925
 O1442 O 0.60218 0.51894 1.13402
 C1443 C 0.58490 0.52664 1.12674
 C1444 C 0.57391 0.54405 1.13844
 C1445 C 0.58184 0.55133 1.15812
 H1446 H 0.59550 0.54350 1.16522
 O1447 O 0.42106 0.48013 1.11124
 O1448 O 0.39640 0.48029 1.13634
 C1449 C 0.41360 0.47283 1.12862
 C1450 C 0.42487 0.45514 1.13952
 C1451 C 0.41751 0.44708 1.15914
 H1452 H 0.40364 0.45413 1.16666
 O1453 O 0.52096 0.60493 1.08264
 O1454 O 0.52162 0.62960 1.10779
 C1455 C 0.52860 0.62205 1.09024
 C1456 C 0.54614 0.63299 1.07888
 C1457 C 0.55381 0.65257 1.08644
 H1458 H 0.54618 0.66014 1.10001
 O1459 O 0.47627 0.39536 1.08042
 O1460 O 0.47619 0.37013 1.10490
 C1461 C 0.46879 0.37807 1.08775
 C1462 C 0.45096 0.36746 1.07644
 C1463 C 0.44280 0.34797 1.08378
 H1464 H 0.44988 0.34031 1.09757
 O1465 O 0.60673 0.57635 1.02489
 O1466 O 0.63191 0.60076 1.02497
 C1467 C 0.62428 0.58347 1.03209
 C1468 C 0.63552 0.57174 1.04929
 C1469 C 0.65552 0.57849 1.05677
 H1470 H 0.66330 0.59190 1.04925
 O1471 O 0.39067 0.42589 1.02441
 O1472 O 0.36538 0.40160 1.02401
 C1473 C 0.37322 0.41862 1.03163
 C1474 C 0.36235 0.42973 1.04953
 C1475 C 0.34275 0.42235 1.05746
 H1476 H 0.33516 0.40875 1.05003
 O1477 O 0.47918 0.57661 1.11228
 O1478 O 0.47976 0.60114 1.13755
 C1479 C 0.47207 0.58409 1.12977
 C1480 C 0.45420 0.57319 1.14070
 C1481 C 0.44602 0.58100 1.16015
 H1482 H 0.45322 0.59478 1.16765
 O1483 O 0.51873 0.42334 1.10945
 O1484 O 0.51888 0.39824 1.13406
 C1485 C 0.52628 0.41551 1.12657
 C1486 C 0.54424 0.42637 1.13743
 C1487 C 0.55226 0.41877 1.15700
 H1488 H 0.54497 0.40511 1.16458
 O1489 O 0.60557 0.47794 1.07930
 O1490 O 0.63058 0.47694 1.10402
 C1491 C 0.62273 0.47004 1.08663
 C1492 C 0.63320 0.45221 1.07507
 C1493 C 0.65253 0.44350 1.08242
 H1494 H 0.66028 0.45026 1.09633
 O1495 O 0.39253 0.52235 1.08243
 O1496 O 0.36764 0.52271 1.10730
 C1497 C 0.37534 0.52996 1.08999
 C1498 C 0.36464 0.54779 1.07877
 C1499 C 0.34502 0.55591 1.08605
 H1500 H 0.33727 0.54874 1.09972
 O1501 O 0.42411 0.60756 1.02701
 O1502 O 0.39945 0.63266 1.02733
 C1503 C 0.41668 0.62484 1.03457
 C1504 C 0.42783 0.63561 1.05238
 C1505 C 0.42018 0.65505 1.06038
 H1506 H 0.40666 0.66268 1.05280
 O1507 O 0.57313 0.39375 1.02229
 O1508 O 0.59750 0.36838 1.02197
 C1509 C 0.58033 0.37621 1.02939
 C1510 C 0.56889 0.36517 1.04683
 C1511 C 0.57560 0.34500 1.05384
 H1512 H 0.58863 0.33702 1.04575
 O1513 O 0.42208 0.52163 1.11124
 O1514 O 0.39733 0.52192 1.13625
 C1515 C 0.41474 0.52894 1.12870
 C1516 C 0.42618 0.54621 1.14001
 C1517 C 0.41831 0.55421 1.15941
 H1518 H 0.40444 0.54696 1.16665
 O1519 O 0.57624 0.47829 1.10839
 O1520 O 0.60118 0.47745 1.13319
 C1521 C 0.58367 0.47068 1.12564
 C1522 C 0.57220 0.45339 1.13681
 C1523 C 0.57987 0.44565 1.15635
 H1524 H 0.59356 0.45312 1.16373
 O1525 O 0.51776 0.39469 1.07961
 O1526 O 0.51774 0.36945 1.10408
 C1527 C 0.52481 0.37708 1.08669
 C1528 C 0.54175 0.36563 1.07484
 C1529 C 0.54873 0.34549 1.08165
 H1530 H 0.54139 0.33816 1.09546
 O1531 O 0.47950 0.60640 1.08367
 O1532 O 0.48005 0.63107 1.10881
 C1533 C 0.47255 0.62383 1.09140
 C1534 C 0.45514 0.63530 1.08023
 C1535 C 0.44730 0.65490 1.08797
 H1536 H 0.45443 0.66218 1.10196
 O1537 O 0.39439 0.57902 1.02669
 O1538 O 0.36974 0.60412 1.02689
 C1539 C 0.37709 0.58666 1.03401
 C1540 C 0.36565 0.57549 1.05137
 C1541 C 0.34609 0.58336 1.05887
 H1542 H 0.33889 0.59707 1.05122
 O1543 O 0.60305 0.42211 1.02245
 O1544 O 0.62746 0.39679 1.02207
 C1545 C 0.62028 0.41419 1.02958
 C1546 C 0.63182 0.42492 1.04718
 C1547 C 0.65111 0.41648 1.05474
 H1548 H 0.65804 0.40268 1.04694
 O1549 O 0.47712 0.42418 1.11005
 O1550 O 0.47721 0.39906 1.13465
 C1551 C 0.46998 0.41655 1.12741
 C1552 C 0.45261 0.42774 1.13890
 C1553 C 0.44512 0.41999 1.15852
 H1554 H 0.45296 0.40646 1.16587
 O1555 O 0.52085 0.57596 1.11195
 O1556 O 0.52156 0.60045 1.13726
 C1557 C 0.52856 0.58316 1.12929
 C1558 C 0.54631 0.57161 1.13981
 C1559 C 0.55456 0.57872 1.15946
 H1560 H 0.54752 0.59245 1.16727
 O1561 O 0.39205 0.48082 1.08179
 O1562 O 0.36726 0.48108 1.10675
 C1563 C 0.37463 0.47382 1.08926
 C1564 C 0.36316 0.45667 1.07779
 C1565 C 0.34358 0.44911 1.08545
 H1566 H 0.33633 0.45659 1.09929
 O1567 O 0.60638 0.51957 1.07987
 O1568 O 0.63142 0.51858 1.10456
 C1569 C 0.62391 0.52630 1.08738
 C1570 C 0.63533 0.54368 1.07630
 C1571 C 0.65532 0.55061 1.08355
 H1572 H 0.66267 0.54283 1.09713
 O1573 O 0.42017 0.39698 1.02409
 O1574 O 0.39497 0.37259 1.02386
 C1575 C 0.41239 0.37978 1.03126
 C1576 C 0.42341 0.36838 1.04880
 C1577 C 0.41551 0.34892 1.05637
 H1578 H 0.40185 0.34174 1.04866
 O1579 O 0.57699 0.60508 1.02568
 O1580 O 0.60203 0.62962 1.02589
 C1581 C 0.58469 0.62218 1.03324
 C1582 C 0.57359 0.63314 1.05109
 C1583 C 0.58106 0.65273 1.05897
 H1584 H 0.59482 0.66013 1.05169
 Cu1585 Cu 0.58889 0.49902 1.09168
 Cu1586 Cu 0.61885 0.49790 1.12144
 Cu1587 Cu 0.40940 0.50118 1.09417
 Cu1588 Cu 0.37967 0.50153 1.12418
 Cu1589 Cu 0.50001 0.58850 1.09516
 Cu1590 Cu 0.50084 0.61801 1.12541
 Cu1591 Cu 0.49748 0.41193 1.09246
 Cu1592 Cu 0.49752 0.38171 1.12191
 C1593 C 0.55601 0.55415 1.12953
 H1594 H 0.54999 0.54880 1.11422
 C1595 C 0.57237 0.56871 1.16870
 C1596 C 0.44253 0.44545 1.12966
 H1597 H 0.44807 0.45130 1.11437
 C1598 C 0.42751 0.42943 1.16871
 C1599 C 0.55601 0.62349 1.06107
 H1600 H 0.55034 0.60823 1.05533
 C1601 C 0.57129 0.66250 1.07669
 C1602 C 0.44125 0.37743 1.05883
 H1603 H 0.44724 0.39260 1.05326
 C1604 C 0.42502 0.33865 1.07388
 C1605 C 0.62570 0.55420 1.05903
 H1606 H 0.61016 0.54911 1.05357
 C1607 C 0.66559 0.56798 1.07389
 C1608 C 0.37229 0.44702 1.05970
 H1609 H 0.38755 0.45257 1.05391
 C1610 C 0.33327 0.43191 1.07548
 C1611 C 0.44425 0.55566 1.13088
 H1612 H 0.45019 0.54976 1.11572
 C1613 C 0.42797 0.57168 1.16951
 C1614 C 0.55425 0.44380 1.12756
 H1615 H 0.54844 0.44954 1.11231
 C1616 C 0.57018 0.42828 1.16648
 C1617 C 0.62309 0.44290 1.05732
 H1618 H 0.60803 0.44927 1.05176
 C1619 C 0.66151 0.42553 1.07239
 C1620 C 0.37470 0.55759 1.06129
 H1621 H 0.38996 0.55166 1.05578
 C1622 C 0.33570 0.57378 1.07622
 C1623 C 0.44541 0.62594 1.06229
 H1624 H 0.45113 0.61073 1.05639
 C1625 C 0.42971 0.66476 1.07818
 C1626 C 0.55180 0.37525 1.05729
 H1627 H 0.54672 0.39094 1.05217
 C1628 C 0.56563 0.33504 1.07127
 O1629 O 0.57360 0.47981 0.89582
 O1630 O 0.59822 0.47961 0.87069
 C1631 C 0.58090 0.47249 0.87834
 C1632 C 0.56937 0.45513 0.86718
 C1633 C 0.57611 0.44780 0.84703
 H1634 H 0.58934 0.45550 0.83910
 O1635 O 0.42269 0.52464 0.89690
 O1636 O 0.39764 0.52541 0.87221
 C1637 C 0.41507 0.53237 0.87975
 C1638 C 0.42633 0.55001 0.86887
 C1639 C 0.41920 0.55776 0.84904
 H1640 H 0.40587 0.55018 0.84115
 O1641 O 0.47911 0.60921 0.92813
 O1642 O 0.47923 0.63448 0.90371
 C1643 C 0.47192 0.62672 0.92097
 C1644 C 0.45443 0.63771 0.93253
 C1645 C 0.44605 0.65711 0.92501
 H1646 H 0.45282 0.66450 0.91095
 O1647 O 0.51711 0.39387 0.92486
 O1648 O 0.51656 0.36923 0.89969
 C1649 C 0.52411 0.37651 0.91706
 C1650 C 0.54171 0.36519 0.92802
 C1651 C 0.54987 0.34588 0.91992
 H1652 H 0.54280 0.33875 0.90584
 O1653 O 0.60248 0.42265 0.98070
 O1654 O 0.62707 0.39749 0.98039
 C1655 C 0.61969 0.41497 0.97326
 C1656 C 0.63092 0.42626 0.95583
 C1657 C 0.65074 0.41894 0.94843
 H1658 H 0.65799 0.40508 0.95576
 O1659 O 0.39471 0.57923 0.98496
 O1660 O 0.36996 0.60424 0.98531
 C1661 C 0.37741 0.58693 0.97780
 C1662 C 0.36615 0.57595 0.96021
 C1663 C 0.34624 0.58332 0.95313
 H1664 H 0.33884 0.59688 0.96092
 O1665 O 0.51992 0.57955 0.89822
 O1666 O 0.52022 0.60466 0.87361
 C1667 C 0.52712 0.58702 0.88082
 C1668 C 0.54395 0.57521 0.86911
 C1669 C 0.55073 0.58202 0.84888
 H1670 H 0.54340 0.59588 0.84165
 O1671 O 0.47619 0.42452 0.89634
 O1672 O 0.47545 0.40000 0.87104
 C1673 C 0.46876 0.41750 0.87881
 C1674 C 0.45189 0.42966 0.86764
 C1675 C 0.44456 0.42317 0.84746
 H1676 H 0.45193 0.40964 0.83959
 O1677 O 0.60328 0.52064 0.92563
 O1678 O 0.62806 0.52050 0.90065
 C1679 C 0.62071 0.52766 0.91820
 C1680 C 0.63232 0.54461 0.92987
 C1681 C 0.65249 0.55123 0.92293
 H1682 H 0.65974 0.54366 0.90914
 O1683 O 0.39349 0.48301 0.92597
 O1684 O 0.36836 0.48381 0.90135
 C1685 C 0.37592 0.47623 0.91858
 C1686 C 0.36439 0.45905 0.92989
 C1687 C 0.34445 0.45214 0.92252
 H1688 H 0.33729 0.45968 0.90871
 O1689 O 0.57719 0.60638 0.98392
 O1690 O 0.60234 0.63082 0.98405
 C1691 C 0.58488 0.62367 0.97677
 C1692 C 0.57378 0.63522 0.95935
 C1693 C 0.58188 0.65456 0.95162
 H1694 H 0.59567 0.66161 0.95921
 O1695 O 0.41967 0.39661 0.98234
 O1696 O 0.39444 0.37225 0.98210
 C1697 C 0.41188 0.37947 0.97487
 C1698 C 0.42286 0.36816 0.95717
 C1699 C 0.41494 0.34872 0.94943
 H1700 H 0.40144 0.34141 0.95726
 O1701 O 0.42250 0.48296 0.89654
 O1702 O 0.39748 0.48372 0.87182
 C1703 C 0.41472 0.47602 0.87915
 C1704 C 0.42555 0.45839 0.86772
 C1705 C 0.41838 0.45164 0.84757
 H1706 H 0.40507 0.45972 0.84009
 O1707 O 0.57425 0.52149 0.89623
 O1708 O 0.59886 0.52135 0.87108
 C1709 C 0.58173 0.52887 0.87890
 C1710 C 0.57063 0.54675 0.86811
 C1711 C 0.57723 0.55384 0.84788
 H1712 H 0.59002 0.54560 0.83965
 O1713 O 0.47555 0.39532 0.92555
 O1714 O 0.47483 0.37065 0.90042
 C1715 C 0.46780 0.37827 0.91790
 C1716 C 0.45010 0.36757 0.92924
 C1717 C 0.44183 0.34820 0.92163
 H1718 H 0.44872 0.34083 0.90756
 O1719 O 0.52071 0.60850 0.92778
 O1720 O 0.52099 0.63377 0.90335
 C1721 C 0.52829 0.62577 0.92051
 C1722 C 0.54616 0.63628 0.93182
 C1723 C 0.55456 0.65558 0.92427
 H1724 H 0.54759 0.66311 0.91036
 O1725 O 0.39161 0.42697 0.98261
 O1726 O 0.36629 0.40271 0.98220
 C1727 C 0.37423 0.41991 0.97509
 C1728 C 0.36353 0.43152 0.95749
 C1729 C 0.34363 0.42479 0.94981
 H1730 H 0.33562 0.41155 0.95739
 O1731 O 0.60523 0.57605 0.98319
 O1732 O 0.63052 0.60034 0.98319
 C1733 C 0.62257 0.58324 0.97574
 C1734 C 0.63326 0.57181 0.95794
 C1735 C 0.65342 0.57822 0.95071
 H1736 H 0.66161 0.59113 0.95872
 O1737 O 0.51754 0.42380 0.89649
 O1738 O 0.51688 0.39932 0.87116
 C1739 C 0.52447 0.41644 0.87889
 C1740 C 0.54179 0.42771 0.86754
 C1741 C 0.54871 0.42066 0.84740
 H1742 H 0.54112 0.40705 0.83999
 O1743 O 0.47850 0.58065 0.89820
 O1744 O 0.47875 0.60579 0.87363
 C1745 C 0.47131 0.58846 0.88091
 C1746 C 0.45384 0.57746 0.86947
 C1747 C 0.44655 0.58496 0.84963
 H1748 H 0.45401 0.59873 0.84243
 O1749 O 0.39436 0.52441 0.92698
 O1750 O 0.36919 0.52522 0.90241
 C1751 C 0.37699 0.53197 0.91989
 C1752 C 0.36601 0.54913 0.93186
 C1753 C 0.34609 0.55667 0.92506
 H1754 H 0.33831 0.54924 0.91152
 O1755 O 0.60300 0.47912 0.92483
 O1756 O 0.62778 0.47892 0.89985
 C1757 C 0.62022 0.47164 0.91720
 C1758 C 0.63122 0.45396 0.92840
 C1759 C 0.65111 0.44645 0.92128
 H1760 H 0.65893 0.45427 0.90802
 O1761 O 0.57331 0.39354 0.98058
 O1762 O 0.59786 0.36834 0.98032
 C1763 C 0.58062 0.37613 0.97313
 C1764 C 0.56936 0.36517 0.95549
 C1765 C 0.57725 0.34591 0.94724
 H1766 H 0.59100 0.33848 0.95460
 O1767 O 0.42379 0.60843 0.98521
 O1768 O 0.39907 0.63345 0.98564
 C1769 C 0.41630 0.62588 0.97814
 C1770 C 0.42727 0.63717 0.96054
 C1771 C 0.41917 0.65654 0.95282
 H1772 H 0.40553 0.66380 0.96056
 Cu1773 Cu 0.58604 0.50027 0.91309
 Cu1774 Cu 0.61569 0.50010 0.88304
 Cu1775 Cu 0.41083 0.50368 0.91401
 Cu1776 Cu 0.38067 0.50462 0.88444
 Cu1777 Cu 0.58904 0.58854 1.00443
 Cu1778 Cu 0.61920 0.61785 1.00453
 Cu1779 Cu 0.58554 0.41055 1.00153
 Cu1780 Cu 0.61494 0.38022 1.00116
 Cu1781 Cu 0.41174 0.59105 1.00592
 Cu1782 Cu 0.38211 0.62116 1.00633
 Cu1783 Cu 0.40803 0.41406 1.00339
 Cu1784 Cu 0.37775 0.38485 1.00299
 Cu1785 Cu 0.49953 0.59200 0.91557
 Cu1786 Cu 0.49985 0.62225 0.88615
 Cu1787 Cu 0.49665 0.41178 0.91338
 Cu1788 Cu 0.49584 0.38229 0.88307
 C1789 C 0.55207 0.44509 0.87720
 H1790 H 0.54697 0.45043 0.89286
 C1791 C 0.56582 0.43060 0.83699
 C1792 C 0.44377 0.55985 0.87883
 H1793 H 0.44915 0.55415 0.89425
 C1794 C 0.42925 0.57521 0.83926
 C1795 C 0.44503 0.62799 0.95043
 H1796 H 0.45113 0.61286 0.95610
 C1797 C 0.42831 0.66655 0.93500
 C1798 C 0.55146 0.37456 0.94593
 H1799 H 0.54553 0.38960 0.95204
 C1800 C 0.56776 0.33622 0.92938
 C1801 C 0.62139 0.44389 0.94583
 H1802 H 0.60595 0.44942 0.95126
 C1803 C 0.66102 0.42895 0.93121
 C1804 C 0.37583 0.55871 0.94959
 H1805 H 0.39135 0.55316 0.95474
 C1806 C 0.33613 0.57380 0.93554
 C1807 C 0.55385 0.55743 0.87849
 H1808 H 0.54886 0.55225 0.89422
 C1809 C 0.56731 0.57141 0.83810
 C1810 C 0.44244 0.44743 0.87752
 H1811 H 0.44783 0.45235 0.89322
 C1812 C 0.42779 0.43405 0.83730
 C1813 C 0.62292 0.55486 0.94752
 H1814 H 0.60725 0.55001 0.95281
 C1815 C 0.66318 0.56797 0.93325
 C1816 C 0.37370 0.44879 0.94753
 H1817 H 0.38920 0.45386 0.95313
 C1818 C 0.33399 0.43502 0.93233
 C1819 C 0.55578 0.62633 0.94949
 H1820 H 0.54964 0.61125 0.95516
 C1821 C 0.57248 0.66481 0.93401
 C1822 C 0.44059 0.37733 0.94711
 H1823 H 0.44660 0.39246 0.95283
 C1824 C 0.42422 0.33865 0.93160
 C1825 C 1.15233 1.12002 1.29353
 C1826 C 1.14508 1.11062 1.27464
 C1827 C 1.12352 1.11113 1.26934
 C1828 C 1.10909 1.12123 1.28320
 C1829 C 1.11627 1.13081 1.30206
 C1830 C 1.13808 1.13039 1.30769
 N1831 N 1.11682 1.10167 1.24962
 N1832 N 1.09733 1.10058 1.24421
 C1833 C 1.09083 1.09153 1.22421
 C1834 C 1.06910 1.09009 1.21961
 C1835 C 1.06224 1.08202 1.19995
 C1836 C 1.07709 1.07533 1.18447
 C1837 C 1.09893 1.07655 1.18926
 C1838 C 1.10575 1.08456 1.20896
 H1839 H 1.16932 1.11992 1.29628
 H1840 H 1.15640 1.10309 1.26394
 H1841 H 1.09227 1.12176 1.27946
 H1842 H 1.10444 1.13782 1.31251
 H1843 H 1.05744 1.09535 1.23125
 H1844 H 1.04531 1.08100 1.19687
 H1845 H 1.11077 1.07182 1.17758
 H1846 H 1.12267 1.08559 1.21211
 C1847 C 1.15366 0.63078 0.78711
 C1848 C 1.14523 0.62144 0.76874
 C1849 C 1.12325 0.61885 0.76655
 C1850 C 1.10961 0.62602 0.78288
 C1851 C 1.11803 0.63545 0.80131
 C1852 C 1.14017 0.63773 0.80367
 N1853 N 1.11536 0.60879 0.74762
 N1854 N 1.09566 0.60536 0.74447
 C1855 C 1.08830 0.59526 0.72531
 C1856 C 1.06642 0.59252 0.72223
 C1857 C 1.05879 0.58321 0.70342
 C1858 C 1.07302 0.57643 0.68741
 C1859 C 1.09500 0.57893 0.69069
 C1860 C 1.10259 0.58827 0.70946
 H1861 H 1.17075 0.63265 0.78835
 H1862 H 1.15586 0.61609 0.75619
 H1863 H 1.09253 0.62420 0.78149
 H1864 H 1.10731 0.64056 0.81389
 H1865 H 1.05527 0.59777 0.73436
 H1866 H 1.04178 0.58130 0.70137
 H1867 H 1.10632 0.57415 0.67852
 H1868 H 1.11959 0.59021 0.71145
 C1869 C 0.64732 1.12020 0.79878
 C1870 C 0.64003 1.11144 0.77958
 C1871 C 0.61858 1.11288 0.77394
 C1872 C 0.60430 1.12313 0.78783
 C1873 C 0.61152 1.13204 0.80699
 C1874 C 0.63325 1.13087 0.81289
 N1875 N 0.61184 1.10417 0.75387
 N1876 N 0.59243 1.10418 0.74802
 C1877 C 0.58591 1.09581 0.72773
 C1878 C 0.56420 1.09521 0.72275
 C1879 C 0.55735 1.08746 0.70295
 C1880 C 0.57219 1.08024 0.68769
 C1881 C 0.59400 1.08086 0.69277
 C1882 C 0.60081 1.08852 0.71261
 H1883 H 0.66425 1.11939 0.80183
 H1884 H 0.65124 1.10372 0.76890
 H1885 H 0.58756 1.12431 0.78387
 H1886 H 0.59974 1.13919 0.81741
 H1887 H 0.55256 1.10076 0.73428
 H1888 H 0.54044 1.08695 0.69965
 H1889 H 0.60586 1.07577 0.68126
 H1890 H 0.61770 1.08895 0.71601
 C1891 C 0.60533 0.63000 1.31695
 C1892 C 0.59590 0.62217 1.29827
 C1893 C 0.60851 0.61428 1.28158
 C1894 C 0.63078 0.61414 1.28383
 C1895 C 0.64022 0.62188 1.30251
 C1896 C 0.62761 0.62994 1.31926
 N1897 N 0.59842 0.60662 1.26251
 N1898 N 0.60919 0.59998 1.24659
 C1899 C 0.59949 0.59228 1.22736
 C1900 C 0.61263 0.58582 1.21050
 C1901 C 0.60383 0.57822 1.19147
 C1902 C 0.58161 0.57686 1.18899
 C1903 C 0.56841 0.58341 1.20596
 C1904 C 0.57727 0.59106 1.22501
 H1905 H 0.59521 0.63592 1.32967
 H1906 H 0.57872 0.62232 1.29675
 H1907 H 0.64091 0.60816 1.27115
 H1908 H 0.65742 0.62191 1.30369
 H1909 H 0.62977 0.58678 1.21209
 H1910 H 0.61443 0.57367 1.17858
 H1911 H 0.55126 0.58237 1.20460
 H1912 H 0.56678 0.59593 1.23787
 C1913 C 0.86760 0.89143 1.30963
 C1914 C 0.87567 0.90089 1.29111
 C1915 C 0.88487 0.88847 1.27503
 C1916 C 0.88629 0.86633 1.27782
 C1917 C 0.87839 0.85679 1.29637
 C1918 C 0.86864 0.86910 1.31265
 N1919 N 0.89249 0.89865 1.25601
 N1920 N 0.89978 0.88803 1.24025
 C1921 C 0.90744 0.89792 1.22111
 C1922 C 0.91440 0.88493 1.20432
 C1923 C 0.92207 0.89390 1.18543
 C1924 C 0.92305 0.91616 1.18300
 C1925 C 0.91591 0.92921 1.19986
 C1926 C 0.90816 0.92018 1.21878
 H1927 H 0.86124 0.90191 1.32180
 H1928 H 0.87470 0.91802 1.28927
 H1929 H 0.89329 0.85633 1.26556
 H1930 H 0.87909 0.83960 1.29723
 H1931 H 0.91381 0.86776 1.20587
 H1932 H 0.92705 0.88338 1.17262
 H1933 H 0.91663 0.94639 1.19857
 H1934 H 0.90289 0.93057 1.23157
 C1935 C 0.86639 0.34324 0.78869
 C1936 C 0.87558 0.35090 0.76986
 C1937 C 0.87803 0.37280 0.76666
 C1938 C 0.87139 0.38708 0.78267
 C1939 C 0.86221 0.37945 0.80151
 C1940 C 0.85947 0.35744 0.80467
 N1941 N 0.88699 0.38011 0.74693
 N1942 N 0.88925 0.39981 0.74277
 C1943 C 0.89799 0.40705 0.72292
 C1944 C 0.89994 0.42896 0.71936
 C1945 C 0.90817 0.43655 0.70006
 C1946 C 0.91464 0.42226 0.68396
 C1947 C 0.91268 0.40025 0.68760
 C1948 C 0.90444 0.39270 0.70689
 H1949 H 0.86428 0.32623 0.79054
 H1950 H 0.88060 0.33974 0.75762
 H1951 H 0.87320 0.40410 0.78061
 H1952 H 0.85733 0.39077 0.81366
 H1953 H 0.89504 0.44018 0.73160
 H1954 H 0.90969 0.45357 0.69781
 H1955 H 0.91722 0.38885 0.67539
 H1956 H 0.90301 0.37567 0.70921
 C1957 C 0.37702 0.84877 0.79182
 C1958 C 0.38571 0.85601 0.77261
 C1959 C 0.38683 0.87784 0.76832
 C1960 C 0.37928 0.89248 0.78358
 C1961 C 0.37054 0.88527 0.80278
 C1962 C 0.36923 0.86333 0.80706
 N1963 N 0.39535 0.88465 0.74825
 N1964 N 0.39697 0.90424 0.74334
 C1965 C 0.40520 0.91091 0.72309
 C1966 C 0.40697 0.93271 0.71885
 C1967 C 0.41465 0.93973 0.69912
 C1968 C 0.42067 0.92498 0.68327
 C1969 C 0.41890 0.90308 0.68761
 C1970 C 0.41126 0.89610 0.70734
 H1971 H 0.37600 0.83178 0.79458
 H1972 H 0.39143 0.84458 0.76094
 H1973 H 0.38002 0.90945 0.78064
 H1974 H 0.36491 0.89684 0.81435
 H1975 H 0.40237 0.94427 0.73088
 H1976 H 0.41606 0.95668 0.69634
 H1977 H 0.42310 0.89134 0.67561
 H1978 H 0.40994 0.87915 0.71020
 C1979 C 0.36804 0.39631 1.31747
 C1980 C 0.37546 0.40577 1.29868
 C1981 C 0.38403 0.39333 1.28227
 C1982 C 0.38550 0.37119 1.28499
 C1983 C 0.37825 0.36166 1.30378
 C1984 C 0.36912 0.37398 1.32040
 N1985 N 0.39096 0.40345 1.26298
 N1986 N 0.39755 0.39271 1.24701
 C1987 C 0.40459 0.40242 1.22757
 C1988 C 0.41096 0.38925 1.21069
 C1989 C 0.41817 0.39803 1.19154
 C1990 C 0.41924 0.42026 1.18895
 C1991 C 0.41261 0.43350 1.20587
 C1992 C 0.40534 0.42466 1.22505
 H1993 H 0.36215 0.40679 1.32989
 H1994 H 0.37447 0.42291 1.29689
 H1995 H 0.39202 0.36117 1.27248
 H1996 H 0.37892 0.34447 1.30459
 H1997 H 0.41033 0.37210 1.21240
 H1998 H 0.42278 0.38739 1.17868
 H1999 H 0.41340 0.45066 1.20440
 H2000 H 0.40049 0.43516 1.23792
 C2001 C 0.87076 1.10447 0.68544
 C2002 C 0.87903 1.09495 0.70384
 C2003 C 0.88780 1.10741 0.72008
 C2004 C 0.88890 1.12957 0.71746
 C2005 C 0.88082 1.13916 0.69903
 C2006 C 0.87117 1.12685 0.68277
 N2007 N 0.89500 1.09730 0.73928
 N2008 N 0.90127 1.10810 0.75530
 C2009 C 0.90830 1.09843 0.77475
 C2010 C 0.91423 1.11162 0.79172
 C2011 C 0.92120 1.10286 0.81097
 C2012 C 0.92246 1.08064 0.81355
 C2013 C 0.91630 1.06737 0.79651
 C2014 C 0.90927 1.07619 0.77723
 H2015 H 0.86451 1.09407 0.67316
 H2016 H 0.87835 1.07780 0.70556
 H2017 H 0.89564 1.13957 0.72983
 H2018 H 0.88113 1.15637 0.69833
 H2019 H 0.91340 1.12877 0.79003
 H2020 H 0.92545 1.11350 0.82393
 H2021 H 0.91727 1.05021 0.79799
 H2022 H 0.90474 1.06567 0.76428
 C2023 C 0.87763 0.65297 0.20606
 C2024 C 0.88712 0.64549 0.22476
 C2025 C 0.88542 0.62413 0.23051
 C2026 C 0.87350 0.61025 0.21759
 C2027 C 0.86365 0.61775 0.19895
 C2028 C 0.86588 0.63922 0.19256
 N2029 N 0.89590 0.61710 0.24958
 N2030 N 0.89758 0.59752 0.25455
 C2031 C 0.90793 0.59083 0.27383
 C2032 C 0.91050 0.56905 0.27769
 C2033 C 0.91980 0.56198 0.29669
 C2034 C 0.92656 0.57663 0.31233
 C2035 C 0.92439 0.59854 0.30821
 C2036 C 0.91518 0.60560 0.28912
 H2037 H 0.87900 0.66981 0.20274
 H2038 H 0.89596 0.65641 0.23479
 H2039 H 0.87189 0.59362 0.22183
 H2040 H 0.85521 0.60637 0.18913
 H2041 H 0.90510 0.55752 0.26600
 H2042 H 0.92155 0.54500 0.29922
 H2043 H 0.92918 0.61022 0.32001
 H2044 H 0.91336 0.62255 0.28652
 C2045 C 0.36378 1.10693 0.18848
 C2046 C 0.37202 1.09717 0.20680
 C2047 C 0.38336 1.10903 0.22188
 C2048 C 0.38658 1.13084 0.21836
 C2049 C 0.37856 1.14062 0.20002
 C2050 C 0.36692 1.12891 0.18464
 N2051 N 0.39139 1.09869 0.24064
 N2052 N 0.40025 1.10921 0.25559
 C2053 C 0.40854 1.09942 0.27450
 C2054 C 0.41632 1.11250 0.29081
 C2055 C 0.42447 1.10364 0.30956
 C2056 C 0.42517 1.08141 0.31226
 C2057 C 0.41739 1.06826 0.29578
 C2058 C 0.40909 1.07719 0.27705
 H2059 H 0.35567 1.09690 0.17702
 H2060 H 0.36957 1.08028 0.20925
 H2061 H 0.39519 1.14042 0.22985
 H2062 H 0.38078 1.15763 0.19862
 H2063 H 0.41589 1.12966 0.28903
 H2064 H 0.42992 1.11424 0.32207
 H2065 H 0.41792 1.05109 0.29727
 H2066 H 0.40324 1.06676 0.26458
 C2067 C 0.34351 0.63391 0.71350
 C2068 C 0.35104 0.62495 0.73250
 C2069 C 0.37288 0.62196 0.73574
 C2070 C 0.38723 0.62807 0.71965
 C2071 C 0.37973 0.63704 0.70061
 C2072 C 0.35776 0.64004 0.69730
 N2073 N 0.37998 0.61280 0.75548
 N2074 N 0.39960 0.60978 0.75966
 C2075 C 0.40659 0.60072 0.77949
 C2076 C 0.42844 0.59841 0.78322
 C2077 C 0.43582 0.58999 0.80254
 C2078 C 0.42140 0.58364 0.81850
 C2079 C 0.39944 0.58579 0.81462
 C2080 C 0.39208 0.59427 0.79531
 H2081 H 0.32653 0.63630 0.71161
 H2082 H 0.33982 0.62039 0.74481
 H2083 H 0.40421 0.62589 0.72176
 H2084 H 0.39109 0.64138 0.68836
 H2085 H 0.43978 0.60325 0.77115
 H2086 H 0.45282 0.58830 0.80495
 H2087 H 0.38795 0.58130 0.82669
 H2088 H 0.37510 0.59591 0.79283
 C2089 C 1.15841 0.86908 0.70780
 C2090 C 1.15045 0.87891 0.72620
 C2091 C 1.12849 0.88093 0.72935
 C2092 C 1.11445 0.87295 0.71380
 C2093 C 1.12239 0.86305 0.69537
 C2094 C 1.14448 0.86104 0.69217
 N2095 N 1.12098 0.89087 0.74857
 N2096 N 1.10127 0.89354 0.75250
 C2097 C 1.09398 0.90323 0.77194
 C2098 C 1.07208 0.90556 0.77534
 C2099 C 1.06443 0.91436 0.79443
 C2100 C 1.07864 0.92099 0.81048
 C2101 C 1.10066 0.91887 0.80690
 C2102 C 1.10827 0.91007 0.78782
 H2103 H 1.17548 0.86745 0.70597
 H2104 H 1.16142 0.88489 0.73813
 H2105 H 1.09739 0.87432 0.71589
 H2106 H 1.11129 0.85715 0.68353
 H2107 H 1.06090 0.90041 0.76322
 H2108 H 1.04740 0.91601 0.79661
 H2109 H 1.11199 0.92355 0.81906
 H2110 H 1.12528 0.90840 0.78560
 C2111 C 1.10351 0.36839 0.18752
 C2112 C 1.09477 0.37601 0.20659
 C2113 C 1.10766 0.38557 0.22201
 C2114 C 1.12949 0.38802 0.21789
 C2115 C 1.13830 0.38063 0.19871
 C2116 C 1.12555 0.37028 0.18323
 N2117 N 1.09826 0.39235 0.24177
 N2118 N 1.10940 0.39924 0.25728
 C2119 C 1.10011 0.40592 0.27711
 C2120 C 1.11355 0.41216 0.29378
 C2121 C 1.10509 0.41882 0.31334
 C2122 C 1.08292 0.41949 0.31656
 C2123 C 1.06943 0.41307 0.29981
 C2124 C 1.07793 0.40632 0.28025
 H2125 H 1.09269 0.36158 0.17594
 H2126 H 1.07785 0.37429 0.20946
 H2127 H 1.13981 0.39540 0.22960
 H2128 H 1.15534 0.38210 0.19673
 H2129 H 1.13065 0.41180 0.29160
 H2130 H 1.11594 0.42328 0.32602
 H2131 H 1.05230 0.41361 0.30171
 H2132 H 1.06720 0.40158 0.26757
 C2133 C 0.61101 0.87305 0.18667
 C2134 C 0.60184 0.88130 0.20531
 C2135 C 0.61459 0.88671 0.22282
 C2136 C 0.63678 0.88408 0.22138
 C2137 C 0.64598 0.87584 0.20274
 C2138 C 0.63318 0.87006 0.18524
 N2139 N 0.60461 0.89444 0.24194
 N2140 N 0.61531 0.89943 0.25847
 C2141 C 0.60549 0.90695 0.27775
 C2142 C 0.61849 0.91276 0.29493
 C2143 C 0.60954 0.92022 0.31397
 C2144 C 0.58732 0.92196 0.31619
 C2145 C 0.57425 0.91593 0.29897
 C2146 C 0.58325 0.90853 0.27987
 H2147 H 0.60075 0.86900 0.17337
 H2148 H 0.58474 0.88332 0.20618
 H2149 H 0.64699 0.88812 0.23472
 H2150 H 0.66306 0.87348 0.20223
 H2151 H 0.63564 0.91151 0.29353
 H2152 H 0.62001 0.92444 0.32706
 H2153 H 0.55709 0.91725 0.30017
 H2154 H 0.57286 0.90409 0.26680
 C2155 C 0.65021 0.37266 0.71032
 C2156 C 0.64262 0.38129 0.72945
 C2157 C 0.62075 0.38314 0.73311
 C2158 C 0.60638 0.37589 0.71747
 C2159 C 0.61397 0.36714 0.69831
 C2160 C 0.63598 0.36566 0.69446
 N2161 N 0.61369 0.39252 0.75277
 N2162 N 0.59411 0.39554 0.75707
 C2163 C 0.58742 0.40493 0.77688
 C2164 C 0.56565 0.40755 0.78083
 C2165 C 0.55862 0.41620 0.80021
 C2166 C 0.57331 0.42242 0.81599
 C2167 C 0.59519 0.42005 0.81184
 C2168 C 0.60220 0.41137 0.79248
 H2169 H 0.66725 0.37138 0.70796
 H2170 H 0.65383 0.38669 0.74143
 H2171 H 0.58937 0.37711 0.71999
 H2172 H 0.60267 0.36194 0.68632
 H2173 H 0.55411 0.40274 0.76892
 H2174 H 0.54167 0.41807 0.80284
 H2175 H 0.60688 0.42443 0.82378
 H2176 H 0.61913 0.40951 0.78981
 C2177 C 1.29506 1.14886 1.12242
 C2178 C 1.27589 1.14183 1.11359
 C2179 C 1.27211 1.12007 1.11076
 C2180 C 1.28782 1.10527 1.11682
 C2181 C 1.30703 1.11228 1.12567
 C2182 C 1.31085 1.13417 1.12858
 N2183 N 1.25212 1.11351 1.10197
 N2184 N 1.24739 1.09401 1.09912
 C2185 C 1.22723 1.08765 1.09055
 C2186 C 1.22283 1.06592 1.08832
 C2187 C 1.20309 1.05919 1.08055
 C2188 C 1.18739 1.07415 1.07483
 C2189 C 1.19194 1.09598 1.07685
 C2190 C 1.21167 1.10268 1.08466
 H2191 H 1.29736 1.16579 1.12477
 H2192 H 1.26387 1.15337 1.10907
 H2193 H 1.28526 1.08835 1.11476
 H2194 H 1.31898 1.10061 1.13007
 H2195 H 1.23470 1.05418 1.09275
 H2196 H 1.20013 1.04227 1.07893
 H2197 H 1.18008 1.10787 1.07283
 H2198 H 1.21467 1.11958 1.08627
 C2199 C 1.28781 0.65596 0.63041
 C2200 C 1.26897 0.64797 0.62162
 C2201 C 1.26537 0.62600 0.62069
 C2202 C 1.28100 0.61198 0.62854
 C2203 C 1.29985 0.61995 0.63735
 C2204 C 1.30344 0.64204 0.63849
 N2205 N 1.24568 0.61842 0.61194
 N2206 N 1.24128 0.59867 0.61062
 C2207 C 1.22148 0.59122 0.60201
 C2208 C 1.21784 0.56926 0.60070
 C2209 C 1.19866 0.56147 0.59246
 C2210 C 1.18272 0.57557 0.58536
 C2211 C 1.18642 0.59764 0.58676
 C2212 C 1.20560 0.60539 0.59498
 H2213 H 1.28996 0.67305 0.63129
 H2214 H 1.25704 0.65895 0.61568
 H2215 H 1.27863 0.59492 0.62793
 H2216 H 1.31169 0.60880 0.64317
 H2217 H 1.22994 0.55816 0.60605
 H2218 H 1.19641 0.54441 0.59139
 H2219 H 1.17436 0.60893 0.58175
 H2220 H 1.20797 0.62245 0.59592
 C2221 C 0.81195 1.10536 0.62853
 C2222 C 0.79308 1.09612 0.62128
 C2223 C 0.77642 1.10881 0.61380
 C2224 C 0.77912 1.13098 0.61282
 C2225 C 0.79806 1.14032 0.61986
 C2226 C 0.81471 1.12773 0.62840
 N2227 N 0.75683 1.09888 0.60772
 N2228 N 0.74044 1.10974 0.60275
 C2229 C 0.72070 1.10009 0.59673
 C2230 C 0.70357 1.11331 0.59143
 C2231 C 0.68423 1.10457 0.58490
 C2232 C 0.68168 1.08236 0.58351
 C2233 C 0.69875 1.06905 0.58934
 C2234 C 0.71816 1.07784 0.59587
 H2235 H 0.82449 1.09477 0.63383
 H2236 H 0.79132 1.07896 0.62178
 H2237 H 0.76645 1.14116 0.60700
 H2238 H 0.79891 1.15753 0.61975
 H2239 H 0.70529 1.13045 0.59220
 H2240 H 0.67124 1.11522 0.58085
 H2241 H 0.69726 1.05190 0.58828
 H2242 H 0.73120 1.06730 0.59997
 C2243 C 0.79252 0.65244 1.13024
 C2244 C 0.77339 0.64486 1.12183
 C2245 C 0.76960 0.62298 1.12035
 C2246 C 0.78517 0.60861 1.12771
 C2247 C 0.80436 0.61619 1.13624
 C2248 C 0.80831 0.63821 1.13742
 N2249 N 0.74987 0.61593 1.11126
 N2250 N 0.74540 0.59633 1.10861
 C2251 C 0.72555 0.58964 1.09948
 C2252 C 0.72158 0.56785 1.09702
 C2253 C 0.70224 0.56080 1.08848
 C2254 C 0.68647 0.57549 1.08222
 C2255 C 0.69060 0.59739 1.08452
 C2256 C 0.70993 0.60441 1.09307
 H2257 H 0.79493 0.66949 1.13125
 H2258 H 0.76147 0.65610 1.11633
 H2259 H 0.78259 0.59159 1.12677
 H2260 H 0.81626 0.60485 1.14153
 H2261 H 0.73348 0.55629 1.10181
 H2262 H 0.69967 0.54384 1.08668
 H2263 H 0.67869 0.60910 1.08013
 H2264 H 0.71258 0.62136 1.09483
 C2265 C 1.29628 0.87534 0.84576
 C2266 C 1.27713 0.88440 0.85263
 C2267 C 1.27185 0.88477 0.87428
 C2268 C 1.28590 0.87567 0.88916
 C2269 C 1.30504 0.86640 0.88235
 C2270 C 1.31077 0.86620 0.86048
 N2271 N 1.25208 0.89430 0.88063
 N2272 N 1.24675 0.89643 0.90015
 C2273 C 1.22680 0.90570 0.90634
 C2274 C 1.22222 0.90801 0.92810
 C2275 C 1.20263 0.91634 0.93472
 C2276 C 1.18718 0.92245 0.91962
 C2277 C 1.19197 0.92045 0.89774
 C2278 C 1.21160 0.91215 0.89114
 H2279 H 1.29911 0.87485 0.82872
 H2280 H 1.26628 0.89112 0.84098
 H2281 H 1.28215 0.87579 0.90605
 H2282 H 1.31564 0.86028 0.89452
 H2283 H 1.23382 0.90320 0.93996
 H2284 H 1.19956 0.91797 0.95168
 H2285 H 1.18033 0.92476 0.88573
 H2286 H 1.21475 0.91049 0.87421
 C2287 C 1.31318 0.36863 0.40137
 C2288 C 1.29448 0.37565 0.41126
 C2289 C 1.27885 0.38624 0.39948
 C2290 C 1.28250 0.39060 0.37779
 C2291 C 1.30128 0.38388 0.36790
 C2292 C 1.31684 0.37228 0.37936
 N2293 N 1.25920 0.39193 0.40964
 N2294 N 1.24335 0.39842 0.39878
 C2295 C 1.22345 0.40427 0.40824
 C2296 C 1.20670 0.41003 0.39475
 C2297 C 1.18718 0.41643 0.40323
 C2298 C 1.18411 0.41736 0.42548
 C2299 C 1.20082 0.41110 0.43907
 C2300 C 1.22040 0.40460 0.43051
 H2301 H 1.32492 0.36070 0.41124
 H2302 H 1.29198 0.37246 0.42808
 H2303 H 1.27065 0.39887 0.36834
 H2304 H 1.30275 0.38667 0.35091
 H2305 H 1.20884 0.40966 0.37757
 H2306 H 1.17447 0.42073 0.39235
 H2307 H 1.19893 0.41179 0.45627
 H2308 H 1.23318 0.40016 0.44125
 C2309 C 0.81361 0.86937 0.39363
 C2310 C 0.79540 0.87726 0.40382
 C2311 C 0.77811 0.88463 0.39181
 C2312 C 0.77940 0.88444 0.36936
 C2313 C 0.79762 0.87665 0.35915
 C2314 C 0.81484 0.86884 0.37118
 N2315 N 0.75934 0.89190 0.40266
 N2316 N 0.74279 0.89760 0.39242
 C2317 C 0.72378 0.90492 0.40273
 C2318 C 0.70655 0.91101 0.38998
 C2319 C 0.68785 0.91867 0.39929
 C2320 C 0.68605 0.92043 0.42164
 C2321 C 0.70323 0.91392 0.43449
 C2322 C 0.72201 0.90625 0.42511
 H2323 H 0.82673 0.86361 0.40328
 H2324 H 0.79464 0.87740 0.42111
 H2325 H 0.76625 0.89008 0.35969
 H2326 H 0.79801 0.87618 0.34185
 H2327 H 0.70768 0.90990 0.37274
 H2328 H 0.67475 0.92320 0.38899
 H2329 H 0.70229 0.91519 0.45173
 H2330 H 0.73515 0.90157 0.43529
 C2331 C 0.78778 0.37346 0.84493
 C2332 C 0.76930 0.38328 0.85260
 C2333 C 0.76420 0.38254 0.87429
 C2334 C 0.77782 0.37175 0.88839
 C2335 C 0.79625 0.36173 0.88079
 C2336 C 0.80168 0.36237 0.85885
 N2337 N 0.74495 0.39255 0.88148
 N2338 N 0.73995 0.39361 0.90118
 C2339 C 0.72047 0.40322 0.90828
 C2340 C 0.71651 0.40477 0.93023
 C2341 C 0.69738 0.41344 0.93770
 C2342 C 0.68176 0.42064 0.92327
 C2343 C 0.68590 0.41927 0.90121
 C2344 C 0.70508 0.41067 0.89376
 H2345 H 0.79045 0.37385 0.82786
 H2346 H 0.75879 0.39137 0.84153
 H2347 H 0.77424 0.37104 0.90531
 H2348 H 0.80654 0.35424 0.89243
 H2349 H 0.72826 0.39914 0.94157
 H2350 H 0.69483 0.41455 0.95479
 H2351 H 0.67409 0.42438 0.88968
 H2352 H 0.70773 0.40955 0.87670
 C2353 C 0.70802 0.85050 1.12517
 C2354 C 0.72732 0.85731 1.11651
 C2355 C 0.73129 0.87902 1.11367
 C2356 C 0.71576 0.89400 1.11986
 C2357 C 0.69643 0.88720 1.12858
 C2358 C 0.69230 0.86536 1.13116
 N2359 N 0.75115 0.88530 1.10443
 N2360 N 0.75588 0.90471 1.10108
 C2361 C 0.77586 0.91075 1.09190
 C2362 C 0.78046 0.93240 1.08953
 C2363 C 0.80007 0.93884 1.08126
 C2364 C 0.81544 0.92365 1.07514
 C2365 C 0.81063 0.90190 1.07716
 C2366 C 0.79102 0.89548 1.08551
 H2367 H 0.70545 0.83359 1.12729
 H2368 H 0.73920 0.84564 1.11192
 H2369 H 0.71850 0.91089 1.11783
 H2370 H 0.68454 0.89898 1.13291
 H2371 H 0.76888 0.94431 1.09430
 H2372 H 0.80325 0.95571 1.07965
 H2373 H 0.82223 0.88985 1.07280
 H2374 H 0.78783 0.87863 1.08717
 C2375 C 0.69078 0.39225 0.63690
 C2376 C 0.70847 0.40225 0.62788
 C2377 C 0.72370 0.39042 0.61671
 C2378 C 0.72079 0.36841 0.61414
 C2379 C 0.70304 0.35836 0.62293
 C2380 C 0.68775 0.37001 0.63479
 N2381 N 0.74214 0.40098 0.60848
 N2382 N 0.75747 0.39061 0.60013
 C2383 C 0.77614 0.40073 0.59193
 C2384 C 0.79284 0.38792 0.58457
 C2385 C 0.81143 0.39711 0.57665
 C2386 C 0.81358 0.41940 0.57576
 C2387 C 0.79674 0.43227 0.58318
 C2388 C 0.77816 0.42301 0.59123
 H2389 H 0.67922 0.40225 0.64494
 H2390 H 0.71042 0.41929 0.62977
 H2391 H 0.73240 0.35888 0.60558
 H2392 H 0.70210 0.34124 0.62128
 H2393 H 0.79150 0.37074 0.58516
 H2394 H 0.82425 0.38673 0.57150
 H2395 H 0.79784 0.44946 0.58251
 H2396 H 0.76539 0.43323 0.59681
 C2397 C 0.21259 0.84344 0.62288
 C2398 C 0.23056 0.85162 0.61269
 C2399 C 0.23456 0.87346 0.61278
 C2400 C 0.22036 0.88722 0.62331
 C2401 C 0.20241 0.87911 0.63369
 C2402 C 0.19809 0.85701 0.63366
 N2403 N 0.25334 0.88113 0.60243
 N2404 N 0.25749 0.90089 0.60082
 C2405 C 0.27661 0.90831 0.59088
 C2406 C 0.27994 0.93025 0.58902
 C2407 C 0.29883 0.93800 0.58020
 C2408 C 0.31478 0.92386 0.57315
 C2409 C 0.31124 0.90181 0.57473
 C2410 C 0.29232 0.89409 0.58349
 H2411 H 0.21079 0.82632 0.62300
 H2412 H 0.24155 0.84083 0.60482
 H2413 H 0.22311 0.90424 0.62353
 H2414 H 0.19161 0.89045 0.64097
 H2415 H 0.26793 0.94136 0.59461
 H2416 H 0.30098 0.95506 0.57894
 H2417 H 0.32333 0.89052 0.56975
 H2418 H 0.29015 0.87705 0.58483
 C2419 C 0.18458 0.37224 1.10513
 C2420 C 0.20337 0.38032 1.09634
 C2421 C 0.22024 0.38646 1.10956
 C2422 C 0.21805 0.38459 1.13185
 C2423 C 0.19926 0.37654 1.14068
 C2424 C 0.18234 0.37018 1.12741
 N2425 N 0.23939 0.39437 1.09999
 N2426 N 0.25540 0.39996 1.11113
 C2427 C 0.27465 0.40781 1.10173
 C2428 C 0.29142 0.41370 1.11518
 C2429 C 0.31044 0.42146 1.10666
 C2430 C 0.31304 0.42350 1.08442
 C2431 C 0.29620 0.41744 1.07090
 C2432 C 0.27714 0.40969 1.07947
 H2433 H 0.17175 0.36775 1.09450
 H2434 H 0.20481 0.38175 1.07915
 H2435 H 0.23087 0.38920 1.14243
 H2436 H 0.19811 0.37492 1.15787
 H2437 H 0.28975 0.41223 1.13235
 H2438 H 0.32322 0.42564 1.11749
 H2439 H 0.29766 0.41899 1.05373
 H2440 H 0.26439 0.40524 1.06873
 C2441 C 0.68857 1.13267 0.89365
 C2442 C 0.70721 1.12491 0.90316
 C2443 C 0.72457 1.11870 0.89054
 C2444 C 0.72310 1.12039 0.86819
 C2445 C 0.70450 1.12812 0.85867
 C2446 C 0.68699 1.13431 0.87128
 N2447 N 0.74341 1.11066 0.90071
 N2448 N 0.75959 1.10476 0.88993
 C2449 C 0.77857 1.09656 0.89963
 C2450 C 0.79543 1.09032 0.88640
 C2451 C 0.81414 1.08202 0.89515
 C2452 C 0.81634 1.07977 0.91740
 C2453 C 0.79944 1.08622 0.93072
 C2454 C 0.78067 1.09452 0.92191
 H2455 H 0.67529 1.13710 0.90378
 H2456 H 0.70811 1.12365 0.92040
 H2457 H 0.73631 1.11577 0.85805
 H2458 H 0.70389 1.12948 0.84143
 H2459 H 0.79403 1.09190 0.86922
 H2460 H 0.82699 1.07756 0.88448
 H2461 H 0.80062 1.08454 0.94790
 H2462 H 0.76783 1.09922 0.93247
 C2463 C 0.68715 0.62452 0.39764
 C2464 C 0.70595 0.61625 0.40627
 C2465 C 0.72249 0.60956 0.39286
 C2466 C 0.71981 0.61064 0.37057
 C2467 C 0.70099 0.61882 0.36191
 C2468 C 0.68459 0.62614 0.37537
 N2469 N 0.74203 0.60237 0.40222
 N2470 N 0.75805 0.59726 0.39085
 C2471 C 0.77780 0.59043 0.39999
 C2472 C 0.79457 0.58502 0.38632
 C2473 C 0.81413 0.57839 0.39461
 C2474 C 0.81723 0.57705 0.41683
 C2475 C 0.80040 0.58266 0.43058
 C2476 C 0.78081 0.58927 0.42223
 H2477 H 0.67467 0.62982 0.40837
 H2478 H 0.70779 0.61541 0.42346
 H2479 H 0.73237 0.60553 0.35986
 H2480 H 0.69954 0.62009 0.34471
 H2481 H 0.79248 0.58599 0.36916
 H2482 H 0.82690 0.57449 0.38363
 H2483 H 0.80229 0.58160 0.44775
 H2484 H 0.76805 0.59342 0.43313
 C2485 C 0.20477 1.14997 0.37665
 C2486 C 0.22384 1.14294 0.38577
 C2487 C 0.22992 1.12159 0.38428
 C2488 C 0.21659 1.10714 0.37365
 C2489 C 0.19759 1.11410 0.36436
 C2490 C 0.19129 1.13574 0.36553
 N2491 N 0.24987 1.11511 0.39326
 N2492 N 0.25587 1.09572 0.39346
 C2493 C 0.27609 1.08938 0.40194
 C2494 C 0.28107 1.06768 0.40301
 C2495 C 0.30086 1.06097 0.41073
 C2496 C 0.31611 1.07595 0.41740
 C2497 C 0.31101 1.09776 0.41636
 C2498 C 0.29117 1.10443 0.40875
 H2499 H 0.20132 1.16684 0.37751
 H2500 H 0.23409 1.15427 0.39379
 H2501 H 0.22089 1.09046 0.37245
 H2502 H 0.18759 1.10220 0.35694
 H2503 H 0.26956 1.05593 0.39783
 H2504 H 0.30417 1.04406 0.41161
 H2505 H 0.32251 1.10972 0.42103
 H2506 H 0.28774 1.12132 0.40794
 C2507 C 0.21296 0.62967 0.84620
 C2508 C 0.23158 0.62087 0.85459
 C2509 C 0.23419 0.61891 0.87668
 C2510 C 0.21788 0.62581 0.89046
 C2511 C 0.19922 0.63465 0.88208
 C2512 C 0.19659 0.63668 0.85986
 N2513 N 0.25363 0.61007 0.88463
 N2514 N 0.25726 0.60772 0.90449
 C2515 C 0.27695 0.59900 0.91199
 C2516 C 0.28015 0.59661 0.93399
 C2517 C 0.29935 0.58834 0.94173
 C2518 C 0.31563 0.58232 0.92750
 C2519 C 0.31234 0.58474 0.90542
 C2520 C 0.29318 0.59299 0.89772
 H2521 H 0.21151 0.63133 0.82903
 H2522 H 0.24410 0.61568 0.84386
 H2523 H 0.21956 0.62440 0.90762
 H2524 H 0.18677 0.63972 0.89296
 H2525 H 0.26775 0.60117 0.94513
 H2526 H 0.30139 0.58647 0.95882
 H2527 H 0.32472 0.58059 0.89409
 H2528 H 0.29114 0.59477 0.88064
 C2529 C 1.10252 1.31321 1.12432
 C2530 C 1.09348 1.29441 1.11653
 C2531 C 1.10643 1.27717 1.11073
 C2532 C 1.12867 1.27907 1.11244
 C2533 C 1.13772 1.29787 1.12018
 C2534 C 1.12474 1.31508 1.12639
 N2535 N 1.09667 1.25785 1.10349
 N2536 N 1.10766 1.24147 1.09866
 C2537 C 1.09824 1.22197 1.09154
 C2538 C 1.11161 1.20494 1.08620
 C2539 C 1.10310 1.18571 1.07899
 C2540 C 1.08095 1.18317 1.07701
 C2541 C 1.06749 1.20021 1.08265
 C2542 C 1.07606 1.21951 1.08983
 H2543 H 1.09213 1.32629 1.12878
 H2544 H 1.07634 1.29317 1.11521
 H2545 H 1.13904 1.26596 1.10806
 H2546 H 1.15486 1.29874 1.12185
 H2547 H 1.12872 1.20661 1.08758
 H2548 H 1.11386 1.17276 1.07510
 H2549 H 1.05038 1.19874 1.08114
 H2550 H 1.06539 1.23247 1.09392
 C2551 C 1.15743 0.78332 0.63421
 C2552 C 1.14915 0.76442 0.62594
 C2553 C 1.12719 0.76200 0.62329
 C2554 C 1.11343 0.77862 0.62947
 C2555 C 1.12171 0.79756 0.63785
 C2556 C 1.14383 0.80018 0.64005
 N2557 N 1.11945 0.74267 0.61399
 N2558 N 1.09979 0.73944 0.61033
 C2559 C 1.09245 0.72002 0.60082
 C2560 C 1.07061 0.71716 0.59760
 C2561 C 1.06297 0.69829 0.58855
 C2562 C 1.07713 0.68195 0.58250
 C2563 C 1.09909 0.68496 0.58557
 C2564 C 1.10670 0.70381 0.59466
 H2565 H 1.17452 0.78478 0.63602
 H2566 H 1.15989 0.75168 0.62134
 H2567 H 1.09637 0.77708 0.62760
 H2568 H 1.11088 0.81035 0.64209
 H2569 H 1.05948 0.72956 0.60219
 H2570 H 1.04598 0.69650 0.58617
 H2571 H 1.11036 0.67256 0.58135
 H2572 H 1.12367 0.70562 0.59698
 C2573 C 0.65162 1.29389 0.62985
 C2574 C 0.64431 1.27489 0.62086
 C2575 C 0.62249 1.27096 0.61910
 C2576 C 0.60790 1.28623 0.62672
 C2577 C 0.61520 1.30525 0.63584
 C2578 C 0.63715 1.30935 0.63734
 N2579 N 0.61567 1.25138 0.60951
 N2580 N 0.59612 1.24700 0.60649
 C2581 C 0.58952 1.22730 0.59697
 C2582 C 0.56778 1.22352 0.59406
 C2583 C 0.56078 1.20427 0.58528
 C2584 C 0.57548 1.18840 0.57925
 C2585 C 0.59735 1.19236 0.58194
 C2586 C 0.60432 1.21162 0.59072
 H2587 H 0.66862 1.29646 0.63108
 H2588 H 0.65570 1.26320 0.61516
 H2589 H 0.59093 1.28352 0.62557
 H2590 H 0.60370 1.31693 0.64134
 H2591 H 0.55622 1.23549 0.59872
 H2592 H 0.54385 1.20181 0.58317
 H2593 H 0.60905 1.18036 0.57772
 H2594 H 0.62124 1.21414 0.59283
 C2595 C 0.63119 0.81098 1.10640
 C2596 C 0.62289 0.79238 1.09740
 C2597 C 0.61567 0.77587 1.11050
 C2598 C 0.61646 0.77833 1.13283
 C2599 C 0.62468 0.79694 1.14185
 C2600 C 0.63231 0.81338 1.12873
 N2601 N 0.60802 0.75668 1.10082
 N2602 N 0.60226 0.74080 1.11200
 C2603 C 0.59473 0.72141 1.10267
 C2604 C 0.58886 0.70475 1.11620
 C2605 C 0.58139 0.68559 1.10776
 C2606 C 0.57964 0.68277 1.08552
 C2607 C 0.58572 0.69948 1.07191
 C2608 C 0.59320 0.71868 1.08041
 H2609 H 0.63676 0.82349 1.09592
 H2610 H 0.62229 0.79070 1.08018
 H2611 H 0.61097 0.76580 1.14331
 H2612 H 0.62558 0.79825 1.15909
 H2613 H 0.59010 0.70663 1.13337
 H2614 H 0.57716 0.67288 1.11863
 H2615 H 0.58437 0.69782 1.05473
 H2616 H 0.59767 0.73137 1.06963
 C2617 C 0.84132 1.28818 0.87104
 C2618 C 0.84907 1.26959 0.88058
 C2619 C 0.87098 1.26650 0.88326
 C2620 C 0.88516 1.28235 0.87638
 C2621 C 0.87742 1.30096 0.86682
 C2622 C 0.85541 1.30406 0.86399
 N2623 N 0.87835 1.24702 0.89265
 N2624 N 0.89804 1.24305 0.89546
 C2625 C 0.90535 1.22340 0.90454
 C2626 C 0.92725 1.22003 0.90691
 C2627 C 0.93495 1.20079 0.91513
 C2628 C 0.92081 1.18454 0.92116
 C2629 C 0.89879 1.18808 0.91898
 C2630 C 0.89111 1.20732 0.91074
 H2631 H 0.82431 1.28994 0.86880
 H2632 H 0.83799 1.25745 0.88573
 H2633 H 0.90217 1.28035 0.87831
 H2634 H 0.88865 1.31300 0.86176
 H2635 H 0.93839 1.23230 0.90224
 H2636 H 0.95198 1.19865 0.91685
 H2637 H 0.88750 1.17578 0.92321
 H2638 H 0.87410 1.20951 0.90901
 C2639 C 0.85175 0.79270 0.37006
 C2640 C 0.85890 0.77325 0.37818
 C2641 C 0.88068 0.76938 0.38080
 C2642 C 0.89539 0.78514 0.37483
 C2643 C 0.88824 0.80462 0.36661
 C2644 C 0.86633 0.80867 0.36436
 N2645 N 0.88729 0.74946 0.38979
 N2646 N 0.90673 0.74498 0.39340
 C2647 C 0.91303 0.72499 0.40249
 C2648 C 0.93469 0.72086 0.40572
 C2649 C 0.94137 0.70140 0.41427
 C2650 C 0.92642 0.68569 0.41978
 C2651 C 0.90464 0.68998 0.41674
 C2652 C 0.89799 0.70943 0.40815
 H2653 H 0.83479 0.79526 0.36823
 H2654 H 0.84743 0.76120 0.38262
 H2655 H 0.91232 0.78248 0.37669
 H2656 H 0.89980 0.81670 0.36249
 H2657 H 0.94642 0.73275 0.40152
 H2658 H 0.95823 0.69865 0.41665
 H2659 H 0.89278 0.67810 0.42056
 H2660 H 0.88114 0.71223 0.40581
 C2661 C 0.35383 1.29720 0.37654
 C2662 C 0.36095 1.27736 0.38361
 C2663 C 0.38272 1.27326 0.38575
 C2664 C 0.39748 1.28920 0.38042
 C2665 C 0.39036 1.30909 0.37326
 C2666 C 0.36845 1.31333 0.37145
 N2667 N 0.38927 1.25286 0.39354
 N2668 N 0.40871 1.24796 0.39653
 C2669 C 0.41481 1.22744 0.40444
 C2670 C 0.43643 1.22281 0.40721
 C2671 C 0.44284 1.20285 0.41473
 C2672 C 0.42766 1.18717 0.41964
 C2673 C 0.40594 1.19193 0.41698
 C2674 C 0.39956 1.21187 0.40944
 H2675 H 0.33687 1.29992 0.37496
 H2676 H 0.34946 1.26515 0.38756
 H2677 H 0.41441 1.28634 0.38193
 H2678 H 0.40193 1.32130 0.36954
 H2679 H 0.44832 1.23470 0.40350
 H2680 H 0.45968 1.19971 0.41685
 H2681 H 0.39391 1.18008 0.42036
 H2682 H 0.38273 1.21505 0.40742
 C2683 C 0.39192 0.81249 0.87187
 C2684 C 0.40154 0.79469 0.88122
 C2685 C 0.38921 0.77742 0.88789
 C2686 C 0.36695 0.77835 0.88555
 C2687 C 0.35730 0.79617 0.87624
 C2688 C 0.36971 0.81332 0.86905
 N2689 N 0.39967 0.75897 0.89639
 N2690 N 0.38936 0.74253 0.90215
 C2691 C 0.39959 0.72382 0.91032
 C2692 C 0.38695 0.70670 0.91673
 C2693 C 0.39629 0.68812 0.92466
 C2694 C 0.41856 0.68631 0.92632
 C2695 C 0.43128 0.70347 0.91970
 C2696 C 0.42188 0.72212 0.91181
 H2697 H 0.40187 0.82557 0.86670
 H2698 H 0.41869 0.79421 0.88300
 H2699 H 0.35705 0.76520 0.89058
 H2700 H 0.34020 0.79624 0.87405
 H2701 H 0.36978 0.70776 0.91552
 H2702 H 0.38608 0.67504 0.92928
 H2703 H 0.44846 0.70257 0.92092
 H2704 H 0.43200 0.73516 0.90689
 C2705 C 1.15566 0.71067 0.86683
 C2706 C 1.14785 0.72946 0.87588
 C2707 C 1.12597 0.73246 0.87860
 C2708 C 1.11180 0.71645 0.87200
 C2709 C 1.11960 0.69761 0.86288
 C2710 C 1.14163 0.69449 0.86032
 N2711 N 1.11865 0.75193 0.88804
 N2712 N 1.09903 0.75582 0.89131
 C2713 C 1.09208 0.77549 0.90066
 C2714 C 1.07027 0.77914 0.90339
 C2715 C 1.06300 0.79842 0.91194
 C2716 C 1.07751 0.81437 0.91795
 C2717 C 1.09943 0.81054 0.91544
 C2718 C 1.10667 0.79129 0.90686
 H2719 H 1.17269 0.70887 0.86473
 H2720 H 1.15889 0.74175 0.88080
 H2721 H 1.09479 0.71845 0.87394
 H2722 H 1.10845 0.68535 0.85815
 H2723 H 1.05889 0.76706 0.89874
 H2724 H 1.04603 0.80085 0.91391
 H2725 H 1.11096 0.82263 0.91965
 H2726 H 1.12362 0.78886 0.90488
 C2727 C 1.10938 0.18878 0.36356
 C2728 C 1.09928 0.20689 0.37190
 C2729 C 1.11129 0.22423 0.37910
 C2730 C 1.13361 0.22334 0.37772
 C2731 C 1.14370 0.20530 0.36939
 C2732 C 1.13172 0.18776 0.36231
 N2733 N 1.10057 0.24248 0.38781
 N2734 N 1.11087 0.25837 0.39503
 C2735 C 1.10069 0.27683 0.40386
 C2736 C 1.11343 0.29336 0.41159
 C2737 C 1.10418 0.31166 0.42033
 C2738 C 1.08191 0.31374 0.42148
 C2739 C 1.06911 0.29712 0.41364
 C2740 C 1.07842 0.27877 0.40492
 H2741 H 1.09974 0.17545 0.35840
 H2742 H 1.08207 0.20736 0.37288
 H2743 H 1.14327 0.23657 0.38306
 H2744 H 1.16091 0.20515 0.36831
 H2745 H 1.13061 0.29207 0.41078
 H2746 H 1.11447 0.32433 0.42588
 H2747 H 1.05192 0.29823 0.41447
 H2748 H 1.06824 0.26616 0.39905
 C2749 C 0.64874 0.70247 0.38109
 C2750 C 0.64236 0.72204 0.38960
 C2751 C 0.62075 0.72677 0.39214
 C2752 C 0.60543 0.71166 0.38597
 C2753 C 0.61180 0.69205 0.37740
 C2754 C 0.63354 0.68723 0.37495
 N2755 N 0.61487 0.74707 0.40079
 N2756 N 0.59556 0.75250 0.40369
 C2757 C 0.58989 0.77299 0.41207
 C2758 C 0.56834 0.77825 0.41415
 C2759 C 0.56227 0.79842 0.42146
 C2760 C 0.57774 0.81368 0.42684
 C2761 C 0.59938 0.80821 0.42514
 C2762 C 0.60543 0.78804 0.41778
 H2763 H 0.66559 0.69936 0.37906
 H2764 H 0.65429 0.73360 0.39418
 H2765 H 0.58860 0.71500 0.38777
 H2766 H 0.59976 0.68055 0.37296
 H2767 H 0.55623 0.76677 0.40987
 H2768 H 0.54547 0.80211 0.42287
 H2769 H 0.61163 0.81971 0.42896
 H2770 H 0.62221 0.78434 0.41631
 C2771 C 0.60480 0.18852 0.86945
 C2772 C 0.59471 0.20697 0.87697
 C2773 C 0.60672 0.22455 0.88353
 C2774 C 0.62907 0.22340 0.88267
 C2775 C 0.63917 0.20496 0.87522
 C2776 C 0.62715 0.18734 0.86845
 N2777 N 0.59596 0.24335 0.89093
 N2778 N 0.60620 0.25990 0.89655
 C2779 C 0.59600 0.27890 0.90412
 C2780 C 0.60873 0.29608 0.91023
 C2781 C 0.59952 0.31474 0.91818
 C2782 C 0.57729 0.31656 0.92018
 C2783 C 0.56444 0.29942 0.91368
 C2784 C 0.57372 0.28067 0.90575
 H2785 H 0.59513 0.17512 0.86452
 H2786 H 0.57749 0.20762 0.87761
 H2787 H 0.63875 0.23677 0.88763
 H2788 H 0.65639 0.20465 0.87435
 H2789 H 0.62589 0.29494 0.90893
 H2790 H 0.60982 0.32781 0.92268
 H2791 H 0.54729 0.30035 0.91515
 H2792 H 0.56355 0.26757 0.90108
 C2793 C 0.89045 0.69079 1.12989
 C2794 C 0.90041 0.70856 1.12097
 C2795 C 0.88838 0.72619 1.11454
 C2796 C 0.86609 0.72568 1.11665
 C2797 C 0.85610 0.70790 1.12552
 C2798 C 0.86821 0.69039 1.13248
 N2799 N 0.89915 0.74454 1.10639
 N2800 N 0.88908 0.76131 1.10103
 C2801 C 0.89958 0.77989 1.09311
 C2802 C 0.88717 0.79741 1.08712
 C2803 C 0.89676 0.81581 1.07924
 C2804 C 0.91902 0.81701 1.07721
 C2805 C 0.93152 0.79950 1.08349
 C2806 C 0.92187 0.78102 1.09134
 H2807 H 0.90015 0.67739 1.13486
 H2808 H 0.91757 0.70871 1.11934
 H2809 H 0.85642 0.73912 1.11176
 H2810 H 0.83897 0.70810 1.12750
 H2811 H 0.87000 0.79677 1.08856
 H2812 H 0.88675 0.82919 1.07487
 H2813 H 0.94869 0.79997 1.08198
 H2814 H 0.93179 0.76767 1.09594
 C2815 C 0.87159 0.20385 0.64806
 C2816 C 0.87942 0.22353 0.64134
 C2817 C 0.88173 0.22794 0.61956
 C2818 C 0.87585 0.21243 0.60443
 C2819 C 0.86794 0.19272 0.61114
 C2820 C 0.86587 0.18817 0.63305
 N2821 N 0.89018 0.24819 0.61333
 N2822 N 0.89327 0.25316 0.59387
 C2823 C 0.90176 0.27345 0.58780
 C2824 C 0.90460 0.27791 0.56609
 C2825 C 0.91261 0.29762 0.55960
 C2826 C 0.91796 0.31328 0.57480
 C2827 C 0.91525 0.30868 0.59662
 C2828 C 0.90721 0.28896 0.60308
 H2829 H 0.86991 0.20090 0.66503
 H2830 H 0.88380 0.23538 0.65314
 H2831 H 0.87749 0.21548 0.58749
 H2832 H 0.86386 0.18088 0.59923
 H2833 H 0.90054 0.26608 0.55416
 H2834 H 0.91476 0.30058 0.54269
 H2835 H 0.91896 0.32049 0.60869
 H2836 H 0.90514 0.28591 0.61998
 C2837 C 0.38568 0.69597 0.63856
 C2838 C 0.39595 0.71365 0.62975
 C2839 C 0.38414 0.73074 0.62160
 C2840 C 0.36178 0.72991 0.62230
 C2841 C 0.35148 0.71223 0.63106
 C2842 C 0.36331 0.69505 0.63933
 N2843 N 0.39516 0.74870 0.61280
 N2844 N 0.38525 0.76479 0.60535
 C2845 C 0.39595 0.78290 0.59651
 C2846 C 0.38370 0.79986 0.58881
 C2847 C 0.39347 0.81781 0.58005
 C2848 C 0.41579 0.81914 0.57879
 C2849 C 0.42810 0.80208 0.58663
 C2850 C 0.41828 0.78409 0.59540
 H2851 H 0.39524 0.68290 0.64455
 H2852 H 0.41318 0.71405 0.62927
 H2853 H 0.35225 0.74293 0.61615
 H2854 H 0.33425 0.71216 0.63168
 H2855 H 0.36649 0.79919 0.58966
 H2856 H 0.38352 0.83081 0.57453
 H2857 H 0.44531 0.80255 0.58574
 H2858 H 0.42810 0.77116 0.60124
 C2859 C 0.39202 0.18905 1.12951
 C2860 C 0.40145 0.20782 1.12218
 C2861 C 0.38886 0.22540 1.11669
 C2862 C 0.36660 0.22398 1.11847
 C2863 C 0.35715 0.20524 1.12577
 C2864 C 0.36976 0.18759 1.13145
 N2865 N 0.39898 0.24450 1.10945
 N2866 N 0.38825 0.26097 1.10441
 C2867 C 0.39796 0.28024 1.09713
 C2868 C 0.38484 0.29735 1.09151
 C2869 C 0.39364 0.31634 1.08409
 C2870 C 0.41583 0.31855 1.08217
 C2871 C 0.42904 0.30141 1.08806
 C2872 C 0.42018 0.28236 1.09545
 H2873 H 0.40212 0.17563 1.13352
 H2874 H 0.41862 0.20869 1.12081
 H2875 H 0.35650 0.23736 1.11436
 H2876 H 0.33999 0.20468 1.12735
 H2877 H 0.36771 0.29593 1.09285
 H2878 H 0.38307 0.32938 1.08002
 H2879 H 0.44617 0.30262 1.08660
 H2880 H 0.43065 0.26932 1.09972
 C2881 C 1.12516 1.10417 0.68333
 C2882 C 1.11717 1.09496 0.70200
 C2883 C 1.11182 1.10770 0.71958
 C2884 C 1.11419 1.12992 0.71816
 C2885 C 1.12214 1.13915 0.69950
 C2886 C 1.12789 1.12636 0.68194
 N2887 N 1.10447 1.09772 0.73878
 N2888 N 1.09986 1.10849 0.75541
 C2889 C 1.09272 1.09882 0.77483
 C2890 C 1.08746 1.11197 0.79210
 C2891 C 1.08035 1.10319 0.81129
 C2892 C 1.07841 1.08100 0.81355
 C2893 C 1.08393 1.06776 0.79624
 C2894 C 1.09099 1.07660 0.77699
 H2895 H 1.12927 1.09394 0.66998
 H2896 H 1.11536 1.07783 0.70287
 H2897 H 1.11018 1.14012 0.73155
 H2898 H 1.12436 1.15624 0.69903
 H2899 H 1.08886 1.12910 0.79066
 H2900 H 1.07654 1.11377 0.82445
 H2901 H 1.08244 1.05063 0.79749
 H2902 H 1.09502 1.06610 0.76383
 C2903 C 1.10454 0.63143 0.19081
 C2904 C 1.09558 0.62292 0.20935
 C2905 C 1.10822 0.61197 0.22405
 C2906 C 1.12996 0.60908 0.21976
 C2907 C 1.13896 0.61736 0.20115
 C2908 C 1.12651 0.62901 0.18638
 N2909 N 1.09873 0.60433 0.24337
 N2910 N 1.10984 0.59619 0.25829
 C2911 C 1.10058 0.58869 0.27776
 C2912 C 1.11406 0.58164 0.29407
 C2913 C 1.10565 0.57457 0.31345
 C2914 C 1.08349 0.57427 0.31679
 C2915 C 1.06997 0.58128 0.30029
 C2916 C 1.07843 0.58847 0.28095
 H2917 H 1.09392 0.63929 0.17971
 H2918 H 1.07873 0.62503 0.21237
 H2919 H 1.14010 0.60067 0.23094
 H2920 H 1.15597 0.61550 0.19911
 H2921 H 1.13115 0.58184 0.29182
 H2922 H 1.11652 0.56964 0.32594
 H2923 H 1.05285 0.58099 0.30226
 H2924 H 1.06769 0.59379 0.26851
 C2925 C 0.61354 1.13397 0.18909
 C2926 C 0.60378 1.12536 0.20721
 C2927 C 0.61603 1.11880 0.22469
 C2928 C 0.63831 1.12074 0.22378
 C2929 C 0.64808 1.12931 0.20569
 C2930 C 0.63581 1.13611 0.18817
 N2931 N 0.60555 1.11047 0.24321
 N2932 N 0.61594 1.10454 0.25963
 C2933 C 0.60582 1.09632 0.27839
 C2934 C 0.61856 1.09010 0.29562
 C2935 C 0.60935 1.08208 0.31424
 C2936 C 0.58711 1.08014 0.31596
 C2937 C 0.57430 1.08649 0.29865
 C2938 C 0.58357 1.09450 0.27998
 H2939 H 0.60369 1.13887 0.17576
 H2940 H 0.58661 1.12390 0.20768
 H2941 H 0.64815 1.11583 0.23710
 H2942 H 0.66523 1.13104 0.20560
 H2943 H 0.63571 1.09153 0.29461
 H2944 H 0.61962 1.07767 0.32741
 H2945 H 0.55714 1.08502 0.29945
 H2946 H 0.57339 1.09922 0.26685
 C2947 C 0.64948 0.62544 0.70838
 C2948 C 0.64246 0.61682 0.72769
 C2949 C 0.62069 0.61493 0.73193
 C2950 C 0.60588 0.62183 0.71657
 C2951 C 0.61288 0.63049 0.69722
 C2952 C 0.63477 0.63235 0.69289
 N2953 N 0.61413 0.60609 0.75196
 N2954 N 0.59462 0.60381 0.75693
 C2955 C 0.58819 0.59512 0.77708
 C2956 C 0.56646 0.59351 0.78167
 C2957 C 0.55965 0.58560 0.80138
 C2958 C 0.57453 0.57910 0.81687
 C2959 C 0.59637 0.58049 0.81211
 C2960 C 0.60315 0.58845 0.79240
 H2961 H 0.66644 0.62696 0.70567
 H2962 H 0.65402 0.61165 0.73945
 H2963 H 0.58894 0.62052 0.71948
 H2964 H 0.60118 0.63548 0.68552
 H2965 H 0.55477 0.59853 0.76998
 H2966 H 0.54272 0.58447 0.80449
 H2967 H 0.60821 0.57586 0.82381
 H2968 H 0.62006 0.58956 0.78924
 C2969 C 0.87566 0.89501 0.68141
 C2970 C 0.88345 0.90438 0.70011
 C2971 C 0.88823 0.89186 0.71795
 C2972 C 0.88555 0.86965 0.71673
 C2973 C 0.87779 0.86025 0.69802
 C2974 C 0.87253 0.87285 0.68023
 N2975 N 0.89535 0.90205 0.73717
 N2976 N 0.89951 0.89150 0.75401
 C2977 C 0.90648 0.90139 0.77343
 C2978 C 0.91170 0.88841 0.79079
 C2979 C 0.91889 0.89736 0.80990
 C2980 C 0.92093 0.91957 0.81201
 C2981 C 0.91531 0.93266 0.79468
 C2982 C 0.90820 0.92364 0.77548
 H2983 H 0.87198 0.90510 0.66787
 H2984 H 0.88553 0.92149 0.70081
 H2985 H 0.88914 0.85960 0.73031
 H2986 H 0.87530 0.84319 0.69770
 H2987 H 0.91030 0.87126 0.78945
 H2988 H 0.92279 0.88691 0.82309
 H2989 H 0.91684 0.94980 0.79585
 H2990 H 0.90417 0.93400 0.76227
 C2991 C 0.84981 0.37812 0.20380
 C2992 C 0.85753 0.38735 0.22257
 C2993 C 0.87885 0.38499 0.22835
 C2994 C 0.89252 0.37310 0.21517
 C2995 C 0.88483 0.36363 0.19645
 C2996 C 0.86328 0.36600 0.19030
 N2997 N 0.88604 0.39452 0.24786
 N2998 N 0.90553 0.39451 0.25340
 C2999 C 0.91239 0.40373 0.27319
 C3000 C 0.93418 0.40464 0.27770
 C3001 C 0.94133 0.41306 0.29711
 C3002 C 0.92673 0.42060 0.31245
 C3003 C 0.90484 0.41978 0.30778
 C3004 C 0.89773 0.41148 0.28832
 H3005 H 0.83297 0.37981 0.20059
 H3006 H 0.84678 0.39628 0.23277
 H3007 H 0.90914 0.37111 0.21931
 H3008 H 0.89615 0.35520 0.18650
 H3009 H 0.94563 0.39877 0.26615
 H3010 H 0.95830 0.41373 0.30008
 H3011 H 0.89316 0.42510 0.31936
 H3012 H 0.88078 0.41083 0.28526
 C3013 C 0.37098 0.89921 0.18553
 C3014 C 0.37956 0.90864 0.20385
 C3015 C 0.39127 0.89650 0.21839
 C3016 C 0.39487 0.87484 0.21414
 C3017 C 0.38653 0.86539 0.19578
 C3018 C 0.37412 0.87729 0.18118
 N3019 N 0.39890 0.90631 0.23759
 N3020 N 0.40738 0.89535 0.25242
 C3021 C 0.41493 0.90462 0.27188
 C3022 C 0.42208 0.89111 0.28809
 C3023 C 0.42917 0.89947 0.30749
 C3024 C 0.42944 0.92163 0.31093
 C3025 C 0.42236 0.93520 0.29452
 C3026 C 0.41510 0.92677 0.27515
 H3027 H 0.36240 0.90940 0.17456
 H3028 H 0.37687 0.92543 0.20685
 H3029 H 0.40387 0.86508 0.22520
 H3030 H 0.38894 0.84843 0.19387
 H3031 H 0.42190 0.87401 0.28576
 H3032 H 0.43412 0.88855 0.31992
 H3033 H 0.42261 0.95233 0.29659
 H3034 H 0.40970 0.93753 0.26276
 C3035 C 0.37375 0.34924 0.70949
 C3036 C 0.38248 0.35686 0.72854
 C3037 C 0.38360 0.37876 0.73247
 C3038 C 0.37585 0.39310 0.71707
 C3039 C 0.36704 0.38549 0.69801
 C3040 C 0.36594 0.36347 0.69403
 N3041 N 0.39245 0.38590 0.75229
 N3042 N 0.39457 0.40554 0.75684
 C3043 C 0.40324 0.41235 0.77688
 C3044 C 0.40570 0.43414 0.78082
 C3045 C 0.41383 0.44125 0.80037
 C3046 C 0.41961 0.42659 0.81634
 C3047 C 0.41717 0.40469 0.81229
 C3048 C 0.40909 0.39762 0.79274
 H3049 H 0.37281 0.33219 0.70700
 H3050 H 0.38831 0.34567 0.74034
 H3051 H 0.37654 0.41012 0.71978
 H3052 H 0.36126 0.39679 0.68630
 H3053 H 0.40128 0.44564 0.76871
 H3054 H 0.41575 0.45820 0.80294
 H3055 H 0.42114 0.39302 0.82439
 H3056 H 0.40724 0.38067 0.79013
 C3057 C 1.11037 0.86230 1.30759
 C3058 C 1.10097 0.87011 1.28894
 C3059 C 1.11327 0.87998 1.27328
 C3060 C 1.13522 0.88248 1.27671
 C3061 C 1.14471 0.87487 1.29549
 C3062 C 1.13254 0.86426 1.31122
 N3063 N 1.10308 0.88713 1.25406
 N3064 N 1.11350 0.89458 1.23832
 C3065 C 1.10333 0.90173 1.21909
 C3066 C 1.11601 0.90890 1.20223
 C3067 C 1.10671 0.91627 1.18334
 C3068 C 1.08442 0.91675 1.18098
 C3069 C 1.07168 0.90925 1.19785
 C3070 C 1.08104 0.90180 1.21676
 H3071 H 1.09993 0.85534 1.31940
 H3072 H 1.08397 0.86836 1.28663
 H3073 H 1.14510 0.89010 1.26481
 H3074 H 1.16179 0.87646 1.29699
 H3075 H 1.13318 0.90879 1.20375
 H3076 H 1.11701 0.92153 1.17053
 H3077 H 1.05449 0.90956 1.19660
 H3078 H 1.07088 0.89633 1.22958
 C3079 C 1.13819 0.38778 0.80790
 C3080 C 1.12891 0.39768 0.79019
 C3081 C 1.11774 0.38576 0.77504
 C3082 C 1.11560 0.36372 0.77800
 C3083 C 1.12469 0.35376 0.79577
 C3084 C 1.13641 0.36553 0.81105
 N3085 N 1.10901 0.39631 0.75671
 N3086 N 1.10010 0.38604 0.74162
 C3087 C 1.09144 0.39629 0.72311
 C3088 C 1.08327 0.38364 0.70664
 C3089 C 1.07499 0.39298 0.68817
 C3090 C 1.07458 0.41528 0.68588
 C3091 C 1.08273 0.42798 0.70253
 C3092 C 1.09112 0.41858 0.72098
 H3093 H 1.14614 0.39788 0.81941
 H3094 H 1.13049 0.41474 0.78821
 H3095 H 1.10709 0.35411 0.76645
 H3096 H 1.12331 0.33663 0.79672
 H3097 H 1.08353 0.36645 0.70805
 H3098 H 1.06924 0.38270 0.67552
 H3099 H 1.08244 0.44519 0.70136
 H3100 H 1.09729 0.42870 0.73355
 C3101 C 0.64941 0.87379 0.79386
 C3102 C 0.64220 0.88272 0.77474
 C3103 C 0.62040 0.88523 0.77094
 C3104 C 0.60575 0.87867 0.78658
 C3105 C 0.61295 0.86972 0.80574
 C3106 C 0.63488 0.86720 0.80962
 N3107 N 0.61365 0.89433 0.75107
 N3108 N 0.59410 0.89697 0.74636
 C3109 C 0.58755 0.90594 0.72635
 C3110 C 0.56579 0.90786 0.72194
 C3111 C 0.55887 0.91611 0.70237
 C3112 C 0.57368 0.92265 0.68686
 C3113 C 0.59554 0.92091 0.69143
 C3114 C 0.60243 0.91262 0.71098
 H3115 H 0.66638 0.87177 0.79620
 H3116 H 0.65363 0.88763 0.76278
 H3117 H 0.58879 0.88047 0.78401
 H3118 H 0.60137 0.86500 0.81765
 H3119 H 0.55416 0.90284 0.73366
 H3120 H 0.54194 0.91747 0.69941
 H3121 H 0.60732 0.92555 0.67971
 H3122 H 0.61935 0.91127 0.71399
 C3123 C 0.60407 0.37272 1.31629
 C3124 C 0.59452 0.38042 1.29767
 C3125 C 0.60694 0.38832 1.28101
 C3126 C 0.62913 0.38925 1.28347
 C3127 C 0.63877 0.38178 1.30216
 C3128 C 0.62647 0.37283 1.31878
 N3129 N 0.59672 0.39480 1.26160
 N3130 N 0.60737 0.39994 1.24512
 C3131 C 0.59750 0.40632 1.22552
 C3132 C 0.61051 0.41136 1.20815
 C3133 C 0.60159 0.41805 1.18888
 C3134 C 0.57938 0.41991 1.18664
 C3135 C 0.56626 0.41442 1.20398
 C3136 C 0.57525 0.40770 1.22331
 H3137 H 0.59369 0.36708 1.32886
 H3138 H 0.57735 0.37992 1.29610
 H3139 H 0.63910 0.39539 1.27079
 H3140 H 0.65598 0.38189 1.30279
 H3141 H 0.62766 0.41019 1.20962
 H3142 H 0.61209 0.42179 1.17569
 H3143 H 0.54911 0.41584 1.20274
 H3144 H 0.56486 0.40382 1.23654
 C3145 C 0.84712 1.12434 1.29128
 C3146 C 0.85450 1.11473 1.27250
 C3147 C 0.87635 1.11216 1.26894
 C3148 C 0.89085 1.11904 1.28459
 C3149 C 0.88349 1.12864 1.30339
 C3150 C 0.86155 1.13155 1.30687
 N3151 N 0.88337 1.10301 1.24915
 N3152 N 0.90301 1.10081 1.24461
 C3153 C 0.91000 1.09205 1.22463
 C3154 C 0.93185 1.09052 1.22054
 C3155 C 0.93920 1.08265 1.20096
 C3156 C 0.92474 1.07612 1.18510
 C3157 C 0.90278 1.07748 1.18934
 C3158 C 0.89546 1.08539 1.20892
 H3159 H 0.83015 1.12660 1.29335
 H3160 H 0.84318 1.10955 1.26053
 H3161 H 0.90783 1.11715 1.28225
 H3162 H 0.89498 1.13375 1.31523
 H3163 H 0.94321 1.09558 1.23253
 H3164 H 0.95620 1.08156 1.19825
 H3165 H 0.89125 1.07285 1.17735
 H3166 H 0.87847 1.08648 1.21167
 C3167 C 0.86295 0.60755 0.81090
 C3168 C 0.87038 0.59787 0.79216
 C3169 C 0.87785 0.61025 0.77518
 C3170 C 0.87803 0.63257 0.77725
 C3171 C 0.87067 0.64227 0.79600
 C3172 C 0.86294 0.62988 0.81300
 N3173 N 0.88508 0.59984 0.75607
 N3174 N 0.89140 0.61031 0.73987
 C3175 C 0.89877 0.60024 0.72066
 C3176 C 0.90553 0.61309 0.70376
 C3177 C 0.91325 0.60395 0.68491
 C3178 C 0.91438 0.58167 0.68261
 C3179 C 0.90726 0.56875 0.69950
 C3180 C 0.89955 0.57795 0.71841
 H3181 H 0.85732 0.59757 0.82380
 H3182 H 0.87023 0.58067 0.79082
 H3183 H 0.88373 0.64251 0.76436
 H3184 H 0.87063 0.65949 0.79704
 H3185 H 0.90490 0.63027 0.70525
 H3186 H 0.91825 0.61433 0.67207
 H3187 H 0.90807 0.55156 0.69824
 H3188 H 0.89438 0.56768 0.73127
 C3189 C 0.36682 1.10962 0.81006
 C3190 C 0.37415 1.09970 0.79140
 C3191 C 0.38066 1.11190 0.77390
 C3192 C 0.37999 1.13425 0.77534
 C3193 C 0.37274 1.14417 0.79399
 C3194 C 0.36599 1.13197 0.81153
 N3195 N 0.38780 1.10132 0.75486
 N3196 N 0.39316 1.11172 0.73828
 C3197 C 0.40049 1.10168 0.71907
 C3198 C 0.40627 1.11456 0.70185
 C3199 C 0.41405 1.10551 0.68301
 C3200 C 0.41623 1.08329 0.68105
 C3201 C 0.41003 1.07029 0.69823
 C3202 C 0.40226 1.07941 0.71715
 H3203 H 0.36188 1.09982 0.82339
 H3204 H 0.37465 1.08248 0.79053
 H3205 H 0.38492 1.14406 0.76203
 H3206 H 0.37198 1.16141 0.79453
 H3207 H 0.40486 1.13172 0.70310
 H3208 H 0.41834 1.11592 0.66991
 H3209 H 0.41165 1.05314 0.69719
 H3210 H 0.39785 1.06912 0.73028
 C3211 C 0.39100 0.63089 1.31777
 C3212 C 0.40100 0.62271 1.29953
 C3213 C 0.38895 0.61646 1.28180
 C3214 C 0.36663 0.61809 1.28266
 C3215 C 0.35661 0.62620 1.30090
 C3216 C 0.36870 0.63287 1.31858
 N3217 N 0.39967 0.60885 1.26303
 N3218 N 0.38946 0.60379 1.24622
 C3219 C 0.39968 0.59624 1.22719
 C3220 C 0.38698 0.59073 1.20971
 C3221 C 0.39622 0.58300 1.19094
 C3222 C 0.41843 0.58063 1.18931
 C3223 C 0.43124 0.58650 1.20678
 C3224 C 0.42193 0.59421 1.22564
 H3225 H 0.40070 0.63572 1.33124
 H3226 H 0.41820 0.62146 1.29910
 H3227 H 0.35693 0.61335 1.26917
 H3228 H 0.33944 0.62780 1.30094
 H3229 H 0.36984 0.59237 1.21068
 H3230 H 0.38596 0.57897 1.17762
 H3231 H 0.44838 0.58473 1.20600
 H3232 H 0.43207 0.59843 1.23897
 C3233 C 1.15440 1.28844 0.86760
 C3234 C 1.14689 1.26947 0.87638
 C3235 C 1.12517 1.26680 0.88042
 C3236 C 1.11087 1.28329 0.87528
 C3237 C 1.11838 1.30231 0.86643
 C3238 C 1.14026 1.30513 0.86266
 N3239 N 1.11818 1.24726 0.88983
 N3240 N 1.09874 1.24368 0.89424
 C3241 C 1.09202 1.22402 0.90364
 C3242 C 1.07030 1.22067 0.90719
 C3243 C 1.06318 1.20143 0.91580
 C3244 C 1.07775 1.18521 0.92108
 C3245 C 1.09960 1.18876 0.91784
 C3246 C 1.10669 1.20798 0.90916
 H3247 H 1.17131 1.29005 0.86460
 H3248 H 1.15803 1.25684 0.88017
 H3249 H 1.09399 1.28157 0.87825
 H3250 H 1.10715 1.31497 0.86298
 H3251 H 1.05885 1.23293 0.90310
 H3252 H 1.04627 1.19922 0.91833
 H3253 H 1.11116 1.17647 0.92152
 H3254 H 1.12358 1.21019 0.90659
 C3255 C 1.11009 0.80826 0.37066
 C3256 C 1.10071 0.78998 0.37916
 C3257 C 1.11331 0.77276 0.38565
 C3258 C 1.13559 0.77416 0.38385
 C3259 C 1.14500 0.79246 0.37537
 C3260 C 1.13234 0.80966 0.36850
 N3261 N 1.10311 0.75399 0.39365
 N3262 N 1.11363 0.73768 0.39957
 C3263 C 1.10354 0.71877 0.40736
 C3264 C 1.11630 0.70175 0.41401
 C3265 C 1.10708 0.68304 0.42167
 C3266 C 1.08480 0.68100 0.42280
 C3267 C 1.07198 0.69808 0.41596
 C3268 C 1.08125 0.71685 0.40834
 H3269 H 1.09993 0.82135 0.36577
 H3270 H 1.08354 0.78914 0.38053
 H3271 H 1.14569 0.76105 0.38874
 H3272 H 1.16215 0.79296 0.37369
 H3273 H 1.13348 0.70298 0.41321
 H3274 H 1.11738 0.67004 0.42649
 H3275 H 1.05479 0.69704 0.41680
 H3276 H 1.07104 0.72980 0.40326
 C3277 C 0.60442 1.31429 0.37352
 C3278 C 0.59517 1.29561 0.38125
 C3279 C 0.60785 1.27928 0.38946
 C3280 C 0.62999 1.28207 0.39054
 C3281 C 0.63931 1.30077 0.38298
 C3282 C 0.62676 1.31714 0.37388
 N3283 N 0.59799 1.25985 0.39610
 N3284 N 0.60895 1.24390 0.40215
 C3285 C 0.59948 1.22425 0.40864
 C3286 C 0.61283 1.20754 0.41490
 C3287 C 0.60426 1.18816 0.42149
 C3288 C 0.58208 1.18516 0.42197
 C3289 C 0.56867 1.20188 0.41539
 C3290 C 0.57730 1.22131 0.40880
 H3291 H 0.59383 1.32662 0.36773
 H3292 H 0.57804 1.29376 0.38061
 H3293 H 0.64016 1.26964 0.39685
 H3294 H 0.65650 1.30162 0.38322
 H3295 H 0.62994 1.20958 0.41470
 H3296 H 0.61500 1.17545 0.42611
 H3297 H 0.55153 1.20006 0.41575
 H3298 H 0.56667 1.23403 0.40397
 C3299 C 0.60743 0.80965 0.86746
 C3300 C 0.59774 0.79149 0.87595
 C3301 C 0.61012 0.77462 0.88371
 C3302 C 0.63244 0.77610 0.88286
 C3303 C 0.64213 0.79422 0.87441
 C3304 C 0.62975 0.81123 0.86665
 N3305 N 0.59977 0.75621 0.89232
 N3306 N 0.61031 0.74037 0.89938
 C3307 C 0.60037 0.72179 0.90806
 C3308 C 0.61328 0.70502 0.91505
 C3309 C 0.60424 0.68657 0.92352
 C3310 C 0.58200 0.68459 0.92522
 C3311 C 0.56903 0.70150 0.91818
 C3312 C 0.57813 0.71997 0.90968
 H3313 H 0.59748 0.82257 0.86177
 H3314 H 0.58053 0.79057 0.87654
 H3315 H 0.64239 0.76325 0.88867
 H3316 H 0.65935 0.79481 0.87370
 H3317 H 0.63044 0.70621 0.91380
 H3318 H 0.61467 0.67371 0.92843
 H3319 H 0.55187 0.70052 0.91946
 H3320 H 0.56781 0.73277 0.90442
 C3321 C 0.87083 1.29101 1.15158
 C3322 C 0.87981 1.27189 1.14444
 C3323 C 0.88327 1.26837 1.12263
 C3324 C 0.87749 1.28427 1.10790
 C3325 C 0.86849 1.30344 1.11503
 C3326 C 0.86515 1.30707 1.13698
 N3327 N 0.89257 1.24856 1.11596
 N3328 N 0.89608 1.24414 1.09640
 C3329 C 0.90527 1.22423 1.08985
 C3330 C 0.90778 1.22008 1.06802
 C3331 C 0.91612 1.20059 1.06104
 C3332 C 0.92218 1.18487 1.07586
 C3333 C 0.91998 1.18922 1.09782
 C3334 C 0.91156 1.20870 1.10477
 H3335 H 0.86813 1.29315 1.16855
 H3336 H 0.88408 1.25973 1.15593
 H3337 H 0.88000 1.28193 1.09093
 H3338 H 0.86444 1.31557 1.10342
 H3339 H 0.90309 1.23193 1.05636
 H3340 H 0.91786 1.19781 1.04404
 H3341 H 0.92429 1.17735 1.10960
 H3342 H 0.90979 1.21152 1.12175
 C3343 C 0.85242 0.79720 0.62143
 C3344 C 0.85902 0.77755 0.61327
 C3345 C 0.88067 0.77308 0.61061
 C3346 C 0.89582 0.78849 0.61645
 C3347 C 0.88923 0.80819 0.62467
 C3348 C 0.86744 0.81281 0.62710
 N3349 N 0.88674 0.75281 0.60196
 N3350 N 0.90609 0.74758 0.59888
 C3351 C 0.91191 0.72720 0.59028
 C3352 C 0.93350 0.72211 0.58812
 C3353 C 0.93972 0.70214 0.58036
 C3354 C 0.92437 0.68691 0.57457
 C3355 C 0.90268 0.69220 0.57641
 C3356 C 0.89649 0.71216 0.58424
 H3357 H 0.83554 0.80014 0.62345
 H3358 H 0.84722 0.76576 0.60895
 H3359 H 0.91267 0.78537 0.61456
 H3360 H 0.90113 0.81996 0.62876
 H3361 H 0.94553 0.73359 0.59263
 H3362 H 0.95654 0.69860 0.57887
 H3363 H 0.89051 0.68071 0.57229
 H3364 H 0.87968 0.71572 0.58575
 C3365 C 0.38946 1.30936 0.63445
 C3366 C 0.39916 1.29157 0.62515
 C3367 C 0.38697 1.27615 0.61478
 C3368 C 0.36486 1.27905 0.61314
 C3369 C 0.35508 1.29695 0.62225
 C3370 C 0.36713 1.31229 0.63353
 N3371 N 0.39737 1.25750 0.60658
 N3372 N 0.38701 1.24198 0.59868
 C3373 C 0.39730 1.22315 0.59080
 C3374 C 0.38472 1.20642 0.58326
 C3375 C 0.39414 1.18768 0.57570
 C3376 C 0.41644 1.18538 0.57545
 C3377 C 0.42907 1.20221 0.58310
 C3378 C 0.41960 1.22095 0.59072
 H3379 H 0.39974 1.32102 0.64186
 H3380 H 0.41627 1.28966 0.62625
 H3381 H 0.35507 1.26731 0.60516
 H3382 H 0.33790 1.29790 0.62139
 H3383 H 0.36753 1.20786 0.58338
 H3384 H 0.38394 1.17488 0.57030
 H3385 H 0.44627 1.20099 0.58292
 H3386 H 0.42967 1.23369 0.59647
 C3387 C 0.39581 0.81754 1.12422
 C3388 C 0.40523 0.79843 1.11759
 C3389 C 0.39279 0.78026 1.11438
 C3390 C 0.37063 0.78154 1.11738
 C3391 C 0.36119 0.80065 1.12398
 C3392 C 0.37372 0.81878 1.12774
 N3393 N 0.40304 0.76069 1.10843
 N3394 N 0.39258 0.74356 1.10579
 C3395 C 0.40248 0.72384 1.09988
 C3396 C 0.38952 0.70626 1.09575
 C3397 C 0.39844 0.68695 1.08915
 C3398 C 0.42060 0.68486 1.08668
 C3399 C 0.43371 0.70234 1.09145
 C3400 C 0.42471 0.72176 1.09792
 H3401 H 0.40583 0.83133 1.12674
 H3402 H 0.42229 0.79770 1.11521
 H3403 H 0.36065 0.76771 1.11496
 H3404 H 0.34417 0.80107 1.12678
 H3405 H 0.37240 0.70763 1.09735
 H3406 H 0.38800 0.67364 1.08586
 H3407 H 0.45081 0.70115 1.08957
 H3408 H 0.43507 0.73514 1.10114
 C3409 C 0.86930 0.68851 0.89209
 C3410 C 0.87800 0.70687 0.90120
 C3411 C 0.88480 0.72366 0.88824
 C3412 C 0.88327 0.72167 0.86589
 C3413 C 0.87463 0.70326 0.85675
 C3414 C 0.86729 0.68660 0.86978
 N3415 N 0.89269 0.74266 0.89817
 N3416 N 0.89823 0.75885 0.88732
 C3417 C 0.90587 0.77801 0.89711
 C3418 C 0.91185 0.79497 0.88398
 C3419 C 0.91939 0.81392 0.89288
 C3420 C 0.92111 0.81625 0.91519
 C3421 C 0.91489 0.79927 0.92839
 C3422 C 0.90737 0.78027 0.91943
 H3423 H 0.86403 0.67582 0.90252
 H3424 H 0.87918 0.70816 0.91842
 H3425 H 0.88845 0.73442 0.85552
 H3426 H 0.87311 0.70232 0.83953
 H3427 H 0.91063 0.79348 0.86677
 H3428 H 0.92370 0.82684 0.88230
 H3429 H 0.91619 0.80055 0.94561
 H3430 H 0.90280 0.76737 0.92992
 C3431 C 0.87463 0.20685 0.34494
 C3432 C 0.88421 0.22561 0.35212
 C3433 C 0.88688 0.22936 0.37400
 C3434 C 0.88006 0.21395 0.38875
 C3435 C 0.87048 0.19518 0.38160
 C3436 C 0.86754 0.19148 0.35962
 N3437 N 0.89609 0.24907 0.38081
 N3438 N 0.89849 0.25371 0.40048
 C3439 C 0.90730 0.27361 0.40727
 C3440 C 0.90893 0.27786 0.42917
 C3441 C 0.91678 0.29741 0.43635
 C3442 C 0.92318 0.31307 0.42166
 C3443 C 0.92178 0.30865 0.39966
 C3444 C 0.91388 0.28911 0.39251
 H3445 H 0.87233 0.20459 0.32793
 H3446 H 0.88934 0.23740 0.34062
 H3447 H 0.88201 0.21646 0.40576
 H3448 H 0.86545 0.18351 0.39326
 H3449 H 0.90395 0.26603 0.44069
 H3450 H 0.91792 0.30028 0.45339
 H3451 H 0.92633 0.32050 0.38797
 H3452 H 0.91272 0.28622 0.37549
 C3453 C 0.35040 0.70668 0.38131
 C3454 C 0.35822 0.72589 0.38929
 C3455 C 0.37991 0.73046 0.38832
 C3456 C 0.39391 0.71553 0.37924
 C3457 C 0.38616 0.69630 0.37109
 C3458 C 0.36419 0.69144 0.37194
 N3459 N 0.38715 0.75051 0.39639
 N3460 N 0.40674 0.75556 0.39696
 C3461 C 0.41350 0.77588 0.40483
 C3462 C 0.43529 0.78017 0.40641
 C3463 C 0.44232 0.79992 0.41393
 C3464 C 0.42757 0.81577 0.41993
 C3465 C 0.40570 0.81140 0.41825
 C3466 C 0.39872 0.79164 0.41083
 H3467 H 0.33334 0.70443 0.38169
 H3468 H 0.34725 0.73742 0.39608
 H3469 H 0.41082 0.71871 0.37843
 H3470 H 0.39766 0.68504 0.36484
 H3471 H 0.44684 0.76814 0.40185
 H3472 H 0.45927 0.80273 0.41527
 H3473 H 0.39394 0.82338 0.42236
 H3474 H 0.38177 0.78877 0.40962
 C3475 C 0.39083 0.19399 0.86322
 C3476 C 0.40029 0.21247 0.87132
 C3477 C 0.38804 0.22790 0.88178
 C3478 C 0.36610 0.22460 0.88422
 C3479 C 0.35659 0.20611 0.87631
 C3480 C 0.36873 0.19035 0.86558
 N3481 N 0.39815 0.24676 0.88977
 N3482 N 0.38746 0.26187 0.89817
 C3483 C 0.39714 0.28083 0.90637
 C3484 C 0.38399 0.29716 0.91399
 C3485 C 0.39276 0.31592 0.92212
 C3486 C 0.41497 0.31862 0.92294
 C3487 C 0.42818 0.30214 0.91528
 C3488 C 0.41935 0.28339 0.90703
 H3489 H 0.40119 0.18228 0.85589
 H3490 H 0.41728 0.21475 0.86949
 H3491 H 0.35621 0.23637 0.89213
 H3492 H 0.33950 0.20483 0.87790
 H3493 H 0.36684 0.29539 0.91349
 H3494 H 0.38211 0.32843 0.92750
 H3495 H 0.44534 0.30362 0.91590
 H3496 H 0.42985 0.27092 0.90130
 C3497 C 1.11878 0.70177 1.14761
 C3498 C 1.11081 0.72112 1.14007
 C3499 C 1.11275 0.72655 1.11856
 C3500 C 1.12308 0.71245 1.10452
 C3501 C 1.13130 0.69310 1.11202
 C3502 C 1.12914 0.68723 1.13373
 N3503 N 1.10421 0.74652 1.11158
 N3504 N 1.10387 0.75209 1.09203
 C3505 C 1.09538 0.77229 1.08554
 C3506 C 1.09411 0.77704 1.06374
 C3507 C 1.08607 0.79669 1.05695
 C3508 C 1.07924 0.81202 1.07193
 C3509 C 1.08050 0.80715 1.09382
 C3510 C 1.08844 0.78747 1.10058
 H3511 H 1.11753 0.69885 1.16459
 H3512 H 1.10313 0.73201 1.15111
 H3513 H 1.12474 0.71633 1.08775
 H3514 H 1.13851 0.68246 1.10046
 H3515 H 1.09935 0.76546 1.05199
 H3516 H 1.08506 0.79984 1.03997
 H3517 H 1.07572 0.81871 1.10578
 H3518 H 1.08934 0.78423 1.11754
 C3519 C 1.14622 0.19946 0.61839
 C3520 C 1.13893 0.21899 0.61061
 C3521 C 1.11753 0.22471 0.61252
 C3522 C 1.10334 0.21065 0.62247
 C3523 C 1.11059 0.19112 0.63046
 C3524 C 1.13222 0.18504 0.62854
 N3525 N 1.11078 0.24495 0.60440
 N3526 N 1.09135 0.25078 0.60422
 C3527 C 1.08497 0.27121 0.59622
 C3528 C 1.06326 0.27608 0.59482
 C3529 C 1.05656 0.29590 0.58711
 C3530 C 1.07153 0.31129 0.58079
 C3531 C 1.09334 0.30634 0.58231
 C3532 C 1.10000 0.28648 0.58989
 H3533 H 1.16311 0.19629 0.61718
 H3534 H 1.15007 0.22982 0.60317
 H3535 H 1.08665 0.21471 0.62405
 H3536 H 1.09889 0.18057 0.63737
 H3537 H 1.05151 0.26443 0.59961
 H3538 H 1.03965 0.29908 0.58589
 H3539 H 1.10530 0.31794 0.57795
 H3540 H 1.11689 0.28317 0.59096
 C3541 C 0.60747 0.69024 0.63567
 C3542 C 0.59782 0.70877 0.62785
 C3543 C 0.61022 0.72556 0.62012
 C3544 C 0.63252 0.72350 0.62007
 C3545 C 0.64219 0.70494 0.62778
 C3546 C 0.62978 0.68813 0.63577
 N3547 N 0.59984 0.74446 0.61248
 N3548 N 0.61032 0.76063 0.60627
 C3549 C 0.60031 0.77964 0.59848
 C3550 C 0.61317 0.79673 0.59242
 C3551 C 0.60411 0.81542 0.58441
 C3552 C 0.58190 0.81737 0.58219
 C3553 C 0.56894 0.80026 0.58854
 C3554 C 0.57806 0.78152 0.59661
 H3555 H 0.59748 0.67748 0.64150
 H3556 H 0.58062 0.71010 0.62791
 H3557 H 0.64249 0.73624 0.61417
 H3558 H 0.65941 0.70389 0.62787
 H3559 H 0.63031 0.79553 0.59390
 H3560 H 0.61453 0.82843 0.58006
 H3561 H 0.55180 0.80122 0.58689
 H3562 H 0.56777 0.76850 0.60119
 C3563 C 0.65283 0.20853 1.12360
 C3564 C 0.64466 0.22720 1.11469
 C3565 C 0.62287 0.23145 1.11528
 C3566 C 0.60914 0.21682 1.12506
 C3567 C 0.61725 0.19813 1.13415
 C3568 C 0.63931 0.19352 1.13352
 N3569 N 0.61524 0.25086 1.10605
 N3570 N 0.59554 0.25551 1.10498
 C3571 C 0.58836 0.27520 1.09594
 C3572 C 0.56649 0.27921 1.09450
 C3573 C 0.55904 0.29851 1.08620
 C3574 C 0.57343 0.31418 1.07926
 C3575 C 0.59540 0.31001 1.08057
 C3576 C 0.60281 0.29070 1.08881
 H3577 H 0.66994 0.20653 1.12340
 H3578 H 0.65542 0.23852 1.10741
 H3579 H 0.59216 0.21977 1.12563
 H3580 H 0.60596 0.18703 1.14087
 H3581 H 0.55520 0.26738 1.09989
 H3582 H 0.54203 0.30116 1.08516
 H3583 H 0.60689 0.32187 1.07569
 H3584 H 0.61981 0.28803 1.08983
 C3585 C 1.29388 1.15218 0.87429
 C3586 C 1.27475 1.14490 0.88297
 C3587 C 1.27111 1.12307 0.88539
 C3588 C 1.28695 1.10847 0.87914
 C3589 C 1.30611 1.11573 0.87046
 C3590 C 1.30976 1.13767 0.86788
 N3591 N 1.25113 1.11621 0.89394
 N3592 N 1.24658 1.09661 0.89629
 C3593 C 1.22645 1.08987 0.90461
 C3594 C 1.22231 1.06806 0.90638
 C3595 C 1.20265 1.06097 0.91399
 C3596 C 1.18678 1.07565 0.92001
 C3597 C 1.19106 1.09756 0.91838
 C3598 C 1.21070 1.10463 0.91074
 H3599 H 1.29609 1.16916 0.87224
 H3600 H 1.26262 1.15629 0.88766
 H3601 H 1.28452 1.09150 0.88090
 H3602 H 1.31814 1.10419 0.86590
 H3603 H 1.23434 1.05654 0.90174
 H3604 H 1.19990 1.04400 0.91529
 H3605 H 1.17905 1.10924 0.92263
 H3606 H 1.21350 1.12159 0.90947
 C3607 C 1.29116 0.65021 0.37565
 C3608 C 1.27215 0.64255 0.38421
 C3609 C 1.26949 0.62078 0.38796
 C3610 C 1.28606 0.60657 0.38278
 C3611 C 1.30514 0.61421 0.37417
 C3612 C 1.30794 0.63615 0.37069
 N3613 N 1.24988 0.61368 0.39713
 N3614 N 1.24618 0.59417 0.40114
 C3615 C 1.22641 0.58743 0.41032
 C3616 C 1.22280 0.56566 0.41331
 C3617 C 1.20344 0.55857 0.42168
 C3618 C 1.18738 0.57321 0.42730
 C3619 C 1.19120 0.59509 0.42462
 C3620 C 1.21052 0.60216 0.41617
 H3621 H 1.29271 0.66715 0.37284
 H3622 H 1.25944 0.65363 0.38803
 H3623 H 1.28435 0.58964 0.38553
 H3624 H 1.31785 0.60305 0.37066
 H3625 H 1.23494 0.55417 0.40895
 H3626 H 1.20101 0.54163 0.42377
 H3627 H 1.17903 0.60672 0.42856
 H3628 H 1.21293 0.61909 0.41403
 C3629 C 0.79267 1.15354 0.37301
 C3630 C 0.77415 1.14662 0.38320
 C3631 C 0.77079 1.12492 0.38684
 C3632 C 0.78626 1.11009 0.38020
 C3633 C 0.80479 1.11698 0.36997
 C3634 C 0.80819 1.13879 0.36625
 N3635 N 0.75140 1.11840 0.39690
 N3636 N 0.74731 1.09893 0.40075
 C3637 C 0.72770 1.09239 0.41035
 C3638 C 0.72402 1.07064 0.41340
 C3639 C 0.70462 1.06362 0.42170
 C3640 C 0.68854 1.07830 0.42714
 C3641 C 0.69247 1.10018 0.42454
 C3642 C 0.71187 1.10719 0.41618
 H3643 H 0.79470 1.17041 0.37010
 H3644 H 0.76230 1.15819 0.38814
 H3645 H 0.78401 1.09321 0.38284
 H3646 H 0.81656 1.10528 0.36515
 H3647 H 0.73611 1.05910 0.40903
 H3648 H 0.70214 1.04668 0.42377
 H3649 H 0.68030 1.11185 0.42837
 H3650 H 0.71434 1.12410 0.41397
 C3651 C 0.79137 0.64973 0.87673
 C3652 C 0.77227 0.64274 0.88570
 C3653 C 0.76824 0.62097 0.88793
 C3654 C 0.78358 0.60612 0.88103
 C3655 C 0.80271 0.61309 0.87202
 C3656 C 0.80682 0.63499 0.86983
 N3657 N 0.74843 0.61444 0.89711
 N3658 N 0.74368 0.59494 0.89977
 C3659 C 0.72372 0.58858 0.90877
 C3660 C 0.71932 0.56686 0.91086
 C3661 C 0.69976 0.56013 0.91905
 C3662 C 0.68425 0.57510 0.92533
 C3663 C 0.68883 0.59693 0.92346
 C3664 C 0.70838 0.60363 0.91524
 H3665 H 0.79393 0.66669 0.87495
 H3666 H 0.76052 0.65432 0.89086
 H3667 H 0.78081 0.58918 0.88260
 H3668 H 0.81440 0.60138 0.86702
 H3669 H 0.73103 0.55512 0.90600
 H3670 H 0.69678 0.54322 0.92054
 H3671 H 0.67710 0.60882 0.92792
 H3672 H 0.71139 0.62053 0.91375
 C3673 C 1.29814 0.87778 1.14515
 C3674 C 1.27841 0.88544 1.13831
 C3675 C 1.27400 0.88746 1.11651
 C3676 C 1.28955 0.88144 1.10146
 C3677 C 1.30933 0.87369 1.10830
 C3678 C 1.31388 0.87196 1.13023
 N3679 N 1.25368 0.89573 1.11021
 N3680 N 1.24860 0.89862 1.09074
 C3681 C 1.22817 0.90690 1.08476
 C3682 C 1.22343 0.90945 1.06308
 C3683 C 1.20350 0.91713 1.05672
 C3684 C 1.18794 0.92243 1.07203
 C3685 C 1.19283 0.92008 1.09383
 C3686 C 1.21276 0.91237 1.10016
 H3687 H 1.30106 0.87627 1.16215
 H3688 H 1.26651 0.88991 1.15004
 H3689 H 1.28647 0.88283 1.08450
 H3690 H 1.32121 0.86941 1.09648
 H3691 H 1.23519 0.90538 1.05107
 H3692 H 1.20028 0.91902 1.03982
 H3693 H 1.18109 0.92376 1.10597
 H3694 H 1.21602 0.91053 1.11704
 C3695 C 1.29055 0.36862 0.65544
 C3696 C 1.27123 0.37731 0.64858
 C3697 C 1.26766 0.38128 0.62689
 C3698 C 1.28369 0.37630 0.61198
 C3699 C 1.30305 0.36759 0.61882
 C3700 C 1.30673 0.36375 0.64065
 N3701 N 1.24769 0.39033 0.62051
 N3702 N 1.24328 0.39429 0.60106
 C3703 C 1.22323 0.40324 0.59474
 C3704 C 1.21907 0.40610 0.57298
 C3705 C 1.19944 0.41416 0.56621
 C3706 C 1.18361 0.41960 0.58117
 C3707 C 1.18796 0.41709 0.60307
 C3708 C 1.20759 0.40893 0.60982
 H3709 H 1.29278 0.36555 0.67232
 H3710 H 1.25897 0.38097 0.66021
 H3711 H 1.28131 0.37924 0.59510
 H3712 H 1.31529 0.36422 0.60708
 H3713 H 1.23102 0.40187 0.56122
 H3714 H 1.19663 0.41616 0.54925
 H3715 H 1.17600 0.42095 0.61494
 H3716 H 1.21043 0.40689 0.62676
 C3717 C 0.81303 0.87423 0.60185
 C3718 C 0.79435 0.88264 0.59308
 C3719 C 0.77811 0.89025 0.60639
 C3720 C 0.78090 0.88974 0.62868
 C3721 C 0.79958 0.88142 0.63746
 C3722 C 0.81577 0.87341 0.62414
 N3723 N 0.75880 0.89796 0.59699
 N3724 N 0.74315 0.90406 0.60841
 C3725 C 0.72360 0.91152 0.59934
 C3726 C 0.70703 0.91738 0.61309
 C3727 C 0.68760 0.92443 0.60487
 C3728 C 0.68443 0.92580 0.58266
 C3729 C 0.70113 0.91992 0.56886
 C3730 C 0.72058 0.91284 0.57712
 H3731 H 0.82534 0.86835 0.59122
 H3732 H 0.79240 0.88300 0.57589
 H3733 H 0.76857 0.89552 0.63932
 H3734 H 0.80113 0.88073 0.65469
 H3735 H 0.70916 0.91633 0.63023
 H3736 H 0.67493 0.92852 0.61590
 H3737 H 0.69922 0.92102 0.55169
 H3738 H 0.73320 0.90841 0.56618
 C3739 C 0.81006 0.38795 1.12787
 C3740 C 0.79182 0.39756 1.11943
 C3741 C 0.77408 0.38528 1.11404
 C3742 C 0.77498 0.36303 1.11660
 C3743 C 0.79326 0.35337 1.12500
 C3744 C 0.81086 0.36578 1.13105
 N3745 N 0.75522 0.39583 1.10659
 N3746 N 0.73828 0.38568 1.10213
 C3747 C 0.71926 0.39614 1.09501
 C3748 C 0.70164 0.38372 1.08959
 C3749 C 0.68285 0.39329 1.08246
 C3750 C 0.68133 0.41558 1.08066
 C3751 C 0.69895 0.42810 1.08643
 C3752 C 0.71781 0.41846 1.09349
 H3753 H 0.82349 0.39787 1.13213
 H3754 H 0.79137 0.41469 1.11742
 H3755 H 0.76147 0.35317 1.11250
 H3756 H 0.79337 0.33629 1.12743
 H3757 H 0.70250 0.36653 1.09084
 H3758 H 0.66943 0.38325 1.07846
 H3759 H 0.69826 0.44528 1.08508
 H3760 H 0.73123 0.42842 1.09768
 C3761 C 0.71289 1.15262 1.13047
 C3762 C 0.73189 1.14478 1.12192
 C3763 C 0.73465 1.12293 1.11854
 C3764 C 0.71821 1.10883 1.12409
 C3765 C 0.69915 1.11666 1.13268
 C3766 C 0.69624 1.13867 1.13579
 N3767 N 0.75420 1.11563 1.10929
 N3768 N 0.75799 1.09604 1.10560
 C3769 C 0.77765 1.08913 1.09624
 C3770 C 0.78136 1.06732 1.09348
 C3771 C 0.80057 1.06009 1.08476
 C3772 C 0.81637 1.07465 1.07856
 C3773 C 0.81249 1.09657 1.08110
 C3774 C 0.79333 1.10377 1.08990
 H3775 H 0.71123 1.16962 1.13298
 H3776 H 0.74449 1.15578 1.11780
 H3777 H 0.72001 1.09185 1.12161
 H3778 H 0.68654 1.10557 1.13647
 H3779 H 0.76938 1.05589 1.09823
 H3780 H 0.80305 1.04312 1.08278
 H3781 H 0.82448 1.10814 1.07673
 H3782 H 0.79084 1.12073 1.09186
 C3783 C 0.68781 0.60881 0.62997
 C3784 C 0.70590 0.59942 0.62092
 C3785 C 0.72265 0.61205 0.61351
 C3786 C 0.72089 0.63436 0.61482
 C3787 C 0.70274 0.64379 0.62380
 C3788 C 0.68611 0.63110 0.63171
 N3789 N 0.74137 0.60183 0.60522
 N3790 N 0.75753 0.61235 0.59905
 C3791 C 0.77641 0.60222 0.59105
 C3792 C 0.79350 0.61496 0.58471
 C3793 C 0.81226 0.60569 0.57703
 C3794 C 0.81427 0.58341 0.57552
 C3795 C 0.79709 0.57062 0.58197
 C3796 C 0.77830 0.57993 0.58965
 H3797 H 0.67513 0.59863 0.63565
 H3798 H 0.70701 0.58222 0.61993
 H3799 H 0.73362 0.64449 0.60918
 H3800 H 0.70198 0.66098 0.62510
 H3801 H 0.79230 0.63214 0.58583
 H3802 H 0.82532 0.61599 0.57255
 H3803 H 0.79810 0.55343 0.58082
 H3804 H 0.76529 0.56973 0.59447
 C3805 C 0.18709 1.10406 0.62419
 C3806 C 0.20572 1.09490 0.61603
 C3807 C 0.22302 1.10771 0.61041
 C3808 C 0.22146 1.12992 0.61293
 C3809 C 0.20287 1.13909 0.62108
 C3810 C 0.18549 1.12627 0.62686
 N3811 N 0.24203 1.09786 0.60241
 N3812 N 0.25815 1.10880 0.59694
 C3813 C 0.27736 1.09931 0.58907
 C3814 C 0.29410 1.11262 0.58301
 C3815 C 0.31313 1.10400 0.57532
 C3816 C 0.31575 1.08180 0.57358
 C3817 C 0.29894 1.06843 0.57977
 C3818 C 0.27985 1.07710 0.58742
 H3819 H 0.17388 1.09380 0.62828
 H3820 H 0.20672 1.07778 0.61412
 H3821 H 0.23464 1.14017 0.60877
 H3822 H 0.20224 1.15620 0.62325
 H3823 H 0.29238 1.12974 0.58431
 H3824 H 0.32592 1.11469 0.57100
 H3825 H 0.30047 1.05128 0.57845
 H3826 H 0.26710 1.06649 0.59203
 C3827 C 0.18458 0.60683 1.12807
 C3828 C 0.20343 0.59757 1.12056
 C3829 C 0.22113 0.61023 1.11598
 C3830 C 0.21965 0.63244 1.11861
 C3831 C 0.20080 0.64173 1.12608
 C3832 C 0.18313 0.62900 1.13111
 N3833 N 0.24046 0.60016 1.10907
 N3834 N 0.25720 0.61082 1.10510
 C3835 C 0.27670 0.60102 1.09833
 C3836 C 0.29402 0.61407 1.09347
 C3837 C 0.31323 0.60519 1.08652
 C3838 C 0.31546 0.58299 1.08435
 C3839 C 0.29815 0.56985 1.08958
 C3840 C 0.27887 0.57879 1.09646
 H3841 H 0.17114 0.59665 1.13158
 H3842 H 0.20432 0.58046 1.11852
 H3843 H 0.23313 0.64259 1.11517
 H3844 H 0.20024 0.65881 1.12851
 H3845 H 0.29259 0.63121 1.09498
 H3846 H 0.32639 0.61570 1.08293
 H3847 H 0.29940 0.55271 1.08793
 H3848 H 0.26569 0.56837 1.10019
 C3849 C 0.68968 0.86726 0.89160
 C3850 C 0.70820 0.87515 0.90115
 C3851 C 0.72554 0.88133 0.88857
 C3852 C 0.72414 0.87956 0.86621
 C3853 C 0.70565 0.87169 0.85665
 C3854 C 0.68821 0.86544 0.86923
 N3855 N 0.74433 0.88931 0.89879
 N3856 N 0.76050 0.89517 0.88806
 C3857 C 0.77946 0.90323 0.89783
 C3858 C 0.79625 0.90958 0.88466
 C3859 C 0.81496 0.91771 0.89350
 C3860 C 0.81721 0.91962 0.91579
 C3861 C 0.80038 0.91305 0.92904
 C3862 C 0.78161 0.90495 0.92014
 H3863 H 0.67643 0.86279 0.90170
 H3864 H 0.70905 0.87648 0.91839
 H3865 H 0.73733 0.88417 0.85611
 H3866 H 0.70514 0.87019 0.83941
 H3867 H 0.79481 0.90824 0.86746
 H3868 H 0.82777 0.92229 0.88289
 H3869 H 0.80161 0.91448 0.94625
 H3870 H 0.76882 0.90013 0.93065
 C3871 C 0.70347 0.35223 0.37458
 C3872 C 0.72334 0.35888 0.38203
 C3873 C 0.72787 0.38058 0.38424
 C3874 C 0.71223 0.39569 0.37876
 C3875 C 0.69231 0.38905 0.37128
 C3876 C 0.68768 0.36723 0.36919
 N3877 N 0.74836 0.38674 0.39215
 N3878 N 0.75368 0.40614 0.39458
 C3879 C 0.77422 0.41211 0.40258
 C3880 C 0.77917 0.43374 0.40449
 C3881 C 0.79909 0.44009 0.41215
 C3882 C 0.81443 0.42484 0.41809
 C3883 C 0.80937 0.40310 0.41622
 C3884 C 0.78946 0.39678 0.40852
 H3885 H 0.70050 0.33533 0.37286
 H3886 H 0.73528 0.34709 0.38612
 H3887 H 0.71534 0.41257 0.38037
 H3888 H 0.68041 0.40098 0.36749
 H3889 H 0.76755 0.44571 0.40004
 H3890 H 0.80242 0.45695 0.41364
 H3891 H 0.82094 0.39098 0.42040
 H3892 H 0.78604 0.37994 0.40716
 C3893 C 0.19210 0.86694 0.38882
 C3894 C 0.21066 0.87536 0.39780
 C3895 C 0.22757 0.88174 0.38477
 C3896 C 0.22561 0.87978 0.36245
 C3897 C 0.20701 0.87138 0.35342
 C3898 C 0.19007 0.86474 0.36652
 N3899 N 0.24648 0.88997 0.39463
 N3900 N 0.26259 0.89592 0.38384
 C3901 C 0.28154 0.90405 0.39373
 C3902 C 0.29846 0.91046 0.38073
 C3903 C 0.31717 0.91849 0.38977
 C3904 C 0.31932 0.92027 0.41210
 C3905 C 0.30232 0.91370 0.42515
 C3906 C 0.28358 0.90569 0.41607
 H3907 H 0.17924 0.86230 0.39935
 H3908 H 0.21190 0.87686 0.41501
 H3909 H 0.23846 0.88459 0.35201
 H3910 H 0.20603 0.86972 0.33622
 H3911 H 0.29716 0.90920 0.36352
 H3912 H 0.33006 0.92307 0.37927
 H3913 H 0.30340 0.91504 0.44238
 H3914 H 0.27072 0.90085 0.42648
 C3915 C 0.21210 0.34861 0.86964
 C3916 C 0.23074 0.35659 0.87873
 C3917 C 0.23286 0.37839 0.88275
 C3918 C 0.21609 0.39229 0.87744
 C3919 C 0.19738 0.38431 0.86834
 C3920 C 0.19515 0.36235 0.86446
 N3921 N 0.25217 0.38586 0.89228
 N3922 N 0.25553 0.40545 0.89622
 C3923 C 0.27501 0.41251 0.90577
 C3924 C 0.27837 0.43435 0.90866
 C3925 C 0.29744 0.44171 0.91749
 C3926 C 0.31343 0.42726 0.92370
 C3927 C 0.30990 0.40532 0.92102
 C3928 C 0.29088 0.39799 0.91212
 H3929 H 0.21101 0.33167 0.86652
 H3930 H 0.24360 0.34576 0.88266
 H3931 H 0.21738 0.40923 0.88043
 H3932 H 0.18452 0.39524 0.86468
 H3933 H 0.26624 0.44568 0.90390
 H3934 H 0.29966 0.45869 0.91955
 H3935 H 0.32204 0.39384 0.92540
 H3936 H 0.28868 0.38102 0.91005
   
