data_POSCAR
  _audit_creation_date              2014-09-24
  _audit_creation_method            'ToBaCCo'
  _symmetry_space_group_name_H-M    'P1'
  _symmetry_Int_Tables_number       1
  _symmetry_cell_setting            triclinic
  loop_
  _symmetry_equiv_pos_as_xyz
 x,y,z
_cell_length_a 106.7334
_cell_length_b 106.7564
_cell_length_c 107.9916
_cell_angle_alpha 89.953900
_cell_angle_beta 89.940500
_cell_angle_gamma 89.936300
loop_
  _atom_site_label
  _atom_site_type_symbol
  _atom_site_fract_x
  _atom_site_fract_y
  _atom_site_fract_z
N1 N 0.35499 0.31693 0.32679
 N2 N 0.35496 0.32572 0.31826
 C3 C 0.36457 0.32371 0.31040
 C4 C 0.37092 0.31312 0.31425
 C5 C 0.36461 0.30904 0.32466
 H6 H 0.36682 0.32950 0.30249
 H7 H 0.36687 0.30097 0.33029
 Cu8 Cu 0.34238 0.33894 0.31830
 Cu9 Cu 0.34266 0.31635 0.34004
 Cu10 Cu 0.31980 0.33943 0.34008
 N11 N 0.32930 0.35166 0.31829
 N12 N 0.32050 0.35178 0.32683
 C13 C 0.31273 0.36149 0.32471
 C14 C 0.31687 0.36776 0.31430
 C15 C 0.32740 0.36129 0.31044
 H16 H 0.30468 0.36384 0.33034
 H17 H 0.33321 0.36349 0.30252
 N18 N 0.32068 0.32612 0.35271
 N19 N 0.32939 0.31733 0.35268
 C20 C 0.32755 0.30970 0.36246
 C21 C 0.31720 0.31390 0.36891
 C22 C 0.31306 0.32431 0.36251
 H23 H 0.33331 0.30170 0.36477
 H24 H 0.30512 0.33013 0.36486
 H25 H 0.32860 0.32533 0.33028
 H26 H 0.33872 0.33532 0.34033
 N27 N 0.35493 0.81792 -0.17370
 N28 N 0.35470 0.82677 -0.18218
 C29 C 0.36429 0.82500 -0.19010
 C30 C 0.37088 0.81450 -0.18636
 C31 C 0.36469 0.81023 -0.17592
 H32 H 0.36639 0.83091 -0.19798
 H33 H 0.36712 0.80217 -0.17035
 Cu34 Cu 0.34192 0.83977 -0.18199
 Cu35 Cu 0.34266 0.81708 -0.16037
 Cu36 Cu 0.31952 0.83992 -0.16008
 N37 N 0.32875 0.85238 -0.18185
 N38 N 0.32001 0.85238 -0.17325
 C39 C 0.31216 0.86205 -0.17524
 C40 C 0.31620 0.86844 -0.18565
 C41 C 0.32674 0.86205 -0.18962
 H42 H 0.30413 0.86429 -0.16953
 H43 H 0.33251 0.86433 -0.19755
 N44 N 0.32060 0.82653 -0.14755
 N45 N 0.32941 0.81783 -0.14766
 C46 C 0.32768 0.81013 -0.13791
 C47 C 0.31730 0.81419 -0.13140
 C48 C 0.31304 0.82458 -0.13774
 H49 H 0.33353 0.80218 -0.13566
 H50 H 0.30504 0.83031 -0.13532
 H51 H 0.32842 0.82591 -0.16998
 H52 H 0.33849 0.83598 -0.15996
 N53 N 0.85475 0.31884 -0.17362
 N54 N 0.85588 0.32887 -0.18060
 C55 C 0.86544 0.32721 -0.18857
 C56 C 0.87057 0.31552 -0.18644
 C57 C 0.86357 0.31045 -0.17689
 H58 H 0.86850 0.33402 -0.19535
 H59 H 0.86496 0.30143 -0.17253
 Cu60 Cu 0.84487 0.34319 -0.17859
 Cu61 Cu 0.84239 0.31772 -0.16036
 Cu62 Cu 0.82257 0.34325 -0.15673
 N63 N 0.83081 0.35471 -0.17932
 N64 N 0.82207 0.35472 -0.17073
 C65 C 0.81374 0.36386 -0.17320
 C66 C 0.81747 0.36986 -0.18395
 C67 C 0.82832 0.36380 -0.18762
 H68 H 0.80568 0.36605 -0.16752
 H69 H 0.83406 0.36594 -0.19561
 N70 N 0.82197 0.32839 -0.14594
 N71 N 0.82935 0.31857 -0.14743
 C72 C 0.82672 0.31007 -0.13858
 C73 C 0.81723 0.31478 -0.13121
 C74 C 0.81442 0.32639 -0.13614
 H75 H 0.83147 0.30120 -0.13741
 H76 H 0.80747 0.33292 -0.13276
 H77 H 0.82955 0.32986 -0.16843
 H78 H 0.84094 0.33650 -0.15714
 N79 N 0.85445 0.81770 0.32643
 N80 N 0.85424 0.82655 0.31796
 C81 C 0.86385 0.82477 0.31005
 C82 C 0.87039 0.81426 0.31380
 C83 C 0.86419 0.80999 0.32421
 H84 H 0.86598 0.83066 0.30218
 H85 H 0.86662 0.80192 0.32976
 Cu86 Cu 0.84148 0.83956 0.31813
 Cu87 Cu 0.84214 0.81685 0.33972
 Cu88 Cu 0.81899 0.83968 0.33997
 N89 N 0.82830 0.85216 0.31825
 N90 N 0.81953 0.85215 0.32681
 C91 C 0.81167 0.86181 0.32479
 C92 C 0.81575 0.86820 0.31440
 C93 C 0.82631 0.86183 0.31046
 H94 H 0.80363 0.86406 0.33047
 H95 H 0.83211 0.86410 0.30256
 N96 N 0.82005 0.82628 0.35249
 N97 N 0.82886 0.81759 0.35240
 C98 C 0.82711 0.80987 0.36213
 C99 C 0.81671 0.81391 0.36862
 C100 C 0.81246 0.82431 0.36228
 H101 H 0.83296 0.80192 0.36438
 H102 H 0.80445 0.83003 0.36468
 H103 H 0.82793 0.82570 0.33009
 H104 H 0.83796 0.83576 0.34014
 N105 N 0.64649 0.68349 0.32841
 N106 N 0.64672 0.67488 0.31971
 C107 C 0.63696 0.67674 0.31201
 C108 C 0.63032 0.68704 0.31614
 C109 C 0.63661 0.69110 0.32655
 H110 H 0.63479 0.67102 0.30404
 H111 H 0.63415 0.69899 0.33235
 Cu112 Cu 0.65968 0.66206 0.31934
 Cu113 Cu 0.65895 0.68414 0.34153
 Cu114 Cu 0.68185 0.66109 0.34146
 N115 N 0.67241 0.64901 0.31961
 N116 N 0.68105 0.64868 0.32828
 C117 C 0.68859 0.63875 0.32633
 C118 C 0.68443 0.63254 0.31590
 C119 C 0.67416 0.63928 0.31186
 H120 H 0.69648 0.63620 0.33208
 H121 H 0.66840 0.63719 0.30389
 N122 N 0.68107 0.67446 0.35400
 N123 N 0.67234 0.68324 0.35402
 C124 C 0.67430 0.69095 0.36369
 C125 C 0.68474 0.68683 0.37003
 C126 C 0.68881 0.67637 0.36367
 H127 H 0.66858 0.69898 0.36599
 H128 H 0.69681 0.67059 0.36595
 H129 H 0.67321 0.67541 0.33183
 H130 H 0.66291 0.66516 0.34147
 N131 N 0.64623 0.18371 -0.17175
 N132 N 0.64618 0.17487 -0.18021
 C133 C 0.63646 0.17678 -0.18794
 C134 C 0.63012 0.18737 -0.18407
 C135 C 0.63655 0.19154 -0.17379
 H136 H 0.63411 0.17092 -0.19576
 H137 H 0.63432 0.19965 -0.16819
 Cu138 Cu 0.65876 0.16168 -0.18024
 Cu139 Cu 0.65876 0.18438 -0.15869
 Cu140 Cu 0.68157 0.16120 -0.15879
 N141 N 0.67174 0.14887 -0.18033
 N142 N 0.68063 0.14873 -0.17191
 C143 C 0.68829 0.13893 -0.17403
 C144 C 0.68394 0.13260 -0.18433
 C145 C 0.67344 0.13915 -0.18812
 H146 H 0.69638 0.13655 -0.16847
 H147 H 0.66749 0.13697 -0.19592
 N148 N 0.68091 0.17464 -0.14629
 N149 N 0.67222 0.18346 -0.14626
 C150 C 0.67424 0.19117 -0.13661
 C151 C 0.68468 0.18700 -0.13028
 C152 C 0.68868 0.17652 -0.13664
 H153 H 0.66855 0.19922 -0.13429
 H154 H 0.69665 0.17070 -0.13436
 H155 H 0.67271 0.17531 -0.16854
 H156 H 0.66268 0.16540 -0.15830
 N157 N 0.14598 0.68427 -0.17134
 N158 N 0.14628 0.67557 -0.17995
 C159 C 0.13654 0.67729 -0.18770
 C160 C 0.12983 0.68761 -0.18371
 C161 C 0.13607 0.69181 -0.17332
 H162 H 0.13443 0.67149 -0.19563
 H163 H 0.13355 0.69975 -0.16761
 Cu164 Cu 0.15934 0.66281 -0.18014
 Cu165 Cu 0.15839 0.68516 -0.15818
 Cu166 Cu 0.18141 0.66225 -0.15792
 N167 N 0.17216 0.64983 -0.17965
 N168 N 0.18075 0.64968 -0.17094
 C169 C 0.18838 0.63980 -0.17271
 C170 C 0.18435 0.63341 -0.18308
 C171 C 0.17403 0.64001 -0.18727
 H172 H 0.19626 0.63740 -0.16688
 H173 H 0.16834 0.63777 -0.19524
 N174 N 0.18052 0.67575 -0.14554
 N175 N 0.17175 0.68449 -0.14563
 C176 C 0.17365 0.69230 -0.13602
 C177 C 0.18410 0.68828 -0.12962
 C178 C 0.18823 0.67779 -0.13587
 H179 H 0.16788 0.70032 -0.13381
 H180 H 0.19625 0.67207 -0.13352
 H181 H 0.17272 0.67643 -0.16775
 H182 H 0.16244 0.66622 -0.15804
 N183 N 0.14676 0.18417 0.32830
 N184 N 0.14716 0.17549 0.31968
 C185 C 0.13747 0.17719 0.31186
 C186 C 0.13069 0.18747 0.31582
 C187 C 0.13683 0.19168 0.32627
 H188 H 0.13544 0.17139 0.30391
 H189 H 0.13424 0.19959 0.33197
 Cu190 Cu 0.16025 0.16278 0.31954
 Cu191 Cu 0.15908 0.18507 0.34155
 Cu192 Cu 0.18218 0.16224 0.34191
 N193 N 0.17311 0.14984 0.32009
 N194 N 0.18165 0.14970 0.32886
 C195 C 0.18930 0.13982 0.32712
 C196 C 0.18533 0.13344 0.31672
 C197 C 0.17504 0.14003 0.31248
 H198 H 0.19714 0.13741 0.33300
 H199 H 0.16939 0.13779 0.30448
 N200 N 0.18116 0.17572 0.35431
 N201 N 0.17236 0.18442 0.35419
 C202 C 0.17417 0.19222 0.36382
 C203 C 0.18459 0.18822 0.37028
 C204 C 0.18880 0.17776 0.36403
 H205 H 0.16835 0.20021 0.36602
 H206 H 0.19682 0.17206 0.36642
 H207 H 0.17350 0.17641 0.33206
 H208 H 0.16320 0.16614 0.34168
 N209 N 0.64678 0.31668 0.67102
 N210 N 0.64653 0.32536 0.67965
 C211 C 0.63668 0.32326 0.68718
 C212 C 0.63046 0.31274 0.68301
 C213 C 0.63711 0.30879 0.67274
 H214 H 0.63416 0.32895 0.69508
 H215 H 0.63502 0.30080 0.66696
 Cu216 Cu 0.65905 0.33857 0.68017
 Cu217 Cu 0.65957 0.31631 0.65815
 Cu218 Cu 0.68230 0.33948 0.65914
 N219 N 0.67201 0.35136 0.68075
 N220 N 0.68108 0.35165 0.67250
 C221 C 0.68868 0.36138 0.67495
 C222 C 0.68413 0.36751 0.68528
 C223 C 0.67356 0.36092 0.68875
 H224 H 0.69688 0.36387 0.66959
 H225 H 0.66746 0.36299 0.69648
 N226 N 0.68193 0.32634 0.64634
 N227 N 0.67328 0.31752 0.64597
 C228 C 0.67551 0.31005 0.63616
 C229 C 0.68604 0.31439 0.63010
 C230 C 0.68989 0.32471 0.63678
 H231 H 0.66987 0.30207 0.63354
 H232 H 0.69787 0.33060 0.63476
 H233 H 0.67326 0.32517 0.66845
 H234 H 0.66342 0.33528 0.65823
 N235 N 0.64660 0.81659 1.17278
 N236 N 0.64674 0.82511 1.18156
 C237 C 0.63696 0.82315 1.18922
 C238 C 0.63040 0.81286 1.18499
 C239 C 0.63676 0.80892 1.17455
 H240 H 0.63471 0.82879 1.19724
 H241 H 0.63436 0.80108 1.16867
 Cu242 Cu 0.65962 0.83798 1.18205
 Cu243 Cu 0.65909 0.81610 1.15967
 Cu244 Cu 0.68185 0.83922 1.15994
 N245 N 0.67228 0.85109 1.18188
 N246 N 0.68094 0.85152 1.17322
 C247 C 0.68842 0.86146 1.17525
 C248 C 0.68420 0.86756 1.18574
 C249 C 0.67396 0.86076 1.18972
 H250 H 0.69631 0.86408 1.16953
 H251 H 0.66817 0.86275 1.19770
 N252 N 0.68119 0.82595 1.14728
 N253 N 0.67251 0.81714 1.14719
 C254 C 0.67452 0.80952 1.13746
 C255 C 0.68494 0.81373 1.13114
 C256 C 0.68895 0.82415 1.13758
 H257 H 0.66884 0.80149 1.13510
 H258 H 0.69692 0.82997 1.13534
 H259 H 0.67329 0.82479 1.16945
 H260 H 0.66295 0.83510 1.15990
 N261 N 0.14713 0.31697 1.17131
 N262 N 0.14683 0.32563 1.17996
 C263 C 0.13696 0.32350 1.18745
 C264 C 0.13077 0.31297 1.18324
 C265 C 0.13746 0.30906 1.17299
 H266 H 0.13441 0.32917 1.19536
 H267 H 0.13541 0.30107 1.16718
 Cu268 Cu 0.15934 0.33886 1.18053
 Cu269 Cu 0.15995 0.31664 1.15847
 Cu270 Cu 0.18264 0.33984 1.15957
 N271 N 0.17228 0.35168 1.18117
 N272 N 0.18136 0.35199 1.17294
 C273 C 0.18895 0.36173 1.17542
 C274 C 0.18437 0.36784 1.18575
 C275 C 0.17379 0.36123 1.18918
 H276 H 0.19715 0.36423 1.17009
 H277 H 0.16767 0.36329 1.19690
 N278 N 0.18233 0.32673 1.14675
 N279 N 0.17369 0.31790 1.14632
 C280 C 0.17595 0.31046 1.13650
 C281 C 0.18650 0.31484 1.13048
 C282 C 0.19031 0.32514 1.13720
 H283 H 0.17034 0.30248 1.13384
 H284 H 0.19828 0.33106 1.13521
 H285 H 0.17359 0.32550 1.16883
 H286 H 0.16376 0.33562 1.15860
 N287 N 0.14585 0.81728 0.67202
 N288 N 0.14563 0.82599 0.68062
 C289 C 0.13579 0.82393 0.68818
 C290 C 0.12955 0.81340 0.68406
 C291 C 0.13617 0.80941 0.67380
 H292 H 0.13330 0.82965 0.69607
 H293 H 0.13407 0.80139 0.66805
 Cu294 Cu 0.15817 0.83919 0.68107
 Cu295 Cu 0.15861 0.81684 0.65913
 Cu296 Cu 0.18138 0.83997 0.65999
 N297 N 0.17117 0.85196 0.68158
 N298 N 0.18021 0.85219 0.67331
 C299 C 0.18786 0.86191 0.67572
 C300 C 0.18336 0.86807 0.68605
 C301 C 0.17277 0.86153 0.68956
 H302 H 0.19606 0.86434 0.67035
 H303 H 0.16670 0.86363 0.69731
 N304 N 0.18096 0.82679 0.64724
 N305 N 0.17229 0.81798 0.64691
 C306 C 0.17450 0.81047 0.63713
 C307 C 0.18503 0.81477 0.63104
 C308 C 0.18890 0.82511 0.63768
 H309 H 0.16885 0.80248 0.63456
 H310 H 0.19689 0.83098 0.63563
 H311 H 0.17233 0.82571 0.66938
 H312 H 0.16249 0.83580 0.65913
 N313 N 0.35349 0.68131 0.67270
 N314 N 0.35300 0.67273 0.68143
 C315 C 0.36270 0.67439 0.68923
 C316 C 0.36959 0.68455 0.68515
 C317 C 0.36349 0.68871 0.67465
 H318 H 0.36466 0.66866 0.69726
 H319 H 0.36617 0.69653 0.66884
 Cu320 Cu 0.33977 0.66020 0.68173
 Cu321 Cu 0.34116 0.68221 0.65943
 Cu322 Cu 0.31780 0.65968 0.65945
 N323 N 0.32675 0.64745 0.68143
 N324 N 0.31820 0.64732 0.67268
 C325 C 0.31038 0.63763 0.67461
 C326 C 0.31425 0.63136 0.68512
 C327 C 0.32466 0.63782 0.68923
 H328 H 0.30248 0.63528 0.66880
 H329 H 0.33027 0.63562 0.69728
 N330 N 0.31895 0.67295 0.64684
 N331 N 0.32783 0.68155 0.64682
 C332 C 0.32605 0.68924 0.63707
 C333 C 0.31556 0.68528 0.63071
 C334 C 0.31129 0.67495 0.63713
 H335 H 0.33193 0.69715 0.63475
 H336 H 0.30319 0.66933 0.63487
 H337 H 0.32668 0.67388 0.66907
 H338 H 0.33685 0.66337 0.65956
 N339 N 0.35141 0.18287 1.17288
 N340 N 0.35216 0.17345 1.18071
 C341 C 0.36255 0.17483 1.18766
 C342 C 0.36855 0.18569 1.18399
 C343 C 0.36123 0.19057 1.17461
 H344 H 0.36555 0.16844 1.19486
 H345 H 0.36292 0.19908 1.16943
 Cu346 Cu 0.33943 0.16040 1.18101
 Cu347 Cu 0.33766 0.18462 1.16119
 Cu348 Cu 0.31707 0.15962 1.15908
 N349 N 0.32652 0.14754 1.18098
 N350 N 0.31795 0.14718 1.17224
 C351 C 0.31031 0.13738 1.17427
 C352 C 0.31430 0.13126 1.18482
 C353 C 0.32461 0.13793 1.18886
 H354 H 0.30237 0.13492 1.16855
 H355 H 0.33026 0.13591 1.19692
 N356 N 0.31760 0.17329 1.14685
 N357 N 0.32527 0.18294 1.14779
 C358 C 0.32329 0.19074 1.13818
 C359 C 0.31390 0.18578 1.13090
 C360 C 0.31050 0.17473 1.13664
 H361 H 0.32833 0.19937 1.13654
 H362 H 0.30334 0.16827 1.13360
 H363 H 0.32427 0.17343 1.17001
 H364 H 0.33568 0.16550 1.15943
 N365 N 0.85376 0.68077 1.17285
 N366 N 0.85352 0.67187 1.18127
 C367 C 0.86321 0.67348 1.18909
 C368 C 0.86983 0.68393 1.18535
 C369 C 0.86359 0.68833 1.17502
 H370 H 0.86533 0.66752 1.19691
 H371 H 0.86606 0.69642 1.16949
 Cu372 Cu 0.84062 0.65903 1.18118
 Cu373 Cu 0.84135 0.68184 1.15969
 Cu374 Cu 0.81793 0.65935 1.15958
 N375 N 0.82727 0.64666 1.18115
 N376 N 0.81842 0.64682 1.17269
 C377 C 0.81045 0.63729 1.17481
 C378 C 0.81454 0.63084 1.18514
 C379 C 0.82522 0.63702 1.18894
 H380 H 0.80229 0.63518 1.16925
 H381 H 0.83104 0.63463 1.19679
 N382 N 0.81905 0.67279 1.14710
 N383 N 0.82797 0.68135 1.14715
 C384 C 0.82624 0.68914 1.13747
 C385 C 0.81575 0.68528 1.13106
 C386 C 0.81141 0.67491 1.13739
 H387 H 0.83218 0.69701 1.13520
 H388 H 0.80332 0.66932 1.13504
 H389 H 0.82712 0.67314 1.16945
 H390 H 0.83694 0.66300 1.15922
 N391 N 0.85279 0.18147 0.67207
 N392 N 0.85270 0.17274 0.68067
 C393 C 0.86248 0.17456 0.68833
 C394 C 0.86901 0.18495 0.68429
 C395 C 0.86262 0.18912 0.67396
 H396 H 0.86474 0.16877 0.69624
 H397 H 0.86498 0.19710 0.66823
 Cu398 Cu 0.83987 0.15984 0.68098
 Cu399 Cu 0.84020 0.18220 0.65904
 Cu400 Cu 0.81694 0.15954 0.65965
 N401 N 0.82663 0.14735 0.68136
 N402 N 0.81769 0.14728 0.67299
 C403 C 0.80983 0.13771 0.67534
 C404 C 0.81409 0.13147 0.68573
 C405 C 0.82475 0.13781 0.68932
 H406 H 0.80166 0.13542 0.66988
 H407 H 0.83069 0.13559 0.69713
 N408 N 0.81780 0.17274 0.64691
 N409 N 0.82665 0.18137 0.64667
 C410 C 0.82474 0.18894 0.63686
 C411 C 0.81420 0.18486 0.63066
 C412 C 0.81003 0.17459 0.63725
 H413 H 0.83058 0.19681 0.63435
 H414 H 0.80195 0.16889 0.63512
 H415 H 0.82615 0.17362 0.66912
 H416 H 0.83593 0.16333 0.65900
 N417 N 0.31670 0.35473 0.67350
 N418 N 0.32524 0.35424 0.68225
 C419 C 0.32339 0.36379 0.69018
 C420 C 0.31314 0.37059 0.68617
 C421 C 0.30912 0.36459 0.67557
 H422 H 0.32905 0.36572 0.69825
 H423 H 0.30128 0.36724 0.66978
 Cu424 Cu 0.33800 0.34122 0.68239
 Cu425 Cu 0.31608 0.34260 0.66005
 Cu426 Cu 0.33902 0.31959 0.65977
 N427 N 0.35098 0.32842 0.68193
 N428 N 0.35132 0.31999 0.67306
 C429 C 0.36118 0.31234 0.67491
 C430 C 0.36733 0.31620 0.68548
 C431 C 0.36064 0.32642 0.68971
 H432 H 0.36372 0.30457 0.66899
 H433 H 0.36270 0.33198 0.69782
 N434 N 0.32577 0.32074 0.64714
 N435 N 0.31703 0.32951 0.64724
 C436 C 0.30941 0.32781 0.63745
 C437 C 0.31356 0.31750 0.63091
 C438 C 0.32393 0.31324 0.63728
 H439 H 0.30143 0.33362 0.63520
 H440 H 0.32969 0.30526 0.63488
 H441 H 0.32464 0.32808 0.66948
 H442 H 0.33503 0.33855 0.66017
 N443 N 0.31708 0.85446 0.17347
 N444 N 0.32591 0.85419 0.18195
 C445 C 0.32409 0.86373 0.18992
 C446 C 0.31359 0.87029 0.18620
 C447 C 0.30936 0.86417 0.17574
 H448 H 0.32995 0.86580 0.19781
 H449 H 0.30130 0.86664 0.17019
 Cu450 Cu 0.33894 0.84145 0.18172
 Cu451 Cu 0.31630 0.84226 0.16009
 Cu452 Cu 0.33918 0.81916 0.15973
 N453 N 0.35155 0.82829 0.18155
 N454 N 0.35159 0.81960 0.17292
 C455 C 0.36126 0.81174 0.17492
 C456 C 0.36758 0.81573 0.18535
 C457 C 0.36119 0.82624 0.18934
 H458 H 0.36355 0.80374 0.16921
 H459 H 0.36344 0.83195 0.19729
 N460 N 0.32582 0.82030 0.14720
 N461 N 0.31711 0.82910 0.14733
 C462 C 0.30943 0.82741 0.13757
 C463 C 0.31352 0.81708 0.13103
 C464 C 0.32390 0.81280 0.13736
 H465 H 0.30148 0.83327 0.13534
 H466 H 0.32964 0.80482 0.13492
 H467 H 0.32514 0.82799 0.16965
 H468 H 0.33522 0.83812 0.15968
 N469 N 0.81697 0.35397 0.17223
 N470 N 0.82541 0.35359 0.18108
 C471 C 0.82340 0.36321 0.18891
 C472 C 0.81315 0.36991 0.18472
 C473 C 0.80930 0.36380 0.17412
 H474 H 0.82895 0.36523 0.19703
 H475 H 0.80151 0.36635 0.16823
 Cu476 Cu 0.83822 0.34061 0.18144
 Cu477 Cu 0.81653 0.34175 0.15889
 Cu478 Cu 0.83954 0.31884 0.15893
 N479 N 0.85128 0.32786 0.18114
 N480 N 0.85173 0.31939 0.17232
 C481 C 0.86162 0.31180 0.17427
 C482 C 0.86768 0.31574 0.18486
 C483 C 0.86090 0.32595 0.18900
 H484 H 0.86424 0.30401 0.16841
 H485 H 0.86288 0.33156 0.19710
 N486 N 0.82638 0.31985 0.14618
 N487 N 0.81762 0.32859 0.14617
 C488 C 0.81007 0.32682 0.13635
 C489 C 0.81429 0.31649 0.12989
 C490 C 0.82463 0.31229 0.13635
 H491 H 0.80209 0.33260 0.13402
 H492 H 0.83043 0.30432 0.13403
 H493 H 0.82507 0.32732 0.16848
 H494 H 0.83551 0.33777 0.15920
 N495 N 0.81619 0.85445 0.67257
 N496 N 0.82494 0.85444 0.68112
 C497 C 0.82290 0.86407 0.68893
 C498 C 0.81233 0.87041 0.68502
 C499 C 0.80830 0.86407 0.67462
 H500 H 0.82867 0.86636 0.69684
 H501 H 0.80025 0.86632 0.66897
 Cu502 Cu 0.83817 0.84188 0.68116
 Cu503 Cu 0.81569 0.84207 0.65936
 Cu504 Cu 0.83886 0.81928 0.65946
 N505 N 0.85095 0.82886 0.68125
 N506 N 0.85116 0.82006 0.67275
 C507 C 0.86090 0.81234 0.67491
 C508 C 0.86710 0.81653 0.68533
 C509 C 0.86056 0.82702 0.68914
 H510 H 0.86331 0.80429 0.66932
 H511 H 0.86269 0.83286 0.69704
 N512 N 0.82558 0.82008 0.64681
 N513 N 0.81676 0.82877 0.64678
 C514 C 0.80917 0.82687 0.63701
 C515 C 0.81342 0.81652 0.63061
 C516 C 0.82382 0.81243 0.63705
 H517 H 0.80115 0.83259 0.63466
 H518 H 0.82968 0.80450 0.63474
 H519 H 0.82466 0.82805 0.66919
 H520 H 0.83468 0.83818 0.65914
 N521 N 0.68381 0.64667 0.67178
 N522 N 0.67513 0.64704 0.68043
 C523 C 0.67684 0.63733 0.68823
 C524 C 0.68712 0.63056 0.68423
 C525 C 0.69132 0.63674 0.67378
 H526 H 0.67104 0.63527 0.69619
 H527 H 0.69923 0.63416 0.66805
 Cu528 Cu 0.66242 0.66013 0.68059
 Cu529 Cu 0.68468 0.65900 0.65853
 Cu530 Cu 0.66184 0.68209 0.65822
 N531 N 0.64947 0.67298 0.68009
 N532 N 0.64931 0.68153 0.67132
 C533 C 0.63944 0.68918 0.67310
 C534 C 0.63309 0.68520 0.68354
 C535 C 0.63969 0.67490 0.68775
 H536 H 0.63703 0.69704 0.66724
 H537 H 0.63747 0.66925 0.69577
 N538 N 0.67530 0.68109 0.64577
 N539 N 0.68401 0.67229 0.64589
 C540 C 0.69181 0.67409 0.63624
 C541 C 0.68780 0.68451 0.62976
 C542 C 0.67734 0.68872 0.63603
 H543 H 0.69980 0.66828 0.63403
 H544 H 0.67164 0.69674 0.63363
 H545 H 0.67601 0.67341 0.66803
 H546 H 0.66574 0.66311 0.65845
 N547 N 0.68309 0.14553 0.17017
 N548 N 0.67308 0.14419 0.17715
 C549 C 0.67481 0.13445 0.18489
 C550 C 0.68652 0.12943 0.18259
 C551 C 0.69153 0.13667 0.17321
 H552 H 0.66803 0.13120 0.19161
 H553 H 0.70054 0.13544 0.16878
 Cu554 Cu 0.65869 0.15516 0.17543
 Cu555 Cu 0.68412 0.15819 0.15721
 Cu556 Cu 0.65840 0.17783 0.15393
 N557 N 0.64704 0.16911 0.17639
 N558 N 0.64693 0.17797 0.16794
 C559 C 0.63768 0.18614 0.17053
 C560 C 0.63173 0.18219 0.18122
 C561 C 0.63790 0.17136 0.18471
 H562 H 0.63537 0.19426 0.16498
 H563 H 0.63578 0.16547 0.19259
 N564 N 0.67328 0.17880 0.14319
 N565 N 0.68318 0.17150 0.14457
 C566 C 0.69169 0.17441 0.13582
 C567 C 0.68692 0.18400 0.12864
 C568 C 0.67526 0.18658 0.13357
 H569 H 0.70063 0.16979 0.13459
 H570 H 0.66867 0.19354 0.13031
 H571 H 0.67185 0.17078 0.16551
 H572 H 0.66531 0.15952 0.15403
 N573 N 0.18398 0.64651 0.17132
 N574 N 0.17531 0.64686 0.17997
 C575 C 0.17704 0.63716 0.18777
 C576 C 0.18733 0.63042 0.18377
 C577 C 0.19152 0.63660 0.17332
 H578 H 0.17125 0.63509 0.19574
 H579 H 0.19943 0.63405 0.16759
 Cu580 Cu 0.16257 0.65992 0.18016
 Cu581 Cu 0.18482 0.65888 0.15809
 Cu582 Cu 0.16194 0.68195 0.15787
 N583 N 0.14963 0.67276 0.17973
 N584 N 0.14943 0.68135 0.17099
 C585 C 0.13957 0.68899 0.17283
 C586 C 0.13326 0.68497 0.18328
 C587 C 0.13987 0.67466 0.18743
 H588 H 0.13714 0.69687 0.16701
 H589 H 0.13769 0.66898 0.19544
 N590 N 0.17539 0.68099 0.14539
 N591 N 0.18411 0.67220 0.14548
 C592 C 0.19190 0.67406 0.13583
 C593 C 0.18788 0.68449 0.12939
 C594 C 0.17741 0.68866 0.13568
 H595 H 0.19991 0.66827 0.13360
 H596 H 0.17170 0.69669 0.13333
 H597 H 0.17615 0.67326 0.16763
 H598 H 0.16588 0.66298 0.15802
 N599 N 0.18380 0.14673 0.67181
 N600 N 0.17514 0.14715 0.68047
 C601 C 0.17680 0.13743 0.68826
 C602 C 0.18705 0.13062 0.68426
 C603 C 0.19127 0.13677 0.67381
 H604 H 0.17101 0.13540 0.69623
 H605 H 0.19917 0.13416 0.66808
 Cu606 Cu 0.16249 0.16030 0.68065
 Cu607 Cu 0.18475 0.15908 0.65858
 Cu608 Cu 0.16202 0.18228 0.65830
 N609 N 0.14960 0.17321 0.68015
 N610 N 0.14949 0.18177 0.67138
 C611 C 0.13964 0.18945 0.67315
 C612 C 0.13325 0.18549 0.68356
 C613 C 0.13980 0.17516 0.68778
 H614 H 0.13727 0.19732 0.66728
 H615 H 0.13753 0.16950 0.69578
 N616 N 0.17549 0.18124 0.64586
 N617 N 0.18414 0.17239 0.64596
 C618 C 0.19195 0.17419 0.63631
 C619 C 0.18799 0.18464 0.62987
 C620 C 0.17755 0.18888 0.63615
 H621 H 0.19991 0.16834 0.63408
 H622 H 0.17190 0.19694 0.63377
 H623 H 0.17616 0.17351 0.66811
 H624 H 0.16583 0.16328 0.65851
 N625 N 0.31663 0.64635 0.32918
 N626 N 0.32530 0.64614 0.32052
 C627 C 0.32319 0.63633 0.31297
 C628 C 0.31266 0.63010 0.31714
 C629 C 0.30872 0.63670 0.32743
 H630 H 0.32887 0.63385 0.30504
 H631 H 0.30072 0.63460 0.33323
 Cu632 Cu 0.33853 0.65865 0.32000
 Cu633 Cu 0.31627 0.65909 0.34207
 Cu634 Cu 0.33947 0.68179 0.34107
 N635 N 0.35133 0.67159 0.31941
 N636 N 0.35163 0.68061 0.32768
 C637 C 0.36137 0.68822 0.32523
 C638 C 0.36749 0.68372 0.31487
 C639 C 0.36089 0.67317 0.31140
 H640 H 0.36386 0.69640 0.33060
 H641 H 0.36296 0.66711 0.30364
 N642 N 0.32634 0.68139 0.35389
 N643 N 0.31750 0.67275 0.35428
 C644 C 0.31004 0.67497 0.36411
 C645 C 0.31440 0.68549 0.37016
 C646 C 0.32473 0.68933 0.36346
 H647 H 0.30205 0.66935 0.36674
 H648 H 0.33064 0.69729 0.36546
 H649 H 0.32512 0.67280 0.33178
 H650 H 0.33524 0.66291 0.34195
 N651 N 0.31665 0.14689 0.82790
 N652 N 0.32500 0.14692 0.81894
 C653 C 0.32286 0.13708 0.81143
 C654 C 0.31263 0.13059 0.81594
 C655 C 0.30891 0.13706 0.82639
 H656 H 0.32834 0.13475 0.80332
 H657 H 0.30118 0.13475 0.83245
 Cu658 Cu 0.33792 0.15974 0.81801
 Cu659 Cu 0.31646 0.15953 0.84088
 Cu660 Cu 0.33970 0.18216 0.83981
 N661 N 0.35109 0.17233 0.81774
 N662 N 0.35172 0.18106 0.82629
 C663 C 0.36165 0.18847 0.82400
 C664 C 0.36756 0.18413 0.81345
 C665 C 0.36064 0.17388 0.80971
 H666 H 0.36441 0.19639 0.82959
 H667 H 0.36248 0.16800 0.80176
 N668 N 0.32670 0.18171 0.85276
 N669 N 0.31784 0.17310 0.85317
 C670 C 0.31045 0.17529 0.86305
 C671 C 0.31488 0.18576 0.86912
 C672 C 0.32517 0.18961 0.86237
 H673 H 0.30245 0.16969 0.86570
 H674 H 0.33110 0.19756 0.86436
 H675 H 0.32501 0.17354 0.83074
 H676 H 0.33546 0.16326 0.84019
 N677 N 0.81665 0.64583 0.82842
 N678 N 0.82542 0.64578 0.81987
 C679 C 0.82350 0.63602 0.81220
 C680 C 0.81298 0.62966 0.81620
 C681 C 0.80886 0.63612 0.82650
 H682 H 0.82930 0.63367 0.80432
 H683 H 0.80081 0.63390 0.83219
 Cu684 Cu 0.83852 0.65845 0.81964
 Cu685 Cu 0.81600 0.65841 0.84144
 Cu686 Cu 0.83894 0.68137 0.84100
 N687 N 0.85117 0.67156 0.81935
 N688 N 0.85127 0.68049 0.82773
 C689 C 0.86094 0.68825 0.82545
 C690 C 0.86721 0.68394 0.81509
 C691 C 0.86077 0.67335 0.81144
 H692 H 0.86328 0.69640 0.83092
 H693 H 0.86298 0.66740 0.80363
 N694 N 0.82564 0.68065 0.85367
 N695 N 0.81691 0.67190 0.85382
 C696 C 0.80928 0.67387 0.86357
 C697 C 0.81342 0.68434 0.86983
 C698 C 0.82379 0.68842 0.86333
 H699 H 0.80132 0.66811 0.86600
 H700 H 0.82956 0.69643 0.86554
 H701 H 0.82485 0.67235 0.83141
 H702 H 0.83495 0.66246 0.84160
 N703 N 0.81726 0.14634 0.32801
 N704 N 0.82591 0.14610 0.31934
 C705 C 0.82378 0.13628 0.31181
 C706 C 0.81325 0.13006 0.31602
 C707 C 0.80934 0.13668 0.32630
 H708 H 0.82945 0.13377 0.30388
 H709 H 0.80136 0.13460 0.33212
 Cu710 Cu 0.83915 0.15861 0.31878
 Cu711 Cu 0.81693 0.15908 0.34090
 Cu712 Cu 0.84013 0.18177 0.33985
 N713 N 0.85196 0.17156 0.31817
 N714 N 0.85228 0.18058 0.32644
 C715 C 0.86201 0.18819 0.32396
 C716 C 0.86812 0.18368 0.31360
 C717 C 0.86151 0.17312 0.31014
 H718 H 0.86452 0.19636 0.32932
 H719 H 0.86356 0.16705 0.30238
 N720 N 0.82702 0.18138 0.35270
 N721 N 0.81819 0.17274 0.35310
 C722 C 0.81074 0.17494 0.36295
 C723 C 0.81511 0.18544 0.36900
 C724 C 0.82542 0.18930 0.36228
 H725 H 0.80276 0.16931 0.36558
 H726 H 0.83133 0.19726 0.36429
 H727 H 0.82579 0.17279 0.33058
 H728 H 0.83591 0.16290 0.34075
 N729 N 0.68119 0.35266 0.32880
 N730 N 0.67245 0.35282 0.32024
 C731 C 0.67442 0.36266 0.31266
 C732 C 0.68494 0.36896 0.31673
 C733 C 0.68901 0.36238 0.32698
 H734 H 0.66866 0.36509 0.30478
 H735 H 0.69704 0.36453 0.33269
 Cu736 Cu 0.65936 0.34014 0.31982
 Cu737 Cu 0.68180 0.33993 0.34168
 Cu738 Cu 0.65898 0.31688 0.34089
 N739 N 0.64682 0.32693 0.31932
 N740 N 0.64673 0.31787 0.32757
 C741 C 0.63718 0.31004 0.32511
 C742 C 0.63097 0.31442 0.31476
 C743 C 0.63732 0.32515 0.31131
 H744 H 0.63490 0.30176 0.33044
 H745 H 0.63514 0.33117 0.30354
 N746 N 0.67216 0.31749 0.35363
 N747 N 0.68086 0.32627 0.35391
 C748 C 0.68845 0.32418 0.36366
 C749 C 0.68432 0.31360 0.36977
 C750 C 0.67399 0.30958 0.36319
 H751 H 0.69638 0.32993 0.36618
 H752 H 0.66825 0.30151 0.36527
 H753 H 0.67305 0.32612 0.33142
 H754 H 0.66287 0.33582 0.34174
 N755 N 0.68193 0.85259 0.82861
 N756 N 0.67337 0.85217 0.81987
 C757 C 0.67506 0.86195 0.81214
 C758 C 0.68520 0.86880 0.81629
 C759 C 0.68934 0.86260 0.82674
 H760 H 0.66934 0.86399 0.80412
 H761 H 0.69714 0.86523 0.83257
 Cu762 Cu 0.66086 0.83892 0.81951
 Cu763 Cu 0.68282 0.84020 0.84179
 Cu764 Cu 0.66034 0.81680 0.84175
 N765 N 0.64812 0.82589 0.81980
 N766 N 0.64797 0.81728 0.82851
 C767 C 0.63824 0.80950 0.82656
 C768 C 0.63198 0.81347 0.81608
 C769 C 0.63847 0.82389 0.81202
 H770 H 0.63587 0.80158 0.83235
 H771 H 0.63627 0.82957 0.80401
 N772 N 0.67363 0.81792 0.85435
 N773 N 0.68220 0.82684 0.85435
 C774 C 0.68991 0.82511 0.86407
 C775 C 0.68600 0.81462 0.87047
 C776 C 0.67568 0.81028 0.86408
 H777 H 0.69778 0.83103 0.86637
 H778 H 0.67008 0.80218 0.86640
 H779 H 0.67448 0.82572 0.83212
 H780 H 0.66394 0.83582 0.84167
 N781 N 0.18097 0.35300 0.82807
 N782 N 0.17209 0.35290 0.81964
 C783 C 0.17377 0.36266 0.81190
 C784 C 0.18425 0.36919 0.81571
 C785 C 0.18859 0.36282 0.82599
 H786 H 0.16784 0.36490 0.80409
 H787 H 0.19667 0.36519 0.83155
 Cu788 Cu 0.15918 0.34005 0.81962
 Cu789 Cu 0.18196 0.34046 0.84113
 Cu790 Cu 0.15937 0.31716 0.84103
 N791 N 0.14675 0.32673 0.81953
 N792 N 0.14689 0.31781 0.82793
 C793 C 0.13734 0.30988 0.82579
 C794 C 0.13089 0.31406 0.81550
 C795 C 0.13710 0.32477 0.81175
 H796 H 0.13521 0.30169 0.83131
 H797 H 0.13472 0.33066 0.80394
 N798 N 0.17276 0.31809 0.85353
 N799 N 0.18137 0.32696 0.85357
 C800 C 0.18910 0.32509 0.86326
 C801 C 0.18516 0.31455 0.86957
 C802 C 0.17479 0.31034 0.86318
 H803 H 0.19700 0.33096 0.86560
 H804 H 0.16915 0.30226 0.86545
 H805 H 0.17323 0.32640 0.83124
 H806 H 0.16310 0.33615 0.84155
 N807 N 0.18158 0.85284 0.32822
 N808 N 0.17305 0.85228 0.31946
 C809 C 0.17469 0.86198 0.31163
 C810 C 0.18477 0.86893 0.31572
 C811 C 0.18893 0.86288 0.32627
 H812 H 0.16898 0.86390 0.30359
 H813 H 0.19670 0.86562 0.33209
 Cu814 Cu 0.16058 0.83901 0.31916
 Cu815 Cu 0.18244 0.84056 0.34155
 Cu816 Cu 0.15999 0.81711 0.34154
 N817 N 0.14789 0.82596 0.31947
 N818 N 0.14771 0.81742 0.32825
 C819 C 0.13803 0.80960 0.32632
 C820 C 0.13181 0.81345 0.31577
 C821 C 0.13829 0.82385 0.31165
 H822 H 0.13565 0.80172 0.33216
 H823 H 0.13612 0.82945 0.30358
 N824 N 0.17318 0.81835 0.35421
 N825 N 0.18175 0.82727 0.35423
 C826 C 0.18938 0.82555 0.36402
 C827 C 0.18541 0.81508 0.37042
 C828 C 0.17514 0.81075 0.36397
 H829 H 0.19726 0.83146 0.36635
 H830 H 0.16953 0.80264 0.36626
 H831 H 0.17422 0.82601 0.33195
 H832 H 0.16360 0.83616 0.34135
 C833 C 0.24401 1.00128 0.25624
 C834 C 0.25304 1.00125 0.24731
 C835 C 0.25807 1.01305 0.24195
 C836 C 0.25840 0.98941 0.24238
 C837 C 0.23846 0.98948 0.26107
 C838 C 0.23921 1.01312 0.26171
 C839 C 0.25014 1.02192 0.23641
 C840 C 0.25508 1.03292 0.23134
 C841 C 0.26806 1.03519 0.23162
 C842 C 0.27597 1.02620 0.23707
 C843 C 0.27102 1.01523 0.24213
 C844 C 0.25818 0.98715 0.22960
 C845 C 0.26321 0.97612 0.22476
 C846 C 0.26866 0.96713 0.23262
 C847 C 0.26902 0.96949 0.24543
 C848 C 0.26399 0.98056 0.25026
 C849 C 0.23866 0.98708 0.27383
 C850 C 0.23357 0.97603 0.27856
 C851 C 0.22808 0.96716 0.27062
 C852 C 0.22772 0.96968 0.25783
 C853 C 0.23281 0.98077 0.25311
 C854 C 0.24733 1.02176 0.26731
 C855 C 0.24263 1.03285 0.27240
 C856 C 0.22971 1.03546 0.27209
 C857 C 0.22161 1.02667 0.26663
 C858 C 0.22631 1.01561 0.26155
 H859 H 0.24014 1.02030 0.23596
 H860 H 0.24873 1.03961 0.22717
 H861 H 0.28601 1.02761 0.23743
 H862 H 0.27731 1.00846 0.24630
 H863 H 0.25398 0.99391 0.22336
 H864 H 0.26280 0.97465 0.21485
 H865 H 0.26447 0.98224 0.26014
 H866 H 0.24290 0.99373 0.28013
 H867 H 0.23398 0.97443 0.28846
 H868 H 0.22350 0.96310 0.25146
 H869 H 0.23234 0.98256 0.24325
 H870 H 0.25730 1.01989 0.26775
 H871 H 0.24914 1.03937 0.27658
 H872 H 0.21160 1.02834 0.26626
 H873 H 0.21988 1.00902 0.25734
 H874 H 0.27320 0.96281 0.25174
 C875 C 0.24369 0.50152 0.75645
 C876 C 0.25265 0.50151 0.74745
 C877 C 0.25765 0.51330 0.74207
 C878 C 0.25797 0.48968 0.74246
 C879 C 0.23825 0.48969 0.76131
 C880 C 0.23884 0.51333 0.76193
 C881 C 0.24968 0.52217 0.73658
 C882 C 0.25460 0.53315 0.73145
 C883 C 0.26759 0.53540 0.73161
 C884 C 0.27553 0.52639 0.73700
 C885 C 0.27060 0.51545 0.74213
 C886 C 0.25747 0.48737 0.72969
 C887 C 0.26245 0.47633 0.72480
 C888 C 0.26813 0.46741 0.73257
 C889 C 0.26875 0.46983 0.74537
 C890 C 0.26376 0.48089 0.75025
 C891 C 0.23876 0.48717 0.77404
 C892 C 0.23380 0.47606 0.77877
 C893 C 0.22813 0.46726 0.77087
 C894 C 0.22747 0.46991 0.75812
 C895 C 0.23244 0.48105 0.75339
 C896 C 0.24692 0.52207 0.76742
 C897 C 0.24216 0.53315 0.77249
 C898 C 0.22921 0.53563 0.77227
 C899 C 0.22115 0.52674 0.76692
 C900 C 0.22592 0.51569 0.76185
 H901 H 0.23967 0.52057 0.73623
 H902 H 0.24822 0.53985 0.72732
 H903 H 0.28557 0.52778 0.73726
 H904 H 0.27691 0.50867 0.74624
 H905 H 0.25311 0.49408 0.72352
 H906 H 0.26184 0.47482 0.71490
 H907 H 0.26444 0.48261 0.76011
 H908 H 0.24315 0.49376 0.78030
 H909 H 0.23444 0.47436 0.78864
 H910 H 0.22311 0.46339 0.75178
 H911 H 0.23175 0.48293 0.74356
 H912 H 0.25691 0.52031 0.76779
 H913 H 0.24863 0.53975 0.77660
 H914 H 0.21113 0.52830 0.76662
 H915 H 0.21952 0.50903 0.75773
 H916 H 0.27311 0.46320 0.75161
 C917 C 0.74481 -0.00132 0.24623
 C918 C 0.75366 -0.00139 0.25532
 C919 C 0.75909 -0.01324 0.26015
 C920 C 0.75847 0.01039 0.26087
 C921 C 0.74014 0.01055 0.24071
 C922 C 0.73933 -0.01309 0.24130
 C923 C 0.75878 -0.01568 0.27290
 C924 C 0.76391 -0.02672 0.27764
 C925 C 0.76955 -0.03553 0.26971
 C926 C 0.76998 -0.03299 0.25693
 C927 C 0.76484 -0.02192 0.25220
 C928 C 0.75032 0.01916 0.26629
 C929 C 0.75503 0.03020 0.27145
 C930 C 0.76798 0.03263 0.27141
 C931 C 0.77611 0.02372 0.26613
 C932 C 0.77140 0.01271 0.26097
 C933 C 0.74840 0.01919 0.23528
 C934 C 0.74383 0.03030 0.23011
 C935 C 0.73091 0.03293 0.23017
 C936 C 0.72267 0.02415 0.23547
 C937 C 0.72724 0.01306 0.24064
 C938 C 0.73963 -0.01539 0.22852
 C939 C 0.73451 -0.02637 0.22369
 C940 C 0.72888 -0.03527 0.23153
 C941 C 0.72846 -0.03286 0.24434
 C942 C 0.73358 -0.02184 0.24916
 H943 H 0.75445 -0.00906 0.27919
 H944 H 0.76344 -0.02834 0.28753
 H945 H 0.77431 -0.03952 0.25057
 H946 H 0.76540 -0.02009 0.24235
 H947 H 0.74033 0.01743 0.26652
 H948 H 0.74850 0.03681 0.27550
 H949 H 0.77785 0.00603 0.25690
 H950 H 0.75837 0.01730 0.23503
 H951 H 0.75044 0.03681 0.22604
 H952 H 0.71267 0.02583 0.23565
 H953 H 0.72072 0.00647 0.24471
 H954 H 0.74396 -0.00872 0.22229
 H955 H 0.73498 -0.02789 0.21378
 H956 H 0.72414 -0.03946 0.25065
 H957 H 0.73304 -0.02013 0.25903
 H958 H 0.78613 0.02525 0.26596
 C959 C 0.74442 0.49846 0.74621
 C960 C 0.75337 0.49839 0.75521
 C961 C 0.75878 0.48654 0.76006
 C962 C 0.75827 0.51017 0.76067
 C963 C 0.73969 0.51033 0.74073
 C964 C 0.73890 0.48670 0.74132
 C965 C 0.75854 0.48417 0.77283
 C966 C 0.76368 0.47315 0.77760
 C967 C 0.76927 0.46429 0.76970
 C968 C 0.76961 0.46675 0.75689
 C969 C 0.76446 0.47780 0.75213
 C970 C 0.75020 0.51894 0.76619
 C971 C 0.75498 0.52999 0.77127
 C972 C 0.76794 0.53241 0.77103
 C973 C 0.77598 0.52350 0.76565
 C974 C 0.77119 0.51248 0.76057
 C975 C 0.74789 0.51897 0.73522
 C976 C 0.74327 0.53010 0.73012
 C977 C 0.73035 0.53273 0.73033
 C978 C 0.72217 0.52394 0.73570
 C979 C 0.72680 0.51285 0.74080
 C980 C 0.73914 0.48438 0.72855
 C981 C 0.73400 0.47339 0.72376
 C982 C 0.72842 0.46450 0.73166
 C983 C 0.72806 0.46693 0.74446
 C984 C 0.73320 0.47796 0.74924
 H985 H 0.75427 0.49084 0.77911
 H986 H 0.76328 0.47161 0.78750
 H987 H 0.77390 0.46017 0.75054
 H988 H 0.76496 0.47956 0.74226
 H989 H 0.74021 0.51721 0.76657
 H990 H 0.74852 0.53660 0.77539
 H991 H 0.77757 0.50578 0.75643
 H992 H 0.75785 0.51709 0.73485
 H993 H 0.74983 0.53661 0.72599
 H994 H 0.71217 0.52563 0.73600
 H995 H 0.72032 0.50625 0.74494
 H996 H 0.74343 0.49105 0.72228
 H997 H 0.73442 0.47186 0.71386
 H998 H 0.72378 0.46034 0.75080
 H999 H 0.73270 0.47970 0.75911
 H1000 H 0.78600 0.52502 0.76533
 C1001 C 0.24474 0.49880 0.24668
 C1002 C 0.25369 0.49874 0.25567
 C1003 C 0.25926 0.48689 0.26038
 C1004 C 0.25845 0.51053 0.26125
 C1005 C 0.24000 0.51066 0.24118
 C1006 C 0.23924 0.48701 0.24179
 C1007 C 0.25918 0.48441 0.27313
 C1008 C 0.26446 0.47339 0.27775
 C1009 C 0.27002 0.46464 0.26971
 C1010 C 0.27022 0.46722 0.25693
 C1011 C 0.26494 0.47827 0.25232
 C1012 C 0.25026 0.51919 0.26676
 C1013 C 0.25490 0.53024 0.27196
 C1014 C 0.26783 0.53278 0.27185
 C1015 C 0.27600 0.52398 0.26647
 C1016 C 0.27135 0.51296 0.26127
 C1017 C 0.24821 0.51932 0.23572
 C1018 C 0.24358 0.53041 0.23054
 C1019 C 0.23065 0.53298 0.23062
 C1020 C 0.22246 0.52419 0.23597
 C1021 C 0.22710 0.51313 0.24115
 C1022 C 0.23938 0.48473 0.22901
 C1023 C 0.23423 0.47373 0.22423
 C1024 C 0.22874 0.46481 0.23214
 C1025 C 0.22847 0.46721 0.24495
 C1026 C 0.23362 0.47823 0.24972
 H1027 H 0.25492 0.49099 0.27951
 H1028 H 0.26417 0.47174 0.28764
 H1029 H 0.27449 0.46073 0.25048
 H1030 H 0.26532 0.48013 0.24247
 H1031 H 0.24028 0.51738 0.26705
 H1032 H 0.24834 0.53677 0.27609
 H1033 H 0.27783 0.50635 0.25713
 H1034 H 0.25818 0.51747 0.23543
 H1035 H 0.25015 0.53693 0.22644
 H1036 H 0.21245 0.52583 0.23617
 H1037 H 0.22061 0.50652 0.24526
 H1038 H 0.24360 0.49143 0.22273
 H1039 H 0.23457 0.47224 0.21432
 H1040 H 0.22426 0.46058 0.25130
 H1041 H 0.23320 0.47993 0.25960
 H1042 H 0.28601 0.52559 0.26625
 C1043 C 0.74338 1.00123 0.75601
 C1044 C 0.75234 1.00121 0.74701
 C1045 C 0.75779 1.01301 0.74209
 C1046 C 0.75721 0.98939 0.74158
 C1047 C 0.73850 0.98942 0.76145
 C1048 C 0.73796 1.01306 0.76090
 C1049 C 0.75750 1.01533 0.72932
 C1050 C 0.76262 1.02632 0.72448
 C1051 C 0.76822 1.03521 0.73233
 C1052 C 0.76863 1.03278 0.74513
 C1053 C 0.76351 1.02176 0.74996
 C1054 C 0.74913 0.98068 0.73603
 C1055 C 0.75390 0.96962 0.73093
 C1056 C 0.76685 0.96712 0.73118
 C1057 C 0.77490 0.97597 0.73661
 C1058 C 0.77012 0.98700 0.74171
 C1059 C 0.74658 0.98065 0.76694
 C1060 C 0.74183 0.96953 0.77192
 C1061 C 0.72889 0.96703 0.77161
 C1062 C 0.72082 0.97596 0.76627
 C1063 C 0.72559 0.98705 0.76129
 C1064 C 0.73827 1.01541 0.77366
 C1065 C 0.73328 1.02649 0.77845
 C1066 C 0.72777 1.03543 0.77057
 C1067 C 0.72731 1.03296 0.75778
 C1068 C 0.73230 1.02185 0.75300
 H1069 H 0.75320 1.00866 0.72309
 H1070 H 0.76217 1.02784 0.71458
 H1071 H 0.77293 1.03938 0.75144
 H1072 H 0.76404 1.02002 0.75983
 H1073 H 0.73915 0.98247 0.73562
 H1074 H 0.74744 0.96305 0.72676
 H1075 H 0.77651 0.99365 0.74588
 H1076 H 0.75656 0.98242 0.76737
 H1077 H 0.74830 0.96291 0.77602
 H1078 H 0.71081 0.97438 0.76590
 H1079 H 0.71919 0.99374 0.75716
 H1080 H 0.74253 1.00871 0.77992
 H1081 H 0.73377 1.02805 0.78834
 H1082 H 0.72308 1.03959 0.75144
 H1083 H 0.73175 1.02009 0.74314
 H1084 H 0.78492 0.97440 0.73694
 C1085 C 0.74419 0.50064 0.25590
 C1086 C 0.75299 0.50064 0.24675
 C1087 C 0.75825 0.51246 0.24169
 C1088 C 0.75788 0.48883 0.24130
 C1089 C 0.73941 0.48884 0.26145
 C1090 C 0.73883 0.51247 0.26084
 C1091 C 0.75758 0.51480 0.22893
 C1092 C 0.76251 0.52582 0.22397
 C1093 C 0.76832 0.53470 0.23167
 C1094 C 0.76910 0.53226 0.24446
 C1095 C 0.76416 0.52121 0.24941
 C1096 C 0.74981 0.47997 0.23598
 C1097 C 0.75462 0.46894 0.23084
 C1098 C 0.76761 0.46664 0.23081
 C1099 C 0.77565 0.47564 0.23601
 C1100 C 0.77083 0.48662 0.24115
 C1101 C 0.74757 0.48005 0.26680
 C1102 C 0.74287 0.46897 0.27193
 C1103 C 0.72991 0.46655 0.27192
 C1104 C 0.72178 0.47549 0.26673
 C1105 C 0.72648 0.48653 0.26159
 C1106 C 0.73948 0.51494 0.27357
 C1107 C 0.73452 0.52602 0.27840
 C1108 C 0.72871 0.53483 0.27060
 C1109 C 0.72793 0.53225 0.25784
 C1110 C 0.73289 0.52115 0.25302
 H1111 H 0.75313 0.50811 0.22282
 H1112 H 0.76177 0.52736 0.21409
 H1113 H 0.77356 0.53886 0.25065
 H1114 H 0.76497 0.51947 0.25926
 H1115 H 0.73980 0.48161 0.23577
 H1116 H 0.74816 0.46226 0.22685
 H1117 H 0.77722 0.49339 0.24513
 H1118 H 0.75756 0.48177 0.26700
 H1119 H 0.74940 0.46233 0.27592
 H1120 H 0.71175 0.47398 0.26659
 H1121 H 0.72003 0.49324 0.25759
 H1122 H 0.74396 0.50832 0.27977
 H1123 H 0.73527 0.52766 0.28827
 H1124 H 0.72346 0.53878 0.25157
 H1125 H 0.73209 0.51930 0.24320
 H1126 H 0.78569 0.47421 0.23612
 C1127 C 0.24433 -0.00119 0.74687
 C1128 C 0.25328 -0.00125 0.75586
 C1129 C 0.25880 -0.01310 0.76062
 C1130 C 0.25811 0.01054 0.76138
 C1131 C 0.23959 0.01066 0.74137
 C1132 C 0.23882 -0.01298 0.74199
 C1133 C 0.25866 -0.01554 0.77338
 C1134 C 0.26389 -0.02657 0.77805
 C1135 C 0.26947 -0.03535 0.77005
 C1136 C 0.26971 -0.03281 0.75726
 C1137 C 0.26448 -0.02175 0.75260
 C1138 C 0.24998 0.01927 0.76687
 C1139 C 0.25469 0.03033 0.77200
 C1140 C 0.26763 0.03280 0.77184
 C1141 C 0.27574 0.02392 0.76650
 C1142 C 0.27103 0.01290 0.76137
 C1143 C 0.24778 0.01931 0.73588
 C1144 C 0.24316 0.03040 0.73071
 C1145 C 0.23023 0.03299 0.73084
 C1146 C 0.22205 0.02420 0.73621
 C1147 C 0.22669 0.01314 0.74138
 C1148 C 0.23898 -0.01528 0.72921
 C1149 C 0.23382 -0.02626 0.72443
 C1150 C 0.22830 -0.03517 0.73234
 C1151 C 0.22802 -0.03277 0.74515
 C1152 C 0.23318 -0.02175 0.74992
 H1153 H 0.25439 -0.00894 0.77972
 H1154 H 0.26356 -0.02819 0.78794
 H1155 H 0.27399 -0.03932 0.75084
 H1156 H 0.26491 -0.01992 0.74274
 H1157 H 0.23999 0.01751 0.76719
 H1158 H 0.24818 0.03691 0.77610
 H1159 H 0.27746 0.00624 0.75725
 H1160 H 0.25776 0.01746 0.73557
 H1161 H 0.24972 0.03692 0.72659
 H1162 H 0.21204 0.02585 0.73644
 H1163 H 0.22020 0.00653 0.74550
 H1164 H 0.24323 -0.00859 0.72293
 H1165 H 0.23418 -0.02777 0.71453
 H1166 H 0.22379 -0.03938 0.75150
 H1167 H 0.23275 -0.02003 0.75980
 H1168 H 0.28576 0.02548 0.76624
 C1169 C 0.25624 0.24684 0.99981
 C1170 C 0.24723 0.25591 0.99976
 C1171 C 0.24231 0.26143 1.01142
 C1172 C 0.24173 0.26072 0.98805
 C1173 C 0.26171 0.24186 0.98816
 C1174 C 0.26102 0.24133 1.01152
 C1175 C 0.22938 0.26129 1.01373
 C1176 C 0.22457 0.26635 1.02466
 C1177 C 0.23259 0.27174 1.03350
 C1178 C 0.24554 0.27205 1.03106
 C1179 C 0.25035 0.26700 1.02010
 C1180 C 0.23607 0.25260 0.97951
 C1181 C 0.23092 0.25729 0.96855
 C1182 C 0.23123 0.27021 0.96598
 C1183 C 0.23676 0.27831 0.97466
 C1184 C 0.24191 0.27361 0.98559
 C1185 C 0.26731 0.24984 0.97942
 C1186 C 0.27233 0.24498 0.96846
 C1187 C 0.27194 0.23202 0.96609
 C1188 C 0.26651 0.22406 0.97498
 C1189 C 0.26150 0.22893 0.98590
 C1190 C 0.27392 0.24144 1.01395
 C1191 C 0.27861 0.23631 1.02490
 C1192 C 0.27047 0.23086 1.03363
 C1193 C 0.25755 0.23060 1.03108
 C1194 C 0.25288 0.23573 1.02010
 H1195 H 0.22302 0.25712 1.00710
 H1196 H 0.21455 0.26599 1.02618
 H1197 H 0.25198 0.27621 1.03762
 H1198 H 0.26033 0.26742 1.01838
 H1199 H 0.23562 0.24263 0.98136
 H1200 H 0.22667 0.25079 0.96212
 H1201 H 0.24617 0.28003 0.99211
 H1202 H 0.26779 0.25983 0.98110
 H1203 H 0.27650 0.25138 0.96186
 H1204 H 0.26609 0.21404 0.97349
 H1205 H 0.25729 0.22261 0.99256
 H1206 H 0.28036 0.24563 1.00738
 H1207 H 0.28861 0.23663 1.02652
 H1208 H 0.25102 0.22640 1.03755
 H1209 H 0.24291 0.23532 1.01827
 H1210 H 0.23714 0.28831 0.97302
 C1211 C 0.25547 0.74651 0.50074
 C1212 C 0.24638 0.75549 0.50075
 C1213 C 0.24138 0.76085 0.51244
 C1214 C 0.24091 0.76042 0.48907
 C1215 C 0.26093 0.74158 0.48906
 C1216 C 0.26044 0.74110 0.51242
 C1217 C 0.22846 0.76044 0.51478
 C1218 C 0.22356 0.76540 0.52572
 C1219 C 0.23149 0.77099 0.53452
 C1220 C 0.24443 0.77155 0.53207
 C1221 C 0.24932 0.76657 0.52111
 C1222 C 0.23533 0.75241 0.48038
 C1223 C 0.23028 0.75724 0.46943
 C1224 C 0.23061 0.77020 0.46702
 C1225 C 0.23604 0.77819 0.47586
 C1226 C 0.24110 0.77335 0.48678
 C1227 C 0.26651 0.74959 0.48034
 C1228 C 0.27153 0.74476 0.46937
 C1229 C 0.27117 0.73180 0.46697
 C1230 C 0.26574 0.72382 0.47584
 C1231 C 0.26072 0.72866 0.48677
 C1232 C 0.27335 0.74152 0.51477
 C1233 C 0.27822 0.73648 0.52569
 C1234 C 0.27028 0.73081 0.53445
 C1235 C 0.25735 0.73025 0.53199
 C1236 C 0.25248 0.73530 0.52105
 H1237 H 0.22217 0.75613 0.50817
 H1238 H 0.21356 0.76483 0.52726
 H1239 H 0.25079 0.77584 0.53861
 H1240 H 0.25929 0.76720 0.51936
 H1241 H 0.23488 0.74242 0.48209
 H1242 H 0.22611 0.75083 0.46287
 H1243 H 0.24529 0.77969 0.49341
 H1244 H 0.26698 0.75957 0.48204
 H1245 H 0.27571 0.75117 0.46279
 H1246 H 0.26533 0.71380 0.47434
 H1247 H 0.25652 0.72232 0.49342
 H1248 H 0.27965 0.74588 0.50819
 H1249 H 0.28822 0.73705 0.52724
 H1250 H 0.25097 0.72590 0.53849
 H1251 H 0.24252 0.73467 0.51929
 H1252 H 0.23643 0.78821 0.47435
 C1253 C 0.24713 0.74738 -0.00024
 C1254 C 0.25613 0.75644 -0.00025
 C1255 C 0.26175 0.76118 -0.01195
 C1256 C 0.26083 0.76207 0.01143
 C1257 C 0.24232 0.74180 0.01144
 C1258 C 0.24157 0.74258 -0.01192
 C1259 C 0.26735 0.75298 -0.02048
 C1260 C 0.27254 0.75759 -0.03147
 C1261 C 0.27234 0.77051 -0.03408
 C1262 C 0.26689 0.77869 -0.02540
 C1263 C 0.26170 0.77407 -0.01444
 C1264 C 0.27372 0.76211 0.01390
 C1265 C 0.27830 0.76730 0.02486
 C1266 C 0.27007 0.77265 0.03356
 C1267 C 0.25715 0.77277 0.03097
 C1268 C 0.25259 0.76759 0.01998
 C1269 C 0.22940 0.74174 0.01379
 C1270 C 0.22469 0.73645 0.02467
 C1271 C 0.23282 0.73102 0.03341
 C1272 C 0.24577 0.73096 0.03096
 C1273 C 0.25047 0.73625 0.02005
 C1274 C 0.23594 0.75073 -0.02048
 C1275 C 0.23067 0.74604 -0.03138
 C1276 C 0.23082 0.73311 -0.03386
 C1277 C 0.23635 0.72498 -0.02517
 C1278 C 0.24162 0.72968 -0.01430
 H1279 H 0.26771 0.74302 -0.01862
 H1280 H 0.27673 0.75102 -0.03790
 H1281 H 0.26660 0.78869 -0.02707
 H1282 H 0.25749 0.78056 -0.00794
 H1283 H 0.28024 0.75797 0.00738
 H1284 H 0.28830 0.76708 0.02651
 H1285 H 0.24262 0.76788 0.01814
 H1286 H 0.22295 0.74590 0.00723
 H1287 H 0.21467 0.73663 0.02622
 H1288 H 0.25230 0.72680 0.03744
 H1289 H 0.26046 0.73597 0.01830
 H1290 H 0.23559 0.76070 -0.01869
 H1291 H 0.22643 0.75256 -0.03782
 H1292 H 0.23661 0.71497 -0.02675
 H1293 H 0.24585 0.72323 -0.00777
 H1294 H 0.25055 0.77688 0.03742
 C1295 C 0.24708 0.24710 0.50001
 C1296 C 0.25609 0.25614 0.50001
 C1297 C 0.26169 0.26091 0.48832
 C1298 C 0.26081 0.26175 0.51169
 C1299 C 0.24229 0.24150 0.51169
 C1300 C 0.24151 0.24232 0.48833
 C1301 C 0.26728 0.25273 0.47976
 C1302 C 0.27245 0.25737 0.46878
 C1303 C 0.27223 0.27029 0.46621
 C1304 C 0.26681 0.27846 0.47492
 C1305 C 0.26163 0.27381 0.48587
 C1306 C 0.27370 0.26177 0.51415
 C1307 C 0.27830 0.26699 0.52508
 C1308 C 0.27009 0.27241 0.53376
 C1309 C 0.25717 0.27253 0.53119
 C1310 C 0.25258 0.26731 0.52023
 C1311 C 0.22937 0.24149 0.51408
 C1312 C 0.22469 0.23621 0.52497
 C1313 C 0.23283 0.23076 0.53368
 C1314 C 0.24577 0.23066 0.53119
 C1315 C 0.25045 0.23593 0.52027
 C1316 C 0.23590 0.25049 0.47977
 C1317 C 0.23064 0.24583 0.46886
 C1318 C 0.23077 0.23289 0.46636
 C1319 C 0.23626 0.22474 0.47505
 C1320 C 0.24152 0.22942 0.48594
 H1321 H 0.26764 0.24276 0.48160
 H1322 H 0.27662 0.25082 0.46232
 H1323 H 0.26651 0.28846 0.47328
 H1324 H 0.25744 0.28028 0.49240
 H1325 H 0.28021 0.25760 0.50763
 H1326 H 0.28830 0.26676 0.52672
 H1327 H 0.24261 0.26761 0.51839
 H1328 H 0.22292 0.24567 0.50753
 H1329 H 0.21467 0.23643 0.52655
 H1330 H 0.25230 0.22648 0.53765
 H1331 H 0.26043 0.23563 0.51848
 H1332 H 0.23557 0.26046 0.48156
 H1333 H 0.22644 0.25236 0.46241
 H1334 H 0.23650 0.21474 0.47346
 H1335 H 0.24573 0.22296 0.49247
 H1336 H 0.25058 0.27668 0.53763
 C1337 C 0.75527 0.74540 1.00077
 C1338 C 0.74628 0.75447 1.00083
 C1339 C 0.74087 0.75937 1.01254
 C1340 C 0.74132 0.75996 0.98918
 C1341 C 0.76007 0.73989 0.98905
 C1342 C 0.76081 0.74047 1.01241
 C1343 C 0.73525 0.75133 1.02121
 C1344 C 0.73020 0.75612 1.03218
 C1345 C 0.73058 0.76906 1.03464
 C1346 C 0.73607 0.77708 1.02584
 C1347 C 0.74111 0.77228 1.01489
 C1348 C 0.72839 0.75979 0.98692
 C1349 C 0.72354 0.76486 0.97601
 C1350 C 0.73153 0.77029 0.96714
 C1351 C 0.74449 0.77061 0.96952
 C1352 C 0.74933 0.76555 0.98046
 C1353 C 0.77296 0.74004 0.98659
 C1354 C 0.77765 0.73497 0.97560
 C1355 C 0.76952 0.72956 0.96687
 C1356 C 0.75660 0.72925 0.96946
 C1357 C 0.75193 0.73432 0.98047
 C1358 C 0.76649 0.74849 1.02103
 C1359 C 0.77159 0.74369 1.03197
 C1360 C 0.77121 0.73075 1.03445
 C1361 C 0.76568 0.72274 1.02568
 C1362 C 0.76058 0.72756 1.01477
 H1363 H 0.73475 0.74136 1.01945
 H1364 H 0.72599 0.74968 1.03872
 H1365 H 0.73649 0.78709 1.02739
 H1366 H 0.74533 0.77864 1.00828
 H1367 H 0.72205 0.75559 0.99357
 H1368 H 0.71352 0.76447 0.97452
 H1369 H 0.75932 0.76599 0.98214
 H1370 H 0.77940 0.74423 0.99313
 H1371 H 0.78765 0.73534 0.97395
 H1372 H 0.75008 0.72509 0.96299
 H1373 H 0.74196 0.73389 0.98231
 H1374 H 0.76698 0.75847 1.01927
 H1375 H 0.77584 0.75012 1.03848
 H1376 H 0.76525 0.71273 1.02724
 H1377 H 0.75631 0.72120 1.00819
 H1378 H 0.75090 0.77479 0.96293
 C1379 C 0.75566 0.24558 0.49976
 C1380 C 0.74659 0.25458 0.49970
 C1381 C 0.74168 0.26013 0.51136
 C1382 C 0.74103 0.25933 0.48800
 C1383 C 0.76122 0.24069 0.48810
 C1384 C 0.76046 0.24008 0.51148
 C1385 C 0.72876 0.25998 0.51369
 C1386 C 0.72396 0.26511 0.52460
 C1387 C 0.73198 0.27058 0.53338
 C1388 C 0.74493 0.27088 0.53093
 C1389 C 0.74973 0.26576 0.51999
 C1390 C 0.73545 0.25116 0.47946
 C1391 C 0.73020 0.25580 0.46852
 C1392 C 0.73034 0.26873 0.46597
 C1393 C 0.73580 0.27689 0.47463
 C1394 C 0.74105 0.27223 0.48555
 C1395 C 0.76675 0.24877 0.47941
 C1396 C 0.77186 0.24401 0.46845
 C1397 C 0.77163 0.23106 0.46603
 C1398 C 0.76625 0.22300 0.47487
 C1399 C 0.76115 0.22777 0.48580
 C1400 C 0.77336 0.24022 0.51391
 C1401 C 0.77804 0.23512 0.52488
 C1402 C 0.76992 0.22967 0.53362
 C1403 C 0.75700 0.22939 0.53107
 C1404 C 0.75232 0.23449 0.52007
 H1405 H 0.72239 0.25576 0.50710
 H1406 H 0.71394 0.26474 0.52614
 H1407 H 0.75138 0.27508 0.53745
 H1408 H 0.75971 0.26618 0.51825
 H1409 H 0.73511 0.24119 0.48129
 H1410 H 0.72601 0.24926 0.46209
 H1411 H 0.74524 0.27870 0.49206
 H1412 H 0.76712 0.25876 0.48113
 H1413 H 0.77598 0.25048 0.46189
 H1414 H 0.76594 0.21298 0.47334
 H1415 H 0.75699 0.22138 0.49242
 H1416 H 0.77979 0.24442 0.50735
 H1417 H 0.78805 0.23547 0.52650
 H1418 H 0.75048 0.22521 0.53755
 H1419 H 0.74235 0.23406 0.51825
 H1420 H 0.73605 0.28689 0.47301
 C1421 C 0.74709 0.24641 -0.00073
 C1422 C 0.75611 0.25544 -0.00085
 C1423 C 0.76162 0.26017 -0.01259
 C1424 C 0.76094 0.26109 0.01077
 C1425 C 0.74226 0.24100 0.01102
 C1426 C 0.74151 0.24150 -0.01235
 C1427 C 0.76717 0.25199 -0.02117
 C1428 C 0.77225 0.25661 -0.03220
 C1429 C 0.77197 0.26952 -0.03482
 C1430 C 0.76657 0.27769 -0.02610
 C1431 C 0.76149 0.27306 -0.01509
 C1432 C 0.77385 0.26098 0.01316
 C1433 C 0.77856 0.26618 0.02407
 C1434 C 0.77045 0.27167 0.03279
 C1435 C 0.75751 0.27194 0.03027
 C1436 C 0.75282 0.26675 0.01934
 C1437 C 0.72935 0.24115 0.01342
 C1438 C 0.72463 0.23611 0.02441
 C1439 C 0.73273 0.23072 0.03320
 C1440 C 0.74567 0.23044 0.03069
 C1441 C 0.75038 0.23548 0.01968
 C1442 C 0.73588 0.24956 -0.02099
 C1443 C 0.73068 0.24477 -0.03188
 C1444 C 0.73091 0.23181 -0.03427
 C1445 C 0.73640 0.22377 -0.02548
 C1446 C 0.74160 0.22857 -0.01462
 H1447 H 0.76758 0.24203 -0.01930
 H1448 H 0.77639 0.25006 -0.03867
 H1449 H 0.76623 0.28769 -0.02777
 H1450 H 0.75732 0.27954 -0.00856
 H1451 H 0.78028 0.25673 0.00663
 H1452 H 0.78856 0.26584 0.02566
 H1453 H 0.74284 0.26715 0.01755
 H1454 H 0.72293 0.24529 0.00683
 H1455 H 0.71462 0.23646 0.02600
 H1456 H 0.75217 0.22631 0.03722
 H1457 H 0.76036 0.23506 0.01789
 H1458 H 0.73550 0.25954 -0.01929
 H1459 H 0.72647 0.25122 -0.03840
 H1460 H 0.73670 0.21375 -0.02699
 H1461 H 0.74582 0.22220 -0.00802
 H1462 H 0.75100 0.27616 0.03674
 C1463 C 0.74704 0.74626 0.49961
 C1464 C 0.75600 0.75535 0.49959
 C1465 C 0.76154 0.76017 0.48789
 C1466 C 0.76075 0.76096 0.51126
 C1467 C 0.74223 0.74071 0.51130
 C1468 C 0.74154 0.74138 0.48794
 C1469 C 0.76719 0.75205 0.47932
 C1470 C 0.77231 0.75673 0.46833
 C1471 C 0.77198 0.76965 0.46576
 C1472 C 0.76648 0.77777 0.47448
 C1473 C 0.76136 0.77307 0.48544
 C1474 C 0.77365 0.76094 0.51369
 C1475 C 0.77828 0.76609 0.52465
 C1476 C 0.77009 0.77145 0.53338
 C1477 C 0.75716 0.77163 0.53083
 C1478 C 0.75255 0.76648 0.51985
 C1479 C 0.72931 0.74071 0.51367
 C1480 C 0.72460 0.73550 0.52458
 C1481 C 0.73272 0.73009 0.53334
 C1482 C 0.74567 0.72997 0.53087
 C1483 C 0.75037 0.73517 0.51993
 C1484 C 0.73586 0.74945 0.47934
 C1485 C 0.73069 0.74469 0.46842
 C1486 C 0.73100 0.73175 0.46597
 C1487 C 0.73655 0.72370 0.47471
 C1488 C 0.74172 0.72847 0.48559
 H1489 H 0.76764 0.74208 0.48115
 H1490 H 0.77653 0.75022 0.46187
 H1491 H 0.76610 0.78776 0.47284
 H1492 H 0.75712 0.77950 0.49197
 H1493 H 0.78013 0.75680 0.50715
 H1494 H 0.78828 0.76583 0.52627
 H1495 H 0.74257 0.76681 0.51803
 H1496 H 0.72287 0.74486 0.50709
 H1497 H 0.71458 0.73573 0.52614
 H1498 H 0.75218 0.72582 0.53737
 H1499 H 0.76035 0.73486 0.51816
 H1500 H 0.73541 0.75943 0.48110
 H1501 H 0.72643 0.75115 0.46194
 H1502 H 0.73693 0.71369 0.47315
 H1503 H 0.74599 0.72209 0.49216
 H1504 H 0.75060 0.77574 0.53731
 C1505 C 0.99898 0.25327 0.24351
 C1506 C 0.99906 0.24432 0.25253
 C1507 C 1.01092 0.23965 0.25806
 C1508 C 0.98728 0.23878 0.25742
 C1509 C 0.98712 0.25877 0.23877
 C1510 C 1.01077 0.25811 0.23796
 C1511 C 1.01345 0.22676 0.25814
 C1512 C 1.02451 0.22218 0.26337
 C1513 C 1.03324 0.23041 0.26872
 C1514 C 1.03061 0.24333 0.26875
 C1515 C 1.01953 0.24790 0.26352
 C1516 C 0.97854 0.23312 0.24950
 C1517 C 0.96752 0.22794 0.25428
 C1518 C 0.96509 0.22823 0.26709
 C1519 C 0.97397 0.23376 0.27499
 C1520 C 0.98496 0.23894 0.27020
 C1521 C 0.97845 0.26441 0.24680
 C1522 C 0.96738 0.26963 0.24217
 C1523 C 0.96483 0.26941 0.22939
 C1524 C 0.97363 0.26387 0.22137
 C1525 C 0.98467 0.25866 0.22602
 C1526 C 1.01310 0.27103 0.23792
 C1527 C 1.02414 0.27576 0.23279
 C1528 C 1.03306 0.26765 0.22749
 C1529 C 1.03061 0.25470 0.22738
 C1530 C 1.01954 0.24999 0.23252
 H1531 H 1.00688 0.22024 0.25404
 H1532 H 1.02619 0.21218 0.26321
 H1533 H 1.03708 0.24993 0.27286
 H1534 H 1.01763 0.25786 0.26378
 H1535 H 0.98028 0.23268 0.23963
 H1536 H 0.96093 0.22369 0.24794
 H1537 H 0.99163 0.24320 0.27647
 H1538 H 0.98028 0.26482 0.25666
 H1539 H 0.96085 0.27387 0.24860
 H1540 H 0.97201 0.26356 0.21148
 H1541 H 0.99129 0.25442 0.21966
 H1542 H 1.00642 0.27746 0.24201
 H1543 H 1.02568 0.28578 0.23301
 H1544 H 1.03722 0.24820 0.22332
 H1545 H 1.01780 0.24000 0.23224
 H1546 H 0.97245 0.23413 0.28489
 C1547 C 0.49867 0.25374 0.74388
 C1548 C 0.49871 0.24483 0.75293
 C1549 C 0.51055 0.24019 0.75852
 C1550 C 0.48692 0.23928 0.75778
 C1551 C 0.48683 0.25924 0.73911
 C1552 C 0.51047 0.25851 0.73831
 C1553 C 0.51309 0.22731 0.75865
 C1554 C 0.52414 0.22277 0.76392
 C1555 C 0.53285 0.23103 0.76926
 C1556 C 0.53021 0.24395 0.76924
 C1557 C 0.51913 0.24848 0.76397
 C1558 C 0.47823 0.23359 0.74983
 C1559 C 0.46721 0.22837 0.75456
 C1560 C 0.46473 0.22864 0.76736
 C1561 C 0.47356 0.23421 0.77530
 C1562 C 0.48455 0.23942 0.77055
 C1563 C 0.47816 0.26491 0.74713
 C1564 C 0.46709 0.27011 0.74248
 C1565 C 0.46455 0.26984 0.72970
 C1566 C 0.47335 0.26429 0.72170
 C1567 C 0.48439 0.25909 0.72636
 C1568 C 0.51285 0.27142 0.73820
 C1569 C 0.52389 0.27609 0.73302
 C1570 C 0.53277 0.26792 0.72776
 C1571 C 0.53028 0.25498 0.72773
 C1572 C 0.51921 0.25033 0.73291
 H1573 H 0.50654 0.22076 0.75457
 H1574 H 0.52584 0.21277 0.76380
 H1575 H 0.53667 0.25057 0.77332
 H1576 H 0.51723 0.25844 0.76418
 H1577 H 0.48001 0.23316 0.73996
 H1578 H 0.46066 0.22410 0.74819
 H1579 H 0.49118 0.24370 0.77685
 H1580 H 0.47999 0.26535 0.75699
 H1581 H 0.46056 0.27437 0.74890
 H1582 H 0.47173 0.26394 0.71181
 H1583 H 0.49101 0.25483 0.72002
 H1584 H 0.50618 0.27790 0.74225
 H1585 H 0.52546 0.28610 0.73317
 H1586 H 0.53687 0.24843 0.72370
 H1587 H 0.51744 0.24034 0.73269
 H1588 H 0.47200 0.23456 0.78520
 C1589 C 0.00103 0.24500 0.74329
 C1590 C 0.00097 0.25400 0.75222
 C1591 C -0.01089 0.25944 0.75705
 C1592 C 0.01274 0.25888 0.75772
 C1593 C 0.01289 0.24011 0.73792
 C1594 C -0.01075 0.23952 0.73840
 C1595 C -0.01962 0.26510 0.74911
 C1596 C -0.03073 0.27016 0.75384
 C1597 C -0.03324 0.26975 0.76663
 C1598 C -0.02437 0.26422 0.77456
 C1599 C -0.01330 0.25916 0.76981
 C1600 C 0.01508 0.27180 0.75760
 C1601 C 0.02603 0.27658 0.76281
 C1602 C 0.03485 0.26854 0.76834
 C1603 C 0.03241 0.25559 0.76857
 C1604 C 0.02143 0.25081 0.76336
 C1605 C 0.01526 0.22719 0.73809
 C1606 C 0.02636 0.22241 0.73313
 C1607 C 0.03530 0.23045 0.72780
 C1608 C 0.03281 0.24340 0.72748
 C1609 C 0.02168 0.24817 0.73245
 C1610 C -0.01952 0.23387 0.74633
 C1611 C -0.03061 0.22885 0.74158
 C1612 C -0.03308 0.22927 0.72879
 C1613 C -0.02415 0.23476 0.72087
 C1614 C -0.01310 0.23978 0.72563
 H1615 H -0.01782 0.26562 0.73925
 H1616 H -0.03732 0.27441 0.74748
 H1617 H -0.02596 0.26377 0.78445
 H1618 H -0.00664 0.25490 0.77610
 H1619 H 0.00844 0.27818 0.75337
 H1620 H 0.02757 0.28660 0.76249
 H1621 H 0.01967 0.24083 0.76376
 H1622 H 0.00856 0.22081 0.74221
 H1623 H 0.02793 0.21239 0.73350
 H1624 H 0.03944 0.24985 0.72339
 H1625 H 0.01992 0.25816 0.73201
 H1626 H -0.01777 0.23336 0.75620
 H1627 H -0.03723 0.22463 0.74793
 H1628 H -0.02571 0.23521 0.71098
 H1629 H -0.00641 0.24403 0.71936
 H1630 H 0.03896 0.24914 0.77281
 C1631 C 0.50154 0.24391 0.24288
 C1632 C 0.50151 0.25271 0.25201
 C1633 C 0.48968 0.25760 0.25745
 C1634 C 0.51332 0.25800 0.25706
 C1635 C 0.51338 0.23857 0.23793
 C1636 C 0.48974 0.23910 0.23735
 C1637 C 0.48746 0.27055 0.25755
 C1638 C 0.47645 0.27536 0.26266
 C1639 C 0.46744 0.26732 0.26787
 C1640 C 0.46976 0.25434 0.26790
 C1641 C 0.48081 0.24953 0.26279
 C1642 C 0.52207 0.26392 0.24933
 C1643 C 0.53308 0.26895 0.25428
 C1644 C 0.53547 0.26824 0.26708
 C1645 C 0.52660 0.26239 0.27478
 C1646 C 0.51562 0.25737 0.26982
 C1647 C 0.52205 0.23262 0.24575
 C1648 C 0.53314 0.22764 0.24092
 C1649 C 0.53573 0.22842 0.22816
 C1650 C 0.52692 0.23425 0.22036
 C1651 C 0.51585 0.23922 0.22520
 C1652 C 0.48745 0.22618 0.23723
 C1653 C 0.47640 0.22145 0.23214
 C1654 C 0.46743 0.22957 0.22698
 C1655 C 0.46984 0.24253 0.22694
 C1656 C 0.48092 0.24725 0.23202
 H1657 H 0.49424 0.27693 0.25356
 H1658 H 0.47501 0.28540 0.26251
 H1659 H 0.46306 0.24788 0.27189
 H1660 H 0.48246 0.23952 0.26303
 H1661 H 0.52036 0.26471 0.23948
 H1662 H 0.53967 0.27344 0.24808
 H1663 H 0.50894 0.25290 0.27595
 H1664 H 0.52020 0.23182 0.25558
 H1665 H 0.53967 0.22315 0.24718
 H1666 H 0.52856 0.23499 0.21049
 H1667 H 0.50924 0.24371 0.21901
 H1668 H 0.49418 0.21973 0.24123
 H1669 H 0.47490 0.21143 0.23231
 H1670 H 0.46318 0.24905 0.22298
 H1671 H 0.48263 0.25724 0.23180
 H1672 H 0.52809 0.26169 0.28467
 C1673 C 0.99792 0.75432 0.74526
 C1674 C 0.99795 0.74542 0.75432
 C1675 C 1.00979 0.74065 0.75982
 C1676 C 0.98614 0.73996 0.75923
 C1677 C 0.98609 0.75980 0.74043
 C1678 C 1.00973 0.75909 0.73971
 C1679 C 1.01222 0.72774 0.75988
 C1680 C 1.02328 0.72308 0.76501
 C1681 C 1.03213 0.73124 0.77029
 C1682 C 1.02959 0.74418 0.77036
 C1683 C 1.01850 0.74883 0.76522
 C1684 C 0.97740 0.73426 0.75134
 C1685 C 0.96636 0.72913 0.75615
 C1686 C 0.96392 0.72950 0.76895
 C1687 C 0.97280 0.73509 0.77682
 C1688 C 0.98381 0.74021 0.77201
 C1689 C 0.97738 0.76553 0.74838
 C1690 C 0.96634 0.77072 0.74365
 C1691 C 0.96386 0.77039 0.73086
 C1692 C 0.97269 0.76478 0.72293
 C1693 C 0.98370 0.75959 0.72767
 C1694 C 1.01211 0.77201 0.73964
 C1695 C 1.02315 0.77668 0.73446
 C1696 C 1.03201 0.76853 0.72914
 C1697 C 1.02952 0.75559 0.72907
 C1698 C 1.01845 0.75092 0.73426
 H1699 H 1.00557 0.72127 0.75583
 H1700 H 1.02489 0.71307 0.76483
 H1701 H 1.03616 0.75072 0.77440
 H1702 H 1.01669 0.75881 0.76548
 H1703 H 0.97914 0.73375 0.74148
 H1704 H 0.95977 0.72485 0.74983
 H1705 H 0.99048 0.74450 0.77826
 H1706 H 0.97917 0.76601 0.75824
 H1707 H 0.95979 0.77502 0.75001
 H1708 H 0.97112 0.76438 0.71303
 H1709 H 0.99034 0.75529 0.72137
 H1710 H 1.00546 0.77847 0.74373
 H1711 H 1.02473 0.78670 0.73465
 H1712 H 1.03609 0.74905 0.72500
 H1713 H 1.01667 0.74094 0.73400
 H1714 H 0.97126 0.73552 0.78672
 C1715 C 0.49842 0.75359 0.24518
 C1716 C 0.49844 0.74467 0.25422
 C1717 C 0.51027 0.73997 0.25978
 C1718 C 0.48664 0.73914 0.25906
 C1719 C 0.48659 0.75900 0.24028
 C1720 C 0.51023 0.75846 0.23974
 C1721 C 0.51279 0.72708 0.25978
 C1722 C 0.52385 0.72247 0.26497
 C1723 C 0.53259 0.73067 0.27036
 C1724 C 0.52995 0.74359 0.27049
 C1725 C 0.51886 0.74819 0.26530
 C1726 C 0.47798 0.73339 0.25111
 C1727 C 0.46694 0.72820 0.25585
 C1728 C 0.46443 0.72856 0.26864
 C1729 C 0.47323 0.73418 0.27656
 C1730 C 0.48423 0.73937 0.27182
 C1731 C 0.47780 0.76466 0.24819
 C1732 C 0.46674 0.76974 0.24340
 C1733 C 0.46432 0.76937 0.23060
 C1734 C 0.47324 0.76383 0.22271
 C1735 C 0.48427 0.75874 0.22751
 C1736 C 0.51255 0.77139 0.23979
 C1737 C 0.52361 0.77615 0.23476
 C1738 C 0.53257 0.76808 0.22948
 C1739 C 0.53014 0.75513 0.22929
 C1740 C 0.51904 0.75037 0.23432
 H1741 H 0.50623 0.72058 0.25564
 H1742 H 0.52554 0.71248 0.26474
 H1743 H 0.53643 0.75017 0.27462
 H1744 H 0.51697 0.75815 0.26561
 H1745 H 0.47979 0.73290 0.24126
 H1746 H 0.46041 0.72388 0.24949
 H1747 H 0.49084 0.74369 0.27811
 H1748 H 0.47954 0.76517 0.25805
 H1749 H 0.46012 0.77400 0.24973
 H1750 H 0.47171 0.76341 0.21281
 H1751 H 0.49097 0.75449 0.22125
 H1752 H 0.50582 0.77778 0.24386
 H1753 H 0.52514 0.78617 0.23504
 H1754 H 0.53679 0.74865 0.22524
 H1755 H 0.51731 0.74039 0.23398
 H1756 H 0.47163 0.73460 0.28646
 C1757 C 0.00161 0.74375 0.24492
 C1758 C 0.00154 0.75284 0.25378
 C1759 C -0.01030 0.75833 0.25858
 C1760 C 0.01333 0.75779 0.25918
 C1761 C 0.01347 0.73893 0.23950
 C1762 C -0.01016 0.73819 0.24011
 C1763 C -0.01909 0.76383 0.25059
 C1764 C -0.03016 0.76900 0.25530
 C1765 C -0.03257 0.76888 0.26812
 C1766 C -0.02363 0.76351 0.27609
 C1767 C -0.01261 0.75833 0.27136
 C1768 C 0.01565 0.77071 0.25891
 C1769 C 0.02664 0.77555 0.26400
 C1770 C 0.03551 0.76757 0.26954
 C1771 C 0.03309 0.75462 0.26991
 C1772 C 0.02207 0.74979 0.26483
 C1773 C 0.01597 0.72603 0.23976
 C1774 C 0.02704 0.72131 0.23468
 C1775 C 0.03582 0.72939 0.22914
 C1776 C 0.03321 0.74231 0.22876
 C1777 C 0.02211 0.74702 0.23385
 C1778 C -0.01892 0.73263 0.24811
 C1779 C -0.03000 0.72751 0.24341
 C1780 C -0.03245 0.72776 0.23061
 C1781 C -0.02353 0.73316 0.22263
 C1782 C -0.01249 0.73828 0.22734
 H1783 H -0.01737 0.76415 0.24071
 H1784 H -0.03679 0.77312 0.24890
 H1785 H -0.02514 0.76328 0.28600
 H1786 H -0.00589 0.75421 0.27769
 H1787 H 0.00899 0.77704 0.25466
 H1788 H 0.02817 0.78557 0.26357
 H1789 H 0.02033 0.73981 0.26533
 H1790 H 0.00938 0.71963 0.24401
 H1791 H 0.02871 0.71132 0.23511
 H1792 H 0.03971 0.74880 0.22451
 H1793 H 0.02024 0.75698 0.23334
 H1794 H -0.01718 0.73225 0.25798
 H1795 H -0.03662 0.72337 0.24980
 H1796 H -0.02507 0.73349 0.21273
 H1797 H -0.00581 0.74246 0.22102
 H1798 H 0.03967 0.74821 0.27416
 C1799 C 0.50145 0.74474 0.74452
 C1800 C 0.50146 0.75375 0.75345
 C1801 C 0.48965 0.75924 0.75832
 C1802 C 0.51328 0.75861 0.75888
 C1803 C 0.51326 0.73983 0.73908
 C1804 C 0.48962 0.73928 0.73970
 C1805 C 0.48091 0.76494 0.75040
 C1806 C 0.46986 0.77007 0.75516
 C1807 C 0.46738 0.76969 0.76796
 C1808 C 0.47625 0.76411 0.77586
 C1809 C 0.48728 0.75898 0.77109
 C1810 C 0.51565 0.77152 0.75875
 C1811 C 0.52665 0.77629 0.76390
 C1812 C 0.53549 0.76824 0.76938
 C1813 C 0.53303 0.75529 0.76960
 C1814 C 0.52200 0.75053 0.76445
 C1815 C 0.51564 0.72692 0.73926
 C1816 C 0.52668 0.72212 0.73420
 C1817 C 0.53556 0.73014 0.72874
 C1818 C 0.53307 0.74309 0.72842
 C1819 C 0.52200 0.74788 0.73349
 C1820 C 0.48090 0.73360 0.74767
 C1821 C 0.46983 0.72850 0.74296
 C1822 C 0.46731 0.72888 0.73017
 C1823 C 0.47616 0.73443 0.72222
 C1824 C 0.48721 0.73953 0.72694
 H1825 H 0.48268 0.76544 0.74053
 H1826 H 0.46327 0.77435 0.74882
 H1827 H 0.47468 0.76367 0.78576
 H1828 H 0.49393 0.75469 0.77736
 H1829 H 0.50900 0.77791 0.75456
 H1830 H 0.52820 0.78631 0.76358
 H1831 H 0.52024 0.74055 0.76486
 H1832 H 0.50897 0.72055 0.74346
 H1833 H 0.52825 0.71210 0.73458
 H1834 H 0.53965 0.74953 0.72423
 H1835 H 0.52022 0.75786 0.73304
 H1836 H 0.48269 0.73311 0.75752
 H1837 H 0.46326 0.72425 0.74934
 H1838 H 0.47457 0.73487 0.71234
 H1839 H 0.49385 0.74380 0.72064
 H1840 H 0.53960 0.74882 0.77380
 N1841 N 0.39756 0.30747 0.29327
 C1842 C 0.40277 0.29704 0.29828
 N1843 N 0.39750 0.29188 0.30851
 N1844 N 0.38732 0.29699 0.31357
 C1845 C 0.38208 0.30744 0.30859
 N1846 N 0.38738 0.31258 0.29834
 C1847 C 0.41384 0.29165 0.29293
 C1848 C 0.42320 0.28721 0.28847
 C1849 C 0.43442 0.28208 0.28317
 N1850 N 0.43648 0.26955 0.28320
 N1851 N 0.44695 0.26484 0.27834
 C1852 C 0.45575 0.27250 0.27327
 N1853 N 0.45361 0.28506 0.27327
 N1854 N 0.44314 0.28976 0.27813
 N1855 N 0.39732 0.79419 0.80779
 C1856 C 0.40239 0.79956 0.79757
 N1857 N 0.39691 0.80991 0.79271
 N1858 N 0.38666 0.81474 0.79790
 C1859 C 0.38155 0.80940 0.80815
 N1860 N 0.38707 0.79902 0.81299
 C1861 C 0.41354 0.79444 0.79210
 C1862 C 0.42296 0.79012 0.78766
 C1863 C 0.43425 0.78493 0.78258
 N1864 N 0.43654 0.78545 0.77024
 N1865 N 0.44706 0.78061 0.76558
 C1866 C 0.45566 0.77508 0.77309
 N1867 N 0.45329 0.77460 0.78545
 N1868 N 0.44279 0.77943 0.79011
 N1869 N -0.10429 0.29340 0.80531
 C1870 C -0.09811 0.29976 0.79631
 N1871 N -0.10229 0.31125 0.79290
 N1872 N -0.11234 0.31624 0.79833
 C1873 C -0.11853 0.30990 0.80737
 N1874 N -0.11433 0.29838 0.81075
 C1875 C -0.08708 0.29453 0.79074
 C1876 C -0.07771 0.29013 0.78625
 C1877 C -0.06644 0.28489 0.78118
 N1878 N -0.06418 0.28533 0.76883
 N1879 N -0.05364 0.28052 0.76419
 C1880 C -0.04500 0.27509 0.77173
 N1881 N -0.04736 0.27468 0.78410
 N1882 N -0.05788 0.27949 0.78873
 N1883 N -0.10297 0.80938 0.29263
 C1884 C -0.09753 0.79901 0.29749
 N1885 N -0.10263 0.79364 0.30770
 N1886 N -0.11288 0.79848 0.31287
 C1887 C -0.11836 0.80887 0.30803
 N1888 N -0.11323 0.81423 0.29781
 C1889 C -0.08639 0.79387 0.29205
 C1890 C -0.07697 0.78952 0.28763
 C1891 C -0.06568 0.78428 0.28260
 N1892 N -0.05699 0.77916 0.29021
 N1893 N -0.04649 0.77428 0.28560
 C1894 C -0.04428 0.77433 0.27320
 N1895 N -0.05304 0.77948 0.26560
 N1896 N -0.06355 0.78437 0.27022
 N1897 N 0.60304 0.70752 0.31096
 C1898 C 0.59788 0.70239 0.30068
 N1899 N 0.60339 0.69223 0.29547
 N1900 N 0.61375 0.68735 0.30038
 C1901 C 0.61894 0.69246 0.31068
 N1902 N 0.61340 0.70264 0.31587
 C1903 C 0.58665 0.70755 0.29545
 C1904 C 0.57718 0.71177 0.29104
 C1905 C 0.56584 0.71663 0.28577
 N1906 N 0.55740 0.70878 0.28057
 N1907 N 0.54685 0.71325 0.27568
 C1908 C 0.54435 0.72574 0.27581
 N1909 N 0.55287 0.73357 0.28105
 N1910 N 0.56343 0.72910 0.28594
 N1911 N 0.60324 0.20828 0.81031
 C1912 C 0.59793 0.20296 0.80020
 N1913 N 0.60321 0.19255 0.79524
 N1914 N 0.61350 0.18761 0.80024
 C1915 C 0.61884 0.19290 0.81036
 N1916 N 0.61353 0.20333 0.81531
 C1917 C 0.58675 0.20815 0.79490
 C1918 C 0.57731 0.21236 0.79042
 C1919 C 0.56601 0.21717 0.78503
 N1920 N 0.55760 0.20926 0.77985
 N1921 N 0.54708 0.21367 0.77485
 C1922 C 0.54458 0.22616 0.77483
 N1923 N 0.55306 0.23405 0.78004
 N1924 N 0.56359 0.22964 0.78505
 N1925 N 1.10293 0.69256 0.79550
 C1926 C 1.09739 0.70276 0.80061
 N1927 N 1.10252 0.70799 0.81086
 N1928 N 1.11287 0.70317 0.81584
 C1929 C 1.11844 0.69295 0.81075
 N1930 N 1.11329 0.68774 0.80048
 C1931 C 1.08617 0.70788 0.79531
 C1932 C 1.07670 0.71211 0.79088
 C1933 C 1.06538 0.71703 0.78561
 N1934 N 1.06306 0.72951 0.78570
 N1935 N 1.05251 0.73404 0.78084
 C1936 C 1.04389 0.72624 0.77570
 N1937 N 1.04630 0.71373 0.77564
 N1938 N 1.05684 0.70921 0.78050
 N1939 N 1.10396 0.19227 0.29480
 C1940 C 1.09831 0.20243 0.29986
 N1941 N 1.10330 0.20769 0.31015
 N1942 N 1.11364 0.20293 0.31523
 C1943 C 1.11932 0.19275 0.31019
 N1944 N 1.11430 0.18751 0.29987
 C1945 C 1.08712 0.20748 0.29444
 C1946 C 1.07768 0.21164 0.28989
 C1947 C 1.06639 0.21647 0.28447
 N1948 N 1.06398 0.22894 0.28452
 N1949 N 1.05346 0.23338 0.27951
 C1950 C 1.04497 0.22551 0.27427
 N1951 N 1.04747 0.21302 0.27426
 N1952 N 1.05797 0.20858 0.27926
 N1953 N 0.60360 0.29165 0.68783
 C1954 C 0.59808 0.29675 0.69796
 N1955 N 0.60323 0.30708 0.70319
 N1956 N 0.61357 0.31215 0.69844
 C1957 C 0.61911 0.30707 0.68829
 N1958 N 0.61395 0.29672 0.68308
 C1959 C 0.58685 0.29141 0.70301
 C1960 C 0.57737 0.28709 0.70730
 C1961 C 0.56601 0.28215 0.71248
 N1962 N 0.55741 0.28996 0.71754
 N1963 N 0.54686 0.28543 0.72237
 C1964 C 0.54452 0.27292 0.72233
 N1965 N 0.55319 0.26513 0.71724
 N1966 N 0.56375 0.26966 0.71240
 N1967 N 0.60322 0.79221 0.18984
 C1968 C 0.59795 0.79722 0.20014
 N1969 N 0.60336 0.80735 0.20549
 N1970 N 0.61373 0.81232 0.20067
 C1971 C 0.61902 0.80734 0.19035
 N1972 N 0.61358 0.79719 0.18503
 C1973 C 0.58672 0.79195 0.20525
 C1974 C 0.57723 0.78762 0.20953
 C1975 C 0.56588 0.78260 0.21463
 N1976 N 0.55723 0.79032 0.21972
 N1977 N 0.54666 0.78570 0.22443
 C1978 C 0.54435 0.77318 0.22422
 N1979 N 0.55308 0.76548 0.21910
 N1980 N 0.56366 0.77010 0.21438
 N1981 N 1.10348 0.30718 0.20331
 C1982 C 1.09838 0.29685 0.19804
 N1983 N 1.10395 0.29179 0.18792
 N1984 N 1.11430 0.29691 0.18321
 C1985 C 1.11942 0.30726 0.18847
 N1986 N 1.11382 0.31229 0.19861
 C1987 C 1.08715 0.29146 0.20303
 C1988 C 1.07766 0.28708 0.20728
 C1989 C 1.06630 0.28208 0.21239
 N1990 N 1.06408 0.26958 0.21223
 N1991 N 1.05352 0.26499 0.21701
 C1992 C 1.04481 0.27272 0.22213
 N1993 N 1.04712 0.28524 0.22225
 N1994 N 1.05766 0.28984 0.21747
 N1995 N 1.10237 0.80779 0.70434
 C1996 C 1.09722 0.79744 0.69916
 N1997 N 1.10272 0.79230 0.68904
 N1998 N 1.11305 0.79737 0.68423
 C1999 C 1.11822 0.80774 0.68940
 N2000 N 1.11269 0.81285 0.69954
 C2001 C 1.08601 0.79210 0.70426
 C2002 C 1.07655 0.78776 0.70859
 C2003 C 1.06521 0.78281 0.71380
 N2004 N 1.06295 0.77032 0.71369
 N2005 N 1.05240 0.76577 0.71855
 C2006 C 1.04375 0.77355 0.72370
 N2007 N 1.04610 0.78606 0.72378
 N2008 N 1.05663 0.79061 0.71892
 N2009 N 0.39713 0.70452 0.69065
 C2010 C 0.40207 0.69933 0.70102
 N2011 N 0.39633 0.68927 0.70619
 N2012 N 0.38596 0.68456 0.70114
 C2013 C 0.38100 0.68975 0.69075
 N2014 N 0.38677 0.69982 0.68560
 C2015 C 0.41330 0.70435 0.70637
 C2016 C 0.42277 0.70861 0.71074
 C2017 C 0.43411 0.71374 0.71574
 N2018 N 0.43645 0.71321 0.72807
 N2019 N 0.44699 0.71801 0.73266
 C2020 C 0.45557 0.72352 0.72510
 N2021 N 0.45314 0.72402 0.71276
 N2022 N 0.44262 0.71922 0.70816
 N2023 N 0.39696 0.18994 0.20287
 C2024 C 0.40165 0.20077 0.19824
 N2025 N 0.39548 0.20665 0.18893
 N2026 N 0.38493 0.20183 0.18439
 C2027 C 0.38020 0.19098 0.18900
 N2028 N 0.38641 0.18512 0.19833
 C2029 C 0.41303 0.20594 0.20312
 C2030 C 0.42261 0.21022 0.20725
 C2031 C 0.43404 0.21519 0.21221
 N2032 N 0.43622 0.22770 0.21214
 N2033 N 0.44683 0.23228 0.21681
 C2034 C 0.45564 0.22451 0.22171
 N2035 N 0.45338 0.21198 0.22174
 N2036 N 0.44278 0.20741 0.21708
 N2037 N -0.10336 0.68833 0.20632
 C2038 C -0.09783 0.69866 0.20147
 N2039 N -0.10295 0.70417 0.19135
 N2040 N -0.11328 0.69949 0.18623
 C2041 C -0.11884 0.68914 0.19105
 N2042 N -0.11369 0.68365 0.20120
 C2043 C -0.08661 0.70362 0.20686
 C2044 C -0.07711 0.70781 0.21123
 C2045 C -0.06574 0.71285 0.21622
 N2046 N -0.05709 0.71802 0.20860
 N2047 N -0.04652 0.72273 0.21318
 C2048 C -0.04421 0.72246 0.22555
 N2049 N -0.05294 0.71726 0.23316
 N2050 N -0.06352 0.71254 0.22857
 N2051 N -0.10375 0.20538 0.68961
 C2052 C -0.09851 0.20009 0.69978
 N2053 N -0.10396 0.18985 0.70488
 N2054 N -0.11434 0.18504 0.69996
 C2055 C -0.11960 0.19032 0.68976
 N2056 N -0.11412 0.20058 0.68468
 C2057 C -0.08726 0.20518 0.70500
 C2058 C -0.07776 0.20944 0.70930
 C2059 C -0.06640 0.21450 0.71431
 N2060 N -0.06415 0.21407 0.72665
 N2061 N -0.05357 0.21875 0.73126
 C2062 C -0.04486 0.22404 0.72369
 N2063 N -0.04719 0.22444 0.71133
 N2064 N -0.05776 0.21976 0.70672
 N2065 N 0.29594 0.39458 0.30858
 C2066 C 0.30116 0.39981 0.29837
 N2067 N 0.31153 0.39449 0.29335
 N2068 N 0.31653 0.38425 0.29840
 C2069 C 0.31133 0.37899 0.30865
 N2070 N 0.30094 0.38434 0.31364
 C2071 C 0.29584 0.41094 0.29305
 C2072 C 0.29133 0.42034 0.28875
 C2073 C 0.28589 0.43159 0.28384
 N2074 N 0.28609 0.43393 0.27150
 N2075 N 0.28105 0.44441 0.26700
 C2076 C 0.27563 0.45294 0.27467
 N2077 N 0.27546 0.45052 0.28703
 N2078 N 0.28050 0.44005 0.29153
 N2079 N 0.29540 -0.10538 0.80909
 C2080 C 0.30055 -0.10011 0.79886
 N2081 N 0.31092 -0.10537 0.79379
 N2082 N 0.31598 -0.11560 0.79880
 C2083 C 0.31086 -0.12091 0.80906
 N2084 N 0.30046 -0.11561 0.81410
 C2085 C 0.29518 -0.08900 0.79358
 C2086 C 0.29065 -0.07961 0.78927
 C2087 C 0.28523 -0.06837 0.78432
 N2088 N 0.28549 -0.06606 0.77198
 N2089 N 0.28048 -0.05559 0.76743
 C2090 C 0.27503 -0.04704 0.77506
 N2091 N 0.27481 -0.04943 0.78742
 N2092 N 0.27981 -0.05989 0.79197
 N2093 N 0.81132 0.39508 0.79455
 C2094 C 0.80082 0.40021 0.79947
 N2095 N 0.79582 0.39513 0.80987
 N2096 N 0.80118 0.38523 0.81520
 C2097 C 0.81173 0.38007 0.81033
 N2098 N 0.81668 0.38517 0.79989
 C2099 C 0.79523 0.41109 0.79394
 C2100 C 0.79056 0.42032 0.78945
 C2101 C 0.78503 0.43144 0.78435
 N2102 N 0.77950 0.43994 0.79188
 N2103 N 0.77448 0.45035 0.78721
 C2104 C 0.77480 0.45264 0.77483
 N2105 N 0.78035 0.44405 0.76731
 N2106 N 0.78538 0.43364 0.77199
 N2107 N 0.79499 -0.10561 0.30905
 C2108 C 0.80019 -0.10034 0.29885
 N2109 N 0.81057 -0.10561 0.29382
 N2110 N 0.81561 -0.11584 0.29885
 C2111 C 0.81044 -0.12115 0.30909
 N2112 N 0.80002 -0.11584 0.31409
 C2113 C 0.79485 -0.08923 0.29354
 C2114 C 0.79037 -0.07984 0.28919
 C2115 C 0.78503 -0.06859 0.28418
 N2116 N 0.78545 -0.06629 0.27184
 N2117 N 0.78053 -0.05580 0.26723
 C2118 C 0.77500 -0.04723 0.27479
 N2119 N 0.77461 -0.04962 0.28716
 N2120 N 0.77953 -0.06010 0.29176
 N2121 N 0.29305 0.60471 0.69052
 C2122 C 0.29796 0.59956 0.70091
 N2123 N 0.30822 0.60485 0.70613
 N2124 N 0.31341 0.61500 0.70110
 C2125 C 0.30852 0.62019 0.69069
 N2126 N 0.29824 0.61486 0.68549
 C2127 C 0.29245 0.58856 0.70626
 C2128 C 0.28792 0.57926 0.71075
 C2129 C 0.28268 0.56813 0.71610
 N2130 N 0.29026 0.55944 0.72136
 N2131 N 0.28545 0.54907 0.72629
 C2132 C 0.27289 0.54699 0.72615
 N2133 N 0.26533 0.55576 0.72087
 N2134 N 0.27014 0.56614 0.71593
 N2135 N 0.29341 1.10443 0.19049
 C2136 C 0.29837 1.09942 0.20093
 N2137 N 0.30857 1.10488 0.20610
 N2138 N 0.31365 1.11504 0.20098
 C2139 C 0.30870 1.12008 0.19052
 N2140 N 0.29848 1.11459 0.18537
 C2141 C 0.29296 1.08841 0.20637
 C2142 C 0.28847 1.07911 0.21090
 C2143 C 0.28322 1.06798 0.21626
 N2144 N 0.29077 1.05932 0.22160
 N2145 N 0.28594 1.04894 0.22649
 C2146 C 0.27338 1.04681 0.22622
 N2147 N 0.26586 1.05555 0.22086
 N2148 N 0.27069 1.06595 0.21596
 N2149 N 0.80899 0.60425 0.20616
 C2150 C 0.79847 0.59912 0.20131
 N2151 N 0.79321 0.60443 0.19115
 N2152 N 0.79830 0.61457 0.18601
 C2153 C 0.80884 0.61972 0.19085
 N2154 N 0.81408 0.61439 0.20102
 C2155 C 0.79309 0.58810 0.20675
 C2156 C 0.78862 0.57879 0.21126
 C2157 C 0.78334 0.56764 0.21651
 N2158 N 0.77760 0.55912 0.20916
 N2159 N 0.77281 0.54869 0.21399
 C2160 C 0.77359 0.54638 0.22635
 N2161 N 0.77935 0.55497 0.23368
 N2162 N 0.78415 0.56541 0.22885
 N2163 N 0.79309 1.10491 0.69216
 C2164 C 0.79849 1.09974 0.70232
 N2165 N 0.80899 1.10502 0.70705
 N2166 N 0.81395 1.11516 0.70178
 C2167 C 0.80856 1.12036 0.69160
 N2168 N 0.79804 1.11505 0.68690
 C2169 C 0.79326 1.08870 0.70785
 C2170 C 0.78885 1.07935 0.71236
 C2171 C 0.78357 1.06815 0.71751
 N2172 N 0.78399 1.06598 0.72987
 N2173 N 0.77911 1.05553 0.73459
 C2174 C 0.77364 1.04687 0.72713
 N2175 N 0.77325 1.04912 0.71474
 N2176 N 0.77813 1.05956 0.71002
 N2177 N 0.70470 0.60516 0.31041
 C2178 C 0.69948 0.60011 0.30012
 N2179 N 0.68933 0.60573 0.29500
 N2180 N 0.68454 0.61608 0.30002
 C2181 C 0.68974 0.62116 0.31033
 N2182 N 0.69991 0.61551 0.31543
 C2183 C 0.70456 0.58889 0.29479
 C2184 C 0.70884 0.57943 0.29040
 C2185 C 0.71394 0.56810 0.28531
 N2186 N 0.71309 0.56571 0.27301
 N2187 N 0.71779 0.55516 0.26833
 C2188 C 0.72350 0.54660 0.27577
 N2189 N 0.72431 0.54907 0.28809
 N2190 N 0.71962 0.55962 0.29277
 N2191 N 0.68833 1.10628 0.79509
 C2192 C 0.69869 1.10083 0.79997
 N2193 N 0.70414 1.10602 0.81006
 N2194 N 0.69938 1.11635 0.81514
 C2195 C 0.68899 1.12185 0.81030
 N2196 N 0.68357 1.11662 0.80017
 C2197 C 0.70374 1.08960 0.79461
 C2198 C 0.70797 1.08012 0.79022
 C2199 C 0.71303 1.06876 0.78516
 N2200 N 0.71834 1.06012 0.79271
 N2201 N 0.72301 1.04955 0.78806
 C2202 C 0.72255 1.04721 0.77570
 N2203 N 0.71721 1.05593 0.76817
 N2204 N 0.71253 1.06651 0.77282
 N2205 N 0.18977 0.60632 0.79649
 C2206 C 0.19994 0.60092 0.80178
 N2207 N 0.20500 0.60620 0.81203
 N2208 N 0.20004 0.61657 0.81684
 C2209 C 0.18984 0.62200 0.81157
 N2210 N 0.18480 0.61669 0.80130
 C2211 C 0.20522 0.58969 0.79666
 C2212 C 0.20958 0.58021 0.79237
 C2213 C 0.21463 0.56887 0.78725
 N2214 N 0.22713 0.56661 0.78754
 N2215 N 0.23177 0.55606 0.78279
 C2216 C 0.22408 0.54738 0.77758
 N2217 N 0.21156 0.54973 0.77733
 N2218 N 0.20692 0.56027 0.78208
 N2219 N 0.19075 1.10634 0.29631
 C2220 C 0.20087 1.10090 0.30165
 N2221 N 0.20591 1.10616 0.31193
 N2222 N 0.20097 1.11655 0.31671
 C2223 C 0.19082 1.12203 0.31139
 N2224 N 0.18580 1.11674 0.30110
 C2225 C 0.20611 1.08963 0.29656
 C2226 C 0.21040 1.08013 0.29228
 C2227 C 0.21536 1.06876 0.28714
 N2228 N 0.22784 1.06638 0.28748
 N2229 N 0.23240 1.05581 0.28271
 C2230 C 0.22467 1.04723 0.27743
 N2231 N 0.21217 1.04969 0.27713
 N2232 N 0.20760 1.06026 0.28190
 N2233 N 0.68842 0.39410 0.70657
 C2234 C 0.69888 0.39957 0.70193
 N2235 N 0.70451 0.39449 0.69186
 N2236 N 0.69983 0.38424 0.68658
 C2237 C 0.68935 0.37874 0.69119
 N2238 N 0.68374 0.38385 0.70129
 C2239 C 0.70386 0.41072 0.70747
 C2240 C 0.70811 0.42014 0.71194
 C2241 C 0.71325 0.43143 0.71702
 N2242 N 0.71859 0.44005 0.70948
 N2243 N 0.72339 0.45054 0.71414
 C2244 C 0.72304 0.45281 0.72652
 N2245 N 0.71766 0.44412 0.73404
 N2246 N 0.71285 0.43362 0.72938
 N2247 N 0.68897 -0.10580 0.20687
 C2248 C 0.69912 -0.10013 0.20180
 N2249 N 0.70437 -0.10508 0.19146
 N2250 N 0.69962 -0.11539 0.18635
 C2251 C 0.68946 -0.12109 0.19141
 N2252 N 0.68422 -0.11611 0.20176
 C2253 C 0.70418 -0.08896 0.20722
 C2254 C 0.70848 -0.07953 0.21166
 C2255 C 0.71365 -0.06826 0.21677
 N2256 N 0.71907 -0.05966 0.20926
 N2257 N 0.72389 -0.04919 0.21396
 C2258 C 0.72348 -0.04694 0.22635
 N2259 N 0.71802 -0.05561 0.23383
 N2260 N 0.71319 -0.06609 0.22913
 N2261 N 0.18861 0.39444 0.20705
 C2262 C 0.19907 0.39992 0.20243
 N2263 N 0.20472 0.39483 0.19237
 N2264 N 0.20005 0.38458 0.18708
 C2265 C 0.18957 0.37907 0.19168
 N2266 N 0.18393 0.38418 0.20177
 C2267 C 0.20404 0.41106 0.20798
 C2268 C 0.20830 0.42048 0.21245
 C2269 C 0.21346 0.43177 0.21752
 N2270 N 0.21874 0.44041 0.20996
 N2271 N 0.22358 0.45089 0.21462
 C2272 C 0.22332 0.45313 0.22701
 N2273 N 0.21800 0.44442 0.23455
 N2274 N 0.21315 0.43393 0.22989
 N2275 N 0.20392 -0.10507 0.69257
 C2276 C 0.19835 -0.09994 0.70265
 N2277 N 0.18787 -0.10535 0.70732
 N2278 N 0.18310 -0.11558 0.70206
 C2279 C 0.18866 -0.12072 0.69194
 N2280 N 0.19915 -0.11529 0.68730
 C2281 C 0.20341 -0.08883 0.70818
 C2282 C 0.20773 -0.07943 0.71265
 C2283 C 0.21294 -0.06817 0.71773
 N2284 N 0.21264 -0.06601 0.73009
 N2285 N 0.21751 -0.05553 0.73475
 C2286 C 0.22286 -0.04684 0.72721
 N2287 N 0.22313 -0.04908 0.71482
 N2288 N 0.21826 -0.05955 0.71017
 N2289 N 0.31224 0.29337 0.39589
 C2290 C 0.30203 0.29865 0.40126
 N2291 N 0.29679 0.30892 0.39598
 N2292 N 0.30161 0.31377 0.38565
 C2293 C 0.31183 0.30851 0.38026
 N2294 N 0.31706 0.29822 0.38556
 C2295 C 0.29691 0.29351 0.41245
 C2296 C 0.29259 0.28929 0.42189
 C2297 C 0.28742 0.28441 0.43317
 N2298 N 0.28223 0.29225 0.44160
 N2299 N 0.27742 0.28775 0.45209
 C2300 C 0.27763 0.27526 0.45453
 N2301 N 0.28285 0.26745 0.44603
 N2302 N 0.28766 0.27195 0.43553
 N2303 N 0.29696 0.80900 -0.10431
 C2304 C 0.30228 0.79877 -0.09905
 N2305 N 0.31253 0.79357 -0.10442
 N2306 N 0.31730 0.79847 -0.11475
 C2307 C 0.31200 0.80872 -0.12005
 N2308 N 0.30173 0.81390 -0.11464
 C2309 C 0.29718 0.79360 -0.08785
 C2310 C 0.29286 0.78938 -0.07840
 C2311 C 0.28766 0.78453 -0.06711
 N2312 N 0.28790 0.77207 -0.06471
 N2313 N 0.28305 0.76761 -0.05422
 C2314 C 0.27778 0.77544 -0.04575
 N2315 N 0.27758 0.78793 -0.04824
 N2316 N 0.28243 0.79239 -0.05872
 N2317 N 0.79761 0.30973 -0.10360
 C2318 C 0.80164 0.29838 -0.09962
 N2319 N 0.81072 0.29235 -0.10608
 N2320 N 0.81564 0.29754 -0.11620
 C2321 C 0.81165 0.30892 -0.12020
 N2322 N 0.80253 0.31492 -0.11372
 C2323 C 0.79650 0.29295 -0.08856
 C2324 C 0.79218 0.28859 -0.07919
 C2325 C 0.78700 0.28367 -0.06792
 N2326 N 0.78731 0.27120 -0.06554
 N2327 N 0.78254 0.26669 -0.05504
 C2328 C 0.77729 0.27449 -0.04653
 N2329 N 0.77702 0.28697 -0.04899
 N2330 N 0.78179 0.29148 -0.05948
 N2331 N 0.81192 0.79321 0.39552
 C2332 C 0.80165 0.79837 0.40089
 N2333 N 0.79632 0.80861 0.39564
 N2334 N 0.80110 0.81354 0.38533
 C2335 C 0.81139 0.80841 0.37994
 N2336 N 0.81671 0.79815 0.38521
 C2337 C 0.79656 0.79315 0.41206
 C2338 C 0.79226 0.78887 0.42148
 C2339 C 0.78710 0.78393 0.43275
 N2340 N 0.78182 0.79171 0.44118
 N2341 N 0.77703 0.78717 0.45165
 C2342 C 0.77734 0.77468 0.45409
 N2343 N 0.78266 0.76692 0.44559
 N2344 N 0.78745 0.77147 0.43511
 N2345 N 0.69203 0.29436 0.60299
 C2346 C 0.70236 0.29977 0.59802
 N2347 N 0.70736 0.30997 0.60361
 N2348 N 0.70218 0.31462 0.61386
 C2349 C 0.69182 0.30922 0.61886
 N2350 N 0.68685 0.29900 0.61324
 C2351 C 0.70782 0.29484 0.58690
 C2352 C 0.71226 0.29064 0.57751
 C2353 C 0.71734 0.28558 0.56627
 N2354 N 0.72983 0.28591 0.56405
 N2355 N 0.73450 0.28117 0.55360
 C2356 C 0.72684 0.27592 0.54500
 N2357 N 0.71432 0.27562 0.54730
 N2358 N 0.70965 0.28036 0.55774
 N2359 N 0.69034 0.79306 1.10438
 C2360 C 0.70062 0.79830 1.09913
 N2361 N 0.70577 0.80860 1.10440
 N2362 N 0.70079 0.81352 1.11462
 C2363 C 0.69049 0.80830 1.11990
 N2364 N 0.68536 0.79797 1.11460
 C2365 C 0.70591 0.79307 1.08805
 C2366 C 0.71031 0.78874 1.07870
 C2367 C 0.71552 0.78368 1.06752
 N2368 N 0.72084 0.79137 1.05902
 N2369 N 0.72562 0.78671 1.04860
 C2370 C 0.72526 0.77420 1.04628
 N2371 N 0.71992 0.76654 1.05484
 N2372 N 0.71513 0.77120 1.06528
 N2373 N 0.19256 0.29495 1.10328
 C2374 C 0.20288 0.30041 1.09834
 N2375 N 0.20786 0.31060 1.10399
 N2376 N 0.20266 0.31518 1.11426
 C2377 C 0.19231 0.30973 1.11922
 N2378 N 0.18736 0.29953 1.11354
 C2379 C 0.20836 0.29555 1.08720
 C2380 C 0.21282 0.29142 1.07778
 C2381 C 0.21791 0.28644 1.06651
 N2382 N 0.23041 0.28680 1.06430
 N2383 N 0.23508 0.28215 1.05381
 C2384 C 0.22743 0.27698 1.04516
 N2385 N 0.21491 0.27666 1.04745
 N2386 N 0.21023 0.28131 1.05792
 N2387 N 0.20639 0.81019 0.60461
 C2388 C 0.20139 0.79997 0.59906
 N2389 N 0.19104 0.79459 0.60404
 N2390 N 0.18584 0.79929 0.61425
 C2391 C 0.19082 0.80953 0.61983
 N2392 N 0.20119 0.81490 0.61482
 C2393 C 0.20688 0.79498 0.58797
 C2394 C 0.21137 0.79076 0.57861
 C2395 C 0.21655 0.78572 0.56741
 N2396 N 0.20898 0.78027 0.55892
 N2397 N 0.21373 0.77560 0.54849
 C2398 C 0.22624 0.77620 0.54615
 N2399 N 0.23379 0.78167 0.55472
 N2400 N 0.22903 0.78635 0.56515
 N2401 N 0.31037 0.70600 0.60390
 C2402 C 0.29998 0.70090 0.59874
 N2403 N 0.29471 0.69070 0.60410
 N2404 N 0.29967 0.68574 0.61430
 C2405 C 0.31008 0.69081 0.61949
 N2406 N 0.31534 0.70103 0.61411
 C2407 C 0.29469 0.70617 0.58769
 C2408 C 0.29028 0.71056 0.57837
 C2409 C 0.28514 0.71577 0.56722
 N2410 N 0.27268 0.71511 0.56493
 N2411 N 0.26794 0.71989 0.55453
 C2412 C 0.27551 0.72550 0.54604
 N2413 N 0.28800 0.72612 0.54841
 N2414 N 0.29273 0.72134 0.55880
 N2415 N 0.29458 0.18989 1.10296
 C2416 C 0.29893 0.20091 1.09844
 N2417 N 0.30819 0.20697 1.10458
 N2418 N 0.31296 0.20214 1.11494
 C2419 C 0.30863 0.19110 1.11950
 N2420 N 0.29935 0.18507 1.11332
 C2421 C 0.29383 0.20609 1.08726
 C2422 C 0.28961 0.21046 1.07785
 C2423 C 0.28470 0.21567 1.06661
 N2424 N 0.29250 0.22091 1.05818
 N2425 N 0.28797 0.22573 1.04772
 C2426 C 0.27548 0.22548 1.04529
 N2427 N 0.26770 0.22020 1.05380
 N2428 N 0.27223 0.21538 1.06427
 N2429 N 0.81107 0.70621 1.10433
 C2430 C 0.80070 0.70125 1.09901
 N2431 N 0.79526 0.69106 1.10424
 N2432 N 0.80004 0.68599 1.11448
 C2433 C 0.81043 0.69093 1.11982
 N2434 N 0.81585 0.70114 1.11457
 C2435 C 0.79563 0.70662 1.08791
 C2436 C 0.79134 0.71102 1.07854
 C2437 C 0.78622 0.71609 1.06732
 N2438 N 0.78091 0.70842 1.05884
 N2439 N 0.77616 0.71308 1.04841
 C2440 C 0.77653 0.72559 1.04607
 N2441 N 0.78187 0.73324 1.05463
 N2442 N 0.78663 0.72858 1.06507
 N2443 N 0.80901 0.20517 0.60356
 C2444 C 0.79863 0.20000 0.59846
 N2445 N 0.79334 0.18988 0.60396
 N2446 N 0.79828 0.18507 0.61424
 C2447 C 0.80868 0.19022 0.61937
 N2448 N 0.81395 0.20036 0.61385
 C2449 C 0.79340 0.20511 0.58731
 C2450 C 0.78912 0.20942 0.57789
 C2451 C 0.78419 0.21458 0.56663
 N2452 N 0.77171 0.21427 0.56430
 N2453 N 0.76717 0.21906 0.55382
 C2454 C 0.77494 0.22432 0.54529
 N2455 N 0.78743 0.22459 0.54770
 N2456 N 0.79198 0.21981 0.55817
 N2457 N 0.69012 0.70769 0.39663
 C2458 C 0.70043 0.70250 0.40187
 N2459 N 0.70560 0.69217 0.39665
 N2460 N 0.70061 0.68718 0.38648
 C2461 C 0.69028 0.69235 0.38121
 N2462 N 0.68513 0.70271 0.38646
 C2463 C 0.70574 0.70779 0.41289
 C2464 C 0.71020 0.71214 0.42219
 C2465 C 0.71552 0.71718 0.43331
 N2466 N 0.71520 0.72967 0.43554
 N2467 N 0.72011 0.73431 0.44591
 C2468 C 0.72553 0.72663 0.45441
 N2469 N 0.72582 0.71412 0.45210
 N2470 N 0.72091 0.70948 0.44174
 N2471 N 0.69013 0.20782 -0.10365
 C2472 C 0.70041 0.20257 -0.09841
 N2473 N 0.70554 0.19223 -0.10364
 N2474 N 0.70054 0.18727 -0.11382
 C2475 C 0.69024 0.19250 -0.11910
 N2476 N 0.68513 0.20286 -0.11383
 C2477 C 0.70572 0.20783 -0.08738
 C2478 C 0.71017 0.21217 -0.07807
 C2479 C 0.71548 0.21722 -0.06694
 N2480 N 0.72075 0.20951 -0.05844
 N2481 N 0.72565 0.21415 -0.04808
 C2482 C 0.72545 0.22668 -0.04582
 N2483 N 0.72014 0.23436 -0.05439
 N2484 N 0.71524 0.22972 -0.06476
 N2485 N 0.18941 0.70930 -0.10310
 C2486 C 0.19973 0.70415 -0.09784
 N2487 N 0.20492 0.69381 -0.10303
 N2488 N 0.19995 0.68877 -0.11317
 C2489 C 0.18961 0.69390 -0.11847
 N2490 N 0.18443 0.70425 -0.11325
 C2491 C 0.20504 0.70948 -0.08684
 C2492 C 0.20955 0.71381 -0.07755
 C2493 C 0.21496 0.71878 -0.06644
 N2494 N 0.22033 0.71100 -0.05807
 N2495 N 0.22537 0.71556 -0.04773
 C2496 C 0.22522 0.72807 -0.04539
 N2497 N 0.21982 0.73583 -0.05384
 N2498 N 0.21478 0.73126 -0.06418
 N2499 N 0.18967 0.20918 0.39688
 C2500 C 0.19998 0.20406 0.40219
 N2501 N 0.20524 0.19375 0.39700
 N2502 N 0.20034 0.18872 0.38682
 C2503 C 0.19001 0.19382 0.38148
 N2504 N 0.18477 0.20415 0.38669
 C2505 C 0.20521 0.20937 0.41323
 C2506 C 0.20966 0.21369 0.42255
 C2507 C 0.21502 0.21863 0.43369
 N2508 N 0.22032 0.21083 0.44209
 N2509 N 0.22532 0.21537 0.45245
 C2510 C 0.22520 0.22788 0.45480
 N2511 N 0.21988 0.23566 0.44633
 N2512 N 0.21488 0.23112 0.43596
 N2513 N 0.29275 0.39781 0.69199
 C2514 C 0.29785 0.40266 0.70243
 N2515 N 0.30796 0.39696 0.70754
 N2516 N 0.31282 0.38672 0.70237
 C2517 C 0.30774 0.38184 0.69191
 N2518 N 0.29762 0.38757 0.68681
 C2519 C 0.29268 0.41376 0.70791
 C2520 C 0.28833 0.42314 0.71241
 C2521 C 0.28314 0.43437 0.71760
 N2522 N 0.28382 0.43658 0.72994
 N2523 N 0.27904 0.44706 0.73471
 C2524 C 0.27342 0.45571 0.72731
 N2525 N 0.27276 0.45341 0.71495
 N2526 N 0.27754 0.44294 0.71018
 N2527 N 0.30866 0.89675 0.20753
 C2528 C 0.29831 0.90225 0.20268
 N2529 N 0.29296 0.89723 0.19244
 N2530 N 0.29780 0.88701 0.18721
 C2531 C 0.30817 0.88149 0.19203
 N2532 N 0.31351 0.88653 0.20229
 C2533 C 0.29318 0.91336 0.20819
 C2534 C 0.28886 0.92275 0.21268
 C2535 C 0.28369 0.93402 0.21782
 N2536 N 0.27841 0.94272 0.21031
 N2537 N 0.27364 0.95321 0.21503
 C2538 C 0.27397 0.95541 0.22742
 N2539 N 0.27928 0.94664 0.23491
 N2540 N 0.28406 0.93613 0.23019
 N2541 N 0.79240 0.39697 0.18995
 C2542 C 0.79727 0.40198 0.20042
 N2543 N 0.80736 0.39644 0.20575
 N2544 N 0.81242 0.38620 0.20076
 C2545 C 0.80756 0.38116 0.19027
 N2546 N 0.79745 0.38673 0.18497
 C2547 C 0.79191 0.41308 0.20572
 C2548 C 0.78748 0.42245 0.21016
 C2549 C 0.78237 0.43367 0.21544
 N2550 N 0.79005 0.44238 0.22046
 N2551 N 0.78535 0.45284 0.22534
 C2552 C 0.77279 0.45497 0.22538
 N2553 N 0.76513 0.44619 0.22032
 N2554 N 0.76983 0.43573 0.21544
 N2555 N 0.80669 0.89711 0.70587
 C2556 C 0.79630 0.90235 0.70082
 N2557 N 0.79115 0.89708 0.69061
 N2558 N 0.79625 0.88687 0.68559
 C2559 C 0.80666 0.88160 0.69062
 N2560 N 0.81178 0.88691 0.70085
 C2561 C 0.79093 0.91345 0.70612
 C2562 C 0.78653 0.92282 0.71057
 C2563 C 0.78146 0.93406 0.71587
 N2564 N 0.76896 0.93632 0.71559
 N2565 N 0.76431 0.94681 0.72046
 C2566 C 0.77198 0.95542 0.72578
 N2567 N 0.78450 0.95308 0.72603
 N2568 N 0.78915 0.94260 0.72116
 N2569 N 0.70736 0.60317 0.68973
 C2570 C 0.70213 0.59811 0.70002
 N2571 N 0.69197 0.60373 0.70515
 N2572 N 0.68720 0.61409 0.70013
 C2573 C 0.69242 0.61918 0.68982
 N2574 N 0.70259 0.61353 0.68471
 C2575 C 0.70719 0.58688 0.70535
 C2576 C 0.71137 0.57740 0.70980
 C2577 C 0.71625 0.56606 0.71508
 N2578 N 0.70841 0.55759 0.72029
 N2579 N 0.71290 0.54702 0.72514
 C2580 C 0.72539 0.54452 0.72495
 N2581 N 0.73321 0.55307 0.71971
 N2582 N 0.72872 0.56365 0.71486
 N2583 N 0.70879 0.10421 0.19025
 C2584 C 0.70249 0.09786 0.19917
 N2585 N 0.69100 0.10194 0.20271
 N2586 N 0.68594 0.11205 0.19748
 C2587 C 0.69221 0.11843 0.18853
 N2588 N 0.70373 0.11433 0.18502
 C2589 C 0.70778 0.08680 0.20463
 C2590 C 0.71206 0.07742 0.20919
 C2591 C 0.71693 0.06615 0.21461
 N2592 N 0.70905 0.05770 0.21981
 N2593 N 0.71351 0.04717 0.22476
 C2594 C 0.72600 0.04469 0.22469
 N2595 N 0.73386 0.05321 0.21946
 N2596 N 0.72940 0.06375 0.21450
 N2597 N 0.19222 0.60367 0.20478
 C2598 C 0.20239 0.59805 0.19970
 N2599 N 0.20763 0.60308 0.18939
 N2600 N 0.20284 0.61341 0.18432
 C2601 C 0.19265 0.61906 0.18939
 N2602 N 0.18742 0.61400 0.19972
 C2603 C 0.20748 0.58686 0.20509
 C2604 C 0.21167 0.57742 0.20962
 C2605 C 0.21654 0.56613 0.21500
 N2606 N 0.22903 0.56378 0.21491
 N2607 N 0.23351 0.55326 0.21988
 C2608 C 0.22569 0.54472 0.22512
 N2609 N 0.21318 0.54716 0.22518
 N2610 N 0.20869 0.55767 0.22021
 N2611 N 0.19185 0.10382 0.70524
 C2612 C 0.20199 0.09817 0.70013
 N2613 N 0.20723 0.10318 0.68982
 N2614 N 0.20248 0.11354 0.68477
 C2615 C 0.19231 0.11922 0.68986
 N2616 N 0.18709 0.11418 0.70019
 C2617 C 0.20705 0.08696 0.70551
 C2618 C 0.21123 0.07750 0.71001
 C2619 C 0.21611 0.06620 0.71535
 N2620 N 0.22859 0.06382 0.71521
 N2621 N 0.23308 0.05329 0.72014
 C2622 C 0.22526 0.04474 0.72538
 N2623 N 0.21276 0.04720 0.72548
 N2624 N 0.20827 0.05773 0.72056
 N2625 N 0.30696 0.60303 0.29682
 C2626 C 0.29663 0.59786 0.30203
 N2627 N 0.29153 0.60330 0.31220
 N2628 N 0.29661 0.61360 0.31701
 C2629 C 0.30697 0.61880 0.31181
 N2630 N 0.31205 0.61332 0.30162
 C2631 C 0.29128 0.58667 0.29692
 C2632 C 0.28695 0.57723 0.29257
 C2633 C 0.28203 0.56592 0.28731
 N2634 N 0.26954 0.56360 0.28747
 N2635 N 0.26502 0.55308 0.28256
 C2636 C 0.27282 0.54450 0.27733
 N2637 N 0.28532 0.54690 0.27721
 N2638 N 0.28985 0.55741 0.28211
 N2639 N 0.29188 0.10339 0.81166
 C2640 C 0.29672 0.09808 0.80129
 N2641 N 0.30675 0.10347 0.79574
 N2642 N 0.31181 0.11385 0.80040
 C2643 C 0.30700 0.11918 0.81077
 N2644 N 0.29694 0.11377 0.81632
 C2645 C 0.29137 0.08683 0.79632
 C2646 C 0.28702 0.07735 0.79208
 C2647 C 0.28203 0.06600 0.78697
 N2648 N 0.28980 0.05739 0.78185
 N2649 N 0.28521 0.04686 0.77706
 C2650 C 0.27269 0.04453 0.77722
 N2651 N 0.26495 0.05321 0.78237
 N2652 N 0.26953 0.06375 0.78716
 N2653 N 0.80760 0.60264 0.79571
 C2654 C 0.79724 0.59742 0.80082
 N2655 N 0.79203 0.60280 0.81096
 N2656 N 0.79703 0.61310 0.81585
 C2657 C 0.80742 0.61835 0.81076
 N2658 N 0.81261 0.61294 0.80060
 C2659 C 0.79195 0.58625 0.79564
 C2660 C 0.78759 0.57682 0.79129
 C2661 C 0.78253 0.56553 0.78611
 N2662 N 0.77003 0.56332 0.78638
 N2663 N 0.76539 0.55281 0.78159
 C2664 C 0.77307 0.54413 0.77636
 N2665 N 0.78559 0.54642 0.77612
 N2666 N 0.79024 0.55693 0.78090
 N2667 N 0.79207 0.10327 0.31127
 C2668 C 0.79714 0.09777 0.30112
 N2669 N 0.80746 0.10289 0.29584
 N2670 N 0.81258 0.11321 0.30058
 C2671 C 0.80754 0.11874 0.31075
 N2672 N 0.79719 0.11359 0.31601
 C2673 C 0.79174 0.08657 0.29608
 C2674 C 0.78737 0.07711 0.29180
 C2675 C 0.78237 0.06578 0.28664
 N2676 N 0.79015 0.05715 0.28157
 N2677 N 0.78556 0.04664 0.27675
 C2678 C 0.77304 0.04435 0.27681
 N2679 N 0.76529 0.05305 0.28191
 N2680 N 0.76987 0.06358 0.28674
 N2681 N 0.70599 0.39581 0.31169
 C2682 C 0.70083 0.40129 0.30158
 N2683 N 0.69046 0.39614 0.29643
 N2684 N 0.68541 0.38581 0.30124
 C2685 C 0.69055 0.38030 0.31137
 N2686 N 0.70094 0.38548 0.31650
 C2687 C 0.70616 0.41250 0.29648
 C2688 C 0.71052 0.42197 0.29218
 C2689 C 0.71551 0.43331 0.28703
 N2690 N 0.70774 0.44199 0.28206
 N2691 N 0.71233 0.45253 0.27728
 C2692 C 0.72486 0.45480 0.27729
 N2693 N 0.73261 0.44604 0.28229
 N2694 N 0.72803 0.43549 0.28708
 N2695 N 0.70526 0.89636 0.81121
 C2696 C 0.70014 0.90145 0.80089
 N2697 N 0.69010 0.89581 0.79560
 N2698 N 0.68534 0.88539 0.80050
 C2699 C 0.69045 0.88026 0.81084
 N2700 N 0.70050 0.88594 0.81610
 C2701 C 0.70521 0.91274 0.79569
 C2702 C 0.70945 0.92225 0.79138
 C2703 C 0.71443 0.93363 0.78630
 N2704 N 0.70669 0.94225 0.78117
 N2705 N 0.71129 0.95284 0.77650
 C2706 C 0.72380 0.95522 0.77680
 N2707 N 0.73152 0.94652 0.78196
 N2708 N 0.72692 0.93592 0.78663
 N2709 N 0.20465 0.39639 0.80998
 C2710 C 0.19920 0.40164 0.79990
 N2711 N 0.18886 0.39622 0.79499
 N2712 N 0.18411 0.38585 0.80001
 C2713 C 0.18954 0.38056 0.81011
 N2714 N 0.19990 0.38602 0.81500
 C2715 C 0.20422 0.41291 0.79462
 C2716 C 0.20844 0.42242 0.79028
 C2717 C 0.21347 0.43382 0.78529
 N2718 N 0.21274 0.43627 0.77300
 N2719 N 0.21739 0.44689 0.76840
 C2720 C 0.22294 0.45544 0.77594
 N2721 N 0.22364 0.45290 0.78826
 N2722 N 0.21899 0.44229 0.79285
 N2723 N 0.18929 0.89570 0.29464
 C2724 C 0.19926 0.90155 0.29982
 N2725 N 0.20448 0.89668 0.31020
 N2726 N 0.19988 0.88627 0.31526
 C2727 C 0.18989 0.88038 0.31011
 N2728 N 0.18469 0.88528 0.29971
 C2729 C 0.20416 0.91284 0.29446
 C2730 C 0.20830 0.92237 0.29008
 C2731 C 0.21329 0.93378 0.28507
 N2732 N 0.21850 0.94242 0.29267
 N2733 N 0.22317 0.95301 0.28806
 C2734 C 0.22280 0.95537 0.27570
 N2735 N 0.21756 0.94666 0.26812
 N2736 N 0.21288 0.93606 0.27273
 N2737 N 0.39455 0.29563 0.69062
 C2738 C 0.39958 0.30057 0.70105
 N2739 N 0.39401 0.31063 0.70639
 N2740 N 0.38371 0.31560 0.70143
 C2741 C 0.37865 0.31069 0.69098
 N2742 N 0.38425 0.30061 0.68567
 C2743 C 0.41074 0.29528 0.70629
 C2744 C 0.42016 0.29080 0.71057
 C2745 C 0.43144 0.28545 0.71549
 N2746 N 0.43375 0.28571 0.72783
 N2747 N 0.44426 0.28075 0.73235
 C2748 C 0.45283 0.27535 0.72471
 N2749 N 0.45044 0.27512 0.71235
 N2750 N 0.43994 0.28008 0.70782
 N2751 N 0.39424 0.81016 0.20627
 C2752 C 0.39956 0.79983 0.20120
 N2753 N 0.39436 0.79470 0.19094
 N2754 N 0.38414 0.79975 0.18590
 C2755 C 0.37879 0.81010 0.19096
 N2756 N 0.38402 0.81521 0.20123
 C2757 C 0.41066 0.79449 0.20652
 C2758 C 0.42004 0.79001 0.21090
 C2759 C 0.43127 0.78470 0.21596
 N2760 N 0.43987 0.77931 0.20842
 N2761 N 0.45034 0.77443 0.21308
 C2762 C 0.45262 0.77477 0.22546
 N2763 N 0.44395 0.78018 0.23298
 N2764 N 0.43346 0.78506 0.22832
 N2765 N 0.89493 0.29526 0.19022
 C2766 C 0.89990 0.30024 0.20066
 N2767 N 0.89427 0.31030 0.20594
 N2768 N 0.88398 0.31524 0.20092
 C2769 C 0.87899 0.31028 0.19046
 N2770 N 0.88464 0.30019 0.18521
 C2771 C 0.91105 0.29498 0.20597
 C2772 C 0.92047 0.29051 0.21027
 C2773 C 0.93175 0.28513 0.21519
 N2774 N 0.93405 0.28535 0.22753
 N2775 N 0.94455 0.28036 0.23205
 C2776 C 0.95312 0.27496 0.22440
 N2777 N 0.95073 0.27477 0.21204
 N2778 N 0.94025 0.27976 0.20752
 N2779 N 0.89401 0.79576 0.69128
 C2780 C 0.89913 0.80103 0.70150
 N2781 N 0.89372 0.81138 0.70644
 N2782 N 0.88348 0.81631 0.70131
 C2783 C 0.87833 0.81106 0.69106
 N2784 N 0.88378 0.80068 0.68614
 C2785 C 0.91024 0.79579 0.70691
 C2786 C 0.91963 0.79135 0.71131
 C2787 C 0.93087 0.78600 0.71635
 N2788 N 0.93311 0.78634 0.72870
 N2789 N 0.94357 0.78138 0.73332
 C2790 C 0.95218 0.77590 0.72576
 N2791 N 0.94986 0.77561 0.71339
 N2792 N 0.93940 0.78056 0.70877
 N2793 N 0.60463 0.29328 0.30797
 C2794 C 0.59948 0.29875 0.29784
 N2795 N 0.60469 0.30936 0.29325
 N2796 N 0.61476 0.31435 0.29862
 C2797 C 0.61993 0.30889 0.30877
 N2798 N 0.61469 0.29826 0.31334
 C2799 C 0.58854 0.29346 0.29219
 C2800 C 0.57928 0.28899 0.28758
 C2801 C 0.56818 0.28364 0.28229
 N2802 N 0.56601 0.28439 0.26994
 N2803 N 0.55564 0.27948 0.26509
 C2804 C 0.54707 0.27364 0.27241
 N2805 N 0.54933 0.27291 0.28478
 N2806 N 0.55969 0.27781 0.28963
 N2807 N 0.60513 0.79254 0.81060
 C2808 C 0.60000 0.79760 0.80026
 N2809 N 0.60538 0.80786 0.79511
 N2810 N 0.61559 0.81291 0.80014
 C2811 C 0.62075 0.80787 0.81050
 N2812 N 0.61534 0.79759 0.81563
 C2813 C 0.58893 0.79226 0.79489
 C2814 C 0.57958 0.78788 0.79038
 C2815 C 0.56839 0.78282 0.78499
 N2816 N 0.55988 0.79053 0.77963
 N2817 N 0.54945 0.78588 0.77467
 C2818 C 0.54715 0.77336 0.77487
 N2819 N 0.55574 0.76568 0.78025
 N2820 N 0.56617 0.77032 0.78522
 N2821 N 0.10449 0.29273 0.80956
 C2822 C 0.09913 0.29803 0.79946
 N2823 N 0.10423 0.30858 0.79460
 N2824 N 0.11437 0.31368 0.79970
 C2825 C 0.11976 0.30840 0.80983
 N2826 N 0.11464 0.29783 0.81466
 C2827 C 0.08812 0.29265 0.79405
 C2828 C 0.07880 0.28825 0.78950
 C2829 C 0.06765 0.28317 0.78407
 N2830 N 0.05915 0.29087 0.77867
 N2831 N 0.04876 0.28620 0.77367
 C2832 C 0.04647 0.27368 0.77388
 N2833 N 0.05504 0.26601 0.77931
 N2834 N 0.06544 0.27068 0.78431
 N2835 N 0.10508 0.79239 0.31039
 C2836 C 0.09997 0.79733 0.29998
 N2837 N 0.10534 0.80756 0.29475
 N2838 N 0.11551 0.81268 0.29977
 C2839 C 0.12065 0.80776 0.31020
 N2840 N 0.11525 0.79752 0.31541
 C2841 C 0.08893 0.79192 0.29466
 C2842 C 0.07960 0.78749 0.29020
 C2843 C 0.06842 0.78236 0.28488
 N2844 N 0.05988 0.79000 0.27947
 N2845 N 0.04945 0.78529 0.27459
 C2846 C 0.04716 0.77277 0.27494
 N2847 N 0.05577 0.76515 0.28038
 N2848 N 0.06621 0.76987 0.28526
 N2849 N 0.60613 0.69066 0.70415
 C2850 C 0.60068 0.70082 0.69886
 N2851 N 0.60589 0.70586 0.68854
 N2852 N 0.61624 0.70089 0.68367
 C2853 C 0.62171 0.69071 0.68894
 N2854 N 0.61647 0.68569 0.69928
 C2855 C 0.58948 0.70610 0.70406
 C2856 C 0.58003 0.71046 0.70842
 C2857 C 0.56873 0.71552 0.71362
 N2858 N 0.56644 0.72800 0.71324
 N2859 N 0.55592 0.73266 0.71805
 C2860 C 0.54730 0.72500 0.72340
 N2861 N 0.54967 0.71249 0.72375
 N2862 N 0.56019 0.70783 0.71895
 N2863 N 0.60549 0.20359 0.18785
 C2864 C 0.60042 0.19835 0.19813
 N2865 N 0.60570 0.18786 0.20293
 N2866 N 0.61574 0.18275 0.19759
 C2867 C 0.62083 0.18796 0.18727
 N2868 N 0.61553 0.19848 0.18250
 C2869 C 0.58942 0.20368 0.20369
 C2870 C 0.58009 0.20813 0.20820
 C2871 C 0.56887 0.21340 0.21336
 N2872 N 0.56649 0.21255 0.22566
 N2873 N 0.55598 0.21734 0.23038
 C2874 C 0.54747 0.22314 0.22296
 N2875 N 0.54995 0.22397 0.21064
 N2876 N 0.56045 0.21919 0.20592
 N2877 N 0.10640 0.69031 0.20405
 C2878 C 0.10091 0.70049 0.19883
 N2879 N 0.10606 0.70558 0.18851
 N2880 N 0.11639 0.70064 0.18356
 C2881 C 0.12190 0.69045 0.18876
 N2882 N 0.11672 0.68538 0.19910
 C2883 C 0.08973 0.70572 0.20410
 C2884 C 0.08029 0.71002 0.20854
 C2885 C 0.06900 0.71500 0.21383
 N2886 N 0.06660 0.72747 0.21342
 N2887 N 0.05607 0.73205 0.21830
 C2888 C 0.04756 0.72433 0.22375
 N2889 N 0.05005 0.71185 0.22412
 N2890 N 0.06057 0.70726 0.21925
 N2891 N 0.10607 0.20620 0.68838
 C2892 C 0.10077 0.20118 0.69866
 N2893 N 0.10616 0.19101 0.70400
 N2894 N 0.11653 0.18602 0.69920
 C2895 C 0.12185 0.19102 0.68890
 N2896 N 0.11644 0.20121 0.68358
 C2897 C 0.08953 0.20646 0.70375
 C2898 C 0.08003 0.21082 0.70801
 C2899 C 0.06867 0.21587 0.71308
 N2900 N 0.06003 0.20816 0.71823
 N2901 N 0.04945 0.21281 0.72290
 C2902 C 0.04710 0.22532 0.72259
 N2903 N 0.05582 0.23300 0.71742
 N2904 N 0.06641 0.22836 0.71274
 N2905 N 0.39407 0.68816 0.29354
 C2906 C 0.39953 0.69861 0.29821
 N2907 N 0.39444 0.70417 0.30831
 N2908 N 0.38420 0.69944 0.31359
 C2909 C 0.37871 0.68898 0.30895
 N2910 N 0.38383 0.68343 0.29883
 C2911 C 0.41066 0.70363 0.29267
 C2912 C 0.42008 0.70794 0.28821
 C2913 C 0.43137 0.71315 0.28316
 N2914 N 0.43990 0.71856 0.29073
 N2915 N 0.45039 0.72344 0.28610
 C2916 C 0.45274 0.72310 0.27374
 N2917 N 0.44413 0.71765 0.26619
 N2918 N 0.43363 0.71277 0.27081
 N2919 N 0.39495 0.20409 0.80724
 C2920 C 0.39979 0.19874 0.79691
 N2921 N 0.39403 0.18859 0.79198
 N2922 N 0.38373 0.18394 0.79723
 C2923 C 0.37886 0.18927 0.80759
 N2924 N 0.38466 0.19944 0.81249
 C2925 C 0.41096 0.20371 0.79138
 C2926 C 0.42039 0.20799 0.78692
 C2927 C 0.43169 0.21319 0.78188
 N2928 N 0.43391 0.21290 0.76952
 N2929 N 0.44440 0.21780 0.76489
 C2930 C 0.45305 0.22316 0.77246
 N2931 N 0.45075 0.22340 0.78484
 N2932 N 0.44026 0.21851 0.78946
 N2933 N 0.89398 0.70474 0.80884
 C2934 C 0.89917 0.69933 0.79870
 N2935 N 0.89384 0.68888 0.79392
 N2936 N 0.88362 0.68399 0.79912
 C2937 C 0.87841 0.68939 0.80928
 N2938 N 0.88377 0.69986 0.81404
 C2939 C 0.91028 0.70452 0.79323
 C2940 C 0.91966 0.70890 0.78877
 C2941 C 0.93091 0.71416 0.78367
 N2942 N 0.93311 0.71377 0.77131
 N2943 N 0.94358 0.71864 0.76662
 C2944 C 0.95224 0.72408 0.77412
 N2945 N 0.94995 0.72444 0.78650
 N2946 N 0.93948 0.71957 0.79119
 N2947 N 0.89510 0.20407 0.30697
 C2948 C 0.90017 0.19848 0.29687
 N2949 N 0.89469 0.18805 0.29222
 N2950 N 0.88444 0.18334 0.29753
 C2951 C 0.87934 0.18891 0.30766
 N2952 N 0.88486 0.19937 0.31227
 C2953 C 0.91132 0.20348 0.29131
 C2954 C 0.92074 0.20775 0.28683
 C2955 C 0.93203 0.21292 0.28174
 N2956 N 0.93422 0.21260 0.26937
 N2957 N 0.94472 0.21745 0.26471
 C2958 C 0.95340 0.22279 0.27223
 N2959 N 0.95114 0.22307 0.28462
 N2960 N 0.94065 0.21823 0.28929
 N2961 N 0.29303 0.31271 0.60393
 C2962 C 0.29827 0.30249 0.59855
 N2963 N 0.30852 0.29720 0.60382
 N2964 N 0.31338 0.30198 0.61414
 C2965 C 0.30816 0.31221 0.61955
 N2966 N 0.29789 0.31749 0.61426
 C2967 C 0.29312 0.29739 0.58738
 C2968 C 0.28892 0.29305 0.57796
 C2969 C 0.28408 0.28783 0.56670
 N2970 N 0.29195 0.28265 0.55829
 N2971 N 0.28750 0.27776 0.54784
 C2972 C 0.27501 0.27788 0.54540
 N2973 N 0.26716 0.28310 0.55388
 N2974 N 0.27161 0.28799 0.56434
 N2975 N 0.29294 0.81246 0.10405
 C2976 C 0.29815 0.80224 0.09863
 N2977 N 0.30838 0.79689 0.10388
 N2978 N 0.31326 0.80161 0.11422
 C2979 C 0.30807 0.81184 0.11966
 N2980 N 0.29782 0.81717 0.11440
 C2981 C 0.29300 0.79722 0.08742
 C2982 C 0.28880 0.79296 0.07796
 C2983 C 0.28399 0.78782 0.06664
 N2984 N 0.29188 0.78273 0.05821
 N2985 N 0.28745 0.77793 0.04771
 C2986 C 0.27497 0.77805 0.04525
 N2987 N 0.26709 0.78318 0.05376
 N2988 N 0.27152 0.78798 0.06427
 N2989 N 0.79383 0.31162 0.10289
 C2990 C 0.79908 0.30140 0.09754
 N2991 N 0.80932 0.29611 0.10284
 N2992 N 0.81416 0.30091 0.11316
 C2993 C 0.80893 0.31116 0.11853
 N2994 N 0.79867 0.31642 0.11321
 C2995 C 0.79393 0.29629 0.08637
 C2996 C 0.78968 0.29198 0.07696
 C2997 C 0.78474 0.28684 0.06571
 N2998 N 0.79253 0.28160 0.05725
 N2999 N 0.78798 0.27681 0.04680
 C3000 C 0.77548 0.27707 0.04441
 N3001 N 0.76772 0.28234 0.05294
 N3002 N 0.77226 0.28714 0.06340
 N3003 N 0.79298 0.81141 0.60363
 C3004 C 0.79831 0.80121 0.59831
 N3005 N 0.80858 0.79601 0.60363
 N3006 N 0.81338 0.80087 0.61394
 C3007 C 0.80808 0.81110 0.61928
 N3008 N 0.79779 0.81627 0.61394
 C3009 C 0.79321 0.79605 0.58714
 C3010 C 0.78902 0.79172 0.57771
 C3011 C 0.78416 0.78655 0.56643
 N3012 N 0.79201 0.78142 0.55797
 N3013 N 0.78753 0.77664 0.54749
 C3014 C 0.77504 0.77681 0.54506
 N3015 N 0.76721 0.78198 0.55359
 N3016 N 0.77168 0.78676 0.56409
 N3017 N 0.29442 0.69156 0.39732
 C3018 C 0.29987 0.70188 0.40224
 N3019 N 0.31009 0.70684 0.39661
 N3020 N 0.31470 0.70163 0.38636
 C3021 C 0.30926 0.69129 0.38141
 N3022 N 0.29903 0.68635 0.38707
 C3023 C 0.29498 0.70738 0.41337
 C3024 C 0.29085 0.71186 0.42276
 C3025 C 0.28587 0.71700 0.43402
 N3026 N 0.28632 0.72950 0.43620
 N3027 N 0.28167 0.73421 0.44666
 C3028 C 0.27640 0.72661 0.45533
 N3029 N 0.27599 0.71409 0.45307
 N3030 N 0.28064 0.70937 0.44261
 N3031 N 0.31071 0.20702 0.89566
 C3032 C 0.30051 0.20206 0.90131
 N3033 N 0.29501 0.19177 0.89638
 N3034 N 0.29958 0.18659 0.88610
 C3035 C 0.30980 0.19153 0.88041
 N3036 N 0.31528 0.20184 0.88537
 C3037 C 0.29565 0.20755 0.91246
 C3038 C 0.29154 0.21202 0.92187
 C3039 C 0.28658 0.21717 0.93313
 N3040 N 0.28140 0.20955 0.94176
 N3041 N 0.27677 0.21428 0.95221
 C3042 C 0.27715 0.22680 0.95444
 N3043 N 0.28236 0.23440 0.94574
 N3044 N 0.28700 0.22967 0.93527
 N3045 N 0.80833 0.70509 0.89661
 C3046 C 0.79810 0.69986 0.90198
 N3047 N 0.79289 0.68957 0.89677
 N3048 N 0.79776 0.68464 0.88650
 C3049 C 0.80800 0.68985 0.88110
 N3050 N 0.81320 0.70017 0.88634
 C3051 C 0.79295 0.70508 0.91313
 C3052 C 0.78871 0.70943 0.92254
 C3053 C 0.78378 0.71459 0.93380
 N3054 N 0.77131 0.71427 0.93617
 N3055 N 0.76677 0.71902 0.94666
 C3056 C 0.77453 0.72426 0.95518
 N3057 N 0.78703 0.72456 0.95273
 N3058 N 0.79157 0.71981 0.94224
 N3059 N 0.79515 0.19135 0.39621
 C3060 C 0.80060 0.20164 0.40118
 N3061 N 0.81079 0.20665 0.39556
 N3062 N 0.81541 0.20151 0.38528
 C3063 C 0.80998 0.19119 0.38028
 N3064 N 0.79976 0.18620 0.38593
 C3065 C 0.79570 0.20707 0.41234
 C3066 C 0.79153 0.21147 0.42176
 C3067 C 0.78651 0.21651 0.43304
 N3068 N 0.78679 0.22901 0.43524
 N3069 N 0.78208 0.23364 0.44572
 C3070 C 0.77693 0.22595 0.45437
 N3071 N 0.77669 0.21343 0.45209
 N3072 N 0.78139 0.20880 0.44162
 N3073 N 0.68944 0.29241 0.39624
 C3074 C 0.69965 0.29758 0.40167
 N3075 N 0.70482 0.30799 0.39661
 N3076 N 0.69994 0.31307 0.38642
 C3077 C 0.68972 0.30792 0.38096
 N3078 N 0.68456 0.29749 0.38605
 C3079 C 0.70485 0.29222 0.41272
 C3080 C 0.70928 0.28789 0.42205
 C3081 C 0.71463 0.28295 0.43322
 N3082 N 0.71992 0.29076 0.44160
 N3083 N 0.72490 0.28623 0.45199
 C3084 C 0.72478 0.27372 0.45438
 N3085 N 0.71947 0.26594 0.44593
 N3086 N 0.71448 0.27047 0.43553
 N3087 N 0.69171 0.79412 0.89733
 C3088 C 0.70188 0.79958 0.90256
 N3089 N 0.70684 0.80995 0.89723
 N3090 N 0.70179 0.81473 0.88698
 C3091 C 0.69161 0.80930 0.88172
 N3092 N 0.68666 0.79890 0.88708
 C3093 C 0.70724 0.79450 0.91367
 C3094 C 0.71165 0.79024 0.92304
 C3095 C 0.71676 0.78516 0.93426
 N3096 N 0.72926 0.78554 0.93642
 N3097 N 0.73396 0.78083 0.94687
 C3098 C 0.72633 0.77557 0.95552
 N3099 N 0.71381 0.77523 0.95327
 N3100 N 0.70911 0.77994 0.94284
 N3101 N 0.19064 0.29371 0.89621
 C3102 C 0.20084 0.29902 0.90153
 N3103 N 0.20590 0.30941 0.89632
 N3104 N 0.20092 0.31435 0.88612
 C3105 C 0.19070 0.30907 0.88078
 N3106 N 0.18566 0.29865 0.88601
 C3107 C 0.20612 0.29380 0.91260
 C3108 C 0.21056 0.28951 0.92195
 C3109 C 0.21584 0.28454 0.93313
 N3110 N 0.22120 0.29231 0.94151
 N3111 N 0.22608 0.28774 0.95193
 C3112 C 0.22579 0.27525 0.95436
 N3113 N 0.22040 0.26751 0.94591
 N3114 N 0.21552 0.27207 0.93549
 N3115 N 0.19073 0.79434 0.39717
 C3116 C 0.20089 0.79966 0.40254
 N3117 N 0.20598 0.81005 0.39735
 N3118 N 0.20106 0.81497 0.38710
 C3119 C 0.19088 0.80966 0.38170
 N3120 N 0.18582 0.79925 0.38692
 C3121 C 0.20611 0.79442 0.41363
 C3122 C 0.21047 0.79005 0.42299
 C3123 C 0.21563 0.78495 0.43417
 N3124 N 0.22089 0.79261 0.44271
 N3125 N 0.22564 0.78791 0.45313
 C3126 C 0.22530 0.77539 0.45541
 N3127 N 0.22001 0.76776 0.44680
 N3128 N 0.21526 0.77245 0.43638
 N3129 N 0.70879 0.68949 0.60312
 C3130 C 0.70368 0.69979 0.59776
 N3131 N 0.69337 0.70508 0.60293
 N3132 N 0.68833 0.70022 0.61315
 C3133 C 0.69342 0.68990 0.61854
 N3134 N 0.70374 0.68463 0.61334
 C3135 C 0.70901 0.70496 0.58668
 C3136 C 0.71336 0.70935 0.57733
 C3137 C 0.71834 0.71461 0.56614
 N3138 N 0.71057 0.71983 0.55766
 N3139 N 0.71515 0.72473 0.54726
 C3140 C 0.72767 0.72461 0.54493
 N3141 N 0.73542 0.71936 0.55348
 N3142 N 0.73084 0.71445 0.56389
 N3143 N 0.70947 0.19126 0.10381
 C3144 C 0.70339 0.20040 0.09748
 N3145 N 0.69196 0.20423 0.10146
 N3146 N 0.68675 0.19906 0.11144
 C3147 C 0.69279 0.18988 0.11778
 N3148 N 0.70425 0.18609 0.11380
 C3149 C 0.70885 0.20577 0.08655
 C3150 C 0.71326 0.21025 0.07727
 C3151 C 0.71829 0.21556 0.06612
 N3152 N 0.71055 0.22082 0.05764
 N3153 N 0.71515 0.22565 0.04722
 C3154 C 0.72766 0.22539 0.04486
 N3155 N 0.73538 0.22010 0.05341
 N3156 N 0.73078 0.21527 0.06385
 N3157 N 0.19345 0.70526 0.10272
 C3158 C 0.20378 0.70004 0.09752
 N3159 N 0.20890 0.68971 0.10281
 N3160 N 0.20385 0.68476 0.11299
 C3161 C 0.19350 0.68997 0.11821
 N3162 N 0.18839 0.70031 0.11289
 C3163 C 0.20912 0.70532 0.08650
 C3164 C 0.21347 0.70980 0.07719
 C3165 C 0.21845 0.71519 0.06605
 N3166 N 0.23095 0.71511 0.06383
 N3167 N 0.23553 0.72013 0.05347
 C3168 C 0.22777 0.72542 0.04495
 N3169 N 0.21525 0.72546 0.04726
 N3170 N 0.21067 0.72045 0.05761
 N3171 N 0.20899 0.18968 0.60324
 C3172 C 0.20391 0.20002 0.59794
 N3173 N 0.19363 0.20532 0.60315
 N3174 N 0.18858 0.20042 0.61334
 C3175 C 0.19363 0.19006 0.61867
 N3176 N 0.20393 0.18478 0.61343
 C3177 C 0.20925 0.20524 0.58689
 C3178 C 0.21358 0.20968 0.57756
 C3179 C 0.21854 0.21503 0.56639
 N3180 N 0.21074 0.22029 0.55797
 N3181 N 0.21529 0.22527 0.54759
 C3182 C 0.22781 0.22519 0.54525
 N3183 N 0.23558 0.21990 0.55375
 N3184 N 0.23103 0.21491 0.56413
   
