data_POSCAR
  _audit_creation_date              2014-09-24
  _audit_creation_method            'ToBaCCo'
  _symmetry_space_group_name_H-M    'P1'
  _symmetry_Int_Tables_number       1
  _symmetry_cell_setting            triclinic
  loop_
  _symmetry_equiv_pos_as_xyz
 x,y,z
_cell_length_a 86.7282
_cell_length_b 86.4573
_cell_length_c 86.7547
_cell_angle_alpha 89.937400
_cell_angle_beta 89.955600
_cell_angle_gamma 89.940300
loop_
  _atom_site_label
  _atom_site_type_symbol
  _atom_site_fract_x
  _atom_site_fract_y
  _atom_site_fract_z
N1 N 0.35776 0.31445 0.32522
 N2 N 0.35778 0.32549 0.31481
 C3 C 0.37029 0.32383 0.30574
 C4 C 0.37861 0.31106 0.31076
 C5 C 0.37021 0.30539 0.32314
 H6 H 0.37323 0.33149 0.29634
 H7 H 0.37308 0.29564 0.33038
 Cu8 Cu 0.34180 0.34131 0.31481
 Cu9 Cu 0.34231 0.31323 0.34149
 Cu10 Cu 0.31378 0.34142 0.34149
 N11 N 0.32579 0.35711 0.31480
 N12 N 0.31477 0.35697 0.32520
 C13 C 0.30562 0.36937 0.32308
 C14 C 0.31122 0.37785 0.31071
 C15 C 0.32403 0.36963 0.30572
 H16 H 0.29586 0.37217 0.33031
 H17 H 0.33166 0.37265 0.29635
 N18 N 0.31485 0.32474 0.35702
 N19 N 0.32571 0.31403 0.35702
 C20 C 0.32390 0.30496 0.36952
 C21 C 0.31134 0.31022 0.37791
 C22 C 0.30586 0.32274 0.36954
 H23 H 0.33138 0.29541 0.37244
 H24 H 0.29630 0.33016 0.37256
 H25 H 0.32496 0.32420 0.32944
 H26 H 0.33713 0.33660 0.34212
 N27 N 0.35820 0.81498 -0.17480
 N28 N 0.35812 0.82590 -0.18531
 C29 C 0.37068 0.82433 -0.19432
 C30 C 0.37918 0.81169 -0.18916
 C31 C 0.37075 0.80606 -0.17674
 H32 H 0.37347 0.83199 -0.20375
 H33 H 0.37357 0.79634 -0.16942
 Cu34 Cu 0.34193 0.84150 -0.18591
 Cu35 Cu 0.34263 0.81369 -0.15870
 Cu36 Cu 0.31410 0.84171 -0.15876
 N37 N 0.32615 0.85750 -0.18525
 N38 N 0.31517 0.85736 -0.17484
 C39 C 0.30613 0.86986 -0.17677
 C40 C 0.31178 0.87848 -0.18906
 C41 C 0.32453 0.87016 -0.19416
 H42 H 0.29638 0.87255 -0.16949
 H43 H 0.33222 0.87312 -0.20348
 N44 N 0.31504 0.82497 -0.14337
 N45 N 0.32593 0.81432 -0.14331
 C46 C 0.32406 0.80521 -0.13084
 C47 C 0.31143 0.81043 -0.12253
 C48 C 0.30596 0.82292 -0.13094
 H49 H 0.33155 0.79567 -0.12788
 H50 H 0.29635 0.83031 -0.12799
 H51 H 0.32523 0.82451 -0.17089
 H52 H 0.33753 0.83714 -0.15848
 N53 N 0.85775 0.31561 -0.17475
 N54 N 0.85789 0.32674 -0.18505
 C55 C 0.87047 0.32513 -0.19404
 C56 C 0.87870 0.31230 -0.18906
 C57 C 0.87018 0.30654 -0.17681
 H58 H 0.87346 0.33281 -0.20341
 H59 H 0.87289 0.29664 -0.16971
 Cu60 Cu 0.84181 0.34245 -0.18544
 Cu61 Cu 0.84211 0.31424 -0.15873
 Cu62 Cu 0.81368 0.34244 -0.15870
 N63 N 0.82595 0.35836 -0.18506
 N64 N 0.81487 0.35818 -0.17474
 C65 C 0.80572 0.37058 -0.17687
 C66 C 0.81140 0.37915 -0.18920
 C67 C 0.82425 0.37090 -0.19411
 H68 H 0.79581 0.37317 -0.16979
 H69 H 0.83197 0.37384 -0.20343
 N70 N 0.81455 0.32559 -0.14338
 N71 N 0.82537 0.31486 -0.14341
 C72 C 0.82353 0.30574 -0.13095
 C73 C 0.81098 0.31099 -0.12257
 C74 C 0.80553 0.32355 -0.13089
 H75 H 0.83104 0.29621 -0.12802
 H76 H 0.79603 0.33102 -0.12781
 H77 H 0.82484 0.32525 -0.17098
 H78 H 0.83703 0.33760 -0.15821
 N79 N 0.85760 0.81512 0.32501
 N80 N 0.85765 0.82617 0.31461
 C81 C 0.87020 0.82452 0.30559
 C82 C 0.87848 0.81174 0.31062
 C83 C 0.87003 0.80606 0.32296
 H84 H 0.87318 0.83219 0.29621
 H85 H 0.87286 0.79629 0.33020
 Cu86 Cu 0.84166 0.84198 0.31460
 Cu87 Cu 0.84213 0.81389 0.34126
 Cu88 Cu 0.81362 0.84209 0.34125
 N89 N 0.82563 0.85776 0.31457
 N90 N 0.81463 0.85764 0.32498
 C91 C 0.80547 0.87002 0.32287
 C92 C 0.81104 0.87853 0.31045
 C93 C 0.82386 0.87025 0.30547
 H94 H 0.79569 0.87271 0.33010
 H95 H 0.83155 0.87320 0.29614
 N96 N 0.81469 0.82540 0.35676
 N97 N 0.82553 0.81469 0.35676
 C98 C 0.82375 0.80565 0.36929
 C99 C 0.81123 0.81096 0.37769
 C100 C 0.80573 0.82345 0.36930
 H101 H 0.83125 0.79612 0.37223
 H102 H 0.79619 0.83089 0.37232
 H103 H 0.82478 0.82488 0.32919
 H104 H 0.83695 0.83727 0.34190
 N105 N 0.64298 0.68500 0.32551
 N106 N 0.64330 0.67428 0.31481
 C107 C 0.63083 0.67590 0.30570
 C108 C 0.62218 0.68832 0.31098
 C109 C 0.63035 0.69383 0.32356
 H110 H 0.62818 0.66847 0.29606
 H111 H 0.62722 0.70334 0.33099
 Cu112 Cu 0.65953 0.65874 0.31404
 Cu113 Cu 0.65836 0.68607 0.34176
 Cu114 Cu 0.68655 0.65774 0.34207
 N115 N 0.67501 0.64249 0.31512
 N116 N 0.68558 0.64218 0.32595
 C117 C 0.69435 0.62946 0.32417
 C118 C 0.68896 0.62124 0.31157
 C119 C 0.67668 0.62994 0.30611
 H120 H 0.70384 0.62638 0.33163
 H121 H 0.66929 0.62722 0.29647
 N122 N 0.68559 0.67442 0.35747
 N123 N 0.67486 0.68523 0.35735
 C124 C 0.67670 0.69434 0.36979
 C125 C 0.68917 0.68899 0.37826
 C126 C 0.69455 0.67637 0.37000
 H127 H 0.66922 0.70389 0.37270
 H128 H 0.70410 0.66895 0.37302
 H129 H 0.67599 0.67529 0.32982
 H130 H 0.66316 0.66258 0.34165
 N131 N 0.64281 0.18483 -0.17512
 N132 N 0.64330 0.17415 -0.18586
 C133 C 0.63087 0.17571 -0.19505
 C134 C 0.62209 0.18805 -0.18977
 C135 C 0.63013 0.19357 -0.17712
 H136 H 0.62834 0.16829 -0.20472
 H137 H 0.62686 0.20301 -0.16966
 Cu138 Cu 0.65969 0.15875 -0.18652
 Cu139 Cu 0.65799 0.18601 -0.15873
 Cu140 Cu 0.68628 0.15781 -0.15809
 N141 N 0.67521 0.14252 -0.18520
 N142 N 0.68558 0.14221 -0.17419
 C143 C 0.69442 0.12952 -0.17583
 C144 C 0.68929 0.12126 -0.18857
 C145 C 0.67707 0.13000 -0.19422
 H146 H 0.70374 0.12650 -0.16814
 H147 H 0.66985 0.12741 -0.20401
 N148 N 0.68508 0.17453 -0.14274
 N149 N 0.67430 0.18529 -0.14299
 C150 C 0.67602 0.19449 -0.13059
 C151 C 0.68846 0.18924 -0.12203
 C152 C 0.69395 0.17660 -0.13018
 H153 H 0.66859 0.20414 -0.12788
 H154 H 0.70345 0.16917 -0.12701
 H155 H 0.67581 0.17537 -0.17047
 H156 H 0.66286 0.16256 -0.15886
 N157 N 0.14252 0.68526 -0.17455
 N158 N 0.14255 0.67422 -0.18494
 C159 C 0.13004 0.67580 -0.19399
 C160 C 0.12166 0.68852 -0.18901
 C161 C 0.13004 0.69426 -0.17667
 H162 H 0.12713 0.66810 -0.20335
 H163 H 0.12712 0.70401 -0.16945
 Cu164 Cu 0.15849 0.65839 -0.18489
 Cu165 Cu 0.15795 0.68650 -0.15827
 Cu166 Cu 0.18643 0.65826 -0.15820
 N167 N 0.17445 0.64258 -0.18485
 N168 N 0.18544 0.64270 -0.17443
 C169 C 0.19457 0.63029 -0.17650
 C170 C 0.18898 0.62181 -0.18886
 C171 C 0.17620 0.63005 -0.19388
 H172 H 0.20430 0.62747 -0.16926
 H173 H 0.16859 0.62704 -0.20326
 N174 N 0.18538 0.67495 -0.14273
 N175 N 0.17455 0.68568 -0.14275
 C176 C 0.17640 0.69476 -0.13028
 C177 C 0.18896 0.68948 -0.12192
 C178 C 0.19440 0.67694 -0.13026
 H179 H 0.16896 0.70434 -0.12737
 H180 H 0.20395 0.66950 -0.12725
 H181 H 0.17527 0.67553 -0.17029
 H182 H 0.16305 0.66315 -0.15758
 N183 N 0.14234 0.18542 0.32583
 N184 N 0.14236 0.17443 0.31539
 C185 C 0.12985 0.17610 0.30633
 C186 C 0.12148 0.18879 0.31142
 C187 C 0.12986 0.19444 0.32379
 H188 H 0.12688 0.16841 0.29698
 H189 H 0.12702 0.20423 0.33098
 Cu190 Cu 0.15835 0.15860 0.31534
 Cu191 Cu 0.15775 0.18655 0.34210
 Cu192 Cu 0.18628 0.15834 0.34210
 N193 N 0.17437 0.14282 0.31537
 N194 N 0.18533 0.14288 0.32579
 C195 C 0.19449 0.13049 0.32368
 C196 C 0.18894 0.12209 0.31126
 C197 C 0.17617 0.13035 0.30624
 H198 H 0.20429 0.12771 0.33084
 H199 H 0.16852 0.12732 0.29690
 N200 N 0.18515 0.17495 0.35763
 N201 N 0.17431 0.18567 0.35762
 C202 C 0.17604 0.19465 0.37017
 C203 C 0.18853 0.18931 0.37858
 C204 C 0.19406 0.17685 0.37019
 H205 H 0.16854 0.20418 0.37312
 H206 H 0.20358 0.16939 0.37323
 H207 H 0.17518 0.17560 0.33007
 H208 H 0.16295 0.16315 0.34270
 N209 N 0.64259 0.31493 0.67505
 N210 N 0.64243 0.32594 0.68547
 C211 C 0.62990 0.32419 0.69448
 C212 C 0.62171 0.31139 0.68943
 C213 C 0.63021 0.30579 0.67709
 H214 H 0.62687 0.33180 0.70387
 H215 H 0.62744 0.29603 0.66983
 Cu216 Cu 0.65822 0.34190 0.68556
 Cu217 Cu 0.65815 0.31389 0.65884
 Cu218 Cu 0.68634 0.34235 0.65901
 N219 N 0.67404 0.35785 0.68565
 N220 N 0.68509 0.35780 0.67528
 C221 C 0.69413 0.37024 0.67740
 C222 C 0.68845 0.37867 0.68974
 C223 C 0.67568 0.37038 0.69472
 H224 H 0.70388 0.37308 0.67018
 H225 H 0.66802 0.37336 0.70407
 N226 N 0.68556 0.32575 0.64347
 N227 N 0.67485 0.31492 0.64340
 C228 C 0.67686 0.30595 0.63088
 C229 C 0.68939 0.31141 0.62258
 C230 C 0.69465 0.32394 0.63101
 H231 H 0.66944 0.29641 0.62780
 H232 H 0.70420 0.33141 0.62814
 H233 H 0.67530 0.32497 0.67099
 H234 H 0.66303 0.33728 0.65827
 N235 N 0.64245 0.81485 1.17385
 N236 N 0.64273 0.82522 1.18490
 C237 C 0.63063 0.82288 1.19432
 C238 C 0.62219 0.81042 1.18885
 C239 C 0.63015 0.80557 1.17585
 H240 H 0.62789 0.83006 1.20413
 H241 H 0.62706 0.79628 1.16813
 Cu242 Cu 0.65816 0.84155 1.18514
 Cu243 Cu 0.65711 0.81533 1.15687
 Cu244 Cu 0.68684 0.84199 1.15891
 N245 N 0.67410 0.85737 1.18546
 N246 N 0.68540 0.85725 1.17537
 C247 C 0.69446 0.86964 1.17773
 C248 C 0.68852 0.87810 1.18994
 C249 C 0.67560 0.86987 1.19459
 H250 H 0.70441 0.87242 1.17077
 H251 H 0.66768 0.87291 1.20371
 N252 N 0.68581 0.82569 1.14301
 N253 N 0.67442 0.81562 1.14219
 C254 C 0.67643 0.80674 1.12962
 C255 C 0.68964 0.81150 1.12201
 C256 C 0.69532 0.82351 1.13092
 H257 H 0.66856 0.79777 1.12603
 H258 H 0.70546 0.83039 1.12860
 H259 H 0.67465 0.82472 1.16993
 H260 H 0.66362 0.83862 1.15767
 N261 N 0.14209 0.31475 1.17483
 N262 N 0.14233 0.32554 1.18549
 C263 C 0.12973 0.32405 1.19447
 C264 C 0.12112 0.31162 1.18917
 C265 C 0.12942 0.30601 1.17670
 H266 H 0.12698 0.33156 1.20404
 H267 H 0.12636 0.29648 1.16927
 Cu268 Cu 0.15885 0.34071 1.18571
 Cu269 Cu 0.15757 0.31344 1.15852
 Cu270 Cu 0.18614 0.34167 1.15853
 N271 N 0.17426 0.35703 1.18553
 N272 N 0.18504 0.35718 1.17487
 C273 C 0.19392 0.36978 1.17680
 C274 C 0.18839 0.37810 1.18930
 C275 C 0.17588 0.36959 1.19456
 H276 H 0.20349 0.37276 1.16940
 H277 H 0.16838 0.37240 1.20410
 N278 N 0.18508 0.32497 1.14302
 N279 N 0.17424 0.31426 1.14302
 C280 C 0.17613 0.30516 1.13057
 C281 C 0.18873 0.31040 1.12223
 C282 C 0.19414 0.32294 1.13057
 H283 H 0.16870 0.29559 1.12765
 H284 H 0.20372 0.33033 1.12758
 H285 H 0.17535 0.32399 1.17020
 H286 H 0.16285 0.33674 1.15823
 N287 N 0.14277 0.81447 0.67432
 N288 N 0.14267 0.82566 0.68455
 C289 C 0.13013 0.82413 0.69359
 C290 C 0.12185 0.81132 0.68872
 C291 C 0.13031 0.80546 0.67649
 H292 H 0.12708 0.83198 0.70278
 H293 H 0.12753 0.79553 0.66947
 Cu294 Cu 0.15855 0.84154 0.68454
 Cu295 Cu 0.15819 0.81310 0.65803
 Cu296 Cu 0.18495 0.84280 0.65650
 N297 N 0.17492 0.85695 0.68462
 N298 N 0.18536 0.85726 0.67365
 C299 C 0.19469 0.86949 0.67582
 C300 C 0.18982 0.87738 0.68885
 C301 C 0.17727 0.86898 0.69417
 H302 H 0.20401 0.87261 0.66816
 H303 H 0.17006 0.87166 0.70397
 N304 N 0.18472 0.82562 0.64165
 N305 N 0.17463 0.81423 0.64233
 C306 C 0.17682 0.80483 0.63015
 C307 C 0.18884 0.81058 0.62133
 C308 C 0.19363 0.82372 0.62908
 H309 H 0.16992 0.79473 0.62772
 H310 H 0.20262 0.83161 0.62558
 H311 H 0.17539 0.82512 0.66929
 H312 H 0.16170 0.83638 0.65704
 N313 N 0.35783 0.68559 0.67431
 N314 N 0.35786 0.67467 0.68486
 C315 C 0.37037 0.67641 0.69387
 C316 C 0.37868 0.68909 0.68867
 C317 C 0.37028 0.69465 0.67626
 H318 H 0.37338 0.66879 0.70328
 H319 H 0.37307 0.70441 0.66900
 Cu320 Cu 0.34194 0.65881 0.68506
 Cu321 Cu 0.34234 0.68662 0.65808
 Cu322 Cu 0.31393 0.65836 0.65843
 N323 N 0.32601 0.64296 0.68526
 N324 N 0.31499 0.64299 0.67487
 C325 C 0.30588 0.63060 0.67711
 C326 C 0.31150 0.62223 0.68955
 C327 C 0.32429 0.63050 0.69444
 H328 H 0.29614 0.62773 0.66991
 H329 H 0.33193 0.62756 0.70383
 N330 N 0.31492 0.67490 0.64273
 N331 N 0.32573 0.68563 0.64263
 C332 C 0.32387 0.69460 0.63007
 C333 C 0.31134 0.68925 0.62175
 C334 C 0.30591 0.67678 0.63022
 H335 H 0.33130 0.70416 0.62707
 H336 H 0.29637 0.66933 0.62728
 H337 H 0.32503 0.67575 0.67028
 H338 H 0.33726 0.66325 0.65770
 N339 N 0.35797 0.18526 1.17489
 N340 N 0.35788 0.17434 1.18543
 C341 C 0.37034 0.17598 1.19452
 C342 C 0.37874 0.18863 1.18942
 C343 C 0.37045 0.19426 1.17696
 H344 H 0.37320 0.16837 1.20400
 H345 H 0.37341 0.20391 1.16963
 Cu346 Cu 0.34195 0.15853 1.18541
 Cu347 Cu 0.34259 0.18643 1.15854
 Cu348 Cu 0.31424 0.15810 1.15852
 N349 N 0.32613 0.14261 1.18536
 N350 N 0.31528 0.14259 1.17481
 C351 C 0.30628 0.13008 1.17684
 C352 C 0.31183 0.12170 1.18929
 C353 C 0.32444 0.13009 1.19443
 H354 H 0.29664 0.12719 1.16952
 H355 H 0.33202 0.12715 1.20387
 N356 N 0.31526 0.17476 1.14299
 N357 N 0.32604 0.18552 1.14298
 C358 C 0.32415 0.19459 1.13048
 C359 C 0.31161 0.18926 1.12214
 C360 C 0.30625 0.17670 1.13051
 H361 H 0.33155 0.20419 1.12755
 H362 H 0.29674 0.16924 1.12753
 H363 H 0.32517 0.17551 1.17052
 H364 H 0.33753 0.16309 1.15805
 N365 N 0.85777 0.68542 1.17428
 N366 N 0.85750 0.67487 1.18518
 C367 C 0.87006 0.67655 1.19413
 C368 C 0.87873 0.68881 1.18853
 C369 C 0.87047 0.69418 1.17594
 H370 H 0.87282 0.66918 1.20380
 H371 H 0.87353 0.70363 1.16838
 Cu372 Cu 0.84124 0.65941 1.18635
 Cu373 Cu 0.84229 0.68633 1.15814
 Cu374 Cu 0.81398 0.65820 1.15861
 N375 N 0.82569 0.64321 1.18571
 N376 N 0.81501 0.64288 1.17500
 C377 C 0.80621 0.63023 1.17700
 C378 C 0.81170 0.62205 1.18962
 C379 C 0.82407 0.63072 1.19487
 H380 H 0.79672 0.62711 1.16958
 H381 H 0.83153 0.62805 1.20447
 N382 N 0.81490 0.67464 1.14289
 N383 N 0.82571 0.68536 1.14273
 C384 C 0.82385 0.69428 1.13014
 C385 C 0.81130 0.68890 1.12186
 C386 C 0.80587 0.67647 1.13039
 H387 H 0.83128 0.70382 1.12709
 H388 H 0.79633 0.66901 1.12750
 H389 H 0.82473 0.67585 1.17043
 H390 H 0.83738 0.66286 1.15871
 N391 N 0.85752 0.18558 0.67434
 N392 N 0.85768 0.17469 0.68491
 C393 C 0.87018 0.17655 0.69388
 C394 C 0.87839 0.18928 0.68865
 C395 C 0.86992 0.19475 0.67623
 H396 H 0.87327 0.16896 0.70329
 H397 H 0.87264 0.20451 0.66894
 Cu398 Cu 0.84196 0.15866 0.68526
 Cu399 Cu 0.84189 0.18640 0.65820
 Cu400 Cu 0.81380 0.15783 0.65887
 N401 N 0.82624 0.14262 0.68561
 N402 N 0.81516 0.14255 0.67531
 C403 C 0.80620 0.13007 0.67756
 C404 C 0.81197 0.12174 0.68993
 C405 C 0.82470 0.13013 0.69479
 H406 H 0.79642 0.12718 0.67043
 H407 H 0.83245 0.12722 0.70410
 N408 N 0.81446 0.17427 0.64314
 N409 N 0.82514 0.18513 0.64289
 C410 C 0.82307 0.19397 0.63028
 C411 C 0.81054 0.18838 0.62210
 C412 C 0.80534 0.17592 0.63069
 H413 H 0.83046 0.20349 0.62707
 H414 H 0.79580 0.16840 0.62794
 H415 H 0.82481 0.17537 0.67056
 H416 H 0.83708 0.16296 0.65793
 N417 N 0.31497 0.35704 0.67443
 N418 N 0.32574 0.35681 0.68505
 C419 C 0.32412 0.36932 0.69414
 C420 C 0.31164 0.37790 0.68894
 C421 C 0.30610 0.36966 0.67642
 H422 H 0.33159 0.37205 0.70371
 H423 H 0.29655 0.37274 0.66904
 Cu424 Cu 0.34135 0.34065 0.68568
 Cu425 Cu 0.31386 0.34162 0.65819
 Cu426 Cu 0.34222 0.31343 0.65785
 N427 N 0.35756 0.32511 0.68468
 N428 N 0.35779 0.31446 0.67391
 C429 C 0.37045 0.30563 0.67569
 C430 C 0.37871 0.31106 0.68825
 C431 C 0.37009 0.32344 0.69367
 H432 H 0.37347 0.29607 0.66827
 H433 H 0.37286 0.33088 0.70327
 N434 N 0.32552 0.31432 0.64252
 N435 N 0.31471 0.32506 0.64263
 C436 C 0.30566 0.32319 0.63016
 C437 C 0.31107 0.31071 0.62171
 C438 C 0.32364 0.30535 0.63000
 H439 H 0.29614 0.33068 0.62720
 H440 H 0.33110 0.29581 0.62698
 H441 H 0.32475 0.32407 0.67011
 H442 H 0.33727 0.33690 0.65810
 N443 N 0.31499 0.85763 0.17465
 N444 N 0.32574 0.85733 0.18532
 C445 C 0.32420 0.86988 0.19438
 C446 C 0.31178 0.87853 0.18912
 C447 C 0.30622 0.87031 0.17660
 H448 H 0.33167 0.87258 0.20396
 H449 H 0.29672 0.87345 0.16916
 Cu450 Cu 0.34098 0.84083 0.18547
 Cu451 Cu 0.31380 0.84225 0.15822
 Cu452 Cu 0.34206 0.81366 0.15817
 N453 N 0.35731 0.82540 0.18526
 N454 N 0.35750 0.81465 0.17456
 C455 C 0.37008 0.80574 0.17646
 C456 C 0.37836 0.81123 0.18899
 C457 C 0.36984 0.82374 0.19429
 H458 H 0.37313 0.79622 0.16900
 H459 H 0.37261 0.83119 0.20388
 N460 N 0.32546 0.81480 0.14260
 N461 N 0.31474 0.82565 0.14260
 C462 C 0.30570 0.82379 0.13011
 C463 C 0.31100 0.81119 0.12176
 C464 C 0.32350 0.80577 0.13012
 H465 H 0.29613 0.83123 0.12719
 H466 H 0.33092 0.79618 0.12714
 H467 H 0.32436 0.82441 0.16986
 H468 H 0.33705 0.83705 0.15797
 N469 N 0.81480 0.35697 0.17433
 N470 N 0.82581 0.35695 0.18471
 C471 C 0.82410 0.36938 0.19390
 C472 C 0.81132 0.37769 0.18901
 C473 C 0.80569 0.36937 0.17657
 H474 H 0.83174 0.37226 0.20330
 H475 H 0.79594 0.37228 0.16939
 Cu476 Cu 0.84174 0.34109 0.18453
 Cu477 Cu 0.81373 0.34161 0.15791
 Cu478 Cu 0.84217 0.31331 0.15760
 N479 N 0.85765 0.32523 0.18435
 N480 N 0.85766 0.31432 0.17383
 C481 C 0.87013 0.30526 0.17583
 C482 C 0.87848 0.31081 0.18826
 C483 C 0.87013 0.32349 0.19341
 H484 H 0.87296 0.29549 0.16860
 H485 H 0.87310 0.33111 0.20281
 N486 N 0.82555 0.31434 0.14214
 N487 N 0.81474 0.32509 0.14224
 C488 C 0.80573 0.32326 0.12973
 C489 C 0.81116 0.31080 0.12126
 C490 C 0.82369 0.30540 0.12958
 H491 H 0.79619 0.33074 0.12679
 H492 H 0.83113 0.29584 0.12657
 H493 H 0.82484 0.32420 0.16977
 H494 H 0.83706 0.33670 0.15718
 N495 N 0.81460 0.85752 0.67386
 N496 N 0.82547 0.85767 0.68441
 C497 C 0.82359 0.87020 0.69340
 C498 C 0.81088 0.87843 0.68821
 C499 C 0.80543 0.86994 0.67581
 H500 H 0.83116 0.87328 0.70279
 H501 H 0.79568 0.87267 0.66855
 Cu502 Cu 0.84146 0.84189 0.68469
 Cu503 Cu 0.81378 0.84189 0.65771
 Cu504 Cu 0.84232 0.81370 0.65820
 N505 N 0.85746 0.82609 0.68499
 N506 N 0.85758 0.81502 0.67462
 C507 C 0.87001 0.80599 0.67689
 C508 C 0.87826 0.81172 0.68932
 C509 C 0.86987 0.82449 0.69418
 H510 H 0.87297 0.79623 0.66972
 H511 H 0.87270 0.83218 0.70357
 N512 N 0.82589 0.81443 0.64250
 N513 N 0.81503 0.82513 0.64234
 C514 C 0.80613 0.82307 0.62980
 C515 C 0.81167 0.81051 0.62156
 C516 C 0.82418 0.80530 0.63004
 H517 H 0.79659 0.83047 0.62669
 H518 H 0.83168 0.79573 0.62722
 H519 H 0.82482 0.82470 0.67000
 H520 H 0.83715 0.83704 0.65737
 N521 N 0.68555 0.64323 0.67425
 N522 N 0.67462 0.64318 0.68475
 C523 C 0.67643 0.63071 0.69388
 C524 C 0.68917 0.62243 0.68881
 C525 C 0.69469 0.63082 0.67636
 H526 H 0.66881 0.62769 0.70326
 H527 H 0.70446 0.62803 0.66915
 Cu528 Cu 0.65865 0.65900 0.68478
 Cu529 Cu 0.68645 0.65867 0.65790
 Cu530 Cu 0.65796 0.68690 0.65791
 N531 N 0.64270 0.67484 0.68482
 N532 N 0.64263 0.68581 0.67432
 C533 C 0.63019 0.69486 0.67644
 C534 C 0.62189 0.68926 0.68891
 C535 C 0.63026 0.67656 0.69398
 H536 H 0.62732 0.70465 0.66924
 H537 H 0.62733 0.66890 0.70338
 N538 N 0.67445 0.68595 0.64227
 N539 N 0.68529 0.67523 0.64230
 C540 C 0.69422 0.67709 0.62974
 C541 C 0.68872 0.68954 0.62129
 C542 C 0.67620 0.69490 0.62967
 H543 H 0.70374 0.66962 0.62674
 H544 H 0.66872 0.70443 0.62668
 H545 H 0.67538 0.67601 0.66990
 H546 H 0.66310 0.66354 0.65740
 N547 N 0.68571 0.14281 0.17393
 N548 N 0.67480 0.14275 0.18444
 C549 C 0.67665 0.13028 0.19358
 C550 C 0.68939 0.12202 0.18848
 C551 C 0.69487 0.13042 0.17601
 H552 H 0.66905 0.12724 0.20297
 H553 H 0.70464 0.12764 0.16879
 Cu554 Cu 0.65881 0.15853 0.18450
 Cu555 Cu 0.68658 0.15827 0.15759
 Cu556 Cu 0.65806 0.18648 0.15770
 N557 N 0.64285 0.17435 0.18457
 N558 N 0.64274 0.18533 0.17409
 C559 C 0.63028 0.19435 0.17623
 C560 C 0.62202 0.18872 0.18870
 C561 C 0.63043 0.17603 0.19375
 H562 H 0.62739 0.20415 0.16905
 H563 H 0.62753 0.16835 0.20314
 N564 N 0.67454 0.18559 0.14207
 N565 N 0.68538 0.17488 0.14203
 C566 C 0.69427 0.17679 0.12945
 C567 C 0.68873 0.18925 0.12106
 C568 C 0.67625 0.19458 0.12950
 H569 H 0.70380 0.16934 0.12640
 H570 H 0.66875 0.20412 0.12658
 H571 H 0.67551 0.17557 0.16964
 H572 H 0.66323 0.16312 0.15713
 N573 N 0.18524 0.64271 0.17383
 N574 N 0.17464 0.64296 0.18464
 C575 C 0.17637 0.63043 0.19370
 C576 C 0.18873 0.62180 0.18829
 C577 C 0.19410 0.63005 0.17566
 H578 H 0.16896 0.62767 0.20333
 H579 H 0.20361 0.62701 0.16821
 Cu580 Cu 0.15908 0.65918 0.18560
 Cu581 Cu 0.18616 0.65822 0.15763
 Cu582 Cu 0.15779 0.68638 0.15768
 N583 N 0.14277 0.67466 0.18474
 N584 N 0.14242 0.68529 0.17393
 C585 C 0.12976 0.69409 0.17578
 C586 C 0.12159 0.68866 0.18841
 C587 C 0.13028 0.67632 0.19383
 H588 H 0.12668 0.70362 0.16833
 H589 H 0.12757 0.66888 0.20348
 N590 N 0.17430 0.68556 0.14213
 N591 N 0.18513 0.67485 0.14214
 C592 C 0.19410 0.67678 0.12961
 C593 C 0.18862 0.68927 0.12121
 C594 C 0.17609 0.69459 0.12959
 H595 H 0.20363 0.66932 0.12660
 H596 H 0.16860 0.70413 0.12665
 H597 H 0.17544 0.67579 0.16971
 H598 H 0.16273 0.66293 0.15797
 N599 N 0.18519 0.14229 0.67465
 N600 N 0.17420 0.14214 0.68507
 C601 C 0.17598 0.12961 0.69414
 C602 C 0.18878 0.12141 0.68911
 C603 C 0.19435 0.12990 0.67674
 H604 H 0.16838 0.12659 0.70353
 H605 H 0.20411 0.12712 0.66949
 Cu606 Cu 0.15823 0.15794 0.68511
 Cu607 Cu 0.18621 0.15787 0.65839
 Cu608 Cu 0.15772 0.18609 0.65848
 N609 N 0.14227 0.17376 0.68515
 N610 N 0.14230 0.18482 0.67477
 C611 C 0.12985 0.19386 0.67684
 C612 C 0.12143 0.18815 0.68919
 C613 C 0.12974 0.17538 0.69421
 H614 H 0.12699 0.20362 0.66961
 H615 H 0.12678 0.16770 0.70358
 N616 N 0.17430 0.18530 0.64295
 N617 N 0.18514 0.17458 0.64291
 C618 C 0.19412 0.17659 0.63040
 C619 C 0.18866 0.18914 0.62207
 C620 C 0.17612 0.19441 0.63047
 H621 H 0.20367 0.16916 0.62737
 H622 H 0.16866 0.20398 0.62758
 H623 H 0.17506 0.17509 0.67050
 H624 H 0.16285 0.16273 0.65780
 N625 N 0.31504 0.64249 0.32541
 N626 N 0.32572 0.64264 0.31468
 C627 C 0.32407 0.63003 0.30573
 C628 C 0.31167 0.62148 0.31113
 C629 C 0.30620 0.62984 0.32363
 H630 H 0.33147 0.62724 0.29610
 H631 H 0.29673 0.62681 0.33114
 Cu632 Cu 0.34130 0.65880 0.31370
 Cu633 Cu 0.31404 0.65808 0.34151
 Cu634 Cu 0.34240 0.68618 0.34138
 N635 N 0.35757 0.67425 0.31452
 N636 N 0.35786 0.68497 0.32523
 C637 C 0.37053 0.69373 0.32335
 C638 C 0.37875 0.68819 0.31080
 C639 C 0.37011 0.67581 0.30548
 H640 H 0.37366 0.70322 0.33081
 H641 H 0.37279 0.66837 0.29585
 N642 N 0.32581 0.68549 0.35685
 N643 N 0.31498 0.67479 0.35689
 C644 C 0.30596 0.67683 0.36937
 C645 C 0.31141 0.68937 0.37768
 C646 C 0.32397 0.69460 0.36929
 H647 H 0.29643 0.66940 0.37243
 H648 H 0.33144 0.70414 0.37219
 H649 H 0.32482 0.67553 0.32933
 H650 H 0.33745 0.66273 0.34128
 N651 N 0.31472 0.14215 0.82545
 N652 N 0.32575 0.14215 0.81505
 C653 C 0.32412 0.12967 0.80594
 C654 C 0.31140 0.12132 0.81090
 C655 C 0.30570 0.12969 0.82329
 H656 H 0.33178 0.12675 0.79656
 H657 H 0.29597 0.12678 0.83050
 Cu658 Cu 0.34156 0.15809 0.81511
 Cu659 Cu 0.31355 0.15757 0.84180
 Cu660 Cu 0.34177 0.18603 0.84187
 N661 N 0.35738 0.17401 0.81517
 N662 N 0.35727 0.18502 0.82559
 C663 C 0.36968 0.19412 0.82351
 C664 C 0.37814 0.18849 0.81115
 C665 C 0.36988 0.17573 0.80612
 H666 H 0.37251 0.20387 0.83077
 H667 H 0.37287 0.16810 0.79672
 N668 N 0.32513 0.18498 0.85738
 N669 N 0.31442 0.17415 0.85738
 C670 C 0.30538 0.17602 0.86989
 C671 C 0.31067 0.18859 0.87825
 C672 C 0.32317 0.19400 0.86987
 H673 H 0.29582 0.16857 0.87282
 H674 H 0.33060 0.20355 0.87286
 H675 H 0.32453 0.17496 0.82980
 H676 H 0.33685 0.16263 0.84244
 N677 N 0.81515 0.64293 0.82572
 N678 N 0.82615 0.64280 0.81530
 C679 C 0.82443 0.63026 0.80628
 C680 C 0.81167 0.62202 0.81133
 C681 C 0.80605 0.63051 0.82368
 H682 H 0.83205 0.62724 0.79690
 H683 H 0.79632 0.62770 0.83094
 Cu684 Cu 0.84207 0.65861 0.81523
 Cu685 Cu 0.81410 0.65847 0.84195
 Cu686 Cu 0.84253 0.68670 0.84184
 N687 N 0.85797 0.67446 0.81515
 N688 N 0.85796 0.68550 0.82554
 C689 C 0.87039 0.69454 0.82340
 C690 C 0.87876 0.68884 0.81102
 C691 C 0.87045 0.67609 0.80605
 H692 H 0.87328 0.70429 0.83061
 H693 H 0.87336 0.66843 0.79667
 N694 N 0.82595 0.68587 0.85739
 N695 N 0.81514 0.67515 0.85742
 C696 C 0.80614 0.67713 0.86993
 C697 C 0.81158 0.68965 0.87826
 C698 C 0.82412 0.69493 0.86987
 H699 H 0.79661 0.66970 0.87296
 H700 H 0.83156 0.70450 0.87277
 H701 H 0.82519 0.67568 0.82984
 H702 H 0.83743 0.66330 0.84253
 N703 N 0.81474 0.14243 0.32612
 N704 N 0.82534 0.14281 0.31532
 C705 C 0.82372 0.13030 0.30622
 C706 C 0.81142 0.12158 0.31161
 C707 C 0.80600 0.12972 0.32426
 H708 H 0.83114 0.12763 0.29657
 H709 H 0.79650 0.12660 0.33170
 Cu710 Cu 0.84073 0.15918 0.31448
 Cu711 Cu 0.81361 0.15781 0.34238
 Cu712 Cu 0.84161 0.18625 0.34249
 N713 N 0.85685 0.17483 0.31542
 N714 N 0.85706 0.18541 0.32626
 C715 C 0.86964 0.19432 0.32445
 C716 C 0.87789 0.18903 0.31181
 C717 C 0.86933 0.17664 0.30635
 H718 H 0.87263 0.20383 0.33194
 H719 H 0.87213 0.16926 0.29671
 N720 N 0.82505 0.18516 0.35800
 N721 N 0.81438 0.17432 0.35795
 C722 C 0.80535 0.17607 0.37046
 C723 C 0.81062 0.18859 0.37890
 C724 C 0.82309 0.19410 0.37055
 H725 H 0.79582 0.16857 0.37334
 H726 H 0.83050 0.20365 0.37360
 H727 H 0.82414 0.17554 0.33038
 H728 H 0.83698 0.16276 0.34211
 N729 N 0.68503 0.35720 0.32523
 N730 N 0.67420 0.35689 0.31466
 C731 C 0.67566 0.36943 0.30552
 C732 C 0.68814 0.37806 0.31065
 C733 C 0.69378 0.36984 0.32316
 H734 H 0.66812 0.37215 0.29599
 H735 H 0.70333 0.37295 0.33051
 Cu736 Cu 0.65900 0.34038 0.31479
 Cu737 Cu 0.68641 0.34191 0.34172
 Cu738 Cu 0.65827 0.31329 0.34231
 N739 N 0.64280 0.32489 0.31526
 N740 N 0.64270 0.31421 0.32605
 C741 C 0.63014 0.30527 0.32427
 C742 C 0.62180 0.31066 0.31173
 C743 C 0.63025 0.32315 0.30630
 H744 H 0.62725 0.29568 0.33173
 H745 H 0.62735 0.33061 0.29674
 N746 N 0.67501 0.31458 0.35768
 N747 N 0.68569 0.32544 0.35745
 C748 C 0.69480 0.32376 0.36990
 C749 C 0.68960 0.31128 0.37847
 C750 C 0.67706 0.30572 0.37028
 H751 H 0.70433 0.33130 0.37268
 H752 H 0.66966 0.29621 0.37349
 H753 H 0.67572 0.32396 0.33034
 H754 H 0.66313 0.33665 0.34229
 N755 N 0.68495 0.85705 0.82561
 N756 N 0.67388 0.85718 0.81529
 C757 C 0.67560 0.86969 0.80617
 C758 C 0.68844 0.87789 0.81108
 C759 C 0.69409 0.86941 0.82342
 H760 H 0.66794 0.87272 0.79682
 H761 H 0.70388 0.87218 0.83059
 Cu762 Cu 0.65797 0.84134 0.81550
 Cu763 Cu 0.68610 0.84164 0.84196
 Cu764 Cu 0.65770 0.81339 0.84239
 N765 N 0.64210 0.82547 0.81571
 N766 N 0.64216 0.81449 0.82619
 C767 C 0.62973 0.80541 0.82420
 C768 C 0.62131 0.81102 0.81181
 C769 C 0.62960 0.82374 0.80668
 H770 H 0.62697 0.79560 0.83139
 H771 H 0.62658 0.83140 0.79731
 N772 N 0.67439 0.81437 0.85777
 N773 N 0.68519 0.82510 0.85760
 C774 C 0.69425 0.82327 0.87006
 C775 C 0.68888 0.81083 0.87858
 C776 C 0.67631 0.80544 0.87035
 H777 H 0.70378 0.83075 0.87294
 H778 H 0.66889 0.79589 0.87343
 H779 H 0.67491 0.82428 0.83011
 H780 H 0.66277 0.83673 0.84280
 N781 N 0.18528 0.35704 0.82598
 N782 N 0.17435 0.35713 0.81550
 C783 C 0.17619 0.36959 0.80636
 C784 C 0.18893 0.37785 0.81142
 C785 C 0.19442 0.36944 0.82388
 H786 H 0.16859 0.37263 0.79698
 H787 H 0.20419 0.37221 0.83109
 Cu788 Cu 0.15837 0.34132 0.81548
 Cu789 Cu 0.18616 0.34158 0.84233
 Cu790 Cu 0.15766 0.31338 0.84230
 N791 N 0.14241 0.32550 0.81545
 N792 N 0.14233 0.31452 0.82593
 C793 C 0.12988 0.30549 0.82382
 C794 C 0.12159 0.31113 0.81136
 C795 C 0.12998 0.32382 0.80631
 H796 H 0.12700 0.29570 0.83101
 H797 H 0.12706 0.33149 0.79692
 N798 N 0.17414 0.31428 0.85792
 N799 N 0.18497 0.32498 0.85792
 C800 C 0.19385 0.32310 0.87051
 C801 C 0.18832 0.31066 0.87894
 C802 C 0.17585 0.30532 0.87051
 H803 H 0.20337 0.33054 0.87353
 H804 H 0.16835 0.29580 0.87347
 H805 H 0.17511 0.32428 0.83031
 H806 H 0.16281 0.33675 0.84285
 N807 N 0.18505 0.85693 0.32506
 N808 N 0.17401 0.85699 0.31469
 C809 C 0.17573 0.86947 0.30553
 C810 C 0.18854 0.87772 0.31043
 C811 C 0.19416 0.86931 0.32284
 H812 H 0.16808 0.87244 0.29616
 H813 H 0.20390 0.87216 0.33004
 Cu814 Cu 0.15809 0.84114 0.31491
 Cu815 Cu 0.18613 0.84157 0.34148
 Cu816 Cu 0.15771 0.81333 0.34189
 N817 N 0.14219 0.82529 0.31513
 N818 N 0.14221 0.81436 0.32567
 C819 C 0.12976 0.80532 0.32372
 C820 C 0.12136 0.81089 0.31130
 C821 C 0.12969 0.82356 0.30611
 H822 H 0.12694 0.79556 0.33097
 H823 H 0.12669 0.83120 0.29672
 N824 N 0.17435 0.81433 0.35731
 N825 N 0.18516 0.82506 0.35717
 C826 C 0.19417 0.82322 0.36968
 C827 C 0.18874 0.81079 0.37819
 C828 C 0.17621 0.80540 0.36990
 H829 H 0.20370 0.83069 0.37259
 H830 H 0.16877 0.79586 0.37295
 H831 H 0.17499 0.82418 0.32966
 H832 H 0.16280 0.83669 0.34225
 C833 C 0.24740 1.04143 0.24749
 C834 C 0.25849 1.03357 0.23894
 C835 C 0.25995 1.01749 0.24045
 C836 C 0.24972 1.00888 0.24999
 C837 C 0.23881 1.01739 0.25883
 C838 C 0.23781 1.03354 0.25768
 C839 C 0.25021 0.99132 0.25043
 C840 C 0.24113 0.98272 0.26108
 C841 C 0.24122 0.96650 0.26103
 C842 C 0.25042 0.95859 0.25052
 C843 C 0.25953 0.96657 0.23999
 C844 C 0.25944 0.98278 0.23987
 H845 H 0.24663 1.05393 0.24665
 H846 H 0.26905 1.01206 0.23397
 H847 H 0.23076 1.01186 0.26651
 H848 H 0.23401 0.98822 0.26965
 H849 H 0.25044 0.94603 0.25051
 H850 H 0.26636 0.98831 0.23116
 C851 C 0.25075 0.54131 0.75054
 C852 C 0.25973 0.53336 0.73987
 C853 C 0.25962 0.51713 0.73972
 C854 C 0.25048 0.50856 0.75036
 C855 C 0.24153 0.51715 0.76112
 C856 C 0.24165 0.53337 0.76112
 C857 C 0.24994 0.49099 0.74993
 C858 C 0.23907 0.48252 0.75888
 C859 C 0.23808 0.46636 0.75786
 C860 C 0.24765 0.45843 0.74769
 C861 C 0.25865 0.46622 0.73896
 C862 C 0.26009 0.48233 0.74035
 H863 H 0.25079 0.55386 0.75056
 H864 H 0.26647 0.51160 0.73095
 H865 H 0.23451 0.51165 0.76976
 H866 H 0.23100 0.48810 0.76651
 H867 H 0.24688 0.44593 0.74696
 H868 H 0.26911 0.48774 0.73373
 C869 C 0.74992 -0.04135 0.25039
 C870 C 0.75906 -0.03340 0.26089
 C871 C 0.75911 -0.01718 0.26091
 C872 C 0.75013 -0.00863 0.25016
 C873 C 0.74103 -0.01718 0.23953
 C874 C 0.74087 -0.03340 0.23978
 C875 C 0.75023 0.00891 0.25005
 C876 C 0.73931 0.01748 0.24130
 C877 C 0.73950 0.03369 0.24115
 C878 C 0.75038 0.04162 0.24989
 C879 C 0.76119 0.03365 0.25870
 C880 C 0.76124 0.01743 0.25870
 H881 H 0.74985 -0.05391 0.25047
 H882 H 0.76601 -0.01162 0.26961
 H883 H 0.73420 -0.01163 0.23075
 H884 H 0.73033 0.01194 0.23475
 H885 H 0.75041 0.05417 0.24984
 H886 H 0.77017 0.01183 0.26530
 C887 C 0.75056 0.45895 0.74995
 C888 C 0.75971 0.46692 0.76042
 C889 C 0.75969 0.48313 0.76048
 C890 C 0.75040 0.49170 0.74998
 C891 C 0.74125 0.48311 0.73942
 C892 C 0.74134 0.46689 0.73948
 C893 C 0.74990 0.50926 0.75038
 C894 C 0.73918 0.51778 0.74129
 C895 C 0.73813 0.53392 0.74239
 C896 C 0.74754 0.54182 0.75270
 C897 C 0.75845 0.53398 0.76150
 C898 C 0.75990 0.51788 0.76011
 H899 H 0.75057 0.44640 0.74999
 H900 H 0.76675 0.48863 0.76907
 H901 H 0.73406 0.48858 0.73091
 H902 H 0.73130 0.51226 0.73346
 H903 H 0.74674 0.55432 0.75348
 H904 H 0.76881 0.51247 0.76687
 C905 C 0.25023 0.45853 0.24948
 C906 C 0.25932 0.46644 0.26007
 C907 C 0.25935 0.48266 0.26016
 C908 C 0.25022 0.49128 0.24955
 C909 C 0.24118 0.48274 0.23886
 C910 C 0.24117 0.46653 0.23892
 C911 C 0.24976 0.50885 0.25000
 C912 C 0.23898 0.51740 0.24102
 C913 C 0.23798 0.53355 0.24213
 C914 C 0.24746 0.54141 0.25241
 C915 C 0.25841 0.53354 0.26115
 C916 C 0.25985 0.51744 0.25967
 H917 H 0.25015 0.44598 0.24951
 H918 H 0.26627 0.48815 0.26888
 H919 H 0.23413 0.48828 0.23026
 H920 H 0.23100 0.51189 0.23329
 H921 H 0.24669 0.55391 0.25321
 H922 H 0.26883 0.51198 0.26631
 C923 C 0.74728 1.04132 0.74769
 C924 C 0.75820 1.03345 0.73894
 C925 C 0.75950 1.01733 0.74024
 C926 C 0.74949 1.00873 0.75002
 C927 C 0.73884 1.01730 0.75916
 C928 C 0.73782 1.03345 0.75799
 C929 C 0.75030 0.99117 0.75082
 C930 C 0.74103 0.98260 0.76134
 C931 C 0.74222 0.96646 0.76241
 C932 C 0.75265 0.95859 0.75309
 C933 C 0.76157 0.96645 0.74229
 C934 C 0.76025 0.98257 0.74097
 H935 H 0.74660 1.05383 0.74694
 H936 H 0.76839 1.01192 0.73346
 H937 H 0.73110 1.01185 0.76719
 H938 H 0.73287 0.98804 0.76895
 H939 H 0.75338 0.94608 0.75380
 H940 H 0.76718 0.98800 0.73220
 C941 C 0.74783 0.54115 0.24750
 C942 C 0.75895 0.53330 0.23897
 C943 C 0.76033 0.51719 0.24041
 C944 C 0.74999 0.50858 0.24983
 C945 C 0.73902 0.51709 0.25859
 C946 C 0.73811 0.53325 0.25756
 C947 C 0.75041 0.49102 0.25025
 C948 C 0.74130 0.48247 0.26092
 C949 C 0.74126 0.46626 0.26084
 C950 C 0.75038 0.45829 0.25031
 C951 C 0.75952 0.46621 0.23975
 C952 C 0.75956 0.48243 0.23966
 H953 H 0.74711 0.55366 0.24674
 H954 H 0.76947 0.51173 0.23398
 H955 H 0.73082 0.51155 0.26611
 H956 H 0.73426 0.48800 0.26953
 H957 H 0.75030 0.44573 0.25028
 H958 H 0.76650 0.48795 0.23095
 C959 C 0.24785 -0.04189 0.75248
 C960 C 0.25876 -0.03408 0.76127
 C961 C 0.26022 -0.01799 0.75983
 C962 C 0.25018 -0.00935 0.75011
 C963 C 0.23944 -0.01782 0.74107
 C964 C 0.23843 -0.03397 0.74217
 C965 C 0.25066 0.00821 0.74968
 C966 C 0.24166 0.01682 0.73897
 C967 C 0.24173 0.03303 0.73901
 C968 C 0.25081 0.04095 0.74959
 C969 C 0.25983 0.03296 0.76020
 C970 C 0.25979 0.01675 0.76030
 H971 H 0.24706 -0.05440 0.75326
 H972 H 0.26917 -0.01259 0.76652
 H973 H 0.23152 -0.01228 0.73328
 H974 H 0.23461 0.01134 0.73036
 H975 H 0.25081 0.05350 0.74961
 H976 H 0.26668 0.01122 0.76903
 C977 C 0.24959 0.24935 1.04167
 C978 C 0.24056 0.26002 1.03375
 C979 C 0.24059 0.26011 1.01758
 C980 C 0.24971 0.24941 1.00904
 C981 C 0.25873 0.23867 1.01761
 C982 C 0.25867 0.23872 1.03377
 C983 C 0.25015 0.24977 0.99153
 C984 C 0.26094 0.24072 0.98305
 C985 C 0.26187 0.24176 0.96693
 C986 C 0.25232 0.25202 0.95907
 C987 C 0.24138 0.26081 0.96689
 C988 C 0.24001 0.25942 0.98294
 H989 H 0.24960 0.24936 1.05418
 H990 H 0.23371 0.26889 1.01207
 H991 H 0.26578 0.23002 1.01213
 H992 H 0.26895 0.23299 0.98856
 H993 H 0.25305 0.25277 0.94660
 H994 H 0.23104 0.26612 0.98837
 C995 C 0.25022 0.74992 0.54113
 C996 C 0.24090 0.76030 0.53318
 C997 C 0.24073 0.76020 0.51703
 C998 C 0.25032 0.74993 0.50848
 C999 C 0.25985 0.73965 0.51708
 C1000 C 0.25958 0.73953 0.53325
 C1001 C 0.25036 0.74996 0.49095
 C1002 C 0.25998 0.73975 0.48238
 C1003 C 0.25977 0.73966 0.46621
 C1004 C 0.25041 0.75005 0.45831
 C1005 C 0.24103 0.76039 0.46623
 C1006 C 0.24077 0.76021 0.48238
 H1007 H 0.25018 0.74993 0.55364
 H1008 H 0.23315 0.76841 0.51159
 H1009 H 0.26745 0.73145 0.51166
 H1010 H 0.26759 0.73157 0.48782
 H1011 H 0.25042 0.75007 0.44580
 H1012 H 0.23313 0.76836 0.48781
 C1013 C 0.25006 0.75048 -0.04164
 C1014 C 0.25918 0.76105 -0.03375
 C1015 C 0.25926 0.76108 -0.01758
 C1016 C 0.25018 0.75040 -0.00900
 C1017 C 0.24100 0.73978 -0.01753
 C1018 C 0.24099 0.73986 -0.03370
 C1019 C 0.25061 0.75001 0.00851
 C1020 C 0.24050 0.74032 0.01711
 C1021 C 0.24185 0.73894 0.03317
 C1022 C 0.25275 0.74774 0.04098
 C1023 C 0.26228 0.75801 0.03312
 C1024 C 0.26134 0.75908 0.01701
 H1025 H 0.25006 0.75047 -0.05415
 H1026 H 0.26637 0.76966 -0.01211
 H1027 H 0.23405 0.73107 -0.01203
 H1028 H 0.23158 0.73359 0.01170
 H1029 H 0.25347 0.74699 0.05345
 H1030 H 0.26931 0.76685 0.01150
 C1031 C 0.24998 0.24987 0.45868
 C1032 C 0.25949 0.26009 0.46657
 C1033 C 0.25976 0.25992 0.48273
 C1034 C 0.24996 0.24989 0.49132
 C1035 C 0.24018 0.23985 0.48277
 C1036 C 0.24047 0.23967 0.46662
 C1037 C 0.24991 0.24988 0.50887
 C1038 C 0.24040 0.23957 0.51745
 C1039 C 0.24054 0.23951 0.53361
 C1040 C 0.24981 0.24994 0.54151
 C1041 C 0.25913 0.26034 0.53358
 C1042 C 0.25937 0.26022 0.51742
 H1043 H 0.24999 0.24985 0.44617
 H1044 H 0.26757 0.26789 0.48816
 H1045 H 0.23236 0.23189 0.48822
 H1046 H 0.23294 0.23127 0.51202
 H1047 H 0.24978 0.24996 0.55402
 H1048 H 0.26686 0.26849 0.51197
 C1049 C 0.74770 0.74767 1.04143
 C1050 C 0.73846 0.75818 1.03354
 C1051 C 0.73954 0.75931 1.01746
 C1052 C 0.75008 0.74999 1.00898
 C1053 C 0.75989 0.73999 1.01758
 C1054 C 0.75845 0.73863 1.03363
 C1055 C 0.75064 0.75046 0.99147
 C1056 C 0.75988 0.73988 0.98293
 C1057 C 0.75996 0.74003 0.96676
 C1058 C 0.75096 0.75072 0.95884
 C1059 C 0.74180 0.76127 0.96675
 C1060 C 0.74160 0.76119 0.98291
 H1061 H 0.74691 0.74693 1.05389
 H1062 H 0.73182 0.76736 1.01197
 H1063 H 0.76864 0.73300 1.01219
 H1064 H 0.76683 0.73115 0.98840
 H1065 H 0.75101 0.75076 0.94633
 H1066 H 0.73441 0.76974 0.98836
 C1067 C 0.74965 0.24987 0.54199
 C1068 C 0.73950 0.25947 0.53409
 C1069 C 0.73968 0.25977 0.51793
 C1070 C 0.74974 0.24999 0.50935
 C1071 C 0.75973 0.24013 0.51792
 C1072 C 0.75983 0.24032 0.53407
 C1073 C 0.74983 0.25006 0.49182
 C1074 C 0.75994 0.24032 0.48325
 C1075 C 0.76016 0.24063 0.46710
 C1076 C 0.75000 0.25021 0.45918
 C1077 C 0.73976 0.25971 0.46708
 C1078 C 0.73980 0.25987 0.48324
 H1079 H 0.74965 0.24984 0.55450
 H1080 H 0.73170 0.26759 0.51250
 H1081 H 0.76774 0.23235 0.51249
 H1082 H 0.76796 0.23255 0.48869
 H1083 H 0.75005 0.25026 0.44667
 H1084 H 0.73171 0.26758 0.48867
 C1085 C 0.74977 0.25045 -0.04197
 C1086 C 0.75927 0.26066 -0.03407
 C1087 C 0.75960 0.26044 -0.01791
 C1088 C 0.74988 0.25034 -0.00933
 C1089 C 0.74011 0.24028 -0.01788
 C1090 C 0.74031 0.24018 -0.03404
 C1091 C 0.74992 0.25030 0.00821
 C1092 C 0.74041 0.24000 0.01679
 C1093 C 0.74061 0.23988 0.03295
 C1094 C 0.74993 0.25026 0.04086
 C1095 C 0.75924 0.26067 0.03294
 C1096 C 0.75944 0.26059 0.01678
 H1097 H 0.74973 0.25049 -0.05448
 H1098 H 0.76739 0.26843 -0.01249
 H1099 H 0.73237 0.23223 -0.01244
 H1100 H 0.73290 0.23175 0.01136
 H1101 H 0.74992 0.25025 0.05337
 H1102 H 0.76696 0.26884 0.01133
 C1103 C 0.74765 0.75275 0.45849
 C1104 C 0.75863 0.76152 0.46624
 C1105 C 0.76011 0.76009 0.48229
 C1106 C 0.75006 0.75038 0.49093
 C1107 C 0.73923 0.74138 0.48250
 C1108 C 0.73818 0.74248 0.46641
 C1109 C 0.75063 0.74990 0.50843
 C1110 C 0.74150 0.73926 0.51701
 C1111 C 0.74167 0.73920 0.53316
 C1112 C 0.75092 0.74965 0.54106
 C1113 C 0.76004 0.76022 0.53312
 C1114 C 0.75997 0.76037 0.51696
 H1115 H 0.74685 0.75352 0.44603
 H1116 H 0.76907 0.76680 0.48765
 H1117 H 0.73127 0.73361 0.48803
 H1118 H 0.73429 0.73075 0.51155
 H1119 H 0.75095 0.74963 0.55357
 H1120 H 0.76699 0.76903 0.51145
 C1121 C 1.04097 0.24751 0.24775
 C1122 C 1.03318 0.23843 0.25848
 C1123 C 1.01712 0.23974 0.25991
 C1124 C 1.00849 0.24972 0.25010
 C1125 C 1.01696 0.25907 0.23957
 C1126 C 1.03307 0.25801 0.23851
 C1127 C 0.99096 0.25011 0.25060
 C1128 C 0.98239 0.26086 0.24159
 C1129 C 0.96623 0.26083 0.24165
 C1130 C 0.95831 0.25018 0.25070
 C1131 C 0.96623 0.23951 0.25974
 C1132 C 0.98241 0.23945 0.25975
 H1133 H 1.05344 0.24680 0.24697
 H1134 H 1.01172 0.23274 0.26865
 H1135 H 1.01146 0.26709 0.23183
 H1136 H 0.98786 0.26951 0.23453
 H1137 H 0.94580 0.25016 0.25066
 H1138 H 0.98790 0.23070 0.26668
 C1139 C 0.54136 0.24900 0.74948
 C1140 C 0.53342 0.23980 0.75998
 C1141 C 0.51725 0.23993 0.76015
 C1142 C 0.50870 0.24939 0.74976
 C1143 C 0.51729 0.25860 0.73919
 C1144 C 0.53346 0.25838 0.73911
 C1145 C 0.49118 0.24998 0.75025
 C1146 C 0.48271 0.26074 0.74114
 C1147 C 0.46661 0.26182 0.74224
 C1148 C 0.45871 0.25239 0.75257
 C1149 C 0.46649 0.24146 0.76143
 C1150 C 0.48255 0.23999 0.76004
 H1151 H 0.55387 0.24892 0.74943
 H1152 H 0.51176 0.23283 0.76875
 H1153 H 0.51183 0.26593 0.73077
 H1154 H 0.48822 0.26862 0.73328
 H1155 H 0.44624 0.25318 0.75332
 H1156 H 0.48793 0.23108 0.76685
 C1157 C -0.04122 0.24738 0.75276
 C1158 C -0.03339 0.25811 0.76175
 C1159 C -0.01731 0.25935 0.76056
 C1160 C -0.00873 0.24964 0.75046
 C1161 C -0.01728 0.23923 0.74105
 C1162 C -0.03337 0.23809 0.74228
 C1163 C 0.00878 0.25050 0.74961
 C1164 C 0.01734 0.24084 0.73945
 C1165 C 0.03341 0.24214 0.73819
 C1166 C 0.04124 0.25291 0.74714
 C1167 C 0.03341 0.26214 0.75769
 C1168 C 0.01733 0.26089 0.75903
 H1169 H -0.05369 0.24669 0.75348
 H1170 H -0.01192 0.26793 0.76773
 H1171 H -0.01186 0.23179 0.73271
 H1172 H 0.01196 0.23227 0.73227
 H1173 H 0.05371 0.25365 0.74635
 H1174 H 0.01192 0.26824 0.76745
 C1175 C 0.45914 0.24957 0.25018
 C1176 C 0.46703 0.25857 0.26086
 C1177 C 0.48320 0.25851 0.26101
 C1178 C 0.49175 0.24961 0.25019
 C1179 C 0.48326 0.24071 0.23935
 C1180 C 0.46710 0.24061 0.23949
 C1181 C 0.50923 0.24959 0.25023
 C1182 C 0.51777 0.23858 0.24155
 C1183 C 0.53393 0.23865 0.24155
 C1184 C 0.54184 0.24948 0.25037
 C1185 C 0.53389 0.26036 0.25914
 C1186 C 0.51773 0.26056 0.25898
 H1187 H 0.44663 0.24955 0.25017
 H1188 H 0.48874 0.26524 0.26986
 H1189 H 0.48885 0.23400 0.23050
 H1190 H 0.51222 0.22961 0.23496
 H1191 H 0.55435 0.24945 0.25042
 H1192 H 0.51215 0.26957 0.26551
 C1193 C 1.04144 0.75286 0.75250
 C1194 C 1.03365 0.74169 0.76104
 C1195 C 1.01761 0.74022 0.75953
 C1196 C 1.00901 0.75055 0.75007
 C1197 C 1.01746 0.76157 0.74130
 C1198 C 1.03357 0.76255 0.74239
 C1199 C 0.99151 0.75007 0.74964
 C1200 C 0.98294 0.75916 0.73897
 C1201 C 0.96677 0.75912 0.73906
 C1202 C 0.95887 0.74995 0.74961
 C1203 C 0.96682 0.74082 0.76017
 C1204 C 0.98299 0.74087 0.76025
 H1205 H 1.05390 0.75363 0.75331
 H1206 H 1.01220 0.73105 0.76597
 H1207 H 1.01192 0.76975 0.73374
 H1208 H 0.98843 0.76623 0.73034
 H1209 H 0.94636 0.74997 0.74966
 H1210 H 0.98851 0.73395 0.76899
 C1211 C 0.54150 0.75215 0.25229
 C1212 C 0.53372 0.74114 0.26105
 C1213 C 0.51765 0.73974 0.25966
 C1214 C 0.50903 0.74992 0.25003
 C1215 C 0.51750 0.76079 0.24108
 C1216 C 0.53360 0.76175 0.24211
 C1217 C 0.49152 0.74945 0.24955
 C1218 C 0.48295 0.75854 0.23886
 C1219 C 0.46677 0.75844 0.23883
 C1220 C 0.45886 0.74923 0.24935
 C1221 C 0.46680 0.74013 0.25994
 C1222 C 0.48296 0.74020 0.26009
 H1223 H 0.55397 0.75290 0.25302
 H1224 H 0.51225 0.73073 0.26632
 H1225 H 0.51197 0.76887 0.23341
 H1226 H 0.48845 0.76567 0.23029
 H1227 H 0.44635 0.74919 0.24933
 H1228 H 0.48846 0.73324 0.26880
 C1229 C -0.04117 0.74756 0.25235
 C1230 C -0.03328 0.75797 0.26166
 C1231 C -0.01718 0.75901 0.26065
 C1232 C -0.00870 0.74980 0.25003
 C1233 C -0.01730 0.73995 0.24011
 C1234 C -0.03336 0.73857 0.24156
 C1235 C 0.00880 0.75019 0.24954
 C1236 C 0.01736 0.73939 0.24057
 C1237 C 0.03353 0.73947 0.24055
 C1238 C 0.04145 0.75023 0.24944
 C1239 C 0.03351 0.76098 0.25836
 C1240 C 0.01735 0.76105 0.25838
 H1241 H -0.05363 0.74683 0.25313
 H1242 H -0.01168 0.76690 0.26850
 H1243 H -0.01188 0.73310 0.23127
 H1244 H 0.01187 0.73053 0.23382
 H1245 H 0.05396 0.75019 0.24948
 H1246 H 0.01185 0.76982 0.26528
 C1247 C 0.45879 0.74792 0.75268
 C1248 C 0.46670 0.75834 0.76195
 C1249 C 0.48279 0.75936 0.76093
 C1250 C 0.49126 0.75007 0.75036
 C1251 C 0.48265 0.74020 0.74048
 C1252 C 0.46658 0.73889 0.74190
 C1253 C 0.50878 0.75043 0.74987
 C1254 C 0.51733 0.73966 0.74086
 C1255 C 0.53350 0.73971 0.74085
 C1256 C 0.54142 0.75045 0.74977
 C1257 C 0.53350 0.76116 0.75873
 C1258 C 0.51734 0.76123 0.75878
 H1259 H 0.44632 0.74722 0.75347
 H1260 H 0.48830 0.76731 0.76871
 H1261 H 0.48805 0.73329 0.73168
 H1262 H 0.51182 0.73084 0.73406
 H1263 H 0.55393 0.75042 0.74979
 H1264 H 0.51187 0.76996 0.76573
 C1265 C 0.42112 0.29296 0.29296
 C1266 C 0.41519 0.30686 0.28697
 C1267 C 0.40140 0.31283 0.29283
 C1268 C 0.39345 0.30504 0.30461
 C1269 C 0.39987 0.29127 0.31035
 N1270 N 0.41323 0.28564 0.30439
 C1271 C 0.43480 0.28513 0.28629
 N1272 N 0.43627 0.26961 0.28856
 C1273 C 0.44744 0.26110 0.28161
 C1274 C 0.45787 0.26817 0.27151
 C1275 C 0.45723 0.28424 0.26962
 C1276 C 0.44573 0.29281 0.27704
 H1277 H 0.39696 0.32344 0.28795
 H1278 H 0.39423 0.28475 0.31936
 H1279 H 0.44765 0.24869 0.28330
 H1280 H 0.46505 0.29000 0.26174
 H1281 H 0.42074 0.31285 0.27754
 H1282 H 0.44524 0.30516 0.27517
 C1283 C 0.42085 0.79376 0.79307
 C1284 C 0.41413 0.80679 0.78612
 C1285 C 0.40042 0.81284 0.79206
 C1286 C 0.39324 0.80597 0.80493
 C1287 C 0.40054 0.79304 0.81161
 N1288 N 0.41381 0.78733 0.80553
 C1289 C 0.43448 0.78580 0.78649
 N1290 N 0.43649 0.77054 0.78982
 C1291 C 0.44767 0.76185 0.78312
 C1292 C 0.45756 0.76844 0.77218
 C1293 C 0.45638 0.78431 0.76916
 C1294 C 0.44485 0.79307 0.77631
 H1295 H 0.39542 0.82274 0.78630
 H1296 H 0.39574 0.78721 0.82152
 H1297 H 0.44831 0.74961 0.78570
 H1298 H 0.46377 0.78970 0.76064
 H1299 H 0.41899 0.81199 0.77587
 H1300 H 0.44391 0.80524 0.77357
 C1301 C -0.07904 0.29385 0.79295
 C1302 C -0.08480 0.30786 0.78706
 C1303 C -0.09851 0.31396 0.79299
 C1304 C -0.10654 0.30618 0.80474
 C1305 C -0.10026 0.29232 0.81040
 N1306 N -0.08699 0.28658 0.80438
 C1307 C -0.06546 0.28582 0.78630
 N1308 N -0.06384 0.27045 0.78928
 C1309 C -0.05276 0.26166 0.78256
 C1310 C -0.04258 0.26825 0.77189
 C1311 C -0.04335 0.28422 0.76923
 C1312 C -0.05477 0.29309 0.77644
 H1313 H -0.10284 0.32467 0.78821
 H1314 H -0.10594 0.28582 0.81939
 H1315 H -0.05243 0.24937 0.78491
 H1316 H -0.03569 0.28963 0.76097
 H1317 H -0.07920 0.31389 0.77769
 H1318 H -0.05536 0.30533 0.77395
 C1319 C -0.07904 0.79342 0.29294
 C1320 C -0.08494 0.80728 0.28685
 C1321 C -0.09871 0.81334 0.29267
 C1322 C -0.10668 0.80567 0.30453
 C1323 C -0.10027 0.79195 0.31039
 N1324 N -0.08694 0.78624 0.30447
 C1325 C -0.06540 0.78543 0.28638
 N1326 N -0.06376 0.77004 0.28929
 C1327 C -0.05264 0.76131 0.28256
 C1328 C -0.04243 0.76799 0.27197
 C1329 C -0.04321 0.78397 0.26941
 C1330 C -0.05467 0.79277 0.27662
 H1331 H -0.10314 0.82392 0.28771
 H1332 H -0.10590 0.78552 0.31947
 H1333 H -0.05230 0.74900 0.28482
 H1334 H -0.03556 0.78944 0.26118
 H1335 H -0.07940 0.81320 0.27737
 H1336 H -0.05528 0.80503 0.27421
 C1337 C 0.57967 0.70616 0.29285
 C1338 C 0.58575 0.69231 0.28693
 C1339 C 0.59952 0.68642 0.29291
 C1340 C 0.60731 0.69422 0.30477
 C1341 C 0.60071 0.70790 0.31049
 N1342 N 0.58739 0.71346 0.30440
 C1343 C 0.56601 0.71398 0.28608
 N1344 N 0.56416 0.72935 0.28889
 C1345 C 0.55301 0.73793 0.28201
 C1346 C 0.54298 0.73114 0.27133
 C1347 C 0.54398 0.71516 0.26886
 C1348 C 0.55547 0.70650 0.27624
 H1349 H 0.60408 0.67583 0.28809
 H1350 H 0.60621 0.71441 0.31958
 H1351 H 0.55250 0.75024 0.28424
 H1352 H 0.53645 0.70957 0.26061
 H1353 H 0.58035 0.68628 0.27747
 H1354 H 0.55623 0.69424 0.27391
 C1355 C 0.57948 0.20568 0.79219
 C1356 C 0.58572 0.19198 0.78610
 C1357 C 0.59954 0.18615 0.79203
 C1358 C 0.60721 0.19389 0.80400
 C1359 C 0.60047 0.20745 0.80986
 N1360 N 0.58710 0.21295 0.80382
 C1361 C 0.56576 0.21340 0.78547
 N1362 N 0.56406 0.22887 0.78784
 C1363 C 0.55283 0.23729 0.78087
 C1364 C 0.54259 0.23018 0.77063
 C1365 C 0.54346 0.21414 0.76864
 C1366 C 0.55502 0.20566 0.77608
 H1367 H 0.60423 0.17568 0.78707
 H1368 H 0.60588 0.21391 0.81902
 H1369 H 0.55245 0.24968 0.78265
 H1370 H 0.53577 0.20835 0.76069
 H1371 H 0.58039 0.18604 0.77653
 H1372 H 0.55570 0.19333 0.77414
 C1373 C 1.07912 0.70635 0.79303
 C1374 C 1.08515 0.69250 0.78709
 C1375 C 1.09894 0.68660 0.79302
 C1376 C 1.10679 0.69442 0.80483
 C1377 C 1.10022 0.70810 0.81057
 N1378 N 1.08688 0.71366 0.80454
 C1379 C 1.06552 0.71424 0.78624
 N1380 N 1.06379 0.72963 0.78905
 C1381 C 1.05278 0.73831 0.78208
 C1382 C 1.04281 0.73160 0.77130
 C1383 C 1.04365 0.71561 0.76886
 C1384 C 1.05498 0.70684 0.77635
 H1385 H 1.10348 0.67602 0.78816
 H1386 H 1.10576 0.71463 0.81962
 H1387 H 1.05234 0.75061 0.78435
 H1388 H 1.03613 0.71009 0.76056
 H1389 H 1.07972 0.68647 0.77764
 H1390 H 1.05563 0.69458 0.77405
 C1391 C 1.07889 0.20623 0.29320
 C1392 C 1.08471 0.21227 0.30704
 C1393 C 1.09850 0.20650 0.31305
 C1394 C 1.10659 0.19473 0.30534
 C1395 C 1.10026 0.18887 0.29166
 N1396 N 1.08689 0.19477 0.28598
 C1397 C 1.06525 0.21291 0.28533
 N1398 N 1.06381 0.21054 0.26990
 C1399 C 1.05273 0.21757 0.26135
 C1400 C 1.04241 0.22794 0.26826
 C1401 C 1.04297 0.22988 0.28427
 C1402 C 1.05436 0.22234 0.29289
 H1403 H 1.10282 0.21143 0.32364
 H1404 H 1.10602 0.17985 0.28524
 H1405 H 1.05251 0.21571 0.24901
 H1406 H 1.03520 0.23787 0.28995
 H1407 H 1.07910 0.22171 0.31297
 H1408 H 1.05479 0.22425 0.30519
 C1409 C 0.57927 0.29311 0.70720
 C1410 C 0.58506 0.30708 0.71309
 C1411 C 0.59882 0.31310 0.70724
 C1412 C 0.60689 0.30530 0.69554
 C1413 C 0.60060 0.29147 0.68988
 N1414 N 0.58727 0.28579 0.69584
 C1415 C 0.56564 0.28522 0.71386
 N1416 N 0.56424 0.26971 0.71155
 C1417 C 0.55311 0.26113 0.71845
 C1418 C 0.54263 0.26811 0.72858
 C1419 C 0.54319 0.28417 0.73052
 C1420 C 0.55467 0.29281 0.72315
 H1421 H 0.60315 0.32378 0.71205
 H1422 H 0.60633 0.28495 0.68093
 H1423 H 0.55296 0.24874 0.71670
 H1424 H 0.53531 0.28987 0.73838
 H1425 H 0.57944 0.31310 0.72245
 H1426 H 0.55510 0.30516 0.72508
 C1427 C 0.57968 0.79301 0.20724
 C1428 C 0.58542 0.78695 0.19335
 C1429 C 0.59924 0.79264 0.18731
 C1430 C 0.60743 0.80430 0.19504
 C1431 C 0.60122 0.81006 0.20884
 N1432 N 0.58781 0.80429 0.21452
 C1433 C 0.56591 0.78662 0.21512
 N1434 N 0.56440 0.78922 0.23052
 C1435 C 0.55318 0.78252 0.23912
 C1436 C 0.54274 0.77225 0.23230
 C1437 C 0.54337 0.77009 0.21631
 C1438 C 0.55492 0.77730 0.20764
 H1439 H 0.60352 0.78775 0.17666
 H1440 H 0.60704 0.81897 0.21533
 H1441 H 0.55294 0.78449 0.25144
 H1442 H 0.53553 0.76213 0.21072
 H1443 H 0.57969 0.77762 0.18738
 H1444 H 0.55540 0.77519 0.19537
 C1445 C 1.07858 0.29357 0.20692
 C1446 C 1.08453 0.30740 0.21299
 C1447 C 1.09831 0.31340 0.20713
 C1448 C 1.10622 0.30571 0.19524
 C1449 C 1.09971 0.29207 0.18936
 N1450 N 1.08639 0.28641 0.19534
 C1451 C 1.06500 0.28556 0.21360
 N1452 N 1.06341 0.27017 0.21073
 C1453 C 1.05236 0.26141 0.21755
 C1454 C 1.04219 0.26805 0.22819
 C1455 C 1.04295 0.28403 0.23074
 C1456 C 1.05432 0.29287 0.22343
 H1457 H 1.10281 0.32394 0.21208
 H1458 H 1.10528 0.28565 0.18026
 H1459 H 1.05206 0.24910 0.21530
 H1460 H 1.03533 0.28948 0.23901
 H1461 H 1.07903 0.31332 0.22249
 H1462 H 1.05490 0.30512 0.22582
 C1463 C 1.07933 0.79426 0.70739
 C1464 C 1.08498 0.78815 0.69347
 C1465 C 1.09875 0.79380 0.68731
 C1466 C 1.10699 0.80549 0.69493
 C1467 C 1.10084 0.81140 0.70870
 N1468 N 1.08748 0.80563 0.71452
 C1469 C 1.06569 0.78776 0.71540
 N1470 N 1.06441 0.79010 0.73086
 C1471 C 1.05329 0.78325 0.73951
 C1472 C 1.04273 0.77313 0.73266
 C1473 C 1.04315 0.77122 0.71663
 C1474 C 1.05460 0.77855 0.70793
 H1475 H 1.10294 0.78887 0.67665
 H1476 H 1.10673 0.82036 0.71506
 H1477 H 1.05323 0.78502 0.75186
 H1478 H 1.03524 0.76335 0.71101
 H1479 H 1.07923 0.77877 0.68760
 H1480 H 1.05491 0.77663 0.69562
 C1481 C 0.42111 0.70672 0.70695
 C1482 C 0.41537 0.71265 0.69300
 C1483 C 0.40163 0.70682 0.68697
 C1484 C 0.39352 0.69512 0.69475
 C1485 C 0.39978 0.68938 0.70854
 N1486 N 0.41309 0.69533 0.71424
 C1487 C 0.43467 0.71345 0.71488
 N1488 N 0.43601 0.71110 0.73033
 C1489 C 0.44701 0.71812 0.73894
 C1490 C 0.45737 0.72847 0.73207
 C1491 C 0.45692 0.73040 0.71605
 C1492 C 0.44560 0.72287 0.70737
 H1493 H 0.39736 0.71165 0.67630
 H1494 H 0.39399 0.68042 0.71503
 H1495 H 0.44715 0.71625 0.75128
 H1496 H 0.46474 0.73836 0.71040
 H1497 H 0.42102 0.72203 0.68700
 H1498 H 0.44526 0.72476 0.69506
 C1499 C 0.42132 0.20644 0.20719
 C1500 C 0.41536 0.19254 0.21311
 C1501 C 0.40155 0.18667 0.20728
 C1502 C 0.39360 0.19455 0.19554
 C1503 C 0.40006 0.20831 0.18985
 N1504 N 0.41343 0.21385 0.19581
 C1505 C 0.43500 0.21419 0.21388
 N1506 N 0.43653 0.22970 0.21162
 C1507 C 0.44767 0.23816 0.21862
 C1508 C 0.45800 0.23105 0.22879
 C1509 C 0.45730 0.21498 0.23069
 C1510 C 0.44583 0.20647 0.22321
 H1511 H 0.39708 0.17606 0.21212
 H1512 H 0.39442 0.21489 0.18088
 H1513 H 0.44793 0.25057 0.21693
 H1514 H 0.46504 0.20919 0.23862
 H1515 H 0.42089 0.18646 0.22249
 H1516 H 0.44529 0.19412 0.22510
 C1517 C -0.07867 0.70618 0.20662
 C1518 C -0.08436 0.71204 0.19262
 C1519 C -0.09813 0.70626 0.18663
 C1520 C -0.10633 0.69468 0.19449
 C1521 C -0.10009 0.68896 0.20830
 N1522 N -0.08674 0.69487 0.21397
 C1523 C -0.06513 0.71293 0.21455
 N1524 N -0.06385 0.71068 0.23002
 C1525 C -0.05290 0.71776 0.23863
 C1526 C -0.04253 0.72809 0.23175
 C1527 C -0.04291 0.72992 0.21571
 C1528 C -0.05418 0.72232 0.20703
 H1529 H -0.10239 0.71106 0.17593
 H1530 H -0.10591 0.68007 0.21484
 H1531 H -0.05281 0.71596 0.25099
 H1532 H -0.03507 0.73785 0.21005
 H1533 H -0.07866 0.72136 0.18657
 H1534 H -0.05447 0.72414 0.19471
 C1535 C -0.07917 0.20680 0.70702
 C1536 C -0.08496 0.21292 0.69317
 C1537 C -0.09873 0.20717 0.68710
 C1538 C -0.10680 0.19534 0.69475
 C1539 C -0.10050 0.18945 0.70846
 N1540 N -0.08717 0.19532 0.71418
 C1541 C -0.06553 0.21332 0.71500
 N1542 N -0.06411 0.21065 0.73040
 C1543 C -0.05299 0.21740 0.73908
 C1544 C -0.04257 0.22776 0.73235
 C1545 C -0.04314 0.23004 0.71637
 C1546 C -0.05459 0.22280 0.70761
 H1547 H -0.10307 0.21212 0.67650
 H1548 H -0.10624 0.18042 0.71487
 H1549 H -0.05282 0.21533 0.75139
 H1550 H -0.03531 0.23808 0.71083
 H1551 H -0.07932 0.22237 0.68728
 H1552 H -0.05502 0.22498 0.69535
 C1553 C 0.29318 0.42048 0.29281
 C1554 C 0.30713 0.41461 0.28700
 C1555 C 0.31305 0.40079 0.29288
 C1556 C 0.30518 0.39272 0.30454
 C1557 C 0.29134 0.39908 0.31011
 N1558 N 0.28575 0.41248 0.30411
 C1559 C 0.28543 0.43419 0.28604
 N1560 N 0.26991 0.43556 0.28795
 C1561 C 0.26152 0.44672 0.28081
 C1562 C 0.26872 0.45723 0.27086
 C1563 C 0.28478 0.45671 0.26936
 C1564 C 0.29322 0.44522 0.27698
 H1565 H 0.32371 0.39640 0.28812
 H1566 H 0.28476 0.39334 0.31901
 H1567 H 0.24911 0.44686 0.28224
 H1568 H 0.29066 0.46461 0.26164
 H1569 H 0.31321 0.42023 0.27767
 H1570 H 0.30558 0.44482 0.27541
 C1571 C 0.29388 -0.07971 0.79325
 C1572 C 0.30719 -0.08615 0.78665
 C1573 C 0.31321 -0.09989 0.79257
 C1574 C 0.30605 -0.10740 0.80509
 C1575 C 0.29284 -0.10037 0.81146
 N1576 N 0.28716 -0.08706 0.80538
 C1577 C 0.28594 -0.06612 0.78650
 N1578 N 0.27058 -0.06446 0.78926
 C1579 C 0.26196 -0.05340 0.78227
 C1580 C 0.26871 -0.04330 0.77158
 C1581 C 0.28466 -0.04410 0.76921
 C1582 C 0.29336 -0.05549 0.77668
 H1583 H 0.32334 -0.10465 0.78707
 H1584 H 0.28677 -0.10547 0.82108
 H1585 H 0.24967 -0.05300 0.78445
 H1586 H 0.29021 -0.03649 0.76098
 H1587 H 0.31263 -0.08105 0.77665
 H1588 H 0.30561 -0.05614 0.77444
 C1589 C 0.79366 0.42092 0.79285
 C1590 C 0.80684 0.41429 0.78619
 C1591 C 0.81274 0.40051 0.79214
 C1592 C 0.80561 0.39318 0.80478
 C1593 C 0.79247 0.40034 0.81114
 N1594 N 0.78689 0.41369 0.80503
 C1595 C 0.78596 0.43465 0.78612
 N1596 N 0.77056 0.43647 0.78862
 C1597 C 0.76219 0.44769 0.78156
 C1598 C 0.76927 0.45778 0.77109
 C1599 C 0.78524 0.45678 0.76896
 C1600 C 0.79367 0.44525 0.77649
 H1601 H 0.82275 0.39560 0.78657
 H1602 H 0.78642 0.39536 0.82084
 H1603 H 0.74986 0.44818 0.78344
 H1604 H 0.79100 0.46433 0.76081
 H1605 H 0.81229 0.41928 0.77614
 H1606 H 0.80594 0.44445 0.77443
 C1607 C 0.79324 -0.07961 0.29273
 C1608 C 0.80628 -0.08633 0.28586
 C1609 C 0.81221 -0.10013 0.29175
 C1610 C 0.80524 -0.10741 0.30450
 C1611 C 0.79223 -0.10018 0.31105
 N1612 N 0.78663 -0.08680 0.30501
 C1613 C 0.78551 -0.06583 0.28614
 N1614 N 0.77018 -0.06391 0.28892
 C1615 C 0.76175 -0.05261 0.28203
 C1616 C 0.76872 -0.04255 0.27147
 C1617 C 0.78464 -0.04367 0.26904
 C1618 C 0.79312 -0.05528 0.27639
 H1619 H 0.82212 -0.10511 0.28603
 H1620 H 0.78629 -0.10511 0.32083
 H1621 H 0.74945 -0.05205 0.28411
 H1622 H 0.79030 -0.03615 0.26080
 H1623 H 0.81159 -0.08137 0.27572
 H1624 H 0.80534 -0.05617 0.27409
 C1625 C 0.29355 0.57961 0.70755
 C1626 C 0.30739 0.58559 0.71348
 C1627 C 0.31328 0.59943 0.70759
 C1628 C 0.30547 0.60739 0.69581
 C1629 C 0.29173 0.60095 0.69017
 N1630 N 0.28618 0.58754 0.69617
 C1631 C 0.28586 0.56583 0.71423
 N1632 N 0.27038 0.56428 0.71208
 C1633 C 0.26202 0.55301 0.71907
 C1634 C 0.26919 0.54256 0.72912
 C1635 C 0.28522 0.54326 0.73086
 C1636 C 0.29364 0.55486 0.72339
 H1637 H 0.32386 0.60389 0.71241
 H1638 H 0.28519 0.60661 0.68120
 H1639 H 0.24964 0.55275 0.71748
 H1640 H 0.29106 0.53543 0.73867
 H1641 H 0.31341 0.58004 0.72288
 H1642 H 0.30597 0.55539 0.72515
 C1643 C 0.29391 1.07907 0.20717
 C1644 C 0.30707 1.08566 0.21392
 C1645 C 0.31299 1.09947 0.20803
 C1646 C 0.30589 1.10679 0.19542
 C1647 C 0.29289 1.09969 0.18890
 N1648 N 0.28726 1.08633 0.19494
 C1649 C 0.28599 1.06546 0.21389
 N1650 N 0.27073 1.06360 0.21077
 C1651 C 0.26204 1.05257 0.21772
 C1652 C 0.26862 1.04273 0.22875
 C1653 C 0.28449 1.04373 0.23152
 C1654 C 0.29326 1.05507 0.22407
 H1655 H 0.32296 1.10447 0.21357
 H1656 H 0.28696 1.10479 0.17920
 H1657 H 0.24983 1.05201 0.21523
 H1658 H 0.28989 1.03633 0.24004
 H1659 H 0.31246 1.08064 0.22398
 H1660 H 0.30544 1.05587 0.22661
 C1661 C 0.79413 0.57928 0.20761
 C1662 C 0.80715 0.58608 0.21444
 C1663 C 0.81295 0.59993 0.20853
 C1664 C 0.80588 0.60711 0.19582
 C1665 C 0.79302 0.59980 0.18923
 N1666 N 0.78751 0.58640 0.19528
 C1667 C 0.78633 0.56556 0.21427
 N1668 N 0.77116 0.56341 0.21090
 C1669 C 0.76255 0.55223 0.21770
 C1670 C 0.76911 0.54251 0.22885
 C1671 C 0.78491 0.54379 0.23189
 C1672 C 0.79361 0.55530 0.22458
 H1673 H 0.82284 0.60508 0.21411
 H1674 H 0.78712 0.60478 0.17945
 H1675 H 0.75038 0.55147 0.21503
 H1676 H 0.79029 0.53650 0.24051
 H1677 H 0.81252 0.58116 0.22457
 H1678 H 0.80572 0.55631 0.22733
 C1679 C 0.79399 1.07923 0.70804
 C1680 C 0.80710 1.08587 0.71485
 C1681 C 0.81307 1.09965 0.70889
 C1682 C 0.80605 1.10687 0.69619
 C1683 C 0.79310 1.09970 0.68962
 N1684 N 0.78746 1.08639 0.69569
 C1685 C 0.78601 1.06561 0.71466
 N1686 N 0.77084 1.06363 0.71117
 C1687 C 0.76208 1.05249 0.71784
 C1688 C 0.76847 1.04264 0.72895
 C1689 C 0.78426 1.04378 0.73214
 C1690 C 0.79312 1.05525 0.72499
 H1691 H 0.82301 1.10471 0.71445
 H1692 H 0.78724 1.10469 0.67983
 H1693 H 0.74992 1.05187 0.71509
 H1694 H 0.78951 1.03639 0.74076
 H1695 H 0.81241 1.08092 0.72499
 H1696 H 0.80521 1.05616 0.72784
 C1697 C 0.70620 0.57869 0.29290
 C1698 C 0.71229 0.58434 0.30680
 C1699 C 0.70657 0.59811 0.31299
 C1700 C 0.69482 0.60633 0.30541
 C1701 C 0.68891 0.60013 0.29168
 N1702 N 0.69475 0.58679 0.28583
 C1703 C 0.71282 0.56515 0.28479
 N1704 N 0.71051 0.56403 0.26931
 C1705 C 0.71745 0.55302 0.26057
 C1706 C 0.72760 0.54241 0.26734
 C1707 C 0.72952 0.54269 0.28337
 C1708 C 0.72211 0.55403 0.29217
 H1709 H 0.71154 0.60236 0.32360
 H1710 H 0.67989 0.60595 0.28535
 H1711 H 0.71568 0.55307 0.24822
 H1712 H 0.73742 0.53474 0.28893
 H1713 H 0.72172 0.57862 0.31263
 H1714 H 0.72401 0.55424 0.30448
 C1715 C 0.70656 1.07938 0.79329
 C1716 C 0.71327 1.08566 0.80660
 C1717 C 0.70750 1.09944 0.81271
 C1718 C 0.69503 1.10712 0.80563
 C1719 C 0.68857 1.10024 0.79242
 N1720 N 0.69449 1.08690 0.78666
 C1721 C 0.71308 1.06574 0.78527
 N1722 N 0.71033 1.06424 0.76990
 C1723 C 0.71708 1.05308 0.76121
 C1724 C 0.72750 1.04269 0.76792
 C1725 C 0.72990 1.04336 0.78387
 C1726 C 0.72267 1.05486 0.79263
 H1727 H 0.71306 1.10409 0.82284
 H1728 H 0.67898 1.10545 0.78641
 H1729 H 0.71497 1.05285 0.74891
 H1730 H 0.73801 1.03559 0.78938
 H1731 H 0.72322 1.08039 0.81198
 H1732 H 0.72492 1.05539 0.80487
 C1733 C 0.20719 0.57929 0.79327
 C1734 C 0.19324 0.58513 0.78742
 C1735 C 0.18724 0.59891 0.79331
 C1736 C 0.19504 0.60696 0.80499
 C1737 C 0.20886 0.60063 0.81061
 N1738 N 0.21452 0.58727 0.80462
 C1739 C 0.21505 0.56562 0.78657
 N1740 N 0.23053 0.56421 0.78878
 C1741 C 0.23905 0.55305 0.78182
 C1742 C 0.23204 0.54256 0.77175
 C1743 C 0.21601 0.54314 0.76991
 C1744 C 0.20743 0.55464 0.77734
 H1745 H 0.17658 0.60328 0.78853
 H1746 H 0.21538 0.60635 0.81954
 H1747 H 0.25142 0.55288 0.78349
 H1748 H 0.21029 0.53527 0.76208
 H1749 H 0.18722 0.57952 0.77807
 H1750 H 0.19511 0.55508 0.77550
 C1751 C 0.20636 1.07954 0.29270
 C1752 C 0.21258 1.08537 0.30647
 C1753 C 0.20686 1.09918 0.31258
 C1754 C 0.19498 1.10726 0.30505
 C1755 C 0.18902 1.10094 0.29140
 N1756 N 0.19485 1.08756 0.28563
 C1757 C 0.21285 1.06584 0.28473
 N1758 N 0.21032 1.06444 0.26931
 C1759 C 0.21711 1.05326 0.26067
 C1760 C 0.22735 1.04275 0.26748
 C1761 C 0.22948 1.04330 0.28347
 C1762 C 0.22221 1.05481 0.29218
 H1763 H 0.21190 1.10353 0.32311
 H1764 H 0.17994 1.10670 0.28509
 H1765 H 0.21518 1.05312 0.24834
 H1766 H 0.23744 1.03543 0.28905
 H1767 H 0.22207 1.07973 0.31227
 H1768 H 0.22429 1.05523 0.30445
 C1769 C 0.70662 0.42114 0.70760
 C1770 C 0.69273 0.41528 0.71355
 C1771 C 0.68673 0.40151 0.70767
 C1772 C 0.69448 0.39350 0.69590
 C1773 C 0.70824 0.39987 0.69019
 N1774 N 0.71390 0.41321 0.69617
 C1775 C 0.71452 0.43477 0.71427
 N1776 N 0.72997 0.43616 0.71190
 C1777 C 0.73855 0.44727 0.71881
 C1778 C 0.73163 0.45773 0.72899
 C1779 C 0.71562 0.45717 0.73102
 C1780 C 0.70698 0.44572 0.72363
 H1781 H 0.67612 0.39710 0.71253
 H1782 H 0.71474 0.39419 0.68120
 H1783 H 0.75091 0.44742 0.71701
 H1784 H 0.70998 0.46502 0.73895
 H1785 H 0.68676 0.42086 0.72297
 H1786 H 0.69467 0.44529 0.72560
 C1787 C 0.70634 -0.07940 0.20814
 C1788 C 0.69318 -0.08608 0.21487
 C1789 C 0.68728 -0.09985 0.20889
 C1790 C 0.69442 -0.10706 0.19624
 C1791 C 0.70744 -0.09988 0.18978
 N1792 N 0.71302 -0.08656 0.19588
 C1793 C 0.71414 -0.06572 0.21480
 N1794 N 0.72945 -0.06384 0.21189
 C1795 C 0.73796 -0.05260 0.21872
 C1796 C 0.73110 -0.04254 0.22934
 C1797 C 0.71521 -0.04363 0.23193
 C1798 C 0.70664 -0.05519 0.22465
 H1799 H 0.67730 -0.10493 0.21439
 H1800 H 0.71338 -0.10487 0.18004
 H1801 H 0.75024 -0.05207 0.21652
 H1802 H 0.70964 -0.03611 0.24022
 H1803 H 0.68778 -0.08113 0.22496
 H1804 H 0.69443 -0.05604 0.22704
 C1805 C 0.20646 0.42067 0.20717
 C1806 C 0.19319 0.41418 0.21385
 C1807 C 0.18721 0.40040 0.20797
 C1808 C 0.19437 0.39299 0.19545
 C1809 C 0.20750 0.40000 0.18901
 N1810 N 0.21317 0.41333 0.19503
 C1811 C 0.21433 0.43434 0.21380
 N1812 N 0.22968 0.43612 0.21098
 C1813 C 0.23823 0.44730 0.21785
 C1814 C 0.23139 0.45741 0.22844
 C1815 C 0.21547 0.45645 0.23093
 C1816 C 0.20686 0.44495 0.22359
 H1817 H 0.17712 0.39550 0.21342
 H1818 H 0.21348 0.39484 0.17938
 H1819 H 0.25052 0.44775 0.21570
 H1820 H 0.20991 0.46400 0.23920
 H1821 H 0.18773 0.41928 0.22384
 H1822 H 0.19463 0.44421 0.22592
 C1823 C 0.20742 -0.08015 0.70732
 C1824 C 0.21416 -0.08648 0.69402
 C1825 C 0.20844 -0.10029 0.68798
 C1826 C 0.19602 -0.10789 0.69512
 C1827 C 0.18960 -0.10113 0.70838
 N1828 N 0.19544 -0.08773 0.71408
 C1829 C 0.21379 -0.06636 0.71516
 N1830 N 0.21083 -0.06459 0.73047
 C1831 C 0.21750 -0.05332 0.73904
 C1832 C 0.22807 -0.04312 0.73229
 C1833 C 0.23063 -0.04403 0.71637
 C1834 C 0.22347 -0.05562 0.70772
 H1835 H 0.21391 -0.10503 0.67783
 H1836 H 0.18008 -0.10648 0.71438
 H1837 H 0.21525 -0.05287 0.75131
 H1838 H 0.23884 -0.03639 0.71083
 H1839 H 0.22407 -0.08122 0.68856
 H1840 H 0.22586 -0.05633 0.69551
 C1841 C 0.29359 0.29259 0.42066
 C1842 C 0.30748 0.28667 0.41475
 C1843 C 0.31334 0.29249 0.40090
 C1844 C 0.30545 0.30418 0.39285
 C1845 C 0.29172 0.30990 0.39929
 N1846 N 0.28619 0.30397 0.41270
 C1847 C 0.28585 0.28585 0.43435
 N1848 N 0.27035 0.28792 0.43577
 C1849 C 0.26193 0.28084 0.44691
 C1850 C 0.26906 0.27075 0.45736
 C1851 C 0.28510 0.26908 0.45678
 C1852 C 0.29358 0.27666 0.44531
 H1853 H 0.32396 0.28766 0.39649
 H1854 H 0.28515 0.31886 0.39359
 H1855 H 0.24954 0.28240 0.44708
 H1856 H 0.29092 0.26126 0.46463
 H1857 H 0.31354 0.27730 0.42034
 H1858 H 0.30593 0.27496 0.44488
 C1859 C 0.29360 0.79305 -0.07973
 C1860 C 0.30747 0.78705 -0.08560
 C1861 C 0.31336 0.79278 -0.09947
 C1862 C 0.30551 0.80446 -0.10758
 C1863 C 0.29183 0.81029 -0.10115
 N1864 N 0.28627 0.80444 -0.08772
 C1865 C 0.28578 0.78642 -0.06602
 N1866 N 0.27031 0.78872 -0.06458
 C1867 C 0.26180 0.78179 -0.05341
 C1868 C 0.26881 0.77166 -0.04293
 C1869 C 0.28483 0.76972 -0.04356
 C1870 C 0.29340 0.77713 -0.05507
 H1871 H 0.32398 0.78791 -0.10385
 H1872 H 0.28532 0.81928 -0.10686
 H1873 H 0.24944 0.78350 -0.05324
 H1874 H 0.29054 0.76182 -0.03572
 H1875 H 0.31351 0.77768 -0.07996
 H1876 H 0.30571 0.77521 -0.05554
 C1877 C 0.79334 0.29339 -0.07979
 C1878 C 0.80723 0.28750 -0.08570
 C1879 C 0.81305 0.29330 -0.09956
 C1880 C 0.80512 0.30496 -0.10762
 C1881 C 0.79140 0.31067 -0.10117
 N1882 N 0.78590 0.30473 -0.08775
 C1883 C 0.78559 0.28661 -0.06614
 N1884 N 0.77007 0.28856 -0.06480
 C1885 C 0.76165 0.28141 -0.05372
 C1886 C 0.76880 0.27138 -0.04324
 C1887 C 0.78486 0.26983 -0.04372
 C1888 C 0.79334 0.27747 -0.05514
 H1889 H 0.82367 0.28847 -0.10398
 H1890 H 0.78480 0.31960 -0.10687
 H1891 H 0.74925 0.28288 -0.05361
 H1892 H 0.79069 0.26206 -0.03583
 H1893 H 0.81333 0.27815 -0.08008
 H1894 H 0.80570 0.27587 -0.05552
 C1895 C 0.79354 0.79350 0.42052
 C1896 C 0.80737 0.78747 0.41456
 C1897 C 0.81322 0.79325 0.40070
 C1898 C 0.80539 0.80500 0.39268
 C1899 C 0.79176 0.81086 0.39919
 N1900 N 0.78623 0.80497 0.41261
 C1901 C 0.78571 0.78680 0.43418
 N1902 N 0.77032 0.78943 0.43578
 C1903 C 0.76173 0.78246 0.44685
 C1904 C 0.76854 0.77187 0.45702
 C1905 C 0.78452 0.76963 0.45629
 C1906 C 0.79319 0.77712 0.44490
 H1907 H 0.82379 0.78834 0.39625
 H1908 H 0.78524 0.81989 0.39353
 H1909 H 0.74942 0.78454 0.44719
 H1910 H 0.79012 0.76146 0.46394
 H1911 H 0.81339 0.77805 0.42012
 H1912 H 0.80546 0.77498 0.44435
 C1913 C 0.70706 0.29372 0.57987
 C1914 C 0.71298 0.30760 0.58583
 C1915 C 0.70714 0.31344 0.59966
 C1916 C 0.69544 0.30555 0.60764
 C1917 C 0.68971 0.29184 0.60115
 N1918 N 0.69566 0.28632 0.58775
 C1919 C 0.71381 0.28595 0.56621
 N1920 N 0.71170 0.27043 0.56478
 C1921 C 0.71877 0.26197 0.55367
 C1922 C 0.72888 0.26909 0.54327
 C1923 C 0.73061 0.28518 0.54385
 C1924 C 0.72305 0.29370 0.55530
 H1925 H 0.71197 0.32406 0.60411
 H1926 H 0.68073 0.28528 0.60679
 H1927 H 0.71718 0.24955 0.55349
 H1928 H 0.73844 0.29099 0.53603
 H1929 H 0.72237 0.31365 0.58028
 H1930 H 0.72479 0.30607 0.55576
 C1931 C 0.70738 0.79343 1.07950
 C1932 C 0.71367 0.80709 1.08560
 C1933 C 0.70787 0.81306 1.09941
 C1934 C 0.69584 0.80548 1.10721
 C1935 C 0.68981 0.79195 1.10062
 N1936 N 0.69571 0.78634 1.08725
 C1937 C 0.71388 0.78554 1.06579
 N1938 N 0.71087 0.77019 1.06404
 C1939 C 0.71755 0.76152 1.05285
 C1940 C 0.72818 0.76821 1.04269
 C1941 C 0.73084 0.78416 1.04360
 C1942 C 0.72367 0.79291 1.05512
 H1943 H 0.71291 0.82353 1.10396
 H1944 H 0.68063 0.78559 1.10616
 H1945 H 0.71524 0.74922 1.05243
 H1946 H 0.73912 0.78963 1.03601
 H1947 H 0.72327 0.81291 1.08016
 H1948 H 0.72614 0.80514 1.05582
 C1949 C 0.20671 0.29278 1.07961
 C1950 C 0.19278 0.28690 1.08545
 C1951 C 0.18686 0.29269 1.09927
 C1952 C 0.19473 0.30434 1.10735
 C1953 C 0.20851 0.31002 1.10100
 N1954 N 0.21410 0.30409 1.08761
 C1955 C 0.21447 0.28605 1.06594
 N1956 N 0.23001 0.28786 1.06463
 C1957 C 0.23840 0.28073 1.05349
 C1958 C 0.23117 0.27088 1.04292
 C1959 C 0.21510 0.26948 1.04340
 C1960 C 0.20667 0.27710 1.05486
 H1961 H 0.17621 0.28789 1.10363
 H1962 H 0.21506 0.31893 1.10673
 H1963 H 0.25081 0.28204 1.05342
 H1964 H 0.20921 0.26182 1.03549
 H1965 H 0.18671 0.27758 1.07981
 H1966 H 0.19430 0.27561 1.05522
 C1967 C 0.20669 0.79301 0.57871
 C1968 C 0.19291 0.78693 0.58470
 C1969 C 0.18702 0.79271 0.59853
 C1970 C 0.19479 0.80452 0.60646
 C1971 C 0.20840 0.81040 0.59996
 N1972 N 0.21397 0.80449 0.58656
 C1973 C 0.21449 0.78628 0.56509
 N1974 N 0.23000 0.78828 0.56375
 C1975 C 0.23846 0.78112 0.55270
 C1976 C 0.23135 0.77104 0.54229
 C1977 C 0.21530 0.76944 0.54277
 C1978 C 0.20678 0.77710 0.55413
 H1979 H 0.17647 0.78780 0.60300
 H1980 H 0.21487 0.81944 0.60560
 H1981 H 0.25085 0.78262 0.55259
 H1982 H 0.20951 0.76162 0.53494
 H1983 H 0.18696 0.77746 0.57917
 H1984 H 0.19443 0.77547 0.55452
 C1985 C 0.29354 0.70672 0.57900
 C1986 C 0.30749 0.71254 0.58479
 C1987 C 0.31337 0.70675 0.59862
 C1988 C 0.30543 0.69519 0.60679
 C1989 C 0.29165 0.68953 0.60046
 N1990 N 0.28610 0.69544 0.58705
 C1991 C 0.28578 0.71350 0.56535
 N1992 N 0.27024 0.71167 0.56409
 C1993 C 0.26184 0.71885 0.55299
 C1994 C 0.26904 0.72877 0.54244
 C1995 C 0.28510 0.73020 0.54287
 C1996 C 0.29356 0.72253 0.55429
 H1997 H 0.32405 0.71152 0.60293
 H1998 H 0.28506 0.68066 0.60625
 H1999 H 0.24943 0.71749 0.55294
 H2000 H 0.29097 0.73791 0.53495
 H2001 H 0.31359 0.72184 0.57911
 H2002 H 0.30593 0.72404 0.55461
 C2003 C 0.29334 0.20685 1.07963
 C2004 C 0.30715 0.21297 1.08547
 C2005 C 0.31320 0.20716 1.09924
 C2006 C 0.30556 0.19530 1.10728
 C2007 C 0.29189 0.18940 1.10090
 N2008 N 0.28619 0.19532 1.08756
 C2009 C 0.28542 0.21347 1.06599
 N2010 N 0.26994 0.21121 1.06469
 C2011 C 0.26137 0.21810 1.05353
 C2012 C 0.26834 0.22812 1.04294
 C2013 C 0.28436 0.23001 1.04342
 C2014 C 0.29299 0.22266 1.05492
 H2015 H 0.32376 0.21213 1.10362
 H2016 H 0.28551 0.18031 1.10658
 H2017 H 0.24900 0.21643 1.05346
 H2018 H 0.29004 0.23782 1.03548
 H2019 H 0.31301 0.22247 1.07988
 H2020 H 0.30531 0.22452 1.05530
 C2021 C 0.79332 0.70630 1.07915
 C2022 C 0.80726 0.71219 1.08491
 C2023 C 0.81320 0.70642 1.09873
 C2024 C 0.80534 0.69481 1.10690
 C2025 C 0.79160 0.68906 1.10059
 N2026 N 0.78598 0.69496 1.08720
 C2027 C 0.78543 0.71305 1.06555
 N2028 N 0.76998 0.71070 1.06416
 C2029 C 0.76139 0.71776 1.05315
 C2030 C 0.76826 0.72815 1.04283
 C2031 C 0.78428 0.73011 1.04336
 C2032 C 0.79295 0.72253 1.05468
 H2033 H 0.82386 0.71124 1.10302
 H2034 H 0.78507 0.68013 1.10637
 H2035 H 0.74904 0.71591 1.05298
 H2036 H 0.78992 0.73814 1.03560
 H2037 H 0.81331 0.72152 1.07924
 H2038 H 0.80525 0.72446 1.05507
 C2039 C 0.79265 0.20589 0.57943
 C2040 C 0.78673 0.19205 0.58553
 C2041 C 0.79264 0.18624 0.59934
 C2042 C 0.80444 0.19414 0.60716
 C2043 C 0.81021 0.20777 0.60050
 N2044 N 0.80416 0.21325 0.58713
 C2045 C 0.78576 0.21369 0.56588
 N2046 N 0.78788 0.22922 0.56445
 C2047 C 0.78069 0.23773 0.55345
 C2048 C 0.77045 0.23066 0.54319
 C2049 C 0.76868 0.21458 0.54378
 C2050 C 0.77637 0.20600 0.55511
 H2051 H 0.78779 0.17568 0.60393
 H2052 H 0.81926 0.21432 0.60599
 H2053 H 0.78231 0.25015 0.55326
 H2054 H 0.76073 0.20881 0.53607
 H2055 H 0.77726 0.18602 0.58012
 H2056 H 0.77461 0.19363 0.55558
 C2057 C 0.70639 0.70731 0.42088
 C2058 C 0.71240 0.69335 0.41514
 C2059 C 0.70672 0.68731 0.40134
 C2060 C 0.69506 0.69507 0.39317
 C2061 C 0.68921 0.70885 0.39945
 N2062 N 0.69503 0.71456 0.41281
 C2063 C 0.71298 0.71529 0.43450
 N2064 N 0.71042 0.73076 0.43593
 C2065 C 0.71731 0.73944 0.44698
 C2066 C 0.72770 0.73263 0.45731
 C2067 C 0.72990 0.71659 0.45671
 C2068 C 0.72252 0.70784 0.44535
 H2069 H 0.71163 0.67665 0.39706
 H2070 H 0.68026 0.71532 0.39366
 H2071 H 0.71534 0.75181 0.44716
 H2072 H 0.73800 0.71101 0.46443
 H2073 H 0.72174 0.68735 0.42083
 H2074 H 0.72465 0.69553 0.44492
 C2075 C 0.70615 0.20736 -0.07955
 C2076 C 0.69228 0.21323 -0.08554
 C2077 C 0.68643 0.20725 -0.09930
 C2078 C 0.69431 0.19545 -0.10717
 C2079 C 0.70801 0.18976 -0.10064
 N2080 N 0.71353 0.19586 -0.08733
 C2081 C 0.71392 0.21426 -0.06600
 N2082 N 0.72943 0.21223 -0.06464
 C2083 C 0.73787 0.21940 -0.05360
 C2084 C 0.73075 0.22952 -0.04320
 C2085 C 0.71470 0.23119 -0.04373
 C2086 C 0.70620 0.22354 -0.05511
 H2087 H 0.67583 0.21206 -0.10379
 H2088 H 0.71456 0.18072 -0.10620
 H2089 H 0.75026 0.21786 -0.05347
 H2090 H 0.70890 0.23905 -0.03592
 H2091 H 0.68622 0.22268 -0.08006
 H2092 H 0.69386 0.22523 -0.05552
 C2093 C 0.20694 0.70712 -0.07933
 C2094 C 0.19302 0.71304 -0.08517
 C2095 C 0.18709 0.70722 -0.09896
 C2096 C 0.19493 0.69552 -0.10703
 C2097 C 0.20868 0.68977 -0.10065
 N2098 N 0.21429 0.69572 -0.08729
 C2099 C 0.21475 0.71387 -0.06572
 N2100 N 0.23028 0.71196 -0.06444
 C2101 C 0.23871 0.71909 -0.05336
 C2102 C 0.23154 0.72905 -0.04283
 C2103 C 0.21548 0.73057 -0.04327
 C2104 C 0.20700 0.72295 -0.05468
 H2105 H 0.17646 0.71206 -0.10333
 H2106 H 0.21520 0.68079 -0.10635
 H2107 H 0.25111 0.71767 -0.05329
 H2108 H 0.20964 0.73830 -0.03537
 H2109 H 0.18699 0.72242 -0.07956
 H2110 H 0.19464 0.72453 -0.05501
 C2111 C 0.20617 0.20682 0.42130
 C2112 C 0.19227 0.21272 0.41542
 C2113 C 0.18643 0.20691 0.40160
 C2114 C 0.19435 0.19525 0.39355
 C2115 C 0.20804 0.18949 0.40000
 N2116 N 0.21357 0.19543 0.41339
 C2117 C 0.21398 0.21365 0.43485
 N2118 N 0.22950 0.21168 0.43610
 C2119 C 0.23798 0.21889 0.44707
 C2120 C 0.23089 0.22899 0.45751
 C2121 C 0.21483 0.23058 0.45711
 C2122 C 0.20629 0.22288 0.44581
 H2123 H 0.17581 0.21176 0.39718
 H2124 H 0.21462 0.18053 0.39432
 H2125 H 0.25038 0.21740 0.44713
 H2126 H 0.20905 0.23840 0.46496
 H2127 H 0.18620 0.22210 0.42100
 H2128 H 0.19393 0.22450 0.44549
 C2129 C 0.29374 0.42046 0.70703
 C2130 C 0.30757 0.41442 0.71296
 C2131 C 0.31348 0.40063 0.70700
 C2132 C 0.30572 0.39278 0.69515
 C2133 C 0.29205 0.39934 0.68942
 N2134 N 0.28647 0.41269 0.69550
 C2135 C 0.28587 0.43409 0.71382
 N2136 N 0.27052 0.43580 0.71108
 C2137 C 0.26190 0.44688 0.71803
 C2138 C 0.26864 0.45697 0.72870
 C2139 C 0.28459 0.45612 0.73109
 C2140 C 0.29329 0.44471 0.72363
 H2141 H 0.32405 0.39609 0.71183
 H2142 H 0.28556 0.39379 0.68037
 H2143 H 0.24962 0.44730 0.71583
 H2144 H 0.29013 0.46371 0.73932
 H2145 H 0.31356 0.41987 0.72242
 H2146 H 0.30553 0.44407 0.72588
 C2147 C 0.29390 0.92110 0.20716
 C2148 C 0.30771 0.91505 0.21312
 C2149 C 0.31364 0.90126 0.20716
 C2150 C 0.30589 0.89344 0.19529
 C2151 C 0.29225 0.90003 0.18952
 N2152 N 0.28665 0.91337 0.19561
 C2153 C 0.28604 0.93467 0.21403
 N2154 N 0.27054 0.93602 0.21198
 C2155 C 0.26203 0.94705 0.21914
 C2156 C 0.26909 0.95746 0.22927
 C2157 C 0.28513 0.95696 0.23094
 C2158 C 0.29370 0.94559 0.22331
 H2159 H 0.32417 0.89670 0.21204
 H2160 H 0.28579 0.89451 0.18043
 H2161 H 0.24964 0.94718 0.21759
 H2162 H 0.29089 0.96480 0.23878
 H2163 H 0.31365 0.92048 0.22264
 H2164 H 0.30604 0.94518 0.22501
 C2165 C 0.79338 0.42020 0.20717
 C2166 C 0.80727 0.41422 0.21300
 C2167 C 0.81317 0.40043 0.20705
 C2168 C 0.80532 0.39251 0.19530
 C2169 C 0.79155 0.39897 0.18973
 N2170 N 0.78598 0.41234 0.19579
 C2171 C 0.78565 0.43390 0.21395
 N2172 N 0.77015 0.43536 0.21194
 C2173 C 0.76177 0.44655 0.21902
 C2174 C 0.76896 0.45700 0.22901
 C2175 C 0.78500 0.45638 0.23063
 C2176 C 0.79344 0.44486 0.22307
 H2177 H 0.82379 0.39595 0.21181
 H2178 H 0.78498 0.39335 0.18076
 H2179 H 0.74938 0.44676 0.21752
 H2180 H 0.79085 0.46422 0.23839
 H2181 H 0.81332 0.41973 0.22240
 H2182 H 0.80578 0.44438 0.22472
 C2183 C 0.79309 0.92084 0.70672
 C2184 C 0.78704 0.91504 0.69286
 C2185 C 0.79290 0.90129 0.68674
 C2186 C 0.80476 0.89325 0.69435
 C2187 C 0.81059 0.89957 0.70805
 N2188 N 0.80462 0.91288 0.71383
 C2189 C 0.78643 0.93442 0.71476
 N2190 N 0.78913 0.93582 0.73015
 C2191 C 0.78230 0.94687 0.73889
 C2192 C 0.77181 0.95724 0.73225
 C2193 C 0.76947 0.95669 0.71628
 C2194 C 0.77680 0.94531 0.70745
 H2195 H 0.78799 0.89695 0.67615
 H2196 H 0.81966 0.89386 0.71442
 H2197 H 0.78442 0.94704 0.75118
 H2198 H 0.76135 0.96448 0.71081
 H2199 H 0.77756 0.92064 0.68701
 H2200 H 0.77460 0.94489 0.69520
 C2201 C 0.70660 0.57984 0.70730
 C2202 C 0.71271 0.58565 0.69345
 C2203 C 0.70699 0.59947 0.68737
 C2204 C 0.69520 0.60759 0.69500
 C2205 C 0.68933 0.60129 0.70872
 N2206 N 0.69517 0.58790 0.71447
 C2207 C 0.71313 0.56615 0.71526
 N2208 N 0.71060 0.56474 0.73068
 C2209 C 0.71740 0.55358 0.73934
 C2210 C 0.72769 0.54311 0.73254
 C2211 C 0.72981 0.54365 0.71655
 C2212 C 0.72252 0.55515 0.70782
 H2213 H 0.71193 0.60380 0.67677
 H2214 H 0.68033 0.60709 0.71512
 H2215 H 0.71547 0.55342 0.75166
 H2216 H 0.73778 0.53579 0.71096
 H2217 H 0.72213 0.57998 0.68756
 H2218 H 0.72460 0.55557 0.69554
 C2219 C 0.70700 0.07952 0.20697
 C2220 C 0.71297 0.08528 0.19304
 C2221 C 0.70718 0.09906 0.18696
 C2222 C 0.69546 0.10720 0.19467
 C2223 C 0.68972 0.10095 0.20847
 N2224 N 0.69564 0.08758 0.21422
 C2225 C 0.71367 0.06585 0.21485
 N2226 N 0.71181 0.06467 0.23039
 C2227 C 0.71888 0.05354 0.23887
 C2228 C 0.72870 0.04286 0.23173
 C2229 C 0.73014 0.04320 0.21566
 C2230 C 0.72260 0.05466 0.20714
 H2231 H 0.71204 0.10336 0.17631
 H2232 H 0.68076 0.10676 0.21492
 H2233 H 0.71752 0.05354 0.25128
 H2234 H 0.73778 0.03518 0.20984
 H2235 H 0.72237 0.07960 0.18711
 H2236 H 0.72412 0.05493 0.19477
 C2237 C 0.20617 0.57924 0.20690
 C2238 C 0.21226 0.58500 0.19303
 C2239 C 0.20650 0.59878 0.18688
 C2240 C 0.19468 0.60690 0.19446
 C2241 C 0.18879 0.60061 0.20818
 N2242 N 0.19468 0.58727 0.21400
 C2243 C 0.21279 0.56563 0.21495
 N2244 N 0.21039 0.56436 0.23041
 C2245 C 0.21730 0.55329 0.23910
 C2246 C 0.22752 0.54275 0.23231
 C2247 C 0.22953 0.54318 0.21629
 C2248 C 0.22215 0.55459 0.20753
 H2249 H 0.21149 0.60310 0.17630
 H2250 H 0.17973 0.60638 0.21452
 H2251 H 0.21545 0.55323 0.25144
 H2252 H 0.23745 0.53527 0.21071
 H2253 H 0.22173 0.57935 0.18720
 H2254 H 0.22412 0.55491 0.19523
 C2255 C 0.20713 0.07891 0.70697
 C2256 C 0.19315 0.08468 0.71282
 C2257 C 0.18710 0.09846 0.70695
 C2258 C 0.19490 0.10658 0.69527
 C2259 C 0.20875 0.10032 0.68966
 N2260 N 0.21445 0.08696 0.69564
 C2261 C 0.21503 0.06526 0.71365
 N2262 N 0.23051 0.06392 0.71143
 C2263 C 0.23907 0.05278 0.71837
 C2264 C 0.23209 0.04222 0.72843
 C2265 C 0.21606 0.04272 0.73028
 C2266 C 0.20744 0.05421 0.72286
 H2267 H 0.17641 0.10277 0.71172
 H2268 H 0.21528 0.10610 0.68075
 H2269 H 0.25144 0.05267 0.71670
 H2270 H 0.21037 0.03481 0.73811
 H2271 H 0.18713 0.07901 0.72217
 H2272 H 0.19511 0.05458 0.72470
 C2273 C 0.29366 0.57890 0.29331
 C2274 C 0.30753 0.58482 0.28737
 C2275 C 0.31349 0.59860 0.29328
 C2276 C 0.30573 0.60656 0.30508
 C2277 C 0.29205 0.60009 0.31085
 N2278 N 0.28641 0.58675 0.30482
 C2279 C 0.28572 0.56533 0.28651
 N2280 N 0.27034 0.56377 0.28919
 C2281 C 0.26167 0.55279 0.28217
 C2282 C 0.26839 0.54269 0.27148
 C2283 C 0.28436 0.54337 0.26917
 C2284 C 0.29311 0.55466 0.27671
 H2285 H 0.32408 0.60305 0.28841
 H2286 H 0.28558 0.60573 0.31989
 H2287 H 0.24938 0.55247 0.28434
 H2288 H 0.28989 0.53576 0.26094
 H2289 H 0.31351 0.57931 0.27792
 H2290 H 0.30537 0.55517 0.27452
 C2291 C 0.29368 0.07869 0.79295
 C2292 C 0.30751 0.08471 0.78703
 C2293 C 0.31335 0.09854 0.79293
 C2294 C 0.30550 0.10644 0.80471
 C2295 C 0.29180 0.09992 0.81039
 N2296 N 0.28629 0.08653 0.80437
 C2297 C 0.28596 0.06501 0.78617
 N2298 N 0.27047 0.06356 0.78823
 C2299 C 0.26208 0.05243 0.78109
 C2300 C 0.26927 0.04206 0.77098
 C2301 C 0.28531 0.04267 0.76933
 C2302 C 0.29375 0.05411 0.77696
 H2303 H 0.32392 0.10305 0.78809
 H2304 H 0.28524 0.10552 0.81939
 H2305 H 0.24970 0.05222 0.78263
 H2306 H 0.29115 0.03487 0.76149
 H2307 H 0.31354 0.07922 0.77760
 H2308 H 0.30609 0.05458 0.77527
 C2309 C 0.79358 0.57949 0.79349
 C2310 C 0.80748 0.58537 0.78759
 C2311 C 0.81345 0.59914 0.79348
 C2312 C 0.80566 0.60715 0.80522
 C2313 C 0.79191 0.60076 0.81093
 N2314 N 0.78628 0.58741 0.80493
 C2315 C 0.78568 0.56590 0.78674
 N2316 N 0.77029 0.56435 0.78939
 C2317 C 0.76164 0.55333 0.78242
 C2318 C 0.76840 0.54316 0.77181
 C2319 C 0.78438 0.54382 0.76955
 C2320 C 0.79310 0.55516 0.77703
 H2321 H 0.82407 0.60354 0.78865
 H2322 H 0.78541 0.60644 0.81992
 H2323 H 0.74934 0.55303 0.78454
 H2324 H 0.78993 0.53614 0.76140
 H2325 H 0.81349 0.57981 0.77818
 H2326 H 0.80536 0.55567 0.77486
 C2327 C 0.79398 0.07910 0.29302
 C2328 C 0.78809 0.08472 0.30702
 C2329 C 0.79388 0.09846 0.31315
 C2330 C 0.80551 0.10669 0.30543
 C2331 C 0.81122 0.10055 0.29157
 N2332 N 0.80530 0.08723 0.28576
 C2333 C 0.78724 0.06554 0.28505
 N2334 N 0.78889 0.06458 0.26947
 C2335 C 0.78172 0.05357 0.26096
 C2336 C 0.77203 0.04277 0.26809
 C2337 C 0.77080 0.04288 0.28419
 C2338 C 0.77843 0.05424 0.29275
 H2339 H 0.78904 0.10265 0.32385
 H2340 H 0.82013 0.10642 0.28513
 H2341 H 0.78293 0.05374 0.24854
 H2342 H 0.76328 0.03477 0.29002
 H2343 H 0.77873 0.07899 0.31296
 H2344 H 0.77705 0.05434 0.30513
 C2345 C 0.70625 0.42054 0.29262
 C2346 C 0.69245 0.41457 0.28657
 C2347 C 0.68643 0.40080 0.29251
 C2348 C 0.69408 0.39293 0.30444
 C2349 C 0.70771 0.39943 0.31026
 N2350 N 0.71339 0.41274 0.30421
 C2351 C 0.71421 0.43413 0.28591
 N2352 N 0.72964 0.43555 0.28843
 C2353 C 0.73829 0.44666 0.28157
 C2354 C 0.73146 0.45712 0.27131
 C2355 C 0.71548 0.45652 0.26912
 C2356 C 0.70676 0.44505 0.27644
 H2357 H 0.67589 0.39629 0.28760
 H2358 H 0.71413 0.39387 0.31938
 H2359 H 0.75062 0.44682 0.28348
 H2360 H 0.70992 0.46435 0.26110
 H2361 H 0.68657 0.42008 0.27704
 H2362 H 0.69449 0.44459 0.27434
 C2363 C 0.70682 0.92042 0.79340
 C2364 C 0.69290 0.91467 0.78741
 C2365 C 0.68683 0.90086 0.79322
 C2366 C 0.69454 0.89272 0.80493
 C2367 C 0.70832 0.89899 0.81066
 N2368 N 0.71403 0.91235 0.80477
 C2369 C 0.71479 0.93412 0.78690
 N2370 N 0.73014 0.93570 0.78981
 C2371 C 0.73885 0.94689 0.78315
 C2372 C 0.73222 0.95723 0.77264
 C2373 C 0.71629 0.95650 0.77009
 C2374 C 0.70749 0.94498 0.77723
 H2375 H 0.67618 0.89655 0.78838
 H2376 H 0.71478 0.89322 0.81963
 H2377 H 0.75112 0.94719 0.78542
 H2378 H 0.71085 0.96425 0.76191
 H2379 H 0.68694 0.92036 0.77805
 H2380 H 0.69528 0.94445 0.77484
 C2381 C 0.20646 0.42039 0.79285
 C2382 C 0.21253 0.41458 0.80672
 C2383 C 0.20676 0.40079 0.81283
 C2384 C 0.19499 0.39269 0.80521
 C2385 C 0.18916 0.39898 0.79147
 N2386 N 0.19504 0.41235 0.78570
 C2387 C 0.21300 0.43410 0.78490
 N2388 N 0.21049 0.43557 0.76948
 C2389 C 0.21731 0.44675 0.76085
 C2390 C 0.22758 0.45719 0.76767
 C2391 C 0.22969 0.45658 0.78367
 C2392 C 0.22238 0.44507 0.79236
 H2393 H 0.21168 0.39647 0.82345
 H2394 H 0.18016 0.39320 0.78509
 H2395 H 0.21539 0.44695 0.74853
 H2396 H 0.23766 0.46440 0.78927
 H2397 H 0.22195 0.42022 0.81260
 H2398 H 0.22445 0.44461 0.80464
 C2399 C 0.20666 0.92031 0.29260
 C2400 C 0.19281 0.91441 0.28661
 C2401 C 0.18684 0.90058 0.29245
 C2402 C 0.19459 0.89255 0.30422
 C2403 C 0.20833 0.89893 0.30993
 N2404 N 0.21394 0.91233 0.30400
 C2405 C 0.21449 0.93405 0.28603
 N2406 N 0.22991 0.93557 0.28849
 C2407 C 0.23844 0.94681 0.28169
 C2408 C 0.23151 0.95729 0.27153
 C2409 C 0.21551 0.95662 0.26943
 C2410 C 0.20691 0.94503 0.27670
 H2411 H 0.17625 0.89616 0.28758
 H2412 H 0.21483 0.89324 0.31892
 H2413 H 0.25079 0.94704 0.28354
 H2414 H 0.20985 0.96447 0.26150
 H2415 H 0.18684 0.92001 0.27720
 H2416 H 0.19463 0.94452 0.27467
 C2417 C 0.42115 0.29365 0.70683
 C2418 C 0.41548 0.28758 0.69293
 C2419 C 0.40174 0.29334 0.68678
 C2420 C 0.39357 0.30513 0.69439
 C2421 C 0.39978 0.31100 0.70813
 N2422 N 0.41308 0.30512 0.71395
 C2423 C 0.43470 0.28702 0.71491
 N2424 N 0.43592 0.28945 0.73036
 C2425 C 0.44693 0.28256 0.73909
 C2426 C 0.45747 0.27230 0.73235
 C2427 C 0.45710 0.27027 0.71634
 C2428 C 0.44574 0.27764 0.70754
 H2429 H 0.39748 0.28839 0.67617
 H2430 H 0.39398 0.32003 0.71450
 H2431 H 0.44695 0.28443 0.75143
 H2432 H 0.46501 0.26231 0.71080
 H2433 H 0.42118 0.27815 0.68706
 H2434 H 0.44546 0.27564 0.69524
 C2435 C 0.42091 0.79310 0.20676
 C2436 C 0.41500 0.80701 0.21270
 C2437 C 0.40121 0.81300 0.20685
 C2438 C 0.39324 0.80522 0.19509
 C2439 C 0.39967 0.79146 0.18936
 N2440 N 0.41301 0.78581 0.19533
 C2441 C 0.43456 0.78521 0.21345
 N2442 N 0.43603 0.76970 0.21116
 C2443 C 0.44718 0.76114 0.21810
 C2444 C 0.45760 0.76814 0.22825
 C2445 C 0.45695 0.78420 0.23018
 C2446 C 0.44547 0.79282 0.22276
 H2447 H 0.39678 0.82363 0.21170
 H2448 H 0.39402 0.78496 0.18037
 H2449 H 0.44737 0.74874 0.21637
 H2450 H 0.46474 0.78992 0.23809
 H2451 H 0.42055 0.81301 0.22211
 H2452 H 0.44499 0.80517 0.22467
 C2453 C 0.92082 0.29324 0.20687
 C2454 C 0.91523 0.28732 0.19287
 C2455 C 0.90151 0.29314 0.18672
 C2456 C 0.89330 0.30481 0.19443
 C2457 C 0.89941 0.31053 0.20828
 N2458 N 0.91270 0.30460 0.21409
 C2459 C 0.93434 0.28652 0.21488
 N2460 N 0.93535 0.28844 0.23042
 C2461 C 0.94636 0.28138 0.23903
 C2462 C 0.95710 0.27153 0.23205
 C2463 C 0.95694 0.27002 0.21598
 C2464 C 0.94558 0.27754 0.20732
 H2465 H 0.89733 0.28832 0.17601
 H2466 H 0.89355 0.31947 0.21472
 H2467 H 0.94622 0.28280 0.25143
 H2468 H 0.96502 0.26238 0.21027
 H2469 H 0.92097 0.27796 0.18693
 H2470 H 0.94544 0.27596 0.19496
 C2471 C 0.92070 0.79371 0.70737
 C2472 C 0.91469 0.80757 0.71335
 C2473 C 0.90091 0.81351 0.70743
 C2474 C 0.89306 0.80573 0.69560
 C2475 C 0.89956 0.79199 0.68989
 N2476 N 0.91289 0.78640 0.69590
 C2477 C 0.93439 0.78588 0.71401
 N2478 N 0.93599 0.77041 0.71154
 C2479 C 0.94721 0.76187 0.71836
 C2480 C 0.95758 0.76885 0.72855
 C2481 C 0.95682 0.78489 0.73066
 C2482 C 0.94524 0.79349 0.72338
 H2483 H 0.89640 0.82411 0.71228
 H2484 H 0.89400 0.78547 0.68086
 H2485 H 0.94750 0.74950 0.71650
 H2486 H 0.96459 0.79058 0.73860
 H2487 H 0.92017 0.81356 0.72280
 H2488 H 0.94466 0.80581 0.72542
 C2489 C 0.57943 0.29292 0.29344
 C2490 C 0.58523 0.28693 0.30733
 C2491 C 0.59895 0.29279 0.31337
 C2492 C 0.60697 0.30461 0.30567
 C2493 C 0.60065 0.31039 0.29192
 N2494 N 0.58736 0.30440 0.28620
 C2495 C 0.56587 0.28618 0.28554
 N2496 N 0.56470 0.28810 0.27001
 C2497 C 0.55364 0.28102 0.26151
 C2498 C 0.54300 0.27114 0.26861
 C2499 C 0.54335 0.26960 0.28467
 C2500 C 0.55475 0.27714 0.29322
 H2501 H 0.60331 0.28788 0.32398
 H2502 H 0.60635 0.31943 0.28548
 H2503 H 0.55368 0.28243 0.24911
 H2504 H 0.53538 0.26190 0.29046
 H2505 H 0.57964 0.27746 0.31327
 H2506 H 0.55502 0.27554 0.30558
 C2507 C 0.57896 0.79347 0.79335
 C2508 C 0.58472 0.78739 0.80722
 C2509 C 0.59844 0.79319 0.81332
 C2510 C 0.60650 0.80502 0.80568
 C2511 C 0.60022 0.81091 0.79196
 N2512 N 0.58693 0.80498 0.78618
 C2513 C 0.56543 0.78677 0.78538
 N2514 N 0.56433 0.78877 0.76985
 C2515 C 0.55330 0.78174 0.76128
 C2516 C 0.54263 0.77183 0.76830
 C2517 C 0.54290 0.77023 0.78436
 C2518 C 0.55428 0.77772 0.79298
 H2519 H 0.60275 0.78824 0.82392
 H2520 H 0.60594 0.81998 0.78558
 H2521 H 0.55337 0.78320 0.74889
 H2522 H 0.53489 0.76253 0.79009
 H2523 H 0.57911 0.77790 0.81309
 H2524 H 0.55451 0.77606 0.80533
 C2525 C 0.07913 0.29381 0.79281
 C2526 C 0.08476 0.28782 0.80678
 C2527 C 0.09852 0.29353 0.81288
 C2528 C 0.10676 0.30519 0.80516
 C2529 C 0.10062 0.31099 0.79134
 N2530 N 0.08728 0.30515 0.78557
 C2531 C 0.06550 0.28724 0.78484
 N2532 N 0.06412 0.28974 0.76941
 C2533 C 0.05304 0.28288 0.76076
 C2534 C 0.04261 0.27255 0.76756
 C2535 C 0.04313 0.27045 0.78356
 C2536 C 0.05453 0.27781 0.79228
 H2537 H 0.10271 0.28866 0.82357
 H2538 H 0.10650 0.31991 0.78490
 H2539 H 0.05290 0.28483 0.74843
 H2540 H 0.03530 0.26246 0.78915
 H2541 H 0.07902 0.27849 0.81275
 H2542 H 0.05490 0.27577 0.80457
 C2543 C 0.07896 0.79342 0.29288
 C2544 C 0.08462 0.78747 0.30685
 C2545 C 0.09836 0.79323 0.31294
 C2546 C 0.10653 0.80491 0.30519
 C2547 C 0.10035 0.81067 0.29137
 N2548 N 0.08704 0.80477 0.28561
 C2549 C 0.06541 0.78674 0.28493
 N2550 N 0.06433 0.78865 0.26939
 C2551 C 0.05330 0.78159 0.26083
 C2552 C 0.04262 0.77171 0.26788
 C2553 C 0.04286 0.77021 0.28395
 C2554 C 0.05422 0.77775 0.29256
 H2555 H 0.10259 0.78838 0.32362
 H2556 H 0.10619 0.81961 0.28490
 H2557 H 0.05339 0.78300 0.24843
 H2558 H 0.03484 0.76253 0.28971
 H2559 H 0.07890 0.77810 0.31281
 H2560 H 0.05440 0.77618 0.30492
 C2561 C 0.57932 0.70670 0.70720
 C2562 C 0.58500 0.71255 0.69320
 C2563 C 0.59880 0.70681 0.68721
 C2564 C 0.60703 0.69523 0.69505
 C2565 C 0.60085 0.68956 0.70892
 N2566 N 0.58746 0.69545 0.71460
 C2567 C 0.56564 0.71342 0.71497
 N2568 N 0.56449 0.71185 0.73054
 C2569 C 0.55336 0.71906 0.73889
 C2570 C 0.54266 0.72875 0.73159
 C2571 C 0.54296 0.72986 0.71549
 C2572 C 0.55442 0.72218 0.70710
 H2573 H 0.60302 0.71159 0.67649
 H2574 H 0.60674 0.68071 0.71546
 H2575 H 0.55339 0.71792 0.75132
 H2576 H 0.53492 0.73736 0.70953
 H2577 H 0.57926 0.72184 0.68713
 H2578 H 0.55466 0.72347 0.69471
 C2579 C 0.57960 0.20606 0.20733
 C2580 C 0.58516 0.21197 0.19330
 C2581 C 0.59891 0.20624 0.18718
 C2582 C 0.60721 0.19465 0.19494
 C2583 C 0.60114 0.18895 0.20884
 N2584 N 0.58781 0.19480 0.21463
 C2585 C 0.56598 0.21271 0.21526
 N2586 N 0.56497 0.21101 0.23083
 C2587 C 0.55388 0.21811 0.23932
 C2588 C 0.54308 0.22779 0.23217
 C2589 C 0.54324 0.22902 0.21608
 C2590 C 0.55467 0.22147 0.20754
 H2591 H 0.60305 0.21105 0.17644
 H2592 H 0.60709 0.18008 0.21531
 H2593 H 0.55402 0.21689 0.25174
 H2594 H 0.53512 0.23653 0.21023
 H2595 H 0.57936 0.22127 0.18732
 H2596 H 0.55481 0.22286 0.19516
 C2597 C 0.07906 0.70618 0.20673
 C2598 C 0.08473 0.71201 0.19271
 C2599 C 0.09849 0.70620 0.18669
 C2600 C 0.10670 0.69459 0.19452
 C2601 C 0.10050 0.68893 0.20838
 N2602 N 0.08716 0.69488 0.21410
 C2603 C 0.06547 0.71300 0.21457
 N2604 N 0.06442 0.71151 0.23015
 C2605 C 0.05339 0.71881 0.23854
 C2606 C 0.04268 0.72850 0.23127
 C2607 C 0.04289 0.72956 0.21517
 C2608 C 0.05425 0.72179 0.20674
 H2609 H 0.10272 0.71101 0.17599
 H2610 H 0.10635 0.68003 0.21490
 H2611 H 0.05350 0.71772 0.25098
 H2612 H 0.03483 0.73707 0.20923
 H2613 H 0.07903 0.72134 0.18668
 H2614 H 0.05441 0.72303 0.19434
 C2615 C 0.07897 0.20638 0.70694
 C2616 C 0.08487 0.19250 0.71300
 C2617 C 0.09863 0.18645 0.70714
 C2618 C 0.10659 0.19416 0.69530
 C2619 C 0.10017 0.20788 0.68946
 N2620 N 0.08685 0.21357 0.69541
 C2621 C 0.06539 0.21441 0.71355
 N2622 N 0.06381 0.22979 0.71060
 C2623 C 0.05276 0.23859 0.71735
 C2624 C 0.04258 0.23201 0.72802
 C2625 C 0.04330 0.21603 0.73063
 C2626 C 0.05468 0.20714 0.72339
 H2627 H 0.10307 0.17585 0.71207
 H2628 H 0.10579 0.21433 0.68040
 H2629 H 0.05245 0.25089 0.71501
 H2630 H 0.03564 0.21062 0.73889
 H2631 H 0.07933 0.18656 0.72246
 H2632 H 0.05524 0.19489 0.72582
 C2633 C 0.42126 0.70598 0.29279
 C2634 C 0.41525 0.69211 0.28689
 C2635 C 0.40148 0.68622 0.29284
 C2636 C 0.39363 0.69406 0.30465
 C2637 C 0.40015 0.70777 0.31035
 N2638 N 0.41348 0.71333 0.30428
 C2639 C 0.43485 0.71376 0.28594
 N2640 N 0.43629 0.72930 0.28802
 C2641 C 0.44735 0.73776 0.28085
 C2642 C 0.45768 0.73061 0.27069
 C2643 C 0.45708 0.71452 0.26899
 C2644 C 0.44570 0.70601 0.27665
 H2645 H 0.39696 0.67563 0.28801
 H2646 H 0.39458 0.71432 0.31938
 H2647 H 0.44756 0.75018 0.28243
 H2648 H 0.46483 0.70870 0.26110
 H2649 H 0.42070 0.68609 0.27743
 H2650 H 0.44524 0.69364 0.27494
 C2651 C 0.42069 0.20648 0.79330
 C2652 C 0.41478 0.19257 0.78741
 C2653 C 0.40099 0.18664 0.79329
 C2654 C 0.39299 0.19448 0.80501
 C2655 C 0.39940 0.20825 0.81069
 N2656 N 0.41277 0.21384 0.80470
 C2657 C 0.43435 0.21432 0.78660
 N2658 N 0.43606 0.22973 0.78931
 C2659 C 0.44716 0.23833 0.78238
 C2660 C 0.45726 0.23151 0.77176
 C2661 C 0.45643 0.21551 0.76943
 C2662 C 0.44502 0.20683 0.77687
 H2663 H 0.39658 0.17599 0.78848
 H2664 H 0.39374 0.21480 0.81965
 H2665 H 0.44758 0.25065 0.78454
 H2666 H 0.46403 0.20991 0.76123
 H2667 H 0.42034 0.18650 0.77805
 H2668 H 0.44440 0.19455 0.77465
 C2669 C 0.92121 0.70672 0.79294
 C2670 C 0.91526 0.69281 0.78710
 C2671 C 0.90150 0.68691 0.79305
 C2672 C 0.89359 0.69479 0.80481
 C2673 C 0.90005 0.70856 0.81043
 N2674 N 0.91338 0.71413 0.80436
 C2675 C 0.93481 0.71450 0.78611
 N2676 N 0.93620 0.73005 0.78811
 C2677 C 0.94729 0.73849 0.78098
 C2678 C 0.95771 0.73131 0.77094
 C2679 C 0.95717 0.71522 0.76933
 C2680 C 0.94574 0.70672 0.77693
 H2681 H 0.89703 0.67628 0.78827
 H2682 H 0.89445 0.71513 0.81942
 H2683 H 0.94743 0.75092 0.78247
 H2684 H 0.96501 0.70937 0.76154
 H2685 H 0.92075 0.68675 0.77768
 H2686 H 0.94530 0.69434 0.77525
 C2687 C 0.92041 0.20667 0.29360
 C2688 C 0.91459 0.21261 0.30750
 C2689 C 0.90082 0.20679 0.31349
 C2690 C 0.89275 0.19506 0.30573
 C2691 C 0.89907 0.18934 0.29195
 N2692 N 0.91243 0.19529 0.28628
 C2693 C 0.93407 0.21341 0.28580
 N2694 N 0.93529 0.21170 0.27025
 C2695 C 0.94642 0.21886 0.26187
 C2696 C 0.95706 0.22863 0.26910
 C2697 C 0.95668 0.22990 0.28518
 C2698 C 0.94521 0.22226 0.29361
 H2699 H 0.89647 0.21165 0.32411
 H2700 H 0.89333 0.18037 0.28547
 H2701 H 0.94644 0.21761 0.24945
 H2702 H 0.96467 0.23747 0.29109
 H2703 H 0.92020 0.22201 0.31347
 H2704 H 0.94492 0.22366 0.30599
 C2705 C 0.29319 0.29327 0.57904
 C2706 C 0.30717 0.28744 0.58480
 C2707 C 0.31307 0.29321 0.59861
 C2708 C 0.30514 0.30478 0.60677
 C2709 C 0.29133 0.31046 0.60047
 N2710 N 0.28575 0.30455 0.58708
 C2711 C 0.28539 0.28647 0.56545
 N2712 N 0.26985 0.28830 0.56422
 C2713 C 0.26142 0.28109 0.55321
 C2714 C 0.26860 0.27111 0.54271
 C2715 C 0.28467 0.26968 0.54307
 C2716 C 0.29316 0.27740 0.55441
 H2717 H 0.32375 0.28843 0.60291
 H2718 H 0.28474 0.31933 0.60626
 H2719 H 0.24901 0.28246 0.55317
 H2720 H 0.29052 0.26195 0.53517
 H2721 H 0.31327 0.27814 0.57913
 H2722 H 0.30553 0.27589 0.55469
 C2723 C 0.29361 0.79300 0.07913
 C2724 C 0.28753 0.80688 0.08498
 C2725 C 0.29325 0.81289 0.09879
 C2726 C 0.30499 0.80514 0.10687
 C2727 C 0.31085 0.79141 0.10051
 N2728 N 0.30502 0.78575 0.08712
 C2729 C 0.28711 0.78509 0.06541
 N2730 N 0.28978 0.76965 0.06384
 C2731 C 0.28304 0.76103 0.05266
 C2732 C 0.27268 0.76787 0.04231
 C2733 C 0.27037 0.78389 0.04305
 C2734 C 0.27760 0.79258 0.05456
 H2735 H 0.28831 0.82351 0.10315
 H2736 H 0.31984 0.78494 0.10622
 H2737 H 0.28509 0.74868 0.05238
 H2738 H 0.26229 0.78949 0.03533
 H2739 H 0.27814 0.81286 0.07934
 H2740 H 0.27538 0.80487 0.05511
 C2741 C 0.79330 0.29347 0.07852
 C2742 C 0.80726 0.28761 0.08429
 C2743 C 0.81316 0.29335 0.09812
 C2744 C 0.80523 0.30490 0.10630
 C2745 C 0.79144 0.31062 0.09999
 N2746 N 0.78587 0.30474 0.08658
 C2747 C 0.78550 0.28672 0.06489
 N2748 N 0.76996 0.28857 0.06366
 C2749 C 0.76154 0.28139 0.05262
 C2750 C 0.76871 0.27143 0.04209
 C2751 C 0.78478 0.26999 0.04248
 C2752 C 0.79327 0.27767 0.05384
 H2753 H 0.82383 0.28854 0.10242
 H2754 H 0.78486 0.31949 0.10579
 H2755 H 0.74913 0.28277 0.05258
 H2756 H 0.79064 0.26227 0.03457
 H2757 H 0.81336 0.27832 0.07859
 H2758 H 0.80563 0.27616 0.05413
 C2759 C 0.79401 0.79276 0.57890
 C2760 C 0.80782 0.78676 0.58491
 C2761 C 0.81366 0.79261 0.59873
 C2762 C 0.80581 0.80441 0.60665
 C2763 C 0.79216 0.81020 0.60012
 N2764 N 0.78665 0.80423 0.58674
 C2765 C 0.78627 0.78602 0.56524
 N2766 N 0.77078 0.78809 0.56383
 C2767 C 0.76237 0.78101 0.55270
 C2768 C 0.76953 0.77096 0.54226
 C2769 C 0.78558 0.76927 0.54285
 C2770 C 0.79403 0.77683 0.55431
 H2771 H 0.82421 0.78771 0.60323
 H2772 H 0.78563 0.81924 0.60571
 H2773 H 0.74998 0.78254 0.55254
 H2774 H 0.79140 0.76144 0.53503
 H2775 H 0.81384 0.77731 0.57939
 H2776 H 0.80637 0.77512 0.55477
 C2777 C 0.29371 0.70697 0.42041
 C2778 C 0.30758 0.71289 0.41446
 C2779 C 0.31341 0.70709 0.40061
 C2780 C 0.30551 0.69541 0.39260
 C2781 C 0.29181 0.68969 0.39907
 N2782 N 0.28630 0.69562 0.41249
 C2783 C 0.28599 0.71373 0.43409
 N2784 N 0.27049 0.71173 0.43552
 C2785 C 0.26210 0.71886 0.44664
 C2786 C 0.26927 0.72893 0.45704
 C2787 C 0.28532 0.73054 0.45645
 C2788 C 0.29377 0.72289 0.44501
 H2789 H 0.32401 0.71193 0.39617
 H2790 H 0.28524 0.68075 0.39340
 H2791 H 0.24971 0.71737 0.44683
 H2792 H 0.29116 0.73835 0.46424
 H2793 H 0.31365 0.72225 0.42003
 H2794 H 0.30611 0.72453 0.44456
 C2795 C 0.29329 0.20673 0.92093
 C2796 C 0.28720 0.19287 0.91506
 C2797 C 0.29292 0.18689 0.90123
 C2798 C 0.30468 0.19461 0.89315
 C2799 C 0.31055 0.20831 0.89955
 N2800 N 0.30472 0.21396 0.91295
 C2801 C 0.28677 0.21464 0.93465
 N2802 N 0.28946 0.23006 0.93624
 C2803 C 0.28269 0.23870 0.94742
 C2804 C 0.27229 0.23188 0.95775
 C2805 C 0.26996 0.21587 0.95699
 C2806 C 0.27722 0.20716 0.94548
 H2807 H 0.28798 0.17630 0.89684
 H2808 H 0.31956 0.21476 0.89384
 H2809 H 0.28475 0.25104 0.94771
 H2810 H 0.26185 0.21029 0.96469
 H2811 H 0.27780 0.18692 0.92068
 H2812 H 0.27499 0.19488 0.94492
 C2813 C 0.79379 0.70722 0.92098
 C2814 C 0.80765 0.71316 0.91504
 C2815 C 0.81352 0.70736 0.90121
 C2816 C 0.80566 0.69567 0.89319
 C2817 C 0.79196 0.68991 0.89965
 N2818 N 0.78641 0.69584 0.91306
 C2819 C 0.78605 0.71397 0.93466
 N2820 N 0.77054 0.71204 0.93606
 C2821 C 0.76216 0.71920 0.94719
 C2822 C 0.76937 0.72919 0.95762
 C2823 C 0.78542 0.73072 0.95706
 C2824 C 0.79385 0.72307 0.94561
 H2825 H 0.82412 0.71221 0.89679
 H2826 H 0.78543 0.68094 0.89398
 H2827 H 0.74976 0.71778 0.94735
 H2828 H 0.79129 0.73849 0.96488
 H2829 H 0.81369 0.72254 0.92061
 H2830 H 0.80620 0.72467 0.94518
 C2831 C 0.79295 0.20629 0.42159
 C2832 C 0.78710 0.19237 0.41568
 C2833 C 0.79294 0.18651 0.40186
 C2834 C 0.80460 0.19444 0.39384
 C2835 C 0.81030 0.20817 0.40031
 N2836 N 0.80432 0.21371 0.41369
 C2837 C 0.78611 0.21410 0.43518
 N2838 N 0.78810 0.22966 0.43651
 C2839 C 0.78092 0.23814 0.44753
 C2840 C 0.77083 0.23102 0.45795
 C2841 C 0.76922 0.21492 0.45747
 C2842 C 0.77689 0.20637 0.44611
 H2843 H 0.78814 0.17587 0.39743
 H2844 H 0.81925 0.21475 0.39465
 H2845 H 0.78243 0.25057 0.44764
 H2846 H 0.76140 0.20910 0.46530
 H2847 H 0.77774 0.18628 0.42124
 H2848 H 0.77524 0.19399 0.44573
 C2849 C 0.70734 0.29386 0.42125
 C2850 C 0.71333 0.30765 0.41511
 C2851 C 0.70750 0.31340 0.40123
 C2852 C 0.69571 0.30551 0.39341
 C2853 C 0.68993 0.29189 0.40007
 N2854 N 0.69589 0.28645 0.41349
 C2855 C 0.71409 0.28616 0.43494
 N2856 N 0.71186 0.27066 0.43653
 C2857 C 0.71893 0.26222 0.44767
 C2858 C 0.72915 0.26935 0.45792
 C2859 C 0.73102 0.28541 0.45717
 C2860 C 0.72344 0.29391 0.44571
 H2861 H 0.71240 0.32392 0.39662
 H2862 H 0.68092 0.28531 0.39454
 H2863 H 0.71725 0.24982 0.44798
 H2864 H 0.73896 0.29121 0.46486
 H2865 H 0.72277 0.31369 0.42054
 H2866 H 0.72527 0.30626 0.44512
 C2867 C 0.70711 0.79360 0.92123
 C2868 C 0.69313 0.78768 0.91559
 C2869 C 0.68711 0.79338 0.90178
 C2870 C 0.69492 0.80496 0.89352
 C2871 C 0.70871 0.81074 0.89972
 N2872 N 0.71441 0.80490 0.91310
 C2873 C 0.71506 0.78692 0.93481
 N2874 N 0.73059 0.78894 0.93594
 C2875 C 0.73918 0.78190 0.94697
 C2876 C 0.73219 0.77194 0.95761
 C2877 C 0.71613 0.77030 0.95731
 C2878 C 0.70749 0.77781 0.94594
 H2879 H 0.67643 0.78854 0.89755
 H2880 H 0.71520 0.81964 0.89386
 H2881 H 0.75157 0.78340 0.94691
 H2882 H 0.71043 0.76254 0.96529
 H2883 H 0.68712 0.77839 0.92136
 H2884 H 0.69514 0.77612 0.94571
 C2885 C 0.20610 0.29311 0.92165
 C2886 C 0.19226 0.28712 0.91575
 C2887 C 0.18635 0.29295 0.90194
 C2888 C 0.19415 0.30471 0.89392
 C2889 C 0.20778 0.31057 0.90040
 N2890 N 0.21336 0.30461 0.91377
 C2891 C 0.21404 0.28630 0.93519
 N2892 N 0.22944 0.28887 0.93665
 C2893 C 0.23813 0.28180 0.94758
 C2894 C 0.23139 0.27117 0.95774
 C2895 C 0.21541 0.26897 0.95716
 C2896 C 0.20664 0.27656 0.94592
 H2897 H 0.17578 0.28805 0.89751
 H2898 H 0.21426 0.31961 0.89475
 H2899 H 0.25044 0.28386 0.94781
 H2900 H 0.20987 0.26078 0.96483
 H2901 H 0.18628 0.27767 0.92130
 H2902 H 0.19437 0.27446 0.94547
 C2903 C 0.20673 0.79338 0.42087
 C2904 C 0.19274 0.78755 0.41516
 C2905 C 0.18679 0.79334 0.40136
 C2906 C 0.19469 0.80490 0.39315
 C2907 C 0.20848 0.81059 0.39942
 N2908 N 0.21412 0.80467 0.41279
 C2909 C 0.21460 0.78656 0.43442
 N2910 N 0.23015 0.78834 0.43554
 C2911 C 0.23864 0.78110 0.44652
 C2912 C 0.23151 0.77116 0.45710
 C2913 C 0.21544 0.76979 0.45684
 C2914 C 0.20689 0.77751 0.44553
 H2915 H 0.17609 0.78857 0.39710
 H2916 H 0.21504 0.81947 0.39361
 H2917 H 0.25105 0.78244 0.44648
 H2918 H 0.20963 0.76210 0.46481
 H2919 H 0.18668 0.77825 0.42087
 H2920 H 0.19452 0.77604 0.44532
 C2921 C 0.70681 0.70697 0.57864
 C2922 C 0.69288 0.71295 0.58441
 C2923 C 0.68688 0.70718 0.59822
 C2924 C 0.69467 0.69548 0.60634
 C2925 C 0.70841 0.68966 0.60001
 N2926 N 0.71407 0.69556 0.58665
 C2927 C 0.71478 0.71369 0.56509
 N2928 N 0.73029 0.71155 0.56392
 C2929 C 0.73891 0.71857 0.55290
 C2930 C 0.73198 0.72862 0.54231
 C2931 C 0.71593 0.73041 0.54266
 C2932 C 0.70725 0.72292 0.55403
 H2933 H 0.67626 0.71208 0.60256
 H2934 H 0.71490 0.68068 0.60576
 H2935 H 0.75130 0.71696 0.55292
 H2936 H 0.71028 0.73825 0.53472
 H2937 H 0.68691 0.72235 0.57874
 H2938 H 0.69491 0.72471 0.55430
 C2939 C 0.70640 0.20682 0.07831
 C2940 C 0.69250 0.21272 0.08421
 C2941 C 0.68665 0.20690 0.09804
 C2942 C 0.69455 0.19521 0.10608
 C2943 C 0.70824 0.18945 0.09961
 N2944 N 0.71378 0.19541 0.08622
 C2945 C 0.71422 0.21369 0.06475
 N2946 N 0.72976 0.21181 0.06352
 C2947 C 0.73823 0.21907 0.05254
 C2948 C 0.73110 0.22913 0.04208
 C2949 C 0.71503 0.23063 0.04247
 C2950 C 0.70651 0.22287 0.05377
 H2951 H 0.67604 0.21175 0.10247
 H2952 H 0.71480 0.18047 0.10528
 H2953 H 0.75063 0.21765 0.05250
 H2954 H 0.70922 0.23844 0.03461
 H2955 H 0.68645 0.22212 0.07863
 H2956 H 0.69414 0.22443 0.05408
 C2957 C 0.20656 0.70682 0.07854
 C2958 C 0.19268 0.71280 0.08440
 C2959 C 0.18673 0.70699 0.09821
 C2960 C 0.19453 0.69524 0.10626
 C2961 C 0.20821 0.68941 0.09984
 N2962 N 0.21383 0.69535 0.08647
 C2963 C 0.21451 0.71358 0.06497
 N2964 N 0.22992 0.71099 0.06351
 C2965 C 0.23860 0.71800 0.05254
 C2966 C 0.23186 0.72860 0.04233
 C2967 C 0.21587 0.73081 0.04292
 C2968 C 0.20711 0.72327 0.05421
 H2969 H 0.17613 0.71188 0.10260
 H2970 H 0.21470 0.68039 0.10552
 H2971 H 0.25091 0.71594 0.05232
 H2972 H 0.21033 0.73897 0.03523
 H2973 H 0.18668 0.72222 0.07880
 H2974 H 0.19483 0.72538 0.05465
 C2975 C 0.20645 0.20682 0.57937
 C2976 C 0.19254 0.21272 0.58527
 C2977 C 0.18667 0.20689 0.59910
 C2978 C 0.19456 0.19519 0.60714
 C2979 C 0.20829 0.18947 0.60071
 N2980 N 0.21384 0.19543 0.58732
 C2981 C 0.21422 0.21360 0.56572
 N2982 N 0.22973 0.21160 0.56436
 C2983 C 0.23816 0.21873 0.55326
 C2984 C 0.23102 0.22879 0.54279
 C2985 C 0.21496 0.23039 0.54332
 C2986 C 0.20648 0.22276 0.55475
 H2987 H 0.17604 0.21171 0.60350
 H2988 H 0.21485 0.18050 0.60640
 H2989 H 0.25056 0.21723 0.55312
 H2990 H 0.20914 0.23820 0.53546
 H2991 H 0.18648 0.22210 0.57967
 H2992 H 0.19413 0.22441 0.55515
   
