data_POSCAR
  _audit_creation_date              2014-09-24
  _audit_creation_method            'ToBaCCo'
  _symmetry_space_group_name_H-M    'P1'
  _symmetry_Int_Tables_number       1
  _symmetry_cell_setting            triclinic
  loop_
  _symmetry_equiv_pos_as_xyz
 x,y,z
_cell_length_a 64.2106
_cell_length_b 64.2682
_cell_length_c 64.2138
_cell_angle_alpha 89.982300
_cell_angle_beta 90.040400
_cell_angle_gamma 89.969300
loop_
  _atom_site_label
  _atom_site_type_symbol
  _atom_site_fract_x
  _atom_site_fract_y
  _atom_site_fract_z
C1 C 0.13261 -0.03015 0.25393
 C2 C 0.12444 -0.01028 0.25809
 C3 C 0.11593 -0.00609 0.27782
 C4 C 0.11546 -0.02161 0.29313
 C5 C 0.12380 -0.04128 0.28893
 C6 C 0.13247 -0.04556 0.26939
 C7 C 0.12490 0.00611 0.24192
 C8 C 0.11684 0.00220 0.22194
 C9 C 0.11710 0.01784 0.20670
 C10 C 0.12578 0.03730 0.21129
 C11 C 0.13401 0.04123 0.23109
 C12 C 0.13340 0.02575 0.24643
 H13 H 0.13944 -0.03341 0.23883
 H14 H 0.10941 0.00912 0.28112
 H15 H 0.11004 -0.01285 0.21843
 H16 H 0.13986 0.02883 0.26172
 H17 H 0.12356 -0.05321 0.30090
 H18 H 0.12614 0.04940 0.19950
 C19 C 0.36715 -0.02621 0.74706
 C20 C 0.37519 -0.00635 0.74265
 C21 C 0.38334 -0.00222 0.72277
 C22 C 0.38360 -0.01781 0.70754
 C23 C 0.37540 -0.03748 0.71199
 C24 C 0.36710 -0.04167 0.73169
 C25 C 0.37500 0.01008 0.75875
 C26 C 0.38327 0.00617 0.77864
 C27 C 0.38325 0.02185 0.79382
 C28 C 0.37462 0.04134 0.78927
 C29 C 0.36620 0.04527 0.76956
 C30 C 0.36654 0.02974 0.75427
 H31 H 0.36059 -0.02947 0.76226
 H32 H 0.38979 0.01298 0.71929
 H33 H 0.39004 -0.00890 0.78212
 H34 H 0.35990 0.03282 0.73905
 H35 H 0.37546 -0.04950 0.70013
 H36 H 0.37446 0.05347 0.80103
 C37 C 0.86679 0.47337 0.24784
 C38 C 0.87489 0.49320 0.24343
 C39 C 0.88316 0.49727 0.22358
 C40 C 0.88347 0.48165 0.20840
 C41 C 0.87523 0.46200 0.21285
 C42 C 0.86681 0.45787 0.23251
 C43 C 0.87466 0.50966 0.25949
 C44 C 0.88278 0.50576 0.27944
 C45 C 0.88277 0.52146 0.29458
 C46 C 0.87430 0.54101 0.28994
 C47 C 0.86602 0.54494 0.27016
 C48 C 0.86635 0.52938 0.25492
 H49 H 0.86014 0.47015 0.26301
 H50 H 0.88965 0.51245 0.22010
 H51 H 0.88945 0.49065 0.28300
 H52 H 0.85983 0.53247 0.23965
 H53 H 0.87533 0.44995 0.20102
 H54 H 0.87415 0.55317 0.30167
 C55 C 0.63364 0.47129 0.75404
 C56 C 0.62569 0.49114 0.75865
 C57 C 0.61744 0.49506 0.77855
 C58 C 0.61698 0.47925 0.79356
 C59 C 0.62507 0.45957 0.78889
 C60 C 0.63348 0.45560 0.76919
 C61 C 0.62600 0.50775 0.74270
 C62 C 0.61793 0.50400 0.72270
 C63 C 0.61812 0.51974 0.70761
 C64 C 0.62670 0.53919 0.71233
 C65 C 0.63494 0.54301 0.73216
 C66 C 0.63443 0.52739 0.74737
 H67 H 0.64026 0.46818 0.73883
 H68 H 0.61106 0.51025 0.78218
 H69 H 0.61119 0.48898 0.71901
 H70 H 0.64092 0.53036 0.76267
 H71 H 0.62484 0.44738 0.80057
 H72 H 0.62698 0.55133 0.70060
 C73 C 0.24670 0.13163 1.02815
 C74 C 0.24208 0.12351 1.00836
 C75 C 0.22221 0.11518 1.00451
 C76 C 0.20720 0.11479 1.02035
 C77 C 0.21189 0.12307 1.03997
 C78 C 0.23157 0.13157 1.04385
 C79 C 0.25800 0.12381 0.99173
 C80 C 0.27799 0.11569 0.99545
 C81 C 0.29307 0.11594 0.97969
 C82 C 0.28832 0.12464 0.96025
 C83 C 0.26850 0.13291 0.95649
 C84 C 0.25331 0.13233 0.97212
 H85 H 0.26189 0.13832 1.03119
 H86 H 0.21862 0.10870 0.98933
 H87 H 0.28164 0.10890 1.01049
 H88 H 0.23802 0.13887 0.96919
 H89 H 0.20025 0.12295 1.05222
 H90 H 0.30001 0.12501 0.94806
 C91 C 0.75197 0.36645 1.02707
 C92 C 0.75620 0.37465 1.00723
 C93 C 0.77597 0.38305 1.00307
 C94 C 0.79126 0.38341 1.01862
 C95 C 0.78701 0.37505 1.03829
 C96 C 0.76741 0.36648 1.04252
 C97 C 0.74005 0.37437 0.99082
 C98 C 0.72013 0.38255 0.99475
 C99 C 0.70493 0.38253 0.97907
 C100 C 0.70947 0.37396 0.95953
 C101 C 0.72921 0.36561 0.95558
 C102 C 0.74452 0.36597 0.97112
 H103 H 0.73682 0.35972 1.03030
 H104 H 0.77931 0.38960 0.98787
 H105 H 0.71667 0.38928 1.00984
 H106 H 0.75977 0.35942 0.96801
 H107 H 0.79896 0.37522 1.05024
 H108 H 0.69770 0.37379 0.94740
 C109 C 0.25278 0.86716 0.52587
 C110 C 0.25699 0.87532 0.50600
 C111 C 0.27681 0.88356 0.50175
 C112 C 0.29219 0.88381 0.51726
 C113 C 0.28791 0.87549 0.53696
 C114 C 0.26826 0.86709 0.54125
 C115 C 0.24068 0.87526 0.48972
 C116 C 0.22082 0.88342 0.49396
 C117 C 0.20542 0.88352 0.47850
 C118 C 0.20968 0.87513 0.45885
 C119 C 0.22936 0.86681 0.45455
 C120 C 0.24489 0.86703 0.46988
 H121 H 0.23762 0.86056 0.52923
 H122 H 0.28009 0.89010 0.48652
 H123 H 0.21749 0.89003 0.50914
 H124 H 0.26008 0.86047 0.46653
 H125 H 0.29981 0.87553 0.54896
 H126 H 0.19771 0.87508 0.44693
 C127 C 0.74744 0.63287 0.52901
 C128 C 0.74277 0.62476 0.50923
 C129 C 0.72288 0.61644 0.50545
 C130 C 0.70793 0.61606 0.52132
 C131 C 0.71266 0.62433 0.54092
 C132 C 0.73236 0.63281 0.54476
 C133 C 0.75864 0.62498 0.49256
 C134 C 0.77862 0.61683 0.49626
 C135 C 0.79364 0.61692 0.48044
 C136 C 0.78885 0.62550 0.46096
 C137 C 0.76904 0.63381 0.45722
 C138 C 0.75391 0.63338 0.47291
 H139 H 0.76266 0.63954 0.53202
 H140 H 0.71919 0.60994 0.49031
 H141 H 0.78230 0.61011 0.51132
 H142 H 0.73862 0.63993 0.46999
 H143 H 0.70103 0.62417 0.55316
 H144 H 0.80049 0.62574 0.44872
 C145 C -0.02704 0.25264 0.13153
 C146 C -0.00721 0.25691 0.12334
 C147 C -0.00304 0.27670 0.11501
 C148 C -0.01861 0.29200 0.11472
 C149 C -0.03828 0.28767 0.12309
 C150 C -0.04247 0.26805 0.13157
 C151 C 0.00918 0.24075 0.12362
 C152 C 0.00519 0.22085 0.11545
 C153 C 0.02079 0.20557 0.11564
 C154 C 0.04029 0.21003 0.12434
 C155 C 0.04430 0.22974 0.13267
 C156 C 0.02886 0.24513 0.13214
 H157 H -0.03031 0.23751 0.13823
 H158 H 0.01217 0.28003 0.10849
 H159 H -0.00989 0.21744 0.10865
 H160 H 0.03199 0.26035 0.13871
 H161 H -0.05031 0.29953 0.12306
 H162 H 0.05235 0.19819 0.12466
 C163 C -0.02806 0.74734 0.36747
 C164 C -0.00823 0.74277 0.37556
 C165 C -0.00422 0.72281 0.38360
 C166 C -0.01993 0.70768 0.38371
 C167 C -0.03957 0.71231 0.37546
 C168 C -0.04363 0.73208 0.36726
 C169 C 0.00825 0.75884 0.37560
 C170 C 0.00429 0.77867 0.38396
 C171 C 0.01991 0.79388 0.38402
 C172 C 0.03943 0.78947 0.37541
 C173 C 0.04346 0.76983 0.36689
 C174 C 0.02797 0.75448 0.36715
 H175 H -0.03123 0.76260 0.36101
 H176 H 0.01095 0.71921 0.39009
 H177 H -0.01080 0.78212 0.39070
 H178 H 0.03111 0.73933 0.36042
 H179 H -0.05168 0.70055 0.37542
 H180 H 0.05146 0.80131 0.37530
 C181 C 0.47129 0.24702 0.86760
 C182 C 0.49106 0.24235 0.87576
 C183 C 0.49490 0.22240 0.88391
 C184 C 0.47909 0.20737 0.88405
 C185 C 0.45949 0.21212 0.87571
 C186 C 0.45561 0.23188 0.86741
 C187 C 0.50770 0.25825 0.87571
 C188 C 0.50397 0.27815 0.88399
 C189 C 0.51979 0.29318 0.88404
 C190 C 0.53929 0.28847 0.87547
 C191 C 0.54306 0.26874 0.86703
 C192 C 0.52737 0.25361 0.86731
 H193 H 0.46825 0.26228 0.86105
 H194 H 0.51006 0.21876 0.89043
 H195 H 0.48889 0.28176 0.89070
 H196 H 0.53031 0.23839 0.86065
 H197 H 0.44726 0.20046 0.87564
 H198 H 0.55153 0.30011 0.87534
 C199 C 0.47404 0.75248 0.63347
 C200 C 0.49391 0.75685 0.62543
 C201 C 0.49798 0.77662 0.61700
 C202 C 0.48230 0.79176 0.61645
 C203 C 0.46260 0.78734 0.62465
 C204 C 0.45848 0.76776 0.63323
 C205 C 0.51039 0.74079 0.62579
 C206 C 0.50649 0.72084 0.61773
 C207 C 0.52219 0.70570 0.61784
 C208 C 0.54173 0.71031 0.62633
 C209 C 0.54568 0.73008 0.63454
 C210 C 0.53011 0.74535 0.63412
 H211 H 0.47082 0.73736 0.64022
 H212 H 0.51319 0.78006 0.61053
 H213 H 0.49141 0.71725 0.61103
 H214 H 0.53321 0.76063 0.64058
 H215 H 0.45051 0.79913 0.62435
 H216 H 0.55384 0.69853 0.62652
 C217 C 0.86791 1.02706 0.75443
 C218 C 0.87706 1.00770 0.75876
 C219 C 0.88593 1.00411 0.77842
 C220 C 0.88586 1.01981 0.79356
 C221 C 0.87648 1.03905 0.78921
 C222 C 0.86741 1.04262 0.76967
 C223 C 0.87734 0.99123 0.74276
 C224 C 0.88605 0.99512 0.72310
 C225 C 0.88648 0.97943 0.70795
 C226 C 0.87777 0.95990 0.71230
 C227 C 0.86886 0.95601 0.73184
 C228 C 0.86886 0.97158 0.74709
 H229 H 0.86087 1.02985 0.73933
 H230 H 0.89318 0.98922 0.78175
 H231 H 0.89278 1.01024 0.71977
 H232 H 0.86192 0.96855 0.76218
 H233 H 0.87622 1.05119 0.80094
 H234 H 0.87788 0.94776 0.70056
 C235 C 0.36594 0.52626 0.25454
 C236 C 0.37500 0.50681 0.25870
 C237 C 0.38405 0.50308 0.27825
 C238 C 0.38425 0.51872 0.29343
 C239 C 0.37498 0.53802 0.28927
 C240 C 0.36572 0.54175 0.26986
 C241 C 0.37504 0.49041 0.24263
 C242 C 0.38373 0.49430 0.22296
 C243 C 0.38403 0.47865 0.20779
 C244 C 0.37521 0.45918 0.21209
 C245 C 0.36631 0.45529 0.23163
 C246 C 0.36644 0.47081 0.24693
 H247 H 0.35876 0.52917 0.23952
 H248 H 0.39125 0.48816 0.28149
 H249 H 0.39058 0.50935 0.21962
 H250 H 0.35954 0.46777 0.26203
 H251 H 0.37497 0.55008 0.30108
 H252 H 0.37528 0.44711 0.20029
 C253 C 0.63266 1.02915 0.24679
 C254 C 0.62381 1.00963 0.24263
 C255 C 0.61500 1.00575 0.22300
 C256 C 0.61486 1.02131 0.20774
 C257 C 0.62391 1.04070 0.21191
 C258 C 0.63292 1.04458 0.23140
 C259 C 0.62379 0.99329 0.25877
 C260 C 0.61517 0.99726 0.27845
 C261 C 0.61500 0.98170 0.29373
 C262 C 0.62387 0.96221 0.28950
 C263 C 0.63269 0.95825 0.26994
 C264 C 0.63244 0.97368 0.25455
 H265 H 0.63968 1.03217 0.26186
 H266 H 0.60797 0.99076 0.21975
 H267 H 0.60831 1.01235 0.28168
 H268 H 0.63931 0.97059 0.23944
 H269 H 0.62397 1.05270 0.20003
 H270 H 0.62393 0.95016 0.30134
 C271 C 0.13323 0.52954 0.74671
 C272 C 0.12433 0.51005 0.74253
 C273 C 0.11553 0.50620 0.72290
 C274 C 0.11543 0.52177 0.70765
 C275 C 0.12453 0.54114 0.71183
 C276 C 0.13353 0.54498 0.73133
 C277 C 0.12419 0.49371 0.75866
 C278 C 0.11540 0.49769 0.77826
 C279 C 0.11498 0.48209 0.79347
 C280 C 0.12377 0.46257 0.78931
 C281 C 0.13276 0.45859 0.76983
 C282 C 0.13277 0.47407 0.75448
 H283 H 0.14022 0.53254 0.76179
 H284 H 0.10846 0.49124 0.71964
 H285 H 0.10856 0.51277 0.78150
 H286 H 0.13974 0.47096 0.73942
 H287 H 0.12461 0.55315 0.69996
 H288 H 0.12360 0.45054 0.80115
 C289 C 0.74719 0.86772 -0.02691
 C290 C 0.74267 0.87685 -0.00759
 C291 C 0.72303 0.88583 -0.00425
 C292 C 0.70811 0.88589 -0.02016
 C293 C 0.71262 0.87655 -0.03936
 C294 C 0.73214 0.86736 -0.04269
 C295 C 0.75847 0.87705 0.00910
 C296 C 0.77819 0.88572 0.00546
 C297 C 0.79314 0.88612 0.02135
 C298 C 0.78855 0.87743 0.04085
 C299 C 0.76895 0.86856 0.04448
 C300 C 0.75388 0.86858 0.02871
 H301 H 0.76228 0.86059 -0.02952
 H302 H 0.71952 0.89308 0.01059
 H303 H 0.78171 0.89244 -0.00964
 H304 H 0.73874 0.86168 0.03155
 H305 H 0.70101 0.87644 -0.05163
 H306 H 0.80015 0.87752 0.05315
 C307 C 0.24633 0.36654 0.47237
 C308 C 0.24187 0.37568 0.49171
 C309 C 0.22221 0.38459 0.49513
 C310 C 0.20721 0.38457 0.47929
 C311 C 0.21166 0.37523 0.46009
 C312 C 0.23119 0.36611 0.45666
 C313 C 0.25771 0.37592 0.50836
 C314 C 0.27744 0.38453 0.50465
 C315 C 0.29238 0.38504 0.52055
 C316 C 0.28779 0.37651 0.54010
 C317 C 0.26819 0.36769 0.54381
 C318 C 0.25312 0.36760 0.52804
 H319 H 0.26142 0.35946 0.46970
 H320 H 0.21873 0.39184 0.50997
 H321 H 0.28101 0.39117 0.48955
 H322 H 0.23797 0.36074 0.53094
 H323 H 0.19998 0.37505 0.44788
 H324 H 0.29941 0.37673 0.55235
 C325 C 0.25236 0.63248 -0.02959
 C326 C 0.25639 0.62357 -0.01004
 C327 C 0.27597 0.61469 -0.00606
 C328 C 0.29130 0.61450 -0.02156
 C329 C 0.28726 0.62362 -0.04097
 C330 C 0.26782 0.63272 -0.04495
 C331 C 0.24017 0.62357 0.00620
 C332 C 0.22058 0.61477 0.00216
 C333 C 0.20519 0.61462 0.01763
 C334 C 0.20923 0.62370 0.03707
 C335 C 0.22870 0.63269 0.04110
 C336 C 0.24419 0.63242 0.02577
 H337 H 0.23733 0.63955 -0.03269
 H338 H 0.27912 0.60762 0.00895
 H339 H 0.21749 0.60776 -0.01290
 H340 H 0.25923 0.63942 0.02891
 H341 H 0.29919 0.62366 -0.05292
 H342 H 0.19731 0.62378 0.04903
 C343 C 0.75311 0.13308 0.47109
 C344 C 0.75727 0.12412 0.49059
 C345 C 0.77693 0.11540 0.49449
 C346 C 0.79225 0.11544 0.47897
 C347 C 0.78808 0.12462 0.45959
 C348 C 0.76853 0.13353 0.45570
 C349 C 0.74109 0.12385 0.50690
 C350 C 0.72150 0.11509 0.50281
 C351 C 0.70625 0.11455 0.51838
 C352 C 0.71039 0.12318 0.53799
 C353 C 0.72986 0.13215 0.54208
 C354 C 0.74523 0.13228 0.52663
 H355 H 0.73800 0.14001 0.46805
 H356 H 0.78013 0.10830 0.50949
 H357 H 0.71828 0.10837 0.48766
 H358 H 0.76028 0.13924 0.52982
 H359 H 0.79995 0.12484 0.44758
 H360 H 0.69853 0.12292 0.55001
 C361 C 1.02990 0.75329 0.86857
 C362 C 1.01044 0.75734 0.87765
 C363 C 1.00658 0.77688 0.88659
 C364 C 1.02210 0.79220 0.88665
 C365 C 1.04143 0.78814 0.87735
 C366 C 1.04528 0.76871 0.86822
 C367 C 0.99411 0.74120 0.87766
 C368 C 0.99814 0.72147 0.88613
 C369 C 0.98257 0.70620 0.88628
 C370 C 0.96301 0.71051 0.87752
 C371 C 0.95900 0.73011 0.86885
 C372 C 0.97444 0.74548 0.86912
 H373 H 1.03290 0.73829 0.86144
 H374 H 0.99160 0.78000 0.89376
 H375 H 1.01328 0.71818 0.89290
 H376 H 0.97131 0.76062 0.86236
 H377 H 1.05343 0.80002 0.87717
 H378 H 0.95096 0.69868 0.87743
 C379 C 0.52903 0.25297 0.36689
 C380 C 0.50948 0.25722 0.37570
 C381 C 0.50572 0.27679 0.38464
 C382 C 0.52142 0.29189 0.38498
 C383 C 0.54083 0.28764 0.37598
 C384 C 0.54460 0.26821 0.36684
 C385 C 0.49303 0.24120 0.37564
 C386 C 0.49698 0.22142 0.38405
 C387 C 0.48132 0.20628 0.38425
 C388 C 0.46175 0.21071 0.37565
 C389 C 0.45779 0.23036 0.36705
 C390 C 0.47334 0.24563 0.36724
 H391 H 0.53197 0.23795 0.35979
 H392 H 0.49072 0.28010 0.39165
 H393 H 0.51209 0.21797 0.39075
 H394 H 0.47025 0.26081 0.36055
 H395 H 0.55294 0.29940 0.37608
 H396 H 0.44967 0.19892 0.37565
 C397 C 1.02680 0.24729 0.63237
 C398 C 1.00734 0.24293 0.62342
 C399 C 1.00373 0.22331 0.61453
 C400 C 1.01952 0.20825 0.61437
 C401 C 1.03885 0.21263 0.62354
 C402 C 1.04245 0.23212 0.63264
 C403 C 0.99077 0.25885 0.62337
 C404 C 0.99447 0.27853 0.61465
 C405 C 0.97867 0.29358 0.61438
 C406 C 0.95923 0.28912 0.62326
 C407 C 0.95555 0.26956 0.63219
 C408 C 0.97122 0.25440 0.63204
 H409 H 1.02961 0.26236 0.63944
 H410 H 0.98876 0.21996 0.60744
 H411 H 1.00952 0.28193 0.60778
 H412 H 0.96834 0.23929 0.63897
 H413 H 1.05106 0.20095 0.62363
 H414 H 0.94701 0.30079 0.62326
 C415 C 0.52758 0.74637 0.13246
 C416 C 0.50811 0.74210 0.12350
 C417 C 0.50437 0.72244 0.11474
 C418 C 0.52003 0.70727 0.11473
 C419 C 0.53937 0.71155 0.12390
 C420 C 0.54311 0.73107 0.13287
 C421 C 0.49171 0.75818 0.12327
 C422 C 0.49563 0.77773 0.11434
 C423 C 0.48005 0.79297 0.11401
 C424 C 0.46060 0.78888 0.12302
 C425 C 0.45668 0.76947 0.13215
 C426 C 0.47213 0.75408 0.13206
 H427 H 0.53050 0.76146 0.13942
 H428 H 0.48941 0.71912 0.10763
 H429 H 0.51067 0.78093 0.10738
 H430 H 0.46908 0.73908 0.13917
 H431 H 0.55145 0.69975 0.12406
 H432 H 0.44860 0.80075 0.12295
 O433 O -0.01494 0.99089 0.94159
 O434 O 0.01806 1.00495 0.93882
 O435 O -0.00669 0.94035 0.98518
 O436 O 0.00372 0.93616 1.01794
 O437 O -0.05817 0.98386 0.99273
 O438 O -0.06047 1.01838 1.00578
 O439 O 0.04625 0.99582 1.04132
 O440 O 0.04992 0.96494 1.02318
 O441 O 0.04228 1.04369 0.99756
 O442 O 0.02125 1.04986 0.96612
 O443 O -0.00174 1.04049 1.04515
 O444 O -0.03297 1.01957 1.05155
 O445 O 0.01754 1.00809 1.05803
 O446 O -0.01855 0.99374 1.06144
 O447 O 0.01003 1.05714 1.01630
 O448 O -0.00466 1.05990 0.98035
 O449 O 0.05878 1.01505 1.01012
 O450 O 0.06029 0.98135 0.99114
 O451 O -0.04348 1.00338 0.95847
 O452 O -0.04928 1.03367 0.97954
 O453 O -0.04143 0.95500 1.00445
 O454 O -0.01985 0.95079 1.03600
 O455 O 0.00423 0.95718 0.95605
 O456 O 0.03636 0.97805 0.95284
 Zr457 Zr 0.00754 0.98839 0.96533
 O458 O 0.02735 1.00754 0.98313
 Zr459 Zr -0.01012 0.96412 1.00747
 O460 O 0.00931 0.98192 1.02696
 Zr461 Zr -0.03437 1.00620 0.98986
 O462 O -0.01633 1.02592 1.00889
 Zr463 Zr 0.03573 0.99190 1.01058
 O464 O 0.01764 0.97175 0.99180
 Zr465 Zr 0.01122 1.03403 0.99323
 O466 O -0.00795 1.01615 0.97332
 Zr467 Zr -0.00610 1.00953 1.03532
 O468 O -0.02652 0.99061 1.01759
 O469 O -0.01958 0.97907 0.98041
 O470 O 0.02094 1.01910 1.02030
 C471 C -0.03386 0.99755 0.94189
 C472 C -0.00084 0.94060 0.96603
 C473 C -0.05798 0.96486 0.99901
 C474 C 0.03676 1.00243 1.05768
 C475 C 0.05854 1.03420 1.00440
 C476 C 0.00465 1.05683 1.03555
 H477 H 0.03980 1.01117 0.97484
 H478 H -0.02466 1.03829 1.01268
 H479 H -0.02852 0.97017 0.97155
 H480 H 0.01334 0.97356 1.03925
 H481 H 0.04703 0.95346 1.01332
 H482 H 0.01669 0.94007 1.02524
 H483 H -0.01688 1.06285 0.98924
 H484 H -0.03962 1.04043 0.96961
 H485 H 0.07348 0.98242 0.99911
 H486 H 0.03376 0.97118 0.93925
 H487 H -0.03944 1.03090 1.04336
 H488 H -0.06045 1.01191 1.01978
 H489 H 0.01193 1.01906 0.93966
 H490 H 0.03285 1.04180 0.95997
 H491 H -0.03122 0.95965 1.04144
 H492 H -0.00966 0.98148 1.06423
 O493 O 0.48516 0.49102 0.44192
 O494 O 0.51811 0.50529 0.43918
 O495 O 0.49354 0.44043 0.48528
 O496 O 0.50404 0.43611 0.51800
 O497 O 0.44200 0.48375 0.49302
 O498 O 0.43959 0.51821 0.50623
 O499 O 0.54644 0.49594 0.54157
 O500 O 0.55017 0.46505 0.52338
 O501 O 0.54225 0.54386 0.49805
 O502 O 0.52117 0.55009 0.46664
 O503 O 0.49833 0.54028 0.54567
 O504 O 0.46712 0.51927 0.55199
 O505 O 0.51768 0.50799 0.55836
 O506 O 0.48164 0.49342 0.56175
 O507 O 0.51005 0.55710 0.51690
 O508 O 0.49523 0.56000 0.48097
 O509 O 0.55886 0.51522 0.51045
 O510 O 0.56044 0.48156 0.49136
 O511 O 0.45659 0.50338 0.45887
 O512 O 0.45075 0.53364 0.48002
 O513 O 0.45882 0.45489 0.50463
 O514 O 0.48045 0.45062 0.53617
 O515 O 0.50443 0.45741 0.45622
 O516 O 0.53652 0.47838 0.45308
 Zr517 Zr 0.50768 0.48858 0.46563
 O518 O 0.52743 0.50772 0.48348
 Zr519 Zr 0.49011 0.46408 0.50768
 O520 O 0.50951 0.48186 0.52723
 Zr521 Zr 0.46572 0.50617 0.49025
 O522 O 0.48371 0.52586 0.50935
 Zr523 Zr 0.53588 0.49199 0.51086
 O524 O 0.51784 0.47185 0.49202
 Zr525 Zr 0.51122 0.53412 0.49370
 O526 O 0.49209 0.51626 0.47373
 Zr527 Zr 0.49400 0.50938 0.53569
 O528 O 0.47363 0.49048 0.51790
 O529 O 0.48060 0.47912 0.48070
 O530 O 0.52100 0.51909 0.52069
 C531 C 0.46621 0.49757 0.44227
 C532 C 0.49937 0.44078 0.46612
 C533 C 0.44224 0.46472 0.49920
 C534 C 0.53694 0.50248 0.55795
 C535 C 0.55855 0.53440 0.50484
 C536 C 0.50473 0.55666 0.53616
 H537 H 0.53987 0.51143 0.47520
 H538 H 0.47535 0.53819 0.51321
 H539 H 0.47168 0.47023 0.47181
 H540 H 0.51358 0.47347 0.53948
 H541 H 0.54731 0.45358 0.51350
 H542 H 0.51700 0.44003 0.52532
 H543 H 0.48304 0.56289 0.48992
 H544 H 0.46038 0.54044 0.47009
 H545 H 0.57364 0.48265 0.49931
 H546 H 0.53392 0.47156 0.43945
 H547 H 0.46064 0.53065 0.54387
 H548 H 0.43965 0.51169 0.52020
 H549 H 0.51188 0.51935 0.44005
 H550 H 0.53277 0.54208 0.46044
 H551 H 0.46903 0.45941 0.54165
 H552 H 0.49062 0.48122 0.56453
 O553 O 0.45759 -0.04606 0.49585
 O554 O 0.47688 -0.05063 0.46544
 O555 O 0.50351 -0.04262 0.54414
 O556 O 0.53147 -0.02338 0.55168
 O557 O 0.45428 0.00307 0.54104
 O558 O 0.44878 0.03328 0.52008
 O559 O 0.55786 0.01409 0.49052
 O560 O 0.56064 -0.01801 0.50597
 O561 O 0.51521 0.00768 0.44120
 O562 O 0.47982 -0.00589 0.43791
 O563 O 0.50809 0.05713 0.48341
 O564 O 0.49486 0.06059 0.51857
 O565 O 0.54093 0.04294 0.50211
 O566 O 0.51933 0.04917 0.53394
 O567 O 0.49615 0.04033 0.45470
 O568 O 0.46448 0.01875 0.44900
 O569 O 0.54413 -0.00350 0.45824
 O570 O 0.54575 -0.03696 0.47744
 O571 O 0.44079 -0.01697 0.50712
 O572 O 0.43806 0.01787 0.49347
 O573 O 0.48305 -0.00882 0.55786
 O574 O 0.51832 0.00635 0.55955
 O575 O 0.49094 -0.05933 0.51559
 O576 O 0.50734 -0.06068 0.48079
 Zr577 Zr 0.48866 -0.03610 0.49261
 O578 O 0.50751 -0.01814 0.47273
 Zr579 Zr 0.50597 -0.01137 0.53464
 O580 O 0.52587 0.00726 0.51651
 Zr581 Zr 0.46404 0.00598 0.50986
 O582 O 0.48204 0.02573 0.49089
 Zr583 Zr 0.53408 -0.00828 0.48899
 O584 O 0.51633 -0.02811 0.50844
 Zr585 Zr 0.49210 0.00939 0.46441
 O586 O 0.47212 -0.00972 0.48231
 Zr587 Zr 0.50971 0.03382 0.50639
 O588 O 0.49031 0.01626 0.52652
 O589 O 0.47908 -0.02091 0.51953
 O590 O 0.51932 0.01898 0.47923
 C591 C 0.44107 -0.03619 0.50145
 C592 C 0.49730 -0.05908 0.53458
 C593 C 0.46397 -0.00278 0.55757
 C594 C 0.55746 0.03329 0.49619
 C595 C 0.53449 0.00230 0.44169
 C596 C 0.50227 0.05678 0.46426
 H597 H 0.51137 -0.02655 0.46042
 H598 H 0.47367 0.03810 0.48720
 H599 H 0.47019 -0.02978 0.52846
 H600 H 0.53838 0.01082 0.52476
 H601 H 0.55662 -0.03089 0.51342
 H602 H 0.54424 -0.01907 0.54425
 H603 H 0.45876 0.03090 0.45653
 H604 H 0.43772 0.01060 0.47988
 H605 H 0.55995 -0.03449 0.47189
 H606 H 0.49998 -0.07407 0.48308
 H607 H 0.48128 0.06203 0.51146
 H608 H 0.45839 0.04020 0.52995
 H609 H 0.46750 -0.04047 0.45862
 H610 H 0.48748 -0.01913 0.43617
 H611 H 0.50962 0.01901 0.56078
 H612 H 0.53162 0.04171 0.53948
 O613 O -0.04602 0.50299 1.04194
 O614 O -0.05050 0.53351 1.02284
 O615 O -0.04287 0.45501 0.99579
 O616 O -0.02371 0.44772 0.96764
 O617 O 0.00288 0.45746 1.04493
 O618 O 0.03325 0.47817 1.05055
 O619 O 0.01419 0.50882 0.94177
 O620 O -0.01800 0.49355 0.93883
 O621 O 0.00798 0.55773 0.98477
 O622 O -0.00560 0.56076 1.02022
 O623 O 0.05728 0.51522 0.99156
 O624 O 0.06050 0.47987 1.00461
 O625 O 0.04300 0.49693 0.95862
 O626 O 0.04913 0.46493 0.97988
 O627 O 0.04059 0.54390 1.00366
 O628 O 0.01907 0.54944 1.03542
 O629 O -0.00331 0.54103 0.95573
 O630 O -0.03688 0.52200 0.95394
 O631 O -0.01698 0.49140 1.05866
 O632 O 0.01797 0.50473 1.06151
 O633 O -0.00909 0.44095 1.01603
 O634 O 0.00605 0.43949 0.98076
 O635 O -0.05943 0.48356 1.00853
 O636 O -0.06062 0.51843 0.99229
 Zr637 Zr -0.03608 0.50638 1.01090
 O638 O -0.01801 0.52631 0.99221
 Zr639 Zr -0.01154 0.46438 0.99330
 O640 O 0.00720 0.48257 0.97354
 Zr641 Zr 0.00597 0.48868 1.03540
 O642 O 0.02582 0.50769 1.01756
 Zr643 Zr -0.00821 0.51023 0.96553
 O644 O -0.02817 0.49075 0.98312
 Zr645 Zr 0.00958 0.53433 1.00770
 O646 O -0.00962 0.51637 1.02753
 Zr647 Zr 0.03384 0.49239 0.98979
 O648 O 0.01616 0.47220 1.00900
 O649 O -0.02100 0.47931 1.02030
 O650 O 0.01910 0.51970 0.98038
 C651 C -0.03617 0.49721 1.05842
 C652 C -0.05928 0.46462 1.00210
 C653 C -0.00306 0.44106 1.03512
 C654 C 0.03338 0.50306 0.94214
 C655 C 0.00258 0.55745 0.96548
 C656 C 0.05701 0.53432 0.99747
 H657 H -0.02637 0.53868 0.98845
 H658 H 0.03822 0.51125 1.02595
 H659 H -0.02991 0.47037 1.02913
 H660 H 0.01073 0.47443 0.96097
 H661 H -0.03092 0.48613 0.94277
 H662 H -0.01922 0.45514 0.95494
 H663 H 0.03121 0.54182 1.04106
 H664 H 0.01083 0.51838 1.06191
 H665 H -0.03438 0.52765 0.93979
 H666 H -0.07403 0.51617 0.99963
 H667 H 0.06209 0.48700 1.01816
 H668 H 0.04011 0.46833 1.04087
 H669 H -0.04030 0.54021 1.03226
 H670 H -0.01880 0.56270 1.01250
 H671 H 0.01875 0.43815 0.98941
 H672 H 0.04155 0.45947 0.96762
 O673 O 0.00775 0.44162 0.51575
 O674 O -0.00666 0.43898 0.48286
 O675 O 0.05849 0.48483 0.50717
 O676 O 0.06277 0.51754 0.49671
 O677 O 0.01549 0.49264 0.55899
 O678 O -0.01896 0.50589 0.56162
 O679 O 0.00278 0.54135 0.45476
 O680 O 0.03356 0.52303 0.45080
 O681 O -0.04533 0.49793 0.45909
 O682 O -0.05147 0.46653 0.48013
 O683 O -0.04142 0.54544 0.50303
 O684 O -0.02019 0.55163 0.53419
 O685 O -0.00910 0.55810 0.48360
 O686 O 0.00559 0.56138 0.51957
 O687 O -0.05836 0.51672 0.49138
 O688 O -0.06120 0.48083 0.50614
 O689 O -0.01676 0.51033 0.44237
 O690 O 0.01685 0.49115 0.44052
 O691 O -0.00439 0.45854 0.54442
 O692 O -0.03453 0.47978 0.55051
 O693 O 0.04428 0.50416 0.54201
 O694 O 0.04848 0.53566 0.52046
 O695 O 0.04137 0.45585 0.49635
 O696 O 0.02017 0.45283 0.46437
 Zr697 Zr 0.01016 0.46535 0.49329
 O698 O -0.00909 0.48328 0.47368
 Zr699 Zr 0.03487 0.50726 0.51080
 O700 O 0.01697 0.52689 0.49156
 Zr701 Zr -0.00712 0.48993 0.53539
 O702 O -0.02693 0.50909 0.51754
 Zr703 Zr 0.00664 0.51061 0.46521
 O704 O 0.02688 0.49169 0.48309
 Zr705 Zr -0.03539 0.49351 0.49005
 O706 O -0.01742 0.47349 0.50904
 Zr707 Zr -0.01047 0.53539 0.50721
 O708 O 0.00857 0.51753 0.52743
 O709 O 0.01984 0.48033 0.52035
 O710 O -0.02038 0.52047 0.48024
 C711 C 0.00127 0.44194 0.53472
 C712 C 0.05807 0.46570 0.50131
 C713 C 0.03454 0.49877 0.55863
 C714 C -0.00364 0.55772 0.46432
 C715 C -0.03595 0.50474 0.44277
 C716 C -0.05788 0.53597 0.49672
 H717 H -0.01289 0.47503 0.46124
 H718 H -0.03921 0.51295 0.52597
 H719 H 0.02877 0.47140 0.52920
 H720 H 0.02537 0.53911 0.48748
 H721 H 0.04503 0.51310 0.45358
 H722 H 0.05877 0.52493 0.48382
 H723 H -0.06402 0.48976 0.51836
 H724 H -0.04145 0.46993 0.54089
 H725 H 0.01569 0.49913 0.42735
 H726 H 0.02700 0.43921 0.46689
 H727 H -0.03159 0.54357 0.54067
 H728 H -0.01245 0.51985 0.56151
 H729 H -0.02071 0.43989 0.48913
 H730 H -0.04357 0.46035 0.46845
 H731 H 0.03974 0.54116 0.53190
 H732 H 0.01781 0.56408 0.51061
 O733 O 0.50859 0.94225 0.01489
 O734 O 0.49429 0.93965 -0.01807
 O735 O 0.55893 0.98593 0.00676
 O736 O 0.56296 1.01874 -0.00355
 O737 O 0.51565 0.99307 0.05841
 O738 O 0.48108 1.00603 0.06096
 O739 O 0.50287 1.04220 -0.04564
 O740 O 0.53386 1.02423 -0.04955
 O741 O 0.45519 0.99834 -0.04171
 O742 O 0.44924 0.96679 -0.02084
 O743 O 0.45849 1.04567 0.00251
 O744 O 0.47957 1.05189 0.03378
 O745 O 0.49073 1.05871 -0.01676
 O746 O 0.50529 1.06196 0.01927
 O747 O 0.44186 1.01686 -0.00937
 O748 O 0.43928 0.98087 0.00520
 O749 O 0.48372 1.01106 -0.05826
 O750 O 0.51753 0.99222 -0.06004
 O751 O 0.49618 0.95891 0.04359
 O752 O 0.46578 0.97983 0.04965
 O753 O 0.54440 1.00496 0.04163
 O754 O 0.54841 1.03662 0.02025
 O755 O 0.54211 0.95687 -0.00429
 O756 O 0.52108 0.95383 -0.03639
 Zr757 Zr 0.51084 0.96610 -0.00745
 O758 O 0.49150 0.98395 -0.02705
 Zr759 Zr 0.53510 1.00815 0.01038
 O760 O 0.51710 1.02770 -0.00884
 Zr761 Zr 0.49316 0.99031 0.03470
 O762 O 0.47326 1.00938 0.01688
 Zr763 Zr 0.50702 1.01146 -0.03531
 O764 O 0.52736 0.99264 -0.01744
 Zr765 Zr 0.46505 0.99387 -0.01072
 O766 O 0.48312 0.97391 0.00823
 Zr767 Zr 0.48952 1.03588 0.00675
 O768 O 0.50864 1.01810 0.02696
 O769 O 0.52026 0.98103 0.01972
 O770 O 0.47985 1.02100 -0.02034
 C771 C 0.50206 0.94242 0.03384
 C772 C 0.55870 0.96682 0.00081
 C773 C 0.53465 0.99937 0.05818
 C774 C 0.49624 1.05847 -0.03602
 C775 C 0.46457 1.00530 -0.05796
 C776 C 0.44214 1.03608 -0.00393
 H777 H 0.48782 0.97573 -0.03954
 H778 H 0.46091 1.01309 0.02527
 H779 H 0.52925 0.97215 0.02857
 H780 H 0.52539 1.04003 -0.01283
 H781 H 0.54542 1.01440 -0.04677
 H782 H 0.55894 1.02618 -0.01641
 H783 H 0.43634 0.98971 0.01745
 H784 H 0.45901 0.96994 0.03996
 H785 H 0.51634 1.00025 -0.07318
 H786 H 0.52802 0.94025 -0.03390
 H787 H 0.46821 1.04370 0.04017
 H788 H 0.48748 1.02004 0.06097
 H789 H 0.48022 0.94037 -0.01183
 H790 H 0.45726 0.96073 -0.03251
 H791 H 0.53957 1.04198 0.03167
 H792 H 0.51752 1.06482 0.01036
 O793 O 0.48345 0.50764 0.05882
 O794 O 0.51637 0.49337 0.06168
 O795 O 0.49192 0.55811 0.01529
 O796 O 0.50241 0.56226 -0.01745
 O797 O 0.44029 0.51487 0.00759
 O798 O 0.43786 0.48037 -0.00550
 O799 O 0.54473 0.50238 -0.04071
 O800 O 0.54851 0.53324 -0.02256
 O801 O 0.54049 0.45451 0.00294
 O802 O 0.51941 0.44845 0.03437
 O803 O 0.49664 0.45798 -0.04475
 O804 O 0.46543 0.47903 -0.05119
 O805 O 0.51600 0.49028 -0.05752
 O806 O 0.47996 0.50481 -0.06103
 O807 O 0.50828 0.44125 -0.01586
 O808 O 0.49346 0.43854 0.02004
 O809 O 0.55712 0.48307 -0.00955
 O810 O 0.55876 0.51675 0.00950
 O811 O 0.45487 0.49528 0.04187
 O812 O 0.44898 0.46500 0.02078
 O813 O 0.45717 0.54365 -0.00407
 O814 O 0.47879 0.54776 -0.03557
 O815 O 0.50276 0.54122 0.04444
 O816 O 0.53482 0.52017 0.04770
 Zr817 Zr 0.50597 0.50999 0.03514
 O818 O 0.52571 0.49074 0.01739
 Zr819 Zr 0.48844 0.53437 -0.00702
 O820 O 0.50782 0.51647 -0.02647
 Zr821 Zr 0.46400 0.49240 0.01049
 O822 O 0.48198 0.47259 -0.00850
 Zr823 Zr 0.53417 0.50635 -0.01002
 O824 O 0.51615 0.52660 0.00871
 Zr825 Zr 0.50947 0.46433 0.00723
 O826 O 0.49036 0.48232 0.02710
 Zr827 Zr 0.49231 0.48895 -0.03489
 O828 O 0.47195 0.50796 -0.01720
 O829 O 0.47890 0.51945 0.01999
 O830 O 0.51929 0.47924 -0.01979
 C831 C 0.46450 0.50109 0.05846
 C832 C 0.49775 0.55782 0.03446
 C833 C 0.44057 0.53388 0.00135
 C834 C 0.53525 0.49583 -0.05710
 C835 C 0.55679 0.46391 -0.00389
 C836 C 0.50299 0.44161 -0.03515
 H837 H 0.53814 0.48703 0.02571
 H838 H 0.47362 0.46027 -0.01232
 H839 H 0.46998 0.52839 0.02884
 H840 H 0.51190 0.52482 -0.03875
 H841 H 0.54565 0.54474 -0.01270
 H842 H 0.51538 0.55829 -0.02471
 H843 H 0.48127 0.43563 0.01108
 H844 H 0.45860 0.45820 0.03073
 H845 H 0.57196 0.51561 0.00156
 H846 H 0.53223 0.52706 0.06129
 H847 H 0.45895 0.46768 -0.04305
 H848 H 0.43796 0.48682 -0.01950
 H849 H 0.51020 0.47929 0.06081
 H850 H 0.53106 0.45642 0.04053
 H851 H 0.46739 0.53896 -0.04105
 H852 H 0.48890 0.51703 -0.06379
 O853 O -0.05969 0.01690 0.50875
 O854 O -0.06259 -0.01604 0.49467
 O855 O -0.01592 0.00856 0.55917
 O856 O 0.01686 -0.00182 0.56324
 O857 O -0.00848 0.06003 0.51561
 O858 O 0.00449 0.06230 0.48102
 O859 O 0.03987 -0.04438 0.50340
 O860 O 0.02188 -0.04801 0.53441
 O861 O -0.00398 -0.04036 0.45568
 O862 O -0.03547 -0.01929 0.44963
 O863 O 0.04367 0.00351 0.45874
 O864 O 0.05017 0.03476 0.47964
 O865 O 0.05659 -0.01572 0.49110
 O866 O 0.06014 0.02033 0.50546
 O867 O 0.01474 -0.00821 0.44216
 O868 O -0.02119 0.00657 0.43951
 O869 O 0.00862 -0.05685 0.48432
 O870 O -0.01025 -0.05831 0.51811
 O871 O -0.04281 0.04539 0.49617
 O872 O -0.02186 0.05117 0.46580
 O873 O 0.00330 0.04328 0.54446
 O874 O 0.03488 0.02169 0.54853
 O875 O -0.04514 -0.00230 0.54243
 O876 O -0.04848 -0.03439 0.52150
 Zr877 Zr -0.03598 -0.00560 0.51115
 O878 O -0.01829 -0.02541 0.49191
 Zr879 Zr 0.00627 0.01200 0.53530
 O880 O 0.02566 -0.00744 0.51741
 Zr881 Zr -0.01145 0.03625 0.49325
 O882 O 0.00747 0.01820 0.47343
 Zr883 Zr 0.00919 -0.03381 0.50748
 O884 O -0.00947 -0.01571 0.52772
 Zr885 Zr -0.00826 -0.00931 0.46536
 O886 O -0.02807 0.00987 0.48334
 Zr887 Zr 0.03394 0.00794 0.48975
 O888 O 0.01632 0.02837 0.50875
 O889 O -0.02083 0.02148 0.52043
 O890 O 0.01884 -0.01905 0.48023
 C891 C -0.05938 0.03579 0.50208
 C892 C -0.03508 0.00273 0.55899
 C893 C -0.00217 0.05982 0.53462
 C894 C 0.05621 -0.03494 0.49672
 C895 C 0.00288 -0.05660 0.46516
 C896 C 0.03401 -0.00291 0.44242
 H897 H -0.02662 -0.03784 0.48830
 H898 H 0.01123 0.02650 0.46104
 H899 H -0.02965 0.03042 0.52937
 H900 H 0.03798 -0.01149 0.52573
 H901 H 0.01207 -0.04511 0.54594
 H902 H 0.02409 -0.01481 0.55931
 H903 H -0.01227 0.01875 0.43651
 H904 H -0.03179 0.04152 0.45904
 H905 H -0.00231 -0.07151 0.51701
 H906 H -0.06203 -0.03177 0.52845
 H907 H 0.04197 0.04120 0.46829
 H908 H 0.01850 0.06224 0.48745
 H909 H -0.06177 -0.00997 0.48053
 H910 H -0.04156 -0.03091 0.45767
 H911 H 0.04028 0.03307 0.53965
 H912 H 0.06296 0.01145 0.51773
 O913 O 0.74684 0.29570 0.20777
 O914 O 0.71656 0.30029 0.22722
 O915 O 0.79536 0.29186 0.25347
 O916 O 0.80306 0.27237 0.28122
 O917 O 0.79186 0.24646 0.20397
 O918 O 0.77083 0.21633 0.19849
 O919 O 0.74181 0.23506 0.30778
 O920 O 0.75744 0.26708 0.31063
 O921 O 0.69235 0.24187 0.26543
 O922 O 0.68892 0.25566 0.23010
 O923 O 0.73436 0.19231 0.25790
 O924 O 0.76944 0.18876 0.24448
 O925 O 0.75325 0.20625 0.29069
 O926 O 0.78500 0.20004 0.26889
 O927 O 0.70564 0.20930 0.24623
 O928 O 0.69985 0.23101 0.21463
 O929 O 0.70957 0.25285 0.29430
 O930 O 0.72890 0.28624 0.29596
 O931 O 0.75792 0.26666 0.19077
 O932 O 0.74417 0.23185 0.18799
 O933 O 0.80889 0.25816 0.23269
 O934 O 0.81071 0.24271 0.26789
 O935 O 0.76679 0.30872 0.24111
 O936 O 0.73207 0.31012 0.25764
 Zr937 Zr 0.74374 0.28560 0.23881
 O938 O 0.72390 0.26762 0.25769
 Zr939 Zr 0.78581 0.26062 0.25577
 O940 O 0.76772 0.24197 0.27570
 Zr941 Zr 0.76074 0.24358 0.21391
 O942 O 0.74181 0.22381 0.23194
 Zr943 Zr 0.74028 0.25757 0.28411
 O944 O 0.75970 0.27741 0.26634
 Zr945 Zr 0.71543 0.24021 0.24220
 O946 O 0.73327 0.25934 0.22220
 Zr947 Zr 0.75743 0.21552 0.25949
 O948 O 0.77751 0.23309 0.24005
 O949 O 0.77057 0.27036 0.22901
 O950 O 0.73037 0.23043 0.26929
 C951 C 0.75231 0.28589 0.19117
 C952 C 0.78579 0.30839 0.24740
 C953 C 0.80846 0.25224 0.21357
 C954 C 0.74739 0.21584 0.30728
 C955 C 0.69295 0.24714 0.28474
 C956 C 0.71517 0.19278 0.25223
 H957 H 0.71164 0.27606 0.26164
 H958 H 0.73803 0.21149 0.22354
 H959 H 0.77947 0.27926 0.22012
 H960 H 0.77601 0.23831 0.28815
 H961 H 0.76491 0.27995 0.30664
 H962 H 0.79565 0.26811 0.29401
 H963 H 0.70730 0.21884 0.20884
 H964 H 0.73060 0.23916 0.18776
 H965 H 0.72341 0.28372 0.31017
 H966 H 0.73435 0.32354 0.25033
 H967 H 0.76228 0.18745 0.23090
 H968 H 0.78074 0.20934 0.20802
 H969 H 0.70965 0.29020 0.21784
 H970 H 0.68723 0.26884 0.23787
 H971 H 0.81188 0.23013 0.25908
 H972 H 0.79060 0.20739 0.28122
 O973 O 0.75630 0.70410 0.71063
 O974 O 0.78666 0.69958 0.73012
 O975 O 0.70782 0.70806 0.75614
 O976 O 0.70037 0.72749 0.78407
 O977 O 0.71130 0.75335 0.70670
 O978 O 0.73236 0.78348 0.70112
 O979 O 0.76145 0.76504 0.81045
 O980 O 0.74587 0.73304 0.81340
 O981 O 0.81093 0.75804 0.76813
 O982 O 0.81432 0.74421 0.73287
 O983 O 0.76890 0.80766 0.76033
 O984 O 0.73369 0.81104 0.74687
 O985 O 0.75006 0.79380 0.79321
 O986 O 0.71838 0.80005 0.77151
 O987 O 0.79761 0.79064 0.74873
 O988 O 0.80337 0.76876 0.71727
 O989 O 0.79374 0.74715 0.79703
 O990 O 0.77438 0.71382 0.79882
 O991 O 0.74521 0.73311 0.69356
 O992 O 0.75895 0.76787 0.69062
 O993 O 0.69431 0.74177 0.73547
 O994 O 0.69251 0.75719 0.77059
 O995 O 0.73641 0.69116 0.74393
 O996 O 0.77112 0.68980 0.76057
 Zr997 Zr 0.75947 0.71428 0.74164
 O998 O 0.77933 0.73232 0.76046
 Zr999 Zr 0.71744 0.73930 0.75853
 O1000 O 0.73556 0.75804 0.77837
 Zr1001 Zr 0.74245 0.75625 0.71661
 O1002 O 0.76142 0.77606 0.73455
 Zr1003 Zr 0.76299 0.74247 0.78686
 O1004 O 0.74356 0.72255 0.76916
 Zr1005 Zr 0.78782 0.75969 0.74488
 O1006 O 0.76993 0.74050 0.72495
 Zr1007 Zr 0.74584 0.78444 0.76206
 O1008 O 0.72572 0.76679 0.74272
 O1009 O 0.73264 0.72951 0.73180
 O1010 O 0.77292 0.76956 0.77194
 C1011 C 0.75078 0.71387 0.69401
 C1012 C 0.71737 0.69153 0.75010
 C1013 C 0.69471 0.74762 0.71633
 C1014 C 0.75586 0.78426 0.80985
 C1015 C 0.81035 0.75278 0.78744
 C1016 C 0.78807 0.80719 0.75462
 H1017 H 0.79159 0.72389 0.76445
 H1018 H 0.76519 0.78834 0.72610
 H1019 H 0.72372 0.72061 0.72292
 H1020 H 0.72728 0.76174 0.79080
 H1021 H 0.73838 0.72016 0.80945
 H1022 H 0.70763 0.73209 0.79683
 H1023 H 0.79590 0.78089 0.71141
 H1024 H 0.77253 0.76057 0.69042
 H1025 H 0.77986 0.71638 0.81304
 H1026 H 0.76885 0.67637 0.75328
 H1027 H 0.74099 0.81245 0.73338
 H1028 H 0.72242 0.79047 0.71061
 H1029 H 0.79351 0.70961 0.72065
 H1030 H 0.81595 0.73100 0.74061
 H1031 H 0.69143 0.76983 0.76184
 H1032 H 0.71267 0.79260 0.78371
 O1033 O 0.29380 0.21057 0.74672
 O1034 O 0.29835 0.23006 0.71644
 O1035 O 0.28993 0.25597 0.79531
 O1036 O 0.27046 0.28385 0.80285
 O1037 O 0.24459 0.20660 0.79171
 O1038 O 0.21440 0.20112 0.77069
 O1039 O 0.23292 0.31035 0.74169
 O1040 O 0.26493 0.31326 0.75730
 O1041 O 0.23978 0.26811 0.69221
 O1042 O 0.25361 0.23286 0.68877
 O1043 O 0.19018 0.26039 0.73421
 O1044 O 0.18677 0.24696 0.76935
 O1045 O 0.20412 0.29322 0.75312
 O1046 O 0.19791 0.27145 0.78478
 O1047 O 0.20719 0.24881 0.70549
 O1048 O 0.22904 0.21731 0.69972
 O1049 O 0.25078 0.29695 0.70942
 O1050 O 0.28416 0.29866 0.72882
 O1051 O 0.26477 0.19351 0.75777
 O1052 O 0.22993 0.19067 0.74403
 O1053 O 0.25622 0.23529 0.80878
 O1054 O 0.24075 0.27044 0.81061
 O1055 O 0.30680 0.24377 0.76670
 O1056 O 0.30813 0.26046 0.73202
 Zr1057 Zr 0.28363 0.24156 0.74363
 O1058 O 0.26558 0.26039 0.72378
 Zr1059 Zr 0.25865 0.25839 0.78569
 O1060 O 0.23991 0.27828 0.76758
 Zr1061 Zr 0.24163 0.21658 0.76060
 O1062 O 0.22179 0.23456 0.74166
 Zr1063 Zr 0.25548 0.28675 0.74016
 O1064 O 0.27540 0.26903 0.75959
 Zr1065 Zr 0.23816 0.24487 0.71529
 O1066 O 0.25738 0.22492 0.73314
 Zr1067 Zr 0.21345 0.26205 0.75728
 O1068 O 0.23111 0.24266 0.77737
 O1069 O 0.26842 0.23169 0.77044
 O1070 O 0.22833 0.27191 0.73022
 C1071 C 0.28402 0.19396 0.75219
 C1072 C 0.30646 0.24992 0.78574
 C1073 C 0.25036 0.21618 0.80832
 C1074 C 0.21370 0.30982 0.74730
 C1075 C 0.24508 0.28739 0.69280
 C1076 C 0.19064 0.25472 0.71502
 H1077 H 0.27401 0.26436 0.71152
 H1078 H 0.20948 0.22615 0.73788
 H1079 H 0.27733 0.22280 0.77934
 H1080 H 0.23623 0.29070 0.77588
 H1081 H 0.27781 0.30929 0.76481
 H1082 H 0.26597 0.29662 0.79554
 H1083 H 0.21687 0.21150 0.70715
 H1084 H 0.23725 0.19045 0.73047
 H1085 H 0.28161 0.31286 0.72333
 H1086 H 0.32157 0.25317 0.73430
 H1087 H 0.18542 0.23343 0.76213
 H1088 H 0.20741 0.21060 0.78062
 H1089 H 0.28827 0.22067 0.70953
 H1090 H 0.26682 0.24060 0.68712
 H1091 H 0.22813 0.26167 0.81172
 H1092 H 0.20534 0.28367 0.79048
 O1093 O 0.25744 0.73306 0.18948
 O1094 O 0.24303 0.76592 0.18667
 O1095 O 0.30821 0.74165 0.23263
 O1096 O 0.31259 0.75232 0.26529
 O1097 O 0.26512 0.69006 0.24072
 O1098 O 0.23068 0.68758 0.25404
 O1099 O 0.25271 0.79448 0.28894
 O1100 O 0.28346 0.79829 0.27059
 O1101 O 0.20450 0.79005 0.24562
 O1102 O 0.19823 0.76891 0.21430
 O1103 O 0.20846 0.74625 0.29335
 O1104 O 0.22965 0.71522 0.29973
 O1105 O 0.24081 0.76576 0.30587
 O1106 O 0.25550 0.72980 0.30932
 O1107 O 0.19144 0.75781 0.26459
 O1108 O 0.18851 0.74298 0.22872
 O1109 O 0.23315 0.80677 0.25785
 O1110 O 0.26673 0.80842 0.23861
 O1111 O 0.24527 0.70451 0.20656
 O1112 O 0.21509 0.69862 0.22783
 O1113 O 0.29396 0.70701 0.25217
 O1114 O 0.29827 0.72871 0.28360
 O1115 O 0.29107 0.75244 0.20360
 O1116 O 0.26992 0.78444 0.20044
 Zr1117 Zr 0.25988 0.75562 0.21311
 O1118 O 0.24069 0.77532 0.23096
 Zr1119 Zr 0.28463 0.73824 0.25513
 O1120 O 0.26682 0.75761 0.27466
 Zr1121 Zr 0.24255 0.71369 0.23793
 O1122 O 0.22283 0.73164 0.25703
 Zr1123 Zr 0.25650 0.78388 0.25824
 O1124 O 0.27668 0.76588 0.23940
 Zr1125 Zr 0.21437 0.75906 0.24133
 O1126 O 0.23228 0.73997 0.22136
 Zr1127 Zr 0.23938 0.74205 0.28329
 O1128 O 0.25832 0.72172 0.26550
 O1129 O 0.26952 0.72863 0.22823
 O1130 O 0.22947 0.76896 0.26823
 C1131 C 0.25097 0.71411 0.18991
 C1132 C 0.30777 0.74742 0.21345
 C1133 C 0.28419 0.69040 0.24684
 C1134 C 0.24630 0.78501 0.30538
 C1135 C 0.21393 0.80638 0.25232
 C1136 C 0.19197 0.75251 0.28387
 H1137 H 0.23689 0.78772 0.22264
 H1138 H 0.21055 0.72326 0.26096
 H1139 H 0.27842 0.71972 0.21935
 H1140 H 0.27525 0.76173 0.28687
 H1141 H 0.29491 0.79544 0.26066
 H1142 H 0.30863 0.76525 0.27262
 H1143 H 0.18572 0.73078 0.23769
 H1144 H 0.20821 0.70818 0.21789
 H1145 H 0.26561 0.82162 0.24652
 H1146 H 0.27672 0.78184 0.18681
 H1147 H 0.21832 0.70863 0.29164
 H1148 H 0.23726 0.68769 0.26798
 H1149 H 0.22896 0.75969 0.18763
 H1150 H 0.20618 0.78051 0.20803
 H1151 H 0.28954 0.71729 0.28915
 H1152 H 0.26770 0.73880 0.31202
 O1153 O 0.29607 0.79219 0.75276
 O1154 O 0.30067 0.77280 0.78308
 O1155 O 0.29214 0.74650 0.70434
 O1156 O 0.27262 0.71869 0.69685
 O1157 O 0.24681 0.79602 0.70767
 O1158 O 0.21663 0.80160 0.72872
 O1159 O 0.23518 0.69249 0.75812
 O1160 O 0.26719 0.68950 0.74246
 O1161 O 0.24217 0.73486 0.80745
 O1162 O 0.25609 0.77019 0.81069
 O1163 O 0.19250 0.74250 0.76547
 O1164 O 0.18905 0.75591 0.73025
 O1165 O 0.20636 0.70965 0.74668
 O1166 O 0.20008 0.73126 0.71494
 O1167 O 0.20959 0.75413 0.79414
 O1168 O 0.23136 0.78562 0.79984
 O1169 O 0.25304 0.70595 0.79029
 O1170 O 0.28644 0.70414 0.77095
 O1171 O 0.26703 0.80923 0.74163
 O1172 O 0.23224 0.81219 0.75527
 O1173 O 0.25842 0.76723 0.69076
 O1174 O 0.24293 0.73214 0.68905
 O1175 O 0.30904 0.75884 0.73288
 O1176 O 0.31043 0.74235 0.76762
 Zr1177 Zr 0.28592 0.76122 0.75593
 O1178 O 0.26791 0.74246 0.77585
 Zr1179 Zr 0.26086 0.74424 0.71394
 O1180 O 0.24214 0.72446 0.73211
 Zr1181 Zr 0.24390 0.78618 0.73885
 O1182 O 0.22410 0.76830 0.75789
 Zr1183 Zr 0.25776 0.71605 0.75955
 O1184 O 0.27766 0.73369 0.74007
 Zr1185 Zr 0.24052 0.75804 0.78429
 O1186 O 0.25968 0.77791 0.76634
 Zr1187 Zr 0.21571 0.74077 0.74237
 O1188 O 0.23335 0.76005 0.72219
 O1189 O 0.27067 0.77099 0.72907
 O1190 O 0.23065 0.73098 0.76945
 C1191 C 0.28628 0.80879 0.74726
 C1192 C 0.30869 0.75255 0.71389
 C1193 C 0.25254 0.78634 0.69110
 C1194 C 0.21593 0.69306 0.75257
 C1195 C 0.24739 0.71554 0.80689
 C1196 C 0.19303 0.74818 0.78466
 H1197 H 0.27636 0.73850 0.78811
 H1198 H 0.21180 0.77674 0.76166
 H1199 H 0.27959 0.77983 0.72014
 H1200 H 0.23843 0.71201 0.72386
 H1201 H 0.28008 0.69342 0.73498
 H1202 H 0.26813 0.70595 0.70421
 H1203 H 0.21923 0.79146 0.79234
 H1204 H 0.23946 0.81238 0.76889
 H1205 H 0.28389 0.68995 0.77647
 H1206 H 0.32387 0.74961 0.76532
 H1207 H 0.18764 0.76940 0.73752
 H1208 H 0.20964 0.79208 0.71881
 H1209 H 0.29059 0.78220 0.78997
 H1210 H 0.26919 0.76229 0.81249
 H1211 H 0.23029 0.74089 0.68794
 H1212 H 0.20752 0.71904 0.70926
 O1213 O 0.25483 0.20298 0.20971
 O1214 O 0.28518 0.19858 0.22921
 O1215 O 0.20628 0.20657 0.25518
 O1216 O 0.19871 0.22589 0.28315
 O1217 O 0.20952 0.25199 0.20585
 O1218 O 0.23039 0.28220 0.20029
 O1219 O 0.25963 0.26379 0.30961
 O1220 O 0.24422 0.23169 0.31253
 O1221 O 0.30908 0.25723 0.26726
 O1222 O 0.31260 0.24345 0.23203
 O1223 O 0.26674 0.30653 0.25959
 O1224 O 0.23150 0.30971 0.24613
 O1225 O 0.24803 0.29250 0.29244
 O1226 O 0.21627 0.29857 0.27077
 O1227 O 0.29555 0.28971 0.24793
 O1228 O 0.30141 0.26789 0.21640
 O1229 O 0.29200 0.24613 0.29615
 O1230 O 0.27283 0.21266 0.29790
 O1231 O 0.24354 0.23194 0.19268
 O1232 O 0.25710 0.26680 0.18981
 O1233 O 0.19257 0.24025 0.23458
 O1234 O 0.19070 0.25557 0.26976
 O1235 O 0.23498 0.18986 0.24295
 O1236 O 0.26969 0.18869 0.25965
 Zr1237 Zr 0.25791 0.21312 0.24073
 O1238 O 0.27767 0.23126 0.25957
 Zr1239 Zr 0.21572 0.23786 0.25765
 O1240 O 0.23373 0.25666 0.27753
 Zr1241 Zr 0.24064 0.25503 0.21577
 O1242 O 0.25947 0.27494 0.23374
 Zr1243 Zr 0.26127 0.24125 0.28599
 O1244 O 0.24195 0.22125 0.26826
 Zr1245 Zr 0.28596 0.25871 0.24403
 O1246 O 0.26820 0.23943 0.22408
 Zr1247 Zr 0.24383 0.28316 0.26127
 O1248 O 0.22383 0.26542 0.24189
 O1249 O 0.23099 0.22821 0.23090
 O1250 O 0.27101 0.26844 0.27111
 C1251 C 0.24925 0.21273 0.19311
 C1252 C 0.21593 0.19010 0.24910
 C1253 C 0.19296 0.24616 0.21546
 C1254 C 0.25394 0.28298 0.30905
 C1255 C 0.30856 0.25193 0.28656
 C1256 C 0.28592 0.30619 0.25387
 H1257 H 0.28998 0.22290 0.26354
 H1258 H 0.26316 0.28726 0.22531
 H1259 H 0.22212 0.21927 0.22201
 H1260 H 0.22543 0.26029 0.28997
 H1261 H 0.23681 0.21878 0.30856
 H1262 H 0.20597 0.23046 0.29593
 H1263 H 0.29392 0.28004 0.21061
 H1264 H 0.27070 0.25954 0.18957
 H1265 H 0.27833 0.21523 0.31211
 H1266 H 0.26749 0.17526 0.25235
 H1267 H 0.23882 0.31122 0.23267
 H1268 H 0.22046 0.28916 0.20981
 H1269 H 0.29200 0.20869 0.21979
 H1270 H 0.31430 0.23022 0.23972
 H1271 H 0.18952 0.26822 0.26104
 H1272 H 0.21064 0.29108 0.28298
 O1273 O 0.79435 0.71056 0.24701
 O1274 O 0.79891 0.73004 0.21671
 O1275 O 0.79044 0.75600 0.29556
 O1276 O 0.77099 0.78393 0.30301
 O1277 O 0.74512 0.70665 0.29199
 O1278 O 0.71492 0.70115 0.27094
 O1279 O 0.73343 0.81033 0.24187
 O1280 O 0.76543 0.81325 0.25752
 O1281 O 0.74039 0.76807 0.19241
 O1282 O 0.75426 0.73280 0.18903
 O1283 O 0.69072 0.76028 0.23436
 O1284 O 0.68736 0.74687 0.26959
 O1285 O 0.70462 0.79318 0.25323
 O1286 O 0.69834 0.77152 0.28488
 O1287 O 0.70779 0.74872 0.20567
 O1288 O 0.72965 0.71728 0.19991
 O1289 O 0.75132 0.79692 0.20963
 O1290 O 0.78469 0.79866 0.22905
 O1291 O 0.76532 0.69352 0.25806
 O1292 O 0.73050 0.69063 0.24435
 O1293 O 0.75671 0.73537 0.30903
 O1294 O 0.74127 0.77048 0.31083
 O1295 O 0.80733 0.74379 0.26697
 O1296 O 0.80869 0.76044 0.23229
 Zr1297 Zr 0.78418 0.74155 0.24389
 O1298 O 0.76615 0.76037 0.22401
 Zr1299 Zr 0.75917 0.75843 0.28591
 O1300 O 0.74042 0.77828 0.26778
 Zr1301 Zr 0.74218 0.71658 0.26086
 O1302 O 0.72236 0.73454 0.24187
 Zr1303 Zr 0.75601 0.78674 0.24037
 O1304 O 0.77593 0.76904 0.25982
 Zr1305 Zr 0.73875 0.74484 0.21550
 O1306 O 0.75794 0.72490 0.23340
 Zr1307 Zr 0.71398 0.76203 0.25745
 O1308 O 0.73164 0.74268 0.27759
 O1309 O 0.76895 0.73171 0.27070
 O1310 O 0.72888 0.77188 0.23040
 C1311 C 0.78457 0.69396 0.25248
 C1312 C 0.80698 0.74994 0.28601
 C1313 C 0.75087 0.71625 0.30860
 C1314 C 0.71420 0.80978 0.24743
 C1315 C 0.74567 0.78736 0.19300
 C1316 C 0.69121 0.75458 0.21518
 H1317 H 0.77459 0.76435 0.21177
 H1318 H 0.71007 0.72610 0.23808
 H1319 H 0.77786 0.72283 0.27961
 H1320 H 0.73672 0.79070 0.27606
 H1321 H 0.77832 0.80930 0.26503
 H1322 H 0.76638 0.79669 0.29576
 H1323 H 0.71753 0.71142 0.20737
 H1324 H 0.73778 0.69043 0.23076
 H1325 H 0.78214 0.81287 0.22355
 H1326 H 0.82213 0.75315 0.23457
 H1327 H 0.68595 0.73340 0.26229
 H1328 H 0.70795 0.71063 0.28090
 H1329 H 0.78885 0.72062 0.20982
 H1330 H 0.76743 0.74059 0.18735
 H1331 H 0.72861 0.76176 0.31189
 H1332 H 0.70584 0.78366 0.29063
 O1333 O 0.70399 0.28937 0.74534
 O1334 O 0.69940 0.26990 0.71498
 O1335 O 0.70801 0.24385 0.79382
 O1336 O 0.72743 0.21587 0.80120
 O1337 O 0.75329 0.29318 0.79027
 O1338 O 0.78348 0.29868 0.76921
 O1339 O 0.76493 0.18952 0.74014
 O1340 O 0.73292 0.18661 0.75573
 O1341 O 0.75782 0.23189 0.69063
 O1342 O 0.74400 0.26714 0.68728
 O1343 O 0.80760 0.23961 0.73258
 O1344 O 0.81105 0.25297 0.76778
 O1345 O 0.79374 0.20670 0.75148
 O1346 O 0.80007 0.22836 0.78311
 O1347 O 0.79050 0.25123 0.70391
 O1348 O 0.76860 0.28267 0.69817
 O1349 O 0.74695 0.20300 0.70782
 O1350 O 0.71364 0.20122 0.72726
 O1351 O 0.73307 0.30636 0.75638
 O1352 O 0.76785 0.30926 0.74263
 O1353 O 0.74173 0.26442 0.80728
 O1354 O 0.75719 0.22932 0.80906
 O1355 O 0.69105 0.25611 0.76526
 O1356 O 0.68961 0.23950 0.73057
 Zr1357 Zr 0.71415 0.25836 0.74216
 O1358 O 0.73216 0.23954 0.72227
 Zr1359 Zr 0.73925 0.24140 0.78415
 O1360 O 0.75797 0.22158 0.76600
 Zr1361 Zr 0.75620 0.28328 0.75913
 O1362 O 0.77598 0.26535 0.74011
 Zr1363 Zr 0.74234 0.21313 0.73858
 O1364 O 0.72244 0.23083 0.75805
 Zr1365 Zr 0.75954 0.25508 0.71375
 O1366 O 0.74038 0.27501 0.73167
 Zr1367 Zr 0.78439 0.23784 0.75568
 O1368 O 0.76676 0.25716 0.77584
 O1369 O 0.72945 0.26814 0.76896
 O1370 O 0.76945 0.22801 0.72862
 C1371 C 0.71380 0.30595 0.75084
 C1372 C 0.69145 0.24995 0.78431
 C1373 C 0.74756 0.28355 0.80686
 C1374 C 0.78417 0.19008 0.74572
 C1375 C 0.75253 0.21261 0.69120
 C1376 C 0.80709 0.24536 0.71341
 H1377 H 0.72369 0.23559 0.71003
 H1378 H 0.78827 0.27379 0.73633
 H1379 H 0.72056 0.27701 0.77789
 H1380 H 0.76169 0.20915 0.77428
 H1381 H 0.72006 0.19058 0.76325
 H1382 H 0.73209 0.20311 0.79398
 H1383 H 0.78074 0.28852 0.70564
 H1384 H 0.76053 0.30948 0.72905
 H1385 H 0.71618 0.18703 0.72176
 H1386 H 0.67618 0.24681 0.73285
 H1387 H 0.81241 0.26648 0.76053
 H1388 H 0.79044 0.28920 0.77919
 H1389 H 0.70943 0.27939 0.70814
 H1390 H 0.73077 0.25943 0.68566
 H1391 H 0.76984 0.23805 0.81013
 H1392 H 0.79258 0.21620 0.78886
 C1393 C 0.08078 0.99934 1.09723
 C1394 C 0.07074 1.00616 1.11533
 C1395 C 0.04970 1.01173 1.11456
 C1396 C 0.03871 1.01051 1.09584
 C1397 C 0.10842 1.01442 1.18762
 C1398 C 0.06980 0.99809 1.07842
 C1399 C 0.08188 1.00772 1.13474
 C1400 C 0.09068 1.00941 1.15125
 C1401 C 0.10045 1.01187 1.17080
 C1402 C 0.04860 1.00366 1.07750
 H1403 H 0.09709 0.99503 1.09764
 H1404 H 0.04178 1.01708 1.12847
 H1405 H 0.02244 1.01495 1.09577
 H1406 H 0.07792 0.99279 1.06463
 C1407 C 0.58123 0.50031 0.59724
 C1408 C 0.57117 0.50707 0.61536
 C1409 C 0.55003 0.51222 0.61471
 C1410 C 0.53894 0.51067 0.59607
 C1411 C 0.60902 0.51618 0.68743
 C1412 C 0.57014 0.49873 0.57852
 C1413 C 0.58240 0.50897 0.63468
 C1414 C 0.59125 0.51090 0.65113
 C1415 C 0.60105 0.51356 0.67063
 C1416 C 0.54884 0.50391 0.57772
 H1417 H 0.59762 0.49631 0.59757
 H1418 H 0.54210 0.51751 0.62863
 H1419 H 0.52259 0.51482 0.59608
 H1420 H 0.57827 0.49352 0.56470
 C1421 C 0.45165 -0.00990 0.61485
 C1422 C 0.43047 -0.00489 0.61546
 C1423 C 0.42021 0.00117 0.59719
 C1424 C 0.43109 0.00207 0.57833
 C1425 C 0.39275 -0.01389 0.68748
 C1426 C 0.46254 -0.00904 0.59607
 C1427 C 0.41935 -0.00651 0.63482
 C1428 C 0.41053 -0.00835 0.65128
 C1429 C 0.40074 -0.01108 0.67074
 C1430 C 0.45239 -0.00313 0.57754
 H1431 H 0.45973 -0.01465 0.62889
 H1432 H 0.40379 0.00504 0.59750
 H1433 H 0.42279 0.00666 0.56438
 H1434 H 0.47890 -0.01313 0.59608
 C1435 C -0.04828 0.48979 1.11572
 C1436 C -0.06949 0.49467 1.11639
 C1437 C -0.07984 0.50070 1.09817
 C1438 C -0.06901 0.50173 1.07929
 C1439 C -0.10727 0.48552 1.18837
 C1440 C -0.03744 0.49079 1.09691
 C1441 C -0.08057 0.49295 1.13578
 C1442 C -0.08938 0.49106 1.15223
 C1443 C -0.09922 0.48832 1.17166
 C1444 C -0.04768 0.49669 1.07842
 H1445 H -0.04013 0.48506 1.12973
 H1446 H -0.09628 0.50446 1.09853
 H1447 H -0.07739 0.50631 1.06538
 H1448 H -0.02105 0.48681 1.09687
 C1449 C -0.08018 0.50195 0.40351
 C1450 C -0.07036 0.50932 0.38551
 C1451 C -0.04942 0.51521 0.38624
 C1452 C -0.03827 0.51374 0.40486
 C1453 C -0.10849 0.51803 0.31360
 C1454 C -0.06905 0.50045 0.42221
 C1455 C -0.08163 0.51104 0.36622
 C1456 C -0.09055 0.51284 0.34980
 C1457 C -0.10044 0.51541 0.33035
 C1458 C -0.04793 0.50632 0.42308
 H1459 H -0.09641 0.49739 0.40311
 H1460 H -0.04168 0.52098 0.37240
 H1461 H -0.02208 0.51843 0.40492
 H1462 H -0.07698 0.49471 0.43593
 C1463 C 0.45120 1.01588 -0.11450
 C1464 C 0.43032 1.00979 -0.11532
 C1465 C 0.42051 1.00226 -0.09738
 C1466 C 0.43159 1.00079 -0.07866
 C1467 C 0.39210 1.01841 -0.18721
 C1468 C 0.46230 1.01444 -0.09585
 C1469 C 0.41908 1.01149 -0.13464
 C1470 C 0.41016 1.01327 -0.15105
 C1471 C 0.40022 1.01581 -0.17049
 C1472 C 0.45265 1.00685 -0.07768
 H1473 H 0.45893 1.02177 -0.12829
 H1474 H 0.40432 0.99755 -0.09785
 H1475 H 0.42367 0.99492 -0.06499
 H1476 H 0.47845 1.01928 -0.09571
 C1477 C 0.54837 0.48633 -0.11388
 C1478 C 0.56947 0.49167 -0.11450
 C1479 C 0.57948 0.49843 -0.09635
 C1480 C 0.56840 0.49984 -0.07763
 C1481 C 0.60767 0.48293 -0.18638
 C1482 C 0.53729 0.48771 -0.09524
 C1483 C 0.58072 0.48994 -0.13381
 C1484 C 0.58964 0.48813 -0.15022
 C1485 C 0.59956 0.48555 -0.16966
 C1486 C 0.54715 0.49449 -0.07685
 H1487 H 0.54048 0.48104 -0.12783
 H1488 H 0.59583 0.50257 -0.09665
 H1489 H 0.57650 0.50507 -0.06379
 H1490 H 0.52098 0.48343 -0.09526
 C1491 C 0.04671 -0.01282 0.38560
 C1492 C 0.06784 -0.00766 0.38482
 C1493 C 0.07800 -0.00083 0.40287
 C1494 C 0.06704 0.00080 0.42164
 C1495 C 0.10601 -0.01759 0.31306
 C1496 C 0.03573 -0.01121 0.40430
 C1497 C 0.07900 -0.00970 0.36549
 C1498 C 0.08789 -0.01178 0.34909
 C1499 C 0.09784 -0.01469 0.32971
 C1500 C 0.04576 -0.00440 0.42258
 H1501 H 0.03870 -0.01816 0.37174
 H1502 H 0.09439 0.00316 0.40245
 H1503 H 0.07526 0.00606 0.43540
 H1504 H 0.01940 -0.01538 0.40440
 C1505 C 0.11524 1.04717 1.01463
 C1506 C 0.11614 1.06805 1.00859
 C1507 C 0.09819 1.07798 1.00120
 C1508 C 0.07940 1.06704 0.99983
 C1509 C 0.18822 1.10594 1.01694
 C1510 C 0.09652 1.03621 1.01329
 C1511 C 0.13553 1.07916 1.01020
 C1512 C 0.15200 1.08799 1.01191
 C1513 C 0.17148 1.09785 1.01438
 C1514 C 0.07835 1.04599 1.00585
 H1515 H 0.12903 1.03934 1.02042
 H1516 H 0.09871 1.09417 0.99652
 H1517 H 0.06572 1.07506 0.99407
 H1518 H 0.09633 1.02006 1.01810
 C1519 C 0.59799 0.57839 0.50195
 C1520 C 0.61597 0.56850 0.50932
 C1521 C 0.61517 0.54758 0.51524
 C1522 C 0.59651 0.53653 0.51379
 C1523 C 0.68788 0.60670 0.51777
 C1524 C 0.57925 0.56736 0.50048
 C1525 C 0.63531 0.57970 0.51102
 C1526 C 0.65173 0.58861 0.51277
 C1527 C 0.67116 0.59855 0.51525
 C1528 C 0.57830 0.54626 0.50637
 H1529 H 0.59844 0.59461 0.49737
 H1530 H 0.62899 0.53979 0.52101
 H1531 H 0.59638 0.52035 0.51851
 H1532 H 0.56555 0.57535 0.49474
 C1533 C 0.59612 0.41977 -0.00115
 C1534 C 0.61412 0.42961 -0.00851
 C1535 C 0.61335 0.45056 -0.01434
 C1536 C 0.59473 0.46168 -0.01283
 C1537 C 0.68594 0.39135 -0.01747
 C1538 C 0.57742 0.43087 0.00040
 C1539 C 0.63341 0.41834 -0.01033
 C1540 C 0.64980 0.40941 -0.01219
 C1541 C 0.66922 0.39946 -0.01482
 C1542 C 0.57651 0.45198 -0.00542
 H1543 H 0.59654 0.40353 0.00337
 H1544 H 0.62718 0.45832 -0.02011
 H1545 H 0.59464 0.47787 -0.01748
 H1546 H 0.56371 0.42291 0.00612
 C1547 C 0.09547 -0.07917 0.49905
 C1548 C 0.11358 -0.06917 0.49220
 C1549 C 0.11294 -0.04807 0.48693
 C1550 C 0.09431 -0.03698 0.48845
 C1551 C 0.18539 -0.10726 0.48250
 C1552 C 0.07676 -0.06809 0.50060
 C1553 C 0.13286 -0.08043 0.49026
 C1554 C 0.14926 -0.08933 0.48823
 C1555 C 0.16868 -0.09921 0.48538
 C1556 C 0.07596 -0.04683 0.49530
 H1557 H 0.09580 -0.09553 0.50312
 H1558 H 0.12685 -0.04019 0.48157
 H1559 H 0.09431 -0.02067 0.48421
 H1560 H 0.06295 -0.07618 0.50588
 C1561 C 0.38372 -0.04829 0.50865
 C1562 C 0.38307 -0.06953 0.50400
 C1563 C 0.40133 -0.07990 0.49816
 C1564 C 0.42022 -0.06907 0.49711
 C1565 C 0.31111 -0.10738 0.51347
 C1566 C 0.40253 -0.03745 0.50764
 C1567 C 0.36368 -0.08062 0.50577
 C1568 C 0.34723 -0.08945 0.50773
 C1569 C 0.32780 -0.09930 0.51056
 C1570 C 0.42105 -0.04771 0.50194
 H1571 H 0.36968 -0.04012 0.51323
 H1572 H 0.40101 -0.09637 0.49457
 H1573 H 0.43416 -0.07747 0.49270
 H1574 H 0.40253 -0.02104 0.51146
 C1575 C -0.09901 0.42097 0.99817
 C1576 C -0.11714 0.43109 1.00479
 C1577 C -0.11643 0.45217 1.01011
 C1578 C -0.09768 0.46309 1.00901
 C1579 C -0.18880 0.39281 1.01462
 C1580 C -0.08018 0.43188 0.99703
 C1581 C -0.13645 0.41989 1.00669
 C1582 C -0.15282 0.41097 1.00875
 C1583 C -0.17217 0.40099 1.01169
 C1584 C -0.07927 0.45307 1.00255
 H1585 H -0.09938 0.40463 0.99406
 H1586 H -0.13037 0.46015 1.01529
 H1587 H -0.09761 0.47937 1.01338
 H1588 H -0.06633 0.42367 0.99203
 C1589 C -0.11466 0.54914 0.48722
 C1590 C -0.11527 0.57024 0.49250
 C1591 C -0.09710 0.58023 0.49924
 C1592 C -0.07839 0.56913 0.50069
 C1593 C -0.18728 0.60822 0.48374
 C1594 C -0.09603 0.53804 0.48864
 C1595 C -0.13457 0.58149 0.49072
 C1596 C -0.15101 0.59037 0.48888
 C1597 C -0.17049 0.60021 0.48630
 C1598 C -0.07763 0.54788 0.49539
 H1599 H -0.12862 0.54126 0.48194
 H1600 H -0.09740 0.59658 0.50333
 H1601 H -0.06453 0.57721 0.50591
 H1602 H -0.09607 0.52173 0.48440
 C1603 C 0.38527 1.04878 -0.01355
 C1604 C 0.38446 1.06984 -0.00817
 C1605 C 0.40250 1.07996 -0.00130
 C1606 C 0.42132 1.06903 0.00015
 C1607 C 0.31217 1.10732 -0.01699
 C1608 C 0.40400 1.03784 -0.01212
 C1609 C 0.36506 1.08093 -0.00996
 C1610 C 0.34855 1.08969 -0.01181
 C1611 C 0.32900 1.09940 -0.01440
 C1612 C 0.42229 1.04782 -0.00526
 H1613 H 0.37141 1.04081 -0.01892
 H1614 H 0.40205 1.09629 0.00287
 H1615 H 0.43508 1.07721 0.00546
 H1616 H 0.40413 1.02156 -0.01645
 C1617 C 0.01411 1.11365 1.04828
 C1618 C 0.00861 1.11445 1.06933
 C1619 C 0.00178 1.09640 1.07944
 C1620 C 0.00045 1.07760 1.06851
 C1621 C 0.01727 1.18657 1.10694
 C1622 C 0.01281 1.09493 1.03734
 C1623 C 0.01027 1.13383 1.08042
 C1624 C 0.01205 1.15030 1.08920
 C1625 C 0.01461 1.16980 1.09896
 C1626 C 0.00596 1.07665 1.04730
 H1627 H 0.01946 1.12751 1.04031
 H1628 H -0.00247 1.09685 1.09576
 H1629 H -0.00485 1.06384 1.07667
 H1630 H 0.01721 1.09482 1.02106
 C1631 C 0.50248 0.59578 0.58047
 C1632 C 0.50930 0.61390 0.57047
 C1633 C 0.51452 0.61331 0.54935
 C1634 C 0.51298 0.59473 0.53822
 C1635 C 0.51853 0.68562 0.60866
 C1636 C 0.50091 0.57712 0.56935
 C1637 C 0.51121 0.63313 0.58176
 C1638 C 0.51315 0.64950 0.59070
 C1639 C 0.51585 0.66890 0.60061
 C1640 C 0.50616 0.57637 0.54807
 H1641 H 0.49844 0.59607 0.59685
 H1642 H 0.51985 0.62724 0.54147
 H1643 H 0.51718 0.59476 0.52189
 H1644 H 0.49566 0.56330 0.57744
 C1645 C -0.01284 0.61461 0.45152
 C1646 C -0.00755 0.61533 0.43041
 C1647 C -0.00094 0.59721 0.42028
 C1648 C 0.00038 0.57842 0.43125
 C1649 C -0.01618 0.68754 0.39282
 C1650 C -0.01154 0.59590 0.46250
 C1651 C -0.00921 0.63472 0.41929
 C1652 C -0.01099 0.65121 0.41051
 C1653 C -0.01354 0.67074 0.40076
 C1654 C -0.00491 0.57754 0.45252
 H1655 H -0.01802 0.62853 0.45951
 H1656 H 0.00314 0.59759 0.40392
 H1657 H 0.00550 0.56460 0.42307
 H1658 H -0.01577 0.59585 0.47882
 C1659 C 0.49852 1.09810 -0.07994
 C1660 C 0.49165 1.11611 -0.06978
 C1661 C 0.48635 1.11527 -0.04868
 C1662 C 0.48788 1.09655 -0.03775
 C1663 C 0.48253 1.18831 -0.10729
 C1664 C 0.50007 1.07930 -0.06902
 C1665 C 0.48978 1.13550 -0.08086
 C1666 C 0.48787 1.15199 -0.08962
 C1667 C 0.48520 1.17151 -0.09935
 C1668 C 0.49476 1.07831 -0.04776
 H1669 H 0.50262 1.09858 -0.09630
 H1670 H 0.48098 1.12910 -0.04066
 H1671 H 0.48363 1.09641 -0.02143
 H1672 H 0.50538 1.06558 -0.07724
 C1673 C 0.51276 0.38485 -0.04804
 C1674 C 0.50749 0.38413 -0.06916
 C1675 C 0.50067 0.40221 -0.07925
 C1676 C 0.49913 0.42095 -0.06824
 C1677 C 0.51646 0.31218 -0.10715
 C1678 C 0.51125 0.40351 -0.03701
 C1679 C 0.50935 0.36480 -0.08034
 C1680 C 0.51124 0.34838 -0.08921
 C1681 C 0.51386 0.32893 -0.09908
 C1682 C 0.50442 0.42182 -0.04696
 H1683 H 0.51809 0.37096 -0.04008
 H1684 H 0.49659 0.40183 -0.09562
 H1685 H 0.49386 0.43473 -0.07640
 H1686 H 0.51548 0.40356 -0.02069
 C1687 C 0.01325 -0.11322 0.45216
 C1688 C 0.00730 -0.11412 0.43124
 C1689 C -0.00012 -0.09620 0.42129
 C1690 C -0.00159 -0.07744 0.43226
 C1691 C 0.01617 -0.18610 0.39333
 C1692 C 0.01181 -0.09454 0.46315
 C1693 C 0.00905 -0.13348 0.42010
 C1694 C 0.01089 -0.14992 0.41126
 C1695 C 0.01350 -0.16938 0.40141
 C1696 C 0.00435 -0.07639 0.45335
 H1697 H 0.01906 -0.12699 0.46001
 H1698 H -0.00473 -0.09672 0.40506
 H1699 H -0.00736 -0.06378 0.42422
 H1700 H 0.01656 -0.09435 0.47933
 C1701 C 0.50167 -0.09860 0.57839
 C1702 C 0.49510 -0.11679 0.56835
 C1703 C 0.48961 -0.11617 0.54729
 C1704 C 0.49051 -0.09745 0.53629
 C1705 C 0.48615 -0.18833 0.60697
 C1706 C 0.50260 -0.07981 0.56740
 C1707 C 0.49346 -0.13606 0.57963
 C1708 C 0.49161 -0.15241 0.58863
 C1709 C 0.48891 -0.17172 0.59871
 C1710 C 0.49693 -0.07900 0.54622
 H1711 H 0.50591 -0.09891 0.59472
 H1712 H 0.48447 -0.13015 0.53938
 H1713 H 0.48604 -0.09745 0.52003
 H1714 H 0.50759 -0.06593 0.57554
 C1715 C 0.00070 0.40109 1.07862
 C1716 C -0.00553 0.38297 1.06827
 C1717 C -0.01060 0.38378 1.04711
 C1718 C -0.00962 0.40262 1.03633
 C1719 C -0.01487 0.31093 1.10592
 C1720 C 0.00172 0.42001 1.06785
 C1721 C -0.00726 0.36355 1.07930
 C1722 C -0.00919 0.34708 1.08808
 C1723 C -0.01200 0.32763 1.09788
 C1724 C -0.00353 0.42101 1.04657
 H1725 H 0.00462 0.40064 1.09503
 H1726 H -0.01549 0.36985 1.03895
 H1727 H -0.01376 0.40276 1.01998
 H1728 H 0.00644 0.43385 1.07623
 C1729 C 0.74885 0.32981 0.15165
 C1730 C 0.75455 0.31952 0.13331
 C1731 C 0.75918 0.29827 0.13384
 C1732 C 0.75827 0.28733 0.15260
 C1733 C 0.76368 0.35764 0.06144
 C1734 C 0.74790 0.31889 0.17049
 C1735 C 0.75622 0.33070 0.11396
 C1736 C 0.75809 0.33960 0.09754
 C1737 C 0.76084 0.34953 0.07813
 C1738 C 0.75270 0.29751 0.17121
 H1739 H 0.74528 0.34629 0.15142
 H1740 H 0.76366 0.29016 0.11974
 H1741 H 0.76206 0.27091 0.15252
 H1742 H 0.74359 0.32723 0.18450
 C1743 C 0.24901 0.83025 0.65156
 C1744 C 0.25494 0.82000 0.63326
 C1745 C 0.25973 0.79879 0.63383
 C1746 C 0.25875 0.78785 0.65259
 C1747 C 0.26428 0.85789 0.56129
 C1748 C 0.24800 0.81932 0.67040
 C1749 C 0.25668 0.83118 0.61391
 C1750 C 0.25861 0.84002 0.59747
 C1751 C 0.26141 0.84986 0.57802
 C1752 C 0.25297 0.79798 0.67115
 H1753 H 0.24532 0.84670 0.65130
 H1754 H 0.26438 0.79071 0.61977
 H1755 H 0.26267 0.77146 0.65253
 H1756 H 0.24352 0.82762 0.68437
 C1757 C 0.75330 0.66973 0.65470
 C1758 C 0.74769 0.68006 0.63633
 C1759 C 0.74354 0.70141 0.63675
 C1760 C 0.74479 0.71241 0.65546
 C1761 C 0.73680 0.64201 0.56470
 C1762 C 0.75458 0.68072 0.67348
 C1763 C 0.74556 0.66883 0.61706
 C1764 C 0.74328 0.65993 0.60070
 C1765 C 0.74004 0.65005 0.58134
 C1766 C 0.75021 0.70219 0.67410
 H1767 H 0.75649 0.65318 0.65454
 H1768 H 0.73915 0.70955 0.62264
 H1769 H 0.74133 0.72890 0.65530
 H1770 H 0.75876 0.67236 0.68751
 C1771 C 0.25217 0.16867 0.15376
 C1772 C 0.24647 0.17896 0.13540
 C1773 C 0.24213 0.20027 0.13584
 C1774 C 0.24326 0.21126 0.15455
 C1775 C 0.23594 0.14081 0.06379
 C1776 C 0.25334 0.17965 0.17255
 C1777 C 0.24446 0.16772 0.11613
 C1778 C 0.24226 0.15880 0.09977
 C1779 C 0.23912 0.14889 0.08042
 C1780 C 0.24877 0.20108 0.17318
 H1781 H 0.25551 0.15214 0.15359
 H1782 H 0.23767 0.20838 0.12173
 H1783 H 0.23966 0.22772 0.15441
 H1784 H 0.25760 0.17131 0.18657
 C1785 C 0.25800 0.20314 0.86542
 C1786 C 0.25334 0.18190 0.86576
 C1787 C 0.24726 0.17186 0.84739
 C1788 C 0.24602 0.18301 0.82870
 C1789 C 0.26406 0.14258 0.93676
 C1790 C 0.25680 0.21431 0.84680
 C1791 C 0.25541 0.17044 0.88491
 C1792 C 0.25765 0.16127 0.90113
 C1793 C 0.26085 0.15100 0.92030
 C1794 C 0.25091 0.20437 0.82816
 H1795 H 0.26276 0.21106 0.87954
 H1796 H 0.24366 0.15539 0.84748
 H1797 H 0.24146 0.17485 0.81467
 H1798 H 0.26066 0.23071 0.84701
 C1799 C 0.75835 0.70343 0.36576
 C1800 C 0.75377 0.68217 0.36616
 C1801 C 0.74780 0.67204 0.34781
 C1802 C 0.74658 0.68312 0.32907
 C1803 C 0.76455 0.64332 0.43742
 C1804 C 0.75717 0.71452 0.34710
 C1805 C 0.75584 0.67079 0.38536
 C1806 C 0.75809 0.66173 0.40165
 C1807 C 0.76130 0.65161 0.42089
 C1808 C 0.75139 0.70450 0.32848
 H1809 H 0.76304 0.71141 0.37987
 H1810 H 0.74427 0.65556 0.34794
 H1811 H 0.74211 0.67490 0.31505
 H1812 H 0.76097 0.73094 0.34728
 C1813 C 0.23719 0.79816 0.36221
 C1814 C 0.24238 0.81928 0.36276
 C1815 C 0.24893 0.82929 0.34454
 C1816 C 0.25027 0.81820 0.32583
 C1817 C 0.23330 0.85751 0.43455
 C1818 C 0.23851 0.78705 0.34358
 C1819 C 0.24063 0.83055 0.38204
 C1820 C 0.23877 0.83948 0.39844
 C1821 C 0.23607 0.84940 0.41785
 C1822 C 0.24506 0.79692 0.32513
 H1823 H 0.23206 0.79026 0.37621
 H1824 H 0.25293 0.84566 0.34478
 H1825 H 0.25533 0.82630 0.31193
 H1826 H 0.23435 0.77073 0.34367
 C1827 C 0.73996 0.29628 0.86400
 C1828 C 0.74438 0.31758 0.86440
 C1829 C 0.75032 0.32775 0.84606
 C1830 C 0.75164 0.31669 0.82734
 C1831 C 0.73351 0.35619 0.93572
 C1832 C 0.74124 0.28520 0.84535
 C1833 C 0.74221 0.32891 0.88360
 C1834 C 0.73991 0.33793 0.89989
 C1835 C 0.73669 0.34797 0.91915
 C1836 C 0.74699 0.29528 0.82674
 H1837 H 0.73531 0.28826 0.87809
 H1838 H 0.75373 0.34426 0.84620
 H1839 H 0.75608 0.32494 0.81332
 H1840 H 0.73756 0.26876 0.84552
 C1841 C 0.82959 0.34787 0.25192
 C1842 C 0.81949 0.36613 0.24563
 C1843 C 0.79839 0.36556 0.24027
 C1844 C 0.78743 0.34683 0.24102
 C1845 C 0.85758 0.43790 0.23662
 C1846 C 0.81864 0.32906 0.25271
 C1847 C 0.83071 0.38543 0.24408
 C1848 C 0.83961 0.40183 0.24226
 C1849 C 0.84951 0.42122 0.23951
 C1850 C 0.79743 0.32831 0.24717
 H1851 H 0.84595 0.34815 0.25605
 H1852 H 0.79043 0.37959 0.23533
 H1853 H 0.77114 0.34688 0.23665
 H1854 H 0.82683 0.31512 0.25748
 C1855 C 0.33026 0.84819 0.75076
 C1856 C 0.31996 0.86653 0.74508
 C1857 C 0.29868 0.86605 0.74045
 C1858 C 0.28773 0.84732 0.74133
 C1859 C 0.35792 0.93834 0.73581
 C1860 C 0.31932 0.82938 0.75168
 C1861 C 0.33114 0.88585 0.74342
 C1862 C 0.34002 0.90225 0.74152
 C1863 C 0.34988 0.92166 0.73872
 C1864 C 0.29792 0.82871 0.74687
 H1865 H 0.34675 0.84839 0.75432
 H1866 H 0.29057 0.88016 0.73599
 H1867 H 0.27130 0.84743 0.73754
 H1868 H 0.32766 0.81537 0.75597
 C1869 C 0.16974 0.84569 0.24952
 C1870 C 0.17962 0.86371 0.25675
 C1871 C 0.20061 0.86297 0.26254
 C1872 C 0.21172 0.84434 0.26110
 C1873 C 0.14133 0.93550 0.26575
 C1874 C 0.18084 0.82699 0.24805
 C1875 C 0.16835 0.88301 0.25851
 C1876 C 0.15941 0.89940 0.26036
 C1877 C 0.14946 0.91881 0.26301
 C1878 C 0.20199 0.82610 0.25382
 H1879 H 0.15348 0.84609 0.24504
 H1880 H 0.20840 0.87681 0.26820
 H1881 H 0.22794 0.84428 0.26571
 H1882 H 0.17285 0.81326 0.24242
 C1883 C 0.66970 0.34539 0.74844
 C1884 C 0.68011 0.36371 0.75397
 C1885 C 0.70150 0.36321 0.75803
 C1886 C 0.71245 0.34448 0.75678
 C1887 C 0.64251 0.43557 0.76480
 C1888 C 0.68064 0.32658 0.74714
 C1889 C 0.66895 0.38302 0.75610
 C1890 C 0.66015 0.39943 0.75837
 C1891 C 0.65041 0.41886 0.76159
 C1892 C 0.70215 0.32589 0.75143
 H1893 H 0.65312 0.34560 0.74531
 H1894 H 0.70970 0.37729 0.76237
 H1895 H 0.72897 0.34459 0.76016
 H1896 H 0.67222 0.31258 0.74302
 C1897 C 0.67325 0.65226 0.75358
 C1898 C 0.68332 0.63399 0.74728
 C1899 C 0.70453 0.63446 0.74236
 C1900 C 0.71561 0.65311 0.74352
 C1901 C 0.64446 0.56279 0.73659
 C1902 C 0.68433 0.67098 0.75478
 C1903 C 0.67195 0.61480 0.74523
 C1904 C 0.66288 0.59853 0.74300
 C1905 C 0.65275 0.57931 0.73981
 C1906 C 0.70564 0.67165 0.74963
 H1907 H 0.65682 0.65207 0.75738
 H1908 H 0.71247 0.62043 0.73742
 H1909 H 0.73198 0.65299 0.73944
 H1910 H 0.67615 0.68494 0.75951
 C1911 C 0.17203 0.15057 0.25246
 C1912 C 0.18219 0.13238 0.24607
 C1913 C 0.20338 0.13299 0.24113
 C1914 C 0.21437 0.15169 0.24236
 C1915 C 0.14354 0.06104 0.23542
 C1916 C 0.18301 0.16935 0.25373
 C1917 C 0.17091 0.11314 0.24399
 C1918 C 0.16191 0.09683 0.24175
 C1919 C 0.15182 0.07758 0.23858
 C1920 C 0.20431 0.17016 0.24857
 H1921 H 0.15560 0.15028 0.25628
 H1922 H 0.21140 0.11902 0.23613
 H1923 H 0.23073 0.15168 0.23827
 H1924 H 0.17476 0.18324 0.25853
 C1925 C 0.32821 0.15474 0.74926
 C1926 C 0.31797 0.13638 0.75494
 C1927 C 0.29664 0.13677 0.75929
 C1928 C 0.28559 0.15545 0.75817
 C1929 C 0.35669 0.06509 0.76529
 C1930 C 0.31717 0.17349 0.74810
 C1931 C 0.32928 0.11717 0.75693
 C1932 C 0.33832 0.10087 0.75909
 C1933 C 0.34842 0.08163 0.76218
 C1934 C 0.29573 0.17408 0.75267
 H1935 H 0.34474 0.15460 0.74591
 H1936 H 0.28857 0.12266 0.76375
 H1937 H 0.26912 0.15528 0.76178
 H1938 H 0.32548 0.18751 0.74384
 C1939 C 0.82870 0.65466 0.24966
 C1940 C 0.81839 0.63631 0.25526
 C1941 C 0.79705 0.63674 0.25952
 C1942 C 0.78604 0.65544 0.25839
 C1943 C 0.85669 0.56482 0.26579
 C1944 C 0.81770 0.67343 0.24849
 C1945 C 0.82965 0.61706 0.25727
 C1946 C 0.83859 0.60072 0.25947
 C1947 C 0.84855 0.58141 0.26262
 C1948 C 0.79624 0.67406 0.25297
 H1949 H 0.84525 0.65449 0.24638
 H1950 H 0.78893 0.62263 0.26391
 H1951 H 0.76955 0.65529 0.26193
 H1952 H 0.82605 0.68746 0.24430
 C1953 C 0.84769 0.24862 0.16943
 C1954 C 0.86604 0.25466 0.17953
 C1955 C 0.86562 0.25953 0.20075
 C1956 C 0.84695 0.25854 0.21182
 C1957 C 0.93758 0.26405 0.14094
 C1958 C 0.82894 0.24760 0.18049
 C1959 C 0.88528 0.25641 0.16820
 C1960 C 0.90162 0.25835 0.15918
 C1961 C 0.92095 0.26117 0.14913
 C1962 C 0.82834 0.25266 0.20182
 H1963 H 0.84784 0.24486 0.15298
 H1964 H 0.87973 0.26426 0.20871
 H1965 H 0.84711 0.26254 0.22821
 H1966 H 0.81493 0.24305 0.17229
 C1967 C 0.36592 0.75966 0.70133
 C1968 C 0.36649 0.75445 0.68020
 C1969 C 0.34822 0.74823 0.67006
 C1970 C 0.32939 0.74738 0.68101
 C1971 C 0.43844 0.76366 0.64236
 C1972 C 0.34717 0.75885 0.71228
 C1973 C 0.38582 0.75606 0.66900
 C1974 C 0.40226 0.75795 0.66015
 C1975 C 0.42171 0.76075 0.65034
 C1976 C 0.32863 0.75279 0.70225
 H1977 H 0.37997 0.76453 0.70932
 H1978 H 0.34849 0.74422 0.65368
 H1979 H 0.31543 0.74269 0.67279
 H1980 H 0.34723 0.76311 0.72860
 C1981 C 0.36362 0.24218 0.79848
 C1982 C 0.36415 0.24704 0.81969
 C1983 C 0.34588 0.25329 0.82982
 C1984 C 0.32711 0.25451 0.81878
 C1985 C 0.43569 0.23632 0.85810
 C1986 C 0.34492 0.24336 0.78743
 C1987 C 0.38340 0.24498 0.83101
 C1988 C 0.39974 0.24275 0.83998
 C1989 C 0.41907 0.23954 0.84997
 C1990 C 0.32638 0.24943 0.79745
 H1991 H 0.37765 0.23729 0.79049
 H1992 H 0.34611 0.25704 0.84626
 H1993 H 0.31315 0.25920 0.82699
 H1994 H 0.34500 0.23934 0.77105
 C1995 C 0.86415 0.74224 0.29870
 C1996 C 0.86468 0.74705 0.31993
 C1997 C 0.84642 0.75327 0.33008
 C1998 C 0.82763 0.75449 0.31905
 C1999 C 0.93638 0.73643 0.35807
 C2000 C 0.84544 0.74342 0.28767
 C2001 C 0.88395 0.74501 0.33121
 C2002 C 0.90033 0.74278 0.34013
 C2003 C 0.91971 0.73961 0.35002
 C2004 C 0.82691 0.74945 0.29771
 H2005 H 0.87818 0.73737 0.29070
 H2006 H 0.84665 0.75698 0.34653
 H2007 H 0.81368 0.75915 0.32728
 H2008 H 0.84552 0.73943 0.27128
 C2009 C 0.13518 0.76176 0.29721
 C2010 C 0.13470 0.75651 0.31834
 C2011 C 0.15294 0.74987 0.32828
 C2012 C 0.17161 0.74850 0.31712
 C2013 C 0.06331 0.76579 0.35730
 C2014 C 0.15378 0.76041 0.28603
 C2015 C 0.11548 0.75830 0.32972
 C2016 C 0.09917 0.76020 0.33881
 C2017 C 0.07988 0.76295 0.34897
 C2018 C 0.17225 0.75378 0.29583
 H2019 H 0.12117 0.76697 0.28937
 H2020 H 0.15276 0.74582 0.34466
 H2021 H 0.18552 0.74337 0.32517
 H2022 H 0.15365 0.76463 0.26970
 C2023 C 0.63440 0.25798 0.79729
 C2024 C 0.63399 0.25318 0.81852
 C2025 C 0.65228 0.24683 0.82857
 C2026 C 0.67097 0.24548 0.81743
 C2027 C 0.56287 0.26432 0.85751
 C2028 C 0.65302 0.25666 0.78614
 C2029 C 0.61484 0.25540 0.82995
 C2030 C 0.59859 0.25775 0.83905
 C2031 C 0.57938 0.26105 0.84921
 C2032 C 0.67159 0.25051 0.79609
 H2033 H 0.62035 0.26295 0.78937
 H2034 H 0.65214 0.24313 0.84503
 H2035 H 0.68495 0.24073 0.82559
 H2036 H 0.65286 0.26065 0.76976
 C2037 C 0.65541 0.75076 0.67217
 C2038 C 0.63707 0.74487 0.68236
 C2039 C 0.63752 0.74031 0.70365
 C2040 C 0.65621 0.74143 0.71470
 C2041 C 0.56557 0.73443 0.64391
 C2042 C 0.67418 0.75192 0.68321
 C2043 C 0.61783 0.74288 0.67105
 C2044 C 0.60149 0.74071 0.66208
 C2045 C 0.58217 0.73758 0.65208
 C2046 C 0.67481 0.74714 0.70461
 H2047 H 0.65524 0.75428 0.65566
 H2048 H 0.62342 0.73569 0.71168
 H2049 H 0.65607 0.73766 0.73114
 H2050 H 0.68819 0.75634 0.67494
 C2051 C 0.15369 0.24976 0.17131
 C2052 C 0.13538 0.24359 0.18137
 C2053 C 0.13582 0.23863 0.20257
 C2054 C 0.15450 0.23966 0.21367
 C2055 C 0.06410 0.23389 0.14230
 C2056 C 0.17244 0.25083 0.18239
 C2057 C 0.11616 0.24178 0.16999
 C2058 C 0.09987 0.23977 0.16088
 C2059 C 0.08063 0.23686 0.15067
 C2060 C 0.17308 0.24568 0.20371
 H2061 H 0.15352 0.25359 0.15487
 H2062 H 0.12174 0.23380 0.21050
 H2063 H 0.15437 0.23560 0.23004
 H2064 H 0.18642 0.25549 0.17422
 C2065 C -0.04611 0.99598 0.88402
 C2066 C -0.06663 1.00334 0.88373
 C2067 C -0.07666 1.00808 0.90247
 C2068 C -0.06614 1.00579 0.92139
 C2069 C -0.10478 1.01641 0.81232
 C2070 C -0.03554 0.99366 0.90294
 C2071 C -0.07722 1.00661 0.86422
 C2072 C -0.08605 1.00961 0.84791
 C2073 C -0.09626 1.01328 0.82877
 C2074 C -0.04537 0.99874 0.92187
 H2075 H -0.03819 0.99227 0.86959
 H2076 H -0.09254 1.01379 0.90243
 H2077 H -0.07423 1.00984 0.93562
 H2078 H -0.01958 0.98822 0.90270
 C2079 C 0.45371 0.49544 0.38448
 C2080 C 0.43312 0.50261 0.38425
 C2081 C 0.42315 0.50746 0.40298
 C2082 C 0.43379 0.50546 0.42187
 C2083 C 0.39434 0.51502 0.31311
 C2084 C 0.46440 0.49341 0.40337
 C2085 C 0.42239 0.50559 0.36478
 C2086 C 0.41343 0.50840 0.34852
 C2087 C 0.40304 0.51192 0.32946
 C2088 C 0.45462 0.49858 0.42230
 H2089 H 0.46158 0.49166 0.37005
 H2090 H 0.40722 0.51303 0.40298
 H2091 H 0.42574 0.50956 0.43610
 H2092 H 0.48040 0.48809 0.40309
 C2093 C 0.54711 0.00519 0.38401
 C2094 C 0.56794 -0.00123 0.38385
 C2095 C 0.57812 -0.00547 0.40264
 C2096 C 0.56741 -0.00375 0.42150
 C2097 C 0.60585 -0.01455 0.31249
 C2098 C 0.53634 0.00693 0.40286
 C2099 C 0.57860 -0.00435 0.36440
 C2100 C 0.58740 -0.00737 0.34810
 C2101 C 0.59748 -0.01119 0.32895
 C2102 C 0.54629 0.00219 0.42183
 H2103 H 0.53907 0.00849 0.36954
 H2104 H 0.59424 -0.01046 0.40270
 H2105 H 0.57559 -0.00749 0.43578
 H2106 H 0.52013 0.01154 0.40251
 C2107 C 0.07687 0.49504 0.90303
 C2108 C 0.06673 0.49944 0.88427
 C2109 C 0.04595 0.50604 0.88445
 C2110 C 0.03520 0.50779 0.90332
 C2111 C 0.10511 0.48607 0.81319
 C2112 C 0.06618 0.49676 0.92190
 C2113 C 0.07741 0.49633 0.86482
 C2114 C 0.08629 0.49331 0.84858
 C2115 C 0.09655 0.48946 0.82954
 C2116 C 0.04512 0.50289 0.92226
 H2117 H 0.09295 0.48992 0.90307
 H2118 H 0.03794 0.50947 0.87000
 H2119 H 0.01902 0.51255 0.90300
 H2120 H 0.07435 0.49291 0.93615
 C2121 C 0.07758 0.50858 0.59792
 C2122 C 0.06741 0.50436 0.61669
 C2123 C 0.04671 0.49754 0.61650
 C2124 C 0.03610 0.49527 0.59760
 C2125 C 0.10558 0.51792 0.68789
 C2126 C 0.06703 0.50634 0.57902
 C2127 C 0.07802 0.50769 0.63615
 C2128 C 0.08686 0.51078 0.65242
 C2129 C 0.09707 0.51461 0.67149
 C2130 C 0.04608 0.49986 0.57863
 H2131 H 0.09360 0.51388 0.59789
 H2132 H 0.03868 0.49424 0.63096
 H2133 H 0.02000 0.49027 0.59790
 H2134 H 0.07522 0.51000 0.56474
 C2135 C 0.54663 0.99744 0.11606
 C2136 C 0.56725 1.00449 0.11644
 C2137 C 0.57743 1.00914 0.09777
 C2138 C 0.56696 1.00709 0.07879
 C2139 C 0.60506 1.01745 0.18796
 C2140 C 0.53611 0.99535 0.09710
 C2141 C 0.57776 1.00760 0.13599
 C2142 C 0.58651 1.01053 0.15234
 C2143 C 0.59661 1.01421 0.17151
 C2144 C 0.54609 1.00035 0.07823
 H2145 H 0.53860 0.99381 0.13044
 H2146 H 0.59338 1.01463 0.09788
 H2147 H 0.57516 1.01106 0.06461
 H2148 H 0.52008 0.99014 0.09726
 C2149 C 0.45222 0.50302 0.11629
 C2150 C 0.43169 0.49570 0.11657
 C2151 C 0.42166 0.49088 0.09785
 C2152 C 0.43219 0.49303 0.07893
 C2153 C 0.39379 0.48252 0.18799
 C2154 C 0.46280 0.50519 0.09737
 C2155 C 0.42112 0.49250 0.13608
 C2156 C 0.41235 0.48951 0.15240
 C2157 C 0.40223 0.48578 0.17154
 C2158 C 0.45297 0.50003 0.07846
 H2159 H 0.46014 0.50678 0.13070
 H2160 H 0.40578 0.48519 0.09788
 H2161 H 0.42411 0.48892 0.06470
 H2162 H 0.47876 0.51061 0.09762
 C2163 C -0.07759 -0.00717 0.59881
 C2164 C -0.06710 -0.00319 0.61749
 C2165 C -0.04636 0.00348 0.61705
 C2166 C -0.03602 0.00584 0.59802
 C2167 C -0.10435 -0.01688 0.68917
 C2168 C -0.06731 -0.00483 0.57978
 C2169 C -0.07745 -0.00657 0.63708
 C2170 C -0.08607 -0.00969 0.65347
 C2171 C -0.09603 -0.01354 0.67268
 C2172 C -0.04632 0.00151 0.57914
 H2173 H -0.09364 -0.01235 0.59897
 H2174 H -0.03808 0.00659 0.63142
 H2175 H -0.01989 0.01074 0.59813
 H2176 H -0.07575 -0.00829 0.56559
 C2177 C -0.09768 0.92235 1.00917
 C2178 C -0.11636 0.93265 1.00473
 C2179 C -0.11595 0.95326 0.99769
 C2180 C -0.09695 0.96365 0.99540
 C2181 C -0.18804 0.89527 1.01789
 C2182 C -0.07868 0.93269 1.00690
 C2183 C -0.13593 0.92225 1.00801
 C2184 C -0.15231 0.91359 1.01102
 C2185 C -0.17152 0.90361 1.01472
 C2186 C -0.07808 0.95355 1.00018
 H2187 H -0.09782 0.90640 1.01464
 H2188 H -0.13033 0.96138 0.99422
 H2189 H -0.09709 0.97968 0.99020
 H2190 H -0.06449 0.92440 1.01072
 C2191 C 0.40261 0.42204 0.50894
 C2192 C 0.38394 0.43226 0.50431
 C2193 C 0.38433 0.45289 0.49732
 C2194 C 0.40331 0.46337 0.49526
 C2195 C 0.31225 0.39470 0.51685
 C2196 C 0.42159 0.43246 0.50690
 C2197 C 0.36437 0.42178 0.50735
 C2198 C 0.34799 0.41309 0.51019
 C2199 C 0.32876 0.40306 0.51374
 C2200 C 0.42218 0.45333 0.50021
 H2201 H 0.40248 0.40607 0.51437
 H2202 H 0.36996 0.46096 0.49372
 H2203 H 0.40315 0.47940 0.49009
 H2204 H 0.43577 0.42423 0.51084
 C2205 C 0.38266 0.54586 0.00272
 C2206 C 0.38235 0.56651 -0.00423
 C2207 C 0.40108 0.57669 -0.00863
 C2208 C 0.42003 0.56621 -0.00643
 C2209 C 0.31103 0.60460 -0.01760
 C2210 C 0.40160 0.53533 0.00495
 C2211 C 0.36284 0.57707 -0.00746
 C2212 C 0.34653 0.58587 -0.01049
 C2213 C 0.32742 0.59607 -0.01428
 C2214 C 0.42053 0.54532 0.00021
 H2215 H 0.36824 0.53782 0.00616
 H2216 H 0.40103 0.59267 -0.01403
 H2217 H 0.43426 0.57442 -0.01021
 H2218 H 0.40138 0.51928 0.01007
 C2219 C -0.11723 0.04801 0.50376
 C2220 C -0.11753 0.06849 0.49635
 C2221 C -0.09881 0.07853 0.49158
 C2222 C -0.07988 0.06804 0.49387
 C2223 C -0.18898 0.10622 0.48265
 C2224 C -0.09830 0.03747 0.50608
 C2225 C -0.13705 0.07901 0.49298
 C2226 C -0.15337 0.08774 0.48985
 C2227 C -0.17252 0.09782 0.48599
 C2228 C -0.07939 0.04730 0.50094
 H2229 H -0.13165 0.04009 0.50748
 H2230 H -0.09887 0.09438 0.48582
 H2231 H -0.06566 0.07612 0.48978
 H2232 H -0.09853 0.02153 0.51155
 C2233 C 0.59662 0.07667 0.50461
 C2234 C 0.61540 0.06650 0.50038
 C2235 C 0.61522 0.04574 0.49378
 C2236 C 0.59634 0.03505 0.49184
 C2237 C 0.68653 0.10470 0.51428
 C2238 C 0.57774 0.06603 0.50269
 C2239 C 0.63486 0.07713 0.50367
 C2240 C 0.65111 0.08598 0.50681
 C2241 C 0.67017 0.09619 0.51079
 C2242 C 0.57737 0.04499 0.49656
 H2243 H 0.59658 0.09273 0.50973
 H2244 H 0.62969 0.03771 0.49049
 H2245 H 0.59667 0.01889 0.48708
 H2246 H 0.56347 0.07421 0.50642
 C2247 C 0.11473 0.54669 0.99422
 C2248 C 0.11507 0.56738 1.00099
 C2249 C 0.09639 0.57754 1.00569
 C2250 C 0.07746 0.56694 1.00405
 C2251 C 0.18650 0.60533 1.01385
 C2252 C 0.09581 0.53603 0.99255
 C2253 C 0.13460 0.57796 1.00394
 C2254 C 0.15093 0.58675 1.00683
 C2255 C 0.17007 0.59688 1.01053
 C2256 C 0.07695 0.54596 0.99771
 H2257 H 0.12912 0.53867 0.99057
 H2258 H 0.09647 0.59355 1.01095
 H2259 H 0.06328 0.57510 1.00810
 H2260 H 0.09602 0.51992 0.98763
 C2261 C 0.09734 0.42268 0.49140
 C2262 C 0.11614 0.43289 0.49544
 C2263 C 0.11598 0.45363 0.50207
 C2264 C 0.09709 0.46424 0.50438
 C2265 C 0.18740 0.39449 0.48274
 C2266 C 0.07844 0.43323 0.49369
 C2267 C 0.13560 0.42222 0.49223
 C2268 C 0.15187 0.41334 0.48931
 C2269 C 0.17098 0.40307 0.48575
 C2270 C 0.07808 0.45422 0.50003
 H2271 H 0.09729 0.40663 0.48626
 H2272 H 0.13046 0.46169 0.50523
 H2273 H 0.09741 0.48036 0.50928
 H2274 H 0.06415 0.42500 0.49021
 C2275 C 0.59827 0.92403 -0.00883
 C2276 C 0.61699 0.93433 -0.00468
 C2277 C 0.61668 0.95509 0.00191
 C2278 C 0.59772 0.96561 0.00407
 C2279 C 0.68834 0.89590 -0.01682
 C2280 C 0.57931 0.93448 -0.00669
 C2281 C 0.63651 0.92373 -0.00771
 C2282 C 0.65281 0.91485 -0.01050
 C2283 C 0.67192 0.90454 -0.01391
 C2284 C 0.57879 0.95547 -0.00038
 H2285 H 0.59833 0.90796 -0.01394
 H2286 H 0.63110 0.96322 0.00515
 H2287 H 0.59792 0.98173 0.00895
 H2288 H 0.56508 0.92616 -0.01023
 C2289 C 0.00895 0.90099 0.92332
 C2290 C 0.00493 0.88229 0.93372
 C2291 C -0.00171 0.88265 0.95447
 C2292 C -0.00402 0.90162 0.96490
 C2293 C 0.01843 0.81089 0.89598
 C2294 C 0.00667 0.91996 0.93370
 C2295 C 0.00825 0.86276 0.92326
 C2296 C 0.01132 0.84644 0.91454
 C2297 C 0.01513 0.82731 0.90444
 C2298 C 0.00034 0.92052 0.95470
 H2299 H 0.01411 0.90089 0.90726
 H2300 H -0.00485 0.86826 0.96267
 H2301 H -0.00891 0.90144 0.98104
 H2302 H 0.01015 0.93417 0.92533
 C2303 C 0.50883 0.40146 0.42309
 C2304 C 0.50477 0.38271 0.43336
 C2305 C 0.49824 0.38293 0.45415
 C2306 C 0.49609 0.40182 0.46474
 C2307 C 0.51767 0.31159 0.39495
 C2308 C 0.50670 0.42036 0.43362
 C2309 C 0.50791 0.36326 0.42272
 C2310 C 0.51084 0.34700 0.41384
 C2311 C 0.51449 0.32795 0.40356
 C2312 C 0.50048 0.42078 0.45466
 H2313 H 0.51390 0.40147 0.40700
 H2314 H 0.49507 0.36848 0.46225
 H2315 H 0.49128 0.40154 0.48090
 H2316 H 0.51019 0.43461 0.42534
 C2317 C 0.00272 0.38410 0.54681
 C2318 C -0.00453 0.38380 0.56736
 C2319 C -0.00915 0.40251 0.57747
 C2320 C -0.00685 0.42144 0.56700
 C2321 C -0.01782 0.31235 0.60515
 C2322 C 0.00504 0.40302 0.53629
 C2323 C -0.00784 0.36429 0.57789
 C2324 C -0.01089 0.34798 0.58664
 C2325 C -0.01462 0.32882 0.59673
 C2326 C 0.00009 0.42193 0.54619
 H2327 H 0.00633 0.36969 0.53883
 H2328 H -0.01478 0.40246 0.59337
 H2329 H -0.01081 0.43565 0.57514
 H2330 H 0.01040 0.40279 0.52030
 C2331 C 0.49218 0.90275 0.07647
 C2332 C 0.49700 0.88413 0.06630
 C2333 C 0.50421 0.88457 0.04574
 C2334 C 0.50628 0.90354 0.03526
 C2335 C 0.48396 0.81269 0.10413
 C2336 C 0.49422 0.92173 0.06605
 C2337 C 0.49388 0.86457 0.07677
 C2338 C 0.49094 0.84823 0.08551
 C2339 C 0.48723 0.82909 0.09563
 C2340 C 0.50111 0.92236 0.04524
 H2341 H 0.48657 0.90259 0.09238
 H2342 H 0.50796 0.87023 0.03771
 H2343 H 0.51161 0.90343 0.01927
 H2344 H 0.49011 0.93587 0.07425
 C2345 C 0.50743 0.59735 0.07729
 C2346 C 0.50337 0.61607 0.06694
 C2347 C 0.49677 0.61576 0.04616
 C2348 C 0.49454 0.59681 0.03566
 C2349 C 0.51631 0.68747 0.10491
 C2350 C 0.50522 0.57840 0.06685
 C2351 C 0.50655 0.63559 0.07749
 C2352 C 0.50950 0.65190 0.08627
 C2353 C 0.51314 0.67104 0.09643
 C2354 C 0.49893 0.57789 0.04583
 H2355 H 0.51255 0.59741 0.09337
 H2356 H 0.49360 0.63017 0.03799
 H2357 H 0.48968 0.59703 0.01952
 H2358 H 0.50872 0.56418 0.07520
 C2359 C -0.00362 0.11772 0.54640
 C2360 C 0.00339 0.11809 0.56704
 C2361 C 0.00789 0.09942 0.57729
 C2362 C 0.00570 0.08045 0.56687
 C2363 C 0.01611 0.18952 0.60501
 C2364 C -0.00583 0.09876 0.53593
 C2365 C 0.00653 0.13762 0.57756
 C2366 C 0.00944 0.15395 0.58634
 C2367 C 0.01302 0.17309 0.59650
 C2368 C -0.00101 0.07989 0.54598
 H2369 H -0.00714 0.13210 0.53831
 H2370 H 0.01333 0.09952 0.59326
 H2371 H 0.00955 0.06627 0.57513
 H2372 H -0.01101 0.09893 0.51988
 C2373 C 0.50540 0.11443 0.45180
 C2374 C 0.49851 0.11475 0.43112
 C2375 C 0.49382 0.09608 0.42098
 C2376 C 0.49558 0.07717 0.43159
 C2377 C 0.48527 0.18637 0.39372
 C2378 C 0.50718 0.09553 0.46246
 C2379 C 0.49540 0.13427 0.42058
 C2380 C 0.49241 0.15063 0.41190
 C2381 C 0.48861 0.16985 0.40196
 C2382 C 0.50201 0.07668 0.45256
 H2383 H 0.50905 0.12881 0.45980
 H2384 H 0.48846 0.09616 0.40498
 H2385 H 0.49150 0.06299 0.42345
 H2386 H 0.51218 0.09575 0.47856
 C2387 C 0.00589 0.61517 0.95334
 C2388 C -0.00062 0.61559 0.93254
 C2389 C -0.00507 0.59695 0.92222
 C2390 C -0.00348 0.57799 0.93276
 C2391 C -0.01365 0.68737 0.89528
 C2392 C 0.00751 0.59622 0.96393
 C2393 C -0.00363 0.63517 0.92205
 C2394 C -0.00656 0.65157 0.91341
 C2395 C -0.01031 0.67083 0.90351
 C2396 C 0.00256 0.57740 0.95385
 H2397 H 0.00936 0.62952 0.96148
 H2398 H -0.01015 0.59710 0.90612
 H2399 H -0.00738 0.56384 0.92448
 H2400 H 0.01221 0.59637 0.98013
 C2401 C 0.24464 0.70261 0.86452
 C2402 C 0.25069 0.68169 0.86452
 C2403 C 0.25465 0.67158 0.84565
 C2404 C 0.25302 0.68244 0.82686
 C2405 C 0.26382 0.64272 0.93539
 C2406 C 0.24299 0.71353 0.84574
 C2407 C 0.25372 0.67081 0.88389
 C2408 C 0.25667 0.66179 0.90008
 C2409 C 0.26046 0.65139 0.91908
 C2410 C 0.24745 0.70364 0.82669
 H2411 H 0.24157 0.71060 0.87905
 H2412 H 0.25935 0.65539 0.84547
 H2413 H 0.25653 0.67430 0.81253
 H2414 H 0.23866 0.72981 0.84620
 C2415 C 0.74453 0.20302 0.36494
 C2416 C 0.75111 0.18226 0.36507
 C2417 C 0.75553 0.17222 0.34627
 C2418 C 0.75381 0.18298 0.32743
 C2419 C 0.76440 0.14355 0.43607
 C2420 C 0.74278 0.21385 0.34612
 C2421 C 0.75417 0.17149 0.38450
 C2422 C 0.75714 0.16253 0.40073
 C2423 C 0.76097 0.15219 0.41975
 C2424 C 0.74767 0.20403 0.32713
 H2425 H 0.74108 0.21096 0.37942
 H2426 H 0.76065 0.15615 0.34618
 H2427 H 0.75767 0.17490 0.31316
 H2428 H 0.73800 0.23001 0.34649
 C2429 C 0.25631 0.29593 0.36671
 C2430 C 0.24982 0.31673 0.36669
 C2431 C 0.24567 0.32675 0.34780
 C2432 C 0.24754 0.31592 0.32903
 C2433 C 0.23561 0.35591 0.43720
 C2434 C 0.25821 0.28505 0.34794
 C2435 C 0.24655 0.32758 0.38603
 C2436 C 0.24337 0.33663 0.40216
 C2437 C 0.23927 0.34712 0.42103
 C2438 C 0.25357 0.29484 0.32887
 H2439 H 0.25954 0.28802 0.38126
 H2440 H 0.24062 0.34284 0.34760
 H2441 H 0.24388 0.32400 0.31468
 H2442 H 0.26289 0.26887 0.34842
 C2443 C 0.75782 0.79720 0.86753
 C2444 C 0.75145 0.81803 0.86745
 C2445 C 0.74756 0.82809 0.84853
 C2446 C 0.74956 0.81726 0.82977
 C2447 C 0.73664 0.85718 0.93785
 C2448 C 0.75986 0.78631 0.84877
 C2449 C 0.74800 0.82887 0.88676
 C2450 C 0.74466 0.83792 0.90286
 C2451 C 0.74041 0.84841 0.92170
 C2452 C 0.75546 0.79614 0.82966
 H2453 H 0.76085 0.78926 0.88211
 H2454 H 0.74261 0.84420 0.84828
 H2455 H 0.74609 0.82536 0.81539
 H2456 H 0.76442 0.77010 0.84929
 C2457 C 0.75359 0.83114 0.15416
 C2458 C 0.74964 0.82101 0.13530
 C2459 C 0.74328 0.80018 0.13533
 C2460 C 0.74137 0.78936 0.15414
 C2461 C 0.76440 0.85895 0.06422
 C2462 C 0.75170 0.82037 0.17298
 C2463 C 0.75306 0.83171 0.11590
 C2464 C 0.75637 0.84051 0.09966
 C2465 C 0.76062 0.85060 0.08060
 C2466 C 0.74586 0.79924 0.17319
 H2467 H 0.75853 0.84725 0.15431
 H2468 H 0.74021 0.79218 0.12080
 H2469 H 0.73684 0.77313 0.15370
 H2470 H 0.75525 0.82850 0.18731
 C2471 C 0.25317 0.33102 0.65383
 C2472 C 0.24895 0.32090 0.63502
 C2473 C 0.24238 0.30015 0.63514
 C2474 C 0.24050 0.28938 0.65398
 C2475 C 0.26364 0.35828 0.56364
 C2476 C 0.25131 0.32031 0.67268
 C2477 C 0.25235 0.33150 0.61556
 C2478 C 0.25564 0.34019 0.59925
 C2479 C 0.25986 0.35009 0.58010
 C2480 C 0.24525 0.29925 0.67297
 H2481 H 0.25829 0.34709 0.65391
 H2482 H 0.23910 0.29215 0.62065
 H2483 H 0.23579 0.27321 0.65360
 H2484 H 0.25506 0.32842 0.68698
 C2485 C 0.75480 0.19997 0.63349
 C2486 C 0.74829 0.17919 0.63337
 C2487 C 0.74424 0.16903 0.65220
 C2488 C 0.74621 0.17972 0.67106
 C2489 C 0.73401 0.14164 0.56197
 C2490 C 0.75680 0.21071 0.65233
 C2491 C 0.74488 0.16858 0.61392
 C2492 C 0.74163 0.15986 0.59762
 C2493 C 0.73756 0.14989 0.57845
 C2494 C 0.75223 0.20079 0.67135
 H2495 H 0.75797 0.20800 0.61899
 H2496 H 0.73917 0.15295 0.65230
 H2497 H 0.74259 0.17156 0.68536
 H2498 H 0.76147 0.22689 0.65194
 C2499 C 0.25291 0.70160 0.13214
 C2500 C 0.24573 0.68104 0.13195
 C2501 C 0.24095 0.67108 0.15071
 C2502 C 0.24303 0.68170 0.16958
 C2503 C 0.23267 0.64263 0.06079
 C2504 C 0.25502 0.71227 0.15101
 C2505 C 0.24261 0.67036 0.11250
 C2506 C 0.23967 0.66147 0.09623
 C2507 C 0.23596 0.65120 0.07716
 C2508 C 0.24991 0.70251 0.16996
 H2509 H 0.25663 0.70946 0.11769
 H2510 H 0.23536 0.65517 0.15074
 H2511 H 0.23897 0.67367 0.18384
 H2512 H 0.26034 0.72825 0.15069
 C2513 C 0.17217 0.65425 0.74456
 C2514 C 0.18220 0.63544 0.74895
 C2515 C 0.20299 0.63549 0.75551
 C2516 C 0.21386 0.65427 0.75725
 C2517 C 0.14349 0.56460 0.73548
 C2518 C 0.18298 0.67304 0.74627
 C2519 C 0.17140 0.61607 0.74586
 C2520 C 0.16244 0.59988 0.74283
 C2521 C 0.15211 0.58090 0.73895
 C2522 C 0.20406 0.67326 0.75236
 H2523 H 0.15608 0.65439 0.73946
 H2524 H 0.21091 0.62100 0.75893
 H2525 H 0.23004 0.65385 0.76199
 H2526 H 0.17491 0.68733 0.74242
 C2527 C 0.67145 0.15390 0.24438
 C2528 C 0.68153 0.13511 0.24874
 C2529 C 0.70235 0.13520 0.25521
 C2530 C 0.71320 0.15399 0.25688
 C2531 C 0.64286 0.06421 0.23552
 C2532 C 0.68224 0.17270 0.24603
 C2533 C 0.67074 0.11572 0.24572
 C2534 C 0.66179 0.09951 0.24276
 C2535 C 0.65147 0.08052 0.23894
 C2536 C 0.70334 0.17297 0.25204
 H2537 H 0.65534 0.15401 0.23935
 H2538 H 0.71031 0.12072 0.25860
 H2539 H 0.72940 0.15360 0.26156
 H2540 H 0.67412 0.18698 0.24222
 C2541 C 0.79706 0.13241 0.74411
 C2542 C 0.81792 0.13248 0.75045
 C2543 C 0.82801 0.15139 0.75418
 C2544 C 0.81719 0.17014 0.75207
 C2545 C 0.85719 0.06210 0.76530
 C2546 C 0.78618 0.15116 0.74196
 C2547 C 0.82878 0.11317 0.75397
 C2548 C 0.83785 0.09709 0.75734
 C2549 C 0.84838 0.07826 0.76159
 C2550 C 0.79604 0.17026 0.74621
 H2551 H 0.78909 0.11784 0.74119
 H2552 H 0.84416 0.15163 0.75910
 H2553 H 0.82532 0.18451 0.75543
 H2554 H 0.76994 0.15065 0.73743
 C2555 C 0.32725 0.65110 0.25651
 C2556 C 0.31707 0.63234 0.25225
 C2557 C 0.29634 0.63256 0.24549
 C2558 C 0.28572 0.65145 0.24331
 C2559 C 0.35564 0.56135 0.26575
 C2560 C 0.31668 0.66999 0.25436
 C2561 C 0.32773 0.61289 0.25546
 C2562 C 0.33663 0.59665 0.25850
 C2563 C 0.34697 0.57764 0.26234
 C2564 C 0.29571 0.67040 0.24792
 H2565 H 0.34329 0.65111 0.26176
 H2566 H 0.28830 0.61812 0.24217
 H2567 H 0.26960 0.65117 0.23834
 H2568 H 0.32489 0.68424 0.25803
 C2569 C 0.29821 0.36392 0.25646
 C2570 C 0.31896 0.36420 0.24980
 C2571 C 0.32918 0.34548 0.24545
 C2572 C 0.31861 0.32657 0.24731
 C2573 C 0.35665 0.43553 0.23589
 C2574 C 0.28758 0.34502 0.25835
 C2575 C 0.32951 0.38369 0.24656
 C2576 C 0.33824 0.40000 0.24344
 C2577 C 0.34828 0.41912 0.23944
 C2578 C 0.29757 0.32612 0.25352
 H2579 H 0.29014 0.37833 0.25985
 H2580 H 0.34524 0.34551 0.24027
 H2581 H 0.32682 0.31236 0.24350
 H2582 H 0.27142 0.34527 0.26316
 C2583 C 0.80069 0.86486 0.75703
 C2584 C 0.82141 0.86502 0.75029
 C2585 C 0.83152 0.84623 0.74596
 C2586 C 0.82085 0.82738 0.74791
 C2587 C 0.85924 0.93624 0.73613
 C2588 C 0.78996 0.84602 0.75900
 C2589 C 0.83204 0.88446 0.74697
 C2590 C 0.84082 0.90073 0.74378
 C2591 C 0.85088 0.91983 0.73973
 C2592 C 0.79984 0.82705 0.75419
 H2593 H 0.79270 0.87932 0.76041
 H2594 H 0.84756 0.84617 0.74072
 H2595 H 0.82898 0.81312 0.74410
 H2596 H 0.77382 0.84637 0.76387
 C2597 C 0.67057 0.84868 0.25590
 C2598 C 0.68063 0.86749 0.25160
 C2599 C 0.70137 0.86740 0.24493
 C2600 C 0.71218 0.84860 0.24299
 C2601 C 0.64243 0.93852 0.26572
 C2602 C 0.68132 0.82987 0.25399
 C2603 C 0.66992 0.88689 0.25492
 C2604 C 0.66106 0.90312 0.25811
 C2605 C 0.65089 0.92216 0.26216
 C2606 C 0.70236 0.82960 0.24778
 H2607 H 0.65451 0.84857 0.26109
 H2608 H 0.70931 0.88189 0.24158
 H2609 H 0.72833 0.84900 0.23817
 H2610 H 0.67323 0.81558 0.25777
 C2611 C 0.17019 0.34881 0.75596
 C2612 C 0.18026 0.36760 0.75156
 C2613 C 0.20096 0.36746 0.74476
 C2614 C 0.21172 0.34863 0.74280
 C2615 C 0.14239 0.43881 0.76566
 C2616 C 0.18089 0.32998 0.75402
 C2617 C 0.16961 0.38703 0.75490
 C2618 C 0.16083 0.40329 0.75809
 C2619 C 0.15076 0.42239 0.76212
 C2620 C 0.20189 0.32966 0.74769
 H2621 H 0.15417 0.34875 0.76124
 H2622 H 0.20891 0.38192 0.74134
 H2623 H 0.22784 0.34899 0.73788
 H2624 H 0.17280 0.31571 0.75788
 C2625 C 0.15431 0.75599 0.82856
 C2626 C 0.13544 0.75178 0.81855
 C2627 C 0.13541 0.74546 0.79769
 C2628 C 0.15417 0.74377 0.78675
 C2629 C 0.06483 0.76471 0.85800
 C2630 C 0.17307 0.75433 0.81768
 C2631 C 0.11610 0.75475 0.82948
 C2632 C 0.09996 0.75765 0.83861
 C2633 C 0.08105 0.76139 0.84917
 C2634 C 0.17323 0.74844 0.79655
 H2635 H 0.15452 0.76090 0.84470
 H2636 H 0.12087 0.74218 0.78978
 H2637 H 0.15369 0.73920 0.77052
 H2638 H 0.18742 0.75800 0.82575
 C2639 C 0.63535 0.24419 0.29768
 C2640 C 0.63532 0.25048 0.31855
 C2641 C 0.65417 0.25465 0.32864
 C2642 C 0.67296 0.25301 0.31780
 C2643 C 0.56429 0.26400 0.35700
 C2644 C 0.65414 0.24252 0.28679
 C2645 C 0.61592 0.25357 0.32934
 C2646 C 0.59969 0.25660 0.33825
 C2647 C 0.58064 0.26050 0.34848
 C2648 C 0.67317 0.24720 0.29665
 H2649 H 0.62084 0.24095 0.28971
 H2650 H 0.65432 0.25955 0.34478
 H2651 H 0.68729 0.25669 0.32591
 H2652 H 0.65370 0.23801 0.27055
 C2653 C 0.63348 0.75639 0.20245
 C2654 C 0.63346 0.74995 0.18162
 C2655 C 0.65234 0.74605 0.17150
 C2656 C 0.67115 0.74812 0.18226
 C2657 C 0.56271 0.73536 0.14289
 C2658 C 0.65229 0.75849 0.21326
 C2659 C 0.61409 0.74648 0.17086
 C2660 C 0.59792 0.74318 0.16190
 C2661 C 0.57898 0.73901 0.15154
 C2662 C 0.67135 0.75409 0.20337
 H2663 H 0.61894 0.75943 0.21044
 H2664 H 0.65251 0.74105 0.15539
 H2665 H 0.68550 0.74464 0.17411
 H2666 H 0.65184 0.76310 0.22947
 C2667 C 0.15170 0.24651 0.67133
 C2668 C 0.13285 0.25058 0.68143
 C2669 C 0.13292 0.25700 0.70226
 C2670 C 0.15174 0.25892 0.71309
 C2671 C 0.06203 0.23646 0.64267
 C2672 C 0.17053 0.24840 0.68209
 C2673 C 0.11346 0.24731 0.67066
 C2674 C 0.09727 0.24413 0.66169
 C2675 C 0.07830 0.24007 0.65133
 C2676 C 0.17078 0.25436 0.70320
 H2677 H 0.15184 0.24152 0.65521
 H2678 H 0.11841 0.26017 0.71025
 H2679 H 0.15133 0.26353 0.72930
 H2680 H 0.18485 0.24480 0.67395
 C2681 C 0.86482 0.24347 0.70077
 C2682 C 0.86488 0.25014 0.68001
 C2683 C 0.84602 0.25421 0.66989
 C2684 C 0.82719 0.25208 0.68058
 C2685 C 0.93586 0.26511 0.64194
 C2686 C 0.84599 0.24131 0.71151
 C2687 C 0.88428 0.25369 0.66936
 C2688 C 0.90050 0.25708 0.66054
 C2689 C 0.91952 0.26135 0.65039
 C2690 C 0.82695 0.24588 0.70162
 H2691 H 0.87934 0.24030 0.70876
 H2692 H 0.84588 0.25939 0.65383
 H2693 H 0.81286 0.25570 0.67244
 H2694 H 0.84641 0.23652 0.72767
 C2695 C 0.36563 0.74604 0.20127
 C2696 C 0.36580 0.75257 0.18048
 C2697 C 0.34701 0.75675 0.17028
 C2698 C 0.32812 0.75471 0.18088
 C2699 C 0.43698 0.76547 0.14206
 C2700 C 0.34675 0.74398 0.21193
 C2701 C 0.38526 0.75564 0.16979
 C2702 C 0.40153 0.75853 0.16090
 C2703 C 0.42061 0.76220 0.15063
 C2704 C 0.32775 0.74848 0.20192
 H2705 H 0.38010 0.74279 0.20933
 H2706 H 0.34696 0.76184 0.15419
 H2707 H 0.31383 0.75829 0.17265
 H2708 H 0.34707 0.73915 0.22809
 C2709 C 0.36619 0.25519 0.29931
 C2710 C 0.36641 0.24863 0.32009
 C2711 C 0.34765 0.24422 0.33023
 C2712 C 0.32877 0.24587 0.31950
 C2713 C 0.43794 0.23474 0.35758
 C2714 C 0.34733 0.25687 0.28853
 C2715 C 0.38591 0.24547 0.33071
 C2716 C 0.40225 0.24237 0.33941
 C2717 C 0.42145 0.23836 0.34935
 C2718 C 0.32840 0.25193 0.29842
 H2719 H 0.38064 0.25862 0.29130
 H2720 H 0.34764 0.23911 0.34631
 H2721 H 0.31452 0.24198 0.32763
 H2722 H 0.34765 0.26158 0.27235
 C2723 C 0.86803 0.75510 0.80026
 C2724 C 0.86808 0.74878 0.82112
 C2725 C 0.84922 0.74486 0.83126
 C2726 C 0.83040 0.74675 0.82048
 C2727 C 0.93921 0.73440 0.85920
 C2728 C 0.84922 0.75702 0.78942
 C2729 C 0.88748 0.74540 0.83184
 C2730 C 0.90373 0.74215 0.84068
 C2731 C 0.92281 0.73803 0.85081
 C2732 C 0.83017 0.75257 0.79933
 H2733 H 0.88255 0.75816 0.79225
 H2734 H 0.84907 0.73994 0.84740
 H2735 H 0.81606 0.74323 0.82863
 H2736 H 0.84965 0.76153 0.77318
   
