data_POSCAR
  _audit_creation_date              2014-09-24
  _audit_creation_method            'ToBaCCo'
  _symmetry_space_group_name_H-M    'P1'
  _symmetry_Int_Tables_number       1
  _symmetry_cell_setting            triclinic
  loop_
  _symmetry_equiv_pos_as_xyz
 x,y,z
_cell_length_a 54.6109
_cell_length_b 49.7117
_cell_length_c 46.5392
_cell_angle_alpha 93.152300
_cell_angle_beta 89.930900
_cell_angle_gamma 89.952300
loop_
  _atom_site_label
  _atom_site_type_symbol
  _atom_site_fract_x
  _atom_site_fract_y
  _atom_site_fract_z
C1 C 0.36427 0.30106 0.34041
 C2 C 0.34773 0.29470 0.36226
 C3 C 0.33071 0.31370 0.37240
 C4 C 0.32986 0.33923 0.36086
 C5 C 0.34593 0.34524 0.33922
 C6 C 0.36316 0.32620 0.32909
 C7 C 0.38165 0.28633 0.32453
 N8 N 0.39064 0.30206 0.30396
 C9 C 0.37945 0.32639 0.30674
 C10 C 0.33971 0.37015 0.33009
 N11 N 0.32030 0.37962 0.34577
 C12 C 0.31415 0.36092 0.36479
 C13 C 0.31603 0.30153 0.39188
 N14 N 0.32356 0.27565 0.39392
 C15 C 0.34296 0.27129 0.37589
 H16 H 0.38642 0.26541 0.32678
 H17 H 0.38241 0.34291 0.29293
 H18 H 0.34828 0.38032 0.31273
 H19 H 0.29873 0.36241 0.37942
 H20 H 0.30052 0.31072 0.40311
 H21 H 0.35255 0.25235 0.37232
 C22 C 0.36017 0.83287 -0.16047
 C23 C 0.33715 0.83496 -0.14730
 C24 C 0.32062 0.85379 -0.15590
 C25 C 0.32667 0.87049 -0.17797
 C26 C 0.34908 0.86804 -0.19192
 C27 C 0.36623 0.84875 -0.18303
 C28 C 0.38008 0.81744 -0.15466
 N29 N 0.39842 0.82286 -0.17318
 C30 C 0.39005 0.84171 -0.19108
 C31 C 0.34917 0.88736 -0.21237
 N32 N 0.32757 0.90126 -0.21060
 C33 C 0.31387 0.89090 -0.18955
 C34 C 0.29983 0.85152 -0.13953
 N35 N 0.30328 0.83141 -0.12143
 C36 C 0.32611 0.82118 -0.12590
 H37 H 0.38090 0.80307 -0.13804
 H38 H 0.40076 0.85053 -0.20774
 H39 H 0.36405 0.89125 -0.22693
 H40 H 0.29572 0.89750 -0.18302
 H41 H 0.28320 0.86319 -0.14122
 H42 H 0.33404 0.80488 -0.11453
 C43 C 0.84482 0.35432 -0.15328
 C44 C 0.82411 0.34802 -0.13640
 C45 C 0.80220 0.36118 -0.14100
 C46 C 0.80033 0.38035 -0.16176
 C47 C 0.82042 0.38690 -0.17768
 C48 C 0.84280 0.37412 -0.17313
 C49 C 0.86865 0.34456 -0.15575
 N50 N 0.88080 0.35851 -0.17589
 C51 C 0.86501 0.37670 -0.18623
 C52 C 0.81299 0.40574 -0.19662
 N53 N 0.78872 0.41071 -0.19236
 C54 C 0.78096 0.39523 -0.17093
 C55 C 0.78520 0.35213 -0.12231
 N56 N 0.79571 0.33373 -0.10576
 C57 C 0.81963 0.33093 -0.11415
 H58 H 0.87647 0.32858 -0.14380
 H59 H 0.86885 0.39007 -0.20324
 H60 H 0.82442 0.41494 -0.21236
 H61 H 0.76251 0.39440 -0.16257
 H62 H 0.76650 0.35920 -0.12056
 H63 H 0.83277 0.31771 -0.10471
 C64 C 0.88837 0.82892 0.33171
 C65 C 0.87080 0.83451 0.35300
 C66 C 0.84929 0.84731 0.34656
 C67 C 0.84533 0.85520 0.31846
 C68 C 0.86268 0.84951 0.29709
 C69 C 0.88444 0.83571 0.30370
 C70 C 0.91039 0.81600 0.33278
 N71 N 0.92030 0.81398 0.30599
 C72 C 0.90451 0.82595 0.28784
 C73 C 0.85401 0.86054 0.27246
 N74 N 0.83215 0.87296 0.27851
 C75 C 0.82666 0.86934 0.30653
 C76 C 0.83512 0.84836 0.37125
 N77 N 0.84769 0.83625 0.39222
 C78 C 0.86961 0.82801 0.38118
 H79 H 0.91797 0.80769 0.35183
 H80 H 0.90731 0.82744 0.26495
 H81 H 0.86349 0.86027 0.25203
 H82 H 0.81066 0.87719 0.31789
 H83 H 0.81672 0.85631 0.37338
 H84 H 0.88338 0.81691 0.39229
 C85 C 0.61925 0.70756 0.37568
 C86 C 0.64256 0.71655 0.38423
 C87 C 0.66273 0.69968 0.38062
 C88 C 0.65982 0.67366 0.36748
 C89 C 0.63668 0.66500 0.35911
 C90 C 0.61638 0.68173 0.36374
 C91 C 0.59701 0.72048 0.37342
 N92 N 0.58089 0.70275 0.36082
 C93 C 0.59256 0.67906 0.35489
 C94 C 0.63923 0.64129 0.34299
 N95 N 0.66331 0.63507 0.34123
 C96 C 0.67617 0.65446 0.35645
 C97 C 0.68290 0.71433 0.39013
 N98 N 0.67531 0.73946 0.39913
 C99 C 0.65076 0.74103 0.39535
 H100 H 0.59318 0.74149 0.37900
 H101 H 0.58478 0.66183 0.34293
 H102 H 0.62472 0.63025 0.33175
 H103 H 0.69595 0.65574 0.35720
 H104 H 0.70168 0.70736 0.39029
 H105 H 0.63958 0.75857 0.40076
 C106 C 0.63504 0.19954 -0.11037
 C107 C 0.65396 0.19354 -0.09146
 C108 C 0.67119 0.17406 -0.09940
 C109 C 0.66920 0.15975 -0.12603
 C110 C 0.65035 0.16539 -0.14456
 C111 C 0.63335 0.18562 -0.13680
 C112 C 0.61661 0.21847 -0.10898
 N113 N 0.60390 0.21651 -0.13411
 C114 C 0.61400 0.19630 -0.15114
 C115 C 0.65282 0.14828 -0.16861
 N116 N 0.67268 0.13230 -0.16505
 C117 C 0.68287 0.13935 -0.13907
 C118 C 0.68797 0.17332 -0.07740
 N119 N 0.68094 0.19154 -0.05629
 C120 C 0.66022 0.20396 -0.06457
 H121 H 0.61324 0.23297 -0.09122
 H122 H 0.60808 0.18998 -0.17264
 H123 H 0.64087 0.14758 -0.18716
 H124 H 0.69889 0.13020 -0.13002
 H125 H 0.70399 0.16053 -0.07668
 H126 H 0.65074 0.21982 -0.05213
 C127 C 0.10832 0.65597 -0.18403
 C128 C 0.12820 0.66187 -0.16590
 C129 C 0.14968 0.64699 -0.16847
 C130 C 0.15132 0.62560 -0.18983
 C131 C 0.13136 0.62011 -0.20755
 C132 C 0.10981 0.63500 -0.20443
 C133 C 0.08683 0.66944 -0.18879
 N134 N 0.07530 0.65700 -0.21176
 C135 C 0.08911 0.63555 -0.22110
 C136 C 0.13812 0.60113 -0.22827
 N137 N 0.16175 0.59412 -0.22394
 C138 C 0.17005 0.60872 -0.20018
 C139 C 0.16606 0.65915 -0.14901
 N140 N 0.15479 0.68065 -0.13506
 C141 C 0.13173 0.68233 -0.14549
 H142 H 0.08083 0.68781 -0.17733
 H143 H 0.08559 0.62264 -0.24013
 H144 H 0.12642 0.59327 -0.24548
 H145 H 0.18858 0.60823 -0.19199
 H146 H 0.18483 0.65308 -0.14565
 H147 H 0.11840 0.69764 -0.13919
 C148 C 0.10987 0.13258 0.33120
 C149 C 0.13025 0.13910 0.34853
 C150 C 0.15146 0.12352 0.34648
 C151 C 0.15244 0.10107 0.32634
 C152 C 0.13206 0.09504 0.30960
 C153 C 0.11088 0.11054 0.31213
 C154 C 0.08821 0.14580 0.32593
 N155 N 0.07639 0.13220 0.30380
 C156 C 0.09014 0.11039 0.29560
 C157 C 0.13801 0.07497 0.28981
 N158 N 0.16171 0.06793 0.29345
 C159 C 0.17080 0.08352 0.31612
 C160 C 0.16849 0.13626 0.36467
 N161 N 0.15807 0.15896 0.37712
 C162 C 0.13483 0.16076 0.36724
 H163 H 0.08239 0.16478 0.33624
 H164 H 0.08629 0.09617 0.27777
 H165 H 0.12570 0.06659 0.27350
 H166 H 0.18958 0.08326 0.32351
 H167 H 0.18728 0.13010 0.36773
 H168 H 0.12215 0.17694 0.37294
 C169 C 0.61646 0.34780 0.66357
 C170 C 0.63017 0.33934 0.63939
 C171 C 0.64698 0.35650 0.62804
 C172 C 0.65021 0.38245 0.64085
 C173 C 0.63690 0.39076 0.66515
 C174 C 0.61968 0.37327 0.67652
 C175 C 0.59923 0.33490 0.67905
 N176 N 0.59166 0.35182 0.70113
 C177 C 0.60404 0.37543 0.69987
 C178 C 0.64490 0.41627 0.67369
 N179 N 0.66235 0.42358 0.65486
 C180 C 0.66567 0.40310 0.63475
 C181 C 0.65837 0.34244 0.60545
 N182 N 0.64879 0.31717 0.60298
 C183 C 0.63144 0.31517 0.62363
 H184 H 0.59268 0.31459 0.67442
 H185 H 0.60204 0.39269 0.71489
 H186 H 0.63865 0.42853 0.69222
 H187 H 0.67894 0.40291 0.61744
 H188 H 0.67287 0.34992 0.59219
 H189 H 0.62092 0.29729 0.62746
 C190 C 0.62975 0.81016 1.13333
 C191 C 0.64059 0.81346 1.10666
 C192 C 0.65360 0.83648 1.10188
 C193 C 0.65533 0.85684 1.12369
 C194 C 0.64423 0.85400 1.15024
 C195 C 0.63083 0.83034 1.15501
 C196 C 0.61817 0.78851 1.14387
 N197 N 0.61112 0.79492 1.17130
 C198 C 0.61845 0.82066 1.17840
 C199 C 0.65133 0.87609 1.16767
 N200 N 0.66598 0.89194 1.15201
 C201 C 0.66836 0.88030 1.12518
 C202 C 0.66428 0.83289 1.07508
 N203 N 0.65730 0.80847 1.06355
 C204 C 0.64282 0.79645 1.08264
 H205 H 0.61460 0.76961 1.13195
 H206 H 0.61589 0.83108 1.19923
 H207 H 0.64685 0.87991 1.19019
 H208 H 0.67986 0.88761 1.10833
 H209 H 0.67668 0.84655 1.06506
 H210 H 0.63558 0.77620 1.07983
 C211 C 0.13540 0.29874 1.20168
 C212 C 0.15102 0.29818 1.17762
 C213 C 0.16981 0.31690 1.17614
 C214 C 0.17298 0.33669 1.19868
 C215 C 0.15769 0.33670 1.22233
 C216 C 0.13920 0.31766 1.22394
 C217 C 0.11470 0.28445 1.20864
 N218 N 0.10633 0.29437 1.23474
 C219 C 0.12142 0.31459 1.24415
 C220 C 0.16310 0.35867 1.24001
 N221 N 0.18133 0.37251 1.22786
 C222 C 0.18784 0.35916 1.20266
 C223 C 0.18175 0.31151 1.15032
 N224 N 0.17073 0.29007 1.13628
 C225 C 0.15185 0.28196 1.15276
 H226 H 0.10631 0.26832 1.19555
 H227 H 0.11921 0.32711 1.26374
 H228 H 0.15385 0.36453 1.25995
 H229 H 0.20142 0.36597 1.18775
 H230 H 0.19729 0.32238 1.14238
 H231 H 0.13975 0.26522 1.14733
 C232 C 0.14133 0.82555 0.63813
 C233 C 0.16099 0.83192 0.62036
 C234 C 0.17487 0.85464 0.62702
 C235 C 0.16969 0.87090 0.65172
 C236 C 0.15067 0.86439 0.66964
 C237 C 0.13623 0.84163 0.66266
 C238 C 0.12465 0.80481 0.63692
 N239 N 0.10952 0.80798 0.66002
 C240 C 0.11660 0.83031 0.67602
 C241 C 0.15128 0.88257 0.69307
 N242 N 0.17026 0.89985 0.68967
 C243 C 0.18146 0.89287 0.66427
 C244 C 0.19367 0.85502 0.60748
 N245 N 0.19177 0.83285 0.58933
 C246 C 0.17181 0.81859 0.59692
 H247 H 0.12358 0.78871 0.62035
 H248 H 0.10787 0.83805 0.69566
 H249 H 0.13914 0.88261 0.71147
 H250 H 0.19760 0.90233 0.65588
 H251 H 0.20850 0.86945 0.60762
 H252 H 0.16619 0.79941 0.58690
 C253 C 0.37477 0.67600 0.69656
 C254 C 0.35843 0.68334 0.67527
 C255 C 0.33976 0.66612 0.66662
 C256 C 0.33723 0.64127 0.67912
 C257 C 0.35315 0.63401 0.70056
 C258 C 0.37227 0.65161 0.70931
 C259 C 0.39544 0.68827 0.70744
 N260 N 0.40577 0.67213 0.72661
 C261 C 0.39175 0.64963 0.72803
 C262 C 0.34691 0.60812 0.70734
 N263 N 0.32801 0.59972 0.69015
 C264 C 0.32204 0.61978 0.67288
 C265 C 0.32757 0.67780 0.64464
 N266 N 0.33851 0.70167 0.63976
 C267 C 0.35746 0.70520 0.65841
 H268 H 0.40259 0.70748 0.70146
 H269 H 0.39571 0.63281 0.74108
 H270 H 0.35619 0.59586 0.72247
 H271 H 0.30805 0.61854 0.65640
 H272 H 0.31226 0.66916 0.63263
 H273 H 0.36992 0.72213 0.65935
 C274 C 0.35419 0.14356 1.15159
 C275 C 0.33593 0.14596 1.13045
 C276 C 0.31861 0.12587 1.12678
 C277 C 0.31863 0.10390 1.14402
 C278 C 0.33556 0.10189 1.16572
 C279 C 0.35390 0.12174 1.16915
 C280 C 0.37509 0.15817 1.15830
 N281 N 0.38753 0.14573 1.17914
 C282 C 0.37458 0.12361 1.18599
 C283 C 0.33043 0.07804 1.17883
 N284 N 0.31142 0.06561 1.16453
 C285 C 0.30432 0.08141 1.14324
 C286 C 0.30377 0.13193 1.10448
 N287 N 0.31121 0.15550 1.09427
 C288 C 0.33093 0.16449 1.10992
 H289 H 0.38120 0.17597 1.14801
 H290 H 0.38015 0.10925 1.20136
 H291 H 0.34039 0.06989 1.19647
 H292 H 0.28935 0.07726 1.12843
 H293 H 0.28840 0.12004 1.09638
 H294 H 0.34105 0.18270 1.10631
 C295 C 0.84935 0.67956 1.15780
 C296 C 0.82568 0.67699 1.14599
 C297 C 0.80840 0.66138 1.15907
 C298 C 0.81431 0.64840 1.18411
 C299 C 0.83740 0.65117 1.19597
 C300 C 0.85505 0.66670 1.18261
 C301 C 0.87030 0.69263 1.14950
 N302 N 0.88842 0.68789 1.16863
 C303 C 0.87917 0.67206 1.18889
 C304 C 0.83799 0.63603 1.21994
 N305 N 0.81585 0.62402 1.22260
 C306 C 0.80129 0.63147 1.20077
 C307 C 0.78742 0.66169 1.14281
 N308 N 0.79136 0.67719 1.12015
 C309 C 0.81472 0.68669 1.12191
 H310 H 0.87219 0.70453 1.13085
 H311 H 0.88923 0.66480 1.20692
 H312 H 0.85353 0.63343 1.23394
 H313 H 0.78258 0.62497 1.19718
 H314 H 0.77054 0.65128 1.14720
 H315 H 0.82327 0.69932 1.10656
 C316 C 0.84476 0.21874 0.65707
 C317 C 0.82538 0.21069 0.63851
 C318 C 0.81078 0.18898 0.64515
 C319 C 0.81494 0.17535 0.67028
 C320 C 0.83368 0.18364 0.68842
 C321 C 0.84858 0.20524 0.68185
 C322 C 0.86333 0.23760 0.65585
 N323 N 0.87804 0.23560 0.67933
 C324 C 0.86889 0.21591 0.69530
 C325 C 0.83431 0.16668 0.71056
 N326 N 0.81628 0.14811 0.70657
 C327 C 0.80427 0.15315 0.68185
 C328 C 0.79469 0.18435 0.62289
 N329 N 0.79880 0.20270 0.60293
 C330 C 0.81744 0.21906 0.61221
 H331 H 0.86609 0.25124 0.63881
 H332 H 0.87676 0.20909 0.71495
 H333 H 0.84723 0.16783 0.72817
 H334 H 0.78905 0.14155 0.67293
 H335 H 0.78118 0.16841 0.62109
 H336 H 0.82523 0.23503 0.60022
 C337 C 0.33120 0.33328 0.66027
 C338 C 0.32926 0.31126 0.63985
 C339 C 0.34854 0.29316 0.63664
 C340 C 0.36973 0.29654 0.65327
 C341 C 0.37150 0.31780 0.67342
 C342 C 0.35221 0.33623 0.67689
 C343 C 0.31546 0.35382 0.66961
 N344 N 0.32653 0.36871 0.69134
 C345 C 0.34893 0.35799 0.69584
 C346 C 0.39334 0.31504 0.68777
 N347 N 0.40486 0.29265 0.67653
 C348 C 0.39056 0.28121 0.65541
 C349 C 0.34138 0.27270 0.61764
 N350 N 0.31819 0.27753 0.60899
 C351 C 0.31055 0.30120 0.62219
 H352 H 0.29717 0.35729 0.66165
 H353 H 0.36199 0.36538 0.71186
 H354 H 0.40019 0.32816 0.70527
 H355 H 0.39461 0.26267 0.64304
 H356 H 0.35209 0.25502 0.61128
 H357 H 0.29237 0.30963 0.62035
 C358 C 0.34181 0.83395 0.14466
 C359 C 0.34152 0.81676 0.11951
 C360 C 0.36307 0.80449 0.11004
 C361 C 0.38496 0.80901 0.12512
 C362 C 0.38520 0.82572 0.14972
 C363 C 0.36358 0.83818 0.15954
 C364 C 0.32384 0.84766 0.16047
 N365 N 0.33435 0.85978 0.18435
 C366 C 0.35858 0.85395 0.18389
 C367 C 0.40802 0.82379 0.16188
 N368 N 0.42159 0.80605 0.14531
 C369 C 0.40765 0.79710 0.12261
 C370 C 0.35752 0.78725 0.08707
 N371 N 0.33311 0.78847 0.08199
 C372 C 0.32306 0.80659 0.10162
 H373 H 0.30456 0.84839 0.15525
 H374 H 0.37176 0.86071 0.20005
 H375 H 0.41371 0.83322 0.18229
 H376 H 0.41288 0.78155 0.10659
 H377 H 0.37042 0.77430 0.07532
 H378 H 0.30372 0.81116 0.10350
 C379 C 0.84248 0.39276 0.19841
 C380 C 0.84485 0.37732 0.17244
 C381 C 0.86337 0.35826 0.16888
 C382 C 0.88030 0.35509 0.19120
 C383 C 0.87813 0.37086 0.21650
 C384 C 0.85904 0.38944 0.22025
 C385 C 0.82503 0.41085 0.20889
 N386 N 0.83068 0.41824 0.23664
 C387 C 0.85156 0.40535 0.24364
 C388 C 0.89621 0.36338 0.23474
 N389 N 0.90951 0.34335 0.22137
 C390 C 0.89990 0.33796 0.19471
 C391 C 0.86005 0.34526 0.14217
 N392 N 0.84037 0.35642 0.12956
 C393 C 0.83101 0.37594 0.14787
 H394 H 0.80893 0.41725 0.19757
 H395 H 0.86039 0.40679 0.26446
 H396 H 0.89897 0.37154 0.25652
 H397 H 0.90648 0.32259 0.17920
 H398 H 0.87103 0.32895 0.13264
 H399 H 0.81483 0.38778 0.14391
 C400 C 0.85738 0.91415 0.66621
 C401 C 0.85545 0.89248 0.64553
 C402 C 0.87546 0.87573 0.64019
 C403 C 0.89751 0.88043 0.65490
 C404 C 0.89950 0.90200 0.67469
 C405 C 0.87938 0.91880 0.68044
 C406 C 0.84018 0.93063 0.68009
 N407 N 0.85133 0.94469 0.70232
 C408 C 0.87527 0.93766 0.70247
 C409 C 0.92091 0.89889 0.68961
 N410 N 0.93180 0.87571 0.67962
 C411 C 0.91773 0.86439 0.65820
 C412 C 0.86772 0.85422 0.62289
 N413 N 0.84363 0.85745 0.61713
 C414 C 0.83584 0.88078 0.63078
 H415 H 0.82071 0.93078 0.67575
 H416 H 0.88854 0.94450 0.71849
 H417 H 0.92668 0.91106 0.70838
 H418 H 0.92080 0.84475 0.64759
 H419 H 0.87869 0.83696 0.61574
 H420 H 0.81707 0.88783 0.63132
 C421 C 0.67955 0.67114 0.63204
 C422 C 0.67460 0.69642 0.62163
 C423 C 0.65465 0.71138 0.63168
 C424 C 0.63902 0.70081 0.65232
 C425 C 0.64400 0.67574 0.66261
 C426 C 0.66447 0.66090 0.65255
 C427 C 0.69875 0.65344 0.62747
 N428 N 0.69579 0.63274 0.64495
 C429 C 0.67483 0.63710 0.66035
 C430 C 0.62687 0.67108 0.68335
 N431 N 0.61149 0.69256 0.68606
 C432 C 0.61875 0.71089 0.66714
 C433 C 0.65577 0.73586 0.61896
 N434 N 0.67584 0.73577 0.60160
 C435 C 0.68732 0.71169 0.60317
 H436 H 0.71426 0.65607 0.61341
 H437 H 0.66794 0.62429 0.67659
 H438 H 0.62601 0.65338 0.69584
 H439 H 0.61036 0.73039 0.66486
 H440 H 0.64324 0.75258 0.62254
 H441 H 0.70421 0.70588 0.59235
 C442 C 0.68841 0.14446 0.19400
 C443 C 0.69586 0.16520 0.17657
 C444 C 0.67882 0.18326 0.16697
 C445 C 0.65405 0.18086 0.17477
 C446 C 0.64681 0.16086 0.19256
 C447 C 0.66411 0.14247 0.20211
 C448 C 0.70056 0.12279 0.20462
 N449 N 0.68423 0.10781 0.21897
 C450 C 0.66193 0.11979 0.21765
 C451 C 0.62174 0.16278 0.19577
 N452 N 0.61361 0.18311 0.17999
 C453 C 0.63317 0.19426 0.16707
 C454 C 0.69114 0.20057 0.14977
 N455 N 0.71522 0.19352 0.14879
 C456 C 0.71819 0.17184 0.16507
 H457 H 0.71974 0.11796 0.20155
 H458 H 0.64512 0.11202 0.22631
 H459 H 0.61016 0.14968 0.20771
 H460 H 0.63223 0.21067 0.15274
 H461 H 0.68308 0.21692 0.13861
 H462 H 0.73528 0.16140 0.16823
 C463 C 0.18937 0.61398 0.14513
 C464 C 0.18701 0.63232 0.12379
 C465 C 0.16666 0.64876 0.12268
 C466 C 0.14796 0.64655 0.14335
 C467 C 0.15019 0.62785 0.16443
 C468 C 0.17129 0.61152 0.16554
 C469 C 0.20667 0.59465 0.14902
 N470 N 0.19996 0.58031 0.17156
 C471 C 0.17834 0.59040 0.18210
 C472 C 0.12846 0.62821 0.17949
 N473 N 0.11324 0.64669 0.16847
 C474 C 0.12500 0.65812 0.14647
 C475 C 0.16902 0.66278 0.09784
 N476 N 0.19006 0.65457 0.08427
 C477 C 0.20108 0.63609 0.10009
 H478 H 0.22283 0.59090 0.13588
 H479 H 0.16804 0.58225 0.19950
 H480 H 0.12387 0.61548 0.19684
 H481 H 0.11701 0.67279 0.13290
 H482 H 0.15590 0.67669 0.08951
 H483 H 0.21787 0.62552 0.09429
 C484 C 0.14755 0.14325 0.67253
 C485 C 0.14556 0.16126 0.65022
 C486 C 0.12578 0.17886 0.64983
 C487 C 0.10776 0.17881 0.67142
 C488 C 0.10966 0.16083 0.69282
 C489 C 0.12957 0.14323 0.69348
 C490 C 0.16502 0.12459 0.68001
 N491 N 0.15785 0.11377 0.70496
 C492 C 0.13615 0.12503 0.71307
 C493 C 0.09001 0.16486 0.71089
 N494 N 0.07611 0.18507 0.70124
 C495 C 0.08682 0.19396 0.67713
 C496 C 0.12866 0.19419 0.62643
 N497 N 0.14960 0.18659 0.61241
 C498 C 0.16011 0.16644 0.62679
 H499 H 0.18199 0.11995 0.66876
 H500 H 0.12593 0.12071 0.73220
 H501 H 0.08628 0.15405 0.72999
 H502 H 0.07979 0.20995 0.66458
 H503 H 0.11631 0.20989 0.62027
 H504 H 0.17717 0.15652 0.62089
 C505 C 0.35924 0.62027 0.34480
 C506 C 0.35830 0.63536 0.37105
 C507 C 0.36883 0.66060 0.37348
 C508 C 0.38043 0.67111 0.34974
 C509 C 0.38180 0.65605 0.32386
 C510 C 0.37107 0.63033 0.32134
 C511 C 0.34825 0.59654 0.33570
 N512 N 0.35315 0.59174 0.30732
 C513 C 0.36725 0.61215 0.29829
 C514 C 0.39335 0.67185 0.30454
 N515 N 0.39873 0.69603 0.31813
 C516 C 0.39078 0.69578 0.34571
 C517 C 0.36300 0.67173 0.40027
 N518 N 0.34904 0.65389 0.41408
 C519 C 0.34617 0.63149 0.39641
 H520 H 0.33683 0.58411 0.34860
 H521 H 0.37309 0.61438 0.27632
 H522 H 0.39736 0.66629 0.28221
 H523 H 0.39269 0.71218 0.36183
 H524 H 0.36750 0.69193 0.40844
 H525 H 0.33481 0.61438 0.40084
 C526 C 0.33888 0.14599 0.84403
 C527 C 0.33944 0.16800 0.86453
 C528 C 0.36122 0.18177 0.86962
 C529 C 0.38259 0.17385 0.85481
 C530 C 0.38206 0.15208 0.83518
 C531 C 0.36020 0.13837 0.82957
 C532 C 0.32017 0.13083 0.83123
 N533 N 0.32990 0.11498 0.80933
 C534 C 0.35428 0.11944 0.80831
 C535 C 0.40428 0.15078 0.82143
 N536 N 0.41825 0.17151 0.83198
 C537 C 0.40522 0.18577 0.85250
 C538 C 0.35637 0.20334 0.88837
 N539 N 0.33223 0.20316 0.89522
 C540 C 0.32163 0.18166 0.88072
 H541 H 0.30082 0.13260 0.83605
 H542 H 0.36666 0.11047 0.79230
 H543 H 0.40913 0.13710 0.80341
 H544 H 0.41117 0.20433 0.86358
 H545 H 0.36959 0.21813 0.89630
 H546 H 0.30237 0.17663 0.88144
 C547 C 0.84998 0.63361 0.82871
 C548 C 0.85003 0.64451 0.85699
 C549 C 0.86314 0.66768 0.86415
 C550 C 0.87691 0.67988 0.84303
 C551 C 0.87735 0.66877 0.81509
 C552 C 0.86369 0.64544 0.80784
 C553 C 0.83691 0.61285 0.81551
 N554 N 0.84256 0.61153 0.78713
 C555 C 0.85905 0.63122 0.78217
 C556 C 0.89174 0.68522 0.79924
 N557 N 0.90006 0.70590 0.81691
 C558 C 0.89092 0.70286 0.84369
 C559 C 0.85734 0.67537 0.89222
 N560 N 0.84126 0.65721 0.90207
 C561 C 0.83683 0.63821 0.88072
 H562 H 0.82401 0.59987 0.82571
 H563 H 0.86636 0.63554 0.76129
 H564 H 0.89588 0.68225 0.77654
 H565 H 0.89435 0.71616 0.86242
 H566 H 0.86319 0.69362 0.90401
 H567 H 0.82342 0.62224 0.88159
 C568 C 0.81205 0.12263 0.33669
 C569 C 0.80823 0.14951 0.34684
 C570 C 0.82303 0.16964 0.33697
 C571 C 0.84148 0.16348 0.31681
 C572 C 0.84504 0.13719 0.30663
 C573 C 0.83061 0.11669 0.31701
 C574 C 0.80076 0.09855 0.34201
 N575 N 0.81255 0.07852 0.32650
 C576 C 0.83076 0.08941 0.31122
 C577 C 0.86401 0.13705 0.28719
 N578 N 0.87221 0.16265 0.28582
 C579 C 0.85869 0.17898 0.30394
 C580 C 0.81606 0.19345 0.35073
 N581 N 0.79740 0.18853 0.36895
 C582 C 0.79237 0.16168 0.36671
 H583 H 0.78511 0.09577 0.35584
 H584 H 0.84272 0.07832 0.29623
 H585 H 0.87173 0.11960 0.27553
 H586 H 0.86125 0.20051 0.30746
 H587 H 0.82433 0.21288 0.34786
 H588 H 0.77860 0.15168 0.37900
 C589 C 0.64477 0.37316 0.33191
 C590 C 0.64321 0.34947 0.34710
 C591 C 0.62602 0.33008 0.33887
 C592 C 0.61040 0.33369 0.31557
 C593 C 0.61190 0.35681 0.30067
 C594 C 0.62904 0.37670 0.30902
 C595 C 0.65912 0.39608 0.33494
 N596 N 0.65214 0.41324 0.31469
 C597 C 0.63386 0.40145 0.29881
 C598 C 0.59456 0.35481 0.27912
 N599 N 0.58263 0.33095 0.28070
 C600 C 0.59219 0.31796 0.30305
 C601 C 0.62788 0.30970 0.35732
 N602 N 0.64574 0.31595 0.37678
 C603 C 0.65539 0.34022 0.37071
 H604 H 0.67318 0.40018 0.35095
 H605 H 0.62469 0.41020 0.28095
 H606 H 0.59099 0.36963 0.26347
 H607 H 0.58651 0.29837 0.30961
 H608 H 0.61692 0.29156 0.35646
 H609 H 0.66984 0.35053 0.38278
 C610 C 0.70079 0.85948 0.82298
 C611 C 0.70229 0.83403 0.83427
 C612 C 0.68197 0.81743 0.83446
 C613 C 0.65980 0.82619 0.82267
 C614 C 0.65853 0.85130 0.81112
 C615 C 0.67913 0.86810 0.81128
 C616 C 0.71672 0.88084 0.82381
 N617 N 0.70534 0.90216 0.81271
 C618 C 0.68236 0.89462 0.80472
 C619 C 0.63493 0.85491 0.80201
 N620 N 0.62176 0.83261 0.80739
 C621 C 0.63676 0.81497 0.82019
 C622 C 0.68875 0.79477 0.84859
 N623 N 0.71267 0.79739 0.85641
 C624 C 0.72095 0.82135 0.84778
 H625 H 0.73468 0.88145 0.83367
 H626 H 0.66843 0.90808 0.79728
 H627 H 0.62797 0.87254 0.79208
 H628 H 0.63141 0.79534 0.82696
 H629 H 0.67716 0.77785 0.85309
 H630 H 0.73911 0.82942 0.85180
 C631 C 0.16292 0.37756 0.85034
 C632 C 0.16641 0.36386 0.87556
 C633 C 0.14902 0.34563 0.88412
 C634 C 0.12754 0.34136 0.86786
 C635 C 0.12409 0.35507 0.84311
 C636 C 0.14194 0.37309 0.83422
 C637 C 0.17766 0.39457 0.83550
 N638 N 0.16611 0.40034 0.81075
 C639 C 0.14421 0.38738 0.80990
 C640 C 0.10232 0.34637 0.83105
 N641 N 0.09231 0.32779 0.84788
 C642 C 0.10764 0.32455 0.87045
 C643 C 0.15824 0.33388 0.90800
 N644 N 0.18053 0.34483 0.91422
 C645 C 0.18563 0.36322 0.89458
 H646 H 0.19586 0.40125 0.84166
 H647 H 0.13111 0.38761 0.79250
 H648 H 0.09450 0.35299 0.81129
 H649 H 0.10476 0.31077 0.88734
 H650 H 0.14958 0.31822 0.91968
 H651 H 0.20249 0.37455 0.89354
 C652 C 0.18815 0.81558 0.33353
 C653 C 0.19398 0.79207 0.34755
 C654 C 0.17834 0.77026 0.34514
 C655 C 0.15672 0.77153 0.32934
 C656 C 0.15067 0.79456 0.31570
 C657 C 0.16652 0.81685 0.31793
 C658 C 0.19948 0.84028 0.33244
 N659 N 0.18514 0.85643 0.31695
 C660 C 0.16495 0.84236 0.30813
 C661 C 0.12779 0.79021 0.30353
 N662 N 0.12006 0.76526 0.31002
 C663 C 0.13769 0.75378 0.32573
 C664 C 0.18708 0.75101 0.36232
 N665 N 0.20764 0.76048 0.37560
 C666 C 0.21215 0.78563 0.36670
 H667 H 0.21665 0.84622 0.34250
 H668 H 0.15028 0.85006 0.29529
 H669 H 0.11719 0.80446 0.29191
 H670 H 0.13662 0.73404 0.33437
 H671 H 0.17818 0.73209 0.36607
 H672 H 0.22686 0.79866 0.37446
 O673 O 0.25530 0.97407 0.20108
 O674 O 0.21991 0.93295 0.24825
 O675 O 0.21632 0.98115 0.23173
 O676 O 0.26061 0.92649 0.21919
 O677 O 0.28242 0.94335 0.25584
 O678 O 0.23690 0.99761 0.26956
 O679 O 0.24151 0.94840 0.28577
 O680 O 0.27648 0.99212 0.23764
 Cu681 Cu 0.23596 0.95196 0.22141
 Cu682 Cu 0.26165 0.97187 0.26600
 C683 C 0.27150 0.99032 0.21087
 C684 C 0.22430 0.93386 0.27497
 C685 C 0.21870 0.99840 0.25270
 C686 C 0.27938 0.92595 0.23514
 O687 O 0.21917 0.46052 0.72376
 O688 O 0.26484 0.50476 0.69357
 O689 O 0.26370 0.45393 0.70512
 O690 O 0.22074 0.51076 0.71389
 O691 O 0.23432 0.52097 0.75784
 O692 O 0.27854 0.46503 0.74828
 O693 O 0.27860 0.51659 0.73703
 O694 O 0.23351 0.46992 0.76753
 Cu695 Cu 0.24084 0.48151 0.70468
 Cu696 Cu 0.25791 0.49404 0.75703
 C697 C 0.21833 0.45775 0.75065
 C698 C 0.27908 0.51868 0.70992
 C699 C 0.27844 0.44978 0.72545
 C700 C 0.21977 0.52511 0.73731
 O701 O 0.75744 -0.05774 0.26123
 O702 O 0.71565 0.00112 0.25920
 O703 O 0.71573 -0.04787 0.23480
 O704 O 0.75351 -0.01134 0.28949
 O705 O 0.77709 0.00320 0.25493
 O706 O 0.73683 -0.02937 0.20051
 O707 O 0.73930 0.01805 0.22617
 O708 O 0.77807 -0.04231 0.22476
 Cu709 Cu 0.73323 -0.03078 0.26447
 Cu710 Cu 0.76006 -0.01112 0.22312
 C711 C 0.77505 -0.05980 0.24324
 C712 C 0.72080 0.01988 0.24262
 C713 C 0.71942 -0.04422 0.20840
 C714 C 0.77186 0.00185 0.28141
 O715 O 0.79246 0.53077 0.71042
 O716 O 0.74296 0.49180 0.67768
 O717 O 0.75775 0.53937 0.67539
 O718 O 0.77155 0.48347 0.72341
 O719 O 0.74421 0.50083 0.75409
 O720 O 0.73098 0.55503 0.70785
 O721 O 0.71661 0.50707 0.71083
 O722 O 0.76760 0.54751 0.74429
 Cu723 Cu 0.76904 0.50897 0.69446
 Cu724 Cu 0.73820 0.52957 0.73302
 C725 C 0.78859 0.54647 0.73217
 C726 C 0.72141 0.49319 0.68763
 C727 C 0.74126 0.55635 0.68361
 C728 C 0.75933 0.48252 0.74674
 O729 O 0.26736 0.47578 0.30748
 O730 O 0.24058 0.51834 0.25308
 O731 O 0.23030 0.47212 0.27314
 O732 O 0.28072 0.52031 0.28426
 O733 O 0.30175 0.49868 0.24961
 O734 O 0.25201 0.44927 0.23990
 O735 O 0.26137 0.49521 0.21930
 O736 O 0.28931 0.45394 0.27379
 Cu737 Cu 0.25273 0.49905 0.28294
 Cu738 Cu 0.27848 0.47227 0.24230
 C739 C 0.28240 0.45725 0.29984
 C740 C 0.24591 0.51342 0.22678
 C741 C 0.23266 0.45240 0.25480
 C742 C 0.29977 0.51780 0.26863
 O743 O 0.74054 1.05869 0.80492
 O744 O 0.79229 1.01447 0.78367
 O745 O 0.78350 1.06506 0.78334
 O746 O 0.75167 1.00845 0.81168
 O747 O 0.73479 0.99801 0.76945
 O748 O 0.76652 1.05742 0.74061
 O749 O 0.77510 1.00591 0.74118
 O750 O 0.72317 1.04896 0.76279
 Cu751 Cu 0.76852 1.03744 0.80017
 Cu752 Cu 0.74797 1.02673 0.74934
 C753 C 0.72318 1.06157 0.78717
 C754 C 0.79262 1.00303 0.75855
 C755 C 0.78089 1.07095 0.75745
 C756 C 0.73837 0.99315 0.79573
 O757 O 0.72513 0.55120 0.31808
 O758 O 0.76845 0.49560 0.30486
 O759 O 0.77031 0.54777 0.30113
 O760 O 0.72167 0.49868 0.31827
 O761 O 0.71138 0.49607 0.27229
 O762 O 0.75865 0.54437 0.25562
 O763 O 0.75818 0.49232 0.25891
 O764 O 0.71382 0.54762 0.27244
 Cu765 Cu 0.74754 0.52341 0.31519
 Cu766 Cu 0.73451 0.51950 0.26020
 C767 C 0.71212 0.55892 0.29754
 C768 C 0.77111 0.48485 0.27973
 C769 C 0.77224 0.55471 0.27529
 C770 C 0.70784 0.48973 0.29792
 O771 O 0.26637 -0.01645 0.77359
 O772 O 0.21884 0.03491 0.76434
 O773 O 0.21967 -0.01704 0.76272
 O774 O 0.26449 0.03639 0.77976
 O775 O 0.27369 0.03784 0.73363
 O776 O 0.22968 -0.01678 0.71672
 O777 O 0.22797 0.03586 0.71814
 O778 O 0.27675 -0.01451 0.72787
 Cu779 Cu 0.24151 0.00935 0.77473
 Cu780 Cu 0.25301 0.01063 0.71944
 C781 C 0.27973 -0.02418 0.75230
 C782 C 0.21523 0.04406 0.73973
 C783 C 0.21696 -0.02593 0.73690
 C784 C 0.27645 0.04647 0.75963
 O785 O 0.24548 0.29709 1.00030
 O786 O 0.27380 0.24161 1.03840
 O787 O 0.28164 0.26379 0.99011
 O788 O 0.23632 0.27401 1.04848
 O789 O 0.21178 0.24496 1.02536
 O790 O 0.25692 0.23497 0.96683
 O791 O 0.24926 0.21308 1.01447
 O792 O 0.22056 0.26825 0.97745
 Cu793 Cu 0.26167 0.27213 1.02172
 Cu794 Cu 0.23196 0.23751 0.99387
 C795 C 0.22840 0.29209 0.98230
 C796 C 0.26669 0.21770 1.03207
 C797 C 0.27721 0.24736 0.96887
 C798 C 0.21627 0.26110 1.04679
 O799 O 0.24399 0.75377 0.53340
 O800 O 0.28164 0.69780 0.50272
 O801 O 0.28067 0.72494 0.55139
 O802 O 0.24613 0.72549 0.48427
 O803 O 0.27101 0.75617 0.46780
 O804 O 0.30692 0.75421 0.53494
 O805 O 0.30702 0.72751 0.48532
 O806 O 0.27030 0.78313 0.51727
 Cu807 Cu 0.26030 0.72280 0.51987
 Cu808 Cu 0.29144 0.75836 0.49983
 C809 C 0.25073 0.77792 0.53051
 C810 C 0.30052 0.70329 0.48826
 C811 C 0.30007 0.73880 0.55429
 C812 C 0.25282 0.74041 0.46446
 O813 O 0.26358 0.75280 -0.05927
 O814 O 0.23983 0.69971 -0.01465
 O815 O 0.22897 0.71641 -0.06460
 O816 O 0.27726 0.73199 -0.01191
 O817 O 0.25413 0.76241 0.01146
 O818 O 0.20461 0.74540 -0.04089
 O819 O 0.21664 0.72958 0.00950
 O820 O 0.23896 0.78207 -0.03641
 Cu821 Cu 0.25485 0.72234 -0.03990
 Cu822 Cu 0.22619 0.75791 -0.01185
 C823 C 0.25516 0.77657 -0.05535
 C824 C 0.22418 0.70561 0.00496
 C825 C 0.20833 0.72779 -0.06138
 C826 C 0.27425 0.74962 0.00851
 O827 O 0.26510 0.20671 0.46974
 O828 O 0.21547 0.19445 0.52224
 O829 O 0.21987 0.18937 0.46559
 O830 O 0.26116 0.20866 0.52556
 O831 O 0.24978 0.25126 0.52485
 O832 O 0.20860 0.23192 0.46393
 O833 O 0.20395 0.23684 0.51974
 O834 O 0.25348 0.24923 0.46901
 Cu835 Cu 0.24149 0.19553 0.49587
 Cu836 Cu 0.22771 0.24648 0.49420
 C837 C 0.26777 0.23025 0.46071
 C838 C 0.20134 0.21391 0.52998
 C839 C 0.20727 0.20748 0.45436
 C840 C 0.26264 0.23291 0.53543
 O841 O 0.75592 0.75508 0.95412
 O842 O 0.76322 0.72803 1.02527
 O843 O 0.78378 0.71938 0.97570
 O844 O 0.73268 0.76229 1.00317
 O845 O 0.70660 0.73012 0.98954
 O846 O 0.75714 0.68686 0.96511
 O847 O 0.73587 0.69649 1.01394
 O848 O 0.72949 0.72297 0.94137
 Cu849 Cu 0.76142 0.74463 0.99088
 Cu850 Cu 0.72962 0.70588 0.97628
 C851 C 0.74174 0.74375 0.93564
 C852 C 0.75124 0.70732 1.03154
 C853 C 0.77894 0.69553 0.96624
 C854 C 0.71089 0.75349 1.00048
 O855 O 0.68998 0.23970 0.51351
 O856 O 0.73091 0.21992 0.45259
 O857 O 0.73112 0.21337 0.50732
 O858 O 0.68842 0.24341 0.45849
 O859 O 0.70770 0.28246 0.46296
 O860 O 0.75030 0.25219 0.51503
 O861 O 0.75024 0.25876 0.45943
 O862 O 0.70896 0.27889 0.51861
 Cu863 Cu 0.70822 0.22522 0.48241
 Cu864 Cu 0.73132 0.27196 0.48964
 C865 C 0.69236 0.26291 0.52608
 C866 C 0.74762 0.23619 0.44579
 C867 C 0.74784 0.22730 0.51965
 C868 C 0.69052 0.26777 0.45228
 O869 O 0.77736 0.23942 0.06041
 O870 O 0.78699 0.27377 -0.00744
 O871 O 0.80220 0.28213 0.04623
 O872 O 0.75942 0.23358 0.00894
 O873 O 0.72841 0.25977 0.02310
 O874 O 0.77075 0.30942 0.05442
 O875 O 0.75346 0.29739 0.00230
 O876 O 0.74636 0.26645 0.07207
 Cu877 Cu 0.78479 0.25473 0.02592
 Cu878 Cu 0.74720 0.28661 0.03936
 C879 C 0.75976 0.24633 0.07714
 C880 C 0.77113 0.29086 -0.01453
 C881 C 0.79341 0.30445 0.05610
 C882 C 0.73649 0.23817 0.01097
 O883 O 0.79161 0.78934 0.48100
 O884 O 0.74144 0.77166 0.52828
 O885 O 0.74670 0.77192 0.47304
 O886 O 0.78592 0.78810 0.53561
 O887 O 0.77388 0.83059 0.53667
 O888 O 0.73296 0.81380 0.47519
 O889 O 0.72847 0.81383 0.53100
 O890 O 0.77798 0.83121 0.48064
 Cu891 Cu 0.76767 0.77603 0.50419
 Cu892 Cu 0.75199 0.82665 0.50598
 C893 C 0.79353 0.81319 0.47294
 C894 C 0.72656 0.78955 0.53796
 C895 C 0.73277 0.78997 0.46383
 C896 C 0.78690 0.81202 0.54655
 O897 O 0.97274 0.25749 0.23004
 O898 O 1.00629 0.19479 0.24287
 O899 O 0.96103 0.20679 0.23309
 O900 O 1.01910 0.24416 0.23500
 O901 O 1.01529 0.25236 0.28199
 O902 O 0.95717 0.21566 0.27989
 O903 O 1.00461 0.20464 0.28976
 O904 O 0.97189 0.26678 0.27704
 Cu905 Cu 0.99012 0.22502 0.23041
 Cu906 Cu 0.98583 0.23502 0.28668
 C907 C 0.96697 0.27299 0.25165
 C908 C 1.01155 0.18945 0.26855
 C909 C 0.94930 0.20484 0.25634
 C910 C 1.02717 0.25434 0.25876
 O911 O 0.49569 0.25357 0.72993
 O912 O 0.54018 0.24400 0.78711
 O913 O 0.49981 0.22136 0.77152
 O914 O 0.53583 0.27751 0.74672
 O915 O 0.51568 0.30640 0.77577
 O916 O 0.47910 0.24988 0.80046
 O917 O 0.51997 0.27260 0.81645
 O918 O 0.47505 0.28243 0.75851
 Cu919 Cu 0.51998 0.24638 0.75580
 Cu920 Cu 0.49532 0.28080 0.79068
 C921 C 0.47771 0.26939 0.73443
 C922 C 0.53757 0.25624 0.81155
 C923 C 0.48342 0.22607 0.79043
 C924 C 0.53212 0.30135 0.75698
 O925 O 0.01128 0.26551 0.73614
 O926 O -0.02859 0.31958 0.76845
 O927 O 0.01630 0.30288 0.77742
 O928 O -0.03103 0.28680 0.72326
 O929 O -0.04815 0.25853 0.75227
 O930 O -0.00014 0.27448 0.80676
 O931 O -0.04502 0.29103 0.79765
 O932 O -0.00596 0.23751 0.76532
 Cu933 Cu -0.00629 0.29656 0.74858
 Cu934 Cu -0.02637 0.26251 0.78334
 C935 C 0.00922 0.24205 0.74554
 C936 C -0.04392 0.31434 0.78805
 C937 C 0.01638 0.29146 0.80110
 C938 C -0.04786 0.27028 0.72862
 O939 O 0.46169 0.26275 0.21524
 O940 O 0.51277 0.22569 0.18117
 O941 O 0.46560 0.21537 0.19025
 O942 O 0.50772 0.27213 0.20875
 O943 O 0.51560 0.25472 0.25042
 O944 O 0.47569 0.19716 0.23080
 O945 O 0.52269 0.20907 0.22260
 O946 O 0.46913 0.24465 0.25664
 Cu947 Cu 0.48614 0.24541 0.19454
 Cu948 Cu 0.49656 0.22430 0.24411
 C949 C 0.45660 0.26019 0.24151
 C950 C 0.52722 0.21228 0.19618
 C951 C 0.46306 0.19695 0.20792
 C952 C 0.51866 0.27310 0.23290
 O953 O 1.00367 0.72019 0.72747
 O954 O 0.97732 0.78459 0.70766
 O955 O 1.01673 0.75736 0.69395
 O956 O 0.96423 0.74637 0.74151
 O957 O 0.98336 0.76850 0.77732
 O958 O 1.03610 0.77881 0.73004
 O959 O 0.99712 0.80593 0.74346
 O960 O 1.02277 0.74156 0.76381
 Cu961 Cu 0.98835 0.75013 0.71398
 Cu962 Cu 1.01173 0.77585 0.75736
 C963 C 1.01779 0.72002 0.74907
 C964 C 0.98308 0.80622 0.72183
 C965 C 1.03535 0.76992 0.70395
 C966 C 0.96510 0.75510 0.76764
 O967 O 0.53557 0.77780 0.24250
 O968 O 0.47492 0.76706 0.27542
 O969 O 0.51982 0.75901 0.29091
 O970 O 0.48985 0.78479 0.22678
 O971 O 0.49104 0.74387 0.20570
 O972 O 0.51550 0.71764 0.27163
 O973 O 0.47276 0.72677 0.25298
 O974 O 0.53471 0.73555 0.22520
 Cu975 Cu 0.50528 0.77648 0.26083
 Cu976 Cu 0.50353 0.72690 0.23667
 C977 C 0.54552 0.75810 0.22842
 C978 C 0.46368 0.74499 0.26994
 C979 C 0.52172 0.73366 0.29246
 C980 C 0.48553 0.76861 0.20529
 O981 O -0.00523 0.76422 0.23573
 O982 O 0.03537 0.71431 0.19631
 O983 O -0.01137 0.73082 0.19058
 O984 O 0.03983 0.74785 0.24059
 O985 O 0.02793 0.71502 0.26755
 O986 O -0.02414 0.70030 0.21986
 O987 O 0.02130 0.68263 0.22333
 O988 O -0.01581 0.73243 0.26471
 Cu989 Cu 0.01570 0.74230 0.21249
 Cu990 Cu 0.00088 0.70425 0.24627
 C991 C -0.01660 0.75673 0.25778
 C992 C 0.03575 0.69012 0.20398
 C993 C -0.02699 0.71335 0.19746
 C994 C 0.04254 0.73405 0.26258
 O995 O 0.48101 0.78406 0.77311
 O996 O 0.53007 0.74435 0.73463
 O997 O 0.48350 0.73687 0.74665
 O998 O 0.52799 0.79091 0.76320
 O999 O 0.53918 0.77069 0.80219
 O1000 O 0.49258 0.71823 0.78733
 O1001 O 0.53822 0.72408 0.77458
 O1002 O 0.49207 0.76556 0.81315
 Cu1003 Cu 0.50473 0.76600 0.75033
 Cu1004 Cu 0.51654 0.74297 0.79845
 C1005 C 0.47805 0.78102 0.79982
 C1006 C 0.54227 0.72729 0.74816
 C1007 C 0.48011 0.71867 0.76439
 C1008 C 0.54167 0.78951 0.78509
 N1009 N 0.42459 0.29511 0.23924
 N1010 N 0.40723 0.30623 0.25561
 C1011 C 0.40703 0.29425 0.28084
 C1012 C 0.42512 0.27454 0.28074
 C1013 C 0.43593 0.27597 0.25376
 H1014 H 0.42993 0.26154 0.29776
 H1015 H 0.42866 0.30079 0.21849
 H1016 H 0.39571 0.32159 0.24932
 N1017 N 0.45230 0.78776 0.84312
 N1018 N 0.42948 0.79852 0.85038
 C1019 C 0.42119 0.81151 0.82763
 C1020 C 0.43847 0.80949 0.80542
 C1021 C 0.45746 0.79386 0.81595
 H1022 H 0.43660 0.81638 0.78388
 H1023 H 0.46242 0.77536 0.85609
 H1024 H 0.42089 0.79641 0.87016
 N1025 N -0.06259 0.35973 0.78769
 N1026 N -0.08425 0.37193 0.79738
 C1027 C -0.09585 0.35463 0.81415
 C1028 C -0.08183 0.33138 0.81595
 C1029 C -0.06145 0.33520 0.79846
 H1030 H -0.08696 0.31307 0.82597
 H1031 H -0.05073 0.36760 0.77266
 H1032 H -0.09022 0.39079 0.79149
 N1033 N -0.02475 0.77687 0.30598
 N1034 N -0.04276 0.79252 0.31979
 C1035 C -0.05814 0.80101 0.29950
 C1036 C -0.04997 0.79159 0.27226
 C1037 C -0.02920 0.77617 0.27756
 H1038 H -0.05919 0.79326 0.25187
 H1039 H -0.01136 0.76600 0.31641
 H1040 H -0.04390 0.79587 0.34208
 N1041 N 0.52390 0.69790 0.32702
 N1042 N 0.53965 0.68979 0.34616
 C1043 C 0.55712 0.70871 0.35012
 C1044 C 0.55211 0.73009 0.33313
 C1045 C 0.53107 0.72210 0.31847
 H1046 H 0.56411 0.74663 0.32852
 H1047 H 0.50958 0.68611 0.31840
 H1048 H 0.53959 0.67064 0.35435
 N1049 N 0.55578 0.26350 0.86059
 N1050 N 0.57470 0.25199 0.87595
 C1051 C 0.58484 0.23241 0.85853
 C1052 C 0.57302 0.23107 0.83216
 C1053 C 0.55509 0.25075 0.83432
 H1054 H 0.57673 0.21754 0.81367
 H1055 H 0.54437 0.27908 0.86849
 H1056 H 0.57949 0.25779 0.89709
 N1057 N 1.02780 0.67149 0.74049
 N1058 N 1.04447 0.65357 0.75167
 C1059 C 1.05538 0.66647 0.77448
 C1060 C 1.04583 0.69223 0.77871
 C1061 C 1.02915 0.69473 0.75668
 H1062 H 1.05188 0.70807 0.79393
 H1063 H 1.01781 0.66789 0.72155
 H1064 H 1.04829 0.63437 0.74257
 N1065 N 1.02892 0.14445 0.25503
 N1066 N 1.04725 0.12805 0.26539
 C1067 C 1.05599 0.14036 0.28986
 C1068 C 1.04312 0.16406 0.29614
 C1069 C 1.02668 0.16595 0.27366
 H1070 H 1.04645 0.17907 0.31341
 H1071 H 1.01973 0.14100 0.23551
 H1072 H 1.05365 0.11054 0.25448
 N1073 N 0.54686 0.34909 0.75620
 N1074 N 0.56304 0.36252 0.74134
 C1075 C 0.57375 0.34502 0.72205
 C1076 C 0.56422 0.31961 0.72470
 C1077 C 0.54726 0.32303 0.74649
 H1078 H 0.56878 0.30114 0.71247
 H1079 H 0.53578 0.35769 0.77255
 H1080 H 0.56631 0.38317 0.74422
 N1081 N 0.57996 0.74038 0.19897
 N1082 N 0.59819 0.75093 0.18208
 C1083 C 0.59860 0.77780 0.18776
 C1084 C 0.58110 0.78507 0.20856
 C1085 C 0.56930 0.76103 0.21418
 H1086 H 0.57546 0.80527 0.21552
 H1087 H 0.57414 0.72034 0.19736
 H1088 H 0.60858 0.73963 0.16693
 N1089 N 1.05787 0.28417 0.28288
 N1090 N 1.08021 0.29561 0.27601
 C1091 C 1.08597 0.28662 0.24895
 C1092 C 1.06773 0.26953 0.23795
 C1093 C 1.05046 0.26883 0.25982
 H1094 H 1.06675 0.25949 0.21676
 H1095 H 1.04860 0.28765 0.30237
 H1096 H 1.09023 0.30848 0.29000
 N1097 N 1.05907 0.76311 0.65834
 N1098 N 1.07898 0.77310 0.64675
 C1099 C 1.08889 0.79127 0.66589
 C1100 C 1.07494 0.79284 0.69076
 C1101 C 1.05617 0.77469 0.68499
 H1102 H 1.07749 0.80591 0.70988
 H1103 H 1.04755 0.74895 0.64792
 H1104 H 1.08506 0.76803 0.62589
 N1105 N 0.45612 0.67740 0.77472
 N1106 N 0.43624 0.66498 0.76458
 C1107 C 0.42808 0.67816 0.74194
 C1108 C 0.44340 0.69962 0.73725
 C1109 C 0.46088 0.69849 0.75855
 H1110 H 0.44166 0.71463 0.72140
 H1111 H 0.46585 0.67185 0.79277
 H1112 H 0.42817 0.64840 0.77364
 N1113 N 0.44289 0.15379 0.21867
 N1114 N 0.42270 0.14047 0.21148
 C1115 C 0.41097 0.15367 0.19103
 C1116 C 0.42444 0.17632 0.18466
 C1117 C 0.44457 0.17564 0.20286
 H1118 H 0.41974 0.19176 0.17012
 H1119 H 0.45495 0.14833 0.23475
 H1120 H 0.41698 0.12303 0.22103
 N1121 N -0.05543 0.72168 0.15662
 N1122 N -0.07813 0.71506 0.14916
 C1123 C -0.08686 0.69788 0.16812
 C1124 C -0.06899 0.69320 0.18831
 C1125 C -0.04939 0.70876 0.18033
 H1126 H -0.07037 0.68136 0.20706
 H1127 H -0.04465 0.73548 0.14616
 H1128 H -0.08751 0.72285 0.13194
 N1129 N -0.07004 0.27799 0.68284
 N1130 N -0.09131 0.26841 0.66913
 C1131 C -0.10114 0.24984 0.68575
 C1132 C -0.08669 0.24723 0.71007
 C1133 C -0.06751 0.26509 0.70742
 H1134 H -0.08963 0.23426 0.72765
 H1135 H -0.05858 0.29284 0.67526
 H1136 H -0.09785 0.27478 0.64956
 N1137 N 0.28212 0.43747 0.34804
 N1138 N 0.29186 0.41649 0.36010
 C1139 C 0.30741 0.40420 0.34113
 C1140 C 0.30763 0.41778 0.31593
 C1141 C 0.29120 0.43871 0.32117
 H1142 H 0.31728 0.41241 0.29611
 H1143 H 0.26886 0.45011 0.35776
 H1144 H 0.28758 0.41061 0.38071
 N1145 N 0.31847 -0.04895 0.73902
 N1146 N 0.33229 -0.06973 0.75005
 C1147 C 0.32031 -0.07798 0.77333
 C1148 C 0.29917 -0.06263 0.77791
 C1149 C 0.29873 -0.04477 0.75613
 H1150 H 0.28565 -0.06413 0.79475
 H1151 H 0.32304 -0.03858 0.72085
 H1152 H 0.34853 -0.07744 0.74107
 N1153 N 0.74254 0.45288 0.78250
 N1154 N 0.75066 0.43279 0.79981
 C1155 C 0.77441 0.42811 0.79340
 C1156 C 0.78185 0.44459 0.77158
 C1157 C 0.76128 0.45989 0.76565
 H1158 H 0.79992 0.44625 0.76228
 H1159 H 0.72501 0.46132 0.78337
 H1160 H 0.73994 0.42419 0.81543
 N1161 N 0.80947 -0.08794 0.22336
 N1162 N 0.82578 -0.10687 0.23346
 C1163 C 0.81889 -0.11188 0.26047
 C1164 C 0.79795 -0.09692 0.26789
 C1165 C 0.79289 -0.08201 0.24423
 H1166 H 0.78865 -0.09536 0.28845
 H1167 H 0.81106 -0.07897 0.20367
 H1168 H 0.84117 -0.11415 0.22221
 N1169 N 0.29743 0.53971 0.66796
 N1170 N 0.31042 0.56123 0.66266
 C1171 C 0.31737 0.57335 0.68788
 C1172 C 0.30847 0.55901 0.71044
 C1173 C 0.29562 0.53785 0.69668
 H1174 H 0.30922 0.56457 0.73323
 H1175 H 0.28899 0.52728 0.65209
 H1176 H 0.31362 0.56800 0.64214
 N1177 N 0.27687 1.00603 0.16217
 N1178 N 0.28753 1.02758 0.14919
 C1179 C 0.30087 1.04145 0.16930
 C1180 C 0.29928 1.02911 0.19550
 C1181 C 0.28343 1.00736 0.19010
 H1182 H 0.30654 1.03643 0.21609
 H1183 H 0.26447 0.99263 0.15205
 H1184 H 0.28498 1.03183 0.12768
 N1185 N 0.80841 0.58525 0.28391
 N1186 N 0.82015 0.60360 0.26956
 C1187 C 0.80898 0.60568 0.24395
 C1188 C 0.78959 0.58793 0.24170
 C1189 C 0.78986 0.57534 0.26743
 H1190 H 0.77696 0.58468 0.22396
 H1191 H 0.81307 0.57970 0.30452
 H1192 H 0.83519 0.61465 0.27743
 N1193 N 0.81397 1.10433 0.76388
 N1194 N 0.82348 1.12457 0.75062
 C1195 C 0.81123 1.12719 0.72584
 C1196 C 0.79309 1.10755 0.72298
 C1197 C 0.79554 1.09354 0.74786
 H1198 H 0.77985 1.10431 0.70587
 H1199 H 0.82006 1.09813 0.78374
 H1200 H 0.83791 1.13634 0.75887
 N1201 N 0.67571 0.58586 0.28530
 N1202 N 0.66259 0.60585 0.29713
 C1203 C 0.67312 0.61411 0.32224
 C1204 C 0.69372 0.59878 0.32689
 C1205 C 0.69456 0.58092 0.30288
 H1206 H 0.70587 0.59994 0.34527
 H1207 H 0.67146 0.57547 0.26583
 H1208 H 0.64679 0.61361 0.28805
 N1209 N 0.68429 1.08528 0.77704
 N1210 N 0.67017 1.10569 0.79051
 C1211 C 0.68092 1.11254 0.81594
 C1212 C 0.70168 1.09691 0.81938
 C1213 C 0.70315 1.08029 0.79460
 H1214 H 0.71453 1.09787 0.83708
 H1215 H 0.68093 1.07633 0.75660
 H1216 H 0.65448 1.11392 0.78169
 N1217 N 0.18271 0.54813 0.72114
 N1218 N 0.16600 0.56701 0.73238
 C1219 C 0.17436 0.57624 0.75837
 C1220 C 0.19647 0.56370 0.76429
 C1221 C 0.20073 0.54592 0.74054
 H1222 H 0.20717 0.56589 0.78383
 H1223 H 0.18050 0.53677 0.70177
 H1224 H 0.15012 0.57256 0.72176
 N1225 N 0.18004 1.01967 0.23940
 N1226 N 0.16376 1.03872 0.25108
 C1227 C 0.17357 1.04933 0.27580
 C1228 C 0.19634 1.03754 0.28036
 C1229 C 0.19939 1.01877 0.25715
 H1230 H 0.20835 1.04098 0.29867
 H1231 H 0.17689 1.00760 0.22069
 H1232 H 0.14717 1.04342 0.24148
 N1233 N 0.70275 0.47660 0.64196
 N1234 N 0.68697 0.45794 0.63303
 C1235 C 0.67614 0.44808 0.65620
 C1236 C 0.68509 0.46126 0.68110
 C1237 C 0.70223 0.47901 0.67093
 H1238 H 0.68202 0.45621 0.70314
 H1239 H 0.71472 0.48637 0.62845
 H1240 H 0.68476 0.45112 0.61157
 N1241 N 0.70343 -0.05026 0.15873
 N1242 N 0.68871 -0.06678 0.14389
 C1243 C 0.67906 -0.08431 0.16184
 C1244 C 0.68779 -0.07866 0.18947
 C1245 C 0.70345 -0.05700 0.18635
 H1246 H 0.68479 -0.08989 0.20843
 H1247 H 0.71376 -0.03511 0.14983
 H1248 H 0.68605 -0.06646 0.12170
 N1249 N 0.19186 0.43456 0.26672
 N1250 N 0.17826 0.41335 0.25961
 C1251 C 0.19025 0.39795 0.23942
 C1252 C 0.21242 0.40977 0.23318
 C1253 C 0.21269 0.43295 0.25124
 H1254 H 0.22655 0.40224 0.21854
 H1255 H 0.18702 0.44962 0.28223
 H1256 H 0.16116 0.40968 0.26864
 N1257 N 0.18156 -0.05468 0.74898
 N1258 N 0.16807 -0.07549 0.73535
 C1259 C 0.17773 -0.08018 0.70887
 C1260 C 0.19705 -0.06257 0.70485
 C1261 C 0.19884 -0.04711 0.73039
 H1262 H 0.20868 -0.06132 0.68614
 H1263 H 0.17858 -0.04675 0.76994
 H1264 H 0.15376 -0.08569 0.74487
 N1265 N 0.30418 0.21796 0.42982
 N1266 N 0.31904 0.23012 0.41216
 C1267 C 0.31209 0.25609 0.41126
 C1268 C 0.29200 0.26070 0.42905
 C1269 C 0.28755 0.23598 0.44039
 H1270 H 0.28190 0.27925 0.43314
 H1271 H 0.30542 0.19767 0.43442
 H1272 H 0.33350 0.22062 0.40097
 N1273 N 0.25354 0.82248 -0.07404
 N1274 N 0.26628 0.83703 -0.09165
 C1275 C 0.28547 0.82223 -0.10157
 C1276 C 0.28495 0.79712 -0.09010
 C1277 C 0.26429 0.79814 -0.07278
 H1278 H 0.29759 0.78053 -0.09390
 H1279 H 0.23769 0.82913 -0.06323
 H1280 H 0.26194 0.85674 -0.09646
 N1281 N 0.75192 0.31214 -0.05557
 N1282 N 0.75818 0.32284 -0.07978
 C1283 C 0.78268 0.32090 -0.08317
 C1284 C 0.79250 0.30780 -0.06002
 C1285 C 0.77210 0.30285 -0.04286
 H1286 H 0.81156 0.30383 -0.05553
 H1287 H 0.73399 0.31145 -0.04779
 H1288 H 0.74567 0.33162 -0.09337
 N1289 N 0.83723 0.80967 0.46006
 N1290 N 0.85180 0.81609 0.43892
 C1291 C 0.83875 0.83005 0.42017
 C1292 C 0.81484 0.83315 0.43011
 C1293 C 0.81476 0.81965 0.45542
 H1294 H 0.79937 0.84182 0.41943
 H1295 H 0.84247 0.79792 0.47696
 H1296 H 0.87003 0.80993 0.43706
 N1297 N 0.65735 0.25684 0.55966
 N1298 N 0.64569 0.27140 0.58001
 C1299 C 0.65635 0.29586 0.58281
 C1300 C 0.67560 0.29698 0.56359
 C1301 C 0.67559 0.27179 0.54935
 H1302 H 0.68783 0.31365 0.56030
 H1303 H 0.65277 0.23709 0.55295
 H1304 H 0.63070 0.26457 0.59147
 N1305 N 0.66660 0.76325 1.00436
 N1306 N 0.65207 0.77856 1.02094
 C1307 C 0.66602 0.79543 1.03749
 C1308 C 0.69051 0.79089 1.03124
 C1309 C 0.69001 0.76996 1.01038
 H1310 H 0.70623 0.79885 1.04299
 H1311 H 0.66056 0.74729 0.99064
 H1312 H 0.63313 0.77606 1.02239
 N1313 N 0.17657 0.25121 1.07034
 N1314 N 0.16448 0.25889 1.09399
 C1315 C 0.17787 0.27762 1.10891
 C1316 C 0.19948 0.28211 1.09419
 C1317 C 0.19789 0.26480 1.06982
 H1318 H 0.21430 0.29562 1.10041
 H1319 H 0.17030 0.23677 1.05493
 H1320 H 0.14739 0.25134 1.09955
 N1321 N 0.24217 0.82644 0.54181
 N1322 N 0.22631 0.84113 0.55731
 C1323 C 0.20971 0.82449 0.56824
 C1324 C 0.21507 0.79810 0.55947
 C1325 C 0.23598 0.80028 0.54292
 H1326 H 0.20611 0.77992 0.56576
 H1327 H 0.25737 0.83423 0.53145
 H1328 H 0.22733 0.86203 0.56081
 N1329 N 0.33542 0.75020 0.58675
 N1330 N 0.34565 0.74021 0.60962
 C1331 C 0.33195 0.71931 0.61759
 C1332 C 0.31212 0.71599 0.59934
 C1333 C 0.31507 0.73590 0.58003
 H1334 H 0.29821 0.70049 0.59912
 H1335 H 0.34269 0.76599 0.57554
 H1336 H 0.36208 0.74709 0.61876
 N1337 N 0.27498 0.16902 1.03412
 N1338 N 0.28742 0.15261 1.04991
 C1339 C 0.29965 0.16734 1.07035
 C1340 C 0.29495 0.19454 1.06747
 C1341 C 0.27889 0.19455 1.04422
 H1342 H 0.30087 0.21149 1.08131
 H1343 H 0.26361 0.16269 1.01703
 H1344 H 0.28689 0.13163 1.04713
 N1345 N 0.74238 0.67558 1.06994
 N1346 N 0.75312 0.66758 1.09345
 C1347 C 0.77394 0.68181 1.09777
 C1348 C 0.77648 0.69984 1.07631
 C1349 C 0.75604 0.69517 1.05907
 H1350 H 0.79146 0.71356 1.07298
 H1351 H 0.72627 0.66731 1.06123
 H1352 H 0.74656 0.65209 1.10561
 N1353 N 0.76437 0.18644 0.54037
 N1354 N 0.77785 0.17981 0.56234
 C1355 C 0.78655 0.20248 0.57569
 C1356 C 0.77843 0.22477 0.56156
 C1357 C 0.76407 0.21349 0.53933
 H1358 H 0.78082 0.24586 0.56795
 H1359 H 0.75482 0.17258 0.52694
 H1360 H 0.78034 0.16011 0.56850
 N1361 N 0.69916 0.80040 0.43019
 N1362 N 0.68379 0.78687 0.41294
 C1363 C 0.69019 0.76067 0.41184
 C1364 C 0.71053 0.75722 0.42898
 C1365 C 0.71545 0.78298 0.44049
 H1366 H 0.71904 0.73849 0.43435
 H1367 H 0.69772 0.82097 0.43582
 H1368 H 0.66873 0.79540 0.40304
 N1369 N 0.69658 0.21566 0.01324
 N1370 N 0.68142 0.20308 -0.00492
 C1371 C 0.69337 0.19761 -0.02981
 C1372 C 0.71727 0.20686 -0.02754
 C1373 C 0.71837 0.21855 0.00014
 H1374 H 0.73043 0.20866 -0.04473
 H1375 H 0.69146 0.22403 0.03345
 H1376 H 0.66279 0.20025 -0.00104
 N1377 N 0.16614 0.73196 -0.08052
 N1378 N 0.15197 0.71940 -0.09989
 C1379 C 0.16484 0.69915 -0.11324
 C1380 C 0.18833 0.69884 -0.10196
 C1381 C 0.18829 0.72007 -0.08118
 H1382 H 0.20306 0.68492 -0.10747
 H1383 H 0.16053 0.74817 -0.06685
 H1384 H 0.13374 0.72461 -0.10335
 N1385 N 0.17491 0.21773 0.41907
 N1386 N 0.16196 0.20493 0.39867
 C1387 C 0.16945 0.17908 0.39609
 C1388 C 0.18800 0.17509 0.41580
 C1389 C 0.19075 0.20028 0.43011
 H1390 H 0.19744 0.15653 0.41982
 H1391 H 0.17257 0.23802 0.42559
 H1392 H 0.14819 0.21387 0.38690
 N1393 N 0.31296 0.42225 0.74241
 N1394 N 0.32566 0.40080 0.73341
 C1395 C 0.31657 0.39145 0.70786
 C1396 C 0.29721 0.40761 0.70014
 C1397 C 0.29568 0.42705 0.72272
 H1398 H 0.28622 0.40586 0.68079
 H1399 H 0.31625 0.43344 0.76168
 H1400 H 0.34020 0.39286 0.74476
 N1401 N 0.31838 0.90237 0.24501
 N1402 N 0.33303 0.88476 0.23142
 C1403 C 0.32240 0.87640 0.20636
 C1404 C 0.29995 0.88897 0.20391
 C1405 C 0.29825 0.90548 0.22885
 H1406 H 0.28752 0.88782 0.18580
 H1407 H 0.32257 0.91271 0.26453
 H1408 H 0.35020 0.87929 0.23900
 N1409 N 0.80453 0.45558 0.29604
 N1410 N 0.82056 0.43821 0.28464
 C1411 C 0.81642 0.43532 0.25611
 C1412 C 0.79685 0.45142 0.24892
 C1413 C 0.78994 0.46401 0.27501
 H1414 H 0.78920 0.45417 0.22784
 H1415 H 0.80391 0.46178 0.31784
 H1416 H 0.83400 0.42873 0.29639
 N1417 N 0.83435 0.98436 0.76481
 N1418 N 0.85009 0.96920 0.74966
 C1419 C 0.83964 0.96158 0.72427
 C1420 C 0.81628 0.97222 0.72308
 C1421 C 0.81375 0.98662 0.74928
 H1422 H 0.80321 0.97015 0.70565
 H1423 H 0.83785 0.99317 0.78528
 H1424 H 0.86750 0.96419 0.75688
 N1425 N 0.74358 0.58406 0.64018
 N1426 N 0.73131 0.60445 0.62998
 C1427 C 0.71281 0.61107 0.64827
 C1428 C 0.71334 0.59447 0.67105
 C1429 C 0.73317 0.57768 0.66517
 H1430 H 0.70126 0.59470 0.68951
 H1431 H 0.75885 0.57489 0.63026
 H1432 H 0.73559 0.61346 0.61086
 N1433 N 0.68372 0.04730 0.25623
 N1434 N 0.67402 0.07063 0.24987
 C1435 C 0.68926 0.08266 0.23171
 C1436 C 0.70948 0.06634 0.22619
 C1437 C 0.70517 0.04401 0.24210
 H1438 H 0.72476 0.06977 0.21203
 H1439 H 0.67553 0.03374 0.26966
 H1440 H 0.65726 0.07795 0.25777
 N1441 N 0.23906 0.52406 0.17606
 N1442 N 0.22652 0.54136 0.16143
 C1443 C 0.21314 0.55705 0.18001
 C1444 C 0.21730 0.54954 0.20788
 C1445 C 0.23414 0.52855 0.20428
 H1446 H 0.21019 0.55880 0.22777
 H1447 H 0.25115 0.50977 0.16679
 H1448 H 0.22751 0.54260 0.13914
 N1449 N 0.18101 0.07264 0.75855
 N1450 N 0.16593 0.09106 0.74946
 C1451 C 0.17101 0.09502 0.72167
 C1452 C 0.19024 0.07834 0.71250
 C1453 C 0.19597 0.06442 0.73677
 H1454 H 0.19864 0.07643 0.69142
 H1455 H 0.18097 0.06586 0.77940
 H1456 H 0.15267 0.10084 0.76240
 N1457 N 0.33814 0.54079 0.25397
 N1458 N 0.35222 0.56075 0.26415
 C1459 C 0.34299 0.57002 0.28965
 C1460 C 0.32216 0.55570 0.29596
 C1461 C 0.31970 0.53739 0.27274
 H1462 H 0.31030 0.55840 0.31454
 H1463 H 0.34099 0.52998 0.23437
 H1464 H 0.36781 0.56766 0.25385
 N1465 N 0.30996 0.07738 0.74713
 N1466 N 0.32408 0.09566 0.76035
 C1467 C 0.31697 0.09871 0.78806
 C1468 C 0.29763 0.08162 0.79298
 C1469 C 0.29391 0.06828 0.76632
 H1470 H 0.28846 0.07846 0.81314
 H1471 H 0.31179 0.07082 0.72552
 H1472 H 0.33847 0.10554 0.75057
 N1473 N 0.82920 0.56790 0.72669
 N1474 N 0.84339 0.58549 0.74090
 C1475 C 0.83233 0.59287 0.76591
 C1476 C 0.81004 0.57965 0.76783
 C1477 C 0.80880 0.56401 0.74232
 H1478 H 0.79666 0.58138 0.78500
 H1479 H 0.83336 0.55897 0.70642
 H1480 H 0.86036 0.59199 0.73361
 N1481 N 0.81113 0.00985 0.30628
 N1482 N 0.82224 0.03089 0.31889
 C1483 C 0.80572 0.05080 0.32348
 C1484 C 0.78307 0.04203 0.31361
 C1485 C 0.78738 0.01601 0.30268
 H1486 H 0.76705 0.05428 0.31016
 H1487 H 0.82015 -0.00737 0.29784
 H1488 H 0.84117 0.03243 0.32166
 N1489 N 0.66446 0.47811 0.29106
 N1490 N 0.64958 0.45788 0.29535
 C1491 C 0.66162 0.43965 0.31037
 C1492 C 0.68523 0.44884 0.31644
 C1493 C 0.68620 0.47335 0.30342
 H1494 H 0.70007 0.43819 0.32620
 H1495 H 0.66006 0.49444 0.27883
 H1496 H 0.63183 0.45633 0.28714
 N1497 N 0.73263 0.96363 0.83612
 N1498 N 0.72427 0.93938 0.84060
 C1499 C 0.71408 0.92922 0.81610
 C1500 C 0.71592 0.94765 0.79484
 C1501 C 0.72814 0.96925 0.80858
 H1502 H 0.71075 0.94497 0.77243
 H1503 H 0.74212 0.97566 0.85149
 H1504 H 0.72605 0.92979 0.85990
 N1505 N 0.18033 0.43064 0.74563
 N1506 N 0.16632 0.41571 0.76149
 C1507 C 0.17597 0.41564 0.78810
 C1508 C 0.19705 0.43131 0.78938
 C1509 C 0.19911 0.44041 0.76180
 H1510 H 0.20922 0.43525 0.80744
 H1511 H 0.17702 0.43398 0.72401
 H1512 H 0.15074 0.40549 0.75385
 N1513 N 0.18360 0.92261 0.29341
 N1514 N 0.17288 0.90152 0.30395
 C1515 C 0.19030 0.88370 0.31044
 C1516 C 0.21320 0.89392 0.30404
 C1517 C 0.20803 0.91872 0.29314
 H1518 H 0.23058 0.88343 0.30376
 H1519 H 0.17421 0.93851 0.28460
 H1520 H 0.15395 0.89883 0.30507
 N1521 N 0.46047 0.25756 0.68599
 N1522 N 0.44110 0.26358 0.67066
 C1523 C 0.42780 0.28216 0.68594
 C1524 C 0.43906 0.28832 0.71217
 C1525 C 0.45973 0.27209 0.71132
 H1526 H 0.43280 0.30190 0.72962
 H1527 H 0.47373 0.24339 0.67932
 H1528 H 0.43719 0.25497 0.65021
 N1529 N 0.47358 0.76505 0.15379
 N1530 N 0.45650 0.77528 0.13756
 C1531 C 0.44473 0.79492 0.15323
 C1532 C 0.45513 0.79773 0.18039
 C1533 C 0.47309 0.77812 0.17992
 H1534 H 0.44864 0.80979 0.19892
 H1535 H 0.48439 0.74839 0.14754
 H1536 H 0.45216 0.76770 0.11683
 N1537 N 0.95438 0.31903 0.26807
 N1538 N 0.93927 0.33786 0.25999
 C1539 C 0.92937 0.32964 0.23449
 C1540 C 0.93884 0.30463 0.22561
 C1541 C 0.95448 0.29861 0.24784
 H1542 H 0.93370 0.29183 0.20705
 H1543 H 0.96390 0.31990 0.28755
 H1544 H 0.93544 0.35554 0.27231
 N1545 N 0.97906 0.85614 0.72590
 N1546 N 0.96574 0.87480 0.71415
 C1547 C 0.95155 0.86270 0.69361
 C1548 C 0.95600 0.83527 0.69206
 C1549 C 0.97338 0.83198 0.71312
 H1550 H 0.94677 0.81972 0.67900
 H1551 H 0.99129 0.85990 0.74289
 H1552 H 0.96594 0.89520 0.72081
 N1553 N 0.53948 0.31687 0.22478
 N1554 N 0.55644 0.33227 0.23758
 C1555 C 0.56357 0.32075 0.26177
 C1556 C 0.55056 0.29714 0.26461
 C1557 C 0.53550 0.29541 0.24066
 H1558 H 0.55213 0.28290 0.28128
 H1559 H 0.53104 0.32090 0.20535
 H1560 H 0.56318 0.34998 0.22949
 N1561 N 0.56250 0.83274 0.77649
 N1562 N 0.58385 0.84420 0.78241
 C1563 C 0.59659 0.82820 0.79947
 C1564 C 0.58270 0.80574 0.80500
 C1565 C 0.56123 0.80943 0.78985
 H1566 H 0.58799 0.78841 0.81664
 H1567 H 0.54943 0.84037 0.76273
 H1568 H 0.58974 0.86204 0.77382
 N1569 N 0.03921 0.28635 0.84715
 N1570 N 0.05947 0.29594 0.85949
 C1571 C 0.06965 0.31369 0.84214
 C1572 C 0.05531 0.31554 0.81780
 C1573 C 0.03620 0.29783 0.82181
 H1574 H 0.05847 0.32759 0.79949
 H1575 H 0.02788 0.27194 0.85584
 H1576 H 0.06609 0.29020 0.87927
 N1577 N 0.06668 0.72503 0.30596
 N1578 N 0.08719 0.73321 0.31852
 C1579 C 0.09678 0.75306 0.30351
 C1580 C 0.08176 0.75793 0.28032
 C1581 C 0.06290 0.73941 0.28265
 H1582 H 0.08467 0.77190 0.26362
 H1583 H 0.05577 0.70945 0.31302
 H1584 H 0.09442 0.72507 0.33690
 N1585 N 0.57059 0.68832 0.74484
 N1586 N 0.58884 0.67907 0.72855
 C1587 C 0.59196 0.69556 0.70682
 C1588 C 0.57472 0.71621 0.70918
 C1589 C 0.56155 0.71076 0.73379
 H1590 H 0.57267 0.73318 0.69579
 H1591 H 0.56475 0.67958 0.76357
 H1592 H 0.59927 0.66219 0.73296
 N1593 N 0.55680 0.20746 0.15569
 N1594 N 0.57995 0.20054 0.15160
 C1595 C 0.58848 0.19050 0.17589
 C1596 C 0.57002 0.19092 0.19649
 C1597 C 0.55018 0.20217 0.18275
 H1598 H 0.57142 0.18585 0.21875
 H1599 H 0.54613 0.21687 0.14056
 H1600 H 0.58976 0.20328 0.13272
 N1601 N 0.05366 0.64425 0.19830
 N1602 N 0.07440 0.63284 0.18959
 C1603 C 0.08829 0.65143 0.17739
 C1604 C 0.07579 0.67588 0.17812
 C1605 C 0.05384 0.67041 0.19197
 H1606 H 0.08255 0.69519 0.17195
 H1607 H 0.04010 0.63448 0.20966
 H1608 H 0.07913 0.61286 0.19275
 N1609 N 0.02243 0.19431 0.74315
 N1610 N 0.04004 0.17920 0.73145
 C1611 C 0.05376 0.19444 0.71466
 C1612 C 0.04451 0.22054 0.71554
 C1613 C 0.02463 0.21953 0.73422
 H1614 H 0.05198 0.23792 0.70560
 H1615 H 0.00953 0.18751 0.75767
 H1616 H 0.04275 0.15895 0.73542
 N1617 N 0.43018 0.75627 0.30491
 N1618 N 0.41287 0.74297 0.31803
 C1619 C 0.41198 0.71765 0.30614
 C1620 C 0.42920 0.71466 0.28445
 C1621 C 0.44060 0.73955 0.28464
 H1622 H 0.43451 0.69628 0.27249
 H1623 H 0.43566 0.77589 0.31098
 H1624 H 0.40274 0.75085 0.33558
 N1625 N 0.47218 0.17770 0.79102
 N1626 N 0.45499 0.16304 0.80253
 C1627 C 0.44100 0.17941 0.81974
 C1628 C 0.44951 0.20556 0.81931
 C1629 C 0.46918 0.20357 0.80059
 H1630 H 0.44151 0.22365 0.82937
 H1631 H 0.48516 0.17018 0.77614
 H1632 H 0.45255 0.14243 0.79788
 N1633 N 0.94302 0.75911 0.81450
 N1634 N 0.92570 0.74591 0.82768
 C1635 C 0.91672 0.72663 0.80908
 C1636 C 0.92857 0.72779 0.78285
 C1637 C 0.94526 0.74855 0.78734
 H1638 H 0.92679 0.71421 0.76400
 H1639 H 0.95375 0.77434 0.82438
 H1640 H 0.92098 0.74950 0.84929
 N1641 N 0.92011 0.17049 0.23588
 N1642 N 0.89968 0.15890 0.24402
 C1643 C 0.89271 0.17082 0.26938
 C1644 C 0.90927 0.19054 0.27806
 C1645 C 0.92647 0.18953 0.25625
 H1646 H 0.90937 0.20296 0.29791
 H1647 H 0.92990 0.16480 0.21722
 H1648 H 0.89091 0.14304 0.23254
 N1649 N 0.29402 0.22024 0.57051
 N1650 N 0.30866 0.23193 0.58990
 C1651 C 0.30403 0.25857 0.59153
 C1652 C 0.28550 0.26428 0.57231
 C1653 C 0.27985 0.23917 0.55921
 H1654 H 0.27811 0.28376 0.56764
 H1655 H 0.29416 0.19963 0.56475
 H1656 H 0.32168 0.22169 0.60156
 N1657 N 0.31555 0.74019 0.02710
 N1658 N 0.33113 0.75035 0.04636
 C1659 C 0.32063 0.77179 0.06044
 C1660 C 0.29712 0.77542 0.04982
 C1661 C 0.29480 0.75487 0.02844
 H1662 H 0.28408 0.79110 0.05595
 H1663 H 0.31930 0.72358 0.01304
 H1664 H 0.34862 0.74258 0.04950
 N1665 N 0.80479 0.35188 0.06667
 N1666 N 0.81744 0.36593 0.08637
 C1667 C 0.83004 0.34871 0.10207
 C1668 C 0.82556 0.32245 0.09175
 C1669 C 0.80912 0.32547 0.06943
 H1670 H 0.83062 0.30402 0.10158
 H1671 H 0.79215 0.36022 0.05285
 H1672 H 0.81612 0.38679 0.09012
 N1673 N 0.81905 0.79934 0.58081
 N1674 N 0.83419 0.81138 0.59943
 C1675 C 0.82894 0.83787 0.60135
 C1676 C 0.80958 0.84313 0.58324
 C1677 C 0.80403 0.81798 0.57037
 H1678 H 0.80187 0.86249 0.57866
 H1679 H 0.81964 0.77882 0.57467
 H1680 H 0.84815 0.80160 0.61008
 N1681 N 0.30888 0.65516 0.47374
 N1682 N 0.32203 0.64186 0.45375
 C1683 C 0.33618 0.65968 0.44057
 C1684 C 0.33214 0.68524 0.45281
 C1685 C 0.31447 0.68154 0.47345
 H1686 H 0.33897 0.70419 0.44569
 H1687 H 0.29535 0.64646 0.48611
 H1688 H 0.32029 0.62128 0.44842
 N1689 N 0.31694 0.25672 0.94550
 N1690 N 0.33157 0.24498 0.92599
 C1691 C 0.32048 0.22258 0.91474
 C1692 C 0.29764 0.22005 0.92738
 C1693 C 0.29626 0.24212 0.94697
 H1694 H 0.28469 0.20369 0.92428
 H1695 H 0.32144 0.27401 0.95815
 H1696 H 0.34902 0.25201 0.92122
 N1697 N 0.79691 0.65048 0.95556
 N1698 N 0.81422 0.64005 0.93858
 C1699 C 0.82705 0.66034 0.92785
 C1700 C 0.81795 0.68476 0.93893
 C1701 C 0.79854 0.67752 0.95592
 H1702 H 0.82214 0.70465 0.93195
 H1703 H 0.78318 0.63928 0.96498
 H1704 H 0.81582 0.61954 0.93271
 N1705 N 0.78024 0.24690 0.41128
 N1706 N 0.79334 0.23441 0.39081
 C1707 C 0.78607 0.20849 0.38811
 C1708 C 0.76738 0.20424 0.40757
 C1709 C 0.76437 0.22924 0.42189
 H1710 H 0.75787 0.18568 0.41136
 H1711 H 0.78237 0.26716 0.41799
 H1712 H 0.80720 0.24361 0.37944
 N1713 N 0.65088 0.26540 0.42702
 N1714 N 0.63892 0.27804 0.40724
 C1715 C 0.65238 0.29926 0.39981
 C1716 C 0.67388 0.30049 0.41589
 C1717 C 0.67215 0.27829 0.43274
 H1718 H 0.68899 0.31440 0.41441
 H1719 H 0.64464 0.24790 0.43609
 H1720 H 0.62200 0.27180 0.39888
 N1721 N 0.75949 0.76541 0.89399
 N1722 N 0.75176 0.77973 0.87276
 C1723 C 0.72710 0.77918 0.87232
 C1724 C 0.71866 0.76336 0.89397
 C1725 C 0.73997 0.75527 0.90737
 H1726 H 0.69997 0.76099 0.90116
 H1727 H 0.77780 0.76391 0.90019
 H1728 H 0.76323 0.79081 0.85991
 N1729 N 0.22759 0.33894 0.96582
 N1730 N 0.21494 0.35290 0.94758
 C1731 C 0.19679 0.33719 0.93655
 C1732 C 0.19787 0.31215 0.94809
 C1733 C 0.21784 0.31408 0.96646
 H1734 H 0.18655 0.29471 0.94288
 H1735 H 0.24307 0.34612 0.97694
 H1736 H 0.21895 0.37264 0.94258
 N1737 N 0.22661 0.71645 0.42832
 N1738 N 0.21507 0.72146 0.40434
 C1739 C 0.22021 0.74689 0.39768
 C1740 C 0.23607 0.75856 0.41805
 C1741 C 0.23937 0.73848 0.43726
 H1742 H 0.24273 0.77907 0.41985
 H1743 H 0.22533 0.69836 0.43862
 H1744 H 0.20342 0.70779 0.39342
 N1745 N 0.68968 0.79738 0.56978
 N1746 N 0.67600 0.78281 0.58661
 C1747 C 0.68469 0.75737 0.58513
 C1748 C 0.70450 0.75561 0.56668
 C1749 C 0.70714 0.78134 0.55748
 H1750 H 0.71581 0.73825 0.56102
 H1751 H 0.68721 0.81793 0.56711
 H1752 H 0.66142 0.79037 0.59914
 N1753 N 0.76935 0.21122 0.11173
 N1754 N 0.75746 0.19702 0.13049
 C1755 C 0.73421 0.20609 0.13258
 C1756 C 0.73126 0.22730 0.11461
 C1757 C 0.75406 0.22979 0.10167
 H1758 H 0.71461 0.23806 0.11002
 H1759 H 0.78741 0.20755 0.10522
 H1760 H 0.76508 0.18086 0.14076
 N1761 N 0.22133 0.65816 0.01828
 N1762 N 0.21181 0.64453 0.03908
 C1763 C 0.19894 0.66166 0.05673
 C1764 C 0.20022 0.68740 0.04690
 C1765 C 0.21489 0.68423 0.02251
 H1766 H 0.19322 0.70591 0.05716
 H1767 H 0.23271 0.64981 0.00208
 H1768 H 0.21482 0.62405 0.04158
 N1769 N 0.16292 0.22814 0.55480
 N1770 N 0.14925 0.22106 0.57651
 C1771 C 0.15901 0.19884 0.58729
 C1772 C 0.17980 0.19121 0.57150
 C1773 C 0.18159 0.21055 0.55108
 H1774 H 0.19227 0.17478 0.57497
 H1775 H 0.15965 0.24506 0.54302
 H1776 H 0.13390 0.23182 0.58401
   
