data_POSCAR
  _audit_creation_date              2014-09-24
  _audit_creation_method            'ToBaCCo'
  _symmetry_space_group_name_H-M    'P1'
  _symmetry_Int_Tables_number       1
  _symmetry_cell_setting            triclinic
  loop_
  _symmetry_equiv_pos_as_xyz
 x,y,z
_cell_length_a 43.2666
_cell_length_b 41.4333
_cell_length_c 31.0947
_cell_angle_alpha 90.050900
_cell_angle_beta 90.021500
_cell_angle_gamma 89.997300
loop_
  _atom_site_label
  _atom_site_type_symbol
  _atom_site_fract_x
  _atom_site_fract_y
  _atom_site_fract_z
Zr1 Zr -0.05525 0.00254 -0.00216
 O2 O -0.08981 -0.02311 -0.03627
 O3 O -0.08189 0.03187 0.03844
 O4 O -0.08055 -0.02844 0.03852
 O5 O -0.04403 0.05963 -0.08166
 O6 O -0.04340 -0.05648 0.07464
 O7 O -0.08085 0.03293 -0.04314
 O8 O -0.04574 0.05837 0.07843
 O9 O -0.02967 0.00163 0.05500
 O10 O -0.02923 0.04503 -0.00129
 O11 O -0.02853 -0.03978 -0.00550
 O12 O -0.02914 0.00195 -0.05953
 Zr13 Zr 0.05257 0.00187 -0.00359
 Zr14 Zr -0.00126 -0.03911 0.05013
 Zr15 Zr -0.00157 0.04354 -0.05604
 Zr16 Zr -0.00255 0.04324 0.05413
 O17 O -0.00030 0.04035 -0.12394
 O18 O -0.00227 0.03408 0.12121
 O19 O 0.02610 0.04464 -0.00051
 O20 O 0.02606 0.00254 0.05311
 O21 O 0.02689 -0.04093 -0.00452
 O22 O 0.02653 0.00277 -0.06026
 C23 C -0.07390 0.05195 0.06798
 C24 C -0.07239 0.05334 -0.07208
 C25 C -0.07181 -0.04993 0.06589
 O26 O 0.00056 -0.03599 0.11800
 O27 O 0.04097 -0.05843 0.07164
 O28 O 0.07803 -0.03057 0.03512
 C29 C 0.06936 -0.05224 0.06234
 O30 O -0.04107 -0.05630 -0.08986
 Zr31 Zr -0.00017 -0.03883 -0.05994
 O32 O 0.07917 -0.02803 -0.04338
 O33 O -0.00288 -0.08991 0.04344
 O34 O -0.00109 -0.08956 -0.05100
 O35 O 0.00267 -0.03185 -0.12738
 O36 O 0.04300 -0.05725 -0.07978
 C37 C 0.07115 -0.05020 -0.07010
 O38 O 0.08714 0.02631 0.03201
 O39 O -0.00303 0.09438 -0.04974
 O40 O 0.07785 0.03447 -0.04222
 O41 O 0.04056 0.06376 -0.07635
 O42 O -0.00467 0.09415 0.04778
 O43 O 0.03833 0.06473 0.07902
 C44 C 0.06901 0.05703 -0.06804
 H45 H -0.04201 0.06483 -0.00137
 H46 H 0.03944 0.00260 0.07895
 H47 H 0.03945 0.00355 -0.08650
 H48 H -0.04181 -0.05922 -0.00672
 H49 H -0.00823 0.05439 0.13590
 H50 H -0.00027 -0.05840 0.12905
 H51 H -0.00205 -0.09907 0.07285
 H52 H 0.00472 -0.09970 -0.07873
 H53 H -0.00999 0.10316 0.07638
 H54 H -0.00382 0.10334 -0.07926
 H55 H 0.00026 0.06278 -0.13495
 H56 H 0.00815 -0.05291 -0.14047
 H57 H 0.03305 0.07835 0.10415
 H58 H 0.10744 0.01861 0.02127
 H59 H -0.11015 -0.01541 -0.02566
 H60 H -0.03573 -0.07399 -0.10998
 Zr61 Zr 0.55256 0.50184 0.49646
 O62 O 0.58710 0.52640 0.53196
 O63 O 0.57919 0.47178 0.45692
 O64 O 0.57796 0.46956 0.53548
 O65 O 0.54072 0.56344 0.42320
 O66 O 0.54085 0.44188 0.57215
 O67 O 0.57792 0.53423 0.45765
 O68 O 0.54302 0.44248 0.42060
 O69 O 0.52686 0.45906 0.49578
 O70 O 0.52658 0.50254 0.43973
 O71 O 0.52599 0.50276 0.55310
 O72 O 0.52613 0.54465 0.49916
 Zr73 Zr 0.44476 0.50260 0.49765
 Zr74 Zr 0.49865 0.46112 0.55036
 Zr75 Zr 0.49852 0.54336 0.44357
 Zr76 Zr 0.49985 0.46095 0.44030
 O77 O 0.49709 0.59422 0.44954
 O78 O 0.49893 0.41026 0.44960
 O79 O 0.47093 0.50177 0.44034
 O80 O 0.47144 0.46025 0.49468
 O81 O 0.47027 0.50191 0.55486
 O82 O 0.47080 0.54508 0.49826
 C83 C 0.57118 0.44955 0.43027
 C84 C 0.56915 0.55669 0.43163
 C85 C 0.56925 0.44803 0.56286
 O86 O 0.49703 0.41029 0.54404
 O87 O 0.45646 0.44386 0.57488
 O88 O 0.41939 0.47181 0.53848
 C89 C 0.42806 0.45042 0.56602
 O90 O 0.53830 0.56508 0.57850
 Zr91 Zr 0.49742 0.54349 0.55375
 O92 O 0.41809 0.53210 0.53800
 O93 O 0.50036 0.46452 0.61821
 O94 O 0.49767 0.53465 0.62090
 O95 O 0.49528 0.59438 0.54703
 O96 O 0.45422 0.55869 0.57791
 C97 C 0.42606 0.55224 0.56747
 O98 O 0.41021 0.47684 0.46367
 O99 O 0.49988 0.53992 0.37571
 O100 O 0.41922 0.53280 0.45634
 O101 O 0.45609 0.55934 0.41771
 O102 O 0.50273 0.46766 0.37280
 O103 O 0.45897 0.44338 0.41044
 C104 C 0.42772 0.55306 0.42724
 H105 H 0.53953 0.50320 0.41351
 H106 H 0.45815 0.44081 0.49356
 H107 H 0.45801 0.56489 0.49801
 H108 H 0.53934 0.50292 0.57896
 H109 H 0.50476 0.40002 0.42196
 H110 H 0.49781 0.40125 0.57352
 H111 H 0.49951 0.44216 0.62943
 H112 H 0.49173 0.55503 0.63542
 H113 H 0.50819 0.44654 0.35987
 H114 H 0.50047 0.56230 0.36455
 H115 H 0.49634 0.60307 0.41996
 H116 H 0.48995 0.60350 0.57556
 H117 H 0.46431 0.42559 0.39050
 H118 H 0.38986 0.48459 0.47417
 H119 H 0.60741 0.51865 0.52132
 H120 H 0.53301 0.57884 0.60349
 Zr121 Zr 0.55520 -0.00274 0.49892
 O122 O 0.58995 0.02276 0.46510
 O123 O 0.58165 -0.03228 0.53952
 O124 O 0.58050 0.02828 0.53974
 O125 O 0.54388 -0.05972 0.41908
 O126 O 0.54333 0.05639 0.57576
 O127 O 0.58075 -0.03319 0.45783
 O128 O 0.54533 -0.05878 0.57910
 O129 O 0.52950 -0.00178 0.55596
 O130 O 0.52900 -0.04512 0.49948
 O131 O 0.52857 0.03965 0.49558
 O132 O 0.52915 -0.00201 0.44144
 Zr133 Zr 0.44729 -0.00166 0.49697
 Zr134 Zr 0.50119 0.03906 0.55108
 Zr135 Zr 0.50143 -0.04349 0.44462
 Zr136 Zr 0.50223 -0.04328 0.55479
 O137 O 0.50027 -0.04022 0.37673
 O138 O 0.50200 -0.03414 0.62190
 O139 O 0.47365 -0.04451 0.50002
 O140 O 0.47373 -0.00249 0.55377
 O141 O 0.47313 0.04103 0.49631
 O142 O 0.47344 -0.00263 0.44042
 C143 C 0.57355 -0.05247 0.56883
 C144 C 0.57226 -0.05353 0.42874
 C145 C 0.57175 0.04983 0.56709
 O146 O 0.49928 0.03587 0.61893
 O147 O 0.45899 0.05854 0.57252
 O148 O 0.42187 0.03087 0.53574
 C149 C 0.43058 0.05249 0.56308
 O150 O 0.54128 0.05621 0.41131
 Zr151 Zr 0.50029 0.03887 0.44102
 O152 O 0.42086 0.02841 0.45715
 O153 O 0.50294 0.08986 0.54457
 O154 O 0.50141 0.08959 0.45013
 O155 O 0.49752 0.03190 0.37354
 O156 O 0.45722 0.05753 0.42107
 C157 C 0.42901 0.05061 0.43058
 O158 O 0.41256 -0.02598 0.53231
 O159 O 0.50272 -0.09434 0.45073
 O160 O 0.42198 -0.03422 0.45811
 O161 O 0.45927 -0.06360 0.42407
 O162 O 0.50405 -0.09420 0.54816
 O163 O 0.46126 -0.06460 0.57958
 C164 C 0.43081 -0.05682 0.43228
 H165 H 0.54171 -0.06499 0.49935
 H166 H 0.46031 -0.00251 0.57955
 H167 H 0.46055 -0.00335 0.41412
 H168 H 0.54189 0.05906 0.49446
 H169 H 0.50787 -0.05447 0.63654
 H170 H 0.50016 0.05826 0.63008
 H171 H 0.50208 0.09901 0.57401
 H172 H 0.49570 0.09977 0.42242
 H173 H 0.50931 -0.10331 0.57671
 H174 H 0.50355 -0.10329 0.42119
 H175 H 0.49964 -0.06263 0.36562
 H176 H 0.49211 0.05297 0.36049
 H177 H 0.46649 -0.07823 0.60469
 H178 H 0.39231 -0.01818 0.52148
 H179 H 0.61023 0.01495 0.47580
 H180 H 0.53603 0.07388 0.39117
 Zr181 Zr -0.05280 0.49850 -0.00655
 O182 O -0.08772 0.47432 0.02859
 O183 O -0.07908 0.52886 -0.04621
 O184 O -0.07809 0.53097 0.03246
 O185 O -0.04106 0.43655 -0.07936
 O186 O -0.04087 0.55847 0.06926
 O187 O -0.07817 0.46600 -0.04542
 O188 O -0.04266 0.55787 -0.08198
 O189 O -0.02679 0.54108 -0.00708
 O190 O -0.02669 0.49748 -0.06311
 O191 O -0.02637 0.49748 0.05026
 O192 O -0.02661 0.45554 -0.00355
 Zr193 Zr 0.05509 0.49693 -0.00457
 Zr194 Zr 0.00126 0.53891 0.04767
 Zr195 Zr 0.00118 0.45652 -0.05893
 Zr196 Zr 0.00034 0.53885 -0.06238
 O197 O 0.00230 0.40565 -0.05306
 O198 O 0.00182 0.58956 -0.05325
 O199 O 0.02907 0.49787 -0.06206
 O200 O 0.02864 0.53944 -0.00783
 O201 O 0.02940 0.49795 0.05248
 O202 O 0.02873 0.45467 -0.00408
 C203 C -0.07102 0.55130 -0.07259
 C204 C -0.06960 0.44324 -0.07126
 C205 C -0.06930 0.55249 0.05991
 O206 O 0.00316 0.58971 0.04123
 O207 O 0.04346 0.55603 0.07237
 O208 O 0.08053 0.52784 0.03627
 C209 C 0.07186 0.54938 0.06368
 O210 O -0.03910 0.43538 0.07591
 Zr211 Zr 0.00196 0.45657 0.05123
 O212 O 0.08143 0.46730 0.03608
 O213 O -0.00062 0.53566 0.11552
 O214 O 0.00170 0.46562 0.11835
 O215 O 0.00361 0.40565 0.04448
 O216 O 0.04499 0.44091 0.07558
 C217 C 0.07323 0.44714 0.06539
 O218 O 0.08996 0.52224 -0.03841
 O219 O 0.00002 0.45990 -0.12680
 O220 O 0.08050 0.46628 -0.04559
 O221 O 0.04359 0.44012 -0.08442
 O222 O -0.00263 0.53200 -0.12986
 O223 O 0.04139 0.55596 -0.09218
 C224 C 0.07211 0.44587 -0.07475
 H225 H -0.03962 0.49685 -0.08937
 H226 H 0.04204 0.55879 -0.00891
 H227 H 0.04136 0.43475 -0.00422
 H228 H -0.03978 0.49746 0.07605
 H229 H -0.00387 0.59980 -0.08093
 H230 H 0.00235 0.59884 0.07068
 H231 H 0.00034 0.55804 0.12672
 H232 H 0.00747 0.44524 0.13296
 H233 H -0.00801 0.55311 -0.14281
 H234 H -0.00072 0.43750 -0.13796
 H235 H 0.00309 0.39677 -0.08265
 H236 H 0.00884 0.39649 0.07301
 H237 H 0.03620 0.57360 -0.11240
 H238 H 0.11020 0.51432 -0.02772
 H239 H -0.10791 0.48223 0.01771
 H240 H -0.03394 0.42166 0.10096
 Zr241 Zr 0.05542 0.50253 0.50195
 O242 O 0.09006 0.47677 0.53571
 O243 O 0.08199 0.53205 0.46156
 O244 O 0.08069 0.47173 0.46096
 O245 O 0.04423 0.55919 0.58212
 O246 O 0.04353 0.44385 0.42459
 O247 O 0.08103 0.53272 0.54323
 O248 O 0.04577 0.55868 0.42192
 O249 O 0.02978 0.50186 0.44484
 O250 O 0.02937 0.54500 0.50158
 O251 O 0.02875 0.46017 0.50491
 O252 O 0.02937 0.50165 0.55937
 Zr253 Zr -0.05237 0.50174 0.50360
 Zr254 Zr 0.00141 0.46108 0.44935
 Zr255 Zr 0.00177 0.54323 0.55637
 Zr256 Zr 0.00263 0.54344 0.44620
 O257 O 0.00053 0.53976 0.62423
 O258 O 0.00225 0.53461 0.37902
 O259 O -0.02596 0.54455 0.50091
 O260 O -0.02594 0.50271 0.44685
 O261 O -0.02667 0.45896 0.50404
 O262 O -0.02628 0.50242 0.56022
 C263 C 0.07396 0.55222 0.43220
 C264 C 0.07259 0.55295 0.57244
 C265 C 0.07193 0.45036 0.43339
 O266 O -0.00047 0.46451 0.38152
 O267 O -0.04081 0.44182 0.42771
 O268 O -0.07785 0.46946 0.46464
 C269 C -0.06919 0.44794 0.43717
 O270 O 0.04139 0.44324 0.58904
 Zr271 Zr 0.00045 0.46084 0.55942
 O272 O -0.07892 0.47168 0.54318
 O273 O 0.00308 0.41024 0.45549
 O274 O 0.00137 0.41015 0.54995
 O275 O -0.00228 0.46753 0.62695
 O276 O -0.04269 0.44234 0.57923
 C277 C -0.07086 0.44943 0.56971
 O278 O -0.08700 0.52629 0.46830
 O279 O 0.00321 0.59410 0.55059
 O280 O -0.07764 0.53413 0.54255
 O281 O -0.04037 0.56333 0.57692
 O282 O 0.00475 0.59432 0.45309
 O283 O -0.03830 0.56503 0.42166
 C284 C -0.06881 0.55659 0.56856
 H285 H 0.04215 0.56481 0.50184
 H286 H -0.03935 0.50287 0.42105
 H287 H -0.03918 0.50308 0.58650
 H288 H 0.04203 0.44074 0.50591
 H289 H 0.00816 0.55499 0.36454
 H290 H 0.00036 0.44215 0.37022
 H291 H 0.00222 0.40122 0.42598
 H292 H -0.00441 0.39989 0.57758
 H293 H 0.01002 0.60347 0.42458
 H294 H 0.00401 0.60293 0.58020
 H295 H -0.00005 0.56214 0.63546
 H296 H -0.00774 0.44642 0.63984
 H297 H -0.03306 0.57879 0.39669
 H298 H -0.10729 0.51853 0.47901
 H299 H 0.11038 0.48454 0.52513
 H300 H 0.03609 0.42546 0.60898
 Zr301 Zr 0.44768 0.00164 0.00357
 O302 O 0.41309 0.02617 -0.03181
 O303 O 0.42109 -0.02850 0.04301
 O304 O 0.42230 -0.03064 -0.03548
 O305 O 0.45948 0.06320 0.07701
 O306 O 0.45940 -0.05823 -0.07235
 O307 O 0.42231 0.03398 0.04247
 O308 O 0.45729 -0.05783 0.07913
 O309 O 0.47342 -0.04112 0.00405
 O310 O 0.47366 0.00231 0.06030
 O311 O 0.47421 0.00265 -0.05309
 O312 O 0.47405 0.04447 0.00102
 Zr313 Zr 0.55546 0.00252 0.00226
 Zr314 Zr 0.50159 -0.03896 -0.05055
 Zr315 Zr 0.50168 0.04314 0.05658
 Zr316 Zr 0.50043 -0.03925 0.05952
 O317 O 0.50309 0.09402 0.05088
 O318 O 0.50144 -0.08993 0.05002
 O319 O 0.52932 0.00159 0.05961
 O320 O 0.52882 -0.03986 0.00511
 O321 O 0.52993 0.00186 -0.05494
 O322 O 0.52936 0.04497 0.00188
 C323 C 0.42913 -0.05078 0.06951
 C324 C 0.43106 0.05644 0.06852
 C325 C 0.43100 -0.05213 -0.06295
 O326 O 0.50324 -0.08980 -0.04447
 O327 O 0.54378 -0.05621 -0.07509
 O328 O 0.58083 -0.02824 -0.03864
 C329 C 0.57216 -0.04968 -0.06617
 O330 O 0.46182 0.06492 -0.07834
 Zr331 Zr 0.50273 0.04341 -0.05361
 O332 O 0.58208 0.03217 -0.03791
 O333 O 0.49986 -0.03549 -0.11839
 O334 O 0.50258 0.03460 -0.12079
 O335 O 0.50469 0.09430 -0.04666
 O336 O 0.54590 0.05884 -0.07759
 C337 C 0.57407 0.05244 -0.06718
 O338 O 0.59007 -0.02322 0.03609
 O339 O 0.50033 0.03961 0.12443
 O340 O 0.58097 0.03268 0.04367
 O341 O 0.54410 0.05913 0.08247
 O342 O 0.49756 -0.03260 0.12705
 O343 O 0.54135 -0.05679 0.08928
 C344 C 0.57247 0.05289 0.07286
 H345 H 0.46071 0.00293 0.08652
 H346 H 0.54212 -0.05928 0.00615
 H347 H 0.54211 0.06480 0.00222
 H348 H 0.46084 0.00282 -0.07894
 H349 H 0.49564 -0.10021 0.07763
 H350 H 0.50244 -0.09880 -0.07399
 H351 H 0.50072 -0.05784 -0.12970
 H352 H 0.50850 0.05500 -0.13523
 H353 H 0.49211 -0.05374 0.13989
 H354 H 0.49972 0.06199 0.13569
 H355 H 0.50383 0.10282 0.08051
 H356 H 0.51000 0.10348 -0.07514
 H357 H 0.53604 -0.07458 0.10919
 H358 H 0.61040 -0.01542 0.02560
 H359 H 0.39279 0.01839 -0.02119
 H360 H 0.46710 0.07865 -0.10333
 Zr361 Zr 0.44471 0.49756 0.00254
 O362 O 0.41028 0.52329 0.03677
 O363 O 0.41793 0.46839 -0.03806
 O364 O 0.41945 0.52863 -0.03806
 O365 O 0.45584 0.44028 0.08184
 O366 O 0.45662 0.55659 -0.07420
 O367 O 0.41906 0.46718 0.04345
 O368 O 0.45393 0.44180 -0.07816
 O369 O 0.47022 0.49847 -0.05465
 O370 O 0.47061 0.45500 0.00154
 O371 O 0.47153 0.53980 0.00590
 O372 O 0.47087 0.49800 0.05990
 Zr373 Zr 0.55249 0.49793 0.00382
 Zr374 Zr 0.49875 0.53912 -0.04975
 Zr375 Zr 0.49833 0.45634 0.05627
 Zr376 Zr 0.49722 0.45678 -0.05392
 O377 O 0.49965 0.45945 0.12417
 O378 O 0.49741 0.46601 -0.12098
 O379 O 0.52593 0.45523 0.00070
 O380 O 0.52594 0.49739 -0.05286
 O381 O 0.52693 0.54080 0.00488
 O382 O 0.52652 0.49703 0.06052
 C383 C 0.42580 0.44830 -0.06765
 C384 C 0.42748 0.44667 0.07229
 C385 C 0.42821 0.55009 -0.06542
 O386 O 0.50052 0.53609 -0.11763
 O387 O 0.54102 0.55838 -0.07124
 O388 O 0.57802 0.53033 -0.03482
 C389 C 0.56940 0.55208 -0.06195
 O390 O 0.45909 0.55622 0.09033
 Zr391 Zr 0.49993 0.53871 0.06032
 O392 O 0.57922 0.52775 0.04359
 O393 O 0.49723 0.58992 -0.04297
 O394 O 0.49908 0.58946 0.05153
 O395 O 0.50287 0.53167 0.12775
 O396 O 0.54316 0.55702 0.08010
 C397 C 0.57128 0.54993 0.07034
 O398 O 0.58693 0.47340 -0.03186
 O399 O 0.49679 0.40551 0.04987
 O400 O 0.57774 0.46530 0.04239
 O401 O 0.54046 0.43603 0.07651
 O402 O 0.49498 0.40586 -0.04770
 O403 O 0.53801 0.43518 -0.07891
 C404 C 0.56891 0.44274 0.06819
 H405 H 0.45778 0.43522 0.00159
 H406 H 0.53930 0.49733 -0.07870
 H407 H 0.53948 0.49621 0.08675
 H408 H 0.45830 0.55928 0.00718
 H409 H 0.49137 0.44575 -0.13569
 H410 H 0.49972 0.55851 -0.12863
 H411 H 0.49805 0.59911 -0.07237
 H412 H 0.50493 0.59954 0.07927
 H413 H 0.48959 0.39690 -0.07631
 H414 H 0.49602 0.39651 0.07937
 H415 H 0.50018 0.43700 0.13513
 H416 H 0.50840 0.55271 0.14085
 H417 H 0.53266 0.42165 -0.10409
 H418 H 0.60728 0.48103 -0.02116
 H419 H 0.38990 0.51567 0.02617
 H420 H 0.46448 0.57385 0.11050
 Zr421 Zr 0.05250 -0.00178 0.50398
 O422 O 0.08707 -0.02623 0.46843
 O423 O 0.07910 0.02822 0.54367
 O424 O 0.07791 0.03062 0.46517
 O425 O 0.04063 -0.06359 0.57688
 O426 O 0.04079 0.05839 0.42859
 O427 O 0.07784 -0.03428 0.54265
 O428 O 0.04291 0.05743 0.58003
 O429 O 0.02678 0.04098 0.50483
 O430 O 0.02651 -0.00265 0.56067
 O431 O 0.02596 -0.00259 0.44729
 O432 O 0.02608 -0.04459 0.50105
 Zr433 Zr -0.05531 -0.00262 0.50263
 Zr434 Zr -0.00140 0.03903 0.45020
 Zr435 Zr -0.00155 -0.04346 0.55659
 Zr436 Zr -0.00024 0.03892 0.56027
 O437 O -0.00294 -0.09431 0.55043
 O438 O -0.00126 0.08964 0.55122
 O439 O -0.02917 -0.00190 0.55999
 O440 O -0.02864 0.03974 0.50583
 O441 O -0.02978 -0.00175 0.44546
 O442 O -0.02924 -0.04507 0.50185
 C443 C 0.07107 0.05042 0.57035
 C444 C 0.06906 -0.05682 0.56851
 C445 C 0.06920 0.05224 0.43789
 O446 O -0.00308 0.08984 0.45675
 O447 O -0.04357 0.05630 0.42568
 O448 O -0.08066 0.02830 0.46192
 C449 C -0.07196 0.04975 0.43450
 O450 O 0.03828 -0.06481 0.42156
 Zr451 Zr -0.00260 -0.04332 0.44641
 O452 O -0.08195 -0.03204 0.46212
 O453 O 0.00036 0.03581 0.38234
 O454 O -0.00241 -0.03427 0.37931
 O455 O -0.00464 -0.09423 0.45290
 O456 O -0.04580 -0.05856 0.42219
 C457 C -0.07396 -0.05216 0.43263
 O458 O -0.08989 0.02303 0.53668
 O459 O -0.00022 -0.04016 0.62447
 O460 O -0.08085 -0.03298 0.54371
 O461 O -0.04397 -0.05959 0.58227
 O462 O 0.00267 0.03203 0.62773
 O463 O -0.04114 0.05638 0.59016
 C464 C -0.07236 -0.05334 0.57270
 H465 H 0.03946 -0.00337 0.58690
 H466 H -0.04193 0.05917 0.50702
 H467 H -0.04200 -0.06490 0.50199
 H468 H 0.03932 -0.00267 0.42145
 H469 H 0.00456 0.09982 0.57892
 H470 H -0.00229 0.09896 0.42731
 H471 H -0.00050 0.05820 0.37122
 H472 H -0.00835 -0.05460 0.36468
 H473 H 0.00814 0.05311 0.64076
 H474 H 0.00039 -0.06257 0.63554
 H475 H -0.00369 -0.10323 0.57998
 H476 H -0.00997 -0.10329 0.42433
 H477 H -0.03581 0.07407 0.61027
 H478 H -0.11022 0.01529 0.52610
 H479 H 0.10737 -0.01849 0.47914
 H480 H 0.03300 -0.07844 0.39645
 Zr481 Zr 0.75236 0.19401 0.25428
 O482 O 0.72903 0.15774 0.28961
 O483 O 0.78018 0.16651 0.21287
 O484 O 0.72220 0.16687 0.21502
 O485 O 0.80880 0.20711 0.33134
 O486 O 0.69355 0.20506 0.18016
 O487 O 0.78264 0.16800 0.29434
 O488 O 0.80465 0.20458 0.17213
 O489 O 0.74980 0.22042 0.19700
 O490 O 0.79254 0.22199 0.25166
 O491 O 0.71153 0.22125 0.25922
 O492 O 0.75275 0.22156 0.31152
 Zr493 Zr 0.75005 0.30663 0.25514
 Zr494 Zr 0.71041 0.24944 0.20338
 Zr495 Zr 0.79200 0.25109 0.30631
 Zr496 Zr 0.78920 0.24948 0.19608
 O497 O 0.79021 0.25272 0.37427
 O498 O 0.77880 0.24870 0.12945
 O499 O 0.79131 0.27965 0.25050
 O500 O 0.74978 0.27865 0.19860
 O501 O 0.70959 0.27902 0.25794
 O502 O 0.75260 0.27978 0.31197
 C503 C 0.79904 0.17526 0.18320
 C504 C 0.80273 0.17749 0.32208
 C505 C 0.70073 0.17569 0.18891
 O506 O 0.71192 0.25099 0.13541
 O507 O 0.69062 0.29313 0.18257
 O508 O 0.71785 0.33249 0.21749
 C509 C 0.69656 0.32277 0.19161
 O510 O 0.69842 0.20817 0.34461
 Zr511 Zr 0.71324 0.25110 0.31346
 O512 O 0.72168 0.33408 0.29580
 O513 O 0.66198 0.24712 0.21232
 O514 O 0.66450 0.24861 0.30691
 O515 O 0.72140 0.25505 0.38052
 O516 O 0.69467 0.29583 0.33299
 C517 C 0.70084 0.32517 0.32268
 O518 O 0.77214 0.34284 0.21824
 O519 O 0.84055 0.25030 0.29807
 O520 O 0.78180 0.33380 0.29204
 O521 O 0.81138 0.29551 0.32529
 O522 O 0.83811 0.24881 0.20060
 O523 O 0.80816 0.29240 0.16957
 C524 C 0.80421 0.32491 0.31661
 H525 H 0.81176 0.20905 0.25111
 H526 H 0.74902 0.29247 0.17267
 H527 H 0.75369 0.29350 0.33801
 H528 H 0.69317 0.20708 0.26139
 H529 H 0.79803 0.24282 0.11401
 H530 H 0.69024 0.24979 0.12525
 H531 H 0.65246 0.24769 0.18333
 H532 H 0.65535 0.25442 0.33508
 H533 H 0.84633 0.24339 0.17173
 H534 H 0.84979 0.24977 0.32723
 H535 H 0.81188 0.25372 0.38448
 H536 H 0.70139 0.26037 0.39433
 H537 H 0.82057 0.28695 0.14382
 H538 H 0.76470 0.36401 0.22903
 H539 H 0.73649 0.13655 0.27891
 H540 H 0.68204 0.21343 0.36572
 Zr541 Zr 0.74801 0.80557 0.75456
 O542 O 0.77138 0.84208 0.78947
 O543 O 0.71986 0.83278 0.71320
 O544 O 0.77801 0.83258 0.71492
 O545 O 0.69195 0.79270 0.83216
 O546 O 0.80658 0.79426 0.68013
 O547 O 0.71782 0.83169 0.79466
 O548 O 0.69520 0.79444 0.67303
 O549 O 0.75035 0.77888 0.69743
 O550 O 0.70789 0.77745 0.75250
 O551 O 0.78891 0.77841 0.75939
 O552 O 0.74798 0.77827 0.81199
 Zr553 Zr 0.75056 0.69290 0.75622
 Zr554 Zr 0.78982 0.74996 0.70371
 Zr555 Zr 0.70876 0.74863 0.80735
 Zr556 Zr 0.71101 0.74971 0.69707
 O557 O 0.71096 0.74735 0.87529
 O558 O 0.72111 0.75026 0.63036
 O559 O 0.70925 0.71980 0.75171
 O560 O 0.75050 0.72063 0.69949
 O561 O 0.79097 0.72064 0.75845
 O562 O 0.74824 0.72001 0.81289
 C563 C 0.70080 0.82385 0.68383
 C564 C 0.69787 0.82229 0.82260
 C565 C 0.79942 0.82367 0.68875
 O566 O 0.78797 0.74811 0.63577
 O567 O 0.80957 0.70620 0.68300
 O568 O 0.78260 0.66695 0.71839
 C569 C 0.80373 0.67660 0.69226
 O570 O 0.80235 0.79191 0.84468
 Zr571 Zr 0.78754 0.74880 0.81383
 O572 O 0.77932 0.66570 0.79672
 O573 O 0.83829 0.75238 0.71225
 O574 O 0.83624 0.75152 0.80689
 O575 O 0.77971 0.74502 0.88097
 O576 O 0.80649 0.70421 0.83331
 C577 C 0.80038 0.67479 0.82323
 O578 O 0.72839 0.65643 0.71976
 O579 O 0.66016 0.74928 0.79959
 O580 O 0.71895 0.66586 0.79349
 O581 O 0.68947 0.70428 0.82668
 O582 O 0.66212 0.75017 0.70206
 O583 O 0.69206 0.70663 0.67089
 C584 C 0.69659 0.67484 0.81810
 H585 H 0.68863 0.79033 0.75202
 H586 H 0.75115 0.70669 0.67363
 H587 H 0.74731 0.70639 0.83900
 H588 H 0.80724 0.79263 0.76133
 H589 H 0.70180 0.75602 0.61504
 H590 H 0.80960 0.74929 0.62542
 H591 H 0.84768 0.75166 0.68320
 H592 H 0.84555 0.74588 0.83503
 H593 H 0.65371 0.75544 0.67325
 H594 H 0.65108 0.74995 0.82883
 H595 H 0.68935 0.74633 0.88572
 H596 H 0.79980 0.73980 0.89463
 H597 H 0.67951 0.71193 0.64521
 H598 H 0.73592 0.63534 0.73065
 H599 H 0.76383 0.86320 0.77868
 H600 H 0.81878 0.78678 0.86578
 Zr601 Zr 0.25148 0.30674 0.74625
 O602 O 0.22814 0.34296 0.71082
 O603 O 0.27915 0.33429 0.78783
 O604 O 0.22100 0.33372 0.78536
 O605 O 0.30822 0.29387 0.66952
 O606 O 0.19243 0.29534 0.81996
 O607 O 0.28183 0.33288 0.70639
 O608 O 0.30374 0.29626 0.82853
 O609 O 0.24890 0.28025 0.80347
 O610 O 0.29175 0.27888 0.74900
 O611 O 0.21078 0.27929 0.74103
 O612 O 0.25211 0.27920 0.68897
 Zr613 Zr 0.24966 0.19404 0.74516
 Zr614 Zr 0.20965 0.25105 0.79683
 Zr615 Zr 0.29147 0.24981 0.69430
 Zr616 Zr 0.28841 0.25134 0.80451
 O617 O 0.28978 0.24832 0.62633
 O618 O 0.27785 0.25208 0.87109
 O619 O 0.29079 0.22120 0.75007
 O620 O 0.24912 0.22200 0.80173
 O621 O 0.20909 0.22150 0.74223
 O622 O 0.25219 0.22095 0.68839
 C623 C 0.29805 0.32557 0.81748
 C624 C 0.30205 0.32347 0.67879
 C625 C 0.19946 0.32478 0.81131
 O626 O 0.21104 0.24953 0.86480
 O627 O 0.19005 0.20723 0.81755
 O628 O 0.21753 0.16802 0.78273
 C629 C 0.19616 0.17762 0.80855
 O630 O 0.19785 0.29238 0.65556
 Zr631 Zr 0.21273 0.24948 0.68677
 O632 O 0.22139 0.16652 0.70440
 O633 O 0.16123 0.25306 0.78760
 O634 O 0.16397 0.25181 0.69306
 O635 O 0.22103 0.24557 0.61975
 O636 O 0.19431 0.20469 0.66716
 C637 C 0.20055 0.17537 0.67748
 O638 O 0.27185 0.15789 0.78206
 O639 O 0.34000 0.25073 0.70282
 O640 O 0.28159 0.16703 0.70827
 O641 O 0.31106 0.20548 0.67522
 O642 O 0.33733 0.25214 0.80025
 O643 O 0.30745 0.20848 0.83115
 C644 C 0.30400 0.17602 0.68376
 H645 H 0.31093 0.29187 0.74967
 H646 H 0.24838 0.20816 0.82766
 H647 H 0.25338 0.20726 0.66234
 H648 H 0.19237 0.29338 0.73877
 H649 H 0.29701 0.25804 0.88664
 H650 H 0.18933 0.25058 0.87485
 H651 H 0.15164 0.25243 0.81653
 H652 H 0.15490 0.24600 0.66482
 H653 H 0.34549 0.25756 0.82916
 H654 H 0.34930 0.25134 0.67371
 H655 H 0.31147 0.24740 0.61620
 H656 H 0.20107 0.24017 0.60584
 H657 H 0.31977 0.21397 0.85698
 H658 H 0.26452 0.13670 0.77120
 H659 H 0.23550 0.36416 0.72162
 H660 H 0.18154 0.28706 0.63435
 Zr661 Zr 0.24767 0.69369 0.24521
 O662 O 0.27094 0.65732 0.20994
 O663 O 0.21981 0.66634 0.28670
 O664 O 0.27785 0.66662 0.28452
 O665 O 0.19122 0.70672 0.16810
 O666 O 0.30652 0.70487 0.31934
 O667 O 0.21732 0.66763 0.20514
 O668 O 0.19539 0.70455 0.32735
 O669 O 0.25026 0.72025 0.30245
 O670 O 0.20752 0.72175 0.24778
 O671 O 0.28853 0.72091 0.24028
 O672 O 0.24734 0.72115 0.18795
 Zr673 Zr 0.25013 0.80637 0.24423
 Zr674 Zr 0.28968 0.74923 0.29609
 Zr675 Zr 0.20812 0.75073 0.19308
 Zr676 Zr 0.21089 0.74936 0.30331
 O677 O 0.20996 0.75221 0.12513
 O678 O 0.22126 0.74872 0.36995
 O679 O 0.20884 0.77943 0.24886
 O680 O 0.25034 0.77849 0.30079
 O681 O 0.29056 0.77870 0.24149
 O682 O 0.24755 0.77939 0.18744
 C683 C 0.20097 0.67519 0.31636
 C684 C 0.19723 0.67709 0.17737
 C685 C 0.29933 0.67548 0.31063
 O686 O 0.28814 0.75086 0.36405
 O687 O 0.30949 0.79296 0.31698
 O688 O 0.28232 0.83228 0.28199
 C689 C 0.30358 0.82260 0.30797
 O690 O 0.30167 0.70764 0.15492
 Zr691 Zr 0.28688 0.75066 0.18601
 O692 O 0.27859 0.83369 0.20357
 O693 O 0.33811 0.74688 0.28714
 O694 O 0.33561 0.74809 0.19258
 O695 O 0.27874 0.75450 0.11894
 O696 O 0.30554 0.79532 0.16644
 C697 C 0.29942 0.82469 0.17671
 O698 O 0.22806 0.84271 0.28102
 O699 O 0.15956 0.75005 0.20131
 O700 O 0.21839 0.83349 0.20725
 O701 O 0.18879 0.79515 0.17403
 O702 O 0.16198 0.74874 0.29876
 O703 O 0.19195 0.79236 0.32973
 C704 C 0.19597 0.82458 0.18267
 H705 H 0.18829 0.70883 0.24834
 H706 H 0.25109 0.79236 0.32672
 H707 H 0.24649 0.79306 0.16138
 H708 H 0.30687 0.70672 0.23813
 H709 H 0.20202 0.74292 0.38539
 H710 H 0.30981 0.74966 0.37423
 H711 H 0.34763 0.74748 0.31612
 H712 H 0.34478 0.75383 0.16441
 H713 H 0.15374 0.74339 0.32762
 H714 H 0.15033 0.74948 0.17215
 H715 H 0.18829 0.75324 0.11489
 H716 H 0.29875 0.75976 0.10513
 H717 H 0.17953 0.78699 0.35548
 H718 H 0.23552 0.86384 0.27019
 H719 H 0.26346 0.63617 0.22068
 H720 H 0.31803 0.71285 0.13376
 Zr721 Zr 0.25010 0.80674 0.75502
 O722 O 0.27221 0.84297 0.71816
 O723 O 0.22171 0.83419 0.79567
 O724 O 0.21794 0.83263 0.71738
 O725 O 0.31144 0.79555 0.82513
 O726 O 0.19068 0.79332 0.68243
 O727 O 0.28188 0.83387 0.79193
 O728 O 0.19466 0.79594 0.83279
 O729 O 0.20963 0.77914 0.75778
 O730 O 0.25263 0.77987 0.81183
 O731 O 0.24982 0.77879 0.69845
 O732 O 0.29135 0.77975 0.75036
 Zr733 Zr 0.25236 0.69412 0.75406
 Zr734 Zr 0.21044 0.74960 0.70319
 Zr735 Zr 0.29202 0.75116 0.80614
 Zr736 Zr 0.21326 0.75121 0.81327
 O737 O 0.34057 0.75033 0.79792
 O738 O 0.16452 0.74870 0.80672
 O739 O 0.25275 0.72165 0.81132
 O740 O 0.21154 0.72138 0.75901
 O741 O 0.24982 0.72056 0.69680
 O742 O 0.29255 0.72208 0.75146
 C743 C 0.20084 0.82528 0.82251
 C744 C 0.30430 0.82496 0.81647
 C745 C 0.19665 0.82295 0.69148
 O746 O 0.16201 0.74729 0.71213
 O747 O 0.19358 0.70523 0.67990
 O748 O 0.22220 0.66700 0.71475
 C749 C 0.20075 0.67584 0.68861
 O750 O 0.30822 0.79253 0.66947
 Zr751 Zr 0.28922 0.74960 0.69592
 O752 O 0.28017 0.66663 0.71261
 O753 O 0.21195 0.75119 0.63523
 O754 O 0.27884 0.74889 0.62928
 O755 O 0.33814 0.74889 0.70043
 O756 O 0.30463 0.70472 0.67189
 C757 C 0.29901 0.67540 0.68293
 O758 O 0.22902 0.65785 0.78936
 O759 O 0.29021 0.75277 0.87410
 O760 O 0.28265 0.66808 0.79409
 O761 O 0.30880 0.70717 0.83113
 O762 O 0.22140 0.75516 0.88034
 O763 O 0.19843 0.70826 0.84441
 C764 C 0.30274 0.67756 0.82184
 H765 H 0.25372 0.79358 0.83787
 H766 H 0.19318 0.70721 0.76116
 H767 H 0.31177 0.70913 0.75090
 H768 H 0.24907 0.79263 0.67253
 H769 H 0.15536 0.75451 0.83490
 H770 H 0.15249 0.74788 0.68314
 H771 H 0.19027 0.75000 0.62507
 H772 H 0.29806 0.74302 0.61383
 H773 H 0.20139 0.76048 0.89414
 H774 H 0.31188 0.75376 0.88432
 H775 H 0.34981 0.74980 0.82709
 H776 H 0.34635 0.74348 0.67156
 H777 H 0.18207 0.71352 0.86554
 H778 H 0.23647 0.63666 0.77865
 H779 H 0.26479 0.86413 0.72898
 H780 H 0.32064 0.78710 0.64372
 Zr781 Zr 0.24981 0.19299 0.25484
 O782 O 0.22774 0.15642 0.21843
 O783 O 0.27844 0.16593 0.29564
 O784 O 0.28197 0.16697 0.21730
 O785 O 0.18858 0.20448 0.32506
 O786 O 0.30897 0.20615 0.18182
 O787 O 0.21817 0.16601 0.29214
 O788 O 0.30547 0.20453 0.33225
 O789 O 0.29019 0.22076 0.25713
 O790 O 0.24734 0.22024 0.31138
 O791 O 0.24984 0.22058 0.19800
 O792 O 0.20847 0.21983 0.25005
 Zr793 Zr 0.24718 0.30565 0.25270
 Zr794 Zr 0.28914 0.24994 0.20226
 Zr795 Zr 0.20786 0.24880 0.30556
 Zr796 Zr 0.28662 0.24906 0.31237
 O797 O 0.15928 0.24943 0.29754
 O798 O 0.33534 0.25171 0.30558
 O799 O 0.24704 0.27848 0.31024
 O800 O 0.28809 0.27853 0.25781
 O801 O 0.24966 0.27882 0.19570
 O802 O 0.20707 0.27751 0.25060
 C803 C 0.29937 0.17509 0.32229
 C804 C 0.19577 0.17501 0.31667
 C805 C 0.30315 0.17657 0.19121
 O806 O 0.33760 0.25240 0.21097
 O807 O 0.30595 0.29420 0.17861
 O808 O 0.27727 0.33258 0.21311
 C809 C 0.29876 0.32363 0.18710
 O810 O 0.19146 0.20647 0.16924
 Zr811 Zr 0.21034 0.24963 0.19530
 O812 O 0.21910 0.33274 0.21111
 O813 O 0.28742 0.24795 0.13432
 O814 O 0.22056 0.25000 0.12863
 O815 O 0.16144 0.25009 0.20010
 O816 O 0.19458 0.29429 0.17097
 C817 C 0.20013 0.32372 0.18167
 O818 O 0.27046 0.34228 0.28752
 O819 O 0.20986 0.24765 0.37352
 O820 O 0.21696 0.33183 0.29267
 O821 O 0.19104 0.29290 0.33023
 O822 O 0.27864 0.24553 0.37950
 O823 O 0.30139 0.29226 0.34304
 C824 C 0.19700 0.32247 0.32064
 H825 H 0.24636 0.20670 0.33756
 H826 H 0.30641 0.29276 0.25978
 H827 H 0.18782 0.29039 0.25001
 H828 H 0.25056 0.20657 0.17220
 H829 H 0.34459 0.24615 0.33378
 H830 H 0.34704 0.25163 0.18195
 H831 H 0.30907 0.24912 0.12405
 H832 H 0.20128 0.25570 0.11320
 H833 H 0.29869 0.24036 0.39328
 H834 H 0.18822 0.24665 0.38385
 H835 H 0.15012 0.25016 0.32674
 H836 H 0.15308 0.25529 0.17123
 H837 H 0.31781 0.28719 0.36417
 H838 H 0.26290 0.36336 0.27661
 H839 H 0.23526 0.13536 0.22945
 H840 H 0.17894 0.21170 0.14352
 Zr841 Zr 0.75038 0.69303 0.24472
 O842 O 0.77264 0.65677 0.28134
 O843 O 0.72199 0.66565 0.20397
 O844 O 0.71828 0.66695 0.28228
 O845 O 0.81155 0.70462 0.17442
 O846 O 0.69095 0.70611 0.31743
 O847 O 0.78217 0.66610 0.20748
 O848 O 0.69481 0.70395 0.16710
 O849 O 0.70983 0.72055 0.24216
 O850 O 0.75276 0.72011 0.18807
 O851 O 0.75005 0.72084 0.30143
 O852 O 0.79155 0.72014 0.24950
 Zr853 Zr 0.75231 0.80572 0.24632
 Zr854 Zr 0.71059 0.74995 0.29690
 Zr855 Zr 0.79208 0.74891 0.19387
 Zr856 Zr 0.71332 0.74868 0.18681
 O857 O 0.84064 0.74976 0.20211
 O858 O 0.66458 0.75103 0.19343
 O859 O 0.75273 0.77834 0.18891
 O860 O 0.71156 0.77835 0.24123
 O861 O 0.74990 0.77908 0.30343
 O862 O 0.79257 0.77783 0.24871
 C863 C 0.70107 0.67459 0.17722
 C864 C 0.80449 0.67514 0.18285
 C865 C 0.69696 0.67652 0.30823
 O866 O 0.66214 0.75213 0.28799
 O867 O 0.69356 0.79420 0.32044
 O868 O 0.72204 0.83263 0.28580
 C869 C 0.70061 0.82365 0.31189
 O870 O 0.80849 0.70718 0.33037
 Zr871 Zr 0.78938 0.75013 0.30411
 O872 O 0.78010 0.83314 0.28789
 O873 O 0.71219 0.74817 0.36485
 O874 O 0.77904 0.75065 0.37075
 O875 O 0.83829 0.75096 0.29955
 O876 O 0.80475 0.79499 0.32832
 C877 C 0.79904 0.82433 0.31745
 O878 O 0.72887 0.84205 0.21122
 O879 O 0.79019 0.74761 0.12591
 O880 O 0.78254 0.83196 0.20640
 O881 O 0.80878 0.79303 0.16918
 O882 O 0.72140 0.74494 0.11972
 O883 O 0.69837 0.79167 0.15590
 C884 C 0.80266 0.82260 0.17862
 H885 H 0.75385 0.70649 0.16193
 H886 H 0.69316 0.79246 0.23917
 H887 H 0.81176 0.79082 0.24934
 H888 H 0.74936 0.70692 0.32728
 H889 H 0.65541 0.74529 0.16523
 H890 H 0.65265 0.75142 0.31698
 H891 H 0.69052 0.74924 0.37504
 H892 H 0.79826 0.75655 0.38621
 H893 H 0.70139 0.73960 0.10591
 H894 H 0.81186 0.74671 0.11565
 H895 H 0.84986 0.75045 0.17296
 H896 H 0.84653 0.75630 0.32844
 H897 H 0.68198 0.78643 0.13479
 H898 H 0.73628 0.86322 0.22207
 H899 H 0.76525 0.63562 0.27041
 H900 H 0.82092 0.71259 0.35613
 Zr901 Zr 0.75016 0.30748 0.74588
 O902 O 0.72820 0.34391 0.78264
 O903 O 0.77854 0.33467 0.70496
 O904 O 0.78249 0.33347 0.78329
 O905 O 0.68866 0.29613 0.67599
 O906 O 0.80973 0.29422 0.81833
 O907 O 0.71836 0.33453 0.70891
 O908 O 0.80540 0.29618 0.66791
 O909 O 0.79056 0.27976 0.74309
 O910 O 0.74744 0.28036 0.68922
 O911 O 0.75049 0.27974 0.80257
 O912 O 0.70887 0.28058 0.75082
 Zr913 Zr 0.74763 0.19482 0.74736
 Zr914 Zr 0.78980 0.25044 0.79783
 Zr915 Zr 0.70799 0.25176 0.69517
 Zr916 Zr 0.78674 0.25159 0.68774
 O917 O 0.65946 0.25114 0.70362
 O918 O 0.83548 0.24899 0.69411
 O919 O 0.74719 0.22213 0.68998
 O920 O 0.78850 0.22199 0.74214
 O921 O 0.75037 0.22150 0.80449
 O922 O 0.70751 0.22291 0.74999
 C923 C 0.79932 0.32559 0.67807
 C924 C 0.69588 0.32557 0.68445
 C925 C 0.80384 0.32385 0.80916
 O926 O 0.83821 0.24798 0.78869
 O927 O 0.80664 0.20611 0.82121
 O928 O 0.77785 0.16781 0.78667
 C929 C 0.79940 0.17670 0.81265
 O930 O 0.69220 0.29371 0.83179
 Zr931 Zr 0.71103 0.25064 0.80540
 O932 O 0.71983 0.16758 0.78903
 O933 O 0.78842 0.25229 0.86579
 O934 O 0.72158 0.25008 0.87199
 O935 O 0.66210 0.25011 0.80108
 O936 O 0.69548 0.20587 0.82963
 C937 C 0.70102 0.17649 0.81869
 O938 O 0.77082 0.15836 0.71214
 O939 O 0.70968 0.25305 0.62720
 O940 O 0.71718 0.16868 0.70755
 O941 O 0.69100 0.20769 0.67047
 O942 O 0.77846 0.25530 0.62069
 O943 O 0.80141 0.20848 0.65677
 C944 C 0.69703 0.17809 0.67983
 H945 H 0.74633 0.29397 0.66311
 H946 H 0.80682 0.20777 0.73997
 H947 H 0.68826 0.21001 0.75068
 H948 H 0.75132 0.29368 0.82843
 H949 H 0.84460 0.25465 0.66586
 H950 H 0.84779 0.24866 0.81764
 H951 H 0.81012 0.25109 0.87586
 H952 H 0.70238 0.24431 0.88754
 H953 H 0.79845 0.26049 0.60677
 H954 H 0.68799 0.25407 0.61705
 H955 H 0.65015 0.25049 0.67450
 H956 H 0.65392 0.24481 0.83000
 H957 H 0.81773 0.21362 0.63553
 H958 H 0.76335 0.13723 0.72298
 H959 H 0.73565 0.36501 0.77168
 H960 H 0.67987 0.28840 0.85765
 C961 C 0.14029 0.39007 0.86498
 C962 C 0.14870 0.41334 0.89542
 C963 C 0.12606 0.43263 0.91490
 C964 C 0.09439 0.42881 0.90448
 C965 C 0.08654 0.40568 0.87279
 C966 C 0.10925 0.38659 0.85344
 C967 C 0.16300 0.36857 0.84666
 C968 C 0.18058 0.34928 0.83086
 H969 H 0.17268 0.41623 0.90465
 H970 H 0.13352 0.45001 0.93881
 H971 H 0.06275 0.40174 0.86323
 H972 H 0.10245 0.36865 0.82990
 C973 C 0.35775 0.60985 0.36463
 C974 C 0.34959 0.58878 0.39790
 C975 C 0.37216 0.56957 0.41754
 C976 C 0.40327 0.57134 0.40426
 C977 C 0.41102 0.59211 0.37013
 C978 C 0.38843 0.61118 0.35054
 C979 C 0.33532 0.63151 0.34620
 C980 C 0.31795 0.65091 0.33030
 H981 H 0.32593 0.58765 0.40920
 H982 H 0.36537 0.55397 0.44381
 H983 H 0.43466 0.59409 0.35900
 H984 H 0.39503 0.62747 0.32489
 C985 C 0.85776 0.88939 0.63473
 C986 C 0.88843 0.88812 0.64890
 C987 C 0.91099 0.90734 0.62950
 C988 C 0.90321 0.92822 0.59549
 C989 C 0.87212 0.92991 0.58210
 C990 C 0.84957 0.91055 0.60155
 C991 C 0.83535 0.86766 0.65307
 C992 C 0.81801 0.84823 0.66897
 H993 H 0.89506 0.87178 0.67449
 H994 H 0.93461 0.90541 0.64071
 H995 H 0.86531 0.94558 0.55591
 H996 H 0.82593 0.91165 0.59019
 C997 C 0.64239 0.10985 0.13525
 C998 C 0.61176 0.11107 0.14955
 C999 C 0.58918 0.09192 0.13005
 C1000 C 0.59691 0.07119 0.09582
 C1001 C 0.62798 0.06953 0.08235
 C1002 C 0.65054 0.08882 0.10190
 C1003 C 0.66478 0.13161 0.15353
 C1004 C 0.68212 0.15108 0.16932
 H1005 H 0.60518 0.12734 0.17527
 H1006 H 0.56557 0.09381 0.14132
 H1007 H 0.63474 0.05396 0.05599
 H1008 H 0.67416 0.08779 0.09044
 C1009 C 0.85976 0.11063 0.37578
 C1010 C 0.85085 0.08834 0.40723
 C1011 C 0.87283 0.06765 0.42548
 C1012 C 0.90400 0.06918 0.41254
 C1013 C 0.91243 0.09114 0.38006
 C1014 C 0.89047 0.11165 0.36189
 C1015 C 0.83799 0.13333 0.35830
 C1016 C 0.82113 0.15321 0.34254
 H1017 H 0.82710 0.08735 0.41816
 H1018 H 0.86557 0.05111 0.45045
 H1019 H 0.93613 0.09294 0.36918
 H1020 H 0.89758 0.12876 0.33747
 C1021 C 0.35946 0.39008 0.62516
 C1022 C 0.39025 0.38866 0.63869
 C1023 C 0.41233 0.40896 0.62035
 C1024 C 0.40396 0.43110 0.58806
 C1025 C 0.37273 0.43301 0.57547
 C1026 C 0.35063 0.41254 0.59388
 C1027 C 0.33754 0.36757 0.64275
 C1028 C 0.32055 0.34779 0.65849
 H1029 H 0.39733 0.37140 0.66295
 H1030 H 0.43609 0.40684 0.63097
 H1031 H 0.36548 0.44971 0.55066
 H1032 H 0.32683 0.41385 0.58319
 C1033 C 0.64061 0.88930 0.87565
 C1034 C 0.64944 0.91178 0.90695
 C1035 C 0.62741 0.93253 0.92498
 C1036 C 0.59625 0.93086 0.91198
 C1037 C 0.58789 0.90872 0.87964
 C1038 C 0.60991 0.88815 0.86168
 C1039 C 0.66244 0.86654 0.85842
 C1040 C 0.67938 0.84662 0.84287
 H1041 H 0.67318 0.91289 0.91795
 H1042 H 0.63462 0.94921 0.94986
 H1043 H 0.56419 0.90680 0.86872
 H1044 H 0.60285 0.87089 0.83737
 C1045 C 0.14015 0.61023 0.12305
 C1046 C 0.10938 0.61125 0.13673
 C1047 C 0.08745 0.59077 0.11832
 C1048 C 0.09591 0.56882 0.08580
 C1049 C 0.12712 0.56730 0.07303
 C1050 C 0.14909 0.58796 0.09151
 C1051 C 0.16192 0.63291 0.14083
 C1052 C 0.17879 0.65277 0.15679
 H1053 H 0.10220 0.62833 0.16118
 H1054 H 0.06371 0.59259 0.12910
 H1055 H 0.13443 0.55077 0.04803
 H1056 H 0.17287 0.58694 0.08070
 C1057 C 0.35844 0.89050 0.12590
 C1058 C 0.38879 0.88878 0.14115
 C1059 C 0.41164 0.90836 0.12339
 C1060 C 0.40442 0.93003 0.09007
 C1061 C 0.37364 0.93210 0.07553
 C1062 C 0.35078 0.91235 0.09333
 C1063 C 0.33580 0.86863 0.14277
 C1064 C 0.31830 0.84911 0.15774
 H1065 H 0.39490 0.87188 0.16634
 H1066 H 0.43504 0.90621 0.13545
 H1067 H 0.36735 0.94843 0.04979
 H1068 H 0.32734 0.91373 0.08124
 C1069 C 0.64193 0.39107 0.37355
 C1070 C 0.64954 0.41278 0.40634
 C1071 C 0.62666 0.43248 0.42425
 C1072 C 0.59591 0.43045 0.40960
 C1073 C 0.58873 0.40894 0.37604
 C1074 C 0.61161 0.38942 0.35818
 C1075 C 0.66455 0.36920 0.35665
 C1076 C 0.68203 0.34965 0.34166
 H1077 H 0.67297 0.41410 0.41853
 H1078 H 0.63291 0.44869 0.45016
 H1079 H 0.56535 0.40685 0.36390
 H1080 H 0.60553 0.37261 0.33282
 C1081 C 0.86022 0.60929 0.87343
 C1082 C 0.85207 0.58431 0.90137
 C1083 C 0.87494 0.56437 0.91886
 C1084 C 0.90652 0.56929 0.90884
 C1085 C 0.91409 0.59431 0.87978
 C1086 C 0.89116 0.61402 0.86240
 C1087 C 0.83730 0.63101 0.85675
 C1088 C 0.81955 0.65043 0.84197
 H1089 H 0.82810 0.58048 0.91007
 H1090 H 0.86774 0.54553 0.94084
 H1091 H 0.93781 0.59916 0.87066
 H1092 H 0.89767 0.63332 0.84070
 C1093 C 0.14174 0.10922 0.62680
 C1094 C 0.11145 0.11074 0.64228
 C1095 C 0.08860 0.09111 0.62453
 C1096 C 0.09579 0.06959 0.59098
 C1097 C 0.12652 0.06768 0.57624
 C1098 C 0.14936 0.08749 0.59403
 C1099 C 0.16432 0.13120 0.64360
 C1100 C 0.18177 0.15082 0.65852
 H1101 H 0.10536 0.12755 0.66762
 H1102 H 0.06524 0.09311 0.63674
 H1103 H 0.13278 0.05147 0.55032
 H1104 H 0.17276 0.08626 0.58176
 C1105 C 0.14009 0.38953 0.37426
 C1106 C 0.14905 0.41175 0.40583
 C1107 C 0.12711 0.43244 0.42420
 C1108 C 0.09593 0.43097 0.41127
 C1109 C 0.08746 0.40909 0.37867
 C1110 C 0.10938 0.38858 0.36037
 C1111 C 0.16181 0.36678 0.35675
 C1112 C 0.17863 0.34684 0.34101
 H1113 H 0.17281 0.41269 0.41677
 H1114 H 0.13441 0.44892 0.44926
 H1115 H 0.06374 0.40733 0.36779
 H1116 H 0.10222 0.37152 0.33588
 C1117 C 0.35990 0.61087 0.87567
 C1118 C 0.35096 0.58840 0.90688
 C1119 C 0.37297 0.56779 0.92522
 C1120 C 0.40420 0.56957 0.91262
 C1121 C 0.41267 0.59172 0.88041
 C1122 C 0.39068 0.61217 0.86214
 C1123 C 0.33808 0.63347 0.85809
 C1124 C 0.32117 0.65329 0.84229
 H1125 H 0.32716 0.58720 0.91754
 H1126 H 0.36566 0.55108 0.94996
 H1127 H 0.43643 0.59373 0.86979
 H1128 H 0.39783 0.62942 0.83793
 C1129 C 0.63990 0.11103 0.62606
 C1130 C 0.60912 0.11210 0.63967
 C1131 C 0.58722 0.09150 0.62141
 C1132 C 0.59575 0.06939 0.58911
 C1133 C 0.62697 0.06783 0.57642
 C1134 C 0.64890 0.08861 0.59475
 C1135 C 0.66165 0.13380 0.64367
 C1136 C 0.67853 0.15372 0.65946
 H1137 H 0.60191 0.12930 0.66395
 H1138 H 0.56347 0.09336 0.63212
 H1139 H 0.63433 0.05118 0.55159
 H1140 H 0.67269 0.08755 0.58400
 C1141 C 0.85981 0.88943 0.12495
 C1142 C 0.89061 0.88810 0.13846
 C1143 C 0.91261 0.90850 0.12014
 C1144 C 0.90415 0.93065 0.08790
 C1145 C 0.87291 0.93245 0.07532
 C1146 C 0.85089 0.91188 0.09371
 C1147 C 0.83797 0.86682 0.14253
 C1148 C 0.82107 0.84697 0.15829
 H1149 H 0.89776 0.87085 0.16268
 H1150 H 0.93638 0.90647 0.13075
 H1151 H 0.86561 0.94915 0.05055
 H1152 H 0.82708 0.91311 0.08304
 C1153 C 0.85771 0.11079 0.86625
 C1154 C 0.84956 0.08965 0.89944
 C1155 C 0.87210 0.07021 0.91876
 C1156 C 0.90316 0.07181 0.90522
 C1157 C 0.91089 0.09266 0.87117
 C1158 C 0.88834 0.11196 0.85190
 C1159 C 0.83534 0.13262 0.84807
 C1160 C 0.81801 0.15212 0.83230
 H1161 H 0.82595 0.08863 0.91092
 H1162 H 0.86533 0.05455 0.94499
 H1163 H 0.93449 0.09452 0.85985
 H1164 H 0.89494 0.12829 0.82629
 C1165 C 0.14251 0.60998 0.63476
 C1166 C 0.11190 0.61105 0.64920
 C1167 C 0.08933 0.59188 0.62971
 C1168 C 0.09704 0.57126 0.59535
 C1169 C 0.12808 0.56973 0.58174
 C1170 C 0.15064 0.58905 0.60128
 C1171 C 0.16487 0.63176 0.65309
 C1172 C 0.18217 0.65124 0.66894
 H1173 H 0.10533 0.62723 0.67503
 H1174 H 0.06574 0.59366 0.64110
 H1175 H 0.13483 0.55425 0.55528
 H1176 H 0.17424 0.58812 0.58972
 C1177 C 0.64213 0.88919 0.36636
 C1178 C 0.65033 0.91030 0.39965
 C1179 C 0.62780 0.92963 0.41925
 C1180 C 0.59669 0.92799 0.40590
 C1181 C 0.58890 0.90714 0.37180
 C1182 C 0.61144 0.88795 0.35226
 C1183 C 0.66455 0.86751 0.34781
 C1184 C 0.68193 0.84814 0.33176
 H1185 H 0.67399 0.91138 0.41098
 H1186 H 0.63463 0.94528 0.44551
 H1187 H 0.56526 0.90523 0.36061
 H1188 H 0.60479 0.87165 0.32659
 C1189 C 0.35736 0.38931 0.13361
 C1190 C 0.38801 0.38785 0.14784
 C1191 C 0.41065 0.40711 0.12868
 C1192 C 0.40297 0.42821 0.09488
 C1193 C 0.37190 0.43009 0.08145
 C1194 C 0.34927 0.41070 0.10065
 C1195 C 0.33486 0.36758 0.15170
 C1196 C 0.31744 0.34816 0.16744
 H1197 H 0.39456 0.37134 0.17326
 H1198 H 0.43426 0.40502 0.13991
 H1199 H 0.36516 0.44594 0.05541
 H1200 H 0.32564 0.41195 0.08926
 C1201 C 0.64212 0.60855 0.12665
 C1202 C 0.61189 0.61003 0.14233
 C1203 C 0.58899 0.59043 0.12465
 C1204 C 0.59607 0.56900 0.09095
 C1205 C 0.62675 0.56713 0.07602
 C1206 C 0.64965 0.58690 0.09374
 C1207 C 0.66475 0.63051 0.14337
 C1208 C 0.68223 0.65011 0.15826
 H1209 H 0.60587 0.62677 0.16779
 H1210 H 0.56567 0.59240 0.13701
 H1211 H 0.63293 0.55099 0.04999
 H1212 H 0.67301 0.58571 0.08132
 C1213 C 0.14189 0.89124 0.87321
 C1214 C 0.14950 0.91295 0.90601
 C1215 C 0.12663 0.93268 0.92388
 C1216 C 0.09588 0.93071 0.90919
 C1217 C 0.08871 0.90921 0.87561
 C1218 C 0.11158 0.88965 0.85778
 C1219 C 0.16450 0.86933 0.85636
 C1220 C 0.18199 0.84976 0.84143
 H1221 H 0.17291 0.91424 0.91824
 H1222 H 0.13289 0.94888 0.94981
 H1223 H 0.06533 0.90715 0.86344
 H1224 H 0.10549 0.87285 0.83242
 C1225 C 0.35853 0.10949 0.37366
 C1226 C 0.35074 0.08755 0.40606
 C1227 C 0.37353 0.06775 0.42402
 C1228 C 0.40439 0.06987 0.40984
 C1229 C 0.41175 0.09164 0.37670
 C1230 C 0.38897 0.11127 0.35878
 C1231 C 0.33591 0.13133 0.35655
 C1232 C 0.31836 0.15078 0.34142
 H1233 H 0.32723 0.08609 0.41787
 H1234 H 0.36711 0.05136 0.44961
 H1235 H 0.43521 0.09384 0.36491
 H1236 H 0.39520 0.12823 0.33373
 C1237 C 0.85841 0.39108 0.62671
 C1238 C 0.88881 0.38922 0.64172
 C1239 C 0.91169 0.40866 0.62375
 C1240 C 0.90444 0.43033 0.59044
 C1241 C 0.87361 0.43255 0.57614
 C1242 C 0.85073 0.41293 0.59415
 C1243 C 0.83574 0.36935 0.64379
 C1244 C 0.81821 0.34993 0.65893
 H1245 H 0.89495 0.37231 0.66689
 H1246 H 0.93512 0.40641 0.63563
 H1247 H 0.86729 0.44888 0.55042
 H1248 H 0.82724 0.41443 0.58223
 C1249 C 0.86230 0.61030 0.12505
 C1250 C 0.85331 0.58947 0.09177
 C1251 C 0.87537 0.57029 0.07072
 C1252 C 0.90677 0.57186 0.08260
 C1253 C 0.91539 0.59270 0.11637
 C1254 C 0.89337 0.61168 0.13733
 C1255 C 0.84034 0.63159 0.14554
 C1256 C 0.82327 0.65072 0.16280
 H1257 H 0.82935 0.58832 0.08176
 H1258 H 0.86793 0.55462 0.04483
 H1259 H 0.93926 0.59454 0.12659
 H1260 H 0.90068 0.62779 0.16286
 C1261 C 0.63794 0.39053 0.62756
 C1262 C 0.64677 0.41125 0.59415
 C1263 C 0.62460 0.43036 0.57328
 C1264 C 0.59328 0.42882 0.58549
 C1265 C 0.58483 0.40814 0.61944
 C1266 C 0.60696 0.38922 0.64022
 C1267 C 0.65998 0.36923 0.64774
 C1268 C 0.67709 0.35005 0.66472
 H1269 H 0.67066 0.41232 0.58385
 H1270 H 0.63190 0.44592 0.54723
 H1271 H 0.56102 0.40635 0.62989
 H1272 H 0.59980 0.37319 0.66587
 C1273 C 0.13786 0.11005 0.37363
 C1274 C 0.14670 0.08919 0.40690
 C1275 C 0.12454 0.06998 0.42763
 C1276 C 0.09321 0.07156 0.41543
 C1277 C 0.08475 0.09240 0.38164
 C1278 C 0.10687 0.11142 0.36100
 C1279 C 0.15990 0.13139 0.35352
 C1280 C 0.17700 0.15056 0.33653
 H1281 H 0.17060 0.08807 0.41717
 H1282 H 0.13186 0.05431 0.45356
 H1283 H 0.06093 0.09423 0.37120
 H1284 H 0.09968 0.12755 0.33546
 C1285 C 0.36229 0.89014 0.87278
 C1286 C 0.39321 0.88896 0.85982
 C1287 C 0.41536 0.90797 0.88044
 C1288 C 0.40697 0.92861 0.91452
 C1289 C 0.37570 0.93003 0.92701
 C1290 C 0.35353 0.91082 0.90631
 C1291 C 0.34026 0.86873 0.85283
 C1292 C 0.32313 0.84948 0.83603
 H1293 H 0.40031 0.87295 0.83408
 H1294 H 0.43913 0.90629 0.86979
 H1295 H 0.36846 0.94555 0.95317
 H1296 H 0.32968 0.91179 0.91683
 C1297 C 0.13785 0.88612 0.63333
 C1298 C 0.14699 0.90956 0.60350
 C1299 C 0.12472 0.92837 0.58242
 C1300 C 0.09303 0.92381 0.59087
 C1301 C 0.08425 0.90031 0.62121
 C1302 C 0.10647 0.88167 0.64218
 C1303 C 0.16017 0.86546 0.65388
 C1304 C 0.17754 0.84679 0.67120
 H1305 H 0.17124 0.91309 0.59625
 H1306 H 0.13231 0.94624 0.55934
 H1307 H 0.06014 0.89613 0.62872
 H1308 H 0.09912 0.86352 0.66508
 C1309 C 0.63807 0.61339 0.36640
 C1310 C 0.64716 0.59001 0.39637
 C1311 C 0.62486 0.57133 0.41758
 C1312 C 0.59317 0.57595 0.40915
 C1313 C 0.58443 0.59939 0.37869
 C1314 C 0.60669 0.61790 0.35757
 C1315 C 0.66045 0.63396 0.34576
 C1316 C 0.67785 0.65260 0.32843
 H1317 H 0.67141 0.58642 0.40362
 H1318 H 0.63242 0.55351 0.44075
 H1319 H 0.56032 0.60362 0.37118
 H1320 H 0.59936 0.63600 0.33460
 C1321 C 0.36213 0.11333 0.13342
 C1322 C 0.35306 0.08997 0.10337
 C1323 C 0.37537 0.07121 0.08230
 C1324 C 0.40705 0.07573 0.09096
 C1325 C 0.41576 0.09914 0.12152
 C1326 C 0.39349 0.11773 0.14250
 C1327 C 0.33976 0.13399 0.15388
 C1328 C 0.32233 0.15267 0.17110
 H1329 H 0.32883 0.08648 0.09593
 H1330 H 0.36784 0.05341 0.05903
 H1331 H 0.43985 0.10329 0.12920
 H1332 H 0.40079 0.13582 0.16556
 C1333 C 0.86312 0.38721 0.86666
 C1334 C 0.89449 0.38169 0.85916
 C1335 C 0.91687 0.40043 0.87971
 C1336 C 0.90841 0.42538 0.90855
 C1337 C 0.87650 0.43087 0.91550
 C1338 C 0.85414 0.41189 0.89478
 C1339 C 0.84061 0.36650 0.84638
 C1340 C 0.82311 0.34777 0.82926
 H1341 H 0.90174 0.36258 0.83757
 H1342 H 0.94088 0.39503 0.87289
 H1343 H 0.86862 0.44966 0.93714
 H1344 H 0.82986 0.41632 0.90096
 C1345 C 0.64418 0.11005 0.87296
 C1346 C 0.65188 0.09011 0.90763
 C1347 C 0.62932 0.07043 0.92635
 C1348 C 0.59876 0.07069 0.91066
 C1349 C 0.59157 0.09022 0.87505
 C1350 C 0.61414 0.10971 0.85638
 C1351 C 0.66628 0.13223 0.85531
 C1352 C 0.68314 0.15196 0.83936
 H1353 H 0.67508 0.09028 0.92074
 H1354 H 0.63559 0.05579 0.95383
 H1355 H 0.56836 0.09093 0.86206
 H1356 H 0.60797 0.12509 0.82954
 C1357 C 0.35578 0.60902 0.62837
 C1358 C 0.34813 0.58931 0.59341
 C1359 C 0.37076 0.56990 0.57434
 C1360 C 0.40133 0.57022 0.58994
 C1361 C 0.40848 0.58951 0.62584
 C1362 C 0.38585 0.60873 0.64487
 C1363 C 0.33366 0.63107 0.64625
 C1364 C 0.31681 0.65079 0.66229
 H1365 H 0.32491 0.58948 0.58035
 H1366 H 0.36452 0.55542 0.54664
 H1367 H 0.43171 0.59025 0.63878
 H1368 H 0.39198 0.62396 0.67192
 C1369 C 0.14308 0.38975 0.12654
 C1370 C 0.15103 0.40986 0.09216
 C1371 C 0.12853 0.42941 0.07299
 C1372 C 0.09779 0.42888 0.08793
 C1373 C 0.09033 0.40914 0.12323
 C1374 C 0.11283 0.38976 0.14234
 C1375 C 0.16520 0.36774 0.14467
 C1376 C 0.18213 0.34815 0.16088
 H1377 H 0.17439 0.40995 0.07963
 H1378 H 0.13502 0.44423 0.04578
 H1379 H 0.06697 0.40818 0.13566
 H1380 H 0.10645 0.37424 0.16894
 C1381 C 0.85582 0.89078 0.37195
 C1382 C 0.88586 0.89113 0.35541
 C1383 C 0.90847 0.91045 0.37435
 C1384 C 0.90132 0.92979 0.41020
 C1385 C 0.87076 0.93006 0.42583
 C1386 C 0.84815 0.91055 0.40684
 C1387 C 0.83371 0.86867 0.35413
 C1388 C 0.81686 0.84893 0.33812
 H1389 H 0.89201 0.87587 0.32841
 H1390 H 0.93170 0.90974 0.36139
 H1391 H 0.86452 0.94456 0.45349
 H1392 H 0.82495 0.91035 0.41994
 C1393 C 0.86247 0.61346 0.63389
 C1394 C 0.85330 0.59009 0.60391
 C1395 C 0.87555 0.57134 0.58268
 C1396 C 0.90725 0.57589 0.59111
 C1397 C 0.91606 0.59932 0.62160
 C1398 C 0.89386 0.61789 0.64273
 C1399 C 0.84018 0.63408 0.65455
 C1400 C 0.82282 0.65274 0.67193
 H1401 H 0.82904 0.58657 0.59667
 H1402 H 0.86794 0.55352 0.55948
 H1403 H 0.94018 0.60348 0.62910
 H1404 H 0.90124 0.63599 0.66573
 C1405 C 0.63766 0.38574 0.13322
 C1406 C 0.64682 0.40932 0.10359
 C1407 C 0.62457 0.42807 0.08242
 C1408 C 0.59286 0.42333 0.09056
 C1409 C 0.58405 0.39967 0.12065
 C1410 C 0.60626 0.38109 0.14173
 C1411 C 0.66000 0.36518 0.15389
 C1412 C 0.67741 0.34657 0.17129
 H1413 H 0.67109 0.41302 0.09661
 H1414 H 0.63217 0.44608 0.05953
 H1415 H 0.55992 0.39535 0.12792
 H1416 H 0.59889 0.36282 0.16445
 C1417 C 0.36224 0.88586 0.36685
 C1418 C 0.39368 0.88140 0.35840
 C1419 C 0.41580 0.90010 0.37956
 C1420 C 0.40689 0.92373 0.40973
 C1421 C 0.37514 0.92830 0.41781
 C1422 C 0.35297 0.90942 0.39654
 C1423 C 0.33999 0.86516 0.34601
 C1424 C 0.32267 0.84647 0.32847
 H1425 H 0.40116 0.86318 0.33564
 H1426 H 0.43994 0.89588 0.37232
 H1427 H 0.36745 0.94626 0.44075
 H1428 H 0.32869 0.91300 0.40351
 C1429 C 0.13760 0.11427 0.86693
 C1430 C 0.14684 0.09080 0.89669
 C1431 C 0.12465 0.07194 0.91785
 C1432 C 0.09293 0.07647 0.90956
 C1433 C 0.08404 0.10000 0.87930
 C1434 C 0.10618 0.11868 0.85825
 C1435 C 0.15984 0.13497 0.84627
 C1436 C 0.17714 0.15369 0.82888
 H1437 H 0.17111 0.08728 0.90381
 H1438 H 0.13231 0.05405 0.94086
 H1439 H 0.05991 0.10416 0.87191
 H1440 H 0.09874 0.13684 0.83542
 C1441 C 0.13807 0.88981 0.12627
 C1442 C 0.14686 0.91064 0.09295
 C1443 C 0.12469 0.92991 0.07235
 C1444 C 0.09340 0.92842 0.08472
 C1445 C 0.08499 0.90763 0.11857
 C1446 C 0.10712 0.88855 0.13909
 C1447 C 0.16009 0.86837 0.14621
 C1448 C 0.17719 0.84911 0.16304
 H1449 H 0.17073 0.91168 0.08254
 H1450 H 0.13196 0.94555 0.04637
 H1451 H 0.06120 0.90587 0.12914
 H1452 H 0.09998 0.87244 0.16467
 C1453 C 0.86209 0.39018 0.37298
 C1454 C 0.89298 0.38911 0.35990
 C1455 C 0.91512 0.40814 0.38049
 C1456 C 0.90676 0.42869 0.41467
 C1457 C 0.87551 0.43002 0.42728
 C1458 C 0.85334 0.41079 0.40660
 C1459 C 0.84008 0.36874 0.35303
 C1460 C 0.82299 0.34946 0.33621
 H1461 H 0.90008 0.37316 0.33408
 H1462 H 0.93887 0.40653 0.36974
 H1463 H 0.86829 0.44548 0.45352
 H1464 H 0.82951 0.41168 0.41721
 C1465 C 0.36202 0.11081 0.62707
 C1466 C 0.35315 0.08990 0.59381
 C1467 C 0.37526 0.07052 0.57318
 C1468 C 0.40659 0.07197 0.58546
 C1469 C 0.41507 0.09287 0.61924
 C1470 C 0.39300 0.11205 0.63978
 C1471 C 0.34001 0.13228 0.64713
 C1472 C 0.32289 0.15153 0.66405
 H1473 H 0.32926 0.08885 0.58347
 H1474 H 0.36792 0.05482 0.54726
 H1475 H 0.43888 0.09461 0.62975
 H1476 H 0.40022 0.12820 0.66530
 C1477 C 0.63838 0.60986 0.87442
 C1478 C 0.64709 0.58881 0.90753
 C1479 C 0.62483 0.56961 0.92804
 C1480 C 0.59352 0.57139 0.91577
 C1481 C 0.58518 0.59242 0.88214
 C1482 C 0.60741 0.61143 0.86172
 C1483 C 0.66054 0.63119 0.85455
 C1484 C 0.67774 0.65036 0.83776
 H1485 H 0.67097 0.58752 0.91786
 H1486 H 0.63204 0.55378 0.95386
 H1487 H 0.56139 0.59441 0.87166
 H1488 H 0.60033 0.62771 0.83630
 C1489 C 0.35515 0.39186 0.87164
 C1490 C 0.38520 0.39193 0.85511
 C1491 C 0.40797 0.41106 0.87406
 C1492 C 0.40096 0.43045 0.90990
 C1493 C 0.37039 0.43100 0.92551
 C1494 C 0.34764 0.41169 0.90652
 C1495 C 0.33289 0.36988 0.85390
 C1496 C 0.31592 0.35020 0.83799
 H1497 H 0.39123 0.37660 0.82812
 H1498 H 0.43119 0.41014 0.86112
 H1499 H 0.36426 0.44556 0.95316
 H1500 H 0.32443 0.41169 0.91961
 C1501 C 0.85585 0.10880 0.12884
 C1502 C 0.84818 0.08909 0.09388
 C1503 C 0.87080 0.06964 0.07485
 C1504 C 0.90137 0.06992 0.09048
 C1505 C 0.90852 0.08920 0.12639
 C1506 C 0.88590 0.10846 0.14539
 C1507 C 0.83374 0.13090 0.14666
 C1508 C 0.81688 0.15064 0.16264
 H1509 H 0.82498 0.08929 0.08078
 H1510 H 0.86457 0.05518 0.04714
 H1511 H 0.93174 0.08991 0.13935
 H1512 H 0.89204 0.12369 0.17243
 C1513 C 0.64360 0.89007 0.62942
 C1514 C 0.65142 0.91022 0.59503
 C1515 C 0.62887 0.92981 0.57608
 C1516 C 0.59818 0.92928 0.59124
 C1517 C 0.59085 0.90952 0.62656
 C1518 C 0.61341 0.89010 0.64546
 C1519 C 0.66576 0.86799 0.64729
 C1520 C 0.68274 0.84834 0.66328
 H1521 H 0.67473 0.91029 0.58231
 H1522 H 0.63527 0.94464 0.54883
 H1523 H 0.56753 0.90857 0.63915
 H1524 H 0.60712 0.87456 0.67208
 C1525 C 0.14413 0.60900 0.37112
 C1526 C 0.15188 0.58921 0.40592
 C1527 C 0.12927 0.56982 0.42506
 C1528 C 0.09864 0.57023 0.40969
 C1529 C 0.09140 0.58961 0.37395
 C1530 C 0.11400 0.60882 0.35486
 C1531 C 0.16626 0.63100 0.35314
 C1532 C 0.18313 0.65065 0.33704
 H1533 H 0.17514 0.58929 0.41881
 H1534 H 0.13558 0.55527 0.45262
 H1535 H 0.06812 0.59043 0.36118
 H1536 H 0.10779 0.62410 0.32794
   
