data_POSCAR
  _audit_creation_date              2014-09-24
  _audit_creation_method            'ToBaCCo'
  _symmetry_space_group_name_H-M    'P1'
  _symmetry_Int_Tables_number       1
  _symmetry_cell_setting            triclinic
  loop_
  _symmetry_equiv_pos_as_xyz
 x,y,z
_cell_length_a 53.4138
_cell_length_b 53.3559
_cell_length_c 53.3704
_cell_angle_alpha 90.077300
_cell_angle_beta 89.936800
_cell_angle_gamma 89.961200
loop_
  _atom_site_label
  _atom_site_type_symbol
  _atom_site_fract_x
  _atom_site_fract_y
  _atom_site_fract_z
C1 C 0.31301 0.31323 -0.01301
 C2 C 0.31347 0.31316 0.01254
 C3 C 0.29665 0.32951 0.02760
 C4 C 0.33151 0.29745 0.02675
 C5 C 0.32898 0.29599 -0.02800
 C6 C 0.29736 0.33125 -0.02730
 C7 C 0.30695 0.34580 0.04552
 C8 C 0.29152 0.36185 0.05931
 C9 C 0.26561 0.36169 0.05549
 C10 C 0.25511 0.34514 0.03803
 C11 C 0.27054 0.32902 0.02422
 C12 C 0.35742 0.29954 0.02260
 C13 C 0.37419 0.28468 0.03612
 C14 C 0.36527 0.26779 0.05408
 C15 C 0.33951 0.26590 0.05857
 C16 C 0.32271 0.28073 0.04504
 C17 C 0.32820 0.26992 -0.02429
 C18 C 0.34411 0.25410 -0.03789
 C19 C 0.36075 0.26419 -0.05554
 C20 C 0.36113 0.29011 -0.05972
 C21 C 0.34529 0.30589 -0.04610
 C22 C 0.28053 0.32237 -0.04545
 C23 C 0.26592 0.33915 -0.05924
 C24 C 0.26814 0.36498 -0.05517
 C25 C 0.28511 0.37398 -0.03731
 C26 C 0.29974 0.35722 -0.02353
 H27 H 0.32700 0.34640 0.04848
 H28 H 0.29983 0.37454 0.07280
 H29 H 0.23507 0.34479 0.03500
 H30 H 0.26219 0.31629 0.01081
 H31 H 0.36461 0.31271 0.00895
 H32 H 0.39410 0.28642 0.03263
 H33 H 0.30283 0.27902 0.04864
 H34 H 0.31545 0.26189 -0.01071
 H35 H 0.34348 0.23408 -0.03449
 H36 H 0.37385 0.29824 -0.07333
 H37 H 0.34610 0.32591 -0.04931
 H38 H 0.27860 0.30243 -0.04878
 H39 H 0.25294 0.33200 -0.07309
 H40 H 0.28710 0.39393 -0.03413
 H41 H 0.31301 0.36447 -0.01001
 H42 H 0.33241 0.25298 0.07251
 C43 C 0.68816 0.68777 -0.01332
 C44 C 0.68870 0.68690 0.01220
 C45 C 0.70459 0.66859 0.02582
 C46 C 0.67264 0.70348 0.02783
 C47 C 0.66992 0.70370 -0.02699
 C48 C 0.70502 0.67198 -0.02892
 C49 C 0.70231 0.64273 0.02133
 C50 C 0.71718 0.62567 0.03447
 C51 C 0.73429 0.63427 0.05238
 C52 C 0.73642 0.65998 0.05716
 C53 C 0.72157 0.67706 0.04402
 C54 C 0.65665 0.69285 0.04581
 C55 C 0.64083 0.70804 0.06012
 C56 C 0.64093 0.73405 0.05675
 C57 C 0.65720 0.74486 0.03924
 C58 C 0.67310 0.72967 0.02492
 C59 C 0.67848 0.72091 -0.04493
 C60 C 0.66148 0.73575 -0.05817
 C61 C 0.63575 0.73338 -0.05374
 C62 C 0.62707 0.71607 -0.03607
 C63 C 0.64406 0.70120 -0.02283
 C64 C 0.73113 0.67256 -0.02567
 C65 C 0.74658 0.65681 -0.03988
 C66 C 0.73610 0.64057 -0.05763
 C67 C 0.71017 0.64038 -0.06137
 C68 C 0.69473 0.65605 -0.04717
 H69 H 0.68893 0.63579 0.00776
 H70 H 0.71525 0.60580 0.03077
 H71 H 0.74950 0.66682 0.07108
 H72 H 0.72342 0.69691 0.04789
 H73 H 0.65608 0.67273 0.04842
 H74 H 0.62834 0.69949 0.07363
 H75 H 0.68560 0.73827 0.01146
 H76 H 0.69834 0.72293 -0.04854
 H77 H 0.66838 0.74899 -0.07191
 H78 H 0.60719 0.71394 -0.03264
 H79 H 0.63706 0.68764 -0.00947
 H80 H 0.73948 0.68501 -0.01200
 H81 H 0.76664 0.65716 -0.03689
 H82 H 0.70187 0.62790 -0.07506
 H83 H 0.67466 0.65538 -0.05004
 H84 H 0.65749 0.76498 0.03654
 C85 C 0.68685 0.31306 1.01141
 C86 C 0.68655 0.31345 0.98586
 C87 C 0.70190 0.33160 0.97145
 C88 C 0.67008 0.29650 0.97109
 C89 C 0.66917 0.29730 1.02594
 C90 C 0.70407 0.32922 1.02619
 C91 C 0.69961 0.35751 0.97566
 C92 C 0.71440 0.37440 0.96221
 C93 C 0.73141 0.36558 0.94427
 C94 C 0.73343 0.33982 0.93966
 C95 C 0.71866 0.32291 0.95311
 C96 C 0.65338 0.30671 0.95354
 C97 C 0.63702 0.29120 0.94026
 C98 C 0.63727 0.26527 0.94422
 C99 C 0.65427 0.25486 0.96125
 C100 C 0.67070 0.27038 0.97454
 C101 C 0.67841 0.28026 1.04370
 C102 C 0.66193 0.26541 1.05757
 C103 C 0.63607 0.26760 1.05395
 C104 C 0.62672 0.28480 1.03652
 C105 C 0.64317 0.29968 1.02266
 C106 C 0.73009 0.32871 1.02216
 C107 C 0.74587 0.34459 1.03579
 C108 C 0.73581 0.36095 1.05376
 C109 C 0.70997 0.36113 1.05820
 C110 C 0.69421 0.34531 1.04457
 H111 H 0.68641 0.36460 0.98936
 H112 H 0.71256 0.39431 0.96579
 H113 H 0.74644 0.33282 0.92572
 H114 H 0.72052 0.30301 0.94948
 H115 H 0.65264 0.32677 0.95053
 H116 H 0.62399 0.29946 0.92710
 H117 H 0.68373 0.26207 0.98767
 H118 H 0.69838 0.27834 1.04663
 H119 H 0.66933 0.25223 1.07110
 H120 H 0.60673 0.28676 1.03371
 H121 H 0.63568 0.31310 1.00943
 H122 H 0.73811 0.31613 1.00838
 H123 H 0.76585 0.34417 1.03223
 H124 H 0.70191 0.37364 1.07206
 H125 H 0.67424 0.34594 1.04803
 H126 H 0.65471 0.23481 0.96438
 C127 C 0.31450 0.68672 1.01589
 C128 C 0.31415 0.68665 0.99035
 C129 C 0.29825 0.66892 0.97604
 C130 C 0.33045 0.70352 0.97532
 C131 C 0.33270 0.70213 1.03015
 C132 C 0.29748 0.67052 1.03085
 C133 C 0.30044 0.64291 0.97959
 C134 C 0.28556 0.62640 0.96578
 C135 C 0.26855 0.63570 0.94814
 C136 C 0.26651 0.66156 0.94431
 C137 C 0.28136 0.67810 0.95812
 C138 C 0.34636 0.69323 0.95703
 C139 C 0.36216 0.70867 0.94303
 C140 C 0.36215 0.73459 0.94702
 C141 C 0.34604 0.74507 0.96493
 C142 C 0.33017 0.72963 0.97895
 C143 C 0.32409 0.71907 1.04837
 C144 C 0.34105 0.73370 1.06190
 C145 C 0.36681 0.73138 1.05747
 C146 C 0.37553 0.71423 1.03957
 C147 C 0.35857 0.69958 1.02606
 C148 C 0.27138 0.67128 1.02744
 C149 C 0.25578 0.65516 1.04100
 C150 C 0.26610 0.63831 1.05828
 C151 C 0.29202 0.63793 1.06217
 C152 C 0.30760 0.65398 1.04861
 H153 H 0.31374 0.63546 0.99295
 H154 H 0.28741 0.60640 0.96875
 H155 H 0.25350 0.66893 0.93060
 H156 H 0.27959 0.69808 0.95498
 H157 H 0.34682 0.67318 0.95387
 H158 H 0.37451 0.70036 0.92921
 H159 H 0.31773 0.73798 0.99266
 H160 H 0.30422 0.72112 1.05191
 H161 H 0.33405 0.74680 1.07578
 H162 H 0.39542 0.71211 1.03608
 H163 H 0.36559 0.68623 1.01245
 H164 H 0.26316 0.68420 1.01414
 H165 H 0.23575 0.65575 1.03786
 H166 H 0.30028 0.62504 1.07551
 H167 H 0.32764 0.65316 1.05160
 H168 H 0.34582 0.76513 0.96810
 C169 C -0.01411 0.31267 0.31325
 C170 C 0.01142 0.31305 0.31290
 C171 C 0.02652 0.29620 0.32908
 C172 C 0.02558 0.33102 0.29704
 C173 C -0.02915 0.32863 0.29614
 C174 C -0.02830 0.29711 0.33146
 C175 C 0.04457 0.30649 0.34519
 C176 C 0.05840 0.29104 0.36109
 C177 C 0.05449 0.26511 0.36096
 C178 C 0.03690 0.25462 0.34458
 C179 C 0.02305 0.27008 0.32860
 C180 C 0.02155 0.35698 0.29915
 C181 C 0.03516 0.37369 0.28429
 C182 C 0.05308 0.36467 0.26736
 C183 C 0.05740 0.33885 0.26541
 C184 C 0.04379 0.32212 0.28025
 C185 C -0.02560 0.32773 0.27005
 C186 C -0.03918 0.34369 0.25433
 C187 C -0.05661 0.36050 0.26455
 C188 C -0.06066 0.36099 0.29048
 C189 C -0.04708 0.34509 0.30616
 C190 C -0.04658 0.28030 0.32282
 C191 C -0.06027 0.26577 0.33976
 C192 C -0.05596 0.26803 0.36556
 C193 C -0.03794 0.28500 0.37432
 C194 C -0.02428 0.29955 0.35737
 H195 H 0.04759 0.32655 0.34578
 H196 H 0.07199 0.29933 0.37367
 H197 H 0.03380 0.23456 0.34426
 H198 H 0.00952 0.26173 0.31600
 H199 H 0.00797 0.36426 0.31238
 H200 H 0.03179 0.39364 0.28609
 H201 H 0.04731 0.30219 0.27852
 H202 H -0.01217 0.31485 0.26192
 H203 H -0.03593 0.34303 0.23429
 H204 H -0.07411 0.37386 0.29864
 H205 H -0.05015 0.34600 0.32621
 H206 H -0.05010 0.27833 0.30293
 H207 H -0.07422 0.25282 0.33271
 H208 H -0.03452 0.28709 0.39422
 H209 H -0.01065 0.31281 0.36444
 H210 H 0.07132 0.33168 0.25247
 C211 C -0.01265 0.68774 0.68755
 C212 C 0.01287 0.68841 0.68697
 C213 C 0.02661 0.70424 0.66871
 C214 C 0.02834 0.67249 0.70375
 C215 C -0.02637 0.66940 0.70330
 C216 C -0.02812 0.70454 0.67163
 C217 C 0.02239 0.70174 0.64283
 C218 C 0.03555 0.71664 0.62582
 C219 C 0.05322 0.73397 0.63447
 C220 C 0.05776 0.73629 0.66019
 C221 C 0.04458 0.72143 0.67724
 C222 C 0.04653 0.65653 0.69337
 C223 C 0.06065 0.64079 0.70875
 C224 C 0.05689 0.64093 0.73470
 C225 C 0.03918 0.65719 0.74528
 C226 C 0.02505 0.67300 0.72990
 C227 C -0.04445 0.67783 0.72046
 C228 C -0.05758 0.66072 0.73529
 C229 C -0.05290 0.63498 0.73294
 C230 C -0.03510 0.62643 0.71561
 C231 C -0.02199 0.64354 0.70077
 C232 C -0.02491 0.73069 0.67221
 C233 C -0.03893 0.74610 0.65632
 C234 C -0.05647 0.73553 0.63990
 C235 C -0.06016 0.70954 0.63971
 C236 C -0.04614 0.69416 0.65554
 H237 H 0.00899 0.68821 0.63586
 H238 H 0.03204 0.71456 0.60593
 H239 H 0.07149 0.74955 0.66706
 H240 H 0.04824 0.72344 0.69710
 H241 H 0.04943 0.65590 0.67329
 H242 H 0.07432 0.62831 0.70037
 H243 H 0.01142 0.68548 0.73832
 H244 H -0.04821 0.69768 0.72250
 H245 H -0.07139 0.66759 0.74851
 H246 H -0.03143 0.60656 0.71344
 H247 H -0.00851 0.63665 0.68725
 H248 H -0.01142 0.73911 0.68479
 H249 H -0.03594 0.76618 0.65674
 H250 H -0.07368 0.70110 0.62714
 H251 H -0.04896 0.67407 0.65486
 H252 H 0.03618 0.65751 0.76536
 C253 C 1.01151 0.68578 0.31294
 C254 C 0.98597 0.68568 0.31338
 C255 C 0.97168 0.70120 0.33157
 C256 C 0.97107 0.66936 0.29640
 C257 C 1.02593 0.66795 0.29714
 C258 C 1.02638 0.70298 0.32905
 C259 C 0.97586 0.69893 0.35747
 C260 C 0.96250 0.71384 0.37439
 C261 C 0.94467 0.73095 0.36563
 C262 C 0.94010 0.73296 0.33988
 C263 C 0.95347 0.71808 0.32293
 C264 C 0.95324 0.65291 0.30657
 C265 C 0.93969 0.63680 0.29101
 C266 C 0.94365 0.63707 0.26508
 C267 C 0.96100 0.65380 0.25472
 C268 C 0.97456 0.66997 0.27029
 C269 C 1.04392 0.67704 0.28026
 C270 C 1.05778 0.66044 0.26545
 C271 C 1.05392 0.63456 0.26752
 C272 C 1.03621 0.62535 0.28456
 C273 C 1.02237 0.64195 0.29939
 C274 C 1.02251 0.72905 0.32849
 C275 C 1.03615 0.74483 0.34438
 C276 C 1.05396 0.73472 0.36080
 C277 C 1.05825 0.70882 0.36101
 C278 C 1.04461 0.69307 0.34518
 H279 H 0.98946 0.68565 0.36453
 H280 H 0.96605 0.71200 0.39429
 H281 H 0.92626 0.74605 0.33291
 H282 H 0.94986 0.71993 0.30305
 H283 H 0.95019 0.65219 0.32662
 H284 H 0.92629 0.62398 0.29923
 H285 H 0.98789 0.68282 0.26202
 H286 H 1.04707 0.69701 0.27843
 H287 H 1.07150 0.66782 0.25243
 H288 H 1.03315 0.60537 0.28650
 H289 H 1.00896 0.63456 0.31270
 H290 H 1.00884 0.73711 0.31588
 H291 H 1.03270 0.76484 0.34392
 H292 H 1.07199 0.70073 0.37356
 H293 H 1.04795 0.67306 0.34584
 H294 H 0.96414 0.65424 0.23467
 C295 C 1.01478 0.31361 0.68648
 C296 C 0.98926 0.31318 0.68666
 C297 C 0.97484 0.29731 0.66897
 C298 C 0.97436 0.32942 0.70373
 C299 C 1.02910 0.33183 0.70184
 C300 C 1.02965 0.29667 0.67006
 C301 C 0.97819 0.29962 0.64296
 C302 C 0.96412 0.28492 0.62649
 C303 C 0.94644 0.26798 0.63586
 C304 C 0.94283 0.26580 0.66175
 C305 C 0.95690 0.28047 0.67823
 C306 C 0.95603 0.34537 0.69368
 C307 C 0.94216 0.36115 0.70930
 C308 C 0.94632 0.36107 0.73518
 C309 C 0.96426 0.34491 0.74544
 C310 C 0.97815 0.32905 0.72980
 C311 C 1.04747 0.32321 0.71853
 C312 C 1.06108 0.34020 0.73308
 C313 C 1.05659 0.36596 0.73090
 C314 C 1.03856 0.37470 0.71401
 C315 C 1.02496 0.35773 0.69944
 C316 C 1.02630 0.27053 0.67072
 C317 C 1.03984 0.25500 0.65446
 C318 C 1.05703 0.26543 0.63757
 C319 C 1.06084 0.29140 0.63727
 C320 C 1.04730 0.30690 0.65346
 H321 H 0.99154 0.31290 0.63545
 H322 H 0.96692 0.28686 0.60648
 H323 H 0.92911 0.25283 0.66917
 H324 H 0.95391 0.27863 0.69822
 H325 H 0.95275 0.34589 0.67366
 H326 H 0.92831 0.37355 0.70117
 H327 H 0.99190 0.31658 0.73797
 H328 H 1.05106 0.30333 0.72046
 H329 H 1.07508 0.33326 0.74601
 H330 H 1.03507 0.39460 0.71206
 H331 H 1.01124 0.36476 0.68627
 H332 H 1.01309 0.26223 0.68368
 H333 H 1.03677 0.23493 0.65498
 H334 H 1.07410 0.29974 0.62435
 H335 H 1.05023 0.32697 0.65272
 H336 H 0.96757 0.34464 0.76546
 C337 C 0.31297 -0.01343 0.31091
 C338 C 0.31277 0.01212 0.31132
 C339 C 0.32912 0.02714 0.29456
 C340 C 0.29696 0.02636 0.32931
 C341 C 0.29575 -0.02839 0.32682
 C342 C 0.33118 -0.02775 0.29544
 C343 C 0.34524 0.04514 0.30494
 C344 C 0.36132 0.05888 0.28957
 C345 C 0.36135 0.05492 0.26365
 C346 C 0.34496 0.03738 0.25307
 C347 C 0.32881 0.02363 0.26844
 C348 C 0.29903 0.02233 0.35525
 C349 C 0.28416 0.03596 0.37200
 C350 C 0.26729 0.05391 0.36301
 C351 C 0.26540 0.05826 0.33722
 C352 C 0.28024 0.04462 0.32045
 C353 C 0.26969 -0.02473 0.32590
 C354 C 0.25389 -0.03826 0.34182
 C355 C 0.26398 -0.05572 0.35858
 C356 C 0.28984 -0.05987 0.35912
 C357 C 0.30564 -0.04635 0.34328
 C358 C 0.32256 -0.04608 0.27864
 C359 C 0.33952 -0.05999 0.26429
 C360 C 0.36530 -0.05586 0.26674
 C361 C 0.37403 -0.03778 0.28367
 C362 C 0.35708 -0.02389 0.29804
 H363 H 0.34571 0.04820 0.32500
 H364 H 0.37390 0.07243 0.29794
 H365 H 0.34478 0.03425 0.23302
 H366 H 0.31621 0.01014 0.26004
 H367 H 0.31220 0.00872 0.36249
 H368 H 0.28590 0.03258 0.39193
 H369 H 0.27856 0.04814 0.30054
 H370 H 0.26167 -0.01126 0.31304
 H371 H 0.23388 -0.03498 0.34119
 H372 H 0.29782 -0.07336 0.37200
 H373 H 0.32565 -0.04950 0.34422
 H374 H 0.30268 -0.04948 0.27655
 H375 H 0.33249 -0.07398 0.25134
 H376 H 0.39393 -0.03449 0.28589
 H377 H 0.36412 -0.01024 0.31130
 H378 H 0.25250 0.07219 0.33008
 C379 C 0.68526 -0.01253 0.68776
 C380 C 0.68524 0.01303 0.68760
 C381 C 0.66892 0.02779 0.70469
 C382 C 0.70082 0.02754 0.66966
 C383 C 0.70253 -0.02727 0.67160
 C384 C 0.66733 -0.02710 0.70331
 C385 C 0.65248 0.04571 0.69468
 C386 C 0.63641 0.05917 0.71036
 C387 C 0.63669 0.05501 0.73624
 C388 C 0.65339 0.03756 0.74646
 C389 C 0.66955 0.02409 0.73077
 C390 C 0.69872 0.02364 0.64369
 C391 C 0.71340 0.03750 0.62701
 C392 C 0.73011 0.05556 0.63608
 C393 C 0.73201 0.05979 0.66191
 C394 C 0.71736 0.04592 0.67861
 C395 C 0.72856 -0.02341 0.67240
 C396 C 0.74441 -0.03683 0.65636
 C397 C 0.73440 -0.05438 0.63961
 C398 C 0.70857 -0.05870 0.63917
 C399 C 0.69273 -0.04529 0.65513
 C400 C 0.67630 -0.04539 0.71993
 C401 C 0.65963 -0.05938 0.73449
 C402 C 0.63379 -0.05537 0.73244
 C403 C 0.62471 -0.03735 0.71564
 C404 C 0.64138 -0.02338 0.70106
 H405 H 0.65177 0.04891 0.67466
 H406 H 0.62358 0.07266 0.70227
 H407 H 0.65383 0.03428 0.76648
 H408 H 0.68239 0.01067 0.73891
 H409 H 0.68568 0.00993 0.63637
 H410 H 0.71165 0.03419 0.60705
 H411 H 0.71908 0.04935 0.69854
 H412 H 0.73653 -0.00990 0.68527
 H413 H 0.76439 -0.03343 0.65693
 H414 H 0.70064 -0.07227 0.62632
 H415 H 0.67274 -0.04861 0.65429
 H416 H 0.69623 -0.04867 0.72175
 H417 H 0.66693 -0.07331 0.74732
 H418 H 0.60476 -0.03415 0.71373
 H419 H 0.63406 -0.00975 0.68796
 H420 H 0.74479 0.07380 0.66912
 C421 C 0.31237 1.01170 0.68582
 C422 C 0.31244 0.98613 0.68557
 C423 C 0.33027 0.97153 0.70108
 C424 C 0.29545 0.97149 0.66902
 C425 C 0.29692 1.02637 0.66798
 C426 C 0.32857 1.02632 0.70315
 C427 C 0.35622 0.97531 0.69891
 C428 C 0.37282 0.96161 0.71376
 C429 C 0.36368 0.94382 0.73072
 C430 C 0.33787 0.93965 0.73264
 C431 C 0.32125 0.95336 0.71781
 C432 C 0.30556 0.95358 0.65256
 C433 C 0.29001 0.94019 0.63632
 C434 C 0.26414 0.94440 0.63644
 C435 C 0.25383 0.96186 0.65316
 C436 C 0.26939 0.97526 0.66947
 C437 C 0.28007 1.04443 0.67706
 C438 C 0.26544 1.05836 0.66044
 C439 C 0.26769 1.05451 0.63458
 C440 C 0.28474 1.03679 0.62539
 C441 C 0.29939 1.02287 0.64199
 C442 C 0.32784 1.02236 0.72920
 C443 C 0.34382 1.03578 0.74508
 C444 C 0.36046 1.05344 0.73512
 C445 C 0.36087 1.05782 0.70927
 C446 C 0.34497 1.04442 0.69340
 H447 H 0.36357 0.98887 0.68573
 H448 H 0.39277 0.96485 0.71201
 H449 H 0.33062 0.92584 0.74562
 H450 H 0.30132 0.95005 0.71957
 H451 H 0.32557 0.95031 0.65196
 H452 H 0.29820 0.92670 0.62351
 H453 H 0.26115 0.98866 0.68232
 H454 H 0.27808 1.04753 0.69703
 H455 H 0.25238 1.07211 0.66773
 H456 H 0.28673 1.03379 0.60540
 H457 H 0.31267 1.00940 0.63461
 H458 H 0.31504 1.00880 0.73716
 H459 H 0.34326 1.03231 0.76507
 H460 H 0.37362 1.07147 0.70136
 H461 H 0.34578 1.04783 0.67341
 H462 H 0.23383 0.96519 0.65350
 C463 C 0.68766 1.01354 0.31456
 C464 C 0.68764 0.98798 0.31469
 C465 C 0.66983 0.97340 0.29913
 C466 C 0.70461 0.97329 0.33117
 C467 C 0.70309 1.02821 0.33241
 C468 C 0.67132 1.02816 0.29740
 C469 C 0.64387 0.97705 0.30147
 C470 C 0.62728 0.96324 0.28669
 C471 C 0.63647 0.94550 0.26965
 C472 C 0.66229 0.94150 0.26753
 C473 C 0.67890 0.95532 0.28228
 C474 C 0.69447 0.95526 0.34743
 C475 C 0.70999 0.94164 0.36345
 C476 C 0.73587 0.94573 0.36333
 C477 C 0.74621 0.96335 0.34686
 C478 C 0.73067 0.97699 0.33076
 C479 C 0.71977 1.04639 0.32334
 C480 C 0.73423 1.06050 0.33998
 C481 C 0.73199 1.05670 0.36585
 C482 C 0.71514 1.03880 0.37501
 C483 C 0.70066 1.02471 0.35838
 C484 C 0.67196 1.02432 0.27133
 C485 C 0.65581 1.03770 0.25562
 C486 C 0.63907 1.05520 0.26580
 C487 C 0.63875 1.05947 0.29167
 C488 C 0.65483 1.04610 0.30737
 H489 H 0.63651 0.99055 0.31475
 H490 H 0.60732 0.96633 0.28860
 H491 H 0.66956 0.92772 0.25449
 H492 H 0.69884 0.95212 0.28041
 H493 H 0.67445 0.95205 0.34799
 H494 H 0.70179 0.92804 0.37608
 H495 H 0.73892 0.99048 0.31806
 H496 H 0.72170 1.04949 0.30338
 H497 H 0.74712 1.07436 0.33263
 H498 H 0.71310 1.03578 0.39499
 H499 H 0.68750 1.01115 0.36574
 H500 H 0.68483 1.01087 0.26321
 H501 H 0.65629 1.03433 0.23560
 H502 H 0.62592 1.07300 0.29974
 H503 H 0.65408 1.04941 0.32739
 H504 H 0.76623 0.96659 0.34654
 O505 O 0.83944 0.87384 0.52594
 O506 O 0.87379 0.83810 0.47768
 O507 O 0.83988 0.87340 0.47708
 O508 O 0.87365 0.83901 0.52645
 O509 O 0.84407 0.81019 0.52662
 O510 O 0.81032 0.84457 0.47730
 O511 O 0.84414 0.80936 0.47794
 O512 O 0.80994 0.84493 0.52605
 Cu513 Cu 0.85965 0.85899 0.50174
 Cu514 Cu 0.82415 0.82440 0.50197
 C515 C 0.81879 0.86543 0.53428
 C516 C 0.86487 0.81753 0.46965
 C517 C 0.81928 0.86492 0.46878
 C518 C 0.86466 0.81868 0.53497
 O519 O 0.16188 0.12745 0.52353
 O520 O 0.12686 0.16146 0.47483
 O521 O 0.16176 0.12722 0.47488
 O522 O 0.12705 0.16173 0.52371
 O523 O 0.15604 0.19115 0.52343
 O524 O 0.19066 0.15672 0.47468
 O525 O 0.15583 0.19089 0.47463
 O526 O 0.19080 0.15694 0.52326
 Cu527 Cu 0.14145 0.14154 0.49926
 Cu528 Cu 0.17619 0.17691 0.49897
 C529 C 0.18243 0.13629 0.53161
 C530 C 0.13537 0.18201 0.46638
 C531 C 0.18225 0.13599 0.46654
 C532 C 0.13564 0.18236 0.53196
 O533 O 0.15933 0.87405 0.47303
 O534 O 0.12491 0.83922 0.52168
 O535 O 0.15935 0.87393 0.52192
 O536 O 0.12482 0.83953 0.47292
 O537 O 0.15411 0.81037 0.47276
 O538 O 0.18855 0.84469 0.52167
 O539 O 0.15420 0.81007 0.52141
 O540 O 0.18852 0.84479 0.47289
 Cu541 Cu 0.13919 0.85964 0.49743
 Cu542 Cu 0.17429 0.82459 0.49718
 C543 C 0.17982 0.86532 0.46460
 C544 C 0.13362 0.81860 0.52977
 C545 C 0.17989 0.86520 0.53017
 C546 C 0.13354 0.81900 0.46450
 O547 O 0.87056 0.16380 0.52517
 O548 O 0.83590 0.12980 0.47629
 O549 O 0.87059 0.16419 0.47650
 O550 O 0.83569 0.12955 0.52497
 O551 O 0.80672 0.15903 0.52514
 O552 O 0.84155 0.19360 0.47670
 O553 O 0.80688 0.15923 0.47649
 O554 O 0.84156 0.19326 0.52535
 Cu555 Cu 0.85609 0.14388 0.50072
 Cu556 Cu 0.82127 0.17923 0.50095
 C557 C 0.86209 0.18445 0.53351
 C558 C 0.81538 0.13861 0.46811
 C559 C 0.86211 0.18491 0.46840
 C560 C 0.81514 0.13829 0.53324
 O561 O 0.47500 0.87203 0.83722
 O562 O 0.52345 0.83781 0.87246
 O563 O 0.52364 0.87200 0.83746
 O564 O 0.47471 0.83831 0.87254
 O565 O 0.47468 0.80857 0.84380
 O566 O 0.52358 0.84230 0.80869
 O567 O 0.52336 0.80815 0.84364
 O568 O 0.47499 0.84223 0.80854
 Cu569 Cu 0.49923 0.85801 0.85782
 Cu570 Cu 0.49917 0.82232 0.82331
 C571 C 0.46679 0.86302 0.81676
 C572 C 0.53161 0.81703 0.86412
 C573 C 0.53184 0.86304 0.81697
 C574 C 0.46635 0.81764 0.86420
 O575 O 0.47634 0.12659 0.16070
 O576 O 0.52531 0.16142 0.12689
 O577 O 0.52519 0.12650 0.16105
 O578 O 0.47671 0.16160 0.12664
 O579 O 0.47660 0.19047 0.15626
 O580 O 0.52499 0.15546 0.19057
 O581 O 0.52512 0.19032 0.15648
 O582 O 0.47622 0.15553 0.19024
 Cu583 Cu 0.50090 0.14109 0.14088
 Cu584 Cu 0.50072 0.17580 0.17639
 C585 C 0.46786 0.13512 0.18126
 C586 C 0.53346 0.18194 0.13580
 C587 C 0.53341 0.13501 0.18172
 C588 C 0.46848 0.18215 0.13549
 O589 O 0.52211 0.12550 0.84098
 O590 O 0.47307 0.16005 0.87533
 O591 O 0.47330 0.12525 0.84089
 O592 O 0.52191 0.16032 0.87531
 O593 O 0.52172 0.18930 0.84590
 O594 O 0.47326 0.15435 0.81158
 O595 O 0.47301 0.18903 0.84591
 O596 O 0.52194 0.15459 0.81167
 Cu597 Cu 0.49760 0.13987 0.86108
 Cu598 Cu 0.49746 0.17472 0.82584
 C599 C 0.53041 0.13415 0.82042
 C600 C 0.46466 0.18049 0.86649
 C601 C 0.46500 0.13380 0.82029
 C602 C 0.53016 0.18082 0.86646
 O603 O 0.47778 0.83612 0.12927
 O604 O 0.52569 0.87140 0.16416
 O605 O 0.52650 0.83706 0.12942
 O606 O 0.47708 0.87092 0.16369
 O607 O 0.47729 0.84175 0.19292
 O608 O 0.52670 0.80783 0.15861
 O609 O 0.52586 0.84212 0.19331
 O610 O 0.47802 0.80698 0.15854
 Cu611 Cu 0.50172 0.85679 0.14368
 Cu612 Cu 0.50197 0.82172 0.17875
 C613 C 0.46976 0.81544 0.13791
 C614 C 0.53390 0.86282 0.18478
 C615 C 0.53506 0.81663 0.13813
 C616 C 0.46886 0.86226 0.18427
 O617 O 0.87448 0.52396 0.83733
 O618 O 0.83838 0.47678 0.87254
 O619 O 0.87363 0.47521 0.83870
 O620 O 0.83983 0.52554 0.87175
 O621 O 0.81099 0.52555 0.84221
 O622 O 0.84480 0.47522 0.80914
 O623 O 0.80963 0.47687 0.84291
 O624 O 0.84556 0.52389 0.80786
 Cu625 Cu 0.85947 0.50037 0.85805
 Cu626 Cu 0.82486 0.50038 0.82258
 C627 C 0.86618 0.53195 0.81650
 C628 C 0.81776 0.46881 0.86375
 C629 C 0.86507 0.46666 0.81820
 C630 C 0.81959 0.53413 0.86269
 O631 O 0.16162 0.47599 0.12742
 O632 O 0.12728 0.52476 0.16230
 O633 O 0.16186 0.52490 0.12771
 O634 O 0.12713 0.47610 0.16211
 O635 O 0.15637 0.47590 0.19126
 O636 O 0.19100 0.52462 0.15695
 O637 O 0.15649 0.52449 0.19147
 O638 O 0.19079 0.47579 0.15663
 Cu639 Cu 0.14158 0.50046 0.14192
 Cu640 Cu 0.17662 0.50017 0.17695
 C641 C 0.18209 0.46752 0.13607
 C642 C 0.13591 0.53283 0.18296
 C643 C 0.18239 0.53314 0.13648
 C644 C 0.13573 0.46779 0.18269
 O645 O 0.83939 0.52194 0.12517
 O646 O 0.87412 0.47357 0.16008
 O647 O 0.83994 0.47318 0.12526
 O648 O 0.87381 0.52247 0.15990
 O649 O 0.84437 0.52233 0.18890
 O650 O 0.81058 0.47312 0.15435
 O651 O 0.84467 0.47354 0.18907
 O652 O 0.81004 0.52178 0.15427
 Cu653 Cu 0.85979 0.49782 0.13971
 Cu654 Cu 0.82450 0.49770 0.17457
 C655 C 0.81868 0.53003 0.13369
 C656 C 0.86529 0.46524 0.18056
 C657 C 0.81941 0.46476 0.13385
 C658 C 0.86490 0.53081 0.18037
 O659 O 0.16348 0.52560 0.87243
 O660 O 0.12890 0.47773 0.83677
 O661 O 0.16327 0.47695 0.87151
 O662 O 0.12900 0.52652 0.83792
 O663 O 0.15831 0.52695 0.80878
 O664 O 0.19256 0.47741 0.84235
 O665 O 0.15823 0.47821 0.80765
 O666 O 0.19274 0.52602 0.84324
 Cu667 Cu 0.14320 0.50164 0.85756
 Cu668 Cu 0.17837 0.50217 0.82256
 C669 C 0.18412 0.53390 0.86399
 C670 C 0.13762 0.46983 0.81604
 C671 C 0.18389 0.46884 0.86280
 C672 C 0.13778 0.53521 0.81758
 C673 C 0.22311 0.41159 0.09506
 C674 C 0.23216 0.42042 0.11803
 C675 C 0.21873 0.43848 0.13145
 C676 C 0.25000 0.37884 0.06929
 C677 C 0.18699 0.43887 0.09902
 C678 C 0.20047 0.42079 0.08562
 C679 C 0.23747 0.39360 0.08097
 C680 C 0.19603 0.44801 0.12206
 H681 H 0.24970 0.41347 0.12548
 H682 H 0.22621 0.44509 0.14911
 H683 H 0.16959 0.44581 0.09127
 H684 H 0.19334 0.41413 0.06782
 C685 C 0.77634 0.58423 0.09201
 C686 C 0.76743 0.57548 0.11505
 C687 C 0.78131 0.55800 0.12870
 C688 C 0.74933 0.61669 0.06617
 C689 C 0.81321 0.55806 0.09635
 C690 C 0.79928 0.57555 0.08272
 C691 C 0.76177 0.60193 0.07787
 C692 C 0.80432 0.54902 0.11947
 H693 H 0.74970 0.58208 0.12241
 H694 H 0.77393 0.55143 0.14642
 H695 H 0.83083 0.55151 0.08872
 H696 H 0.80633 0.58221 0.06489
 C697 C 0.77425 0.41521 0.90499
 C698 C 0.79701 0.42383 0.91468
 C699 C 0.81130 0.44117 0.90123
 C700 C 0.74666 0.38299 0.93050
 C701 C 0.78009 0.44123 0.86828
 C702 C 0.76585 0.42390 0.88176
 C703 C 0.75934 0.39763 0.91892
 C704 C 0.80295 0.45012 0.87789
 H705 H 0.80367 0.41721 0.93267
 H706 H 0.82880 0.44765 0.90914
 H707 H 0.77312 0.44773 0.85038
 H708 H 0.74825 0.41735 0.87409
 C709 C 0.22640 0.58716 0.90687
 C710 C 0.23529 0.57895 0.88360
 C711 C 0.22140 0.56181 0.86951
 C712 C 0.25349 0.61869 0.93371
 C713 C 0.18953 0.56118 0.90190
 C714 C 0.20347 0.57833 0.91595
 C715 C 0.24102 0.60437 0.92152
 C716 C 0.19841 0.55265 0.87856
 H717 H 0.25303 0.58568 0.87641
 H718 H 0.22877 0.55562 0.85164
 H719 H 0.17192 0.55448 0.90939
 H720 H 0.19644 0.58458 0.93396
 C721 C 0.09421 0.22270 0.41057
 C722 C 0.11709 0.23191 0.41934
 C723 C 0.13057 0.21859 0.43737
 C724 C 0.06832 0.24949 0.37799
 C725 C 0.09836 0.18660 0.43780
 C726 C 0.08489 0.19999 0.41976
 C727 C 0.08005 0.23698 0.39266
 C728 C 0.12130 0.19582 0.44689
 H729 H 0.12443 0.24951 0.41239
 H730 H 0.14817 0.22620 0.44395
 H731 H 0.09071 0.16915 0.44474
 H732 H 0.06715 0.19273 0.41313
 C733 C 0.09254 0.77620 0.58437
 C734 C 0.11559 0.76742 0.57550
 C735 C 0.12906 0.78132 0.55789
 C736 C 0.06696 0.74908 0.61692
 C737 C 0.09649 0.81299 0.55805
 C738 C 0.08305 0.79904 0.57568
 C739 C 0.07856 0.76157 0.60213
 C740 C 0.11961 0.80423 0.54889
 H741 H 0.12310 0.74975 0.58211
 H742 H 0.14679 0.77404 0.55123
 H743 H 0.08870 0.83054 0.55150
 H744 H 0.06520 0.80599 0.58242
 C745 C 0.90560 0.77404 0.41543
 C746 C 0.91539 0.79680 0.42405
 C747 C 0.90208 0.81110 0.44156
 C748 C 0.93097 0.74631 0.38307
 C749 C 0.86906 0.77994 0.44174
 C750 C 0.88240 0.76570 0.42425
 C751 C 0.91945 0.75906 0.39776
 C752 C 0.87879 0.80278 0.45067
 H753 H 0.93335 0.80342 0.41735
 H754 H 0.91008 0.82858 0.44806
 H755 H 0.85120 0.77299 0.44836
 H756 H 0.87466 0.74810 0.41770
 C757 C 0.90466 0.22626 0.58737
 C758 C 0.88162 0.23542 0.57895
 C759 C 0.86758 0.22167 0.56167
 C760 C 0.93174 0.25311 0.61890
 C761 C 0.89953 0.18936 0.56137
 C762 C 0.91354 0.20316 0.57865
 C763 C 0.91939 0.24078 0.60460
 C764 C 0.87646 0.19854 0.55257
 H765 H 0.87460 0.25330 0.58559
 H766 H 0.84991 0.22926 0.55526
 H767 H 0.90690 0.17164 0.55472
 H768 H 0.93137 0.19592 0.58506
 C769 C 0.41153 0.09430 0.22158
 C770 C 0.42045 0.11711 0.23093
 C771 C 0.43866 0.13047 0.21773
 C772 C 0.37858 0.06863 0.24814
 C773 C 0.43899 0.09829 0.18561
 C774 C 0.42076 0.08494 0.19887
 C775 C 0.39341 0.08026 0.23573
 C776 C 0.44822 0.12116 0.19496
 H777 H 0.41347 0.12448 0.24853
 H778 H 0.44535 0.14802 0.22544
 H779 H 0.44595 0.09062 0.16815
 H780 H 0.41402 0.06726 0.19152
 C781 C 0.58659 0.09373 0.77923
 C782 C 0.57753 0.08416 0.80189
 C783 C 0.55936 0.09737 0.81544
 C784 C 0.61948 0.06845 0.75209
 C785 C 0.55939 0.12984 0.78371
 C786 C 0.57754 0.11662 0.77023
 C787 C 0.60467 0.07988 0.76477
 C788 C 0.55000 0.12032 0.80643
 H789 H 0.58437 0.06642 0.80899
 H790 H 0.55253 0.08953 0.83286
 H791 H 0.55261 0.14744 0.77625
 H792 H 0.58438 0.12416 0.75267
 C793 C 0.41270 0.90398 0.77367
 C794 C 0.42144 0.91375 0.79638
 C795 C 0.43885 0.90033 0.81059
 C796 C 0.38080 0.92978 0.74602
 C797 C 0.43868 0.86720 0.77945
 C798 C 0.42127 0.88065 0.76529
 C799 C 0.39526 0.91802 0.75873
 C800 C 0.44776 0.87694 0.80220
 H801 H 0.41492 0.93182 0.80302
 H802 H 0.44549 0.90835 0.82800
 H803 H 0.44515 0.84926 0.77246
 H804 H 0.41463 0.87293 0.74773
 C805 C 0.58758 0.90488 0.22730
 C806 C 0.57914 0.88168 0.23605
 C807 C 0.56185 0.86788 0.22210
 C808 C 0.61937 0.93124 0.25453
 C809 C 0.56150 0.90042 0.19043
 C810 C 0.57881 0.91419 0.20444
 C811 C 0.60495 0.91925 0.24200
 C812 C 0.55275 0.87714 0.19917
 H813 H 0.58582 0.87432 0.25374
 H814 H 0.55549 0.85004 0.22936
 H815 H 0.55486 0.90807 0.17287
 H816 H 0.58523 0.93216 0.19751
 C817 C 0.40873 0.22210 0.90684
 C818 C 0.41788 0.19956 0.91660
 C819 C 0.43595 0.18585 0.90341
 C820 C 0.37621 0.24966 0.93218
 C821 C 0.43562 0.21717 0.87055
 C822 C 0.41757 0.23081 0.88376
 C823 C 0.39084 0.23677 0.92072
 C824 C 0.44511 0.19459 0.88028
 H825 H 0.41121 0.19268 0.93450
 H826 H 0.44286 0.16854 0.91141
 H827 H 0.44225 0.22442 0.85280
 H828 H 0.41067 0.24828 0.87606
 C829 C 0.58587 0.77518 0.90619
 C830 C 0.57714 0.79820 0.91528
 C831 C 0.55964 0.81199 0.90150
 C832 C 0.61824 0.74837 0.93232
 C833 C 0.55971 0.77978 0.86941
 C834 C 0.57719 0.76606 0.88321
 C835 C 0.60353 0.76073 0.92049
 C836 C 0.55065 0.80287 0.87845
 H837 H 0.58374 0.80543 0.93306
 H838 H 0.55303 0.82967 0.90899
 H839 H 0.55318 0.77222 0.85175
 H840 H 0.58383 0.74826 0.87600
 C841 C 0.41568 0.77274 0.09650
 C842 C 0.42429 0.79564 0.08709
 C843 C 0.44176 0.80968 0.10063
 C844 C 0.38334 0.74559 0.07068
 C845 C 0.44193 0.77796 0.13313
 C846 C 0.42447 0.76398 0.11956
 C847 C 0.39804 0.75806 0.08242
 C848 C 0.45084 0.80095 0.12378
 H849 H 0.41759 0.80258 0.06924
 H850 H 0.44825 0.82728 0.09292
 H851 H 0.44853 0.77070 0.15087
 H852 H 0.41792 0.74627 0.12700
 C853 C 0.58748 0.22481 0.09451
 C854 C 0.57890 0.20192 0.08501
 C855 C 0.56155 0.18777 0.09858
 C856 C 0.61910 0.25236 0.06826
 C857 C 0.56149 0.21932 0.13133
 C858 C 0.57884 0.23342 0.11773
 C859 C 0.60477 0.23971 0.08024
 C860 C 0.55254 0.19640 0.12184
 H861 H 0.58547 0.19511 0.06703
 H862 H 0.55502 0.17023 0.09075
 H863 H 0.55493 0.22649 0.14916
 H864 H 0.58536 0.25113 0.12523
 C865 C 0.22525 0.09499 0.58564
 C866 C 0.23391 0.11812 0.57691
 C867 C 0.21985 0.13171 0.55953
 C868 C 0.25261 0.06881 0.61747
 C869 C 0.18825 0.09911 0.55971
 C870 C 0.20236 0.08555 0.57710
 C871 C 0.24007 0.08076 0.60304
 C872 C 0.19691 0.12229 0.55064
 H873 H 0.25162 0.12558 0.58340
 H874 H 0.22705 0.14949 0.55292
 H875 H 0.17069 0.09133 0.55323
 H876 H 0.19550 0.06764 0.58373
 C877 C 0.77306 0.09700 0.41390
 C878 C 0.79602 0.08775 0.42246
 C879 C 0.80997 0.10143 0.43989
 C880 C 0.74604 0.07046 0.38206
 C881 C 0.77809 0.13381 0.44005
 C882 C 0.76418 0.12009 0.42263
 C883 C 0.75842 0.08260 0.39649
 C884 C 0.80108 0.12455 0.44898
 H885 H 0.80304 0.06988 0.41582
 H886 H 0.82758 0.09378 0.44639
 H887 H 0.77072 0.15153 0.44669
 H888 H 0.74642 0.12740 0.41611
 C889 C 0.77762 0.90666 0.58991
 C890 C 0.80031 0.91609 0.58078
 C891 C 0.81385 0.90264 0.56276
 C892 C 0.75041 0.93219 0.62255
 C893 C 0.78205 0.87024 0.56309
 C894 C 0.76858 0.88370 0.58108
 C895 C 0.76317 0.92070 0.60785
 C896 C 0.80480 0.87960 0.55364
 H897 H 0.80744 0.93389 0.58744
 H898 H 0.83130 0.91035 0.55587
 H899 H 0.77456 0.85257 0.55650
 H900 H 0.75101 0.87626 0.58798
 C901 C 0.22087 0.90567 0.40845
 C902 C 0.19833 0.91538 0.41768
 C903 C 0.18482 0.90220 0.43587
 C904 C 0.24804 0.93088 0.37565
 C905 C 0.21638 0.86951 0.43549
 C906 C 0.22981 0.88270 0.41733
 C907 C 0.23531 0.91949 0.39040
 C908 C 0.19377 0.87916 0.44505
 H909 H 0.19129 0.93319 0.41098
 H910 H 0.16749 0.91013 0.44284
 H911 H 0.22378 0.85183 0.44213
 H912 H 0.24728 0.87506 0.41035
 C913 C 0.09639 0.41578 0.77306
 C914 C 0.11940 0.42471 0.76429
 C915 C 0.13291 0.44216 0.77836
 C916 C 0.07060 0.38343 0.74587
 C917 C 0.10047 0.44171 0.81016
 C918 C 0.08698 0.42425 0.79604
 C919 C 0.08234 0.39813 0.75833
 C920 C 0.12356 0.45092 0.80143
 H921 H 0.12684 0.41827 0.74651
 H922 H 0.15062 0.44888 0.77110
 H923 H 0.09274 0.44808 0.82783
 H924 H 0.06917 0.41745 0.80299
 C925 C 0.09401 0.58665 0.22579
 C926 C 0.08483 0.57815 0.20276
 C927 C 0.09858 0.56085 0.18864
 C928 C 0.06752 0.61837 0.25320
 C929 C 0.13090 0.56069 0.22051
 C930 C 0.11711 0.57798 0.23458
 C931 C 0.07959 0.60398 0.24062
 C932 C 0.12173 0.55182 0.19743
 H933 H 0.06695 0.58474 0.19580
 H934 H 0.09099 0.55439 0.17097
 H935 H 0.14863 0.55412 0.22781
 H936 H 0.12439 0.58445 0.25239
 C937 C 0.90553 0.40939 0.22216
 C938 C 0.88251 0.41832 0.23093
 C939 C 0.86936 0.43638 0.21732
 C940 C 0.93068 0.37669 0.24951
 C941 C 0.90220 0.43658 0.18593
 C942 C 0.91534 0.41850 0.19961
 C943 C 0.91930 0.39141 0.23673
 C944 C 0.87910 0.44580 0.19471
 H945 H 0.87479 0.41145 0.24840
 H946 H 0.85163 0.44306 0.22460
 H947 H 0.91021 0.44344 0.16860
 H948 H 0.93319 0.41176 0.19269
 C949 C 0.90830 0.58575 0.77409
 C950 C 0.91748 0.57710 0.79706
 C951 C 0.90375 0.55967 0.81099
 C952 C 0.93410 0.61829 0.74716
 C953 C 0.87157 0.55958 0.77898
 C954 C 0.88532 0.57700 0.76512
 C955 C 0.92244 0.60348 0.75958
 C956 C 0.88065 0.55067 0.80206
 H957 H 0.93526 0.58377 0.80417
 H958 H 0.91125 0.55317 0.82867
 H959 H 0.85387 0.55305 0.77156
 H960 H 0.87805 0.58357 0.74735
 C961 C 0.77873 0.59093 0.90264
 C962 C 0.76981 0.58193 0.87969
 C963 C 0.78323 0.56365 0.86653
 C964 C 0.75171 0.62360 0.92836
 C965 C 0.81476 0.56346 0.89918
 C966 C 0.80129 0.58175 0.91230
 C967 C 0.76428 0.60893 0.91662
 C968 C 0.80579 0.55409 0.87621
 H969 H 0.75233 0.58886 0.87208
 H970 H 0.77581 0.55685 0.84892
 H971 H 0.83205 0.55650 0.90714
 H972 H 0.80833 0.58853 0.93009
 C973 C 0.22615 0.41432 0.90420
 C974 C 0.23512 0.42322 0.88123
 C975 C 0.22123 0.44072 0.86759
 C976 C 0.25321 0.38226 0.93052
 C977 C 0.18917 0.44031 0.89977
 C978 C 0.20310 0.42281 0.91338
 C979 C 0.24080 0.39680 0.91851
 C980 C 0.19814 0.44958 0.87677
 H981 H 0.25295 0.41677 0.87396
 H982 H 0.22868 0.44747 0.84997
 H983 H 0.17149 0.44676 0.90737
 H984 H 0.19599 0.41605 0.93114
 C985 C 0.22391 0.58918 0.09626
 C986 C 0.20125 0.58022 0.08662
 C987 C 0.18760 0.56210 0.09976
 C988 C 0.25116 0.62201 0.07105
 C989 C 0.21922 0.56195 0.13230
 C990 C 0.23281 0.58005 0.11915
 C991 C 0.23845 0.60723 0.08246
 C992 C 0.19650 0.55268 0.12271
 H993 H 0.19422 0.58711 0.06888
 H994 H 0.17019 0.55537 0.09186
 H995 H 0.22660 0.55513 0.14991
 H996 H 0.25036 0.58680 0.12675
 C997 C 0.77824 0.40915 0.09266
 C998 C 0.76926 0.41788 0.11571
 C999 C 0.78277 0.43578 0.12922
 C1000 C 0.75091 0.37692 0.06675
 C1001 C 0.81452 0.43618 0.09673
 C1002 C 0.80094 0.41826 0.08324
 C1003 C 0.76370 0.39142 0.07845
 C1004 C 0.80550 0.44525 0.11983
 H1005 H 0.75168 0.41100 0.12315
 H1006 H 0.77530 0.44234 0.14692
 H1007 H 0.83194 0.44308 0.08898
 H1008 H 0.80804 0.41168 0.06537
 C1009 C 0.90486 0.77739 0.59111
 C1010 C 0.88184 0.76857 0.58225
 C1011 C 0.86865 0.78210 0.56415
 C1012 C 0.93041 0.75028 0.62374
 C1013 C 0.90141 0.81352 0.56380
 C1014 C 0.91457 0.79994 0.58192
 C1015 C 0.91878 0.76289 0.60906
 C1016 C 0.87835 0.80468 0.55461
 H1017 H 0.87418 0.75110 0.58919
 H1018 H 0.85097 0.77477 0.55749
 H1019 H 0.90939 0.83083 0.55686
 H1020 H 0.93240 0.80691 0.58860
 C1021 C 0.90420 0.22714 0.41432
 C1022 C 0.91328 0.20410 0.42293
 C1023 C 0.89949 0.19021 0.44035
 C1024 C 0.93057 0.25400 0.38208
 C1025 C 0.86736 0.22232 0.44047
 C1026 C 0.88118 0.23617 0.42306
 C1027 C 0.91858 0.24168 0.39673
 C1028 C 0.87641 0.19922 0.44940
 H1029 H 0.93108 0.19694 0.41629
 H1030 H 0.90699 0.17252 0.44685
 H1031 H 0.84969 0.22980 0.44705
 H1032 H 0.87397 0.25398 0.41652
 C1033 C 0.09515 0.22354 0.58818
 C1034 C 0.08569 0.20078 0.57919
 C1035 C 0.09891 0.18725 0.56100
 C1036 C 0.06982 0.25057 0.62118
 C1037 C 0.13118 0.21918 0.56084
 C1038 C 0.11794 0.23265 0.57902
 C1039 C 0.08128 0.23794 0.60632
 C1040 C 0.12177 0.19637 0.55154
 H1041 H 0.06803 0.19359 0.58611
 H1042 H 0.09116 0.16976 0.55424
 H1043 H 0.14871 0.22673 0.55399
 H1044 H 0.12540 0.25028 0.58580
 C1045 C 0.09262 0.77734 0.40905
 C1046 C 0.08306 0.80003 0.41817
 C1047 C 0.09646 0.81375 0.43605
 C1048 C 0.06691 0.74984 0.37680
 C1049 C 0.12911 0.78218 0.43561
 C1050 C 0.11570 0.76852 0.41774
 C1051 C 0.07853 0.76268 0.39132
 C1052 C 0.11959 0.80491 0.44507
 H1053 H 0.06518 0.80700 0.41162
 H1054 H 0.08860 0.83116 0.44295
 H1055 H 0.14684 0.77484 0.44213
 H1056 H 0.12325 0.75095 0.41086
 C1057 C 0.58574 0.90457 0.77396
 C1058 C 0.57714 0.91397 0.79690
 C1059 C 0.55984 0.90033 0.81106
 C1060 C 0.61754 0.93098 0.74661
 C1061 C 0.55982 0.86767 0.77944
 C1062 C 0.57712 0.88136 0.76532
 C1063 C 0.60310 0.91891 0.75912
 C1064 C 0.55087 0.87707 0.80243
 H1065 H 0.58368 0.93193 0.80377
 H1066 H 0.55333 0.90811 0.82865
 H1067 H 0.55329 0.84986 0.77225
 H1068 H 0.58365 0.87390 0.74758
 C1069 C 0.41417 0.90397 0.22620
 C1070 C 0.42301 0.88102 0.23528
 C1071 C 0.44059 0.86728 0.22151
 C1072 C 0.38183 0.93047 0.25287
 C1073 C 0.44040 0.89934 0.18937
 C1074 C 0.42282 0.91305 0.20318
 C1075 C 0.39652 0.91837 0.24066
 C1076 C 0.44958 0.87635 0.19845
 H1077 H 0.41643 0.87383 0.25309
 H1078 H 0.44728 0.84967 0.22904
 H1079 H 0.44694 0.90686 0.17171
 H1080 H 0.41611 0.93080 0.19598
 C1081 C 0.58917 0.09410 0.22286
 C1082 C 0.58014 0.11697 0.23200
 C1083 C 0.56212 0.13034 0.21854
 C1084 C 0.62192 0.06864 0.24993
 C1085 C 0.56216 0.09804 0.18656
 C1086 C 0.58020 0.08468 0.20009
 C1087 C 0.60717 0.08012 0.23727
 C1088 C 0.55284 0.12099 0.19570
 H1089 H 0.58690 0.12441 0.24964
 H1090 H 0.55537 0.14794 0.22611
 H1091 H 0.55541 0.09032 0.16905
 H1092 H 0.58701 0.06696 0.19287
 C1093 C 0.40974 0.09260 0.77865
 C1094 C 0.41877 0.08313 0.80136
 C1095 C 0.43662 0.09659 0.81507
 C1096 C 0.37740 0.06696 0.75119
 C1097 C 0.43633 0.12912 0.78341
 C1098 C 0.41850 0.11565 0.76977
 C1099 C 0.39197 0.07851 0.76403
 C1100 C 0.44569 0.11970 0.80617
 H1101 H 0.41216 0.06528 0.80839
 H1102 H 0.44343 0.08882 0.83251
 H1103 H 0.44288 0.14684 0.77602
 H1104 H 0.41169 0.12314 0.75219
 C1105 C 0.59129 0.77605 0.09714
 C1106 C 0.58208 0.79877 0.08784
 C1107 C 0.56395 0.81212 0.10128
 C1108 C 0.62391 0.74942 0.07096
 C1109 C 0.56431 0.78012 0.13349
 C1110 C 0.58244 0.76682 0.12002
 C1111 C 0.60924 0.76180 0.08289
 C1112 C 0.55476 0.80287 0.12420
 H1113 H 0.58876 0.80605 0.07011
 H1114 H 0.55699 0.82956 0.09361
 H1115 H 0.55765 0.77249 0.15106
 H1116 H 0.58939 0.74922 0.12735
 C1117 C 0.41458 0.22514 0.09405
 C1118 C 0.42334 0.20232 0.08448
 C1119 C 0.44070 0.18817 0.09806
 C1120 C 0.38256 0.25259 0.06810
 C1121 C 0.44044 0.21957 0.13093
 C1122 C 0.42309 0.23367 0.11733
 C1123 C 0.39710 0.23998 0.07989
 C1124 C 0.44953 0.19669 0.12140
 H1125 H 0.41688 0.19555 0.06647
 H1126 H 0.44734 0.17066 0.09019
 H1127 H 0.44684 0.22668 0.14882
 H1128 H 0.41643 0.25131 0.12490
 C1129 C 0.58641 0.22246 0.90629
 C1130 C 0.57739 0.19988 0.91610
 C1131 C 0.55915 0.18623 0.90313
 C1132 C 0.61975 0.24956 0.93102
 C1133 C 0.55898 0.21769 0.87042
 C1134 C 0.57720 0.23129 0.88341
 C1135 C 0.60471 0.23694 0.91984
 C1136 C 0.54968 0.19503 0.88016
 H1137 H 0.58434 0.19290 0.93383
 H1138 H 0.55240 0.16886 0.91114
 H1139 H 0.55213 0.22500 0.85280
 H1140 H 0.58400 0.24877 0.87566
 C1141 C 0.41104 0.77699 0.90625
 C1142 C 0.42004 0.79995 0.91519
 C1143 C 0.43785 0.81333 0.90140
 C1144 C 0.37895 0.75020 0.93284
 C1145 C 0.43759 0.78089 0.86957
 C1146 C 0.41978 0.76756 0.88337
 C1147 C 0.39340 0.76270 0.92079
 C1148 C 0.44694 0.80388 0.87849
 H1149 H 0.41345 0.80739 0.93290
 H1150 H 0.44466 0.83096 0.90880
 H1151 H 0.44417 0.77308 0.85201
 H1152 H 0.41299 0.74977 0.87631
 C1153 C 0.77847 0.90604 0.41291
 C1154 C 0.80130 0.91524 0.42188
 C1155 C 0.81474 0.90177 0.43990
 C1156 C 0.75157 0.93195 0.38037
 C1157 C 0.78259 0.86973 0.43989
 C1158 C 0.76921 0.88322 0.42189
 C1159 C 0.76413 0.92023 0.39502
 C1160 C 0.80546 0.87891 0.44921
 H1161 H 0.80862 0.93291 0.41511
 H1162 H 0.83227 0.90936 0.44667
 H1163 H 0.77491 0.85221 0.44664
 H1164 H 0.75153 0.87594 0.41512
 C1165 C 0.22130 0.90567 0.58619
 C1166 C 0.23026 0.88275 0.57707
 C1167 C 0.21671 0.86951 0.55898
 C1168 C 0.24840 0.93095 0.61913
 C1169 C 0.18501 0.90204 0.55911
 C1170 C 0.19862 0.91526 0.57722
 C1171 C 0.23577 0.91952 0.60428
 C1172 C 0.19396 0.87905 0.54971
 H1173 H 0.24782 0.87517 0.58383
 H1174 H 0.22414 0.85189 0.55217
 H1175 H 0.16758 0.90990 0.55237
 H1176 H 0.19153 0.93301 0.58409
 C1177 C 0.22484 0.09428 0.41235
 C1178 C 0.23346 0.11754 0.42084
 C1179 C 0.21948 0.13124 0.43827
 C1180 C 0.25214 0.06807 0.38028
 C1181 C 0.18802 0.09851 0.43865
 C1182 C 0.20206 0.08484 0.42120
 C1183 C 0.23959 0.07999 0.39483
 C1184 C 0.19664 0.12182 0.44747
 H1185 H 0.25108 0.12502 0.41411
 H1186 H 0.22665 0.14911 0.44467
 H1187 H 0.17055 0.09072 0.44536
 H1188 H 0.19522 0.06684 0.41476
 C1189 C 0.77240 0.09633 0.58703
 C1190 C 0.79529 0.08700 0.57827
 C1191 C 0.80937 0.10076 0.56097
 C1192 C 0.74514 0.06990 0.61888
 C1193 C 0.77774 0.13336 0.56128
 C1194 C 0.76371 0.11957 0.57858
 C1195 C 0.75764 0.08194 0.60442
 C1196 C 0.80069 0.12406 0.55219
 H1197 H 0.80219 0.06902 0.58469
 H1198 H 0.82693 0.09305 0.55434
 H1199 H 0.77051 0.15121 0.55491
 H1200 H 0.74602 0.12698 0.58523
 C1201 C 0.90494 0.58695 0.22203
 C1202 C 0.91468 0.57791 0.19939
 C1203 C 0.90159 0.55978 0.18569
 C1204 C 0.93014 0.61982 0.24931
 C1205 C 0.86887 0.55979 0.21720
 C1206 C 0.88198 0.57791 0.23084
 C1207 C 0.91872 0.60501 0.23662
 C1208 C 0.87857 0.55043 0.19451
 H1209 H 0.93247 0.58473 0.19242
 H1210 H 0.90957 0.55298 0.16831
 H1211 H 0.85121 0.55302 0.22452
 H1212 H 0.87429 0.58472 0.24837
 C1213 C 0.90611 0.41028 0.77787
 C1214 C 0.88329 0.41913 0.76856
 C1215 C 0.86977 0.43725 0.78182
 C1216 C 0.93233 0.37791 0.75096
 C1217 C 0.90178 0.43756 0.81398
 C1218 C 0.91528 0.41943 0.80066
 C1219 C 0.92044 0.39245 0.76354
 C1220 C 0.87895 0.44680 0.80462
 H1221 H 0.87605 0.41221 0.75089
 H1222 H 0.85227 0.44394 0.77409
 H1223 H 0.90937 0.44452 0.83146
 H1224 H 0.93297 0.41276 0.80800
 C1225 C 0.09692 0.59144 0.77705
 C1226 C 0.08745 0.58208 0.79963
 C1227 C 0.10084 0.56396 0.81298
 C1228 C 0.07092 0.62398 0.75025
 C1229 C 0.13336 0.56466 0.78127
 C1230 C 0.11994 0.58277 0.76796
 C1231 C 0.08274 0.60935 0.76274
 C1232 C 0.12389 0.55493 0.80387
 H1233 H 0.06961 0.58862 0.80679
 H1234 H 0.09304 0.55687 0.83031
 H1235 H 0.15103 0.55813 0.77373
 H1236 H 0.12741 0.58984 0.75046
 C1237 C 0.09367 0.41384 0.22508
 C1238 C 0.08442 0.42266 0.20220
 C1239 C 0.09821 0.44001 0.18822
 C1240 C 0.06728 0.38191 0.25226
 C1241 C 0.13067 0.43961 0.21992
 C1242 C 0.11686 0.42227 0.23384
 C1243 C 0.07927 0.39640 0.23976
 C1244 C 0.12145 0.44878 0.19699
 H1245 H 0.06648 0.41625 0.19524
 H1246 H 0.09057 0.44669 0.17067
 H1247 H 0.14848 0.44598 0.22722
 H1248 H 0.12420 0.41557 0.25153
   
